
#######################################################################
#
#                 Cambridge Crystallographic Data Centre
#                                CCDC 
#
#######################################################################
#
# If this CIF has been generated from an entry in the Cambridge 
# Structural Database, then it will include bibliographic, chemical, 
# crystal, experimental, refinement or atomic coordinate data resulting 
# from the CCDC's data processing and validation procedures.
#
#######################################################################

data_DUJMEC
_chemical_formula_moiety         'C48 H40 B6 N2 O6,C6 H6'
_chemical_name_systematic        
"4,4'-Ethene-1,2-diylbis(1-(2,4,6-triphenyl-1,3,5,2\l^5^,4,6-trioxatriborinan-2-yl)-1\l^5^-pyridine) benzene solvate"
_symmetry_cell_setting           monoclinic
_symmetry_space_group_name_H-M   'C 2/c'
_symmetry_Int_Tables_number      15
_space_group_name_Hall           '-C 2yn'
loop_
_symmetry_equiv_pos_site_id
_symmetry_equiv_pos_as_xyz
1 x,y,z
2 -x,y,1/2-z
3 1/2+x,1/2+y,z
4 1/2-x,1/2+y,1/2-z
5 -x,-y,-z
6 x,-y,1/2+z
7 1/2-x,1/2-y,-z
8 1/2+x,1/2-y,1/2+z
_cell_length_a                   22.183(4)
_cell_length_b                   15.790(3)
_cell_length_c                   14.260(3)
_cell_angle_alpha                90
_cell_angle_beta                 98.697(2)
_cell_angle_gamma                90
_cell_volume                     4937.41
_exptl_crystal_colour            colorless
_exptl_crystal_description       block
_cell_formula_units_Z            4
loop_
_atom_site_label
_atom_site_type_symbol
_atom_site_fract_x
_atom_site_fract_y
_atom_site_fract_z
B1 B 0.29909(12) 0.08275(15) 0.77852(17)
B2 B 0.28727(11) 0.21481(16) 0.86549(18)
B3 B 0.21154(11) 0.17696(18) 0.7337(2)
O1 O 0.31758(6) 0.14235(8) 0.85558(9)
O2 O 0.24383(6) 0.10757(9) 0.71690(10)
O3 O 0.23366(7) 0.23239(9) 0.80536(11)
N1 N 0.28078(8) -0.00458(10) 0.83005(11)
C1 C 0.23040(11) -0.04797(13) 0.79886(15)
H1 H 0.2047 -0.0281 0.7458
C2 C 0.21489(11) -0.12047(14) 0.84156(16)
H2 H 0.1789 -0.1484 0.8178
C3 C 0.25191(11) -0.15252(12) 0.91918(15)
C4 C 0.30430(11) -0.10717(14) 0.95154(16)
H3 H 0.3306 -0.1260 1.0045
C5 C 0.31777(10) -0.03439(14) 0.90596(16)
H4 H 0.3534 -0.0051 0.9283
C6 C 0.23474(11) -0.23199(13) 0.96342(15)
H5 H 0.1988 -0.2581 0.9360
C7 C 0.35438(10) 0.06196(14) 0.72191(15)
C8 C 0.39520(12) 0.12602(18) 0.70594(18)
H6 H 0.3905 0.1796 0.7310
C9 C 0.44212(15) 0.1127(3) 0.6544(2)
H7 H 0.4678 0.1572 0.6442
C10 C 0.45112(15) 0.0341(3) 0.6180(2)
H8 H 0.4832 0.0250 0.5840
C11 C 0.41363(16) -0.0290(2) 0.6316(2)
H9 H 0.4195 -0.0824 0.6070
C12 C 0.36511(12) -0.01523(18) 0.68301(19)
H10 H 0.3393 -0.0602 0.6910
C13 C 0.31297(10) 0.28284(13) 0.93929(15)
C14 C 0.28486(11) 0.36111(15) 0.94344(17)
H11 H 0.2488 0.3719 0.9028
C15 C 0.30874(14) 0.42306(16) 1.0057(2)
H12 H 0.2892 0.4752 1.0060
C16 C 0.36081(14) 0.40842(18) 1.0671(2)
H13 H 0.3771 0.4507 1.1088
C17 C 0.38919(12) 0.33151(19) 1.06747(19)
H14 H 0.4242 0.3208 1.1106
C18 C 0.36564(11) 0.26974(15) 1.00353(18)
H15 H 0.3857 0.2180 1.0036
C19 C 0.14998(10) 0.19752(16) 0.66946(18)
C20 C 0.13083(12) 0.1525(2) 0.5872(2)
H16 H 0.1543 0.1072 0.5720
C21 C 0.07827(16) 0.1722(3) 0.5270(2)
H17 H 0.0669 0.1411 0.4718
C22 C 0.04339(18) 0.2370(4) 0.5486(4)
H18 H 0.0080 0.2506 0.5076
C23 C 0.05920(16) 0.2838(3) 0.6305(4)
H19 H 0.0346 0.3278 0.6457
C24 C 0.11349(12) 0.26308(19) 0.6903(2)
H20 H 0.1250 0.2945 0.7452
B1F B 0.20091(12) -0.58275(15) 1.22148(17)
B2F B 0.21273(11) -0.71481(16) 1.13451(18)
B3F B 0.28846(11) -0.67696(18) 1.2663(2)
O1F O 0.18242(6) -0.64235(8) 1.14442(9)
O2F O 0.25617(6) -0.60757(9) 1.28310(10)
O3F O 0.26634(7) -0.73239(9) 1.19464(11)
N1F N 0.21922(8) -0.49542(10) 1.16995(11)
C1F C 0.26960(11) -0.45203(13) 1.20114(15)
H1F H 0.2953 -0.4719 1.2542
C2F C 0.28511(11) -0.37953(14) 1.15844(16)
H2F H 0.3211 -0.3516 1.1822
C3F C 0.24809(11) -0.34748(12) 1.08082(15)
C4F C 0.19570(11) -0.39283(14) 1.04846(16)
H3F H 0.1694 -0.3740 0.9955
C5F C 0.18223(10) -0.46561(14) 1.09404(16)
H4F H 0.1466 -0.4949 1.0717
C6F C 0.26526(11) -0.26801(13) 1.03658(15)
H5F H 0.3012 -0.2419 1.0640
C7F C 0.14562(10) -0.56196(14) 1.27809(15)
C8F C 0.10480(12) -0.62602(18) 1.29406(18)
H6F H 0.1095 -0.6796 1.2690
C9F C 0.05788(15) -0.6127(3) 1.3456(2)
H7F H 0.0322 -0.6572 1.3558
C10F C 0.04888(15) -0.5341(3) 1.3820(2)
H8F H 0.0168 -0.5250 1.4160
C11F C 0.08637(16) -0.4710(2) 1.3684(2)
H9F H 0.0805 -0.4176 1.3930
C12F C 0.13489(12) -0.48477(18) 1.31699(19)
H10F H 0.1607 -0.4398 1.3090
C13F C 0.18703(10) -0.78284(13) 1.06071(15)
C14F C 0.21514(11) -0.86111(15) 1.05656(17)
H11F H 0.2512 -0.8719 1.0972
C15F C 0.19126(14) -0.92306(16) 0.9943(2)
H12F H 0.2108 -0.9752 0.9940
C16F C 0.13919(14) -0.90842(18) 0.9329(2)
H13F H 0.1229 -0.9507 0.8912
C17F C 0.11081(12) -0.83151(19) 0.93253(19)
H14F H 0.0758 -0.8208 0.8894
C18F C 0.13436(11) -0.76974(15) 0.99647(18)
H15F H 0.1143 -0.7180 0.9964
C19F C 0.35002(10) -0.69752(16) 1.33054(18)
C20F C 0.36917(12) -0.6525(2) 1.4128(2)
H16F H 0.3457 -0.6072 1.4280
C21F C 0.42173(16) -0.6722(3) 1.4730(2)
H17F H 0.4331 -0.6411 1.5282
C22F C 0.45661(18) -0.7370(4) 1.4514(4)
H18F H 0.4920 -0.7506 1.4924
C23F C 0.44080(16) -0.7838(3) 1.3695(4)
H19F H 0.4654 -0.8278 1.3543
C24F C 0.38651(12) -0.76308(19) 1.3097(2)
H20F H 0.3750 -0.7945 1.2548
C25? C 0.5000 0.6434(5) 0.2500
C26? C 0.4478(6) 0.6293(11) 0.3170(8)
C27? C 0.4391(5) 0.5621(10) 0.3519(9)
C28? C 0.4621(6) 0.4815(12) 0.3079(8)
C29? C 0.5000 0.4936(5) 0.2500
C30? C 0.4757(3) 0.5718(8) 0.2922(4)
loop_
_geom_bond_atom_site_label_1
_geom_bond_atom_site_label_2
_geom_bond_site_symmetry_1
_geom_bond_site_symmetry_2
B1 O1 1_555 1_555
B2 O1 1_555 1_555
B3 O2 1_555 1_555
O2 B1 1_555 1_555
O3 B2 1_555 1_555
N1 B1 1_555 1_555
C1 N1 1_555 1_555
H1 C1 1_555 1_555
C2 C1 1_555 1_555
H2 C2 1_555 1_555
C3 C2 1_555 1_555
C4 C3 1_555 1_555
H3 C4 1_555 1_555
C5 N1 1_555 1_555
H4 C5 1_555 1_555
C6 C3 1_555 1_555
H5 C6 1_555 1_555
C7 B1 1_555 1_555
C8 C7 1_555 1_555
H6 C8 1_555 1_555
C9 C8 1_555 1_555
H7 C9 1_555 1_555
C10 C9 1_555 1_555
H8 C10 1_555 1_555
C11 C10 1_555 1_555
H9 C11 1_555 1_555
C12 C7 1_555 1_555
H10 C12 1_555 1_555
C13 B2 1_555 1_555
C14 C13 1_555 1_555
H11 C14 1_555 1_555
C15 C14 1_555 1_555
H12 C15 1_555 1_555
C16 C15 1_555 1_555
H13 C16 1_555 1_555
C17 C16 1_555 1_555
H14 C17 1_555 1_555
C18 C13 1_555 1_555
H15 C18 1_555 1_555
C19 B3 1_555 1_555
C20 C19 1_555 1_555
H16 C20 1_555 1_555
C21 C20 1_555 1_555
H17 C21 1_555 1_555
C22 C21 1_555 1_555
H18 C22 1_555 1_555
C23 C22 1_555 1_555
H19 C23 1_555 1_555
C24 C19 1_555 1_555
H20 C24 1_555 1_555
B1F O1F 1_555 1_555
B2F O1F 1_555 1_555
B3F O2F 1_555 1_555
O2F B1F 1_555 1_555
O3F B2F 1_555 1_555
N1F B1F 1_555 1_555
C1F N1F 1_555 1_555
H1F C1F 1_555 1_555
C2F C1F 1_555 1_555
H2F C2F 1_555 1_555
C3F C2F 1_555 1_555
C4F C3F 1_555 1_555
H3F C4F 1_555 1_555
C5F N1F 1_555 1_555
H4F C5F 1_555 1_555
C6F C6 1_555 1_555
H5F C6F 1_555 1_555
C7F B1F 1_555 1_555
C8F C7F 1_555 1_555
H6F C8F 1_555 1_555
C9F C8F 1_555 1_555
H7F C9F 1_555 1_555
C10F C9F 1_555 1_555
H8F C10F 1_555 1_555
C11F C10F 1_555 1_555
H9F C11F 1_555 1_555
C12F C7F 1_555 1_555
H10F C12F 1_555 1_555
C13F B2F 1_555 1_555
C14F C13F 1_555 1_555
H11F C14F 1_555 1_555
C15F C14F 1_555 1_555
H12F C15F 1_555 1_555
C16F C15F 1_555 1_555
H13F C16F 1_555 1_555
C17F C16F 1_555 1_555
H14F C17F 1_555 1_555
C18F C13F 1_555 1_555
H15F C18F 1_555 1_555
C19F B3F 1_555 1_555
C20F C19F 1_555 1_555
H16F C20F 1_555 1_555
C21F C20F 1_555 1_555
H17F C21F 1_555 1_555
C22F C21F 1_555 1_555
H18F C22F 1_555 1_555
C23F C22F 1_555 1_555
H19F C23F 1_555 1_555
C24F C19F 1_555 1_555
H20F C24F 1_555 1_555
B3 O3 1_555 1_555
C4 C5 1_555 1_555
C11 C12 1_555 1_555
C17 C18 1_555 1_555
C23 C24 1_555 1_555
B3F O3F 1_555 1_555
C3F C6F 1_555 1_555
C4F C5F 1_555 1_555
C11F C12F 1_555 1_555
C17F C18F 1_555 1_555
C23F C24F 1_555 1_555

#END
