
#######################################################################
#
#                 Cambridge Crystallographic Data Centre
#                                CCDC 
#
#######################################################################
#
# If this CIF has been generated from an entry in the Cambridge 
# Structural Database, then it will include bibliographic, chemical, 
# crystal, experimental, refinement or atomic coordinate data resulting 
# from the CCDC's data processing and validation procedures.
#
#######################################################################

data_DUJMAY
_chemical_formula_moiety         'C46 H38 B6 N2 O6,2(C7 H8)'
_chemical_name_systematic        
"1,1'-bis(2,4,6-Triphenyl-1,3,5,2,4,6\l^5^-trioxatriborinan-2-yl)-4,4'-bi-1\l^5^-pyridine toluene solvate"
_symmetry_cell_setting           monoclinic
_symmetry_space_group_name_H-M   'P 21/c'
_symmetry_Int_Tables_number      14
_space_group_name_Hall           '-P 2ybc'
loop_
_symmetry_equiv_pos_site_id
_symmetry_equiv_pos_as_xyz
1 x,y,z
2 -x,1/2+y,1/2-z
3 -x,-y,-z
4 x,1/2-y,1/2+z
_cell_length_a                   24.029(7)
_cell_length_b                   14.799(4)
_cell_length_c                   15.807(4)
_cell_angle_alpha                90
_cell_angle_beta                 105.087(4)
_cell_angle_gamma                90
_cell_volume                     5427.3
_exptl_crystal_colour            colorless
_exptl_crystal_description       block
_cell_formula_units_Z            4
loop_
_atom_site_label
_atom_site_type_symbol
_atom_site_fract_x
_atom_site_fract_y
_atom_site_fract_z
O1 O 0.42685(7) 0.35296(12) 0.36148(12)
O2 O 0.49452(8) 0.45334(11) 0.32686(13)
O3 O 0.48878(8) 0.30483(11) 0.27065(13)
N1 N 0.46003(9) 0.19414(13) 0.36833(15)
B1 B 0.43950(13) 0.2839(2) 0.3039(2)
B2 B 0.45074(13) 0.4363(2) 0.3664(2)
B3 B 0.51575(14) 0.3850(2) 0.2851(2)
C1 C 0.42821(12) 0.51494(18) 0.41383(17)
C2 C 0.37956(16) 0.5063(2) 0.4417(2)
H1 H 0.3592 0.4522 0.4318
C3 C 0.3594(2) 0.5763(4) 0.4848(3)
H2 H 0.3262 0.5689 0.5038
C4 C 0.3893(3) 0.6564(4) 0.4987(3)
H3 H 0.3763 0.7034 0.5277
C5 C 0.4367(2) 0.6670(2) 0.4709(2)
H4 H 0.4563 0.7218 0.4797
C6 C 0.45693(14) 0.59724(19) 0.42924(19)
H5 H 0.4904 0.6054 0.4111
C7 C 0.57053(12) 0.40262(18) 0.25251(18)
C8 C 0.60410(14) 0.4786(2) 0.2778(2)
H6 H 0.5922 0.5220 0.3120
C9 C 0.65437(17) 0.4919(3) 0.2540(3)
H7 H 0.6766 0.5431 0.2725
C10 C 0.67138(18) 0.4289(4) 0.2027(3)
H8 H 0.7055 0.4374 0.1864
C11 C 0.63853(19) 0.3528(3) 0.1750(3)
H9 H 0.6501 0.3101 0.1398
C12 C 0.58902(15) 0.3412(2) 0.2001(2)
H10 H 0.5668 0.2900 0.1813
C13 C 0.50167(14) 0.1405(2) 0.3576(2)
H11 H 0.5204 0.1543 0.3147
C14 C 0.51797(15) 0.0643(2) 0.4086(2)
H12 H 0.5475 0.0282 0.3994
C15 C 0.49161(11) 0.04098(17) 0.47225(19)
C16 C 0.44876(16) 0.0981(3) 0.4814(3)
H13 H 0.4290 0.0857 0.5235
C17 C 0.43461(15) 0.1730(2) 0.4298(3)
H14 H 0.4056 0.2106 0.4385
C18 C 0.38371(12) 0.25389(17) 0.2298(2)
C19 C 0.38693(15) 0.2202(2) 0.1498(2)
H15 H 0.4227 0.2155 0.1376
C20 C 0.3369(2) 0.1929(3) 0.0862(3)
H16 H 0.3400 0.1691 0.0331
C21 C 0.2840(2) 0.2012(3) 0.1023(4)
H17 H 0.2509 0.1842 0.0601
C22 C 0.28046(17) 0.2342(3) 0.1797(4)
H18 H 0.2445 0.2392 0.1911
C23 C 0.32922(13) 0.2612(2) 0.2431(2)
H19 H 0.3252 0.2847 0.2957
O1B O 0.57315(7) -0.35296(12) 0.63852(12)
O2B O 0.50548(8) -0.45334(11) 0.67314(13)
O3B O 0.51122(8) -0.30483(11) 0.72935(13)
N1B N 0.53997(9) -0.19414(13) 0.63167(15)
B1B B 0.56050(13) -0.2839(2) 0.6961(2)
B2B B 0.54926(13) -0.4363(2) 0.6336(2)
B3B B 0.48425(14) -0.3850(2) 0.7149(2)
C1B C 0.57179(12) -0.51494(18) 0.58617(17)
C2B C 0.62044(16) -0.5063(2) 0.5583(2)
H1B H 0.6408 -0.4522 0.5682
C3B C 0.6406(2) -0.5763(4) 0.5152(3)
H2B H 0.6738 -0.5689 0.4962
C4B C 0.6107(3) -0.6564(4) 0.5013(3)
H3B H 0.6237 -0.7034 0.4723
C5B C 0.5633(2) -0.6670(2) 0.5291(2)
H4B H 0.5437 -0.7218 0.5203
C6B C 0.54307(14) -0.59724(19) 0.57076(19)
H5B H 0.5096 -0.6054 0.5889
C7B C 0.42947(12) -0.40262(18) 0.74749(18)
C8B C 0.39590(14) -0.4786(2) 0.7222(2)
H6B H 0.4078 -0.5220 0.6880
C9B C 0.34563(17) -0.4919(3) 0.7460(3)
H7B H 0.3234 -0.5431 0.7275
C10B C 0.32862(18) -0.4289(4) 0.7973(3)
H8B H 0.2945 -0.4374 0.8136
C11B C 0.36147(19) -0.3528(3) 0.8250(3)
H9B H 0.3499 -0.3101 0.8602
C12B C 0.41098(15) -0.3412(2) 0.7999(2)
H10B H 0.4332 -0.2900 0.8187
C13B C 0.49833(14) -0.1405(2) 0.6424(2)
H11B H 0.4796 -0.1543 0.6853
C14B C 0.48203(15) -0.0643(2) 0.5914(2)
H12B H 0.4525 -0.0282 0.6006
C15B C 0.50839(11) -0.04098(17) 0.52775(19)
C16B C 0.55124(16) -0.0981(3) 0.5186(3)
H13B H 0.5710 -0.0857 0.4765
C17B C 0.56539(15) -0.1730(2) 0.5702(3)
H14B H 0.5944 -0.2106 0.5615
C18B C 0.61629(12) -0.25389(17) 0.7702(2)
C19B C 0.61307(15) -0.2202(2) 0.8502(2)
H15B H 0.5773 -0.2155 0.8624
C20B C 0.6631(2) -0.1929(3) 0.9138(3)
H16B H 0.6600 -0.1691 0.9669
C21B C 0.7160(2) -0.2012(3) 0.8977(4)
H17B H 0.7491 -0.1842 0.9399
C22B C 0.71954(17) -0.2342(3) 0.8203(4)
H18B H 0.7555 -0.2392 0.8089
C23B C 0.67078(13) -0.2612(2) 0.7569(2)
H19B H 0.6748 -0.2847 0.7043
O4 O 0.07601(7) 0.84207(11) 0.39260(11)
O5 O -0.00347(7) 0.93379(11) 0.32358(12)
O6 O 0.00310(7) 0.78748(12) 0.26629(11)
N2 N 0.04190(8) 0.68274(13) 0.38722(14)
B4 B 0.05755(13) 0.7696(2) 0.3295(2)
B5 B 0.04867(13) 0.9227(2) 0.38461(19)
B6 B -0.02806(13) 0.8624(2) 0.27058(19)
C24 C 0.10687(12) 0.73480(17) 0.28709(18)
C25 C 0.09490(15) 0.70641(19) 0.1998(2)
H20 H 0.0572 0.7101 0.1652
C26 C 0.1366(2) 0.6735(2) 0.1635(3)
H21 H 0.1270 0.6546 0.1054
C27 C 0.1917(2) 0.6685(3) 0.2119(4)
H22 H 0.2200 0.6459 0.1872
C28 C 0.20609(17) 0.6965(3) 0.2973(4)
H23 H 0.2442 0.6932 0.3305
C29 C 0.16341(14) 0.7303(2) 0.3352(2)
H24 H 0.1735 0.7498 0.3932
C30 C 0.07527(11) 1.00294(16) 0.44496(16)
C31 C 0.13181(12) 1.0003(2) 0.49640(19)
H25 H 0.1539 0.9491 0.4945
C32 C 0.15613(15) 1.0707(2) 0.5499(2)
H26 H 0.1941 1.0669 0.5832
C33 C 0.12455(18) 1.1459(3) 0.5540(2)
H27 H 0.1410 1.1935 0.5905
C34 C 0.06902(18) 1.1522(2) 0.5049(3)
H28 H 0.0477 1.2040 0.5077
C35 C 0.04398(13) 1.08049(19) 0.4503(2)
H29 H 0.0059 1.0850 0.4171
C36 C -0.09232(11) 0.86795(18) 0.21770(17)
C37 C -0.12774(14) 0.9376(2) 0.2282(2)
H30 H -0.1120 0.9868 0.2630
C38 C -0.18638(16) 0.9361(3) 0.1882(3)
H31 H -0.2096 0.9836 0.1970
C39 C -0.21012(16) 0.8655(3) 0.1361(3)
H32 H -0.2495 0.8644 0.1095
C40 C -0.17559(16) 0.7963(3) 0.1233(2)
H33 H -0.1915 0.7483 0.0870
C41 C -0.11762(13) 0.7972(2) 0.1636(2)
H34 H -0.0948 0.7494 0.1544
C42 C 0.04976(13) 0.68423(19) 0.47310(18)
H35 H 0.0670 0.7348 0.5040
C43 C 0.03364(13) 0.61469(19) 0.51844(18)
H36 H 0.0394 0.6195 0.5788
C44 C 0.00927(10) 0.53827(16) 0.47628(16)
C45 C 0.00295(17) 0.5362(2) 0.3878(2)
H37 H -0.0128 0.4854 0.3558
C46 C 0.01954(17) 0.6084(2) 0.3458(2)
H38 H 0.0149 0.6048 0.2856
O4B O -0.07601(7) 0.15793(11) 0.60740(11)
O5B O 0.00347(7) 0.06621(11) 0.67642(12)
O6B O -0.00310(7) 0.21252(12) 0.73371(11)
N2B N -0.04190(8) 0.31726(13) 0.61278(14)
B4B B -0.05755(13) 0.2304(2) 0.6705(2)
B5B B -0.04867(13) 0.0773(2) 0.61539(19)
B6B B 0.02806(13) 0.1376(2) 0.72942(19)
C24B C -0.10687(12) 0.26520(17) 0.71291(18)
C25B C -0.09490(15) 0.29359(19) 0.8002(2)
H20B H -0.0572 0.2899 0.8348
C26B C -0.1366(2) 0.3265(2) 0.8365(3)
H21B H -0.1270 0.3454 0.8946
C27B C -0.1917(2) 0.3315(3) 0.7881(4)
H22B H -0.2200 0.3541 0.8128
C28B C -0.20609(17) 0.3035(3) 0.7027(4)
H23B H -0.2442 0.3068 0.6695
C29B C -0.16341(14) 0.2697(2) 0.6648(2)
H24B H -0.1735 0.2502 0.6068
C30B C -0.07527(11) -0.00294(16) 0.55504(16)
C31B C -0.13181(12) -0.0003(2) 0.50360(19)
H25B H -0.1539 0.0509 0.5055
C32B C -0.15613(15) -0.0707(2) 0.4501(2)
H26B H -0.1941 -0.0669 0.4168
C33B C -0.12455(18) -0.1459(3) 0.4460(2)
H27B H -0.1410 -0.1935 0.4095
C34B C -0.06902(18) -0.1522(2) 0.4951(3)
H28B H -0.0477 -0.2040 0.4923
C35B C -0.04398(13) -0.08049(19) 0.5497(2)
H29B H -0.0059 -0.0850 0.5829
C36B C 0.09232(11) 0.13205(18) 0.78230(17)
C37B C 0.12774(14) 0.0624(2) 0.7718(2)
H30B H 0.1120 0.0132 0.7370
C38B C 0.18638(16) 0.0639(3) 0.8118(3)
H31B H 0.2096 0.0164 0.8030
C39B C 0.21012(16) 0.1345(3) 0.8639(3)
H32B H 0.2495 0.1356 0.8905
C40B C 0.17559(16) 0.2037(3) 0.8767(2)
H33B H 0.1915 0.2517 0.9130
C41B C 0.11762(13) 0.2028(2) 0.8364(2)
H34B H 0.0948 0.2506 0.8456
C42B C -0.04976(13) 0.31577(19) 0.52690(18)
H35B H -0.0670 0.2652 0.4960
C43B C -0.03364(13) 0.38531(19) 0.48156(18)
H36B H -0.0394 0.3805 0.4212
C44B C -0.00927(10) 0.46173(16) 0.52372(16)
C45B C -0.00295(17) 0.4638(2) 0.6122(2)
H37B H 0.0128 0.5146 0.6442
C46B C -0.01954(17) 0.3916(2) 0.6542(2)
H38B H -0.0149 0.3952 0.7144
C47 C 0.3339(4) 0.8666(7) 0.6594(6)
H39 H 0.3461 0.8231 0.7027
C48 C 0.3029(4) 0.8417(4) 0.5765(7)
H40 H 0.2936 0.7814 0.5634
C49 C 0.2862(2) 0.9063(5) 0.5141(4)
H41 H 0.2641 0.8902 0.4586
C50 C 0.3017(2) 0.9958(4) 0.5319(4)
C51 C 0.3302(2) 1.0211(4) 0.6127(5)
H42 H 0.3389 1.0817 0.6250
C52 C 0.3466(5) 0.9568(8) 0.6780(5)
H43 H 0.3663 0.9742 0.7344
C53 C 0.2851(4) 1.0705(6) 0.4654(7)
H44 H 0.2863 1.1274 0.4951
H45 H 0.2468 1.0601 0.4295
H46 H 0.3116 1.0717 0.4292
C54 C 0.8597(2) 0.5611(4) 0.2468(4)
H47 H 0.8663 0.5879 0.1971
C55 C 0.8467(2) 0.4775(4) 0.2441(4)
H48 H 0.8481 0.4425 0.1958
C56 C 0.83072(18) 0.4400(4) 0.3124(4)
H49 H 0.8202 0.3794 0.3081
C57 C 0.8291(2) 0.4838(5) 0.3855(5)
C58 C 0.8502(2) 0.5785(4) 0.3919(5)
H50 H 0.8537 0.6130 0.4423
C59 C 0.8643(3) 0.6125(4) 0.3190(6)
H51 H 0.8771 0.6718 0.3195
C60 C 0.8149(3) 0.4468(6) 0.4603(5)
H52 H 0.7762 0.4636 0.4597
H53 H 0.8411 0.4696 0.5125
H54 H 0.8178 0.3821 0.4591
loop_
_geom_bond_atom_site_label_1
_geom_bond_atom_site_label_2
_geom_bond_site_symmetry_1
_geom_bond_site_symmetry_2
O1 B1 1_555 1_555
O2 B2 1_555 1_555
O3 B1 1_555 1_555
N1 B1 1_555 1_555
B1 C18 1_555 1_555
B2 O1 1_555 1_555
B3 O2 1_555 1_555
C1 B2 1_555 1_555
C2 C1 1_555 1_555
H1 C2 1_555 1_555
C3 C2 1_555 1_555
H2 C3 1_555 1_555
C4 C3 1_555 1_555
H3 C4 1_555 1_555
C5 C4 1_555 1_555
H4 C5 1_555 1_555
C6 C1 1_555 1_555
H5 C6 1_555 1_555
C7 B3 1_555 1_555
C8 C7 1_555 1_555
H6 C8 1_555 1_555
C9 C8 1_555 1_555
H7 C9 1_555 1_555
C10 C9 1_555 1_555
H8 C10 1_555 1_555
C11 C10 1_555 1_555
H9 C11 1_555 1_555
C12 C7 1_555 1_555
H10 C12 1_555 1_555
C13 N1 1_555 1_555
H11 C13 1_555 1_555
C14 C13 1_555 1_555
H12 C14 1_555 1_555
C15 C14 1_555 1_555
C16 C15 1_555 1_555
H13 C16 1_555 1_555
C17 N1 1_555 1_555
H14 C17 1_555 1_555
C18 C19 1_555 1_555
C19 H15 1_555 1_555
C20 C19 1_555 1_555
H16 C20 1_555 1_555
C21 C20 1_555 1_555
H17 C21 1_555 1_555
C22 C21 1_555 1_555
H18 C22 1_555 1_555
C23 C18 1_555 1_555
H19 C23 1_555 1_555
O4 B4 1_555 1_555
O5 B5 1_555 1_555
O6 B4 1_555 1_555
N2 B4 1_555 1_555
B4 C24 1_555 1_555
B5 O4 1_555 1_555
B6 O5 1_555 1_555
C24 C25 1_555 1_555
C25 H20 1_555 1_555
C26 C25 1_555 1_555
H21 C26 1_555 1_555
C27 C26 1_555 1_555
H22 C27 1_555 1_555
C28 C27 1_555 1_555
H23 C28 1_555 1_555
C29 C24 1_555 1_555
H24 C29 1_555 1_555
C30 B5 1_555 1_555
C31 C30 1_555 1_555
H25 C31 1_555 1_555
C32 C31 1_555 1_555
H26 C32 1_555 1_555
C33 C32 1_555 1_555
H27 C33 1_555 1_555
C34 C33 1_555 1_555
H28 C34 1_555 1_555
C35 C30 1_555 1_555
H29 C35 1_555 1_555
C36 B6 1_555 1_555
C37 C36 1_555 1_555
H30 C37 1_555 1_555
C38 C37 1_555 1_555
H31 C38 1_555 1_555
C39 C38 1_555 1_555
H32 C39 1_555 1_555
C40 C39 1_555 1_555
H33 C40 1_555 1_555
C41 C36 1_555 1_555
H34 C41 1_555 1_555
C42 N2 1_555 1_555
H35 C42 1_555 1_555
C43 C42 1_555 1_555
H36 C43 1_555 1_555
C44 C43 1_555 1_555
C45 C44 1_555 1_555
H37 C45 1_555 1_555
C46 N2 1_555 1_555
H38 C46 1_555 1_555
C47 H39 1_555 1_555
C48 C47 1_555 1_555
H40 C48 1_555 1_555
C49 C48 1_555 1_555
H41 C49 1_555 1_555
C50 C49 1_555 1_555
C51 C50 1_555 1_555
H42 C51 1_555 1_555
C52 C47 1_555 1_555
H43 C52 1_555 1_555
C53 C50 1_555 1_555
H44 C53 1_555 1_555
H45 C53 1_555 1_555
H46 C53 1_555 1_555
C54 H47 1_555 1_555
C55 C54 1_555 1_555
H48 C55 1_555 1_555
C56 C55 1_555 1_555
H49 C56 1_555 1_555
C57 C56 1_555 1_555
C58 C57 1_555 1_555
H50 C58 1_555 1_555
C59 C54 1_555 1_555
H51 C59 1_555 1_555
C60 C57 1_555 1_555
H52 C60 1_555 1_555
H53 C60 1_555 1_555
H54 C60 1_555 1_555
O1B B1B 1_555 1_555
O2B B2B 1_555 1_555
O3B B1B 1_555 1_555
N1B B1B 1_555 1_555
B1B C18B 1_555 1_555
B2B O1B 1_555 1_555
B3B O2B 1_555 1_555
C1B B2B 1_555 1_555
C2B C1B 1_555 1_555
H1B C2B 1_555 1_555
C3B C2B 1_555 1_555
H2B C3B 1_555 1_555
C4B C3B 1_555 1_555
H3B C4B 1_555 1_555
C5B C4B 1_555 1_555
H4B C5B 1_555 1_555
C6B C1B 1_555 1_555
H5B C6B 1_555 1_555
C7B B3B 1_555 1_555
C8B C7B 1_555 1_555
H6B C8B 1_555 1_555
C9B C8B 1_555 1_555
H7B C9B 1_555 1_555
C10B C9B 1_555 1_555
H8B C10B 1_555 1_555
C11B C10B 1_555 1_555
H9B C11B 1_555 1_555
C12B C7B 1_555 1_555
H10B C12B 1_555 1_555
C13B N1B 1_555 1_555
H11B C13B 1_555 1_555
C14B C13B 1_555 1_555
H12B C14B 1_555 1_555
C15B C15 1_555 1_555
C16B C15B 1_555 1_555
H13B C16B 1_555 1_555
C17B N1B 1_555 1_555
H14B C17B 1_555 1_555
C18B C19B 1_555 1_555
C19B H15B 1_555 1_555
C20B C19B 1_555 1_555
H16B C20B 1_555 1_555
C21B C20B 1_555 1_555
H17B C21B 1_555 1_555
C22B C21B 1_555 1_555
H18B C22B 1_555 1_555
C23B C18B 1_555 1_555
H19B C23B 1_555 1_555
O4B B4B 1_555 1_555
O5B B5B 1_555 1_555
O6B B4B 1_555 1_555
N2B B4B 1_555 1_555
B4B C24B 1_555 1_555
B5B O4B 1_555 1_555
B6B O5B 1_555 1_555
C24B C25B 1_555 1_555
C25B H20B 1_555 1_555
C26B C25B 1_555 1_555
H21B C26B 1_555 1_555
C27B C26B 1_555 1_555
H22B C27B 1_555 1_555
C28B C27B 1_555 1_555
H23B C28B 1_555 1_555
C29B C24B 1_555 1_555
H24B C29B 1_555 1_555
C30B B5B 1_555 1_555
C31B C30B 1_555 1_555
H25B C31B 1_555 1_555
C32B C31B 1_555 1_555
H26B C32B 1_555 1_555
C33B C32B 1_555 1_555
H27B C33B 1_555 1_555
C34B C33B 1_555 1_555
H28B C34B 1_555 1_555
C35B C30B 1_555 1_555
H29B C35B 1_555 1_555
C36B B6B 1_555 1_555
C37B C36B 1_555 1_555
H30B C37B 1_555 1_555
C38B C37B 1_555 1_555
H31B C38B 1_555 1_555
C39B C38B 1_555 1_555
H32B C39B 1_555 1_555
C40B C39B 1_555 1_555
H33B C40B 1_555 1_555
C41B C36B 1_555 1_555
H34B C41B 1_555 1_555
C42B N2B 1_555 1_555
H35B C42B 1_555 1_555
C43B C42B 1_555 1_555
H36B C43B 1_555 1_555
C44B C44 1_555 1_555
C45B C44B 1_555 1_555
H37B C45B 1_555 1_555
C46B N2B 1_555 1_555
H38B C46B 1_555 1_555
O3 B3 1_555 1_555
C5 C6 1_555 1_555
C11 C12 1_555 1_555
C16 C17 1_555 1_555
C22 C23 1_555 1_555
O6 B6 1_555 1_555
C28 C29 1_555 1_555
C34 C35 1_555 1_555
C40 C41 1_555 1_555
C45 C46 1_555 1_555
C51 C52 1_555 1_555
C58 C59 1_555 1_555
O3B B3B 1_555 1_555
C5B C6B 1_555 1_555
C11B C12B 1_555 1_555
C14B C15B 1_555 1_555
C16B C17B 1_555 1_555
C22B C23B 1_555 1_555
O6B B6B 1_555 1_555
C28B C29B 1_555 1_555
C34B C35B 1_555 1_555
C40B C41B 1_555 1_555
C43B C44B 1_555 1_555
C45B C46B 1_555 1_555

#END
