
#######################################################################
#
#                 Cambridge Crystallographic Data Centre
#                                CCDC 
#
#######################################################################
#
# If this CIF has been generated from an entry in the Cambridge 
# Structural Database, then it will include bibliographic, chemical, 
# crystal, experimental, refinement or atomic coordinate data resulting 
# from the CCDC's data processing and validation procedures.
#
#######################################################################

data_DUJNAY
_chemical_formula_moiety         'C17 H11 Cl1 N4,H2 O1'
_chemical_name_systematic        
'3-[(E)-((7-Chloro-4-quinolyl)hydrazono)methyl]benzonitrile monohydrate'
_symmetry_cell_setting           triclinic
_symmetry_space_group_name_H-M   'P -1'
_symmetry_Int_Tables_number      2
_space_group_name_Hall           '-P 1'
loop_
_symmetry_equiv_pos_site_id
_symmetry_equiv_pos_as_xyz
1 x,y,z
2 -x,-y,-z
_cell_length_a                   8.7406(2)
_cell_length_b                   9.8587(3)
_cell_length_c                   10.2301(2)
_cell_angle_alpha                110.8897(15)
_cell_angle_beta                 93.4341(16)
_cell_angle_gamma                110.6766(15)
_cell_volume                     752.934
_exptl_crystal_colour            yellow
_exptl_crystal_description       plate
_chemical_melting_point          '485-487 K'
_cell_formula_units_Z            2
_exptl_crystal_recrystallization_method ethanol/water
loop_
_atom_site_label
_atom_site_type_symbol
_atom_site_fract_x
_atom_site_fract_y
_atom_site_fract_z
Cl1 Cl 0.19140(6) 0.44486(6) -0.08216(5)
N1 N 0.0883(2) 0.39813(19) 0.38535(17)
N2 N 0.49296(19) 0.27107(18) 0.43632(17)
H1 H 0.559(3) 0.270(3) 0.377(2)
N3 N 0.52218(19) 0.23502(18) 0.55031(16)
N4 N 1.1329(2) 0.0074(2) 0.7938(2)
C1 C 0.1296(2) 0.3704(2) 0.4975(2)
H2 H 0.0635 0.3806 0.5679
C2 C 0.2613(2) 0.3278(2) 0.5209(2)
H3 H 0.2816 0.3086 0.6036
C3 C 0.3625(2) 0.3139(2) 0.42154(19)
C4 C 0.3262(2) 0.3449(2) 0.29879(19)
C5 C 0.4207(2) 0.3368(2) 0.1905(2)
H4 H 0.5150 0.3113 0.1983
C6 C 0.3779(2) 0.3654(2) 0.0746(2)
H5 H 0.4411 0.3583 0.0019
C7 C 0.2398(2) 0.4052(2) 0.0646(2)
C8 C 0.1449(2) 0.4147(2) 0.1657(2)
H6 H 0.0515 0.4409 0.1557
C9 C 0.1869(2) 0.3852(2) 0.28647(19)
C10 C 0.6454(2) 0.1947(2) 0.5564(2)
H7 H 0.7095 0.1919 0.4844
C11 C 0.6892(2) 0.1527(2) 0.67264(19)
C12 C 0.8252(2) 0.1113(2) 0.6757(2)
H8 H 0.8867 0.1086 0.6020
C13 C 0.8715(2) 0.0735(2) 0.7873(2)
C14 C 0.7821(3) 0.0759(2) 0.8950(2)
H9 H 0.8144 0.0508 0.9708
C15 C 0.6451(3) 0.1154(3) 0.8908(2)
H10 H 0.5829 0.1166 0.9640
C16 C 0.5979(3) 0.1531(2) 0.7807(2)
H11 H 0.5034 0.1792 0.7786
C17 C 1.0162(3) 0.0351(2) 0.7902(2)
O1 O 0.74203(19) 0.2487(2) 0.26148(16)
H12 H 0.746(3) 0.160(3) 0.231(3)
H13 H 0.845(4) 0.311(3) 0.302(3)
loop_
_geom_bond_atom_site_label_1
_geom_bond_atom_site_label_2
_geom_bond_site_symmetry_1
_geom_bond_site_symmetry_2
Cl1 C7 1_555 1_555
N1 C1 1_555 1_555
N2 H1 1_555 1_555
N3 N2 1_555 1_555
N4 C17 1_555 1_555
C1 H2 1_555 1_555
C2 C1 1_555 1_555
H3 C2 1_555 1_555
C3 N2 1_555 1_555
C4 C3 1_555 1_555
C5 C4 1_555 1_555
H4 C5 1_555 1_555
C6 C5 1_555 1_555
H5 C6 1_555 1_555
C7 C6 1_555 1_555
C8 C7 1_555 1_555
H6 C8 1_555 1_555
C9 N1 1_555 1_555
C10 N3 1_555 1_555
H7 C10 1_555 1_555
C11 C10 1_555 1_555
C12 C11 1_555 1_555
H8 C12 1_555 1_555
C13 C12 1_555 1_555
C14 C13 1_555 1_555
H9 C14 1_555 1_555
C15 C14 1_555 1_555
H10 C15 1_555 1_555
C16 C11 1_555 1_555
H11 C16 1_555 1_555
C17 C13 1_555 1_555
O1 H12 1_555 1_555
H13 O1 1_555 1_555
C2 C3 1_555 1_555
C4 C9 1_555 1_555
C8 C9 1_555 1_555
C15 C16 1_555 1_555

#END
