
#######################################################################
#
#                 Cambridge Crystallographic Data Centre
#                                CCDC 
#
#######################################################################
#
# If this CIF has been generated from an entry in the Cambridge 
# Structural Database, then it will include bibliographic, chemical, 
# crystal, experimental, refinement or atomic coordinate data resulting 
# from the CCDC's data processing and validation procedures.
#
#######################################################################

data_DUJRUW
_chemical_formula_moiety         'C12 H12 N2 O2 S2'
_chemical_name_systematic        
"2,2'-[Ethane-1,2-diylbis(sulfanediyl)]bis(pyridine N-oxide)"
_symmetry_cell_setting           monoclinic
_symmetry_space_group_name_H-M   'P 21/c'
_symmetry_Int_Tables_number      14
_space_group_name_Hall           '-P 2ybc'
loop_
_symmetry_equiv_pos_site_id
_symmetry_equiv_pos_as_xyz
1 x,y,z
2 -x,1/2+y,1/2-z
3 -x,-y,-z
4 x,1/2-y,1/2+z
_cell_length_a                   8.2776(17)
_cell_length_b                   6.9790(14)
_cell_length_c                   10.791(2)
_cell_angle_alpha                90
_cell_angle_beta                 93.52(3)
_cell_angle_gamma                90
_cell_volume                     622.213
_exptl_crystal_colour            colorless
_exptl_crystal_description       block
_cell_formula_units_Z            2
_exptl_crystal_recrystallization_method chloroform/ethanol
loop_
_atom_site_label
_atom_site_type_symbol
_atom_site_fract_x
_atom_site_fract_y
_atom_site_fract_z
S1 S 0.15370(5) 0.18793(5) 0.61401(3)
N1 N 0.32129(13) 0.50095(17) 0.63713(10)
O1 O 0.33935(13) 0.43441(16) 0.75096(9)
C1 C 0.22742(15) 0.39913(19) 0.55220(12)
C2 C 0.04101(17) 0.0906(2) 0.47863(13)
H1 H -0.0423 0.1793 0.4512
H2 H 0.1130 0.0708 0.4134
C3 C 0.39499(18) 0.6652(2) 0.60369(16)
H3 H 0.4632 0.7341 0.6635
C4 C 0.20326(17) 0.4676(2) 0.43202(13)
H4 H 0.1378 0.3962 0.3718
C5 C 0.37221(18) 0.7344(2) 0.48487(15)
H5 H 0.4235 0.8516 0.4622
C6 C 0.27461(19) 0.6363(2) 0.39827(15)
H6 H 0.2573 0.6851 0.3153
S1B S -0.15370(5) -0.18793(5) 0.38599(3)
N1B N -0.32129(13) -0.50095(17) 0.36287(10)
O1B O -0.33935(13) -0.43441(16) 0.24904(9)
C1B C -0.22742(15) -0.39913(19) 0.44780(12)
C2B C -0.04101(17) -0.0906(2) 0.52137(13)
H1B H 0.0423 -0.1793 0.5488
H2B H -0.1130 -0.0708 0.5866
C3B C -0.39499(18) -0.6652(2) 0.39631(16)
H3B H -0.4632 -0.7341 0.3365
C4B C -0.20326(17) -0.4676(2) 0.56798(13)
H4B H -0.1378 -0.3962 0.6282
C5B C -0.37221(18) -0.7344(2) 0.51513(15)
H5B H -0.4235 -0.8516 0.5378
C6B C -0.27461(19) -0.6363(2) 0.60173(15)
H6B H -0.2573 -0.6851 0.6847
loop_
_geom_bond_atom_site_label_1
_geom_bond_atom_site_label_2
_geom_bond_site_symmetry_1
_geom_bond_site_symmetry_2
S1 C1 1_555 1_555
N1 O1 1_555 1_555
C1 N1 1_555 1_555
C2 S1 1_555 1_555
H1 C2 1_555 1_555
H2 C2 1_555 1_555
C3 N1 1_555 1_555
H3 C3 1_555 1_555
C4 C1 1_555 1_555
H4 C4 1_555 1_555
C5 C3 1_555 1_555
H5 C5 1_555 1_555
C6 C4 1_555 1_555
H6 C6 1_555 1_555
S1B C1B 1_555 1_555
N1B O1B 1_555 1_555
C1B N1B 1_555 1_555
C2B C2 1_555 1_555
H1B C2B 1_555 1_555
H2B C2B 1_555 1_555
C3B N1B 1_555 1_555
H3B C3B 1_555 1_555
C4B C1B 1_555 1_555
H4B C4B 1_555 1_555
C5B C3B 1_555 1_555
H5B C5B 1_555 1_555
C6B C4B 1_555 1_555
H6B C6B 1_555 1_555
C5 C6 1_555 1_555
S1B C2B 1_555 1_555
C5B C6B 1_555 1_555

#END
