
#######################################################################
#
#                 Cambridge Crystallographic Data Centre
#                                CCDC 
#
#######################################################################
#
# If this CIF has been generated from an entry in the Cambridge 
# Structural Database, then it will include bibliographic, chemical, 
# crystal, experimental, refinement or atomic coordinate data resulting 
# from the CCDC's data processing and validation procedures.
#
#######################################################################

data_DUJREG
_chemical_formula_moiety         'C12 H9 Br1 O2'
_chemical_name_systematic        'Methyl 1-bromo-2-naphthoate'
_symmetry_cell_setting           monoclinic
_symmetry_space_group_name_H-M   'P 21/c'
_symmetry_Int_Tables_number      14
_space_group_name_Hall           '-P 2ybc'
loop_
_symmetry_equiv_pos_site_id
_symmetry_equiv_pos_as_xyz
1 x,y,z
2 -x,1/2+y,1/2-z
3 -x,-y,-z
4 x,1/2-y,1/2+z
_cell_length_a                   9.3614(19)
_cell_length_b                   9.3014(19)
_cell_length_c                   12.069(2)
_cell_angle_alpha                90
_cell_angle_beta                 93.66(3)
_cell_angle_gamma                90
_cell_volume                     1048.75
_exptl_crystal_colour            colorless
_exptl_crystal_description       block
_cell_formula_units_Z            4
_exptl_crystal_recrystallization_method chloroform
loop_
_atom_site_label
_atom_site_type_symbol
_atom_site_fract_x
_atom_site_fract_y
_atom_site_fract_z
Br1 Br 0.29147(5) 0.80840(4) 0.47073(3)
C1 C 0.4234(4) 0.6858(3) 0.4033(3)
C2 C 0.5663(4) 0.6855(3) 0.4501(3)
C3 C 0.4815(4) 0.5034(4) 0.2735(3)
H1 H 0.4533 0.4410 0.2159
C4 C 0.3790(4) 0.5986(3) 0.3159(3)
C5 C 0.6197(5) 0.5021(4) 0.3156(3)
H2 H 0.6849 0.4405 0.2852
C6 C 0.6655(4) 0.5916(4) 0.4039(3)
C7 C 0.6150(5) 0.7727(4) 0.5411(3)
H3 H 0.5517 0.8347 0.5733
C8 C 0.7542(5) 0.7662(5) 0.5817(4)
H4 H 0.7842 0.8239 0.6417
C9 C 0.8523(5) 0.6753(5) 0.5355(5)
H5 H 0.9468 0.6730 0.5642
C10 C 0.0587(5) 0.4584(5) 0.1631(4)
H6 H 0.0394 0.3588 0.1475
H7 H 0.0531 0.5120 0.0950
H8 H -0.0107 0.4948 0.2112
C11 C 0.8094(5) 0.5901(5) 0.4484(4)
H9 H 0.8754 0.5298 0.4174
C12 C 0.2313(4) 0.5993(4) 0.2617(3)
O1 O 0.1996(3) 0.4727(3) 0.2164(2)
O2 O 0.1531(4) 0.7005(3) 0.2538(3)
loop_
_geom_bond_atom_site_label_1
_geom_bond_atom_site_label_2
_geom_bond_site_symmetry_1
_geom_bond_site_symmetry_2
Br1 C1 1_555 1_555
C1 C2 1_555 1_555
C2 C6 1_555 1_555
C3 H1 1_555 1_555
C4 C1 1_555 1_555
C5 C3 1_555 1_555
H2 C5 1_555 1_555
C6 C5 1_555 1_555
C7 C2 1_555 1_555
H3 C7 1_555 1_555
C8 C7 1_555 1_555
H4 C8 1_555 1_555
C9 C8 1_555 1_555
H5 C9 1_555 1_555
C10 H6 1_555 1_555
H7 C10 1_555 1_555
H8 C10 1_555 1_555
C11 C6 1_555 1_555
H9 C11 1_555 1_555
C12 C4 1_555 1_555
O1 C10 1_555 1_555
O2 C12 1_555 1_555
C3 C4 1_555 1_555
C9 C11 1_555 1_555
C12 O1 1_555 1_555

#END
