
#######################################################################
#
#                 Cambridge Crystallographic Data Centre
#                                CCDC 
#
#######################################################################
#
# If this CIF has been generated from an entry in the Cambridge 
# Structural Database, then it will include bibliographic, chemical, 
# crystal, experimental, refinement or atomic coordinate data resulting 
# from the CCDC's data processing and validation procedures.
#
#######################################################################

data_DUJWIO
_chemical_name_common            
'(-)-1-(Hydroxymethyl)-5-methyl-perhydro-quinolizidine iodide'
_chemical_formula_moiety         'C11 H22 N1 O1 1+,I1 1-'
_chemical_name_systematic        '(-)-Lupinine methiodide'
_symmetry_cell_setting           orthorhombic
_symmetry_space_group_name_H-M   'P 21 21 21'
_symmetry_Int_Tables_number      19
_space_group_name_Hall           'P 2bc 2ac'
loop_
_symmetry_equiv_pos_site_id
_symmetry_equiv_pos_as_xyz
1 x,y,z
2 -x,1/2-y,1/2+z
3 1/2+x,-y,1/2-z
4 1/2-x,1/2+y,-z
_cell_length_a                   7.205(2)
_cell_length_b                   13.084(2)
_cell_length_c                   13.430(3)
_cell_angle_alpha                90
_cell_angle_beta                 90
_cell_angle_gamma                90
_cell_volume                     1266.05
_cell_formula_units_Z            4
loop_
_atom_site_label
_atom_site_type_symbol
_atom_site_fract_x
_atom_site_fract_y
_atom_site_fract_z
C1 C 0.257(1) 0.6940(7) 0.7026(7)
C2 C 0.302(1) 0.6021(7) 0.6376(8)
C3 C 0.362(1) 0.6322(7) 0.5330(7)
C4 C 0.216(1) 0.7001(7) 0.483(1)
C5 C 0.170(1) 0.7875(8) 0.5474(7)
C6 C 0.067(1) 0.8519(8) 0.7123(9)
C7 C 0.230(1) 0.9152(9) 0.7380(9)
C8 C 0.373(2) 0.8501(8) 0.7914(9)
C9 C 0.422(1) 0.7579(8) 0.7328(8)
C10 C -0.072(1) 0.7000(8) 0.6447(9)
C11 C 0.444(1) 0.5343(7) 0.6892(9)
N1 N 0.1058(8) 0.7585(5) 0.6505(6)
O1 O 0.4522(9) 0.4373(5) 0.6435(6)
I1 I -0.34911(7) 0.93220(4) 0.4996(1)
loop_
_geom_bond_atom_site_label_1
_geom_bond_atom_site_label_2
_geom_bond_site_symmetry_1
_geom_bond_site_symmetry_2
C1 C2 1_555 1_555
C2 C3 1_555 1_555
C3 C4 1_555 1_555
C4 C5 1_555 1_555
C5 N1 1_555 1_555
C6 C7 1_555 1_555
C7 C8 1_555 1_555
C8 C9 1_555 1_555
C9 C1 1_555 1_555
C10 N1 1_555 1_555
C11 C2 1_555 1_555
N1 C1 1_555 1_555
O1 C11 1_555 1_555
C6 N1 1_555 1_555

#END
