
#######################################################################
#
#                 Cambridge Crystallographic Data Centre
#                                CCDC 
#
#######################################################################
#
# If this CIF has been generated from an entry in the Cambridge 
# Structural Database, then it will include bibliographic, chemical, 
# crystal, experimental, refinement or atomic coordinate data resulting 
# from the CCDC's data processing and validation procedures.
#
#######################################################################

data_DUKHEX
_chemical_formula_moiety         'C14 H11 N1 O2'
_chemical_name_systematic        2-(4H-1,3-Benzoxazin-2-yl)phenol
_symmetry_cell_setting           monoclinic
_symmetry_space_group_name_H-M   'P 2/n'
_symmetry_Int_Tables_number      13
_space_group_name_Hall           '-P 2yac'
loop_
_symmetry_equiv_pos_site_id
_symmetry_equiv_pos_as_xyz
1 x,y,z
2 1/2-x,y,1/2-z
3 -x,-y,-z
4 1/2+x,-y,1/2+z
_cell_length_a                   14.1148(8)
_cell_length_b                   5.1725(2)
_cell_length_c                   15.8813(8)
_cell_angle_alpha                90
_cell_angle_beta                 115.032(2)
_cell_angle_gamma                90
_cell_volume                     1050.57
_exptl_crystal_colour            orange
_exptl_crystal_description       needle
_cell_formula_units_Z            4
_exptl_crystal_recrystallization_method ethanol
loop_
_atom_site_label
_atom_site_type_symbol
_atom_site_fract_x
_atom_site_fract_y
_atom_site_fract_z
O1 O 0.87956(9) -0.1882(2) 0.76593(8)
H1 H 0.8351 -0.0735 0.7382
O2 O 0.84545(9) 0.3337(2) 0.55121(7)
N1 N 0.78226(10) 0.1846(2) 0.65809(9)
C1 C 0.94605(12) -0.1824(3) 0.72470(10)
C2 C 1.02672(13) -0.3622(3) 0.75286(11)
H2 H 1.0334 -0.4852 0.7995
C3 C 1.09719(13) -0.3631(3) 0.71350(11)
H3 H 1.1518 -0.4875 0.7329
C4 C 1.08874(13) -0.1831(3) 0.64558(11)
H4 H 1.1375 -0.1839 0.6188
C5 C 1.00909(12) -0.0038(3) 0.61741(11)
H5 H 1.0039 0.1199 0.5714
C6 C 0.93574(12) -0.0004(3) 0.65525(10)
C7 C 0.84764(12) 0.1812(3) 0.62239(10)
C8 C 0.76543(12) 0.5157(3) 0.51535(10)
C9 C 0.76759(13) 0.6767(3) 0.44659(11)
H6 H 0.8216 0.6614 0.4262
C10 C 0.68991(13) 0.8601(3) 0.40814(11)
H7 H 0.6900 0.9711 0.3605
C11 C 0.61167(13) 0.8827(3) 0.43898(11)
H8 H 0.5585 1.0094 0.4127
C12 C 0.61155(12) 0.7197(3) 0.50813(11)
H9 H 0.5580 0.7361 0.5291
C13 C 0.68845(12) 0.5327(3) 0.54724(10)
C14 C 0.69092(13) 0.3531(3) 0.62239(11)
H10 H 0.6898 0.4570 0.6743
H11 H 0.6271 0.2450 0.5977
loop_
_geom_bond_atom_site_label_1
_geom_bond_atom_site_label_2
_geom_bond_site_symmetry_1
_geom_bond_site_symmetry_2
O1 H1 1_555 1_555
O2 C7 1_555 1_555
N1 C7 1_555 1_555
C1 O1 1_555 1_555
C2 C1 1_555 1_555
H2 C2 1_555 1_555
C3 C2 1_555 1_555
H3 C3 1_555 1_555
C4 C3 1_555 1_555
H4 C4 1_555 1_555
C5 C4 1_555 1_555
H5 C5 1_555 1_555
C6 C1 1_555 1_555
C7 C6 1_555 1_555
C8 O2 1_555 1_555
C9 C8 1_555 1_555
H6 C9 1_555 1_555
C10 C9 1_555 1_555
H7 C10 1_555 1_555
C11 C10 1_555 1_555
H8 C11 1_555 1_555
C12 C11 1_555 1_555
H9 C12 1_555 1_555
C13 C8 1_555 1_555
C14 N1 1_555 1_555
H10 C14 1_555 1_555
H11 C14 1_555 1_555
C5 C6 1_555 1_555
C12 C13 1_555 1_555
C13 C14 1_555 1_555

#END
