
#######################################################################
#
#                 Cambridge Crystallographic Data Centre
#                                CCDC 
#
#######################################################################
#
# If this CIF has been generated from an entry in the Cambridge 
# Structural Database, then it will include bibliographic, chemical, 
# crystal, experimental, refinement or atomic coordinate data resulting 
# from the CCDC's data processing and validation procedures.
#
#######################################################################

data_DUKKUQ
_chemical_formula_moiety         'C18 H13 Cl2 N1 O2'
_chemical_name_systematic        
'Ethyl 2,6-dichloro-4-phenylquinoline-3-carboxylate'
_symmetry_cell_setting           triclinic
_symmetry_space_group_name_H-M   'P -1'
_symmetry_Int_Tables_number      2
_space_group_name_Hall           '-P 1'
loop_
_symmetry_equiv_pos_site_id
_symmetry_equiv_pos_as_xyz
1 x,y,z
2 -x,-y,-z
_cell_length_a                   8.3553(3)
_cell_length_b                   10.1861(5)
_cell_length_c                   10.6731(6)
_cell_angle_alpha                110.537(5)
_cell_angle_beta                 101.421(4)
_cell_angle_gamma                95.980(4)
_cell_volume                     818.735
_exptl_crystal_colour            colorless
_exptl_crystal_description       block
_cell_formula_units_Z            2
_exptl_crystal_recrystallization_method methanol
loop_
_atom_site_label
_atom_site_type_symbol
_atom_site_fract_x
_atom_site_fract_y
_atom_site_fract_z
Cl1 Cl 0.38082(9) 0.27696(7) 0.20007(7)
Cl2 Cl 0.09541(10) 0.80809(9) 0.87358(6)
N1 N 0.2968(2) 0.38235(19) 0.42803(19)
O1 O 0.4425(2) 0.66274(18) 0.20689(15)
O2 O 0.2357(2) 0.48698(19) 0.05569(16)
C1 C 0.3141(3) 0.4086(2) 0.3210(2)
C2 C 0.2874(3) 0.5342(2) 0.2978(2)
C3 C 0.2357(3) 0.6384(2) 0.3963(2)
C4 C 0.2145(3) 0.6144(2) 0.5166(2)
C5 C 0.1637(3) 0.7137(2) 0.6250(2)
H1 H 0.1397 0.7989 0.6195
C6 C 0.1503(3) 0.6832(3) 0.7373(2)
C7 C 0.1808(3) 0.5550(3) 0.7485(2)
H2 H 0.1695 0.5368 0.8261
C8 C 0.2271(3) 0.4575(3) 0.6448(2)
H3 H 0.2459 0.3714 0.6512
C9 C 0.2472(3) 0.4845(2) 0.5278(2)
C10 C 0.2017(3) 0.7710(2) 0.3758(2)
C11 C 0.0839(3) 0.7647(3) 0.2608(2)
H4 H 0.0235 0.6769 0.1963
C12 C 0.0565(3) 0.8896(3) 0.2421(3)
H5 H -0.0235 0.8855 0.1659
C13 C 0.1478(4) 1.0192(3) 0.3363(3)
H6 H 0.1301 1.1024 0.3227
C14 C 0.2633(4) 1.0268(3) 0.4490(3)
H7 H 0.3240 1.1151 0.5123
C15 C 0.2910(3) 0.9030(2) 0.4697(2)
H8 H 0.3701 0.9088 0.5472
C16 C 0.3163(3) 0.5558(2) 0.1716(2)
C17 C 0.4740(4) 0.7060(3) 0.0971(3)
H9 H 0.3713 0.6852 0.0267
H10 H 0.5522 0.6533 0.0547
C18 C 0.5432(6) 0.8615(3) 0.1550(4)
H11 H 0.5572 0.8916 0.0815
H12 H 0.6490 0.8806 0.2195
H13 H 0.4683 0.9129 0.2016
loop_
_geom_bond_atom_site_label_1
_geom_bond_atom_site_label_2
_geom_bond_site_symmetry_1
_geom_bond_site_symmetry_2
Cl1 C1 1_555 1_555
Cl2 C6 1_555 1_555
N1 C1 1_555 1_555
O1 C16 1_555 1_555
O2 C16 1_555 1_555
C1 C2 1_555 1_555
C2 C3 1_555 1_555
C3 C4 1_555 1_555
C4 C5 1_555 1_555
C5 H1 1_555 1_555
C6 C5 1_555 1_555
C7 C6 1_555 1_555
H2 C7 1_555 1_555
C8 C7 1_555 1_555
H3 C8 1_555 1_555
C9 N1 1_555 1_555
C10 C3 1_555 1_555
C11 C10 1_555 1_555
H4 C11 1_555 1_555
C12 C11 1_555 1_555
H5 C12 1_555 1_555
C13 C12 1_555 1_555
H6 C13 1_555 1_555
C14 C13 1_555 1_555
H7 C14 1_555 1_555
C15 C10 1_555 1_555
H8 C15 1_555 1_555
C16 C2 1_555 1_555
C17 O1 1_555 1_555
H9 C17 1_555 1_555
H10 C17 1_555 1_555
C18 C17 1_555 1_555
H11 C18 1_555 1_555
H12 C18 1_555 1_555
H13 C18 1_555 1_555
C4 C9 1_555 1_555
C8 C9 1_555 1_555
C14 C15 1_555 1_555

#END
