
#######################################################################
#
#                 Cambridge Crystallographic Data Centre
#                                CCDC 
#
#######################################################################
#
# If this CIF has been generated from an entry in the Cambridge 
# Structural Database, then it will include bibliographic, chemical, 
# crystal, experimental, refinement or atomic coordinate data resulting 
# from the CCDC's data processing and validation procedures.
#
#######################################################################

data_DUKVEL
_chemical_formula_moiety         'C18 H20 F2 N4 O2 S1'
_chemical_name_systematic        
5-(3-Fluoro-4-methoxyphenyl)-1-(((3-fluoro-4-methoxyphenyl)amino)methyl)-1,3,5-triazinane-2-thione
_symmetry_cell_setting           triclinic
_symmetry_space_group_name_H-M   'P -1'
_symmetry_Int_Tables_number      2
_space_group_name_Hall           '-P 1'
loop_
_symmetry_equiv_pos_site_id
_symmetry_equiv_pos_as_xyz
1 x,y,z
2 -x,-y,-z
_cell_length_a                   6.6019(8)
_cell_length_b                   11.1195(13)
_cell_length_c                   13.9076(17)
_cell_angle_alpha                106.6930(10)
_cell_angle_beta                 102.3620(10)
_cell_angle_gamma                103.7150(10)
_cell_volume                     905.308
_exptl_crystal_colour            colorless
_exptl_crystal_description       block
_cell_formula_units_Z            2
_exptl_crystal_recrystallization_method dimethylformamide
loop_
_atom_site_label
_atom_site_type_symbol
_atom_site_fract_x
_atom_site_fract_y
_atom_site_fract_z
S1 S 0.23235(9) 0.30856(5) -0.04874(4)
F1 F -0.62384(18) -0.05474(14) 0.24186(11)
F2 F 0.0469(2) 0.32005(16) 0.50105(12)
O1 O -0.2537(2) -0.09836(15) 0.30595(13)
O2 O 0.3728(2) 0.22553(15) 0.50330(11)
N1 N 0.1966(3) 0.53756(15) 0.26436(12)
N2 N 0.3653(3) 0.51616(16) 0.12691(12)
H1 H 0.4816 0.5355 0.1084
N3 N 0.0144(2) 0.38053(15) 0.08834(11)
N4 N -0.3316(3) 0.22545(17) 0.06919(14)
H2 H -0.4429 0.2533 0.0664
C1 C 0.3618(4) 0.60429(19) 0.22739(16)
H3 H 0.5039 0.6328 0.2794
H4 H 0.3319 0.6823 0.2183
C2 C -0.0081(3) 0.4776(2) 0.18020(15)
H5 H -0.0526 0.5459 0.1595
H6 H -0.1205 0.4336 0.2048
C3 C 0.1997(3) 0.40753(18) 0.06202(14)
C4 C -0.1813(3) 0.2665(2) 0.01638(15)
H7 H -0.2550 0.2913 -0.0395
H8 H -0.1342 0.1927 -0.0158
C5 C -0.2572(3) -0.01931(18) 0.24626(15)
C6 C -0.4521(3) 0.00398(18) 0.21346(15)
C7 C -0.4804(3) 0.08152(18) 0.15476(14)
H9 H -0.6153 0.0940 0.1346
C8 C -0.3054(3) 0.14196(17) 0.12523(14)
C9 C -0.1091(3) 0.11870(19) 0.15612(16)
H10 H 0.0092 0.1569 0.1365
C10 C -0.0860(3) 0.03925(18) 0.21584(16)
H11 H 0.0478 0.0253 0.2357
C11 C -0.0492(4) -0.1131(2) 0.34785(19)
H12 H -0.0010 -0.1573 0.2912
H13 H -0.0647 -0.1647 0.3922
H14 H 0.0566 -0.0274 0.3885
C12 C 0.2519(3) 0.45361(17) 0.32008(13)
C13 C 0.1229(3) 0.42315(19) 0.38210(15)
H15 H 0.0047 0.4544 0.3846
C14 C 0.1714(3) 0.3471(2) 0.43909(16)
C15 C 0.3456(3) 0.29858(18) 0.44038(14)
C16 C 0.4728(3) 0.3289(2) 0.37880(15)
H16 H 0.5919 0.2982 0.3774
C17 C 0.4253(3) 0.40515(19) 0.31837(14)
H17 H 0.5117 0.4235 0.2764
C18 C 0.5573(4) 0.1807(2) 0.51179(18)
H18 H 0.5484 0.1226 0.4438
H19 H 0.5601 0.1338 0.5600
H20 H 0.6884 0.2553 0.5373
loop_
_geom_bond_atom_site_label_1
_geom_bond_atom_site_label_2
_geom_bond_site_symmetry_1
_geom_bond_site_symmetry_2
S1 C3 1_555 1_555
F1 C6 1_555 1_555
F2 C14 1_555 1_555
O1 C5 1_555 1_555
O2 C15 1_555 1_555
N1 C1 1_555 1_555
N2 H1 1_555 1_555
N3 C2 1_555 1_555
N4 H2 1_555 1_555
C1 N2 1_555 1_555
H3 C1 1_555 1_555
H4 C1 1_555 1_555
C2 N1 1_555 1_555
H5 C2 1_555 1_555
H6 C2 1_555 1_555
C3 N2 1_555 1_555
C4 N3 1_555 1_555
H7 C4 1_555 1_555
H8 C4 1_555 1_555
C5 C6 1_555 1_555
C6 C7 1_555 1_555
C7 H9 1_555 1_555
C8 N4 1_555 1_555
C9 C8 1_555 1_555
H10 C9 1_555 1_555
C10 C5 1_555 1_555
H11 C10 1_555 1_555
C11 O1 1_555 1_555
H12 C11 1_555 1_555
H13 C11 1_555 1_555
H14 C11 1_555 1_555
C12 N1 1_555 1_555
C13 C12 1_555 1_555
H15 C13 1_555 1_555
C14 C13 1_555 1_555
C15 C14 1_555 1_555
C16 C15 1_555 1_555
H16 C16 1_555 1_555
C17 C12 1_555 1_555
H17 C17 1_555 1_555
C18 O2 1_555 1_555
H18 C18 1_555 1_555
H19 C18 1_555 1_555
H20 C18 1_555 1_555
N3 C3 1_555 1_555
N4 C4 1_555 1_555
C7 C8 1_555 1_555
C9 C10 1_555 1_555
C16 C17 1_555 1_555

#END
