
#######################################################################
#
#                 Cambridge Crystallographic Data Centre
#                                CCDC 
#
#######################################################################
#
# If this CIF has been generated from an entry in the Cambridge 
# Structural Database, then it will include bibliographic, chemical, 
# crystal, experimental, refinement or atomic coordinate data resulting 
# from the CCDC's data processing and validation procedures.
#
#######################################################################

data_DUKYAK
_chemical_formula_moiety         'C20 H27 N1 O2'
_chemical_name_systematic        
1-[((2R)-2-Hydroxy-2-phenylethyl)((1S)-1-phenylethyl)amino]-2-methylpropan-2-ol
_symmetry_cell_setting           orthorhombic
_symmetry_space_group_name_H-M   'P 21 21 21'
_symmetry_Int_Tables_number      19
_space_group_name_Hall           'P 2ac 2ab'
loop_
_symmetry_equiv_pos_site_id
_symmetry_equiv_pos_as_xyz
1 x,y,z
2 1/2-x,-y,1/2+z
3 -x,1/2+y,1/2-z
4 1/2+x,1/2-y,-z
_cell_length_a                   8.9681(8)
_cell_length_b                   12.5151(11)
_cell_length_c                   16.3960(14)
_cell_angle_alpha                90
_cell_angle_beta                 90
_cell_angle_gamma                90
_cell_volume                     1840.23
_exptl_crystal_colour            colorless
_exptl_crystal_description       block
_cell_formula_units_Z            4
_exptl_crystal_recrystallization_method toluene
loop_
_atom_site_label
_atom_site_type_symbol
_atom_site_fract_x
_atom_site_fract_y
_atom_site_fract_z
N1 N 0.85952(16) 0.77498(11) 0.19666(9)
O1 O 1.09159(15) 0.79961(11) 0.07312(8)
O2 O 0.82898(15) 0.69725(11) 0.03022(8)
C1 C 0.74550(19) 0.79181(14) 0.26025(10)
H1 H 0.6548 0.7518 0.2422
C2 C 0.7875(2) 0.74692(15) 0.34383(11)
H2 H 0.8006 0.6694 0.3398
H3 H 0.7080 0.7629 0.3830
H4 H 0.8808 0.7797 0.3623
C3 C 0.70169(19) 0.90978(15) 0.26258(11)
C4 C 0.7442(2) 0.97833(15) 0.32537(12)
H5 H 0.7999 0.9513 0.3701
C5 C 0.7059(2) 1.08579(16) 0.32311(13)
H6 H 0.7364 1.1319 0.3660
C6 C 0.6240(2) 1.12599(16) 0.25894(14)
H7 H 0.5986 1.1997 0.2574
C7 C 0.5788(2) 1.05855(15) 0.19666(13)
H8 H 0.5214 1.0857 0.1526
C8 C 0.6173(2) 0.95203(15) 0.19879(12)
H9 H 0.5857 0.9063 0.1559
C9 C 0.8686(2) 0.66259(13) 0.17157(10)
H10 H 0.8371 0.6167 0.2177
H11 H 0.9736 0.6450 0.1586
C10 C 0.7717(2) 0.63768(13) 0.09766(10)
H12 H 0.6668 0.6605 0.1089
C11 C 0.7751(2) 0.51779(14) 0.08189(10)
C12 C 0.6618(2) 0.45290(15) 0.11208(12)
H13 H 0.5791 0.4841 0.1394
C13 C 0.6691(3) 0.34255(16) 0.10237(13)
H14 H 0.5915 0.2986 0.1232
C14 C 0.7885(3) 0.29681(17) 0.06266(12)
H15 H 0.7937 0.2214 0.0567
C15 C 0.9011(3) 0.36087(16) 0.03131(12)
H16 H 0.9827 0.3294 0.0033
C16 C 0.8944(2) 0.47086(16) 0.04095(11)
H17 H 0.9717 0.5145 0.0195
C17 C 1.0045(2) 0.82471(14) 0.21296(10)
H18 H 1.0741 0.7695 0.2334
H19 H 0.9923 0.8790 0.2564
C18 C 1.0727(2) 0.87806(14) 0.13747(10)
C19 C 0.9759(2) 0.96925(16) 0.10625(13)
H20 H 1.0221 1.0007 0.0577
H21 H 0.9666 1.0239 0.1487
H22 H 0.8768 0.9418 0.0922
C20 C 1.2299(2) 0.91583(15) 0.15766(12)
H23 H 1.2707 0.9553 0.1111
H24 H 1.2933 0.8539 0.1693
H25 H 1.2268 0.9626 0.2056
H26 H 0.753(3) 0.701(2) -0.0058(16)
H27 H 1.005(3) 0.7799(18) 0.0595(14)
loop_
_geom_bond_atom_site_label_1
_geom_bond_atom_site_label_2
_geom_bond_site_symmetry_1
_geom_bond_site_symmetry_2
N1 C1 1_555 1_555
O1 C18 1_555 1_555
O2 C10 1_555 1_555
C1 H1 1_555 1_555
C2 C1 1_555 1_555
H2 C2 1_555 1_555
H3 C2 1_555 1_555
H4 C2 1_555 1_555
C3 C1 1_555 1_555
C4 C3 1_555 1_555
H5 C4 1_555 1_555
C5 C4 1_555 1_555
H6 C5 1_555 1_555
C6 C5 1_555 1_555
H7 C6 1_555 1_555
C7 C6 1_555 1_555
H8 C7 1_555 1_555
C8 C3 1_555 1_555
H9 C8 1_555 1_555
C9 N1 1_555 1_555
H10 C9 1_555 1_555
H11 C9 1_555 1_555
C10 C9 1_555 1_555
H12 C10 1_555 1_555
C11 C10 1_555 1_555
C12 C11 1_555 1_555
H13 C12 1_555 1_555
C13 C12 1_555 1_555
H14 C13 1_555 1_555
C14 C13 1_555 1_555
H15 C14 1_555 1_555
C15 C14 1_555 1_555
H16 C15 1_555 1_555
C16 C11 1_555 1_555
H17 C16 1_555 1_555
C17 N1 1_555 1_555
H18 C17 1_555 1_555
H19 C17 1_555 1_555
C18 C17 1_555 1_555
C19 C18 1_555 1_555
H20 C19 1_555 1_555
H21 C19 1_555 1_555
H22 C19 1_555 1_555
C20 C18 1_555 1_555
H23 C20 1_555 1_555
H24 C20 1_555 1_555
H25 C20 1_555 1_555
H26 O2 1_555 1_555
H27 O1 1_555 1_555
C7 C8 1_555 1_555
C15 C16 1_555 1_555

#END
