
#######################################################################
#
#                 Cambridge Crystallographic Data Centre
#                                CCDC 
#
#######################################################################
#
# If this CIF has been generated from an entry in the Cambridge 
# Structural Database, then it will include bibliographic, chemical, 
# crystal, experimental, refinement or atomic coordinate data resulting 
# from the CCDC's data processing and validation procedures.
#
#######################################################################

data_DULLAZ
_chemical_formula_moiety         'C28 H29 N1 O4'
_chemical_name_systematic        
N-((9H-fluoren-9-ylmethoxy)carbonyl)-\a-isobutylphenylalanine
_symmetry_cell_setting           monoclinic
_symmetry_space_group_name_H-M   'P 21'
_symmetry_Int_Tables_number      4
_space_group_name_Hall           'P 2yb'
loop_
_symmetry_equiv_pos_site_id
_symmetry_equiv_pos_as_xyz
1 x,y,z
2 -x,1/2+y,-z
_cell_length_a                   5.444(3)
_cell_length_b                   38.16(2)
_cell_length_c                   11.382(6)
_cell_angle_alpha                90
_cell_angle_beta                 90.13(3)
_cell_angle_gamma                90
_cell_volume                     2364.53
_exptl_crystal_colour            colorless
_exptl_crystal_description       lath
_cell_formula_units_Z            4
loop_
_atom_site_label
_atom_site_type_symbol
_atom_site_fract_x
_atom_site_fract_y
_atom_site_fract_z
O1 O 0.4390(19) 0.5163(3) 0.7633(9)
O2 O 0.0448(19) 0.5354(3) 0.7626(10)
H1 H 0.1097 0.5543 0.7408
O3 O 0.5478(19) 0.4064(3) 0.8689(11)
O4 O 0.132(2) 0.4001(3) 0.8493(10)
N1 N 0.329(2) 0.4522(3) 0.8253(11)
H2 H 0.4752 0.4620 0.8235
C1 C 0.107(3) 0.4754(4) 0.8054(13)
C2 C 0.231(3) 0.5095(4) 0.7760(15)
C3 C 0.314(3) 0.4172(4) 0.8459(14)
C4 C -0.034(3) 0.4620(4) 0.6975(13)
H3 H -0.0737 0.4369 0.7096
H4 H -0.1917 0.4749 0.6920
C5 C 0.102(3) 0.4658(4) 0.5804(15)
C6 C 0.288(3) 0.4442(5) 0.5444(14)
H5 H 0.3267 0.4241 0.5903
C7 C 0.423(3) 0.4506(4) 0.4432(14)
H6 H 0.5480 0.4349 0.4181
C8 C 0.371(4) 0.4794(5) 0.3826(18)
H7 H 0.4721 0.4845 0.3169
C9 C 0.182(3) 0.5028(4) 0.4065(15)
H8 H 0.1416 0.5215 0.3546
C10 C 0.054(3) 0.4973(5) 0.5125(14)
H9 H -0.0627 0.5140 0.5392
C11 C -0.073(3) 0.4766(4) 0.9085(12)
H10 H -0.1605 0.4539 0.9120
H11 H -0.1974 0.4949 0.8915
C12 C 0.045(3) 0.4846(4) 1.0395(14)
H12 H 0.1801 0.4675 1.0554
C13 C 0.148(3) 0.5212(5) 1.0451(16)
H13 H 0.2791 0.5237 0.9867
H14 H 0.2154 0.5256 1.1237
H15 H 0.0175 0.5382 1.0285
C14 C -0.152(3) 0.4791(4) 1.1240(14)
H16 H -0.2132 0.4551 1.1170
H17 H -0.2854 0.4957 1.1080
H18 H -0.0887 0.4830 1.2037
C15 C 0.586(3) 0.3683(4) 0.8819(15)
H19 H 0.7169 0.3607 0.8273
H20 H 0.4331 0.3559 0.8601
C16 C 0.659(3) 0.3583(4) 1.0081(14)
H21 H 0.8098 0.3713 1.0324
C17 C 0.704(3) 0.3191(4) 1.0130(14)
C18 C 0.879(3) 0.2996(4) 0.9552(15)
H22 H 0.9953 0.3099 0.9035
C19 C 0.876(3) 0.2642(4) 0.9775(15)
H23 H 0.9998 0.2503 0.9418
C20 C 0.711(4) 0.2477(5) 1.0456(15)
H24 H 0.7211 0.2231 1.0571
C21 C 0.525(3) 0.2671(4) 1.0994(14)
H25 H 0.3993 0.2557 1.1429
C22 C 0.528(3) 0.3036(4) 1.0876(14)
C23 C 0.374(3) 0.3316(4) 1.1392(14)
C24 C 0.180(3) 0.3289(5) 1.2177(17)
H26 H 0.1236 0.3069 1.2460
C25 C 0.076(3) 0.3598(5) 1.2515(16)
H27 H -0.0629 0.3592 1.3018
C26 C 0.163(3) 0.3914(4) 1.2160(13)
H28 H 0.0890 0.4119 1.2468
C27 C 0.351(3) 0.3950(5) 1.1383(14)
H29 H 0.4076 0.4171 1.1117
C28 C 0.456(3) 0.3629(4) 1.1005(13)
O5 O 0.2456(19) 0.5935(3) 0.6943(9)
O6 O 0.639(2) 0.5773(3) 0.7027(9)
H30 H 0.5764 0.5580 0.7213
O7 O 0.152(2) 0.7091(3) 0.6321(9)
O8 O 0.5715(19) 0.7133(3) 0.6557(10)
N2 N 0.373(2) 0.6605(3) 0.6647(11)
H31 H 0.2261 0.6511 0.6698
C29 C 0.574(3) 0.6382(4) 0.6704(15)
C30 C 0.473(3) 0.5998(4) 0.6929(14)
C31 C 0.387(3) 0.6972(5) 0.6515(16)
C32 C 0.726(3) 0.6389(4) 0.5587(14)
H32 H 0.7723 0.6634 0.5408
H33 H 0.8786 0.6253 0.5709
C33 C 0.593(3) 0.6247(5) 0.4622(15)
C34 C 0.403(3) 0.6441(5) 0.4004(15)
H34 H 0.3581 0.6667 0.4276
C35 C 0.282(4) 0.6297(5) 0.2986(17)
H35 H 0.1629 0.6434 0.2586
C36 C 0.330(4) 0.5987(5) 0.2604(16)
H36 H 0.2427 0.5891 0.1958
C37 C 0.521(4) 0.5793(5) 0.3184(18)
H37 H 0.5599 0.5565 0.2906
C38 C 0.647(3) 0.5923(4) 0.4118(15)
H38 H 0.7770 0.5788 0.4441
C39 C 0.743(3) 0.6471(4) 0.7839(11)
H39 H 0.8726 0.6290 0.7880
H40 H 0.8256 0.6697 0.7678
C40 C 0.634(4) 0.6498(5) 0.9021(16)
H41 H 0.4841 0.6648 0.8932
C41 C 0.552(4) 0.6178(6) 0.957(2)
H42 H 0.4848 0.6232 1.0352
H43 H 0.6909 0.6017 0.9658
H44 H 0.4242 0.6069 0.9090
C42 C 0.812(4) 0.6704(5) 0.9871(17)
H45 H 0.7386 0.6719 1.0654
H46 H 0.8394 0.6941 0.9563
H47 H 0.9697 0.6581 0.9923
C43 C 0.133(3) 0.7470(4) 0.6167(12)
H48 H 0.2448 0.7590 0.6725
H49 H -0.0367 0.7548 0.6330
C44 C 0.204(3) 0.7566(4) 0.4895(13)
H50 H 0.3555 0.7440 0.4637
C45 C 0.236(3) 0.7973(4) 0.4832(14)
C46 C 0.404(3) 0.8184(5) 0.5342(15)
H51 H 0.5226 0.8080 0.5847
C47 C 0.416(3) 0.8541(5) 0.5179(15)
H52 H 0.5401 0.8683 0.5523
C48 C 0.234(3) 0.8675(5) 0.4479(16)
H53 H 0.2318 0.8922 0.4372
C49 C 0.052(3) 0.8484(4) 0.3911(14)
H54 H -0.0685 0.8594 0.3430
C50 C 0.054(3) 0.8110(4) 0.4087(15)
C51 C -0.097(3) 0.7841(5) 0.3653(16)
C52 C -0.297(3) 0.7830(5) 0.2902(16)
H55 H -0.3694 0.8045 0.2667
C53 C -0.395(3) 0.7527(5) 0.2481(15)
H56 H -0.5266 0.7534 0.1931
C54 C -0.303(3) 0.7206(5) 0.2860(16)
H57 H -0.3723 0.6992 0.2590
C55 C -0.109(3) 0.7207(4) 0.3638(14)
H58 H -0.0422 0.6990 0.3903
C56 C -0.012(3) 0.7508(4) 0.4026(14)
loop_
_geom_bond_atom_site_label_1
_geom_bond_atom_site_label_2
_geom_bond_site_symmetry_1
_geom_bond_site_symmetry_2
O1 C2 1_555 1_555
O2 H1 1_555 1_555
O3 C3 1_555 1_555
O4 C3 1_555 1_555
N1 H2 1_555 1_555
C1 N1 1_555 1_555
C2 O2 1_555 1_555
C3 N1 1_555 1_555
C4 C1 1_555 1_555
H3 C4 1_555 1_555
H4 C4 1_555 1_555
C5 C4 1_555 1_555
C6 C5 1_555 1_555
H5 C6 1_555 1_555
C7 C6 1_555 1_555
H6 C7 1_555 1_555
C8 C7 1_555 1_555
H7 C8 1_555 1_555
C9 C8 1_555 1_555
H8 C9 1_555 1_555
C10 C5 1_555 1_555
H9 C10 1_555 1_555
C11 C1 1_555 1_555
H10 C11 1_555 1_555
H11 C11 1_555 1_555
C12 C11 1_555 1_555
H12 C12 1_555 1_555
C13 C12 1_555 1_555
H13 C13 1_555 1_555
H14 C13 1_555 1_555
H15 C13 1_555 1_555
C14 C12 1_555 1_555
H16 C14 1_555 1_555
H17 C14 1_555 1_555
H18 C14 1_555 1_555
C15 O3 1_555 1_555
H19 C15 1_555 1_555
H20 C15 1_555 1_555
C16 C15 1_555 1_555
H21 C16 1_555 1_555
C17 C16 1_555 1_555
C18 C17 1_555 1_555
H22 C18 1_555 1_555
C19 C18 1_555 1_555
H23 C19 1_555 1_555
C20 C19 1_555 1_555
H24 C20 1_555 1_555
C21 C20 1_555 1_555
H25 C21 1_555 1_555
C22 C17 1_555 1_555
C23 C22 1_555 1_555
C24 C23 1_555 1_555
H26 C24 1_555 1_555
C25 C24 1_555 1_555
H27 C25 1_555 1_555
C26 C25 1_555 1_555
H28 C26 1_555 1_555
C27 C26 1_555 1_555
H29 C27 1_555 1_555
C28 C16 1_555 1_555
O5 C30 1_555 1_555
O6 H30 1_555 1_555
O7 C31 1_555 1_555
O8 C31 1_555 1_555
N2 H31 1_555 1_555
C29 N2 1_555 1_555
C30 O6 1_555 1_555
C31 N2 1_555 1_555
C32 C29 1_555 1_555
H32 C32 1_555 1_555
H33 C32 1_555 1_555
C33 C32 1_555 1_555
C34 C33 1_555 1_555
H34 C34 1_555 1_555
C35 C34 1_555 1_555
H35 C35 1_555 1_555
C36 C35 1_555 1_555
H36 C36 1_555 1_555
C37 C36 1_555 1_555
H37 C37 1_555 1_555
C38 C33 1_555 1_555
H38 C38 1_555 1_555
C39 C29 1_555 1_555
H39 C39 1_555 1_555
H40 C39 1_555 1_555
C40 C39 1_555 1_555
H41 C40 1_555 1_555
C41 C40 1_555 1_555
H42 C41 1_555 1_555
H43 C41 1_555 1_555
H44 C41 1_555 1_555
C42 C40 1_555 1_555
H45 C42 1_555 1_555
H46 C42 1_555 1_555
H47 C42 1_555 1_555
C43 O7 1_555 1_555
H48 C43 1_555 1_555
H49 C43 1_555 1_555
C44 C43 1_555 1_555
H50 C44 1_555 1_555
C45 C44 1_555 1_555
C46 C45 1_555 1_555
H51 C46 1_555 1_555
C47 C46 1_555 1_555
H52 C47 1_555 1_555
C48 C47 1_555 1_555
H53 C48 1_555 1_555
C49 C48 1_555 1_555
H54 C49 1_555 1_555
C50 C45 1_555 1_555
C51 C50 1_555 1_555
C52 C51 1_555 1_555
H55 C52 1_555 1_555
C53 C52 1_555 1_555
H56 C53 1_555 1_555
C54 C53 1_555 1_555
H57 C54 1_555 1_555
C55 C54 1_555 1_555
H58 C55 1_555 1_555
C56 C44 1_555 1_555
C1 C2 1_555 1_555
C9 C10 1_555 1_555
C21 C22 1_555 1_555
C23 C28 1_555 1_555
C27 C28 1_555 1_555
C29 C30 1_555 1_555
C37 C38 1_555 1_555
C49 C50 1_555 1_555
C51 C56 1_555 1_555
C55 C56 1_555 1_555

#END
