
#######################################################################
#
#                 Cambridge Crystallographic Data Centre
#                                CCDC 
#
#######################################################################
#
# If this CIF has been generated from an entry in the Cambridge 
# Structural Database, then it will include bibliographic, chemical, 
# crystal, experimental, refinement or atomic coordinate data resulting 
# from the CCDC's data processing and validation procedures.
#
#######################################################################

data_DULQOR
_chemical_formula_moiety         'C7 H24 N1 Na2 O11 S1 1+,C7 H8 N1 O3 S1 1-'
_chemical_name_systematic        
'tris(\m~2~-Aqua)-(4-amino-3-methylbenzenesulfonato)-penta-aqua-di-sodium 4-amino-3-methylbenzenesulfonate'
_symmetry_cell_setting           monoclinic
_symmetry_space_group_name_H-M   'P 21'
_symmetry_Int_Tables_number      4
_space_group_name_Hall           'P 2yb'
loop_
_symmetry_equiv_pos_site_id
_symmetry_equiv_pos_as_xyz
1 x,y,z
2 -x,1/2+y,-z
_cell_length_a                   6.2346(17)
_cell_length_b                   27.793(8)
_cell_length_c                   7.285(2)
_cell_angle_alpha                90
_cell_angle_beta                 91.296(5)
_cell_angle_gamma                90
_cell_volume                     1262.01
_exptl_crystal_colour            colorless
_exptl_crystal_description       block
_cell_formula_units_Z            2
_exptl_crystal_recrystallization_method methanol
loop_
_atom_site_label
_atom_site_type_symbol
_atom_site_fract_x
_atom_site_fract_y
_atom_site_fract_z
Na1 Na 0.0286(2) 0.64325(5) 0.33149(17)
Na2 Na -0.2402(2) 0.58785(5) -0.01371(18)
S1 S 0.27757(12) 0.73351(2) 0.04923(10)
O1 O 0.1361(4) 0.71695(8) 0.1890(3)
O2 O 0.2497(4) 0.70581(8) -0.1205(3)
O3 O 0.5005(4) 0.73391(9) 0.1084(4)
O7 O -0.0541(4) 0.69570(8) 0.5914(3)
H1 H -0.0754 0.7245 0.5563
H2 H 0.0534 0.6972 0.6651
O8 O 0.3432(4) 0.61320(9) 0.4858(4)
H3 H 0.3231 0.6299 0.5817
H4 H 0.3269 0.5837 0.5135
O9 O -0.3362(4) 0.64448(9) 0.2270(3)
H5 H -0.3594 0.6741 0.2060
H6 H -0.4356 0.6355 0.2972
O10 O 0.1122(4) 0.61615(8) 0.0188(3)
H7 H 0.1642 0.6418 -0.0257
H8 H 0.1900 0.5937 -0.0226
O11 O -0.0947(4) 0.55211(10) 0.2810(4)
H9 H 0.0249 0.5374 0.2812
H10 H -0.1852 0.5327 0.3253
O12 O -0.3884(4) 0.64884(9) -0.2325(3)
H11 H -0.2919 0.6634 -0.2915
H12 H -0.4664 0.6701 -0.1829
O13 O -0.1241(5) 0.52949(13) -0.2223(5)
H13 H 0.0002 0.5263 -0.2663
H14 H -0.2006 0.5392 -0.3130
O14 O -0.5711(4) 0.54510(9) -0.0209(3)
H15 H -0.6070 0.5281 0.0704
H16 H -0.5958 0.5274 -0.1142
N1 N 0.0297(6) 0.93420(11) -0.1088(5)
H17 H -0.0957 0.9406 -0.1539
H18 H 0.1188 0.9571 -0.0854
C1 C 0.2063(5) 0.79329(10) -0.0007(4)
C2 C 0.3493(5) 0.83016(11) 0.0335(4)
H21 H 0.4857 0.8230 0.0802
C3 C 0.2944(5) 0.87740(11) -0.0001(4)
C4 C 0.0878(5) 0.88746(11) -0.0741(4)
C5 C -0.0519(5) 0.84973(12) -0.1103(4)
H22 H -0.1866 0.8564 -0.1615
C6 C 0.0025(5) 0.80289(11) -0.0727(4)
H23 H -0.0948 0.7781 -0.0950
C7 C 0.4487(6) 0.91779(12) 0.0394(5)
H24 H 0.5831 0.9048 0.0832
H25 H 0.3908 0.9386 0.1312
H26 H 0.4709 0.9358 -0.0710
S2 S 0.40036(12) 0.48468(3) 0.47552(10)
O4 O 0.3033(4) 0.49845(8) 0.2983(3)
O5 O 0.6316(3) 0.48784(9) 0.4768(3)
O6 O 0.3058(4) 0.51229(9) 0.6233(3)
N2 N 0.1911(5) 0.28066(10) 0.6182(4)
H19 H 0.0701 0.2731 0.6648
H20 H 0.2832 0.2586 0.5950
C8 C 0.3372(5) 0.42400(10) 0.5119(4)
C9 C 0.4831(5) 0.38849(11) 0.4721(4)
H27 H 0.6147 0.3969 0.4240
C10 C 0.4370(5) 0.34040(11) 0.5026(4)
C11 C 0.2378(5) 0.32860(11) 0.5801(4)
C12 C 0.0921(5) 0.36457(12) 0.6162(4)
H28 H -0.0397 0.3565 0.6648
C13 C 0.1375(5) 0.41236(12) 0.5819(4)
H29 H 0.0371 0.4362 0.6049
C14 C 0.5927(6) 0.30165(12) 0.4548(5)
H30 H 0.7087 0.3153 0.3878
H31 H 0.5211 0.2778 0.3805
H32 H 0.6481 0.2870 0.5653
loop_
_geom_bond_atom_site_label_1
_geom_bond_atom_site_label_2
_geom_bond_site_symmetry_1
_geom_bond_site_symmetry_2
Na1 O1 1_555 1_555
Na2 O9 1_555 1_555
S1 O1 1_555 1_555
S2 O4 1_555 1_555
O2 S1 1_555 1_555
O3 S1 1_555 1_555
O5 S2 1_555 1_555
O6 S2 1_555 1_555
O7 Na1 1_555 1_555
H1 O7 1_555 1_555
H2 O7 1_555 1_555
O8 Na1 1_555 1_555
H3 O8 1_555 1_555
H4 O8 1_555 1_555
O9 Na1 1_555 1_555
H5 O9 1_555 1_555
H6 O9 1_555 1_555
O10 Na1 1_555 1_555
H7 O10 1_555 1_555
H8 O10 1_555 1_555
O11 Na1 1_555 1_555
H9 O11 1_555 1_555
H10 O11 1_555 1_555
O12 Na2 1_555 1_555
H11 O12 1_555 1_555
H12 O12 1_555 1_555
O13 Na2 1_555 1_555
H13 O13 1_555 1_555
H14 O13 1_555 1_555
O14 Na2 1_555 1_555
H15 O14 1_555 1_555
H16 O14 1_555 1_555
N1 H17 1_555 1_555
H18 N1 1_555 1_555
N2 H19 1_555 1_555
H20 N2 1_555 1_555
C1 S1 1_555 1_555
C2 C1 1_555 1_555
H21 C2 1_555 1_555
C3 C2 1_555 1_555
C4 N1 1_555 1_555
C5 C4 1_555 1_555
H22 C5 1_555 1_555
C6 C1 1_555 1_555
H23 C6 1_555 1_555
C7 C3 1_555 1_555
H24 C7 1_555 1_555
H25 C7 1_555 1_555
H26 C7 1_555 1_555
C8 S2 1_555 1_555
C9 C8 1_555 1_555
H27 C9 1_555 1_555
C10 C9 1_555 1_555
C11 N2 1_555 1_555
C12 C11 1_555 1_555
H28 C12 1_555 1_555
C13 C8 1_555 1_555
H29 C13 1_555 1_555
C14 C10 1_555 1_555
H30 C14 1_555 1_555
H31 C14 1_555 1_555
H32 C14 1_555 1_555
Na2 O10 1_555 1_555
Na2 O11 1_555 1_555
C3 C4 1_555 1_555
C5 C6 1_555 1_555
C10 C11 1_555 1_555
C12 C13 1_555 1_555

#END
