
#######################################################################
#
#                 Cambridge Crystallographic Data Centre
#                                CCDC 
#
#######################################################################
#
# If this CIF has been generated from an entry in the Cambridge 
# Structural Database, then it will include bibliographic, chemical, 
# crystal, experimental, refinement or atomic coordinate data resulting 
# from the CCDC's data processing and validation procedures.
#
#######################################################################

data_DULRAF
_chemical_formula_moiety         'C28 H31 N5 O5'
_chemical_name_systematic        
4-((9-hydroxy-2,2-dimethyl-3-oxo-2,3,9,9a-tetrahydro-1H-imidazo[1,2-a]indol-9-yl)methyl)-1-isopropyl-1-methoxy-2H-pyrazino[2,1-b]quinazoline-3,6(1H,4H)-dione
_symmetry_cell_setting           orthorhombic
_symmetry_space_group_name_H-M   'P 21 21 21'
_symmetry_Int_Tables_number      19
_space_group_name_Hall           'P 2ac 2ab'
loop_
_symmetry_equiv_pos_site_id
_symmetry_equiv_pos_as_xyz
1 x,y,z
2 1/2-x,-y,1/2+z
3 1/2+x,1/2-y,-z
4 -x,1/2+y,1/2-z
_cell_length_a                   12.6023(3)
_cell_length_b                   13.2710(4)
_cell_length_c                   15.6239(5)
_cell_angle_alpha                90
_cell_angle_beta                 90
_cell_angle_gamma                90
_cell_volume                     2613.02
_exptl_crystal_description       block
_cell_formula_units_Z            4
loop_
_atom_site_label
_atom_site_type_symbol
_atom_site_fract_x
_atom_site_fract_y
_atom_site_fract_z
O1 O 0.57346(9) 0.42749(9) -0.05322(8)
H1 H 0.5770 0.4160 -0.0017
O2 O 0.72843(9) 0.06639(9) -0.00598(8)
O3 O 0.56067(11) 0.38145(9) 0.11189(8)
O4 O 0.91568(10) 0.29816(10) 0.02516(10)
N1 N 0.72680(12) 0.50118(11) -0.19111(9)
N2 N 0.65685(10) 0.23674(10) 0.10196(8)
N3 N 0.85188(11) 0.14942(11) 0.07426(10)
N4 N 0.61563(12) 0.09097(11) 0.18240(10)
C1 C 0.65820(13) 0.37694(12) -0.09616(10)
C2 C 0.62042(13) 0.36260(14) -0.18804(11)
C3 C 0.72906(12) 0.28593(11) 0.04029(10)
H2 H 0.7320 0.3577 0.0549
O5 O 0.71766(16) 0.66321(13) -0.24234(11)
C4 C 0.67282(12) 0.13796(12) 0.12707(10)
N5 N 0.76617(18) 0.53116(14) -0.04863(11)
H3 H 0.7646 0.5255 0.0062
C5 C 0.84160(13) 0.24460(12) 0.04602(10)
C6 C 0.41700(15) 0.28901(16) 0.23039(12)
H4 H 0.3985 0.3537 0.2129
C7 C 0.50535(14) 0.24117(14) 0.19506(11)
C8 C 0.76223(12) 0.08256(12) 0.08119(11)
C9 C 0.57340(14) 0.29325(12) 0.13398(10)
C10 C 0.75270(14) 0.45030(14) -0.10987(10)
H5 H 0.8190 0.4123 -0.1158
C11 C 0.78309(17) 0.62490(16) -0.09708(13)
C12 C 0.53108(14) 0.14317(14) 0.21920(11)
C13 C 0.65674(14) 0.44073(14) -0.23909(10)
C14 C 0.68711(13) 0.27761(12) -0.05319(10)
H6 H 0.7408 0.2445 -0.0876
H7 H 0.6248 0.2347 -0.0531
C15 C 0.79267(15) -0.01633(13) 0.12575(14)
H8 H 0.7270 -0.0545 0.1344
C16 C 0.62521(17) 0.45161(19) -0.32351(12)
H9 H 0.6490 0.5048 -0.3571
C17 C 0.55153(15) 0.29157(16) -0.22088(13)
H10 H 0.5266 0.2390 -0.1871
C18 C 0.55670(19) 0.3795(2) -0.35526(13)
H11 H 0.5343 0.3843 -0.4118
C19 C 0.73873(16) 0.60245(15) -0.18628(12)
C20 C 0.47100(16) 0.09459(16) 0.28206(14)
H12 H 0.4886 0.0297 0.2995
C21 C 0.38589(17) 0.14333(18) 0.31786(13)
H13 H 0.3467 0.1115 0.3604
C22 C 0.86477(18) -0.08055(15) 0.06845(19)
H14 H 0.9341 -0.0508 0.0660
H15 H 0.8354 -0.0837 0.0118
H16 H 0.8699 -0.1474 0.0916
C23 C 0.63288(16) 0.01132(17) -0.01854(15)
H17 H 0.6405 -0.0550 0.0051
H18 H 0.6182 0.0064 -0.0787
H19 H 0.5754 0.0455 0.0095
C24 C 0.52057(18) 0.30096(19) -0.30581(15)
H20 H 0.4749 0.2536 -0.3295
C25 C 0.35734(17) 0.23982(18) 0.29130(14)
H21 H 0.2980 0.2710 0.3147
C26 C 0.8417(2) 0.00022(18) 0.21347(17)
H22 H 0.8485 -0.0633 0.2424
H23 H 0.7971 0.0442 0.2464
H24 H 0.9106 0.0302 0.2070
C27 C 0.9001(2) 0.6497(3) -0.10473(19)
H25 H 0.9287 0.6627 -0.0489
H26 H 0.9089 0.7083 -0.1400
H27 H 0.9368 0.5938 -0.1301
C28 C 0.7216(3) 0.7108(3) -0.0564(2)
H28 H 0.6483 0.6922 -0.0513
H29 H 0.7276 0.7698 -0.0916
H30 H 0.7500 0.7246 -0.0007
H31 H 0.9198(19) 0.1221(16) 0.0736(14)
loop_
_geom_bond_atom_site_label_1
_geom_bond_atom_site_label_2
_geom_bond_site_symmetry_1
_geom_bond_site_symmetry_2
O1 H1 1_555 1_555
O2 C8 1_555 1_555
O3 C9 1_555 1_555
O4 C5 1_555 1_555
N1 C10 1_555 1_555
N2 C3 1_555 1_555
N3 C5 1_555 1_555
N4 C4 1_555 1_555
C1 O1 1_555 1_555
C2 C1 1_555 1_555
C3 H2 1_555 1_555
O5 C19 1_555 1_555
C4 N2 1_555 1_555
N5 H3 1_555 1_555
C5 C3 1_555 1_555
C6 H4 1_555 1_555
C7 C6 1_555 1_555
C8 N3 1_555 1_555
C9 N2 1_555 1_555
C10 C1 1_555 1_555
H5 C10 1_555 1_555
C11 N5 1_555 1_555
C12 N4 1_555 1_555
C13 N1 1_555 1_555
C14 C1 1_555 1_555
H6 C14 1_555 1_555
H7 C14 1_555 1_555
C15 C8 1_555 1_555
H8 C15 1_555 1_555
C16 C13 1_555 1_555
H9 C16 1_555 1_555
C17 C2 1_555 1_555
H10 C17 1_555 1_555
C18 C16 1_555 1_555
H11 C18 1_555 1_555
C19 N1 1_555 1_555
C20 C12 1_555 1_555
H12 C20 1_555 1_555
C21 C20 1_555 1_555
H13 C21 1_555 1_555
C22 C15 1_555 1_555
H14 C22 1_555 1_555
H15 C22 1_555 1_555
H16 C22 1_555 1_555
C23 O2 1_555 1_555
H17 C23 1_555 1_555
H18 C23 1_555 1_555
H19 C23 1_555 1_555
C24 C17 1_555 1_555
H20 C24 1_555 1_555
C25 C6 1_555 1_555
H21 C25 1_555 1_555
C26 C15 1_555 1_555
H22 C26 1_555 1_555
H23 C26 1_555 1_555
H24 C26 1_555 1_555
C27 C11 1_555 1_555
H25 C27 1_555 1_555
H26 C27 1_555 1_555
H27 C27 1_555 1_555
C28 C11 1_555 1_555
H28 C28 1_555 1_555
H29 C28 1_555 1_555
H30 C28 1_555 1_555
H31 N3 1_555 1_555
C2 C13 1_555 1_555
C3 C14 1_555 1_555
C4 C8 1_555 1_555
N5 C10 1_555 1_555
C7 C9 1_555 1_555
C7 C12 1_555 1_555
C11 C19 1_555 1_555
C18 C24 1_555 1_555
C21 C25 1_555 1_555

#END
