
#######################################################################
#
#                 Cambridge Crystallographic Data Centre
#                                CCDC 
#
#######################################################################
#
# If this CIF has been generated from an entry in the Cambridge 
# Structural Database, then it will include bibliographic, chemical, 
# crystal, experimental, refinement or atomic coordinate data resulting 
# from the CCDC's data processing and validation procedures.
#
#######################################################################

data_DULTOT
_chemical_formula_moiety         'C12 H11 N3 O6,0.25(C6 H14)'
_chemical_name_systematic        
'Cyclopentanone O-(3,5-dinitrobenzoyl)oxime n-hexane solvate'
_symmetry_cell_setting           triclinic
_symmetry_space_group_name_H-M   'P -1'
_symmetry_Int_Tables_number      2
_space_group_name_Hall           '-P 1'
loop_
_symmetry_equiv_pos_site_id
_symmetry_equiv_pos_as_xyz
1 x,y,z
2 -x,-y,-z
_cell_length_a                   10.712(3)
_cell_length_b                   11.297(3)
_cell_length_c                   13.050(3)
_cell_angle_alpha                74.63(2)
_cell_angle_beta                 76.78(2)
_cell_angle_gamma                87.52(2)
_cell_volume                     1482.14
_exptl_crystal_colour            'pale yellow'
_chemical_melting_point          381-382K
_cell_formula_units_Z            4
loop_
_atom_site_label
_atom_site_type_symbol
_atom_site_fract_x
_atom_site_fract_y
_atom_site_fract_z
C1 C 0.3566(2) 0.2124(2) 0.1806(2)
C2 C 0.2161(2) 0.2024(2) 0.2297(2)
C3 C 0.1537(3) 0.2223(3) 0.1326(2)
C4 C 0.2553(3) 0.1965(4) 0.0425(2)
C5 C 0.3804(3) 0.2348(3) 0.0592(2)
N1 N 0.4517(2) 0.2021(2) 0.2253(1)
O1 O 0.3990(1) 0.1793(1) 0.3428(1)
C6 C 0.4887(3) 0.1707(2) 0.4006(2)
O2 O 0.6025(2) 0.1805(2) 0.3655(1)
C7 C 0.4255(2) 0.1454(2) 0.5194(2)
C8 C 0.5049(2) 0.1253(2) 0.5929(2)
C9 C 0.4503(2) 0.1014(2) 0.7024(2)
C10 C 0.3197(2) 0.0940(2) 0.7433(2)
C11 C 0.2436(2) 0.1144(2) 0.6689(2)
C12 C 0.2928(2) 0.1412(2) 0.5571(2)
N2 N 0.5354(2) 0.0852(2) 0.7792(2)
O3 O 0.6502(2) 0.0936(2) 0.7418(1)
O4 O 0.4857(2) 0.0642(2) 0.8760(1)
N3 N 0.1034(2) 0.1103(2) 0.7096(2)
O5 O 0.0381(2) 0.1629(2) 0.6471(1)
O6 O 0.0612(2) 0.0546(2) 0.8047(1)
H1 H 0.1936 0.1226 0.2787
H2 H 0.1904 0.2641 0.2682
H3 H 0.1259 0.3055 0.1124
H4 H 0.0816 0.1673 0.1498
H5 H 0.2556 0.1105 0.0461
H6 H 0.2411 0.2427 -0.0269
H7 H 0.3992 0.3201 0.0235
H8 H 0.4498 0.1863 0.0325
H9 H 0.5965 0.1285 0.5673
H10 H 0.2833 0.0755 0.8203
H11 H 0.2370 0.1561 0.5071
C13 C 0.2131(3) 0.6399(2) 0.1197(2)
C14 C 0.2343(4) 0.6201(3) 0.0070(2)
C15 C 0.2035(4) 0.7384(3) -0.0613(2)
C16 C 0.2138(4) 0.8333(3) -0.0073(2)
C17 C 0.2027(3) 0.7724(2) 0.1122(2)
N4 N 0.2048(2) 0.5487(2) 0.2018(1)
O7 O 0.1860(2) 0.5967(1) 0.2984(1)
C18 C 0.1745(2) 0.5071(2) 0.3911(2)
O8 O 0.1756(2) 0.3995(1) 0.3989(1)
C19 C 0.1572(2) 0.5604(2) 0.4869(2)
C20 C 0.1434(2) 0.4778(2) 0.5888(2)
C21 C 0.1259(2) 0.5221(2) 0.6797(2)
C22 C 0.1197(2) 0.6451(2) 0.6742(2)
C23 C 0.1349(2) 0.7248(2) 0.5716(2)
C24 C 0.1545(2) 0.6856(2) 0.4780(2)
N5 N 0.1139(2) 0.4338(2) 0.7878(2)
O9 O 0.1149(15) 0.3241(7) 0.7927(14)
O10 O 0.0819(15) 0.4776(24) 0.8656(14)
N6 N 0.1296(2) 0.8576(2) 0.5639(1)
O11 O 0.0935(2) 0.8881(1) 0.6481(1)
O12 O 0.1640(2) 0.9287(1) 0.4739(1)
H12 H 0.1782 0.5562 0.0068
H13 H 0.3217 0.5991 -0.0180
H14 H 0.1179 0.7351 -0.0715
H15 H 0.2631 0.7562 -0.1309
H16 H 0.2950 0.8756 -0.0379
H17 H 0.1459 0.8907 -0.0162
H18 H 0.1215 0.7897 0.1545
H19 H 0.2707 0.8003 0.1374
H20 H 0.1458 0.3910 0.5958
H21 H 0.1054 0.6744 0.7385
H22 H 0.1662 0.7437 0.4079
C25 C 0.4929(3) 0.5239(3) 0.5488(2)
C26 C 0.4777(3) 0.4346(3) 0.6559(3)
C27 C 0.4615(4) 0.4829(4) 0.7545(3)
H23 H 0.4186 0.5746 0.5517
H24 H 0.5678 0.5734 0.5381
H25 H 0.4036 0.3842 0.6661
H26 H 0.5527 0.3848 0.6535
H27 H 0.4562 0.4212 0.8220
H28 H 0.3881 0.5346 0.7607
H29 H 0.5382 0.5316 0.7382
C25A C 0.5071(3) 0.4761(3) 0.4512(2)
C26A C 0.5223(3) 0.5654(3) 0.3441(3)
H23A H 0.5814 0.4254 0.4483
H24A H 0.4322 0.4266 0.4619
C27A C 0.5385(4) 0.5171(4) 0.2455(3)
H25A H 0.5964 0.6158 0.3339
H26A H 0.4473 0.6152 0.3465
H27A H 0.5438 0.5788 0.1780
H28A H 0.6119 0.4654 0.2393
H29A H 0.4618 0.4684 0.2618
loop_
_geom_bond_atom_site_label_1
_geom_bond_atom_site_label_2
_geom_bond_site_symmetry_1
_geom_bond_site_symmetry_2
C1 C2 1_555 1_555
C2 C3 1_555 1_555
C3 C4 1_555 1_555
C4 C5 1_555 1_555
C5 C1 1_555 1_555
N1 C1 1_555 1_555
O1 N1 1_555 1_555
C6 O1 1_555 1_555
O2 C6 1_555 1_555
C7 C6 1_555 1_555
C8 C7 1_555 1_555
C9 C8 1_555 1_555
C10 C9 1_555 1_555
C11 C10 1_555 1_555
C12 C7 1_555 1_555
N2 C9 1_555 1_555
O3 N2 1_555 1_555
O4 N2 1_555 1_555
N3 C11 1_555 1_555
O5 N3 1_555 1_555
O6 N3 1_555 1_555
H1 C2 1_555 1_555
H2 C2 1_555 1_555
H3 C3 1_555 1_555
H4 C3 1_555 1_555
H5 C4 1_555 1_555
H6 C4 1_555 1_555
H7 C5 1_555 1_555
H8 C5 1_555 1_555
H9 C8 1_555 1_555
H10 C10 1_555 1_555
H11 C12 1_555 1_555
C13 C14 1_555 1_555
C14 C15 1_555 1_555
C15 C16 1_555 1_555
C16 C17 1_555 1_555
C17 C13 1_555 1_555
N4 C13 1_555 1_555
O7 N4 1_555 1_555
C18 O7 1_555 1_555
O8 C18 1_555 1_555
C19 C18 1_555 1_555
C20 C19 1_555 1_555
C21 C20 1_555 1_555
C22 C21 1_555 1_555
C23 C22 1_555 1_555
C24 C19 1_555 1_555
N5 C21 1_555 1_555
O9 N5 1_555 1_555
O10 N5 1_555 1_555
N6 C23 1_555 1_555
O11 N6 1_555 1_555
O12 N6 1_555 1_555
H12 C14 1_555 1_555
H13 C14 1_555 1_555
H14 C15 1_555 1_555
H15 C15 1_555 1_555
H16 C16 1_555 1_555
H17 C16 1_555 1_555
H18 C17 1_555 1_555
H19 C17 1_555 1_555
H20 C20 1_555 1_555
H21 C22 1_555 1_555
H22 C24 1_555 1_555
C25 C26 1_555 1_555
C26 C27 1_555 1_555
C27 H27 1_555 1_555
H23 C25 1_555 1_555
H24 C25 1_555 1_555
H25 C26 1_555 1_555
H26 C26 1_555 1_555
H28 C27 1_555 1_555
H29 C27 1_555 1_555
C25A C25 1_555 1_555
C26A C25A 1_555 1_555
H23A C25A 1_555 1_555
H24A C25A 1_555 1_555
C27A C26A 1_555 1_555
H25A C26A 1_555 1_555
H26A C26A 1_555 1_555
H27A C27A 1_555 1_555
H28A C27A 1_555 1_555
H29A C27A 1_555 1_555
C11 C12 1_555 1_555
C23 C24 1_555 1_555

#END
