
#######################################################################
#
#                 Cambridge Crystallographic Data Centre
#                                CCDC 
#
#######################################################################
#
# If this CIF has been generated from an entry in the Cambridge 
# Structural Database, then it will include bibliographic, chemical, 
# crystal, experimental, refinement or atomic coordinate data resulting 
# from the CCDC's data processing and validation procedures.
#
#######################################################################

data_DUMKOL
_chemical_formula_moiety         'C22 H21 N1 O3 S1'
_chemical_name_systematic        
4-Phenylcyclohexanone-O-(2-naphthalenesulfonyl)-oxime
_symmetry_cell_setting           orthorhombic
_symmetry_space_group_name_H-M   'P c a 21'
_symmetry_Int_Tables_number      29
_space_group_name_Hall           'P 2c -2ac'
loop_
_symmetry_equiv_pos_site_id
_symmetry_equiv_pos_as_xyz
1 x,y,z
2 1/2-x,y,1/2+z
3 1/2+x,-y,z
4 -x,-y,1/2+z
_cell_length_a                   19.297(5)
_cell_length_b                   6.205(2)
_cell_length_c                   15.666(5)
_cell_angle_alpha                90
_cell_angle_beta                 90
_cell_angle_gamma                90
_cell_volume                     1875.81
_exptl_crystal_colour            colorless
_cell_formula_units_Z            4
loop_
_atom_site_label
_atom_site_type_symbol
_atom_site_fract_x
_atom_site_fract_y
_atom_site_fract_z
S1 S 0.4875(1) 0.8587(1) 0.5000
O1 O 0.5200(1) 0.7364(3) 0.5807(1)
O2 O 0.5247(1) 0.7667(4) 0.4316(1)
O3 O 0.4879(1) 1.0849(3) 0.5132(1)
C1 C 0.3509(1) 0.8899(4) 0.5352(1)
C2 C 0.4015(1) 0.7652(4) 0.5002(2)
C3 C 0.3869(1) 0.5586(4) 0.4666(2)
C4 C 0.3205(1) 0.4856(4) 0.4680(1)
C5 C 0.2663(1) 0.6096(3) 0.5041(2)
C6 C 0.1964(1) 0.5373(4) 0.5060(2)
C7 C 0.1457(1) 0.6622(5) 0.5387(2)
C8 C 0.1612(1) 0.8650(5) 0.5740(2)
C9 C 0.2279(1) 0.9416(4) 0.5740(2)
C10 C 0.2819(1) 0.8157(4) 0.5381(1)
N1 N 0.4894(1) 0.8233(4) 0.6619(1)
C11 C 0.4705(1) 0.6670(4) 0.7084(2)
C12 C 0.4700(1) 0.4290(4) 0.6909(2)
C13 C 0.3951(1) 0.3463(4) 0.6950(2)
C14 C 0.3581(1) 0.4105(4) 0.7776(1)
C15 C 0.3622(1) 0.6532(4) 0.7906(2)
C16 C 0.4371(1) 0.7339(4) 0.7913(2)
C17 C 0.2852(1) 0.3213(4) 0.7794(1)
C18 C 0.2301(1) 0.4224(4) 0.7377(1)
C19 C 0.1645(1) 0.3331(5) 0.7378(2)
C20 C 0.1520(1) 0.1389(5) 0.7780(2)
C21 C 0.2055(1) 0.0352(4) 0.8181(2)
C22 C 0.2712(1) 0.1273(4) 0.8199(1)
H1 H 0.3623 1.0290 0.5580
H2 H 0.4233 0.4713 0.4433
H3 H 0.3102 0.3470 0.4439
H4 H 0.1851 0.3978 0.4834
H5 H 0.0987 0.6121 0.5380
H6 H 0.1248 0.9506 0.5984
H7 H 0.2380 1.0803 0.5981
H8 H 0.4887 0.4021 0.6351
H9 H 0.4975 0.3558 0.7329
H10 H 0.3699 0.4051 0.6476
H11 H 0.3957 0.1920 0.6910
H12 H 0.3812 0.3467 0.8255
H13 H 0.3376 0.7233 0.7451
H14 H 0.3409 0.6889 0.8442
H15 H 0.4616 0.6711 0.8385
H16 H 0.4378 0.8880 0.7964
H17 H 0.2380 0.5562 0.7085
H18 H 0.1272 0.4067 0.7096
H19 H 0.1063 0.0774 0.7780
H20 H 0.1976 -0.1018 0.8449
H21 H 0.3077 0.0552 0.8503
loop_
_geom_bond_atom_site_label_1
_geom_bond_atom_site_label_2
_geom_bond_site_symmetry_1
_geom_bond_site_symmetry_2
S1 O1 1_555 1_555
O1 N1 1_555 1_555
O2 S1 1_555 1_555
O3 S1 1_555 1_555
C1 C2 1_555 1_555
C2 S1 1_555 1_555
C3 C2 1_555 1_555
C4 C3 1_555 1_555
C5 C4 1_555 1_555
C6 C5 1_555 1_555
C7 C6 1_555 1_555
C8 C7 1_555 1_555
C9 C8 1_555 1_555
C10 C1 1_555 1_555
N1 C11 1_555 1_555
C11 C12 1_555 1_555
C12 C13 1_555 1_555
C13 C14 1_555 1_555
C14 C15 1_555 1_555
C15 C16 1_555 1_555
C16 C11 1_555 1_555
C17 C14 1_555 1_555
C18 C17 1_555 1_555
C19 C18 1_555 1_555
C20 C19 1_555 1_555
C21 C20 1_555 1_555
C22 C17 1_555 1_555
H1 C1 1_555 1_555
H2 C3 1_555 1_555
H3 C4 1_555 1_555
H4 C6 1_555 1_555
H5 C7 1_555 1_555
H6 C8 1_555 1_555
H7 C9 1_555 1_555
H8 C12 1_555 1_555
H9 C12 1_555 1_555
H10 C13 1_555 1_555
H11 C13 1_555 1_555
H12 C14 1_555 1_555
H13 C15 1_555 1_555
H14 C15 1_555 1_555
H15 C16 1_555 1_555
H16 C16 1_555 1_555
H17 C18 1_555 1_555
H18 C19 1_555 1_555
H19 C20 1_555 1_555
H20 C21 1_555 1_555
H21 C22 1_555 1_555
C5 C10 1_555 1_555
C9 C10 1_555 1_555
C21 C22 1_555 1_555

#END
