
#######################################################################
#
#                 Cambridge Crystallographic Data Centre
#                                CCDC 
#
#######################################################################
#
# If this CIF has been generated from an entry in the Cambridge 
# Structural Database, then it will include bibliographic, chemical, 
# crystal, experimental, refinement or atomic coordinate data resulting 
# from the CCDC's data processing and validation procedures.
#
#######################################################################

data_DUMKUR
_chemical_formula_moiety         'C31 H29 N1 O1'
_chemical_name_systematic        
'4-Phenylcyclohexanone-oxime-O-triphenylmethyl ether'
_symmetry_cell_setting           monoclinic
_symmetry_space_group_name_H-M   'P 21/n'
_symmetry_Int_Tables_number      14
_space_group_name_Hall           '-P 2yn'
loop_
_symmetry_equiv_pos_site_id
_symmetry_equiv_pos_as_xyz
1 x,y,z
2 1/2-x,1/2+y,1/2-z
3 -x,-y,-z
4 1/2+x,1/2-y,1/2+z
_cell_length_a                   9.654(3)
_cell_length_b                   23.949(8)
_cell_length_c                   10.930(3)
_cell_angle_alpha                90
_cell_angle_beta                 109.94(3)
_cell_angle_gamma                90
_cell_volume                     2375.56
_exptl_crystal_colour            'pale yellow'
_chemical_melting_point          431-432K(dec)
_cell_formula_units_Z            4
loop_
_atom_site_label
_atom_site_type_symbol
_atom_site_fract_x
_atom_site_fract_y
_atom_site_fract_z
C1 C 0.4951(2) 0.4938(1) 0.7465(2)
C2 C 0.4971(2) 0.5416(1) 0.6574(2)
C3 C 0.6543(2) 0.5572(1) 0.6675(2)
C4 C 0.7512(2) 0.5683(1) 0.8083(2)
C5 C 0.7521(2) 0.5171(1) 0.8918(2)
C6 C 0.5984(2) 0.4984(1) 0.8839(2)
C7 C 0.9060(2) 0.5861(1) 0.8215(2)
C8 C 1.0000(2) 0.5507(1) 0.7876(2)
C9 C 1.1426(2) 0.5666(1) 0.8026(2)
C10 C 1.1916(2) 0.6184(1) 0.8506(2)
C11 C 1.1009(3) 0.6539(1) 0.8850(2)
C12 C 0.9576(2) 0.6382(1) 0.8698(2)
N1 N 0.4042(1) 0.4544(1) 0.6969(1)
O1 O 0.4123(1) 0.4127(1) 0.7927(1)
C13 C 0.3162(2) 0.3658(1) 0.7355(1)
C14 C 0.3562(2) 0.3411(1) 0.6232(2)
C15 C 0.5042(2) 0.3381(1) 0.6356(2)
C16 C 0.5480(3) 0.3114(1) 0.5439(2)
C17 C 0.4461(3) 0.2866(1) 0.4371(2)
C18 C 0.2982(3) 0.2890(1) 0.4225(2)
C19 C 0.2544(2) 0.3161(1) 0.5155(2)
C20 C 0.3564(2) 0.3228(1) 0.8467(1)
C21 C 0.4210(2) 0.3385(1) 0.9753(2)
C22 C 0.4494(2) 0.2998(1) 1.0747(2)
C23 C 0.4133(2) 0.2445(1) 1.0469(2)
C24 C 0.3492(2) 0.2283(1) 0.9194(2)
C25 C 0.3206(2) 0.2670(1) 0.8201(2)
C26 C 0.1547(2) 0.3838(1) 0.7006(1)
C27 C 0.0821(2) 0.4129(1) 0.5857(2)
C28 C -0.0648(2) 0.4274(1) 0.5540(1)
C29 C -0.1420(2) 0.4138(1) 0.6347(2)
C30 C -0.0709(2) 0.3868(1) 0.7507(2)
C31 C 0.0758(2) 0.3723(1) 0.7825(2)
H1 H 0.4430 0.5310 0.5693
H2 H 0.4510 0.5735 0.6805
H3 H 0.6512 0.5902 0.6169
H4 H 0.6960 0.5270 0.6338
H5 H 0.7091 0.5993 0.8389
H6 H 0.8075 0.5259 0.9808
H7 H 0.7990 0.4869 0.8633
H8 H 0.5593 0.5251 0.9291
H9 H 0.6058 0.4626 0.9249
H10 H 0.9658 0.5145 0.7529
H11 H 1.2069 0.5414 0.7795
H12 H 1.2901 0.6298 0.8601
H13 H 1.1364 0.6900 0.9199
H14 H 0.8941 0.6638 0.8930
H15 H 0.5769 0.3550 0.7094
H16 H 0.6508 0.3100 0.5542
H17 H 0.4775 0.2679 0.3735
H18 H 0.2261 0.2719 0.3484
H19 H 0.1516 0.3177 0.5050
H20 H 0.4467 0.3770 0.9959
H21 H 0.4945 0.3116 1.1635
H22 H 0.4328 0.2176 1.1158
H23 H 0.3239 0.1898 0.8992
H24 H 0.2754 0.2551 0.7315
H25 H 0.1345 0.4229 0.5284
H26 H -0.1135 0.4471 0.4745
H27 H -0.2446 0.4231 0.6106
H28 H -0.1230 0.3782 0.8091
H29 H 0.1245 0.3537 0.8637
loop_
_geom_bond_atom_site_label_1
_geom_bond_atom_site_label_2
_geom_bond_site_symmetry_1
_geom_bond_site_symmetry_2
C1 C2 1_555 1_555
C2 C3 1_555 1_555
C3 C4 1_555 1_555
C4 C5 1_555 1_555
C5 C6 1_555 1_555
C6 C1 1_555 1_555
C7 C4 1_555 1_555
C8 C7 1_555 1_555
C9 C8 1_555 1_555
C10 C9 1_555 1_555
C11 C10 1_555 1_555
C12 C7 1_555 1_555
N1 C1 1_555 1_555
O1 N1 1_555 1_555
C13 O1 1_555 1_555
C14 C13 1_555 1_555
C15 C14 1_555 1_555
C16 C15 1_555 1_555
C17 C16 1_555 1_555
C18 C17 1_555 1_555
C19 C14 1_555 1_555
C20 C13 1_555 1_555
C21 C20 1_555 1_555
C22 C21 1_555 1_555
C23 C22 1_555 1_555
C24 C23 1_555 1_555
C25 C20 1_555 1_555
C26 C13 1_555 1_555
C27 C26 1_555 1_555
C28 C27 1_555 1_555
C29 C28 1_555 1_555
C30 C29 1_555 1_555
C31 C26 1_555 1_555
H1 C2 1_555 1_555
H2 C2 1_555 1_555
H3 C3 1_555 1_555
H4 C3 1_555 1_555
H5 C4 1_555 1_555
H6 C5 1_555 1_555
H7 C5 1_555 1_555
H8 C6 1_555 1_555
H9 C6 1_555 1_555
H10 C8 1_555 1_555
H11 C9 1_555 1_555
H12 C10 1_555 1_555
H13 C11 1_555 1_555
H14 C12 1_555 1_555
H15 C15 1_555 1_555
H16 C16 1_555 1_555
H17 C17 1_555 1_555
H18 C18 1_555 1_555
H19 C19 1_555 1_555
H20 C21 1_555 1_555
H21 C22 1_555 1_555
H22 C23 1_555 1_555
H23 C24 1_555 1_555
H24 C25 1_555 1_555
H25 C27 1_555 1_555
H26 C28 1_555 1_555
H27 C29 1_555 1_555
H28 C30 1_555 1_555
H29 C31 1_555 1_555
C11 C12 1_555 1_555
C18 C19 1_555 1_555
C24 C25 1_555 1_555
C30 C31 1_555 1_555

#END
