
#######################################################################
#
#                 Cambridge Crystallographic Data Centre
#                                CCDC 
#
#######################################################################
#
# If this CIF has been generated from an entry in the Cambridge 
# Structural Database, then it will include bibliographic, chemical, 
# crystal, experimental, refinement or atomic coordinate data resulting 
# from the CCDC's data processing and validation procedures.
#
#######################################################################

data_DUMMEE
_chemical_formula_moiety         'C23 H27 Cl2 N3 O1'
_chemical_name_systematic        
2-(2-((2,6-Dichlorophenyl)amino)phenyl)-N'-(4-propylcyclohexylidene)acetohydrazide
_symmetry_cell_setting           monoclinic
_symmetry_space_group_name_H-M   'P 21/c'
_symmetry_Int_Tables_number      14
_space_group_name_Hall           '-P 2ybc'
loop_
_symmetry_equiv_pos_site_id
_symmetry_equiv_pos_as_xyz
1 x,y,z
2 -x,1/2+y,1/2-z
3 -x,-y,-z
4 x,1/2-y,1/2+z
_cell_length_a                   13.0235(6)
_cell_length_b                   15.2618(5)
_cell_length_c                   26.6255(12)
_cell_angle_alpha                90
_cell_angle_beta                 118.098(3)
_cell_angle_gamma                90
_cell_volume                     4668.43
_exptl_crystal_colour            colorless
_exptl_crystal_description       prism
_chemical_melting_point          474.2-474.8K
_cell_formula_units_Z            8
_exptl_crystal_recrystallization_method ethanol
loop_
_atom_site_label
_atom_site_type_symbol
_atom_site_fract_x
_atom_site_fract_y
_atom_site_fract_z
Cl1 Cl 0.55339(12) 0.47497(7) 0.21299(7)
Cl2 Cl 0.35062(13) 0.76589(7) 0.24245(6)
O1 O 0.2070(3) 0.61054(15) 0.27547(13)
N1 N 0.3728(3) 0.57460(19) 0.23307(14)
N2 N 0.1122(3) 0.50946(18) 0.29889(14)
N3 N 0.0476(3) 0.5731(2) 0.30818(16)
C1 C 0.4513(3) 0.6241(2) 0.22301(16)
C2 C 0.4538(4) 0.7154(2) 0.22791(19)
C3 C 0.5337(5) 0.7657(3) 0.2219(2)
C4 C 0.6145(5) 0.7280(3) 0.2095(3)
C5 C 0.6163(4) 0.6386(3) 0.2052(2)
C6 C 0.5386(4) 0.5878(3) 0.21322(19)
C7 C 0.2970(3) 0.5115(2) 0.19509(19)
C8 C 0.2774(4) 0.5052(3) 0.1398(2)
C9 C 0.1971(5) 0.4428(5) 0.1038(3)
C10 C 0.1421(6) 0.3871(5) 0.1238(4)
C11 C 0.1628(5) 0.3935(3) 0.1788(3)
C12 C 0.2404(4) 0.4557(2) 0.2156(2)
C13 C 0.2595(4) 0.4600(2) 0.2751(2)
C14 C 0.1899(3) 0.5338(2) 0.28315(16)
C15 C -0.0211(5) 0.5513(3) 0.3267(3)
C16 C -0.0417(7) 0.4612(4) 0.3418(4)
C17 C -0.0837(7) 0.4531(4) 0.3797(4)
C18 C -0.1573(8) 0.5226(4) 0.3871(4)
C19 C -0.1138(7) 0.6138(4) 0.3802(4)
C20 C -0.0909(7) 0.6232(4) 0.3349(4)
C21 C -0.1851(13) 0.5169(6) 0.4331(7)
C22 C -0.2286(11) 0.4326(6) 0.4477(6)
C23 C -0.3406(11) 0.4181(7) 0.3950(6)
H1 H 0.10180 0.45490 0.30330
H2 H 0.67070 0.61230 0.19670
H3 H 0.53340 0.82620 0.22630
H4 H 0.66730 0.76250 0.20410
H5 H 0.37050 0.58310 0.26450
H6 H 0.12460 0.35600 0.19200
H7 H 0.34170 0.46900 0.30060
H8 H 0.23700 0.40470 0.28500
H9 H -0.09560 0.43200 0.30690
H10 H 0.31660 0.54160 0.12650
H11 H 0.18110 0.43920 0.06600
H12 H 0.09070 0.34490 0.09990
H13 H -0.23290 0.51660 0.35300
H14 H -0.17180 0.65690 0.37630
H15 H -0.04330 0.62730 0.41490
H16 H -0.04980 0.67800 0.33960
H17 H -0.16470 0.62790 0.30040
H18 H -0.24360 0.56130 0.42620
H19 H -0.11580 0.53440 0.46730
H20 H -0.17480 0.38450 0.45460
H21 H -0.24070 0.44020 0.48070
H22 H -0.37430 0.36360 0.39800
H23 H -0.32670 0.41600 0.36270
H24 H -0.39320 0.46520 0.39040
H25 H 0.03140 0.42940 0.35690
H26 H -0.01700 0.44400 0.41680
H27 H -0.12860 0.39930 0.37020
Cl3 Cl 0.65421(16) 0.86931(15) 0.46429(9)
Cl4 Cl 0.69658(17) 0.55357(12) 0.56388(8)
O2 O 0.8618(2) 0.68597(16) 0.67741(11)
N4 N 0.7624(3) 0.7387(2) 0.55967(14)
N5 N 1.0330(3) 0.73731(17) 0.74608(13)
N6 N 1.0550(3) 0.65711(19) 0.77439(16)
C24 C 0.6732(4) 0.7070(4) 0.50919(19)
C25 C 0.6183(4) 0.7609(4) 0.4604(2)
C26 C 0.5347(6) 0.7271(7) 0.4093(3)
C27 C 0.4974(6) 0.6461(9) 0.4068(4)
C28 C 0.5440(6) 0.5910(6) 0.4539(4)
C29 C 0.6327(5) 0.6232(4) 0.5040(2)
C30 C 0.8708(3) 0.7650(3) 0.56500(17)
C31 C 0.9009(4) 0.7488(3) 0.52235(19)
C32 C 1.0070(5) 0.7718(4) 0.5287(2)
C33 C 1.0875(5) 0.8114(4) 0.5773(3)
C34 C 1.0586(4) 0.8288(3) 0.6199(2)
C35 C 0.9510(3) 0.8072(2) 0.61494(16)
C36 C 0.9229(4) 0.8264(2) 0.66274(17)
C37 C 0.9359(3) 0.7440(2) 0.69641(16)
C38 C 1.1410(4) 0.6509(3) 0.82318(19)
C39 C 1.1645(6) 0.5615(3) 0.8499(3)
C40 C 1.1834(6) 0.5634(4) 0.9097(3)
C41 C 1.2791(6) 0.6281(4) 0.9464(2)
C42 C 1.2429(7) 0.7183(4) 0.9183(3)
C43 C 1.2220(5) 0.7205(4) 0.8578(2)
C44 C 1.3058(8) 0.6285(7) 1.0070(3)
C45 C 1.4223(12) 0.6681(8) 1.0492(4)
C46 C 1.5268(10) 0.6037(11) 1.0633(4)
H28 H 0.75110 0.74250 0.58890
H29 H 1.08010 0.78080 0.76000
H30 H 0.50470 0.76150 0.37660
H31 H 0.43830 0.62520 0.37250
H32 H 0.51620 0.53430 0.45180
H33 H 0.84750 0.72170 0.48890
H34 H 1.02510 0.76040 0.49950
H35 H 1.16040 0.82640 0.58150
H36 H 1.11320 0.85590 0.65310
H37 H 0.97520 0.87120 0.68750
H38 H 0.84380 0.84820 0.64720
H39 H 1.09920 0.52350 0.82740
H40 H 1.23290 0.53710 0.84950
H41 H 1.20460 0.50530 0.92600
H42 H 1.11140 0.57990 0.90960
H43 H 1.35020 0.61090 0.94500
H44 H 1.17240 0.73640 0.91910
H45 H 1.30340 0.76030 0.94040
H46 H 1.19010 0.77710 0.84130
H47 H 1.29550 0.71330 0.85740
H48 H 1.30320 0.56860 1.01840
H49 H 1.24450 0.66050 1.01000
H50 H 1.42000 0.68270 1.08410
H51 H 1.43490 0.72190 1.03350
H52 H 1.54970 0.57660 1.09960
H53 H 1.59130 0.63580 1.06450
H54 H 1.50300 0.55940 1.03440
C47? C -0.276(2) 0.4895(11) 0.3812(13)
C48? C -0.274(3) 0.3976(12) 0.4063(13)
C49? C -0.337(2) 0.3799(11) 0.4379(11)
H55? H -0.30320 0.53140 0.39980
H56? H -0.33270 0.48880 0.34110
H57? H -0.30180 0.35630 0.37490
H58? H -0.19290 0.38330 0.43120
H59? H -0.36230 0.31990 0.43240
H60? H -0.40380 0.41780 0.42450
H61? H -0.28720 0.39040 0.47770
loop_
_geom_bond_atom_site_label_1
_geom_bond_atom_site_label_2
_geom_bond_site_symmetry_1
_geom_bond_site_symmetry_2
Cl1 C6 1_555 1_555
Cl2 C2 1_555 1_555
O1 C14 1_555 1_555
N1 C1 1_555 1_555
N2 N3 1_555 1_555
N3 C15 1_555 1_555
C1 C2 1_555 1_555
C2 C3 1_555 1_555
C3 C4 1_555 1_555
C4 C5 1_555 1_555
C5 C6 1_555 1_555
C6 C1 1_555 1_555
C7 N1 1_555 1_555
C8 C7 1_555 1_555
C9 C8 1_555 1_555
C10 C9 1_555 1_555
C11 C10 1_555 1_555
C12 C7 1_555 1_555
C13 C12 1_555 1_555
C14 N2 1_555 1_555
C15 C16 1_555 1_555
C16 C17 1_555 1_555
C17 C18 1_555 1_555
C18 C19 1_555 1_555
C19 C20 1_555 1_555
C20 C15 1_555 1_555
C21 C18 1_555 1_555
C22 C21 1_555 1_555
C23 C22 1_555 1_555
Cl3 C25 1_555 1_555
Cl4 C29 1_555 1_555
O2 C37 1_555 1_555
N4 C24 1_555 1_555
N5 N6 1_555 1_555
N6 C38 1_555 1_555
C24 C25 1_555 1_555
C25 C26 1_555 1_555
C26 C27 1_555 1_555
C27 C28 1_555 1_555
C28 C29 1_555 1_555
C29 C24 1_555 1_555
C30 N4 1_555 1_555
C31 C30 1_555 1_555
C32 C31 1_555 1_555
C33 C32 1_555 1_555
C34 C33 1_555 1_555
C35 C30 1_555 1_555
C36 C35 1_555 1_555
C37 N5 1_555 1_555
C38 C39 1_555 1_555
C39 C40 1_555 1_555
C40 C41 1_555 1_555
C41 C42 1_555 1_555
C42 C43 1_555 1_555
C43 C38 1_555 1_555
C44 C41 1_555 1_555
C45 C44 1_555 1_555
C46 C45 1_555 1_555
H1 N2 1_555 1_555
H2 C5 1_555 1_555
H3 C3 1_555 1_555
H4 C4 1_555 1_555
H5 N1 1_555 1_555
H6 C11 1_555 1_555
H7 C13 1_555 1_555
H8 C13 1_555 1_555
H9 C16 1_555 1_555
H10 C8 1_555 1_555
H11 C9 1_555 1_555
H12 C10 1_555 1_555
H13 C18 1_555 1_555
H14 C19 1_555 1_555
H15 C19 1_555 1_555
H16 C20 1_555 1_555
H17 C20 1_555 1_555
H18 C21 1_555 1_555
H19 C21 1_555 1_555
H20 C22 1_555 1_555
H21 C22 1_555 1_555
H22 C23 1_555 1_555
H23 C23 1_555 1_555
H24 C23 1_555 1_555
H25 C16 1_555 1_555
H26 C17 1_555 1_555
H27 C17 1_555 1_555
H28 N4 1_555 1_555
H29 N5 1_555 1_555
H30 C26 1_555 1_555
H31 C27 1_555 1_555
H32 C28 1_555 1_555
H33 C31 1_555 1_555
H34 C32 1_555 1_555
H35 C33 1_555 1_555
H36 C34 1_555 1_555
H37 C36 1_555 1_555
H38 C36 1_555 1_555
H39 C39 1_555 1_555
H40 C39 1_555 1_555
H41 C40 1_555 1_555
H42 C40 1_555 1_555
H43 C41 1_555 1_555
H44 C42 1_555 1_555
H45 C42 1_555 1_555
H46 C43 1_555 1_555
H47 C43 1_555 1_555
H48 C44 1_555 1_555
H49 C44 1_555 1_555
H50 C45 1_555 1_555
H51 C45 1_555 1_555
H52 C46 1_555 1_555
H53 C46 1_555 1_555
H54 C46 1_555 1_555
C11 C12 1_555 1_555
C13 C14 1_555 1_555
C34 C35 1_555 1_555
C36 C37 1_555 1_555

#END
