
#######################################################################
#
#                 Cambridge Crystallographic Data Centre
#                                CCDC 
#
#######################################################################
#
# If this CIF has been generated from an entry in the Cambridge 
# Structural Database, then it will include bibliographic, chemical, 
# crystal, experimental, refinement or atomic coordinate data resulting 
# from the CCDC's data processing and validation procedures.
#
#######################################################################

data_DUMNUV
_chemical_formula_moiety         'C12 H15 N1 O5 S1'
_chemical_name_systematic        
'(4-Benzyl-2-oxo-1,3-oxazolidin-5-yl)methyl methanesulfonate'
_symmetry_cell_setting           monoclinic
_symmetry_space_group_name_H-M   'P 21'
_symmetry_Int_Tables_number      4
_space_group_name_Hall           'P 2yb'
loop_
_symmetry_equiv_pos_site_id
_symmetry_equiv_pos_as_xyz
1 x,y,z
2 -x,1/2+y,-z
_cell_length_a                   8.7332(5)
_cell_length_b                   5.8757(3)
_cell_length_c                   12.9650(7)
_cell_angle_alpha                90
_cell_angle_beta                 103.317(3)
_cell_angle_gamma                90
_cell_volume                     647.393
_exptl_crystal_colour            colorless
_exptl_crystal_description       plate
_cell_formula_units_Z            2
_exptl_crystal_recrystallization_method 'aqueous ethanol'
loop_
_atom_site_label
_atom_site_type_symbol
_atom_site_fract_x
_atom_site_fract_y
_atom_site_fract_z
S1 S 0.44667(11) 0.00547(18) 0.67229(8)
O1 O 0.6105(3) 0.0327(6) 0.7186(2)
O2 O 0.3629(4) -0.1750(5) 0.7089(2)
O3 O 0.4391(3) -0.0275(5) 0.5504(2)
O4 O 0.2132(3) 0.2865(5) 0.4405(2)
O5 O 0.0104(3) 0.5267(5) 0.4294(2)
N1 N -0.0074(4) 0.2084(6) 0.3228(3)
H1 H -0.1104(13) 0.208(8) 0.305(4)
C1 C 0.3493(6) 0.2628(8) 0.6800(4)
H2 H 0.3625 0.3063 0.7545
H3 H 0.2370 0.2448 0.6473
H4 H 0.3937 0.3815 0.6425
C2 C 0.2907(5) -0.1031(7) 0.4793(3)
H5 H 0.2078 -0.1193 0.5196
H6 H 0.3058 -0.2524 0.4478
C3 C 0.2425(5) 0.0726(7) 0.3934(3)
H7 H 0.3280 0.0922 0.3544
C4 C 0.0626(5) 0.3548(7) 0.3990(3)
C5 C 0.0868(4) 0.0065(9) 0.3147(3)
H8 H 0.0396 -0.1304 0.3410
C6 C 0.1067(5) -0.0349(8) 0.2020(3)
H9 H 0.1506 0.1036 0.1763
H10 H 0.1824 -0.1607 0.2030
C7 C -0.0472(5) -0.0941(8) 0.1270(3)
C8 C -0.1231(5) 0.0627(8) 0.0526(3)
H11 H -0.0773 0.2083 0.0492
C9 C -0.2646(5) 0.0105(11) -0.0168(3)
H12 H -0.3146 0.1199 -0.0674
C10 C -0.3333(6) -0.1999(9) -0.0126(4)
H13 H -0.4308 -0.2360 -0.0597
C11 C -0.2577(6) -0.3580(8) 0.0615(4)
H14 H -0.3037 -0.5033 0.0653
C12 C -0.1161(5) -0.3054(8) 0.1297(4)
H15 H -0.0651 -0.4160 0.1792
loop_
_geom_bond_atom_site_label_1
_geom_bond_atom_site_label_2
_geom_bond_site_symmetry_1
_geom_bond_site_symmetry_2
S1 O1 1_555 1_555
O2 S1 1_555 1_555
O3 S1 1_555 1_555
O4 C3 1_555 1_555
O5 C4 1_555 1_555
N1 H1 1_555 1_555
C1 S1 1_555 1_555
H2 C1 1_555 1_555
H3 C1 1_555 1_555
H4 C1 1_555 1_555
C2 O3 1_555 1_555
H5 C2 1_555 1_555
H6 C2 1_555 1_555
C3 C2 1_555 1_555
H7 C3 1_555 1_555
C4 O4 1_555 1_555
C5 N1 1_555 1_555
H8 C5 1_555 1_555
C6 C5 1_555 1_555
H9 C6 1_555 1_555
H10 C6 1_555 1_555
C7 C6 1_555 1_555
C8 C7 1_555 1_555
H11 C8 1_555 1_555
C9 C8 1_555 1_555
H12 C9 1_555 1_555
C10 C9 1_555 1_555
H13 C10 1_555 1_555
C11 C10 1_555 1_555
H14 C11 1_555 1_555
C12 C7 1_555 1_555
H15 C12 1_555 1_555
N1 C4 1_555 1_555
C3 C5 1_555 1_555
C11 C12 1_555 1_555

#END
