
#######################################################################
#
#                 Cambridge Crystallographic Data Centre
#                                CCDC 
#
#######################################################################
#
# If this CIF has been generated from an entry in the Cambridge 
# Structural Database, then it will include bibliographic, chemical, 
# crystal, experimental, refinement or atomic coordinate data resulting 
# from the CCDC's data processing and validation procedures.
#
#######################################################################

data_DUMNIJ
_chemical_formula_moiety         'C14 H11 Br1 N2 O3 S1'
_chemical_name_systematic        
'5-Amino-7-(4-bromophenyl)-3,7-dihydro-2H-thieno[3,2-b]pyran-6-carbonitrile 1,1-dioxide'
_symmetry_cell_setting           monoclinic
_symmetry_space_group_name_H-M   'P 21/c'
_symmetry_Int_Tables_number      14
_space_group_name_Hall           '-P 2ybc'
loop_
_symmetry_equiv_pos_site_id
_symmetry_equiv_pos_as_xyz
1 x,y,z
2 -x,1/2+y,1/2-z
3 -x,-y,-z
4 x,1/2-y,1/2+z
_cell_length_a                   8.3743(18)
_cell_length_b                   14.003(3)
_cell_length_c                   12.673(3)
_cell_angle_alpha                90
_cell_angle_beta                 103.059(3)
_cell_angle_gamma                90
_cell_volume                     1447.67
_exptl_crystal_colour            colorless
_exptl_crystal_description       block
_cell_formula_units_Z            4
loop_
_atom_site_label
_atom_site_type_symbol
_atom_site_fract_x
_atom_site_fract_y
_atom_site_fract_z
Br1 Br 0.66967(3) 1.11722(2) 1.066878(18)
S1 S 0.65228(6) 0.83655(4) 0.56887(4)
O1 O 1.12195(16) 0.86398(10) 0.63555(11)
O2 O 0.56187(19) 0.87395(11) 0.46675(13)
O3 O 0.56402(17) 0.83246(11) 0.65464(12)
N1 N 1.1137(2) 1.20266(14) 0.67001(15)
N2 N 1.3147(2) 0.97623(16) 0.66289(15)
C1 C 1.1535(2) 0.95981(16) 0.64815(15)
C2 C 1.0334(2) 1.02597(15) 0.64622(15)
C3 C 0.8526(2) 1.00119(14) 0.63725(15)
H1 H 0.7842 1.0381 0.5758
C4 C 0.8376(2) 0.89711(14) 0.61035(16)
C5 C 0.9603(2) 0.83720(15) 0.61122(15)
C6 C 0.9284(2) 0.73518(15) 0.58117(16)
H2 H 0.9776 0.6932 0.6429
H3 H 0.9761 0.7185 0.5189
C7 C 0.7412(2) 0.72300(15) 0.55110(18)
H4 H 0.7068 0.6746 0.5984
H5 H 0.7050 0.7017 0.4750
C8 C 0.7996(2) 1.02716(15) 0.74159(15)
C9 C 0.7130(2) 1.11041(14) 0.74657(17)
H6 H 0.6812 1.1491 0.6838
C10 C 0.6716(3) 1.13834(17) 0.84266(17)
H7 H 0.6122 1.1957 0.8460
C11 C 0.7190(2) 1.08054(17) 0.93298(16)
C12 C 0.8041(3) 0.99677(16) 0.92947(16)
H8 H 0.8346 0.9579 0.9922
C13 C 0.8450(2) 0.96971(15) 0.83348(16)
H9 H 0.9037 0.9121 0.8304
C14 C 1.0788(3) 1.12338(16) 0.65907(16)
H10 H 1.349(3) 1.035(2) 0.655(2)
H11 H 1.382(3) 0.925(2) 0.659(2)
loop_
_geom_bond_atom_site_label_1
_geom_bond_atom_site_label_2
_geom_bond_site_symmetry_1
_geom_bond_site_symmetry_2
Br1 C11 1_555 1_555
S1 O2 1_555 1_555
O1 C1 1_555 1_555
O3 S1 1_555 1_555
N1 C14 1_555 1_555
N2 C1 1_555 1_555
C1 C2 1_555 1_555
C2 C3 1_555 1_555
C3 H1 1_555 1_555
C4 S1 1_555 1_555
C5 O1 1_555 1_555
C6 C5 1_555 1_555
H2 C6 1_555 1_555
H3 C6 1_555 1_555
C7 S1 1_555 1_555
H4 C7 1_555 1_555
H5 C7 1_555 1_555
C8 C3 1_555 1_555
C9 C8 1_555 1_555
H6 C9 1_555 1_555
C10 C9 1_555 1_555
H7 C10 1_555 1_555
C11 C10 1_555 1_555
C12 C11 1_555 1_555
H8 C12 1_555 1_555
C13 C8 1_555 1_555
H9 C13 1_555 1_555
C14 C2 1_555 1_555
H10 N2 1_555 1_555
H11 N2 1_555 1_555
C3 C4 1_555 1_555
C4 C5 1_555 1_555
C6 C7 1_555 1_555
C12 C13 1_555 1_555

#END
