
#######################################################################
#
#                 Cambridge Crystallographic Data Centre
#                                CCDC 
#
#######################################################################
#
# If this CIF has been generated from an entry in the Cambridge 
# Structural Database, then it will include bibliographic, chemical, 
# crystal, experimental, refinement or atomic coordinate data resulting 
# from the CCDC's data processing and validation procedures.
#
#######################################################################

data_DUMREK
_chemical_formula_moiety         'C26 H26 N2 O3'
_chemical_name_systematic        
'methyl 1,4-dibenzyl-6-oxo-3-phenylpiperazine-2-carboxylate'
_symmetry_cell_setting           monoclinic
_symmetry_space_group_name_H-M   'P 21'
_symmetry_Int_Tables_number      4
_space_group_name_Hall           'P 2yb'
loop_
_symmetry_equiv_pos_site_id
_symmetry_equiv_pos_as_xyz
1 x,y,z
2 -x,1/2+y,-z
_cell_length_a                   12.015(5)
_cell_length_b                   7.332(5)
_cell_length_c                   12.782(5)
_cell_angle_alpha                90
_cell_angle_beta                 100.325(5)
_cell_angle_gamma                90
_cell_volume                     1107.78
_exptl_crystal_colour            colorless
_exptl_crystal_description       rectangular
_cell_formula_units_Z            2
loop_
_atom_site_label
_atom_site_type_symbol
_atom_site_fract_x
_atom_site_fract_y
_atom_site_fract_z
O1 O 0.49519(14) 0.5627(2) 0.60265(14)
N1 N 0.33430(14) 0.4240(2) 0.69643(14)
N2 N 0.21864(14) 0.6721(2) 0.55934(13)
O2 O 0.48763(14) 0.8408(2) 0.67171(14)
O3 O 0.23033(16) 0.1922(2) 0.61370(14)
C1 C 0.25283(16) 0.7355(3) 0.66905(15)
H1 H 0.2795 0.8612 0.6654
C2 C 0.24884(18) 0.3561(3) 0.62455(16)
C3 C 0.1648(2) 0.6317(3) 0.82821(18)
H2 H 0.2233 0.5481 0.8468
C4 C 0.15632(18) 0.7959(3) 0.48136(16)
H3 H 0.1739 0.9207 0.5035
H4 H 0.0758 0.7774 0.4780
C5 C 0.16109(16) 0.7381(3) 0.73817(16)
C6 C 0.35652(16) 0.6190(3) 0.71211(15)
H5 H 0.3768 0.6413 0.7888
C7 C 0.27739(18) 0.6644(3) 0.35579(17)
H6 H 0.3232 0.6097 0.4137
C8 C 0.18517(17) 0.7663(3) 0.37159(16)
C9 C 0.17253(19) 0.4896(3) 0.55623(17)
H7 H 0.1591 0.4466 0.4833
H8 H 0.1002 0.4935 0.5799
C10 C 0.41385(19) 0.2984(3) 0.76164(17)
H9 H 0.4899 0.3472 0.7690
H10 H 0.4125 0.1818 0.7256
C11 C 0.3027(2) 0.6425(4) 0.25489(19)
H11 H 0.3646 0.5721 0.2456
C12 C 0.45383(17) 0.6872(3) 0.66020(16)
C13 C 0.38537(18) 0.2696(3) 0.87065(17)
C14 C 0.4471(2) 0.3531(3) 0.95921(19)
H12 H 0.5095 0.4242 0.9523
C15 C 0.1200(2) 0.8475(4) 0.28389(19)
H13 H 0.0578 0.9176 0.2925
C16 C 0.0723(2) 0.8602(3) 0.7129(2)
H14 H 0.0683 0.9342 0.6532
C17 C -0.0104(2) 0.8738(4) 0.7750(2)
H15 H -0.0701 0.9548 0.7559
C18 C 0.0823(2) 0.6482(4) 0.8910(2)
H16 H 0.0864 0.5767 0.9517
C19 C -0.0049(2) 0.7691(4) 0.8643(2)
H17 H -0.0601 0.7800 0.9065
C20 C 0.2374(2) 0.7233(4) 0.16940(19)
H18 H 0.2547 0.7088 0.1018
C21 C 0.1460(3) 0.8261(4) 0.1836(2)
H19 H 0.1013 0.8817 0.1254
C22 C 0.2944(2) 0.1615(4) 0.8832(2)
H20 H 0.2524 0.1029 0.8246
C23 C 0.5869(2) 0.6229(4) 0.5507(2)
H21 H 0.6109 0.5236 0.5112
H22 H 0.5611 0.7217 0.5032
H23 H 0.6492 0.6634 0.6034
C24 C 0.2656(3) 0.1402(4) 0.9825(2)
H24 H 0.2046 0.0667 0.9904
C25 C 0.3265(3) 0.2267(4) 1.0694(2)
H25 H 0.3062 0.2136 1.1358
C26 C 0.4174(3) 0.3323(4) 1.0578(2)
H26 H 0.4593 0.3904 1.1167
loop_
_geom_bond_atom_site_label_1
_geom_bond_atom_site_label_2
_geom_bond_site_symmetry_1
_geom_bond_site_symmetry_2
O1 C12 1_555 1_555
N1 C2 1_555 1_555
N2 C1 1_555 1_555
O2 C12 1_555 1_555
O3 C2 1_555 1_555
C1 H1 1_555 1_555
C2 C9 1_555 1_555
C3 H2 1_555 1_555
C4 N2 1_555 1_555
H3 C4 1_555 1_555
H4 C4 1_555 1_555
C5 C1 1_555 1_555
C6 N1 1_555 1_555
H5 C6 1_555 1_555
C7 H6 1_555 1_555
C8 C4 1_555 1_555
C9 N2 1_555 1_555
H7 C9 1_555 1_555
H8 C9 1_555 1_555
C10 N1 1_555 1_555
H9 C10 1_555 1_555
H10 C10 1_555 1_555
C11 C7 1_555 1_555
H11 C11 1_555 1_555
C12 C6 1_555 1_555
C13 C10 1_555 1_555
C14 C13 1_555 1_555
H12 C14 1_555 1_555
C15 C8 1_555 1_555
H13 C15 1_555 1_555
C16 C5 1_555 1_555
H14 C16 1_555 1_555
C17 C16 1_555 1_555
H15 C17 1_555 1_555
C18 C3 1_555 1_555
H16 C18 1_555 1_555
C19 C17 1_555 1_555
H17 C19 1_555 1_555
C20 C11 1_555 1_555
H18 C20 1_555 1_555
C21 C15 1_555 1_555
H19 C21 1_555 1_555
C22 C13 1_555 1_555
H20 C22 1_555 1_555
C23 O1 1_555 1_555
H21 C23 1_555 1_555
H22 C23 1_555 1_555
H23 C23 1_555 1_555
C24 C22 1_555 1_555
H24 C24 1_555 1_555
C25 C24 1_555 1_555
H25 C25 1_555 1_555
C26 C14 1_555 1_555
H26 C26 1_555 1_555
C1 C6 1_555 1_555
C3 C5 1_555 1_555
C7 C8 1_555 1_555
C18 C19 1_555 1_555
C20 C21 1_555 1_555
C25 C26 1_555 1_555

#END
