
#######################################################################
#
#                 Cambridge Crystallographic Data Centre
#                                CCDC 
#
#######################################################################
#
# If this CIF has been generated from an entry in the Cambridge 
# Structural Database, then it will include bibliographic, chemical, 
# crystal, experimental, refinement or atomic coordinate data resulting 
# from the CCDC's data processing and validation procedures.
#
#######################################################################

data_DUMRIN
_chemical_formula_moiety         'C15 H14 F2 O3 S1'
_chemical_name_systematic        
'2-(2,3-Difluorophenyl)ethyl 4-methylbenzenesulfonate'
_symmetry_cell_setting           triclinic
_symmetry_space_group_name_H-M   'P -1'
_symmetry_Int_Tables_number      2
_space_group_name_Hall           '-P 1'
loop_
_symmetry_equiv_pos_site_id
_symmetry_equiv_pos_as_xyz
1 x,y,z
2 -x,-y,-z
_cell_length_a                   7.487(12)
_cell_length_b                   8.386(14)
_cell_length_c                   12.69(2)
_cell_angle_alpha                91.67(3)
_cell_angle_beta                 96.51(3)
_cell_angle_gamma                105.65(3)
_cell_volume                     760.783
_exptl_crystal_colour            colorless
_exptl_crystal_description       block
_cell_formula_units_Z            2
_exptl_crystal_recrystallization_method methanol
loop_
_atom_site_label
_atom_site_type_symbol
_atom_site_fract_x
_atom_site_fract_y
_atom_site_fract_z
S1 S 1.10764(8) 0.91567(7) 0.72239(5)
F1 F 0.7545(3) 0.2961(2) 1.01476(15)
F2 F 0.8697(2) 0.6359(2) 1.04849(14)
O1 O 1.3018(3) 0.9177(3) 0.75887(18)
O2 O 1.0724(3) 1.0423(2) 0.65329(16)
O3 O 1.0172(2) 0.9271(2) 0.83135(14)
C1 C 0.5485(4) 0.3112(3) 0.8590(2)
H1 H 0.5108 0.1962 0.8487
C2 C 0.6824(4) 0.3906(3) 0.9445(2)
C3 C 0.7407(3) 0.5666(3) 0.96112(19)
C4 C 0.6655(3) 0.6682(3) 0.8921(2)
C5 C 0.5301(4) 0.5870(3) 0.8060(2)
H2 H 0.4780 0.6508 0.7597
C6 C 0.4721(4) 0.4123(4) 0.7884(2)
H3 H 0.3841 0.3633 0.7308
C7 C 0.7222(4) 0.8606(3) 0.9135(2)
H4 H 0.8020 0.8899 0.9808
H5 H 0.6105 0.8961 0.9195
C8 C 0.8273(4) 0.9564(3) 0.8242(2)
H6 H 0.7579 0.9164 0.7549
H7 H 0.8392 1.0741 0.8340
C9 C 0.9802(3) 0.7116(3) 0.66443(19)
C10 C 1.0027(4) 0.5709(3) 0.7179(2)
H8 H 1.0835 0.5837 0.7808
C11 C 0.9002(4) 0.4104(3) 0.6741(2)
H9 H 0.9161 0.3180 0.7086
C12 C 0.7747(3) 0.3873(3) 0.5795(2)
C13 C 0.7558(4) 0.5309(3) 0.5248(2)
H10 H 0.6763 0.5179 0.4614
C14 C 0.8594(4) 0.6939(3) 0.5678(2)
H11 H 0.8475 0.7870 0.5327
C15 C 0.6567(5) 0.2110(4) 0.5350(3)
H12 H 0.7362 0.1383 0.5346
H13 H 0.6007 0.2168 0.4638
H14 H 0.5605 0.1691 0.5791
loop_
_geom_bond_atom_site_label_1
_geom_bond_atom_site_label_2
_geom_bond_site_symmetry_1
_geom_bond_site_symmetry_2
S1 O1 1_555 1_555
F1 C2 1_555 1_555
F2 C3 1_555 1_555
O2 S1 1_555 1_555
O3 S1 1_555 1_555
C1 H1 1_555 1_555
C2 C1 1_555 1_555
C3 C2 1_555 1_555
C4 C3 1_555 1_555
C5 C4 1_555 1_555
H2 C5 1_555 1_555
C6 C1 1_555 1_555
H3 C6 1_555 1_555
C7 C4 1_555 1_555
H4 C7 1_555 1_555
H5 C7 1_555 1_555
C8 O3 1_555 1_555
H6 C8 1_555 1_555
H7 C8 1_555 1_555
C9 S1 1_555 1_555
C10 C9 1_555 1_555
H8 C10 1_555 1_555
C11 C10 1_555 1_555
H9 C11 1_555 1_555
C12 C11 1_555 1_555
C13 C12 1_555 1_555
H10 C13 1_555 1_555
C14 C9 1_555 1_555
H11 C14 1_555 1_555
C15 C12 1_555 1_555
H12 C15 1_555 1_555
H13 C15 1_555 1_555
H14 C15 1_555 1_555
C5 C6 1_555 1_555
C7 C8 1_555 1_555
C13 C14 1_555 1_555

#END
