
#######################################################################
#
#                 Cambridge Crystallographic Data Centre
#                                CCDC 
#
#######################################################################
#
# If this CIF has been generated from an entry in the Cambridge 
# Structural Database, then it will include bibliographic, chemical, 
# crystal, experimental, refinement or atomic coordinate data resulting 
# from the CCDC's data processing and validation procedures.
#
#######################################################################

data_DUMREJ
_chemical_formula_moiety         'C14 H11 Cl1 N2 O3 S1'
_chemical_name_systematic        
'5-Amino-7-(3-chlorophenyl)-3,7-dihydro-2H-thieno[3,2-b]pyran-6-carbonitrile 1,1-dioxide'
_symmetry_cell_setting           monoclinic
_symmetry_space_group_name_H-M   'P 21/c'
_symmetry_Int_Tables_number      14
_space_group_name_Hall           '-P 2ybc'
loop_
_symmetry_equiv_pos_site_id
_symmetry_equiv_pos_as_xyz
1 x,y,z
2 -x,1/2+y,1/2-z
3 -x,-y,-z
4 x,1/2-y,1/2+z
_cell_length_a                   9.5802(19)
_cell_length_b                   17.364(4)
_cell_length_c                   8.2521(17)
_cell_angle_alpha                90
_cell_angle_beta                 97.83(3)
_cell_angle_gamma                90
_cell_volume                     1359.94
_exptl_crystal_colour            colorless
_exptl_crystal_description       block
_cell_formula_units_Z            4
loop_
_atom_site_label
_atom_site_type_symbol
_atom_site_fract_x
_atom_site_fract_y
_atom_site_fract_z
S1 S -0.01194(8) 0.13574(4) 0.99300(11)
Cl1 Cl 0.69314(8) 0.15345(5) 1.25118(11)
O1 O -0.0062(2) 0.07472(12) 1.1133(3)
O2 O 0.0250(2) 0.21172(12) 1.0529(3)
O3 O 0.0422(2) 0.09320(11) 0.5466(3)
N1 N 0.2045(3) 0.05206(14) 0.3987(3)
H1 H 0.2884 0.0361 0.3817
H2 H 0.1367 0.0569 0.3159
N2 N 0.5321(3) 0.03147(15) 0.6812(4)
C1 C -0.1785(3) 0.13702(17) 0.8638(4)
H3 H -0.2326 0.0898 0.8802
H4 H -0.2346 0.1822 0.8892
C2 C -0.1464(3) 0.14131(16) 0.6882(4)
H5 H -0.2124 0.1085 0.6155
H6 H -0.1545 0.1950 0.6474
C3 C 0.0022(3) 0.11258(17) 0.6944(4)
C4 C 0.1798(3) 0.06909(16) 0.5505(4)
C5 C 0.2722(3) 0.06488(17) 0.6910(4)
C6 C 0.2351(3) 0.08436(16) 0.8608(4)
H7 H 0.2458 0.0370 0.9305
C7 C 0.0834(3) 0.10851(16) 0.8370(4)
C8 C 0.4147(3) 0.04538(16) 0.6824(4)
C9 C 0.3344(3) 0.14675(16) 0.9401(4)
C10 C 0.4501(3) 0.12565(18) 1.0523(4)
H8 H 0.4640 0.0733 1.0839
C11 C 0.5450(3) 0.18159(19) 1.1175(4)
C12 C 0.5249(3) 0.25793(18) 1.0762(4)
H9 H 0.5893 0.2960 1.1233
C13 C 0.4088(3) 0.27859(18) 0.9644(4)
H10 H 0.3941 0.3312 0.9351
C14 C 0.3145(3) 0.22355(17) 0.8953(4)
H11 H 0.2365 0.2382 0.8177
loop_
_geom_bond_atom_site_label_1
_geom_bond_atom_site_label_2
_geom_bond_site_symmetry_1
_geom_bond_site_symmetry_2
S1 O1 1_555 1_555
Cl1 C11 1_555 1_555
O2 S1 1_555 1_555
O3 C3 1_555 1_555
N1 H1 1_555 1_555
H2 N1 1_555 1_555
N2 C8 1_555 1_555
C1 S1 1_555 1_555
H3 C1 1_555 1_555
H4 C1 1_555 1_555
C2 C1 1_555 1_555
H5 C2 1_555 1_555
H6 C2 1_555 1_555
C3 C2 1_555 1_555
C4 O3 1_555 1_555
C5 C4 1_555 1_555
C6 C5 1_555 1_555
H7 C6 1_555 1_555
C7 S1 1_555 1_555
C8 C5 1_555 1_555
C9 C6 1_555 1_555
C10 C9 1_555 1_555
H8 C10 1_555 1_555
C11 C10 1_555 1_555
C12 C11 1_555 1_555
H9 C12 1_555 1_555
C13 C12 1_555 1_555
H10 C13 1_555 1_555
C14 C9 1_555 1_555
H11 C14 1_555 1_555
N1 C4 1_555 1_555
C3 C7 1_555 1_555
C6 C7 1_555 1_555
C13 C14 1_555 1_555

#END
