
#######################################################################
#
#                 Cambridge Crystallographic Data Centre
#                                CCDC 
#
#######################################################################
#
# If this CIF has been generated from an entry in the Cambridge 
# Structural Database, then it will include bibliographic, chemical, 
# crystal, experimental, refinement or atomic coordinate data resulting 
# from the CCDC's data processing and validation procedures.
#
#######################################################################

data_DUMTAI
_chemical_formula_moiety         'C19 H17 F1 N2 O2'
_chemical_name_systematic        
3-(3,4-dimethoxyphenyl)-4-(4-fluorophenyl)-6-methylpyridazine
_symmetry_cell_setting           monoclinic
_symmetry_space_group_name_H-M   'P 21/c'
_symmetry_Int_Tables_number      14
_space_group_name_Hall           '-P 2ybc'
loop_
_symmetry_equiv_pos_site_id
_symmetry_equiv_pos_as_xyz
1 x,y,z
2 -x,1/2+y,1/2-z
3 -x,-y,-z
4 x,1/2-y,1/2+z
_cell_length_a                   15.8783(8)
_cell_length_b                   9.1753(5)
_cell_length_c                   11.1547(6)
_cell_angle_alpha                90
_cell_angle_beta                 96.573(3)
_cell_angle_gamma                90
_cell_volume                     1614.43
_exptl_crystal_colour            colorless
_cell_formula_units_Z            4
loop_
_atom_site_label
_atom_site_type_symbol
_atom_site_fract_x
_atom_site_fract_y
_atom_site_fract_z
C1 C 0.51971(11) 0.8884(3) -0.19627(17)
H1 H 0.5130 0.7865 -0.1729
H2 H 0.4871 0.9061 -0.2750
H3 H 0.4989 0.9525 -0.1357
C2 C 0.66086(10) 0.90601(17) -0.09958(14)
C3 C 0.63773(10) 0.86767(18) 0.01217(14)
H4 H 0.5803 0.8451 0.0205
C4 C 0.69886(10) 0.86214(18) 0.11272(14)
H5 H 0.6826 0.8366 0.1893
C5 C 0.78285(10) 0.89365(17) 0.10155(13)
C6 C 0.85123(10) 0.87709(17) 0.20335(13)
C7 C 0.84445(10) 0.91899(17) 0.32405(14)
C8 C 0.77340(10) 1.00622(17) 0.36197(13)
C9 C 0.74304(10) 1.12940(18) 0.29750(14)
H6 H 0.7662 1.1553 0.2256
C10 C 0.67960(10) 1.21428(18) 0.33695(14)
H7 H 0.6591 1.2984 0.2933
C11 C 0.64701(10) 1.17364(19) 0.44091(15)
C12 C 0.73861(10) 0.97001(18) 0.46720(14)
H8 H 0.7592 0.8869 0.5121
C13 C 0.67441(11) 1.05290(19) 0.50773(14)
H9 H 0.6503 1.0273 0.5789
C14 C 0.91077(10) 0.87614(17) 0.40763(14)
H10 H 0.9089 0.8962 0.4909
C15 C 0.98020(10) 0.80381(18) 0.37034(14)
C16 C 0.84545(10) 1.02887(19) -0.23697(14)
H11 H 0.8565 1.1133 -0.1837
H12 H 0.8487 1.0585 -0.3207
H13 H 0.8878 0.9532 -0.2143
C17 C 0.80591(10) 0.93119(17) -0.01215(14)
H14 H 0.8635 0.9525 -0.0206
C18 C 1.05129(10) 0.7474(2) 0.45807(15)
H15 H 1.0964 0.7095 0.4138
H16 H 1.0302 0.6692 0.5065
H17 H 1.0737 0.8267 0.5113
C19 C 0.74606(10) 0.93754(17) -0.11188(13)
F1 F 0.58365(6) 1.25563(12) 0.47898(9)
N1 N 0.98651(8) 0.77861(15) 0.25374(12)
N2 N 0.92107(8) 0.81378(15) 0.17123(11)
O1 O 0.60686(7) 0.91791(13) -0.20383(10)
O2 O 0.76296(7) 0.97299(13) -0.22566(9)
loop_
_geom_bond_atom_site_label_1
_geom_bond_atom_site_label_2
_geom_bond_site_symmetry_1
_geom_bond_site_symmetry_2
C1 H1 1_555 1_555
H2 C1 1_555 1_555
H3 C1 1_555 1_555
C2 C3 1_555 1_555
C3 H4 1_555 1_555
C4 C3 1_555 1_555
H5 C4 1_555 1_555
C5 C4 1_555 1_555
C6 C5 1_555 1_555
C7 C6 1_555 1_555
C8 C7 1_555 1_555
C9 C8 1_555 1_555
H6 C9 1_555 1_555
C10 C9 1_555 1_555
H7 C10 1_555 1_555
C11 C10 1_555 1_555
C12 C8 1_555 1_555
H8 C12 1_555 1_555
C13 C11 1_555 1_555
H9 C13 1_555 1_555
C14 C7 1_555 1_555
H10 C14 1_555 1_555
C15 C14 1_555 1_555
C16 H11 1_555 1_555
H12 C16 1_555 1_555
H13 C16 1_555 1_555
C17 C5 1_555 1_555
H14 C17 1_555 1_555
C18 C15 1_555 1_555
H15 C18 1_555 1_555
H16 C18 1_555 1_555
H17 C18 1_555 1_555
C19 C2 1_555 1_555
F1 C11 1_555 1_555
N1 C15 1_555 1_555
N2 C6 1_555 1_555
O1 C1 1_555 1_555
O2 C16 1_555 1_555
C2 O1 1_555 1_555
C12 C13 1_555 1_555
C17 C19 1_555 1_555
C19 O2 1_555 1_555
N1 N2 1_555 1_555

#END
