
#######################################################################
#
#                 Cambridge Crystallographic Data Centre
#                                CCDC 
#
#######################################################################
#
# If this CIF has been generated from an entry in the Cambridge 
# Structural Database, then it will include bibliographic, chemical, 
# crystal, experimental, refinement or atomic coordinate data resulting 
# from the CCDC's data processing and validation procedures.
#
#######################################################################

data_DUMWOY
_chemical_formula_moiety         'C17 H14 N2 O1'
_chemical_name_systematic        
1-[(Z)-(5-Methyl-2-pyridyl)iminiomethyl]-2-naphtholate
_symmetry_cell_setting           monoclinic
_symmetry_space_group_name_H-M   'P 21'
_symmetry_Int_Tables_number      4
_space_group_name_Hall           'P 2yb'
loop_
_symmetry_equiv_pos_site_id
_symmetry_equiv_pos_as_xyz
1 x,y,z
2 -x,1/2+y,-z
_cell_length_a                   4.8703(2)
_cell_length_b                   9.5525(5)
_cell_length_c                   14.0804(6)
_cell_angle_alpha                90
_cell_angle_beta                 98.353(2)
_cell_angle_gamma                90
_cell_volume                     648.121
_exptl_crystal_colour            yellow
_exptl_crystal_description       needle
_cell_formula_units_Z            2
_exptl_crystal_recrystallization_method ethanol
loop_
_atom_site_label
_atom_site_type_symbol
_atom_site_fract_x
_atom_site_fract_y
_atom_site_fract_z
C1 C -0.5458(5) -0.0508(3) 0.8827(2)
H1 H -0.6558 -0.0735 0.8224
H2 H -0.6646 -0.0178 0.9266
H3 H -0.4484 -0.1328 0.9086
C2 C -0.3401(5) 0.0616(2) 0.86752(16)
C3 C -0.2411(5) 0.1558(3) 0.93834(17)
H4 H -0.3011 0.1508 0.9980
C4 C -0.0533(5) 0.2576(3) 0.92116(16)
H5 H 0.0127 0.3223 0.9683
C5 C 0.0341(4) 0.2610(2) 0.83229(15)
C6 C -0.2414(5) 0.0762(3) 0.78108(16)
H6 H -0.3082 0.0143 0.7322
C7 C 0.3255(4) 0.3752(2) 0.73144(15)
H7 H 0.2584 0.3151 0.6815
C8 C 0.5254(4) 0.4749(2) 0.71574(15)
C9 C 0.6227(4) 0.4846(2) 0.62325(15)
C10 C 0.5226(5) 0.3996(3) 0.54463(16)
H8 H 0.3905 0.3315 0.5518
C11 C 0.6141(5) 0.4140(3) 0.45734(16)
H9 H 0.5423 0.3566 0.4064
C12 C 0.8133(5) 0.5138(3) 0.44477(17)
H10 H 0.8743 0.5238 0.3855
C13 C 0.9182(5) 0.5968(3) 0.51987(18)
H11 H 1.0539 0.6623 0.5116
C14 C 0.8257(4) 0.5857(2) 0.60997(16)
C15 C 0.9323(5) 0.6740(3) 0.68904(18)
H12 H 1.0677 0.7395 0.6804
C16 C 0.8457(5) 0.6663(3) 0.77458(18)
H13 H 0.9224 0.7259 0.8236
C17 C 0.6352(5) 0.5673(2) 0.79247(16)
N1 N -0.0571(4) 0.1724(2) 0.76194(13)
N2 N 0.2284(4) 0.3625(2) 0.81358(13)
H14 H 0.2877 0.4203 0.8588
O1 O 0.5562(4) 0.5643(2) 0.87507(11)
loop_
_geom_bond_atom_site_label_1
_geom_bond_atom_site_label_2
_geom_bond_site_symmetry_1
_geom_bond_site_symmetry_2
C1 H1 1_555 1_555
H2 C1 1_555 1_555
H3 C1 1_555 1_555
C2 C1 1_555 1_555
C3 C2 1_555 1_555
H4 C3 1_555 1_555
C4 C3 1_555 1_555
H5 C4 1_555 1_555
C5 C4 1_555 1_555
C6 C2 1_555 1_555
H6 C6 1_555 1_555
C7 H7 1_555 1_555
C8 C7 1_555 1_555
C9 C8 1_555 1_555
C10 C9 1_555 1_555
H8 C10 1_555 1_555
C11 C10 1_555 1_555
H9 C11 1_555 1_555
C12 C11 1_555 1_555
H10 C12 1_555 1_555
C13 C12 1_555 1_555
H11 C13 1_555 1_555
C14 C9 1_555 1_555
C15 C14 1_555 1_555
H12 C15 1_555 1_555
C16 C15 1_555 1_555
H13 C16 1_555 1_555
C17 C8 1_555 1_555
N1 C5 1_555 1_555
N2 C5 1_555 1_555
H14 N2 1_555 1_555
O1 C17 1_555 1_555
C6 N1 1_555 1_555
C7 N2 1_555 1_555
C13 C14 1_555 1_555
C16 C17 1_555 1_555

#END
