
#######################################################################
#
#                 Cambridge Crystallographic Data Centre
#                                CCDC 
#
#######################################################################
#
# If this CIF has been generated from an entry in the Cambridge 
# Structural Database, then it will include bibliographic, chemical, 
# crystal, experimental, refinement or atomic coordinate data resulting 
# from the CCDC's data processing and validation procedures.
#
#######################################################################

data_DUMYUG
_chemical_formula_moiety         'C26 H16 F1 N3 O3'
_chemical_name_systematic        
(E)-3-(9-Anthryl)-1-(4-fluorophenyl)-2-(4-nitro-1H-imidazol-1-yl)prop-2-en-1-one
_symmetry_cell_setting           triclinic
_symmetry_space_group_name_H-M   'P -1'
_symmetry_Int_Tables_number      2
_space_group_name_Hall           '-P 1'
loop_
_symmetry_equiv_pos_site_id
_symmetry_equiv_pos_as_xyz
1 x,y,z
2 -x,-y,-z
_cell_length_a                   9.3362(6)
_cell_length_b                   10.9587(6)
_cell_length_c                   11.6018(5)
_cell_angle_alpha                70.371(5)
_cell_angle_beta                 88.062(4)
_cell_angle_gamma                66.781(6)
_cell_volume                     1020.78
_exptl_crystal_colour            yellow
_exptl_crystal_description       block
_cell_formula_units_Z            2
_exptl_crystal_recrystallization_method dichloromethane
loop_
_atom_site_label
_atom_site_type_symbol
_atom_site_fract_x
_atom_site_fract_y
_atom_site_fract_z
F1 F 0.40315(10) 0.15681(10) 1.18206(7)
O1 O 0.12744(13) -0.02448(11) 0.81580(8)
N1 N 0.19905(12) 0.08673(11) 0.58002(8)
C1 C 0.10394(14) 0.30540(13) 0.61663(11)
H1 H 0.1064 0.3481 0.5309
C2 C 0.16584(14) 0.07397(13) 0.79428(10)
C3 C 0.33391(14) 0.16396(13) 0.87665(11)
H2 H 0.3671 0.1929 0.7975
C4 C 0.04204(14) 0.40033(13) 0.68792(10)
C5 C -0.08868(15) 0.40198(13) 0.75307(10)
C6 C 0.22475(14) 0.10459(12) 0.89378(10)
C7 C 0.11980(15) 0.48598(13) 0.69277(11)
C8 C 0.39456(15) 0.18126(13) 0.97408(12)
H3 H 0.4704 0.2207 0.9636
N2 N 0.18404(14) 0.02358(13) 0.41956(9)
C9 C 0.17599(15) 0.06337(14) 1.01033(10)
H4 H 0.1023 0.0216 1.0226
C10 C 0.07161(15) 0.56901(13) 0.77072(11)
C11 C 0.15658(14) 0.16506(13) 0.66238(10)
C12 C 0.32395(15) -0.05927(13) 0.49025(10)
O2 O 0.56329(12) -0.24366(12) 0.53163(10)
C13 C 0.25072(16) 0.48911(14) 0.62676(12)
H5 H 0.2838 0.4365 0.5731
C14 C -0.13552(15) 0.48673(14) 0.83035(11)
C15 C 0.23331(16) 0.08250(15) 1.10757(11)
H6 H 0.1986 0.0568 1.1866
C16 C 0.34228(15) 0.13994(14) 1.08624(11)
O3 O 0.41958(15) -0.18717(12) 0.36400(9)
C17 C -0.05363(16) 0.56575(14) 0.83786(12)
H7 H -0.0842 0.6195 0.8907
C18 C -0.17915(15) 0.32560(14) 0.74550(12)
H8 H -0.1529 0.2715 0.6929
C19 C -0.26464(17) 0.48480(16) 0.89925(13)
H9 H -0.2949 0.5386 0.9521
C20 C 0.15633(17) 0.64982(15) 0.77975(12)
H10 H 0.1242 0.7063 0.8303
C21 C 0.32888(18) 0.56622(15) 0.63942(13)
H11 H 0.4165 0.5659 0.5953
C22 C -0.30200(17) 0.32892(16) 0.81208(13)
H12 H -0.3604 0.2770 0.8057
C23 C 0.28170(19) 0.64686(16) 0.71722(13)
H13 H 0.3384 0.6994 0.7257
C24 C -0.34423(18) 0.40905(17) 0.89124(14)
H14 H -0.4292 0.4089 0.9387
N3 N 0.44252(15) -0.17030(13) 0.45944(10)
C25 C 0.33644(15) -0.02437(13) 0.58946(11)
H15 H 0.4225 -0.0681 0.6519
C26 C 0.11069(16) 0.11104(15) 0.47696(11)
H16 H 0.0077 0.1832 0.4500
loop_
_geom_bond_atom_site_label_1
_geom_bond_atom_site_label_2
_geom_bond_site_symmetry_1
_geom_bond_site_symmetry_2
F1 C16 1_555 1_555
O1 C2 1_555 1_555
N1 C11 1_555 1_555
C1 H1 1_555 1_555
C2 C6 1_555 1_555
C3 H2 1_555 1_555
C4 C1 1_555 1_555
C5 C4 1_555 1_555
C6 C3 1_555 1_555
C7 C4 1_555 1_555
C8 C3 1_555 1_555
H3 C8 1_555 1_555
N2 C12 1_555 1_555
C9 C6 1_555 1_555
H4 C9 1_555 1_555
C10 C7 1_555 1_555
C11 C1 1_555 1_555
C12 N3 1_555 1_555
O2 N3 1_555 1_555
C13 C7 1_555 1_555
H5 C13 1_555 1_555
C14 C5 1_555 1_555
C15 C9 1_555 1_555
H6 C15 1_555 1_555
C16 C8 1_555 1_555
O3 N3 1_555 1_555
C17 C10 1_555 1_555
H7 C17 1_555 1_555
C18 C5 1_555 1_555
H8 C18 1_555 1_555
C19 C14 1_555 1_555
H9 C19 1_555 1_555
C20 C10 1_555 1_555
H10 C20 1_555 1_555
C21 C13 1_555 1_555
H11 C21 1_555 1_555
C22 C18 1_555 1_555
H12 C22 1_555 1_555
C23 C20 1_555 1_555
H13 C23 1_555 1_555
C24 C19 1_555 1_555
H14 C24 1_555 1_555
C25 N1 1_555 1_555
H15 C25 1_555 1_555
C26 N1 1_555 1_555
H16 C26 1_555 1_555
C2 C11 1_555 1_555
N2 C26 1_555 1_555
C12 C25 1_555 1_555
C14 C17 1_555 1_555
C15 C16 1_555 1_555
C21 C23 1_555 1_555
C22 C24 1_555 1_555

#END
