
#######################################################################
#
#                 Cambridge Crystallographic Data Centre
#                                CCDC 
#
#######################################################################
#
# If this CIF has been generated from an entry in the Cambridge 
# Structural Database, then it will include bibliographic, chemical, 
# crystal, experimental, refinement or atomic coordinate data resulting 
# from the CCDC's data processing and validation procedures.
#
#######################################################################

data_DUMYIV
_chemical_formula_moiety         'C16 H13 N5 O2'
_chemical_name_systematic        
'4-amino-3-((4-(1H-1,2,4-triazol-1-yl)benzylidene)amino)benzoic acid'
_symmetry_cell_setting           monoclinic
_symmetry_space_group_name_H-M   'P 21/n'
_symmetry_Int_Tables_number      14
_space_group_name_Hall           '-P 2yn'
loop_
_symmetry_equiv_pos_site_id
_symmetry_equiv_pos_as_xyz
1 x,y,z
2 1/2-x,1/2+y,1/2-z
3 -x,-y,-z
4 1/2+x,1/2-y,1/2+z
_cell_length_a                   4.7568(4)
_cell_length_b                   11.4390(10)
_cell_length_c                   26.641(2)
_cell_angle_alpha                90
_cell_angle_beta                 91.168(2)
_cell_angle_gamma                90
_cell_volume                     1449.32
_exptl_crystal_colour            golden
_exptl_crystal_description       needle
_cell_formula_units_Z            4
loop_
_atom_site_label
_atom_site_type_symbol
_atom_site_fract_x
_atom_site_fract_y
_atom_site_fract_z
O1 O 0.8309(3) 0.50139(12) 0.15718(5)
O2 O 0.5537(3) 0.56994(13) 0.09522(5)
H1 H 0.6362 0.5099 0.0775
N1 N 0.0279(3) 0.91637(14) 0.16972(5)
N2 N 0.2624(4) 0.94222(15) 0.26229(6)
H2 H 0.3710 0.9688 0.2885
H3 H 0.1214 0.9883 0.2479
N3 N -0.8949(3) 1.24171(14) 0.05535(6)
N4 N -1.0157(4) 1.23073(17) 0.00835(6)
N5 N -1.1730(4) 1.39318(16) 0.04705(6)
C1 C 0.5420(4) 0.66611(16) 0.17366(6)
C2 C 0.3276(4) 0.74039(16) 0.15628(7)
H4 H 0.2459 0.7274 0.1239
C3 C 0.2312(4) 0.83245(16) 0.18501(7)
C4 C 0.3556(4) 0.85270(17) 0.23343(7)
C5 C 0.5699(4) 0.77716(17) 0.25078(7)
H5 H 0.6532 0.7895 0.2831
C6 C 0.6603(4) 0.68605(17) 0.22178(7)
H6 H 0.8044 0.6358 0.2343
C7 C 0.6545(4) 0.57167(17) 0.14234(7)
C8 C -0.1256(4) 0.90042(17) 0.13030(7)
H7 H -0.1076 0.8296 0.1120
C9 C -0.3292(4) 0.98886(16) 0.11256(7)
C10 C -0.3581(4) 1.09652(18) 0.13662(7)
H8 H -0.2492 1.1126 0.1661
C11 C -0.5428(4) 1.17979(19) 0.11815(7)
H9 H -0.5594 1.2532 0.1345
C12 C -0.7049(4) 1.15511(17) 0.07517(7)
C13 C -0.6858(4) 1.04798(17) 0.05155(7)
H10 H -0.8003 1.0310 0.0228
C14 C -0.4972(4) 0.96550(17) 0.07030(7)
H11 H -0.4824 0.8919 0.0541
C15 C -1.1768(5) 1.3247(2) 0.00573(8)
H12 H -1.2880 1.3428 -0.0233
C16 C -0.9902(5) 1.33837(18) 0.07708(7)
H13 H -0.9349 1.3645 0.1096
loop_
_geom_bond_atom_site_label_1
_geom_bond_atom_site_label_2
_geom_bond_site_symmetry_1
_geom_bond_site_symmetry_2
O1 C7 1_555 1_555
O2 H1 1_555 1_555
N1 C3 1_555 1_555
N2 H2 1_555 1_555
H3 N2 1_555 1_555
N3 N4 1_555 1_555
N4 C15 1_555 1_555
N5 C15 1_555 1_555
C1 C2 1_555 1_555
C2 H4 1_555 1_555
C3 C2 1_555 1_555
C4 N2 1_555 1_555
C5 C4 1_555 1_555
H5 C5 1_555 1_555
C6 C1 1_555 1_555
H6 C6 1_555 1_555
C7 O2 1_555 1_555
C8 N1 1_555 1_555
H7 C8 1_555 1_555
C9 C8 1_555 1_555
C10 C9 1_555 1_555
H8 C10 1_555 1_555
C11 C10 1_555 1_555
H9 C11 1_555 1_555
C12 N3 1_555 1_555
C13 C12 1_555 1_555
H10 C13 1_555 1_555
C14 C9 1_555 1_555
H11 C14 1_555 1_555
C15 H12 1_555 1_555
C16 N3 1_555 1_555
H13 C16 1_555 1_555
N5 C16 1_555 1_555
C1 C7 1_555 1_555
C3 C4 1_555 1_555
C5 C6 1_555 1_555
C11 C12 1_555 1_555
C13 C14 1_555 1_555

#END
