
#######################################################################
#
#                 Cambridge Crystallographic Data Centre
#                                CCDC 
#
#######################################################################
#
# If this CIF has been generated from an entry in the Cambridge 
# Structural Database, then it will include bibliographic, chemical, 
# crystal, experimental, refinement or atomic coordinate data resulting 
# from the CCDC's data processing and validation procedures.
#
#######################################################################

data_DUNFOJ
_chemical_name_common            
'tetrabenzotetraaza[8]circulene dioxane solvate'
_chemical_formula_moiety         'C40 H20 N4,3(C4 H8 O2)'
_chemical_name_systematic        
'5,10,15,20-tetrahydro-5,10,15,20-tetraazatetracyclopenta[fgh,pqr,za~1~b~1~,j~1~k~1~l~1~]tetranaphthylene 1,4-dioxane solvate'
_symmetry_cell_setting           triclinic
_symmetry_space_group_name_H-M   'P -1'
_symmetry_Int_Tables_number      2
_space_group_name_Hall           '-P 1'
loop_
_symmetry_equiv_pos_site_id
_symmetry_equiv_pos_as_xyz
1 x,y,z
2 -x,-y,-z
_cell_length_a                   5.8784(5)
_cell_length_b                   12.1223(7)
_cell_length_c                   15.0057(8)
_cell_angle_alpha                111.388(11)
_cell_angle_beta                 97.023(19)
_cell_angle_gamma                98.68(3)
_cell_volume                     965.825
_exptl_crystal_colour            colorless
_exptl_crystal_description       prism
_cell_formula_units_Z            1
_exptl_crystal_recrystallization_method 'dioxane/ hexane'
_exptl_crystal_preparation       Luminescent
loop_
_atom_site_label
_atom_site_type_symbol
_atom_site_fract_x
_atom_site_fract_y
_atom_site_fract_z
C1 C -0.2383(2) 0.11282(10) 0.29427(9)
H1 H -0.2525 0.0608 0.2279
C2 C -0.3859(2) 0.19228(11) 0.31941(10)
H2 H -0.4991 0.1959 0.2702
C3 C -0.3705(2) 0.26776(11) 0.41705(10)
H3 H -0.4722 0.3229 0.4338
C4 C -0.2089(2) 0.26239(11) 0.48865(9)
H4 H -0.2025 0.3127 0.5549
C5 C -0.0517(2) 0.18329(10) 0.46550(9)
C6 C -0.0657(2) 0.10762(10) 0.36596(9)
C7 C 0.0968(2) 0.02868(10) 0.34492(9)
C8 C 0.26476(19) 0.02127(10) 0.41557(9)
C9 C 0.3910(2) -0.06673(10) 0.36503(9)
C10 C 0.2959(2) -0.10787(10) 0.26591(9)
N1 N 0.11744(17) -0.04940(8) 0.25441(7)
H5 H 0.0311 -0.0602 0.1985
C11 C 0.1194(2) 0.17400(10) 0.53710(9)
C12 C 0.2773(2) 0.09677(10) 0.51545(9)
C13 C 0.4185(2) 0.11486(10) 0.60607(9)
C14 C 0.3358(2) 0.20001(10) 0.67961(9)
N2 N 0.15622(17) 0.23596(8) 0.63645(7)
H6 H 0.0780 0.2898 0.6674
C15 C 0.4222(2) 0.23739(10) 0.78089(9)
C16 C 0.6168(2) 0.19147(10) 0.80988(9)
C17 C 0.7087(2) 0.22963(11) 0.90987(9)
H7 H 0.8406 0.2016 0.9298
C18 C 0.6107(2) 0.30685(11) 0.97936(9)
H8 H 0.6755 0.3319 1.0466
C19 C 0.4151(2) 0.34879(11) 0.95112(9)
H9 H 0.3455 0.4005 0.9993
C20 C 0.3244(2) 0.31532(10) 0.85427(9)
H10 H 0.1933 0.3451 0.8361
C1A C 1.2383(2) -0.11282(10) 0.70573(9)
H1A H 1.2525 -0.0608 0.7721
C2A C 1.3859(2) -0.19228(11) 0.68059(10)
H2A H 1.4991 -0.1959 0.7298
C3A C 1.3705(2) -0.26776(11) 0.58295(10)
H3A H 1.4722 -0.3229 0.5662
C4A C 1.2089(2) -0.26239(11) 0.51135(9)
H4A H 1.2025 -0.3127 0.4451
C5A C 1.0517(2) -0.18329(10) 0.53450(9)
C6A C 1.0657(2) -0.10762(10) 0.63404(9)
C7A C 0.9032(2) -0.02868(10) 0.65508(9)
C8A C 0.73524(19) -0.02127(10) 0.58443(9)
C9A C 0.6090(2) 0.06673(10) 0.63497(9)
C10A C 0.7041(2) 0.10787(10) 0.73409(9)
N1A N 0.88256(17) 0.04940(8) 0.74559(7)
H5A H 0.9689 0.0602 0.8015
C11A C 0.8806(2) -0.17400(10) 0.46290(9)
C12A C 0.7227(2) -0.09677(10) 0.48455(9)
C13A C 0.5815(2) -0.11486(10) 0.39393(9)
C14A C 0.6642(2) -0.20001(10) 0.32039(9)
N2A N 0.84378(17) -0.23596(8) 0.36355(7)
H6A H 0.9220 -0.2898 0.3326
C15A C 0.5778(2) -0.23739(10) 0.21911(9)
C16A C 0.3832(2) -0.19147(10) 0.19012(9)
C17A C 0.2913(2) -0.22963(11) 0.09013(9)
H7A H 0.1594 -0.2016 0.0702
C18A C 0.3893(2) -0.30685(11) 0.02064(9)
H8A H 0.3245 -0.3319 -0.0466
C19A C 0.5849(2) -0.34879(11) 0.04888(9)
H9A H 0.6545 -0.4005 0.0007
C20A C 0.6756(2) -0.31532(10) 0.14573(9)
H10A H 0.8067 -0.3451 0.1639
O1 O 0.00518(15) 0.53438(8) 0.25949(7)
C21 C -0.0563(2) 0.43719(12) 0.29075(11)
H11 H -0.1505 0.3652 0.2348
H12 H -0.1534 0.4614 0.3412
C22 C 0.1596(2) 0.40497(12) 0.33175(10)
H13 H 0.2461 0.4744 0.3915
H14 H 0.1125 0.3351 0.3497
O2 O 0.30867(16) 0.37504(8) 0.26208(7)
C23 C 0.3723(2) 0.47474(12) 0.23441(11)
H15 H 0.4762 0.4541 0.1863
H16 H 0.4594 0.5465 0.2924
C24 C 0.1571(2) 0.50415(11) 0.19080(10)
H17 H 0.2035 0.5732 0.1719
H18 H 0.0732 0.4335 0.1314
O3 O 0.89653(16) -0.02774(8) 0.07126(6)
C25 C 1.0169(2) 0.09249(12) 0.09060(10)
H19 H 1.0894 0.1340 0.1607
H20 H 0.9038 0.1388 0.0752
C26 C 0.7967(2) -0.08934(13) -0.03024(10)
H21 H 0.6783 -0.0474 -0.0486
H22 H 0.7167 -0.1732 -0.0434
O3A O 1.10347(16) 0.02774(8) -0.07126(6)
C25A C 0.9831(2) -0.09249(12) -0.09060(10)
H19A H 0.9106 -0.1340 -0.1607
H20A H 1.0962 -0.1388 -0.0752
C26A C 1.2033(2) 0.08934(13) 0.03024(10)
H21A H 1.3217 0.0474 0.0486
H22A H 1.2833 0.1732 0.0434
loop_
_geom_bond_atom_site_label_1
_geom_bond_atom_site_label_2
_geom_bond_site_symmetry_1
_geom_bond_site_symmetry_2
C1 H1 1_555 1_555
C2 C1 1_555 1_555
H2 C2 1_555 1_555
C3 C2 1_555 1_555
H3 C3 1_555 1_555
C4 C3 1_555 1_555
H4 C4 1_555 1_555
C5 C4 1_555 1_555
C6 C1 1_555 1_555
C7 C6 1_555 1_555
C8 C7 1_555 1_555
C9 C8 1_555 1_555
C10 C9 1_555 1_555
N1 C7 1_555 1_555
H5 N1 1_555 1_555
C11 C5 1_555 1_555
C12 C8 1_555 1_555
C13 C12 1_555 1_555
C14 C13 1_555 1_555
N2 C11 1_555 1_555
H6 N2 1_555 1_555
C15 C14 1_555 1_555
C16 C15 1_555 1_555
C17 C16 1_555 1_555
H7 C17 1_555 1_555
C18 C17 1_555 1_555
H8 C18 1_555 1_555
C19 C18 1_555 1_555
H9 C19 1_555 1_555
C20 C15 1_555 1_555
H10 C20 1_555 1_555
O1 C21 1_555 1_555
C21 H11 1_555 1_555
H12 C21 1_555 1_555
C22 C21 1_555 1_555
H13 C22 1_555 1_555
H14 C22 1_555 1_555
O2 C22 1_555 1_555
C23 O2 1_555 1_555
H15 C23 1_555 1_555
H16 C23 1_555 1_555
C24 O1 1_555 1_555
H17 C24 1_555 1_555
H18 C24 1_555 1_555
O3 C25 1_555 1_555
C25 H19 1_555 1_555
H20 C25 1_555 1_555
C26 O3 1_555 1_555
H21 C26 1_555 1_555
H22 C26 1_555 1_555
C1A H1A 1_555 1_555
C2A C1A 1_555 1_555
H2A C2A 1_555 1_555
C3A C2A 1_555 1_555
H3A C3A 1_555 1_555
C4A C3A 1_555 1_555
H4A C4A 1_555 1_555
C5A C4A 1_555 1_555
C6A C1A 1_555 1_555
C7A C6A 1_555 1_555
C8A C7A 1_555 1_555
C9A C13 1_555 1_555
C10A C16 1_555 1_555
N1A C7A 1_555 1_555
H5A N1A 1_555 1_555
C11A C5A 1_555 1_555
C12A C8A 1_555 1_555
C13A C9 1_555 1_555
C14A C13A 1_555 1_555
N2A C11A 1_555 1_555
H6A N2A 1_555 1_555
C15A C14A 1_555 1_555
C16A C10 1_555 1_555
C17A C16A 1_555 1_555
H7A C17A 1_555 1_555
C18A C17A 1_555 1_555
H8A C18A 1_555 1_555
C19A C18A 1_555 1_555
H9A C19A 1_555 1_555
C20A C15A 1_555 1_555
H10A C20A 1_555 1_555
O3A C25A 1_555 1_555
C25A C26 1_555 1_555
H19A C25A 1_555 1_555
H20A C25A 1_555 1_555
C26A C25 1_555 1_555
H21A C26A 1_555 1_555
H22A C26A 1_555 1_555
C5 C6 1_555 1_555
C10 N1 1_555 1_555
C11 C12 1_555 1_555
C14 N2 1_555 1_555
C19 C20 1_555 1_555
C23 C24 1_555 1_555
C5A C6A 1_555 1_555
C8A C9A 1_555 1_555
C9A C10A 1_555 1_555
C10A N1A 1_555 1_555
C11A C12A 1_555 1_555
C12A C13A 1_555 1_555
C14A N2A 1_555 1_555
C15A C16A 1_555 1_555
C19A C20A 1_555 1_555
O3A C26A 1_555 1_555

#END
