
#######################################################################
#
#                 Cambridge Crystallographic Data Centre
#                                CCDC 
#
#######################################################################
#
# If this CIF has been generated from an entry in the Cambridge 
# Structural Database, then it will include bibliographic, chemical, 
# crystal, experimental, refinement or atomic coordinate data resulting 
# from the CCDC's data processing and validation procedures.
#
#######################################################################

data_DUNFID
_chemical_name_common            
'tetrabenzotetraaza[8]circulene acetone solvate'
_chemical_formula_moiety         'C40 H20 N4,4(C3 H6 O1)'
_chemical_name_systematic        
'5,10,15,20-tetrahydro-5,10,15,20-tetraazatetracyclopenta[fgh,pqr,za~1~b~1~,j~1~k~1~l~1~]tetranaphthylene acetone solvate'
_symmetry_cell_setting           triclinic
_symmetry_space_group_name_H-M   'P -1'
_symmetry_Int_Tables_number      2
_space_group_name_Hall           '-P 1'
loop_
_symmetry_equiv_pos_site_id
_symmetry_equiv_pos_as_xyz
1 x,y,z
2 -x,-y,-z
_cell_length_a                   7.987(2)
_cell_length_b                   9.881(3)
_cell_length_c                   12.618(4)
_cell_angle_alpha                100.199(10)
_cell_angle_beta                 96.100(12)
_cell_angle_gamma                91.180(9)
_cell_volume                     973.732
_exptl_crystal_colour            colorless
_exptl_crystal_description       prism
_cell_formula_units_Z            1
_exptl_crystal_recrystallization_method tetrahydrofuran/acetone/hexane
_exptl_crystal_preparation       Luminescent
loop_
_atom_site_label
_atom_site_type_symbol
_atom_site_fract_x
_atom_site_fract_y
_atom_site_fract_z
C1 C 0.4814(2) -0.26188(17) 0.86076(13)
H1 H 0.4285 -0.1991 0.9117
C2 C 0.5373(2) -0.38249(17) 0.88769(13)
H2 H 0.5229 -0.4030 0.9570
C3 C 0.6156(2) -0.47589(17) 0.81376(13)
H3 H 0.6544 -0.5593 0.8333
C4 C 0.6366(2) -0.44800(17) 0.71319(13)
H4 H 0.6892 -0.5125 0.6635
C5 C 0.58066(19) -0.32432(16) 0.68291(12)
C6 C 0.50135(19) -0.22962(16) 0.75839(12)
C7 C 0.45075(18) -0.10202(16) 0.72756(12)
C8 C 0.47667(19) -0.06538(16) 0.62845(12)
C9 C 0.55629(19) -0.16138(16) 0.55185(12)
C10 C 0.60359(19) -0.28679(16) 0.58066(12)
C11 C 0.34927(18) 0.10797(16) 0.72951(12)
C12 C 0.41157(18) 0.06910(16) 0.62977(12)
C13 C 0.39776(19) 0.16320(16) 0.55470(12)
C14 C 0.32424(18) 0.28855(16) 0.58608(12)
C15 C 0.25844(19) 0.32990(16) 0.68766(12)
C16 C 0.27314(19) 0.23688(16) 0.76255(12)
C17 C 0.2128(2) 0.27528(17) 0.86369(12)
H5 H 0.2239 0.2150 0.9147
C18 C 0.1380(2) 0.39902(18) 0.88975(13)
H6 H 0.0988 0.4241 0.9588
C19 C 0.1193(2) 0.48817(17) 0.81507(13)
H7 H 0.0648 0.5724 0.8329
C20 C 0.1790(2) 0.45473(17) 0.71665(13)
H8 H 0.1666 0.5167 0.6670
N1 N 0.37387(16) 0.00315(13) 0.78786(10)
H9 H 0.3449 0.0036 0.8533
N2 N 0.32490(16) 0.36254(13) 0.50334(10)
H10 H 0.2857 0.4453 0.5043
C1A C 0.5186(2) 0.26188(17) 0.13924(13)
H1A H 0.5715 0.1991 0.0883
C2A C 0.4627(2) 0.38249(17) 0.11231(13)
H2A H 0.4771 0.4030 0.0430
C3A C 0.3844(2) 0.47589(17) 0.18624(13)
H3A H 0.3456 0.5593 0.1667
C4A C 0.3634(2) 0.44800(17) 0.28681(13)
H4A H 0.3108 0.5125 0.3365
C5A C 0.41934(19) 0.32432(16) 0.31709(12)
C6A C 0.49865(19) 0.22962(16) 0.24161(12)
C7A C 0.54925(18) 0.10202(16) 0.27244(12)
C8A C 0.52333(19) 0.06538(16) 0.37155(12)
C9A C 0.44371(19) 0.16138(16) 0.44815(12)
C10A C 0.39641(19) 0.28679(16) 0.41934(12)
C11A C 0.65073(18) -0.10797(16) 0.27049(12)
C12A C 0.58843(18) -0.06910(16) 0.37023(12)
C13A C 0.60224(19) -0.16320(16) 0.44530(12)
C14A C 0.67576(18) -0.28855(16) 0.41392(12)
C15A C 0.74156(19) -0.32990(16) 0.31234(12)
C16A C 0.72686(19) -0.23688(16) 0.23745(12)
C17A C 0.7872(2) -0.27528(17) 0.13631(12)
H5A H 0.7761 -0.2150 0.0853
C18A C 0.8620(2) -0.39902(18) 0.11025(13)
H6A H 0.9012 -0.4241 0.0412
C19A C 0.8807(2) -0.48817(17) 0.18493(13)
H7A H 0.9352 -0.5724 0.1671
C20A C 0.8210(2) -0.45473(17) 0.28335(13)
H8A H 0.8334 -0.5167 0.3330
N1A N 0.62613(16) -0.00315(13) 0.21214(10)
H9A H 0.6551 -0.0036 0.1467
N2A N 0.67510(16) -0.36254(13) 0.49666(10)
H10A H 0.7143 -0.4453 0.4957
C21 C 0.2432(3) -0.1663(2) 1.11780(17)
H11 H 0.2890 -0.2261 1.0581
H12 H 0.1387 -0.2088 1.1332
H13 H 0.3255 -0.1533 1.1825
C22 C 0.2069(2) -0.0284(2) 1.08631(13)
C23 C 0.1177(3) 0.0685(2) 1.16198(16)
H14 H 0.1147 0.1582 1.1390
H15 H 0.1770 0.0788 1.2352
H16 H 0.0023 0.0327 1.1618
O1 O 0.24906(16) -0.00162(13) 1.00252(9)
C24 C 0.1472(2) 0.8198(2) 0.40979(15)
H17 H 0.2120 0.7652 0.3570
H18 H 0.2063 0.9089 0.4380
H19 H 0.0354 0.8345 0.3745
C25 C 0.1287(2) 0.74459(17) 0.50124(13)
C26 C 0.0467(2) 0.8183(2) 0.59430(15)
H20 H 0.0426 0.7596 0.6491
H21 H -0.0681 0.8401 0.5689
H22 H 0.1117 0.9037 0.6262
O2 O 0.17767(16) 0.62919(12) 0.49949(10)
loop_
_geom_bond_atom_site_label_1
_geom_bond_atom_site_label_2
_geom_bond_site_symmetry_1
_geom_bond_site_symmetry_2
C1 H1 1_555 1_555
C2 C1 1_555 1_555
H2 C2 1_555 1_555
C3 C2 1_555 1_555
H3 C3 1_555 1_555
C4 C3 1_555 1_555
H4 C4 1_555 1_555
C5 C4 1_555 1_555
C6 C1 1_555 1_555
C7 C6 1_555 1_555
C8 C7 1_555 1_555
C9 C8 1_555 1_555
C10 C5 1_555 1_555
C11 C12 1_555 1_555
C12 C8 1_555 1_555
C13 C12 1_555 1_555
C14 C13 1_555 1_555
C15 C14 1_555 1_555
C16 C11 1_555 1_555
C17 C16 1_555 1_555
H5 C17 1_555 1_555
C18 C17 1_555 1_555
H6 C18 1_555 1_555
C19 C18 1_555 1_555
H7 C19 1_555 1_555
C20 C15 1_555 1_555
H8 C20 1_555 1_555
N1 C7 1_555 1_555
H9 N1 1_555 1_555
N2 C14 1_555 1_555
H10 N2 1_555 1_555
C21 H11 1_555 1_555
H12 C21 1_555 1_555
H13 C21 1_555 1_555
C22 C21 1_555 1_555
C23 C22 1_555 1_555
H14 C23 1_555 1_555
H15 C23 1_555 1_555
H16 C23 1_555 1_555
O1 C22 1_555 1_555
C24 H17 1_555 1_555
H18 C24 1_555 1_555
H19 C24 1_555 1_555
C25 C24 1_555 1_555
C26 C25 1_555 1_555
H20 C26 1_555 1_555
H21 C26 1_555 1_555
H22 C26 1_555 1_555
O2 C25 1_555 1_555
C1A H1A 1_555 1_555
C2A C1A 1_555 1_555
H2A C2A 1_555 1_555
C3A C2A 1_555 1_555
H3A C3A 1_555 1_555
C4A C3A 1_555 1_555
H4A C4A 1_555 1_555
C5A C4A 1_555 1_555
C6A C1A 1_555 1_555
C7A C6A 1_555 1_555
C8A C7A 1_555 1_555
C9A C13 1_555 1_555
C10A N2 1_555 1_555
C11A C12A 1_555 1_555
C12A C8A 1_555 1_555
C13A C9 1_555 1_555
C14A C13A 1_555 1_555
C15A C14A 1_555 1_555
C16A C11A 1_555 1_555
C17A C16A 1_555 1_555
H5A C17A 1_555 1_555
C18A C17A 1_555 1_555
H6A C18A 1_555 1_555
C19A C18A 1_555 1_555
H7A C19A 1_555 1_555
C20A C15A 1_555 1_555
H8A C20A 1_555 1_555
N1A C7A 1_555 1_555
H9A N1A 1_555 1_555
N2A C10 1_555 1_555
H10A N2A 1_555 1_555
C5 C6 1_555 1_555
C9 C10 1_555 1_555
C11 N1 1_555 1_555
C15 C16 1_555 1_555
C19 C20 1_555 1_555
C5A C6A 1_555 1_555
C5A C10A 1_555 1_555
C8A C9A 1_555 1_555
C9A C10A 1_555 1_555
C11A N1A 1_555 1_555
C12A C13A 1_555 1_555
C14A N2A 1_555 1_555
C15A C16A 1_555 1_555
C19A C20A 1_555 1_555

#END
