
#######################################################################
#
#                 Cambridge Crystallographic Data Centre
#                                CCDC 
#
#######################################################################
#
# If this CIF has been generated from an entry in the Cambridge 
# Structural Database, then it will include bibliographic, chemical, 
# crystal, experimental, refinement or atomic coordinate data resulting 
# from the CCDC's data processing and validation procedures.
#
#######################################################################

data_DUNGEZ
_chemical_formula_moiety         'C14 H10 O1 S1'
_chemical_name_systematic        Dibenzo[b,e]thiepin-11(6H)-one
_symmetry_cell_setting           orthorhombic
_symmetry_space_group_name_H-M   'P n a 21'
_symmetry_Int_Tables_number      33
_space_group_name_Hall           'P 2c -2n'
loop_
_symmetry_equiv_pos_site_id
_symmetry_equiv_pos_as_xyz
1 x,y,z
2 -x,-y,1/2+z
3 1/2+x,1/2-y,z
4 1/2-x,1/2+y,1/2+z
_cell_length_a                   14.6208(11)
_cell_length_b                   4.3503(3)
_cell_length_c                   16.9023(13)
_cell_angle_alpha                90
_cell_angle_beta                 90
_cell_angle_gamma                90
_cell_volume                     1075.07
_exptl_crystal_colour            colorless
_exptl_crystal_description       plate
_chemical_melting_point          '347-349 K'
_cell_formula_units_Z            4
_exptl_crystal_recrystallization_method methanol
loop_
_atom_site_label
_atom_site_type_symbol
_atom_site_fract_x
_atom_site_fract_y
_atom_site_fract_z
S1 S 0.52142(4) -0.06772(16) 0.24929(6)
O1 O 0.78147(17) -0.0883(7) 0.09651(19)
C1 C 0.7100(2) 0.0006(8) 0.1263(2)
C2 C 0.7074(2) 0.0905(7) 0.2121(2)
C3 C 0.7902(2) 0.2143(7) 0.2405(2)
H1 H 0.8423 0.2129 0.2070
C4 C 0.7980(2) 0.3374(9) 0.3154(2)
H2 H 0.8543 0.4237 0.3326
C5 C 0.7227(2) 0.3339(9) 0.3654(2)
H3 H 0.7276 0.4167 0.4173
C6 C 0.6408(2) 0.2104(7) 0.3401(2)
H4 H 0.5897 0.2100 0.3748
C7 C 0.6316(2) 0.0853(6) 0.26388(19)
C8 C 0.5289(2) -0.2607(8) 0.1555(2)
H5 H 0.5805 -0.4078 0.1569
H6 H 0.4720 -0.3796 0.1466
C9 C 0.5423(2) -0.0449(7) 0.0884(2)
C10 C 0.4704(2) 0.0389(8) 0.0388(2)
H7 H 0.4110 -0.0416 0.0480
C11 C 0.4848(3) 0.2376(9) -0.0235(2)
H8 H 0.4350 0.2961 -0.0563
C12 C 0.5718(3) 0.3529(8) -0.0386(2)
H9 H 0.5814 0.4879 -0.0820
C13 C 0.6447(2) 0.2706(8) 0.0099(2)
H10 H 0.7043 0.3476 -0.0006
C14 C 0.6299(2) 0.0741(7) 0.0741(2)
loop_
_geom_bond_atom_site_label_1
_geom_bond_atom_site_label_2
_geom_bond_site_symmetry_1
_geom_bond_site_symmetry_2
S1 C7 1_555 1_555
O1 C1 1_555 1_555
C1 C2 1_555 1_555
C2 C3 1_555 1_555
C3 H1 1_555 1_555
C4 C3 1_555 1_555
H2 C4 1_555 1_555
C5 C4 1_555 1_555
H3 C5 1_555 1_555
C6 C5 1_555 1_555
H4 C6 1_555 1_555
C7 C2 1_555 1_555
C8 S1 1_555 1_555
H5 C8 1_555 1_555
H6 C8 1_555 1_555
C9 C8 1_555 1_555
C10 C9 1_555 1_555
H7 C10 1_555 1_555
C11 C10 1_555 1_555
H8 C11 1_555 1_555
C12 C11 1_555 1_555
H9 C12 1_555 1_555
C13 C12 1_555 1_555
H10 C13 1_555 1_555
C14 C1 1_555 1_555
C6 C7 1_555 1_555
C9 C14 1_555 1_555
C13 C14 1_555 1_555

#END
