
#######################################################################
#
#                 Cambridge Crystallographic Data Centre
#                                CCDC 
#
#######################################################################
#
# If this CIF has been generated from an entry in the Cambridge 
# Structural Database, then it will include bibliographic, chemical, 
# crystal, experimental, refinement or atomic coordinate data resulting 
# from the CCDC's data processing and validation procedures.
#
#######################################################################

data_DUNGEA
_chemical_formula_moiety         'C40 H28 N4'
_chemical_name_systematic        
41,42,43,44-tetraazanonacyclo[36.2.1.1^8,11^.1^18,21^.1^28,31^.0^2,7^.0^12,17^.0^22,27^.0^32,37^]tetratetraconta-1(40),2,4,6,8,10,12,14,16,18,20,22,24,26,28,30,32,34,36,38-icosaene
_symmetry_cell_setting           trigonal
_symmetry_space_group_name_H-M   'P 31 2 1'
_symmetry_Int_Tables_number      152
_space_group_name_Hall           'P 31 2"'
loop_
_symmetry_equiv_pos_site_id
_symmetry_equiv_pos_as_xyz
1 x,y,z
2 -y,x-y,1/3+z
3 -x+y,-x,2/3+z
4 x-y,-y,2/3-z
5 -x,-x+y,1/3-z
6 y,x,-z
_cell_length_a                   13.4965(16)
_cell_length_b                   13.4965(16)
_cell_length_c                   27.587(4)
_cell_angle_alpha                90
_cell_angle_beta                 90
_cell_angle_gamma                120
_cell_volume                     4351.89
_exptl_crystal_colour            colorless
_exptl_crystal_description       prism
_cell_formula_units_Z            6
_exptl_crystal_recrystallization_method 'dichloromethane/ hexane'
_exptl_crystal_preparation       Luminescent
loop_
_atom_site_label
_atom_site_type_symbol
_atom_site_fract_x
_atom_site_fract_y
_atom_site_fract_z
C1 C 0.81561(13) 0.54708(12) 0.25452(5)
C2 C 0.92940(13) 0.61413(13) 0.23909(5)
H1 H 0.9758 0.5798 0.2364
C3 C 0.97600(13) 0.72836(13) 0.22772(6)
H2 H 1.0534 0.7721 0.2176
C4 C 0.90846(14) 0.77840(13) 0.23133(6)
H3 H 0.9394 0.8569 0.2234
C5 C 0.79598(14) 0.71443(13) 0.24649(6)
H4 H 0.7509 0.7502 0.2488
C6 C 0.74661(13) 0.59823(12) 0.25855(5)
C7 C 0.62533(13) 0.53973(12) 0.27305(5)
C8 C 0.56437(14) 0.58382(13) 0.29538(5)
H5 H 0.5953 0.6593 0.3077
C9 C 0.44906(13) 0.49839(13) 0.29683(5)
H6 H 0.3884 0.5061 0.3102
C10 C 0.43848(13) 0.40073(13) 0.27542(5)
N1 N 0.54725(10) 0.42873(10) 0.26117(4)
H7 H 0.5644 0.3815 0.2464
C11 C 0.33653(13) 0.28681(13) 0.27134(5)
C12 C 0.24548(14) 0.26365(14) 0.30270(5)
H8 H 0.2519 0.3230 0.3233
C13 C 0.14751(14) 0.15871(15) 0.30482(6)
H9 H 0.0865 0.1472 0.3256
C14 C 0.13836(14) 0.06992(15) 0.27654(6)
H10 H 0.0732 -0.0044 0.2792
C15 C 0.22482(13) 0.09052(14) 0.24449(6)
H11 H 0.2179 0.0293 0.2250
C16 C 0.32247(13) 0.19829(13) 0.23967(5)
C17 C 0.39997(12) 0.21018(12) 0.19961(5)
C18 C 0.41970(12) 0.12890(12) 0.17862(5)
H12 H 0.3876 0.0516 0.1888
C19 C 0.49565(12) 0.18020(12) 0.13958(5)
H13 H 0.5237 0.1435 0.1189
C20 C 0.52227(12) 0.29272(12) 0.13662(5)
N2 N 0.46148(10) 0.30843(10) 0.17292(4)
H14 H 0.4620 0.3729 0.1783
C21 C 0.59434(12) 0.38823(12) 0.10362(5)
C22 C 0.54904(13) 0.45604(13) 0.08785(5)
H15 H 0.4744 0.4371 0.0981
C23 C 0.60928(14) 0.54972(13) 0.05789(5)
H16 H 0.5769 0.5951 0.0483
C24 C 0.71716(13) 0.57658(13) 0.04204(5)
H17 H 0.7591 0.6399 0.0210
C25 C 0.76336(12) 0.51064(12) 0.05697(5)
H18 H 0.8374 0.5298 0.0457
C26 C 0.70530(12) 0.41615(12) 0.08814(5)
C27 C 0.76746(12) 0.35611(12) 0.10173(5)
C28 C 0.86041(12) 0.35962(13) 0.07892(5)
H19 H 0.8954 0.3995 0.0498
C29 C 0.89397(12) 0.29362(13) 0.10641(5)
H20 H 0.9554 0.2808 0.0989
C30 C 0.82264(12) 0.25063(12) 0.14611(5)
N3 N 0.74676(10) 0.29025(10) 0.14249(4)
H21 H 0.6921 0.2753 0.1636
C31 C 0.81908(12) 0.17137(12) 0.18377(5)
C32 C 0.84585(14) 0.08861(13) 0.16866(6)
H22 H 0.8663 0.0880 0.1358
C33 C 0.84351(16) 0.00820(15) 0.19989(6)
H23 H 0.8622 -0.0469 0.1884
C34 C 0.81410(17) 0.00727(14) 0.24790(6)
H24 H 0.8108 -0.0492 0.2694
C35 C 0.78953(14) 0.08916(13) 0.26424(6)
H25 H 0.7709 0.0893 0.2974
C36 C 0.79132(12) 0.17217(12) 0.23313(6)
C37 C 0.76641(12) 0.25651(12) 0.25523(5)
C38 C 0.69589(12) 0.24541(12) 0.29339(5)
H26 H 0.6519 0.1783 0.3121
C39 C 0.70060(12) 0.35110(13) 0.29973(5)
H27 H 0.6601 0.3679 0.3234
C40 C 0.77437(12) 0.42596(12) 0.26546(5)
N4 N 0.81495(10) 0.36722(9) 0.23949(4)
H28 H 0.8654 0.3967 0.2159
loop_
_geom_bond_atom_site_label_1
_geom_bond_atom_site_label_2
_geom_bond_site_symmetry_1
_geom_bond_site_symmetry_2
C1 C2 1_555 1_555
C2 H1 1_555 1_555
C3 C2 1_555 1_555
H2 C3 1_555 1_555
C4 C3 1_555 1_555
H3 C4 1_555 1_555
C5 C4 1_555 1_555
H4 C5 1_555 1_555
C6 C1 1_555 1_555
C7 C6 1_555 1_555
C8 C7 1_555 1_555
H5 C8 1_555 1_555
C9 C8 1_555 1_555
H6 C9 1_555 1_555
C10 C9 1_555 1_555
N1 C7 1_555 1_555
H7 N1 1_555 1_555
C11 C10 1_555 1_555
C12 C11 1_555 1_555
H8 C12 1_555 1_555
C13 C12 1_555 1_555
H9 C13 1_555 1_555
C14 C13 1_555 1_555
H10 C14 1_555 1_555
C15 C14 1_555 1_555
H11 C15 1_555 1_555
C16 C11 1_555 1_555
C17 C16 1_555 1_555
C18 C17 1_555 1_555
H12 C18 1_555 1_555
C19 C18 1_555 1_555
H13 C19 1_555 1_555
C20 C19 1_555 1_555
N2 C17 1_555 1_555
H14 N2 1_555 1_555
C21 C20 1_555 1_555
C22 C21 1_555 1_555
H15 C22 1_555 1_555
C23 C22 1_555 1_555
H16 C23 1_555 1_555
C24 C23 1_555 1_555
H17 C24 1_555 1_555
C25 C24 1_555 1_555
H18 C25 1_555 1_555
C26 C21 1_555 1_555
C27 C26 1_555 1_555
C28 C27 1_555 1_555
H19 C28 1_555 1_555
C29 C28 1_555 1_555
H20 C29 1_555 1_555
C30 C29 1_555 1_555
N3 C27 1_555 1_555
H21 N3 1_555 1_555
C31 C30 1_555 1_555
C32 C31 1_555 1_555
H22 C32 1_555 1_555
C33 C32 1_555 1_555
H23 C33 1_555 1_555
C34 C33 1_555 1_555
H24 C34 1_555 1_555
C35 C34 1_555 1_555
H25 C35 1_555 1_555
C36 C31 1_555 1_555
C37 C36 1_555 1_555
C38 C37 1_555 1_555
H26 C38 1_555 1_555
C39 C38 1_555 1_555
H27 C39 1_555 1_555
C40 C1 1_555 1_555
N4 C37 1_555 1_555
H28 N4 1_555 1_555
C5 C6 1_555 1_555
C10 N1 1_555 1_555
C15 C16 1_555 1_555
C20 N2 1_555 1_555
C25 C26 1_555 1_555
C30 N3 1_555 1_555
C35 C36 1_555 1_555
C39 C40 1_555 1_555
C40 N4 1_555 1_555

#END
