
#######################################################################
#
#                 Cambridge Crystallographic Data Centre
#                                CCDC 
#
#######################################################################
#
# If this CIF has been generated from an entry in the Cambridge 
# Structural Database, then it will include bibliographic, chemical, 
# crystal, experimental, refinement or atomic coordinate data resulting 
# from the CCDC's data processing and validation procedures.
#
#######################################################################

data_DUNGOJ
_chemical_formula_moiety         'C16 H15 N5'
_chemical_name_systematic        
N-(5-Amino-2-methylphenyl)-4-(3-pyridyl)pyrimidin-2-amine
_symmetry_cell_setting           triclinic
_symmetry_space_group_name_H-M   'P -1'
_symmetry_Int_Tables_number      2
_space_group_name_Hall           '-P 1'
loop_
_symmetry_equiv_pos_site_id
_symmetry_equiv_pos_as_xyz
1 x,y,z
2 -x,-y,-z
_cell_length_a                   9.2242(3)
_cell_length_b                   12.5399(4)
_cell_length_c                   12.8594(4)
_cell_angle_alpha                72.719(3)
_cell_angle_beta                 89.724(3)
_cell_angle_gamma                77.712(3)
_cell_volume                     1385.05
_exptl_crystal_colour            yellow-orange
_exptl_crystal_description       prism
_chemical_melting_point          '398-401 K'
_cell_formula_units_Z            4
_exptl_crystal_recrystallization_method 'methanol/ethyl acetate'
loop_
_atom_site_label
_atom_site_type_symbol
_atom_site_fract_x
_atom_site_fract_y
_atom_site_fract_z
N1 N 0.45135(18) 1.19152(15) 0.78047(14)
H1 H 0.4813 1.2472 0.7965
H2 H 0.4989 1.1200 0.8104
N2 N 0.09164(16) 1.06549(11) 0.59640(10)
H3 H 0.0731 1.0718 0.5275
N3 N 0.00963(15) 0.89841(12) 0.63377(10)
N4 N 0.09680(14) 0.95804(11) 0.77803(10)
N5 N 0.22563(16) 0.91112(13) 1.09733(11)
C1 C 0.14467(17) 1.15507(13) 0.61884(11)
C2 C 0.27421(17) 1.12989(14) 0.68428(12)
H4 H 0.3267 1.0525 0.7136
C3 C 0.32847(18) 1.21663(15) 0.70762(13)
C4 C 0.2529(2) 1.33008(14) 0.66004(13)
H5 H 0.2900 1.3908 0.6720
C5 C 0.1243(2) 1.35351(14) 0.59555(13)
H6 H 0.0740 1.4312 0.5644
C6 C 0.06427(18) 1.26855(14) 0.57380(11)
C7 C -0.0847(2) 1.29936(16) 0.51227(14)
H7 H -0.1031 1.2322 0.4949
H8 H -0.0852 1.3614 0.4445
H9 H -0.1627 1.3245 0.5573
C8 C 0.06709(16) 0.97057(13) 0.67282(11)
C9 C -0.02004(18) 0.80801(14) 0.70933(13)
H10 H -0.0606 0.7550 0.6856
C10 C 0.00484(18) 0.78733(14) 0.81973(12)
H11 H -0.0175 0.7222 0.8717
C11 C 0.06433(15) 0.86674(13) 0.85112(12)
C12 C 0.09418(16) 0.85691(13) 0.96677(11)
C13 C 0.02152(18) 0.79443(15) 1.05046(13)
H12 H -0.0485 0.7548 1.0347
C14 C 0.05232(19) 0.79062(15) 1.15671(13)
H13 H 0.0043 0.7484 1.2152
C15 C 0.15462(19) 0.84969(15) 1.17594(13)
H14 H 0.1758 0.8465 1.2492
C16 C 0.19464(18) 0.91374(14) 0.99509(12)
H15 H 0.2441 0.9570 0.9383
N6 N 0.6390(2) 0.87330(16) 0.93581(14)
H16 H 0.7029 0.9169 0.9334
H17 H 0.6078 0.8380 0.9988
N7 N 0.35671(16) 0.69036(13) 0.74824(11)
H18 H 0.3241 0.6949 0.6825
N8 N 0.23997(18) 0.54289(14) 0.79199(12)
N9 N 0.33110(14) 0.60433(12) 0.93401(11)
N10 N 0.40511(18) 0.59479(14) 1.25219(12)
C17 C 0.44747(17) 0.76724(14) 0.74862(13)
C18 C 0.49205(18) 0.78610(14) 0.84372(13)
H19 H 0.4574 0.7484 0.9115
C19 C 0.58759(18) 0.86016(15) 0.84028(15)
C20 C 0.63588(18) 0.91542(15) 0.73977(15)
H20 H 0.7005 0.9661 0.7357
C21 C 0.58953(19) 0.89634(15) 0.64595(15)
H21 H 0.6238 0.9347 0.5783
C22 C 0.49516(18) 0.82354(15) 0.64661(13)
C23 C 0.4463(2) 0.80618(19) 0.54245(15)
H22 H 0.5010 0.8444 0.4824
H23 H 0.3395 0.8388 0.5266
H24 H 0.4665 0.7241 0.5506
C24 C 0.30922(17) 0.61004(14) 0.82990(13)
C25 C 0.1970(3) 0.46071(19) 0.86902(16)
H25 H 0.1491 0.4103 0.8469
C26 C 0.2180(3) 0.44439(18) 0.97932(16)
H26 H 0.1892 0.3829 1.0323
C27 C 0.28304(18) 0.52179(14) 1.00929(14)
C28 C 0.30358(18) 0.51873(14) 1.12446(13)
C29 C 0.2455(2) 0.44605(18) 1.20945(15)
H27 H 0.1905 0.3952 1.1954
C30 C 0.2686(3) 0.44835(19) 1.31517(16)
H28 H 0.2303 0.3990 1.3747
C31 C 0.3480(2) 0.52349(18) 1.33216(15)
H29 H 0.3631 0.5248 1.4048
C32 C 0.3822(2) 0.59124(16) 1.15134(14)
H30 H 0.4222 0.6416 1.0937
loop_
_geom_bond_atom_site_label_1
_geom_bond_atom_site_label_2
_geom_bond_site_symmetry_1
_geom_bond_site_symmetry_2
N1 H1 1_555 1_555
H2 N1 1_555 1_555
N2 H3 1_555 1_555
N3 C8 1_555 1_555
N4 C8 1_555 1_555
N5 C15 1_555 1_555
C1 N2 1_555 1_555
C2 C1 1_555 1_555
H4 C2 1_555 1_555
C3 N1 1_555 1_555
C4 C3 1_555 1_555
H5 C4 1_555 1_555
C5 C4 1_555 1_555
H6 C5 1_555 1_555
C6 C1 1_555 1_555
C7 C6 1_555 1_555
H7 C7 1_555 1_555
H8 C7 1_555 1_555
H9 C7 1_555 1_555
C8 N2 1_555 1_555
C9 N3 1_555 1_555
H10 C9 1_555 1_555
C10 C9 1_555 1_555
H11 C10 1_555 1_555
C11 N4 1_555 1_555
C12 C11 1_555 1_555
C13 C12 1_555 1_555
H12 C13 1_555 1_555
C14 C13 1_555 1_555
H13 C14 1_555 1_555
C15 C14 1_555 1_555
H14 C15 1_555 1_555
C16 N5 1_555 1_555
H15 C16 1_555 1_555
N6 H16 1_555 1_555
H17 N6 1_555 1_555
N7 H18 1_555 1_555
N8 C24 1_555 1_555
N9 C24 1_555 1_555
N10 C31 1_555 1_555
C17 N7 1_555 1_555
C18 C17 1_555 1_555
H19 C18 1_555 1_555
C19 N6 1_555 1_555
C20 C19 1_555 1_555
H20 C20 1_555 1_555
C21 C20 1_555 1_555
H21 C21 1_555 1_555
C22 C17 1_555 1_555
C23 C22 1_555 1_555
H22 C23 1_555 1_555
H23 C23 1_555 1_555
H24 C23 1_555 1_555
C24 N7 1_555 1_555
C25 N8 1_555 1_555
H25 C25 1_555 1_555
C26 C25 1_555 1_555
H26 C26 1_555 1_555
C27 N9 1_555 1_555
C28 C27 1_555 1_555
C29 C28 1_555 1_555
H27 C29 1_555 1_555
C30 C29 1_555 1_555
H28 C30 1_555 1_555
C31 C30 1_555 1_555
H29 C31 1_555 1_555
C32 N10 1_555 1_555
H30 C32 1_555 1_555
C2 C3 1_555 1_555
C5 C6 1_555 1_555
C10 C11 1_555 1_555
C12 C16 1_555 1_555
C18 C19 1_555 1_555
C21 C22 1_555 1_555
C26 C27 1_555 1_555
C28 C32 1_555 1_555

#END
