
#######################################################################
#
#                 Cambridge Crystallographic Data Centre
#                                CCDC 
#
#######################################################################
#
# If this CIF has been generated from an entry in the Cambridge 
# Structural Database, then it will include bibliographic, chemical, 
# crystal, experimental, refinement or atomic coordinate data resulting 
# from the CCDC's data processing and validation procedures.
#
#######################################################################

data_DUNGIE
_chemical_name_common            
"N,N',N'',N'''-tetrabutyltetrabenzotetraaza[8]circulene dichloromethane hexane solvate"
_chemical_formula_moiety         'C56 H52 N4,0.29(C6 H14),0.42(C1 H2 Cl2)'
_chemical_name_systematic        
'5,10,15,20-tetrahydro-5,10,15,20-tetraazatetracyclopenta[fgh,pqr,za~1~b~1~,j~1~k~1~l~1~]tetranaphthylene dichloromethane hexane solvate'
_symmetry_cell_setting           triclinic
_symmetry_space_group_name_H-M   'P -1'
_symmetry_Int_Tables_number      2
_space_group_name_Hall           '-P 1'
loop_
_symmetry_equiv_pos_site_id
_symmetry_equiv_pos_as_xyz
1 x,y,z
2 -x,-y,-z
_cell_length_a                   13.8263(15)
_cell_length_b                   17.897(2)
_cell_length_c                   18.169(3)
_cell_angle_alpha                87.575(12)
_cell_angle_beta                 80.539(10)
_cell_angle_gamma                79.840(15)
_cell_volume                     4364.8
_exptl_crystal_colour            colorless
_exptl_crystal_description       prism
_cell_formula_units_Z            4
_exptl_crystal_recrystallization_method dichloromethane/hexane
_exptl_crystal_preparation       Luminescent
loop_
_atom_site_label
_atom_site_type_symbol
_atom_site_fract_x
_atom_site_fract_y
_atom_site_fract_z
C65 C 0.1466(2) 0.49081(17) 0.10180(16)
C66 C 0.2457(2) 0.50009(18) 0.08913(17)
C67 C 0.2811(2) 0.55997(18) 0.04414(17)
C68 C 0.3842(3) 0.55933(19) 0.02056(18)
H71 H 0.4306 0.5173 0.0341
C69 C 0.4189(3) 0.6174(2) -0.02113(18)
H72 H 0.4882 0.6152 -0.0376
C70 C 0.3505(3) 0.6800(2) -0.03904(19)
H73 H 0.3739 0.7224 -0.0646
C71 C 0.2503(3) 0.6811(2) -0.02019(19)
H74 H 0.2057 0.7242 -0.0337
C72 C 0.2102(3) 0.61964(18) 0.01910(17)
C73 C 0.1078(2) 0.61101(18) 0.03478(17)
C74 C 0.0747(2) 0.54731(17) 0.07304(17)
C75 C -0.0313(2) 0.55875(17) 0.07756(17)
C76 C -0.0601(2) 0.62892(18) 0.04153(18)
C77 C -0.1630(3) 0.66002(18) 0.03515(18)
C78 C -0.1968(3) 0.73057(19) 0.00038(19)
H75 H -0.1501 0.7626 -0.0183
C79 C -0.2952(3) 0.7536(2) -0.0069(2)
H76 H -0.3157 0.8017 -0.0289
C80 C -0.3647(3) 0.7067(2) 0.0177(2)
H77 H -0.4319 0.7214 0.0102
C81 C -0.3353(3) 0.6393(2) 0.0528(2)
H78 H -0.3828 0.6072 0.0687
C82 C -0.2363(3) 0.61587(18) 0.06606(18)
C83 C -0.2063(2) 0.54781(18) 0.10631(17)
C84 C -0.1071(2) 0.51720(17) 0.11167(17)
C85 C -0.1102(2) 0.44695(17) 0.15451(17)
C86 C -0.2092(2) 0.43963(18) 0.17238(17)
C87 C -0.2435(2) 0.37457(19) 0.20959(17)
C88 C -0.3416(3) 0.3609(2) 0.21390(19)
H79 H -0.3889 0.3970 0.1930
C89 C -0.3702(3) 0.2961(2) 0.2479(2)
H80 H -0.4374 0.2892 0.2523
C90 C -0.3005(3) 0.2406(2) 0.2758(2)
H81 H -0.3205 0.1960 0.2989
C91 C -0.2031(3) 0.2506(2) 0.2699(2)
H82 H -0.1561 0.2116 0.2875
C92 C -0.1711(2) 0.31794(19) 0.23820(18)
C93 C -0.0706(2) 0.33031(18) 0.22655(18)
C94 C -0.0374(2) 0.39000(17) 0.18213(17)
C95 C 0.0688(2) 0.37764(17) 0.17581(17)
C96 C 0.0966(2) 0.30963(18) 0.21532(19)
C97 C 0.1985(3) 0.27448(19) 0.21457(19)
C98 C 0.2281(3) 0.1984(2) 0.2386(2)
H83 H 0.1788 0.1693 0.2595
C99 C 0.3269(3) 0.1663(2) 0.2322(2)
H84 H 0.3453 0.1157 0.2494
C100 C 0.4008(3) 0.2076(2) 0.2006(2)
H85 H 0.4690 0.1851 0.1968
C101 C 0.3751(3) 0.2806(2) 0.17501(19)
H86 H 0.4258 0.3074 0.1520
C102 C 0.2737(2) 0.31656(18) 0.18245(18)
C103 C 0.2426(2) 0.39033(18) 0.15203(17)
C104 C 0.1450(2) 0.41928(17) 0.14301(17)
N5 N 0.0250(2) 0.65967(15) 0.01532(15)
N6 N -0.2714(2) 0.50243(15) 0.14587(15)
N7 N 0.0112(2) 0.28179(15) 0.24874(16)
N8 N 0.30688(19) 0.44107(14) 0.12176(14)
C105 C 0.0315(3) 0.7224(2) -0.0401(3)
H87 H -0.0227 0.7251 -0.0702
H88 H 0.0956 0.7114 -0.0743
C106 C 0.0237(4) 0.7969(3) -0.0047(3)
H89 H 0.0778 0.7939 0.0254
H90 H -0.0404 0.8077 0.0296
C107 C 0.0302(5) 0.8625(3) -0.0610(3)
H91 H -0.0116 0.8578 -0.0993
H92 H 0.0034 0.9111 -0.0350
C108 C 0.1353(6) 0.8641(4) -0.0988(5)
H93 H 0.1358 0.9069 -0.1343
H94 H 0.1618 0.8165 -0.1256
H95 H 0.1768 0.8698 -0.0612
C109 C -0.3524(3) 0.5420(2) 0.2022(2)
H96 H -0.3991 0.5071 0.2213
H97 H -0.3899 0.5861 0.1783
C110 C -0.3085(3) 0.5704(2) 0.2702(3)
H98 H -0.2789 0.5258 0.2982
H99 H -0.2550 0.5995 0.2504
C111 C -0.3875(3) 0.6194(2) 0.3221(2)
H100 H -0.4163 0.6647 0.2947
H101 H -0.4416 0.5907 0.3418
C112 C -0.3440(4) 0.6436(3) 0.3854(3)
H102 H -0.3249 0.5995 0.4169
H103 H -0.3935 0.6813 0.4152
H104 H -0.2851 0.6661 0.3656
C113 C 0.007(2) 0.2416(18) 0.3159(13)
H105 H 0.0758 0.2238 0.3257
H106 H -0.0233 0.1963 0.3113
C114 C -0.0576(6) 0.2920(4) 0.3886(4)
H107 H -0.1284 0.3036 0.3819
H108 H -0.0537 0.2604 0.4343
C115 C -0.0226(10) 0.3671(6) 0.4002(7)
H109 H -0.0182 0.3971 0.3531
H110 H 0.0440 0.3566 0.4155
C116 C -0.1009(8) 0.4132(7) 0.4635(6)
H111 H -0.1613 0.4351 0.4432
H112 H -0.0719 0.4540 0.4810
H113 H -0.1178 0.3789 0.5053
C117 C 0.3699(2) 0.46339(19) 0.17355(18)
H114 H 0.4076 0.5020 0.1484
H115 H 0.4187 0.4184 0.1842
C118 C 0.3109(3) 0.49523(19) 0.24700(18)
H116 H 0.2595 0.5386 0.2366
H117 H 0.2765 0.4557 0.2740
C119 C 0.3761(3) 0.5212(2) 0.2958(2)
H118 H 0.4085 0.5620 0.2692
H119 H 0.4292 0.4783 0.3040
C120 C 0.3207(4) 0.5506(3) 0.3710(2)
H120 H 0.2722 0.5962 0.3636
H121 H 0.3682 0.5631 0.4010
H122 H 0.2859 0.5114 0.3969
C127 C 0.3539(9) -0.0167(7) 0.8658(7)
H136 H 0.3820 -0.0015 0.8148
H137 H 0.4072 -0.0236 0.8970
C128 C 0.2122(9) 0.0444(6) 0.9890(6)
H138 H 0.1443 0.0744 0.9917
H139 H 0.2023 -0.0092 0.9936
C129 C 0.2404(9) 0.0593(7) 1.0678(7)
H140 H 0.1907 0.0401 1.1060
H141 H 0.2294 0.1150 1.0735
C130 C 0.2573(16) 0.0517(10) 0.9027(8)
H142 H 0.2798 0.1013 0.8950
H143 H 0.2026 0.0529 0.8735
C131 C 0.3084(13) -0.0991(8) 0.8633(9)
C132 C 0.3547(10) 0.0249(9) 1.0922(7)
H144 H 0.3728 -0.0294 1.0812
H145 H 0.3521 0.0323 1.1456
H146 H 0.4046 0.0521 1.0637
C1 C -0.0504(2) 0.10585(17) 0.47272(18)
C2 C -0.0729(3) 0.07303(17) 0.41057(19)
C3 C -0.1728(3) 0.07348(18) 0.39664(19)
C4 C -0.1998(3) 0.03996(19) 0.3357(2)
H1 H -0.1487 0.0176 0.2975
C5 C -0.2974(3) 0.0386(2) 0.3297(2)
H2 H -0.3127 0.0157 0.2878
C6 C -0.3738(3) 0.0708(2) 0.3852(2)
H3 H -0.4411 0.0684 0.3819
C7 C -0.3516(3) 0.1055(2) 0.4437(2)
H4 H -0.4042 0.1269 0.4813
C8 C -0.2526(3) 0.11073(18) 0.45076(18)
C9 C -0.2282(2) 0.14808(18) 0.51121(18)
C10 C -0.1321(2) 0.14552(17) 0.52498(18)
C11 C -0.1400(2) 0.18613(17) 0.59366(18)
C12 C -0.2412(2) 0.20976(17) 0.61817(18)
C13 C -0.2813(2) 0.24116(18) 0.69001(18)
C14 C -0.3815(3) 0.24411(19) 0.72356(19)
H5 H -0.4268 0.2284 0.6958
C15 C -0.4156(3) 0.2691(2) 0.7954(2)
H6 H -0.4837 0.2716 0.8163
C16 C -0.3492(3) 0.2906(2) 0.8369(2)
H7 H -0.3726 0.3083 0.8863
C17 C -0.2508(3) 0.2867(2) 0.8077(2)
H8 H -0.2065 0.3002 0.8377
C18 C -0.2136(3) 0.26277(18) 0.73341(19)
C19 C -0.1098(2) 0.24928(18) 0.70202(19)
C20 C -0.0713(2) 0.20639(17) 0.63703(18)
C21 C 0.0344(2) 0.19323(17) 0.63198(18)
C22 C 0.0568(2) 0.22867(18) 0.69259(18)
C23 C 0.1545(3) 0.21887(19) 0.71252(19)
C24 C 0.1758(3) 0.2411(2) 0.7807(2)
H9 H 0.1237 0.2687 0.8149
C25 C 0.2703(3) 0.2242(2) 0.7994(2)
H10 H 0.2832 0.2411 0.8451
C26 C 0.3471(3) 0.1816(2) 0.7499(2)
H11 H 0.4120 0.1689 0.7627
C27 C 0.3292(3) 0.1584(2) 0.6841(2)
H12 H 0.3817 0.1283 0.6522
C28 C 0.2341(2) 0.17774(18) 0.66136(19)
C29 C 0.2117(2) 0.15270(18) 0.59374(18)
C30 C 0.1152(2) 0.15373(17) 0.57988(18)
C31 C 0.1240(2) 0.11301(17) 0.51139(18)
C32 C 0.2261(2) 0.09089(18) 0.48717(19)
C33 C 0.2662(3) 0.04487(18) 0.42315(19)
C34 C 0.3695(3) 0.0135(2) 0.4058(2)
H13 H 0.4132 0.0216 0.4387
C35 C 0.4072(3) -0.0282(2) 0.3420(2)
H14 H 0.4762 -0.0482 0.3311
C36 C 0.3442(3) -0.0406(2) 0.2949(2)
H15 H 0.3705 -0.0676 0.2500
C37 C 0.2438(3) -0.01474(19) 0.3113(2)
H16 H 0.2021 -0.0252 0.2777
C38 C 0.1999(3) 0.02688(17) 0.37637(19)
C39 C 0.0946(3) 0.05217(17) 0.40154(18)
C40 C 0.0557(2) 0.09268(16) 0.46722(18)
N1 N -0.2973(2) 0.18943(15) 0.56719(15)
N2 N -0.0317(2) 0.26587(15) 0.73466(16)
N3 N 0.2808(2) 0.11666(16) 0.53607(15)
N4 N 0.0161(2) 0.03933(15) 0.36740(16)
C41 C -0.3797(3) 0.24811(19) 0.5475(2)
H17 H -0.4107 0.2782 0.5924
H18 H -0.4310 0.2225 0.5323
C42 C -0.3464(3) 0.3015(2) 0.4853(2)
H19 H -0.3193 0.2719 0.4394
H20 H -0.2922 0.3248 0.4991
C43 C -0.4305(4) 0.3644(2) 0.4689(2)
H21 H -0.4792 0.3417 0.4467
H22 H -0.4653 0.3881 0.5164
C44 C -0.3942(5) 0.4252(3) 0.4163(3)
H23 H -0.3526 0.4523 0.4406
H24 H -0.4515 0.4611 0.4037
H25 H -0.3551 0.4016 0.3707
C45 C -0.0360(11) 0.3386(10) 0.7713(10)
H26 H -0.1064 0.3641 0.7819
H27 H -0.0121 0.3279 0.8198
C46 C 0.022(2) 0.3910(14) 0.7281(10)
H28 H 0.0935 0.3672 0.7200
H29 H 0.0157 0.4377 0.7572
C47 C -0.0101(8) 0.4128(9) 0.6521(8)
H30 H -0.0252 0.3675 0.6297
H31 H -0.0715 0.4514 0.6591
C48 C 0.0704(6) 0.4440(6) 0.5998(5)
H32 H 0.0897 0.4859 0.6238
H33 H 0.0454 0.4626 0.5538
H34 H 0.1284 0.4038 0.5879
C49 C 0.3730(3) 0.1489(2) 0.5097(2)
H35 H 0.4295 0.1065 0.4984
H36 H 0.3865 0.1783 0.5506
C50 C 0.3684(3) 0.2001(2) 0.4409(2)
H37 H 0.4327 0.2183 0.4272
H38 H 0.3596 0.1699 0.3988
C51 C 0.2865(3) 0.2672(2) 0.4512(2)
H39 H 0.2868 0.2917 0.4989
H40 H 0.2218 0.2497 0.4542
C52 C 0.2965(4) 0.3260(3) 0.3871(3)
H41 H 0.3618 0.3415 0.3822
H42 H 0.2441 0.3704 0.3980
H43 H 0.2901 0.3033 0.3404
C53 C 0.0250(4) -0.0190(2) 0.3118(3)
H44 H -0.0345 -0.0439 0.3220
H45 H 0.0839 -0.0582 0.3167
C54 C 0.0352(5) 0.0125(3) 0.2307(4)
H46 H -0.0284 0.0445 0.2226
H47 H 0.0875 0.0447 0.2226
C55 C 0.0613(10) -0.0502(8) 0.1770(7)
H48 H 0.1146 -0.0893 0.1924
H49 H 0.0856 -0.0310 0.1267
C56 C -0.0309(11) -0.0841(8) 0.1754(7)
H50 H -0.0376 -0.1216 0.2160
H51 H -0.0253 -0.1089 0.1275
H52 H -0.0895 -0.0438 0.1817
C57? C 0.0258(14) -0.0447(11) 0.1714(11)
H53? H 0.0247 0.0054 0.1461
H54? H -0.0309 -0.0675 0.1616
C58? C 0.1266(14) -0.0981(9) 0.1506(9)
H55? H 0.1792 -0.0678 0.1354
H56? H 0.1230 -0.1304 0.1092
H57? H 0.1415 -0.1300 0.1939
C59? C 0.0264(12) 0.0332(10) 0.2812(10)
H58? H -0.0304 0.0675 0.2643
H59? H 0.0880 0.0515 0.2580
C60? C 0.0294(13) -0.0406(11) 0.2547(9)
H60? H -0.0275 -0.0618 0.2829
H61? H 0.0912 -0.0733 0.2655
C61? C -0.050(3) 0.342(2) 0.775(3)
H62? H -0.0398 0.3328 0.8277
H63? H -0.1200 0.3673 0.7752
C62? C 0.028(4) 0.396(3) 0.7312(17)
H64? H 0.0144 0.4458 0.7568
H65? H 0.0969 0.3721 0.7370
C63? C 0.0259(12) 0.4120(16) 0.6481(14)
H66? H 0.0763 0.4439 0.6284
H67? H 0.0440 0.3633 0.6212
C64? C -0.0756(8) 0.4518(7) 0.6327(7)
H68? H -0.1241 0.4176 0.6458
H69? H -0.0713 0.4656 0.5797
H70? H -0.0967 0.4977 0.6628
C121? C 0.005(2) 0.2448(18) 0.3293(14)
H123? H -0.0659 0.2488 0.3516
H124? H 0.0336 0.1902 0.3245
C122? C 0.0528(8) 0.2760(6) 0.3773(6)
H125? H 0.1228 0.2749 0.3535
H126? H 0.0538 0.2432 0.4226
C123? C 0.0104(13) 0.3539(11) 0.4006(14)
H127? H 0.0126 0.3881 0.3563
H128? H 0.0508 0.3707 0.4349
C124? C -0.1014(10) 0.3593(8) 0.4412(8)
H129? H -0.1403 0.3390 0.4087
H130? H -0.1302 0.4125 0.4522
H131? H -0.1029 0.3297 0.4879
Cl1? Cl 0.4284(4) -0.0031(2) 0.8395(2)
Cl2? Cl 0.3084(4) 0.0014(3) 1.1067(2)
Cl3? Cl 0.4329(4) -0.1256(2) 1.0225(4)
Cl4? Cl 0.2252(6) 0.0527(4) 0.9350(5)
C125? C 0.3342(12) -0.0919(7) 1.0850(9)
H132? H 0.3410 -0.1209 1.1321
H133? H 0.2749 -0.1044 1.0675
C126? C 0.3517(11) 0.0533(9) 0.9069(9)
H134? H 0.3572 0.1062 0.8913
H135? H 0.3825 0.0435 0.9527
loop_
_geom_bond_atom_site_label_1
_geom_bond_atom_site_label_2
_geom_bond_site_symmetry_1
_geom_bond_site_symmetry_2
C1 C2 1_555 1_555
C2 C3 1_555 1_555
C3 C4 1_555 1_555
C4 H1 1_555 1_555
C5 C4 1_555 1_555
H2 C5 1_555 1_555
C6 C5 1_555 1_555
H3 C6 1_555 1_555
C7 C6 1_555 1_555
H4 C7 1_555 1_555
C8 C3 1_555 1_555
C9 C8 1_555 1_555
C10 C1 1_555 1_555
C11 C10 1_555 1_555
C12 C11 1_555 1_555
C13 C12 1_555 1_555
C14 C13 1_555 1_555
H5 C14 1_555 1_555
C15 C14 1_555 1_555
H6 C15 1_555 1_555
C16 C15 1_555 1_555
H7 C16 1_555 1_555
C17 C16 1_555 1_555
H8 C17 1_555 1_555
C18 C13 1_555 1_555
C19 C18 1_555 1_555
C20 C11 1_555 1_555
C21 C20 1_555 1_555
C22 C21 1_555 1_555
C23 C22 1_555 1_555
C24 C23 1_555 1_555
H9 C24 1_555 1_555
C25 C24 1_555 1_555
H10 C25 1_555 1_555
C26 C25 1_555 1_555
H11 C26 1_555 1_555
C27 C26 1_555 1_555
H12 C27 1_555 1_555
C28 C23 1_555 1_555
C29 C28 1_555 1_555
C30 C21 1_555 1_555
C31 C30 1_555 1_555
C32 C31 1_555 1_555
C33 C32 1_555 1_555
C34 C33 1_555 1_555
H13 C34 1_555 1_555
C35 C34 1_555 1_555
H14 C35 1_555 1_555
C36 C35 1_555 1_555
H15 C36 1_555 1_555
C37 C36 1_555 1_555
H16 C37 1_555 1_555
C38 C33 1_555 1_555
C39 C38 1_555 1_555
C40 C1 1_555 1_555
N1 C9 1_555 1_555
N2 C19 1_555 1_555
N3 C29 1_555 1_555
N4 C2 1_555 1_555
C41 N1 1_555 1_555
H17 C41 1_555 1_555
H18 C41 1_555 1_555
C42 C41 1_555 1_555
H19 C42 1_555 1_555
H20 C42 1_555 1_555
C43 C42 1_555 1_555
H21 C43 1_555 1_555
H22 C43 1_555 1_555
C44 C43 1_555 1_555
H23 C44 1_555 1_555
H24 C44 1_555 1_555
H25 C44 1_555 1_555
C45 N2 1_555 1_555
H26 C45 1_555 1_555
H27 C45 1_555 1_555
C46 C45 1_555 1_555
H28 C46 1_555 1_555
H29 C46 1_555 1_555
C47 C46 1_555 1_555
H30 C47 1_555 1_555
H31 C47 1_555 1_555
C48 C47 1_555 1_555
H32 C48 1_555 1_555
H33 C48 1_555 1_555
H34 C48 1_555 1_555
C49 N3 1_555 1_555
H35 C49 1_555 1_555
H36 C49 1_555 1_555
C50 C49 1_555 1_555
H37 C50 1_555 1_555
H38 C50 1_555 1_555
C51 C50 1_555 1_555
H39 C51 1_555 1_555
H40 C51 1_555 1_555
C52 C51 1_555 1_555
H41 C52 1_555 1_555
H42 C52 1_555 1_555
H43 C52 1_555 1_555
C53 N4 1_555 1_555
H44 C53 1_555 1_555
H45 C53 1_555 1_555
C54 C53 1_555 1_555
H46 C54 1_555 1_555
H47 C54 1_555 1_555
C55 C54 1_555 1_555
H48 C55 1_555 1_555
H49 C55 1_555 1_555
C56 C55 1_555 1_555
H50 C56 1_555 1_555
H51 C56 1_555 1_555
H52 C56 1_555 1_555
C65 C66 1_555 1_555
C66 C67 1_555 1_555
C67 C68 1_555 1_555
C68 H71 1_555 1_555
C69 C68 1_555 1_555
H72 C69 1_555 1_555
C70 C69 1_555 1_555
H73 C70 1_555 1_555
C71 C70 1_555 1_555
H74 C71 1_555 1_555
C72 C67 1_555 1_555
C73 C72 1_555 1_555
C74 C65 1_555 1_555
C75 C74 1_555 1_555
C76 C75 1_555 1_555
C77 C76 1_555 1_555
C78 C77 1_555 1_555
H75 C78 1_555 1_555
C79 C78 1_555 1_555
H76 C79 1_555 1_555
C80 C79 1_555 1_555
H77 C80 1_555 1_555
C81 C80 1_555 1_555
H78 C81 1_555 1_555
C82 C77 1_555 1_555
C83 C82 1_555 1_555
C84 C75 1_555 1_555
C85 C84 1_555 1_555
C86 C85 1_555 1_555
C87 C86 1_555 1_555
C88 C87 1_555 1_555
H79 C88 1_555 1_555
C89 C88 1_555 1_555
H80 C89 1_555 1_555
C90 C89 1_555 1_555
H81 C90 1_555 1_555
C91 C90 1_555 1_555
H82 C91 1_555 1_555
C92 C87 1_555 1_555
C93 C92 1_555 1_555
C94 C85 1_555 1_555
C95 C94 1_555 1_555
C96 C95 1_555 1_555
C97 C96 1_555 1_555
C98 C97 1_555 1_555
H83 C98 1_555 1_555
C99 C98 1_555 1_555
H84 C99 1_555 1_555
C100 C99 1_555 1_555
H85 C100 1_555 1_555
C101 C100 1_555 1_555
H86 C101 1_555 1_555
C102 C97 1_555 1_555
C103 C102 1_555 1_555
C104 C65 1_555 1_555
N5 C73 1_555 1_555
N6 C83 1_555 1_555
N7 C93 1_555 1_555
N8 C66 1_555 1_555
C105 N5 1_555 1_555
H87 C105 1_555 1_555
H88 C105 1_555 1_555
C106 C105 1_555 1_555
H89 C106 1_555 1_555
H90 C106 1_555 1_555
C107 C106 1_555 1_555
H91 C107 1_555 1_555
H92 C107 1_555 1_555
C108 C107 1_555 1_555
H93 C108 1_555 1_555
H94 C108 1_555 1_555
H95 C108 1_555 1_555
C109 N6 1_555 1_555
H96 C109 1_555 1_555
H97 C109 1_555 1_555
C110 C109 1_555 1_555
H98 C110 1_555 1_555
H99 C110 1_555 1_555
C111 C110 1_555 1_555
H100 C111 1_555 1_555
H101 C111 1_555 1_555
C112 C111 1_555 1_555
H102 C112 1_555 1_555
H103 C112 1_555 1_555
H104 C112 1_555 1_555
C113 N7 1_555 1_555
H105 C113 1_555 1_555
H106 C113 1_555 1_555
C114 C113 1_555 1_555
H107 C114 1_555 1_555
H108 C114 1_555 1_555
C115 C114 1_555 1_555
H109 C115 1_555 1_555
H110 C115 1_555 1_555
C116 C115 1_555 1_555
H111 C116 1_555 1_555
H112 C116 1_555 1_555
H113 C116 1_555 1_555
C117 N8 1_555 1_555
H114 C117 1_555 1_555
H115 C117 1_555 1_555
C118 C117 1_555 1_555
H116 C118 1_555 1_555
H117 C118 1_555 1_555
C119 C118 1_555 1_555
H118 C119 1_555 1_555
H119 C119 1_555 1_555
C120 C119 1_555 1_555
H120 C120 1_555 1_555
H121 C120 1_555 1_555
H122 C120 1_555 1_555
C127 H136 1_555 1_555
H137 C127 1_555 1_555
C128 H138 1_555 1_555
H139 C128 1_555 1_555
C129 C128 1_555 1_555
H140 C129 1_555 1_555
H141 C129 1_555 1_555
C130 C127 1_555 1_555
H142 C130 1_555 1_555
H143 C130 1_555 1_555
C131 C127 1_555 1_555
C132 C129 1_555 1_555
H144 C132 1_555 1_555
H145 C132 1_555 1_555
H146 C132 1_555 1_555
C7 C8 1_555 1_555
C9 C10 1_555 1_555
C12 N1 1_555 1_555
C17 C18 1_555 1_555
C19 C20 1_555 1_555
C22 N2 1_555 1_555
C27 C28 1_555 1_555
C29 C30 1_555 1_555
C31 C40 1_555 1_555
C32 N3 1_555 1_555
C37 C38 1_555 1_555
C39 C40 1_555 1_555
C39 N4 1_555 1_555
C71 C72 1_555 1_555
C73 C74 1_555 1_555
C76 N5 1_555 1_555
C81 C82 1_555 1_555
C83 C84 1_555 1_555
C86 N6 1_555 1_555
C91 C92 1_555 1_555
C93 C94 1_555 1_555
C95 C104 1_555 1_555
C96 N7 1_555 1_555
C101 C102 1_555 1_555
C103 C104 1_555 1_555
C103 N8 1_555 1_555
C128 C130 1_555 1_555

#END
