
#######################################################################
#
#                 Cambridge Crystallographic Data Centre
#                                CCDC 
#
#######################################################################
#
# If this CIF has been generated from an entry in the Cambridge 
# Structural Database, then it will include bibliographic, chemical, 
# crystal, experimental, refinement or atomic coordinate data resulting 
# from the CCDC's data processing and validation procedures.
#
#######################################################################

data_DUNJED
_chemical_formula_moiety         'C9 H6 F3 N1 O3'
_chemical_name_systematic        2-(4-nitrophenyl)-3-(trifluoromethyl)oxirane
_symmetry_cell_setting           orthorhombic
_symmetry_space_group_name_H-M   'P 21 21 21'
_symmetry_Int_Tables_number      19
_space_group_name_Hall           'P 2ac 2ab'
loop_
_symmetry_equiv_pos_site_id
_symmetry_equiv_pos_as_xyz
1 x,y,z
2 1/2-x,-y,1/2+z
3 -x,1/2+y,1/2-z
4 1/2+x,1/2-y,-z
_cell_length_a                   4.8359(6)
_cell_length_b                   6.4223(8)
_cell_length_c                   30.645(4)
_cell_angle_alpha                90
_cell_angle_beta                 90
_cell_angle_gamma                90
_cell_volume                     951.76
_exptl_crystal_colour            colorless
_exptl_crystal_description       prismatic
_cell_formula_units_Z            4
loop_
_atom_site_label
_atom_site_type_symbol
_atom_site_fract_x
_atom_site_fract_y
_atom_site_fract_z
F1 F -0.0856(6) 0.6497(4) 0.78352(8)
F2 F -0.4729(5) 0.6251(4) 0.81285(7)
F3 F -0.3973(6) 0.4718(4) 0.75356(6)
N1 N 0.5758(4) -0.1646(3) 0.95744(7)
O1 O -0.3934(5) 0.2057(4) 0.83343(8)
O2 O 0.6855(4) -0.0857(3) 0.98906(7)
O3 O 0.6322(5) -0.3388(3) 0.94406(7)
C1 C -0.2110(5) 0.3131(5) 0.86231(8)
H1 H -0.2886 0.4342 0.8774
C2 C -0.1864(6) 0.3306(5) 0.81528(8)
H2 H -0.0304 0.2567 0.8020
C3 C -0.2885(7) 0.5154(5) 0.79126(9)
C4 C -0.0139(5) 0.1842(4) 0.88777(7)
C5 C 0.1052(6) 0.2642(4) 0.92509(7)
H3 H 0.0560 0.3967 0.9346
C6 C 0.2957(5) 0.1510(4) 0.94840(7)
H4 H 0.3760 0.2055 0.9735
C7 C 0.3651(5) -0.0447(4) 0.93384(7)
C8 C 0.2442(6) -0.1306(4) 0.89754(8)
H5 H 0.2902 -0.2647 0.8887
C9 C 0.0554(6) -0.0165(4) 0.87457(9)
H6 H -0.0276 -0.0734 0.8499
loop_
_geom_bond_atom_site_label_1
_geom_bond_atom_site_label_2
_geom_bond_site_symmetry_1
_geom_bond_site_symmetry_2
F1 C3 1_555 1_555
F2 C3 1_555 1_555
F3 C3 1_555 1_555
N1 O2 1_555 1_555
O1 C1 1_555 1_555
O3 N1 1_555 1_555
C1 H1 1_555 1_555
C2 O1 1_555 1_555
H2 C2 1_555 1_555
C3 C2 1_555 1_555
C4 C1 1_555 1_555
C5 C4 1_555 1_555
H3 C5 1_555 1_555
C6 C5 1_555 1_555
H4 C6 1_555 1_555
C7 N1 1_555 1_555
C8 C7 1_555 1_555
H5 C8 1_555 1_555
C9 C4 1_555 1_555
H6 C9 1_555 1_555
C1 C2 1_555 1_555
C6 C7 1_555 1_555
C8 C9 1_555 1_555

#END
