
#######################################################################
#
#                 Cambridge Crystallographic Data Centre
#                                CCDC 
#
#######################################################################
#
# If this CIF has been generated from an entry in the Cambridge 
# Structural Database, then it will include bibliographic, chemical, 
# crystal, experimental, refinement or atomic coordinate data resulting 
# from the CCDC's data processing and validation procedures.
#
#######################################################################

data_DUNJAZ
_chemical_formula_moiety         'C17 H13 F3 N2 O2 S1'
_chemical_name_systematic        
4-(1-((4-methylphenyl)sulfonyl)-3-(trifluoromethyl)aziridin-2-yl)benzonitrile
_symmetry_cell_setting           monoclinic
_symmetry_space_group_name_H-M   'C 2/c'
_symmetry_Int_Tables_number      15
_space_group_name_Hall           '-C 2yn'
loop_
_symmetry_equiv_pos_site_id
_symmetry_equiv_pos_as_xyz
1 x,y,z
2 -x,y,1/2-z
3 1/2+x,1/2+y,z
4 1/2-x,1/2+y,1/2-z
5 -x,-y,-z
6 x,-y,1/2+z
7 1/2-x,1/2-y,-z
8 1/2+x,1/2-y,1/2+z
_cell_length_a                   17.549(4)
_cell_length_b                   11.355(2)
_cell_length_c                   18.820(4)
_cell_angle_alpha                90
_cell_angle_beta                 111.289(4)
_cell_angle_gamma                90
_cell_volume                     3494.33
_exptl_crystal_colour            colorless
_exptl_crystal_description       prismatic
_cell_formula_units_Z            8
loop_
_atom_site_label
_atom_site_type_symbol
_atom_site_fract_x
_atom_site_fract_y
_atom_site_fract_z
S1 S 0.18181(3) 1.04451(4) 1.04700(3)
F1 F 0.4268(5) 0.9287(9) 1.0399(5)
F2 F 0.4695(6) 1.1016(8) 1.0808(5)
F3 F 0.4197(7) 0.9798(12) 1.1459(9)
N1 N 0.25864(10) 0.99533(14) 1.02164(9)
N2 N 0.36257(17) 0.7426(2) 0.69227(13)
O1 O 0.18087(9) 1.16972(13) 1.04745(8)
O2 O 0.19098(10) 0.98327(15) 1.11544(8)
C1 C 0.27519(12) 1.05956(17) 0.96080(11)
H1 H 0.2388 1.1267 0.9399
C2 C 0.32968(12) 1.07339(19) 1.04135(12)
H2 H 0.3235 1.1482 1.0647
C3 C 0.41135(17) 1.0182(3) 1.07588(16)
C4 C 0.29378(12) 0.98813(18) 0.90294(11)
C5 C 0.32120(15) 1.0458(2) 0.85218(13)
H3 H 0.3272 1.1273 0.8548
C6 C 0.33972(15) 0.9837(2) 0.79772(13)
H4 H 0.3583 1.0228 0.7637
C7 C 0.33044(13) 0.8633(2) 0.79400(11)
C8 C 0.30202(15) 0.8048(2) 0.84367(12)
H5 H 0.2954 0.7235 0.8406
C9 C 0.28363(14) 0.86780(19) 0.89765(12)
H6 H 0.2641 0.8287 0.9310
C10 C 0.34912(16) 0.7962(2) 0.73729(13)
C11 C 0.09729(12) 0.99358(18) 0.97113(11)
C12 C 0.05833(15) 1.0677(2) 0.91123(13)
H7 H 0.0753 1.1454 0.9121
C13 C -0.00607(15) 1.0255(2) 0.84997(14)
H8 H -0.0324 1.0757 0.8094
C14 C -0.03255(14) 0.9115(2) 0.84701(13)
C15 C 0.00601(16) 0.8408(2) 0.90823(16)
H9 H -0.0121 0.7638 0.9079
C16 C 0.07090(15) 0.8799(2) 0.97034(14)
H10 H 0.0965 0.8298 1.0112
C17 C -0.10233(18) 0.8678(3) 0.77930(16)
H11 H -0.1292 0.9334 0.7481
H12 H -0.1405 0.8266 0.7962
H13 H -0.0821 0.8154 0.7502
F4? F 0.4094(8) 0.9067(16) 1.0538(8)
F5? F 0.4646(8) 1.0754(14) 1.0562(7)
F6? F 0.4391(8) 1.0120(13) 1.1508(9)
loop_
_geom_bond_atom_site_label_1
_geom_bond_atom_site_label_2
_geom_bond_site_symmetry_1
_geom_bond_site_symmetry_2
S1 N1 1_555 1_555
F1 C3 1_555 1_555
F2 C3 1_555 1_555
F3 C3 1_555 1_555
N1 C1 1_555 1_555
N2 C10 1_555 1_555
O1 S1 1_555 1_555
O2 S1 1_555 1_555
C1 H1 1_555 1_555
C2 N1 1_555 1_555
H2 C2 1_555 1_555
C3 C2 1_555 1_555
C4 C1 1_555 1_555
C5 C4 1_555 1_555
H3 C5 1_555 1_555
C6 C5 1_555 1_555
H4 C6 1_555 1_555
C7 C6 1_555 1_555
C8 C7 1_555 1_555
H5 C8 1_555 1_555
C9 C4 1_555 1_555
H6 C9 1_555 1_555
C10 C7 1_555 1_555
C11 S1 1_555 1_555
C12 C11 1_555 1_555
H7 C12 1_555 1_555
C13 C12 1_555 1_555
H8 C13 1_555 1_555
C14 C13 1_555 1_555
C15 C14 1_555 1_555
H9 C15 1_555 1_555
C16 C11 1_555 1_555
H10 C16 1_555 1_555
C17 C14 1_555 1_555
H11 C17 1_555 1_555
H12 C17 1_555 1_555
H13 C17 1_555 1_555
C1 C2 1_555 1_555
C8 C9 1_555 1_555
C15 C16 1_555 1_555

#END
