
#######################################################################
#
#                 Cambridge Crystallographic Data Centre
#                                CCDC 
#
#######################################################################
#
# If this CIF has been generated from an entry in the Cambridge 
# Structural Database, then it will include bibliographic, chemical, 
# crystal, experimental, refinement or atomic coordinate data resulting 
# from the CCDC's data processing and validation procedures.
#
#######################################################################

data_DUNLOO
_chemical_formula_moiety         'C21 H17 F3 N3 O3 1+,C7 H7 O3 S1 1-,H2 O1'
_chemical_name_systematic        
'2-Methylcarbamoyl-4-(4-[3-(trifluoromethyl)benzamido]phenoxy)pyridinium 4-methylbenzenesulfonate monohydrate'
_symmetry_cell_setting           triclinic
_symmetry_space_group_name_H-M   'P -1'
_symmetry_Int_Tables_number      2
_space_group_name_Hall           '-P 1'
loop_
_symmetry_equiv_pos_site_id
_symmetry_equiv_pos_as_xyz
1 x,y,z
2 -x,-y,-z
_cell_length_a                   10.657(2)
_cell_length_b                   16.000(3)
_cell_length_c                   16.985(3)
_cell_angle_alpha                82.98(3)
_cell_angle_beta                 75.63(3)
_cell_angle_gamma                81.62(3)
_cell_volume                     2764.37
_exptl_crystal_colour            colorless
_exptl_crystal_description       block
_cell_formula_units_Z            4
_exptl_crystal_recrystallization_method 'ethyl acetate/water'
loop_
_atom_site_label
_atom_site_type_symbol
_atom_site_fract_x
_atom_site_fract_y
_atom_site_fract_z
S1 S 0.91430(4) 0.14041(3) 0.05883(3)
O4 O 0.85481(12) 0.06433(7) 0.09516(8)
O5 O 0.87361(11) 0.17359(7) -0.01677(7)
O6 O 1.05425(11) 0.13110(8) 0.04777(8)
C22 C 0.84928(15) 0.21982(10) 0.12704(10)
C23 C 0.92194(17) 0.28484(11) 0.12897(11)
H18 H 1.0091 0.2839 0.0973
C24 C 0.86702(17) 0.35103(11) 0.17704(11)
H19 H 0.9173 0.3951 0.1781
C25 C 0.73932(17) 0.35394(11) 0.22376(11)
C26 C 0.66884(17) 0.28718(11) 0.22277(11)
H20 H 0.5827 0.2871 0.2559
C27 C 0.72200(16) 0.22117(11) 0.17450(10)
H21 H 0.6719 0.1769 0.1737
C28 C 0.67826(19) 0.42795(12) 0.27238(12)
H22 H 0.7431 0.4670 0.2677
H23 H 0.6474 0.4075 0.3298
H24 H 0.6045 0.4576 0.2513
F1 F -0.34020(10) 0.61736(7) 1.15550(6)
F2 F -0.22027(10) 0.66570(6) 1.04205(7)
F3 F -0.42588(10) 0.66433(6) 1.05457(6)
O1 O 0.02637(12) 0.46121(8) 0.86161(8)
O2 O 0.40566(11) 0.19670(8) 0.63601(7)
O3 O 0.55988(12) 0.03690(9) 0.32473(8)
N1 N -0.01171(14) 0.32273(9) 0.87890(9)
H1 H -0.0524(18) 0.2827(13) 0.9142(12)
N2 N 0.36243(13) 0.08092(10) 0.44574(9)
H2 H 0.354(2) 0.0571(14) 0.3987(13)
N3 N 0.71041(14) 0.07959(10) 0.38048(9)
H3 H 0.7301(19) 0.1030(13) 0.4207(12)
C1 C -0.29467(16) 0.53268(10) 1.04459(10)
C2 C -0.39162(16) 0.47909(11) 1.07203(10)
H4 H -0.4703 0.4974 1.1094
C3 C -0.37330(16) 0.39950(11) 1.04486(10)
H5 H -0.4388 0.3626 1.0644
C4 C -0.25946(15) 0.37292(10) 0.98901(10)
H6 H -0.2476 0.3182 0.9701
C5 C -0.16238(16) 0.42665(10) 0.96064(10)
C6 C -0.18014(16) 0.50646(10) 0.98895(10)
H7 H -0.1141 0.5431 0.9703
C7 C -0.31815(16) 0.61905(11) 1.07397(11)
C8 C -0.04016(16) 0.40543(11) 0.89624(10)
C9 C 0.09422(15) 0.29258(11) 0.81636(10)
C10 C 0.15109(16) 0.20909(11) 0.82654(11)
H8 H 0.1198 0.1745 0.8751
C11 C 0.25314(17) 0.17617(11) 0.76617(11)
H9 H 0.2921 0.1192 0.7727
C12 C 0.29695(16) 0.22781(12) 0.69646(10)
C13 C 0.24228(16) 0.31032(12) 0.68505(10)
H10 H 0.2744 0.3445 0.6364
C14 C 0.14031(16) 0.34301(11) 0.74490(10)
H11 H 0.1015 0.3999 0.7374
C15 C 0.38334(16) 0.15906(11) 0.57489(10)
C16 C 0.49500(16) 0.13655(11) 0.51394(11)
H12 H 0.5783 0.1482 0.5173
C17 C 0.48196(16) 0.09764(11) 0.44978(10)
C18 C 0.25565(16) 0.10187(11) 0.50330(11)
H13 H 0.1736 0.0889 0.4989
C19 C 0.26269(16) 0.14201(11) 0.56889(11)
H14 H 0.1862 0.1577 0.6093
C20 C 0.59060(17) 0.06918(11) 0.37853(10)
C21 C 0.82469(16) 0.05376(13) 0.31621(11)
H15 H 0.8044 0.0099 0.2874
H16 H 0.8982 0.0312 0.3407
H17 H 0.8478 0.1029 0.2776
S2 S 0.89838(4) 0.15086(3) 0.53643(3)
O10 O 0.95419(11) 0.07396(7) 0.57676(7)
O11 O 0.99564(11) 0.19081(8) 0.47245(7)
O12 O 0.78472(11) 0.13747(9) 0.50857(8)
C50 C 0.83936(16) 0.22327(11) 0.61150(10)
C51 C 0.91040(16) 0.28864(11) 0.61394(11)
H42 H 0.9926 0.2929 0.5768
C52 C 0.86104(17) 0.34797(12) 0.67079(11)
H43 H 0.9097 0.3927 0.6723
C53 C 0.74038(18) 0.34208(12) 0.72563(11)
C54 C 0.67206(18) 0.27478(12) 0.72337(11)
H44 H 0.5909 0.2695 0.7614
C55 C 0.72004(16) 0.21541(11) 0.66682(11)
H45 H 0.6722 0.1700 0.6658
C56 C 0.6846(2) 0.40946(13) 0.78350(12)
H46 H 0.7526 0.4444 0.7842
H47 H 0.6525 0.3826 0.8385
H48 H 0.6123 0.4453 0.7655
F4 F -0.33636(13) 0.59319(8) 0.64537(7)
F5 F -0.20384(11) 0.64667(8) 0.54200(8)
F6 F -0.40474(11) 0.65049(8) 0.54127(8)
O7 O 0.01905(12) 0.47448(8) 0.32258(8)
O8 O 0.46040(10) 0.22239(7) 0.10696(7)
O9 O 0.65314(11) 0.03829(8) -0.18903(7)
N4 N 0.02326(14) 0.33070(9) 0.34663(9)
H25 H -0.0020(18) 0.2911(12) 0.3843(12)
N5 N 0.45081(13) 0.07662(9) -0.07060(9)
H26 H 0.4452(19) 0.0439(13) -0.1111(12)
N6 N 0.79628(14) 0.08258(10) -0.12880(9)
H27 H 0.8094(19) 0.1046(13) -0.0860(12)
C29 C -0.27709(17) 0.51754(12) 0.52830(11)
C30 C -0.36521(16) 0.45805(12) 0.55576(11)
H28 H -0.4409 0.4700 0.5979
C31 C -0.34257(16) 0.38180(11) 0.52173(11)
H29 H -0.4028 0.3413 0.5405
C32 C -0.23199(16) 0.36392(11) 0.46014(10)
H30 H -0.2167 0.3112 0.4369
C33 C -0.14335(16) 0.42324(11) 0.43233(10)
C34 C -0.16670(16) 0.50029(11) 0.46667(10)
H31 H -0.1070 0.5411 0.4479
C35 C -0.30389(18) 0.60065(12) 0.56420(11)
C36 C -0.02601(16) 0.41201(11) 0.36214(10)
C37 C 0.13333(15) 0.30592(10) 0.28415(10)
C38 C 0.19331(16) 0.22322(11) 0.29177(10)
H32 H 0.1601 0.1859 0.3378
C39 C 0.30118(17) 0.19458(11) 0.23285(10)
H33 H 0.3430 0.1383 0.2385
C40 C 0.34650(15) 0.24888(10) 0.16636(10)
C41 C 0.28742(16) 0.33076(11) 0.15683(10)
H34 H 0.3203 0.3672 0.1100
C42 C 0.18004(16) 0.35979(11) 0.21560(10)
H35 H 0.1385 0.4161 0.2092
C43 C 0.45035(15) 0.17280(10) 0.05117(10)
C44 C 0.56742(15) 0.14987(10) -0.00578(10)
H36 H 0.6470 0.1673 -0.0020
C45 C 0.56476(15) 0.10210(10) -0.06671(10)
C46 C 0.33890(16) 0.09730(10) -0.01653(10)
H37 H 0.2609 0.0783 -0.0213
C47 C 0.33494(15) 0.14550(10) 0.04570(10)
H38 H 0.2554 0.1599 0.0841
C48 C 0.67809(16) 0.07187(10) -0.13396(10)
C49 C 0.91145(16) 0.05350(13) -0.19078(11)
H39 H 0.9047 -0.0039 -0.2026
H40 H 0.9900 0.0530 -0.1705
H41 H 0.9167 0.0919 -0.2407
O13 O 0.25378(14) 0.01762(8) 0.34427(8)
H49 H 0.282(3) 0.0026(17) 0.2890(18)
H50 H 0.182(2) -0.0068(16) 0.3634(15)
O14 O 0.38900(14) -0.02701(9) -0.15984(9)
H51 H 0.297(3) -0.0464(16) -0.1373(15)
H52 H 0.403(3) -0.0305(17) -0.2053(16)
loop_
_geom_bond_atom_site_label_1
_geom_bond_atom_site_label_2
_geom_bond_site_symmetry_1
_geom_bond_site_symmetry_2
S1 O4 1_555 1_555
F1 C7 1_555 1_555
F2 C7 1_555 1_555
F3 C7 1_555 1_555
O1 C8 1_555 1_555
O2 C12 1_555 1_555
O3 C20 1_555 1_555
O5 S1 1_555 1_555
O6 S1 1_555 1_555
N1 H1 1_555 1_555
N2 H2 1_555 1_555
N3 H3 1_555 1_555
C1 C2 1_555 1_555
C2 H4 1_555 1_555
C3 C2 1_555 1_555
H5 C3 1_555 1_555
C4 C3 1_555 1_555
H6 C4 1_555 1_555
C5 C4 1_555 1_555
C6 C1 1_555 1_555
H7 C6 1_555 1_555
C7 C1 1_555 1_555
C8 N1 1_555 1_555
C9 N1 1_555 1_555
C10 C9 1_555 1_555
H8 C10 1_555 1_555
C11 C10 1_555 1_555
H9 C11 1_555 1_555
C12 C11 1_555 1_555
C13 C12 1_555 1_555
H10 C13 1_555 1_555
C14 C9 1_555 1_555
H11 C14 1_555 1_555
C15 O2 1_555 1_555
C16 C15 1_555 1_555
H12 C16 1_555 1_555
C17 N2 1_555 1_555
C18 N2 1_555 1_555
H13 C18 1_555 1_555
C19 C15 1_555 1_555
H14 C19 1_555 1_555
C20 N3 1_555 1_555
C21 N3 1_555 1_555
H15 C21 1_555 1_555
H16 C21 1_555 1_555
H17 C21 1_555 1_555
C22 S1 1_555 1_555
C23 C22 1_555 1_555
H18 C23 1_555 1_555
C24 C23 1_555 1_555
H19 C24 1_555 1_555
C25 C24 1_555 1_555
C26 C25 1_555 1_555
H20 C26 1_555 1_555
C27 C22 1_555 1_555
H21 C27 1_555 1_555
C28 C25 1_555 1_555
H22 C28 1_555 1_555
H23 C28 1_555 1_555
H24 C28 1_555 1_555
S2 O10 1_555 1_555
F4 C35 1_555 1_555
F5 C35 1_555 1_555
F6 C35 1_555 1_555
O7 C36 1_555 1_555
O8 C40 1_555 1_555
O9 C48 1_555 1_555
O11 S2 1_555 1_555
O12 S2 1_555 1_555
N4 H25 1_555 1_555
N5 H26 1_555 1_555
N6 H27 1_555 1_555
C29 C30 1_555 1_555
C30 H28 1_555 1_555
C31 C30 1_555 1_555
H29 C31 1_555 1_555
C32 C31 1_555 1_555
H30 C32 1_555 1_555
C33 C32 1_555 1_555
C34 C29 1_555 1_555
H31 C34 1_555 1_555
C35 C29 1_555 1_555
C36 N4 1_555 1_555
C37 N4 1_555 1_555
C38 C37 1_555 1_555
H32 C38 1_555 1_555
C39 C38 1_555 1_555
H33 C39 1_555 1_555
C40 C39 1_555 1_555
C41 C40 1_555 1_555
H34 C41 1_555 1_555
C42 C37 1_555 1_555
H35 C42 1_555 1_555
C43 O8 1_555 1_555
C44 C43 1_555 1_555
H36 C44 1_555 1_555
C45 N5 1_555 1_555
C46 N5 1_555 1_555
H37 C46 1_555 1_555
C47 C43 1_555 1_555
H38 C47 1_555 1_555
C48 N6 1_555 1_555
C49 N6 1_555 1_555
H39 C49 1_555 1_555
H40 C49 1_555 1_555
H41 C49 1_555 1_555
C50 S2 1_555 1_555
C51 C50 1_555 1_555
H42 C51 1_555 1_555
C52 C51 1_555 1_555
H43 C52 1_555 1_555
C53 C52 1_555 1_555
C54 C53 1_555 1_555
H44 C54 1_555 1_555
C55 C50 1_555 1_555
H45 C55 1_555 1_555
C56 C53 1_555 1_555
H46 C56 1_555 1_555
H47 C56 1_555 1_555
H48 C56 1_555 1_555
O13 H49 1_555 1_555
H50 O13 1_555 1_555
O14 H51 1_555 1_555
H52 O14 1_555 1_555
C5 C6 1_555 1_555
C5 C8 1_555 1_555
C13 C14 1_555 1_555
C16 C17 1_555 1_555
C17 C20 1_555 1_555
C18 C19 1_555 1_555
C26 C27 1_555 1_555
C33 C34 1_555 1_555
C33 C36 1_555 1_555
C41 C42 1_555 1_555
C44 C45 1_555 1_555
C45 C48 1_555 1_555
C46 C47 1_555 1_555
C54 C55 1_555 1_555

#END
