
#######################################################################
#
#                 Cambridge Crystallographic Data Centre
#                                CCDC 
#
#######################################################################
#
# If this CIF has been generated from an entry in the Cambridge 
# Structural Database, then it will include bibliographic, chemical, 
# crystal, experimental, refinement or atomic coordinate data resulting 
# from the CCDC's data processing and validation procedures.
#
#######################################################################

data_DUNNAC
_chemical_formula_moiety         'C17 H19 Cl1 N2'
_chemical_name_systematic        
4-Chloro-N-[4-(diethylamino)benzylidene]aniline
_symmetry_cell_setting           monoclinic
_symmetry_space_group_name_H-M   'P 21/c'
_symmetry_Int_Tables_number      14
_space_group_name_Hall           '-P 2ybc'
loop_
_symmetry_equiv_pos_site_id
_symmetry_equiv_pos_as_xyz
1 x,y,z
2 -x,1/2+y,1/2-z
3 -x,-y,-z
4 x,1/2-y,1/2+z
_cell_length_a                   20.153(2)
_cell_length_b                   8.7434(7)
_cell_length_c                   20.1446(19)
_cell_angle_alpha                90
_cell_angle_beta                 118.444(2)
_cell_angle_gamma                90
_cell_volume                     3121.1
_exptl_crystal_colour            'light yellow'
_exptl_crystal_description       block
_cell_formula_units_Z            8
loop_
_atom_site_label
_atom_site_type_symbol
_atom_site_fract_x
_atom_site_fract_y
_atom_site_fract_z
Cl1 Cl 0.85148(4) -0.53996(7) 0.76082(4)
N2 N 0.90381(8) 0.57265(16) 0.41592(8)
C3 C 0.91666(10) 0.30238(19) 0.44633(10)
H2 H 0.9321 0.2837 0.4103
N3 N 0.90566(9) -0.05533(17) 0.58706(9)
C5 C 0.91207(10) 0.18314(19) 0.48779(9)
H4 H 0.9252 0.0855 0.4798
C6 C 0.89856(9) 0.45309(18) 0.45679(9)
C7 C 0.88144(10) 0.0793(2) 0.58554(9)
H5 H 0.8577 0.0992 0.6145
C9 C 0.88817(9) 0.20400(19) 0.54188(9)
C10 C 0.87455(10) 0.47377(19) 0.51171(10)
H7 H 0.8619 0.5712 0.5205
C14 C 0.86968(10) 0.3532(2) 0.55194(10)
H9 H 0.8534 0.3708 0.5874
C15 C 0.89088(10) -0.16858(19) 0.62846(9)
C18 C 0.95037(10) -0.25322(19) 0.68199(11)
H11 H 0.9991 -0.2339 0.6903
C19 C 0.86616(10) -0.3967(2) 0.70916(10)
C23 C 0.93858(10) -0.3652(2) 0.72303(11)
H15 H 0.9792 -0.4194 0.7598
C26 C 0.81858(10) -0.2037(2) 0.61520(11)
H19 H 0.7778 -0.1496 0.5787
C28 C 0.88835(11) 0.72995(19) 0.42921(12)
H22 H 0.9164 0.7989 0.4141
H23 H 0.9068 0.7438 0.4829
C29 C 0.92008(12) 0.5464(2) 0.35369(12)
H24 H 0.9627 0.4772 0.3705
H25 H 0.9347 0.6427 0.3405
C30 C 0.80608(11) -0.3174(2) 0.65510(12)
H26 H 0.7572 -0.3402 0.6455
C31 C 0.85481(14) 0.4803(3) 0.28411(12)
H27 H 0.8693 0.4669 0.2455
H28 H 0.8126 0.5488 0.2664
H29 H 0.8410 0.3832 0.2962
C33 C 0.80592(12) 0.7741(2) 0.38778(15)
H33 H 0.8003 0.8782 0.3995
H34 H 0.7776 0.7081 0.4031
H35 H 0.7874 0.7642 0.3344
Cl2 Cl 0.64613(4) 1.53729(7) 0.41511(4)
N1 N 0.59641(9) 1.07076(17) 0.18309(8)
C1 C 0.58844(9) 0.83306(19) 0.07682(9)
H1 H 0.5731 0.9299 0.0560
C2 C 0.60395(9) 0.56348(18) 0.05880(9)
C4 C 0.58355(9) 0.71363(19) 0.03069(9)
H3 H 0.5664 0.7319 -0.0204
N4 N 0.59608(9) 0.44244(16) 0.01260(9)
C8 C 0.62332(9) 0.9374(2) 0.20476(10)
H6 H 0.6495 0.9186 0.2564
C11 C 0.61580(9) 0.81317(19) 0.15426(9)
C12 C 0.63215(10) 0.5445(2) 0.13724(10)
H8 H 0.6474 0.4480 0.1585
C13 C 0.61080(10) 1.18249(19) 0.23937(9)
C16 C 0.63739(10) 0.6647(2) 0.18232(10)
H10 H 0.6560 0.6476 0.2337
C17 C 0.63294(11) 1.4018(2) 0.34658(11)
C20 C 0.68257(10) 1.2175(2) 0.29554(11)
H12 H 0.7238 1.1663 0.2972
C21 C 0.69412(11) 1.3272(2) 0.34924(12)
H13 H 0.7427 1.3504 0.3867
C22 C 0.56102(11) 1.3704(2) 0.29018(12)
H14 H 0.5199 1.4220 0.2885
C24 C 0.61471(11) 0.2868(2) 0.04203(12)
H16 H 0.5867 0.2156 0.0012
H17 H 0.5982 0.2725 0.0796
C25 C 0.55034(10) 1.2624(2) 0.23647(11)
H18 H 0.5019 1.2430 0.1977
C27 C 0.57312(12) 0.4657(2) -0.06713(11)
H20 H 0.5317 0.5382 -0.0878
H21 H 0.5546 0.3696 -0.0936
C32 C 0.63511(14) 0.5236(3) -0.08195(13)
H30 H 0.6160 0.5365 -0.1353
H31 H 0.6758 0.4512 -0.0630
H32 H 0.6531 0.6201 -0.0570
C34 C 0.69744(13) 0.2482(3) 0.07706(15)
H36 H 0.7053 0.1449 0.0954
H37 H 0.7257 0.3167 0.1182
H38 H 0.7141 0.2584 0.0398
loop_
_geom_bond_atom_site_label_1
_geom_bond_atom_site_label_2
_geom_bond_site_symmetry_1
_geom_bond_site_symmetry_2
Cl1 C19 1_555 1_555
Cl2 C17 1_555 1_555
N1 C8 1_555 1_555
N2 C6 1_555 1_555
C1 H1 1_555 1_555
C2 C4 1_555 1_555
C3 H2 1_555 1_555
C4 C1 1_555 1_555
H3 C4 1_555 1_555
N3 C7 1_555 1_555
C5 C3 1_555 1_555
H4 C5 1_555 1_555
C6 C3 1_555 1_555
C7 H5 1_555 1_555
N4 C2 1_555 1_555
C8 H6 1_555 1_555
C9 C5 1_555 1_555
C10 C6 1_555 1_555
H7 C10 1_555 1_555
C11 C1 1_555 1_555
C12 C2 1_555 1_555
H8 C12 1_555 1_555
C13 N1 1_555 1_555
C14 C9 1_555 1_555
H9 C14 1_555 1_555
C15 N3 1_555 1_555
C16 C11 1_555 1_555
H10 C16 1_555 1_555
C17 C21 1_555 1_555
C18 C15 1_555 1_555
H11 C18 1_555 1_555
C19 C23 1_555 1_555
C20 C13 1_555 1_555
H12 C20 1_555 1_555
C21 C20 1_555 1_555
H13 C21 1_555 1_555
C22 C17 1_555 1_555
H14 C22 1_555 1_555
C23 C18 1_555 1_555
H15 C23 1_555 1_555
C24 N4 1_555 1_555
H16 C24 1_555 1_555
H17 C24 1_555 1_555
C25 C13 1_555 1_555
H18 C25 1_555 1_555
C26 C15 1_555 1_555
H19 C26 1_555 1_555
C27 N4 1_555 1_555
H20 C27 1_555 1_555
H21 C27 1_555 1_555
C28 N2 1_555 1_555
H22 C28 1_555 1_555
H23 C28 1_555 1_555
C29 N2 1_555 1_555
H24 C29 1_555 1_555
H25 C29 1_555 1_555
C30 C19 1_555 1_555
H26 C30 1_555 1_555
C31 C29 1_555 1_555
H27 C31 1_555 1_555
H28 C31 1_555 1_555
H29 C31 1_555 1_555
C32 C27 1_555 1_555
H30 C32 1_555 1_555
H31 C32 1_555 1_555
H32 C32 1_555 1_555
C33 C28 1_555 1_555
H33 C33 1_555 1_555
H34 C33 1_555 1_555
H35 C33 1_555 1_555
C34 C24 1_555 1_555
H36 C34 1_555 1_555
H37 C34 1_555 1_555
H38 C34 1_555 1_555
C7 C9 1_555 1_555
C8 C11 1_555 1_555
C10 C14 1_555 1_555
C12 C16 1_555 1_555
C22 C25 1_555 1_555
C26 C30 1_555 1_555

#END
