
#######################################################################
#
#                 Cambridge Crystallographic Data Centre
#                                CCDC 
#
#######################################################################
#
# If this CIF has been generated from an entry in the Cambridge 
# Structural Database, then it will include bibliographic, chemical, 
# crystal, experimental, refinement or atomic coordinate data resulting 
# from the CCDC's data processing and validation procedures.
#
#######################################################################

data_DUNPAE
_chemical_formula_moiety         'C22 H17 Br1 O6'
_chemical_name_systematic        
'Ethyl (2S,4R)-4-(4-bromophenyl)-2-hydroxy-5,10-dioxo-3,4,5,10-tetrahydro-2H-benzo[g]chromene-2-carboxylate'
_symmetry_cell_setting           monoclinic
_symmetry_space_group_name_H-M   'P 21'
_symmetry_Int_Tables_number      4
_space_group_name_Hall           'P 2yb'
loop_
_symmetry_equiv_pos_site_id
_symmetry_equiv_pos_as_xyz
1 x,y,z
2 -x,1/2+y,-z
_cell_length_a                   8.2993(6)
_cell_length_b                   9.9445(7)
_cell_length_c                   12.4884(10)
_cell_angle_alpha                90
_cell_angle_beta                 96.323(2)
_cell_angle_gamma                90
_cell_volume                     1024.43
_exptl_crystal_colour            yellow
_exptl_crystal_description       block
_cell_formula_units_Z            2
_exptl_crystal_recrystallization_method 'ethyl acetate'
loop_
_atom_site_label
_atom_site_type_symbol
_atom_site_fract_x
_atom_site_fract_y
_atom_site_fract_z
Br1 Br 0.33160(10) 0.08140(7) 0.99547(5)
O1 O 0.4425(4) 0.3938(3) 0.2686(3)
O2 O 0.5431(3) 0.4731(3) 0.4648(2)
O3 O 0.0040(4) 0.4443(3) 0.5476(3)
O4 O 0.6613(4) 0.2659(3) 0.5810(3)
C1 C 0.1656(5) 0.3695(4) 0.2984(4)
O5 O 0.7341(3) 0.5933(3) 0.5658(3)
H1 H 0.8167 0.5502 0.5593
C2 C 0.3205(5) 0.5027(4) 0.6295(3)
H2 H 0.2390 0.5695 0.6443
O6 O 0.7358(5) 0.3924(4) 0.7236(3)
C3 C 0.3827(5) 0.4427(4) 0.4456(3)
C4 C 0.6071(5) 0.5058(4) 0.5745(4)
C5 C 0.0525(5) 0.3817(4) 0.3718(3)
C6 C 0.2738(5) 0.4529(4) 0.5170(3)
C7 C 0.3196(4) 0.3945(4) 0.7159(3)
C8 C 0.3232(6) 0.4341(4) 0.8218(4)
H3 H 0.3219 0.5255 0.8375
C9 C 0.4825(4) 0.5773(5) 0.6336(3)
H4 H 0.4633 0.6660 0.6025
H5 H 0.5261 0.5890 0.7083
C10 C 0.1163(7) 0.3247(5) 0.1949(4)
H6 H 0.1922 0.3135 0.1461
C11 C -0.0437(7) 0.2971(5) 0.1644(4)
H7 H -0.0758 0.2688 0.0943
C12 C 0.3191(5) 0.2591(4) 0.6952(4)
H8 H 0.3151 0.2295 0.6243
C13 C 0.1041(5) 0.4276(4) 0.4823(4)
C14 C 0.3394(5) 0.4014(4) 0.3315(4)
C15 C 0.6695(5) 0.3722(5) 0.6254(4)
C16 C -0.1090(5) 0.3531(4) 0.3391(4)
H9 H -0.1852 0.3627 0.3879
C17 C -0.1585(6) 0.3107(5) 0.2360(4)
H10 H -0.2670 0.2915 0.2148
C18 C 0.3287(6) 0.3430(5) 0.9056(4)
H11 H 0.3334 0.3723 0.9766
C19 C 0.3245(5) 0.1658(4) 0.7774(4)
H12 H 0.3264 0.0744 0.7616
C20 C 0.3270(6) 0.2071(5) 0.8817(4)
C21 C 0.8604(17) 0.2834(14) 0.7646(12)
H13 H 0.8698 0.2138 0.7112
H14 H 0.9665 0.3215 0.7868
C22 C 0.7845(17) 0.2353(15) 0.8537(12)
H15 H 0.8593 0.1800 0.8983
H16 H 0.6907 0.1833 0.8280
H17 H 0.7523 0.3101 0.8950
C23? C 0.763(3) 0.2550(18) 0.780(3)
C24? C 0.903(3) 0.289(3) 0.849(2)
H18? H 0.6731 0.2300 0.8194
H19? H 0.7829 0.1840 0.7297
H20? H 0.8842 0.2739 0.9224
H21? H 0.9294 0.3819 0.8392
H22? H 0.9924 0.2339 0.8322
loop_
_geom_bond_atom_site_label_1
_geom_bond_atom_site_label_2
_geom_bond_site_symmetry_1
_geom_bond_site_symmetry_2
Br1 C20 1_555 1_555
O1 C14 1_555 1_555
O2 C3 1_555 1_555
O3 C13 1_555 1_555
O4 C15 1_555 1_555
C1 C5 1_555 1_555
O5 H1 1_555 1_555
C2 H2 1_555 1_555
O6 C15 1_555 1_555
C3 C6 1_555 1_555
C4 O2 1_555 1_555
C5 C13 1_555 1_555
C6 C2 1_555 1_555
C7 C2 1_555 1_555
C8 C7 1_555 1_555
H3 C8 1_555 1_555
C9 C2 1_555 1_555
H4 C9 1_555 1_555
H5 C9 1_555 1_555
C10 C1 1_555 1_555
H6 C10 1_555 1_555
C11 C10 1_555 1_555
H7 C11 1_555 1_555
C12 C7 1_555 1_555
H8 C12 1_555 1_555
C13 C6 1_555 1_555
C14 C1 1_555 1_555
C15 C4 1_555 1_555
C16 C5 1_555 1_555
H9 C16 1_555 1_555
C17 C11 1_555 1_555
H10 C17 1_555 1_555
C18 C8 1_555 1_555
H11 C18 1_555 1_555
C19 C12 1_555 1_555
H12 C19 1_555 1_555
C20 C18 1_555 1_555
C21 O6 1_555 1_555
H13 C21 1_555 1_555
H14 C21 1_555 1_555
C22 C21 1_555 1_555
H15 C22 1_555 1_555
H16 C22 1_555 1_555
H17 C22 1_555 1_555
O5 C4 1_555 1_555
C3 C14 1_555 1_555
C4 C9 1_555 1_555
C16 C17 1_555 1_555
C19 C20 1_555 1_555

#END
