
#######################################################################
#
#                 Cambridge Crystallographic Data Centre
#                                CCDC 
#
#######################################################################
#
# If this CIF has been generated from an entry in the Cambridge 
# Structural Database, then it will include bibliographic, chemical, 
# crystal, experimental, refinement or atomic coordinate data resulting 
# from the CCDC's data processing and validation procedures.
#
#######################################################################

data_DUNRIO
_chemical_name_common            'Benzyl N-(4-pyridyl)carbamate'
_chemical_formula_moiety         'C13 H12 N2 O2'
_chemical_name_systematic        'Benzyl pyridin-4-ylcarbamate'
_symmetry_cell_setting           monoclinic
_symmetry_space_group_name_H-M   'P 21/c'
_symmetry_Int_Tables_number      14
_space_group_name_Hall           '-P 2ybc'
loop_
_symmetry_equiv_pos_site_id
_symmetry_equiv_pos_as_xyz
1 x,y,z
2 -x,1/2+y,1/2-z
3 -x,-y,-z
4 x,1/2-y,1/2+z
_cell_length_a                   11.9439(5)
_cell_length_b                   13.2120(6)
_cell_length_c                   14.6574(7)
_cell_angle_alpha                90
_cell_angle_beta                 98.418(4)
_cell_angle_gamma                90
_cell_volume                     2288.06
_exptl_crystal_colour            colorless
_exptl_crystal_description       chunk
_cell_formula_units_Z            8
_exptl_crystal_recrystallization_method 'petroleum ether/dichloromethane'
loop_
_atom_site_label
_atom_site_type_symbol
_atom_site_fract_x
_atom_site_fract_y
_atom_site_fract_z
N1 N 0.16150(9) 0.18181(9) -0.00328(9)
H1 H 0.2140 0.1458 -0.0216
O3 O 0.13791(8) 0.32072(8) 0.08678(8)
O4 O 0.30953(8) 0.27290(8) 0.05366(8)
N3 N -0.16725(10) 0.07480(10) -0.09588(10)
C3 C 0.48132(13) 0.36576(11) 0.08454(12)
C6 C 0.19585(12) 0.26347(12) 0.04966(11)
C7 C 0.05051(12) 0.14969(11) -0.03138(11)
C8 C 0.03345(12) 0.07278(12) -0.09590(11)
H5 H 0.0948 0.0447 -0.1193
C9 C -0.04470(12) 0.18983(12) 0.00023(11)
H6 H -0.0382 0.2421 0.0432
C10 C -0.07391(12) 0.03782(12) -0.12545(12)
H7 H -0.0827 -0.0144 -0.1684
C13 C 0.36095(12) 0.36077(12) 0.10249(12)
H9 H 0.3585 0.3543 0.1681
H10 H 0.3206 0.4218 0.0804
C18 C 0.50592(14) 0.36917(12) -0.00500(13)
H16 H 0.4472 0.3691 -0.0543
C19 C 0.56941(14) 0.36833(13) 0.15684(13)
H17 H 0.5545 0.3653 0.2173
C20 C -0.14897(12) 0.14942(12) -0.03432(12)
H18 H -0.2119 0.1767 -0.0127
C21 C 0.61669(16) 0.37268(13) -0.02173(15)
H19 H 0.6322 0.3726 -0.0821
C24 C 0.68094(15) 0.37554(14) 0.13934(17)
H22 H 0.7400 0.3799 0.1882
C25 C 0.70368(16) 0.37628(14) 0.05031(18)
H23 H 0.7782 0.3792 0.0388
O1 O 0.42587(8) 0.17805(9) 0.26686(8)
O2 O 0.24197(8) 0.13329(8) 0.22775(8)
N2 N 0.36888(9) 0.04846(9) 0.16579(9)
H2 H 0.3088 0.0179 0.1403
C1 C 0.35408(12) 0.12531(12) 0.22453(11)
C2 C 0.47128(11) 0.01402(12) 0.14254(10)
C4 C 0.57368(12) 0.06602(13) 0.16021(12)
H3 H 0.5789 0.1278 0.1909
C5 C 0.47072(12) -0.07770(12) 0.09719(11)
H4 H 0.4040 -0.1147 0.0844
N4 N 0.66870(10) -0.06576(10) 0.08657(9)
C11 C 0.09174(12) 0.16792(12) 0.31022(11)
C12 C 0.56904(12) -0.11411(12) 0.07098(12)
H8 H 0.5662 -0.1760 0.0406
C14 C 0.66733(12) 0.02252(13) 0.13053(12)
H11 H 0.7352 0.0579 0.1422
C15 C -0.00463(13) 0.21433(13) 0.26577(12)
H12 H 0.0015 0.2712 0.2294
C16 C 0.08082(15) 0.08481(13) 0.36471(12)
H13 H 0.1454 0.0542 0.3961
C17 C 0.20694(13) 0.20348(13) 0.29487(12)
H14 H 0.2034 0.2721 0.2711
H15 H 0.2594 0.2017 0.3520
C22 C -0.12000(16) 0.09262(18) 0.32858(15)
H20 H -0.1911 0.0671 0.3345
C23 C -0.11059(14) 0.17636(16) 0.27524(14)
H21 H -0.1754 0.2079 0.2453
C26 C -0.02418(18) 0.04609(15) 0.37357(14)
H24 H -0.0304 -0.0110 0.4096
loop_
_geom_bond_atom_site_label_1
_geom_bond_atom_site_label_2
_geom_bond_site_symmetry_1
_geom_bond_site_symmetry_2
N1 H1 1_555 1_555
O1 C1 1_555 1_555
O2 C1 1_555 1_555
O3 C6 1_555 1_555
O4 C6 1_555 1_555
N2 H2 1_555 1_555
C1 N2 1_555 1_555
N3 C10 1_555 1_555
C2 N2 1_555 1_555
C3 C13 1_555 1_555
C4 C2 1_555 1_555
H3 C4 1_555 1_555
C5 C2 1_555 1_555
H4 C5 1_555 1_555
C6 N1 1_555 1_555
C7 N1 1_555 1_555
C8 C7 1_555 1_555
H5 C8 1_555 1_555
C9 C7 1_555 1_555
H6 C9 1_555 1_555
N4 C12 1_555 1_555
C10 C8 1_555 1_555
H7 C10 1_555 1_555
C11 C15 1_555 1_555
C12 C5 1_555 1_555
H8 C12 1_555 1_555
C13 O4 1_555 1_555
H9 C13 1_555 1_555
H10 C13 1_555 1_555
C14 C4 1_555 1_555
H11 C14 1_555 1_555
C15 H12 1_555 1_555
C16 C11 1_555 1_555
H13 C16 1_555 1_555
C17 O2 1_555 1_555
H14 C17 1_555 1_555
H15 C17 1_555 1_555
C18 C3 1_555 1_555
H16 C18 1_555 1_555
C19 C3 1_555 1_555
H17 C19 1_555 1_555
C20 N3 1_555 1_555
H18 C20 1_555 1_555
C21 C18 1_555 1_555
H19 C21 1_555 1_555
C22 H20 1_555 1_555
C23 C15 1_555 1_555
H21 C23 1_555 1_555
C24 C19 1_555 1_555
H22 C24 1_555 1_555
C25 C21 1_555 1_555
H23 C25 1_555 1_555
C26 C16 1_555 1_555
H24 C26 1_555 1_555
C9 C20 1_555 1_555
N4 C14 1_555 1_555
C11 C17 1_555 1_555
C22 C23 1_555 1_555
C22 C26 1_555 1_555
C24 C25 1_555 1_555

#END
