
#######################################################################
#
#                 Cambridge Crystallographic Data Centre
#                                CCDC 
#
#######################################################################
#
# If this CIF has been generated from an entry in the Cambridge 
# Structural Database, then it will include bibliographic, chemical, 
# crystal, experimental, refinement or atomic coordinate data resulting 
# from the CCDC's data processing and validation procedures.
#
#######################################################################

data_DUNREK
_chemical_formula_moiety         'C15 H12 O3'
_chemical_name_systematic        "4'-Formylbiphenyl-4-yl acetate"
_symmetry_cell_setting           monoclinic
_symmetry_space_group_name_H-M   'P 21'
_symmetry_Int_Tables_number      4
_space_group_name_Hall           'P 2yb'
loop_
_symmetry_equiv_pos_site_id
_symmetry_equiv_pos_as_xyz
1 x,y,z
2 -x,1/2+y,-z
_cell_length_a                   9.250(6)
_cell_length_b                   7.499(4)
_cell_length_c                   9.596(6)
_cell_angle_alpha                90
_cell_angle_beta                 113.695(10)
_cell_angle_gamma                90
_cell_volume                     609.519
_exptl_crystal_colour            colorless
_exptl_crystal_description       block
_cell_formula_units_Z            2
loop_
_atom_site_label
_atom_site_type_symbol
_atom_site_fract_x
_atom_site_fract_y
_atom_site_fract_z
O1 O -0.0502(2) 0.8608(3) 0.7519(2)
C1 C 0.2140(3) 0.8713(3) 0.4862(3)
C2 C 0.2728(3) 0.7574(3) 0.2696(3)
H1 H 0.1884 0.6789 0.2457
C3 C 0.3071(2) 0.8734(3) 0.3918(2)
C4 C 0.0414(3) 0.8599(3) 0.6654(3)
C5 C 0.4874(3) 0.8714(4) 0.2161(3)
C6 C 0.0550(3) 0.8248(3) 0.4255(3)
H2 H 0.0052 0.7970 0.3226
C7 C 0.2828(3) 0.9145(3) 0.6404(3)
H3 H 0.3886 0.9477 0.6841
C8 C 0.3610(3) 0.7561(4) 0.1831(3)
H4 H 0.3355 0.6771 0.1019
C9 C -0.0305(3) 0.8190(4) 0.5149(3)
H5 H -0.1366 0.7873 0.4725
C10 C 0.4340(3) 0.9888(4) 0.4230(3)
H6 H 0.4593 1.0690 0.5034
C11 C 0.5827(3) 0.8732(5) 0.1248(4)
H7 H 0.6653 0.9546 0.1514
C12 C 0.1971(3) 0.9091(4) 0.7295(3)
H8 H 0.2446 0.9386 0.8321
C13 C -0.0346(3) 0.7197(4) 0.8450(3)
O2 O 0.0583(2) 0.6044(3) 0.8607(2)
C14 C 0.5228(3) 0.9866(4) 0.3372(3)
H9 H 0.6080 1.0640 0.3614
C15 C -0.1467(3) 0.7346(5) 0.9211(3)
H10 H -0.1402 0.6290 0.9798
H11 H -0.2523 0.7478 0.8455
H12 H -0.1196 0.8367 0.9871
O3 O 0.5613(3) 0.7773(5) 0.0187(3)
loop_
_geom_bond_atom_site_label_1
_geom_bond_atom_site_label_2
_geom_bond_site_symmetry_1
_geom_bond_site_symmetry_2
O1 C4 1_555 1_555
C1 C3 1_555 1_555
C2 H1 1_555 1_555
C3 C2 1_555 1_555
C4 C9 1_555 1_555
C5 C8 1_555 1_555
C6 C1 1_555 1_555
H2 C6 1_555 1_555
C7 C1 1_555 1_555
H3 C7 1_555 1_555
C8 C2 1_555 1_555
H4 C8 1_555 1_555
C9 C6 1_555 1_555
H5 C9 1_555 1_555
C10 C3 1_555 1_555
H6 C10 1_555 1_555
C11 C5 1_555 1_555
H7 C11 1_555 1_555
C12 C4 1_555 1_555
H8 C12 1_555 1_555
C13 O1 1_555 1_555
O2 C13 1_555 1_555
C14 C5 1_555 1_555
H9 C14 1_555 1_555
C15 C13 1_555 1_555
H10 C15 1_555 1_555
H11 C15 1_555 1_555
H12 C15 1_555 1_555
O3 C11 1_555 1_555
C7 C12 1_555 1_555
C10 C14 1_555 1_555

#END
