
#######################################################################
#
#                 Cambridge Crystallographic Data Centre
#                                CCDC 
#
#######################################################################
#
# If this CIF has been generated from an entry in the Cambridge 
# Structural Database, then it will include bibliographic, chemical, 
# crystal, experimental, refinement or atomic coordinate data resulting 
# from the CCDC's data processing and validation procedures.
#
#######################################################################

data_DUNTEM
_chemical_formula_moiety         'C18 H17 N3 S2'
_chemical_name_systematic        
(E)-5-(3,5-Dimethylphenyl)-N-[4-(methylsulfanyl)benzylidene]-1,3,4-thiadiazol-2-amine
_symmetry_cell_setting           triclinic
_symmetry_space_group_name_H-M   'P -1'
_symmetry_Int_Tables_number      2
_space_group_name_Hall           '-P 1'
loop_
_symmetry_equiv_pos_site_id
_symmetry_equiv_pos_as_xyz
1 x,y,z
2 -x,-y,-z
_cell_length_a                   8.5640(17)
_cell_length_b                   9.3370(19)
_cell_length_c                   11.570(2)
_cell_angle_alpha                90.98(3)
_cell_angle_beta                 110.03(3)
_cell_angle_gamma                99.66(3)
_cell_volume                     854.094
_exptl_crystal_colour            colorless
_exptl_crystal_description       block
_chemical_melting_point          '408 K'
_cell_formula_units_Z            2
_exptl_crystal_recrystallization_method acetone
loop_
_atom_site_label
_atom_site_type_symbol
_atom_site_fract_x
_atom_site_fract_y
_atom_site_fract_z
S1 S 0.62029(16) 1.18993(14) -0.40284(12)
S2 S 0.10286(13) 0.70508(13) 0.07048(10)
N1 N 0.0950(5) 0.8908(4) -0.1158(3)
N2 N -0.1485(5) 0.8040(5) -0.0728(4)
N3 N -0.2085(5) 0.7183(5) 0.0023(4)
C1 C 0.7907(6) 1.0978(6) -0.3883(5)
H1 H 0.8553 1.1424 -0.4359
H2 H 0.7470 0.9974 -0.4181
H3 H 0.8620 1.1039 -0.3031
C2 C 0.5192(5) 1.0955(4) -0.3116(4)
C3 C 0.3640(6) 1.1315(5) -0.3168(4)
H4 H 0.3206 1.2023 -0.3674
C4 C 0.2770(5) 1.0636(5) -0.2484(4)
H5 H 0.1754 1.0897 -0.2519
C5 C 0.3370(5) 0.9560(4) -0.1734(4)
C6 C 0.4919(5) 0.9225(5) -0.1672(4)
H6 H 0.5357 0.8527 -0.1155
C7 C 0.5814(5) 0.9899(4) -0.2356(4)
H7 H 0.6838 0.9646 -0.2309
C8 C 0.2444(5) 0.8767(5) -0.1040(4)
H8 H 0.2960 0.8130 -0.0488
C9 C 0.0130(5) 0.8098(4) -0.0484(4)
C10 C -0.0942(5) 0.6600(4) 0.0806(4)
C11 C -0.1302(5) 0.5649(4) 0.1713(4)
C12 C -0.2857(5) 0.5491(5) 0.1857(4)
H9 H -0.3676 0.5975 0.1361
C13 C -0.3218(6) 0.4629(5) 0.2724(4)
C14 C -0.2009(6) 0.3892(5) 0.3429(4)
H10 H -0.2254 0.3293 0.4003
C15 C -0.0418(6) 0.4016(5) 0.3309(4)
C16 C -0.0071(5) 0.4910(5) 0.2446(4)
H11 H 0.0979 0.5018 0.2356
C17 C -0.4903(7) 0.4480(6) 0.2888(6)
H12 H -0.4931 0.3842 0.3525
H13 H -0.5785 0.4083 0.2128
H14 H -0.5070 0.5421 0.3116
C18 C 0.0868(7) 0.3170(6) 0.4057(5)
H15 H 0.1873 0.3396 0.3853
H16 H 0.0416 0.2146 0.3877
H17 H 0.1137 0.3426 0.4919
loop_
_geom_bond_atom_site_label_1
_geom_bond_atom_site_label_2
_geom_bond_site_symmetry_1
_geom_bond_site_symmetry_2
S1 C1 1_555 1_555
S2 C9 1_555 1_555
N1 C8 1_555 1_555
N2 N3 1_555 1_555
N3 C10 1_555 1_555
C1 H1 1_555 1_555
H2 C1 1_555 1_555
H3 C1 1_555 1_555
C2 S1 1_555 1_555
C3 C2 1_555 1_555
H4 C3 1_555 1_555
C4 C3 1_555 1_555
H5 C4 1_555 1_555
C5 C4 1_555 1_555
C6 C5 1_555 1_555
H6 C6 1_555 1_555
C7 C2 1_555 1_555
H7 C7 1_555 1_555
C8 C5 1_555 1_555
H8 C8 1_555 1_555
C9 N1 1_555 1_555
C10 S2 1_555 1_555
C11 C10 1_555 1_555
C12 C11 1_555 1_555
H9 C12 1_555 1_555
C13 C12 1_555 1_555
C14 C13 1_555 1_555
H10 C14 1_555 1_555
C15 C14 1_555 1_555
C16 C11 1_555 1_555
H11 C16 1_555 1_555
C17 C13 1_555 1_555
H12 C17 1_555 1_555
H13 C17 1_555 1_555
H14 C17 1_555 1_555
C18 C15 1_555 1_555
H15 C18 1_555 1_555
H16 C18 1_555 1_555
H17 C18 1_555 1_555
N2 C9 1_555 1_555
C6 C7 1_555 1_555
C15 C16 1_555 1_555

#END
