
#######################################################################
#
#                 Cambridge Crystallographic Data Centre
#                                CCDC 
#
#######################################################################
#
# If this CIF has been generated from an entry in the Cambridge 
# Structural Database, then it will include bibliographic, chemical, 
# crystal, experimental, refinement or atomic coordinate data resulting 
# from the CCDC's data processing and validation procedures.
#
#######################################################################

data_DUNVEO
_chemical_compound_source        'Aglaia smithii'
_chemical_name_common            
'(20S)-24,25-Dihydroxy-20,24-epoxy-3,4-secodammar-4(28)-en-3-oic acid'
_chemical_formula_moiety         'C30 H50 O5'
_chemical_name_systematic        
'3-(3-(5-Hydroxy-5-(2-hydroxypropan-2-yl)-2-methyltetrahydrofuran-2-yl)-6,9a,9b-trimethyl-7-(prop-1-en-2-yl)dodecahydro-1H-cyclopenta[a]naphthalen-6-yl)propanoic acid'
_symmetry_cell_setting           orthorhombic
_symmetry_space_group_name_H-M   'P 21 21 21'
_symmetry_Int_Tables_number      19
_space_group_name_Hall           'P 2ac 2ab'
loop_
_symmetry_equiv_pos_site_id
_symmetry_equiv_pos_as_xyz
1 x,y,z
2 1/2-x,-y,1/2+z
3 -x,1/2+y,1/2-z
4 1/2+x,1/2-y,-z
_cell_length_a                   7.73220(10)
_cell_length_b                   22.4976(4)
_cell_length_c                   31.6043(5)
_cell_angle_alpha                90
_cell_angle_beta                 90
_cell_angle_gamma                90
_cell_volume                     5497.76
_exptl_crystal_colour            colorless
_exptl_crystal_description       block
_cell_formula_units_Z            8
loop_
_atom_site_label
_atom_site_type_symbol
_atom_site_fract_x
_atom_site_fract_y
_atom_site_fract_z
O1 O 0.7294(4) 0.59393(14) 0.80831(11)
H1 H 0.8240 0.6111 0.8128
O2 O 0.9021(5) 0.51630(17) 0.79778(18)
O3 O 0.5230(3) 0.36487(13) 0.51958(8)
O4 O 0.6886(4) 0.44300(12) 0.49404(9)
H2 H 0.5922 0.4592 0.4982
O5 O 0.5052(4) 0.39226(15) 0.43025(9)
H3 H 0.5062 0.4267 0.4405
C1 C 0.7578(6) 0.5385(2) 0.79858(16)
C2 C 0.5988(5) 0.50533(19) 0.78545(15)
H7 H 0.5878 0.5071 0.7543
H8 H 0.4960 0.5250 0.7978
C3 C 0.6021(5) 0.44070(16) 0.79936(13)
H9 H 0.5926 0.4397 0.8306
H10 H 0.7166 0.4240 0.7919
C4 C 0.4605(5) 0.39870(16) 0.78083(12)
C5 C 0.5108(5) 0.33588(16) 0.79598(13)
H11 H 0.5372 0.3370 0.8263
H12 H 0.6128 0.3222 0.7803
H13 H 0.4144 0.3085 0.7909
C6 C 0.2795(5) 0.41845(16) 0.79768(12)
H14 H 0.2658 0.4610 0.7891
C7 C 0.2572(5) 0.41713(19) 0.84555(13)
C8 C 0.2569(7) 0.4730(2) 0.86775(15)
H15 H 0.2266 0.4663 0.8975
H16 H 0.1718 0.4997 0.8548
H17 H 0.3720 0.4910 0.8661
C9 C 0.2250(7) 0.3648(2) 0.86775(15)
H18 H 0.2030 0.3662 0.8973
H19 H 0.2250 0.3278 0.8533
C10 C 0.1322(5) 0.38449(19) 0.77585(13)
H20 H 0.1432 0.3416 0.7823
H21 H 0.0200 0.3984 0.7873
C11 C 0.1343(5) 0.39333(19) 0.72812(13)
H22 H 0.1119 0.4357 0.7218
H23 H 0.0393 0.3698 0.7154
C12 C 0.3060(4) 0.37500(15) 0.70726(12)
C13 C 0.3180(5) 0.30636(16) 0.70847(13)
H24 H 0.2470 0.2896 0.6857
H25 H 0.2760 0.2919 0.7358
H26 H 0.4386 0.2942 0.7046
C14 C 0.3139(5) 0.39729(16) 0.66023(12)
C15 C 0.2875(6) 0.46553(18) 0.65651(14)
H27 H 0.3691 0.4860 0.6753
H28 H 0.1689 0.4757 0.6647
H29 H 0.3079 0.4780 0.6272
C16 C 0.1854(5) 0.3694(2) 0.62816(13)
H30 H 0.1747 0.3261 0.6327
H31 H 0.0696 0.3879 0.6307
C17 C 0.2658(5) 0.3828(2) 0.58458(13)
H32 H 0.2169 0.4199 0.5727
H33 H 0.2426 0.3498 0.5646
C18 C 0.4646(5) 0.38968(18) 0.59222(12)
H34 H 0.4963 0.4320 0.5864
C19 C 0.4877(5) 0.37863(17) 0.63995(11)
H35 H 0.4984 0.3347 0.6438
C20 C 0.6392(5) 0.4069(2) 0.66317(13)
H36 H 0.6351 0.4506 0.6595
H37 H 0.7491 0.3923 0.6509
C21 C 0.6333(5) 0.39158(19) 0.71061(12)
H38 H 0.6595 0.3488 0.7142
H39 H 0.7245 0.4144 0.7254
C22 C 0.4582(4) 0.40510(16) 0.73132(12)
H40 H 0.4407 0.4486 0.7264
C23 C 0.5735(5) 0.35016(18) 0.56319(12)
C24 C 0.5401(6) 0.28394(18) 0.56902(14)
H41 H 0.4166 0.2758 0.5651
H42 H 0.5749 0.2720 0.5976
H43 H 0.6072 0.2615 0.5481
C25 C 0.7685(5) 0.3640(2) 0.56435(13)
H44 H 0.7898 0.4052 0.5740
H45 H 0.8303 0.3362 0.5833
C26 C 0.8245(5) 0.3557(2) 0.51893(13)
H46 H 0.8439 0.3132 0.5122
H47 H 0.9309 0.3785 0.5126
C27 C 0.6690(5) 0.38041(18) 0.49500(12)
C28 C 0.6429(5) 0.3572(2) 0.44935(13)
C29 C 0.8056(6) 0.3656(2) 0.42355(13)
H48 H 0.7845 0.3530 0.3943
H49 H 0.8991 0.3417 0.4357
H50 H 0.8388 0.4076 0.4239
C30 C 0.5795(7) 0.2937(2) 0.44868(17)
H51 H 0.5898 0.2777 0.4199
H52 H 0.4581 0.2924 0.4576
H53 H 0.6494 0.2697 0.4681
O6 O 1.1987(4) 0.42773(16) 0.46868(13)
H4 H 1.2929 0.4109 0.4631
O7 O 1.3750(4) 0.50166(15) 0.48684(13)
O8 O 1.0443(3) 0.65801(13) 0.75888(8)
O9 O 1.2105(4) 0.57900(12) 0.78355(10)
H5 H 1.1125 0.5634 0.7864
O10 O 1.0195(4) 0.63938(18) 0.84383(9)
H6 H 1.0447 0.6161 0.8637
C31 C 1.2290(5) 0.48154(19) 0.48244(14)
C32 C 1.0690(5) 0.51515(19) 0.49387(15)
H54 H 1.0532 0.5140 0.5249
H55 H 0.9677 0.4956 0.4807
C33 C 1.0769(5) 0.57956(18) 0.47940(12)
H56 H 1.0621 0.5802 0.4483
H57 H 1.1944 0.5948 0.4855
C34 C 0.9440(5) 0.62359(16) 0.49894(12)
C35 C 1.0015(6) 0.68495(18) 0.48339(13)
H58 H 1.0992 0.6988 0.5005
H59 H 0.9052 0.7130 0.4860
H60 H 1.0370 0.6823 0.4537
C36 C 0.7585(5) 0.60654(18) 0.48330(12)
H61 H 0.7412 0.5642 0.4918
C37 C 0.7305(5) 0.6083(2) 0.43542(13)
C38 C 0.7119(7) 0.5543(2) 0.41364(14)
H62 H 0.6871 0.5543 0.3842
H63 H 0.7241 0.5177 0.4283
C39 C 0.7118(7) 0.6628(2) 0.41294(16)
H64 H 0.6750 0.6545 0.3839
H65 H 0.8228 0.6838 0.4125
H66 H 0.6247 0.6875 0.4270
C40 C 0.6166(5) 0.6419(2) 0.50618(13)
H67 H 0.6317 0.6848 0.5003
H68 H 0.5019 0.6297 0.4953
C41 C 0.6240(5) 0.6313(2) 0.55383(13)
H69 H 0.6017 0.5887 0.5595
H70 H 0.5310 0.6545 0.5676
C42 C 0.7977(4) 0.64850(16) 0.57358(12)
C43 C 0.8121(6) 0.71613(18) 0.57232(13)
H71 H 0.8005 0.7299 0.5430
H72 H 0.9249 0.7283 0.5835
H73 H 0.7200 0.7336 0.5896
C44 C 0.8111(5) 0.62521(17) 0.62067(11)
C45 C 0.7762(6) 0.55771(18) 0.62425(13)
H74 H 0.8167 0.5434 0.6518
H75 H 0.8381 0.5368 0.6017
H76 H 0.6519 0.5502 0.6216
C46 C 0.6928(5) 0.6556(2) 0.65346(13)
H77 H 0.6904 0.6992 0.6492
H78 H 0.5732 0.6401 0.6516
C47 C 0.7754(5) 0.6398(2) 0.69631(13)
H79 H 0.7241 0.6028 0.7078
H80 H 0.7569 0.6723 0.7170
C48 C 0.9731(5) 0.63108(18) 0.68749(12)
H81 H 1.0034 0.5888 0.6937
C49 C 0.9898(4) 0.64121(16) 0.63916(11)
H82 H 1.0044 0.6850 0.6351
C50 C 1.1350(5) 0.61177(19) 0.61497(12)
H83 H 1.1259 0.5680 0.6177
H84 H 1.2478 0.6243 0.6268
C51 C 1.1247(4) 0.62944(18) 0.56807(12)
H85 H 1.1515 0.6723 0.5653
H86 H 1.2135 0.6071 0.5521
C52 C 0.9462(4) 0.61729(16) 0.54841(11)
H87 H 0.9265 0.5739 0.5535
C53 C 1.0877(5) 0.67116(17) 0.71490(12)
C54 C 1.0552(6) 0.73665(18) 0.70817(14)
H88 H 1.1175 0.7595 0.7297
H89 H 0.9310 0.7447 0.7104
H90 H 1.0961 0.7482 0.6800
C55 C 1.2821(5) 0.65641(19) 0.71187(13)
H91 H 1.3002 0.6149 0.7026
H92 H 1.3415 0.6835 0.6919
C56 C 1.3465(5) 0.66561(19) 0.75689(13)
H93 H 1.3673 0.7082 0.7630
H94 H 1.4537 0.6428 0.7624
C57 C 1.1936(5) 0.64126(17) 0.78243(12)
C58 C 1.1739(5) 0.6655(2) 0.82744(13)
C59 C 1.3286(6) 0.6499(2) 0.85434(14)
H95 H 1.3099 0.6642 0.8833
H96 H 1.4322 0.6688 0.8426
H97 H 1.3442 0.6067 0.8547
C60 C 1.1432(7) 0.7328(2) 0.82780(17)
H98 H 1.1197 0.7460 0.8568
H99 H 1.0440 0.7424 0.8097
H100 H 1.2463 0.7532 0.8171
loop_
_geom_bond_atom_site_label_1
_geom_bond_atom_site_label_2
_geom_bond_site_symmetry_1
_geom_bond_site_symmetry_2
O1 H1 1_555 1_555
O2 C1 1_555 1_555
O3 C23 1_555 1_555
O4 H2 1_555 1_555
O5 H3 1_555 1_555
O6 H4 1_555 1_555
O7 C31 1_555 1_555
O8 C53 1_555 1_555
O9 H5 1_555 1_555
O10 H6 1_555 1_555
C1 O1 1_555 1_555
C2 C1 1_555 1_555
H7 C2 1_555 1_555
H8 C2 1_555 1_555
C3 C2 1_555 1_555
H9 C3 1_555 1_555
H10 C3 1_555 1_555
C4 C3 1_555 1_555
C5 C4 1_555 1_555
H11 C5 1_555 1_555
H12 C5 1_555 1_555
H13 C5 1_555 1_555
C6 C4 1_555 1_555
H14 C6 1_555 1_555
C7 C6 1_555 1_555
C8 C7 1_555 1_555
H15 C8 1_555 1_555
H16 C8 1_555 1_555
H17 C8 1_555 1_555
C9 C7 1_555 1_555
H18 C9 1_555 1_555
H19 C9 1_555 1_555
C10 C6 1_555 1_555
H20 C10 1_555 1_555
H21 C10 1_555 1_555
C11 C10 1_555 1_555
H22 C11 1_555 1_555
H23 C11 1_555 1_555
C12 C11 1_555 1_555
C13 C12 1_555 1_555
H24 C13 1_555 1_555
H25 C13 1_555 1_555
H26 C13 1_555 1_555
C14 C12 1_555 1_555
C15 C14 1_555 1_555
H27 C15 1_555 1_555
H28 C15 1_555 1_555
H29 C15 1_555 1_555
C16 C14 1_555 1_555
H30 C16 1_555 1_555
H31 C16 1_555 1_555
C17 C16 1_555 1_555
H32 C17 1_555 1_555
H33 C17 1_555 1_555
C18 C17 1_555 1_555
H34 C18 1_555 1_555
C19 C14 1_555 1_555
H35 C19 1_555 1_555
C20 C19 1_555 1_555
H36 C20 1_555 1_555
H37 C20 1_555 1_555
C21 C20 1_555 1_555
H38 C21 1_555 1_555
H39 C21 1_555 1_555
C22 C4 1_555 1_555
H40 C22 1_555 1_555
C23 C18 1_555 1_555
C24 C23 1_555 1_555
H41 C24 1_555 1_555
H42 C24 1_555 1_555
H43 C24 1_555 1_555
C25 C23 1_555 1_555
H44 C25 1_555 1_555
H45 C25 1_555 1_555
C26 C25 1_555 1_555
H46 C26 1_555 1_555
H47 C26 1_555 1_555
C27 O3 1_555 1_555
C28 O5 1_555 1_555
C29 C28 1_555 1_555
H48 C29 1_555 1_555
H49 C29 1_555 1_555
H50 C29 1_555 1_555
C30 C28 1_555 1_555
H51 C30 1_555 1_555
H52 C30 1_555 1_555
H53 C30 1_555 1_555
C31 O6 1_555 1_555
C32 C31 1_555 1_555
H54 C32 1_555 1_555
H55 C32 1_555 1_555
C33 C32 1_555 1_555
H56 C33 1_555 1_555
H57 C33 1_555 1_555
C34 C33 1_555 1_555
C35 C34 1_555 1_555
H58 C35 1_555 1_555
H59 C35 1_555 1_555
H60 C35 1_555 1_555
C36 C34 1_555 1_555
H61 C36 1_555 1_555
C37 C36 1_555 1_555
C38 C37 1_555 1_555
H62 C38 1_555 1_555
H63 C38 1_555 1_555
C39 C37 1_555 1_555
H64 C39 1_555 1_555
H65 C39 1_555 1_555
H66 C39 1_555 1_555
C40 C36 1_555 1_555
H67 C40 1_555 1_555
H68 C40 1_555 1_555
C41 C40 1_555 1_555
H69 C41 1_555 1_555
H70 C41 1_555 1_555
C42 C41 1_555 1_555
C43 C42 1_555 1_555
H71 C43 1_555 1_555
H72 C43 1_555 1_555
H73 C43 1_555 1_555
C44 C42 1_555 1_555
C45 C44 1_555 1_555
H74 C45 1_555 1_555
H75 C45 1_555 1_555
H76 C45 1_555 1_555
C46 C44 1_555 1_555
H77 C46 1_555 1_555
H78 C46 1_555 1_555
C47 C46 1_555 1_555
H79 C47 1_555 1_555
H80 C47 1_555 1_555
C48 C47 1_555 1_555
H81 C48 1_555 1_555
C49 C44 1_555 1_555
H82 C49 1_555 1_555
C50 C49 1_555 1_555
H83 C50 1_555 1_555
H84 C50 1_555 1_555
C51 C50 1_555 1_555
H85 C51 1_555 1_555
H86 C51 1_555 1_555
C52 C34 1_555 1_555
H87 C52 1_555 1_555
C53 C48 1_555 1_555
C54 C53 1_555 1_555
H88 C54 1_555 1_555
H89 C54 1_555 1_555
H90 C54 1_555 1_555
C55 C53 1_555 1_555
H91 C55 1_555 1_555
H92 C55 1_555 1_555
C56 C55 1_555 1_555
H93 C56 1_555 1_555
H94 C56 1_555 1_555
C57 O8 1_555 1_555
C58 O10 1_555 1_555
C59 C58 1_555 1_555
H95 C59 1_555 1_555
H96 C59 1_555 1_555
H97 C59 1_555 1_555
C60 C58 1_555 1_555
H98 C60 1_555 1_555
H99 C60 1_555 1_555
H100 C60 1_555 1_555
O4 C27 1_555 1_555
O9 C57 1_555 1_555
C12 C22 1_555 1_555
C18 C19 1_555 1_555
C21 C22 1_555 1_555
C26 C27 1_555 1_555
C27 C28 1_555 1_555
C42 C52 1_555 1_555
C48 C49 1_555 1_555
C51 C52 1_555 1_555
C56 C57 1_555 1_555
C57 C58 1_555 1_555

#END
