
#######################################################################
#
#                 Cambridge Crystallographic Data Centre
#                                CCDC 
#
#######################################################################
#
# If this CIF has been generated from an entry in the Cambridge 
# Structural Database, then it will include bibliographic, chemical, 
# crystal, experimental, refinement or atomic coordinate data resulting 
# from the CCDC's data processing and validation procedures.
#
#######################################################################

data_DUNWOZ
_chemical_formula_moiety         'C19 H18 Cl2 O4'
_chemical_name_systematic        
3,9-bis(2-chlorophenyl)-2,4,8,10-tetraoxaspiro[5.5]undecane
_symmetry_cell_setting           monoclinic
_symmetry_space_group_name_H-M   'C 2/c'
_symmetry_Int_Tables_number      15
_space_group_name_Hall           '-C 2yn'
loop_
_symmetry_equiv_pos_site_id
_symmetry_equiv_pos_as_xyz
1 x,y,z
2 -x,y,1/2-z
3 1/2+x,1/2+y,z
4 1/2-x,1/2+y,1/2-z
5 -x,-y,-z
6 x,-y,1/2+z
7 1/2-x,1/2-y,-z
8 1/2+x,1/2-y,1/2+z
_cell_length_a                   10.7116(5)
_cell_length_b                   9.4693(5)
_cell_length_c                   17.7080(9)
_cell_angle_alpha                90
_cell_angle_beta                 106.7450(10)
_cell_angle_gamma                90
_cell_volume                     1719.98
_exptl_crystal_colour            yellow
_exptl_crystal_description       block
_chemical_melting_point          '418.5-419 K'
_cell_formula_units_Z            4
_exptl_crystal_recrystallization_method 'ethyl acetate'
loop_
_atom_site_label
_atom_site_type_symbol
_atom_site_fract_x
_atom_site_fract_y
_atom_site_fract_z
Cl1 Cl -0.05287(3) 0.53900(4) 0.14620(2)
O1 O 0.30941(9) 0.51739(10) 0.13408(5)
O2 O 0.31431(8) 0.34130(10) 0.22630(5)
C1 C -0.00068(12) 0.40843(14) 0.09327(7)
C2 C -0.09394(12) 0.34711(16) 0.03040(8)
H1 H -0.1815 0.3799 0.0160
C3 C -0.05826(13) 0.23835(18) -0.01081(8)
H2 H -0.1214 0.1960 -0.0539
C4 C 0.07000(15) 0.19038(18) 0.01047(9)
H3 H 0.0941 0.1134 -0.0168
C5 C 0.16221(13) 0.25578(16) 0.07170(8)
H4 H 0.2501 0.2242 0.0852
C6 C 0.12931(12) 0.36636(14) 0.11379(7)
C7 C 0.23515(12) 0.44177(14) 0.17524(8)
H5 H 0.1960 0.5084 0.2059
C8 C 0.40974(12) 0.59806(14) 0.18815(8)
H6 H 0.3692 0.6690 0.2148
H7 H 0.4614 0.6491 0.1586
C9 C 0.5000 0.50311(19) 0.2500
C10 C 0.41483(12) 0.41154(15) 0.28641(7)
H8 H 0.4699 0.3402 0.3216
H9 H 0.3743 0.4715 0.3187
Cl1A Cl 1.05287(3) 0.53900(4) 0.35380(2)
O1A O 0.69059(9) 0.51739(10) 0.36592(5)
O2A O 0.68569(8) 0.34130(10) 0.27370(5)
C1A C 1.00068(12) 0.40843(14) 0.40673(7)
C2A C 1.09394(12) 0.34711(16) 0.46960(8)
H1A H 1.1815 0.3799 0.4840
C3A C 1.05826(13) 0.23835(18) 0.51081(8)
H2A H 1.1214 0.1960 0.5539
C4A C 0.93000(15) 0.19038(18) 0.48953(9)
H3A H 0.9059 0.1134 0.5168
C5A C 0.83779(13) 0.25578(16) 0.42830(8)
H4A H 0.7499 0.2242 0.4148
C6A C 0.87069(12) 0.36636(14) 0.38621(7)
C7A C 0.76485(12) 0.44177(14) 0.32476(8)
H5A H 0.8040 0.5084 0.2941
C8A C 0.59026(12) 0.59806(14) 0.31185(8)
H6A H 0.6308 0.6690 0.2852
H7A H 0.5386 0.6491 0.3414
C10A C 0.58517(12) 0.41154(15) 0.21359(7)
H8A H 0.5301 0.3402 0.1784
H9A H 0.6257 0.4715 0.1813
loop_
_geom_bond_atom_site_label_1
_geom_bond_atom_site_label_2
_geom_bond_site_symmetry_1
_geom_bond_site_symmetry_2
Cl1 C1 1_555 1_555
O1 C7 1_555 1_555
O2 C7 1_555 1_555
C1 C2 1_555 1_555
C2 H1 1_555 1_555
C3 C2 1_555 1_555
H2 C3 1_555 1_555
C4 C3 1_555 1_555
H3 C4 1_555 1_555
C5 C4 1_555 1_555
H4 C5 1_555 1_555
C6 C1 1_555 1_555
C7 C6 1_555 1_555
H5 C7 1_555 1_555
C8 O1 1_555 1_555
H6 C8 1_555 1_555
H7 C8 1_555 1_555
C9 C8 1_555 1_555
C10 O2 1_555 1_555
H8 C10 1_555 1_555
H9 C10 1_555 1_555
Cl1A C1A 1_555 1_555
O1A C7A 1_555 1_555
O2A C7A 1_555 1_555
C1A C2A 1_555 1_555
C2A H1A 1_555 1_555
C3A C2A 1_555 1_555
H2A C3A 1_555 1_555
C4A C3A 1_555 1_555
H3A C4A 1_555 1_555
C5A C4A 1_555 1_555
H4A C5A 1_555 1_555
C6A C1A 1_555 1_555
C7A C6A 1_555 1_555
H5A C7A 1_555 1_555
C8A C9 1_555 1_555
H6A C8A 1_555 1_555
H7A C8A 1_555 1_555
C10A C9 1_555 1_555
H8A C10A 1_555 1_555
H9A C10A 1_555 1_555
C5 C6 1_555 1_555
C9 C10 1_555 1_555
O1A C8A 1_555 1_555
O2A C10A 1_555 1_555
C5A C6A 1_555 1_555

#END
