
#######################################################################
#
#                 Cambridge Crystallographic Data Centre
#                                CCDC 
#
#######################################################################
#
# If this CIF has been generated from an entry in the Cambridge 
# Structural Database, then it will include bibliographic, chemical, 
# crystal, experimental, refinement or atomic coordinate data resulting 
# from the CCDC's data processing and validation procedures.
#
#######################################################################

data_DUNXAM
_chemical_name_common            
'2-(1H-Indol-3-yl)-4,4,5,5-tetramethylimidazolidine-1-oxyl 3-oxide'
_chemical_formula_moiety         'C15 H18 N3 O2'
_chemical_name_systematic        
2-(1H-Indol-3-yl)-4,4,5,5-tetramethyl-4,5-dihydro-1H-imidazole-1,3-diol
_symmetry_cell_setting           orthorhombic
_symmetry_space_group_name_H-M   'P c a 21'
_symmetry_Int_Tables_number      29
_space_group_name_Hall           'P 2c -2ac'
loop_
_symmetry_equiv_pos_site_id
_symmetry_equiv_pos_as_xyz
1 x,y,z
2 -x,-y,1/2+z
3 1/2+x,-y,z
4 1/2-x,y,1/2+z
_cell_length_a                   15.0810(15)
_cell_length_b                   8.7700(8)
_cell_length_c                   10.6108(10)
_cell_angle_alpha                90
_cell_angle_beta                 90
_cell_angle_gamma                90
_cell_volume                     1403.39
_exptl_crystal_colour            blue
_exptl_crystal_description       block
_cell_formula_units_Z            4
_exptl_crystal_recrystallization_method n-heptane/dichloromethane
loop_
_atom_site_label
_atom_site_type_symbol
_atom_site_fract_x
_atom_site_fract_y
_atom_site_fract_z
N1 N -0.01319(14) 1.0261(2) 0.9413(2)
H1 H -0.0087 1.0928 1.0004
N2 N 0.11909(10) 0.60749(18) 0.83997(15)
N3 N 0.05128(10) 0.62465(17) 0.65920(15)
O1 O 0.14925(11) 0.64081(18) 0.94892(14)
O2 O 0.01465(11) 0.68277(17) 0.56075(14)
C1 C -0.08282(15) 1.0156(2) 0.8579(2)
C2 C -0.16017(18) 1.1028(3) 0.8506(3)
H2 H -0.1707 1.1825 0.9064
C3 C -0.21965(16) 1.0666(3) 0.7587(4)
H3 H -0.2715 1.1234 0.7516
C4 C -0.20480(15) 0.9465(3) 0.6750(3)
H4 H -0.2463 0.9255 0.6126
C5 C -0.12892(14) 0.8583(2) 0.6839(2)
H5 H -0.1201 0.7769 0.6292
C6 C -0.06560(13) 0.8930(2) 0.7760(2)
C7 C 0.01895(13) 0.8304(2) 0.81520(18)
C8 C 0.04679(15) 0.9165(2) 0.9167(2)
H6 H 0.0991 0.9010 0.9614
C9 C 0.06218(12) 0.6932(2) 0.77161(18)
C10 C 0.15347(12) 0.4734(2) 0.76668(19)
C11 C 0.24518(16) 0.5183(2) 0.7176(2)
H7 H 0.2395 0.6018 0.6597
H8 H 0.2715 0.4328 0.6752
H9 H 0.2821 0.5483 0.7870
C12 C 0.15962(15) 0.3356(2) 0.8531(2)
H10 H 0.2043 0.3532 0.9158
H11 H 0.1749 0.2471 0.8045
H12 H 0.1035 0.3195 0.8936
C13 C 0.08199(13) 0.4624(2) 0.66190(19)
C14 C 0.00154(14) 0.3668(2) 0.6989(2)
H13 H -0.0183 0.3965 0.7813
H14 H 0.0176 0.2609 0.6997
H15 H -0.0453 0.3829 0.6391
C15 C 0.11578(16) 0.4160(3) 0.5331(2)
H16 H 0.0674 0.4150 0.4743
H17 H 0.1415 0.3161 0.5379
H18 H 0.1598 0.4876 0.5054
loop_
_geom_bond_atom_site_label_1
_geom_bond_atom_site_label_2
_geom_bond_site_symmetry_1
_geom_bond_site_symmetry_2
N1 H1 1_555 1_555
N2 O1 1_555 1_555
N3 O2 1_555 1_555
C1 N1 1_555 1_555
C2 C1 1_555 1_555
H2 C2 1_555 1_555
C3 C2 1_555 1_555
H3 C3 1_555 1_555
C4 C3 1_555 1_555
H4 C4 1_555 1_555
C5 C4 1_555 1_555
H5 C5 1_555 1_555
C6 C1 1_555 1_555
C7 C6 1_555 1_555
C8 N1 1_555 1_555
H6 C8 1_555 1_555
C9 N2 1_555 1_555
C10 N2 1_555 1_555
C11 C10 1_555 1_555
H7 C11 1_555 1_555
H8 C11 1_555 1_555
H9 C11 1_555 1_555
C12 C10 1_555 1_555
H10 C12 1_555 1_555
H11 C12 1_555 1_555
H12 C12 1_555 1_555
C13 N3 1_555 1_555
C14 C13 1_555 1_555
H13 C14 1_555 1_555
H14 C14 1_555 1_555
H15 C14 1_555 1_555
C15 C13 1_555 1_555
H16 C15 1_555 1_555
H17 C15 1_555 1_555
H18 C15 1_555 1_555
N3 C9 1_555 1_555
C5 C6 1_555 1_555
C7 C8 1_555 1_555
C7 C9 1_555 1_555
C10 C13 1_555 1_555

#END
