
#######################################################################
#
#                 Cambridge Crystallographic Data Centre
#                                CCDC 
#
#######################################################################
#
# If this CIF has been generated from an entry in the Cambridge 
# Structural Database, then it will include bibliographic, chemical, 
# crystal, experimental, refinement or atomic coordinate data resulting 
# from the CCDC's data processing and validation procedures.
#
#######################################################################

data_DUNXAM01
_chemical_formula_moiety         'C15 H18 N3 O2'
_chemical_name_systematic        
2-(1H-Indol-3-yl)-4,4,5,5-tetramethyl-4,5-dihydro-1H-3\l^5^-imidazole-1,3-diol
_symmetry_cell_setting           orthorhombic
_symmetry_space_group_name_H-M   'P n a 21'
_symmetry_Int_Tables_number      33
_space_group_name_Hall           'P 2c -2n'
loop_
_symmetry_equiv_pos_site_id
_symmetry_equiv_pos_as_xyz
1 x,y,z
2 -x,-y,1/2+z
3 1/2+x,1/2-y,z
4 1/2-x,1/2+y,1/2+z
_cell_length_a                   11.114(7)
_cell_length_b                   9.931(6)
_cell_length_c                   12.877(8)
_cell_angle_alpha                90
_cell_angle_beta                 90
_cell_angle_gamma                90
_cell_volume                     1421.27
_cell_formula_units_Z            4
loop_
_atom_site_label
_atom_site_type_symbol
_atom_site_fract_x
_atom_site_fract_y
_atom_site_fract_z
N1 N 0.7034(4) 0.0212(4) 0.7518(3)
N2 N 0.7852(3) 0.0869(4) 0.6082(4)
N3 N 1.0625(4) -0.1153(4) 0.8308(3)
H1 H 1.1020 -0.1315 0.8869
O1 O 0.6910(4) -0.0354(4) 0.8405(3)
O2 O 0.8677(4) 0.1158(4) 0.5401(3)
C1 C 0.8051(4) 0.0158(5) 0.6947(4)
C2 C 0.6071(5) 0.1053(6) 0.7053(5)
C3 C 0.6613(4) 0.1418(5) 0.5987(4)
C4 C 0.5862(10) 0.2202(9) 0.7781(7)
H2 H 0.6576 0.2744 0.7820
H3 H 0.5671 0.1860 0.8458
H4 H 0.5206 0.2741 0.7531
C5 C 0.4976(6) 0.0144(12) 0.6983(8)
H5 H 0.5141 -0.0586 0.6516
H6 H 0.4302 0.0652 0.6729
H7 H 0.4792 -0.0208 0.7659
C6 C 0.6711(6) 0.2898(6) 0.5784(7)
H8 H 0.7106 0.3326 0.6359
H9 H 0.5921 0.3272 0.5701
H10 H 0.7169 0.3045 0.5162
C7 C 0.6020(6) 0.0773(10) 0.5072(6)
H11 H 0.5934 -0.0176 0.5195
H12 H 0.6504 0.0913 0.4464
H13 H 0.5240 0.1167 0.4968
C8 C 0.9479(5) -0.0644(5) 0.8263(4)
H14 H 0.9001 -0.0440 0.8834
C9 C 0.9148(4) -0.0481(4) 0.7243(4)
C10 C 1.0137(4) -0.0973(5) 0.6612(4)
C11 C 1.0339(5) -0.1177(5) 0.5558(4)
H15 H 0.9748 -0.0972 0.5072
C12 C 1.1428(5) -0.1685(5) 0.5253(5)
H16 H 1.1565 -0.1820 0.4548
C13 C 1.2328(5) -0.2003(6) 0.5944(6)
H17 H 1.3061 -0.2331 0.5703
C14 C 1.2148(5) -0.1841(5) 0.6963(5)
H18 H 1.2756 -0.2045 0.7433
C15 C 1.1041(4) -0.1364(5) 0.7316(4)
loop_
_geom_bond_atom_site_label_1
_geom_bond_atom_site_label_2
_geom_bond_site_symmetry_1
_geom_bond_site_symmetry_2
N1 O1 1_555 1_555
N2 O2 1_555 1_555
N3 H1 1_555 1_555
C1 N1 1_555 1_555
C2 N1 1_555 1_555
C3 N2 1_555 1_555
C4 C2 1_555 1_555
H2 C4 1_555 1_555
H3 C4 1_555 1_555
H4 C4 1_555 1_555
C5 C2 1_555 1_555
H5 C5 1_555 1_555
H6 C5 1_555 1_555
H7 C5 1_555 1_555
C6 C3 1_555 1_555
H8 C6 1_555 1_555
H9 C6 1_555 1_555
H10 C6 1_555 1_555
C7 C3 1_555 1_555
H11 C7 1_555 1_555
H12 C7 1_555 1_555
H13 C7 1_555 1_555
C8 N3 1_555 1_555
H14 C8 1_555 1_555
C9 C1 1_555 1_555
C10 C9 1_555 1_555
C11 C10 1_555 1_555
H15 C11 1_555 1_555
C12 C11 1_555 1_555
H16 C12 1_555 1_555
C13 C12 1_555 1_555
H17 C13 1_555 1_555
C14 C13 1_555 1_555
H18 C14 1_555 1_555
C15 N3 1_555 1_555
N2 C1 1_555 1_555
C2 C3 1_555 1_555
C8 C9 1_555 1_555
C10 C15 1_555 1_555
C14 C15 1_555 1_555

#END
