
#######################################################################
#
#                 Cambridge Crystallographic Data Centre
#                                CCDC 
#
#######################################################################
#
# If this CIF has been generated from an entry in the Cambridge 
# Structural Database, then it will include bibliographic, chemical, 
# crystal, experimental, refinement or atomic coordinate data resulting 
# from the CCDC's data processing and validation procedures.
#
#######################################################################

data_DUPBOG
_chemical_formula_moiety         'C13 H14 N2 O2'
_chemical_name_systematic        
1-Methyl-2,3,4,9-tetrahydro-1H-\b-carbolin-2-ium-3-carboxylate
_symmetry_cell_setting           orthorhombic
_symmetry_space_group_name_H-M   'P 21 21 21'
_symmetry_Int_Tables_number      19
_space_group_name_Hall           'P 2ac 2ab'
loop_
_symmetry_equiv_pos_site_id
_symmetry_equiv_pos_as_xyz
1 x,y,z
2 1/2-x,-y,1/2+z
3 -x,1/2+y,1/2-z
4 1/2+x,1/2-y,-z
_cell_length_a                   4.9772(8)
_cell_length_b                   14.520(2)
_cell_length_c                   15.307(2)
_cell_angle_alpha                90
_cell_angle_beta                 90
_cell_angle_gamma                90
_cell_volume                     1106.22
_exptl_crystal_colour            colorless
_exptl_crystal_description       needle
_cell_formula_units_Z            4
_exptl_crystal_recrystallization_method methanol/water
loop_
_atom_site_label
_atom_site_type_symbol
_atom_site_fract_x
_atom_site_fract_y
_atom_site_fract_z
N1 N 0.3184(7) 0.56276(18) 0.71317(15)
H1 H 0.2878 0.5045 0.7104
N2 N -0.0123(6) 0.67564(14) 0.90152(14)
H2 H -0.1486 0.6668 0.9393
H3 H 0.1421 0.6729 0.9320
O1 O -0.0135(5) 0.82385(13) 1.00915(13)
O2 O -0.2002(7) 0.91384(15) 0.90704(15)
C1 C 0.4997(7) 0.6110(2) 0.66226(19)
C2 C 0.6786(8) 0.5800(3) 0.59940(19)
H4 H 0.6826 0.5183 0.5830
C3 C 0.8495(8) 0.6429(3) 0.5621(2)
H5 H 0.9745 0.6232 0.5209
C4 C 0.8388(8) 0.7364(3) 0.5849(2)
H6 H 0.9523 0.7782 0.5574
C5 C 0.6633(8) 0.7669(3) 0.6473(2)
H7 H 0.6573 0.8290 0.6622
C6 C 0.4939(7) 0.7043(2) 0.68836(19)
C7 C 0.2982(7) 0.7105(2) 0.75634(17)
C8 C 0.2132(7) 0.7924(2) 0.8087(2)
H8 H 0.1759 0.8437 0.7699
H9 H 0.3574 0.8105 0.8477
C9 C -0.0383(7) 0.7696(2) 0.86201(19)
H10 H -0.1924 0.7690 0.8222
C10 C -0.0145(7) 0.59951(19) 0.83517(18)
H11 H -0.1902 0.5989 0.8062
C11 C 0.1945(8) 0.6245(2) 0.76945(19)
C12 C 0.0263(10) 0.5078(2) 0.8807(2)
H12 H 0.1971 0.5078 0.9098
H13 H 0.0219 0.4591 0.8383
H14 H -0.1142 0.4986 0.9228
C13 C -0.0897(7) 0.8423(2) 0.9318(2)
loop_
_geom_bond_atom_site_label_1
_geom_bond_atom_site_label_2
_geom_bond_site_symmetry_1
_geom_bond_site_symmetry_2
N1 H1 1_555 1_555
N2 H2 1_555 1_555
H3 N2 1_555 1_555
O1 C13 1_555 1_555
O2 C13 1_555 1_555
C1 N1 1_555 1_555
C2 C1 1_555 1_555
H4 C2 1_555 1_555
C3 C2 1_555 1_555
H5 C3 1_555 1_555
C4 C3 1_555 1_555
H6 C4 1_555 1_555
C5 C4 1_555 1_555
H7 C5 1_555 1_555
C6 C1 1_555 1_555
C7 C6 1_555 1_555
C8 C7 1_555 1_555
H8 C8 1_555 1_555
H9 C8 1_555 1_555
C9 N2 1_555 1_555
H10 C9 1_555 1_555
C10 N2 1_555 1_555
H11 C10 1_555 1_555
C11 N1 1_555 1_555
C12 C10 1_555 1_555
H12 C12 1_555 1_555
H13 C12 1_555 1_555
H14 C12 1_555 1_555
C13 C9 1_555 1_555
C5 C6 1_555 1_555
C7 C11 1_555 1_555
C8 C9 1_555 1_555
C10 C11 1_555 1_555

#END
