
#######################################################################
#
#                 Cambridge Crystallographic Data Centre
#                                CCDC 
#
#######################################################################
#
# If this CIF has been generated from an entry in the Cambridge 
# Structural Database, then it will include bibliographic, chemical, 
# crystal, experimental, refinement or atomic coordinate data resulting 
# from the CCDC's data processing and validation procedures.
#
#######################################################################

data_DUPCUO
_chemical_formula_moiety         'C33 H27 F2 N1 O4'
_chemical_name_systematic        
'benzyl 3-(1-(2-(benzyloxy)-2-oxoethyl)-6-fluoro-3-(4-fluorophenyl)-1H-isoindol-1-yl)propanoate'
_symmetry_cell_setting           triclinic
_symmetry_space_group_name_H-M   'P -1'
_symmetry_Int_Tables_number      2
_space_group_name_Hall           '-P 1'
loop_
_symmetry_equiv_pos_site_id
_symmetry_equiv_pos_as_xyz
1 x,y,z
2 -x,-y,-z
_cell_length_a                   7.9794(13)
_cell_length_b                   12.355(2)
_cell_length_c                   27.870(4)
_cell_angle_alpha                83.268(3)
_cell_angle_beta                 84.119(3)
_cell_angle_gamma                89.549(3)
_cell_volume                     2714.25
_exptl_crystal_colour            colorless
_exptl_crystal_description       prismatic
_cell_formula_units_Z            4
loop_
_atom_site_label
_atom_site_type_symbol
_atom_site_fract_x
_atom_site_fract_y
_atom_site_fract_z
F1 F -0.3207(5) 0.3060(3) 0.37688(16)
F2 F 0.2212(6) 0.2938(4) 0.02659(15)
N1 N -0.0808(4) 0.0305(3) 0.22440(13)
O1 O -0.4552(5) 0.0916(3) 0.22051(15)
O2 O -0.5338(5) -0.0802(3) 0.22174(13)
O3 O 0.1401(5) -0.1653(3) 0.37458(16)
O4 O 0.3104(4) -0.0239(3) 0.37068(12)
C1 C -0.1108(6) 0.1980(4) 0.25201(19)
C2 C -0.1017(6) 0.3085(4) 0.2577(2)
H1 H -0.0493 0.3580 0.2331
C3 C -0.1717(8) 0.3424(5) 0.3003(3)
H2 H -0.1655 0.4154 0.3051
C4 C -0.2506(7) 0.2691(6) 0.3357(3)
C5 C -0.2617(6) 0.1594(5) 0.3317(2)
H3 H -0.3158 0.1110 0.3564
C6 C -0.1886(6) 0.1253(4) 0.28928(18)
C7 C -0.1689(5) 0.0123(3) 0.27421(16)
C8 C -0.0526(6) 0.1334(4) 0.21266(17)
C9 C 0.0214(6) 0.1769(4) 0.16344(19)
C10 C -0.0187(7) 0.1287(4) 0.1242(2)
H4 H -0.0912 0.0690 0.1288
C11 C 0.0478(8) 0.1682(5) 0.0778(2)
H5 H 0.0209 0.1355 0.0512
C12 C 0.1526(8) 0.2551(6) 0.0718(2)
C13 C 0.1945(8) 0.3049(5) 0.1097(3)
H6 H 0.2669 0.3646 0.1045
C14 C 0.1284(7) 0.2657(5) 0.1561(2)
H7 H 0.1559 0.2992 0.1825
C15 C -0.3326(6) -0.0498(4) 0.27272(17)
H8 H -0.3046 -0.1237 0.2664
H9 H -0.3956 -0.0539 0.3046
C16 C -0.4444(6) -0.0025(4) 0.23593(19)
C17 C -0.6397(7) -0.0479(6) 0.1833(2)
H10 H -0.6898 0.0225 0.1878
H11 H -0.7300 -0.1006 0.1846
C18 C -0.5376(7) -0.0411(5) 0.1350(2)
C19 C -0.4660(9) -0.1315(6) 0.1177(3)
H12 H -0.4818 -0.1988 0.1364
C20 C -0.3738(12) -0.1258(9) 0.0747(4)
H13 H -0.3250 -0.1886 0.0641
C21 C -0.3508(12) -0.0291(13) 0.0462(3)
H14 H -0.2886 -0.0257 0.0159
C22 C -0.4204(12) 0.0638(8) 0.0625(3)
H15 H -0.4052 0.1308 0.0435
C23 C -0.5120(9) 0.0564(6) 0.1069(3)
H16 H -0.5579 0.1193 0.1182
C24 C -0.0621(6) -0.0609(3) 0.30772(17)
H17 H -0.1283 -0.0792 0.3387
H18 H -0.0386 -0.1282 0.2936
C25 C 0.1040(6) -0.0116(4) 0.31679(18)
H19 H 0.1803 -0.0068 0.2872
H20 H 0.0844 0.0618 0.3252
C26 C 0.1839(6) -0.0764(4) 0.35627(17)
C27 C 0.3870(7) -0.0761(5) 0.4130(2)
H21 H 0.5016 -0.0522 0.4117
H22 H 0.3846 -0.1532 0.4120
C28 C 0.2983(11) -0.0541(8) 0.4570(2)
C29 C 0.2901(11) 0.0453(7) 0.4759(3)
H23 H 0.3462 0.1058 0.4588
C30 C 0.1980(13) 0.0542(7) 0.5203(3)
H24 H 0.1925 0.1207 0.5330
C31 C 0.1141(12) -0.0363(9) 0.5459(2)
H25 H 0.0525 -0.0303 0.5757
C32 C 0.1223(12) -0.1356(7) 0.5270(3)
H26 H 0.0662 -0.1962 0.5441
C33 C 0.2144(13) -0.1446(6) 0.4826(3)
H27 H 0.2199 -0.2111 0.4699
F3 F 0.1771(5) 0.2561(3) 0.37948(17)
F4 F 0.6964(6) 0.4387(4) 0.02763(15)
N2 N 0.4141(4) 0.6087(3) 0.22532(13)
O5 O 0.0413(5) 0.5498(3) 0.22272(15)
O6 O -0.0439(4) 0.7202(3) 0.22443(13)
O7 O 0.6392(5) 0.7289(3) 0.37397(17)
O8 O 0.8100(4) 0.5881(3) 0.37116(12)
C34 C 0.3851(5) 0.4263(3) 0.25445(18)
C35 C 0.3943(6) 0.3130(4) 0.2595(2)
H28 H 0.4456 0.2765 0.2346
C36 C 0.3266(7) 0.2576(5) 0.3016(3)
H29 H 0.3331 0.1820 0.3063
C37 C 0.2482(7) 0.3130(6) 0.3374(3)
C38 C 0.2373(6) 0.4258(5) 0.3338(2)
H30 H 0.1846 0.4618 0.3586
C39 C 0.3094(5) 0.4807(4) 0.29103(17)
C40 C 0.3292(5) 0.6015(3) 0.27524(15)
C41 C 0.4426(5) 0.5112(4) 0.21428(17)
C42 C 0.5138(6) 0.4909(4) 0.16525(18)
C43 C 0.4692(6) 0.5587(4) 0.12568(19)
H31 H 0.3963 0.6164 0.1304
C44 C 0.5318(8) 0.5415(5) 0.0793(2)
H32 H 0.5034 0.5875 0.0525
C45 C 0.6369(8) 0.4550(6) 0.0736(3)
C46 C 0.6840(8) 0.3877(6) 0.1112(3)
H33 H 0.7576 0.3306 0.1060
C47 C 0.6212(6) 0.4049(4) 0.1574(2)
H34 H 0.6513 0.3581 0.1838
C48 C 0.1635(6) 0.6652(4) 0.27400(17)
H35 H 0.1024 0.6542 0.3061
H36 H 0.1902 0.7422 0.2669
C49 C 0.0495(6) 0.6357(4) 0.23807(18)
C50 C -0.1505(7) 0.7080(6) 0.1860(2)
H37 H -0.2386 0.7625 0.1863
H38 H -0.2037 0.6366 0.1916
C51 C -0.0492(6) 0.7204(4) 0.13787(19)
C52 C 0.0306(9) 0.8160(5) 0.1201(3)
H39 H 0.0219 0.8746 0.1383
C53 C 0.1245(10) 0.8265(8) 0.0753(4)
H40 H 0.1800 0.8917 0.0637
C54 C 0.1355(11) 0.7422(9) 0.0484(3)
H41 H 0.1975 0.7500 0.0181
C55 C 0.0585(10) 0.6479(7) 0.0649(3)
H42 H 0.0662 0.5903 0.0461
C56 C -0.0331(8) 0.6360(5) 0.1102(2)
H43 H -0.0845 0.5695 0.1219
C57 C 0.4356(5) 0.6581(3) 0.30777(16)
H44 H 0.3690 0.6630 0.3386
H45 H 0.4596 0.7319 0.2927
C58 C 0.6016(6) 0.6029(4) 0.31787(17)
H46 H 0.5815 0.5257 0.3274
H47 H 0.6780 0.6107 0.2883
C59 C 0.6827(6) 0.6491(4) 0.35671(17)
C60 C 0.8853(7) 0.6193(5) 0.4133(2)
H48 H 0.8842 0.6973 0.4113
H49 H 0.9990 0.5938 0.4127
C61 C 0.7916(12) 0.5764(8) 0.4587(3)
C62 C 0.7718(12) 0.4690(7) 0.4798(4)
H50 H 0.8267 0.4132 0.4648
C63 C 0.6699(14) 0.4449(7) 0.5232(4)
H51 H 0.6566 0.3731 0.5373
C64 C 0.5879(13) 0.5283(9) 0.5455(3)
H52 H 0.5197 0.5122 0.5746
C65 C 0.6077(13) 0.6357(8) 0.5244(4)
H53 H 0.5529 0.6914 0.5394
C66 C 0.7096(14) 0.6597(6) 0.4810(3)
H54 H 0.7229 0.7315 0.4669
H55? H 0.4356 -0.1432 0.4039
H56? H 0.3006 -0.0912 0.4389
C67? C 0.5134(16) -0.0094(11) 0.4284(5)
C68? C 0.4748(17) 0.0924(11) 0.4426(5)
H57? H 0.3642 0.1171 0.4443
C69? C 0.6016(16) 0.1566(12) 0.4541(5)
H58? H 0.5782 0.2264 0.4624
C70? C 0.7681(17) 0.1156(12) 0.4533(5)
H59? H 0.8569 0.1599 0.4583
C71? C 0.7970(17) 0.0049(12) 0.4447(5)
H60? H 0.8994 -0.0288 0.4498
C72? C 0.6731(15) -0.0483(11) 0.4292(5)
H61? H 0.6967 -0.1157 0.4184
H62? H 0.7984 0.6200 0.4399
H63? H 0.9324 0.6900 0.4039
C73? C 1.0105(18) 0.5455(11) 0.4279(5)
C74? C 1.1752(16) 0.5835(11) 0.4299(5)
H64? H 1.1984 0.6563 0.4188
C75? C 1.3039(17) 0.5211(11) 0.4470(5)
H65? H 1.4052 0.5526 0.4520
C76? C 1.2786(17) 0.4107(11) 0.4564(5)
H66? H 1.3674 0.3645 0.4637
C77? C 1.1088(17) 0.3663(11) 0.4547(5)
H67? H 1.0930 0.2912 0.4595
C78? C 0.9625(18) 0.4373(11) 0.4455(5)
H68? H 0.8513 0.4133 0.4507
loop_
_geom_bond_atom_site_label_1
_geom_bond_atom_site_label_2
_geom_bond_site_symmetry_1
_geom_bond_site_symmetry_2
F1 C4 1_555 1_555
F2 C12 1_555 1_555
N1 C7 1_555 1_555
O1 C16 1_555 1_555
O2 C16 1_555 1_555
O3 C26 1_555 1_555
O4 C26 1_555 1_555
C1 C2 1_555 1_555
C2 H1 1_555 1_555
C3 C2 1_555 1_555
H2 C3 1_555 1_555
C4 C3 1_555 1_555
C5 C4 1_555 1_555
H3 C5 1_555 1_555
C6 C1 1_555 1_555
C7 C6 1_555 1_555
C8 N1 1_555 1_555
C9 C8 1_555 1_555
C10 C9 1_555 1_555
H4 C10 1_555 1_555
C11 C10 1_555 1_555
H5 C11 1_555 1_555
C12 C11 1_555 1_555
C13 C12 1_555 1_555
H6 C13 1_555 1_555
C14 C9 1_555 1_555
H7 C14 1_555 1_555
C15 C7 1_555 1_555
H8 C15 1_555 1_555
H9 C15 1_555 1_555
C16 C15 1_555 1_555
C17 O2 1_555 1_555
H10 C17 1_555 1_555
H11 C17 1_555 1_555
C18 C17 1_555 1_555
C19 C18 1_555 1_555
H12 C19 1_555 1_555
C20 C19 1_555 1_555
H13 C20 1_555 1_555
C21 C20 1_555 1_555
H14 C21 1_555 1_555
C22 C21 1_555 1_555
H15 C22 1_555 1_555
C23 C18 1_555 1_555
H16 C23 1_555 1_555
C24 C7 1_555 1_555
H17 C24 1_555 1_555
H18 C24 1_555 1_555
C25 C24 1_555 1_555
H19 C25 1_555 1_555
H20 C25 1_555 1_555
C26 C25 1_555 1_555
C27 O4 1_555 1_555
H21 C27 1_555 1_555
H22 C27 1_555 1_555
C28 C27 1_555 1_555
C29 C28 1_555 1_555
H23 C29 1_555 1_555
C30 C29 1_555 1_555
H24 C30 1_555 1_555
C31 C30 1_555 1_555
H25 C31 1_555 1_555
C32 C31 1_555 1_555
H26 C32 1_555 1_555
C33 C28 1_555 1_555
H27 C33 1_555 1_555
F3 C37 1_555 1_555
F4 C45 1_555 1_555
N2 C40 1_555 1_555
O5 C49 1_555 1_555
O6 C49 1_555 1_555
O7 C59 1_555 1_555
O8 C59 1_555 1_555
C34 C35 1_555 1_555
C35 H28 1_555 1_555
C36 C35 1_555 1_555
H29 C36 1_555 1_555
C37 C36 1_555 1_555
C38 C37 1_555 1_555
H30 C38 1_555 1_555
C39 C34 1_555 1_555
C40 C39 1_555 1_555
C41 N2 1_555 1_555
C42 C41 1_555 1_555
C43 C42 1_555 1_555
H31 C43 1_555 1_555
C44 C43 1_555 1_555
H32 C44 1_555 1_555
C45 C44 1_555 1_555
C46 C45 1_555 1_555
H33 C46 1_555 1_555
C47 C42 1_555 1_555
H34 C47 1_555 1_555
C48 C40 1_555 1_555
H35 C48 1_555 1_555
H36 C48 1_555 1_555
C49 C48 1_555 1_555
C50 O6 1_555 1_555
H37 C50 1_555 1_555
H38 C50 1_555 1_555
C51 C50 1_555 1_555
C52 C51 1_555 1_555
H39 C52 1_555 1_555
C53 C52 1_555 1_555
H40 C53 1_555 1_555
C54 C53 1_555 1_555
H41 C54 1_555 1_555
C55 C54 1_555 1_555
H42 C55 1_555 1_555
C56 C51 1_555 1_555
H43 C56 1_555 1_555
C57 C40 1_555 1_555
H44 C57 1_555 1_555
H45 C57 1_555 1_555
C58 C57 1_555 1_555
H46 C58 1_555 1_555
H47 C58 1_555 1_555
C59 C58 1_555 1_555
C60 O8 1_555 1_555
H48 C60 1_555 1_555
H49 C60 1_555 1_555
C61 C60 1_555 1_555
C62 C61 1_555 1_555
H50 C62 1_555 1_555
C63 C62 1_555 1_555
H51 C63 1_555 1_555
C64 C63 1_555 1_555
H52 C64 1_555 1_555
C65 C64 1_555 1_555
H53 C65 1_555 1_555
C66 C61 1_555 1_555
H54 C66 1_555 1_555
C1 C8 1_555 1_555
C5 C6 1_555 1_555
C13 C14 1_555 1_555
C22 C23 1_555 1_555
C32 C33 1_555 1_555
C34 C41 1_555 1_555
C38 C39 1_555 1_555
C46 C47 1_555 1_555
C55 C56 1_555 1_555
C65 C66 1_555 1_555

#END
