
#######################################################################
#
#                 Cambridge Crystallographic Data Centre
#                                CCDC 
#
#######################################################################
#
# If this CIF has been generated from an entry in the Cambridge 
# Structural Database, then it will include bibliographic, chemical, 
# crystal, experimental, refinement or atomic coordinate data resulting 
# from the CCDC's data processing and validation procedures.
#
#######################################################################

data_DUPFAW
_chemical_formula_moiety         'C18 H14 N6 O4 S1'
_chemical_name_systematic        
(E)-1-(3-Nitrophenyl)-2-((5-[(1E)-2-(3-nitrophenyl)hydrazin-1-ylidenemethyl]-2-thienyl)methylidene)hydrazine
_symmetry_cell_setting           monoclinic
_symmetry_space_group_name_H-M   'P 21/c'
_symmetry_Int_Tables_number      14
_space_group_name_Hall           '-P 2ybc'
loop_
_symmetry_equiv_pos_site_id
_symmetry_equiv_pos_as_xyz
1 x,y,z
2 -x,1/2+y,1/2-z
3 -x,-y,-z
4 x,1/2-y,1/2+z
_cell_length_a                   11.1790(5)
_cell_length_b                   20.6993(9)
_cell_length_c                   8.0334(2)
_cell_angle_alpha                90
_cell_angle_beta                 100.513(2)
_cell_angle_gamma                90
_cell_volume                     1827.7
_exptl_crystal_colour            red
_exptl_crystal_description       rod
_chemical_melting_point          '479-497 K'
_cell_formula_units_Z            4
_exptl_crystal_recrystallization_method ethanol
loop_
_atom_site_label
_atom_site_type_symbol
_atom_site_fract_x
_atom_site_fract_y
_atom_site_fract_z
S1 S 0.51694(5) 0.64771(3) 0.10731(6)
O1 O 0.86026(16) 0.47833(10) 1.1894(2)
O2 O 0.66466(16) 0.47631(9) 1.16581(19)
O3 O 1.09960(18) 0.66615(11) -0.6358(3)
O4 O 0.91528(19) 0.66409(11) -0.7736(2)
N1 N 0.50139(16) 0.59578(9) 0.4425(2)
N2 N 0.50940(17) 0.56838(9) 0.5969(2)
H1 H 0.446(2) 0.5655(12) 0.649(3)
N3 N 0.75746(18) 0.48377(10) 1.1061(2)
N4 N 0.60955(16) 0.69295(9) -0.1986(2)
N5 N 0.65934(16) 0.70405(9) -0.3383(2)
H2 H 0.611(2) 0.7106(11) -0.442(3)
N6 N 0.9889(2) 0.66605(11) -0.6418(3)
C1 C 0.38972(19) 0.64722(10) 0.2032(2)
C2 C 0.29149(19) 0.67487(10) 0.1014(3)
H3 H 0.2137 0.6787 0.1322
C3 C 0.31778(19) 0.69709(10) -0.0543(2)
H4 H 0.2596 0.7175 -0.1389
C4 C 0.43575(19) 0.68609(10) -0.0706(2)
C5 C 0.3983(2) 0.61919(10) 0.3698(2)
H5 H 0.3297 0.6181 0.4242
C6 C 0.6201(2) 0.54271(10) 0.6765(3)
C7 C 0.6332(2) 0.52533(10) 0.8470(3)
H6 H 0.5680 0.5303 0.9069
C8 C 0.7441(2) 0.50061(11) 0.9255(2)
C9 C 0.8416(2) 0.49104(11) 0.8444(3)
H7 H 0.9165 0.4740 0.9028
C10 C 0.8256(2) 0.50743(11) 0.6740(3)
H8 H 0.8903 0.5008 0.6140
C11 C 0.7166(2) 0.53338(10) 0.5900(3)
H9 H 0.7076 0.5448 0.4738
C12 C 0.49410(19) 0.70092(10) -0.2128(2)
H10 H 0.4474 0.7164 -0.3159
C13 C 0.77989(19) 0.68714(10) -0.3355(2)
C14 C 0.8226(2) 0.68469(10) -0.4875(3)
H11 H 0.7703 0.6936 -0.5921
C15 C 0.9433(2) 0.66899(11) -0.4818(3)
C16 C 1.0241(2) 0.65534(12) -0.3337(3)
H12 H 1.1069 0.6452 -0.3345
C17 C 0.9786(2) 0.65709(11) -0.1840(3)
H13 H 1.0311 0.6473 -0.0802
C18 C 0.8583(2) 0.67280(10) -0.1833(3)
H14 H 0.8289 0.6738 -0.0796
loop_
_geom_bond_atom_site_label_1
_geom_bond_atom_site_label_2
_geom_bond_site_symmetry_1
_geom_bond_site_symmetry_2
S1 C1 1_555 1_555
O1 N3 1_555 1_555
O2 N3 1_555 1_555
O3 N6 1_555 1_555
O4 N6 1_555 1_555
N1 N2 1_555 1_555
N2 H1 1_555 1_555
N3 C8 1_555 1_555
N4 N5 1_555 1_555
N5 H2 1_555 1_555
N6 C15 1_555 1_555
C1 C2 1_555 1_555
C2 H3 1_555 1_555
C3 C2 1_555 1_555
H4 C3 1_555 1_555
C4 S1 1_555 1_555
C5 N1 1_555 1_555
H5 C5 1_555 1_555
C6 N2 1_555 1_555
C7 C6 1_555 1_555
H6 C7 1_555 1_555
C8 C7 1_555 1_555
C9 C8 1_555 1_555
H7 C9 1_555 1_555
C10 C9 1_555 1_555
H8 C10 1_555 1_555
C11 C6 1_555 1_555
H9 C11 1_555 1_555
C12 N4 1_555 1_555
H10 C12 1_555 1_555
C13 N5 1_555 1_555
C14 C13 1_555 1_555
H11 C14 1_555 1_555
C15 C14 1_555 1_555
C16 C15 1_555 1_555
H12 C16 1_555 1_555
C17 C16 1_555 1_555
H13 C17 1_555 1_555
C18 C13 1_555 1_555
H14 C18 1_555 1_555
C1 C5 1_555 1_555
C3 C4 1_555 1_555
C4 C12 1_555 1_555
C10 C11 1_555 1_555
C17 C18 1_555 1_555

#END
