
#######################################################################
#
#                 Cambridge Crystallographic Data Centre
#                                CCDC 
#
#######################################################################
#
# If this CIF has been generated from an entry in the Cambridge 
# Structural Database, then it will include bibliographic, chemical, 
# crystal, experimental, refinement or atomic coordinate data resulting 
# from the CCDC's data processing and validation procedures.
#
#######################################################################

data_DUPGIF01
_chemical_formula_moiety         'C17 H14 Cl2 N1 1+,C12 H4 N4 1-'
_chemical_name_systematic        
'1-(3,4-Dichlorobenzyl)-3-methylquinolin-1-ium 7,7,8,8-tetracyanoquinodimethanide'
_symmetry_cell_setting           monoclinic
_symmetry_space_group_name_H-M   'P 21/c'
_symmetry_Int_Tables_number      14
_space_group_name_Hall           '-P 2ybc'
loop_
_symmetry_equiv_pos_site_id
_symmetry_equiv_pos_as_xyz
1 x,y,z
2 -x,1/2+y,1/2-z
3 -x,-y,-z
4 x,1/2-y,1/2+z
_cell_length_a                   7.0885(5)
_cell_length_b                   18.6955(14)
_cell_length_c                   19.2706(13)
_cell_angle_alpha                90
_cell_angle_beta                 106.107(2)
_cell_angle_gamma                90
_cell_volume                     2453.55
_cell_formula_units_Z            4
loop_
_atom_site_label
_atom_site_type_symbol
_atom_site_fract_x
_atom_site_fract_y
_atom_site_fract_z
C1 C 0.6844(3) 0.78719(11) 0.23645(11)
C2 C 0.5705(3) 0.83331(12) 0.26413(11)
C3 C 0.5936(3) 0.90591(12) 0.25964(12)
H1 H 0.5177 0.9370 0.2784
C4 C 0.7288(3) 0.93255(11) 0.22747(11)
H2 H 0.7451 0.9818 0.2253
C5 C 0.8416(3) 0.88729(10) 0.19806(10)
C6 C 0.8188(3) 0.81440(10) 0.20308(11)
H3 H 0.8939 0.7834 0.1840
C7 C 0.9909(3) 0.91745(10) 0.16372(10)
H4 H 1.0962 0.9394 0.2008
H5 H 1.0470 0.8787 0.1425
C8 C 0.9367(3) 1.04054(10) 0.12402(11)
H6 H 1.0089 1.0526 0.1707
C9 C 0.8645(3) 1.09546(11) 0.07480(11)
C10 C 0.7666(3) 1.07608(11) 0.00566(12)
H7 H 0.7218 1.1114 -0.0290
C11 C 0.7323(3) 1.00382(11) -0.01406(10)
C12 C 0.7981(3) 0.94983(10) 0.03824(10)
C13 C 0.7573(3) 0.87765(11) 0.02064(11)
H8 H 0.7990 0.8424 0.0556
C14 C 0.6559(3) 0.85965(13) -0.04821(12)
H9 H 0.6275 0.8118 -0.0599
C15 C 0.5938(3) 0.91198(14) -0.10157(12)
H10 H 0.5272 0.8987 -0.1485
C16 C 0.6308(3) 0.98238(14) -0.08497(12)
H11 H 0.5888 1.0168 -0.1208
C17 C 0.8947(4) 1.17223(12) 0.09886(14)
H12 H 0.8087 1.2024 0.0636
H13 H 1.0285 1.1857 0.1039
H14 H 0.8660 1.1776 0.1444
Cl1 Cl 0.65923(11) 0.69603(3) 0.24116(4)
Cl2 Cl 0.39761(12) 0.80054(4) 0.30417(4)
N1 N 0.9063(2) 0.97140(8) 0.10699(8)
C18 C 0.2097(3) 0.91292(10) 0.56223(10)
C19 C 0.2216(3) 0.89433(11) 0.49183(11)
H15 H 0.2149 0.8465 0.4782
C20 C 0.2424(3) 0.94530(10) 0.44430(11)
H16 H 0.2488 0.9315 0.3986
C21 C 0.2546(3) 1.01885(10) 0.46233(10)
C22 C 0.2436(3) 1.03751(11) 0.53266(10)
H17 H 0.2527 1.0853 0.5467
C23 C 0.2200(3) 0.98619(10) 0.57980(10)
H18 H 0.2103 1.0000 0.6250
C24 C 0.1911(3) 0.86035(11) 0.61270(11)
C25 C 0.1861(4) 0.78618(12) 0.59791(11)
C26 C 0.1882(3) 0.87836(11) 0.68367(11)
C27 C 0.2777(3) 1.07213(10) 0.41264(10)
C28 C 0.2812(3) 1.05191(10) 0.34259(11)
C29 C 0.3024(3) 1.14484(11) 0.43243(12)
N2 N 0.1804(4) 0.72594(11) 0.58745(12)
N3 N 0.1884(3) 0.89214(10) 0.74168(10)
N4 N 0.2809(3) 1.03334(10) 0.28584(10)
N5 N 0.3237(4) 1.20348(10) 0.45093(12)
loop_
_geom_bond_atom_site_label_1
_geom_bond_atom_site_label_2
_geom_bond_site_symmetry_1
_geom_bond_site_symmetry_2
C1 C2 1_555 1_555
C2 C3 1_555 1_555
C3 H1 1_555 1_555
C4 C3 1_555 1_555
H2 C4 1_555 1_555
C5 C4 1_555 1_555
C6 C1 1_555 1_555
H3 C6 1_555 1_555
C7 C5 1_555 1_555
H4 C7 1_555 1_555
H5 C7 1_555 1_555
C8 H6 1_555 1_555
C9 C8 1_555 1_555
C10 C9 1_555 1_555
H7 C10 1_555 1_555
C11 C10 1_555 1_555
C12 C11 1_555 1_555
C13 C12 1_555 1_555
H8 C13 1_555 1_555
C14 C13 1_555 1_555
H9 C14 1_555 1_555
C15 C14 1_555 1_555
H10 C15 1_555 1_555
C16 C11 1_555 1_555
H11 C16 1_555 1_555
C17 C9 1_555 1_555
H12 C17 1_555 1_555
H13 C17 1_555 1_555
H14 C17 1_555 1_555
C18 C19 1_555 1_555
C19 H15 1_555 1_555
C20 C19 1_555 1_555
H16 C20 1_555 1_555
C21 C20 1_555 1_555
C22 C21 1_555 1_555
H17 C22 1_555 1_555
C23 C18 1_555 1_555
H18 C23 1_555 1_555
C24 C18 1_555 1_555
C25 C24 1_555 1_555
C26 C24 1_555 1_555
C27 C21 1_555 1_555
C28 C27 1_555 1_555
C29 C27 1_555 1_555
Cl1 C1 1_555 1_555
Cl2 C2 1_555 1_555
N1 C7 1_555 1_555
N2 C25 1_555 1_555
N3 C26 1_555 1_555
N4 C28 1_555 1_555
N5 C29 1_555 1_555
C5 C6 1_555 1_555
C8 N1 1_555 1_555
C12 N1 1_555 1_555
C15 C16 1_555 1_555
C22 C23 1_555 1_555

#END
