
#######################################################################
#
#                 Cambridge Crystallographic Data Centre
#                                CCDC 
#
#######################################################################
#
# If this CIF has been generated from an entry in the Cambridge 
# Structural Database, then it will include bibliographic, chemical, 
# crystal, experimental, refinement or atomic coordinate data resulting 
# from the CCDC's data processing and validation procedures.
#
#######################################################################

data_DUPHIG
_chemical_formula_moiety         'C18 H17 N3'
_chemical_name_systematic        N,N-bis(pyridin-2-ylmethyl)aniline
_symmetry_cell_setting           monoclinic
_symmetry_space_group_name_H-M   'P 21/c'
_symmetry_Int_Tables_number      14
_space_group_name_Hall           '-P 2ybc'
loop_
_symmetry_equiv_pos_site_id
_symmetry_equiv_pos_as_xyz
1 x,y,z
2 -x,1/2+y,1/2-z
3 -x,-y,-z
4 x,1/2-y,1/2+z
_cell_length_a                   11.4866(19)
_cell_length_b                   16.811(3)
_cell_length_c                   7.7930(12)
_cell_angle_alpha                90
_cell_angle_beta                 101.471(3)
_cell_angle_gamma                90
_cell_volume                     1474.78
_exptl_crystal_colour            colorless
_exptl_crystal_description       block
_cell_formula_units_Z            4
_exptl_crystal_recrystallization_method acetone
loop_
_atom_site_label
_atom_site_type_symbol
_atom_site_fract_x
_atom_site_fract_y
_atom_site_fract_z
N1 N 0.27837(18) 0.47311(12) 0.8924(2)
N2 N 0.2502(2) 0.66652(12) 0.6656(3)
N3 N 0.0590(2) 0.36999(13) 1.1010(3)
C1 C 0.3652(2) 0.42824(15) 0.8353(3)
C2 C 0.3695(2) 0.34558(15) 0.8561(3)
H1 H 0.3130 0.3204 0.9074
C3 C 0.4559(3) 0.30090(16) 0.8019(3)
H2 H 0.4570 0.2461 0.8183
C4 C 0.5403(3) 0.33561(18) 0.7243(4)
H3 H 0.5982 0.3049 0.6877
C5 C 0.5375(2) 0.41657(18) 0.7018(3)
H4 H 0.5941 0.4409 0.6491
C6 C 0.4515(2) 0.46266(16) 0.7564(3)
H5 H 0.4515 0.5175 0.7401
C7 C 0.2770(2) 0.55875(14) 0.8723(3)
H6 H 0.3572 0.5784 0.9120
H7 H 0.2283 0.5811 0.9487
C8 C 0.2311(2) 0.58934(15) 0.6879(3)
C9 C 0.1736(2) 0.54150(14) 0.5561(3)
H8 H 0.1621 0.4878 0.5765
C10 C 0.1332(2) 0.57366(17) 0.3930(3)
H9 H 0.0940 0.5420 0.3017
C11 C 0.1510(3) 0.65247(19) 0.3663(4)
H10 H 0.1245 0.6758 0.2573
C12 C 0.2089(3) 0.69592(16) 0.5048(4)
H11 H 0.2207 0.7498 0.4866
C13 C 0.1675(2) 0.43629(15) 0.9124(3)
H12 H 0.1477 0.3955 0.8233
H13 H 0.1055 0.4763 0.8889
C14 C 0.1647(2) 0.39913(13) 1.0875(3)
C15 C 0.0517(3) 0.33528(16) 1.2541(5)
H14 H -0.0216 0.3153 1.2668
C16 C 0.1452(3) 0.32745(16) 1.3924(4)
H15 H 0.1360 0.3019 1.4946
C17 C 0.2526(3) 0.35824(15) 1.3761(4)
H16 H 0.3177 0.3548 1.4683
C18 C 0.2633(2) 0.39451(14) 1.2210(3)
H17 H 0.3357 0.4155 1.2067
loop_
_geom_bond_atom_site_label_1
_geom_bond_atom_site_label_2
_geom_bond_site_symmetry_1
_geom_bond_site_symmetry_2
N1 C1 1_555 1_555
N2 C8 1_555 1_555
N3 C14 1_555 1_555
C1 C2 1_555 1_555
C2 H1 1_555 1_555
C3 C2 1_555 1_555
H2 C3 1_555 1_555
C4 C3 1_555 1_555
H3 C4 1_555 1_555
C5 C4 1_555 1_555
H4 C5 1_555 1_555
C6 C1 1_555 1_555
H5 C6 1_555 1_555
C7 N1 1_555 1_555
H6 C7 1_555 1_555
H7 C7 1_555 1_555
C8 C7 1_555 1_555
C9 C8 1_555 1_555
H8 C9 1_555 1_555
C10 C9 1_555 1_555
H9 C10 1_555 1_555
C11 C10 1_555 1_555
H10 C11 1_555 1_555
C12 N2 1_555 1_555
H11 C12 1_555 1_555
C13 N1 1_555 1_555
H12 C13 1_555 1_555
H13 C13 1_555 1_555
C14 C13 1_555 1_555
C15 N3 1_555 1_555
H14 C15 1_555 1_555
C16 C15 1_555 1_555
H15 C16 1_555 1_555
C17 C16 1_555 1_555
H16 C17 1_555 1_555
C18 C14 1_555 1_555
H17 C18 1_555 1_555
C5 C6 1_555 1_555
C11 C12 1_555 1_555
C17 C18 1_555 1_555

#END
