
#######################################################################
#
#                 Cambridge Crystallographic Data Centre
#                                CCDC 
#
#######################################################################
#
# If this CIF has been generated from an entry in the Cambridge 
# Structural Database, then it will include bibliographic, chemical, 
# crystal, experimental, refinement or atomic coordinate data resulting 
# from the CCDC's data processing and validation procedures.
#
#######################################################################

data_DUPHOM
_chemical_name_common            
4-[4-(3-Methoxybenzamido)phenoxy]-N-methylpicolinamide
_chemical_formula_moiety         'C21 H19 N3 O4'
_chemical_name_systematic        
4-(4-((3-Methoxybenzoyl)amino)phenoxy)-N-methylpyridine-2-carboxamide
_chemical_properties_biological  'potent antitumour drug'
_symmetry_cell_setting           triclinic
_symmetry_space_group_name_H-M   'P 1'
_symmetry_Int_Tables_number      1
_space_group_name_Hall           'P 1'
loop_
_symmetry_equiv_pos_site_id
_symmetry_equiv_pos_as_xyz
1 x,y,z
_cell_length_a                   5.0915(10)
_cell_length_b                   8.3251(17)
_cell_length_c                   11.611(2)
_cell_angle_alpha                71.29(3)
_cell_angle_beta                 87.74(3)
_cell_angle_gamma                76.10(3)
_cell_volume                     452.12
_exptl_crystal_colour            colorless
_exptl_crystal_description       block
_chemical_melting_point          '391.5 K'
_cell_formula_units_Z            1
_exptl_crystal_recrystallization_method ethanol
loop_
_atom_site_label
_atom_site_type_symbol
_atom_site_fract_x
_atom_site_fract_y
_atom_site_fract_z
O1 O -0.3679(3) 1.5504(2) 0.23318(15)
O2 O -0.1469(3) 0.9491(2) 0.56055(17)
O3 O 0.4394(3) 0.1895(2) 0.81518(15)
O4 O 1.1345(3) 0.2263(2) 1.10678(16)
N1 N 0.3007(3) 0.9089(2) 0.60459(17)
H1 H 0.443(6) 0.954(4) 0.579(3)
N2 N 1.0377(4) -0.1617(2) 1.06587(18)
N3 N 1.3326(4) -0.0601(3) 1.20340(18)
H2 H 1.353(6) -0.166(4) 1.208(3)
C1 C 0.0404(4) 1.1969(3) 0.48677(19)
C2 C -0.1555(4) 1.2811(3) 0.3920(2)
H3 H -0.2683 1.2179 0.3713
C3 C -0.1849(4) 1.4569(3) 0.3282(2)
C4 C -0.0230(4) 1.5503(3) 0.3610(2)
H4 H -0.0441 1.6711 0.3181
C5 C 0.1675(4) 1.4670(3) 0.4559(2)
H5 H 0.2754 1.5316 0.4784
C6 C 0.2036(4) 1.2891(3) 0.5190(2)
H6 H 0.3377 1.2318 0.5830
C7 C -0.4855(5) 1.4516(3) 0.1769(2)
H7 H -0.6035 1.3902 0.2340
H8 H -0.3410 1.3663 0.1549
H9 H -0.5919 1.5310 0.1034
C8 C 0.0553(4) 1.0091(3) 0.5533(2)
C9 C 0.3486(4) 0.7259(3) 0.66625(19)
C10 C 0.5761(4) 0.6131(3) 0.6406(2)
H10 H 0.7046 0.6589 0.5865
C11 C 0.6152(4) 0.4336(3) 0.6942(2)
H11 H 0.7689 0.3560 0.6763
C12 C 0.4271(4) 0.3690(3) 0.7740(2)
C13 C 0.2105(4) 0.4795(3) 0.8055(2)
H12 H 0.0892 0.4336 0.8640
C14 C 0.1710(4) 0.6586(3) 0.7512(2)
H13 H 0.0215 0.7356 0.7723
C15 C 0.6403(4) 0.0792(3) 0.8978(2)
C16 C 0.6760(5) -0.0977(3) 0.9182(2)
H14 H 0.5661 -0.1394 0.8757
C17 C 0.8763(5) -0.2126(3) 1.0024(2)
H15 H 0.9012 -0.3341 1.0161
C18 C 0.9936(4) 0.0107(3) 1.0450(2)
C19 C 0.8000(4) 0.1369(3) 0.9625(2)
H16 H 0.7777 0.2578 0.9509
C20 C 1.1623(4) 0.0692(3) 1.1206(2)
C21 C 1.4960(5) -0.0250(3) 1.2878(2)
H17 H 1.3916 0.0733 1.3122
H18 H 1.6598 0.0043 1.2484
H19 H 1.5470 -0.1288 1.3599
loop_
_geom_bond_atom_site_label_1
_geom_bond_atom_site_label_2
_geom_bond_site_symmetry_1
_geom_bond_site_symmetry_2
O1 C3 1_555 1_555
O2 C8 1_555 1_555
O3 C12 1_555 1_555
O4 C20 1_555 1_555
N1 H1 1_555 1_555
N2 C17 1_555 1_555
N3 H2 1_555 1_555
C1 C2 1_555 1_555
C2 H3 1_555 1_555
C3 C2 1_555 1_555
C4 C3 1_555 1_555
H4 C4 1_555 1_555
C5 C4 1_555 1_555
H5 C5 1_555 1_555
C6 C1 1_555 1_555
H6 C6 1_555 1_555
C7 O1 1_555 1_555
H7 C7 1_555 1_555
H8 C7 1_555 1_555
H9 C7 1_555 1_555
C8 N1 1_555 1_555
C9 N1 1_555 1_555
C10 C9 1_555 1_555
H10 C10 1_555 1_555
C11 C10 1_555 1_555
H11 C11 1_555 1_555
C12 C11 1_555 1_555
C13 C12 1_555 1_555
H12 C13 1_555 1_555
C14 C9 1_555 1_555
H13 C14 1_555 1_555
C15 O3 1_555 1_555
C16 C15 1_555 1_555
H14 C16 1_555 1_555
C17 C16 1_555 1_555
H15 C17 1_555 1_555
C18 N2 1_555 1_555
C19 C15 1_555 1_555
H16 C19 1_555 1_555
C20 N3 1_555 1_555
C21 N3 1_555 1_555
H17 C21 1_555 1_555
H18 C21 1_555 1_555
H19 C21 1_555 1_555
C1 C8 1_555 1_555
C5 C6 1_555 1_555
C13 C14 1_555 1_555
C18 C19 1_555 1_555
C18 C20 1_555 1_555

#END
