
#######################################################################
#
#                 Cambridge Crystallographic Data Centre
#                                CCDC 
#
#######################################################################
#
# If this CIF has been generated from an entry in the Cambridge 
# Structural Database, then it will include bibliographic, chemical, 
# crystal, experimental, refinement or atomic coordinate data resulting 
# from the CCDC's data processing and validation procedures.
#
#######################################################################

data_DUPHUS
_chemical_formula_moiety         'C19 H15 Cl2 O2 P1'
_chemical_name_systematic        
(2,4-Dichlorophenyl)(diphenylphosphoryl)methanol
_symmetry_cell_setting           monoclinic
_symmetry_space_group_name_H-M   'P 21/n'
_symmetry_Int_Tables_number      14
_space_group_name_Hall           '-P 2yn'
loop_
_symmetry_equiv_pos_site_id
_symmetry_equiv_pos_as_xyz
1 x,y,z
2 1/2-x,1/2+y,1/2-z
3 -x,-y,-z
4 1/2+x,1/2-y,1/2+z
_cell_length_a                   8.8157(18)
_cell_length_b                   11.334(2)
_cell_length_c                   19.262(4)
_cell_angle_alpha                90
_cell_angle_beta                 102.41(3)
_cell_angle_gamma                90
_cell_volume                     1879.64
_exptl_crystal_colour            colorless
_exptl_crystal_description       plate
_cell_formula_units_Z            4
_exptl_crystal_recrystallization_method methanol
loop_
_atom_site_label
_atom_site_type_symbol
_atom_site_fract_x
_atom_site_fract_y
_atom_site_fract_z
P1 P 0.63438(6) 0.94073(5) 0.21088(4)
Cl1 Cl 0.99338(10) 0.89244(14) 0.36475(6)
Cl2 Cl 0.66962(19) 0.89703(11) 0.57032(6)
C1 C 0.6904(2) 0.80652(19) 0.26412(15)
H1 H 0.7951 0.7831 0.2601
C2 C 0.6902(3) 0.8293(2) 0.34053(15)
C3 C 0.8186(4) 0.8676(3) 0.38994(19)
C4 C 0.8124(5) 0.8865(3) 0.4608(2)
H2 H 0.9007 0.9108 0.4934
C5 C 0.6769(5) 0.8695(3) 0.48191(19)
C6 C 0.5478(5) 0.8317(3) 0.4349(2)
H3 H 0.4555 0.8194 0.4499
C7 C 0.5547(3) 0.8117(3) 0.36529(18)
H4 H 0.4660 0.7856 0.3337
C8 C 0.4292(2) 0.95822(18) 0.20306(12)
C9 C 0.3801(3) 1.0514(2) 0.24046(15)
H5 H 0.4526 1.1014 0.2679
C10 C 0.2238(3) 1.0687(3) 0.23653(17)
H6 H 0.1909 1.1313 0.2608
C11 C 0.1173(3) 0.9947(3) 0.19732(17)
H7 H 0.0122 1.0067 0.1955
C12 C 0.1633(3) 0.9022(3) 0.16022(17)
H8 H 0.0896 0.8523 0.1334
C13 C 0.3199(3) 0.8840(2) 0.16314(14)
H9 H 0.3516 0.8217 0.1382
C14 C 0.6700(3) 0.9144(2) 0.12355(16)
C15 C 0.6984(4) 1.0121(3) 0.08557(17)
H10 H 0.6956 1.0868 0.1053
C16 C 0.7307(5) 1.0012(4) 0.0193(2)
H11 H 0.7501 1.0682 -0.0053
C17 C 0.7344(5) 0.8922(5) -0.0107(2)
H12 H 0.7546 0.8846 -0.0559
C18 C 0.7083(5) 0.7958(4) 0.0261(3)
H13 H 0.7117 0.7216 0.0059
C19 C 0.6763(5) 0.8045(3) 0.0935(2)
H14 H 0.6594 0.7369 0.1181
O1 O 0.7200(2) 1.04574(14) 0.24533(11)
O2 O 0.58404(18) 0.71745(13) 0.23355(11)
H15 H 0.6292 0.6539 0.2359
loop_
_geom_bond_atom_site_label_1
_geom_bond_atom_site_label_2
_geom_bond_site_symmetry_1
_geom_bond_site_symmetry_2
P1 C1 1_555 1_555
Cl1 C3 1_555 1_555
Cl2 C5 1_555 1_555
C1 H1 1_555 1_555
C2 C1 1_555 1_555
C3 C2 1_555 1_555
C4 C3 1_555 1_555
H2 C4 1_555 1_555
C5 C4 1_555 1_555
C6 C5 1_555 1_555
H3 C6 1_555 1_555
C7 C2 1_555 1_555
H4 C7 1_555 1_555
C8 P1 1_555 1_555
C9 C8 1_555 1_555
H5 C9 1_555 1_555
C10 C9 1_555 1_555
H6 C10 1_555 1_555
C11 C10 1_555 1_555
H7 C11 1_555 1_555
C12 C11 1_555 1_555
H8 C12 1_555 1_555
C13 C8 1_555 1_555
H9 C13 1_555 1_555
C14 P1 1_555 1_555
C15 C14 1_555 1_555
H10 C15 1_555 1_555
C16 C15 1_555 1_555
H11 C16 1_555 1_555
C17 C16 1_555 1_555
H12 C17 1_555 1_555
C18 C17 1_555 1_555
H13 C18 1_555 1_555
C19 C14 1_555 1_555
H14 C19 1_555 1_555
O1 P1 1_555 1_555
O2 C1 1_555 1_555
H15 O2 1_555 1_555
C6 C7 1_555 1_555
C12 C13 1_555 1_555
C18 C19 1_555 1_555

#END
