
#######################################################################
#
#                 Cambridge Crystallographic Data Centre
#                                CCDC 
#
#######################################################################
#
# If this CIF has been generated from an entry in the Cambridge 
# Structural Database, then it will include bibliographic, chemical, 
# crystal, experimental, refinement or atomic coordinate data resulting 
# from the CCDC's data processing and validation procedures.
#
#######################################################################

data_DUPJOP
_chemical_formula_moiety         'C24 H40 N4 O4 Si1'
_chemical_name_systematic        
N,N',N'',N'''-(silanetetrayltetrakis(oxy))tetracyclohexanimine
_symmetry_cell_setting           tetragonal
_symmetry_space_group_name_H-M   'I -4 2 d'
_symmetry_Int_Tables_number      122
_space_group_name_Hall           'I -4 2bw'
loop_
_symmetry_equiv_pos_site_id
_symmetry_equiv_pos_as_xyz
1 x,y,z
2 -x,-y,z
3 y,-x,-z
4 -y,x,-z
5 1/2-x,y,3/4-z
6 1/2+x,-y,3/4-z
7 1/2-y,-x,3/4+z
8 1/2+y,x,3/4+z
9 1/2+x,1/2+y,1/2+z
10 1/2-x,1/2-y,1/2+z
11 1/2+y,1/2-x,1/2-z
12 1/2-y,1/2+x,1/2-z
13 -x,1/2+y,1/4-z
14 x,1/2-y,1/4-z
15 -y,1/2-x,1/4+z
16 y,1/2+x,1/4+z
_cell_length_a                   13.9688(3)
_cell_length_b                   13.9688(3)
_cell_length_c                   13.3347(4)
_cell_angle_alpha                90
_cell_angle_beta                 90
_cell_angle_gamma                90
_cell_volume                     2601.96
_exptl_crystal_colour            colorless
_exptl_crystal_description       block
_cell_formula_units_Z            4
loop_
_atom_site_label
_atom_site_type_symbol
_atom_site_fract_x
_atom_site_fract_y
_atom_site_fract_z
Si1 Si 1.5000 1.0000 1.2500
O1 O 1.46927(9) 1.09118(10) 1.18015(9)
N1 N 1.55231(12) 1.11749(12) 1.11965(13)
C1 C 1.42856(15) 1.18268(14) 1.00361(15)
H1 H 1.4138 1.2498 1.0143
H2 H 1.3829 1.1449 1.0415
C2 C 1.60943(15) 1.19822(16) 0.97722(15)
H3 H 1.6689 1.1707 1.0014
H4 H 1.6139 1.2672 0.9839
C3 C 1.52785(14) 1.16211(14) 1.04030(15)
C4 C 1.4985(2) 1.20564(19) 0.83059(15)
H5 H 1.4909 1.1889 0.7604
H6 H 1.4939 1.2747 0.8365
C5 C 1.59637(17) 1.17266(17) 0.86718(17)
H7 H 1.6021 1.1039 0.8587
H8 H 1.6461 1.2031 0.8276
C6 C 1.41922(18) 1.15893(19) 0.89183(18)
H9 H 1.4219 1.0901 0.8829
H10 H 1.3576 1.1810 0.8676
O1A O 1.53073(9) 0.90882(10) 1.18015(9)
N1A N 1.44769(12) 0.88251(12) 1.11965(13)
C1A C 1.57144(15) 0.81732(14) 1.00361(15)
H1A H 1.5862 0.7502 1.0143
H2A H 1.6171 0.8551 1.0415
C2A C 1.39057(15) 0.80178(16) 0.97722(15)
H3A H 1.3311 0.8293 1.0014
H4A H 1.3861 0.7328 0.9839
C3A C 1.47215(14) 0.83789(14) 1.04030(15)
C4A C 1.5015(2) 0.79436(19) 0.83059(15)
H5A H 1.5091 0.8111 0.7604
H6A H 1.5061 0.7253 0.8365
C5A C 1.40363(17) 0.82734(17) 0.86718(17)
H7A H 1.3979 0.8961 0.8587
H8A H 1.3539 0.7969 0.8276
C6A C 1.58078(18) 0.84107(19) 0.89183(18)
H9A H 1.5781 0.9099 0.8829
H10A H 1.6424 0.8190 0.8676
O1J O 1.59118(10) 1.03073(9) 1.31985(9)
N1J N 1.61749(12) 0.94769(12) 1.38035(13)
C1J C 1.68268(14) 1.07144(15) 1.49639(15)
H1J H 1.7498 1.0862 1.4857
H2J H 1.6449 1.1171 1.4585
C2J C 1.69822(16) 0.89057(15) 1.52278(15)
H3J H 1.6707 0.8311 1.4986
H4J H 1.7672 0.8861 1.5161
C3J C 1.66211(14) 0.97215(14) 1.45970(15)
C4J C 1.70564(19) 1.0015(2) 1.66941(15)
H5J H 1.6889 1.0091 1.7396
H6J H 1.7747 1.0061 1.6635
C5J C 1.67266(17) 0.90363(17) 1.63282(17)
H7J H 1.6039 0.8979 1.6413
H8J H 1.7031 0.8539 1.6724
C6J C 1.65893(19) 1.08078(18) 1.60817(18)
H9J H 1.5901 1.0781 1.6171
H10J H 1.6810 1.1424 1.6324
O1K O 1.40882(10) 0.96927(9) 1.31985(9)
N1K N 1.38251(12) 1.05231(12) 1.38035(13)
C1K C 1.31732(14) 0.92856(15) 1.49639(15)
H1K H 1.2502 0.9138 1.4857
H2K H 1.3551 0.8829 1.4585
C2K C 1.30178(16) 1.10943(15) 1.52278(15)
H3K H 1.3293 1.1689 1.4986
H4K H 1.2328 1.1139 1.5161
C3K C 1.33789(14) 1.02785(14) 1.45970(15)
C4K C 1.29436(19) 0.9985(2) 1.66941(15)
H5K H 1.3111 0.9909 1.7396
H6K H 1.2253 0.9939 1.6635
C5K C 1.32734(17) 1.09637(17) 1.63282(17)
H7K H 1.3961 1.1021 1.6413
H8K H 1.2969 1.1461 1.6724
C6K C 1.34107(19) 0.91922(18) 1.60817(18)
H9K H 1.4099 0.9219 1.6171
H10K H 1.3190 0.8576 1.6324
loop_
_geom_bond_atom_site_label_1
_geom_bond_atom_site_label_2
_geom_bond_site_symmetry_1
_geom_bond_site_symmetry_2
Si1 O1 1_555 1_555
O1 N1 1_555 1_555
N1 C3 1_555 1_555
C1 H1 1_555 1_555
H2 C1 1_555 1_555
C2 H3 1_555 1_555
H4 C2 1_555 1_555
C3 C1 1_555 1_555
C4 H5 1_555 1_555
H6 C4 1_555 1_555
C5 C2 1_555 1_555
H7 C5 1_555 1_555
H8 C5 1_555 1_555
C6 C1 1_555 1_555
H9 C6 1_555 1_555
H10 C6 1_555 1_555
O1A Si1 1_555 1_555
N1A O1A 1_555 1_555
C1A H1A 1_555 1_555
H2A C1A 1_555 1_555
C2A H3A 1_555 1_555
H4A C2A 1_555 1_555
C3A N1A 1_555 1_555
C4A H5A 1_555 1_555
H6A C4A 1_555 1_555
C5A C2A 1_555 1_555
H7A C5A 1_555 1_555
H8A C5A 1_555 1_555
C6A C1A 1_555 1_555
H9A C6A 1_555 1_555
H10A C6A 1_555 1_555
O1J Si1 1_555 1_555
N1J O1J 1_555 1_555
C1J H1J 1_555 1_555
H2J C1J 1_555 1_555
C2J H3J 1_555 1_555
H4J C2J 1_555 1_555
C3J N1J 1_555 1_555
C4J H5J 1_555 1_555
H6J C4J 1_555 1_555
C5J C2J 1_555 1_555
H7J C5J 1_555 1_555
H8J C5J 1_555 1_555
C6J C1J 1_555 1_555
H9J C6J 1_555 1_555
H10J C6J 1_555 1_555
O1K Si1 1_555 1_555
N1K O1K 1_555 1_555
C1K H1K 1_555 1_555
H2K C1K 1_555 1_555
C2K H3K 1_555 1_555
H4K C2K 1_555 1_555
C3K N1K 1_555 1_555
C4K H5K 1_555 1_555
H6K C4K 1_555 1_555
C5K C2K 1_555 1_555
H7K C5K 1_555 1_555
H8K C5K 1_555 1_555
C6K C1K 1_555 1_555
H9K C6K 1_555 1_555
H10K C6K 1_555 1_555
C2 C3 1_555 1_555
C4 C5 1_555 1_555
C4 C6 1_555 1_555
C1A C3A 1_555 1_555
C2A C3A 1_555 1_555
C4A C5A 1_555 1_555
C4A C6A 1_555 1_555
C1J C3J 1_555 1_555
C2J C3J 1_555 1_555
C4J C5J 1_555 1_555
C4J C6J 1_555 1_555
C1K C3K 1_555 1_555
C2K C3K 1_555 1_555
C4K C5K 1_555 1_555
C4K C6K 1_555 1_555

#END
