
#######################################################################
#
#                 Cambridge Crystallographic Data Centre
#                                CCDC 
#
#######################################################################
#
# If this CIF has been generated from an entry in the Cambridge 
# Structural Database, then it will include bibliographic, chemical, 
# crystal, experimental, refinement or atomic coordinate data resulting 
# from the CCDC's data processing and validation procedures.
#
#######################################################################

data_DUPJAZ
_chemical_formula_moiety         'C14 H13 N1 O3'
_chemical_name_systematic        '1-Phenylethyl 4-nitrophenyl ether'
_symmetry_cell_setting           triclinic
_symmetry_space_group_name_H-M   'P -1'
_symmetry_Int_Tables_number      2
_space_group_name_Hall           '-P 1'
loop_
_symmetry_equiv_pos_site_id
_symmetry_equiv_pos_as_xyz
1 x,y,z
2 -x,-y,-z
_cell_length_a                   10.268(4)
_cell_length_b                   11.115(5)
_cell_length_c                   12.303(5)
_cell_angle_alpha                112.15(3)
_cell_angle_beta                 91.94(3)
_cell_angle_gamma                100.18(3)
_cell_volume                     1272.23
_exptl_crystal_colour            'pale yellow'
_chemical_melting_point          339-341K
_cell_formula_units_Z            4
loop_
_atom_site_label
_atom_site_type_symbol
_atom_site_fract_x
_atom_site_fract_y
_atom_site_fract_z
O1 O 0.0379(2) 0.3803(2) 0.0873(2)
C1 C 0.0779(3) 0.2705(3) -0.0045(2)
C2 C -0.0455(3) 0.1626(3) -0.0522(3)
C3 C 0.1225(2) 0.5003(2) 0.1327(2)
C4 C 0.2363(3) 0.5340(2) 0.0851(2)
C5 C 0.3136(3) 0.6592(3) 0.1395(3)
C6 C 0.2791(3) 0.7488(2) 0.2399(2)
C7 C 0.1659(3) 0.7166(3) 0.2874(3)
C8 C 0.0867(3) 0.5926(3) 0.2339(3)
N1 N 0.3629(2) 0.8806(2) 0.2970(2)
O2 O 0.4661(2) 0.9065(2) 0.2562(2)
O3 O 0.3265(2) 0.9595(2) 0.3845(2)
C9 C 0.1874(3) 0.2241(2) 0.0442(2)
C10 C 0.1786(3) 0.2046(3) 0.1480(3)
C11 C 0.2731(3) 0.1531(3) 0.1885(3)
C12 C 0.3779(3) 0.1208(3) 0.1250(3)
C13 C 0.3897(3) 0.1416(3) 0.0229(3)
C14 C 0.2949(3) 0.1934(3) -0.0179(3)
H1 H 0.1378 0.2961 -0.0655
H2 H -0.0258 0.0919 -0.1196
H3 H -0.1164 0.1967 -0.0756
H4 H -0.0722 0.1296 0.0070
H5 H 0.2608 0.4710 0.0148
H6 H 0.3926 0.6840 0.1068
H7 H 0.1422 0.7804 0.3577
H8 H 0.0066 0.5694 0.2659
H9 H 0.1057 0.2276 0.1931
H10 H 0.2657 0.1396 0.2608
H11 H 0.4432 0.0834 0.1522
H12 H 0.4639 0.1201 -0.0208
H13 H 0.3036 0.2084 -0.0895
O4 O 0.3007(2) 0.6249(2) 0.5919(2)
C15 C 0.2774(3) 0.7422(3) 0.6815(3)
C16 C 0.2483(4) 0.7114(4) 0.7894(3)
C17 C 0.3798(3) 0.6320(3) 0.5059(3)
C18 C 0.4694(3) 0.7432(3) 0.5139(3)
C19 C 0.5514(3) 0.7350(3) 0.4260(3)
C20 C 0.5392(3) 0.6175(3) 0.3314(2)
C21 C 0.4462(3) 0.5074(3) 0.3209(3)
C22 C 0.3680(3) 0.5150(3) 0.4090(3)
N2 N 0.6237(3) 0.6092(3) 0.2372(2)
O5 O 0.7203(3) 0.6984(3) 0.2561(3)
O6 O 0.5943(3) 0.5141(3) 0.1440(2)
C23 C 0.1648(3) 0.7901(3) 0.6387(3)
C24 C 0.0503(2) 0.7030(4) 0.5763(3)
C25 C -0.0547(3) 0.7505(4) 0.5433(3)
C26 C -0.0442(4) 0.8827(4) 0.5740(3)
C27 C 0.0685(4) 0.9681(4) 0.6345(4)
C28 C 0.1732(4) 0.9222(3) 0.6667(3)
H14 H 0.3540 0.8130 0.7013
H15 H 0.2329 0.7893 0.8521
H16 H 0.3200 0.6807 0.8160
H17 H 0.1691 0.6432 0.7669
H18 H 0.4749 0.8257 0.5800
H19 H 0.6165 0.8110 0.4314
H20 H 0.4368 0.4264 0.2524
H21 H 0.3041 0.4382 0.4038
H22 H 0.0431 0.6095 0.5554
H23 H -0.1343 0.6895 0.4988
H24 H -0.1174 0.9154 0.5525
H25 H 0.0753 1.0615 0.6552
H26 H 0.2532 0.9842 0.7090
loop_
_geom_bond_atom_site_label_1
_geom_bond_atom_site_label_2
_geom_bond_site_symmetry_1
_geom_bond_site_symmetry_2
O1 C1 1_555 1_555
C1 C2 1_555 1_555
C2 H2 1_555 1_555
C3 O1 1_555 1_555
C4 C3 1_555 1_555
C5 C4 1_555 1_555
C6 C5 1_555 1_555
C7 C6 1_555 1_555
C8 C3 1_555 1_555
N1 C6 1_555 1_555
O2 N1 1_555 1_555
O3 N1 1_555 1_555
C9 C1 1_555 1_555
C10 C9 1_555 1_555
C11 C10 1_555 1_555
C12 C11 1_555 1_555
C13 C12 1_555 1_555
C14 C9 1_555 1_555
O4 C15 1_555 1_555
C15 C16 1_555 1_555
C16 H15 1_555 1_555
C17 O4 1_555 1_555
C18 C17 1_555 1_555
C19 C18 1_555 1_555
C20 C19 1_555 1_555
C21 C20 1_555 1_555
C22 C17 1_555 1_555
N2 C20 1_555 1_555
O5 N2 1_555 1_555
O6 N2 1_555 1_555
C23 C15 1_555 1_555
C24 C23 1_555 1_555
C25 C24 1_555 1_555
C26 C25 1_555 1_555
C27 C26 1_555 1_555
C28 C23 1_555 1_555
H1 C1 1_555 1_555
H3 C2 1_555 1_555
H4 C2 1_555 1_555
H5 C4 1_555 1_555
H6 C5 1_555 1_555
H7 C7 1_555 1_555
H8 C8 1_555 1_555
H9 C10 1_555 1_555
H10 C11 1_555 1_555
H11 C12 1_555 1_555
H12 C13 1_555 1_555
H13 C14 1_555 1_555
H14 C15 1_555 1_555
H16 C16 1_555 1_555
H17 C16 1_555 1_555
H18 C18 1_555 1_555
H19 C19 1_555 1_555
H20 C21 1_555 1_555
H21 C22 1_555 1_555
H22 C24 1_555 1_555
H23 C25 1_555 1_555
H24 C26 1_555 1_555
H25 C27 1_555 1_555
H26 C28 1_555 1_555
C7 C8 1_555 1_555
C13 C14 1_555 1_555
C21 C22 1_555 1_555
C27 C28 1_555 1_555

#END
