
#######################################################################
#
#                 Cambridge Crystallographic Data Centre
#                                CCDC 
#
#######################################################################
#
# If this CIF has been generated from an entry in the Cambridge 
# Structural Database, then it will include bibliographic, chemical, 
# crystal, experimental, refinement or atomic coordinate data resulting 
# from the CCDC's data processing and validation procedures.
#
#######################################################################

data_DUPLEH
_chemical_formula_moiety         'C15 H10 F3 N1 O1'
_chemical_name_systematic        
4,4,4-trifluoro-2-(6-methoxy-2-naphthyl)but-2-enenitrile
_symmetry_cell_setting           monoclinic
_symmetry_space_group_name_H-M   'P 21/c'
_symmetry_Int_Tables_number      14
_space_group_name_Hall           '-P 2ybc'
loop_
_symmetry_equiv_pos_site_id
_symmetry_equiv_pos_as_xyz
1 x,y,z
2 -x,1/2+y,1/2-z
3 -x,-y,-z
4 x,1/2-y,1/2+z
_cell_length_a                   13.226(3)
_cell_length_b                   13.605(4)
_cell_length_c                   7.270(2)
_cell_angle_alpha                90
_cell_angle_beta                 92.84(2)
_cell_angle_gamma                90
_cell_volume                     1306.56
_exptl_crystal_colour            colorless
_exptl_crystal_description       block
_cell_formula_units_Z            4
loop_
_atom_site_label
_atom_site_type_symbol
_atom_site_fract_x
_atom_site_fract_y
_atom_site_fract_z
F1 F 0.8740(3) 0.7317(3) 0.5024(7)
F2 F 0.9567(4) 0.6188(4) 0.3730(8)
F3 F 1.0323(3) 0.7203(3) 0.5561(7)
O1 O 0.3157(3) 0.6505(3) 0.2388(6)
N1 N 0.8527(5) 0.4743(5) 1.0585(11)
C1 C 0.7431(4) 0.5975(4) 0.6847(8)
C2 C 0.7117(4) 0.5758(4) 0.5066(9)
H1 H 0.7573 0.5481 0.4282
C3 C 0.6098(4) 0.5950(3) 0.4391(8)
C4 C 0.5425(4) 0.6388(3) 0.5586(8)
C5 C 0.5768(4) 0.6596(4) 0.7441(8)
H2 H 0.5323 0.6870 0.8250
C6 C 0.6737(4) 0.6399(4) 0.8033(9)
H3 H 0.6948 0.6547 0.9241
C7 C 0.4400(3) 0.6566(4) 0.4965(8)
H4 H 0.3940 0.6824 0.5762
C8 C 0.4102(4) 0.6348(4) 0.3157(8)
C9 C 0.4780(4) 0.5921(4) 0.1991(9)
H5 H 0.4565 0.5767 0.0788
C10 C 0.5744(4) 0.5726(4) 0.2569(8)
H6 H 0.6181 0.5441 0.1760
C11 C 0.2414(4) 0.6932(5) 0.3533(11)
H7 H 0.1784 0.7004 0.2832
H8 H 0.2645 0.7565 0.3961
H9 H 0.2318 0.6511 0.4570
C12 C 0.8463(4) 0.5744(4) 0.7572(9)
C13 C 0.9347(5) 0.6016(5) 0.6918(11)
H10 H 0.9931 0.5772 0.7518
C14 C 0.9480(4) 0.6676(6) 0.5317(13)
C15 C 0.8520(5) 0.5179(5) 0.9259(13)
loop_
_geom_bond_atom_site_label_1
_geom_bond_atom_site_label_2
_geom_bond_site_symmetry_1
_geom_bond_site_symmetry_2
F1 C14 1_555 1_555
F2 C14 1_555 1_555
F3 C14 1_555 1_555
O1 C8 1_555 1_555
N1 C15 1_555 1_555
C1 C2 1_555 1_555
C2 H1 1_555 1_555
C3 C2 1_555 1_555
C4 C3 1_555 1_555
C5 C4 1_555 1_555
H2 C5 1_555 1_555
C6 C1 1_555 1_555
H3 C6 1_555 1_555
C7 C4 1_555 1_555
H4 C7 1_555 1_555
C8 C7 1_555 1_555
C9 C8 1_555 1_555
H5 C9 1_555 1_555
C10 C3 1_555 1_555
H6 C10 1_555 1_555
C11 O1 1_555 1_555
H7 C11 1_555 1_555
H8 C11 1_555 1_555
H9 C11 1_555 1_555
C12 C1 1_555 1_555
C13 C12 1_555 1_555
H10 C13 1_555 1_555
C14 C13 1_555 1_555
C15 C12 1_555 1_555
C5 C6 1_555 1_555
C9 C10 1_555 1_555

#END
