
#######################################################################
#
#                 Cambridge Crystallographic Data Centre
#                                CCDC 
#
#######################################################################
#
# If this CIF has been generated from an entry in the Cambridge 
# Structural Database, then it will include bibliographic, chemical, 
# crystal, experimental, refinement or atomic coordinate data resulting 
# from the CCDC's data processing and validation procedures.
#
#######################################################################

data_DUPMAE
_chemical_formula_moiety         'C13 H15 F3 N4'
_chemical_name_systematic        
1-(4-t-butylphenyl)-5-(2,2,2-trifluoroethyl)-1H-tetrazole
_symmetry_cell_setting           monoclinic
_symmetry_space_group_name_H-M   'P 21/n'
_symmetry_Int_Tables_number      14
_space_group_name_Hall           '-P 2yn'
loop_
_symmetry_equiv_pos_site_id
_symmetry_equiv_pos_as_xyz
1 x,y,z
2 1/2-x,1/2+y,1/2-z
3 -x,-y,-z
4 1/2+x,1/2-y,1/2+z
_cell_length_a                   11.3589(5)
_cell_length_b                   8.1467(4)
_cell_length_c                   15.8924(7)
_cell_angle_alpha                90
_cell_angle_beta                 99.885(5)
_cell_angle_gamma                90
_cell_volume                     1448.81
_exptl_crystal_colour            colorless
_exptl_crystal_description       block
_cell_formula_units_Z            4
loop_
_atom_site_label
_atom_site_type_symbol
_atom_site_fract_x
_atom_site_fract_y
_atom_site_fract_z
F1 F -0.0751(2) 0.4112(4) 0.12982(19)
N1 N 0.3246(2) 0.5208(3) 0.12117(14)
N2 N 0.4303(2) 0.4404(4) 0.13817(16)
N3 N 0.4158(3) 0.3223(4) 0.18996(18)
N4 N 0.3027(3) 0.3232(4) 0.20746(17)
C1 C 0.2607(3) 0.8015(4) 0.08462(18)
H1 H 0.2354 0.8119 0.1370
C2 C 0.2482(3) 0.9302(4) 0.02745(18)
H2 H 0.2128 1.0270 0.0415
C3 C 0.2871(3) 0.9193(3) -0.05029(16)
C4 C 0.3378(3) 0.7735(4) -0.06872(17)
H3 H 0.3650 0.7631 -0.1204
C5 C 0.3500(3) 0.6420(4) -0.01325(16)
H4 H 0.3841 0.5443 -0.0275
C6 C 0.3111(3) 0.6578(3) 0.06293(16)
C7 C 0.2755(3) 1.0633(4) -0.11253(19)
C8 C 0.2476(3) 0.4472(4) 0.16464(18)
C9 C 0.1209(3) 0.4942(4) 0.1622(2)
H5 H 0.1114 0.5334 0.2182
H6 H 0.1017 0.5844 0.1223
C10 C 0.0365(4) 0.3619(8) 0.1374(3)
C11 C 0.2576(13) 1.0086(16) -0.2043(6)
H7 H 0.3260 0.9468 -0.2141
H8 H 0.2480 1.1030 -0.2410
H9 H 0.1875 0.9410 -0.2164
F2 F 0.0496(6) 0.2493(9) 0.2059(5)
F3 F 0.0483(8) 0.2754(13) 0.0728(6)
C12 C 0.1635(11) 1.1682(14) -0.1070(7)
H10 H 0.0938 1.0995 -0.1163
H11 H 0.1556 1.2525 -0.1498
H12 H 0.1717 1.2176 -0.0515
C13 C 0.3817(13) 1.1663(15) -0.0966(9)
H13 H 0.3986 1.1953 -0.0372
H14 H 0.3682 1.2642 -0.1305
H15 H 0.4483 1.1073 -0.1116
F4? F 0.0552(18) 0.233(2) 0.135(2)
F5? F 0.0484(19) 0.399(3) 0.0400(10)
C14? C 0.1945(17) 1.026(2) -0.1872(12)
H16? H 0.2157 0.9226 -0.2095
H17? H 0.1972 1.1104 -0.2289
H18? H 0.1152 1.0190 -0.1742
C15? C 0.4041(16) 1.077(2) -0.1420(12)
H19? H 0.4652 1.0892 -0.0926
H20? H 0.4048 1.1705 -0.1787
H21? H 0.4188 0.9792 -0.1724
C16? C 0.277(2) 1.2216(13) -0.0679(9)
H22? H 0.2014 1.2381 -0.0495
H23? H 0.2901 1.3087 -0.1059
H24? H 0.3396 1.2215 -0.0191
loop_
_geom_bond_atom_site_label_1
_geom_bond_atom_site_label_2
_geom_bond_site_symmetry_1
_geom_bond_site_symmetry_2
F1 C10 1_555 1_555
N1 N2 1_555 1_555
N2 N3 1_555 1_555
N3 N4 1_555 1_555
N4 C8 1_555 1_555
C1 H1 1_555 1_555
C2 C1 1_555 1_555
H2 C2 1_555 1_555
C3 C2 1_555 1_555
C4 C3 1_555 1_555
H3 C4 1_555 1_555
C5 C4 1_555 1_555
H4 C5 1_555 1_555
C6 N1 1_555 1_555
C7 C3 1_555 1_555
C8 N1 1_555 1_555
C9 C8 1_555 1_555
H5 C9 1_555 1_555
H6 C9 1_555 1_555
C10 C9 1_555 1_555
C11 C7 1_555 1_555
H7 C11 1_555 1_555
H8 C11 1_555 1_555
H9 C11 1_555 1_555
F2 C10 1_555 1_555
F3 C10 1_555 1_555
C12 C7 1_555 1_555
H10 C12 1_555 1_555
H11 C12 1_555 1_555
H12 C12 1_555 1_555
C13 C7 1_555 1_555
H13 C13 1_555 1_555
H14 C13 1_555 1_555
H15 C13 1_555 1_555
C1 C6 1_555 1_555
C5 C6 1_555 1_555

#END
