
#######################################################################
#
#                 Cambridge Crystallographic Data Centre
#                                CCDC 
#
#######################################################################
#
# If this CIF has been generated from an entry in the Cambridge 
# Structural Database, then it will include bibliographic, chemical, 
# crystal, experimental, refinement or atomic coordinate data resulting 
# from the CCDC's data processing and validation procedures.
#
#######################################################################

data_DUPPEL
_chemical_formula_moiety         'C17 H12 Cl1 F1 N2 O1'
_chemical_name_systematic        
(2-Chlorophenyl)(4-fluorophenyl)pyrimidin-5-ylmethanol
_symmetry_cell_setting           monoclinic
_symmetry_space_group_name_H-M   'P 21/n'
_symmetry_Int_Tables_number      14
_space_group_name_Hall           '-P 2yn'
loop_
_symmetry_equiv_pos_site_id
_symmetry_equiv_pos_as_xyz
1 x,y,z
2 1/2-x,1/2+y,1/2-z
3 -x,-y,-z
4 1/2+x,1/2-y,1/2+z
_cell_length_a                   13.5772(5)
_cell_length_b                   9.3722(4)
_cell_length_c                   22.8756(10)
_cell_angle_alpha                90
_cell_angle_beta                 99.974(2)
_cell_angle_gamma                90
_cell_volume                     2866.89
_exptl_crystal_colour            colorless
_exptl_crystal_description       block
_cell_formula_units_Z            8
loop_
_atom_site_label
_atom_site_type_symbol
_atom_site_fract_x
_atom_site_fract_y
_atom_site_fract_z
Cl1 Cl 0.63147(3) 1.08339(5) 0.58828(2)
F1 F 0.63952(9) 0.43385(10) 0.56060(5)
O1 O 0.84803(8) 0.94613(11) 0.46184(5)
H1 H 0.8638 1.0227 0.4467
N1 N 0.59896(11) 1.09694(14) 0.35847(6)
N2 N 0.63234(10) 1.29702(14) 0.42266(6)
C1 C 0.81585(11) 1.04686(15) 0.55498(6)
C2 C 0.76148(12) 1.09722(16) 0.59716(7)
C3 C 0.80810(14) 1.16167(18) 0.64950(7)
H2 H 0.7691 1.1970 0.6770
C4 C 0.91094(15) 1.17431(19) 0.66147(8)
H3 H 0.9429 1.2177 0.6973
C5 C 0.96701(14) 1.12369(18) 0.62112(8)
H4 H 1.0378 1.1312 0.6292
C6 C 0.91950(12) 1.06180(16) 0.56867(7)
H5 H 0.9590 1.0284 0.5411
C7 C 0.77056(11) 0.97330(15) 0.49555(6)
C8 C 0.69528(11) 1.06668(15) 0.45545(6)
C9 C 0.64915(12) 1.01376(17) 0.40093(7)
H6 H 0.6534 0.9144 0.3935
C10 C 0.59480(12) 1.23530(17) 0.37161(7)
H7 H 0.5614 1.2958 0.3412
C11 C 0.68292(12) 1.21098(16) 0.46406(7)
H8 H 0.7117 1.2512 0.5012
C12 C 0.73077(11) 0.82590(15) 0.50925(6)
C13 C 0.62998(12) 0.79740(16) 0.50815(7)
H9 H 0.5819 0.8698 0.4959
C14 C 0.59850(13) 0.66483(17) 0.52473(7)
H10 H 0.5296 0.6455 0.5241
C15 C 0.66972(14) 0.56261(16) 0.54209(7)
C16 C 0.76940(13) 0.58404(17) 0.54206(7)
H11 H 0.8165 0.5096 0.5531
C17 C 0.80007(12) 0.71699(16) 0.52556(7)
H12 H 0.8690 0.7341 0.5254
Cl2 Cl 0.76439(3) 0.87663(5) 0.24544(2)
F2 F 0.10747(8) 0.85446(14) 0.18266(6)
O2 O 0.55752(8) 1.03372(10) 0.23794(4)
H13 H 0.5641 1.0449 0.2748
N3 N 0.59877(10) 0.71612(15) 0.08495(6)
N4 N 0.56029(11) 0.96125(15) 0.06519(6)
C18 C 0.58321(11) 0.78920(15) 0.27131(6)
C19 C 0.68755(12) 0.77899(16) 0.28450(7)
C20 C 0.73552(13) 0.69367(17) 0.33029(7)
H14 H 0.8064 0.6877 0.3378
C21 C 0.68046(14) 0.61731(17) 0.36501(7)
H15 H 0.7133 0.5594 0.3965
C22 C 0.57749(14) 0.62565(17) 0.35365(7)
H16 H 0.5391 0.5736 0.3774
C23 C 0.52998(12) 0.71057(16) 0.30732(7)
H17 H 0.4590 0.7152 0.3000
C24 C 0.52929(11) 0.89043(15) 0.22322(6)
C25 C 0.55638(11) 0.86464(15) 0.16185(6)
C26 C 0.58502(12) 0.73512(17) 0.14135(7)
H18 H 0.5954 0.6566 0.1680
C27 C 0.58488(13) 0.83070(19) 0.05016(7)
H19 H 0.5935 0.8178 0.0102
C28 C 0.54549(12) 0.97556(17) 0.12101(7)
H20 H 0.5265 1.0666 0.1335
C29 C 0.41437(11) 0.87642(15) 0.21441(6)
C30 C 0.36495(12) 0.75843(17) 0.18589(7)
H21 H 0.4030 0.6824 0.1736
C31 C 0.26178(13) 0.75007(18) 0.17516(7)
H22 H 0.2286 0.6692 0.1559
C32 C 0.20876(12) 0.86111(19) 0.19289(7)
C33 C 0.25363(13) 0.97840(19) 0.22114(8)
H23 H 0.2147 1.0538 0.2331
C34 C 0.35716(13) 0.98521(18) 0.23203(7)
H24 H 0.3894 1.0660 0.2519
loop_
_geom_bond_atom_site_label_1
_geom_bond_atom_site_label_2
_geom_bond_site_symmetry_1
_geom_bond_site_symmetry_2
Cl1 C2 1_555 1_555
F1 C15 1_555 1_555
O1 H1 1_555 1_555
N1 C9 1_555 1_555
N2 C10 1_555 1_555
C1 C2 1_555 1_555
C2 C3 1_555 1_555
C3 H2 1_555 1_555
C4 C3 1_555 1_555
H3 C4 1_555 1_555
C5 C4 1_555 1_555
H4 C5 1_555 1_555
C6 C1 1_555 1_555
H5 C6 1_555 1_555
C7 O1 1_555 1_555
C8 C7 1_555 1_555
C9 C8 1_555 1_555
H6 C9 1_555 1_555
C10 N1 1_555 1_555
H7 C10 1_555 1_555
C11 N2 1_555 1_555
H8 C11 1_555 1_555
C12 C7 1_555 1_555
C13 C12 1_555 1_555
H9 C13 1_555 1_555
C14 C13 1_555 1_555
H10 C14 1_555 1_555
C15 C14 1_555 1_555
C16 C15 1_555 1_555
H11 C16 1_555 1_555
C17 C12 1_555 1_555
H12 C17 1_555 1_555
Cl2 C19 1_555 1_555
F2 C32 1_555 1_555
O2 H13 1_555 1_555
N3 C26 1_555 1_555
N4 C27 1_555 1_555
C18 C19 1_555 1_555
C19 C20 1_555 1_555
C20 H14 1_555 1_555
C21 C20 1_555 1_555
H15 C21 1_555 1_555
C22 C21 1_555 1_555
H16 C22 1_555 1_555
C23 C18 1_555 1_555
H17 C23 1_555 1_555
C24 O2 1_555 1_555
C25 C24 1_555 1_555
C26 C25 1_555 1_555
H18 C26 1_555 1_555
C27 N3 1_555 1_555
H19 C27 1_555 1_555
C28 N4 1_555 1_555
H20 C28 1_555 1_555
C29 C24 1_555 1_555
C30 C29 1_555 1_555
H21 C30 1_555 1_555
C31 C30 1_555 1_555
H22 C31 1_555 1_555
C32 C31 1_555 1_555
C33 C32 1_555 1_555
H23 C33 1_555 1_555
C34 C29 1_555 1_555
H24 C34 1_555 1_555
C1 C7 1_555 1_555
C5 C6 1_555 1_555
C8 C11 1_555 1_555
C16 C17 1_555 1_555
C18 C24 1_555 1_555
C22 C23 1_555 1_555
C25 C28 1_555 1_555
C33 C34 1_555 1_555

#END
