
#######################################################################
#
#                 Cambridge Crystallographic Data Centre
#                                CCDC 
#
#######################################################################
#
# If this CIF has been generated from an entry in the Cambridge 
# Structural Database, then it will include bibliographic, chemical, 
# crystal, experimental, refinement or atomic coordinate data resulting 
# from the CCDC's data processing and validation procedures.
#
#######################################################################

data_DUPQIP
_chemical_formula_moiety         'Na1 1+,C2 H2 N3 S2 1-,2(H2 O1)'
_chemical_name_systematic        
'Sodium 5-amino-1,3,4-thiadiazole-2-thiolate dihydrate'
_symmetry_cell_setting           monoclinic
_symmetry_space_group_name_H-M   'P 21/c'
_symmetry_Int_Tables_number      14
_space_group_name_Hall           '-P 2ybc'
loop_
_symmetry_equiv_pos_site_id
_symmetry_equiv_pos_as_xyz
1 x,y,z
2 -x,1/2+y,1/2-z
3 -x,-y,-z
4 x,1/2-y,1/2+z
_cell_length_a                   8.7810(3)
_cell_length_b                   20.0593(5)
_cell_length_c                   8.4351(3)
_cell_angle_alpha                90
_cell_angle_beta                 91.0260(10)
_cell_angle_gamma                90
_cell_volume                     1485.53
_exptl_crystal_colour            colorless
_exptl_crystal_description       block
_cell_formula_units_Z            8
_exptl_crystal_recrystallization_method methanol
loop_
_atom_site_label
_atom_site_type_symbol
_atom_site_fract_x
_atom_site_fract_y
_atom_site_fract_z
S1 S 0.46866(5) 0.720405(18) 0.04494(5)
S3 S 0.71560(5) 0.66512(2) -0.16488(6)
N1 N 0.41175(17) 0.60144(7) 0.13535(18)
N3 N 0.53241(16) 0.59605(7) 0.03004(17)
C2 C 0.57417(17) 0.65311(7) -0.02914(18)
C3 C 0.36620(18) 0.66293(8) 0.15350(18)
N6 N 0.24845(18) 0.67989(8) 0.2467(2)
H11 H 0.2000 0.6496 0.2972
H12 H 0.2221 0.7210 0.2554
S2 S 0.97675(5) 0.708164(18) 0.53837(5)
S4 S 1.23359(5) 0.65778(2) 0.75020(5)
N2 N 0.93910(16) 0.58939(6) 0.43221(16)
N4 N 1.05908(15) 0.58553(6) 0.54520(15)
C1 C 0.88628(18) 0.65001(7) 0.41696(18)
N5 N 0.76956(18) 0.66682(7) 0.31696(18)
H9 H 0.7261 0.6368 0.2592
H10 H 0.7391 0.7075 0.3114
C4 C 1.09218(17) 0.64295(7) 0.61080(17)
Na1 Na 0.71086(8) 0.49937(4) 0.47238(8)
Na2 Na 0.98033(7) 0.50450(3) 0.20940(8)
O1 O 0.70915(13) 0.49947(6) 0.18979(14)
H1 H 0.6554 0.5221 0.1237
H2 H 0.6897 0.4585 0.1699
O2 O 0.99706(15) 0.58368(6) 0.00068(15)
H3 H 1.0720 0.6080 -0.0267
H4 H 0.9227 0.6081 -0.0358
O3 O 0.75550(13) 0.50610(6) 0.74664(14)
H7 H 0.7328 0.5460 0.7754
H8 H 0.6964 0.4767 0.7880
H5 H 0.5182 0.6062 0.4294
H6 H 0.5156 0.6066 0.5812
O4 O 0.50110(17) 0.57964(7) 0.50136(16)
loop_
_geom_bond_atom_site_label_1
_geom_bond_atom_site_label_2
_geom_bond_site_symmetry_1
_geom_bond_site_symmetry_2
S1 C2 1_555 1_555
S2 C1 1_555 1_555
S3 C2 1_555 1_555
S4 C4 1_555 1_555
O1 H1 1_555 1_555
H2 O1 1_555 1_555
O2 H3 1_555 1_555
H4 O2 1_555 1_555
O3 H7 1_555 1_555
H5 O4 1_555 1_555
H6 O4 1_555 1_555
N1 N3 1_555 1_555
N2 N4 1_555 1_555
N3 C2 1_555 1_555
H8 O3 1_555 1_555
N4 C4 1_555 1_555
C1 N2 1_555 1_555
N5 C1 1_555 1_555
H9 N5 1_555 1_555
H10 N5 1_555 1_555
C3 S1 1_555 1_555
N6 C3 1_555 1_555
H11 N6 1_555 1_555
H12 N6 1_555 1_555
C4 S2 1_555 1_555
N1 C3 1_555 1_555

#END
