
#######################################################################
#
#                 Cambridge Crystallographic Data Centre
#                                CCDC 
#
#######################################################################
#
# If this CIF has been generated from an entry in the Cambridge 
# Structural Database, then it will include bibliographic, chemical, 
# crystal, experimental, refinement or atomic coordinate data resulting 
# from the CCDC's data processing and validation procedures.
#
#######################################################################

data_DUQDIE
_chemical_formula_moiety         'C25 H24 Br1 O4 P1'
_chemical_name_systematic        
'Isopropyl 4-(4-bromophenyl)-4-(diphenylphosphoryl)-2-oxobutanoate'
_symmetry_cell_setting           orthorhombic
_symmetry_space_group_name_H-M   'P 21 21 21'
_symmetry_Int_Tables_number      19
_space_group_name_Hall           'P 2ac 2ab'
loop_
_symmetry_equiv_pos_site_id
_symmetry_equiv_pos_as_xyz
1 x,y,z
2 1/2-x,-y,1/2+z
3 1/2+x,1/2-y,-z
4 -x,1/2+y,1/2-z
_cell_length_a                   5.6802(7)
_cell_length_b                   17.6825(10)
_cell_length_c                   23.7338(17)
_cell_angle_alpha                90
_cell_angle_beta                 90
_cell_angle_gamma                90
_cell_volume                     2383.83
_exptl_crystal_colour            colorless
_exptl_crystal_description       needle
_cell_formula_units_Z            4
_exptl_crystal_recrystallization_method dichloromethane/hexane
loop_
_atom_site_label
_atom_site_type_symbol
_atom_site_fract_x
_atom_site_fract_y
_atom_site_fract_z
Br1 Br 0.80225(16) 0.47243(3) 0.16226(3)
P1 P 0.9037(2) 0.07649(7) 0.14756(5)
O1 O 0.4047(7) 0.1545(2) 0.28529(13)
O2 O 1.1577(5) 0.09092(18) 0.15468(13)
O3 O 0.8667(11) 0.1453(5) 0.37378(19)
O4 O 0.4936(8) 0.1293(3) 0.39395(14)
C1 C 0.5673(9) 0.2519(3) 0.1609(2)
H1 H 0.4359 0.2265 0.1471
C2 C 0.5853(10) 0.3294(3) 0.1537(2)
H2 H 0.4657 0.3560 0.1358
C3 C 0.7780(10) 0.3663(3) 0.1731(2)
C4 C 0.9572(10) 0.3280(3) 0.1989(2)
H3 H 1.0906 0.3536 0.2112
C5 C 0.9385(9) 0.2519(3) 0.2064(2)
H4 H 1.0599 0.2259 0.2243
C6 C 0.7416(8) 0.2121(2) 0.18808(16)
C7 C 0.7183(8) 0.1279(2) 0.19722(17)
H5 H 0.5543 0.1139 0.1897
C8 C 0.8021(8) 0.1041(2) 0.07887(17)
C9 C 0.5880(9) 0.0807(3) 0.0568(2)
H6 H 0.4876 0.0506 0.0781
C10 C 0.5246(11) 0.1027(4) 0.0028(2)
H7 H 0.3835 0.0854 -0.0124
C11 C 0.6652(12) 0.1491(4) -0.0287(2)
H8 H 0.6199 0.1638 -0.0648
C12 C 0.8702(13) 0.1733(4) -0.0067(2)
H9 H 0.9657 0.2054 -0.0277
C13 C 0.6680(11) 0.1358(3) 0.3598(2)
C14 C 0.9415(10) 0.1514(3) 0.0466(2)
H10 H 1.0843 0.1686 0.0608
C15 C 0.8306(8) -0.0234(3) 0.15540(18)
C16 C 0.6244(10) -0.0504(3) 0.1768(2)
H11 H 0.5092 -0.0167 0.1888
C17 C 0.5844(12) -0.1276(3) 0.1809(3)
H12 H 0.4448 -0.1457 0.1963
C18 C 0.7547(14) -0.1772(3) 0.1618(2)
H13 H 0.7287 -0.2291 0.1638
C19 C 0.9600(12) -0.1506(3) 0.1401(2)
H14 H 1.0736 -0.1842 0.1271
C20 C 1.0001(10) -0.0737(3) 0.1372(2)
H15 H 1.1420 -0.0557 0.1230
C21 C 0.7751(9) 0.1051(2) 0.25810(17)
H16 H 0.7830 0.0504 0.2606
H17 H 0.9283 0.1251 0.2683
C22 C 0.5981(10) 0.1331(3) 0.29831(19)
C23 C 0.5326(15) 0.1312(5) 0.4549(2)
H18 H 0.6769 0.1596 0.4629
C24 C 0.554(4) 0.0592(7) 0.4756(4)
H19 H 0.4010 0.0369 0.4793
H20 H 0.6296 0.0608 0.5118
H21 H 0.6475 0.0294 0.4502
C25 C 0.332(3) 0.1723(10) 0.4768(4)
H22 H 0.3086 0.2175 0.4551
H23 H 0.3602 0.1855 0.5154
H24 H 0.1939 0.1411 0.4744
loop_
_geom_bond_atom_site_label_1
_geom_bond_atom_site_label_2
_geom_bond_site_symmetry_1
_geom_bond_site_symmetry_2
Br1 C3 1_555 1_555
P1 O2 1_555 1_555
O1 C22 1_555 1_555
O3 C13 1_555 1_555
O4 C13 1_555 1_555
C1 H1 1_555 1_555
C2 C1 1_555 1_555
H2 C2 1_555 1_555
C3 C2 1_555 1_555
C4 C3 1_555 1_555
H3 C4 1_555 1_555
C5 C4 1_555 1_555
H4 C5 1_555 1_555
C6 C1 1_555 1_555
C7 P1 1_555 1_555
H5 C7 1_555 1_555
C8 P1 1_555 1_555
C9 C8 1_555 1_555
H6 C9 1_555 1_555
C10 C9 1_555 1_555
H7 C10 1_555 1_555
C11 C10 1_555 1_555
H8 C11 1_555 1_555
C12 C11 1_555 1_555
H9 C12 1_555 1_555
C13 C22 1_555 1_555
C14 C8 1_555 1_555
H10 C14 1_555 1_555
C15 P1 1_555 1_555
C16 C15 1_555 1_555
H11 C16 1_555 1_555
C17 C16 1_555 1_555
H12 C17 1_555 1_555
C18 C17 1_555 1_555
H13 C18 1_555 1_555
C19 C18 1_555 1_555
H14 C19 1_555 1_555
C20 C15 1_555 1_555
H15 C20 1_555 1_555
C21 C7 1_555 1_555
H16 C21 1_555 1_555
H17 C21 1_555 1_555
C22 C21 1_555 1_555
C23 O4 1_555 1_555
H18 C23 1_555 1_555
C24 C23 1_555 1_555
H19 C24 1_555 1_555
H20 C24 1_555 1_555
H21 C24 1_555 1_555
C25 C23 1_555 1_555
H22 C25 1_555 1_555
H23 C25 1_555 1_555
H24 C25 1_555 1_555
C5 C6 1_555 1_555
C6 C7 1_555 1_555
C12 C14 1_555 1_555
C19 C20 1_555 1_555

#END
