
#######################################################################
#
#                 Cambridge Crystallographic Data Centre
#                                CCDC 
#
#######################################################################
#
# If this CIF has been generated from an entry in the Cambridge 
# Structural Database, then it will include bibliographic, chemical, 
# crystal, experimental, refinement or atomic coordinate data resulting 
# from the CCDC's data processing and validation procedures.
#
#######################################################################

data_DUQMEJ
_chemical_name_common            
"2,8,14,20-tetraethyl-5,10,15,20-tetramethyl-4,24:6,10:12,16:18,22-O,O'-tetrakis(phenylphosphoroselenoyl)calix[4]resorcinarene chloroform solvate"
_chemical_formula_moiety         'C64 H60 O8 P4 Se4,C1 H1 Cl3'
_chemical_name_systematic        
'25,29,33,37-tetraethyl-6,12,18,39-tetramethyl-3,9,15,21-tetraphenyl-2,4,8,10,14,16,20,22-octaoxa-3,9,15,21-tetraphosphanonacyclo[21.15.1.1^24,38^.0^5,36^.0^7,34^.0^11,32^.0^13,30^.0^17,28^.0^19,26^]tetraconta-1(39),5(36),6,11(32),12,17(28),18,23,26,30,34,38(40)-dodecaene 3,9,15,21-tetraselenide chloroform solvate'
_symmetry_cell_setting           monoclinic
_symmetry_space_group_name_H-M   'P 21/n'
_symmetry_Int_Tables_number      14
_space_group_name_Hall           '-P 2yn'
loop_
_symmetry_equiv_pos_site_id
_symmetry_equiv_pos_as_xyz
1 x,y,z
2 1/2-x,1/2+y,1/2-z
3 -x,-y,-z
4 1/2+x,1/2-y,1/2+z
_cell_length_a                   15.856(11)
_cell_length_b                   18.610(13)
_cell_length_c                   23.785(16)
_cell_angle_alpha                90
_cell_angle_beta                 107.413(11)
_cell_angle_gamma                90
_cell_volume                     6696.84
_exptl_crystal_colour            colorless
_exptl_crystal_description       block
_cell_formula_units_Z            4
loop_
_atom_site_label
_atom_site_type_symbol
_atom_site_fract_x
_atom_site_fract_y
_atom_site_fract_z
Se1 Se 0.11288(7) 0.59626(6) 0.11949(5)
Se2 Se 0.35378(7) 0.61046(5) 0.08454(4)
Se3 Se 0.50966(7) 0.60310(6) 0.25683(5)
Se4 Se 0.25904(8) 0.59342(6) 0.31939(5)
P1 P 0.01090(15) 0.66653(12) 0.08488(11)
P2 P 0.37593(17) 0.67111(13) 0.01838(11)
P3 P 0.60561(16) 0.67851(13) 0.29066(11)
P4 P 0.23735(16) 0.67846(13) 0.36836(11)
O1 O 0.0239(3) 0.7189(3) 0.0340(2)
O2 O 0.2943(4) 0.7209(3) -0.0168(2)
O3 O 0.4582(4) 0.7258(3) 0.0387(3)
O4 O 0.6263(3) 0.7322(3) 0.2428(3)
O5 O 0.5886(3) 0.7308(3) 0.3404(2)
O6 O 0.3199(4) 0.7314(3) 0.3937(2)
O7 O 0.1551(3) 0.7291(3) 0.3368(2)
O8 O -0.0116(3) 0.7197(3) 0.1323(2)
C1 C 0.1073(6) 0.7517(4) 0.0384(4)
C2 C 0.1584(6) 0.7194(4) 0.0069(4)
C3 C 0.2384(6) 0.7528(5) 0.0123(4)
C4 C 0.2676(6) 0.8146(4) 0.0455(4)
C5 C 0.2117(5) 0.8442(4) 0.0742(4)
H1 H 0.2288 0.8861 0.0958
C6 C 0.1308(5) 0.8132(4) 0.0718(3)
C7 C 0.1277(6) 0.6552(4) -0.0322(4)
H2 H 0.1546 0.6557 -0.0634
H3 H 0.0646 0.6568 -0.0487
H4 H 0.1443 0.6120 -0.0095
C8 C 0.4773(6) 0.7596(5) 0.0948(4)
C9 C 0.5437(6) 0.7291(5) 0.1412(4)
C10 C 0.5604(5) 0.7616(4) 0.1961(4)
C11 C 0.5157(5) 0.8218(4) 0.2047(4)
C12 C 0.4502(5) 0.8501(4) 0.1576(4)
H5 H 0.4193 0.8905 0.1636
C13 C 0.4291(5) 0.8206(4) 0.1019(4)
C14 C 0.5988(6) 0.6659(5) 0.1321(4)
H6 H 0.5701 0.6218 0.1365
H7 H 0.6562 0.6679 0.1608
H8 H 0.6051 0.6682 0.0932
C15 C 0.5042(6) 0.7600(5) 0.3353(4)
C16 C 0.4533(5) 0.7281(4) 0.3664(4)
C17 C 0.3714(6) 0.7601(5) 0.3604(4)
C18 C 0.3405(5) 0.8199(4) 0.3252(4)
C19 C 0.3966(5) 0.8490(4) 0.2968(4)
H9 H 0.3780 0.8900 0.2740
C20 C 0.4789(5) 0.8212(4) 0.3002(4)
C21 C 0.4866(6) 0.6636(4) 0.4053(4)
H10 H 0.4712 0.6205 0.3823
H11 H 0.4602 0.6629 0.4367
H12 H 0.5497 0.6665 0.4215
C22 C 0.1380(6) 0.7554(5) 0.2785(4)
C23 C 0.0734(5) 0.7213(4) 0.2343(4)
C24 C 0.0549(5) 0.7521(4) 0.1780(4)
C25 C 0.0959(5) 0.8143(4) 0.1661(4)
C26 C 0.1580(5) 0.8458(4) 0.2130(4)
H13 H 0.1858 0.8877 0.2068
C27 C 0.1803(5) 0.8169(4) 0.2692(4)
C28 C 0.0244(6) 0.6556(5) 0.2457(4)
H14 H 0.0338 0.6163 0.2221
H15 H -0.0376 0.6660 0.2355
H16 H 0.0460 0.6428 0.2866
C29 C 0.3561(6) 0.8490(4) 0.0500(4)
H17 H 0.3712 0.8339 0.0147
C30 C 0.3520(6) 0.9316(5) 0.0478(5)
H18 H 0.3037 0.9462 0.0139
H19 H 0.3394 0.9491 0.0828
C31 C 0.4373(8) 0.9666(6) 0.0438(5)
H20 H 0.4860 0.9510 0.0764
H21 H 0.4320 1.0179 0.0451
H22 H 0.4476 0.9529 0.0075
C32 C 0.5368(6) 0.8552(4) 0.2663(4)
H23 H 0.5975 0.8405 0.2871
C33 C 0.5375(6) 0.9384(5) 0.2670(4)
H24 H 0.5700 0.9558 0.2411
H25 H 0.4773 0.9559 0.2521
C34 C 0.5793(7) 0.9679(5) 0.3285(5)
H26 H 0.5430 0.9560 0.3530
H27 H 0.5846 1.0192 0.3266
H28 H 0.6369 0.9472 0.3448
C35 C 0.2508(5) 0.8533(4) 0.3204(4)
H29 H 0.2368 0.8414 0.3568
C36 C 0.2508(6) 0.9361(4) 0.3157(4)
H30 H 0.2982 0.9550 0.3484
H31 H 0.2633 0.9493 0.2796
C37 C 0.1645(6) 0.9713(5) 0.3162(4)
H32 H 0.1166 0.9512 0.2854
H33 H 0.1677 1.0221 0.3100
H34 H 0.1547 0.9629 0.3536
C38 C 0.0702(5) 0.8458(4) 0.1044(4)
H35 H 0.0103 0.8288 0.0842
C39 C 0.0666(6) 0.9271(5) 0.1031(4)
H36 H 0.1229 0.9489 0.1254
C40 C 0.0324(12) 0.9576(10) 0.0467(8)
H37 H -0.0292 0.9460 0.0312
H38 H 0.0637 0.9387 0.0211
H39 H 0.0394 1.0088 0.0494
C41 C -0.0972(6) 0.6321(5) 0.0483(4)
C42 C -0.1076(7) 0.5706(6) 0.0174(5)
H40 H -0.0577 0.5452 0.0162
C43 C -0.1890(8) 0.5442(6) -0.0121(5)
H41 H -0.1941 0.5025 -0.0344
C44 C -0.2622(8) 0.5787(7) -0.0089(5)
H42 H -0.3175 0.5585 -0.0262
C45 C -0.2555(8) 0.6440(8) 0.0199(6)
H43 H -0.3056 0.6697 0.0203
C46 C -0.1701(7) 0.6700(7) 0.0485(6)
H44 H -0.1636 0.7140 0.0679
C47 C 0.4034(7) 0.6274(6) -0.0393(4)
C48 C 0.4768(8) 0.6374(9) -0.0548(6)
H45 H 0.5161 0.6733 -0.0361
C49 C 0.4961(10) 0.5963(11) -0.0978(7)
H46 H 0.5489 0.6048 -0.1062
C50 C 0.4427(12) 0.5450(10) -0.1276(8)
H47 H 0.4585 0.5152 -0.1542
C51 C 0.3711(12) 0.5394(10) -0.1178(8)
H48 H 0.3297 0.5081 -0.1414
C52 C 0.3471(9) 0.5773(7) -0.0730(6)
H49 H 0.2931 0.5681 -0.0666
C53 C 0.7154(6) 0.6499(5) 0.3258(4)
C54 C 0.7398(9) 0.5821(7) 0.3241(8)
H50 H 0.6970 0.5476 0.3077
C55 C 0.8285(10) 0.5608(9) 0.3462(9)
H51 H 0.8450 0.5136 0.3420
C56 C 0.8911(9) 0.6112(9) 0.3745(6)
H52 H 0.9502 0.5981 0.3898
C57 C 0.8663(7) 0.6771(7) 0.3797(5)
H53 H 0.9077 0.7107 0.4000
C58 C 0.7803(6) 0.6973(5) 0.3554(5)
H54 H 0.7649 0.7449 0.3590
C59 C 0.2105(7) 0.6617(5) 0.4352(4)
C60 C 0.1356(7) 0.6821(6) 0.4452(5)
H55 H 0.0936 0.7060 0.4152
C61 C 0.1169(8) 0.6697(7) 0.4981(6)
H56 H 0.0631 0.6846 0.5022
C62 C 0.1733(10) 0.6378(9) 0.5412(5)
H57 H 0.1633 0.6350 0.5777
C63 C 0.2479(10) 0.6078(10) 0.5333(6)
H58 H 0.2844 0.5779 0.5616
C64 C 0.2672(8) 0.6246(9) 0.4793(5)
H59 H 0.3207 0.6094 0.4748
Cl1 Cl 0.7472(4) 0.8880(3) 0.2269(3)
Cl2 Cl 0.9144(5) 0.8823(6) 0.2216(5)
Cl3 Cl 0.8106(4) 0.7652(4) 0.1893(3)
C66 C 0.8427(15) 0.8245(12) 0.2445(10)
H63 H 0.8635 0.8054 0.2847
C65? C -0.0024(14) 0.9526(11) 0.1200(9)
H60? H -0.0250 0.9955 0.0982
H61? H 0.0173 0.9635 0.1614
H62? H -0.0482 0.9170 0.1124
loop_
_geom_bond_atom_site_label_1
_geom_bond_atom_site_label_2
_geom_bond_site_symmetry_1
_geom_bond_site_symmetry_2
Se1 P1 1_555 1_555
Se2 P2 1_555 1_555
Se3 P3 1_555 1_555
Se4 P4 1_555 1_555
P1 O1 1_555 1_555
P2 O2 1_555 1_555
P3 O4 1_555 1_555
P4 O6 1_555 1_555
O1 C1 1_555 1_555
O2 C3 1_555 1_555
O3 P2 1_555 1_555
O4 C10 1_555 1_555
O5 P3 1_555 1_555
O6 C17 1_555 1_555
O7 P4 1_555 1_555
O8 P1 1_555 1_555
C1 C2 1_555 1_555
C2 C3 1_555 1_555
C3 C4 1_555 1_555
C4 C5 1_555 1_555
C5 H1 1_555 1_555
C6 C1 1_555 1_555
C7 C2 1_555 1_555
H2 C7 1_555 1_555
H3 C7 1_555 1_555
H4 C7 1_555 1_555
C8 O3 1_555 1_555
C9 C8 1_555 1_555
C10 C9 1_555 1_555
C11 C10 1_555 1_555
C12 C11 1_555 1_555
H5 C12 1_555 1_555
C13 C8 1_555 1_555
C14 C9 1_555 1_555
H6 C14 1_555 1_555
H7 C14 1_555 1_555
H8 C14 1_555 1_555
C15 O5 1_555 1_555
C16 C15 1_555 1_555
C17 C16 1_555 1_555
C18 C17 1_555 1_555
C19 C18 1_555 1_555
H9 C19 1_555 1_555
C20 C15 1_555 1_555
C21 C16 1_555 1_555
H10 C21 1_555 1_555
H11 C21 1_555 1_555
H12 C21 1_555 1_555
C22 O7 1_555 1_555
C23 C22 1_555 1_555
C24 O8 1_555 1_555
C25 C24 1_555 1_555
C26 C25 1_555 1_555
H13 C26 1_555 1_555
C27 C22 1_555 1_555
C28 C23 1_555 1_555
H14 C28 1_555 1_555
H15 C28 1_555 1_555
H16 C28 1_555 1_555
C29 C4 1_555 1_555
H17 C29 1_555 1_555
C30 C29 1_555 1_555
H18 C30 1_555 1_555
H19 C30 1_555 1_555
C31 C30 1_555 1_555
H20 C31 1_555 1_555
H21 C31 1_555 1_555
H22 C31 1_555 1_555
C32 C11 1_555 1_555
H23 C32 1_555 1_555
C33 C32 1_555 1_555
H24 C33 1_555 1_555
H25 C33 1_555 1_555
C34 C33 1_555 1_555
H26 C34 1_555 1_555
H27 C34 1_555 1_555
H28 C34 1_555 1_555
C35 C18 1_555 1_555
H29 C35 1_555 1_555
C36 C35 1_555 1_555
H30 C36 1_555 1_555
H31 C36 1_555 1_555
C37 C36 1_555 1_555
H32 C37 1_555 1_555
H33 C37 1_555 1_555
H34 C37 1_555 1_555
C38 C6 1_555 1_555
H35 C38 1_555 1_555
C39 C38 1_555 1_555
H36 C39 1_555 1_555
C40 C39 1_555 1_555
H37 C40 1_555 1_555
H38 C40 1_555 1_555
H39 C40 1_555 1_555
C41 P1 1_555 1_555
C42 C41 1_555 1_555
H40 C42 1_555 1_555
C43 C42 1_555 1_555
H41 C43 1_555 1_555
C44 C43 1_555 1_555
H42 C44 1_555 1_555
C45 C44 1_555 1_555
H43 C45 1_555 1_555
C46 C41 1_555 1_555
H44 C46 1_555 1_555
C47 P2 1_555 1_555
C48 C47 1_555 1_555
H45 C48 1_555 1_555
C49 C48 1_555 1_555
H46 C49 1_555 1_555
C50 C49 1_555 1_555
H47 C50 1_555 1_555
C51 C50 1_555 1_555
H48 C51 1_555 1_555
C52 C47 1_555 1_555
H49 C52 1_555 1_555
C53 P3 1_555 1_555
C54 C53 1_555 1_555
H50 C54 1_555 1_555
C55 C54 1_555 1_555
H51 C55 1_555 1_555
C56 C55 1_555 1_555
H52 C56 1_555 1_555
C57 C56 1_555 1_555
H53 C57 1_555 1_555
C58 C53 1_555 1_555
H54 C58 1_555 1_555
C59 P4 1_555 1_555
C60 C59 1_555 1_555
H55 C60 1_555 1_555
C61 C60 1_555 1_555
H56 C61 1_555 1_555
C62 C61 1_555 1_555
H57 C62 1_555 1_555
C63 C62 1_555 1_555
H58 C63 1_555 1_555
C64 C59 1_555 1_555
H59 C64 1_555 1_555
Cl1 C66 1_555 1_555
Cl2 C66 1_555 1_555
Cl3 C66 1_555 1_555
C66 H63 1_555 1_555
C5 C6 1_555 1_555
C12 C13 1_555 1_555
C13 C29 1_555 1_555
C19 C20 1_555 1_555
C20 C32 1_555 1_555
C23 C24 1_555 1_555
C25 C38 1_555 1_555
C26 C27 1_555 1_555
C27 C35 1_555 1_555
C45 C46 1_555 1_555
C51 C52 1_555 1_555
C57 C58 1_555 1_555
C63 C64 1_555 1_555

#END
