
#######################################################################
#
#                 Cambridge Crystallographic Data Centre
#                                CCDC 
#
#######################################################################
#
# If this CIF has been generated from an entry in the Cambridge 
# Structural Database, then it will include bibliographic, chemical, 
# crystal, experimental, refinement or atomic coordinate data resulting 
# from the CCDC's data processing and validation procedures.
#
#######################################################################

data_DUQRIS
_chemical_formula_moiety         'C20 H20 N2 O4'
_chemical_name_systematic        
3-(4-butoxy-3-methoxyphenyl)-2-(4-nitrophenyl)acrylonitrile
_symmetry_cell_setting           triclinic
_symmetry_space_group_name_H-M   'P -1'
_symmetry_Int_Tables_number      2
_space_group_name_Hall           '-P 1'
loop_
_symmetry_equiv_pos_site_id
_symmetry_equiv_pos_as_xyz
1 x,y,z
2 -x,-y,-z
_cell_length_a                   7.6575(5)
_cell_length_b                   13.7460(9)
_cell_length_c                   18.0512(12)
_cell_angle_alpha                107.207(6)
_cell_angle_beta                 95.492(5)
_cell_angle_gamma                92.441(5)
_cell_volume                     1801.66
_exptl_crystal_colour            yellow
_exptl_crystal_description       block
_cell_formula_units_Z            4
loop_
_atom_site_label
_atom_site_type_symbol
_atom_site_fract_x
_atom_site_fract_y
_atom_site_fract_z
C1 C 1.1089(3) 0.20899(16) -0.09845(13)
H1 H 1.1130 0.2268 -0.1442
C2 C 1.1346(3) 0.11162(16) -0.09748(13)
C3 C 0.6988(3) 0.72781(14) 0.61642(12)
H2 H 0.8112 0.7615 0.6143
H3 H 0.6101 0.7514 0.5851
C4 C 1.1044(3) 0.15653(15) 0.03758(12)
H4 H 1.1071 0.1389 0.0836
C5 C 1.1343(3) 0.08410(16) -0.03044(13)
H5 H 1.1540 0.0177 -0.0308
C6 C 0.6568(3) 0.75904(15) 0.70030(12)
H6 H 0.6459 0.8314 0.7179
H7 H 0.7497 0.7418 0.7327
H8 H 0.5481 0.7237 0.7034
C7 C 0.7689(3) 0.17474(14) 0.38631(13)
H9 H 0.7274 0.1462 0.4245
H10 H 0.8862 0.1558 0.3777
H11 H 0.6927 0.1491 0.3382
C8 C 1.0767(3) 0.28062(16) -0.03012(12)
H12 H 1.0588 0.3471 -0.0302
C9 C 0.8161(3) 0.33748(14) 0.36477(11)
C10 C 1.0666(3) 0.43617(17) 0.11778(12)
C11 C 0.7064(3) 0.61303(14) 0.58088(11)
H13 H 0.7863 0.5874 0.6145
H14 H 0.5906 0.5792 0.5769
C12 C 1.0704(3) 0.25520(14) 0.03861(11)
C13 C 0.8676(3) 0.50400(14) 0.35024(11)
H15 H 0.8684 0.5747 0.3699
C14 C 0.9153(3) 0.46039(14) 0.27611(11)
H16 H 0.9497 0.5022 0.2471
C15 C 1.0291(3) 0.33047(14) 0.11170(11)
C16 C 0.8598(2) 0.29485(14) 0.29076(11)
H17 H 0.8547 0.2241 0.2704
C17 C 0.8189(2) 0.44426(14) 0.39544(11)
C18 C 0.9123(2) 0.35537(14) 0.24468(11)
C19 C 0.9593(2) 0.30086(14) 0.16838(11)
H18 H 0.9368 0.2305 0.1556
C20 C 0.7680(3) 0.58924(14) 0.50112(11)
H19 H 0.6890 0.6153 0.4674
H20 H 0.8847 0.6219 0.5050
N1 N 1.1603(3) 0.03220(16) -0.17016(13)
N2 N 1.0986(3) 0.51864(14) 0.11950(12)
O1 O 1.1499(4) -0.05533(14) -0.17115(12)
O2 O 1.2019(4) 0.05760(14) -0.22420(11)
O3 O 0.76924(19) 0.28398(9) 0.41388(8)
O4 O 0.77141(18) 0.48035(9) 0.46868(7)
C21 C 0.6231(3) 0.08877(18) 0.90074(12)
C22 C 0.8534(3) -0.24112(15) 0.29710(12)
H21 H 0.8759 -0.3121 0.2813
H22 H 0.9526 -0.2013 0.2897
H23 H 0.7506 -0.2310 0.2662
C23 C 0.7018(3) 0.01938(16) 0.65404(13)
H24 H 0.7161 -0.0503 0.6366
C24 C 0.8238(3) -0.20804(14) 0.38228(12)
H25 H 0.9266 -0.2207 0.4129
H26 H 0.7244 -0.2493 0.3893
C25 C 0.6838(3) 0.33975(14) 0.60125(12)
H27 H 0.6888 0.3663 0.5579
H28 H 0.7835 0.3682 0.6393
H29 H 0.5775 0.3578 0.6245
C26 C 0.6597(3) 0.22501(14) 0.70642(12)
H30 H 0.6449 0.2946 0.7239
C27 C 0.6575(3) 0.16779(15) 0.75944(12)
C28 C 0.6359(3) 0.37097(15) 0.99686(12)
H31 H 0.6799 0.3956 0.9591
C29 C 0.6787(3) 0.06429(16) 0.73094(13)
H32 H 0.6772 0.0244 0.7645
C30 C 0.6343(3) 0.22350(15) 0.83941(12)
H33 H 0.6268 0.2932 0.8479
C31 C 0.6215(3) 0.19416(14) 0.90382(12)
C32 C 0.6077(3) 0.43867(15) 1.06699(12)
H34 H 0.6317 0.5085 1.0766
C33 C 0.7521(3) -0.06970(14) 0.49646(12)
H35 H 0.6465 -0.1087 0.5002
H36 H 0.8492 -0.0871 0.5276
C34 C 0.5423(3) 0.23153(15) 1.04055(12)
H37 H 0.5237 0.1617 1.0325
C35 C 0.5124(3) 0.29923(15) 1.11096(12)
H38 H 0.4717 0.2754 1.1498
C36 C 0.7044(3) 0.07570(14) 0.60217(12)
C37 C 0.7888(3) -0.09589(13) 0.41295(11)
H39 H 0.8904 -0.0538 0.4090
H40 H 0.6888 -0.0818 0.3815
C38 C 0.5434(3) 0.40154(15) 1.12295(12)
C39 C 0.6001(3) 0.26649(15) 0.98116(11)
C40 C 0.6832(3) 0.18065(14) 0.62952(11)
N3 N 0.6218(4) 0.00593(16) 0.90094(13)
N4 N 0.5063(2) 0.47496(15) 1.19643(11)
O5 O 0.4383(3) 0.44184(13) 1.24347(10)
O6 O 0.5446(2) 0.56559(12) 1.20689(10)
O7 O 0.6863(2) 0.23139(9) 0.57476(8)
O8 O 0.72921(19) 0.03780(9) 0.52564(8)
loop_
_geom_bond_atom_site_label_1
_geom_bond_atom_site_label_2
_geom_bond_site_symmetry_1
_geom_bond_site_symmetry_2
C1 H1 1_555 1_555
C2 C1 1_555 1_555
C3 H2 1_555 1_555
H3 C3 1_555 1_555
C4 H4 1_555 1_555
C5 C2 1_555 1_555
H5 C5 1_555 1_555
C6 C3 1_555 1_555
H6 C6 1_555 1_555
H7 C6 1_555 1_555
H8 C6 1_555 1_555
C7 H9 1_555 1_555
H10 C7 1_555 1_555
H11 C7 1_555 1_555
C8 C1 1_555 1_555
H12 C8 1_555 1_555
C9 C16 1_555 1_555
C10 C15 1_555 1_555
C11 C3 1_555 1_555
H13 C11 1_555 1_555
H14 C11 1_555 1_555
C12 C4 1_555 1_555
C13 H15 1_555 1_555
C14 C13 1_555 1_555
H16 C14 1_555 1_555
C15 C12 1_555 1_555
C16 H17 1_555 1_555
C17 C9 1_555 1_555
C18 C14 1_555 1_555
C19 C15 1_555 1_555
H18 C19 1_555 1_555
C20 C11 1_555 1_555
H19 C20 1_555 1_555
H20 C20 1_555 1_555
N1 C2 1_555 1_555
N2 C10 1_555 1_555
O1 N1 1_555 1_555
O2 N1 1_555 1_555
O3 C7 1_555 1_555
O4 C17 1_555 1_555
C21 C31 1_555 1_555
C22 H21 1_555 1_555
H22 C22 1_555 1_555
H23 C22 1_555 1_555
C23 H24 1_555 1_555
C24 C22 1_555 1_555
H25 C24 1_555 1_555
H26 C24 1_555 1_555
C25 H27 1_555 1_555
H28 C25 1_555 1_555
H29 C25 1_555 1_555
C26 H30 1_555 1_555
C27 C26 1_555 1_555
C28 H31 1_555 1_555
C29 C23 1_555 1_555
H32 C29 1_555 1_555
C30 C27 1_555 1_555
H33 C30 1_555 1_555
C31 C30 1_555 1_555
C32 C28 1_555 1_555
H34 C32 1_555 1_555
C33 H35 1_555 1_555
H36 C33 1_555 1_555
C34 H37 1_555 1_555
C35 C34 1_555 1_555
H38 C35 1_555 1_555
C36 C23 1_555 1_555
C37 C24 1_555 1_555
H39 C37 1_555 1_555
H40 C37 1_555 1_555
C38 C32 1_555 1_555
C39 C28 1_555 1_555
C40 C26 1_555 1_555
N3 C21 1_555 1_555
N4 C38 1_555 1_555
O5 N4 1_555 1_555
O6 N4 1_555 1_555
O7 C25 1_555 1_555
O8 C33 1_555 1_555
C4 C5 1_555 1_555
C8 C12 1_555 1_555
C9 O3 1_555 1_555
C13 C17 1_555 1_555
C16 C18 1_555 1_555
C18 C19 1_555 1_555
C20 O4 1_555 1_555
C27 C29 1_555 1_555
C31 C39 1_555 1_555
C33 C37 1_555 1_555
C34 C39 1_555 1_555
C35 C38 1_555 1_555
C36 C40 1_555 1_555
C36 O8 1_555 1_555
C40 O7 1_555 1_555

#END
