
#######################################################################
#
#                 Cambridge Crystallographic Data Centre
#                                CCDC 
#
#######################################################################
#
# If this CIF has been generated from an entry in the Cambridge 
# Structural Database, then it will include bibliographic, chemical, 
# crystal, experimental, refinement or atomic coordinate data resulting 
# from the CCDC's data processing and validation procedures.
#
#######################################################################

data_DURBOJ
_chemical_formula_moiety         'C52 H58 S2 Si2'
_chemical_name_systematic        
"[(1,9-dimethylphenaleno[2,1-b]phenaleno[1',2':4,5]thieno[2,3-d]thiene-6,15-diyl)di(ethyne-2,1-diyl)]bis[tri(propan-2-yl)silane]"
_symmetry_cell_setting           monoclinic
_symmetry_space_group_name_H-M   'P 21/c'
_symmetry_Int_Tables_number      14
_space_group_name_Hall           '-P 2ybc'
loop_
_symmetry_equiv_pos_site_id
_symmetry_equiv_pos_as_xyz
1 x,y,z
2 -x,1/2+y,1/2-z
3 -x,-y,-z
4 x,1/2-y,1/2+z
_cell_length_a                   17.7574(16)
_cell_length_b                   14.7085(14)
_cell_length_c                   17.0416(15)
_cell_angle_alpha                90
_cell_angle_beta                 90.251(5)
_cell_angle_gamma                90
_cell_volume                     4450.96
_exptl_crystal_colour            'dark red'
_exptl_crystal_description       'prism frag'
_cell_formula_units_Z            4
_chemical_properties_physical    
'Air-sensitive, Oxygen-sensitive, Photo-sensitive'
loop_
_atom_site_label
_atom_site_type_symbol
_atom_site_fract_x
_atom_site_fract_y
_atom_site_fract_z
S1 S -0.10775(6) 0.09811(7) 0.69199(6)
S2 S 0.12033(6) 0.09332(8) 0.75242(5)
Si1 Si 0.34533(7) 0.17958(10) 0.89457(7)
Si2 Si -0.33414(7) 0.19507(10) 0.55337(7)
C1 C -0.0559(2) 0.1064(3) 0.6045(2)
C2 C -0.0885(2) 0.1351(3) 0.5367(2)
C3 C -0.0420(2) 0.1484(3) 0.4691(2)
C4 C -0.0713(3) 0.1821(3) 0.3993(2)
H1 H -0.1230 0.1985 0.3970
C5 C -0.0272(3) 0.1927(3) 0.3327(2)
H2 H -0.0487 0.2159 0.2857
C6 C 0.0475(3) 0.1694(3) 0.3356(2)
H3 H 0.0775 0.1764 0.2900
C7 C 0.0807(3) 0.1353(3) 0.4051(3)
C8 C 0.1572(3) 0.1104(3) 0.4065(3)
H4 H 0.1876 0.1192 0.3614
C9 C 0.1873(3) 0.0737(3) 0.4729(3)
H5 H 0.2388 0.0559 0.4728
C10 C 0.1451(2) 0.0610(3) 0.5414(2)
C11 C 0.0705(2) 0.0921(3) 0.5446(2)
C12 C 0.0363(2) 0.1255(3) 0.4738(2)
C13 C 0.0236(2) 0.0897(3) 0.6150(2)
C14 C 0.0382(2) 0.0834(3) 0.6956(2)
C15 C 0.0693(2) 0.0962(3) 0.8400(2)
C16 C 0.0991(2) 0.1210(3) 0.9093(2)
C17 C 0.0505(2) 0.1331(3) 0.9757(2)
C18 C 0.0775(3) 0.1686(3) 1.0455(2)
H6 H 0.1288 0.1866 1.0492
C19 C 0.0313(3) 0.1786(3) 1.1103(2)
H7 H 0.0508 0.2038 1.1576
C20 C -0.0431(3) 0.1520(3) 1.1060(2)
H8 H -0.0742 0.1578 1.1510
C21 C -0.0737(2) 0.1164(3) 1.0360(3)
C22 C -0.0276(2) 0.1087(3) 0.9684(2)
C23 C -0.1493(3) 0.0870(3) 1.0322(3)
H9 H -0.1813 0.0938 1.0762
C24 C -0.1761(2) 0.0485(3) 0.9644(2)
H10 H -0.2264 0.0265 0.9634
C25 C -0.1325(2) 0.0402(3) 0.8965(2)
C26 C -0.0592(2) 0.0759(3) 0.8959(2)
C27 C -0.0110(2) 0.0800(3) 0.8269(2)
C28 C -0.0253(2) 0.0811(3) 0.7459(2)
C29 C 0.1842(2) 0.0097(3) 0.6061(2)
H11 H 0.2149 0.0519 0.6372
H12 H 0.2167 -0.0372 0.5833
H13 H 0.1466 -0.0190 0.6399
C30 C -0.1660(2) -0.0153(3) 0.8301(2)
H14 H -0.1957 -0.0654 0.8518
H15 H -0.1254 -0.0399 0.7976
H16 H -0.1986 0.0236 0.7979
C31 C -0.1671(3) 0.1565(3) 0.5361(2)
C32 C -0.2335(3) 0.1737(3) 0.5384(2)
C33 C -0.3786(3) 0.2217(4) 0.4553(3)
H17 H -0.4335 0.2326 0.4643
C34 C -0.3457(3) 0.3086(5) 0.4183(3)
H18 H -0.2922 0.2992 0.4070
H19 H -0.3514 0.3595 0.4549
H20 H -0.3727 0.3222 0.3694
C35 C -0.3718(3) 0.1433(4) 0.3979(3)
H21 H -0.3993 0.1580 0.3496
H22 H -0.3930 0.0883 0.4214
H23 H -0.3186 0.1331 0.3857
C36 C -0.3741(3) 0.0854(4) 0.5932(3)
H24 H -0.3578 0.0368 0.5560
C37 C -0.3397(3) 0.0600(4) 0.6729(3)
H25 H -0.3593 0.1010 0.7134
H26 H -0.2848 0.0658 0.6704
H27 H -0.3531 -0.0028 0.6859
C38 C -0.4596(3) 0.0800(5) 0.5956(4)
H28 H -0.4749 0.0192 0.6128
H29 H -0.4801 0.0920 0.5432
H30 H -0.4789 0.1255 0.6325
C39 C -0.3406(3) 0.2961(4) 0.6204(3)
H31 H -0.3261 0.3502 0.5882
C40 C -0.2858(3) 0.2944(4) 0.6915(3)
H32 H -0.2875 0.3532 0.7186
H33 H -0.2345 0.2829 0.6731
H34 H -0.3008 0.2461 0.7278
C41 C -0.4214(3) 0.3135(4) 0.6482(4)
H35 H -0.4375 0.2636 0.6822
H36 H -0.4551 0.3173 0.6026
H37 H -0.4232 0.3708 0.6774
C42 C 0.1781(3) 0.1401(3) 0.9121(2)
C43 C 0.2455(3) 0.1553(3) 0.9084(2)
C44 C 0.3505(3) 0.2864(4) 0.8347(3)
H38 H 0.3318 0.3365 0.8690
C45 C 0.2999(3) 0.2870(4) 0.7604(3)
H39 H 0.3008 0.3476 0.7366
H40 H 0.2481 0.2714 0.7749
H41 H 0.3188 0.2422 0.7227
C46 C 0.4313(3) 0.3118(5) 0.8119(4)
H42 H 0.4529 0.2635 0.7794
H43 H 0.4619 0.3192 0.8596
H44 H 0.4309 0.3689 0.7824
C47 C 0.3880(3) 0.0758(4) 0.8472(3)
H45 H 0.3718 0.0227 0.8796
C48 C 0.3582(3) 0.0582(4) 0.7645(3)
H46 H 0.3771 0.1052 0.7289
H47 H 0.3030 0.0597 0.7648
H48 H 0.3753 -0.0016 0.7466
C49 C 0.4758(3) 0.0747(4) 0.8481(4)
C50 C 0.3899(3) 0.1984(4) 0.9945(3)
C51 C 0.3590(3) 0.2837(4) 1.0350(3)
H49 H 0.3045 0.2775 1.0420
H50 H 0.3694 0.3372 1.0025
H51 H 0.3833 0.2910 1.0863
C52 C 0.3795(3) 0.1162(4) 1.0476(3)
H52 H 0.4073 0.1256 1.0967
H53 H 0.3986 0.0618 1.0212
H54 H 0.3258 0.1083 1.0590
loop_
_geom_bond_atom_site_label_1
_geom_bond_atom_site_label_2
_geom_bond_site_symmetry_1
_geom_bond_site_symmetry_2
S1 C1 1_555 1_555
S2 C14 1_555 1_555
Si1 C43 1_555 1_555
Si2 C32 1_555 1_555
C1 C2 1_555 1_555
C2 C3 1_555 1_555
C3 C4 1_555 1_555
C4 H1 1_555 1_555
C5 C4 1_555 1_555
H2 C5 1_555 1_555
C6 C5 1_555 1_555
H3 C6 1_555 1_555
C7 C6 1_555 1_555
C8 C7 1_555 1_555
H4 C8 1_555 1_555
C9 C8 1_555 1_555
H5 C9 1_555 1_555
C10 C9 1_555 1_555
C11 C10 1_555 1_555
C12 C3 1_555 1_555
C13 C1 1_555 1_555
C14 C13 1_555 1_555
C15 S2 1_555 1_555
C16 C15 1_555 1_555
C17 C16 1_555 1_555
C18 C17 1_555 1_555
H6 C18 1_555 1_555
C19 C18 1_555 1_555
H7 C19 1_555 1_555
C20 C19 1_555 1_555
H8 C20 1_555 1_555
C21 C20 1_555 1_555
C22 C17 1_555 1_555
C23 C21 1_555 1_555
H9 C23 1_555 1_555
C24 C23 1_555 1_555
H10 C24 1_555 1_555
C25 C24 1_555 1_555
C26 C22 1_555 1_555
C27 C15 1_555 1_555
C28 S1 1_555 1_555
C29 C10 1_555 1_555
H11 C29 1_555 1_555
H12 C29 1_555 1_555
H13 C29 1_555 1_555
C30 C25 1_555 1_555
H14 C30 1_555 1_555
H15 C30 1_555 1_555
H16 C30 1_555 1_555
C31 C2 1_555 1_555
C32 C31 1_555 1_555
C33 Si2 1_555 1_555
H17 C33 1_555 1_555
C34 C33 1_555 1_555
H18 C34 1_555 1_555
H19 C34 1_555 1_555
H20 C34 1_555 1_555
C35 C33 1_555 1_555
H21 C35 1_555 1_555
H22 C35 1_555 1_555
H23 C35 1_555 1_555
C36 Si2 1_555 1_555
H24 C36 1_555 1_555
C37 C36 1_555 1_555
H25 C37 1_555 1_555
H26 C37 1_555 1_555
H27 C37 1_555 1_555
C38 C36 1_555 1_555
H28 C38 1_555 1_555
H29 C38 1_555 1_555
H30 C38 1_555 1_555
C39 Si2 1_555 1_555
H31 C39 1_555 1_555
C40 C39 1_555 1_555
H32 C40 1_555 1_555
H33 C40 1_555 1_555
H34 C40 1_555 1_555
C41 C39 1_555 1_555
H35 C41 1_555 1_555
H36 C41 1_555 1_555
H37 C41 1_555 1_555
C42 C16 1_555 1_555
C43 C42 1_555 1_555
C44 Si1 1_555 1_555
H38 C44 1_555 1_555
C45 C44 1_555 1_555
H39 C45 1_555 1_555
H40 C45 1_555 1_555
H41 C45 1_555 1_555
C46 C44 1_555 1_555
H42 C46 1_555 1_555
H43 C46 1_555 1_555
H44 C46 1_555 1_555
C47 Si1 1_555 1_555
H45 C47 1_555 1_555
C48 C47 1_555 1_555
H46 C48 1_555 1_555
H47 C48 1_555 1_555
H48 C48 1_555 1_555
C49 C47 1_555 1_555
C50 Si1 1_555 1_555
C51 C50 1_555 1_555
H49 C51 1_555 1_555
H50 C51 1_555 1_555
H51 C51 1_555 1_555
C52 C50 1_555 1_555
H52 C52 1_555 1_555
H53 C52 1_555 1_555
H54 C52 1_555 1_555
C7 C12 1_555 1_555
C11 C12 1_555 1_555
C11 C13 1_555 1_555
C14 C28 1_555 1_555
C21 C22 1_555 1_555
C25 C26 1_555 1_555
C26 C27 1_555 1_555
C27 C28 1_555 1_555

#END
