
#######################################################################
#
#                 Cambridge Crystallographic Data Centre
#                                CCDC 
#
#######################################################################
#
# If this CIF has been generated from an entry in the Cambridge 
# Structural Database, then it will include bibliographic, chemical, 
# crystal, experimental, refinement or atomic coordinate data resulting 
# from the CCDC's data processing and validation procedures.
#
#######################################################################

data_DURLAF
_chemical_formula_moiety         'C34 H25 B1 N6 O4'
_chemical_name_systematic        
14d-((3,4,5-trimethoxybenzyl)oxy)-14dH-5,9,10,14,14e,15-hexaaza-14d-boradibenzo[2,3:5,6]-s-indaceno[1,8,7-bcde]fluoranthene
_symmetry_cell_setting           monoclinic
_symmetry_space_group_name_H-M   'P 21/n'
_symmetry_Int_Tables_number      14
_space_group_name_Hall           '-P 2yn'
loop_
_symmetry_equiv_pos_site_id
_symmetry_equiv_pos_as_xyz
1 x,y,z
2 1/2-x,1/2+y,1/2-z
3 -x,-y,-z
4 1/2+x,1/2-y,1/2+z
_cell_length_a                   14.6915(2)
_cell_length_b                   11.4088(1)
_cell_length_c                   16.1551(2)
_cell_angle_alpha                90
_cell_angle_beta                 95.0933(6)
_cell_angle_gamma                90
_cell_volume                     2697.1
_exptl_crystal_colour            red
_exptl_crystal_description       block
_cell_formula_units_Z            4
loop_
_atom_site_label
_atom_site_type_symbol
_atom_site_fract_x
_atom_site_fract_y
_atom_site_fract_z
C1 C 0.88061(9) 0.58413(11) 0.15734(8)
B1 B 0.84357(10) 0.41783(13) 0.05737(9)
N1 N 0.82147(7) 0.53149(9) 0.09880(6)
N2 N 0.75398(7) 0.35336(9) 0.05337(6)
N3 N 0.90191(7) 0.35538(9) 0.12373(6)
N4 N 0.95386(7) 0.52848(9) 0.19494(6)
N5 N 0.66205(7) 0.52461(9) 0.06020(6)
N6 N 0.81832(7) 0.17709(9) 0.11323(6)
O1 O 0.88854(6) 0.42526(8) -0.01705(5)
O2 O 0.93898(6) 0.87733(8) -0.02739(6)
O3 O 0.80645(6) 0.95922(8) -0.13610(6)
O4 O 0.68592(6) 0.81448(8) -0.21837(6)
C2 C 0.83575(9) 0.69203(11) 0.17973(8)
C3 C 0.86350(9) 0.78268(11) 0.23417(8)
H1 H 0.9222 0.7821 0.2640
C4 C 0.80269(9) 0.87373(11) 0.24339(8)
H2 H 0.8210 0.9379 0.2785
C5 C 0.71518(9) 0.87293(11) 0.20222(8)
H3 H 0.6751 0.9365 0.2102
C6 C 0.68509(9) 0.78181(11) 0.15003(8)
H4 H 0.6247 0.7807 0.1237
C7 C 0.74661(9) 0.69178(11) 0.13753(8)
C8 C 0.73707(9) 0.58280(11) 0.09032(7)
C9 C 0.67089(9) 0.40879(11) 0.04794(7)
C10 C 0.60288(9) 0.31673(11) 0.04978(7)
C11 C 0.50765(9) 0.32012(12) 0.04565(8)
H5 H 0.4755 0.3916 0.0352
C12 C 0.46128(9) 0.21657(12) 0.05717(8)
H6 H 0.3964 0.2169 0.0541
C13 C 0.50875(10) 0.11104(12) 0.07338(8)
H7 H 0.4753 0.0414 0.0816
C14 C 0.60315(9) 0.10628(12) 0.07757(8)
H8 H 0.6346 0.0343 0.0881
C15 C 0.65095(9) 0.20968(11) 0.06592(7)
C16 C 0.74801(9) 0.23737(11) 0.07445(7)
C17 C 0.89258(9) 0.23905(11) 0.14129(8)
C18 C 0.96430(9) 0.21285(11) 0.20707(8)
C19 C 0.99086(9) 0.10956(12) 0.24815(8)
H9 H 0.9626 0.0370 0.2327
C20 C 1.05975(10) 0.11575(12) 0.31227(9)
H10 H 1.0793 0.0461 0.3408
C21 C 1.10116(9) 0.22247(12) 0.33579(8)
H11 H 1.1484 0.2237 0.3799
C22 C 1.07488(9) 0.32623(12) 0.29634(8)
H12 H 1.1029 0.3985 0.3130
C23 C 1.00620(9) 0.32135(11) 0.23154(8)
C24 C 0.95983(9) 0.41248(11) 0.18085(8)
C25 C 0.83999(9) 0.46727(11) -0.09103(8)
H13 H 0.7782 0.4318 -0.0958
H14 H 0.8717 0.4398 -0.1390
C26 C 0.82986(9) 0.59892(11) -0.09680(8)
C27 C 0.89059(9) 0.67418(11) -0.05265(8)
H15 H 0.9373 0.6439 -0.0141
C28 C 0.88229(9) 0.79483(11) -0.06559(8)
C29 C 0.81342(9) 0.83966(11) -0.12210(8)
C30 C 0.75267(9) 0.76329(12) -0.16571(8)
C31 C 0.76112(9) 0.64274(11) -0.15331(8)
H16 H 0.7201 0.5905 -0.1834
C32 C 0.99932(9) 0.84146(12) 0.04245(8)
H17 H 1.0336 0.9095 0.0654
H18 H 1.0420 0.7825 0.0247
H19 H 0.9636 0.8079 0.0851
C33 C 0.76304(10) 1.01794(12) -0.07208(9)
H20 H 0.7603 1.1022 -0.0838
H21 H 0.7981 1.0045 -0.0184
H22 H 0.7009 0.9873 -0.0701
C34 C 0.62111(9) 0.73692(13) -0.26029(9)
H23 H 0.5735 0.7827 -0.2921
H24 H 0.5932 0.6882 -0.2194
H25 H 0.6520 0.6866 -0.2982
loop_
_geom_bond_atom_site_label_1
_geom_bond_atom_site_label_2
_geom_bond_site_symmetry_1
_geom_bond_site_symmetry_2
C1 N1 1_555 1_555
B1 N1 1_555 1_555
N1 C8 1_555 1_555
N2 B1 1_555 1_555
N3 B1 1_555 1_555
N4 C1 1_555 1_555
N5 C8 1_555 1_555
N6 C16 1_555 1_555
O1 B1 1_555 1_555
O2 C28 1_555 1_555
O3 C29 1_555 1_555
O4 C30 1_555 1_555
C2 C1 1_555 1_555
C3 C2 1_555 1_555
H1 C3 1_555 1_555
C4 C3 1_555 1_555
H2 C4 1_555 1_555
C5 C4 1_555 1_555
H3 C5 1_555 1_555
C6 C5 1_555 1_555
H4 C6 1_555 1_555
C7 C2 1_555 1_555
C8 C7 1_555 1_555
C9 N2 1_555 1_555
C10 C9 1_555 1_555
C11 C10 1_555 1_555
H5 C11 1_555 1_555
C12 C11 1_555 1_555
H6 C12 1_555 1_555
C13 C12 1_555 1_555
H7 C13 1_555 1_555
C14 C13 1_555 1_555
H8 C14 1_555 1_555
C15 C10 1_555 1_555
C16 N2 1_555 1_555
C17 N3 1_555 1_555
C18 C17 1_555 1_555
C19 C18 1_555 1_555
H9 C19 1_555 1_555
C20 C19 1_555 1_555
H10 C20 1_555 1_555
C21 C20 1_555 1_555
H11 C21 1_555 1_555
C22 C21 1_555 1_555
H12 C22 1_555 1_555
C23 C18 1_555 1_555
C24 N3 1_555 1_555
C25 O1 1_555 1_555
H13 C25 1_555 1_555
H14 C25 1_555 1_555
C26 C25 1_555 1_555
C27 C26 1_555 1_555
H15 C27 1_555 1_555
C28 C27 1_555 1_555
C29 C28 1_555 1_555
C30 C29 1_555 1_555
C31 C26 1_555 1_555
H16 C31 1_555 1_555
C32 O2 1_555 1_555
H17 C32 1_555 1_555
H18 C32 1_555 1_555
H19 C32 1_555 1_555
C33 O3 1_555 1_555
H20 C33 1_555 1_555
H21 C33 1_555 1_555
H22 C33 1_555 1_555
C34 O4 1_555 1_555
H23 C34 1_555 1_555
H24 C34 1_555 1_555
H25 C34 1_555 1_555
N4 C24 1_555 1_555
N5 C9 1_555 1_555
N6 C17 1_555 1_555
C6 C7 1_555 1_555
C14 C15 1_555 1_555
C15 C16 1_555 1_555
C22 C23 1_555 1_555
C23 C24 1_555 1_555
C30 C31 1_555 1_555

#END
