
#######################################################################
#
#                 Cambridge Crystallographic Data Centre
#                                CCDC 
#
#######################################################################
#
# If this CIF has been generated from an entry in the Cambridge 
# Structural Database, then it will include bibliographic, chemical, 
# crystal, experimental, refinement or atomic coordinate data resulting 
# from the CCDC's data processing and validation procedures.
#
#######################################################################

data_DURVER
_chemical_formula_moiety         'C15 H14 S1'
_chemical_name_systematic        (+-)-1-Thia(2.2)metacyclophane
_symmetry_cell_setting           monoclinic
_symmetry_space_group_name_H-M   'P 21'
_symmetry_Int_Tables_number      4
_space_group_name_Hall           'P 2yb'
loop_
_symmetry_equiv_pos_site_id
_symmetry_equiv_pos_as_xyz
1 x,y,z
2 -x,1/2+y,-z
_cell_length_a                   5.319(2)
_cell_length_b                   13.660(3)
_cell_length_c                   8.125(2)
_cell_angle_alpha                90
_cell_angle_beta                 101.34(2)
_cell_angle_gamma                90
_cell_volume                     578.818
_exptl_crystal_colour            colorless
_chemical_melting_point          108deg.C
_cell_formula_units_Z            2
loop_
_atom_site_label
_atom_site_type_symbol
_atom_site_fract_x
_atom_site_fract_y
_atom_site_fract_z
S1 S 0.6184(5) 0.0000 0.5343(3)
C1 C 0.3919(9) -0.0887(4) 0.4614(5)
C2 C 0.3179(9) -0.0897(4) 0.2715(6)
C3 C 0.4640(8) -0.1260(4) 0.1742(5)
C4 C 0.4066(11) -0.1091(4) -0.0081(6)
C5 C 0.2200(10) -0.0406(4) -0.0684(6)
C6 C 0.0724(8) 0.0000(4) 0.0333(5)
C7 C 0.1014(8) -0.0275(4) 0.1980(6)
C8 C -0.0536 0.1029 -0.0162
C9 C 0.1121(10) 0.2007(4) 0.0389(6)
C10 C 0.1968(9) 0.1901(5) 0.2335(5)
C11 C 0.0436(10) 0.2371(4) 0.3486(6)
C12 C 0.0826(8) 0.2106(4) 0.5030(6)
C13 C 0.2666(10) 0.1438(4) 0.5748(6)
C14 C 0.4213(9) 0.0984(4) 0.4720(6)
C15 C 0.3847(8) 0.1310(4) 0.3042(5)
H1 H 0.2212(7) -0.0849(4) 0.5144(5)
H2 H 0.4968(9) -0.1546(4) 0.5044(5)
H3 H 0.6296(8) -0.1692(4) 0.2289(5)
H4 H 0.5062(11) -0.1484(4) -0.0912(6)
H5 H 0.1904(10) -0.0188(4) -0.1986(6)
H6 H -0.0341(8) -0.0036(4) 0.2727(6)
H7 H -0.1010 0.1043 -0.1514
H8 H -0.2228 0.1074 0.0383
H9 H -0.0037(10) 0.2655(4) 0.0069(6)
H10 H 0.2768(10) 0.2040(4) -0.0203(6)
H11 H -0.0974(10) 0.2925(4) 0.3021(6)
H12 H -0.0364(8) 0.2427(4) 0.5821(6)
H13 H 0.2926(10) 0.1261(4) 0.7067(6)
H14 H 0.5182(8) 0.1062(4) 0.2288(5)
C16? C 0.5611 0.0010 0.5164
S2? S -0.1104(6) 0.1036(2) -0.0364(3)
H15? H 0.6266 -0.0021 0.6509
H16? H 0.7241 -0.0018 0.4556
loop_
_geom_bond_atom_site_label_1
_geom_bond_atom_site_label_2
_geom_bond_site_symmetry_1
_geom_bond_site_symmetry_2
S1 C1 1_555 1_555
C1 C2 1_555 1_555
C2 C3 1_555 1_555
C3 C4 1_555 1_555
C4 C5 1_555 1_555
C5 C6 1_555 1_555
C6 C7 1_555 1_555
C7 C2 1_555 1_555
C8 C6 1_555 1_555
C9 C8 1_555 1_555
C10 C9 1_555 1_555
C11 C10 1_555 1_555
C12 C11 1_555 1_555
C13 C12 1_555 1_555
C14 S1 1_555 1_555
C15 C10 1_555 1_555
H1 C1 1_555 1_555
H2 C1 1_555 1_555
H3 C3 1_555 1_555
H4 C4 1_555 1_555
H5 C5 1_555 1_555
H6 C7 1_555 1_555
H7 C8 1_555 1_555
H8 C8 1_555 1_555
H9 C9 1_555 1_555
H10 C9 1_555 1_555
H11 C11 1_555 1_555
H12 C12 1_555 1_555
H13 C13 1_555 1_555
H14 C15 1_555 1_555
C13 C14 1_555 1_555
C14 C15 1_555 1_555

#END
