
#######################################################################
#
#                 Cambridge Crystallographic Data Centre
#                                CCDC 
#
#######################################################################
#
# If this CIF has been generated from an entry in the Cambridge 
# Structural Database, then it will include bibliographic, chemical, 
# crystal, experimental, refinement or atomic coordinate data resulting 
# from the CCDC's data processing and validation procedures.
#
#######################################################################

data_DURZEX
_chemical_formula_moiety         'C14 H13 I1 N2 O3'
_chemical_name_systematic        
1-hydroxy-1-(2-iodo-4-methoxyphenyl)-2-(4-methoxyphenyl)-1-diazene
_symmetry_cell_setting           triclinic
_symmetry_space_group_name_H-M   'P -1'
_symmetry_Int_Tables_number      2
_space_group_name_Hall           '-P 1'
loop_
_symmetry_equiv_pos_site_id
_symmetry_equiv_pos_as_xyz
1 x,y,z
2 -x,-y,-z
_cell_length_a                   8.046(6)
_cell_length_b                   9.777(7)
_cell_length_c                   10.002(7)
_cell_angle_alpha                112.309(11)
_cell_angle_beta                 91.342(11)
_cell_angle_gamma                95.164(12)
_cell_volume                     723.55
_exptl_crystal_colour            colorless
_exptl_crystal_description       block
_cell_formula_units_Z            2
loop_
_atom_site_label
_atom_site_type_symbol
_atom_site_fract_x
_atom_site_fract_y
_atom_site_fract_z
I1 I 0.02042(8) 0.23467(8) -0.05951(7)
O1 O 0.3803(10) 0.4112(9) 0.0660(9)
O2 O 0.1887(9) 0.1206(9) -0.5974(8)
O3 O 0.8545(10) 0.3313(8) 0.5415(8)
N1 N 0.4389(9) 0.2960(8) -0.0256(7)
N2 N 0.5528(9) 0.2239(8) 0.0014(8)
C1 C 0.2039(10) 0.2206(9) -0.2115(9)
C2 C 0.1462(11) 0.1763(10) -0.3550(10)
H1 H 0.0320 0.1579 -0.3801
C3 C 0.2591(12) 0.1596(9) -0.4600(9)
C4 C 0.4316(11) 0.1817(10) -0.4235(10)
H2 H 0.5075 0.1690 -0.4949
C5 C 0.4878(12) 0.2223(10) -0.2814(10)
H3 H 0.6018 0.2349 -0.2562
C6 C 0.3721(11) 0.2445(8) -0.1753(9)
C7 C 0.2897(15) 0.1215(13) -0.7079(12)
H4 H 0.2221 0.0936 -0.7964
H5 H 0.3708 0.0521 -0.7202
H6 H 0.3461 0.2195 -0.6834
C8 C 0.6268(11) 0.2691(9) 0.1421(9)
C9 C 0.6303(13) 0.4084(10) 0.2594(10)
H7 H 0.5794 0.4848 0.2468
C10 C 0.7080(11) 0.4321(10) 0.3913(11)
H8 H 0.7111 0.5251 0.4659
C11 C 0.7816(11) 0.3205(10) 0.4152(10)
C12 C 0.7848(12) 0.1832(10) 0.2976(10)
H9 H 0.8391 0.1084 0.3101
C13 C 0.7088(12) 0.1590(10) 0.1656(10)
H10 H 0.7116 0.0675 0.0899
C14 C 0.8572(15) 0.4687(12) 0.6636(11)
H11 H 0.9132 0.4607 0.7457
H12 H 0.7447 0.4906 0.6852
H13 H 0.9156 0.5471 0.6418
loop_
_geom_bond_atom_site_label_1
_geom_bond_atom_site_label_2
_geom_bond_site_symmetry_1
_geom_bond_site_symmetry_2
I1 C1 1_555 1_555
O1 N1 1_555 1_555
O2 C3 1_555 1_555
O3 C11 1_555 1_555
N1 N2 1_555 1_555
N2 C8 1_555 1_555
C1 C2 1_555 1_555
C2 H1 1_555 1_555
C3 C2 1_555 1_555
C4 C3 1_555 1_555
H2 C4 1_555 1_555
C5 C4 1_555 1_555
H3 C5 1_555 1_555
C6 N1 1_555 1_555
C7 O2 1_555 1_555
H4 C7 1_555 1_555
H5 C7 1_555 1_555
H6 C7 1_555 1_555
C8 C9 1_555 1_555
C9 H7 1_555 1_555
C10 C9 1_555 1_555
H8 C10 1_555 1_555
C11 C10 1_555 1_555
C12 C11 1_555 1_555
H9 C12 1_555 1_555
C13 C8 1_555 1_555
H10 C13 1_555 1_555
C14 O3 1_555 1_555
H11 C14 1_555 1_555
H12 C14 1_555 1_555
H13 C14 1_555 1_555
C1 C6 1_555 1_555
C5 C6 1_555 1_555
C12 C13 1_555 1_555

#END
