
#######################################################################
#
#                 Cambridge Crystallographic Data Centre
#                                CCDC 
#
#######################################################################
#
# If this CIF has been generated from an entry in the Cambridge 
# Structural Database, then it will include bibliographic, chemical, 
# crystal, experimental, refinement or atomic coordinate data resulting 
# from the CCDC's data processing and validation procedures.
#
#######################################################################

data_DURZOG
_chemical_compound_source        'Dysoxylum macrocarpum'
_chemical_formula_moiety         'C11 H10 O4'
_chemical_name_systematic        5-Hydroxy-7-methoxy-2-methyl-4H-chromen-4-one
_symmetry_cell_setting           monoclinic
_symmetry_space_group_name_H-M   'P 21/c'
_symmetry_Int_Tables_number      14
_space_group_name_Hall           '-P 2ybc'
loop_
_symmetry_equiv_pos_site_id
_symmetry_equiv_pos_as_xyz
1 x,y,z
2 -x,1/2+y,1/2-z
3 -x,-y,-z
4 x,1/2-y,1/2+z
_cell_length_a                   7.7393(3)
_cell_length_b                   14.5373(6)
_cell_length_c                   16.8263(7)
_cell_angle_alpha                90
_cell_angle_beta                 98.8480(10)
_cell_angle_gamma                90
_cell_volume                     1870.57
_exptl_crystal_colour            colorless
_exptl_crystal_description       plate
_cell_formula_units_Z            8
loop_
_atom_site_label
_atom_site_type_symbol
_atom_site_fract_x
_atom_site_fract_y
_atom_site_fract_z
O1 O 0.49963(9) 0.31112(5) 0.80755(4)
O2 O 0.54836(10) 0.03128(5) 0.81510(5)
O3 O 0.66721(11) 0.03755(5) 0.67769(5)
O4 O 0.71726(10) 0.32572(5) 0.55887(4)
C1 C 0.39489(14) 0.32353(7) 0.93075(6)
H1 H 0.3576 0.2864 0.9737
H2 H 0.2964 0.3607 0.9049
H3 H 0.4909 0.3641 0.9536
C2 C 0.45527(12) 0.26180(7) 0.87004(6)
C3 C 0.46768(13) 0.16950(7) 0.87405(6)
H4 H 0.4329 0.1383 0.9186
C4 C 0.53257(12) 0.11694(7) 0.81228(6)
C5 C 0.58040(12) 0.17065(6) 0.74648(6)
C6 C 0.64722(12) 0.12963(7) 0.68075(6)
C7 C 0.69215(12) 0.18335(7) 0.61950(6)
H5 H 0.7379 0.1559 0.5759
C8 C 0.66943(12) 0.27902(7) 0.62233(6)
C9 C 0.60437(12) 0.32217(6) 0.68517(6)
H6 H 0.5895 0.3870 0.6864
C10 C 0.56218(12) 0.26615(6) 0.74610(5)
C11 C 0.69519(14) 0.42341(7) 0.55749(6)
H7 H 0.7287 0.4483 0.5079
H8 H 0.7693 0.4506 0.6041
H9 H 0.5725 0.4383 0.5596
H19 H 0.634(2) 0.0179(12) 0.7204(8)
O5 O 1.05826(9) 0.38133(5) 0.70570(4)
O6 O 1.12544(10) 0.10446(5) 0.73680(5)
O7 O 1.00123(11) 0.11679(5) 0.87114(5)
O8 O 0.82751(10) 0.40629(5) 0.95136(4)
C12 C 1.16596(14) 0.38672(7) 0.58240(6)
H10 H 1.2153 0.3477 0.5440
H11 H 1.2512 0.4340 0.6033
H12 H 1.0590 0.4162 0.5553
C13 C 1.12406(12) 0.32926(7) 0.65014(6)
C14 C 1.14769(13) 0.23789(7) 0.65825(6)
H13 H 1.1940 0.2047 0.6177
C15 C 1.10416(12) 0.18917(7) 0.72722(6)
C16 C 1.03515(12) 0.24579(6) 0.78581(6)
C17 C 0.98490(12) 0.20810(6) 0.85677(6)
C18 C 0.91807(12) 0.26380(7) 0.91094(6)
H14 H 0.8858 0.2386 0.9586
C19 C 0.89823(12) 0.35822(7) 0.89482(6)
C20 C 0.94688(12) 0.39841(6) 0.82650(6)
H15 H 0.9348 0.4626 0.8167
C21 C 1.01372(12) 0.34029(6) 0.77342(5)
C22 C 0.78973(16) 0.50156(7) 0.93552(7)
H16 H 0.7344 0.5275 0.9791
H17 H 0.7103 0.5077 0.8845
H18 H 0.8986 0.5347 0.9321
H20 H 1.043(3) 0.0968(13) 0.8304(9)
loop_
_geom_bond_atom_site_label_1
_geom_bond_atom_site_label_2
_geom_bond_site_symmetry_1
_geom_bond_site_symmetry_2
O1 C2 1_555 1_555
O2 C4 1_555 1_555
O3 C6 1_555 1_555
O4 C8 1_555 1_555
O5 C13 1_555 1_555
O6 C15 1_555 1_555
O7 C17 1_555 1_555
O8 C19 1_555 1_555
C1 H1 1_555 1_555
H2 C1 1_555 1_555
H3 C1 1_555 1_555
C2 C1 1_555 1_555
C3 C2 1_555 1_555
H4 C3 1_555 1_555
C4 C3 1_555 1_555
C5 C4 1_555 1_555
C6 C5 1_555 1_555
C7 C6 1_555 1_555
H5 C7 1_555 1_555
C8 C7 1_555 1_555
C9 C8 1_555 1_555
H6 C9 1_555 1_555
C10 O1 1_555 1_555
C11 O4 1_555 1_555
H7 C11 1_555 1_555
H8 C11 1_555 1_555
H9 C11 1_555 1_555
C12 H10 1_555 1_555
H11 C12 1_555 1_555
H12 C12 1_555 1_555
C13 C12 1_555 1_555
C14 C13 1_555 1_555
H13 C14 1_555 1_555
C15 C14 1_555 1_555
C16 C15 1_555 1_555
C17 C16 1_555 1_555
C18 C17 1_555 1_555
H14 C18 1_555 1_555
C19 C18 1_555 1_555
C20 C19 1_555 1_555
H15 C20 1_555 1_555
C21 O5 1_555 1_555
C22 O8 1_555 1_555
H16 C22 1_555 1_555
H17 C22 1_555 1_555
H18 C22 1_555 1_555
H19 O3 1_555 1_555
H20 O7 1_555 1_555
C5 C10 1_555 1_555
C9 C10 1_555 1_555
C16 C21 1_555 1_555
C20 C21 1_555 1_555

#END
