
#######################################################################
#
#                 Cambridge Crystallographic Data Centre
#                                CCDC 
#
#######################################################################
#
# If this CIF has been generated from an entry in the Cambridge 
# Structural Database, then it will include bibliographic, chemical, 
# crystal, experimental, refinement or atomic coordinate data resulting 
# from the CCDC's data processing and validation procedures.
#
#######################################################################

data_DUSGEE
_chemical_compound_source        'leaves of Actephila merrilliana'
_chemical_formula_moiety         'C7 H5 N1 O4'
_chemical_name_systematic        2-Hydroxy-3-nitrobenzaldehyde
_symmetry_cell_setting           monoclinic
_symmetry_space_group_name_H-M   'P 21/n'
_symmetry_Int_Tables_number      14
_space_group_name_Hall           '-P 2yn'
loop_
_symmetry_equiv_pos_site_id
_symmetry_equiv_pos_as_xyz
1 x,y,z
2 1/2-x,1/2+y,1/2-z
3 -x,-y,-z
4 1/2+x,1/2-y,1/2+z
_cell_length_a                   8.8276(7)
_cell_length_b                   8.7296(8)
_cell_length_c                   9.011(9)
_cell_angle_alpha                90
_cell_angle_beta                 90.1240(10)
_cell_angle_gamma                90
_cell_volume                     694.399
_exptl_crystal_colour            colorless
_exptl_crystal_description       block
_cell_formula_units_Z            4
_exptl_crystal_recrystallization_method chloroform
loop_
_atom_site_label
_atom_site_type_symbol
_atom_site_fract_x
_atom_site_fract_y
_atom_site_fract_z
N1 N 0.50055(17) 0.84855(17) 0.75856(18)
O1 O 0.29576(16) 0.32129(17) 0.56300(17)
O2 O 0.33112(14) 0.61257(16) 0.61024(14)
H1 H 0.2948 0.5346 0.5739
O3 O 0.4312(2) 0.89120(17) 0.6494(2)
O4 O 0.55192(19) 0.93655(17) 0.85100(18)
C1 C 0.3983(2) 0.2987(2) 0.6511(2)
H2 H 0.4261 0.1978 0.6698
C2 C 0.48004(18) 0.4189(2) 0.72888(18)
C3 C 0.44390(18) 0.5747(2) 0.70290(18)
C4 C 0.52863(19) 0.68465(19) 0.77951(19)
C5 C 0.64236(19) 0.6430(2) 0.8776(2)
H3 H 0.6965 0.7184 0.9277
C6 C 0.67596(19) 0.4909(2) 0.9015(2)
H4 H 0.7529 0.4634 0.9669
C7 C 0.5946(2) 0.3804(2) 0.8277(2)
H5 H 0.6168 0.2776 0.8444
loop_
_geom_bond_atom_site_label_1
_geom_bond_atom_site_label_2
_geom_bond_site_symmetry_1
_geom_bond_site_symmetry_2
N1 O3 1_555 1_555
O1 C1 1_555 1_555
O2 H1 1_555 1_555
O4 N1 1_555 1_555
C1 H2 1_555 1_555
C2 C1 1_555 1_555
C3 O2 1_555 1_555
C4 N1 1_555 1_555
C5 C4 1_555 1_555
H3 C5 1_555 1_555
C6 C5 1_555 1_555
H4 C6 1_555 1_555
C7 C2 1_555 1_555
H5 C7 1_555 1_555
C2 C3 1_555 1_555
C3 C4 1_555 1_555
C6 C7 1_555 1_555

#END
