
#######################################################################
#
#                 Cambridge Crystallographic Data Centre
#                                CCDC 
#
#######################################################################
#
# If this CIF has been generated from an entry in the Cambridge 
# Structural Database, then it will include bibliographic, chemical, 
# crystal, experimental, refinement or atomic coordinate data resulting 
# from the CCDC's data processing and validation procedures.
#
#######################################################################

data_DUSGEF
_chemical_name_common            
6,9-dimethyl-16-(1-octylnonyl)-16H-dinaphtho[1,2-b:2',1'-h]-carbazole
_chemical_formula_moiety         'C47 H55 N1'
_chemical_name_systematic        
16-(heptadecan-9-yl)-6,9-dimethyl-16H-dinaphtho[1,2-b:2',1'-h]carbazole
_symmetry_cell_setting           triclinic
_symmetry_space_group_name_H-M   'P -1'
_symmetry_Int_Tables_number      2
_space_group_name_Hall           '-P 1'
loop_
_symmetry_equiv_pos_site_id
_symmetry_equiv_pos_as_xyz
1 x,y,z
2 -x,-y,-z
_cell_length_a                   14.501(4)
_cell_length_b                   20.180(6)
_cell_length_c                   22.027(7)
_cell_angle_alpha                62.892(4)
_cell_angle_beta                 84.149(4)
_cell_angle_gamma                77.270(4)
_cell_volume                     5596.65
_exptl_crystal_colour            yellow
_exptl_crystal_description       plate
_cell_formula_units_Z            6
_exptl_crystal_recrystallization_method Chloroform/ethanol
loop_
_atom_site_label
_atom_site_type_symbol
_atom_site_fract_x
_atom_site_fract_y
_atom_site_fract_z
N1 N 0.0726(3) 0.8296(2) 0.0406(2)
C1 C 0.1336(4) 0.8749(3) 0.0384(3)
C2 C 0.1120(4) 0.9461(3) -0.0195(3)
C3 C 0.0334(4) 0.9440(3) -0.0536(3)
C4 C 0.0124(4) 0.8703(3) -0.0160(3)
C5 C 0.2066(4) 0.8590(3) 0.0818(3)
H1 H 0.2202 0.8109 0.1205
C6 C 0.2601(4) 0.9136(3) 0.0688(3)
C7 C 0.2411(4) 0.9851(3) 0.0093(3)
C8 C 0.1655(4) 0.9997(3) -0.0324(3)
H2 H 0.1505 1.0479 -0.0708
C9 C 0.3377(4) 0.8993(3) 0.1127(3)
C10 C 0.3958(4) 0.9526(3) 0.0942(3)
C11 C 0.3753(4) 1.0220(3) 0.0336(3)
H3 H 0.4157 1.0574 0.0209
C12 C 0.3008(4) 1.0393(3) -0.0065(3)
C13 C 0.2781(5) 1.1149(3) -0.0690(3)
H4 H 0.2814 1.1064 -0.1096
H5 H 0.3238 1.1460 -0.0731
H6 H 0.2142 1.1412 -0.0646
C14 C 0.3560(4) 0.8331(3) 0.1754(3)
H7 H 0.3163 0.7969 0.1897
C15 C 0.4307(4) 0.8203(4) 0.2159(3)
H8 H 0.4421 0.7755 0.2578
C16 C 0.4891(5) 0.8724(4) 0.1960(3)
H9 H 0.5409 0.8630 0.2239
C17 C 0.4723(5) 0.9374(4) 0.1362(3)
H10 H 0.5129 0.9729 0.1227
C18 C -0.0594(4) 0.8501(3) -0.0363(3)
H11 H -0.0729 0.8007 -0.0106
C19 C -0.1122(4) 0.9018(3) -0.0943(3)
C20 C -0.0918(4) 0.9766(3) -0.1324(3)
C21 C -0.0181(4) 0.9947(3) -0.1108(3)
H12 H -0.0031 1.0436 -0.1364
C22 C -0.1896(4) 0.8827(4) -0.1164(3)
C23 C -0.2440(4) 0.9376(4) -0.1732(3)
C24 C -0.2212(4) 1.0108(4) -0.2091(3)
H13 H -0.2593 1.0478 -0.2469
C25 C -0.1471(4) 1.0304(3) -0.1920(3)
C26 C -0.1253(5) 1.1077(4) -0.2329(3)
H14 H -0.1310 1.1336 -0.2040
H15 H -0.1698 1.1370 -0.2710
H16 H -0.0606 1.1033 -0.2508
C27 C -0.2123(5) 0.8108(4) -0.0829(4)
H17 H -0.1759 0.7727 -0.0446
C28 C -0.2863(5) 0.7941(4) -0.1040(4)
H18 H -0.3004 0.7447 -0.0804
C29 C -0.3408(5) 0.8492(5) -0.1600(4)
H19 H -0.3924 0.8377 -0.1743
C30 C -0.3196(5) 0.9194(4) -0.1938(3)
H20 H -0.3564 0.9569 -0.2321
C31 C 0.0871(5) 0.7465(3) 0.0831(3)
H21 H 0.1402 0.7348 0.1143
C32 C 0.0086(5) 0.7230(4) 0.1283(4)
H22 H 0.0283 0.6683 0.1591
H23 H -0.0436 0.7279 0.1000
C33 C -0.0311(5) 0.7610(3) 0.1713(3)
H24 H -0.0522 0.8157 0.1407
H25 H 0.0208 0.7567 0.1996
C34 C -0.1111(5) 0.7343(4) 0.2175(4)
H26 H -0.1626 0.7388 0.1888
H27 H -0.0897 0.6794 0.2474
C35 C -0.1530(5) 0.7694(4) 0.2616(3)
H28 H -0.1737 0.8244 0.2322
H29 H -0.1022 0.7639 0.2914
C36 C -0.2337(5) 0.7420(4) 0.3060(4)
H30 H -0.2864 0.7522 0.2758
H31 H -0.2149 0.6862 0.3319
C37 C -0.2714(5) 0.7709(4) 0.3549(3)
H32 H -0.2868 0.8270 0.3297
H33 H -0.2201 0.7577 0.3872
C38 C -0.3552(5) 0.7459(4) 0.3955(4)
H34 H -0.3397 0.6898 0.4209
H35 H -0.4064 0.7587 0.3632
C39 C -0.3951(7) 0.7759(5) 0.4459(4)
H36 H -0.4168 0.8310 0.4216
H37 H -0.3460 0.7642 0.4787
H38 H -0.4484 0.7520 0.4701
C40 C 0.1279(7) 0.7057(6) 0.0380(6)
H39 H 0.1358 0.6502 0.0669
H40 H 0.0809 0.7199 0.0024
C41 C 0.2190(10) 0.7223(9) 0.0044(9)
H41 H 0.2640 0.7136 0.0394
H42 H 0.2093 0.7768 -0.0285
C42 C 0.2636(11) 0.6771(11) -0.0326(10)
H43 H 0.2700 0.6226 -0.0004
H44 H 0.2200 0.6879 -0.0693
C43 C 0.3563(12) 0.6904(10) -0.0633(11)
H45 H 0.3951 0.6908 -0.0290
H46 H 0.3470 0.7419 -0.1019
C44 C 0.4124(9) 0.6370(8) -0.0886(8)
H47 H 0.4302 0.5872 -0.0485
H48 H 0.3699 0.6303 -0.1169
C45 C 0.4980(9) 0.6547(9) -0.1280(8)
H49 H 0.5398 0.6634 -0.1007
H50 H 0.4801 0.7033 -0.1694
C46 C 0.5543(11) 0.5987(11) -0.1502(10)
H51 H 0.5684 0.5485 -0.1100
H52 H 0.6151 0.6142 -0.1694
C47 C 0.5038(18) 0.5918(16) -0.2026(11)
H53 H 0.4691 0.6420 -0.2337
H54 H 0.4593 0.5576 -0.1799
H55 H 0.5500 0.5714 -0.2286
N2 N 0.8933(3) 0.4951(2) 0.3812(2)
C56 C 0.8384(4) 0.5066(3) 0.4328(3)
C57 C 0.8748(4) 0.5537(3) 0.4515(3)
C58 C 0.9576(4) 0.5721(3) 0.4089(3)
C59 C 0.9674(4) 0.5352(3) 0.3662(3)
C60 C 0.7580(4) 0.4784(3) 0.4644(3)
H74 H 0.7330 0.4475 0.4509
C61 C 0.7148(4) 0.4958(3) 0.5159(3)
C62 C 0.7507(4) 0.5439(3) 0.5356(3)
C63 C 0.8314(4) 0.5716(3) 0.5017(3)
H75 H 0.8565 0.6035 0.5140
C64 C 0.6326(4) 0.4647(3) 0.5522(3)
C65 C 0.5908(4) 0.4833(3) 0.6041(3)
C66 C 0.6292(4) 0.5325(3) 0.6209(3)
H76 H 0.5997 0.5450 0.6559
C67 C 0.7058(4) 0.5618(3) 0.5891(3)
C68 C 0.7443(4) 0.6105(3) 0.6106(3)
H77 H 0.8089 0.5862 0.6275
H78 H 0.7045 0.6172 0.6469
H79 H 0.7447 0.6602 0.5715
C69 C 0.5937(4) 0.4152(3) 0.5380(3)
H80 H 0.6207 0.4023 0.5027
C70 C 0.5181(5) 0.3851(4) 0.5736(4)
H81 H 0.4937 0.3515 0.5632
C71 C 0.4765(5) 0.4039(4) 0.6256(3)
H82 H 0.4236 0.3835 0.6500
C72 C 0.5127(4) 0.4517(4) 0.6408(3)
H83 H 0.4851 0.4638 0.6764
C73 C 1.0392(4) 0.5420(3) 0.3199(3)
H84 H 1.0437 0.5173 0.2916
C74 C 1.1060(4) 0.5850(3) 0.3138(3)
C75 C 1.0971(4) 0.6229(3) 0.3558(3)
C76 C 1.0223(4) 0.6159(3) 0.4021(3)
H85 H 1.0158 0.6419 0.4295
C77 C 1.1851(4) 0.5902(3) 0.2671(3)
C78 C 1.2516(4) 0.6333(3) 0.2630(3)
C79 C 1.2381(4) 0.6710(3) 0.3059(3)
H86 H 1.2830 0.7003 0.3029
C80 C 1.1664(4) 0.6674(3) 0.3498(3)
C81 C 1.1584(4) 0.7076(3) 0.3938(3)
H87 H 1.0985 0.7444 0.3842
H88 H 1.2111 0.7341 0.3839
H89 H 1.1601 0.6704 0.4420
C82 C 1.2001(5) 0.5534(3) 0.2248(3)
H90 H 1.1557 0.5246 0.2258
C83 C 1.2773(5) 0.5579(4) 0.1820(4)
H91 H 1.2857 0.5322 0.1543
C84 C 1.3423(5) 0.5997(4) 0.1794(4)
H92 H 1.3959 0.6024 0.1503
C85 C 1.3292(4) 0.6372(3) 0.2187(3)
H93 H 1.3737 0.6666 0.2160
C86 C 0.8776(5) 0.4512(3) 0.3471(3)
H94 H 0.8121 0.4501 0.3663
C87 C 0.8374(10) 0.5044(7) 0.2761(7)
H95 H 0.8869 0.5330 0.2494
H96 H 0.8290 0.4721 0.2549
C88 C 0.7484(12) 0.5605(10) 0.2655(9)
H97 H 0.7557 0.5946 0.2850
H98 H 0.6974 0.5332 0.2912
C89 C 0.7185(10) 0.6078(10) 0.1931(8)
H99 H 0.7711 0.6337 0.1684
H100 H 0.7136 0.5724 0.1744
C90 C 0.6316(13) 0.6658(12) 0.1741(8)
H101 H 0.6376 0.7047 0.1883
H102 H 0.5785 0.6417 0.2002
C91 C 0.6073(11) 0.7046(10) 0.1006(7)
H103 H 0.6624 0.7263 0.0756
H104 H 0.6022 0.6645 0.0876
C92 C 0.5240(13) 0.7642(12) 0.0735(7)
H105 H 0.5284 0.8058 0.0845
H106 H 0.4676 0.7436 0.0972
C93 C 0.5093(10) 0.7966(8) -0.0009(6)
H107 H 0.5102 0.7545 -0.0124
H108 H 0.5634 0.8209 -0.0247
C94 C 0.4195(17) 0.8540(18) -0.0281(16)
H109 H 0.4180 0.8741 -0.0778
H110 H 0.4168 0.8956 -0.0162
H111 H 0.3651 0.8296 -0.0080
C95 C 0.9503(8) 0.3855(6) 0.3589(6)
H112 H 1.0073 0.4033 0.3333
H113 H 0.9291 0.3562 0.3390
C96 C 0.9786(12) 0.3330(9) 0.4301(7)
H114 H 0.9220 0.3144 0.4557
H115 H 0.9992 0.3623 0.4504
C97 C 1.0551(10) 0.2659(8) 0.4410(7)
H116 H 1.0332 0.2351 0.4232
H117 H 1.1106 0.2843 0.4135
C98 C 1.0862(15) 0.2163(10) 0.5116(8)
H118 H 1.0329 0.1915 0.5362
H119 H 1.0944 0.2498 0.5315
C99 C 1.1722(14) 0.1557(10) 0.5289(12)
H120 H 1.2272 0.1810 0.5141
H121 H 1.1751 0.1274 0.5792
C100 C 1.1864(17) 0.0998(15) 0.5028(16)
H122 H 1.1574 0.1239 0.4570
H123 H 1.1535 0.0581 0.5330
C101 C 1.2872(17) 0.0676(13) 0.4979(13)
H124 H 1.3151 0.0393 0.5442
H125 H 1.3215 0.1093 0.4707
C102 C 1.299(3) 0.0152(18) 0.4651(18)
H126 H 1.2684 0.0425 0.4202
H127 H 1.2694 -0.0284 0.4940
H128 H 1.3663 -0.0026 0.4597
N3 N 0.0468(3) 0.7460(3) 0.7682(2)
C119 C 0.1074(4) 0.7484(3) 0.7149(3)
C120 C 0.1839(4) 0.6849(3) 0.7386(3)
C121 C 0.1018(4) 0.8001(3) 0.6468(3)
H164 H 0.0511 0.8428 0.6311
C122 C 0.1709(4) 0.7898(3) 0.6010(3)
C123 C 0.2471(4) 0.7263(3) 0.6251(3)
C124 C 0.2511(5) 0.6756(3) 0.6939(3)
H165 H 0.3022 0.6332 0.7102
C125 C 0.1645(5) 0.8417(3) 0.5287(3)
C126 C 0.2347(5) 0.8278(4) 0.4839(3)
C127 C 0.3100(5) 0.7643(4) 0.5107(3)
H166 H 0.3560 0.7554 0.4799
C128 C 0.3196(5) 0.7159(4) 0.5774(3)
C129 C 0.4025(5) 0.6503(4) 0.6028(3)
H167 H 0.4359 0.6525 0.6382
H168 H 0.4457 0.6532 0.5649
H169 H 0.3798 0.6024 0.6220
C130 C 0.0916(5) 0.9056(3) 0.5002(3)
H170 H 0.0447 0.9168 0.5294
C131 C 0.0864(6) 0.9519(4) 0.4318(3)
H171 H 0.0354 0.9941 0.4140
C132 C 0.1542(6) 0.9383(4) 0.3884(3)
H172 H 0.1500 0.9709 0.3408
C133 C 0.2286(6) 0.8769(4) 0.4139(3)
H173 H 0.2758 0.8679 0.3839
C134 C 0.1665(5) 0.6416(3) 0.8109(3)
C135 C 0.0821(5) 0.6816(3) 0.8271(3)
C136 C 0.0521(12) 0.6510(9) 0.8940(4)
H174 H -0.0045 0.6755 0.9070
C137 C 0.1048(9) 0.5837(7) 0.9429(5)
C138 C 0.1928(8) 0.5471(6) 0.9255(5)
C139 C 0.2225(8) 0.5773(6) 0.8578(4)
H175 H 0.2799 0.5541 0.8444
C140 C 0.0739(9) 0.5512(6) 1.0144(4)
C141 C 0.1300(9) 0.4874(6) 1.0632(4)
C142 C 0.2170(9) 0.4534(6) 1.0428(5)
H176 H 0.2547 0.4098 1.0766
C143 C 0.2477(8) 0.4803(5) 0.9779(5)
C144 C 0.3387(9) 0.4407(6) 0.9609(6)
H177 H 0.3264 0.4205 0.9303
H178 H 0.3682 0.3989 1.0029
H179 H 0.3813 0.4766 0.9384
C145 C -0.0127(8) 0.5831(7) 1.0354(5)
H180 H -0.0524 0.6263 1.0026
C146 C -0.0399(9) 0.5523(6) 1.1027(4)
H181 H -0.0977 0.5749 1.1162
C147 C 0.0161(10) 0.4887(7) 1.1510(5)
H182 H -0.0040 0.4670 1.1972
C148 C 0.1010(10) 0.4567(6) 1.1320(4)
H183 H 0.1401 0.4138 1.1654
C149 C -0.0317(4) 0.8069(3) 0.7670(3)
H184 H -0.0542 0.7896 0.8153
C150 C -0.116(3) 0.8071(15) 0.727(3)
H185 H -0.1725 0.8397 0.7343
H186 H -0.1001 0.8325 0.6774
C151 C -0.1428(11) 0.7354(10) 0.7397(12)
H187 H -0.1631 0.7112 0.7879
H188 H -0.0856 0.7011 0.7344
C152 C -0.2189(8) 0.7402(9) 0.6963(8)
H189 H -0.1960 0.7600 0.6485
H190 H -0.2280 0.6881 0.7102
C153 C -0.3113(8) 0.7870(9) 0.6974(9)
H191 H -0.3027 0.8400 0.6792
H192 H -0.3305 0.7706 0.7458
C154 C -0.3916(9) 0.7875(11) 0.6601(10)
H193 H -0.3774 0.8109 0.6107
H194 H -0.3965 0.7344 0.6740
C155 C -0.4827(11) 0.8282(12) 0.6716(13)
H195 H -0.4784 0.8821 0.6541
H196 H -0.4929 0.8079 0.7215
C156 C -0.5676(15) 0.826(3) 0.641(3)
H197 H -0.5723 0.7719 0.6582
H198 H -0.5589 0.8472 0.5912
C157 C -0.6594(16) 0.868(2) 0.6560(18)
H199 H -0.7109 0.8649 0.6321
H200 H -0.6556 0.9209 0.6402
H201 H -0.6717 0.8444 0.7052
C158 C 0.0042(5) 0.8785(4) 0.7493(3)
H202 H 0.0220 0.9003 0.7005
H203 H -0.0484 0.9157 0.7553
C159 C 0.0876(5) 0.8693(3) 0.7902(3)
H204 H 0.0687 0.8528 0.8386
H205 H 0.1391 0.8294 0.7876
C160 C 0.1228(6) 0.9412(4) 0.7648(4)
H206 H 0.0706 0.9808 0.7674
H207 H 0.1404 0.9577 0.7161
C161 C 0.2056(6) 0.9361(4) 0.8026(4)
H208 H 0.2587 0.8976 0.7991
H209 H 0.1889 0.9189 0.8514
C162 C 0.2377(7) 1.0114(5) 0.7756(6)
H210 H 0.2420 1.0327 0.7253
H211 H 0.1878 1.0468 0.7863
C163 C 0.3214(6) 1.0103(5) 0.7993(7)
H212 H 0.3191 0.9849 0.8497
H213 H 0.3268 1.0634 0.7850
C164 C 0.4138(6) 0.9700(5) 0.7759(6)
H214 H 0.4656 0.9603 0.8067
H215 H 0.4036 0.9200 0.7833
C165 C 0.4479(8) 1.0095(6) 0.7038(6)
H216 H 0.3961 1.0242 0.6721
H217 H 0.5004 0.9751 0.6949
H218 H 0.4696 1.0550 0.6975
H56? H 0.1266 0.7455 0.1183
C48? C 0.156(2) 0.7021(19) 0.0632(16)
H57? H 0.1264 0.6622 0.0635
H58? H 0.2035 0.6760 0.1002
C49? C 0.210(3) 0.730(2) -0.001(2)
H59? H 0.2448 0.7665 -0.0002
H60? H 0.1630 0.7596 -0.0385
C50? C 0.279(4) 0.677(3) -0.021(3)
H61? H 0.3160 0.6395 0.0198
H62? H 0.2415 0.6484 -0.0329
C51? C 0.346(4) 0.705(3) -0.077(3)
H63? H 0.3971 0.7151 -0.0581
H64? H 0.3125 0.7547 -0.1111
C52? C 0.393(3) 0.663(2) -0.1159(17)
H65? H 0.3424 0.6578 -0.1399
H66? H 0.4322 0.6953 -0.1514
C53? C 0.452(3) 0.588(2) -0.0810(15)
H67? H 0.4086 0.5524 -0.0546
H68? H 0.4901 0.5897 -0.0474
C54? C 0.517(3) 0.552(3) -0.119(2)
H69? H 0.5382 0.4979 -0.0881
H70? H 0.5733 0.5761 -0.1325
C55? C 0.474(6) 0.560(5) -0.182(3)
H71? H 0.4624 0.6131 -0.2156
H72? H 0.4145 0.5416 -0.1695
H73? H 0.5180 0.5293 -0.2005
H129? H 0.8399 0.4206 0.3866
C103? C 0.9059(10) 0.3651(7) 0.3908(8)
H130? H 0.8536 0.3493 0.4234
H131? H 0.9080 0.3412 0.3600
C104? C 0.9943(14) 0.3305(10) 0.4306(11)
H132? H 0.9925 0.3537 0.4620
H133? H 1.0471 0.3459 0.3984
C105? C 1.0186(13) 0.2466(9) 0.4720(9)
H134? H 0.9612 0.2299 0.4976
H135? H 1.0330 0.2238 0.4398
C106? C 1.0967(18) 0.2140(11) 0.5208(13)
H136? H 1.0822 0.2366 0.5530
H137? H 1.1541 0.2307 0.4952
C107? C 1.1208(19) 0.1302(11) 0.5618(12)
H138? H 1.1629 0.1182 0.5996
H139? H 1.0621 0.1114 0.5821
C108? C 1.167(2) 0.0903(17) 0.5227(17)
H140? H 1.1880 0.1286 0.4791
H141? H 1.1182 0.0704 0.5113
C109? C 1.249(2) 0.0269(16) 0.5512(14)
H142? H 1.2259 -0.0195 0.5842
H143? H 1.2902 0.0394 0.5759
C110? C 1.304(3) 0.012(2) 0.4957(19)
H144? H 1.2728 0.0462 0.4518
H145? H 1.3076 -0.0407 0.5050
H146? H 1.3681 0.0213 0.4940
C111? C 0.8001(12) 0.4803(8) 0.3044(8)
H147? H 0.7458 0.4607 0.3328
H148? H 0.8129 0.4579 0.2720
C112? C 0.7680(15) 0.5629(9) 0.2636(12)
H149? H 0.8223 0.5838 0.2362
H150? H 0.7507 0.5858 0.2955
C113? C 0.6869(13) 0.5886(11) 0.2165(10)
H151? H 0.7026 0.5617 0.1876
H152? H 0.6319 0.5703 0.2449
C114? C 0.6554(15) 0.6693(12) 0.1709(11)
H153? H 0.7076 0.6870 0.1388
H154? H 0.6443 0.6974 0.1986
C115? C 0.5689(12) 0.6902(11) 0.1303(9)
H155? H 0.5744 0.6523 0.1126
H156? H 0.5152 0.6826 0.1627
C116? C 0.5411(15) 0.7645(12) 0.0730(9)
H157? H 0.5964 0.7756 0.0423
H158? H 0.5262 0.8027 0.0908
C117? C 0.4599(12) 0.7753(8) 0.0317(8)
H159? H 0.4031 0.7698 0.0612
H160? H 0.4716 0.7337 0.0180
C118? C 0.438(2) 0.849(2) -0.0315(17)
H161? H 0.4900 0.8532 -0.0640
H162? H 0.4284 0.8915 -0.0195
H163? H 0.3796 0.8515 -0.0523
C166? C 0.0396(15) 0.6611(12) 0.8902(5)
H219? H -0.0169 0.6918 0.8963
C167? C 0.0816(12) 0.5940(9) 0.9452(6)
C168? C 0.1651(11) 0.5486(8) 0.9325(6)
C169? C 0.2015(11) 0.5743(7) 0.8664(5)
H220? H 0.2554 0.5425 0.8589
C170? C 0.0416(11) 0.5673(8) 1.0144(5)
C171? C 0.0897(12) 0.5025(8) 1.0672(5)
C172? C 0.1735(12) 0.4592(8) 1.0526(6)
H221? H 0.2062 0.4151 1.0891
C173? C 0.2073(11) 0.4789(7) 0.9888(5)
C174? C 0.2886(11) 0.4293(7) 0.9727(7)
H222? H 0.2661 0.4084 0.9459
H223? H 0.3169 0.3877 1.0152
H224? H 0.3361 0.4593 0.9464
C175? C -0.0451(11) 0.6049(9) 1.0303(6)
H225? H -0.0801 0.6484 0.9945
C176? C -0.0802(11) 0.5806(8) 1.0956(6)
H226? H -0.1378 0.6072 1.1053
C177? C -0.0295(12) 0.5163(8) 1.1470(6)
H227? H -0.0529 0.4992 1.1924
C178? C 0.0539(12) 0.4762(8) 1.1344(6)
H228? H 0.0868 0.4316 1.1703
H229? H -0.0554 0.7896 0.8150
C179? C -0.115(3) 0.830(2) 0.725(3)
H230? H -0.0956 0.8491 0.6762
H231? H -0.1596 0.8712 0.7305
C180? C -0.1626(13) 0.7655(11) 0.7430(14)
H232? H -0.1758 0.7436 0.7926
H233? H -0.1182 0.7259 0.7343
C181? C -0.2527(12) 0.7834(9) 0.7067(9)
H234? H -0.2974 0.8223 0.7163
H235? H -0.2397 0.8065 0.6571
C182? C -0.3002(10) 0.7202(9) 0.7231(10)
H236? H -0.3137 0.6975 0.7727
H237? H -0.2551 0.6811 0.7141
C183? C -0.3897(11) 0.7368(12) 0.6868(12)
H238? H -0.3758 0.7580 0.6374
H239? H -0.4093 0.6879 0.7004
C184? C -0.4703(13) 0.7883(13) 0.6972(16)
H240? H -0.4541 0.8393 0.6779
H241? H -0.4795 0.7710 0.7468
C185? C -0.5614(17) 0.796(3) 0.667(3)
H242? H -0.5716 0.7450 0.6788
H243? H -0.5567 0.8239 0.6171
C186? C -0.646(2) 0.837(3) 0.690(2)
H244? H -0.7028 0.8412 0.6669
H245? H -0.6373 0.8880 0.6796
H246? H -0.6546 0.8085 0.7397
loop_
_geom_bond_atom_site_label_1
_geom_bond_atom_site_label_2
_geom_bond_site_symmetry_1
_geom_bond_site_symmetry_2
N1 C1 1_555 1_555
C1 C2 1_555 1_555
C2 C3 1_555 1_555
C3 C4 1_555 1_555
C4 N1 1_555 1_555
C5 C1 1_555 1_555
H1 C5 1_555 1_555
C6 C5 1_555 1_555
C7 C6 1_555 1_555
C8 C2 1_555 1_555
H2 C8 1_555 1_555
C9 C6 1_555 1_555
C10 C9 1_555 1_555
C11 C10 1_555 1_555
H3 C11 1_555 1_555
C12 C7 1_555 1_555
C13 C12 1_555 1_555
H4 C13 1_555 1_555
H5 C13 1_555 1_555
H6 C13 1_555 1_555
C14 C9 1_555 1_555
H7 C14 1_555 1_555
C15 C14 1_555 1_555
H8 C15 1_555 1_555
C16 C15 1_555 1_555
H9 C16 1_555 1_555
C17 C10 1_555 1_555
H10 C17 1_555 1_555
C18 C4 1_555 1_555
H11 C18 1_555 1_555
C19 C18 1_555 1_555
C20 C19 1_555 1_555
C21 C3 1_555 1_555
H12 C21 1_555 1_555
C22 C19 1_555 1_555
C23 C22 1_555 1_555
C24 C23 1_555 1_555
H13 C24 1_555 1_555
C25 C20 1_555 1_555
C26 C25 1_555 1_555
H14 C26 1_555 1_555
H15 C26 1_555 1_555
H16 C26 1_555 1_555
C27 C22 1_555 1_555
H17 C27 1_555 1_555
C28 C27 1_555 1_555
H18 C28 1_555 1_555
C29 C28 1_555 1_555
H19 C29 1_555 1_555
C30 C23 1_555 1_555
H20 C30 1_555 1_555
C31 N1 1_555 1_555
H21 C31 1_555 1_555
C32 C31 1_555 1_555
H22 C32 1_555 1_555
H23 C32 1_555 1_555
C33 C32 1_555 1_555
H24 C33 1_555 1_555
H25 C33 1_555 1_555
C34 C33 1_555 1_555
H26 C34 1_555 1_555
H27 C34 1_555 1_555
C35 C34 1_555 1_555
H28 C35 1_555 1_555
H29 C35 1_555 1_555
C36 C35 1_555 1_555
H30 C36 1_555 1_555
H31 C36 1_555 1_555
C37 C36 1_555 1_555
H32 C37 1_555 1_555
H33 C37 1_555 1_555
C38 C37 1_555 1_555
H34 C38 1_555 1_555
H35 C38 1_555 1_555
C39 C38 1_555 1_555
H36 C39 1_555 1_555
H37 C39 1_555 1_555
H38 C39 1_555 1_555
C40 C31 1_555 1_555
H39 C40 1_555 1_555
H40 C40 1_555 1_555
C41 C40 1_555 1_555
H41 C41 1_555 1_555
H42 C41 1_555 1_555
C42 C41 1_555 1_555
H43 C42 1_555 1_555
H44 C42 1_555 1_555
C43 C42 1_555 1_555
H45 C43 1_555 1_555
H46 C43 1_555 1_555
C44 C43 1_555 1_555
H47 C44 1_555 1_555
H48 C44 1_555 1_555
C45 C44 1_555 1_555
H49 C45 1_555 1_555
H50 C45 1_555 1_555
C46 C45 1_555 1_555
H51 C46 1_555 1_555
H52 C46 1_555 1_555
C47 C46 1_555 1_555
H53 C47 1_555 1_555
H54 C47 1_555 1_555
H55 C47 1_555 1_555
N2 C56 1_555 1_555
C56 C57 1_555 1_555
C57 C58 1_555 1_555
C58 C59 1_555 1_555
C59 N2 1_555 1_555
C60 C56 1_555 1_555
H74 C60 1_555 1_555
C61 C60 1_555 1_555
C62 C61 1_555 1_555
C63 C57 1_555 1_555
H75 C63 1_555 1_555
C64 C61 1_555 1_555
C65 C64 1_555 1_555
C66 C65 1_555 1_555
H76 C66 1_555 1_555
C67 C62 1_555 1_555
C68 C67 1_555 1_555
H77 C68 1_555 1_555
H78 C68 1_555 1_555
H79 C68 1_555 1_555
C69 C64 1_555 1_555
H80 C69 1_555 1_555
C70 C69 1_555 1_555
H81 C70 1_555 1_555
C71 C70 1_555 1_555
H82 C71 1_555 1_555
C72 C65 1_555 1_555
H83 C72 1_555 1_555
C73 C59 1_555 1_555
H84 C73 1_555 1_555
C74 C73 1_555 1_555
C75 C74 1_555 1_555
C76 C58 1_555 1_555
H85 C76 1_555 1_555
C77 C74 1_555 1_555
C78 C77 1_555 1_555
C79 C78 1_555 1_555
H86 C79 1_555 1_555
C80 C75 1_555 1_555
C81 C80 1_555 1_555
H87 C81 1_555 1_555
H88 C81 1_555 1_555
H89 C81 1_555 1_555
C82 C77 1_555 1_555
H90 C82 1_555 1_555
C83 C82 1_555 1_555
H91 C83 1_555 1_555
C84 C83 1_555 1_555
H92 C84 1_555 1_555
C85 C78 1_555 1_555
H93 C85 1_555 1_555
C86 N2 1_555 1_555
H94 C86 1_555 1_555
C87 C86 1_555 1_555
H95 C87 1_555 1_555
H96 C87 1_555 1_555
C88 C87 1_555 1_555
H97 C88 1_555 1_555
H98 C88 1_555 1_555
C89 C88 1_555 1_555
H99 C89 1_555 1_555
H100 C89 1_555 1_555
C90 C89 1_555 1_555
H101 C90 1_555 1_555
H102 C90 1_555 1_555
C91 C90 1_555 1_555
H103 C91 1_555 1_555
H104 C91 1_555 1_555
C92 C91 1_555 1_555
H105 C92 1_555 1_555
H106 C92 1_555 1_555
C93 C92 1_555 1_555
H107 C93 1_555 1_555
H108 C93 1_555 1_555
C94 C93 1_555 1_555
H109 C94 1_555 1_555
H110 C94 1_555 1_555
H111 C94 1_555 1_555
C95 C86 1_555 1_555
H112 C95 1_555 1_555
H113 C95 1_555 1_555
C96 C95 1_555 1_555
H114 C96 1_555 1_555
H115 C96 1_555 1_555
C97 C96 1_555 1_555
H116 C97 1_555 1_555
H117 C97 1_555 1_555
C98 C97 1_555 1_555
H118 C98 1_555 1_555
H119 C98 1_555 1_555
C99 C98 1_555 1_555
H120 C99 1_555 1_555
H121 C99 1_555 1_555
C100 C99 1_555 1_555
H122 C100 1_555 1_555
H123 C100 1_555 1_555
C101 C100 1_555 1_555
H124 C101 1_555 1_555
H125 C101 1_555 1_555
C102 C101 1_555 1_555
H126 C102 1_555 1_555
H127 C102 1_555 1_555
H128 C102 1_555 1_555
N3 C119 1_555 1_555
C119 C120 1_555 1_555
C120 C124 1_555 1_555
C121 C119 1_555 1_555
H164 C121 1_555 1_555
C122 C121 1_555 1_555
C123 C122 1_555 1_555
C124 C123 1_555 1_555
H165 C124 1_555 1_555
C125 C122 1_555 1_555
C126 C125 1_555 1_555
C127 C126 1_555 1_555
H166 C127 1_555 1_555
C128 C123 1_555 1_555
C129 C128 1_555 1_555
H167 C129 1_555 1_555
H168 C129 1_555 1_555
H169 C129 1_555 1_555
C130 C125 1_555 1_555
H170 C130 1_555 1_555
C131 C130 1_555 1_555
H171 C131 1_555 1_555
C132 C131 1_555 1_555
H172 C132 1_555 1_555
C133 C126 1_555 1_555
H173 C133 1_555 1_555
C134 C120 1_555 1_555
C135 N3 1_555 1_555
C136 C135 1_555 1_555
H174 C136 1_555 1_555
C137 C136 1_555 1_555
C138 C137 1_555 1_555
C139 C134 1_555 1_555
H175 C139 1_555 1_555
C140 C137 1_555 1_555
C141 C140 1_555 1_555
C142 C141 1_555 1_555
H176 C142 1_555 1_555
C143 C138 1_555 1_555
C144 C143 1_555 1_555
H177 C144 1_555 1_555
H178 C144 1_555 1_555
H179 C144 1_555 1_555
C145 C140 1_555 1_555
H180 C145 1_555 1_555
C146 C145 1_555 1_555
H181 C146 1_555 1_555
C147 C146 1_555 1_555
H182 C147 1_555 1_555
C148 C141 1_555 1_555
H183 C148 1_555 1_555
C149 N3 1_555 1_555
H184 C149 1_555 1_555
C150 C149 1_555 1_555
H185 C150 1_555 1_555
H186 C150 1_555 1_555
C151 C150 1_555 1_555
H187 C151 1_555 1_555
H188 C151 1_555 1_555
C152 C151 1_555 1_555
H189 C152 1_555 1_555
H190 C152 1_555 1_555
C153 C152 1_555 1_555
H191 C153 1_555 1_555
H192 C153 1_555 1_555
C154 C153 1_555 1_555
H193 C154 1_555 1_555
H194 C154 1_555 1_555
C155 C154 1_555 1_555
H195 C155 1_555 1_555
H196 C155 1_555 1_555
C156 C155 1_555 1_555
H197 C156 1_555 1_555
H198 C156 1_555 1_555
C157 C156 1_555 1_555
H199 C157 1_555 1_555
H200 C157 1_555 1_555
H201 C157 1_555 1_555
C158 C149 1_555 1_555
H202 C158 1_555 1_555
H203 C158 1_555 1_555
C159 C158 1_555 1_555
H204 C159 1_555 1_555
H205 C159 1_555 1_555
C160 C159 1_555 1_555
H206 C160 1_555 1_555
H207 C160 1_555 1_555
C161 C160 1_555 1_555
H208 C161 1_555 1_555
H209 C161 1_555 1_555
C162 C161 1_555 1_555
H210 C162 1_555 1_555
H211 C162 1_555 1_555
C163 C162 1_555 1_555
H212 C163 1_555 1_555
H213 C163 1_555 1_555
C164 C163 1_555 1_555
H214 C164 1_555 1_555
H215 C164 1_555 1_555
C165 C164 1_555 1_555
H216 C165 1_555 1_555
H217 C165 1_555 1_555
H218 C165 1_555 1_555
C7 C8 1_555 1_555
C11 C12 1_555 1_555
C16 C17 1_555 1_555
C20 C21 1_555 1_555
C24 C25 1_555 1_555
C29 C30 1_555 1_555
C62 C63 1_555 1_555
C66 C67 1_555 1_555
C71 C72 1_555 1_555
C75 C76 1_555 1_555
C79 C80 1_555 1_555
C84 C85 1_555 1_555
C127 C128 1_555 1_555
C132 C133 1_555 1_555
C134 C135 1_555 1_555
C138 C139 1_555 1_555
C142 C143 1_555 1_555
C147 C148 1_555 1_555

#END
