
#######################################################################
#
#                 Cambridge Crystallographic Data Centre
#                                CCDC 
#
#######################################################################
#
# If this CIF has been generated from an entry in the Cambridge 
# Structural Database, then it will include bibliographic, chemical, 
# crystal, experimental, refinement or atomic coordinate data resulting 
# from the CCDC's data processing and validation procedures.
#
#######################################################################

data_DUSJOR
_chemical_compound_source        'Chisocheton ceramicus (Meliaceae)'
_chemical_name_common            '14-Deoxyxyloccensin K'
_chemical_formula_moiety         'C27 H34 O7'
_chemical_name_systematic        
'Methyl (6-(3-furyl)-1,5,15,15-tetramethyl-8,17-dioxo-7,18-dioxapentacyclo[11.3.1.1^11,14^.0^2,11^.0^5,10^]octadec-16-yl)acetate'
_symmetry_cell_setting           orthorhombic
_symmetry_space_group_name_H-M   'P 21 21 21'
_symmetry_Int_Tables_number      19
_space_group_name_Hall           'P 2ac 2ab'
loop_
_symmetry_equiv_pos_site_id
_symmetry_equiv_pos_as_xyz
1 x,y,z
2 1/2-x,-y,1/2+z
3 -x,1/2+y,1/2-z
4 1/2+x,1/2-y,-z
_cell_length_a                   8.7174(6)
_cell_length_b                   11.7401(8)
_cell_length_c                   23.1106(16)
_cell_angle_alpha                90
_cell_angle_beta                 90
_cell_angle_gamma                90
_cell_volume                     2365.21
_exptl_crystal_colour            colorless
_exptl_crystal_description       'triangular plate'
_cell_formula_units_Z            4
loop_
_atom_site_label
_atom_site_type_symbol
_atom_site_fract_x
_atom_site_fract_y
_atom_site_fract_z
O1 O 0.7791(2) 0.99435(15) 0.16955(8)
O2 O 0.34822(19) 0.79390(12) 0.19484(7)
O3 O 0.1819(2) 0.65454(13) 0.19079(8)
O4 O 0.20193(19) 0.82792(12) 0.31200(6)
O5 O 0.5624(2) 1.06497(15) 0.44621(7)
O6 O 0.4725(2) 1.10625(17) 0.53467(8)
O7 O -0.0536(2) 0.96552(15) 0.46084(8)
C1 C 0.6616(3) 0.9897(2) 0.20877(11)
H1 H 0.6643 1.0232 0.2462
C2 C 0.7301(3) 0.9356(2) 0.12191(12)
H2 H 0.7888 0.9241 0.0878
C3 C 0.5866(3) 0.8964(2) 0.13033(11)
H3 H 0.5268 0.8537 0.1037
C4 C 0.5416(3) 0.93121(19) 0.18712(10)
C5 C 0.3928(3) 0.90631(18) 0.21706(10)
H4 H 0.4153 0.8975 0.2592
C6 C 0.2663(3) 0.99724(19) 0.21106(10)
C7 C 0.1137(3) 0.94872(18) 0.23416(10)
H5 H 0.0320 1.0060 0.2253
C8 C 0.0746(3) 0.84036(19) 0.20019(10)
H6 H -0.0151 0.8033 0.2185
H7 H 0.0448 0.8621 0.1604
C9 C 0.2029(3) 0.75607(19) 0.19700(10)
C10 C 0.2485(3) 1.0343(2) 0.14753(11)
H8 H 0.3462 1.0648 0.1334
H9 H 0.1692 1.0932 0.1447
H10 H 0.2187 0.9685 0.1240
C11 C 0.3102(3) 1.10229(18) 0.24743(10)
H11 H 0.4114 1.1305 0.2343
H12 H 0.2341 1.1633 0.2403
C12 C 0.3179(3) 1.07930(19) 0.31233(10)
H13 H 0.3410 1.1513 0.3329
H14 H 0.4023 1.0251 0.3203
C13 C 0.1678(3) 1.03012(18) 0.33536(10)
H15 H 0.0895 1.0914 0.3298
C14 C 0.1096(3) 0.92757(18) 0.29983(10)
C15 C -0.0487(3) 0.8923(2) 0.32228(10)
H16 H -0.0979 0.8353 0.2967
H17 H -0.1176 0.9586 0.3271
C16 C -0.0026(3) 0.8406(2) 0.38075(10)
H18 H -0.0819 0.7875 0.3966
C17 C 0.1497(3) 0.77978(19) 0.36585(10)
H19 H 0.1292 0.6967 0.3602
C18 C 0.2718(3) 0.79431(19) 0.41271(10)
C19 C 0.3077(3) 0.92499(19) 0.42077(10)
H20 H 0.3949 0.9428 0.3942
C20 C 0.1715(3) 1.00645(19) 0.40270(10)
C21 C 0.0274(3) 0.9414(2) 0.41994(10)
C22 C 0.4198(3) 0.7342(2) 0.39397(10)
H21 H 0.3997 0.6527 0.3888
H22 H 0.4985 0.7446 0.4238
H23 H 0.4559 0.7669 0.3574
C23 C 0.2093(3) 0.7351(2) 0.46731(10)
H24 H 0.1894 0.6547 0.4588
H25 H 0.1138 0.7721 0.4794
H26 H 0.2851 0.7408 0.4985
C24 C 0.1745(3) 1.1215(2) 0.43403(11)
H27 H 0.0877 1.1680 0.4211
H28 H 0.2707 1.1610 0.4252
H29 H 0.1671 1.1090 0.4759
C25 C 0.3663(3) 0.9470(2) 0.48241(10)
H30 H 0.2762 0.9555 0.5081
H31 H 0.4230 0.8785 0.4954
C26 C 0.4692(3) 1.0497(2) 0.49100(10)
C27 C 0.6748(3) 1.1553(2) 0.45213(12)
H32 H 0.7375 1.1592 0.4170
H33 H 0.7409 1.1395 0.4855
H34 H 0.6220 1.2281 0.4579
loop_
_geom_bond_atom_site_label_1
_geom_bond_atom_site_label_2
_geom_bond_site_symmetry_1
_geom_bond_site_symmetry_2
O1 C1 1_555 1_555
O2 C5 1_555 1_555
O3 C9 1_555 1_555
O4 C14 1_555 1_555
O5 C26 1_555 1_555
O6 C26 1_555 1_555
O7 C21 1_555 1_555
C1 H1 1_555 1_555
C2 O1 1_555 1_555
H2 C2 1_555 1_555
C3 C2 1_555 1_555
H3 C3 1_555 1_555
C4 C1 1_555 1_555
C5 C4 1_555 1_555
H4 C5 1_555 1_555
C6 C5 1_555 1_555
C7 C6 1_555 1_555
H5 C7 1_555 1_555
C8 C7 1_555 1_555
H6 C8 1_555 1_555
H7 C8 1_555 1_555
C9 O2 1_555 1_555
C10 C6 1_555 1_555
H8 C10 1_555 1_555
H9 C10 1_555 1_555
H10 C10 1_555 1_555
C11 C6 1_555 1_555
H11 C11 1_555 1_555
H12 C11 1_555 1_555
C12 C11 1_555 1_555
H13 C12 1_555 1_555
H14 C12 1_555 1_555
C13 C12 1_555 1_555
H15 C13 1_555 1_555
C14 C7 1_555 1_555
C15 C14 1_555 1_555
H16 C15 1_555 1_555
H17 C15 1_555 1_555
C16 C15 1_555 1_555
H18 C16 1_555 1_555
C17 O4 1_555 1_555
H19 C17 1_555 1_555
C18 C17 1_555 1_555
C19 C18 1_555 1_555
H20 C19 1_555 1_555
C20 C13 1_555 1_555
C21 C16 1_555 1_555
C22 C18 1_555 1_555
H21 C22 1_555 1_555
H22 C22 1_555 1_555
H23 C22 1_555 1_555
C23 C18 1_555 1_555
H24 C23 1_555 1_555
H25 C23 1_555 1_555
H26 C23 1_555 1_555
C24 C20 1_555 1_555
H27 C24 1_555 1_555
H28 C24 1_555 1_555
H29 C24 1_555 1_555
C25 C19 1_555 1_555
H30 C25 1_555 1_555
H31 C25 1_555 1_555
C26 C25 1_555 1_555
C27 O5 1_555 1_555
H32 C27 1_555 1_555
H33 C27 1_555 1_555
H34 C27 1_555 1_555
C3 C4 1_555 1_555
C8 C9 1_555 1_555
C13 C14 1_555 1_555
C16 C17 1_555 1_555
C19 C20 1_555 1_555
C20 C21 1_555 1_555

#END
