
#######################################################################
#
#                 Cambridge Crystallographic Data Centre
#                                CCDC 
#
#######################################################################
#
# If this CIF has been generated from an entry in the Cambridge 
# Structural Database, then it will include bibliographic, chemical, 
# crystal, experimental, refinement or atomic coordinate data resulting 
# from the CCDC's data processing and validation procedures.
#
#######################################################################

data_DUSKOR
_chemical_formula_moiety         'C25 H30 O3'
_chemical_name_systematic        
(R)-3-Benzyl-6-(\a-dimethylbenzyl)-9-methyl-1,4-dioxaspiro(4.5)decan-2-one
_symmetry_cell_setting           orthorhombic
_symmetry_space_group_name_H-M   'P 21 21 21'
_symmetry_Int_Tables_number      19
_space_group_name_Hall           'P 2ac 2ab'
loop_
_symmetry_equiv_pos_site_id
_symmetry_equiv_pos_as_xyz
1 x,y,z
2 1/2+x,1/2-y,-z
3 -x,1/2+y,1/2-z
4 1/2-x,-y,1/2+z
_cell_length_a                   6.161(2)
_cell_length_b                   12.102(4)
_cell_length_c                   28.993(9)
_cell_angle_alpha                90
_cell_angle_beta                 90
_cell_angle_gamma                90
_cell_volume                     2161.73
_cell_formula_units_Z            4
loop_
_atom_site_label
_atom_site_type_symbol
_atom_site_fract_x
_atom_site_fract_y
_atom_site_fract_z
O1 O -0.4090(11) -0.0874(6) -0.8255(2)
C1 C -0.3176(19) -0.0970(9) -0.7833(4)
C2 C -0.0787(19) -0.0851(9) -0.7886(4)
O2 O -0.0423(10) -0.0726(5) -0.8370(2)
C3 C -0.2447(19) -0.0737(8) -0.8606(3)
C4 C -0.2507(25) -0.1751(9) -0.8919(4)
C5 C -0.4660(24) -0.1889(9) -0.9170(4)
C6 C -0.5149(26) -0.0841(10) -0.9437(4)
C7 C -0.5121(23) 0.0169(9) -0.9123(4)
C8 C -0.2885(19) 0.0317(8) -0.8886(3)
C9 C -0.2634(17) 0.1479(8) -0.8651(3)
C10 C -0.3127(20) 0.2368(8) -0.9015(3)
C11 C -0.4954(22) 0.3019(9) -0.9010(4)
C12 C -0.5333(25) 0.3810(9) -0.9346(5)
C13 C -0.3853(32) 0.3961(10) -0.9697(5)
C14 C -0.2056(27) 0.3325(12) -0.9712(4)
C15 C -0.1694(21) 0.2521(9) -0.9381(4)
C16 C -0.0279(21) 0.1667(9) -0.8483(4)
C17 C -0.4114(22) 0.1618(11) -0.8227(4)
C18 C -0.4561(35) -0.2922(11) -0.9477(5)
O3 O -0.4214(11) -0.1113(6) -0.7490(2)
C19 C 0.0430(22) -0.1860(11) -0.7681(5)
C20 C 0.0053(23) -0.2929(9) -0.7925(4)
C21 C -0.1872(20) -0.3516(11) -0.7870(4)
C22 C -0.2256(26) -0.4467(12) -0.8127(6)
C23 C -0.0697(41) -0.4849(11) -0.8415(6)
C24 C 0.1200(34) -0.4287(16) -0.8467(7)
C25 C 0.1571(24) -0.3356(13) -0.8226(6)
H1 H -0.0140(43) -0.0182(62) -0.7691(24)
H2 H -0.2266(49) -0.2326(64) -0.8749(27)
H3 H -0.1323(43) -0.1672(74) -0.9153(27)
H4 H -0.5807(51) -0.1940(68) -0.8970(28)
H5 H -0.4168(37) -0.0733(72) -0.9705(26)
H6 H -0.6698(29) -0.0893(70) -0.9610(28)
H7 H -0.5294(42) 0.0796(63) -0.9316(23)
H8 H -0.6224(39) 0.0157(71) -0.8869(29)
H9 H -0.1806(36) 0.0306(67) -0.9197(27)
H10 H -0.5992(48) 0.2991(65) -0.8780(28)
H11 H -0.6630(26) 0.4277(69) -0.9326(26)
H12 H -0.4124(32) 0.4513(64) -0.9934(25)
H13 H -0.0885(39) 0.3371(69) -0.9954(26)
H14 H -0.0101(38) 0.2084(65) -0.9405(26)
H15 H 0.0571(36) 0.1468(71) -0.8736(25)
H16 H 0.0039(37) 0.1247(68) -0.8208(25)
H17 H 0.0136(57) 0.2399(69) -0.8405(25)
H18 H -0.5560(39) 0.1459(76) -0.8275(26)
H19 H -0.4171(65) 0.2436(70) -0.8130(27)
H20 H -0.3664(33) 0.1177(68) -0.7969(24)
H21 H -0.5964(44) -0.3033(71) -0.9613(30)
H22 H -0.3988(51) -0.3652(59) -0.9274(23)
H23 H -0.3449(59) -0.2795(75) -0.9724(29)
H24 H -0.0119(43) -0.1860(63) -0.7305(28)
H25 H 0.1890(38) -0.1667(70) -0.7701(26)
H26 H -0.2609(36) -0.3252(70) -0.7636(26)
H27 H -0.3578(48) -0.4847(67) -0.8047(27)
H28 H -0.1100(36) -0.5508(64) -0.8601(25)
H29 H 0.2350(47) -0.4557(68) -0.8703(25)
H30 H 0.3015(44) -0.2903(69) -0.8280(28)
loop_
_geom_bond_atom_site_label_1
_geom_bond_atom_site_label_2
_geom_bond_site_symmetry_1
_geom_bond_site_symmetry_2
O1 C1 1_555 1_555
C1 C2 1_555 1_555
C2 O2 1_555 1_555
O2 C3 1_555 1_555
C3 O1 1_555 1_555
C4 C3 1_555 1_555
C5 C4 1_555 1_555
C6 C5 1_555 1_555
C7 C6 1_555 1_555
C8 C3 1_555 1_555
C9 C8 1_555 1_555
C10 C9 1_555 1_555
C11 C10 1_555 1_555
C12 C11 1_555 1_555
C13 C12 1_555 1_555
C14 C13 1_555 1_555
C15 C10 1_555 1_555
C16 C9 1_555 1_555
C17 C9 1_555 1_555
C18 C5 1_555 1_555
O3 C1 1_555 1_555
C19 C2 1_555 1_555
C20 C19 1_555 1_555
C21 C20 1_555 1_555
C22 C21 1_555 1_555
C23 C22 1_555 1_555
C24 C23 1_555 1_555
C25 C20 1_555 1_555
H1 C2 1_555 1_555
H2 C4 1_555 1_555
H3 C4 1_555 1_555
H4 C5 1_555 1_555
H5 C6 1_555 1_555
H6 C6 1_555 1_555
H7 C7 1_555 1_555
H8 C7 1_555 1_555
H9 C8 1_555 1_555
H10 C11 1_555 1_555
H11 C12 1_555 1_555
H12 C13 1_555 1_555
H13 C14 1_555 1_555
H14 C15 1_555 1_555
H15 C16 1_555 1_555
H16 C16 1_555 1_555
H17 C16 1_555 1_555
H18 C17 1_555 1_555
H19 C17 1_555 1_555
H20 C17 1_555 1_555
H21 C18 1_555 1_555
H22 C18 1_555 1_555
H23 C18 1_555 1_555
H24 C19 1_555 1_555
H25 C19 1_555 1_555
H26 C21 1_555 1_555
H27 C22 1_555 1_555
H28 C23 1_555 1_555
H29 C24 1_555 1_555
H30 C25 1_555 1_555
C7 C8 1_555 1_555
C14 C15 1_555 1_555
C24 C25 1_555 1_555

#END
