
#######################################################################
#
#                 Cambridge Crystallographic Data Centre
#                                CCDC 
#
#######################################################################
#
# If this CIF has been generated from an entry in the Cambridge 
# Structural Database, then it will include bibliographic, chemical, 
# crystal, experimental, refinement or atomic coordinate data resulting 
# from the CCDC's data processing and validation procedures.
#
#######################################################################

data_DUSVET
_chemical_name_common            
1$2!,1$5!-Dibromo-5$2!,5$3!,5$5!,5$6!-tetramethyl-3,7-dithia-1,5(1,4)-dibenzenacyclooctaphane
_chemical_formula_moiety         'C20 H22 Br2 S2'
_chemical_name_systematic        
13,15-Dibromo-6,7,17,18-tetramethyl-3,10-dithiatricyclo[10.2.2.2^5,8^]octadeca-1(14),5,7,12,15,17-hexaene
_symmetry_cell_setting           monoclinic
_symmetry_space_group_name_H-M   'P 21/c'
_symmetry_Int_Tables_number      14
_space_group_name_Hall           '-P 2ybc'
loop_
_symmetry_equiv_pos_site_id
_symmetry_equiv_pos_as_xyz
1 x,y,z
2 -x,1/2+y,1/2-z
3 -x,-y,-z
4 x,1/2-y,1/2+z
_cell_length_a                   15.298(3)
_cell_length_b                   12.340(2)
_cell_length_c                   10.0160(18)
_cell_angle_alpha                90
_cell_angle_beta                 91.864(3)
_cell_angle_gamma                90
_cell_volume                     1889.79
_exptl_crystal_colour            colorless
_exptl_crystal_description       block
_cell_formula_units_Z            4
_exptl_crystal_recrystallization_method toluene
loop_
_atom_site_label
_atom_site_type_symbol
_atom_site_fract_x
_atom_site_fract_y
_atom_site_fract_z
Br1 Br 0.63291(3) -0.24847(3) 0.69722(4)
Br2 Br 0.86653(3) 0.03415(3) 1.12714(4)
C1 C 0.7941(2) -0.1625(2) 0.8090(3)
C2 C 0.7035(2) -0.1602(2) 0.8134(3)
C3 C 0.6607(2) -0.0921(3) 0.8980(3)
H1 H 0.5998 -0.0911 0.8961
C4 C 0.7068(2) -0.0249(2) 0.9864(3)
C5 C 0.7961(2) -0.0389(2) 0.9945(3)
C6 C 0.8387(2) -0.1043(2) 0.9067(3)
H2 H 0.8994 -0.1094 0.9134
C7 C 0.8438(3) -0.2189(3) 0.7015(4)
H3 H 0.8025 -0.2425 0.6320
H4 H 0.8713 -0.2832 0.7396
C8 C 0.8677(2) -0.0337(3) 0.5289(3)
H5 H 0.9104 0.0117 0.4863
H6 H 0.8339 -0.0700 0.4585
C9 C 0.8064(2) 0.0394(2) 0.6037(3)
C10 C 0.7159(2) 0.0343(2) 0.5758(3)
C11 C 0.65953(19) 0.0939(2) 0.6546(3)
C12 C 0.69283(19) 0.1594(2) 0.7578(3)
C13 C 0.7842(2) 0.1727(2) 0.7759(3)
C14 C 0.84008(19) 0.1132(2) 0.6990(3)
C15 C 0.6794(2) -0.0317(3) 0.4589(3)
H7 H 0.6190 -0.0132 0.4423
H8 H 0.6840 -0.1075 0.4796
H9 H 0.7119 -0.0162 0.3808
C16 C 0.5615(2) 0.0846(3) 0.6279(4)
H10 H 0.5425 0.0129 0.6503
H11 H 0.5482 0.0984 0.5351
H12 H 0.5318 0.1366 0.6815
C17 C 0.9379(2) 0.1285(3) 0.7171(4)
H13 H 0.9518 0.2041 0.7109
H14 H 0.9671 0.0894 0.6487
H15 H 0.9569 0.1016 0.8032
C18 C 0.8205(3) 0.2505(3) 0.8816(4)
H16 H 0.8832 0.2463 0.8850
H17 H 0.7986 0.2313 0.9671
H18 H 0.8028 0.3231 0.8593
C19 C 0.6313(2) 0.2168(3) 0.8503(4)
H19 H 0.5883 0.2561 0.7959
H20 H 0.6647 0.2697 0.9021
C20 C 0.6574(3) 0.0609(3) 1.0634(4)
H21 H 0.6990 0.1141 1.0978
H22 H 0.6310 0.0265 1.1393
S1 S 0.92690(6) -0.13702(8) 0.62621(10)
S2 S 0.57294(6) 0.13011(8) 0.96634(10)
loop_
_geom_bond_atom_site_label_1
_geom_bond_atom_site_label_2
_geom_bond_site_symmetry_1
_geom_bond_site_symmetry_2
Br1 C2 1_555 1_555
Br2 C5 1_555 1_555
C1 C2 1_555 1_555
C2 C3 1_555 1_555
C3 H1 1_555 1_555
C4 C3 1_555 1_555
C5 C4 1_555 1_555
C6 C1 1_555 1_555
H2 C6 1_555 1_555
C7 C1 1_555 1_555
H3 C7 1_555 1_555
H4 C7 1_555 1_555
C8 H5 1_555 1_555
H6 C8 1_555 1_555
C9 C8 1_555 1_555
C10 C9 1_555 1_555
C11 C10 1_555 1_555
C12 C11 1_555 1_555
C13 C12 1_555 1_555
C14 C9 1_555 1_555
C15 C10 1_555 1_555
H7 C15 1_555 1_555
H8 C15 1_555 1_555
H9 C15 1_555 1_555
C16 C11 1_555 1_555
H10 C16 1_555 1_555
H11 C16 1_555 1_555
H12 C16 1_555 1_555
C17 C14 1_555 1_555
H13 C17 1_555 1_555
H14 C17 1_555 1_555
H15 C17 1_555 1_555
C18 C13 1_555 1_555
H16 C18 1_555 1_555
H17 C18 1_555 1_555
H18 C18 1_555 1_555
C19 C12 1_555 1_555
H19 C19 1_555 1_555
H20 C19 1_555 1_555
C20 C4 1_555 1_555
H21 C20 1_555 1_555
H22 C20 1_555 1_555
S1 C7 1_555 1_555
S2 C19 1_555 1_555
C5 C6 1_555 1_555
C8 S1 1_555 1_555
C13 C14 1_555 1_555
C20 S2 1_555 1_555

#END
