
#######################################################################
#
#                 Cambridge Crystallographic Data Centre
#                                CCDC 
#
#######################################################################
#
# If this CIF has been generated from an entry in the Cambridge 
# Structural Database, then it will include bibliographic, chemical, 
# crystal, experimental, refinement or atomic coordinate data resulting 
# from the CCDC's data processing and validation procedures.
#
#######################################################################

data_DUSWIY
_chemical_name_common            Pirimicarb
_chemical_formula_moiety         'C11 H18 N4 O2'
_chemical_name_systematic        
'2-(Dimethylamino)-5,6-dimethylpyrimidin-4-yl dimethylcarbamate'
_chemical_properties_biological  
'insecticide used to control aphids on vegetable, cereal and orchard crops by inhibiting acetylcholinesterase activity'
_symmetry_cell_setting           monoclinic
_symmetry_space_group_name_H-M   'P 21/c'
_symmetry_Int_Tables_number      14
_space_group_name_Hall           '-P 2ybc'
loop_
_symmetry_equiv_pos_site_id
_symmetry_equiv_pos_as_xyz
1 x,y,z
2 -x,1/2+y,1/2-z
3 -x,-y,-z
4 x,1/2-y,1/2+z
_cell_length_a                   13.5607(7)
_cell_length_b                   7.7868(4)
_cell_length_c                   13.1323(7)
_cell_angle_alpha                90
_cell_angle_beta                 114.907(3)
_cell_angle_gamma                90
_cell_volume                     1257.72
_exptl_crystal_colour            colorless
_exptl_crystal_description       block
_cell_formula_units_Z            4
_exptl_crystal_recrystallization_method dichloromethane
loop_
_atom_site_label
_atom_site_type_symbol
_atom_site_fract_x
_atom_site_fract_y
_atom_site_fract_z
O1 O 0.24024(9) 0.53521(13) 0.53519(9)
O2 O 0.32335(9) 0.74531(13) 0.48118(9)
N1 N 0.14628(10) 0.43992(15) 0.35622(10)
N2 N 0.22281(10) 0.23436(15) 0.27478(10)
N3 N 0.05012(11) 0.34353(18) 0.17468(11)
N4 N 0.27470(12) 0.78741(17) 0.62525(11)
C1 C 0.23902(12) 0.43542(17) 0.44613(12)
C2 C 0.14204(11) 0.33785(18) 0.27129(12)
C3 C 0.31494(11) 0.23573(17) 0.36835(12)
C4 C 0.32953(12) 0.33878(18) 0.46103(12)
C5 C 0.40316(13) 0.1190(2) 0.36877(15)
H1 H 0.3872 0.0846 0.2916
H2 H 0.4068 0.0166 0.4137
H3 H 0.4730 0.1794 0.4013
C6 C 0.43355(14) 0.3450(2) 0.56746(13)
H4 H 0.4265 0.2707 0.6243
H5 H 0.4474 0.4632 0.5955
H6 H 0.4942 0.3049 0.5516
C7 C 0.03605(14) 0.2330(2) 0.08023(14)
H7 H -0.0065 0.1316 0.0811
H8 H 0.1074 0.1967 0.0861
H9 H -0.0023 0.2961 0.0099
C8 C -0.04504(14) 0.4381(3) 0.16659(16)
H10 H -0.0234 0.5248 0.2262
H11 H -0.0972 0.3587 0.1749
H12 H -0.0788 0.4948 0.0932
C9 C 0.28291(11) 0.69672(18) 0.54274(11)
C10 C 0.22081(15) 0.7283(2) 0.69413(14)
H13 H 0.2093 0.6039 0.6851
H14 H 0.1505 0.7863 0.6705
H15 H 0.2664 0.7548 0.7731
C11 C 0.31354(17) 0.9642(2) 0.64121(17)
H16 H 0.3535 0.9857 0.5953
H17 H 0.3618 0.9830 0.7205
H18 H 0.2514 1.0427 0.6185
loop_
_geom_bond_atom_site_label_1
_geom_bond_atom_site_label_2
_geom_bond_site_symmetry_1
_geom_bond_site_symmetry_2
O1 C1 1_555 1_555
O2 C9 1_555 1_555
N1 C1 1_555 1_555
N2 C2 1_555 1_555
N3 C2 1_555 1_555
N4 C9 1_555 1_555
C1 C4 1_555 1_555
C2 N1 1_555 1_555
C3 N2 1_555 1_555
C4 C3 1_555 1_555
C5 C3 1_555 1_555
H1 C5 1_555 1_555
H2 C5 1_555 1_555
H3 C5 1_555 1_555
C6 C4 1_555 1_555
H4 C6 1_555 1_555
H5 C6 1_555 1_555
H6 C6 1_555 1_555
C7 N3 1_555 1_555
H7 C7 1_555 1_555
H8 C7 1_555 1_555
H9 C7 1_555 1_555
C8 N3 1_555 1_555
H10 C8 1_555 1_555
H11 C8 1_555 1_555
H12 C8 1_555 1_555
C9 O1 1_555 1_555
C10 N4 1_555 1_555
H13 C10 1_555 1_555
H14 C10 1_555 1_555
H15 C10 1_555 1_555
C11 N4 1_555 1_555
H16 C11 1_555 1_555
H17 C11 1_555 1_555
H18 C11 1_555 1_555

#END
