
#######################################################################
#
#                 Cambridge Crystallographic Data Centre
#                                CCDC 
#
#######################################################################
#
# If this CIF has been generated from an entry in the Cambridge 
# Structural Database, then it will include bibliographic, chemical, 
# crystal, experimental, refinement or atomic coordinate data resulting 
# from the CCDC's data processing and validation procedures.
#
#######################################################################

data_DUSWOE
_chemical_formula_moiety         'C11 H12 N2 O2'
_chemical_name_systematic        
'Ethyl 5-methylimidazo[1,2-a]pyridine-2-carboxylate'
_symmetry_cell_setting           monoclinic
_symmetry_space_group_name_H-M   'C 2/c'
_symmetry_Int_Tables_number      15
_space_group_name_Hall           '-C 2yn'
loop_
_symmetry_equiv_pos_site_id
_symmetry_equiv_pos_as_xyz
1 x,y,z
2 -x,y,1/2-z
3 1/2+x,1/2+y,z
4 1/2-x,1/2+y,1/2-z
5 -x,-y,-z
6 x,-y,1/2+z
7 1/2-x,1/2-y,-z
8 1/2+x,1/2-y,1/2+z
_cell_length_a                   17.164(3)
_cell_length_b                   10.521(2)
_cell_length_c                   13.759(3)
_cell_angle_alpha                90
_cell_angle_beta                 124.77(3)
_cell_angle_gamma                90
_cell_volume                     2041
_exptl_crystal_colour            colorless
_exptl_crystal_description       block
_cell_formula_units_Z            8
_exptl_crystal_recrystallization_method 'ethyl acetate'
loop_
_atom_site_label
_atom_site_type_symbol
_atom_site_fract_x
_atom_site_fract_y
_atom_site_fract_z
N1 N 0.12866(11) 0.40243(18) 0.19751(15)
O1 O 0.07064(11) 0.13738(15) 0.15389(15)
C1 C 0.06679(17) 0.7803(2) 0.15626(19)
H1 H 0.0502 0.8658 0.1452
N2 N 0.02673(11) 0.56505(15) 0.13920(13)
O2 O -0.07427(10) 0.20448(14) 0.09371(13)
C2 C 0.16246(17) 0.7466(3) 0.2109(2)
H2 H 0.2075 0.8102 0.2346
C3 C 0.19016(14) 0.6232(2) 0.22978(18)
H3 H 0.2537 0.6020 0.2665
C4 C 0.12108(13) 0.5273(2) 0.19286(17)
C5 C 0.03813(14) 0.3590(2) 0.14702(17)
C6 C -0.02457(13) 0.45553(19) 0.11134(16)
H4 H -0.0896 0.4487 0.0751
C7 C -0.00174(15) 0.6916(2) 0.11927(17)
C8 C -0.10473(15) 0.7154(2) 0.05724(19)
H5 H -0.1164 0.8053 0.0480
H6 H -0.1260 0.6807 0.1028
H7 H -0.1385 0.6757 -0.0192
C9 C 0.01645(14) 0.2218(2) 0.13352(17)
C10 C -0.10735(16) 0.0748(2) 0.0699(2)
H8 H -0.0701 0.0241 0.1412
H9 H -0.1011 0.0386 0.0098
C11 C -0.20816(17) 0.0755(3) 0.0283(2)
H10 H -0.2321 -0.0099 0.0114
H11 H -0.2443 0.1261 -0.0421
H12 H -0.2134 0.1109 0.0887
loop_
_geom_bond_atom_site_label_1
_geom_bond_atom_site_label_2
_geom_bond_site_symmetry_1
_geom_bond_site_symmetry_2
N1 C4 1_555 1_555
O1 C9 1_555 1_555
C1 H1 1_555 1_555
N2 C4 1_555 1_555
O2 C9 1_555 1_555
C2 C1 1_555 1_555
H2 C2 1_555 1_555
C3 C2 1_555 1_555
H3 C3 1_555 1_555
C4 C3 1_555 1_555
C5 N1 1_555 1_555
C6 N2 1_555 1_555
H4 C6 1_555 1_555
C7 C1 1_555 1_555
C8 C7 1_555 1_555
H5 C8 1_555 1_555
H6 C8 1_555 1_555
H7 C8 1_555 1_555
C9 C5 1_555 1_555
C10 O2 1_555 1_555
H8 C10 1_555 1_555
H9 C10 1_555 1_555
C11 C10 1_555 1_555
H10 C11 1_555 1_555
H11 C11 1_555 1_555
H12 C11 1_555 1_555
N2 C7 1_555 1_555
C5 C6 1_555 1_555

#END
