
#######################################################################
#
#                 Cambridge Crystallographic Data Centre
#                                CCDC 
#
#######################################################################
#
# If this CIF has been generated from an entry in the Cambridge 
# Structural Database, then it will include bibliographic, chemical, 
# crystal, experimental, refinement or atomic coordinate data resulting 
# from the CCDC's data processing and validation procedures.
#
#######################################################################

data_DUSXUM
_chemical_formula_moiety         'C22 H26 N2 O6'
_chemical_name_systematic        
'Diethyl 3-cyano-6-(4-(dimethylamino)phenyl)-2-ethoxy-4H-pyran-4,4-dicarboxylate'
_symmetry_cell_setting           triclinic
_symmetry_space_group_name_H-M   'P -1'
_symmetry_Int_Tables_number      2
_space_group_name_Hall           '-P 1'
loop_
_symmetry_equiv_pos_site_id
_symmetry_equiv_pos_as_xyz
1 x,y,z
2 -x,-y,-z
_cell_length_a                   9.8154(6)
_cell_length_b                   10.3762(6)
_cell_length_c                   11.1204(6)
_cell_angle_alpha                80.806(2)
_cell_angle_beta                 87.501(2)
_cell_angle_gamma                68.0400(10)
_cell_volume                     1036.74
_exptl_crystal_colour            'light yellow'
_exptl_crystal_description       plate
_cell_formula_units_Z            2
loop_
_atom_site_label
_atom_site_type_symbol
_atom_site_fract_x
_atom_site_fract_y
_atom_site_fract_z
O1 O 0.11089(9) 0.56975(7) -0.19178(7)
O2 O 0.21541(9) 0.35642(8) -0.36819(7)
O3 O 0.43344(10) 0.30608(10) -0.27779(7)
O4 O 0.21083(9) -0.02868(8) -0.02198(7)
O5 O 0.31871(9) 0.09711(7) 0.05329(7)
O6 O -0.03958(9) 0.45518(8) -0.12409(7)
N1 N 0.69490(11) 0.18746(10) 0.45704(8)
N2 N 0.01984(12) 0.15708(10) -0.29237(9)
C1 C 0.76631(15) 0.05465(13) 0.53608(11)
H1 H 0.6918 0.0255 0.5809
H2 H 0.8320 0.0659 0.5939
H3 H 0.8234 -0.0171 0.4868
C2 C 0.60979(12) 0.19549(11) 0.36012(9)
C3 C 0.54123(13) 0.32337(11) 0.28055(10)
H4 H 0.5523 0.4065 0.2957
C4 C 0.45864(13) 0.32881(11) 0.18144(10)
H5 H 0.4143 0.4160 0.1294
C5 C 0.43802(12) 0.20954(11) 0.15509(9)
C6 C 0.35333(12) 0.21738(10) 0.04699(9)
C7 C 0.31259(12) 0.31936(11) -0.04824(9)
H6 H 0.3444 0.3956 -0.0502
C8 C 0.21954(12) 0.32221(10) -0.15308(9)
C9 C 0.07854(12) 0.45527(11) -0.15613(9)
C10 C -0.00464(13) 0.70373(11) -0.17480(10)
H7 H -0.0202 0.7090 -0.0869
H8 H -0.0982 0.7129 -0.2122
C11 C 0.04413(14) 0.81891(12) -0.23482(11)
H9 H 0.1404 0.8046 -0.2015
H10 H -0.0274 0.9100 -0.2194
H11 H 0.0513 0.8175 -0.3228
C12 C 0.28549(14) 0.34490(12) -0.48670(10)
H12 H 0.3410 0.2450 -0.4943
H13 H 0.3544 0.3952 -0.4968
C13 C 0.30440(12) 0.32869(10) -0.27252(9)
C14 C 0.18393(12) 0.19029(10) -0.13493(9)
C15 C 0.09356(13) 0.17032(11) -0.22148(10)
C16 C 0.23727(12) 0.08889(11) -0.03732(9)
C17 C 0.27489(13) -0.13481(11) 0.08485(10)
H14 H 0.2271 -0.1008 0.1600
H15 H 0.3814 -0.1552 0.0918
C18 C 0.24962(15) -0.26473(12) 0.06707(11)
H16 H 0.1443 -0.2418 0.0554
H17 H 0.2857 -0.3367 0.1391
H18 H 0.3024 -0.3005 -0.0049
C19 C 0.70735(14) 0.31340(13) 0.48856(11)
H19 H 0.7413 0.3620 0.4178
H20 H 0.7779 0.2871 0.5563
H21 H 0.6112 0.3759 0.5128
C20 C 0.58547(13) 0.07650(11) 0.33496(10)
H22 H 0.6274 -0.0105 0.3877
C21 C 0.50212(13) 0.08391(11) 0.23532(9)
H23 H 0.4880 0.0019 0.2210
C22 C 0.1616(6) 0.4117(10) -0.5833(5)
H24 H 0.0924 0.3631 -0.5702
H25 H 0.2034 0.4032 -0.6646
H26 H 0.1100 0.5113 -0.5765
C23? C 0.1758(13) 0.3594(18) -0.5767(9)
H27? H 0.1323 0.2885 -0.5518
H28? H 0.2222 0.3461 -0.6559
H29? H 0.0988 0.4535 -0.5830
H30? H 0.3260 0.4196 -0.5087
H31? H 0.3672 0.2525 -0.4837
loop_
_geom_bond_atom_site_label_1
_geom_bond_atom_site_label_2
_geom_bond_site_symmetry_1
_geom_bond_site_symmetry_2
O1 C9 1_555 1_555
O2 C12 1_555 1_555
O3 C13 1_555 1_555
O4 C16 1_555 1_555
O5 C6 1_555 1_555
O6 C9 1_555 1_555
N1 C1 1_555 1_555
N2 C15 1_555 1_555
C1 H1 1_555 1_555
H2 C1 1_555 1_555
H3 C1 1_555 1_555
C2 N1 1_555 1_555
C3 C2 1_555 1_555
H4 C3 1_555 1_555
C4 C3 1_555 1_555
H5 C4 1_555 1_555
C5 C4 1_555 1_555
C6 C5 1_555 1_555
C7 C6 1_555 1_555
H6 C7 1_555 1_555
C8 C7 1_555 1_555
C9 C8 1_555 1_555
C10 O1 1_555 1_555
H7 C10 1_555 1_555
H8 C10 1_555 1_555
C11 C10 1_555 1_555
H9 C11 1_555 1_555
H10 C11 1_555 1_555
H11 C11 1_555 1_555
C12 H12 1_555 1_555
H13 C12 1_555 1_555
C13 O2 1_555 1_555
C14 C8 1_555 1_555
C15 C14 1_555 1_555
C16 O5 1_555 1_555
C17 O4 1_555 1_555
H14 C17 1_555 1_555
H15 C17 1_555 1_555
C18 C17 1_555 1_555
H16 C18 1_555 1_555
H17 C18 1_555 1_555
H18 C18 1_555 1_555
C19 N1 1_555 1_555
H19 C19 1_555 1_555
H20 C19 1_555 1_555
H21 C19 1_555 1_555
C20 C2 1_555 1_555
H22 C20 1_555 1_555
C21 C5 1_555 1_555
H23 C21 1_555 1_555
C22 C12 1_555 1_555
H24 C22 1_555 1_555
H25 C22 1_555 1_555
H26 C22 1_555 1_555
C8 C13 1_555 1_555
C14 C16 1_555 1_555
C20 C21 1_555 1_555

#END
