
#######################################################################
#
#                 Cambridge Crystallographic Data Centre
#                                CCDC 
#
#######################################################################
#
# If this CIF has been generated from an entry in the Cambridge 
# Structural Database, then it will include bibliographic, chemical, 
# crystal, experimental, refinement or atomic coordinate data resulting 
# from the CCDC's data processing and validation procedures.
#
#######################################################################

data_DUSYAT
_chemical_formula_moiety         'C18 H16 N4 O2'
_chemical_name_systematic        
'Ethyl 2,5,5-tricyano-3-(4-(dimethylamino)phenyl)penta-2,4-dienoate'
_symmetry_cell_setting           monoclinic
_symmetry_space_group_name_H-M   'P 21/c'
_symmetry_Int_Tables_number      14
_space_group_name_Hall           '-P 2ybc'
loop_
_symmetry_equiv_pos_site_id
_symmetry_equiv_pos_as_xyz
1 x,y,z
2 -x,1/2+y,1/2-z
3 -x,-y,-z
4 x,1/2-y,1/2+z
_cell_length_a                   7.5360(3)
_cell_length_b                   27.7123(11)
_cell_length_c                   7.9319(3)
_cell_angle_alpha                90
_cell_angle_beta                 91.601(2)
_cell_angle_gamma                90
_cell_volume                     1655.85
_exptl_crystal_colour            'dark red'
_exptl_crystal_description       plate
_cell_formula_units_Z            4
loop_
_atom_site_label
_atom_site_type_symbol
_atom_site_fract_x
_atom_site_fract_y
_atom_site_fract_z
C1 C 0.14469(17) 0.44467(5) 0.24045(16)
H1 H 0.1104 0.4568 0.3467
O1 O -0.13895(13) 0.34334(3) 0.72979(11)
O2 O -0.03266(13) 0.28515(3) 0.56293(12)
N1 N -0.13995(18) 0.45016(4) 0.56471(15)
C2 C 0.13827(17) 0.39446(5) 0.21184(16)
C3 C 0.24493(18) 0.41007(5) -0.07111(16)
H2 H 0.2781 0.3978 -0.1776
N2 N 0.35362(18) 0.20113(5) 0.25365(17)
N3 N 0.56401(18) 0.34351(6) 0.40192(18)
C4 C 0.31289(19) 0.54336(5) -0.12515(18)
H3 H 0.1925 0.5544 -0.1017
H4 H 0.3561 0.5603 -0.2243
H5 H 0.3916 0.5502 -0.0276
N4 N 0.31064(16) 0.49169(4) -0.15753(15)
C5 C 0.25164(17) 0.46026(5) -0.04078(17)
C6 C 0.19877(17) 0.47644(5) 0.11998(17)
H6 H 0.2009 0.5100 0.1445
C7 C 0.07951(17) 0.35934(4) 0.33410(16)
C8 C -0.01543(17) 0.36754(4) 0.47719(16)
C9 C -0.06158(17) 0.32731(4) 0.59102(16)
C10 C -0.1878(2) 0.30610(5) 0.84833(17)
H7 H -0.0805 0.2890 0.8914
H8 H -0.2677 0.2823 0.7922
C11 C -0.2805(2) 0.33019(5) 0.99105(18)
H9 H -0.3879 0.3464 0.9473
H10 H -0.2010 0.3540 1.0445
H11 H -0.3131 0.3059 1.0744
C12 C 0.3775(2) 0.47411(6) -0.31644(18)
H12 H 0.2825 0.4571 -0.3788
H13 H 0.4768 0.4520 -0.2940
H14 H 0.4181 0.5014 -0.3836
C13 C 0.19110(18) 0.37880(5) 0.05119(17)
H15 H 0.1892 0.3452 0.0270
C14 C 0.12642(18) 0.30826(4) 0.29866(15)
H16 H 0.0341 0.2866 0.2658
C15 C 0.29306(18) 0.29145(5) 0.31107(16)
C16 C 0.32861(18) 0.24130(5) 0.27790(17)
C17 C 0.44215(19) 0.32083(5) 0.36338(17)
C18 C -0.08256(18) 0.41382(5) 0.52344(16)
loop_
_geom_bond_atom_site_label_1
_geom_bond_atom_site_label_2
_geom_bond_site_symmetry_1
_geom_bond_site_symmetry_2
C1 H1 1_555 1_555
O1 C9 1_555 1_555
O2 C9 1_555 1_555
N1 C18 1_555 1_555
C2 C1 1_555 1_555
C3 H2 1_555 1_555
N2 C16 1_555 1_555
N3 C17 1_555 1_555
C4 H3 1_555 1_555
H4 C4 1_555 1_555
H5 C4 1_555 1_555
N4 C4 1_555 1_555
C5 C3 1_555 1_555
C6 C1 1_555 1_555
H6 C6 1_555 1_555
C7 C2 1_555 1_555
C8 C7 1_555 1_555
C9 C8 1_555 1_555
C10 O1 1_555 1_555
H7 C10 1_555 1_555
H8 C10 1_555 1_555
C11 C10 1_555 1_555
H9 C11 1_555 1_555
H10 C11 1_555 1_555
H11 C11 1_555 1_555
C12 N4 1_555 1_555
H12 C12 1_555 1_555
H13 C12 1_555 1_555
H14 C12 1_555 1_555
C13 C2 1_555 1_555
H15 C13 1_555 1_555
C14 C7 1_555 1_555
H16 C14 1_555 1_555
C15 C14 1_555 1_555
C16 C15 1_555 1_555
C17 C15 1_555 1_555
C18 C8 1_555 1_555
C3 C13 1_555 1_555
N4 C5 1_555 1_555
C5 C6 1_555 1_555

#END
