
#######################################################################
#
#                 Cambridge Crystallographic Data Centre
#                                CCDC 
#
#######################################################################
#
# If this CIF has been generated from an entry in the Cambridge 
# Structural Database, then it will include bibliographic, chemical, 
# crystal, experimental, refinement or atomic coordinate data resulting 
# from the CCDC's data processing and validation procedures.
#
#######################################################################

data_DUSZEX01
_chemical_formula_moiety         'C12 H10 N2 O3'
_chemical_name_systematic        
N'-[(2-hydroxyphenyl)methylidene]furan-2-carbohydrazide
_symmetry_cell_setting           orthorhombic
_symmetry_space_group_name_H-M   'P c a 21'
_symmetry_Int_Tables_number      29
_space_group_name_Hall           'P 2c -2ac'
loop_
_symmetry_equiv_pos_site_id
_symmetry_equiv_pos_as_xyz
1 x,y,z
2 -x,-y,1/2+z
3 1/2+x,-y,z
4 1/2-x,y,1/2+z
_cell_length_a                   17.3882(17)
_cell_length_b                   6.3350(5)
_cell_length_c                   9.8830(9)
_cell_angle_alpha                90
_cell_angle_beta                 90
_cell_angle_gamma                90
_cell_volume                     1088.65
_exptl_crystal_colour            colorless
_exptl_crystal_description       block
_cell_formula_units_Z            4
loop_
_atom_site_label
_atom_site_type_symbol
_atom_site_fract_x
_atom_site_fract_y
_atom_site_fract_z
O1 O 0.77543(9) -0.1892(3) 0.56974(17)
O2 O 0.75070(11) 0.1830(3) 0.30278(17)
O3 O 0.61918(10) 0.7184(3) 0.39728(17)
H1 H 0.6477 0.6171 0.4092
N1 N 0.65972(10) 0.3494(3) 0.50389(18)
N2 N 0.70537(10) 0.1733(3) 0.51972(18)
H2 H 0.7074 0.1108 0.5969
C1 C 0.55917(11) 0.5632(3) 0.59429(19)
C2 C 0.74705(13) 0.0984(3) 0.4146(2)
C3 C 0.56606(12) 0.7248(3) 0.4969(2)
C4 C 0.61009(12) 0.3818(3) 0.59698(19)
H3 H 0.6065 0.2866 0.6683
C5 C 0.50062(12) 0.5792(4) 0.6916(2)
H4 H 0.4946 0.4717 0.7549
C6 C 0.78781(12) -0.0992(4) 0.4458(2)
C7 C 0.81675(14) -0.3721(4) 0.5716(3)
H5 H 0.8185 -0.4655 0.6442
C8 C 0.45182(13) 0.7509(4) 0.6956(3)
H6 H 0.4134 0.7589 0.7608
C9 C 0.85450(16) -0.3987(4) 0.4549(3)
H7 H 0.8867 -0.5106 0.4324
C10 C 0.83572(15) -0.2216(4) 0.3717(3)
H8 H 0.8530 -0.1956 0.2842
C11 C 0.51650(15) 0.8986(4) 0.5036(3)
H9 H 0.5215 1.0072 0.4408
C12 C 0.46064(14) 0.9112(4) 0.6015(3)
H10 H 0.4285 1.0283 0.6047
loop_
_geom_bond_atom_site_label_1
_geom_bond_atom_site_label_2
_geom_bond_site_symmetry_1
_geom_bond_site_symmetry_2
O1 C6 1_555 1_555
O2 C2 1_555 1_555
O3 H1 1_555 1_555
N1 N2 1_555 1_555
N2 H2 1_555 1_555
C1 C3 1_555 1_555
C2 N2 1_555 1_555
C3 O3 1_555 1_555
C4 N1 1_555 1_555
H3 C4 1_555 1_555
C5 C1 1_555 1_555
H4 C5 1_555 1_555
C6 C2 1_555 1_555
C7 O1 1_555 1_555
H5 C7 1_555 1_555
C8 C5 1_555 1_555
H6 C8 1_555 1_555
C9 C7 1_555 1_555
H7 C9 1_555 1_555
C10 C6 1_555 1_555
H8 C10 1_555 1_555
C11 C3 1_555 1_555
H9 C11 1_555 1_555
C12 C8 1_555 1_555
H10 C12 1_555 1_555
C1 C4 1_555 1_555
C9 C10 1_555 1_555
C11 C12 1_555 1_555

#END
