
#######################################################################
#
#                 Cambridge Crystallographic Data Centre
#                                CCDC 
#
#######################################################################
#
# If this CIF has been generated from an entry in the Cambridge 
# Structural Database, then it will include bibliographic, chemical, 
# crystal, experimental, refinement or atomic coordinate data resulting 
# from the CCDC's data processing and validation procedures.
#
#######################################################################

data_DUSZIC
_chemical_formula_moiety         'C13 H16 N8 O4'
_chemical_name_systematic        8-Azido-2',3'-O-isopropylideneadenosine
_symmetry_cell_setting           monoclinic
_symmetry_space_group_name_H-M   'P 21'
_symmetry_Int_Tables_number      4
_space_group_name_Hall           'P 2yb'
loop_
_symmetry_equiv_pos_site_id
_symmetry_equiv_pos_as_xyz
1 x,y,z
2 -x,1/2+y,-z
_cell_length_a                   15.5677(13)
_cell_length_b                   6.6320(6)
_cell_length_c                   17.1082(14)
_cell_angle_alpha                90
_cell_angle_beta                 116.610(3)
_cell_angle_gamma                90
_cell_volume                     1579.24
_exptl_crystal_colour            'pale brown'
_exptl_crystal_description       rod
_cell_formula_units_Z            4
_exptl_crystal_recrystallization_method dichloromethane/methanol/n-pentane
loop_
_atom_site_label
_atom_site_type_symbol
_atom_site_fract_x
_atom_site_fract_y
_atom_site_fract_z
O1 O -1.01792(13) 0.0670(3) -0.19299(12)
O2 O -1.05211(14) -0.2126(3) -0.13730(12)
O3 O -0.97692(12) -0.3700(3) -0.25988(12)
O4 O -1.09866(13) -0.6741(4) -0.37116(13)
N1 N -0.99831(14) -0.1474(4) -0.37475(13)
N2 N -0.95182(14) -0.1564(4) -0.48271(13)
N3 N -1.21644(14) -0.1542(4) -0.61897(13)
N4 N -1.17321(14) -0.1378(4) -0.46506(14)
N5 N -0.83123(14) -0.1609(5) -0.33172(13)
N6 N -0.76967(16) -0.1580(5) -0.36002(14)
N7 N -0.70743(16) -0.1572(5) -0.37662(16)
N8 N -1.10423(18) -0.1861(5) -0.67255(15)
C1 C -0.98361(18) -0.1648(5) -0.28428(16)
C2 C -1.0617(2) -0.0693(5) -0.26502(18)
C3 C -1.0375(2) -0.0032(5) -0.12350(18)
C4 C -1.0988(2) -0.2433(5) -0.22972(18)
C5 C -1.06173(19) -0.4318(5) -0.25335(19)
C6 C -0.92511(17) -0.1543(5) -0.39890(16)
C7 C -1.05180(17) -0.1534(5) -0.51760(16)
C8 C -1.12359(18) -0.1623(5) -0.60509(16)
C9 C -1.23406(19) -0.1401(5) -0.54977(17)
C10 C -1.08140(17) -0.1447(5) -0.45319(16)
C11 C -0.9498(2) 0.0346(6) -0.0385(2)
C12 C -1.1270(2) 0.0996(6) -0.1283(2)
C13 C -1.1381(2) -0.5216(5) -0.33867(19)
H1 H -1.1408(19) 0.052(5) -0.0803(19)
H2 H -1.3025(18) -0.127(5) -0.5643(16)
H3 H -1.1892(19) -0.574(4) -0.3288(17)
H4 H -1.165(2) -0.242(6) -0.255(2)
H5 H -1.041(2) -0.543(5) -0.2069(19)
H6 H -1.181(2) 0.073(5) -0.183(2)
H7 H -1.111(2) 0.006(5) -0.315(2)
H8 H -1.115(2) 0.238(6) -0.1227(19)
H9 H -0.889(2) -0.046(6) -0.036(2)
H10 H -1.1666(18) -0.409(5) -0.3864(17)
H11 H -0.935(2) 0.182(7) -0.033(2)
H12 H -0.963(2) -0.010(5) 0.004(2)
H13 H -1.146(2) -0.178(5) -0.7205(19)
H14 H -0.9226(19) -0.104(4) -0.2509(17)
H15 H -1.039(2) -0.172(6) -0.6647(18)
H16 H -1.109(2) -0.643(7) -0.423(2)
O5 O -0.40130(14) 0.0238(4) -0.27105(12)
O6 O -0.33271(14) -0.2581(4) -0.29454(13)
O7 O -0.48397(12) -0.3709(3) -0.22076(12)
O8 O -0.41303(14) -0.7230(3) -0.12082(14)
N9 N -0.45965(14) -0.1613(4) -0.10031(13)
N10 N -0.51627(14) -0.1569(4) 0.00004(14)
N11 N -0.25565(15) -0.1574(5) 0.14924(14)
N12 N -0.28729(14) -0.1588(5) -0.00189(13)
N13 N -0.62885(14) -0.1640(4) -0.15286(14)
N14 N -0.69343(15) -0.1604(5) -0.12764(14)
N15 N -0.75605(16) -0.1598(5) -0.11207(15)
N16 N -0.37357(18) -0.1641(5) 0.19639(15)
C14 C -0.46679(18) -0.1708(5) -0.18900(16)
C15 C -0.37723(19) -0.0982(5) -0.19572(18)
C16 C -0.3954(2) -0.0935(5) -0.33850(18)
C17 C -0.3316(2) -0.2881(5) -0.21140(19)
C18 C -0.3948(2) -0.4626(5) -0.20995(19)
C19 C -0.53714(17) -0.1605(5) -0.08266(16)
C20 C -0.41619(17) -0.1555(5) 0.04138(16)
C21 C -0.34962(17) -0.1584(5) 0.13050(16)
C22 C -0.23103(19) -0.1567(6) 0.08392(17)
C23 C -0.38026(17) -0.1580(5) -0.01880(15)
C24 C -0.4934(2) -0.1670(9) -0.4023(2)
C25 C -0.3477(3) 0.0330(7) -0.3818(2)
C26 C -0.3475(2) -0.5811(5) -0.1257(2)
H17 H -0.415(2) -0.552(5) -0.258(2)
H18 H -0.486(2) -0.240(6) -0.444(2)
H19 H -0.2929(19) -0.653(5) -0.1287(17)
H20 H -0.544(3) -0.037(6) -0.435(3)
H21 H -0.282(2) 0.087(5) -0.336(2)
H22 H -0.2626(19) -0.317(5) -0.1660(18)
H23 H -0.3203(18) -0.480(5) -0.0719(18)
H24 H -0.327(2) -0.155(6) 0.251(2)
H25 H -0.5232(18) -0.088(4) -0.2267(17)
H26 H -0.337(2) -0.019(5) -0.1443(19)
H27 H -0.333(3) -0.056(8) -0.429(3)
H28 H -0.521(2) -0.251(7) -0.368(2)
H29 H -0.1664(19) -0.158(5) 0.0989(17)
H30 H -0.386(2) 0.156(6) -0.407(2)
H31 H -0.434(2) -0.151(6) 0.1859(19)
H32 H -0.421(2) -0.683(6) -0.080(2)
loop_
_geom_bond_atom_site_label_1
_geom_bond_atom_site_label_2
_geom_bond_site_symmetry_1
_geom_bond_site_symmetry_2
O1 C2 1_555 1_555
O2 C3 1_555 1_555
O3 C1 1_555 1_555
O4 C13 1_555 1_555
N1 C1 1_555 1_555
N2 C6 1_555 1_555
N3 C8 1_555 1_555
N4 C9 1_555 1_555
N5 N6 1_555 1_555
N6 N7 1_555 1_555
N8 C8 1_555 1_555
C1 C2 1_555 1_555
C2 C4 1_555 1_555
C3 O1 1_555 1_555
C4 O2 1_555 1_555
C5 O3 1_555 1_555
C6 N1 1_555 1_555
C7 N2 1_555 1_555
C8 C7 1_555 1_555
C9 N3 1_555 1_555
C10 N1 1_555 1_555
C11 C3 1_555 1_555
C12 C3 1_555 1_555
C13 C5 1_555 1_555
H1 C12 1_555 1_555
H2 C9 1_555 1_555
H3 C13 1_555 1_555
H4 C4 1_555 1_555
H5 C5 1_555 1_555
H6 C12 1_555 1_555
H7 C2 1_555 1_555
H8 C12 1_555 1_555
H9 C11 1_555 1_555
H10 C13 1_555 1_555
H11 C11 1_555 1_555
H12 C11 1_555 1_555
H13 N8 1_555 1_555
H14 C1 1_555 1_555
H15 N8 1_555 1_555
H16 O4 1_555 1_555
O5 C15 1_555 1_555
O6 C16 1_555 1_555
O7 C14 1_555 1_555
O8 C26 1_555 1_555
N9 C14 1_555 1_555
N10 C19 1_555 1_555
N11 C21 1_555 1_555
N12 C22 1_555 1_555
N13 N14 1_555 1_555
N14 N15 1_555 1_555
N16 C21 1_555 1_555
C14 C15 1_555 1_555
C15 C17 1_555 1_555
C16 O5 1_555 1_555
C17 O6 1_555 1_555
C18 O7 1_555 1_555
C19 N9 1_555 1_555
C20 N10 1_555 1_555
C21 C20 1_555 1_555
C22 N11 1_555 1_555
C23 N9 1_555 1_555
C24 C16 1_555 1_555
C25 C16 1_555 1_555
C26 C18 1_555 1_555
H17 C18 1_555 1_555
H18 C24 1_555 1_555
H19 C26 1_555 1_555
H20 C24 1_555 1_555
H21 C25 1_555 1_555
H22 C17 1_555 1_555
H23 C26 1_555 1_555
H24 N16 1_555 1_555
H25 C14 1_555 1_555
H26 C15 1_555 1_555
H27 C25 1_555 1_555
H28 C24 1_555 1_555
H29 C22 1_555 1_555
H30 C25 1_555 1_555
H31 N16 1_555 1_555
H32 O8 1_555 1_555
N4 C10 1_555 1_555
N5 C6 1_555 1_555
C4 C5 1_555 1_555
C7 C10 1_555 1_555
N12 C23 1_555 1_555
N13 C19 1_555 1_555
C17 C18 1_555 1_555
C20 C23 1_555 1_555

#END
