
#######################################################################
#
#                 Cambridge Crystallographic Data Centre
#                                CCDC 
#
#######################################################################
#
# If this CIF has been generated from an entry in the Cambridge 
# Structural Database, then it will include bibliographic, chemical, 
# crystal, experimental, refinement or atomic coordinate data resulting 
# from the CCDC's data processing and validation procedures.
#
#######################################################################

data_DUTBUP
_chemical_formula_moiety         'C56 H72 O12,C2 H3 N1,1.6(H2 O1)'
_chemical_name_systematic        
'5,11,17,23-Tetra-t-butyl-25,26,27,28-tetrakis(ethoxycarboxy)calix(4)arene acetonitrile hydrate clathrate'
_symmetry_cell_setting           tetragonal
_symmetry_space_group_name_H-M   'P 4/n c c'
_symmetry_Int_Tables_number      130
_space_group_name_Hall           '-P 4a 2ac'
loop_
_symmetry_equiv_pos_site_id
_symmetry_equiv_pos_as_xyz
1 x,y,z
2 1/2-y,x,z
3 1/2-x,1/2-y,z
4 y,1/2-x,z
5 1/2+x,-y,1/2-z
6 -y,-x,1/2-z
7 -x,1/2+y,1/2-z
8 1/2+y,1/2+x,1/2-z
9 -x,-y,-z
10 1/2+y,-x,-z
11 1/2+x,1/2+y,-z
12 -y,1/2+x,-z
13 1/2-x,y,1/2+z
14 y,x,1/2+z
15 x,1/2-y,1/2+z
16 1/2-y,1/2-x,1/2+z
_cell_length_a                   14.836(5)
_cell_length_b                   14.836(5)
_cell_length_c                   26.720(8)
_cell_angle_alpha                90
_cell_angle_beta                 90
_cell_angle_gamma                90
_cell_volume                     5881.26
_exptl_crystal_colour            colorless
_cell_formula_units_Z            4
loop_
_atom_site_label
_atom_site_type_symbol
_atom_site_fract_x
_atom_site_fract_y
_atom_site_fract_z
O1 O 0.1039(3) 0.2148(3) 0.0514(1)
O2 O -0.0150(4) 0.1357(4) 0.0807(2)
O3 O 0.0880(5) 0.2010(4) 0.1311(2)
C3 C 0.0701(4) 0.2023(4) 0.0021(2)
C4 C 0.0762(4) 0.1179(4) -0.0204(2)
C5 C 0.0370(4) 0.1106(4) -0.0679(2)
C6 C -0.0048(4) 0.1845(4) -0.0918(2)
C7 C -0.0035(4) 0.2680(5) -0.0682(2)
C8 C 0.0338(4) 0.2795(4) -0.0208(2)
C9 C 0.1268(4) 0.0400(4) 0.0019(2)
C10 C -0.0512(5) 0.1716(5) -0.1427(2)
C11 C 0.0130(6) 0.1292(7) -0.1795(3)
C12 C -0.0877(7) 0.2567(7) -0.1647(2)
C13 C -0.1300(6) 0.1079(7) -0.1368(3)
C14 C 0.0507(6) 0.1794(5) 0.0876(2)
C15 C 0.0403(9) 0.1620(7) 0.1771(3)
C16 C 0.0696(11) 0.1696(10) 0.2139(3)
H1 H 0.0382 0.0449 -0.0888
H2 H -0.0323 0.3266 -0.0886
H3 H 0.0912 -0.0242 -0.0035
H4 H 0.1332 0.0489 0.0429
H5 H 0.0412 0.0626 -0.1655
H6 H 0.0758 0.1711 -0.1849
H7 H -0.0133 0.1163 -0.2162
H8 H -0.0328 0.3039 -0.1729
H9 H -0.1344 0.2884 -0.1393
H10 H -0.1233 0.2435 -0.2000
H11 H -0.1738 0.1341 -0.1084
H12 H -0.0991 0.0427 -0.1230
H13 H -0.1658 0.0945 -0.1710
H14 H 0.0035 0.0917 0.1699
H15 H -0.0361 0.2017 0.1817
C9C C 0.0400(4) 0.3732(4) 0.0019(2)
C8A C 0.2205(4) 0.0338(4) -0.0208(2)
C4C C 0.1179(4) 0.4238(4) -0.0204(2)
H3C H -0.0242 0.4088 -0.0035
H4C H 0.0489 0.3668 0.0429
C3A C 0.2977(4) 0.0701(4) 0.0021(2)
C7A C 0.2320(5) -0.0035(4) -0.0682(2)
C3C C 0.2023(4) 0.4299(4) 0.0021(2)
C5C C 0.1106(4) 0.4630(4) -0.0679(2)
O1A O 0.2852(3) 0.1039(3) 0.0514(1)
C4A C 0.3821(4) 0.0762(4) -0.0204(2)
C6A C 0.3155(4) -0.0048(4) -0.0918(2)
H2A H 0.1734 -0.0323 -0.0886
O1C O 0.2148(3) 0.3961(3) 0.0514(1)
C8C C 0.2795(4) 0.4662(4) -0.0208(2)
C6C C 0.1845(4) 0.5048(4) -0.0918(2)
H1C H 0.0449 0.4618 -0.0888
C14A C 0.3206(5) 0.0507(6) 0.0876(2)
C5A C 0.3894(4) 0.0370(4) -0.0679(2)
C9A C 0.4600(4) 0.1268(4) 0.0019(2)
C10A C 0.3284(5) -0.0512(5) -0.1427(2)
C14C C 0.1794(5) 0.4493(6) 0.0876(2)
C7C C 0.2680(5) 0.5035(4) -0.0682(2)
C9B C 0.3732(4) 0.4600(4) 0.0019(2)
C10C C 0.1716(5) 0.5512(5) -0.1427(2)
O2A O 0.3643(4) -0.0150(4) 0.0807(2)
O3A O 0.2990(4) 0.0880(5) 0.1311(2)
H1A H 0.4551 0.0382 -0.0888
C8B C 0.4662(4) 0.2205(4) -0.0208(2)
H3A H 0.5242 0.0912 -0.0035
H4A H 0.4511 0.1332 0.0429
C11A C 0.3708(7) 0.0130(6) -0.1795(3)
C12A C 0.2433(7) -0.0877(7) -0.1647(2)
C13A C 0.3921(7) -0.1300(6) -0.1368(3)
O2C O 0.1357(4) 0.5150(4) 0.0807(2)
O3C O 0.2010(4) 0.4120(5) 0.1311(2)
H2C H 0.3266 0.5323 -0.0886
C4B C 0.4238(4) 0.3821(4) -0.0204(2)
H3B H 0.4088 0.5242 -0.0035
H4B H 0.3668 0.4511 0.0429
C11C C 0.1292(7) 0.4870(6) -0.1795(3)
C12C C 0.2567(7) 0.5877(7) -0.1647(2)
C13C C 0.1079(7) 0.6300(6) -0.1368(3)
C15A C 0.3380(7) 0.0403(9) 0.1771(3)
C3B C 0.4299(4) 0.2977(4) 0.0021(2)
C7B C 0.5035(4) 0.2320(5) -0.0682(2)
H5A H 0.4374 0.0412 -0.1655
H6A H 0.3289 0.0758 -0.1849
H7A H 0.3837 -0.0133 -0.2162
H8A H 0.1961 -0.0328 -0.1729
H9A H 0.2116 -0.1344 -0.1393
H10A H 0.2565 -0.1233 -0.2000
H11A H 0.3659 -0.1738 -0.1084
H12A H 0.4573 -0.0991 -0.1230
H13A H 0.4055 -0.1658 -0.1710
C15C C 0.1620(7) 0.4597(9) 0.1771(3)
C5B C 0.4630(4) 0.3894(4) -0.0679(2)
H5C H 0.0626 0.4588 -0.1655
H6C H 0.1711 0.4242 -0.1849
H7C H 0.1163 0.5133 -0.2162
H8C H 0.3039 0.5328 -0.1729
H9C H 0.2884 0.6344 -0.1393
H10C H 0.2435 0.6233 -0.2000
H11C H 0.1341 0.6738 -0.1084
H12C H 0.0427 0.5991 -0.1230
H13C H 0.0945 0.6658 -0.1710
C16A C 0.3304(10) 0.0696(11) 0.2139(3)
H14A H 0.4083 0.0035 0.1699
H15A H 0.2983 -0.0361 0.1817
O1B O 0.3961(3) 0.2852(3) 0.0514(1)
C6B C 0.5048(4) 0.3155(4) -0.0918(2)
H2B H 0.5323 0.1734 -0.0886
C16C C 0.1696(10) 0.4304(11) 0.2139(3)
H14C H 0.0917 0.4965 0.1699
H15C H 0.2017 0.5361 0.1817
H1B H 0.4618 0.4551 -0.0888
C14B C 0.4493(6) 0.3206(5) 0.0876(2)
C10B C 0.5512(5) 0.3284(5) -0.1427(2)
O2B O 0.5150(4) 0.3643(4) 0.0807(2)
O3B O 0.4120(5) 0.2990(4) 0.1311(2)
C11B C 0.4870(6) 0.3708(7) -0.1795(3)
C12B C 0.5877(7) 0.2433(7) -0.1647(2)
C13B C 0.6300(6) 0.3921(7) -0.1368(3)
C15B C 0.4597(9) 0.3380(7) 0.1771(3)
H5B H 0.4588 0.4374 -0.1655
H6B H 0.4242 0.3289 -0.1849
H7B H 0.5133 0.3837 -0.2162
H8B H 0.5328 0.1961 -0.1729
H9B H 0.6344 0.2116 -0.1393
H10B H 0.6233 0.2565 -0.2000
H11B H 0.6738 0.3659 -0.1084
H12B H 0.5991 0.4573 -0.1230
H13B H 0.6658 0.4055 -0.1710
C16B C 0.4304(11) 0.3304(10) 0.2139(3)
H14B H 0.4965 0.4083 0.1699
H15B H 0.5361 0.2983 0.1817
C1 C 0.2500 0.2500 -0.0955(4)
C2 C 0.2500 0.2500 -0.1467(7)
N1 N 0.2500 0.2500 -0.1921(6)
loop_
_geom_bond_atom_site_label_1
_geom_bond_atom_site_label_2
_geom_bond_site_symmetry_1
_geom_bond_site_symmetry_2
C1 C2 1_555 1_555
C2 N1 1_555 1_555
O1 C3 1_555 1_555
O2 C14 1_555 1_555
O3 C14 1_555 1_555
C3 C4 1_555 1_555
C4 C5 1_555 1_555
C5 C6 1_555 1_555
C6 C7 1_555 1_555
C7 C8 1_555 1_555
C8 C3 1_555 1_555
C9 C4 1_555 1_555
C10 C6 1_555 1_555
C11 C10 1_555 1_555
C12 C10 1_555 1_555
C13 C10 1_555 1_555
C14 O1 1_555 1_555
C15 O3 1_555 1_555
C16 C15 1_555 1_555
H1 C5 1_555 1_555
H2 C7 1_555 1_555
H3 C9 1_555 1_555
H4 C9 1_555 1_555
H5 C11 1_555 1_555
H6 C11 1_555 1_555
H7 C11 1_555 1_555
H8 C12 1_555 1_555
H9 C12 1_555 1_555
H10 C12 1_555 1_555
H11 C13 1_555 1_555
H12 C13 1_555 1_555
H13 C13 1_555 1_555
H14 C15 1_555 1_555
H15 C15 1_555 1_555
C9C C8 1_555 1_555
C8A C9 1_555 1_555
C4C C9C 1_555 1_555
H3C C9C 1_555 1_555
H4C C9C 1_555 1_555
C3A C8A 1_555 1_555
C7A C8A 1_555 1_555
C3C C4C 1_555 1_555
C5C C4C 1_555 1_555
O1A C3A 1_555 1_555
C4A C3A 1_555 1_555
C6A C7A 1_555 1_555
H2A C7A 1_555 1_555
O1C C3C 1_555 1_555
C8C C3C 1_555 1_555
C6C C5C 1_555 1_555
H1C C5C 1_555 1_555
C14A O1A 1_555 1_555
C5A C4A 1_555 1_555
C9A C4A 1_555 1_555
C10A C6A 1_555 1_555
C14C O1C 1_555 1_555
C7C C8C 1_555 1_555
C9B C8C 1_555 1_555
C10C C6C 1_555 1_555
O2A C14A 1_555 1_555
O3A C14A 1_555 1_555
H1A C5A 1_555 1_555
C8B C9A 1_555 1_555
H3A C9A 1_555 1_555
H4A C9A 1_555 1_555
C11A C10A 1_555 1_555
C12A C10A 1_555 1_555
C13A C10A 1_555 1_555
O2C C14C 1_555 1_555
O3C C14C 1_555 1_555
H2C C7C 1_555 1_555
C4B C9B 1_555 1_555
H3B C9B 1_555 1_555
H4B C9B 1_555 1_555
C11C C10C 1_555 1_555
C12C C10C 1_555 1_555
C13C C10C 1_555 1_555
C15A O3A 1_555 1_555
C3B C8B 1_555 1_555
C7B C8B 1_555 1_555
H5A C11A 1_555 1_555
H6A C11A 1_555 1_555
H7A C11A 1_555 1_555
H8A C12A 1_555 1_555
H9A C12A 1_555 1_555
H10A C12A 1_555 1_555
H11A C13A 1_555 1_555
H12A C13A 1_555 1_555
H13A C13A 1_555 1_555
C15C O3C 1_555 1_555
C5B C4B 1_555 1_555
H5C C11C 1_555 1_555
H6C C11C 1_555 1_555
H7C C11C 1_555 1_555
H8C C12C 1_555 1_555
H9C C12C 1_555 1_555
H10C C12C 1_555 1_555
H11C C13C 1_555 1_555
H12C C13C 1_555 1_555
H13C C13C 1_555 1_555
C16A C15A 1_555 1_555
H14A C15A 1_555 1_555
H15A C15A 1_555 1_555
O1B C3B 1_555 1_555
C6B C7B 1_555 1_555
H2B C7B 1_555 1_555
C16C C15C 1_555 1_555
H14C C15C 1_555 1_555
H15C C15C 1_555 1_555
H1B C5B 1_555 1_555
C14B O1B 1_555 1_555
C10B C6B 1_555 1_555
O2B C14B 1_555 1_555
O3B C14B 1_555 1_555
C11B C10B 1_555 1_555
C12B C10B 1_555 1_555
C13B C10B 1_555 1_555
C15B O3B 1_555 1_555
H5B C11B 1_555 1_555
H6B C11B 1_555 1_555
H7B C11B 1_555 1_555
H8B C12B 1_555 1_555
H9B C12B 1_555 1_555
H10B C12B 1_555 1_555
H11B C13B 1_555 1_555
H12B C13B 1_555 1_555
H13B C13B 1_555 1_555
C16B C15B 1_555 1_555
H14B C15B 1_555 1_555
H15B C15B 1_555 1_555
C6A C5A 1_555 1_555
C6C C7C 1_555 1_555
C4B C3B 1_555 1_555
C5B C6B 1_555 1_555

#END
