
#######################################################################
#
#                 Cambridge Crystallographic Data Centre
#                                CCDC 
#
#######################################################################
#
# If this CIF has been generated from an entry in the Cambridge 
# Structural Database, then it will include bibliographic, chemical, 
# crystal, experimental, refinement or atomic coordinate data resulting 
# from the CCDC's data processing and validation procedures.
#
#######################################################################

data_DUTBUQ
_chemical_formula_moiety         'C18 H18 N4 O6'
_chemical_name_systematic        
"Benzyl N-((1S)-2-hydroxy-1-[N'-(2-nitrobenzylidene)hydrazinylcarbonyl]ethyl)carbamate"
_symmetry_cell_setting           triclinic
_symmetry_space_group_name_H-M   'P 1'
_symmetry_Int_Tables_number      1
_space_group_name_Hall           'P 1'
loop_
_symmetry_equiv_pos_site_id
_symmetry_equiv_pos_as_xyz
1 x,y,z
_cell_length_a                   4.6675(7)
_cell_length_b                   5.7001(7)
_cell_length_c                   16.645(3)
_cell_angle_alpha                90.457(9)
_cell_angle_beta                 92.087(7)
_cell_angle_gamma                97.319(9)
_cell_volume                     438.909
_exptl_crystal_colour            colorless
_exptl_crystal_description       plate
_chemical_melting_point          '428-429 K'
_cell_formula_units_Z            1
_exptl_crystal_recrystallization_method methanol
loop_
_atom_site_label
_atom_site_type_symbol
_atom_site_fract_x
_atom_site_fract_y
_atom_site_fract_z
O1 O 0.2947(12) 0.8892(10) 0.3007(4)
O2 O -0.0905(13) 0.6386(10) 0.2534(4)
O3 O -0.4518(12) 1.3215(11) 0.1633(4)
H1 H -0.350(19) 1.374(18) 0.204(4)
O4 O 0.1745(14) 0.8327(12) 0.0625(4)
O5 O -0.6765(15) 0.6119(12) -0.2286(4)
O6 O -0.6271(16) 0.4575(13) -0.3452(4)
N1 N 0.0112(16) 1.0119(13) 0.2030(5)
H2 H 0.156(13) 1.122(12) 0.195(6)
N2 N -0.2884(15) 0.7320(14) 0.0165(5)
H3 H -0.469(7) 0.718(17) 0.031(5)
N3 N -0.1965(16) 0.5952(12) -0.0441(5)
N4 N -0.5754(16) 0.4722(12) -0.2727(5)
C1 C 0.0588(17) 0.8301(16) 0.2530(5)
C2 C -0.2011(19) 0.9716(15) 0.1386(5)
H4 H -0.3785 0.8760 0.1585
C3 C -0.278(2) 1.2117(16) 0.1085(5)
H5 H -0.0978 1.3188 0.1004
H6 H -0.3842 1.1877 0.0559
C4 C -0.0811(19) 0.8361(14) 0.0693(5)
C5 C -0.398(2) 0.4987(15) -0.0938(5)
H7 H -0.5928 0.5308 -0.0921
C6 C -0.3011(19) 0.3339(14) -0.1536(6)
C7 C -0.3789(19) 0.3147(14) -0.2349(6)
C8 C -0.2776(19) 0.1553(16) -0.2870(6)
H8 H -0.3347 0.1492 -0.3424
C9 C -0.092(2) 0.0061(16) -0.2560(6)
H9 H -0.0215 -0.1062 -0.2902
C10 C -0.006(2) 0.0190(16) -0.1754(6)
H10 H 0.1263 -0.0809 -0.1548
C11 C -0.1140(18) 0.1766(14) -0.1252(5)
H11 H -0.0600 0.1790 -0.0696
C12 C 0.347(2) 0.7141(16) 0.3589(6)
H12 H 0.4009 0.5724 0.3313
H13 H 0.1691 0.6662 0.3884
C13 C 0.5886(19) 0.8140(16) 0.4173(6)
C14 C 0.737(2) 1.0378(16) 0.4112(6)
H14 H 0.6857 1.1380 0.3691
C15 C 0.958(2) 1.1178(18) 0.4651(6)
H15 H 1.0609 1.2714 0.4596
C16 C 1.031(2) 0.9758(18) 0.5270(6)
H16 H 1.1847 1.0311 0.5642
C17 C 0.881(2) 0.7527(18) 0.5351(6)
H17 H 0.9294 0.6546 0.5781
C18 C 0.659(2) 0.6729(16) 0.4798(6)
H18 H 0.5543 0.5199 0.4853
loop_
_geom_bond_atom_site_label_1
_geom_bond_atom_site_label_2
_geom_bond_site_symmetry_1
_geom_bond_site_symmetry_2
O1 C1 1_555 1_555
O2 C1 1_555 1_555
O3 H1 1_555 1_555
O4 C4 1_555 1_555
O5 N4 1_555 1_555
O6 N4 1_555 1_555
N1 H2 1_555 1_555
N2 H3 1_555 1_555
N3 N2 1_555 1_555
N4 C7 1_555 1_555
C1 N1 1_555 1_555
C2 N1 1_555 1_555
H4 C2 1_555 1_555
C3 O3 1_555 1_555
H5 C3 1_555 1_555
H6 C3 1_555 1_555
C4 N2 1_555 1_555
C5 N3 1_555 1_555
H7 C5 1_555 1_555
C6 C5 1_555 1_555
C7 C6 1_555 1_555
C8 C7 1_555 1_555
H8 C8 1_555 1_555
C9 C8 1_555 1_555
H9 C9 1_555 1_555
C10 C9 1_555 1_555
H10 C10 1_555 1_555
C11 C6 1_555 1_555
H11 C11 1_555 1_555
C12 O1 1_555 1_555
H12 C12 1_555 1_555
H13 C12 1_555 1_555
C13 C12 1_555 1_555
C14 C13 1_555 1_555
H14 C14 1_555 1_555
C15 C14 1_555 1_555
H15 C15 1_555 1_555
C16 C15 1_555 1_555
H16 C16 1_555 1_555
C17 C16 1_555 1_555
H17 C17 1_555 1_555
C18 C13 1_555 1_555
H18 C18 1_555 1_555
C2 C3 1_555 1_555
C2 C4 1_555 1_555
C10 C11 1_555 1_555
C17 C18 1_555 1_555

#END
