
#######################################################################
#
#                 Cambridge Crystallographic Data Centre
#                                CCDC 
#
#######################################################################
#
# If this CIF has been generated from an entry in the Cambridge 
# Structural Database, then it will include bibliographic, chemical, 
# crystal, experimental, refinement or atomic coordinate data resulting 
# from the CCDC's data processing and validation procedures.
#
#######################################################################

data_DUTCIF
_chemical_formula_moiety         'C11 H12 N2 O4'
_chemical_name_systematic        
3-(Hydroxymethyl)-1-(4-methoxyphenyl)imidazolidine-2,4-dione
_chemical_properties_biological  'anti-diabetic activity'
_symmetry_cell_setting           monoclinic
_symmetry_space_group_name_H-M   'P 21/c'
_symmetry_Int_Tables_number      14
_space_group_name_Hall           '-P 2ybc'
loop_
_symmetry_equiv_pos_site_id
_symmetry_equiv_pos_as_xyz
1 x,y,z
2 -x,1/2+y,1/2-z
3 -x,-y,-z
4 x,1/2-y,1/2+z
_cell_length_a                   21.280(4)
_cell_length_b                   6.3309(13)
_cell_length_c                   7.8813(16)
_cell_angle_alpha                90
_cell_angle_beta                 100.52(3)
_cell_angle_gamma                90
_cell_volume                     1043.93
_exptl_crystal_colour            colorless
_exptl_crystal_description       platelet
_cell_formula_units_Z            4
_exptl_crystal_recrystallization_method dichloromethane/methanol
loop_
_atom_site_label
_atom_site_type_symbol
_atom_site_fract_x
_atom_site_fract_y
_atom_site_fract_z
O1 O 0.06206(5) 0.43299(18) 0.14946(13)
O2 O 0.31479(5) 0.92240(17) 0.56402(13)
O3 O 0.41891(6) 0.98695(18) 0.93286(14)
H1 H 0.4247 1.1116 0.9119
O4 O 0.43355(5) 0.41010(18) 0.88227(13)
N1 N 0.29378(6) 0.5666(2) 0.60155(15)
N2 N 0.38408(6) 0.7058(2) 0.74760(15)
C1 C 0.02888(8) 0.2377(3) 0.1525(2)
H2 H 0.0536 0.1259 0.1151
H3 H -0.0118 0.2463 0.0767
H4 H 0.0225 0.2095 0.2679
C2 C 0.11895(7) 0.4547(3) 0.26381(19)
C3 C 0.14827(7) 0.6511(3) 0.26585(19)
H5 H 0.1292 0.7568 0.1921
C4 C 0.20547(7) 0.6918(3) 0.37598(19)
H6 H 0.2243 0.8244 0.3768
C5 C 0.23490(7) 0.5332(3) 0.48603(18)
C6 C 0.20577(7) 0.3369(3) 0.48223(18)
H7 H 0.2252 0.2302 0.5544
C7 C 0.14802(7) 0.2966(3) 0.3726(2)
H8 H 0.1290 0.1644 0.3722
C8 C 0.32780(7) 0.7496(2) 0.62781(19)
C9 C 0.38857(7) 0.4969(3) 0.78904(18)
C10 C 0.32821(7) 0.3927(3) 0.69862(18)
H9 H 0.3374 0.2813 0.6222
H10 H 0.3041 0.3342 0.7807
C11 C 0.43450(7) 0.8604(3) 0.79990(19)
H11 H 0.4748 0.7887 0.8400
H12 H 0.4392 0.9482 0.7021
loop_
_geom_bond_atom_site_label_1
_geom_bond_atom_site_label_2
_geom_bond_site_symmetry_1
_geom_bond_site_symmetry_2
O1 C1 1_555 1_555
O2 C8 1_555 1_555
O3 H1 1_555 1_555
O4 C9 1_555 1_555
N1 C5 1_555 1_555
N2 C8 1_555 1_555
C1 H2 1_555 1_555
H3 C1 1_555 1_555
H4 C1 1_555 1_555
C2 O1 1_555 1_555
C3 C2 1_555 1_555
H5 C3 1_555 1_555
C4 C3 1_555 1_555
H6 C4 1_555 1_555
C5 C4 1_555 1_555
C6 C5 1_555 1_555
H7 C6 1_555 1_555
C7 C2 1_555 1_555
H8 C7 1_555 1_555
C8 N1 1_555 1_555
C9 N2 1_555 1_555
C10 N1 1_555 1_555
H9 C10 1_555 1_555
H10 C10 1_555 1_555
C11 O3 1_555 1_555
H11 C11 1_555 1_555
H12 C11 1_555 1_555
N2 C11 1_555 1_555
C6 C7 1_555 1_555
C9 C10 1_555 1_555

#END
