
#######################################################################
#
#                 Cambridge Crystallographic Data Centre
#                                CCDC 
#
#######################################################################
#
# If this CIF has been generated from an entry in the Cambridge 
# Structural Database, then it will include bibliographic, chemical, 
# crystal, experimental, refinement or atomic coordinate data resulting 
# from the CCDC's data processing and validation procedures.
#
#######################################################################

data_DUTFIH
_chemical_compound_source        'Elephantopus carolinianus'
_chemical_formula_moiety         'C21 H27 N1 O6'
_chemical_name_systematic        \a-Dimethylamino-isodeoxy-elephantopin
_chemical_properties_biological  
'cytotoxic activity towards KB tissue culture cells'
_symmetry_cell_setting           orthorhombic
_symmetry_space_group_name_H-M   'P 21 21 21'
_symmetry_Int_Tables_number      19
_space_group_name_Hall           'P 2ac 2ab'
loop_
_symmetry_equiv_pos_site_id
_symmetry_equiv_pos_as_xyz
1 x,y,z
2 1/2+x,1/2-y,-z
3 -x,1/2+y,1/2-z
4 1/2-x,-y,1/2+z
_cell_length_a                   15.528(4)
_cell_length_b                   17.712(3)
_cell_length_c                   7.226(1)
_cell_angle_alpha                90
_cell_angle_beta                 90
_cell_angle_gamma                90
_cell_volume                     1987.38
_exptl_crystal_colour            colorless
_chemical_melting_point          206-207deg.C
_cell_formula_units_Z            4
loop_
_atom_site_label
_atom_site_type_symbol
_atom_site_fract_x
_atom_site_fract_y
_atom_site_fract_z
C1 C 0.2988(3) 0.0533(3) -0.2605(6)
C2 C 0.3745(3) 0.0380(3) -0.3816(6)
C3 C 0.4585(3) 0.0261(3) -0.2693(6)
C4 C 0.4600(3) 0.0736(2) -0.0954(6)
C5 C 0.4648(3) 0.1485(2) -0.1079(6)
C6 C 0.4390(3) 0.2038(2) 0.0372(6)
C7 C 0.3535(3) 0.2429(2) -0.0076(6)
C8 C 0.2737(3) 0.1931(2) 0.0309(5)
C9 C 0.2221(3) 0.1730(2) -0.1457(6)
C10 C 0.2773(3) 0.1253(2) -0.2714(5)
C11 C 0.3639(3) 0.3160(2) 0.1006(6)
C12 C 0.4590(3) 0.3312(2) 0.0785(6)
C13 C 0.3047(4) 0.3824(2) 0.0545(7)
C14 C 0.4441(4) 0.0305(3) 0.0817(7)
C15 C 0.3291(3) 0.1598(3) -0.4227(5)
C16 C 0.1693(3) 0.1900(2) 0.2714(6)
C17 C 0.1154(3) 0.2360(3) 0.3987(6)
C18 C 0.0483(4) 0.2012(3) 0.4787(8)
C19 C 0.1366(4) 0.3148(3) 0.4276(8)
O1 O 0.3830(2) 0.1066(2) -0.4895(4)
O2 O 0.3281(2) 0.2225(2) -0.4830(4)
O3 O 0.5009(2) 0.2664(2) 0.0421(4)
O4 O 0.4966(2) 0.3903(2) 0.0935(5)
O5 O 0.2171(2) 0.2327(2) 0.1564(4)
O6 O 0.1724(2) 0.1226(2) 0.2729(5)
N1 N 0.2748(3) 0.3829(2) -0.1377(6)
C20 C 0.3404(5) 0.4085(4) -0.2653(9)
C21 C 0.1979(5) 0.4287(4) -0.1562(10)
H1 H 0.269 0.015 -0.183
H2 H 0.365 -0.011 -0.460
H3 H 0.511 0.041 -0.352
H4 H 0.463 -0.031 -0.232
H5 H 0.488 0.170 -0.226
H6 H 0.435 0.173 0.161
H7 H 0.341 0.254 -0.148
H8 H 0.296 0.142 0.088
H9 H 0.205 0.223 -0.215
H10 H 0.167 0.143 -0.109
H11 H 0.343 0.310 0.238
H12 H 0.338 0.433 0.080
H13 H 0.251 0.380 0.142
H14 H 0.446 0.068 0.194
H15 H 0.383 0.005 0.076
H16 H 0.492 -0.011 0.097
H17 H 0.010 0.230 0.566
H18 H 0.037 0.147 0.452
H19 H 0.092 0.338 0.521
H20 H 0.199 0.319 0.483
H21 H 0.134 0.344 0.301
H22 H 0.316 0.408 -0.401
H23 H 0.359 0.464 -0.231
H24 H 0.394 0.373 -0.257
H25 H 0.177 0.428 -0.295
H26 H 0.149 0.406 -0.072
H27 H 0.211 0.484 -0.115
loop_
_geom_bond_atom_site_label_1
_geom_bond_atom_site_label_2
_geom_bond_site_symmetry_1
_geom_bond_site_symmetry_2
C1 C2 1_555 1_555
C2 C3 1_555 1_555
C3 C4 1_555 1_555
C4 C5 1_555 1_555
C5 C6 1_555 1_555
C6 C7 1_555 1_555
C7 C8 1_555 1_555
C8 C9 1_555 1_555
C9 C10 1_555 1_555
C10 C1 1_555 1_555
C11 C7 1_555 1_555
C12 C11 1_555 1_555
C13 C11 1_555 1_555
C14 C4 1_555 1_555
C15 C10 1_555 1_555
C16 C17 1_555 1_555
C17 C18 1_555 1_555
C18 H17 1_555 1_555
C19 C17 1_555 1_555
O1 C2 1_555 1_555
O2 C15 1_555 1_555
O3 C6 1_555 1_555
O4 C12 1_555 1_555
O5 C8 1_555 1_555
O6 C16 1_555 1_555
N1 C13 1_555 1_555
C20 N1 1_555 1_555
C21 N1 1_555 1_555
H1 C1 1_555 1_555
H2 C2 1_555 1_555
H3 C3 1_555 1_555
H4 C3 1_555 1_555
H5 C5 1_555 1_555
H6 C6 1_555 1_555
H7 C7 1_555 1_555
H8 C8 1_555 1_555
H9 C9 1_555 1_555
H10 C9 1_555 1_555
H11 C11 1_555 1_555
H12 C13 1_555 1_555
H13 C13 1_555 1_555
H14 C14 1_555 1_555
H15 C14 1_555 1_555
H16 C14 1_555 1_555
H18 C18 1_555 1_555
H19 C19 1_555 1_555
H20 C19 1_555 1_555
H21 C19 1_555 1_555
H22 C20 1_555 1_555
H23 C20 1_555 1_555
H24 C20 1_555 1_555
H25 C21 1_555 1_555
H26 C21 1_555 1_555
H27 C21 1_555 1_555
C12 O3 1_555 1_555
C15 O1 1_555 1_555
C16 O5 1_555 1_555

#END
