
#######################################################################
#
#                 Cambridge Crystallographic Data Centre
#                                CCDC 
#
#######################################################################
#
# If this CIF has been generated from an entry in the Cambridge 
# Structural Database, then it will include bibliographic, chemical, 
# crystal, experimental, refinement or atomic coordinate data resulting 
# from the CCDC's data processing and validation procedures.
#
#######################################################################

data_DUTGAB
_chemical_formula_moiety         'C18 H16 N2 O1'
_chemical_name_systematic        N-(2-(4-Methylquinolin-2-yl)phenyl)acetamide
_symmetry_cell_setting           triclinic
_symmetry_space_group_name_H-M   'P 1'
_symmetry_Int_Tables_number      1
_space_group_name_Hall           'P 1'
loop_
_symmetry_equiv_pos_site_id
_symmetry_equiv_pos_as_xyz
1 x,y,z
_cell_length_a                   9.7383(5)
_cell_length_b                   9.9035(6)
_cell_length_c                   15.2809(9)
_cell_angle_alpha                101.414(5)
_cell_angle_beta                 99.188(5)
_cell_angle_gamma                90.065(5)
_cell_volume                     1425.24
_exptl_crystal_colour            colorless
_exptl_crystal_description       block
_cell_formula_units_Z            4
_exptl_crystal_recrystallization_method ethanol
loop_
_atom_site_label
_atom_site_type_symbol
_atom_site_fract_x
_atom_site_fract_y
_atom_site_fract_z
O1 O 0.5433(4) 0.3283(5) -0.0893(3)
N1 N 0.9301(5) 0.0670(5) 0.0014(3)
N2 N 0.7568(5) 0.2789(5) -0.0233(3)
C1 C 0.8509(5) 0.0467(6) 0.0608(4)
C2 C 0.8302(6) -0.0875(6) 0.0787(4)
C3 C 0.8889(5) -0.2001(6) 0.0339(4)
C4 C 0.9720(5) -0.1799(6) -0.0317(4)
C5 C 1.0340(6) -0.2906(7) -0.0856(4)
C6 C 1.1092(7) -0.2636(7) -0.1487(4)
C7 C 1.1259(7) -0.1275(7) -0.1600(4)
C8 C 1.0672(6) -0.0231(7) -0.1108(4)
C9 C 0.9890(5) -0.0465(6) -0.0459(4)
C10 C 0.8644(7) -0.3407(7) 0.0521(5)
C11 C 0.7762(6) 0.1633(5) 0.1048(4)
C12 C 0.7446(7) 0.1650(6) 0.1914(4)
C13 C 0.6635(7) 0.2636(8) 0.2323(4)
C14 C 0.6128(7) 0.3667(7) 0.1878(4)
C15 C 0.6434(6) 0.3709(6) 0.1040(4)
C16 C 0.7258(5) 0.2726(6) 0.0623(4)
C17 C 0.6659(6) 0.3079(6) -0.0933(4)
C18 C 0.7213(6) 0.3083(8) -0.1781(4)
H1 H 0.77570 -0.09830 0.12170
H2 H 0.84080 0.26300 -0.03210
H3 H 1.02300 -0.38050 -0.07780
H4 H 1.14940 -0.33520 -0.18410
H5 H 1.17860 -0.10960 -0.20240
H6 H 1.07860 0.06600 -0.11990
H7 H 0.93300 -0.35620 0.10140
H8 H 0.87120 -0.40900 -0.00100
H9 H 0.77320 -0.34690 0.06770
H10 H 0.77970 0.09710 0.22210
H11 H 0.64290 0.26120 0.28930
H12 H 0.55760 0.43360 0.21500
H13 H 0.60850 0.44050 0.07480
H14 H 0.64540 0.30660 -0.22690
H15 H 0.77600 0.22850 -0.19150
H16 H 0.77850 0.39000 -0.17100
O2 O 0.2107(4) 0.0456(6) 0.5805(3)
N3 N 0.5519(5) 0.3067(5) 0.4898(3)
N4 N 0.3917(5) 0.0960(5) 0.5163(3)
C19 C 0.4453(6) 0.3265(6) 0.4306(4)
C20 C 0.4127(6) 0.4601(6) 0.4125(4)
C21 C 0.4952(6) 0.5736(6) 0.4563(4)
C22 C 0.6121(5) 0.5530(6) 0.5222(4)
C23 C 0.7021(7) 0.6627(7) 0.5749(4)
C24 C 0.8104(7) 0.6361(7) 0.6365(4)
C25 C 0.8316(6) 0.5019(7) 0.6502(4)
C26 C 0.7462(6) 0.3954(7) 0.6017(4)
C27 C 0.6368(6) 0.4191(5) 0.5363(4)
C28 C 0.4617(7) 0.7137(6) 0.4391(5)
C29 C 0.3475(6) 0.2082(6) 0.3856(4)
C30 C 0.2745(7) 0.2048(7) 0.2995(4)
C31 C 0.1718(7) 0.1061(8) 0.2583(5)
C32 C 0.1437(7) 0.0043(7) 0.3041(5)
C33 C 0.2144(6) 0.0003(6) 0.3879(4)
C34 C 0.3185(5) 0.1019(6) 0.4296(4)
C35 C 0.3340(6) 0.0675(6) 0.5860(4)
C36 C 0.4340(6) 0.0684(8) 0.6700(4)
H17 H 0.48020 0.11190 0.52570
H18 H 0.33480 0.47020 0.37070
H19 H 0.68700 0.75260 0.56720
H20 H 0.87060 0.70770 0.66970
H21 H 0.90530 0.48520 0.69310
H22 H 0.76060 0.30680 0.61210
H23 H 0.37030 0.71110 0.40410
H24 H 0.52860 0.74310 0.40630
H25 H 0.46460 0.77720 0.49570
H26 H 0.29560 0.27170 0.26820
H27 H 0.12250 0.10780 0.20120
H28 H 0.07490 -0.06290 0.27700
H29 H 0.19410 -0.06910 0.41740
H30 H 0.41260 0.14110 0.71710
H31 H 0.52680 0.08330 0.65930
H32 H 0.42730 -0.01850 0.68810
O3 O 0.7086(4) 1.0413(5) 0.5781(3)
N5 N 1.0455(4) 0.7212(5) 0.4866(3)
N6 N 0.8859(5) 0.9444(5) 0.5108(3)
C37 C 0.9378(5) 0.6617(6) 0.4268(3)
C38 C 0.9110(6) 0.5172(6) 0.4096(4)
C39 C 0.9949(6) 0.4330(6) 0.4534(4)
C40 C 1.1085(6) 0.4948(6) 0.5202(4)
C41 C 1.1998(7) 0.4191(7) 0.5722(4)
C42 C 1.3077(7) 0.4881(8) 0.6362(5)
C43 C 1.3243(6) 0.6285(8) 0.6493(4)
C44 C 1.2377(6) 0.7027(7) 0.5996(4)
C45 C 1.1293(5) 0.6383(6) 0.5340(4)
C46 C 0.9622(7) 0.2814(7) 0.4362(5)
C47 C 0.8399(6) 0.7511(6) 0.3819(4)
C48 C 0.7663(7) 0.7020(7) 0.2959(4)
C49 C 0.6643(7) 0.7741(8) 0.2551(4)
C50 C 0.6357(6) 0.9044(7) 0.2999(5)
C51 C 0.7087(6) 0.9602(7) 0.3832(4)
C52 C 0.8113(5) 0.8866(6) 0.4248(4)
C53 C 0.8323(6) 1.0137(6) 0.5815(4)
C54 C 0.9305(7) 1.0539(8) 0.6673(4)
H33 H 0.97440 0.93430 0.51890
H34 H 0.83430 0.47900 0.36750
H35 H 1.18780 0.32400 0.56370
H36 H 1.36880 0.43880 0.67010
H37 H 1.39590 0.67370 0.69300
H38 H 1.25110 0.79790 0.60960
H39 H 0.88630 0.25780 0.38680
H40 H 0.93660 0.25760 0.48950
H41 H 1.04260 0.23170 0.42120
H42 H 0.78730 0.61610 0.26460
H43 H 0.61470 0.73650 0.19830
H44 H 0.56610 0.95420 0.27290
H45 H 0.68940 1.04830 0.41210
H46 H 0.91000 1.14440 0.69750
H47 H 1.02400 1.05440 0.65470
H48 H 0.92150 0.98920 0.70530
O4 O 0.0423(4) 0.3327(6) -0.0889(3)
N7 N 0.4267(5) 0.6515(5) 0.0017(3)
N8 N 0.2536(5) 0.4286(5) -0.0231(3)
C55 C 0.3477(6) 0.7108(6) 0.0610(3)
C56 C 0.3282(6) 0.8550(6) 0.0788(4)
C57 C 0.3881(6) 0.9399(6) 0.0347(4)
C58 C 0.4710(5) 0.8799(6) -0.0307(4)
C59 C 0.5375(6) 0.9536(7) -0.0836(5)
C60 C 0.6132(6) 0.8888(7) -0.1453(4)
C61 C 0.6281(6) 0.7468(8) -0.1591(4)
C62 C 0.5646(6) 0.6722(7) -0.1089(4)
C63 C 0.4868(5) 0.7360(6) -0.0448(4)
C64 C 0.3641(7) 1.0908(7) 0.0524(5)
C65 C 0.2726(5) 0.6201(5) 0.1057(3)
C66 C 0.2424(6) 0.6714(7) 0.1922(4)
C67 C 0.1606(7) 0.5957(8) 0.2330(4)
C68 C 0.1105(7) 0.4662(7) 0.1882(5)
C69 C 0.1415(6) 0.4109(6) 0.1048(4)
C70 C 0.2233(5) 0.4852(6) 0.0627(4)
C71 C 0.1644(6) 0.3579(6) -0.0941(4)
C72 C 0.2186(7) 0.3182(8) -0.1798(5)
H49 H 0.33780 0.44010 -0.03140
H50 H 0.27320 0.89230 0.12150
H51 H 0.52900 1.04860 -0.07570
H52 H 0.65590 0.93980 -0.17910
H53 H 0.68030 0.70290 -0.20170
H54 H 0.57400 0.57730 -0.11810
H55 H 0.29360 1.11030 0.09000
H56 H 0.33430 1.11930 -0.00390
H57 H 0.44910 1.14000 0.08250
H58 H 0.27770 0.75810 0.22310
H59 H 0.13980 0.63210 0.29020
H60 H 0.05490 0.41570 0.21510
H61 H 0.10780 0.32280 0.07580
H62 H 0.24060 0.22250 -0.18900
H63 H 0.30100 0.37300 -0.17740
H64 H 0.14950 0.33340 -0.22890
loop_
_geom_bond_atom_site_label_1
_geom_bond_atom_site_label_2
_geom_bond_site_symmetry_1
_geom_bond_site_symmetry_2
O1 C17 1_555 1_555
N1 C1 1_555 1_555
N2 C16 1_555 1_555
C1 C2 1_555 1_555
C2 C3 1_555 1_555
C3 C4 1_555 1_555
C4 C5 1_555 1_555
C5 C6 1_555 1_555
C6 C7 1_555 1_555
C7 C8 1_555 1_555
C8 C9 1_555 1_555
C9 N1 1_555 1_555
C10 C3 1_555 1_555
C11 C1 1_555 1_555
C12 C11 1_555 1_555
C13 C12 1_555 1_555
C14 C13 1_555 1_555
C15 C14 1_555 1_555
C16 C11 1_555 1_555
C17 N2 1_555 1_555
C18 C17 1_555 1_555
O2 C35 1_555 1_555
N3 C19 1_555 1_555
N4 C34 1_555 1_555
C19 C20 1_555 1_555
C20 C21 1_555 1_555
C21 C22 1_555 1_555
C22 C23 1_555 1_555
C23 C24 1_555 1_555
C24 C25 1_555 1_555
C25 C26 1_555 1_555
C26 C27 1_555 1_555
C27 N3 1_555 1_555
C28 C21 1_555 1_555
C29 C19 1_555 1_555
C30 C29 1_555 1_555
C31 C30 1_555 1_555
C32 C31 1_555 1_555
C33 C32 1_555 1_555
C34 C29 1_555 1_555
C35 N4 1_555 1_555
C36 C35 1_555 1_555
O3 C53 1_555 1_555
N5 C37 1_555 1_555
N6 C52 1_555 1_555
C37 C38 1_555 1_555
C38 C39 1_555 1_555
C39 C40 1_555 1_555
C40 C41 1_555 1_555
C41 C42 1_555 1_555
C42 C43 1_555 1_555
C43 C44 1_555 1_555
C44 C45 1_555 1_555
C45 N5 1_555 1_555
C46 C39 1_555 1_555
C47 C37 1_555 1_555
C48 C47 1_555 1_555
C49 C48 1_555 1_555
C50 C49 1_555 1_555
C51 C50 1_555 1_555
C52 C47 1_555 1_555
C53 N6 1_555 1_555
C54 C53 1_555 1_555
O4 C71 1_555 1_555
N7 C55 1_555 1_555
N8 C70 1_555 1_555
C55 C56 1_555 1_555
C56 C57 1_555 1_555
C57 C58 1_555 1_555
C58 C59 1_555 1_555
C59 C60 1_555 1_555
C60 C61 1_555 1_555
C61 C62 1_555 1_555
C62 C63 1_555 1_555
C63 N7 1_555 1_555
C64 C57 1_555 1_555
C65 C55 1_555 1_555
C66 C65 1_555 1_555
C67 C66 1_555 1_555
C68 C67 1_555 1_555
C69 C68 1_555 1_555
C70 C65 1_555 1_555
C71 N8 1_555 1_555
C72 C71 1_555 1_555
H1 C2 1_555 1_555
H2 N2 1_555 1_555
H3 C5 1_555 1_555
H4 C6 1_555 1_555
H5 C7 1_555 1_555
H6 C8 1_555 1_555
H7 C10 1_555 1_555
H8 C10 1_555 1_555
H9 C10 1_555 1_555
H10 C12 1_555 1_555
H11 C13 1_555 1_555
H12 C14 1_555 1_555
H13 C15 1_555 1_555
H14 C18 1_555 1_555
H15 C18 1_555 1_555
H16 C18 1_555 1_555
H17 N4 1_555 1_555
H18 C20 1_555 1_555
H19 C23 1_555 1_555
H20 C24 1_555 1_555
H21 C25 1_555 1_555
H22 C26 1_555 1_555
H23 C28 1_555 1_555
H24 C28 1_555 1_555
H25 C28 1_555 1_555
H26 C30 1_555 1_555
H27 C31 1_555 1_555
H28 C32 1_555 1_555
H29 C33 1_555 1_555
H30 C36 1_555 1_555
H31 C36 1_555 1_555
H32 C36 1_555 1_555
H33 N6 1_555 1_555
H34 C38 1_555 1_555
H35 C41 1_555 1_555
H36 C42 1_555 1_555
H37 C43 1_555 1_555
H38 C44 1_555 1_555
H39 C46 1_555 1_555
H40 C46 1_555 1_555
H41 C46 1_555 1_555
H42 C48 1_555 1_555
H43 C49 1_555 1_555
H44 C50 1_555 1_555
H45 C51 1_555 1_555
H46 C54 1_555 1_555
H47 C54 1_555 1_555
H48 C54 1_555 1_555
H49 N8 1_555 1_555
H50 C56 1_555 1_555
H51 C59 1_555 1_555
H52 C60 1_555 1_555
H53 C61 1_555 1_555
H54 C62 1_555 1_555
H55 C64 1_555 1_555
H56 C64 1_555 1_555
H57 C64 1_555 1_555
H58 C66 1_555 1_555
H59 C67 1_555 1_555
H60 C68 1_555 1_555
H61 C69 1_555 1_555
H62 C72 1_555 1_555
H63 C72 1_555 1_555
H64 C72 1_555 1_555
C4 C9 1_555 1_555
C15 C16 1_555 1_555
C22 C27 1_555 1_555
C33 C34 1_555 1_555
C40 C45 1_555 1_555
C51 C52 1_555 1_555
C58 C63 1_555 1_555
C69 C70 1_555 1_555

#END
