
#######################################################################
#
#                 Cambridge Crystallographic Data Centre
#                                CCDC 
#
#######################################################################
#
# If this CIF has been generated from an entry in the Cambridge 
# Structural Database, then it will include bibliographic, chemical, 
# crystal, experimental, refinement or atomic coordinate data resulting 
# from the CCDC's data processing and validation procedures.
#
#######################################################################

data_DUTHUV
_chemical_formula_moiety         'C20 H24 O5'
_chemical_name_systematic        
trans-(2,5-bis(3,4-Dimethoxyphenyl))tetrahydrofuran
_symmetry_cell_setting           triclinic
_symmetry_space_group_name_H-M   'P -1'
_symmetry_Int_Tables_number      2
_space_group_name_Hall           '-P 1'
loop_
_symmetry_equiv_pos_site_id
_symmetry_equiv_pos_as_xyz
1 x,y,z
2 -x,-y,-z
_cell_length_a                   9.911(1)
_cell_length_b                   14.733(3)
_cell_length_c                   6.101(2)
_cell_angle_alpha                90.65(2)
_cell_angle_beta                 90.14(1)
_cell_angle_gamma                81.74(1)
_cell_volume                     881.562
_chemical_melting_point          '114-115 deg.C'
_cell_formula_units_Z            2
loop_
_atom_site_label
_atom_site_type_symbol
_atom_site_fract_x
_atom_site_fract_y
_atom_site_fract_z
O1 O 0.1425(1) -0.0069(1) 1.2310(2)
C1 C 0.1883(2) -0.0942(1) 1.1303(4)
C2 C 0.3376(2) -0.0943(1) 1.0892(5)
C3 C 0.3775(2) -0.0401(2) 1.2829(5)
C4 C 0.2560(2) 0.0353(1) 1.3020(3)
C5 C 0.1584(2) -0.1724(1) 1.2739(3)
C6 C 0.2059(2) -0.2625(1) 1.2086(3)
C7 C 0.1796(2) -0.3357(1) 1.3286(3)
C8 C 0.1002(2) -0.3203(1) 1.5201(3)
C9 C 0.0550(2) -0.2319(1) 1.5854(3)
C10 C 0.0839(2) -0.1578(1) 1.4636(3)
O2 O 0.2257(1) -0.4257(1) 1.2809(2)
C11 C 0.3251(2) -0.4446(1) 1.1118(4)
O3 O 0.0769(1) -0.3978(1) 1.6250(2)
C12 C -0.0160(2) -0.3875(2) 1.8044(4)
C13 C 0.2715(2) 0.1187(1) 1.1666(3)
C14 C 0.3617(2) 0.1774(1) 1.2386(3)
C15 C 0.3810(2) 0.2535(1) 1.1209(3)
C16 C 0.3069(2) 0.2737(1) 0.9273(3)
C17 C 0.2191(2) 0.2153(1) 0.8550(3)
C18 C 0.2023(2) 0.1380(1) 0.9735(3)
O4 O 0.4672(1) 0.3147(1) 1.1772(2)
C19 C 0.5516(2) 0.2958(2) 1.3651(4)
O5 O 0.3296(1) 0.3521(1) 0.8255(2)
C20 C 0.2376(2) 0.3854(2) 0.6547(4)
H1 H 0.137(2) -0.095(1) 0.985(3)
H2 H 0.351(2) -0.061(1) 0.946(3)
H3 H 0.388(2) -0.156(1) 1.075(3)
H4 H 0.466(2) -0.015(1) 1.258(3)
H5 H 0.383(2) -0.081(1) 1.417(3)
H6 H 0.235(2) 0.058(1) 1.459(3)
H7 H 0.261(2) -0.272(1) 1.084(3)
H8 H 0.008(2) -0.222(1) 1.710(3)
H9 H 0.049(2) -0.097(1) 1.509(3)
H10 H 0.351(2) -0.513(1) 1.112(3)
H11 H 0.289(2) -0.426(1) 0.969(3)
H12 H 0.407(2) -0.413(1) 1.142(3)
H13 H -0.030(2) -0.448(1) 1.831(3)
H14 H 0.025(2) -0.355(1) 1.932(3)
H15 H -0.103(2) -0.350(1) 1.763(3)
H16 H 0.412(2) 0.166(1) 1.367(2)
H17 H 0.168(2) 0.229(1) 0.724(3)
H18 H 0.139(2) 0.096(1) 0.924(3)
H19 H 0.603(2) 0.347(1) 1.374(3)
H20 H 0.494(2) 0.293(1) 1.496(3)
H21 H 0.614(2) 0.236(1) 1.345(3)
H22 H 0.269(2) 0.446(1) 0.621(3)
H23 H 0.250(2) 0.338(1) 0.519(3)
H24 H 0.146(2) 0.392(1) 0.710(3)
loop_
_geom_bond_atom_site_label_1
_geom_bond_atom_site_label_2
_geom_bond_site_symmetry_1
_geom_bond_site_symmetry_2
O1 C1 1_555 1_555
C1 C2 1_555 1_555
C2 C3 1_555 1_555
C3 C4 1_555 1_555
C4 O1 1_555 1_555
C5 C1 1_555 1_555
C6 C5 1_555 1_555
C7 C6 1_555 1_555
C8 C7 1_555 1_555
C9 C8 1_555 1_555
C10 C5 1_555 1_555
O2 C7 1_555 1_555
C11 O2 1_555 1_555
O3 C8 1_555 1_555
C12 O3 1_555 1_555
C13 C4 1_555 1_555
C14 C13 1_555 1_555
C15 C14 1_555 1_555
C16 C15 1_555 1_555
C17 C16 1_555 1_555
C18 C13 1_555 1_555
O4 C15 1_555 1_555
C19 O4 1_555 1_555
O5 C16 1_555 1_555
C20 O5 1_555 1_555
H1 C1 1_555 1_555
H2 C2 1_555 1_555
H3 C2 1_555 1_555
H4 C3 1_555 1_555
H5 C3 1_555 1_555
H6 C4 1_555 1_555
H7 C6 1_555 1_555
H8 C9 1_555 1_555
H9 C10 1_555 1_555
H10 C11 1_555 1_555
H11 C11 1_555 1_555
H12 C11 1_555 1_555
H13 C12 1_555 1_555
H14 C12 1_555 1_555
H15 C12 1_555 1_555
H16 C14 1_555 1_555
H17 C17 1_555 1_555
H18 C18 1_555 1_555
H19 C19 1_555 1_555
H20 C19 1_555 1_555
H21 C19 1_555 1_555
H22 C20 1_555 1_555
H23 C20 1_555 1_555
H24 C20 1_555 1_555
C9 C10 1_555 1_555
C17 C18 1_555 1_555

#END
