
#######################################################################
#
#                 Cambridge Crystallographic Data Centre
#                                CCDC 
#
#######################################################################
#
# If this CIF has been generated from an entry in the Cambridge 
# Structural Database, then it will include bibliographic, chemical, 
# crystal, experimental, refinement or atomic coordinate data resulting 
# from the CCDC's data processing and validation procedures.
#
#######################################################################

data_DUTJOT
_chemical_name_common            
'(1E,3E)-4-(4-Chlorophenyl)-2-oxo-N-(p-tolyl)but-3-enimidoyl cyanide'
_chemical_formula_moiety         'C18 H13 Cl1 N2 O1'
_chemical_name_systematic        
5-(4-chlorophenyl)-2-((4-methylphenyl)imino)-3-oxopent-4-enenitrile
_symmetry_cell_setting           triclinic
_symmetry_space_group_name_H-M   'P -1'
_symmetry_Int_Tables_number      2
_space_group_name_Hall           '-P 1'
loop_
_symmetry_equiv_pos_site_id
_symmetry_equiv_pos_as_xyz
1 x,y,z
2 -x,-y,-z
_cell_length_a                   3.9823(6)
_cell_length_b                   11.7455(17)
_cell_length_c                   16.580(2)
_cell_angle_alpha                86.931(3)
_cell_angle_beta                 84.919(3)
_cell_angle_gamma                89.788(3)
_cell_volume                     771.359
_exptl_crystal_colour            yellow
_cell_formula_units_Z            2
loop_
_atom_site_label
_atom_site_type_symbol
_atom_site_fract_x
_atom_site_fract_y
_atom_site_fract_z
C1 C 1.1679(8) 0.2738(2) -0.12569(15)
C2 C 1.1053(8) 0.1990(2) -0.18315(17)
C3 C 0.9260(7) 0.1019(2) -0.16018(16)
C4 C 0.8046(8) 0.0794(3) -0.08062(18)
C5 C 0.8659(7) 0.1554(2) -0.02362(17)
C6 C 1.0505(6) 0.2543(2) -0.04432(14)
C7 C 1.1336(7) 0.3347(2) 0.01459(15)
C8 C 1.0462(7) 0.3290(2) 0.09382(15)
C9 C 1.1582(7) 0.4166(2) 0.14512(14)
C10 C 1.0381(7) 0.4090(2) 0.23395(14)
C11 C 1.1603(7) 0.5031(2) 0.27727(15)
C12 C 0.7335(6) 0.2997(2) 0.34445(14)
C13 C 0.7434(8) 0.3695(3) 0.40961(16)
C14 C 0.6116(8) 0.3317(3) 0.48580(17)
C15 C 0.4586(7) 0.2258(3) 0.50023(16)
C16 C 0.4474(8) 0.1578(3) 0.43498(18)
C17 C 0.5753(7) 0.1948(3) 0.35855(16)
C18 C 0.3174(13) 0.1869(4) 0.5844(2)
Cl1 Cl 0.8486(2) 0.00414(8) -0.23164(5)
H1 H 0.634(7) 0.376(2) 0.5306(18)
H2 H 0.841(7) 0.440(2) 0.4063(16)
H3 H 0.561(6) 0.149(2) 0.3171(15)
H4 H 0.316(8) 0.085(3) 0.4426(18)
H5 H 0.909(7) 0.270(2) 0.1238(17)
H6 H 1.266(7) 0.395(2) -0.0053(15)
H7 H 1.300(7) 0.341(2) -0.1365(16)
H8 H 1.175(7) 0.214(2) -0.2366(19)
H9 H 0.689(7) 0.015(2) -0.0656(16)
H10 H 0.781(8) 0.141(2) 0.0287(19)
H11 H 0.141(11) 0.233(3) 0.604(3)
H12 H 0.185(11) 0.117(4) 0.579(3)
H13 H 0.472(13) 0.179(4) 0.620(3)
N1 N 1.2622(8) 0.5780(2) 0.30908(16)
N2 N 0.8567(5) 0.32432(18) 0.26341(11)
O1 O 1.3474(6) 0.49451(17) 0.12047(11)
loop_
_geom_bond_atom_site_label_1
_geom_bond_atom_site_label_2
_geom_bond_site_symmetry_1
_geom_bond_site_symmetry_2
C1 C2 1_555 1_555
C2 C3 1_555 1_555
C3 C4 1_555 1_555
C4 C5 1_555 1_555
C5 C6 1_555 1_555
C6 C1 1_555 1_555
C7 C6 1_555 1_555
C8 C7 1_555 1_555
C9 C8 1_555 1_555
C10 C9 1_555 1_555
C11 C10 1_555 1_555
C12 C13 1_555 1_555
C13 C14 1_555 1_555
C14 C15 1_555 1_555
C15 C16 1_555 1_555
C16 C17 1_555 1_555
C17 C12 1_555 1_555
C18 C15 1_555 1_555
Cl1 C3 1_555 1_555
H1 C14 1_555 1_555
H2 C13 1_555 1_555
H3 C17 1_555 1_555
H4 C16 1_555 1_555
H5 C8 1_555 1_555
H6 C7 1_555 1_555
H7 C1 1_555 1_555
H8 C2 1_555 1_555
H9 C4 1_555 1_555
H10 C5 1_555 1_555
H11 C18 1_555 1_555
H12 C18 1_555 1_555
H13 C18 1_555 1_555
N1 C11 1_555 1_555
N2 C10 1_555 1_555
O1 C9 1_555 1_555
C12 N2 1_555 1_555

#END
