
#######################################################################
#
#                 Cambridge Crystallographic Data Centre
#                                CCDC 
#
#######################################################################
#
# If this CIF has been generated from an entry in the Cambridge 
# Structural Database, then it will include bibliographic, chemical, 
# crystal, experimental, refinement or atomic coordinate data resulting 
# from the CCDC's data processing and validation procedures.
#
#######################################################################

data_DUTMUC
_chemical_formula_moiety         'C31 H32 F1 N1 O2'
_chemical_name_systematic        
(4-t-butylphenyl)(4a-fluoro-2-(4-methoxyphenyl)-4,4a,5,6-tetrahydrobenzo[f]isoquinolin-3(2H)-yl)methanone
_symmetry_cell_setting           monoclinic
_symmetry_space_group_name_H-M   'P 21'
_symmetry_Int_Tables_number      4
_space_group_name_Hall           'P 2yb'
loop_
_symmetry_equiv_pos_site_id
_symmetry_equiv_pos_as_xyz
1 x,y,z
2 -x,1/2+y,-z
_cell_length_a                   10.2930(6)
_cell_length_b                   10.4698(6)
_cell_length_c                   12.1319(8)
_cell_angle_alpha                90
_cell_angle_beta                 109.079(3)
_cell_angle_gamma                90
_cell_volume                     1235.58
_exptl_crystal_colour            colorless
_exptl_crystal_description       block
_cell_formula_units_Z            2
loop_
_atom_site_label
_atom_site_type_symbol
_atom_site_fract_x
_atom_site_fract_y
_atom_site_fract_z
C1 C 0.59597(15) 0.21674(14) 0.43905(13)
H1 H 0.5159 0.1899 0.4616
H2 H 0.6773 0.2195 0.5106
C2 C 0.62022(14) 0.11964(14) 0.35573(13)
C3 C 0.63739(15) -0.01149(14) 0.41053(13)
H3 H 0.5564 -0.0307 0.4346
H4 H 0.7195 -0.0114 0.4815
C4 C 0.65303(17) -0.11622(14) 0.32856(14)
H5 H 0.7463 -0.1110 0.3220
H6 H 0.6443 -0.2004 0.3627
C5 C 0.54808(15) -0.10756(15) 0.20802(13)
C6 C 0.51542(16) -0.21714(15) 0.13863(15)
H7 H 0.5549 -0.2966 0.1702
C7 C 0.42674(17) -0.21237(16) 0.02479(15)
H8 H 0.4053 -0.2880 -0.0209
C8 C 0.36927(17) -0.09622(16) -0.02218(14)
H9 H 0.3104 -0.0916 -0.1009
C9 C 0.39816(15) 0.01252(16) 0.04613(13)
H10 H 0.3579 0.0914 0.0137
C10 C 0.48590(15) 0.00899(15) 0.16272(12)
C11 C 0.51037(15) 0.12553(14) 0.23702(12)
C12 C 0.43974(15) 0.23352(14) 0.20589(12)
H11 H 0.3695 0.2337 0.1320
C13 C 0.45896(15) 0.35518(14) 0.27487(12)
H12 H 0.4871 0.4225 0.2287
C14 C 0.32425(15) 0.39868(14) 0.28937(11)
C15 C 0.23443(16) 0.31230(14) 0.31494(13)
H13 H 0.2588 0.2246 0.3259
C16 C 0.11051(16) 0.35268(14) 0.32451(13)
H14 H 0.0515 0.2931 0.3435
C17 C 0.07232(15) 0.48082(15) 0.30633(12)
C18 C 0.16086(16) 0.56850(14) 0.28257(13)
H15 H 0.1363 0.6562 0.2720
C19 C 0.28586(15) 0.52691(14) 0.27429(12)
H16 H 0.3462 0.5871 0.2580
C20 C -0.10023(19) 0.63856(18) 0.28995(19)
H17 H -0.0365 0.6953 0.3466
H18 H -0.1923 0.6468 0.2964
H19 H -0.1033 0.6620 0.2109
C21 C 0.64539(15) 0.44965(14) 0.43260(13)
C22 C 0.75002(15) 0.44442(14) 0.55284(13)
C23 C 0.71896(15) 0.40153(15) 0.65023(13)
H20 H 0.6327 0.3621 0.6402
C24 C 0.81274(16) 0.41584(14) 0.76168(13)
H21 H 0.7885 0.3880 0.8269
C25 C 0.94192(15) 0.47033(14) 0.77996(13)
C26 C 0.97349(15) 0.50912(15) 0.68178(13)
H22 H 1.0617 0.5441 0.6914
C27 C 0.87906(15) 0.49784(15) 0.57006(13)
H23 H 0.9028 0.5268 0.5049
C28 C 1.04332(16) 0.49242(16) 0.90322(13)
C29 C 0.9684(4) 0.5000(6) 0.9905(3)
H24 H 1.0347 0.5135 1.0686
H25 H 0.9184 0.4201 0.9894
H26 H 0.9032 0.5713 0.9705
C30 C 1.1180(6) 0.6210(5) 0.9043(3)
H27 H 1.0499 0.6889 0.8750
H28 H 1.1758 0.6144 0.8545
H29 H 1.1756 0.6411 0.9843
C31 C 1.1909(4) 0.4570(7) 0.9117(4)
H30 H 1.2234 0.5153 0.8631
H31 H 1.1929 0.3691 0.8844
H32 H 1.2509 0.4638 0.9930
N1 N 0.57078(12) 0.34384(12) 0.38796(10)
O1 O -0.05458(11) 0.50994(11) 0.31311(10)
O2 O 0.62644(11) 0.55130(10) 0.37841(10)
F1 F 0.74747(8) 0.15229(8) 0.33939(8)
C32? C 1.1441(8) 0.3837(7) 0.9350(5)
H33? H 1.1903 0.3761 0.8763
H34? H 1.0952 0.3041 0.9378
H35? H 1.2126 0.4000 1.0115
C33? C 1.0166(5) 0.3937(6) 0.9918(4)
H36? H 1.0941 0.3953 1.0649
H37? H 1.0071 0.3077 0.9581
H38? H 0.9319 0.4168 1.0073
C34? C 1.0345(6) 0.6254(5) 0.9414(4)
H39? H 0.9442 0.6397 0.9499
H40? H 1.0470 0.6846 0.8830
H41? H 1.1066 0.6402 1.0164
loop_
_geom_bond_atom_site_label_1
_geom_bond_atom_site_label_2
_geom_bond_site_symmetry_1
_geom_bond_site_symmetry_2
C1 H1 1_555 1_555
H2 C1 1_555 1_555
C2 C1 1_555 1_555
C3 C2 1_555 1_555
H3 C3 1_555 1_555
H4 C3 1_555 1_555
C4 C3 1_555 1_555
H5 C4 1_555 1_555
H6 C4 1_555 1_555
C5 C4 1_555 1_555
C6 C5 1_555 1_555
H7 C6 1_555 1_555
C7 C6 1_555 1_555
H8 C7 1_555 1_555
C8 C7 1_555 1_555
H9 C8 1_555 1_555
C9 C8 1_555 1_555
H10 C9 1_555 1_555
C10 C5 1_555 1_555
C11 C2 1_555 1_555
C12 C11 1_555 1_555
H11 C12 1_555 1_555
C13 C12 1_555 1_555
H12 C13 1_555 1_555
C14 C13 1_555 1_555
C15 C14 1_555 1_555
H13 C15 1_555 1_555
C16 C15 1_555 1_555
H14 C16 1_555 1_555
C17 C16 1_555 1_555
C18 C17 1_555 1_555
H15 C18 1_555 1_555
C19 C14 1_555 1_555
H16 C19 1_555 1_555
C20 H17 1_555 1_555
H18 C20 1_555 1_555
H19 C20 1_555 1_555
C21 C22 1_555 1_555
C22 C23 1_555 1_555
C23 H20 1_555 1_555
C24 C23 1_555 1_555
H21 C24 1_555 1_555
C25 C24 1_555 1_555
C26 C25 1_555 1_555
H22 C26 1_555 1_555
C27 C22 1_555 1_555
H23 C27 1_555 1_555
C28 C25 1_555 1_555
C29 C28 1_555 1_555
H24 C29 1_555 1_555
H25 C29 1_555 1_555
H26 C29 1_555 1_555
C30 C28 1_555 1_555
H27 C30 1_555 1_555
H28 C30 1_555 1_555
H29 C30 1_555 1_555
C31 C28 1_555 1_555
H30 C31 1_555 1_555
H31 C31 1_555 1_555
H32 C31 1_555 1_555
N1 C1 1_555 1_555
O1 C17 1_555 1_555
O2 C21 1_555 1_555
F1 C2 1_555 1_555
C9 C10 1_555 1_555
C10 C11 1_555 1_555
C13 N1 1_555 1_555
C18 C19 1_555 1_555
C20 O1 1_555 1_555
C21 N1 1_555 1_555
C26 C27 1_555 1_555

#END
