
#######################################################################
#
#                 Cambridge Crystallographic Data Centre
#                                CCDC 
#
#######################################################################
#
# If this CIF has been generated from an entry in the Cambridge 
# Structural Database, then it will include bibliographic, chemical, 
# crystal, experimental, refinement or atomic coordinate data resulting 
# from the CCDC's data processing and validation procedures.
#
#######################################################################

data_DUTMOV
_chemical_name_common            Vadimezan
_chemical_formula_moiety         'C17 H14 O4'
_chemical_name_systematic        
'2-(5,6-Dimethyl-9-oxo-9H-xanthen-4-yl)acetic acid'
_symmetry_cell_setting           triclinic
_symmetry_space_group_name_H-M   'P -1'
_symmetry_Int_Tables_number      2
_space_group_name_Hall           '-P 1'
loop_
_symmetry_equiv_pos_site_id
_symmetry_equiv_pos_as_xyz
1 x,y,z
2 -x,-y,-z
_cell_length_a                   6.7854(19)
_cell_length_b                   9.826(3)
_cell_length_c                   10.532(3)
_cell_angle_alpha                71.435(7)
_cell_angle_beta                 82.741(9)
_cell_angle_gamma                83.142(9)
_cell_volume                     657.983
_exptl_crystal_colour            colorless
_exptl_crystal_description       block
_chemical_melting_point          '529-532 K'
_cell_formula_units_Z            2
loop_
_atom_site_label
_atom_site_type_symbol
_atom_site_fract_x
_atom_site_fract_y
_atom_site_fract_z
O1 O 0.21097(13) 0.40487(9) 0.72385(9)
O2 O 0.36821(16) 0.20951(10) 0.43040(10)
O3 O 0.49314(15) 0.35197(11) 0.95899(10)
O4 O 0.23835(16) 0.47712(12) 1.03729(11)
C1 C 0.3402(2) 0.03641(14) 0.70661(15)
H1 H 0.3796 -0.0144 0.6431
C2 C 0.3195(2) -0.03755(15) 0.84129(16)
H2 H 0.3434 -0.1395 0.8710
C3 C 0.2632(2) 0.03676(15) 0.93484(15)
H3 H 0.2494 -0.0159 1.0279
C4 C 0.2271(2) 0.18497(14) 0.89551(14)
C5 C 0.18653(18) 0.63568(13) 0.56645(13)
C6 C 0.20182(18) 0.72389(13) 0.43318(13)
C7 C 0.25597(19) 0.66243(14) 0.32918(13)
H4 H 0.2664 0.7233 0.2386
C8 C 0.29413(19) 0.51639(14) 0.35551(13)
H5 H 0.3301 0.4772 0.2833
C9 C 0.32191(19) 0.26831(14) 0.51829(13)
C10 C 0.30347(19) 0.18691(14) 0.66213(13)
C11 C 0.24803(18) 0.25830(13) 0.75729(13)
C12 C 0.22678(17) 0.48664(13) 0.59068(12)
C13 C 0.28044(18) 0.42500(13) 0.48780(13)
C14 C 0.1303(2) 0.69521(15) 0.68242(14)
H6 H 0.1279 0.6159 0.7671
H7 H -0.0020 0.7477 0.6734
H8 H 0.2284 0.7608 0.6823
C15 C 0.1628(2) 0.88493(14) 0.39994(15)
H9 H 0.0275 0.9087 0.4362
H10 H 0.1761 0.9292 0.3021
H11 H 0.2594 0.9217 0.4399
C16 C 0.1661(2) 0.26804(15) 0.99384(14)
H12 H 0.1462 0.1991 1.0854
H13 H 0.0369 0.3240 0.9720
C17 C 0.3156(2) 0.36947(15) 0.99384(13)
H14 H 0.345(3) 0.541(2) 1.032(2)
H15? H 0.1084 0.8004 0.6481
H16? H 0.2382 0.6686 0.7418
H17? H 0.0078 0.6554 0.7330
loop_
_geom_bond_atom_site_label_1
_geom_bond_atom_site_label_2
_geom_bond_site_symmetry_1
_geom_bond_site_symmetry_2
O1 C11 1_555 1_555
O2 C9 1_555 1_555
O3 C17 1_555 1_555
O4 C17 1_555 1_555
C1 H1 1_555 1_555
C2 C1 1_555 1_555
H2 C2 1_555 1_555
C3 C2 1_555 1_555
H3 C3 1_555 1_555
C4 C3 1_555 1_555
C5 C6 1_555 1_555
C6 C7 1_555 1_555
C7 H4 1_555 1_555
C8 C7 1_555 1_555
H5 C8 1_555 1_555
C9 C10 1_555 1_555
C10 C1 1_555 1_555
C11 C4 1_555 1_555
C12 O1 1_555 1_555
C13 C8 1_555 1_555
C14 C5 1_555 1_555
H6 C14 1_555 1_555
H7 C14 1_555 1_555
H8 C14 1_555 1_555
C15 C6 1_555 1_555
H9 C15 1_555 1_555
H10 C15 1_555 1_555
H11 C15 1_555 1_555
C16 C4 1_555 1_555
H12 C16 1_555 1_555
H13 C16 1_555 1_555
C17 C16 1_555 1_555
H14 O4 1_555 1_555
C5 C12 1_555 1_555
C9 C13 1_555 1_555
C10 C11 1_555 1_555
C12 C13 1_555 1_555

#END
