
#######################################################################
#
#                 Cambridge Crystallographic Data Centre
#                                CCDC 
#
#######################################################################
#
# If this CIF has been generated from an entry in the Cambridge 
# Structural Database, then it will include bibliographic, chemical, 
# crystal, experimental, refinement or atomic coordinate data resulting 
# from the CCDC's data processing and validation procedures.
#
#######################################################################

data_DUTNOW
_chemical_name_common            '16-Oxoandrost-2-en-17-yl acetate'
_chemical_formula_moiety         'C21 H30 O3'
_chemical_name_systematic        
'10,13-Dimethyl-16-oxo-4,5,6,7,8,9,10,11,12,13,14,15,16,17-tetradecahydro-1H-cyclopenta[a]phenanthren-17-yl acetate'
_symmetry_cell_setting           monoclinic
_symmetry_space_group_name_H-M   'P 21'
_symmetry_Int_Tables_number      4
_space_group_name_Hall           'P 2yb'
loop_
_symmetry_equiv_pos_site_id
_symmetry_equiv_pos_as_xyz
1 x,y,z
2 -x,1/2+y,-z
_cell_length_a                   7.383(5)
_cell_length_b                   13.200(9)
_cell_length_c                   9.843(7)
_cell_angle_alpha                90
_cell_angle_beta                 95.687(10)
_cell_angle_gamma                90
_cell_volume                     954.534
_exptl_crystal_colour            colorless
_exptl_crystal_description       block
_cell_formula_units_Z            2
_exptl_crystal_recrystallization_method 'ethyl acetate/petroleum ether'
loop_
_atom_site_label
_atom_site_type_symbol
_atom_site_fract_x
_atom_site_fract_y
_atom_site_fract_z
C1 C 0.2353(9) 0.8413(7) 0.3971(7)
H1 H 0.1047 0.8316 0.3809
H2 H 0.2756 0.8100 0.4841
C2 C 0.2742(13) 0.9525(7) 0.4068(8)
H3 H 0.1975 0.9938 0.4519
C3 C 0.4149(14) 0.9942(7) 0.3531(9)
H4 H 0.4306 1.0640 0.3597
C4 C 0.5469(11) 0.9345(7) 0.2835(8)
H5 H 0.6690 0.9545 0.3187
H6 H 0.5318 0.9506 0.1868
C5 C 0.5277(9) 0.8189(6) 0.3009(7)
H7 H 0.5753 0.8028 0.3949
C6 C 0.6463(9) 0.7619(6) 0.2068(8)
H8 H 0.6053 0.7772 0.1123
H9 H 0.7716 0.7842 0.2245
C7 C 0.6356(8) 0.6477(6) 0.2303(7)
H10 H 0.7052 0.6129 0.1660
H11 H 0.6896 0.6319 0.3217
C8 C 0.4396(8) 0.6097(5) 0.2132(6)
H12 H 0.3895 0.6192 0.1181
C9 C 0.3222(8) 0.6712(6) 0.3088(6)
H13 H 0.3770 0.6599 0.4023
C10 C 0.3266(8) 0.7864(5) 0.2843(6)
C11 C 0.1274(8) 0.6266(6) 0.3010(7)
H14 H 0.0603 0.6610 0.3673
H15 H 0.0660 0.6400 0.2111
C12 C 0.1231(9) 0.5120(7) 0.3282(7)
H16 H 0.1719 0.4987 0.4217
H17 H -0.0019 0.4884 0.3170
C13 C 0.2347(8) 0.4539(5) 0.2304(6)
C14 C 0.4277(8) 0.4979(5) 0.2504(6)
H18 H 0.4674 0.4928 0.3481
C15 C 0.5425(9) 0.4225(6) 0.1788(7)
H19 H 0.5404 0.4378 0.0823
H20 H 0.6677 0.4223 0.2195
C16 C 0.4499(12) 0.3221(8) 0.2014(8)
C17 C 0.2753(9) 0.3439(6) 0.2690(7)
H21 H 0.3009 0.3385 0.3683
C18 C 0.0718(10) 0.2130(6) 0.3117(10)
C19 C -0.0681(10) 0.1408(6) 0.2474(8)
H22 H -0.0850 0.0864 0.3097
H23 H -0.0276 0.1138 0.1650
H24 H -0.1813 0.1758 0.2262
C20 C 0.2325(8) 0.8158(5) 0.1428(6)
H25 H 0.1055 0.7990 0.1384
H26 H 0.2876 0.7794 0.0732
H27 H 0.2457 0.8873 0.1288
C21 C 0.1481(8) 0.4600(5) 0.0849(6)
H28 H 0.2156 0.4187 0.0273
H29 H 0.1489 0.5290 0.0542
H30 H 0.0249 0.4361 0.0806
O1 O 0.4948(9) 0.2388(5) 0.1678(7)
O2 O 0.1340(7) 0.2744(4) 0.2230(5)
O3 O 0.1307(8) 0.2124(5) 0.4295(6)
loop_
_geom_bond_atom_site_label_1
_geom_bond_atom_site_label_2
_geom_bond_site_symmetry_1
_geom_bond_site_symmetry_2
C1 H1 1_555 1_555
H2 C1 1_555 1_555
C2 C1 1_555 1_555
H3 C2 1_555 1_555
C3 C2 1_555 1_555
H4 C3 1_555 1_555
C4 C3 1_555 1_555
H5 C4 1_555 1_555
H6 C4 1_555 1_555
C5 C4 1_555 1_555
H7 C5 1_555 1_555
C6 C5 1_555 1_555
H8 C6 1_555 1_555
H9 C6 1_555 1_555
C7 C6 1_555 1_555
H10 C7 1_555 1_555
H11 C7 1_555 1_555
C8 C7 1_555 1_555
H12 C8 1_555 1_555
C9 C8 1_555 1_555
H13 C9 1_555 1_555
C10 C1 1_555 1_555
C11 C9 1_555 1_555
H14 C11 1_555 1_555
H15 C11 1_555 1_555
C12 C11 1_555 1_555
H16 C12 1_555 1_555
H17 C12 1_555 1_555
C13 C12 1_555 1_555
C14 C8 1_555 1_555
H18 C14 1_555 1_555
C15 C14 1_555 1_555
H19 C15 1_555 1_555
H20 C15 1_555 1_555
C16 C15 1_555 1_555
C17 C13 1_555 1_555
H21 C17 1_555 1_555
C18 C19 1_555 1_555
C19 H22 1_555 1_555
H23 C19 1_555 1_555
H24 C19 1_555 1_555
C20 C10 1_555 1_555
H25 C20 1_555 1_555
H26 C20 1_555 1_555
H27 C20 1_555 1_555
C21 C13 1_555 1_555
H28 C21 1_555 1_555
H29 C21 1_555 1_555
H30 C21 1_555 1_555
O1 C16 1_555 1_555
O2 C17 1_555 1_555
O3 C18 1_555 1_555
C5 C10 1_555 1_555
C9 C10 1_555 1_555
C13 C14 1_555 1_555
C16 C17 1_555 1_555
C18 O2 1_555 1_555

#END
