
#######################################################################
#
#                 Cambridge Crystallographic Data Centre
#                                CCDC 
#
#######################################################################
#
# If this CIF has been generated from an entry in the Cambridge 
# Structural Database, then it will include bibliographic, chemical, 
# crystal, experimental, refinement or atomic coordinate data resulting 
# from the CCDC's data processing and validation procedures.
#
#######################################################################

data_DUTNIP10
_chemical_name_common            'Hyoscine methiodide'
_chemical_formula_moiety         'C18 H24 N1 O4 1+,I1 1-'
_chemical_name_systematic        
'7-(3-Hydroxy-1-oxo-2-phenylpropoxy)-9,9-dimethyl-3-oxa-9-azoniatricyclo(3.3.1.0^2,4^)nonane iodide'
_chemical_properties_biological  'muscarinic receptor agent'
_symmetry_cell_setting           monoclinic
_symmetry_space_group_name_H-M   'P 21'
_symmetry_Int_Tables_number      4
_space_group_name_Hall           'P 2yb'
loop_
_symmetry_equiv_pos_site_id
_symmetry_equiv_pos_as_xyz
1 x,y,z
2 -x,1/2+y,-z
_cell_length_a                   12.404(1)
_cell_length_b                   11.033(1)
_cell_length_c                   6.956(1)
_cell_angle_alpha                90
_cell_angle_beta                 95.04(1)
_cell_angle_gamma                90
_cell_volume                     948.271
_exptl_crystal_colour            white
_chemical_melting_point          480.6-481.1K
_cell_formula_units_Z            2
loop_
_atom_site_label
_atom_site_type_symbol
_atom_site_fract_x
_atom_site_fract_y
_atom_site_fract_z
I1 I 0.6090(1) 1.0112(1) 0.7686(1)
C1 C 0.3577(3) 0.8971(4) 0.0219(7)
C2 C 0.3101(3) 1.0236(6) -0.0263(5)
C3 C 0.2648(3) 1.0859(4) 0.1473(6)
C4 C 0.1818(3) 1.0029(8) 0.2182(6)
C5 C 0.2358(4) 0.9241(6) 0.3582(6)
C6 C 0.3555(4) 0.9582(4) 0.3756(7)
C7 C 0.4113(4) 0.8840(4) 0.2269(7)
O1 O 0.1621(3) 1.0084(8) 0.4202(5)
N1 N 0.3552(3) 1.0910(3) 0.3126(5)
C8 C 0.3301(5) 1.1767(5) 0.4733(7)
C9 C 0.4624(4) 1.1363(4) 0.2561(7)
O2 O 0.2723(2) 0.8063(3) 0.0011(4)
C10 C 0.2574(3) 0.7473(4) -0.1676(5)
O3 O 0.3103(3) 0.7653(4) -0.3007(4)
C11 C 0.1665(3) 0.6574(4) -0.1603(5)
C12 C 0.1440(5) 0.5888(5) -0.3509(7)
C13 C 0.0353(3) 0.6958(3) 0.0900(4)
C14 C -0.0547 0.7540 0.1542
C15 C -0.1140 0.8357 0.0339
C16 C -0.0833 0.8592 -0.1507
C17 C 0.0066 0.8010 -0.2149
C18 C 0.0660 0.7193 -0.0946
O4 O 0.2224(4) 0.5031(7) -0.3800(6)
H1 H 0.4121 0.8860 -0.0666
H2 H 0.2526 1.0152 -0.1271
H3 H 0.3661 1.0738 -0.0706
H4 H 0.2371 1.1648 0.1112
H5 H 0.1333 1.0004 0.1029
H6 H 0.2433 0.8389 0.3844
H7 H 0.3909 0.9445 0.5020
H8 H 0.4097 0.8001 0.2629
H9 H 0.4851 0.9105 0.2285
H10 H 0.2577 1.1567 0.5010
H11 H 0.3329 1.2603 0.4359
H12 H 0.3788 1.1633 0.5862
H13 H 0.4988 1.0915 0.1627
H14 H 0.5053 1.1351 0.3779
H15 H 0.4522 1.2185 0.2134
H16 H 0.1886 0.5968 -0.0658
H17 H 0.1413 0.6462 -0.4550
H18 H 0.0753 0.5488 -0.3506
H19 H 0.0761 0.6396 0.1728
H20 H -0.0758 0.7379 0.2813
H21 H -0.1759 0.8758 0.0781
H22 H -0.1242 0.9154 -0.2334
H23 H 0.0277 0.8171 -0.3419
H24 H 0.2860(71) 0.4883(98) -0.459(12)
loop_
_geom_bond_atom_site_label_1
_geom_bond_atom_site_label_2
_geom_bond_site_symmetry_1
_geom_bond_site_symmetry_2
C1 C2 1_555 1_555
C2 C3 1_555 1_555
C3 C4 1_555 1_555
C4 C5 1_555 1_555
C5 C6 1_555 1_555
C6 C7 1_555 1_555
C7 C1 1_555 1_555
O1 C4 1_555 1_555
N1 C3 1_555 1_555
C8 N1 1_555 1_555
C9 N1 1_555 1_555
O2 C1 1_555 1_555
C10 O2 1_555 1_555
O3 C10 1_555 1_555
C11 C10 1_555 1_555
C12 C11 1_555 1_555
C13 C14 1_555 1_555
C14 C15 1_555 1_555
C15 C16 1_555 1_555
C16 C17 1_555 1_555
C17 C18 1_555 1_555
C18 C11 1_555 1_555
O4 C12 1_555 1_555
H1 C1 1_555 1_555
H2 C2 1_555 1_555
H3 C2 1_555 1_555
H4 C3 1_555 1_555
H5 C4 1_555 1_555
H6 C5 1_555 1_555
H7 C6 1_555 1_555
H8 C7 1_555 1_555
H9 C7 1_555 1_555
H10 C8 1_555 1_555
H11 C8 1_555 1_555
H12 C8 1_555 1_555
H13 C9 1_555 1_555
H14 C9 1_555 1_555
H15 C9 1_555 1_555
H16 C11 1_555 1_555
H17 C12 1_555 1_555
H18 C12 1_555 1_555
H19 C13 1_555 1_555
H20 C14 1_555 1_555
H21 C15 1_555 1_555
H22 C16 1_555 1_555
H23 C17 1_555 1_555
H24 O4 1_555 1_555
C5 O1 1_555 1_555
C6 N1 1_555 1_555
C13 C18 1_555 1_555

#END
