
#######################################################################
#
#                 Cambridge Crystallographic Data Centre
#                                CCDC 
#
#######################################################################
#
# If this CIF has been generated from an entry in the Cambridge 
# Structural Database, then it will include bibliographic, chemical, 
# crystal, experimental, refinement or atomic coordinate data resulting 
# from the CCDC's data processing and validation procedures.
#
#######################################################################

data_DUTNEL10
_chemical_formula_moiety         'C21 H26 N1 O2 1+,I1 1-'
_chemical_name_systematic        
'N,N-Dimethyl-4-(diphenylacetoxy)piperidinium iodide'
_chemical_properties_biological  'muscarinic receptor agent'
_symmetry_cell_setting           monoclinic
_symmetry_space_group_name_H-M   'P 21/c'
_symmetry_Int_Tables_number      14
_space_group_name_Hall           '-P 2ybc'
loop_
_symmetry_equiv_pos_site_id
_symmetry_equiv_pos_as_xyz
1 x,y,z
2 -x,1/2+y,1/2-z
3 -x,-y,-z
4 x,1/2-y,1/2+z
_cell_length_a                   10.106(4)
_cell_length_b                   22.107(6)
_cell_length_c                   10.090(3)
_cell_angle_alpha                90
_cell_angle_beta                 114.11(2)
_cell_angle_gamma                90
_cell_volume                     2057.59
_chemical_melting_point          480.5-482.2K
_cell_formula_units_Z            4
loop_
_atom_site_label
_atom_site_type_symbol
_atom_site_fract_x
_atom_site_fract_y
_atom_site_fract_z
I1 I 0.9237(1) -0.1034(1) 0.7082(1)
C1 C 0.8664(6) 0.1908(2) 0.5639(7)
C2 C 0.8032(5) 0.1314(3) 0.5818(7)
C3 C 0.9079(5) 0.0810(2) 0.5994(5)
N1 N 1.0525(5) 0.0908(2) 0.7250(4)
C4 C 1.0381(7) 0.0860(3) 0.8679(5)
C5 C 1.1538(7) 0.0438(3) 0.7199(7)
C6 C 1.1124(5) 0.1518(2) 0.7078(6)
C7 C 1.0103(6) 0.2029(2) 0.6938(6)
O1 O 0.7650(4) 0.2376(2) 0.5577(4)
C8 C 0.7588(5) 0.2876(2) 0.4806(5)
O2 O 0.8237(5) 0.2935(2) 0.4075(4)
C9 C 0.6760(4) 0.3370(2) 0.5152(4)
C10 C 0.4613(4) 0.2679(1) 0.4826(3)
C11 C 0.3406 0.2549 0.5115
C12 C 0.3072 0.2916 0.6062
C13 C 0.3945 0.3412 0.6720
C14 C 0.5152 0.3542 0.6432
C15 C 0.5486 0.3176 0.5485
C16 C 0.5186(4) 0.3751(2) 0.2617(4)
C17 C 0.4765 0.4207 0.1572
C18 C 0.5456 0.4768 0.1890
C19 C 0.6568 0.4873 0.3254
C20 C 0.6989 0.4416 0.4299
C21 C 0.6298 0.3855 0.3981
H1 H 0.8838 0.1900 0.4773
H2 H 0.7154 0.1238 0.4974
H3 H 0.7820 0.1332 0.6662
H4 H 0.8667 0.0440 0.6154
H5 H 0.9232 0.0776 0.5118
H6 H 0.9727 0.1167 0.8719
H7 H 1.1339 0.0943 0.9396
H8 H 1.0067 0.0473 0.8870
H9 H 1.1146 0.0062 0.7351
H10 H 1.2455 0.0512 0.7995
H11 H 1.1671 0.0418 0.6311
H12 H 1.1317 0.1507 0.6222
H13 H 1.2011 0.1589 0.7913
H14 H 0.9938 0.2058 0.7808
H15 H 1.0514 0.2400 0.6789
H16 H 0.7444 0.3531 0.6057
H17 H 0.4843 0.2427 0.4175
H18 H 0.2805 0.2208 0.4662
H19 H 0.2241 0.2826 0.6261
H20 H 0.3716 0.3664 0.7372
H21 H 0.5753 0.3884 0.6885
H22 H 0.4711 0.3364 0.2399
H23 H 0.4000 0.4135 0.0634
H24 H 0.5166 0.5083 0.1171
H25 H 0.7044 0.5259 0.3473
H26 H 0.7755 0.4488 0.5237
loop_
_geom_bond_atom_site_label_1
_geom_bond_atom_site_label_2
_geom_bond_site_symmetry_1
_geom_bond_site_symmetry_2
C1 C2 1_555 1_555
C2 C3 1_555 1_555
C3 N1 1_555 1_555
N1 C4 1_555 1_555
C4 H6 1_555 1_555
C5 N1 1_555 1_555
C6 N1 1_555 1_555
C7 C1 1_555 1_555
O1 C1 1_555 1_555
C8 O1 1_555 1_555
O2 C8 1_555 1_555
C9 C8 1_555 1_555
C10 C11 1_555 1_555
C11 C12 1_555 1_555
C12 C13 1_555 1_555
C13 C14 1_555 1_555
C14 C15 1_555 1_555
C15 C9 1_555 1_555
C16 C17 1_555 1_555
C17 C18 1_555 1_555
C18 C19 1_555 1_555
C19 C20 1_555 1_555
C20 C21 1_555 1_555
C21 C9 1_555 1_555
H1 C1 1_555 1_555
H2 C2 1_555 1_555
H3 C2 1_555 1_555
H4 C3 1_555 1_555
H5 C3 1_555 1_555
H7 C4 1_555 1_555
H8 C4 1_555 1_555
H9 C5 1_555 1_555
H10 C5 1_555 1_555
H11 C5 1_555 1_555
H12 C6 1_555 1_555
H13 C6 1_555 1_555
H14 C7 1_555 1_555
H15 C7 1_555 1_555
H16 C9 1_555 1_555
H17 C10 1_555 1_555
H18 C11 1_555 1_555
H19 C12 1_555 1_555
H20 C13 1_555 1_555
H21 C14 1_555 1_555
H22 C16 1_555 1_555
H23 C17 1_555 1_555
H24 C18 1_555 1_555
H25 C19 1_555 1_555
H26 C20 1_555 1_555
C6 C7 1_555 1_555
C10 C15 1_555 1_555
C16 C21 1_555 1_555

#END
