
#######################################################################
#
#                 Cambridge Crystallographic Data Centre
#                                CCDC 
#
#######################################################################
#
# If this CIF has been generated from an entry in the Cambridge 
# Structural Database, then it will include bibliographic, chemical, 
# crystal, experimental, refinement or atomic coordinate data resulting 
# from the CCDC's data processing and validation procedures.
#
#######################################################################

data_DUTPEO
_chemical_compound_source        'Trichoderma taxi sp. nov'
_chemical_name_common            Trichodermin
_chemical_formula_moiety         'C22 H25 F1 O4'
_chemical_name_systematic        
'12,13-Epoxytrichothec-9-en-4\b-yl 4-fluorobenzoate'
_chemical_properties_biological  'fungicidal activity'
_symmetry_cell_setting           orthorhombic
_symmetry_space_group_name_H-M   'P 21 21 21'
_symmetry_Int_Tables_number      19
_space_group_name_Hall           'P 2ac 2ab'
loop_
_symmetry_equiv_pos_site_id
_symmetry_equiv_pos_as_xyz
1 x,y,z
2 1/2-x,-y,1/2+z
3 1/2+x,1/2-y,-z
4 -x,1/2+y,1/2-z
_cell_length_a                   8.1643(4)
_cell_length_b                   9.9979(4)
_cell_length_c                   23.6503(9)
_cell_angle_alpha                90
_cell_angle_beta                 90
_cell_angle_gamma                90
_cell_volume                     1930.48
_exptl_crystal_colour            colorless
_exptl_crystal_description       chunk
_cell_formula_units_Z            4
_exptl_crystal_recrystallization_method ethanol
loop_
_atom_site_label
_atom_site_type_symbol
_atom_site_fract_x
_atom_site_fract_y
_atom_site_fract_z
O1 O 0.5928(2) 0.17729(19) 0.38572(8)
O2 O 0.3925(2) 0.58802(17) 0.41271(7)
C1 C 0.3220(3) 0.4541(3) 0.32881(10)
C2 C 0.3644(3) 0.3262(2) 0.36490(10)
C3 C 0.4116(3) 0.5769(2) 0.35259(9)
H1 H 0.5286 0.5683 0.3440
O3 O 0.8524(3) 0.2138(2) 0.35947(10)
C4 C 0.7821(3) 0.0043(3) 0.40042(10)
C5 C 0.2105(4) 0.7223(3) 0.30230(11)
C6 C 0.1381(3) 0.4869(3) 0.33098(11)
H2 H 0.0763 0.4100 0.3179
H3 H 0.1066 0.5044 0.3698
C7 C 0.3514(4) 0.7072(3) 0.32885(11)
H4 H 0.4177 0.7821 0.3331
C8 C 0.6592(4) -0.0777(3) 0.42095(12)
H5 H 0.5513 -0.0480 0.4210
O4 O 0.2982(3) 0.2494(2) 0.46425(8)
C9 C 0.0950(4) 0.6076(3) 0.29473(12)
H6 H 0.0952 0.5810 0.2553
H7 H -0.0149 0.6369 0.3041
C10 C 0.7495(3) 0.1413(3) 0.37958(11)
C11 C 0.9427(4) -0.0412(3) 0.40068(11)
H8 H 1.0257 0.0137 0.3869
F1 F 0.8929(3) -0.36743(17) 0.46149(10)
C12 C 0.8560(4) -0.2447(3) 0.44071(14)
C13 C 0.5964(4) 0.4062(3) 0.42280(13)
H9 H 0.6725 0.4758 0.4117
H10 H 0.6451 0.3541 0.4530
C14 C 0.1585(4) 0.8535(3) 0.27722(11)
H11 H 0.2345 0.9220 0.2882
H12 H 0.0511 0.8762 0.2907
H13 H 0.1564 0.8463 0.2367
C15 C 0.3138(3) 0.3591(3) 0.42485(11)
C16 C 0.2899(4) 0.1980(3) 0.34125(13)
H14 H 0.2996 0.1277 0.3687
H15 H 0.3469 0.1728 0.3074
H16 H 0.1764 0.2126 0.3327
C17 C 0.3756(4) 0.4322(3) 0.26721(11)
H17 H 0.3711 0.5156 0.2472
H18 H 0.3035 0.3690 0.2495
H19 H 0.4855 0.3983 0.2665
C18 C 0.5533(3) 0.3168(3) 0.37240(12)
H20 H 0.6103 0.3463 0.3381
C19 C 0.4327(4) 0.4666(3) 0.44166(11)
H21 H 0.4312 0.4802 0.4827
C20 C 0.1571(4) 0.3327(3) 0.45174(12)
H22 H 0.1204 0.3945 0.4807
H23 H 0.0706 0.2946 0.4287
C21 C 0.6964(4) -0.2039(3) 0.44136(14)
H24 H 0.6145 -0.2596 0.4552
C22 C 0.9811(4) -0.1672(3) 0.42114(13)
H25 H 1.0887 -0.1979 0.4215
loop_
_geom_bond_atom_site_label_1
_geom_bond_atom_site_label_2
_geom_bond_site_symmetry_1
_geom_bond_site_symmetry_2
O1 C10 1_555 1_555
O2 C3 1_555 1_555
C1 C2 1_555 1_555
C2 C15 1_555 1_555
C3 C1 1_555 1_555
H1 C3 1_555 1_555
O3 C10 1_555 1_555
C4 C8 1_555 1_555
C5 C7 1_555 1_555
C6 C1 1_555 1_555
H2 C6 1_555 1_555
H3 C6 1_555 1_555
C7 C3 1_555 1_555
H4 C7 1_555 1_555
C8 H5 1_555 1_555
O4 C15 1_555 1_555
C9 C5 1_555 1_555
H6 C9 1_555 1_555
H7 C9 1_555 1_555
C10 C4 1_555 1_555
C11 C4 1_555 1_555
H8 C11 1_555 1_555
F1 C12 1_555 1_555
C12 C21 1_555 1_555
C13 H9 1_555 1_555
H10 C13 1_555 1_555
C14 C5 1_555 1_555
H11 C14 1_555 1_555
H12 C14 1_555 1_555
H13 C14 1_555 1_555
C15 C19 1_555 1_555
C16 C2 1_555 1_555
H14 C16 1_555 1_555
H15 C16 1_555 1_555
H16 C16 1_555 1_555
C17 C1 1_555 1_555
H17 C17 1_555 1_555
H18 C17 1_555 1_555
H19 C17 1_555 1_555
C18 O1 1_555 1_555
H20 C18 1_555 1_555
C19 O2 1_555 1_555
H21 C19 1_555 1_555
C20 O4 1_555 1_555
H22 C20 1_555 1_555
H23 C20 1_555 1_555
C21 C8 1_555 1_555
H24 C21 1_555 1_555
C22 C11 1_555 1_555
H25 C22 1_555 1_555
C2 C18 1_555 1_555
C6 C9 1_555 1_555
C12 C22 1_555 1_555
C13 C18 1_555 1_555
C13 C19 1_555 1_555
C15 C20 1_555 1_555

#END
