
#######################################################################
#
#                 Cambridge Crystallographic Data Centre
#                                CCDC 
#
#######################################################################
#
# If this CIF has been generated from an entry in the Cambridge 
# Structural Database, then it will include bibliographic, chemical, 
# crystal, experimental, refinement or atomic coordinate data resulting 
# from the CCDC's data processing and validation procedures.
#
#######################################################################

data_DUTROA
_chemical_compound_source        'Xylocarpus moluccensis an Indian mangrove'
_chemical_name_common            
'9-(3-Furyl)-19-hydroxy-15-(2-methoxy-2-oxoethyl)-10,14,16-trimethyl-7-oxo-3,8,18-trioxahexacyclo[14.3.1.0$2,4!.0$4,13!.0$5,10!.0$14,19!]icos-20-yl 2-methylbut-2-enoate'
_chemical_formula_moiety         'C32 H40 O10'
_chemical_name_systematic        
'(1R,4aR,4bS,5aR,6aR,9R,10S,10aS,10bR,12aR,13R)-1-(furan-3-yl)-6a-hydroxy-10-(2-methoxy-2-oxoethyl)-9,10a,12a-trimethyl-3-oxododecahydro-1H,3H,5aH-6,9-methanoisochromeno[6,5-f]oxireno[g]chromen-13-yl (2E)-2-methylbut-2-enoate'
_symmetry_cell_setting           orthorhombic
_symmetry_space_group_name_H-M   'P 21 21 21'
_symmetry_Int_Tables_number      19
_space_group_name_Hall           'P 2ac 2ab'
loop_
_symmetry_equiv_pos_site_id
_symmetry_equiv_pos_as_xyz
1 x,y,z
2 1/2-x,-y,1/2+z
3 -x,1/2+y,1/2-z
4 1/2+x,1/2-y,-z
_cell_length_a                   8.3859(4)
_cell_length_b                   11.0454(5)
_cell_length_c                   31.0799(13)
_cell_angle_alpha                90
_cell_angle_beta                 90
_cell_angle_gamma                90
_cell_volume                     2878.8
_exptl_crystal_colour            colorless
_exptl_crystal_description       block
_cell_formula_units_Z            4
loop_
_atom_site_label
_atom_site_type_symbol
_atom_site_fract_x
_atom_site_fract_y
_atom_site_fract_z
C1 C 0.5981(3) 0.5741(2) 0.22231(7)
C2 C 0.7232(3) 0.6275(2) 0.19155(7)
H1 H 0.7917 0.6848 0.2082
C3 C 0.6325(3) 0.7006(2) 0.15695(7)
H2 H 0.6422 0.7889 0.1635
C4 C 0.4563(3) 0.6652(2) 0.15701(7)
C5 C 0.4478(3) 0.5242(2) 0.15534(7)
H3 H 0.5271 0.4973 0.1333
C6 C 0.2853(3) 0.4755(2) 0.14117(7)
H4 H 0.2777 0.3897 0.1501
H5 H 0.2015 0.5207 0.1568
C7 C 0.2499(3) 0.4829(2) 0.09360(7)
C8 C 0.7803(3) 0.4010(2) 0.17338(7)
C9 C 0.6201(3) 0.36277(19) 0.19238(7)
H6 H 0.6436 0.3283 0.2214
C10 C 0.5048(3) 0.4712(2) 0.19984(7)
C11 C 0.5487(3) 0.2586(2) 0.16552(7)
H7 H 0.4458 0.2333 0.1783
H8 H 0.5280 0.2874 0.1359
C12 C 0.6618(3) 0.1505(2) 0.16406(8)
H9 H 0.6235 0.0933 0.1418
H10 H 0.6574 0.1084 0.1921
C13 C 0.8391(3) 0.1833(2) 0.15411(7)
C14 C 0.8571(3) 0.31658(19) 0.14091(7)
H11 H 0.9738 0.3352 0.1406
C15 C 0.7927(3) 0.3404(2) 0.09497(7)
H12 H 0.6988 0.3943 0.0975
H13 H 0.8755 0.3853 0.0788
C16 C 0.7446(3) 0.2319(2) 0.06835(7)
C17 C 0.8969(3) 0.1031(2) 0.11665(7)
H14 H 0.8806 0.0173 0.1259
C18 C 0.9417(3) 0.1573(2) 0.19414(7)
H15 H 1.0508 0.1857 0.1891
H16 H 0.9429 0.0700 0.1998
H17 H 0.8966 0.1997 0.2190
C19 C 0.3680(3) 0.4315(2) 0.22968(7)
H18 H 0.4090 0.4204 0.2589
H19 H 0.3230 0.3551 0.2193
H20 H 0.2848 0.4939 0.2298
C20 C 1.0686(3) 0.1145(2) 0.10408(8)
C21 C 1.1915(3) 0.0517(3) 0.12110(9)
H21 H 1.1806 -0.0064 0.1435
C22 C 1.1390(3) 0.1892(2) 0.07166(9)
H22 H 1.0848 0.2445 0.0534
C23 C 1.2970(3) 0.1660(2) 0.07200(10)
H23 H 1.3731 0.2034 0.0536
C24 C 0.3676(3) 0.7303(2) 0.12087(7)
H24 H 0.2525 0.7192 0.1246
H25 H 0.4003 0.6966 0.0931
H26 H 0.3931 0.8168 0.1217
C25 C 0.3932(3) 0.7090(2) 0.20030(7)
H27 H 0.3890 0.7986 0.2004
H28 H 0.2834 0.6783 0.2046
C26 C 0.8289(3) 0.5291(2) 0.17323(7)
H29 H 0.9032 0.5542 0.1497
C27 C 0.3549(4) 0.4634(3) 0.02342(7)
H30 H 0.2752 0.4020 0.0160
H31 H 0.4555 0.4450 0.0088
H32 H 0.3168 0.5433 0.0143
C28 C 0.8270(3) 0.7374(2) 0.10287(7)
C29 C 0.8800(3) 0.7130(2) 0.05808(7)
C30 C 0.8116(3) 0.6249(2) 0.03490(7)
H33 H 0.7187 0.5880 0.0464
C31 C 0.8694(4) 0.5802(3) -0.00750(8)
H34 H 0.9248 0.6458 -0.0226
H35 H 0.7784 0.5530 -0.0248
H36 H 0.9430 0.5124 -0.0030
C32 C 1.0232(3) 0.7845(3) 0.04405(8)
H37 H 1.1197 0.7488 0.0565
H38 H 1.0125 0.8684 0.0539
H39 H 1.0309 0.7831 0.0126
O1 O 0.6661(2) 0.53802(16) 0.26154(5)
H40 H 0.7477 0.4960 0.2567
O2 O 0.69261(19) 0.67773(14) 0.11384(5)
O3 O 0.8976(2) 0.80205(15) 0.12781(5)
O4 O 0.1193(2) 0.50008(15) 0.07891(6)
O5 O 0.3803(2) 0.46342(16) 0.06975(5)
O6 O 0.89406(19) 0.44735(15) 0.20546(5)
O7 O 0.6602(2) 0.24246(16) 0.03686(5)
O8 O 0.7975(2) 0.12148(15) 0.07864(5)
O9 O 1.3317(2) 0.0814(2) 0.10248(7)
O10 O 0.4921(2) 0.66853(14) 0.23485(5)
loop_
_geom_bond_atom_site_label_1
_geom_bond_atom_site_label_2
_geom_bond_site_symmetry_1
_geom_bond_site_symmetry_2
C1 C2 1_555 1_555
C2 H1 1_555 1_555
C3 C2 1_555 1_555
H2 C3 1_555 1_555
C4 C3 1_555 1_555
C5 C4 1_555 1_555
H3 C5 1_555 1_555
C6 C5 1_555 1_555
H4 C6 1_555 1_555
H5 C6 1_555 1_555
C7 C6 1_555 1_555
C8 C9 1_555 1_555
C9 H6 1_555 1_555
C10 C1 1_555 1_555
C11 C9 1_555 1_555
H7 C11 1_555 1_555
H8 C11 1_555 1_555
C12 C11 1_555 1_555
H9 C12 1_555 1_555
H10 C12 1_555 1_555
C13 C12 1_555 1_555
C14 C8 1_555 1_555
H11 C14 1_555 1_555
C15 C14 1_555 1_555
H12 C15 1_555 1_555
H13 C15 1_555 1_555
C16 C15 1_555 1_555
C17 C13 1_555 1_555
H14 C17 1_555 1_555
C18 C13 1_555 1_555
H15 C18 1_555 1_555
H16 C18 1_555 1_555
H17 C18 1_555 1_555
C19 C10 1_555 1_555
H18 C19 1_555 1_555
H19 C19 1_555 1_555
H20 C19 1_555 1_555
C20 C17 1_555 1_555
C21 C20 1_555 1_555
H21 C21 1_555 1_555
C22 C20 1_555 1_555
H22 C22 1_555 1_555
C23 C22 1_555 1_555
H23 C23 1_555 1_555
C24 C4 1_555 1_555
H24 C24 1_555 1_555
H25 C24 1_555 1_555
H26 C24 1_555 1_555
C25 C4 1_555 1_555
H27 C25 1_555 1_555
H28 C25 1_555 1_555
C26 C2 1_555 1_555
H29 C26 1_555 1_555
C27 H30 1_555 1_555
H31 C27 1_555 1_555
H32 C27 1_555 1_555
C28 C29 1_555 1_555
C29 C30 1_555 1_555
C30 H33 1_555 1_555
C31 C30 1_555 1_555
H34 C31 1_555 1_555
H35 C31 1_555 1_555
H36 C31 1_555 1_555
C32 C29 1_555 1_555
H37 C32 1_555 1_555
H38 C32 1_555 1_555
H39 C32 1_555 1_555
O1 C1 1_555 1_555
H40 O1 1_555 1_555
O2 C3 1_555 1_555
O3 C28 1_555 1_555
O4 C7 1_555 1_555
O5 C7 1_555 1_555
O6 C8 1_555 1_555
O7 C16 1_555 1_555
O8 C16 1_555 1_555
O9 C21 1_555 1_555
O10 C1 1_555 1_555
C5 C10 1_555 1_555
C8 C26 1_555 1_555
C9 C10 1_555 1_555
C13 C14 1_555 1_555
C17 O8 1_555 1_555
C23 O9 1_555 1_555
C25 O10 1_555 1_555
C26 O6 1_555 1_555
C27 O5 1_555 1_555
C28 O2 1_555 1_555

#END
