
#######################################################################
#
#                 Cambridge Crystallographic Data Centre
#                                CCDC 
#
#######################################################################
#
# If this CIF has been generated from an entry in the Cambridge 
# Structural Database, then it will include bibliographic, chemical, 
# crystal, experimental, refinement or atomic coordinate data resulting 
# from the CCDC's data processing and validation procedures.
#
#######################################################################

data_DUTSER
_chemical_name_common            '2-Ethoxy-2-oxoethanaminium chloride'
_chemical_formula_moiety         'C4 H10 N1 O2 1+,Cl1 1-'
_chemical_name_systematic        '3-ethoxy-3-oxopropan-1-aminium chloride'
_symmetry_cell_setting           monoclinic
_symmetry_space_group_name_H-M   'P 21/c'
_symmetry_Int_Tables_number      14
_space_group_name_Hall           '-P 2ybc'
loop_
_symmetry_equiv_pos_site_id
_symmetry_equiv_pos_as_xyz
1 x,y,z
2 -x,1/2+y,1/2-z
3 -x,-y,-z
4 x,1/2-y,1/2+z
_cell_length_a                   8.965(3)
_cell_length_b                   12.543(4)
_cell_length_c                   5.972(2)
_cell_angle_alpha                90
_cell_angle_beta                 103.630(5)
_cell_angle_gamma                90
_cell_volume                     652.627
_exptl_crystal_colour            colorless
_exptl_crystal_description       block
_cell_formula_units_Z            4
loop_
_atom_site_label
_atom_site_type_symbol
_atom_site_fract_x
_atom_site_fract_y
_atom_site_fract_z
Cl1 Cl -0.00205(3) 0.38254(2) 0.24012(5)
O1 O 0.52878(10) 0.38513(7) 0.85715(16)
O2 O 0.34886(10) 0.29775(7) 0.59414(15)
N1 N 0.11868(13) 0.36318(9) 0.7845(2)
C1 C 0.38589(14) 0.35635(9) 0.7575(2)
C2 C 0.27318(14) 0.40847(10) 0.8745(2)
H1 H 0.3056 0.3965 1.0429
H2 H 0.2709 0.4863 0.8461
C3 C 0.64973(15) 0.34018(11) 0.7579(2)
H3 H 0.6205 0.2672 0.7010
H4 H 0.7464 0.3354 0.8786
C4 C 0.67496(16) 0.40810(11) 0.5624(2)
H5 H 0.5809 0.4096 0.4392
H6 H 0.7589 0.3782 0.5029
H7 H 0.7015 0.4808 0.6179
H8 H 0.0807(19) 0.3806(11) 0.635(3)
H9 H 0.054(2) 0.3873(13) 0.869(3)
H10 H 0.1184(19) 0.2925(15) 0.797(3)
loop_
_geom_bond_atom_site_label_1
_geom_bond_atom_site_label_2
_geom_bond_site_symmetry_1
_geom_bond_site_symmetry_2
O1 C1 1_555 1_555
O2 C1 1_555 1_555
N1 C2 1_555 1_555
C1 C2 1_555 1_555
C2 H1 1_555 1_555
H2 C2 1_555 1_555
C3 O1 1_555 1_555
H3 C3 1_555 1_555
H4 C3 1_555 1_555
C4 C3 1_555 1_555
H5 C4 1_555 1_555
H6 C4 1_555 1_555
H7 C4 1_555 1_555
H8 N1 1_555 1_555
H9 N1 1_555 1_555
H10 N1 1_555 1_555

#END
