
#######################################################################
#
#                 Cambridge Crystallographic Data Centre
#                                CCDC 
#
#######################################################################
#
# If this CIF has been generated from an entry in the Cambridge 
# Structural Database, then it will include bibliographic, chemical, 
# crystal, experimental, refinement or atomic coordinate data resulting 
# from the CCDC's data processing and validation procedures.
#
#######################################################################

data_DUTVEU
_chemical_name_common            
1$2!,1$5!-dibromo-3,7-dithia-1(1,4)-benzena-5(2,6)-pyridinacyclo-octaphane
_chemical_formula_moiety         'C15 H13 Br2 N1 S2'
_chemical_name_systematic        
14,16-Dibromo-3,11-dithia-18-azatricyclo[11.2.2.1^5,9^]octadeca-1(15),5(18),6,8,13,16-hexaene
_symmetry_cell_setting           monoclinic
_symmetry_space_group_name_H-M   'P 21/n'
_symmetry_Int_Tables_number      14
_space_group_name_Hall           '-P 2yn'
loop_
_symmetry_equiv_pos_site_id
_symmetry_equiv_pos_as_xyz
1 x,y,z
2 1/2-x,1/2+y,1/2-z
3 -x,-y,-z
4 1/2+x,1/2-y,1/2+z
_cell_length_a                   8.9275(15)
_cell_length_b                   18.879(3)
_cell_length_c                   9.3213(15)
_cell_angle_alpha                90
_cell_angle_beta                 103.878(3)
_cell_angle_gamma                90
_cell_volume                     1525.17
_exptl_crystal_colour            colorless
_exptl_crystal_description       block
_cell_formula_units_Z            4
loop_
_atom_site_label
_atom_site_type_symbol
_atom_site_fract_x
_atom_site_fract_y
_atom_site_fract_z
Br1 Br 0.63099(3) 0.048688(14) 0.87832(3)
Br2 Br 0.22924(4) 0.139645(16) 0.22281(3)
C1 C 0.3799(3) 0.03373(12) 0.6206(3)
C2 C 0.5079(3) 0.07344(12) 0.6886(3)
C3 C 0.5520(3) 0.13348(12) 0.6246(3)
H1 H 0.6384 0.1587 0.6742
C4 C 0.4686(3) 0.15680(13) 0.4867(3)
C5 C 0.3444(3) 0.11522(13) 0.4148(3)
C6 C 0.3002(3) 0.05574(12) 0.4802(3)
H2 H 0.2154 0.0298 0.4295
C7 C 0.5137(3) 0.22521(13) 0.4279(3)
H3 H 0.5180 0.2181 0.3259
H4 H 0.6168 0.2376 0.4835
C8 C 0.3410(3) 0.28873(14) 0.6143(3)
H5 H 0.4332 0.2727 0.6849
H6 H 0.3134 0.3346 0.6471
C9 C 0.2123(3) 0.23745(12) 0.6156(2)
C10 C 0.0700(3) 0.24389(14) 0.5179(3)
H7 H 0.0501 0.2810 0.4505
C11 C -0.0417(3) 0.19455(15) 0.5220(3)
H8 H -0.1389 0.1982 0.4580
C12 C -0.0085(3) 0.13961(13) 0.6216(3)
H9 H -0.0819 0.1050 0.6243
C13 C 0.1362(3) 0.13660(11) 0.7180(3)
C14 C 0.1781(3) 0.07834(13) 0.8309(3)
H10 H 0.1171 0.0840 0.9034
H11 H 0.2858 0.0835 0.8820
C15 C 0.3230(3) -0.02833(13) 0.6927(3)
H12 H 0.4036 -0.0430 0.7770
H13 H 0.3036 -0.0674 0.6232
N1 N 0.2443(2) 0.18540(10) 0.7172(2)
S1 S 0.14839(8) -0.01069(3) 0.75438(8)
S2 S 0.38563(7) 0.29931(3) 0.43559(7)
loop_
_geom_bond_atom_site_label_1
_geom_bond_atom_site_label_2
_geom_bond_site_symmetry_1
_geom_bond_site_symmetry_2
Br1 C2 1_555 1_555
Br2 C5 1_555 1_555
C1 C2 1_555 1_555
C2 C3 1_555 1_555
C3 H1 1_555 1_555
C4 C3 1_555 1_555
C5 C4 1_555 1_555
C6 C1 1_555 1_555
H2 C6 1_555 1_555
C7 C4 1_555 1_555
H3 C7 1_555 1_555
H4 C7 1_555 1_555
C8 H5 1_555 1_555
H6 C8 1_555 1_555
C9 C8 1_555 1_555
C10 C9 1_555 1_555
H7 C10 1_555 1_555
C11 C10 1_555 1_555
H8 C11 1_555 1_555
C12 C11 1_555 1_555
H9 C12 1_555 1_555
C13 C12 1_555 1_555
C14 C13 1_555 1_555
H10 C14 1_555 1_555
H11 C14 1_555 1_555
C15 C1 1_555 1_555
H12 C15 1_555 1_555
H13 C15 1_555 1_555
N1 C9 1_555 1_555
S1 C14 1_555 1_555
S2 C7 1_555 1_555
C5 C6 1_555 1_555
C8 S2 1_555 1_555
C13 N1 1_555 1_555
C15 S1 1_555 1_555

#END
