
#######################################################################
#
#                 Cambridge Crystallographic Data Centre
#                                CCDC 
#
#######################################################################
#
# If this CIF has been generated from an entry in the Cambridge 
# Structural Database, then it will include bibliographic, chemical, 
# crystal, experimental, refinement or atomic coordinate data resulting 
# from the CCDC's data processing and validation procedures.
#
#######################################################################

data_DUTXIA
_chemical_name_common            
'O,O-Dimethyl S-phthalimidomethyl phosphorodithioate'
_chemical_formula_moiety         'C11 H12 N1 O4 P1 S2'
_chemical_name_systematic        
'S-((1,3-Dioxo-1,3-dihydro-2H-isoindol-2-yl)methyl) O,O-dimethyl phosphorodithioate'
_symmetry_cell_setting           triclinic
_symmetry_space_group_name_H-M   'P -1'
_symmetry_Int_Tables_number      2
_space_group_name_Hall           '-P 1'
loop_
_symmetry_equiv_pos_site_id
_symmetry_equiv_pos_as_xyz
1 x,y,z
2 -x,-y,-z
_cell_length_a                   8.3428(18)
_cell_length_b                   8.6014(19)
_cell_length_c                   10.218(2)
_cell_angle_alpha                85.253(10)
_cell_angle_beta                 81.478(10)
_cell_angle_gamma                83.961(9)
_cell_volume                     719.438
_exptl_crystal_colour            colorless
_exptl_crystal_description       block
_cell_formula_units_Z            2
loop_
_atom_site_label
_atom_site_type_symbol
_atom_site_fract_x
_atom_site_fract_y
_atom_site_fract_z
S1 S 0.09888(5) 0.15933(5) 0.28102(5)
S2 S 0.43827(4) 0.15124(4) 0.39691(3)
P1 P 0.32713(4) 0.16877(4) 0.22735(3)
O1 O 0.41933(14) 0.04388(11) 0.13285(10)
O2 O 0.38169(14) 0.31782(11) 0.13866(10)
O3 O 0.75419(15) 0.31462(15) 0.07640(10)
O4 O 0.72161(16) 0.33782(15) 0.52567(10)
N1 N 0.71376(14) 0.29623(13) 0.30631(11)
C1 C 0.4028(2) -0.12177(17) 0.16526(19)
H1 H 0.4367 -0.1523 0.2523
H2 H 0.4716 -0.1830 0.0979
H3 H 0.2889 -0.1418 0.1674
C2 C 0.3344(2) 0.47159(17) 0.18799(18)
H4 H 0.2154 0.4890 0.2049
H5 H 0.3767 0.5518 0.1218
H6 H 0.3791 0.4780 0.2706
C3 C 0.65366(16) 0.14476(16) 0.32840(14)
H7 H 0.7178 0.0791 0.3900
H8 H 0.6704 0.0942 0.2432
C4 C 0.76056(16) 0.36963(16) 0.18021(13)
C5 C 0.82125(17) 0.51897(16) 0.20613(14)
C6 C 0.8801(2) 0.63735(19) 0.11828(17)
H9 H 0.8815 0.6351 0.0253
C7 C 0.9376(2) 0.76105(19) 0.1734(2)
H10 H 0.9779 0.8456 0.1165
C8 C 0.9370(2) 0.76272(19) 0.3089(2)
H11 H 0.9788 0.8474 0.3428
C9 C 0.8763(2) 0.64295(19) 0.39698(17)
H12 H 0.8758 0.6442 0.4899
C10 C 0.81732(17) 0.52298(17) 0.34284(14)
C11 C 0.74723(17) 0.38001(17) 0.40935(13)
loop_
_geom_bond_atom_site_label_1
_geom_bond_atom_site_label_2
_geom_bond_site_symmetry_1
_geom_bond_site_symmetry_2
S1 P1 1_555 1_555
S2 P1 1_555 1_555
P1 O1 1_555 1_555
O1 C1 1_555 1_555
O2 P1 1_555 1_555
O3 C4 1_555 1_555
O4 C11 1_555 1_555
N1 C3 1_555 1_555
C1 H1 1_555 1_555
H2 C1 1_555 1_555
H3 C1 1_555 1_555
C2 O2 1_555 1_555
H4 C2 1_555 1_555
H5 C2 1_555 1_555
H6 C2 1_555 1_555
C3 S2 1_555 1_555
H7 C3 1_555 1_555
H8 C3 1_555 1_555
C4 N1 1_555 1_555
C5 C4 1_555 1_555
C6 C5 1_555 1_555
H9 C6 1_555 1_555
C7 C6 1_555 1_555
H10 C7 1_555 1_555
C8 C7 1_555 1_555
H11 C8 1_555 1_555
C9 C8 1_555 1_555
H12 C9 1_555 1_555
C10 C5 1_555 1_555
C11 N1 1_555 1_555
C9 C10 1_555 1_555
C10 C11 1_555 1_555

#END
