
#######################################################################
#
#                 Cambridge Crystallographic Data Centre
#                                CCDC 
#
#######################################################################
#
# If this CIF has been generated from an entry in the Cambridge 
# Structural Database, then it will include bibliographic, chemical, 
# crystal, experimental, refinement or atomic coordinate data resulting 
# from the CCDC's data processing and validation procedures.
#
#######################################################################

data_DUTZAV
_chemical_formula_moiety         'C21 H23 N1 O7'
_chemical_name_systematic        
'dimethyl 2-t-butyl-1,3-dioxo-6-phenyl-1,2,3,7a-tetrahydropyrano[3,4-c]pyrrole-3a,4(4H)-dicarboxylate'
_symmetry_cell_setting           triclinic
_symmetry_space_group_name_H-M   'P -1'
_symmetry_Int_Tables_number      2
_space_group_name_Hall           '-P 1'
loop_
_symmetry_equiv_pos_site_id
_symmetry_equiv_pos_as_xyz
1 x,y,z
2 -x,-y,-z
_cell_length_a                   8.6216(13)
_cell_length_b                   9.7362(15)
_cell_length_c                   13.104(2)
_cell_angle_alpha                91.924(2)
_cell_angle_beta                 104.975(2)
_cell_angle_gamma                108.523(2)
_cell_volume                     999.502
_exptl_crystal_colour            red
_exptl_crystal_description       block
_cell_formula_units_Z            2
loop_
_atom_site_label
_atom_site_type_symbol
_atom_site_fract_x
_atom_site_fract_y
_atom_site_fract_z
O1 O 0.71517(14) 0.67262(11) 0.25895(9)
N1 N 0.90104(16) 1.16472(12) 0.26858(9)
O2 O 0.59603(16) 0.74348(13) 0.41618(10)
O3 O 1.11405(15) 0.94031(14) 0.17695(11)
O4 O 1.08044(17) 1.10603(13) 0.41195(10)
O5 O 0.65476(17) 1.12456(13) 0.12975(11)
O6 O 0.66934(18) 0.97152(15) 0.37495(11)
C1 C 0.77837(18) 0.93368(15) 0.16225(11)
H1 H 0.8349 0.9373 0.1059
C2 C 0.80634(19) 0.80708(16) 0.32742(12)
H2 H 0.8917 0.7897 0.3863
C3 C 0.59197(19) 0.68501(16) 0.17121(12)
C4 C 1.05178(19) 0.87589(16) 0.25317(14)
C5 C 0.97499(19) 1.07434(16) 0.32692(12)
C6 C 0.90141(18) 0.91963(15) 0.26565(11)
C7 C 0.6838(2) 0.85344(18) 0.37441(12)
C8 C 0.61331(19) 0.80861(15) 0.12767(11)
H3 H 0.5234 0.8176 0.0743
O7 O 1.10834(18) 0.79609(16) 0.30534(14)
C9 C 0.4457(2) 0.54686(16) 0.13586(13)
C10 C 0.7640(2) 1.08368(16) 0.18238(12)
C11 C 0.9317(2) 1.32130(16) 0.30950(13)
C12 C 0.3199(3) 0.5273(2) 0.04146(15)
H4 H 0.3257 0.6026 -0.0008
C13 C 0.1761(3) 0.2831(2) 0.06854(17)
H5 H 0.0867 0.1949 0.0457
C14 C 0.3004(3) 0.3013(2) 0.1620(2)
H6 H 0.2952 0.2247 0.2031
C15 C 0.4343(3) 0.4325(2) 0.19646(18)
H7 H 0.5169 0.4436 0.2608
C16 C 0.8131(3) 1.3190(2) 0.37733(19)
H8 H 0.6971 1.2721 0.3352
H9 H 0.8289 1.4172 0.4034
H10 H 0.8381 1.2661 0.4364
C17 C 0.8991(3) 1.40609(19) 0.21607(16)
H11 H 0.9651 1.3949 0.1696
H12 H 0.9314 1.5076 0.2417
H13 H 0.7801 1.3695 0.1777
C18 C 0.1850(3) 0.3968(2) 0.00899(17)
H14 H 0.0996 0.3863 -0.0539
C19 C 1.1184(3) 1.3953(2) 0.37510(19)
H15 H 1.1400 1.3511 0.4392
H16 H 1.1397 1.4974 0.3929
H17 H 1.1921 1.3839 0.3342
C20 C 1.2625(3) 0.9102(3) 0.1625(2)
H18 H 1.3552 0.9460 0.2266
H19 H 1.2952 0.9579 0.1046
H20 H 1.2350 0.8067 0.1468
C21 C 0.4888(3) 0.7759(3) 0.47514(18)
H21 H 0.5572 0.8531 0.5320
H22 H 0.4349 0.6903 0.5041
H23 H 0.4031 0.8060 0.4284
loop_
_geom_bond_atom_site_label_1
_geom_bond_atom_site_label_2
_geom_bond_site_symmetry_1
_geom_bond_site_symmetry_2
O1 C2 1_555 1_555
N1 C5 1_555 1_555
O2 C7 1_555 1_555
O3 C4 1_555 1_555
O4 C5 1_555 1_555
O5 C10 1_555 1_555
O6 C7 1_555 1_555
C1 H1 1_555 1_555
C2 H2 1_555 1_555
C3 O1 1_555 1_555
C4 C6 1_555 1_555
C5 C6 1_555 1_555
C6 C1 1_555 1_555
C7 C2 1_555 1_555
C8 C1 1_555 1_555
H3 C8 1_555 1_555
O7 C4 1_555 1_555
C9 C3 1_555 1_555
C10 N1 1_555 1_555
C11 N1 1_555 1_555
C12 C9 1_555 1_555
H4 C12 1_555 1_555
C13 H5 1_555 1_555
C14 C13 1_555 1_555
H6 C14 1_555 1_555
C15 C9 1_555 1_555
H7 C15 1_555 1_555
C16 C11 1_555 1_555
H8 C16 1_555 1_555
H9 C16 1_555 1_555
H10 C16 1_555 1_555
C17 C11 1_555 1_555
H11 C17 1_555 1_555
H12 C17 1_555 1_555
H13 C17 1_555 1_555
C18 C12 1_555 1_555
H14 C18 1_555 1_555
C19 C11 1_555 1_555
H15 C19 1_555 1_555
H16 C19 1_555 1_555
H17 C19 1_555 1_555
C20 O3 1_555 1_555
H18 C20 1_555 1_555
H19 C20 1_555 1_555
H20 C20 1_555 1_555
C21 O2 1_555 1_555
H21 C21 1_555 1_555
H22 C21 1_555 1_555
H23 C21 1_555 1_555
C1 C10 1_555 1_555
C2 C6 1_555 1_555
C3 C8 1_555 1_555
C13 C18 1_555 1_555
C14 C15 1_555 1_555

#END
