
#######################################################################
#
#                 Cambridge Crystallographic Data Centre
#                                CCDC 
#
#######################################################################
#
# If this CIF has been generated from an entry in the Cambridge 
# Structural Database, then it will include bibliographic, chemical, 
# crystal, experimental, refinement or atomic coordinate data resulting 
# from the CCDC's data processing and validation procedures.
#
#######################################################################

data_DUVDEE
_chemical_name_common            bis(1-(2-bromophenyl)ethylidene)hydrazine
_chemical_formula_moiety         'C16 H14 Br2 N2'
_chemical_name_systematic        
(E,E)-1,2-Bis[1-(2-bromophenyl)ethylidene]hydrazine
_symmetry_cell_setting           orthorhombic
_symmetry_space_group_name_H-M   'P c c a'
_symmetry_Int_Tables_number      54
_space_group_name_Hall           '-P 2a 2ac'
loop_
_symmetry_equiv_pos_site_id
_symmetry_equiv_pos_as_xyz
1 x,y,z
2 1/2-x,-y,z
3 -x,y,1/2-z
4 1/2+x,-y,1/2-z
5 -x,-y,-z
6 1/2+x,y,-z
7 x,-y,1/2+z
8 1/2-x,y,1/2+z
_cell_length_a                   17.2162(3)
_cell_length_b                   11.8414(3)
_cell_length_c                   7.6953(2)
_cell_angle_alpha                90
_cell_angle_beta                 90
_cell_angle_gamma                90
_cell_volume                     1568.79
_exptl_crystal_colour            colorless
_exptl_crystal_description       block
_chemical_melting_point          '387-389 K'
_cell_formula_units_Z            4
_exptl_crystal_recrystallization_method acetone
loop_
_atom_site_label
_atom_site_type_symbol
_atom_site_fract_x
_atom_site_fract_y
_atom_site_fract_z
Br1 Br 0.634618(11) 0.935005(14) 0.01020(2)
N1 N 0.53208(8) 0.65309(11) 0.19436(17)
C1 C 0.64389(9) 0.79361(14) -0.1054(2)
C2 C 0.70442(10) 0.77985(16) -0.2228(2)
H1 H 0.7383 0.8391 -0.2459
C3 C 0.71362(10) 0.67629(16) -0.3054(2)
H2 H 0.7538 0.6662 -0.3847
C4 C 0.66330(11) 0.58836(16) -0.2698(2)
H3 H 0.6695 0.5193 -0.3256
C5 C 0.60342(10) 0.60310(15) -0.1509(2)
H4 H 0.5700 0.5433 -0.1274
C6 C 0.59263(9) 0.70617(13) -0.06618(19)
C7 C 0.52783(9) 0.71762(13) 0.06106(19)
C8 C 0.46160(10) 0.79632(16) 0.0247(2)
H5 H 0.4138 0.7545 0.0230
H6 H 0.4693 0.8319 -0.0860
H7 H 0.4592 0.8529 0.1138
Br1B Br 0.365382(11) 0.935005(14) 0.48980(2)
N1B N 0.46792(8) 0.65309(11) 0.30564(17)
C1B C 0.35611(9) 0.79361(14) 0.6054(2)
C2B C 0.29558(10) 0.77985(16) 0.7228(2)
H1B H 0.2617 0.8391 0.7459
C3B C 0.28638(10) 0.67629(16) 0.8054(2)
H2B H 0.2462 0.6662 0.8847
C4B C 0.33670(11) 0.58836(16) 0.7698(2)
H3B H 0.3305 0.5193 0.8256
C5B C 0.39658(10) 0.60310(15) 0.6509(2)
H4B H 0.4300 0.5433 0.6274
C6B C 0.40737(9) 0.70617(13) 0.56618(19)
C7B C 0.47217(9) 0.71762(13) 0.43894(19)
C8B C 0.53840(10) 0.79632(16) 0.4753(2)
H5B H 0.5862 0.7545 0.4770
H6B H 0.5307 0.8319 0.5860
H7B H 0.5408 0.8529 0.3862
loop_
_geom_bond_atom_site_label_1
_geom_bond_atom_site_label_2
_geom_bond_site_symmetry_1
_geom_bond_site_symmetry_2
Br1 C1 1_555 1_555
N1 C7 1_555 1_555
C1 C2 1_555 1_555
C2 H1 1_555 1_555
C3 C2 1_555 1_555
H2 C3 1_555 1_555
C4 C3 1_555 1_555
H3 C4 1_555 1_555
C5 C4 1_555 1_555
H4 C5 1_555 1_555
C6 C1 1_555 1_555
C7 C6 1_555 1_555
C8 C7 1_555 1_555
H5 C8 1_555 1_555
H6 C8 1_555 1_555
H7 C8 1_555 1_555
Br1B C1B 1_555 1_555
N1B N1 1_555 1_555
C1B C2B 1_555 1_555
C2B H1B 1_555 1_555
C3B C2B 1_555 1_555
H2B C3B 1_555 1_555
C4B C3B 1_555 1_555
H3B C4B 1_555 1_555
C5B C4B 1_555 1_555
H4B C5B 1_555 1_555
C6B C1B 1_555 1_555
C7B N1B 1_555 1_555
C8B C7B 1_555 1_555
H5B C8B 1_555 1_555
H6B C8B 1_555 1_555
H7B C8B 1_555 1_555
C5 C6 1_555 1_555
C5B C6B 1_555 1_555
C6B C7B 1_555 1_555

#END
