
#######################################################################
#
#                 Cambridge Crystallographic Data Centre
#                                CCDC 
#
#######################################################################
#
# If this CIF has been generated from an entry in the Cambridge 
# Structural Database, then it will include bibliographic, chemical, 
# crystal, experimental, refinement or atomic coordinate data resulting 
# from the CCDC's data processing and validation procedures.
#
#######################################################################

data_DUVHEI
_chemical_formula_moiety         'C18 H22 N2 O3'
_chemical_name_systematic        
2,2'-(4-([(E)-4-Methoxybenzylidene]amino)phenylimino)diethanol
_symmetry_cell_setting           monoclinic
_symmetry_space_group_name_H-M   'P 21'
_symmetry_Int_Tables_number      4
_space_group_name_Hall           'P 2yb'
loop_
_symmetry_equiv_pos_site_id
_symmetry_equiv_pos_as_xyz
1 x,y,z
2 -x,1/2+y,-z
_cell_length_a                   5.3795(9)
_cell_length_b                   8.0585(14)
_cell_length_c                   18.531(3)
_cell_angle_alpha                90
_cell_angle_beta                 91.168(2)
_cell_angle_gamma                90
_cell_volume                     803.165
_exptl_crystal_colour            yellow
_exptl_crystal_description       block
_cell_formula_units_Z            2
_exptl_crystal_recrystallization_method methanol
loop_
_atom_site_label
_atom_site_type_symbol
_atom_site_fract_x
_atom_site_fract_y
_atom_site_fract_z
O1 O 0.5558(4) 0.2396(3) -0.24985(10)
O2 O -0.3959(5) -0.0877(3) 0.43576(14)
O3 O -0.4849(5) 0.5749(3) 0.43870(13)
N1 N 0.1089(5) 0.2496(3) 0.06704(12)
N2 N -0.1774(5) 0.2079(3) 0.35822(11)
C1 C 0.5101(5) 0.2264(4) -0.17743(13)
C2 C 0.6533(6) 0.1361(4) -0.12960(15)
H1 H 0.7947 0.0811 -0.1450
C3 C 0.5840(6) 0.1278(4) -0.05799(15)
H2 H 0.6830 0.0680 -0.0255
C4 C 0.3737(6) 0.2052(4) -0.03335(14)
C5 C 0.2341(5) 0.3012(4) -0.08283(14)
H3 H 0.0939 0.3577 -0.0675
C6 C 0.3029(6) 0.3123(4) -0.15342(15)
H4 H 0.2106 0.3776 -0.1855
C7 C 0.3019(6) 0.1862(4) 0.04166(16)
C8 C 0.0474(5) 0.2305(4) 0.14073(14)
C9 C 0.1730(6) 0.1309(4) 0.19122(15)
H5 H 0.3095 0.0692 0.1769
C10 C 0.0986(5) 0.1223(4) 0.26191(15)
H6 H 0.1849 0.0537 0.2940
C11 C -0.1033(5) 0.2140(3) 0.28648(14)
C12 C -0.2278(5) 0.3138(4) 0.23556(14)
H7 H -0.3625 0.3774 0.2498
C13 C -0.1543(5) 0.3197(4) 0.16480(14)
H8 H -0.2432 0.3857 0.1322
C14 C -0.0579(6) 0.0964(4) 0.40875(15)
H9 H -0.0800 0.1388 0.4572
H10 H 0.1190 0.0952 0.3997
C15 C -0.1541(6) -0.0790(4) 0.40534(16)
H11 H -0.1624 -0.1158 0.3555
H12 H -0.0413 -0.1519 0.4318
C16 C -0.3805(6) 0.3088(4) 0.38402(15)
H13 H -0.4516 0.2560 0.4259
H14 H -0.5092 0.3158 0.3467
C17 C -0.2951(6) 0.4822(4) 0.40415(17)
H15 H -0.1508 0.4747 0.4362
H16 H -0.2457 0.5403 0.3609
C18 C 0.7676(6) 0.1549(5) -0.27577(17)
H17 H 0.7739 0.1667 -0.3273
H18 H 0.7567 0.0394 -0.2636
H19 H 0.9154 0.2013 -0.2540
H20 H -0.428(9) -0.200(7) 0.438(2)
H21 H -0.542(8) 0.522(6) 0.473(2)
H22 H 0.417(7) 0.122(5) 0.072(2)
loop_
_geom_bond_atom_site_label_1
_geom_bond_atom_site_label_2
_geom_bond_site_symmetry_1
_geom_bond_site_symmetry_2
O1 C1 1_555 1_555
O2 C15 1_555 1_555
O3 C17 1_555 1_555
N1 C7 1_555 1_555
N2 C11 1_555 1_555
C1 C2 1_555 1_555
C2 H1 1_555 1_555
C3 C2 1_555 1_555
H2 C3 1_555 1_555
C4 C3 1_555 1_555
C5 C4 1_555 1_555
H3 C5 1_555 1_555
C6 C1 1_555 1_555
H4 C6 1_555 1_555
C7 C4 1_555 1_555
C8 N1 1_555 1_555
C9 C8 1_555 1_555
H5 C9 1_555 1_555
C10 C9 1_555 1_555
H6 C10 1_555 1_555
C11 C10 1_555 1_555
C12 C11 1_555 1_555
H7 C12 1_555 1_555
C13 C8 1_555 1_555
H8 C13 1_555 1_555
C14 N2 1_555 1_555
H9 C14 1_555 1_555
H10 C14 1_555 1_555
C15 C14 1_555 1_555
H11 C15 1_555 1_555
H12 C15 1_555 1_555
C16 N2 1_555 1_555
H13 C16 1_555 1_555
H14 C16 1_555 1_555
C17 C16 1_555 1_555
H15 C17 1_555 1_555
H16 C17 1_555 1_555
C18 O1 1_555 1_555
H17 C18 1_555 1_555
H18 C18 1_555 1_555
H19 C18 1_555 1_555
H20 O2 1_555 1_555
H21 O3 1_555 1_555
H22 C7 1_555 1_555
C5 C6 1_555 1_555
C12 C13 1_555 1_555

#END
