
#######################################################################
#
#                 Cambridge Crystallographic Data Centre
#                                CCDC 
#
#######################################################################
#
# If this CIF has been generated from an entry in the Cambridge 
# Structural Database, then it will include bibliographic, chemical, 
# crystal, experimental, refinement or atomic coordinate data resulting 
# from the CCDC's data processing and validation procedures.
#
#######################################################################

data_DUVJUA
_chemical_name_common            
4-[(1-Hydroxy-2-naphthyl)methyleneamino]-1,5-dimethyl-2-phenyl-1H-pyrazol-3(2H)-one
_chemical_formula_moiety         'C22 H19 N3 O2'
_chemical_name_systematic        
4-(((1-Hydroxy-2-naphthyl)methylene)amino)-1,5-dimethyl-2-phenyl-1,2-dihydro-3H-pyrazol-3-one
_symmetry_cell_setting           monoclinic
_symmetry_space_group_name_H-M   'P 21/c'
_symmetry_Int_Tables_number      14
_space_group_name_Hall           '-P 2ybc'
loop_
_symmetry_equiv_pos_site_id
_symmetry_equiv_pos_as_xyz
1 x,y,z
2 -x,1/2+y,1/2-z
3 -x,-y,-z
4 x,1/2-y,1/2+z
_cell_length_a                   8.0636(7)
_cell_length_b                   7.4407(6)
_cell_length_c                   30.169(3)
_cell_angle_alpha                90
_cell_angle_beta                 94.329(2)
_cell_angle_gamma                90
_cell_volume                     1804.94
_exptl_crystal_colour            yellow
_exptl_crystal_description       plane
_cell_formula_units_Z            4
loop_
_atom_site_label
_atom_site_type_symbol
_atom_site_fract_x
_atom_site_fract_y
_atom_site_fract_z
O1 O 0.5537(2) 0.63818(19) 0.63468(5)
O2 O 0.2652(2) 0.2809(2) 0.48208(5)
H1 H 0.3246 0.2763 0.5053
N1 N 0.6496(2) 0.3617(2) 0.66126(6)
N2 N 0.6208(2) 0.1816(2) 0.64902(6)
N3 N 0.4118(2) 0.3947(2) 0.55528(6)
C1 C 0.6836(3) 0.4067(3) 0.70681(7)
C2 C 0.7888(3) 0.5480(3) 0.71763(8)
H2 H 0.8380 0.6109 0.6954
C3 C 0.8210(3) 0.5961(4) 0.76159(9)
H3 H 0.8910 0.6926 0.7690
C4 C 0.7503(4) 0.5023(4) 0.79433(9)
H4 H 0.7726 0.5351 0.8239
C5 C 0.6471(4) 0.3607(4) 0.78370(8)
H5 H 0.6007 0.2963 0.8061
C6 C 0.6115(3) 0.3130(3) 0.73982(8)
H6 H 0.5393 0.2182 0.7325
C7 C 0.5673(3) 0.4746(3) 0.62969(7)
C8 C 0.5054(3) 0.3554(3) 0.59459(7)
C9 C 0.5442(3) 0.1841(3) 0.60707(7)
C10 C 0.513(2) 0.016(3) 0.5821(7)
H7 H 0.4444 0.0406 0.5554
H8 H 0.4572 -0.0679 0.6001
H9 H 0.6168 -0.0343 0.5746
C11 C 0.7486(3) 0.0508(3) 0.66333(8)
H10 H 0.7126 -0.0673 0.6541
H11 H 0.7672 0.0539 0.6951
H12 H 0.8501 0.0797 0.6502
C12 C 0.3597(3) 0.5544(3) 0.54508(7)
H13 H 0.3903 0.6499 0.5638
C13 C 0.2085(3) 0.4488(3) 0.47564(7)
C14 C 0.2546(3) 0.5875(3) 0.50496(7)
C15 C 0.1916(3) 0.7620(3) 0.49565(8)
H14 H 0.2230 0.8555 0.5150
C16 C 0.0877(3) 0.7968(3) 0.45970(8)
H15 H 0.0489 0.9132 0.4546
C17 C 0.0366(3) 0.6577(3) 0.42957(7)
C18 C 0.0988(3) 0.4819(3) 0.43735(7)
C19 C 0.0465(3) 0.3427(4) 0.40779(8)
H16 H 0.0867 0.2266 0.4126
C20 C -0.0626(4) 0.3776(5) 0.37217(9)
H17 H -0.0968 0.2849 0.3529
C21 C -0.1237(3) 0.5509(5) 0.36419(9)
H18 H -0.1976 0.5730 0.3396
C22 C -0.0758(3) 0.6875(4) 0.39216(8)
H19 H -0.1178 0.8024 0.3866
C23? C 0.501(5) 0.018(7) 0.5804(16)
H20? H 0.3824 0.0105 0.5746
H21? H 0.5402 -0.0861 0.5969
H22? H 0.5525 0.0231 0.5528
loop_
_geom_bond_atom_site_label_1
_geom_bond_atom_site_label_2
_geom_bond_site_symmetry_1
_geom_bond_site_symmetry_2
O1 C7 1_555 1_555
O2 H1 1_555 1_555
N1 N2 1_555 1_555
N2 C9 1_555 1_555
N3 C8 1_555 1_555
C1 N1 1_555 1_555
C2 C1 1_555 1_555
H2 C2 1_555 1_555
C3 C2 1_555 1_555
H3 C3 1_555 1_555
C4 C3 1_555 1_555
H4 C4 1_555 1_555
C5 C4 1_555 1_555
H5 C5 1_555 1_555
C6 C1 1_555 1_555
H6 C6 1_555 1_555
C7 N1 1_555 1_555
C8 C7 1_555 1_555
C9 C8 1_555 1_555
C10 C9 1_555 1_555
H7 C10 1_555 1_555
H8 C10 1_555 1_555
H9 C10 1_555 1_555
C11 N2 1_555 1_555
H10 C11 1_555 1_555
H11 C11 1_555 1_555
H12 C11 1_555 1_555
C12 N3 1_555 1_555
H13 C12 1_555 1_555
C13 O2 1_555 1_555
C14 C12 1_555 1_555
C15 C14 1_555 1_555
H14 C15 1_555 1_555
C16 C15 1_555 1_555
H15 C16 1_555 1_555
C17 C16 1_555 1_555
C18 C13 1_555 1_555
C19 C18 1_555 1_555
H16 C19 1_555 1_555
C20 C19 1_555 1_555
H17 C20 1_555 1_555
C21 C20 1_555 1_555
H18 C21 1_555 1_555
C22 C17 1_555 1_555
H19 C22 1_555 1_555
C5 C6 1_555 1_555
C13 C14 1_555 1_555
C17 C18 1_555 1_555
C21 C22 1_555 1_555

#END
