
#######################################################################
#
#                 Cambridge Crystallographic Data Centre
#                                CCDC 
#
#######################################################################
#
# If this CIF has been generated from an entry in the Cambridge 
# Structural Database, then it will include bibliographic, chemical, 
# crystal, experimental, refinement or atomic coordinate data resulting 
# from the CCDC's data processing and validation procedures.
#
#######################################################################

data_DUVJIO
_chemical_formula_moiety         'C16 H28 N3 O4'
_chemical_name_systematic        
'2-[1-(t-Butoxycarbonyl)pyrrolidin-2-yl]-4,4,5,5-tetramethyl-4,5-dihydro-1H-imidazole-1-oxyl 3-oxide'
_symmetry_cell_setting           monoclinic
_symmetry_space_group_name_H-M   'P 21'
_symmetry_Int_Tables_number      4
_space_group_name_Hall           'P 2yb'
loop_
_symmetry_equiv_pos_site_id
_symmetry_equiv_pos_as_xyz
1 x,y,z
2 -x,1/2+y,-z
_cell_length_a                   6.1016(12)
_cell_length_b                   10.392(2)
_cell_length_c                   14.488(3)
_cell_angle_alpha                90
_cell_angle_beta                 101.312(3)
_cell_angle_gamma                90
_cell_volume                     900.806
_exptl_crystal_colour            red
_exptl_crystal_description       block
_cell_formula_units_Z            2
loop_
_atom_site_label
_atom_site_type_symbol
_atom_site_fract_x
_atom_site_fract_y
_atom_site_fract_z
N1 N 0.0929(4) 0.3494(3) 0.78508(14)
N2 N 0.3330(4) 0.4804(2) 0.86782(15)
N3 N 0.1712(4) 0.6757(2) 0.71424(15)
O1 O 0.3991(4) 0.7310(3) 0.61493(15)
O2 O -0.0793(3) 0.3080(2) 0.72759(14)
O3 O 0.4286(4) 0.5857(2) 0.90224(15)
O4 O 0.2361(4) 0.5320(2) 0.61039(13)
C1 C 0.2011(6) 0.3558(4) 0.5093(2)
H1 H 0.2562 0.3044 0.5640
H2 H 0.2408 0.3160 0.4550
H3 H 0.0414 0.3625 0.5004
C2 C 0.5524(6) 0.4831(4) 0.5354(3)
H4 H 0.6115 0.5689 0.5434
H5 H 0.5934 0.4448 0.4809
H6 H 0.6123 0.4327 0.5900
C3 C 0.1978(7) 0.5764(4) 0.4421(2)
H7 H 0.0387 0.5782 0.4375
H8 H 0.2316 0.5450 0.3842
H9 H 0.2569 0.6617 0.4541
C4 C 0.3028(5) 0.4878(3) 0.52248(18)
C5 C 0.2803(5) 0.6526(3) 0.64280(19)
C6 C 0.1631(6) 0.8032(3) 0.7549(2)
H10 H 0.1705 0.8699 0.7088
H11 H 0.2842 0.8153 0.8086
C7 C -0.0620(7) 0.8035(3) 0.7848(3)
H12 H -0.0623 0.8630 0.8364
H13 H -0.1810 0.8269 0.7327
C8 C -0.0877(6) 0.6663(3) 0.8153(2)
H14 H -0.2443 0.6437 0.8084
H15 H -0.0150 0.6542 0.8806
C9 C 0.0256(4) 0.5839(3) 0.74985(18)
H16 H -0.0878 0.5518 0.6974
C10 C 0.1523(4) 0.4731(3) 0.79995(17)
C11 C 0.2665(5) 0.2596(3) 0.8383(2)
C12 C 0.4042(6) 0.2131(4) 0.7676(2)
H17 H 0.3088 0.1683 0.7172
H18 H 0.5194 0.1560 0.7983
H19 H 0.4709 0.2856 0.7427
C13 C 0.1549(6) 0.1467(4) 0.8763(3)
H20 H 0.0599 0.1775 0.9170
H21 H 0.2669 0.0909 0.9110
H22 H 0.0670 0.0999 0.8249
C14 C 0.3947(4) 0.3532(3) 0.91403(18)
C15 C 0.6454(5) 0.3379(4) 0.9356(2)
H23 H 0.7020 0.3464 0.8786
H24 H 0.6833 0.2544 0.9625
H25 H 0.7105 0.4031 0.9795
C16 C 0.3053(5) 0.3565(4) 1.00551(19)
H26 H 0.1457 0.3658 0.9911
H27 H 0.3702 0.4279 1.0432
H28 H 0.3439 0.2778 1.0396
loop_
_geom_bond_atom_site_label_1
_geom_bond_atom_site_label_2
_geom_bond_site_symmetry_1
_geom_bond_site_symmetry_2
N1 O2 1_555 1_555
N2 O3 1_555 1_555
N3 C5 1_555 1_555
O1 C5 1_555 1_555
O4 C4 1_555 1_555
C1 H1 1_555 1_555
H2 C1 1_555 1_555
H3 C1 1_555 1_555
C2 H4 1_555 1_555
H5 C2 1_555 1_555
H6 C2 1_555 1_555
C3 H7 1_555 1_555
H8 C3 1_555 1_555
H9 C3 1_555 1_555
C4 C1 1_555 1_555
C5 O4 1_555 1_555
C6 N3 1_555 1_555
H10 C6 1_555 1_555
H11 C6 1_555 1_555
C7 C6 1_555 1_555
H12 C7 1_555 1_555
H13 C7 1_555 1_555
C8 C7 1_555 1_555
H14 C8 1_555 1_555
H15 C8 1_555 1_555
C9 N3 1_555 1_555
H16 C9 1_555 1_555
C10 N1 1_555 1_555
C11 N1 1_555 1_555
C12 C11 1_555 1_555
H17 C12 1_555 1_555
H18 C12 1_555 1_555
H19 C12 1_555 1_555
C13 C11 1_555 1_555
H20 C13 1_555 1_555
H21 C13 1_555 1_555
H22 C13 1_555 1_555
C14 N2 1_555 1_555
C15 C14 1_555 1_555
H23 C15 1_555 1_555
H24 C15 1_555 1_555
H25 C15 1_555 1_555
C16 C14 1_555 1_555
H26 C16 1_555 1_555
H27 C16 1_555 1_555
H28 C16 1_555 1_555
N2 C10 1_555 1_555
C2 C4 1_555 1_555
C3 C4 1_555 1_555
C8 C9 1_555 1_555
C9 C10 1_555 1_555
C11 C14 1_555 1_555

#END
