
#######################################################################
#
#                 Cambridge Crystallographic Data Centre
#                                CCDC 
#
#######################################################################
#
# If this CIF has been generated from an entry in the Cambridge 
# Structural Database, then it will include bibliographic, chemical, 
# crystal, experimental, refinement or atomic coordinate data resulting 
# from the CCDC's data processing and validation procedures.
#
#######################################################################

data_DUVKOV
_chemical_name_common            
1,5-Dimethyl-2-phenyl-4-([(E)-3,4,5-trimethoxybenzylidene]amino)-1H-pyrazol-3(2H)-one
_chemical_formula_moiety         'C21 H23 N3 O4'
_chemical_name_systematic        
1,5-Dimethyl-2-phenyl-4-((3,4,5-trimethoxybenzylidene)amino)-1,2-dihydro-3H-pyrazol-3-one
_symmetry_cell_setting           monoclinic
_symmetry_space_group_name_H-M   'P 21/c'
_symmetry_Int_Tables_number      14
_space_group_name_Hall           '-P 2ybc'
loop_
_symmetry_equiv_pos_site_id
_symmetry_equiv_pos_as_xyz
1 x,y,z
2 -x,1/2+y,1/2-z
3 -x,-y,-z
4 x,1/2-y,1/2+z
_cell_length_a                   12.3644(12)
_cell_length_b                   14.0075(16)
_cell_length_c                   11.2682(11)
_cell_angle_alpha                90
_cell_angle_beta                 96.46800(10)
_cell_angle_gamma                90
_cell_volume                     1939.17
_exptl_crystal_colour            yellow
_exptl_crystal_description       block
_cell_formula_units_Z            4
loop_
_atom_site_label
_atom_site_type_symbol
_atom_site_fract_x
_atom_site_fract_y
_atom_site_fract_z
N1 N 0.58862(12) 0.17160(11) 0.75617(14)
N2 N 0.55362(12) 0.07674(11) 0.73659(14)
N3 N 0.38480(12) 0.18932(11) 0.49987(13)
O1 O 0.56035(11) 0.31372(9) 0.65254(13)
O2 O 0.14379(11) 0.51801(9) 0.24428(12)
O3 O 0.06093(10) 0.38623(9) 0.08868(12)
O4 O 0.12137(12) 0.20441(10) 0.10776(12)
C1 C 0.53561(15) 0.22988(14) 0.66664(17)
C2 C 0.45678(14) 0.16819(13) 0.60050(16)
C3 C 0.46934(14) 0.07841(13) 0.64717(17)
C4 C 0.40708(16) -0.00978(13) 0.61267(19)
H1 H 0.4568 -0.0613 0.6042
H2 H 0.3628 0.0004 0.5382
H3 H 0.3614 -0.0255 0.6733
C5 C 0.55506(17) 0.01888(15) 0.8440(2)
H4 H 0.5077 0.0468 0.8963
H5 H 0.6278 0.0162 0.8838
H6 H 0.5306 -0.0445 0.8227
C6 C 0.70012(16) 0.18510(13) 0.80311(17)
C7 C 0.72641(19) 0.24765(15) 0.89492(19)
H7 H 0.6722 0.2807 0.9286
C8 C 0.8353(2) 0.26125(18) 0.9374(2)
H8 H 0.8544 0.3047 0.9985
C9 C 0.9143(2) 0.2109(2) 0.8894(3)
H9 H 0.9871 0.2200 0.9182
C10 C 0.88698(18) 0.14758(18) 0.7999(2)
H10 H 0.9411 0.1129 0.7683
C11 C 0.78040(17) 0.13441(15) 0.7557(2)
H11 H 0.7622 0.0913 0.6939
C12 C 0.36413(15) 0.27582(14) 0.47241(17)
H12 H 0.3986 0.3235 0.5201
C13 C 0.28837(15) 0.30404(13) 0.36894(16)
C14 C 0.25703(15) 0.39875(13) 0.35636(17)
H13 H 0.2868 0.4437 0.4114
C15 C 0.18193(15) 0.42704(13) 0.26269(17)
C16 C 0.13902(15) 0.36017(14) 0.17957(17)
C17 C 0.17022(15) 0.26509(14) 0.19268(16)
C18 C 0.24460(15) 0.23685(14) 0.28662(16)
H14 H 0.2653 0.1731 0.2947
C19 C 0.17650(18) 0.58758(14) 0.33332(19)
H15 H 0.1578 0.5659 0.4092
H16 H 0.1400 0.6468 0.3129
H17 H 0.2538 0.5970 0.3379
C20 C 0.10337(18) 0.41981(17) -0.01563(19)
H18 H 0.1388 0.4801 0.0009
H19 H 0.0450 0.4275 -0.0787
H20 H 0.1549 0.3745 -0.0396
C21 C 0.12836(19) 0.10573(14) 0.1296(2)
H21 H 0.2030 0.0859 0.1341
H22 H 0.0864 0.0722 0.0660
H23 H 0.1005 0.0917 0.2038
loop_
_geom_bond_atom_site_label_1
_geom_bond_atom_site_label_2
_geom_bond_site_symmetry_1
_geom_bond_site_symmetry_2
N1 N2 1_555 1_555
N2 C3 1_555 1_555
N3 C2 1_555 1_555
O1 C1 1_555 1_555
O2 C15 1_555 1_555
O3 C16 1_555 1_555
O4 C17 1_555 1_555
C1 N1 1_555 1_555
C2 C1 1_555 1_555
C3 C2 1_555 1_555
C4 C3 1_555 1_555
H1 C4 1_555 1_555
H2 C4 1_555 1_555
H3 C4 1_555 1_555
C5 N2 1_555 1_555
H4 C5 1_555 1_555
H5 C5 1_555 1_555
H6 C5 1_555 1_555
C6 N1 1_555 1_555
C7 C6 1_555 1_555
H7 C7 1_555 1_555
C8 C7 1_555 1_555
H8 C8 1_555 1_555
C9 C8 1_555 1_555
H9 C9 1_555 1_555
C10 C9 1_555 1_555
H10 C10 1_555 1_555
C11 C6 1_555 1_555
H11 C11 1_555 1_555
C12 N3 1_555 1_555
H12 C12 1_555 1_555
C13 C12 1_555 1_555
C14 C13 1_555 1_555
H13 C14 1_555 1_555
C15 C14 1_555 1_555
C16 C15 1_555 1_555
C17 C16 1_555 1_555
C18 C13 1_555 1_555
H14 C18 1_555 1_555
C19 O2 1_555 1_555
H15 C19 1_555 1_555
H16 C19 1_555 1_555
H17 C19 1_555 1_555
C20 O3 1_555 1_555
H18 C20 1_555 1_555
H19 C20 1_555 1_555
H20 C20 1_555 1_555
C21 O4 1_555 1_555
H21 C21 1_555 1_555
H22 C21 1_555 1_555
H23 C21 1_555 1_555
C10 C11 1_555 1_555
C17 C18 1_555 1_555

#END
