
#######################################################################
#
#                 Cambridge Crystallographic Data Centre
#                                CCDC 
#
#######################################################################
#
# If this CIF has been generated from an entry in the Cambridge 
# Structural Database, then it will include bibliographic, chemical, 
# crystal, experimental, refinement or atomic coordinate data resulting 
# from the CCDC's data processing and validation procedures.
#
#######################################################################

data_DUVYAW
_chemical_name_common            'Biliverdin IXalpha-dimethoxy adduct'
_chemical_formula_moiety         'C37 H44 N4 O8'
_chemical_name_systematic        
(5-((4-Ethenyl-3-methyl-5-oxo-1,5-dihydro-2H-pyrrol-2-ylidene)methyl)-3-(3-methoxy-3-oxopropyl)-4-methyl-2H-pyrrol-2-ylidene)(5-((3-ethenyl-2-methoxy-4-methyl-5-oxo-2,5-dihydro-1H-pyrrol-2-yl)(methoxy)methyl)-3-(3-methoxy-3-oxopropyl)-4-methyl-1H-pyrrol-2-yl)methane
_symmetry_cell_setting           triclinic
_symmetry_space_group_name_H-M   'P -1'
_symmetry_Int_Tables_number      2
_space_group_name_Hall           '-P 1'
loop_
_symmetry_equiv_pos_site_id
_symmetry_equiv_pos_as_xyz
1 x,y,z
2 -x,-y,-z
_cell_length_a                   10.7284(15)
_cell_length_b                   12.2156(18)
_cell_length_c                   14.516(2)
_cell_angle_alpha                92.707(3)
_cell_angle_beta                 93.147(2)
_cell_angle_gamma                115.253(2)
_cell_volume                     1712.71
_exptl_crystal_colour            red
_exptl_crystal_description       rod
_cell_formula_units_Z            2
_exptl_crystal_recrystallization_method deuterochloroform
loop_
_atom_site_label
_atom_site_type_symbol
_atom_site_fract_x
_atom_site_fract_y
_atom_site_fract_z
O1 O 0.61679(12) 0.86708(10) 0.10079(9)
O2 O 0.81359(11) 0.81715(9) 0.26454(7)
O3 O 0.91923(11) 0.84585(9) 0.08888(7)
O4 O 0.4375(7) 0.1359(6) 0.3485(6)
C1 C 0.5523(6) 0.1525(17) 0.3768(4)
O5 O 0.5914(6) 0.1598(5) 0.4673(4)
C2 C 0.4815(6) 0.1556(5) 0.5275(4)
H1 H 0.4467 0.2142 0.5087
H2 H 0.5200 0.1761 0.5921
H3 H 0.4054 0.0738 0.5213
N1 N 0.55229(14) 0.66276(11) 0.11679(9)
H4 H 0.6309(16) 0.6707(17) 0.1385(13)
N2 N 0.65378(12) 0.47758(10) 0.16341(9)
N3 N 0.91666(13) 0.65592(10) 0.18892(8)
H5 H 0.8293(15) 0.6369(15) 0.1677(12)
N4 N 0.89662(14) 1.01119(11) 0.20334(10)
H6 H 0.8394(18) 0.9915(17) 0.1538(11)
C3 C 0.52948(16) 0.76156(14) 0.09396(11)
C4 C 0.38001(17) 0.71141(15) 0.06106(11)
C5 C 0.32330(16) 0.58956(14) 0.06698(11)
C6 C 0.43198(15) 0.55561(13) 0.10131(10)
C7 C 0.41653(16) 0.44159(14) 0.11336(11)
H7 H 0.3258 0.3789 0.0996
C8 C 0.52017(15) 0.40333(13) 0.14440(10)
C9 C 0.48986(16) 0.27703(13) 0.15934(11)
C10 C 0.61157(16) 0.27701(12) 0.18941(10)
C11 C 0.71584(15) 0.40270(12) 0.19114(10)
C12 C 0.85427(15) 0.44452(12) 0.21633(10)
H8 H 0.8868 0.3866 0.2336
C13 C 0.95320(15) 0.56776(12) 0.21869(10)
C14 C 1.09379(15) 0.62575(13) 0.24965(10)
C15 C 1.13983(15) 0.75090(13) 0.23739(10)
C16 C 1.02621(14) 0.76590(12) 0.19994(10)
C17 C 1.00533(15) 0.87459(12) 0.17341(10)
H9 H 1.0973 0.9422 0.1645
C18 C 0.93170(15) 0.92062(13) 0.24458(10)
C19 C 1.0309(7) 0.9981(2) 0.3269(3)
C20 C 1.0605(3) 1.1161(2) 0.3203(2)
C21 C 0.9741(4) 1.1263(2) 0.2397(3)
O6 O 0.9748(4) 1.2203(3) 0.2124(3)
C22 C 1.1620(3) 1.2282(3) 0.3764(3)
H10 H 1.1136 1.2745 0.4003
H11 H 1.2331 1.2784 0.3373
H12 H 1.2057 1.2051 0.4283
C23 C 1.0816(9) 0.9497(3) 0.4034(4)
H13 H 1.1554 1.0068 0.4442
C24 C 0.34903(17) 0.17320(14) 0.14285(12)
H14 H 0.3139 0.1681 0.0783
H15 H 0.2862 0.1862 0.1839
H16 H 0.3549 0.0974 0.1556
C25 C 0.1755(5) 0.4972(6) 0.0461(5)
H17 H 0.1165 0.5389 0.0346
H18 H 0.1453 0.4480 0.0990
H19 H 0.1686 0.4445 -0.0088
C26 C 0.3072(5) 0.7781(3) 0.0239(4)
H20 H 0.2176 0.7330 -0.0066
C27 C 1.28220(16) 0.84855(14) 0.26366(12)
H21 H 1.3507 0.8228 0.2410
H22 H 1.2968 0.8636 0.3312
H23 H 1.2923 0.9232 0.2360
C28 C 1.17667(16) 0.56851(14) 0.29630(11)
H24 H 1.2752 0.6137 0.2848
H25 H 1.1444 0.4839 0.2695
C29 C 1.1633(3) 0.5684(2) 0.3997(2)
H26 H 1.1728 0.6491 0.4236
H27 H 1.0699 0.5076 0.4114
O7 O 1.3785(4) 0.5529(3) 0.4247(3)
C30 C 1.2701(4) 0.5399(3) 0.4517(3)
O8 O 1.2283(6) 0.5011(6) 0.5346(4)
C31 C 1.3272(4) 0.4776(3) 0.5930(3)
H28 H 1.3621 0.4284 0.5569
H29 H 1.2818 0.4338 0.6454
H30 H 1.4044 0.5548 0.6160
C32 C 0.64145(18) 0.17307(13) 0.21768(11)
H31 H 0.7205 0.1740 0.1850
H32 H 0.5601 0.0958 0.1977
C33 C 0.67523(18) 0.17699(14) 0.32196(12)
H33 H 0.7108 0.1159 0.3340
H34 H 0.7494 0.2580 0.3434
C34 C 0.99159(19) 0.84518(17) 0.01014(11)
H35 H 0.9282 0.8244 -0.0459
H36 H 1.0289 0.7849 0.0150
H37 H 1.0677 0.9257 0.0069
C35 C 0.72472(18) 0.84149(15) 0.32310(12)
H38 H 0.6861 0.8909 0.2919
H39 H 0.7775 0.8856 0.3809
H40 H 0.6494 0.7647 0.3368
C36 C 1.0339(3) 0.8326(2) 0.42155(16)
H41 H 0.9601 0.7720 0.3828
H42 H 1.0739 0.8103 0.4731
C37 C 0.3582(3) 0.8977(2) 0.02990(16)
H43 H 0.4476 0.9452 0.0600
H44 H 0.3055 0.9363 0.0041
O9? O 0.443(3) 0.109(2) 0.347(2)
C38? C 0.560(2) 0.164(6) 0.3802(14)
O10? O 0.5903(15) 0.1880(14) 0.4720(12)
C39? C 0.468(2) 0.1065(12) 0.5214(13)
H45? H 0.4009 0.1414 0.5237
H46? H 0.4992 0.0993 0.5846
H47? H 0.4237 0.0259 0.4880
C40? C 1.0309(7) 0.9981(2) 0.3269(3)
C41? C 1.0605(3) 1.1161(2) 0.3203(2)
C42? C 0.9741(4) 1.1263(2) 0.2397(3)
O11? O 0.9748(4) 1.2203(3) 0.2124(3)
C43? C 1.128(2) 1.2155(18) 0.3945(15)
H48? H 1.0826 1.2511 0.4313
C44? C 1.086(8) 0.938(2) 0.395(4)
H49? H 1.1367 0.9964 0.4482
H50? H 1.1487 0.9105 0.3658
H51? H 1.0091 0.8684 0.4171
C45? C 0.1808(15) 0.5128(18) 0.0335(17)
H52? H 0.1457 0.5260 -0.0243
C46? C 0.3265(16) 0.8034(12) 0.0361(14)
H53? H 0.3783 0.8792 0.0749
H54? H 0.2282 0.7716 0.0465
H55? H 0.3385 0.8189 -0.0292
C47? C 1.1854(9) 0.5975(7) 0.4052(6)
H56? H 1.2010 0.6830 0.4172
H57? H 1.0949 0.5457 0.4277
O12? O 1.4092(11) 0.6027(7) 0.4358(9)
C48? C 1.2964(13) 0.5786(9) 0.4606(9)
O13? O 1.2606(17) 0.5335(17) 0.5422(11)
C49? C 1.3690(15) 0.5189(12) 0.5995(11)
H58? H 1.4023 0.4675 0.5646
H59? H 1.3310 0.4807 0.6558
H60? H 1.4459 0.5987 0.6165
C50? C 0.1017(8) 0.4281(7) 0.0799(5)
H61? H 0.1356 0.4140 0.1378
H62? H 0.0087 0.3790 0.0565
C51? C 1.263(2) 1.247(2) 0.401(2)
H63? H 1.3000 1.2060 0.3613
H64? H 1.3225 1.3093 0.4454
C52? C 0.994(3) 1.1183(14) 0.2472(17)
O14? O 0.998(3) 1.214(2) 0.222(2)
C53? C 1.027(4) 0.9790(13) 0.333(2)
C54? C 1.073(2) 1.0967(12) 0.3250(14)
C55? C 1.1785(18) 1.1988(11) 0.3846(13)
H65? H 1.2015 1.1790 0.4436
C56? C 1.0623(18) 0.9054(13) 0.3992(10)
H66? H 1.0300 0.9149 0.4596
H67? H 1.1628 0.9332 0.4056
H68? H 1.0176 0.8198 0.3759
C57? C 1.2455(16) 1.3140(11) 0.3676(12)
H69? H 1.2278 1.3404 0.3099
H70? H 1.3115 1.3705 0.4132
loop_
_geom_bond_atom_site_label_1
_geom_bond_atom_site_label_2
_geom_bond_site_symmetry_1
_geom_bond_site_symmetry_2
O1 C3 1_555 1_555
O2 C18 1_555 1_555
O3 C17 1_555 1_555
O4 C1 1_555 1_555
C1 O5 1_555 1_555
O5 C2 1_555 1_555
C2 H1 1_555 1_555
H2 C2 1_555 1_555
H3 C2 1_555 1_555
N1 H4 1_555 1_555
N2 C8 1_555 1_555
N3 H5 1_555 1_555
N4 H6 1_555 1_555
C3 N1 1_555 1_555
C4 C3 1_555 1_555
C5 C4 1_555 1_555
C6 N1 1_555 1_555
C7 C6 1_555 1_555
H7 C7 1_555 1_555
C8 C7 1_555 1_555
C9 C8 1_555 1_555
C10 C9 1_555 1_555
C11 N2 1_555 1_555
C12 C11 1_555 1_555
H8 C12 1_555 1_555
C13 N3 1_555 1_555
C14 C13 1_555 1_555
C15 C14 1_555 1_555
C16 N3 1_555 1_555
C17 C16 1_555 1_555
H9 C17 1_555 1_555
C18 N4 1_555 1_555
C19 C18 1_555 1_555
C20 C19 1_555 1_555
C21 N4 1_555 1_555
O6 C21 1_555 1_555
C22 C20 1_555 1_555
H10 C22 1_555 1_555
H11 C22 1_555 1_555
H12 C22 1_555 1_555
C23 C19 1_555 1_555
H13 C23 1_555 1_555
C24 C9 1_555 1_555
H14 C24 1_555 1_555
H15 C24 1_555 1_555
H16 C24 1_555 1_555
C25 C5 1_555 1_555
H17 C25 1_555 1_555
H18 C25 1_555 1_555
H19 C25 1_555 1_555
C26 C4 1_555 1_555
H20 C26 1_555 1_555
C27 C15 1_555 1_555
H21 C27 1_555 1_555
H22 C27 1_555 1_555
H23 C27 1_555 1_555
C28 C14 1_555 1_555
H24 C28 1_555 1_555
H25 C28 1_555 1_555
C29 C28 1_555 1_555
H26 C29 1_555 1_555
H27 C29 1_555 1_555
O7 C30 1_555 1_555
C30 C29 1_555 1_555
O8 C30 1_555 1_555
C31 O8 1_555 1_555
H28 C31 1_555 1_555
H29 C31 1_555 1_555
H30 C31 1_555 1_555
C32 C10 1_555 1_555
H31 C32 1_555 1_555
H32 C32 1_555 1_555
C33 C1 1_555 1_555
H33 C33 1_555 1_555
H34 C33 1_555 1_555
C34 O3 1_555 1_555
H35 C34 1_555 1_555
H36 C34 1_555 1_555
H37 C34 1_555 1_555
C35 O2 1_555 1_555
H38 C35 1_555 1_555
H39 C35 1_555 1_555
H40 C35 1_555 1_555
C36 C23 1_555 1_555
H41 C36 1_555 1_555
H42 C36 1_555 1_555
C37 C26 1_555 1_555
H43 C37 1_555 1_555
H44 C37 1_555 1_555
C5 C6 1_555 1_555
C10 C11 1_555 1_555
C12 C13 1_555 1_555
C15 C16 1_555 1_555
C17 C18 1_555 1_555
C20 C21 1_555 1_555
C32 C33 1_555 1_555

#END
