
#######################################################################
#
#                 Cambridge Crystallographic Data Centre
#                                CCDC 
#
#######################################################################
#
# If this CIF has been generated from an entry in the Cambridge 
# Structural Database, then it will include bibliographic, chemical, 
# crystal, experimental, refinement or atomic coordinate data resulting 
# from the CCDC's data processing and validation procedures.
#
#######################################################################

data_DUWBON
_chemical_name_common            
rac-2,8-Diethyl-5,11-methano-5,6,11,12-tetrahydrodibenzo[b,f][1,5]diazocine
_chemical_formula_moiety         'C19 H22 N2'
_chemical_name_systematic        
rac-5,13-Diethyl-1,9-diazatetracyclo[7.7.1.0^2,7^.0^10,15^]heptadeca-2,4,6,10,12,14-hexaene
_symmetry_cell_setting           triclinic
_symmetry_space_group_name_H-M   'P -1'
_symmetry_Int_Tables_number      2
_space_group_name_Hall           '-P 1'
loop_
_symmetry_equiv_pos_site_id
_symmetry_equiv_pos_as_xyz
1 x,y,z
2 -x,-y,-z
_cell_length_a                   10.9907(11)
_cell_length_b                   13.8123(14)
_cell_length_c                   17.2240(17)
_cell_angle_alpha                71.469(1)
_cell_angle_beta                 88.621(2)
_cell_angle_gamma                70.319(1)
_cell_volume                     2324.22
_exptl_crystal_colour            colorless
_exptl_crystal_description       block
_chemical_melting_point          '325-326 K'
_cell_formula_units_Z            6
_exptl_crystal_recrystallization_method ethanol
loop_
_atom_site_label
_atom_site_type_symbol
_atom_site_fract_x
_atom_site_fract_y
_atom_site_fract_z
C1 C 0.65063(11) 0.88621(9) -0.04102(7)
H1 H 0.64582(13) 0.9346(7) -0.0984(8)
C2 C 0.66991(11) 0.92157(9) 0.02351(8)
C3 C 0.67552(12) 0.85210(10) 0.10349(8)
H2 H 0.6872(2) 0.8755(4) 0.1503(7)
C4 C 0.66493(12) 0.75046(10) 0.11823(8)
H3 H 0.66991(14) 0.7023(7) 0.1755(9)
C5 C 0.64733(10) 0.71586(9) 0.05299(7)
N1 N 0.64306(10) 0.60806(8) 0.07091(7)
C6 C 0.51748(11) 0.60024(10) 0.09778(7)
H4 H 0.4906(3) 0.6376(4) 0.1392(4)
H5 H 0.52795(15) 0.5226(8) 0.1246(3)
C7 C 0.41205(11) 0.65030(9) 0.02725(7)
C8 C 0.28158(11) 0.67220(9) 0.04180(7)
H6 H 0.2586(4) 0.6549(3) 0.0992(9)
C9 C 0.18258(11) 0.71770(9) -0.02203(8)
C10 C 0.21731(13) 0.74116(10) -0.10253(8)
H7 H 0.1506(11) 0.7726(5) -0.1479(7)
C11 C 0.34642(13) 0.71985(10) -0.11830(8)
H8 H 0.3692(4) 0.7374(3) -0.1763(9)
C12 C 0.44492(11) 0.67415(9) -0.05395(7)
N2 N 0.57744(10) 0.65174(8) -0.07318(7)
C13 C 0.61269(13) 0.75084(11) -0.09968(8)
H9 H 0.5410(8) 0.8115(6) -0.1385(4)
H10 H 0.6922(8) 0.73722(17) -0.1298(3)
C14 C 0.63784(11) 0.78501(9) -0.02770(7)
C15 C 0.66632(12) 0.57373(10) -0.00163(9)
H11 H 0.65608(16) 0.5021(8) 0.01070(16)
H12 H 0.7567(10) 0.56516(14) -0.01477(16)
C16 C 0.68428(12) 1.03132(10) 0.00644(9)
H13 H 0.68474(12) 1.0466(2) 0.0591(6)
H14 H 0.6079(8) 1.0885(6) -0.0302(4)
C17 C 0.80712(14) 1.03814(11) -0.03350(10)
H15 H 0.8848(8) 0.9808(8) 0.0032(5)
H16 H 0.8123(5) 1.1120(8) -0.0422(6)
H17 H 0.8056(5) 1.0261(9) -0.0879(6)
C18 C 0.04256(12) 0.73861(11) -0.00392(10)
H18 H -0.0141(7) 0.7934(7) -0.0528(6)
H19 H 0.0265(2) 0.7690(4) 0.0415(5)
C19 C 0.00691(14) 0.63664(13) 0.01929(12)
H20 H 0.0199(11) 0.6068(6) -0.0275(6)
H21 H -0.0863(11) 0.6550(3) 0.0314(7)
H22 H 0.0636(10) 0.5808(7) 0.0693(7)
C20 C 0.32892(12) 0.55399(11) 0.30357(9)
H23 H 0.33306(14) 0.5939(7) 0.2471(9)
C21 C 0.34413(14) 0.59660(12) 0.36433(10)
C22 C 0.33607(15) 0.53786(14) 0.44501(10)
H24 H 0.3444(2) 0.5662(5) 0.4881(8)
C23 C 0.31640(13) 0.43970(13) 0.46480(9)
H25 H 0.31146(16) 0.3998(7) 0.5225(10)
C24 C 0.30339(11) 0.39649(10) 0.40345(8)
N3 N 0.29185(10) 0.29068(9) 0.42683(7)
C25 C 0.16078(12) 0.29170(11) 0.44752(8)
H26 H 0.1282(4) 0.3382(5) 0.4826(4)
H27 H 0.16545(13) 0.2166(8) 0.4798(4)
C26 C 0.06619(11) 0.33399(9) 0.37177(7)
C27 C -0.06692(11) 0.35998(9) 0.37884(7)
H28 H -0.0978(5) 0.34887(19) 0.4332(8)
C28 C -0.15683(11) 0.40132(9) 0.31042(8)
C29 C -0.11085(12) 0.41820(10) 0.23282(8)
H29 H -0.1722(10) 0.4487(5) 0.1838(8)
C30 C 0.02090(12) 0.39212(10) 0.22457(7)
H30 H 0.0518(5) 0.4044(2) 0.1689(9)
C31 C 0.11101(11) 0.34868(9) 0.29351(7)
N4 N 0.24716(10) 0.31786(8) 0.28263(7)
C32 C 0.29084(13) 0.41233(11) 0.25329(8)
H31 H 0.2267(7) 0.4710(6) 0.2095(5)
H32 H 0.3742(9) 0.3910(2) 0.2293(3)
C33 C 0.30784(11) 0.45511(10) 0.32175(8)
C34 C 0.32411(12) 0.24454(10) 0.36017(9)
H33 H 0.4193(10) 0.2292(2) 0.35232(12)
H34 H 0.3082(2) 0.1731(8) 0.37594(19)
C35 C 0.3701(2) 0.70243(16) 0.34522(14)
H35 H 0.3104(8) 0.7480(6) 0.3794(5)
H36 H 0.4671(14) 0.6835(3) 0.3666(4)
C36 C 0.3493(4) 0.7724(2) 0.25859(19)
H37 H 0.371(2) 0.8364(16) 0.2540(3)
H38 H 0.259(2) 0.7950(15) 0.2386(6)
H39 H 0.4041(18) 0.7322(10) 0.2259(8)
C37 C -0.30011(12) 0.42663(11) 0.32069(9)
H40 H -0.3504(6) 0.4695(5) 0.2660(6)
H41 H -0.3261(3) 0.4724(5) 0.3570(4)
C38 C -0.33422(14) 0.32473(13) 0.35739(13)
H42 H -0.3116(12) 0.2802(7) 0.3205(6)
H43 H -0.4285(11) 0.3455(3) 0.3638(7)
H44 H -0.2848(11) 0.2819(7) 0.4119(7)
C39 C 0.37090(12) 0.01851(10) 0.29068(8)
H45 H 0.3855(3) 0.0532(5) 0.2336(9)
C40 C 0.47770(12) -0.04206(10) 0.34852(9)
C41 C 0.45484(15) -0.08944(11) 0.42882(9)
H46 H 0.5276(13) -0.1327(8) 0.4703(7)
C42 C 0.32984(15) -0.07581(11) 0.45047(8)
H47 H 0.3163(3) -0.1087(6) 0.5060(10)
C43 C 0.22278(12) -0.01442(10) 0.39217(7)
N5 N 0.09483(12) -0.00028(10) 0.41784(7)
C44 C 0.05939(15) -0.09806(13) 0.43174(8)
H48 H -0.0164(8) -0.09294(13) 0.4654(4)
H49 H 0.1336(8) -0.1638(8) 0.4636(4)
C45 C 0.02525(12) -0.11123(10) 0.35184(7)
C46 C 0.01358(12) -0.20852(10) 0.35131(8)
H50 H 0.0274(3) -0.2684(9) 0.4039(8)
C47 C -0.01688(12) -0.22411(10) 0.27935(8)
C48 C -0.03470(12) -0.13853(11) 0.20585(8)
H51 H -0.0551(3) -0.14759(18) 0.1539(8)
C49 C -0.02416(12) -0.04089(11) 0.20473(8)
H52 H -0.0372(2) 0.0180(9) 0.1525(8)
C50 C 0.00480(11) -0.02597(9) 0.27744(8)
N6 N 0.00917(10) 0.07806(8) 0.27458(7)
C51 C 0.13038(12) 0.09403(10) 0.24507(8)
H53 H 0.11769(18) 0.1725(8) 0.2275(2)
H54 H 0.1507(2) 0.0696(3) 0.1966(5)
C52 C 0.24385(11) 0.03186(9) 0.31068(7)
C53 C -0.00183(13) 0.08999(12) 0.35593(10)
H55 H -0.0900(10) 0.09380(13) 0.3726(2)
H56 H 0.00927(18) 0.1594(8) 0.35331(11)
C54 C 0.61345(14) -0.05292(15) 0.32426(12)
H57 H 0.61857(16) -0.05706(16) 0.2684(7)
H58 H 0.6747(8) -0.1212(9) 0.3614(5)
C55 C 0.65377(15) 0.04062(17) 0.32685(12)
H59 H 0.5895(10) 0.1115(8) 0.2902(8)
H60 H 0.7428(11) 0.0311(6) 0.3069(8)
H61 H 0.6559(12) 0.0417(7) 0.3851(7)
C56 C -0.03500(14) -0.32869(11) 0.28164(10)
H62 H 0.0422(9) -0.3907(7) 0.3109(3)
H63 H -0.04359(16) -0.32924(11) 0.2252(6)
C57 C -0.15437(16) -0.34172(12) 0.32400(9)
H64 H -0.1432(5) -0.3468(9) 0.3817(6)
H65 H -0.1656(6) -0.4083(8) 0.3215(6)
H66 H -0.2313(8) -0.2785(7) 0.2961(5)
C58? C 0.3701(2) 0.70243(16) 0.34522(14)
C59? C 0.4587(8) 0.7229(5) 0.2949(5)
H67? H 0.2825(2) 0.7653(13) 0.3212(7)
H68? H 0.395(2) 0.7080(8) 0.4009(10)
H69? H 0.434(3) 0.729(5) 0.245(3)
H70? H 0.534(5) 0.669(4) 0.312(2)
H71? H 0.468(4) 0.784(5) 0.295(3)
loop_
_geom_bond_atom_site_label_1
_geom_bond_atom_site_label_2
_geom_bond_site_symmetry_1
_geom_bond_site_symmetry_2
C1 H1 1_555 1_555
C2 C1 1_555 1_555
C3 C2 1_555 1_555
H2 C3 1_555 1_555
C4 C3 1_555 1_555
H3 C4 1_555 1_555
C5 C4 1_555 1_555
N1 C5 1_555 1_555
C6 N1 1_555 1_555
H4 C6 1_555 1_555
H5 C6 1_555 1_555
C7 C6 1_555 1_555
C8 C7 1_555 1_555
H6 C8 1_555 1_555
C9 C8 1_555 1_555
C10 C9 1_555 1_555
H7 C10 1_555 1_555
C11 C10 1_555 1_555
H8 C11 1_555 1_555
C12 C7 1_555 1_555
N2 C12 1_555 1_555
C13 N2 1_555 1_555
H9 C13 1_555 1_555
H10 C13 1_555 1_555
C14 C1 1_555 1_555
C15 N1 1_555 1_555
H11 C15 1_555 1_555
H12 C15 1_555 1_555
C16 C2 1_555 1_555
H13 C16 1_555 1_555
H14 C16 1_555 1_555
C17 C16 1_555 1_555
H15 C17 1_555 1_555
H16 C17 1_555 1_555
H17 C17 1_555 1_555
C18 C9 1_555 1_555
H18 C18 1_555 1_555
H19 C18 1_555 1_555
C19 C18 1_555 1_555
H20 C19 1_555 1_555
H21 C19 1_555 1_555
H22 C19 1_555 1_555
C20 H23 1_555 1_555
C21 C20 1_555 1_555
C22 C21 1_555 1_555
H24 C22 1_555 1_555
C23 C22 1_555 1_555
H25 C23 1_555 1_555
C24 C23 1_555 1_555
N3 C24 1_555 1_555
C25 N3 1_555 1_555
H26 C25 1_555 1_555
H27 C25 1_555 1_555
C26 C25 1_555 1_555
C27 C26 1_555 1_555
H28 C27 1_555 1_555
C28 C27 1_555 1_555
C29 C28 1_555 1_555
H29 C29 1_555 1_555
C30 C29 1_555 1_555
H30 C30 1_555 1_555
C31 C26 1_555 1_555
N4 C31 1_555 1_555
C32 N4 1_555 1_555
H31 C32 1_555 1_555
H32 C32 1_555 1_555
C33 C20 1_555 1_555
C34 N3 1_555 1_555
H33 C34 1_555 1_555
H34 C34 1_555 1_555
C35 C21 1_555 1_555
H35 C35 1_555 1_555
H36 C35 1_555 1_555
C36 C35 1_555 1_555
H37 C36 1_555 1_555
H38 C36 1_555 1_555
H39 C36 1_555 1_555
C37 C28 1_555 1_555
H40 C37 1_555 1_555
H41 C37 1_555 1_555
C38 C37 1_555 1_555
H42 C38 1_555 1_555
H43 C38 1_555 1_555
H44 C38 1_555 1_555
C39 H45 1_555 1_555
C40 C39 1_555 1_555
C41 C40 1_555 1_555
H46 C41 1_555 1_555
C42 C41 1_555 1_555
H47 C42 1_555 1_555
C43 C42 1_555 1_555
N5 C43 1_555 1_555
C44 N5 1_555 1_555
H48 C44 1_555 1_555
H49 C44 1_555 1_555
C45 C44 1_555 1_555
C46 C45 1_555 1_555
H50 C46 1_555 1_555
C47 C46 1_555 1_555
C48 C47 1_555 1_555
H51 C48 1_555 1_555
C49 C48 1_555 1_555
H52 C49 1_555 1_555
C50 C45 1_555 1_555
N6 C50 1_555 1_555
C51 N6 1_555 1_555
H53 C51 1_555 1_555
H54 C51 1_555 1_555
C52 C39 1_555 1_555
C53 N5 1_555 1_555
H55 C53 1_555 1_555
H56 C53 1_555 1_555
C54 C40 1_555 1_555
H57 C54 1_555 1_555
H58 C54 1_555 1_555
C55 C54 1_555 1_555
H59 C55 1_555 1_555
H60 C55 1_555 1_555
H61 C55 1_555 1_555
C56 C47 1_555 1_555
H62 C56 1_555 1_555
H63 C56 1_555 1_555
C57 C56 1_555 1_555
H64 C57 1_555 1_555
H65 C57 1_555 1_555
H66 C57 1_555 1_555
C5 C14 1_555 1_555
C11 C12 1_555 1_555
N2 C15 1_555 1_555
C13 C14 1_555 1_555
C24 C33 1_555 1_555
C30 C31 1_555 1_555
N4 C34 1_555 1_555
C32 C33 1_555 1_555
C43 C52 1_555 1_555
C49 C50 1_555 1_555
N6 C53 1_555 1_555
C51 C52 1_555 1_555

#END
