
#######################################################################
#
#                 Cambridge Crystallographic Data Centre
#                                CCDC 
#
#######################################################################
#
# If this CIF has been generated from an entry in the Cambridge 
# Structural Database, then it will include bibliographic, chemical, 
# crystal, experimental, refinement or atomic coordinate data resulting 
# from the CCDC's data processing and validation procedures.
#
#######################################################################

data_DUWBUT
_chemical_name_common            
rac-2,8-Di-isopropyl-5,11-methano-5,6,11,12-tetrahydrodibenzo[b,f][1,5]diazocine
_chemical_formula_moiety         'C21 H26 N2'
_chemical_name_systematic        
rac-5,13-Di-isopropyl-1,9-diazatetracyclo[7.7.1.0^2,7^.0^10,15^]heptadeca-2,4,6,10,12,14-hexaene
_symmetry_cell_setting           triclinic
_symmetry_space_group_name_H-M   'P -1'
_symmetry_Int_Tables_number      2
_space_group_name_Hall           '-P 1'
loop_
_symmetry_equiv_pos_site_id
_symmetry_equiv_pos_as_xyz
1 x,y,z
2 -x,-y,-z
_cell_length_a                   7.6347(11)
_cell_length_b                   15.454(2)
_cell_length_c                   15.936(2)
_cell_angle_alpha                66.214(2)
_cell_angle_beta                 82.257(2)
_cell_angle_gamma                85.370(2)
_cell_volume                     1704.12
_exptl_crystal_colour            colorless
_exptl_crystal_description       block
_chemical_melting_point          '382-383.5 K'
_cell_formula_units_Z            4
_exptl_crystal_recrystallization_method dichloromethane
loop_
_atom_site_label
_atom_site_type_symbol
_atom_site_fract_x
_atom_site_fract_y
_atom_site_fract_z
C1 C 1.07311(15) 0.18135(8) 0.51202(8)
H1 H 1.1802(14) 0.18344(8) 0.5433(4)
C2 C 1.04726(15) 0.25345(8) 0.42661(7)
C3 C 0.89806(15) 0.24915(8) 0.38563(8)
H2 H 0.8754(4) 0.2985(7) 0.3272(8)
C4 C 0.78310(16) 0.17490(8) 0.42817(8)
H3 H 0.6794(15) 0.17314(8) 0.3981(4)
C5 C 0.81220(15) 0.10221(8) 0.51347(7)
N1 N 0.69118(13) 0.02557(7) 0.55410(6)
C6 C 0.52139(15) 0.05358(8) 0.59377(8)
H4 H 0.4280(8) 0.0044(4) 0.60437(12)
H5 H 0.4784(4) 0.1181(6) 0.5476(4)
C7 C 0.53833(15) 0.06078(8) 0.68500(7)
C8 C 0.40442(16) 0.10630(8) 0.72302(8)
H6 H 0.2978(16) 0.1279(3) 0.6934(4)
C9 C 0.42036(16) 0.12133(8) 0.80229(8)
C10 C 0.57672(17) 0.08886(9) 0.84355(8)
H7 H 0.5936(3) 0.10016(18) 0.9001(8)
C11 C 0.70876(16) 0.04164(9) 0.80872(8)
H8 H 0.8172(16) 0.0182(3) 0.8402(5)
C12 C 0.69027(15) 0.02671(8) 0.72914(7)
N2 N 0.82775(13) -0.02506(6) 0.69644(6)
C13 C 0.98669(15) 0.03125(8) 0.65123(8)
H9 H 1.0871(10) -0.0114(4) 0.64492(9)
H10 H 1.0183(3) 0.0624(3) 0.6905(4)
C14 C 0.95750(15) 0.10620(8) 0.55644(7)
C15 C 0.76638(16) -0.05407(8) 0.62862(8)
H11 H 0.8672(9) -0.0831(3) 0.6019(3)
H12 H 0.6755(9) -0.1028(5) 0.6602(3)
C16 C 1.17398(16) 0.33408(8) 0.37619(8)
H13 H 1.0997(10) 0.3955(8) 0.3549(3)
C17 C 1.27219(19) 0.32480(9) 0.28980(9)
H14 H 1.3539(11) 0.2664(6) 0.30870(17)
H15 H 1.3447(11) 0.3833(6) 0.2526(5)
H16 H 1.1832(7) 0.3185(6) 0.2506(5)
C18 C 1.30698(17) 0.34339(9) 0.43521(9)
H17 H 1.2418(5) 0.3485(6) 0.4927(5)
H18 H 1.3779(10) 0.4021(6) 0.3988(4)
H19 H 1.3894(10) 0.2858(5) 0.4533(5)
C19 C 0.27693(17) 0.16998(9) 0.84518(8)
H20 H 0.3369(8) 0.2191(7) 0.8586(2)
C20 C 0.1929(2) 0.09871(11) 0.93771(10)
H21 H 0.1294(13) 0.0508(6) 0.92695(15)
H22 H 0.1074(13) 0.1326(3) 0.9680(4)
H23 H 0.2872(9) 0.0664(6) 0.9785(5)
C21 C 0.13328(18) 0.22195(9) 0.78375(10)
H24 H 0.1896(5) 0.2680(6) 0.7222(6)
H25 H 0.0509(10) 0.2578(6) 0.8146(4)
H26 H 0.0638(10) 0.1746(4) 0.7736(5)
C22 C 0.41616(15) 0.60603(8) 0.22648(8)
H27 H 0.3123(15) 0.6361(4) 0.1948(5)
C23 C 0.43166(15) 0.60981(8) 0.31156(7)
C24 C 0.58072(16) 0.56621(8) 0.35511(8)
H28 H 0.5958(3) 0.56791(8) 0.4148(8)
C25 C 0.70837(16) 0.52040(8) 0.31563(8)
H29 H 0.8133(15) 0.4889(4) 0.3485(5)
C26 C 0.69155(15) 0.51789(8) 0.23053(8)
N3 N 0.82803(13) 0.46979(7) 0.19216(6)
C27 C 0.98747(15) 0.52692(8) 0.15080(8)
H30 H 1.0892(10) 0.4849(4) 0.14067(12)
H31 H 1.0201(4) 0.5530(2) 0.1952(4)
C28 C 0.95990(15) 0.60820(8) 0.05954(7)
C29 C 1.07856(15) 0.68252(8) 0.01982(8)
H32 H 1.1838(15) 0.68073(8) 0.0525(5)
C30 C 1.05597(16) 0.75878(8) -0.06331(8)
C31 C 0.90610(16) 0.76037(8) -0.10648(8)
H33 H 0.8847(3) 0.8144(8) -0.1649(8)
C32 C 0.78836(16) 0.68759(8) -0.06854(8)
H34 H 0.6854(15) 0.69019(9) -0.0995(5)
C33 C 0.81489(15) 0.60992(8) 0.01399(8)
N4 N 0.69202(13) 0.53428(7) 0.04878(7)
C34 C 0.52385(15) 0.56098(9) 0.09124(8)
H35 H 0.4289(9) 0.5143(4) 0.09876(10)
H36 H 0.4828(4) 0.6272(6) 0.0484(4)
C35 C 0.54345(15) 0.56092(8) 0.18522(7)
C36 C 0.76510(16) 0.44951(8) 0.11923(8)
H37 H 0.6706(9) 0.4002(5) 0.1478(3)
H38 H 0.8669(10) 0.4221(3) 0.0888(3)
C37 C 0.28606(16) 0.65882(8) 0.35280(8)
H39 H 0.2479(5) 0.7202(8) 0.2998(7)
C38 C 0.34436(17) 0.68658(9) 0.42634(8)
H40 H 0.3686(11) 0.6272(5) 0.4826(5)
H41 H 0.2470(9) 0.7265(6) 0.4448(5)
H42 H 0.4562(11) 0.7244(6) 0.4006(3)
C39 C 0.12493(17) 0.59635(10) 0.39312(10)
H43 H 0.0842(8) 0.5805(6) 0.3441(4)
H44 H 0.0277(9) 0.6309(4) 0.4165(6)
H45 H 0.1576(4) 0.5368(6) 0.4451(6)
C40 C 1.18768(17) 0.83773(8) -0.10973(8)
H46 H 1.1156(10) 0.9006(9) -0.1360(4)
C41 C 1.30744(18) 0.84771(9) -0.04510(9)
H47 H 1.2328(6) 0.8536(6) 0.0097(5)
H48 H 1.3800(11) 0.9060(6) -0.0790(3)
H49 H 1.3888(10) 0.7901(6) -0.0232(5)
C42 C 1.2992(2) 0.82465(10) -0.19140(9)
H50 H 1.3743(11) 0.7653(6) -0.1681(2)
H51 H 1.3772(12) 0.8803(6) -0.2253(5)
H52 H 1.2191(7) 0.8199(7) -0.2343(5)
loop_
_geom_bond_atom_site_label_1
_geom_bond_atom_site_label_2
_geom_bond_site_symmetry_1
_geom_bond_site_symmetry_2
C1 H1 1_555 1_555
C2 C1 1_555 1_555
C3 C2 1_555 1_555
H2 C3 1_555 1_555
C4 C3 1_555 1_555
H3 C4 1_555 1_555
C5 C4 1_555 1_555
N1 C5 1_555 1_555
C6 N1 1_555 1_555
H4 C6 1_555 1_555
H5 C6 1_555 1_555
C7 C6 1_555 1_555
C8 C7 1_555 1_555
H6 C8 1_555 1_555
C9 C8 1_555 1_555
C10 C9 1_555 1_555
H7 C10 1_555 1_555
C11 C10 1_555 1_555
H8 C11 1_555 1_555
C12 C7 1_555 1_555
N2 C12 1_555 1_555
C13 N2 1_555 1_555
H9 C13 1_555 1_555
H10 C13 1_555 1_555
C14 C1 1_555 1_555
C15 N1 1_555 1_555
H11 C15 1_555 1_555
H12 C15 1_555 1_555
C16 C2 1_555 1_555
H13 C16 1_555 1_555
C17 C16 1_555 1_555
H14 C17 1_555 1_555
H15 C17 1_555 1_555
H16 C17 1_555 1_555
C18 C16 1_555 1_555
H17 C18 1_555 1_555
H18 C18 1_555 1_555
H19 C18 1_555 1_555
C19 C9 1_555 1_555
H20 C19 1_555 1_555
C20 C19 1_555 1_555
H21 C20 1_555 1_555
H22 C20 1_555 1_555
H23 C20 1_555 1_555
C21 C19 1_555 1_555
H24 C21 1_555 1_555
H25 C21 1_555 1_555
H26 C21 1_555 1_555
C22 H27 1_555 1_555
C23 C22 1_555 1_555
C24 C23 1_555 1_555
H28 C24 1_555 1_555
C25 C24 1_555 1_555
H29 C25 1_555 1_555
C26 C25 1_555 1_555
N3 C26 1_555 1_555
C27 N3 1_555 1_555
H30 C27 1_555 1_555
H31 C27 1_555 1_555
C28 C27 1_555 1_555
C29 C28 1_555 1_555
H32 C29 1_555 1_555
C30 C29 1_555 1_555
C31 C30 1_555 1_555
H33 C31 1_555 1_555
C32 C31 1_555 1_555
H34 C32 1_555 1_555
C33 C28 1_555 1_555
N4 C33 1_555 1_555
C34 N4 1_555 1_555
H35 C34 1_555 1_555
H36 C34 1_555 1_555
C35 C22 1_555 1_555
C36 N3 1_555 1_555
H37 C36 1_555 1_555
H38 C36 1_555 1_555
C37 C23 1_555 1_555
H39 C37 1_555 1_555
C38 C37 1_555 1_555
H40 C38 1_555 1_555
H41 C38 1_555 1_555
H42 C38 1_555 1_555
C39 C37 1_555 1_555
H43 C39 1_555 1_555
H44 C39 1_555 1_555
H45 C39 1_555 1_555
C40 C30 1_555 1_555
H46 C40 1_555 1_555
C41 C40 1_555 1_555
H47 C41 1_555 1_555
H48 C41 1_555 1_555
H49 C41 1_555 1_555
C42 C40 1_555 1_555
H50 C42 1_555 1_555
H51 C42 1_555 1_555
H52 C42 1_555 1_555
C5 C14 1_555 1_555
C11 C12 1_555 1_555
N2 C15 1_555 1_555
C13 C14 1_555 1_555
C26 C35 1_555 1_555
C32 C33 1_555 1_555
N4 C36 1_555 1_555
C34 C35 1_555 1_555

#END
