
#######################################################################
#
#                 Cambridge Crystallographic Data Centre
#                                CCDC 
#
#######################################################################
#
# If this CIF has been generated from an entry in the Cambridge 
# Structural Database, then it will include bibliographic, chemical, 
# crystal, experimental, refinement or atomic coordinate data resulting 
# from the CCDC's data processing and validation procedures.
#
#######################################################################

data_DUWBII
_chemical_name_common            
'cis-2-methylspiro[1,3-oxathiolane-5,3-quinuclidine] hydrochloride hemihydrate'
_chemical_formula_moiety         'C10 H18 N1 O1 S1 1+,Cl1 1-,0.5(H2 O1)'
_chemical_name_systematic        
"(+-)-cis-2'-Methylspiro[4-azoniabicyclo[2.2.2]octane-2,5'-[1,3]oxathiolane] chloride hemihydrate"
_chemical_properties_biological  'Cevimeline is muscarinic receptor agonist'
_symmetry_cell_setting           monoclinic
_symmetry_space_group_name_H-M   'C 2/c'
_symmetry_Int_Tables_number      15
_space_group_name_Hall           '-C 2yn'
loop_
_symmetry_equiv_pos_site_id
_symmetry_equiv_pos_as_xyz
1 x,y,z
2 -x,y,1/2-z
3 1/2+x,1/2+y,z
4 1/2-x,1/2+y,1/2-z
5 -x,-y,-z
6 x,-y,1/2+z
7 1/2-x,1/2-y,-z
8 1/2+x,1/2-y,1/2+z
_cell_length_a                   30.8593(5)
_cell_length_b                   6.8021(2)
_cell_length_c                   12.4834(3)
_cell_angle_alpha                90
_cell_angle_beta                 111.3750(10)
_cell_angle_gamma                90
_cell_volume                     2440.12
_exptl_crystal_colour            colorless
_exptl_crystal_description       needle
_cell_formula_units_Z            8
loop_
_atom_site_label
_atom_site_type_symbol
_atom_site_fract_x
_atom_site_fract_y
_atom_site_fract_z
Cl1 Cl 0.54369(5) -0.1668(2) 0.12891(13)
S1 S 0.29855(10) 0.0247(5) 0.0610(2)
C1 C 0.2908(2) -0.0358(11) -0.0855(7)
H1 H 0.2714 -0.1540 -0.1083
O1 O 0.3350(2) -0.0790(11) -0.0818(5)
C2 C 0.3619(2) -0.1929(11) 0.0180(6)
C3 C 0.3421(3) -0.1498(17) 0.1126(7)
H2 H 0.3665 -0.1017 0.1814
H3 H 0.3294 -0.2692 0.1321
C4 C 0.2697(3) 0.1217(14) -0.1698(7)
H4 H 0.2869 0.2412 -0.1439
H5 H 0.2380 0.1414 -0.1769
H6 H 0.2707 0.0853 -0.2432
N1 N 0.43950(17) -0.2771(8) 0.0201(4)
H7 H 0.4684 -0.2284 0.0323
C5 C 0.4124(3) -0.1235(9) 0.0512(6)
H8 H 0.4132 -0.0024 0.0110
H9 H 0.4257 -0.0981 0.1332
C6 C 0.3601(2) -0.4112(12) -0.0125(6)
H10 H 0.3291 -0.4641 -0.0252
C7 C 0.3715(2) -0.4374(12) -0.1203(6)
H11 H 0.3467 -0.3822 -0.1860
H12 H 0.3743 -0.5760 -0.1348
C8 C 0.4176(2) -0.3317(10) -0.1031(5)
H13 H 0.4380 -0.4176 -0.1250
H14 H 0.4117 -0.2148 -0.1507
C9 C 0.4446(2) -0.4554(10) 0.0942(6)
H15 H 0.4639 -0.4254 0.1732
H16 H 0.4593 -0.5606 0.0674
C10 C 0.3965(3) -0.5191(11) 0.0869(8)
H17 H 0.3923 -0.4880 0.1584
H18 H 0.3930 -0.6600 0.0749
O2 O 0.5000 0.1761(11) 0.2500
H19 H 0.5221 0.0893 0.2394
H19A H 0.4779 0.0893 0.2606
Cl2? Cl 0.5420(10) -0.168(4) 0.027(2)
loop_
_geom_bond_atom_site_label_1
_geom_bond_atom_site_label_2
_geom_bond_site_symmetry_1
_geom_bond_site_symmetry_2
S1 C1 1_555 1_555
C1 H1 1_555 1_555
O1 C1 1_555 1_555
C2 O1 1_555 1_555
C3 S1 1_555 1_555
H2 C3 1_555 1_555
H3 C3 1_555 1_555
C4 C1 1_555 1_555
H4 C4 1_555 1_555
H5 C4 1_555 1_555
H6 C4 1_555 1_555
N1 H7 1_555 1_555
C5 C2 1_555 1_555
H8 C5 1_555 1_555
H9 C5 1_555 1_555
C6 C2 1_555 1_555
H10 C6 1_555 1_555
C7 C6 1_555 1_555
H11 C7 1_555 1_555
H12 C7 1_555 1_555
C8 N1 1_555 1_555
H13 C8 1_555 1_555
H14 C8 1_555 1_555
C9 N1 1_555 1_555
H15 C9 1_555 1_555
H16 C9 1_555 1_555
C10 C6 1_555 1_555
H17 C10 1_555 1_555
H18 C10 1_555 1_555
O2 H19 1_555 1_555
H19A O2 1_555 1_555
C2 C3 1_555 1_555
N1 C5 1_555 1_555
C7 C8 1_555 1_555
C9 C10 1_555 1_555

#END
