
#######################################################################
#
#                 Cambridge Crystallographic Data Centre
#                                CCDC 
#
#######################################################################
#
# If this CIF has been generated from an entry in the Cambridge 
# Structural Database, then it will include bibliographic, chemical, 
# crystal, experimental, refinement or atomic coordinate data resulting 
# from the CCDC's data processing and validation procedures.
#
#######################################################################

data_DUWBUT01
_chemical_name_common            
rac-2,8-Di-isopropyl-5,11-methano-5,6,11,12-tetrahydrodibenzo[b,f][1,5]diazocine
_chemical_formula_moiety         'C21 H26 N2'
_chemical_name_systematic        
rac-5,13-Di-isopropyl-1,9-diazatetracyclo[7.7.1.0^2,7^.0^10,15^]heptadeca-2,4,6,10,12,14-hexaene
_symmetry_cell_setting           monoclinic
_symmetry_space_group_name_H-M   'P 21/c'
_symmetry_Int_Tables_number      14
_space_group_name_Hall           '-P 2ybc'
loop_
_symmetry_equiv_pos_site_id
_symmetry_equiv_pos_as_xyz
1 x,y,z
2 -x,1/2+y,1/2-z
3 -x,-y,-z
4 x,1/2-y,1/2+z
_cell_length_a                   14.9437(17)
_cell_length_b                   33.259(4)
_cell_length_c                   10.7536(12)
_cell_angle_alpha                90
_cell_angle_beta                 104.713(2)
_cell_angle_gamma                90
_cell_volume                     5169.42
_exptl_crystal_colour            colorless
_exptl_crystal_description       needle
_chemical_melting_point          '384.5-385.5 K'
_cell_formula_units_Z            12
_exptl_crystal_recrystallization_method dichloromethane
loop_
_atom_site_label
_atom_site_type_symbol
_atom_site_fract_x
_atom_site_fract_y
_atom_site_fract_z
C1 C 0.00679(12) 0.12519(6) 0.64519(17)
H1 H -0.0033(2) 0.1540(6) 0.6504(2)
C2 C -0.05178(12) 0.10316(6) 0.54716(17)
C3 C -0.03633(12) 0.06191(6) 0.54286(17)
H2 H -0.0763(9) 0.0459(4) 0.4767(14)
C4 C 0.03522(12) 0.04357(6) 0.63168(17)
H3 H 0.0446(2) 0.0160(6) 0.6265(2)
C5 C 0.09348(12) 0.06589(5) 0.72885(16)
N1 N 0.16587(10) 0.04521(5) 0.82011(14)
C6 C 0.24686(12) 0.03693(6) 0.76926(18)
H4 H 0.2250(3) 0.02685(16) 0.6786(13)
H5 H 0.2850(5) 0.0151(3) 0.8220(7)
C7 C 0.30689(12) 0.07363(6) 0.77080(16)
C8 C 0.37682(12) 0.07340(6) 0.70551(17)
H6 H 0.3870(2) 0.0486(5) 0.6599(10)
C9 C 0.43223(13) 0.10653(6) 0.70237(18)
C10 C 0.41600(13) 0.14110(6) 0.7668(2)
H7 H 0.4544(9) 0.1657(6) 0.7652(2)
C11 C 0.34764(13) 0.14207(6) 0.83318(19)
H8 H 0.3373(3) 0.1671(6) 0.8783(10)
C12 C 0.29336(12) 0.10832(6) 0.83704(17)
N2 N 0.22538(11) 0.10988(5) 0.91060(14)
C13 C 0.14150(13) 0.13197(6) 0.84214(17)
H9 H 0.1601(3) 0.1567(4) 0.8046(6)
H10 H 0.1063(5) 0.13999(13) 0.9044(9)
C14 C 0.07947(12) 0.10725(5) 0.73627(17)
C15 C 0.19722(13) 0.06918(6) 0.93783(17)
H11 H 0.2508(8) 0.0553(2) 0.9975(9)
H12 H 0.1459(7) 0.07107(6) 0.9822(7)
C16 C -0.13258(12) 0.12347(6) 0.45429(17)
H13 H -0.1179(3) 0.1526(6) 0.45225(18)
C17 C -0.14995(14) 0.10732(6) 0.31701(17)
H14 H -0.0920(8) 0.1102(4) 0.2863(6)
H15 H -0.2016(9) 0.1230(3) 0.2588(8)
H16 H -0.1677(10) 0.0781(4) 0.3156(3)
C18 C -0.21993(13) 0.11944(6) 0.50309(19)
H17 H -0.2369(6) 0.0905(4) 0.5046(12)
H18 H -0.2716(7) 0.1344(4) 0.4449(10)
H19 H -0.2080(3) 0.1307(4) 0.5915(12)
C19 C 0.50905(13) 0.10493(6) 0.63359(19)
H20 H 0.5021(2) 0.0790(6) 0.5832(12)
C20 C 0.60389(14) 0.10425(8) 0.7307(2)
H21 H 0.6138(5) 0.1301(4) 0.7794(13)
H22 H 0.6533(7) 0.1008(5) 0.6841(7)
H23 H 0.6064(4) 0.0814(4) 0.7918(13)
C21 C 0.50414(14) 0.13947(7) 0.5389(2)
H24 H 0.4393(9) 0.1396(3) 0.4733(12)
H25 H 0.5554(9) 0.1358(2) 0.4896(12)
H26 H 0.5144(10) 0.1667(4) 0.5888(7)
C22 C 0.00073(12) 0.45710(6) 0.64925(16)
H27 H -0.0153(4) 0.4852(6) 0.6593(3)
C23 C -0.05159(12) 0.43524(5) 0.54537(17)
C24 C -0.02699(12) 0.39521(6) 0.53344(17)
H28 H -0.0614(8) 0.3795(3) 0.4625(15)
C25 C 0.04624(12) 0.37779(6) 0.62230(17)
H29 H 0.0617(4) 0.3503(6) 0.6124(3)
C26 C 0.09753(12) 0.39987(5) 0.72580(16)
N3 N 0.17133(10) 0.38013(5) 0.81738(14)
C27 C 0.25636(12) 0.37683(6) 0.77168(18)
H30 H 0.2391(3) 0.36915(13) 0.6791(13)
H31 H 0.2959(6) 0.3550(3) 0.8203(7)
C28 C 0.31165(12) 0.41555(5) 0.78763(17)
C29 C 0.38597(12) 0.41994(6) 0.73141(18)
H32 H 0.4024(4) 0.3974(5) 0.6830(11)
C30 C 0.43710(12) 0.45525(6) 0.74210(18)
C31 C 0.41199(13) 0.48685(6) 0.81169(19)
H33 H 0.4469(8) 0.5126(6) 0.8200(3)
C32 C 0.33929(13) 0.48303(6) 0.86955(18)
H34 H 0.3231(4) 0.5058(5) 0.9188(11)
C33 C 0.28915(12) 0.44749(6) 0.85867(17)
N4 N 0.21600(10) 0.44422(5) 0.92271(14)
C34 C 0.13044(12) 0.46466(6) 0.85213(16)
H35 H 0.1469(3) 0.4910(4) 0.8199(5)
H36 H 0.0911(6) 0.47008(10) 0.9124(8)
C35 C 0.07513(12) 0.44017(5) 0.73920(16)
C36 C 0.19375(13) 0.40204(6) 0.93942(17)
H37 H 0.2477(8) 0.3889(2) 1.0000(9)
H38 H 0.1399(8) 0.40062(6) 0.9786(6)
C37 C -0.13448(12) 0.45449(6) 0.45306(17)
H39 H -0.1199(3) 0.4832(6) 0.4451(2)
C38 C -0.15635(14) 0.43613(6) 0.31872(17)
H40 H -0.0994(7) 0.4374(4) 0.2842(7)
H41 H -0.2084(9) 0.4517(3) 0.2598(8)
H42 H -0.1758(9) 0.4071(4) 0.3230(3)
C39 C -0.21931(13) 0.45221(7) 0.50836(18)
H43 H -0.2368(6) 0.4236(4) 0.5149(12)
H44 H -0.2718(7) 0.4669(4) 0.4508(10)
H45 H -0.2044(4) 0.4647(4) 0.5953(12)
C40 C 0.52006(13) 0.45965(6) 0.68626(18)
H46 H 0.5353(4) 0.4893(6) 0.68673(18)
C41 C 0.60426(14) 0.43837(7) 0.7713(2)
H47 H 0.6165(7) 0.4491(4) 0.8613(13)
H48 H 0.6596(8) 0.4433(4) 0.7368(10)
H49 H 0.5919(4) 0.4087(4) 0.7718(12)
C42 C 0.50202(15) 0.44507(7) 0.5475(2)
H50 H 0.4892(11) 0.4148(4) 0.5440(3)
H51 H 0.5589(8) 0.4508(4) 0.5135(7)
H52 H 0.4458(10) 0.4599(4) 0.4919(8)
C43 C 0.00627(12) 0.79177(6) 0.68932(17)
H53 H -0.0074(3) 0.8198(6) 0.6970(2)
C44 C -0.04820(12) 0.76963(6) 0.58814(17)
C45 C -0.02693(13) 0.72903(6) 0.57947(17)
H54 H -0.0636(8) 0.7130(4) 0.5106(15)
C46 C 0.04592(13) 0.71152(6) 0.66815(17)
H55 H 0.0592(3) 0.6840(6) 0.6601(2)
C47 C 0.10014(12) 0.73375(5) 0.76911(17)
N5 N 0.17358(10) 0.71392(5) 0.86054(14)
C48 C 0.25791(12) 0.70957(6) 0.81400(18)
H56 H 0.2398(3) 0.70137(13) 0.7215(13)
H57 H 0.2971(6) 0.6877(3) 0.8636(7)
C49 C 0.31449(12) 0.74793(6) 0.82720(17)
C50 C 0.38872(13) 0.75116(6) 0.77033(18)
H58 H 0.4032(3) 0.7285(5) 0.7219(11)
C51 C 0.44232(13) 0.78574(6) 0.78093(18)
C52 C 0.41910(13) 0.81802(6) 0.85021(19)
H59 H 0.4559(8) 0.8435(6) 0.8583(3)
C53 C 0.34644(13) 0.81549(6) 0.90756(19)
H60 H 0.3312(4) 0.8390(5) 0.9563(11)
C54 C 0.29422(12) 0.78039(6) 0.89804(17)
N6 N 0.22132(11) 0.77838(5) 0.96277(14)
C55 C 0.13705(13) 0.79929(6) 0.89086(17)
H61 H 0.1550(3) 0.8251(4) 0.8566(5)
H62 H 0.0981(6) 0.80589(12) 0.9509(9)
C56 C 0.08020(12) 0.77457(5) 0.77998(17)
C57 C 0.19746(13) 0.73650(6) 0.98156(18)
H63 H 0.1430(8) 0.73587(6) 1.0220(6)
H64 H 0.2520(8) 0.7230(2) 1.0434(9)
C58 C -0.13115(13) 0.78917(6) 0.49652(17)
H65 H -0.1177(3) 0.8175(6) 0.4919(2)
C59 C -0.15144(14) 0.77218(6) 0.36016(18)
H66 H -0.0950(8) 0.7747(4) 0.3268(7)
H67 H -0.2035(9) 0.7875(3) 0.3031(8)
H68 H -0.1690(10) 0.7432(4) 0.3613(3)
C60 C -0.21659(13) 0.78536(6) 0.54973(19)
H69 H -0.2327(6) 0.7561(4) 0.5549(12)
H70 H -0.2703(7) 0.7998(4) 0.4911(10)
H71 H -0.2031(4) 0.7977(4) 0.6383(12)
C61 C 0.52659(13) 0.78938(6) 0.72671(18)
H72 H 0.52769(13) 0.8174(6) 0.6947(7)
C62 C 0.61503(15) 0.78330(9) 0.8323(2)
H73 H 0.6173(6) 0.7545(4) 0.8659(12)
H74 H 0.6161(6) 0.8029(5) 0.9058(13)
H75 H 0.6709(8) 0.7884(5) 0.7963(7)
C63 C 0.52549(16) 0.76154(7) 0.6148(2)
H76 H 0.5312(11) 0.7327(4) 0.6459(5)
H77 H 0.5792(9) 0.7683(3) 0.5770(11)
H78 H 0.4653(9) 0.7650(3) 0.5466(11)
loop_
_geom_bond_atom_site_label_1
_geom_bond_atom_site_label_2
_geom_bond_site_symmetry_1
_geom_bond_site_symmetry_2
C1 H1 1_555 1_555
C2 C1 1_555 1_555
C3 C2 1_555 1_555
H2 C3 1_555 1_555
C4 C3 1_555 1_555
H3 C4 1_555 1_555
C5 C4 1_555 1_555
N1 C5 1_555 1_555
C6 N1 1_555 1_555
H4 C6 1_555 1_555
H5 C6 1_555 1_555
C7 C6 1_555 1_555
C8 C7 1_555 1_555
H6 C8 1_555 1_555
C9 C8 1_555 1_555
C10 C9 1_555 1_555
H7 C10 1_555 1_555
C11 C10 1_555 1_555
H8 C11 1_555 1_555
C12 C7 1_555 1_555
N2 C12 1_555 1_555
C13 N2 1_555 1_555
H9 C13 1_555 1_555
H10 C13 1_555 1_555
C14 C1 1_555 1_555
C15 N1 1_555 1_555
H11 C15 1_555 1_555
H12 C15 1_555 1_555
C16 C2 1_555 1_555
H13 C16 1_555 1_555
C17 C16 1_555 1_555
H14 C17 1_555 1_555
H15 C17 1_555 1_555
H16 C17 1_555 1_555
C18 C16 1_555 1_555
H17 C18 1_555 1_555
H18 C18 1_555 1_555
H19 C18 1_555 1_555
C19 C9 1_555 1_555
H20 C19 1_555 1_555
C20 C19 1_555 1_555
H21 C20 1_555 1_555
H22 C20 1_555 1_555
H23 C20 1_555 1_555
C21 C19 1_555 1_555
H24 C21 1_555 1_555
H25 C21 1_555 1_555
H26 C21 1_555 1_555
C22 H27 1_555 1_555
C23 C22 1_555 1_555
C24 C23 1_555 1_555
H28 C24 1_555 1_555
C25 C24 1_555 1_555
H29 C25 1_555 1_555
C26 C25 1_555 1_555
N3 C26 1_555 1_555
C27 N3 1_555 1_555
H30 C27 1_555 1_555
H31 C27 1_555 1_555
C28 C27 1_555 1_555
C29 C28 1_555 1_555
H32 C29 1_555 1_555
C30 C29 1_555 1_555
C31 C30 1_555 1_555
H33 C31 1_555 1_555
C32 C31 1_555 1_555
H34 C32 1_555 1_555
C33 C28 1_555 1_555
N4 C33 1_555 1_555
C34 N4 1_555 1_555
H35 C34 1_555 1_555
H36 C34 1_555 1_555
C35 C22 1_555 1_555
C36 N3 1_555 1_555
H37 C36 1_555 1_555
H38 C36 1_555 1_555
C37 C23 1_555 1_555
H39 C37 1_555 1_555
C38 C37 1_555 1_555
H40 C38 1_555 1_555
H41 C38 1_555 1_555
H42 C38 1_555 1_555
C39 C37 1_555 1_555
H43 C39 1_555 1_555
H44 C39 1_555 1_555
H45 C39 1_555 1_555
C40 C30 1_555 1_555
H46 C40 1_555 1_555
C41 C40 1_555 1_555
H47 C41 1_555 1_555
H48 C41 1_555 1_555
H49 C41 1_555 1_555
C42 C40 1_555 1_555
H50 C42 1_555 1_555
H51 C42 1_555 1_555
H52 C42 1_555 1_555
C43 H53 1_555 1_555
C44 C43 1_555 1_555
C45 C44 1_555 1_555
H54 C45 1_555 1_555
C46 C45 1_555 1_555
H55 C46 1_555 1_555
C47 C46 1_555 1_555
N5 C47 1_555 1_555
C48 N5 1_555 1_555
H56 C48 1_555 1_555
H57 C48 1_555 1_555
C49 C48 1_555 1_555
C50 C49 1_555 1_555
H58 C50 1_555 1_555
C51 C50 1_555 1_555
C52 C51 1_555 1_555
H59 C52 1_555 1_555
C53 C52 1_555 1_555
H60 C53 1_555 1_555
C54 C49 1_555 1_555
N6 C54 1_555 1_555
C55 N6 1_555 1_555
H61 C55 1_555 1_555
H62 C55 1_555 1_555
C56 C43 1_555 1_555
C57 N5 1_555 1_555
H63 C57 1_555 1_555
H64 C57 1_555 1_555
C58 C44 1_555 1_555
H65 C58 1_555 1_555
C59 C58 1_555 1_555
H66 C59 1_555 1_555
H67 C59 1_555 1_555
H68 C59 1_555 1_555
C60 C58 1_555 1_555
H69 C60 1_555 1_555
H70 C60 1_555 1_555
H71 C60 1_555 1_555
C61 C51 1_555 1_555
H72 C61 1_555 1_555
C62 C61 1_555 1_555
H73 C62 1_555 1_555
H74 C62 1_555 1_555
H75 C62 1_555 1_555
C63 C61 1_555 1_555
H76 C63 1_555 1_555
H77 C63 1_555 1_555
H78 C63 1_555 1_555
C5 C14 1_555 1_555
C11 C12 1_555 1_555
N2 C15 1_555 1_555
C13 C14 1_555 1_555
C26 C35 1_555 1_555
C32 C33 1_555 1_555
N4 C36 1_555 1_555
C34 C35 1_555 1_555
C47 C56 1_555 1_555
C53 C54 1_555 1_555
N6 C57 1_555 1_555
C55 C56 1_555 1_555

#END
