
#######################################################################
#
#                 Cambridge Crystallographic Data Centre
#                                CCDC 
#
#######################################################################
#
# If this CIF has been generated from an entry in the Cambridge 
# Structural Database, then it will include bibliographic, chemical, 
# crystal, experimental, refinement or atomic coordinate data resulting 
# from the CCDC's data processing and validation procedures.
#
#######################################################################

data_DUWBOO
_chemical_name_common            
'trans-2-Methylspiro[1,3-oxathiolane-5,3-quinuclidine] hydrochloride hemihydrate'
_chemical_formula_moiety         'C10 H18 N1 O1 S1 1+,Cl1 1-,0.5(H2 O1)'
_chemical_name_systematic        
"(+-)-trans-2'-Methylspiro[4-azoniabicyclo[2.2.2]octane-2,5'-[1,3]oxathiolane] chloride hemihydrate"
_symmetry_cell_setting           monoclinic
_symmetry_space_group_name_H-M   'C 2/c'
_symmetry_Int_Tables_number      15
_space_group_name_Hall           '-C 2yn'
loop_
_symmetry_equiv_pos_site_id
_symmetry_equiv_pos_as_xyz
1 x,y,z
2 -x,y,1/2-z
3 1/2+x,1/2+y,z
4 1/2-x,1/2+y,1/2-z
5 -x,-y,-z
6 x,-y,1/2+z
7 1/2-x,1/2-y,-z
8 1/2+x,1/2-y,1/2+z
_cell_length_a                   29.9567(8)
_cell_length_b                   7.1137(2)
_cell_length_c                   12.1928(3)
_cell_angle_alpha                90
_cell_angle_beta                 112.056(2)
_cell_angle_gamma                90
_cell_volume                     2408.17
_exptl_crystal_colour            colorless
_exptl_crystal_description       needle
_cell_formula_units_Z            8
loop_
_atom_site_label
_atom_site_type_symbol
_atom_site_fract_x
_atom_site_fract_y
_atom_site_fract_z
Cl1 Cl 0.953662(17) -0.16246(8) 0.37139(4)
S1 S 0.81080(3) 0.05992(10) 0.06698(6)
C1 C 0.81125(8) 0.0564(3) -0.08347(19)
H1 H 0.8364 0.1418 -0.0866
O1 O 0.82309(5) -0.1291(2) -0.10405(11)
C2 C 0.85570(6) -0.2149(3) 0.00220(15)
C3 C 0.83385(8) -0.1767(3) 0.09537(19)
H2 H 0.8582 -0.1872 0.1746
H3 H 0.8081 -0.2651 0.0873
C4 C 0.76429(10) 0.1111(4) -0.1776(2)
H4 H 0.7672 0.1077 -0.2534
H5 H 0.7558 0.2359 -0.1625
H6 H 0.7397 0.0247 -0.1774
N1 N 0.93864(6) -0.2712(3) 0.01403(14)
C5 C 0.90691(7) -0.1316(3) 0.03968(17)
H7 H 0.9060 -0.0163 -0.0036
H8 H 0.9194 -0.1025 0.1235
C6 C 0.85797(7) -0.4225(3) -0.02609(17)
H9 H 0.8267 -0.4824 -0.0419
C7 C 0.87216(7) -0.4416(3) -0.13396(17)
H10 H 0.8776 -0.5728 -0.1465
H11 H 0.8463 -0.3954 -0.2040
C8 C 0.91782(8) -0.3290(3) -0.11345(17)
H12 H 0.9408 -0.4050 -0.1323
H13 H 0.9104 -0.2186 -0.1639
C9 C 0.94583(8) -0.4401(3) 0.09178(19)
H14 H 0.9642 -0.4060 0.1734
H15 H 0.9636 -0.5356 0.0684
C10 C 0.89676(8) -0.5159(3) 0.07988(19)
H16 H 0.8909 -0.4896 0.1514
H17 H 0.8959 -0.6511 0.0686
H18 H 0.9647(8) -0.227(3) 0.0320(19)
O2 O 1.0000 0.1729(4) 0.2500
H19 H 1.0058 0.1008 0.2038
H19A H 0.9942 0.1008 0.2962
loop_
_geom_bond_atom_site_label_1
_geom_bond_atom_site_label_2
_geom_bond_site_symmetry_1
_geom_bond_site_symmetry_2
S1 C1 1_555 1_555
C1 H1 1_555 1_555
O1 C1 1_555 1_555
C2 O1 1_555 1_555
C3 S1 1_555 1_555
H2 C3 1_555 1_555
H3 C3 1_555 1_555
C4 C1 1_555 1_555
H4 C4 1_555 1_555
H5 C4 1_555 1_555
H6 C4 1_555 1_555
N1 C5 1_555 1_555
C5 C2 1_555 1_555
H7 C5 1_555 1_555
H8 C5 1_555 1_555
C6 C2 1_555 1_555
H9 C6 1_555 1_555
C7 C6 1_555 1_555
H10 C7 1_555 1_555
H11 C7 1_555 1_555
C8 N1 1_555 1_555
H12 C8 1_555 1_555
H13 C8 1_555 1_555
C9 N1 1_555 1_555
H14 C9 1_555 1_555
H15 C9 1_555 1_555
C10 C6 1_555 1_555
H16 C10 1_555 1_555
H17 C10 1_555 1_555
H18 N1 1_555 1_555
O2 H19 1_555 1_555
H19A O2 1_555 1_555
C2 C3 1_555 1_555
C7 C8 1_555 1_555
C9 C10 1_555 1_555

#END
