
#######################################################################
#
#                 Cambridge Crystallographic Data Centre
#                                CCDC 
#
#######################################################################
#
# If this CIF has been generated from an entry in the Cambridge 
# Structural Database, then it will include bibliographic, chemical, 
# crystal, experimental, refinement or atomic coordinate data resulting 
# from the CCDC's data processing and validation procedures.
#
#######################################################################

data_DUWCII
_chemical_name_common            
rac-2,8-Di-t-butyl-5,11-methano-5,6,11,12-tetrahydrodibenzo[b,f][1,5]diazocine
_chemical_formula_moiety         'C23 H30 N2'
_chemical_name_systematic        
rac-5,13-Di-t-butyl-1,9-diazatetracyclo[7.7.1.0^2,7^.0^10,15^]heptadeca-2,4,6,10,12,14-hexaene
_symmetry_cell_setting           monoclinic
_symmetry_space_group_name_H-M   'P 21/c'
_symmetry_Int_Tables_number      14
_space_group_name_Hall           '-P 2ybc'
loop_
_symmetry_equiv_pos_site_id
_symmetry_equiv_pos_as_xyz
1 x,y,z
2 -x,1/2+y,1/2-z
3 -x,-y,-z
4 x,1/2-y,1/2+z
_cell_length_a                   15.529(4)
_cell_length_b                   12.186(3)
_cell_length_c                   10.764(2)
_cell_angle_alpha                90
_cell_angle_beta                 110.147(6)
_cell_angle_gamma                90
_cell_volume                     1912.3
_exptl_crystal_colour            colorless
_exptl_crystal_description       needle
_chemical_melting_point          '480-482 K'
_cell_formula_units_Z            4
_exptl_crystal_recrystallization_method dichloromethane
loop_
_atom_site_label
_atom_site_type_symbol
_atom_site_fract_x
_atom_site_fract_y
_atom_site_fract_z
C1 C 0.64043(12) 0.73445(15) 0.72225(17)
H1 H 0.6238(4) 0.6682(14) 0.7629(9)
C2 C 0.59087(12) 0.83062(15) 0.71615(17)
C3 C 0.61812(12) 0.92316(15) 0.66088(17)
H2 H 0.5862(7) 0.9942(16) 0.65881(18)
C4 C 0.68859(12) 0.91756(15) 0.60905(17)
H3 H 0.7053(4) 0.9827(15) 0.5704(9)
C5 C 0.73562(12) 0.81925(15) 0.61189(16)
N1 N 0.80456(10) 0.81446(13) 0.54934(14)
C6 C 0.89083(12) 0.86750(15) 0.62846(17)
H4 H 0.8770(2) 0.9381(10) 0.6638(5)
H5 H 0.9272(5) 0.8841(3) 0.5707(8)
C7 C 0.94725(12) 0.79617(15) 0.74229(16)
C8 C 1.02184(12) 0.83980(15) 0.84231(17)
H6 H 1.0380(4) 0.9185(17) 0.8370(2)
C9 C 1.07476(12) 0.77774(15) 0.94955(17)
C10 C 1.05174(12) 0.66695(15) 0.95222(17)
H7 H 1.0882(8) 0.6208(10) 1.0250(16)
C11 C 0.97803(12) 0.62216(15) 0.85300(17)
H8 H 0.9636(4) 0.5467(18) 0.8569(2)
C12 C 0.92489(12) 0.68552(15) 0.74800(17)
N2 N 0.84984(10) 0.63498(13) 0.64700(14)
C13 C 0.76765(12) 0.62239(15) 0.68640(18)
H9 H 0.7871(3) 0.5976(4) 0.7788(14)
H10 H 0.7277(6) 0.5655(9) 0.6312(8)
C14 C 0.71345(12) 0.72760(15) 0.67284(17)
C15 C 0.82438(13) 0.70026(15) 0.52600(17)
H11 H 0.7686(8) 0.6669(5) 0.4579(10)
H12 H 0.8760(7) 0.69850(16) 0.4894(6)
C16 C 0.50886(12) 0.83902(15) 0.76575(17)
C17 C 0.48379(14) 0.72822(16) 0.8113(2)
H13 H 0.5384(8) 0.6997(7) 0.8902(13)
H14 H 0.4688(9) 0.6727(8) 0.7343(11)
H15 H 0.4273(9) 0.7377(3) 0.8400(14)
C18 C 0.42548(13) 0.88286(18) 0.6539(2)
H16 H 0.3724(8) 0.8879(12) 0.6850(6)
H17 H 0.4103(7) 0.8324(9) 0.5770(12)
H18 H 0.4396(4) 0.9567(11) 0.6272(11)
C19 C 0.53105(14) 0.91878(17) 0.88217(19)
H19 H 0.5475(10) 0.9904(10) 0.8554(6)
H20 H 0.5827(9) 0.8903(7) 0.9564(11)
H21 H 0.4773(8) 0.9268(9) 0.9093(10)
C20 C 1.15463(12) 0.83101(16) 1.05807(17)
C21 C 1.19453(13) 0.75528(18) 1.17653(19)
H22 H 1.1456(7) 0.7359(10) 1.2140(10)
H23 H 1.2463(10) 0.7934(7) 1.2459(11)
H24 H 1.2180(10) 0.6866(11) 1.1478(5)
C22 C 1.12056(13) 0.93568(18) 1.10663(19)
H25 H 1.0713(10) 0.9154(3) 1.1459(14)
H26 H 1.0933(10) 0.9882(9) 1.0287(10)
H27 H 1.1743(7) 0.9730(8) 1.1775(14)
C23 C 1.23082(12) 0.86165(17) 1.00215(18)
H28 H 1.2823(8) 0.9001(11) 1.0727(10)
H29 H 1.2048(4) 0.9120(11) 0.9237(13)
H30 H 1.2550(7) 0.7929(9) 0.9736(13)
loop_
_geom_bond_atom_site_label_1
_geom_bond_atom_site_label_2
_geom_bond_site_symmetry_1
_geom_bond_site_symmetry_2
C1 H1 1_555 1_555
C2 C1 1_555 1_555
C3 C2 1_555 1_555
H2 C3 1_555 1_555
C4 C3 1_555 1_555
H3 C4 1_555 1_555
C5 C4 1_555 1_555
N1 C5 1_555 1_555
C6 N1 1_555 1_555
H4 C6 1_555 1_555
H5 C6 1_555 1_555
C7 C6 1_555 1_555
C8 C7 1_555 1_555
H6 C8 1_555 1_555
C9 C8 1_555 1_555
C10 C9 1_555 1_555
H7 C10 1_555 1_555
C11 C10 1_555 1_555
H8 C11 1_555 1_555
C12 C7 1_555 1_555
N2 C12 1_555 1_555
C13 N2 1_555 1_555
H9 C13 1_555 1_555
H10 C13 1_555 1_555
C14 C1 1_555 1_555
C15 N1 1_555 1_555
H11 C15 1_555 1_555
H12 C15 1_555 1_555
C16 C2 1_555 1_555
C17 C16 1_555 1_555
H13 C17 1_555 1_555
H14 C17 1_555 1_555
H15 C17 1_555 1_555
C18 C16 1_555 1_555
H16 C18 1_555 1_555
H17 C18 1_555 1_555
H18 C18 1_555 1_555
C19 C16 1_555 1_555
H19 C19 1_555 1_555
H20 C19 1_555 1_555
H21 C19 1_555 1_555
C20 C9 1_555 1_555
C21 C20 1_555 1_555
H22 C21 1_555 1_555
H23 C21 1_555 1_555
H24 C21 1_555 1_555
C22 C20 1_555 1_555
H25 C22 1_555 1_555
H26 C22 1_555 1_555
H27 C22 1_555 1_555
C23 C20 1_555 1_555
H28 C23 1_555 1_555
H29 C23 1_555 1_555
H30 C23 1_555 1_555
C5 C14 1_555 1_555
C11 C12 1_555 1_555
N2 C15 1_555 1_555
C13 C14 1_555 1_555

#END
