
#######################################################################
#
#                 Cambridge Crystallographic Data Centre
#                                CCDC 
#
#######################################################################
#
# If this CIF has been generated from an entry in the Cambridge 
# Structural Database, then it will include bibliographic, chemical, 
# crystal, experimental, refinement or atomic coordinate data resulting 
# from the CCDC's data processing and validation procedures.
#
#######################################################################

data_DUWLOX
_chemical_formula_moiety         'C26 H43 N1 O11 Si1'
_chemical_name_systematic        
'Dimethyl (5-acetamido-6-(((t-butyl(dimethyl)silyl)oxy)-(2,2-dimethyl-1,3-dioxolan-4-yl)methyl)-2-(methoxycarbonyl)-5,6-dihydro-2H-pyran-2-yl)malonate'
_symmetry_cell_setting           orthorhombic
_symmetry_space_group_name_H-M   'P 21 21 21'
_symmetry_Int_Tables_number      19
_space_group_name_Hall           'P 2ac 2ab'
loop_
_symmetry_equiv_pos_site_id
_symmetry_equiv_pos_as_xyz
1 x,y,z
2 1/2-x,-y,1/2+z
3 -x,1/2+y,1/2-z
4 1/2+x,1/2-y,-z
_cell_length_a                   9.7519(4)
_cell_length_b                   14.8028(8)
_cell_length_c                   21.8450(13)
_cell_angle_alpha                90
_cell_angle_beta                 90
_cell_angle_gamma                90
_cell_volume                     3153.44
_exptl_crystal_colour            colorless
_exptl_crystal_description       plate
_chemical_melting_point          142-144deg.C
_cell_formula_units_Z            4
loop_
_atom_site_label
_atom_site_type_symbol
_atom_site_fract_x
_atom_site_fract_y
_atom_site_fract_z
C1 C 1.1098(3) 0.7615(2) 0.23573(14)
C2 C 0.9713(3) 0.72505(19) 0.21143(14)
C3 C 0.9006(3) 0.8003(2) 0.17683(16)
H1 H 0.8694 0.8508 0.1981
C4 C 0.8824(3) 0.7959(2) 0.11706(16)
H2 H 0.8372 0.8431 0.0975
C5 C 0.9319(3) 0.7173(2) 0.07945(14)
H3 H 0.8555 0.6758 0.0719
C6 C 1.0440(3) 0.66827(18) 0.11469(13)
H4 H 1.1232 0.7087 0.1181
C7 C 1.0919(3) 0.58011(19) 0.08634(13)
H5 H 1.1375 0.5941 0.0475
C8 C 1.1970(3) 0.5370(2) 0.12887(13)
H6 H 1.2509 0.5845 0.1488
C9 C 1.1395(4) 0.4723(2) 0.17777(16)
H7 H 1.1603 0.4942 0.2186
H8 H 1.0409 0.4662 0.1737
C10 C 1.3265(3) 0.4084(2) 0.13251(15)
C11 C 1.4404(4) 0.4377(3) 0.1758(2)
H9 H 1.4083 0.4862 0.2012
H10 H 1.5181 0.4577 0.1525
H11 H 1.4668 0.3876 0.2011
C12 C 1.3662(4) 0.3290(2) 0.09252(19)
H12 H 1.3927 0.2790 0.1179
H13 H 1.4416 0.3458 0.0667
H14 H 1.2894 0.3118 0.0676
C13 C 1.0827(6) 0.4617(5) -0.0391(3)
H15 H 1.0771 0.5198 -0.0584
H16 H 1.0700 0.4152 -0.0692
H17 H 1.1712 0.4548 -0.0203
C14 C 0.9601(6) 0.3332(3) 0.0556(2)
H18 H 1.0359 0.3306 0.0836
H19 H 0.9715 0.2881 0.0245
H20 H 0.8763 0.3223 0.0774
C15 C 0.7746(4) 0.4647(4) -0.0078(2)
C16 C 0.6777(4) 0.4896(4) 0.0401(3)
H21 H 0.5890 0.4997 0.0224
H22 H 0.7085 0.5438 0.0600
H23 H 0.6719 0.4417 0.0696
C17 C 0.7732(7) 0.5518(4) -0.0522(3)
H24 H 0.6803 0.5662 -0.0629
H25 H 0.8245 0.5388 -0.0887
H26 H 0.8140 0.6022 -0.0314
C18 C 0.7258(5) 0.3915(3) -0.0510(3)
H27 H 0.7261 0.3345 -0.0301
H28 H 0.7860 0.3885 -0.0857
H29 H 0.6345 0.4052 -0.0645
C19 C 0.8787(3) 0.6935(2) 0.26496(14)
H30 H 0.8694 0.7436 0.2940
C20 C 0.7353(3) 0.6655(2) 0.24409(15)
C21 C 0.9420(3) 0.6137(2) 0.29842(14)
C22 C 1.1290(5) 0.5694(4) 0.3595(2)
H31 H 1.0652 0.5292 0.3790
H32 H 1.1880 0.5957 0.3899
H33 H 1.1832 0.5362 0.3305
C23 C 0.5087(4) 0.6499(4) 0.2794(2)
H34 H 0.4742 0.6807 0.2439
H35 H 0.4525 0.6644 0.3142
H36 H 0.5066 0.5859 0.2725
C24 C 0.9073(3) 0.7730(2) -0.02471(15)
C25 C 1.2165(4) 0.8789(3) 0.2895(2)
H37 H 1.2727 0.8362 0.3111
H38 H 1.1943 0.9284 0.3161
H39 H 1.2655 0.9011 0.2545
C26 C 0.9767(3) 0.8007(2) -0.08332(15)
H40 H 0.9370 0.7682 -0.1170
H41 H 1.0728 0.7872 -0.0808
H42 H 0.9646 0.8644 -0.0896
O1 O 0.9959(2) 0.64808(13) 0.17514(9)
O2 O 1.2865(2) 0.48043(14) 0.09341(10)
O3 O 1.2065(2) 0.38794(15) 0.16641(11)
O4 O 0.9786(2) 0.52307(15) 0.07374(11)
O5 O 0.7023(3) 0.6373(2) 0.19553(12)
O6 O 0.6482(2) 0.67825(19) 0.29102(12)
O7 O 0.8995(3) 0.53781(18) 0.29799(13)
O8 O 1.0548(3) 0.6400(2) 0.32824(12)
O9 O 1.2194(2) 0.72955(18) 0.22295(11)
O10 O 1.0915(2) 0.83503(16) 0.26965(12)
O11 O 0.7817(2) 0.7751(2) -0.01902(13)
Si1 Si 0.95314(11) 0.45270(9) 0.01777(7)
N1 N 0.9887(2) 0.74721(17) 0.02131(12)
H43 H 1.0762 0.7483 0.0165
loop_
_geom_bond_atom_site_label_1
_geom_bond_atom_site_label_2
_geom_bond_site_symmetry_1
_geom_bond_site_symmetry_2
C1 C2 1_555 1_555
C2 C3 1_555 1_555
C3 H1 1_555 1_555
C4 C3 1_555 1_555
H2 C4 1_555 1_555
C5 C4 1_555 1_555
H3 C5 1_555 1_555
C6 C5 1_555 1_555
H4 C6 1_555 1_555
C7 C6 1_555 1_555
H5 C7 1_555 1_555
C8 C7 1_555 1_555
H6 C8 1_555 1_555
C9 C8 1_555 1_555
H7 C9 1_555 1_555
H8 C9 1_555 1_555
C10 C11 1_555 1_555
C11 H9 1_555 1_555
H10 C11 1_555 1_555
H11 C11 1_555 1_555
C12 C10 1_555 1_555
H12 C12 1_555 1_555
H13 C12 1_555 1_555
H14 C12 1_555 1_555
C13 H15 1_555 1_555
H16 C13 1_555 1_555
H17 C13 1_555 1_555
C14 H18 1_555 1_555
H19 C14 1_555 1_555
H20 C14 1_555 1_555
C15 C16 1_555 1_555
C16 H21 1_555 1_555
H22 C16 1_555 1_555
H23 C16 1_555 1_555
C17 C15 1_555 1_555
H24 C17 1_555 1_555
H25 C17 1_555 1_555
H26 C17 1_555 1_555
C18 C15 1_555 1_555
H27 C18 1_555 1_555
H28 C18 1_555 1_555
H29 C18 1_555 1_555
C19 C2 1_555 1_555
H30 C19 1_555 1_555
C20 C19 1_555 1_555
C21 C19 1_555 1_555
C22 H31 1_555 1_555
H32 C22 1_555 1_555
H33 C22 1_555 1_555
C23 H34 1_555 1_555
H35 C23 1_555 1_555
H36 C23 1_555 1_555
C24 C26 1_555 1_555
C25 H37 1_555 1_555
H38 C25 1_555 1_555
H39 C25 1_555 1_555
C26 H40 1_555 1_555
H41 C26 1_555 1_555
H42 C26 1_555 1_555
O1 C2 1_555 1_555
O2 C8 1_555 1_555
O3 C9 1_555 1_555
O4 C7 1_555 1_555
O5 C20 1_555 1_555
O6 C20 1_555 1_555
O7 C21 1_555 1_555
O8 C21 1_555 1_555
O9 C1 1_555 1_555
O10 C1 1_555 1_555
O11 C24 1_555 1_555
Si1 C13 1_555 1_555
N1 C5 1_555 1_555
H43 N1 1_555 1_555
C6 O1 1_555 1_555
C10 O2 1_555 1_555
C10 O3 1_555 1_555
C14 Si1 1_555 1_555
C15 Si1 1_555 1_555
C22 O8 1_555 1_555
C23 O6 1_555 1_555
C24 N1 1_555 1_555
C25 O10 1_555 1_555
O4 Si1 1_555 1_555

#END
