
#######################################################################
#
#                 Cambridge Crystallographic Data Centre
#                                CCDC 
#
#######################################################################
#
# If this CIF has been generated from an entry in the Cambridge 
# Structural Database, then it will include bibliographic, chemical, 
# crystal, experimental, refinement or atomic coordinate data resulting 
# from the CCDC's data processing and validation procedures.
#
#######################################################################

data_DUWNAL
_chemical_formula_moiety         'C36 H36 N2'
_chemical_name_systematic        
4,4'-Dodeca-1,3,5,7,9,11-hexayne-1,12-diyl-bis(N,N-diisopropylaniline)
_symmetry_cell_setting           triclinic
_symmetry_space_group_name_H-M   'P -1'
_symmetry_Int_Tables_number      2
_space_group_name_Hall           '-P 1'
loop_
_symmetry_equiv_pos_site_id
_symmetry_equiv_pos_as_xyz
1 x,y,z
2 -x,-y,-z
_cell_length_a                   7.5937(3)
_cell_length_b                   10.9722(5)
_cell_length_c                   18.8897(10)
_cell_angle_alpha                73.854(2)
_cell_angle_beta                 79.346(2)
_cell_angle_gamma                77.172(3)
_cell_volume                     1461.27
_exptl_crystal_colour            amber
_exptl_crystal_description       plate
_chemical_melting_point          'above 40deg.C(dec)'
_cell_formula_units_Z            2
loop_
_atom_site_label
_atom_site_type_symbol
_atom_site_fract_x
_atom_site_fract_y
_atom_site_fract_z
N1 N -0.3831(3) 0.7757(2) 0.14087(10)
N2 N 0.3940(3) -0.81061(18) 1.34051(10)
C1 C 0.2607(4) -0.4622(2) 1.06552(13)
C2 C -0.1416(3) 0.4111(2) 0.47912(13)
C3 C -0.0961(3) 0.3256(2) 0.54294(13)
C4 C -0.0500(3) 0.2444(2) 0.59830(13)
C5 C 0.0003(3) 0.1515(2) 0.65867(13)
C6 C 0.0466(3) 0.0653(2) 0.71125(13)
C7 C 0.0971(3) -0.0325(2) 0.76980(12)
C8 C 0.1375(3) -0.1201(2) 0.82340(12)
C9 C 0.1783(3) -0.2140(2) 0.88466(13)
C10 C 0.2084(3) -0.2971(2) 0.94132(13)
C11 C 0.2376(3) -0.3864(2) 1.00597(14)
C12 C -0.1809(3) 0.4827(2) 0.42028(13)
C13 C -0.2287(3) 0.5619(2) 0.35075(13)
C14 C -0.4064(3) 0.6281(2) 0.34324(13)
C15 C -0.4566(3) 0.6988(2) 0.27495(13)
C16 C -0.3305(3) 0.7091(2) 0.20952(12)
C17 C -0.1503(3) 0.6448(3) 0.21824(14)
C18 C -0.1018(3) 0.5733(3) 0.28658(14)
C19 C -0.5487(3) 0.8760(2) 0.13226(13)
C20 C -0.7219(4) 0.8220(3) 0.14140(18)
C21 C -0.5675(4) 0.9755(3) 0.17658(17)
C22 C -0.2520(3) 0.7752(3) 0.07257(13)
C23 C -0.1634(5) 0.8941(4) 0.04750(19)
C24 C -0.3383(5) 0.7574(3) 0.01012(16)
C25 C 0.2907(3) -0.5477(2) 1.13519(13)
C26 C 0.1842(4) -0.6426(2) 1.16927(14)
C27 C 0.2149(3) -0.7269(2) 1.23649(13)
C28 C 0.3558(3) -0.7221(2) 1.27452(12)
C29 C 0.4584(3) -0.6235(2) 1.24094(14)
C30 C 0.4265(4) -0.5398(3) 1.17417(14)
C31 C 0.3139(3) -0.9284(2) 1.36558(13)
C32 C 0.1505(4) -0.9181(4) 1.42496(19)
C33 C 0.4574(5) -1.0476(3) 1.39061(18)
C34 C 0.4756(3) -0.7798(2) 1.39738(13)
C35 C 0.3817(4) -0.6526(3) 1.41589(18)
C36 C 0.6825(4) -0.7937(3) 1.38216(18)
H1 H 0.447(3) -0.852(2) 1.4440(14)
H2 H 0.130(4) -0.784(3) 1.2585(15)
H3 H -0.584(4) 0.732(3) 0.2722(14)
H4 H 0.029(4) 0.530(3) 0.2886(16)
H5 H 0.083(4) -0.646(3) 1.1445(16)
H6 H -0.501(3) 0.624(2) 0.3858(15)
H7 H 0.272(4) -0.939(3) 1.3219(17)
H8 H 0.509(4) -0.477(3) 1.1534(16)
H9 H -0.525(3) 0.924(3) 0.0789(15)
H10 H -0.063(4) 0.655(3) 0.1760(15)
H11 H -0.714(4) 0.774(3) 0.1038(18)
H12 H -0.599(5) 0.946(4) 0.230(2)
H13 H 0.715(5) -0.721(4) 1.340(2)
H14 H 0.558(4) -0.612(3) 1.2653(18)
H15 H 0.185(5) -0.905(3) 1.473(2)
H16 H 0.432(5) -0.648(4) 1.462(2)
H17 H 0.397(4) -0.577(4) 1.372(2)
H18 H -0.661(5) 1.042(4) 0.1629(19)
H19 H -0.446(5) 0.840(4) -0.0084(19)
H20 H 0.730(4) -0.792(3) 1.4302(19)
H21 H -0.164(4) 0.697(3) 0.0861(16)
H22 H 0.096(4) -0.999(3) 1.4353(17)
H23 H 0.398(5) -1.124(4) 1.4067(19)
H24 H 0.504(5) -1.053(4) 1.436(2)
H25 H -0.246(5) 0.756(4) -0.030(2)
H26 H -0.403(5) 0.683(4) 0.026(2)
H27 H -0.755(4) 0.774(3) 0.1943(19)
H28 H 0.730(5) -0.879(4) 1.372(2)
H29 H 0.562(5) -1.056(4) 1.349(2)
H30 H -0.827(6) 0.897(4) 0.128(2)
H31 H -0.254(5) 0.968(4) 0.0376(19)
H32 H -0.459(5) 1.006(4) 0.1682(19)
H33 H 0.252(5) -0.648(3) 1.4249(18)
H34 H -0.105(5) 0.905(4) 0.090(2)
H35 H -0.067(6) 0.885(4) 0.005(3)
H36 H 0.059(6) -0.837(4) 1.406(2)
loop_
_geom_bond_atom_site_label_1
_geom_bond_atom_site_label_2
_geom_bond_site_symmetry_1
_geom_bond_site_symmetry_2
N1 C16 1_555 1_555
N2 C28 1_555 1_555
C1 C11 1_555 1_555
C2 C3 1_555 1_555
C3 C4 1_555 1_555
C4 C5 1_555 1_555
C5 C6 1_555 1_555
C6 C7 1_555 1_555
C7 C8 1_555 1_555
C8 C9 1_555 1_555
C9 C10 1_555 1_555
C10 C11 1_555 1_555
C12 C2 1_555 1_555
C13 C12 1_555 1_555
C14 C13 1_555 1_555
C15 C14 1_555 1_555
C16 C15 1_555 1_555
C17 C16 1_555 1_555
C18 C13 1_555 1_555
C19 N1 1_555 1_555
C20 C19 1_555 1_555
C21 C19 1_555 1_555
C22 N1 1_555 1_555
C23 C22 1_555 1_555
C24 C22 1_555 1_555
C25 C1 1_555 1_555
C26 C25 1_555 1_555
C27 C26 1_555 1_555
C28 C27 1_555 1_555
C29 C28 1_555 1_555
C30 C25 1_555 1_555
C31 N2 1_555 1_555
C32 C31 1_555 1_555
C33 C31 1_555 1_555
C34 N2 1_555 1_555
C35 C34 1_555 1_555
C36 C34 1_555 1_555
H1 C34 1_555 1_555
H2 C27 1_555 1_555
H3 C15 1_555 1_555
H4 C18 1_555 1_555
H5 C26 1_555 1_555
H6 C14 1_555 1_555
H7 C31 1_555 1_555
H8 C30 1_555 1_555
H9 C19 1_555 1_555
H10 C17 1_555 1_555
H11 C20 1_555 1_555
H12 C21 1_555 1_555
H13 C36 1_555 1_555
H14 C29 1_555 1_555
H15 C32 1_555 1_555
H16 C35 1_555 1_555
H17 C35 1_555 1_555
H18 C21 1_555 1_555
H19 C24 1_555 1_555
H20 C36 1_555 1_555
H21 C22 1_555 1_555
H22 C32 1_555 1_555
H23 C33 1_555 1_555
H24 C33 1_555 1_555
H25 C24 1_555 1_555
H26 C24 1_555 1_555
H27 C20 1_555 1_555
H28 C36 1_555 1_555
H29 C33 1_555 1_555
H30 C20 1_555 1_555
H31 C23 1_555 1_555
H32 C21 1_555 1_555
H33 C35 1_555 1_555
H34 C23 1_555 1_555
H35 C23 1_555 1_555
H36 C32 1_555 1_555
C17 C18 1_555 1_555
C29 C30 1_555 1_555

#END
