
#######################################################################
#
#                 Cambridge Crystallographic Data Centre
#                                CCDC 
#
#######################################################################
#
# If this CIF has been generated from an entry in the Cambridge 
# Structural Database, then it will include bibliographic, chemical, 
# crystal, experimental, refinement or atomic coordinate data resulting 
# from the CCDC's data processing and validation procedures.
#
#######################################################################

data_DUWPIV
_chemical_formula_moiety         'C18 H24 N2 O2 2+,Cl1 O4 1-,Br1 1-,0.13(H2 O1)'
_chemical_name_systematic        
'1-(3-Ammoniopropyl)-4-(2-(3,4-dimethoxyphenyl)vinyl)pyridinium bromide perchlorate hydrate'
_symmetry_cell_setting           triclinic
_symmetry_space_group_name_H-M   'P -1'
_symmetry_Int_Tables_number      2
_space_group_name_Hall           '-P 1'
loop_
_symmetry_equiv_pos_site_id
_symmetry_equiv_pos_as_xyz
1 x,y,z
2 -x,-y,-z
_cell_length_a                   9.0420(13)
_cell_length_b                   14.539(2)
_cell_length_c                   16.857(2)
_cell_angle_alpha                71.242(3)
_cell_angle_beta                 87.881(3)
_cell_angle_gamma                84.445(3)
_cell_volume                     2088.45
_exptl_crystal_colour            yellow
_exptl_crystal_description       block
_cell_formula_units_Z            4
_exptl_crystal_recrystallization_method acetonitrile/benzene
loop_
_atom_site_label
_atom_site_type_symbol
_atom_site_fract_x
_atom_site_fract_y
_atom_site_fract_z
Br1 Br 0.70446(5) 0.99674(4) 0.63174(3)
Br2 Br 0.20974(6) 0.77903(4) 0.68396(3)
Cl1 Cl 0.74017(12) 0.94998(9) 0.13894(7)
O1 O 0.5943(4) 0.9164(3) 0.1530(3)
O2 O 0.7941(5) 0.9579(3) 0.2155(2)
O3 O 0.8386(4) 0.8835(3) 0.1114(3)
O4 O 0.7337(5) 1.0456(3) 0.0763(3)
Cl2 Cl 0.37411(14) 0.53339(10) 0.24545(7)
O5 O 0.4359(8) 0.4333(4) 0.2693(4)
O6 O 0.2268(7) 0.5412(4) 0.2190(5)
O7 O 0.4557(10) 0.5937(8) 0.1851(5)
O8 O 0.3717(8) 0.5587(5) 0.3184(4)
O9 O -0.0272(4) 0.2826(2) 0.99619(19)
O10 O 0.0980(4) 0.3185(2) 1.1156(2)
N1 N 0.6276(4) 0.8855(3) 0.9001(3)
N2 N 1.0829(5) 0.8472(4) 0.8412(3)
C1 C 0.6182(6) 0.8265(4) 0.9803(3)
C2 C 0.5446(6) 0.7444(4) 1.0009(3)
C3 C 0.4759(5) 0.7187(4) 0.9400(3)
C4 C 0.4877(5) 0.7803(4) 0.8569(3)
C5 C 0.5626(5) 0.8635(4) 0.8388(3)
C6 C 0.3959(5) 0.6305(4) 0.9650(3)
C7 C 0.3261(6) 0.5979(4) 0.9123(3)
C8 C 0.2382(5) 0.5135(3) 0.9352(3)
C9 C 0.1719(6) 0.4919(4) 0.8715(3)
C10 C 0.0828(5) 0.4152(4) 0.8892(3)
C11 C 0.0588(5) 0.3593(3) 0.9714(3)
C12 C 0.1278(5) 0.3796(3) 1.0370(3)
C13 C 0.2143(5) 0.4566(4) 1.0191(3)
C14 C -0.1081(6) 0.2622(4) 0.9326(3)
C15 C 0.1548(7) 0.3402(4) 1.1852(4)
C16 C 0.7122(6) 0.9728(4) 0.8815(4)
C17 C 0.8787(5) 0.9438(4) 0.8889(4)
C18 C 0.9387(5) 0.9069(4) 0.8181(3)
H1 H 1.119(5) 0.832(3) 0.797(3)
H2 H 1.073(6) 0.797(4) 0.878(3)
H3 H 1.145(7) 0.874(5) 0.854(4)
H4 H 0.665(6) 0.842(4) 1.018(3)
H5 H 0.544(5) 0.706(4) 1.056(3)
H6 H 0.445(6) 0.772(4) 0.811(3)
H7 H 0.572(6) 0.908(4) 0.786(4)
H8 H 0.395(5) 0.598(3) 1.028(3)
H9 H 0.335(6) 0.631(4) 0.855(3)
H10 H 0.176(7) 0.532(4) 0.822(4)
H11 H 0.037(5) 0.401(3) 0.845(3)
H12 H 0.252(5) 0.466(3) 1.066(2)
H13 H -0.164(6) 0.210(4) 0.959(3)
H14 H -0.039(5) 0.241(3) 0.899(3)
H15 H -0.178(6) 0.319(4) 0.904(3)
H16 H 0.126(6) 0.296(4) 1.228(4)
H17 H 0.115(5) 0.402(4) 1.184(3)
H18 H 0.265(6) 0.338(4) 1.184(3)
H19 H 0.684(6) 1.001(4) 0.921(3)
H20 H 0.685(6) 1.016(4) 0.828(4)
H21 H 0.925(7) 0.996(5) 0.891(4)
H22 H 0.889(5) 0.900(4) 0.934(3)
H23 H 0.870(6) 0.866(4) 0.805(3)
H24 H 0.958(6) 0.961(4) 0.768(4)
O11 O -0.0455(4) 0.2636(2) 0.6304(2)
O12 O 0.0332(4) 0.3478(2) 0.4793(2)
N3 N 0.6272(4) 0.8630(3) 0.4398(2)
N4 N 1.0968(5) 0.8333(3) 0.4907(3)
C19 C 0.5988(5) 0.8253(4) 0.3788(3)
C20 C 0.5226(5) 0.7435(3) 0.3963(3)
C21 C 0.4729(5) 0.6974(3) 0.4778(3)
C22 C 0.5057(5) 0.7386(4) 0.5396(3)
C23 C 0.5800(6) 0.8209(4) 0.5192(3)
C24 C 0.3886(5) 0.6135(4) 0.4939(3)
C25 C 0.3444(5) 0.5583(4) 0.5695(3)
C26 C 0.2551(5) 0.4747(4) 0.5863(3)
C27 C 0.2207(6) 0.4223(4) 0.6677(3)
C28 C 0.1232(6) 0.3498(4) 0.6858(3)
C29 C 0.0581(5) 0.3292(3) 0.6210(3)
C30 C 0.0985(5) 0.3775(3) 0.5373(3)
C31 C 0.1947(5) 0.4498(3) 0.5199(3)
C32 C -0.1104(7) 0.2253(4) 0.7126(3)
C33 C 0.0767(6) 0.3914(4) 0.3926(3)
C34 C 0.7068(6) 0.9526(4) 0.4177(3)
C35 C 0.8734(5) 0.9292(4) 0.4131(3)
C36 C 0.9433(6) 0.8755(4) 0.4985(3)
H25 H 1.142(7) 0.808(4) 0.538(4)
H26 H 1.108(7) 0.775(5) 0.471(4)
H27 H 1.146(6) 0.871(4) 0.463(4)
H28 H 0.637(6) 0.854(4) 0.327(4)
H29 H 0.506(6) 0.716(4) 0.353(3)
H30 H 0.478(6) 0.715(4) 0.592(3)
H31 H 0.596(6) 0.853(4) 0.551(4)
H32 H 0.377(6) 0.599(4) 0.445(4)
H33 H 0.368(6) 0.573(4) 0.615(4)
H34 H 0.262(5) 0.433(3) 0.713(3)
H35 H 0.104(5) 0.317(4) 0.733(3)
H36 H 0.214(5) 0.478(4) 0.468(3)
H37 H -0.179(7) 0.195(4) 0.703(4)
H38 H -0.043(6) 0.183(4) 0.747(3)
H39 H -0.170(6) 0.276(4) 0.735(4)
H40 H 0.019(5) 0.364(3) 0.364(3)
H41 H 0.052(7) 0.467(5) 0.369(4)
H42 H 0.182(6) 0.378(3) 0.388(3)
H43 H 0.667(6) 1.000(4) 0.368(3)
H44 H 0.682(7) 0.986(5) 0.457(4)
H45 H 0.894(6) 0.887(4) 0.380(4)
H46 H 0.914(6) 0.988(4) 0.389(4)
H47 H 0.891(6) 0.825(4) 0.527(3)
H48 H 0.938(5) 0.916(4) 0.535(3)
O13 O 0.388(3) 0.7903(15) 0.1748(15)
loop_
_geom_bond_atom_site_label_1
_geom_bond_atom_site_label_2
_geom_bond_site_symmetry_1
_geom_bond_site_symmetry_2
Cl1 O1 1_555 1_555
O2 Cl1 1_555 1_555
O3 Cl1 1_555 1_555
O4 Cl1 1_555 1_555
Cl2 O5 1_555 1_555
O6 Cl2 1_555 1_555
O7 Cl2 1_555 1_555
O8 Cl2 1_555 1_555
O9 C11 1_555 1_555
O10 C12 1_555 1_555
O11 C29 1_555 1_555
O12 C30 1_555 1_555
N1 C1 1_555 1_555
N2 C18 1_555 1_555
C1 C2 1_555 1_555
C2 C3 1_555 1_555
C3 C4 1_555 1_555
C4 C5 1_555 1_555
C5 N1 1_555 1_555
C6 C3 1_555 1_555
C7 C6 1_555 1_555
C8 C7 1_555 1_555
C9 C8 1_555 1_555
C10 C9 1_555 1_555
C11 C10 1_555 1_555
C12 C11 1_555 1_555
C13 C8 1_555 1_555
C14 O9 1_555 1_555
C15 O10 1_555 1_555
C16 N1 1_555 1_555
C17 C16 1_555 1_555
C18 C17 1_555 1_555
H1 N2 1_555 1_555
H2 N2 1_555 1_555
H3 N2 1_555 1_555
H4 C1 1_555 1_555
H5 C2 1_555 1_555
H6 C4 1_555 1_555
H7 C5 1_555 1_555
H8 C6 1_555 1_555
H9 C7 1_555 1_555
H10 C9 1_555 1_555
H11 C10 1_555 1_555
H12 C13 1_555 1_555
H13 C14 1_555 1_555
H14 C14 1_555 1_555
H15 C14 1_555 1_555
H16 C15 1_555 1_555
H17 C15 1_555 1_555
H18 C15 1_555 1_555
H19 C16 1_555 1_555
H20 C16 1_555 1_555
H21 C17 1_555 1_555
H22 C17 1_555 1_555
H23 C18 1_555 1_555
H24 C18 1_555 1_555
N3 C19 1_555 1_555
N4 C36 1_555 1_555
C19 C20 1_555 1_555
C20 C21 1_555 1_555
C21 C22 1_555 1_555
C22 C23 1_555 1_555
C23 N3 1_555 1_555
C24 C21 1_555 1_555
C25 C24 1_555 1_555
C26 C25 1_555 1_555
C27 C26 1_555 1_555
C28 C27 1_555 1_555
C29 C28 1_555 1_555
C30 C29 1_555 1_555
C31 C26 1_555 1_555
C32 O11 1_555 1_555
C33 O12 1_555 1_555
C34 N3 1_555 1_555
C35 C34 1_555 1_555
C36 C35 1_555 1_555
H25 N4 1_555 1_555
H26 N4 1_555 1_555
H27 N4 1_555 1_555
H28 C19 1_555 1_555
H29 C20 1_555 1_555
H30 C22 1_555 1_555
H31 C23 1_555 1_555
H32 C24 1_555 1_555
H33 C25 1_555 1_555
H34 C27 1_555 1_555
H35 C28 1_555 1_555
H36 C31 1_555 1_555
H37 C32 1_555 1_555
H38 C32 1_555 1_555
H39 C32 1_555 1_555
H40 C33 1_555 1_555
H41 C33 1_555 1_555
H42 C33 1_555 1_555
H43 C34 1_555 1_555
H44 C34 1_555 1_555
H45 C35 1_555 1_555
H46 C35 1_555 1_555
H47 C36 1_555 1_555
H48 C36 1_555 1_555
C12 C13 1_555 1_555
C30 C31 1_555 1_555

#END
