
#######################################################################
#
#                 Cambridge Crystallographic Data Centre
#                                CCDC 
#
#######################################################################
#
# If this CIF has been generated from an entry in the Cambridge 
# Structural Database, then it will include bibliographic, chemical, 
# crystal, experimental, refinement or atomic coordinate data resulting 
# from the CCDC's data processing and validation procedures.
#
#######################################################################

data_DUWPUH
_chemical_formula_moiety         'C36 H48 N4 O4 4+,2(Cl1 O4 1-),2(Br1 1-)'
_chemical_name_systematic        
"4,4'-(2,4-bis(3,4-Dimethoxyphenyl)cyclobutane-1,3-diyl)-bis(1-(3-ammoniopropyl)pyridinium) dibromide diperchlorate"
_symmetry_cell_setting           triclinic
_symmetry_space_group_name_H-M   'P -1'
_symmetry_Int_Tables_number      2
_space_group_name_Hall           '-P 1'
loop_
_symmetry_equiv_pos_site_id
_symmetry_equiv_pos_as_xyz
1 x,y,z
2 -x,-y,-z
_cell_length_a                   8.4303(3)
_cell_length_b                   14.7742(6)
_cell_length_c                   16.9805(7)
_cell_angle_alpha                71.8470(10)
_cell_angle_beta                 89.1700(10)
_cell_angle_gamma                88.3270(10)
_cell_volume                     2008.78
_exptl_crystal_colour            yellowish
_exptl_crystal_description       plate
_chemical_melting_point          'above 175deg.C'
_cell_formula_units_Z            2
_exptl_crystal_preparation       'irradiated product'
loop_
_atom_site_label
_atom_site_type_symbol
_atom_site_fract_x
_atom_site_fract_y
_atom_site_fract_z
Br1 Br 0.70139(4) 0.97428(2) 0.640251(19)
Br2 Br 0.27189(4) 0.81062(2) 0.673342(18)
Cl1 Cl 0.70918(10) 0.92826(6) 0.14469(5)
O1 O 0.5677(3) 0.8738(2) 0.16737(19)
O2 O 0.7786(4) 0.9404(2) 0.21737(16)
O3 O 0.8193(4) 0.8785(3) 0.1099(3)
O4 O 0.6734(4) 1.0185(2) 0.08776(19)
Cl2 Cl 0.34996(10) 0.53687(6) 0.24295(4)
O5 O 0.4566(5) 0.4571(2) 0.26418(18)
O6 O 0.2530(3) 0.53701(19) 0.17453(15)
O7 O 0.4431(3) 0.6210(2) 0.21878(17)
O8 O 0.2548(3) 0.5394(2) 0.31172(16)
O9 O -0.1229(3) 0.27149(15) 0.99397(13)
O10 O -0.0413(3) 0.33642(15) 1.11121(12)
N1 N 0.6167(3) 0.84751(18) 0.89662(16)
N2 N 1.1272(3) 0.8575(2) 0.83577(19)
C1 C 0.5925(4) 0.8091(2) 0.9786(2)
C2 C 0.5275(4) 0.7220(2) 1.0104(2)
C3 C 0.4895(3) 0.6690(2) 0.95891(18)
C4 C 0.5071(4) 0.7129(2) 0.8739(2)
C5 C 0.5703(4) 0.8021(2) 0.8441(2)
C6 C 0.4417(4) 0.5679(2) 0.99985(18)
C7 C 0.4181(4) 0.4990(2) 0.94918(19)
C8 C 0.2607(3) 0.4520(2) 0.95491(18)
C9 C 0.2086(4) 0.4223(2) 0.89095(19)
C10 C 0.0790(4) 0.3642(2) 0.9009(2)
C11 C 0.0008(3) 0.3342(2) 0.97542(18)
C12 C 0.0474(4) 0.3672(2) 1.04028(18)
C13 C 0.1760(4) 0.4253(2) 1.02995(19)
C14 C -0.1587(4) 0.2265(3) 0.9330(2)
C15 C 0.0099(5) 0.3643(3) 1.1806(2)
C16 C 0.7010(4) 0.9399(2) 0.8669(2)
C17 C 0.8793(4) 0.9246(2) 0.8801(2)
C18 C 0.9579(4) 0.8846(3) 0.8166(2)
H1 H 1.180(4) 0.844(2) 0.795(2)
H2 H 1.132(4) 0.816(3) 0.876(2)
H3 H 1.176(4) 0.903(3) 0.842(2)
H4 H 0.612(4) 0.839(2) 1.008(2)
H5 H 0.512(4) 0.697(2) 1.0620(19)
H6 H 0.478(4) 0.690(2) 0.839(2)
H7 H 0.580(5) 0.827(3) 0.791(2)
H8 H 0.355(3) 0.5721(19) 1.0328(17)
H9 H 0.447(4) 0.524(2) 0.897(2)
H10 H 0.253(4) 0.438(3) 0.849(2)
H11 H 0.050(4) 0.344(2) 0.8631(19)
H12 H 0.200(4) 0.442(2) 1.068(2)
H13 H -0.228(5) 0.179(3) 0.956(2)
H14 H -0.063(4) 0.196(2) 0.9184(18)
H15 H -0.203(4) 0.271(2) 0.886(2)
H16 H -0.065(5) 0.342(3) 1.222(2)
H17 H 0.005(4) 0.436(2) 1.1669(19)
H18 H 0.118(4) 0.342(2) 1.198(2)
H19 H 0.666(4) 0.976(2) 0.8965(19)
H20 H 0.674(4) 0.964(2) 0.812(2)
H21 H 0.915(4) 0.983(3) 0.876(2)
H22 H 0.910(4) 0.886(2) 0.932(2)
H23 H 0.908(5) 0.826(3) 0.816(2)
H24 H 0.963(4) 0.931(3) 0.764(2)
O9A O 1.1229(3) 0.72851(15) 1.00603(13)
O10A O 1.0413(3) 0.66358(15) 0.88879(12)
N1A N 0.3833(3) 0.15249(18) 1.10338(16)
N2A N -0.1272(3) 0.1425(2) 1.16423(19)
C1A C 0.4075(4) 0.1909(2) 1.0214(2)
C2A C 0.4725(4) 0.2780(2) 0.9896(2)
C3A C 0.5105(3) 0.3310(2) 1.04109(18)
C4A C 0.4929(4) 0.2871(2) 1.1261(2)
C5A C 0.4297(4) 0.1979(2) 1.1559(2)
C6A C 0.5583(4) 0.4321(2) 1.00015(18)
C7A C 0.5819(4) 0.5010(2) 1.05082(19)
C8A C 0.7393(3) 0.5480(2) 1.04509(18)
C9A C 0.7914(4) 0.5777(2) 1.10905(19)
C10A C 0.9210(4) 0.6358(2) 1.0991(2)
C11A C 0.9992(3) 0.6658(2) 1.02458(18)
C12A C 0.9526(4) 0.6328(2) 0.95972(18)
C13A C 0.8240(4) 0.5747(2) 0.97005(19)
C14A C 1.1587(4) 0.7735(3) 1.0670(2)
C15A C 0.9901(5) 0.6357(3) 0.8194(2)
C16A C 0.2990(4) 0.0601(2) 1.1331(2)
C17A C 0.1207(4) 0.0754(2) 1.1199(2)
C18A C 0.0421(4) 0.1154(3) 1.1834(2)
H1A H -0.180(4) 0.156(2) 1.205(2)
H2A H -0.132(4) 0.184(3) 1.124(2)
H3A H -0.176(4) 0.097(3) 1.158(2)
H4A H 0.388(4) 0.161(2) 0.992(2)
H5A H 0.488(4) 0.303(2) 0.9380(19)
H6A H 0.522(4) 0.310(2) 1.161(2)
H7A H 0.420(5) 0.173(3) 1.209(2)
H8A H 0.645(3) 0.4279(19) 0.9672(17)
H9A H 0.553(4) 0.476(2) 1.103(2)
H10A H 0.747(4) 0.562(3) 1.151(2)
H11A H 0.950(4) 0.656(2) 1.1369(19)
H12A H 0.800(4) 0.558(2) 0.932(2)
H13A H 1.228(5) 0.821(3) 1.044(2)
H14A H 1.063(4) 0.804(2) 1.0816(18)
H15A H 1.203(4) 0.729(2) 1.114(2)
H16A H 1.065(5) 0.658(3) 0.778(2)
H17A H 0.995(4) 0.564(2) 0.8331(19)
H18A H 0.882(4) 0.658(2) 0.802(2)
H19A H 0.334(4) 0.024(2) 1.1035(19)
H20A H 0.326(4) 0.036(2) 1.188(2)
H21A H 0.085(4) 0.017(3) 1.124(2)
H22A H 0.090(4) 0.114(2) 1.068(2)
H23A H 0.092(5) 0.174(3) 1.184(2)
H24A H 0.037(4) 0.069(3) 1.236(2)
O11 O -0.1162(2) 0.25646(15) 0.63217(12)
O12 O -0.0582(2) 0.34742(14) 0.47963(12)
N3 N 0.6008(3) 0.84455(17) 0.44608(16)
N4 N 1.1172(3) 0.8499(2) 0.48895(18)
C19 C 0.5657(4) 0.8184(2) 0.3789(2)
C20 C 0.5025(4) 0.7313(2) 0.3884(2)
C21 C 0.4770(3) 0.6673(2) 0.46766(19)
C22 C 0.5036(4) 0.6989(2) 0.5348(2)
C23 C 0.5647(4) 0.7882(2) 0.5229(2)
C24 C 0.4357(4) 0.5683(2) 0.47127(19)
C25 C 0.4205(4) 0.4891(2) 0.55511(18)
C26 C 0.2680(3) 0.4368(2) 0.57651(18)
C27 C 0.2295(4) 0.3914(2) 0.65844(19)
C28 C 0.1021(4) 0.3311(2) 0.67988(19)
C29 C 0.0084(3) 0.3164(2) 0.61901(18)
C30 C 0.0431(3) 0.3647(2) 0.53561(18)
C31 C 0.1719(4) 0.4232(2) 0.51494(19)
C32 C -0.1507(4) 0.2036(3) 0.7164(2)
C33 C -0.0189(4) 0.3869(2) 0.39340(19)
C34 C 0.6856(4) 0.9347(2) 0.4330(2)
C35 C 0.8635(4) 0.9204(2) 0.4209(2)
C36 C 0.9459(4) 0.8678(2) 0.5020(2)
H25 H 1.171(4) 0.833(2) 0.540(2)
H26 H 1.170(5) 0.902(3) 0.456(2)
H27 H 1.128(4) 0.808(3) 0.468(2)
H28 H 0.584(4) 0.863(2) 0.3288(18)
H29 H 0.484(4) 0.715(2) 0.340(2)
H30 H 0.489(4) 0.665(2) 0.581(2)
H31 H 0.589(4) 0.809(2) 0.566(2)
H32 H 0.350(4) 0.573(2) 0.4380(18)
H33 H 0.453(4) 0.505(2) 0.597(2)
H34 H 0.294(4) 0.397(2) 0.699(2)
H35 H 0.074(4) 0.298(2) 0.734(2)
H36 H 0.190(4) 0.452(2) 0.464(2)
H37 H -0.238(4) 0.158(2) 0.7157(19)
H38 H -0.196(4) 0.247(3) 0.747(2)
H39 H -0.053(4) 0.170(2) 0.744(2)
H40 H -0.100(4) 0.367(2) 0.366(2)
H41 H 0.089(4) 0.362(2) 0.379(2)
H42 H -0.016(4) 0.459(2) 0.375(2)
H43 H 0.657(4) 0.954(2) 0.479(2)
H44 H 0.642(4) 0.979(2) 0.387(2)
H45 H 0.913(4) 0.977(2) 0.3994(19)
H46 H 0.879(4) 0.880(2) 0.3877(18)
H47 H 0.932(4) 0.904(2) 0.540(2)
H48 H 0.893(4) 0.803(2) 0.526(2)
O11A O 1.1162(2) 0.74354(15) 0.36783(12)
O12A O 1.0582(2) 0.65258(14) 0.52037(12)
N3A N 0.3992(3) 0.15545(17) 0.55392(16)
N4A N -0.1172(3) 0.1501(2) 0.51105(18)
C19A C 0.4343(4) 0.1816(2) 0.6211(2)
C20A C 0.4975(4) 0.2687(2) 0.6116(2)
C21A C 0.5230(3) 0.3327(2) 0.53234(19)
C22A C 0.4964(4) 0.3011(2) 0.4652(2)
C23A C 0.4353(4) 0.2118(2) 0.4771(2)
C24A C 0.5643(4) 0.4317(2) 0.52873(19)
C25A C 0.5795(4) 0.5109(2) 0.44489(18)
C26A C 0.7320(3) 0.5632(2) 0.42349(18)
C27A C 0.7705(4) 0.6086(2) 0.34156(19)
C28A C 0.8979(4) 0.6689(2) 0.32012(19)
C29A C 0.9916(3) 0.6836(2) 0.38099(18)
C30A C 0.9569(3) 0.6353(2) 0.46439(18)
C31A C 0.8281(4) 0.5768(2) 0.48506(19)
C32A C 1.1507(4) 0.7964(3) 0.2836(2)
C33A C 1.0189(4) 0.6131(2) 0.60660(19)
C34A C 0.3144(4) 0.0653(2) 0.5670(2)
C35A C 0.1365(4) 0.0796(2) 0.5791(2)
C36A C 0.0541(4) 0.1322(2) 0.4980(2)
H25A H -0.171(4) 0.167(2) 0.460(2)
H26A H -0.170(5) 0.098(3) 0.544(2)
H27A H -0.128(4) 0.192(3) 0.532(2)
H28A H 0.416(4) 0.137(2) 0.6712(18)
H29A H 0.516(4) 0.285(2) 0.660(2)
H30A H 0.511(4) 0.335(2) 0.419(2)
H31A H 0.411(4) 0.191(2) 0.434(2)
H32A H 0.650(4) 0.427(2) 0.5620(18)
H33A H 0.547(4) 0.495(2) 0.403(2)
H34A H 0.706(4) 0.603(2) 0.301(2)
H35A H 0.926(4) 0.702(2) 0.266(2)
H36A H 0.810(4) 0.548(2) 0.536(2)
H37A H 1.238(4) 0.842(2) 0.2843(19)
H38A H 1.196(4) 0.753(3) 0.253(2)
H39A H 1.053(4) 0.830(2) 0.256(2)
H40A H 1.100(4) 0.633(2) 0.634(2)
H41A H 0.911(4) 0.638(2) 0.621(2)
H42A H 1.016(4) 0.541(2) 0.625(2)
H43A H 0.343(4) 0.046(2) 0.521(2)
H44A H 0.358(4) 0.021(2) 0.613(2)
H45A H 0.087(4) 0.023(2) 0.6006(19)
H46A H 0.121(4) 0.120(2) 0.6123(18)
H47A H 0.068(4) 0.096(2) 0.460(2)
H48A H 0.107(4) 0.197(2) 0.474(2)
loop_
_geom_bond_atom_site_label_1
_geom_bond_atom_site_label_2
_geom_bond_site_symmetry_1
_geom_bond_site_symmetry_2
Cl1 O1 1_555 1_555
O2 Cl1 1_555 1_555
O3 Cl1 1_555 1_555
O4 Cl1 1_555 1_555
Cl2 O5 1_555 1_555
O6 Cl2 1_555 1_555
O7 Cl2 1_555 1_555
O8 Cl2 1_555 1_555
O9 C11 1_555 1_555
O10 C12 1_555 1_555
O11 C29 1_555 1_555
O12 C30 1_555 1_555
N1 C1 1_555 1_555
N2 C18 1_555 1_555
C1 C2 1_555 1_555
C2 C3 1_555 1_555
C3 C4 1_555 1_555
C4 C5 1_555 1_555
C5 N1 1_555 1_555
C6 C3 1_555 1_555
C7 C6 1_555 1_555
C8 C7 1_555 1_555
C9 C8 1_555 1_555
C10 C9 1_555 1_555
C11 C10 1_555 1_555
C12 C11 1_555 1_555
C13 C8 1_555 1_555
C14 O9 1_555 1_555
C15 O10 1_555 1_555
C16 N1 1_555 1_555
C17 C16 1_555 1_555
C18 C17 1_555 1_555
H1 N2 1_555 1_555
H2 N2 1_555 1_555
H3 N2 1_555 1_555
H4 C1 1_555 1_555
H5 C2 1_555 1_555
H6 C4 1_555 1_555
H7 C5 1_555 1_555
H8 C6 1_555 1_555
H9 C7 1_555 1_555
H10 C9 1_555 1_555
H11 C10 1_555 1_555
H12 C13 1_555 1_555
H13 C14 1_555 1_555
H14 C14 1_555 1_555
H15 C14 1_555 1_555
H16 C15 1_555 1_555
H17 C15 1_555 1_555
H18 C15 1_555 1_555
H19 C16 1_555 1_555
H20 C16 1_555 1_555
H21 C17 1_555 1_555
H22 C17 1_555 1_555
H23 C18 1_555 1_555
H24 C18 1_555 1_555
N3 C19 1_555 1_555
N4 C36 1_555 1_555
C19 C20 1_555 1_555
C20 C21 1_555 1_555
C21 C22 1_555 1_555
C22 C23 1_555 1_555
C23 N3 1_555 1_555
C24 C21 1_555 1_555
C25 C24 1_555 1_555
C26 C25 1_555 1_555
C27 C26 1_555 1_555
C28 C27 1_555 1_555
C29 C28 1_555 1_555
C30 C29 1_555 1_555
C31 C26 1_555 1_555
C32 O11 1_555 1_555
C33 O12 1_555 1_555
C34 N3 1_555 1_555
C35 C34 1_555 1_555
C36 C35 1_555 1_555
H25 N4 1_555 1_555
H26 N4 1_555 1_555
H27 N4 1_555 1_555
H28 C19 1_555 1_555
H29 C20 1_555 1_555
H30 C22 1_555 1_555
H31 C23 1_555 1_555
H32 C24 1_555 1_555
H33 C25 1_555 1_555
H34 C27 1_555 1_555
H35 C28 1_555 1_555
H36 C31 1_555 1_555
H37 C32 1_555 1_555
H38 C32 1_555 1_555
H39 C32 1_555 1_555
H40 C33 1_555 1_555
H41 C33 1_555 1_555
H42 C33 1_555 1_555
H43 C34 1_555 1_555
H44 C34 1_555 1_555
H45 C35 1_555 1_555
H46 C35 1_555 1_555
H47 C36 1_555 1_555
H48 C36 1_555 1_555
O9A C11A 1_555 1_555
O10A C12A 1_555 1_555
O11A C29A 1_555 1_555
O12A C30A 1_555 1_555
N1A C1A 1_555 1_555
N2A C18A 1_555 1_555
C1A C2A 1_555 1_555
C2A C3A 1_555 1_555
C3A C4A 1_555 1_555
C4A C5A 1_555 1_555
C5A N1A 1_555 1_555
C6A C7 1_555 1_555
C7A C6 1_555 1_555
C8A C7A 1_555 1_555
C9A C8A 1_555 1_555
C10A C9A 1_555 1_555
C11A C10A 1_555 1_555
C12A C11A 1_555 1_555
C13A C8A 1_555 1_555
C14A O9A 1_555 1_555
C15A O10A 1_555 1_555
C16A N1A 1_555 1_555
C17A C16A 1_555 1_555
C18A C17A 1_555 1_555
H1A N2A 1_555 1_555
H2A N2A 1_555 1_555
H3A N2A 1_555 1_555
H4A C1A 1_555 1_555
H5A C2A 1_555 1_555
H6A C4A 1_555 1_555
H7A C5A 1_555 1_555
H8A C6A 1_555 1_555
H9A C7A 1_555 1_555
H10A C9A 1_555 1_555
H11A C10A 1_555 1_555
H12A C13A 1_555 1_555
H13A C14A 1_555 1_555
H14A C14A 1_555 1_555
H15A C14A 1_555 1_555
H16A C15A 1_555 1_555
H17A C15A 1_555 1_555
H18A C15A 1_555 1_555
H19A C16A 1_555 1_555
H20A C16A 1_555 1_555
H21A C17A 1_555 1_555
H22A C17A 1_555 1_555
H23A C18A 1_555 1_555
H24A C18A 1_555 1_555
N3A C19A 1_555 1_555
N4A C36A 1_555 1_555
C19A C20A 1_555 1_555
C20A C21A 1_555 1_555
C21A C22A 1_555 1_555
C22A C23A 1_555 1_555
C23A N3A 1_555 1_555
C24A C25 1_555 1_555
C25A C24 1_555 1_555
C26A C25A 1_555 1_555
C27A C26A 1_555 1_555
C28A C27A 1_555 1_555
C29A C28A 1_555 1_555
C30A C29A 1_555 1_555
C31A C26A 1_555 1_555
C32A O11A 1_555 1_555
C33A O12A 1_555 1_555
C34A N3A 1_555 1_555
C35A C34A 1_555 1_555
C36A C35A 1_555 1_555
H25A N4A 1_555 1_555
H26A N4A 1_555 1_555
H27A N4A 1_555 1_555
H28A C19A 1_555 1_555
H29A C20A 1_555 1_555
H30A C22A 1_555 1_555
H31A C23A 1_555 1_555
H32A C24A 1_555 1_555
H33A C25A 1_555 1_555
H34A C27A 1_555 1_555
H35A C28A 1_555 1_555
H36A C31A 1_555 1_555
H37A C32A 1_555 1_555
H38A C32A 1_555 1_555
H39A C32A 1_555 1_555
H40A C33A 1_555 1_555
H41A C33A 1_555 1_555
H42A C33A 1_555 1_555
H43A C34A 1_555 1_555
H44A C34A 1_555 1_555
H45A C35A 1_555 1_555
H46A C35A 1_555 1_555
H47A C36A 1_555 1_555
H48A C36A 1_555 1_555
C12 C13 1_555 1_555
C30 C31 1_555 1_555
C3A C6A 1_555 1_555
C6A C7A 1_555 1_555
C12A C13A 1_555 1_555
C21A C24A 1_555 1_555
C24A C25A 1_555 1_555
C30A C31A 1_555 1_555

#END
