
#######################################################################
#
#                 Cambridge Crystallographic Data Centre
#                                CCDC 
#
#######################################################################
#
# If this CIF has been generated from an entry in the Cambridge 
# Structural Database, then it will include bibliographic, chemical, 
# crystal, experimental, refinement or atomic coordinate data resulting 
# from the CCDC's data processing and validation procedures.
#
#######################################################################

data_DUXCIJ
_chemical_formula_moiety         'C26 H20 N2 O1'
_chemical_name_systematic        
N-Phenyl-N-(phenyl(phenylimino)methyl)benzamide
_symmetry_cell_setting           monoclinic
_symmetry_space_group_name_H-M   'P 21/c'
_symmetry_Int_Tables_number      14
_space_group_name_Hall           '-P 2ybc'
loop_
_symmetry_equiv_pos_site_id
_symmetry_equiv_pos_as_xyz
1 x,y,z
2 -x,1/2+y,1/2-z
3 -x,-y,-z
4 x,1/2-y,1/2+z
_cell_length_a                   10.942(2)
_cell_length_b                   20.343(4)
_cell_length_c                   9.3165(19)
_cell_angle_alpha                90
_cell_angle_beta                 97.53(3)
_cell_angle_gamma                90
_cell_volume                     2055.91
_chemical_melting_point          174-175deg.C
_cell_formula_units_Z            4
loop_
_atom_site_label
_atom_site_type_symbol
_atom_site_fract_x
_atom_site_fract_y
_atom_site_fract_z
O1 O 0.17926(13) 0.14011(7) 0.61497(13)
N1 N 0.22500(12) 0.09131(7) 0.83231(13)
N2 N 0.43483(14) 0.06509(8) 0.81170(16)
C1 C 0.03929(16) 0.16120(9) 0.78332(17)
C2 C -0.03552(17) 0.12890(10) 0.8698(2)
H1 H -0.0146 0.0870 0.9047
C3 C -0.1411(2) 0.15905(12) 0.9039(2)
H2 H -0.1921 0.1370 0.9603
C4 C -0.1712(2) 0.22128(13) 0.8549(2)
H3 H -0.2411 0.2418 0.8807
C5 C -0.0990(2) 0.25330(11) 0.7684(2)
H4 H -0.1201 0.2954 0.7349
C6 C 0.00554(18) 0.22325(9) 0.7304(2)
H5 H 0.0533 0.2447 0.6693
C7 C 0.22709(16) 0.09044(9) 0.98695(17)
C8 C 0.2299(2) 0.03028(11) 1.0558(2)
H6 H 0.2277 -0.0083 1.0019
C9 C 0.2360(3) 0.02734(16) 1.2041(3)
H7 H 0.2389 -0.0133 1.2501
C10 C 0.2377(3) 0.08373(18) 1.2845(3)
H8 H 0.2402 0.0815 1.3846
C11 C 0.2357(2) 0.14389(14) 1.2161(2)
H9 H 0.2373 0.1823 1.2706
C12 C 0.23150(18) 0.14777(10) 1.0670(2)
H10 H 0.2316 0.1884 1.0214
C13 C 0.28120(17) -0.00124(8) 0.67632(17)
C14 C 0.1612(2) -0.02467(10) 0.6577(2)
H11 H 0.1018 -0.0047 0.7060
C15 C 0.1293(2) -0.07814(11) 0.5666(3)
H12 H 0.0488 -0.0939 0.5546
C16 C 0.2164(3) -0.10756(11) 0.4949(2)
H13 H 0.1948 -0.1433 0.4345
C17 C 0.3351(2) -0.08455(10) 0.5118(2)
H14 H 0.3937 -0.1045 0.4623
C18 C 0.3678(2) -0.03173(9) 0.60236(19)
H15 H 0.4487 -0.0165 0.6138
C19 C 0.47496(16) 0.12054(9) 0.89809(18)
C20 C 0.45287(18) 0.18384(10) 0.8464(2)
H16 H 0.4082 0.1906 0.7557
C21 C 0.4976(2) 0.23711(10) 0.9304(2)
H17 H 0.4824 0.2797 0.8962
C22 C 0.56441(19) 0.22704(11) 1.0644(2)
H18 H 0.5946 0.2628 1.1205
C23 C 0.58650(19) 0.16405(11) 1.1153(2)
H19 H 0.6309 0.1574 1.2063
C24 C 0.54336(17) 0.11077(10) 1.0324(2)
H20 H 0.5601 0.0683 1.0665
C25 C 0.15194(16) 0.13107(9) 0.73662(17)
C26 C 0.32077(16) 0.05427(8) 0.77450(17)
loop_
_geom_bond_atom_site_label_1
_geom_bond_atom_site_label_2
_geom_bond_site_symmetry_1
_geom_bond_site_symmetry_2
O1 C25 1_555 1_555
N1 C7 1_555 1_555
N2 C19 1_555 1_555
C1 C2 1_555 1_555
C2 H1 1_555 1_555
C3 C2 1_555 1_555
H2 C3 1_555 1_555
C4 C3 1_555 1_555
H3 C4 1_555 1_555
C5 C4 1_555 1_555
H4 C5 1_555 1_555
C6 C1 1_555 1_555
H5 C6 1_555 1_555
C7 C8 1_555 1_555
C8 H6 1_555 1_555
C9 C8 1_555 1_555
H7 C9 1_555 1_555
C10 C9 1_555 1_555
H8 C10 1_555 1_555
C11 C10 1_555 1_555
H9 C11 1_555 1_555
C12 C7 1_555 1_555
H10 C12 1_555 1_555
C13 C14 1_555 1_555
C14 H11 1_555 1_555
C15 C14 1_555 1_555
H12 C15 1_555 1_555
C16 C15 1_555 1_555
H13 C16 1_555 1_555
C17 C16 1_555 1_555
H14 C17 1_555 1_555
C18 C13 1_555 1_555
H15 C18 1_555 1_555
C19 C20 1_555 1_555
C20 H16 1_555 1_555
C21 C20 1_555 1_555
H17 C21 1_555 1_555
C22 C21 1_555 1_555
H18 C22 1_555 1_555
C23 C22 1_555 1_555
H19 C23 1_555 1_555
C24 C19 1_555 1_555
H20 C24 1_555 1_555
C25 N1 1_555 1_555
C26 N1 1_555 1_555
N2 C26 1_555 1_555
C1 C25 1_555 1_555
C5 C6 1_555 1_555
C11 C12 1_555 1_555
C13 C26 1_555 1_555
C17 C18 1_555 1_555
C23 C24 1_555 1_555

#END
