
#######################################################################
#
#                 Cambridge Crystallographic Data Centre
#                                CCDC 
#
#######################################################################
#
# If this CIF has been generated from an entry in the Cambridge 
# Structural Database, then it will include bibliographic, chemical, 
# crystal, experimental, refinement or atomic coordinate data resulting 
# from the CCDC's data processing and validation procedures.
#
#######################################################################

data_DUXCEF
_chemical_formula_moiety         'C20 H13 N3 O3'
_chemical_name_systematic        N-Benzoyl-2-phenyl-5-nitrobenzimidazole
_symmetry_cell_setting           triclinic
_symmetry_space_group_name_H-M   'P -1'
_symmetry_Int_Tables_number      2
_space_group_name_Hall           '-P 1'
loop_
_symmetry_equiv_pos_site_id
_symmetry_equiv_pos_as_xyz
1 x,y,z
2 -x,-y,-z
_cell_length_a                   7.9366(4)
_cell_length_b                   8.8982(5)
_cell_length_c                   12.0137(7)
_cell_angle_alpha                90.537(4)
_cell_angle_beta                 102.147(5)
_cell_angle_gamma                96.163(5)
_cell_volume                     824.19
_exptl_crystal_colour            greenish
_exptl_crystal_description       block
_chemical_melting_point          146-147deg.C
_cell_formula_units_Z            2
loop_
_atom_site_label
_atom_site_type_symbol
_atom_site_fract_x
_atom_site_fract_y
_atom_site_fract_z
N1 N 0.28528(14) 0.68863(12) 0.92618(9)
N2 N 0.30125(15) 0.93307(13) 0.87713(9)
C1 C 0.25748(17) 0.92130(15) 0.98363(11)
C2 C 0.25010(17) 0.77160(16) 1.01689(11)
C3 C 0.36922(18) 0.76304(15) 0.73771(11)
O1 O 0.10182(15) 1.22552(16) 1.18586(11)
O2 O 0.30686(16) 0.46437(12) 1.01194(9)
C4 C 0.31611(17) 0.79613(16) 0.84520(11)
C5 C 0.21980(18) 1.03382(17) 1.05137(12)
H1 H 0.2238 1.1342 1.0304
N3 N 0.12835(17) 1.10168(19) 1.22530(13)
C6 C 0.17599(18) 0.98861(17) 1.15194(12)
C7 C 0.27665(18) 0.52829(16) 0.92318(12)
O3 O 0.11493(17) 1.06811(15) 1.32195(10)
C8 C 0.1698(2) 0.84031(19) 1.18588(13)
H2 H 0.1407 0.8165 1.2552
C9 C 0.3035(2) 0.31914(17) 0.79646(14)
H3 H 0.3887 0.2889 0.8549
C10 C 0.2062(2) 0.72809(18) 1.11862(12)
H4 H 0.2017 0.6278 1.1401
C11 C 0.0908(2) 0.48703(16) 0.72666(13)
H5 H 0.0360 0.5718 0.7369
C12 C 0.2945(2) 0.83549(17) 0.64101(12)
H6 H 0.2086 0.8977 0.6444
C13 C 0.22329(19) 0.44609(15) 0.81159(12)
C14 C 0.0408(2) 0.40091(19) 0.62667(14)
H7 H -0.0511 0.4252 0.5704
C15 C 0.49710(19) 0.67086(17) 0.73249(13)
H8 H 0.5489 0.6229 0.7972
C16 C 0.3465(2) 0.8161(2) 0.54045(13)
H9 H 0.2969 0.8659 0.4761
C17 C 0.5474(2) 0.6504(2) 0.63056(15)
H10 H 0.6324 0.5876 0.6264
C18 C 0.1269(3) 0.2793(2) 0.61035(16)
H11 H 0.0968 0.2245 0.5414
C19 C 0.2569(3) 0.23812(19) 0.69482(18)
H12 H 0.3137 0.1550 0.6833
C20 C 0.4721(3) 0.7228(2) 0.53509(15)
H13 H 0.5063 0.7085 0.4667
loop_
_geom_bond_atom_site_label_1
_geom_bond_atom_site_label_2
_geom_bond_site_symmetry_1
_geom_bond_site_symmetry_2
N1 C2 1_555 1_555
N2 C1 1_555 1_555
C1 C2 1_555 1_555
C2 C10 1_555 1_555
C3 C4 1_555 1_555
O1 N3 1_555 1_555
O2 C7 1_555 1_555
C4 N1 1_555 1_555
C5 C1 1_555 1_555
H1 C5 1_555 1_555
N3 C6 1_555 1_555
C6 C5 1_555 1_555
C7 N1 1_555 1_555
O3 N3 1_555 1_555
C8 C6 1_555 1_555
H2 C8 1_555 1_555
C9 H3 1_555 1_555
C10 C8 1_555 1_555
H4 C10 1_555 1_555
C11 H5 1_555 1_555
C12 C3 1_555 1_555
H6 C12 1_555 1_555
C13 C7 1_555 1_555
C14 C11 1_555 1_555
H7 C14 1_555 1_555
C15 C3 1_555 1_555
H8 C15 1_555 1_555
C16 C12 1_555 1_555
H9 C16 1_555 1_555
C17 C15 1_555 1_555
H10 C17 1_555 1_555
C18 C14 1_555 1_555
H11 C18 1_555 1_555
C19 C9 1_555 1_555
H12 C19 1_555 1_555
C20 C16 1_555 1_555
H13 C20 1_555 1_555
N2 C4 1_555 1_555
C9 C13 1_555 1_555
C11 C13 1_555 1_555
C17 C20 1_555 1_555
C18 C19 1_555 1_555

#END
