
#######################################################################
#
#                 Cambridge Crystallographic Data Centre
#                                CCDC 
#
#######################################################################
#
# If this CIF has been generated from an entry in the Cambridge 
# Structural Database, then it will include bibliographic, chemical, 
# crystal, experimental, refinement or atomic coordinate data resulting 
# from the CCDC's data processing and validation procedures.
#
#######################################################################

data_DUXHOV
_chemical_formula_moiety         'C18 H22 B1 Cl1 N1 O4 P1'
_chemical_name_systematic        
'Diethyl (2-(2-chlorobenzyl)-1-hydroxy-2,3-dihydro-1H-2,1-benzazaborol-3-yl)phosphonate'
_symmetry_cell_setting           orthorhombic
_symmetry_space_group_name_H-M   'P 21 21 21'
_symmetry_Int_Tables_number      19
_space_group_name_Hall           'P 2ac 2ab'
loop_
_symmetry_equiv_pos_site_id
_symmetry_equiv_pos_as_xyz
1 x,y,z
2 1/2-x,-y,1/2+z
3 -x,1/2+y,1/2-z
4 1/2+x,1/2-y,-z
_cell_length_a                   8.2095(7)
_cell_length_b                   14.4223(9)
_cell_length_c                   17.1370(15)
_cell_angle_alpha                90
_cell_angle_beta                 90
_cell_angle_gamma                90
_cell_volume                     2029.02
_exptl_crystal_colour            white
_exptl_crystal_description       block
_cell_formula_units_Z            4
loop_
_atom_site_label
_atom_site_type_symbol
_atom_site_fract_x
_atom_site_fract_y
_atom_site_fract_z
P1 P 0.10041(14) 0.78580(6) 0.14022(6)
Cl1 Cl 0.40025(18) 0.84075(9) 0.41729(8)
C1 C 0.2075(5) 0.6810(2) 0.1687(2)
H1 H 0.3253 0.6920 0.1673
C2 C 0.1657(4) 0.5977(2) 0.1183(2)
C3 C 0.1993(6) 0.5862(3) 0.0400(2)
H2 H 0.2523 0.6319 0.0114
C4 C 0.1513(7) 0.5043(3) 0.0061(3)
H3 H 0.1736 0.4943 -0.0464
C5 C 0.0703(7) 0.4361(3) 0.0483(3)
H4 H 0.0371 0.3820 0.0235
C6 C 0.0392(5) 0.4482(3) 0.1254(3)
H5 H -0.0133 0.4020 0.1537
C7 C 0.0869(5) 0.5303(2) 0.1616(2)
C8 C 0.2198(4) 0.7035(2) 0.3141(2)
H6 H 0.1529 0.6888 0.3591
H7 H 0.2089 0.7694 0.3041
C9 C 0.3970(5) 0.6825(2) 0.33377(18)
C10 C 0.4734(5) 0.6030(2) 0.3068(2)
H8 H 0.4163 0.5627 0.2744
C11 C 0.6303(5) 0.5823(3) 0.3265(3)
H9 H 0.6782 0.5282 0.3080
C12 C 0.7176(6) 0.6412(4) 0.3737(3)
H10 H 0.8245 0.6271 0.3871
C13 C 0.6468(5) 0.7201(4) 0.4006(2)
H11 H 0.7055 0.7605 0.4321
C14 C 0.4866(5) 0.7402(3) 0.3808(2)
C15 C -0.1948(6) 0.7648(4) 0.1965(3)
H12 H -0.1406 0.7909 0.2418
H13 H -0.2317 0.7029 0.2098
C16 C -0.3351(6) 0.8230(4) 0.1748(4)
H14 H -0.2969 0.8817 0.1556
H15 H -0.4027 0.8328 0.2197
H16 H -0.3971 0.7925 0.1348
C17 C 0.2339(13) 0.8772(5) 0.0235(4)
H17 H 0.2459 0.9230 0.0646
H18 H 0.3424 0.8565 0.0092
C18 C 0.1659(10) 0.9194(5) -0.0396(6)
H19 H 0.1304 0.8733 -0.0762
H20 H 0.2452 0.9589 -0.0640
H21 H 0.0743 0.9559 -0.0232
O1 O 0.1315(4) 0.86347(15) 0.19350(17)
O2 O 0.1489(5) 0.80157(18) 0.05376(17)
O3 O -0.0825(3) 0.76035(19) 0.13186(17)
O4 O 0.0380(3) 0.52449(16) 0.31586(16)
H22 H 0.0007 0.4729 0.3066
N1 N 0.1587(3) 0.65326(17) 0.24756(16)
B1 B 0.0851(5) 0.5647(2) 0.2488(2)
loop_
_geom_bond_atom_site_label_1
_geom_bond_atom_site_label_2
_geom_bond_site_symmetry_1
_geom_bond_site_symmetry_2
P1 C1 1_555 1_555
Cl1 C14 1_555 1_555
C1 H1 1_555 1_555
C2 C1 1_555 1_555
C3 C2 1_555 1_555
H2 C3 1_555 1_555
C4 C3 1_555 1_555
H3 C4 1_555 1_555
C5 C4 1_555 1_555
H4 C5 1_555 1_555
C6 C5 1_555 1_555
H5 C6 1_555 1_555
C7 C2 1_555 1_555
C8 H6 1_555 1_555
H7 C8 1_555 1_555
C9 C8 1_555 1_555
C10 C9 1_555 1_555
H8 C10 1_555 1_555
C11 C10 1_555 1_555
H9 C11 1_555 1_555
C12 C11 1_555 1_555
H10 C12 1_555 1_555
C13 C12 1_555 1_555
H11 C13 1_555 1_555
C14 C9 1_555 1_555
C15 H12 1_555 1_555
H13 C15 1_555 1_555
C16 C15 1_555 1_555
H14 C16 1_555 1_555
H15 C16 1_555 1_555
H16 C16 1_555 1_555
C17 H17 1_555 1_555
H18 C17 1_555 1_555
C18 C17 1_555 1_555
H19 C18 1_555 1_555
H20 C18 1_555 1_555
H21 C18 1_555 1_555
O1 P1 1_555 1_555
O2 P1 1_555 1_555
O3 P1 1_555 1_555
O4 H22 1_555 1_555
N1 C1 1_555 1_555
B1 C7 1_555 1_555
C6 C7 1_555 1_555
C8 N1 1_555 1_555
C13 C14 1_555 1_555
C15 O3 1_555 1_555
C17 O2 1_555 1_555
O4 B1 1_555 1_555
N1 B1 1_555 1_555

#END
