
#######################################################################
#
#                 Cambridge Crystallographic Data Centre
#                                CCDC 
#
#######################################################################
#
# If this CIF has been generated from an entry in the Cambridge 
# Structural Database, then it will include bibliographic, chemical, 
# crystal, experimental, refinement or atomic coordinate data resulting 
# from the CCDC's data processing and validation procedures.
#
#######################################################################

data_DUXLAL
_chemical_formula_moiety         'C16 H20 O2'
_chemical_name_systematic        
tetraspiro[2.1.2^5^.1.2^9^.1.2^13^.1^3^]hexadecane-4,8-dione
_symmetry_cell_setting           monoclinic
_symmetry_space_group_name_H-M   'P n'
_symmetry_Int_Tables_number      7
_space_group_name_Hall           'P -2yac'
loop_
_symmetry_equiv_pos_site_id
_symmetry_equiv_pos_as_xyz
1 x,y,z
2 1/2+x,-y,1/2+z
_cell_length_a                   8.4982(4)
_cell_length_b                   16.9274(7)
_cell_length_c                   18.9911(10)
_cell_angle_alpha                90
_cell_angle_beta                 93.180(4)
_cell_angle_gamma                90
_cell_volume                     2727.71
_exptl_crystal_colour            colorless
_exptl_crystal_description       prism
_cell_formula_units_Z            8
loop_
_atom_site_label
_atom_site_type_symbol
_atom_site_fract_x
_atom_site_fract_y
_atom_site_fract_z
C1 C -0.3496(6) 1.0536(4) 0.0452(3)
H1 H -0.3857 1.0779 0.0010
H2 H -0.4291 1.0234 0.0682
C2 C -0.2328(6) 1.0964(4) 0.0900(3)
H3 H -0.2404 1.0927 0.1407
H4 H -0.1971 1.1472 0.0734
C3 C -0.1825(5) 1.0237(3) 0.0516(2)
C4 C -0.0778(5) 1.0456(3) -0.0058(2)
O1 O -0.1270(4) 1.0855(3) -0.05527(19)
C5 C 0.0911(5) 1.0257(3) 0.0031(2)
C6 C 0.1911(6) 1.0651(3) -0.0488(3)
H5 H 0.2871 1.0385 -0.0607
H6 H 0.1380 1.0939 -0.0874
C7 C 0.1856(6) 1.0983(4) 0.0218(3)
H7 H 0.1290 1.1475 0.0269
H8 H 0.2782 1.0921 0.0535
C8 C 0.1652(6) 0.9494(3) 0.0267(2)
O2 O 0.2875(4) 0.9511(3) 0.06315(19)
C9 C 0.0924(5) 0.8730(3) 0.00413(19)
C10 C 0.1979(6) 0.8274(4) -0.0414(3)
H9 H 0.1489 0.7974 -0.0802
H10 H 0.2991 0.8505 -0.0507
C11 C 0.1753(6) 0.7999(4) 0.0296(3)
H11 H 0.2626 0.8058 0.0643
H12 H 0.1124 0.7526 0.0349
C12 C -0.0829(4) 0.8670(3) -0.0134(2)
H13 H -0.1134 0.9081 -0.0471
H14 H -0.1052 0.8165 -0.0359
C13 C -0.1819(5) 0.8746(3) 0.0494(2)
C14 C -0.3445(6) 0.8406(3) 0.0456(3)
H15 H -0.4249 0.8684 0.0701
H16 H -0.3815 0.8158 0.0017
C15 C -0.2215(6) 0.8007(4) 0.0881(3)
H17 H -0.1821 0.7510 0.0705
H18 H -0.2255 0.8037 0.1389
C16 C -0.1527(5) 0.9485(3) 0.0922(2)
H19 H -0.0442 0.9484 0.1109
H20 H -0.2198 0.9477 0.1318
C17 C -0.6772(6) 0.7608(4) -0.2660(3)
H21 H -0.7482 0.7903 -0.2376
H22 H -0.7129 0.7547 -0.3151
C18 C -0.5893(6) 0.6951(4) -0.2323(3)
H23 H -0.5708 0.6487 -0.2606
H24 H -0.6060 0.6843 -0.1831
C19 C -0.5030(5) 0.7701(3) -0.2494(2)
C20 C -0.3955(5) 0.7579(3) -0.3079(2)
O3 O -0.4490(4) 0.7402(3) -0.3659(2)
C21 C -0.2219(5) 0.7635(3) -0.2940(2)
C22 C -0.1261(6) 0.7522(4) -0.3583(3)
H25 H -0.1827 0.7496 -0.4040
H26 H -0.0238 0.7776 -0.3583
C23 C -0.1442(6) 0.6863(4) -0.3100(3)
H27 H -0.0528 0.6709 -0.2803
H28 H -0.2115 0.6429 -0.3260
C24 C -0.1326(6) 0.8174(3) -0.2440(2)
O4 O -0.0260(4) 0.7907(3) -0.20619(19)
C25 C -0.1731(5) 0.9026(3) -0.24392(19)
C26 C -0.0398(6) 0.9485(4) -0.2734(3)
H29 H 0.0513 0.9190 -0.2873
H30 H -0.0668 0.9939 -0.3027
C27 C -0.0646(5) 0.9545(4) -0.1986(3)
H31 H -0.1070 1.0036 -0.1815
H32 H 0.0111 0.9287 -0.1661
C28 C -0.3378(5) 0.9286(3) -0.2603(2)
H33 H -0.3765 0.9044 -0.3042
H34 H -0.3392 0.9854 -0.2668
C29 C -0.4461(5) 0.9073(3) -0.20328(19)
C30 C -0.5936(6) 0.9558(4) -0.1948(3)
H35 H -0.6149 0.9988 -0.2277
H36 H -0.6864 0.9287 -0.1797
C31 C -0.4588(6) 0.9640(4) -0.1437(3)
H37 H -0.4691 0.9423 -0.0969
H38 H -0.3977 1.0124 -0.1449
C32 C -0.4516(5) 0.8210(3) -0.1868(2)
H39 H -0.5238 0.8127 -0.1496
H40 H -0.3478 0.8041 -0.1690
C33 C -0.3347(6) 0.6012(4) -0.1105(3)
H41 H -0.2785 0.6394 -0.1377
H42 H -0.4187 0.5735 -0.1368
C34 C -0.3582(6) 0.6198(4) -0.0387(3)
H43 H -0.4569 0.6036 -0.0197
H44 H -0.3167 0.6696 -0.0206
C35 C -0.2418(5) 0.5560(3) -0.0546(2)
C36 C -0.0763(6) 0.5844(4) -0.0499(2)
O5 O -0.0428(4) 0.6453(3) -0.0193(2)
C37 C 0.0452(5) 0.5407(3) -0.0884(2)
C38 C 0.1026(6) 0.5880(4) -0.1493(3)
H45 H 0.1238 0.5596 -0.1922
H46 H 0.0598 0.6406 -0.1567
C39 C 0.2068(6) 0.5755(4) -0.0892(3)
H47 H 0.2304 0.6205 -0.0587
H48 H 0.2943 0.5395 -0.0941
C40 C 0.0568(6) 0.4539(4) -0.0938(3)
O6 O 0.0942(4) 0.4223(3) -0.1469(2)
C41 C 0.0556(5) 0.4068(3) -0.0285(2)
C42 C 0.2236(6) 0.3809(4) -0.0086(3)
H49 H 0.3053 0.3963 -0.0396
H50 H 0.2564 0.3794 0.0411
C43 C 0.1120(6) 0.3237(4) -0.0341(3)
H51 H 0.0751 0.2857 -0.0004
H52 H 0.1239 0.3026 -0.0810
C44 C -0.0461(5) 0.4286(3) 0.0307(2)
H53 H -0.0215 0.3930 0.0698
H54 H -0.0176 0.4815 0.0464
C45 C -0.2194(5) 0.4265(3) 0.0144(2)
C46 C -0.3053(6) 0.3522(4) 0.0288(3)
H55 H -0.3894 0.3365 -0.0049
H56 H -0.2447 0.3087 0.0496
C47 C -0.3334(6) 0.4181(4) 0.0726(3)
H57 H -0.2897 0.4165 0.1208
H58 H -0.4346 0.4444 0.0662
C48 C -0.2955(5) 0.4723(3) -0.0454(2)
H59 H -0.4082 0.4731 -0.0396
H60 H -0.2786 0.4439 -0.0887
C49 C 0.3190(6) 0.5513(4) 0.1706(3)
H61 H 0.4045 0.5326 0.2023
H62 H 0.2489 0.5103 0.1517
C50 C 0.3507(6) 0.6183(4) 0.1248(3)
H63 H 0.3001 0.6186 0.0778
H64 H 0.4557 0.6409 0.1283
C51 C 0.2487(5) 0.6298(3) 0.1858(2)
C52 C 0.3372(6) 0.6817(4) 0.2377(2)
O7 O 0.4652(5) 0.6684(3) 0.26519(19)
C53 C 0.2872(5) 0.7650(3) 0.2505(2)
C54 C 0.3984(6) 0.8176(4) 0.2929(3)
H65 H 0.3542 0.8625 0.3165
H66 H 0.4876 0.7929 0.3184
C55 C 0.3986(6) 0.8196(4) 0.2166(3)
H67 H 0.4880 0.7963 0.1947
H68 H 0.3546 0.8659 0.1928
C56 C 0.1237(6) 0.7944(4) 0.2575(2)
O8 O 0.0879(4) 0.8591(3) 0.2350(2)
C57 C 0.0034(5) 0.7505(3) 0.2948(2)
C58 C -0.1545(6) 0.7894(4) 0.3033(3)
H69 H -0.1744 0.8396 0.2798
H70 H -0.2460 0.7554 0.3054
C59 C -0.0406(6) 0.7881(4) 0.3625(3)
H71 H -0.0613 0.7534 0.4016
H72 H 0.0103 0.8376 0.3760
C60 C 0.0014(5) 0.6614(3) 0.2949(2)
H73 H 0.1017 0.6432 0.3158
H74 H -0.0796 0.6442 0.3255
C61 C -0.0266(5) 0.6208(3) 0.2251(2)
C62 C -0.0796(6) 0.5365(4) 0.2238(3)
H75 H -0.0401 0.5023 0.1878
H76 H -0.0937 0.5109 0.2687
C63 C -0.1918(6) 0.5977(4) 0.2014(3)
H77 H -0.2753 0.6101 0.2324
H78 H -0.2217 0.6015 0.1515
C64 C 0.0763(4) 0.6465(3) 0.1678(2)
H79 H 0.0623 0.7027 0.1596
H80 H 0.0440 0.6191 0.1245
loop_
_geom_bond_atom_site_label_1
_geom_bond_atom_site_label_2
_geom_bond_site_symmetry_1
_geom_bond_site_symmetry_2
C1 H1 1_555 1_555
H2 C1 1_555 1_555
C2 C1 1_555 1_555
H3 C2 1_555 1_555
H4 C2 1_555 1_555
C3 C1 1_555 1_555
C4 C3 1_555 1_555
O1 C4 1_555 1_555
C5 C4 1_555 1_555
C6 C5 1_555 1_555
H5 C6 1_555 1_555
H6 C6 1_555 1_555
C7 C5 1_555 1_555
H7 C7 1_555 1_555
H8 C7 1_555 1_555
C8 C5 1_555 1_555
O2 C8 1_555 1_555
C9 C8 1_555 1_555
C10 C9 1_555 1_555
H9 C10 1_555 1_555
H10 C10 1_555 1_555
C11 C9 1_555 1_555
H11 C11 1_555 1_555
H12 C11 1_555 1_555
C12 C9 1_555 1_555
H13 C12 1_555 1_555
H14 C12 1_555 1_555
C13 C12 1_555 1_555
C14 C13 1_555 1_555
H15 C14 1_555 1_555
H16 C14 1_555 1_555
C15 C13 1_555 1_555
H17 C15 1_555 1_555
H18 C15 1_555 1_555
C16 C3 1_555 1_555
H19 C16 1_555 1_555
H20 C16 1_555 1_555
C17 H21 1_555 1_555
H22 C17 1_555 1_555
C18 C17 1_555 1_555
H23 C18 1_555 1_555
H24 C18 1_555 1_555
C19 C17 1_555 1_555
C20 C19 1_555 1_555
O3 C20 1_555 1_555
C21 C20 1_555 1_555
C22 C21 1_555 1_555
H25 C22 1_555 1_555
H26 C22 1_555 1_555
C23 C21 1_555 1_555
H27 C23 1_555 1_555
H28 C23 1_555 1_555
C24 C21 1_555 1_555
O4 C24 1_555 1_555
C25 C24 1_555 1_555
C26 C25 1_555 1_555
H29 C26 1_555 1_555
H30 C26 1_555 1_555
C27 C25 1_555 1_555
H31 C27 1_555 1_555
H32 C27 1_555 1_555
C28 C25 1_555 1_555
H33 C28 1_555 1_555
H34 C28 1_555 1_555
C29 C28 1_555 1_555
C30 C29 1_555 1_555
H35 C30 1_555 1_555
H36 C30 1_555 1_555
C31 C29 1_555 1_555
H37 C31 1_555 1_555
H38 C31 1_555 1_555
C32 C19 1_555 1_555
H39 C32 1_555 1_555
H40 C32 1_555 1_555
C33 H41 1_555 1_555
H42 C33 1_555 1_555
C34 C33 1_555 1_555
H43 C34 1_555 1_555
H44 C34 1_555 1_555
C35 C33 1_555 1_555
C36 C35 1_555 1_555
O5 C36 1_555 1_555
C37 C36 1_555 1_555
C38 C37 1_555 1_555
H45 C38 1_555 1_555
H46 C38 1_555 1_555
C39 C37 1_555 1_555
H47 C39 1_555 1_555
H48 C39 1_555 1_555
C40 C37 1_555 1_555
O6 C40 1_555 1_555
C41 C40 1_555 1_555
C42 C41 1_555 1_555
H49 C42 1_555 1_555
H50 C42 1_555 1_555
C43 C41 1_555 1_555
H51 C43 1_555 1_555
H52 C43 1_555 1_555
C44 C41 1_555 1_555
H53 C44 1_555 1_555
H54 C44 1_555 1_555
C45 C44 1_555 1_555
C46 C45 1_555 1_555
H55 C46 1_555 1_555
H56 C46 1_555 1_555
C47 C45 1_555 1_555
H57 C47 1_555 1_555
H58 C47 1_555 1_555
C48 C35 1_555 1_555
H59 C48 1_555 1_555
H60 C48 1_555 1_555
C49 H61 1_555 1_555
H62 C49 1_555 1_555
C50 C49 1_555 1_555
H63 C50 1_555 1_555
H64 C50 1_555 1_555
C51 C49 1_555 1_555
C52 C51 1_555 1_555
O7 C52 1_555 1_555
C53 C52 1_555 1_555
C54 C53 1_555 1_555
H65 C54 1_555 1_555
H66 C54 1_555 1_555
C55 C53 1_555 1_555
H67 C55 1_555 1_555
H68 C55 1_555 1_555
C56 C53 1_555 1_555
O8 C56 1_555 1_555
C57 C56 1_555 1_555
C58 C57 1_555 1_555
H69 C58 1_555 1_555
H70 C58 1_555 1_555
C59 C57 1_555 1_555
H71 C59 1_555 1_555
H72 C59 1_555 1_555
C60 C57 1_555 1_555
H73 C60 1_555 1_555
H74 C60 1_555 1_555
C61 C60 1_555 1_555
C62 C61 1_555 1_555
H75 C62 1_555 1_555
H76 C62 1_555 1_555
C63 C61 1_555 1_555
H77 C63 1_555 1_555
H78 C63 1_555 1_555
C64 C51 1_555 1_555
H79 C64 1_555 1_555
H80 C64 1_555 1_555
C2 C3 1_555 1_555
C6 C7 1_555 1_555
C10 C11 1_555 1_555
C13 C16 1_555 1_555
C14 C15 1_555 1_555
C18 C19 1_555 1_555
C22 C23 1_555 1_555
C26 C27 1_555 1_555
C29 C32 1_555 1_555
C30 C31 1_555 1_555
C34 C35 1_555 1_555
C38 C39 1_555 1_555
C42 C43 1_555 1_555
C45 C48 1_555 1_555
C46 C47 1_555 1_555
C50 C51 1_555 1_555
C54 C55 1_555 1_555
C58 C59 1_555 1_555
C61 C64 1_555 1_555
C62 C63 1_555 1_555

#END
