
#######################################################################
#
#                 Cambridge Crystallographic Data Centre
#                                CCDC 
#
#######################################################################
#
# If this CIF has been generated from an entry in the Cambridge 
# Structural Database, then it will include bibliographic, chemical, 
# crystal, experimental, refinement or atomic coordinate data resulting 
# from the CCDC's data processing and validation procedures.
#
#######################################################################

data_DUXPIW
_chemical_name_common            Tetrabenazine
_chemical_formula_moiety         'C19 H27 N1 O3'
_chemical_name_systematic        
3-Isobutyl-9,10-dimethoxy-1,3,4,6,7,11b-hexahydro-2H-pyrido[2,1-a]isoquinolin-2-one
_chemical_properties_biological  
"used to treat chorea associated with Huntington's disease"
_symmetry_cell_setting           monoclinic
_symmetry_space_group_name_H-M   'P 21/c'
_symmetry_Int_Tables_number      14
_space_group_name_Hall           '-P 2ybc'
loop_
_symmetry_equiv_pos_site_id
_symmetry_equiv_pos_as_xyz
1 x,y,z
2 -x,1/2+y,1/2-z
3 -x,-y,-z
4 x,1/2-y,1/2+z
_cell_length_a                   15.1665(8)
_cell_length_b                   15.9361(8)
_cell_length_c                   16.5917(9)
_cell_angle_alpha                90
_cell_angle_beta                 115.626(1)
_cell_angle_gamma                90
_cell_volume                     3615.68
_exptl_crystal_colour            colorless
_exptl_crystal_description       block
_cell_formula_units_Z            8
loop_
_atom_site_label
_atom_site_type_symbol
_atom_site_fract_x
_atom_site_fract_y
_atom_site_fract_z
O1 O -0.1048(1) 0.3085(1) 0.1423(1)
O2 O 0.3186(1) 0.3346(1) 0.6995(1)
O3 O 0.3368(1) 0.3397(1) 0.5531(1)
N1 N -0.1133(1) 0.3602(1) 0.3780(1)
C1 C 0.0675(1) 0.3629(1) 0.4603(1)
C2 C -0.0189(1) 0.3128(1) 0.2997(1)
C3 C -0.0212(1) 0.3736(1) 0.3708(1)
C4 C 0.1612(1) 0.3569(1) 0.4635(1)
C5 C 0.1414(2) 0.3504(1) 0.6205(1)
C6 C -0.1093(1) 0.3149(1) 0.2134(1)
C7 C 0.0579(2) 0.3603(1) 0.5398(1)
C8 C 0.2432(1) 0.3474(1) 0.5435(1)
C9 C -0.0408(2) 0.3704(2) 0.5400(1)
C10 C -0.2064(1) 0.3226(1) 0.2189(1)
C11 C -0.1960(1) 0.3825(1) 0.2945(1)
C12 C -0.1152(2) 0.4075(1) 0.4530(1)
C13 C 0.2328(2) 0.3442(1) 0.6237(1)
C14 C -0.2904(2) 0.3446(2) 0.1288(1)
C15 C 0.3137(2) 0.3431(2) 0.7825(2)
C16 C -0.3921(2) 0.3461(2) 0.1253(2)
C17 C 0.3524(2) 0.3473(2) 0.4758(2)
C18 C -0.4665(2) 0.3703(3) 0.0314(2)
C19 C -0.4201(2) 0.2648(2) 0.1526(2)
H1 H 0.0368 0.3264 0.2880
H2 H -0.0097 0.2562 0.3234
H3 H -0.0210 0.4311 0.3499
H4 H 0.1683 0.3594 0.4106
H5 H 0.1347 0.3481 0.6735
H6 H -0.0345 0.4066 0.5891
H7 H -0.0637 0.3161 0.5494
H8 H -0.2210 0.2671 0.2355
H9 H -0.1873 0.4393 0.2780
H10 H -0.2555 0.3812 0.3028
H11 H -0.1799 0.4047 0.4511
H12 H -0.0998 0.4660 0.4489
H13 H -0.2774 0.3995 0.1109
H14 H -0.2904 0.3045 0.0849
H15 H 0.3243 0.4006 0.8013
H16 H 0.3631 0.3086 0.8265
H17 H 0.2504 0.3256 0.7760
H18 H 0.3479 0.2930 0.4493
H19 H 0.4163 0.3704 0.4915
H20 H 0.3038 0.3837 0.4339
H21 H -0.4734 0.4302 0.0272
H22 H -0.5285 0.3452 0.0194
H23 H -0.4445 0.3505 -0.0115
H24 H -0.4527 0.2300 0.1009
H25 H -0.4633 0.2754 0.1800
H26 H -0.3625 0.2367 0.1945
H27 H -0.3931 0.3896 0.1666
O4 O -0.2336(1) 0.0965(1) 0.20380(9)
O5 O -0.2419(1) 0.1513(1) 0.34604(9)
O6 O 0.1977(1) 0.1383(1) 0.7595(1)
N2 N 0.2009(1) 0.0788(1) 0.5231(1)
C20 C 0.1181(1) 0.1265(1) 0.5238(1)
C21 C -0.1503(1) 0.1297(1) 0.3559(1)
C22 C -0.0567(1) 0.0756(1) 0.2821(1)
C23 C 0.0253(1) 0.1125(1) 0.4379(1)
C24 C -0.0652(1) 0.1367(1) 0.4342(1)
C25 C 0.0290(1) 0.0821(1) 0.3614(1)
C26 C -0.1462(1) 0.0998(1) 0.2782(1)
C27 C 0.2912(1) 0.1012(2) 0.6007(1)
C28 C 0.1046(1) 0.1033(1) 0.6068(1)
C29 C 0.2893(1) 0.0753(2) 0.6883(1)
C30 C 0.1978(2) 0.1096(1) 0.6919(1)
C31 C 0.1243(2) 0.0542(2) 0.3631(1)
C32 C 0.2102(2) 0.0928(2) 0.4403(1)
C33 C 0.3830(2) 0.0982(2) 0.7700(2)
C34 C -0.2313(2) 0.0789(2) 0.1215(2)
C35 C -0.2515(2) 0.1733(2) 0.4238(2)
C36 C 0.4748(2) 0.0533(3) 0.7826(2)
C37 C 0.5623(2) 0.0844(3) 0.8636(3)
C38 C 0.4671(3) -0.0397(3) 0.7845(4)
H28 H 0.1346 0.1863 0.5276
H29 H -0.0536 0.0547 0.2310
H30 H -0.0681 0.1579 0.4852
H31 H 0.3010 0.1613 0.6010
H32 H 0.3459 0.0740 0.5959
H33 H 0.0559 0.1401 0.6112
H34 H 0.0800 0.0463 0.6005
H35 H 0.1263 0.0700 0.3075
H36 H 0.1289 -0.0065 0.3681
H37 H 0.2705 0.0678 0.4448
H38 H 0.2126 0.1525 0.4303
H39 H 0.3940 0.1579 0.7675
H40 H 0.3722 0.0885 0.8228
H41 H -0.2268 0.1305 0.0936
H42 H -0.2899 0.0498 0.0832
H43 H -0.1755 0.0445 0.1316
H44 H -0.2652 0.1240 0.4496
H45 H -0.3041 0.2127 0.4090
H46 H -0.1917 0.1983 0.4660
H47 H 0.4867 0.0670 0.7305
H48 H 0.5920 0.1302 0.8468
H49 H 0.6088 0.0397 0.8878
H50 H 0.5418 0.1032 0.9079
H51 H 0.4869 -0.0580 0.8450
H52 H 0.5087 -0.0648 0.7611
H53 H 0.4006 -0.0564 0.7487
H54 H 0.2841 0.0140 0.6875
loop_
_geom_bond_atom_site_label_1
_geom_bond_atom_site_label_2
_geom_bond_site_symmetry_1
_geom_bond_site_symmetry_2
O1 C6 1_555 1_555
O2 C13 1_555 1_555
O3 C8 1_555 1_555
N1 C3 1_555 1_555
C1 C3 1_555 1_555
C2 C3 1_555 1_555
C3 H3 1_555 1_555
C4 C1 1_555 1_555
C5 C7 1_555 1_555
C6 C2 1_555 1_555
C7 C1 1_555 1_555
C8 C4 1_555 1_555
C9 C7 1_555 1_555
C10 C6 1_555 1_555
C11 N1 1_555 1_555
C12 N1 1_555 1_555
C13 C5 1_555 1_555
C14 C10 1_555 1_555
C15 O2 1_555 1_555
C16 C14 1_555 1_555
C17 O3 1_555 1_555
C18 C16 1_555 1_555
C19 C16 1_555 1_555
H1 C2 1_555 1_555
H2 C2 1_555 1_555
H4 C4 1_555 1_555
H5 C5 1_555 1_555
H6 C9 1_555 1_555
H7 C9 1_555 1_555
H8 C10 1_555 1_555
H9 C11 1_555 1_555
H10 C11 1_555 1_555
H11 C12 1_555 1_555
H12 C12 1_555 1_555
H13 C14 1_555 1_555
H14 C14 1_555 1_555
H15 C15 1_555 1_555
H16 C15 1_555 1_555
H17 C15 1_555 1_555
H18 C17 1_555 1_555
H19 C17 1_555 1_555
H20 C17 1_555 1_555
H21 C18 1_555 1_555
H22 C18 1_555 1_555
H23 C18 1_555 1_555
H24 C19 1_555 1_555
H25 C19 1_555 1_555
H26 C19 1_555 1_555
H27 C16 1_555 1_555
O4 C26 1_555 1_555
O5 C21 1_555 1_555
O6 C30 1_555 1_555
N2 C20 1_555 1_555
C20 C23 1_555 1_555
C21 C24 1_555 1_555
C22 C25 1_555 1_555
C23 C24 1_555 1_555
C24 H30 1_555 1_555
C25 C23 1_555 1_555
C26 C21 1_555 1_555
C27 N2 1_555 1_555
C28 C20 1_555 1_555
C29 C27 1_555 1_555
C30 C28 1_555 1_555
C31 C25 1_555 1_555
C32 N2 1_555 1_555
C33 C29 1_555 1_555
C34 O4 1_555 1_555
C35 O5 1_555 1_555
C36 C33 1_555 1_555
C37 C36 1_555 1_555
C38 C36 1_555 1_555
H28 C20 1_555 1_555
H29 C22 1_555 1_555
H31 C27 1_555 1_555
H32 C27 1_555 1_555
H33 C28 1_555 1_555
H34 C28 1_555 1_555
H35 C31 1_555 1_555
H36 C31 1_555 1_555
H37 C32 1_555 1_555
H38 C32 1_555 1_555
H39 C33 1_555 1_555
H40 C33 1_555 1_555
H41 C34 1_555 1_555
H42 C34 1_555 1_555
H43 C34 1_555 1_555
H44 C35 1_555 1_555
H45 C35 1_555 1_555
H46 C35 1_555 1_555
H47 C36 1_555 1_555
H48 C37 1_555 1_555
H49 C37 1_555 1_555
H50 C37 1_555 1_555
H51 C38 1_555 1_555
H52 C38 1_555 1_555
H53 C38 1_555 1_555
H54 C29 1_555 1_555
C8 C13 1_555 1_555
C9 C12 1_555 1_555
C10 C11 1_555 1_555
C22 C26 1_555 1_555
C29 C30 1_555 1_555
C31 C32 1_555 1_555

#END
