
#######################################################################
#
#                 Cambridge Crystallographic Data Centre
#                                CCDC 
#
#######################################################################
#
# If this CIF has been generated from an entry in the Cambridge 
# Structural Database, then it will include bibliographic, chemical, 
# crystal, experimental, refinement or atomic coordinate data resulting 
# from the CCDC's data processing and validation procedures.
#
#######################################################################

data_DUYFEJ
_chemical_formula_moiety         'C12 H8 Br1 Cl1 O3'
_chemical_name_systematic        
3-(3-Bromopropadienyl)-8-chloro-2,3-dihydro-5H-1,4-benzodioxepin-5-one
_symmetry_cell_setting           orthorhombic
_symmetry_space_group_name_H-M   'P 21 21 21'
_symmetry_Int_Tables_number      19
_space_group_name_Hall           'P 2ac 2ab'
loop_
_symmetry_equiv_pos_site_id
_symmetry_equiv_pos_as_xyz
1 x,y,z
2 1/2-x,-y,1/2+z
3 -x,1/2+y,1/2-z
4 1/2+x,1/2-y,-z
_cell_length_a                   5.06630(10)
_cell_length_b                   5.26280(10)
_cell_length_c                   44.5488(11)
_cell_angle_alpha                90
_cell_angle_beta                 90
_cell_angle_gamma                90
_cell_volume                     1187.8
_exptl_crystal_colour            colorless
_exptl_crystal_description       plate
_cell_formula_units_Z            4
loop_
_atom_site_label
_atom_site_type_symbol
_atom_site_fract_x
_atom_site_fract_y
_atom_site_fract_z
Br1 Br 0.17810(5) -0.23120(5) 0.280542(5)
Cl1 Cl 1.07749(11) 0.65600(11) 0.477504(11)
O1 O 0.5960(3) 0.7247(3) 0.37849(3)
O2 O 0.1029(3) 0.1547(3) 0.39395(3)
O3 O 0.3630(3) 0.2826(3) 0.35741(3)
C1 C 0.3276(5) 0.1028(4) 0.28031(5)
H1 H 0.2684 0.2229 0.2659
C2 C 0.5067(5) 0.1682(5) 0.29930(5)
C3 C 0.6885(4) 0.2294(4) 0.31879(5)
H2 H 0.8675 0.2074 0.3130
C4 C 0.6362(4) 0.3320(4) 0.34973(5)
H3 H 0.7532 0.2427 0.3644
C5 C 0.6913(5) 0.6150(4) 0.35106(5)
H4 H 0.8838 0.6442 0.3494
H5 H 0.6050 0.6997 0.3338
C6 C 0.6399(4) 0.5832(4) 0.40411(5)
C7 C 0.8174(5) 0.6752(4) 0.42498(5)
H6 H 0.9162 0.8251 0.4211
C8 C 0.8477(5) 0.5439(4) 0.45162(5)
C9 C 0.7053(4) 0.3257(4) 0.45809(5)
H7 H 0.7285 0.2397 0.4767
C10 C 0.5275(4) 0.2356(5) 0.43679(5)
H8 H 0.4268 0.0873 0.4409
C11 C 0.4961(4) 0.3614(4) 0.40943(5)
C12 C 0.3061(4) 0.2563(4) 0.38707(4)
loop_
_geom_bond_atom_site_label_1
_geom_bond_atom_site_label_2
_geom_bond_site_symmetry_1
_geom_bond_site_symmetry_2
Br1 C1 1_555 1_555
Cl1 C8 1_555 1_555
O1 C5 1_555 1_555
O2 C12 1_555 1_555
O3 C4 1_555 1_555
C1 H1 1_555 1_555
C2 C1 1_555 1_555
C3 C2 1_555 1_555
H2 C3 1_555 1_555
C4 C3 1_555 1_555
H3 C4 1_555 1_555
C5 C4 1_555 1_555
H4 C5 1_555 1_555
H5 C5 1_555 1_555
C6 O1 1_555 1_555
C7 C6 1_555 1_555
H6 C7 1_555 1_555
C8 C7 1_555 1_555
C9 C8 1_555 1_555
H7 C9 1_555 1_555
C10 C9 1_555 1_555
H8 C10 1_555 1_555
C11 C6 1_555 1_555
C12 O3 1_555 1_555
C10 C11 1_555 1_555
C11 C12 1_555 1_555

#END
