
#######################################################################
#
#                 Cambridge Crystallographic Data Centre
#                                CCDC 
#
#######################################################################
#
# If this CIF has been generated from an entry in the Cambridge 
# Structural Database, then it will include bibliographic, chemical, 
# crystal, experimental, refinement or atomic coordinate data resulting 
# from the CCDC's data processing and validation procedures.
#
#######################################################################

data_DUYKEO
_chemical_formula_moiety         'C21 H18 Cl1 N1 O1'
_chemical_name_systematic        
4-(4-Chlorophenyl)-2,3,3a,4,5,11c-hexahydrobenzo[f]furo[3,2-c]quinoline
_symmetry_cell_setting           triclinic
_symmetry_space_group_name_H-M   'P -1'
_symmetry_Int_Tables_number      2
_space_group_name_Hall           '-P 1'
loop_
_symmetry_equiv_pos_site_id
_symmetry_equiv_pos_as_xyz
1 x,y,z
2 -x,-y,-z
_cell_length_a                   9.2367(6)
_cell_length_b                   9.6213(13)
_cell_length_c                   10.4565(8)
_cell_angle_alpha                103.872(6)
_cell_angle_beta                 114.049(4)
_cell_angle_gamma                92.266(6)
_cell_volume                     813.916
_exptl_crystal_colour            colorless
_exptl_crystal_description       sheet
_cell_formula_units_Z            2
loop_
_atom_site_label
_atom_site_type_symbol
_atom_site_fract_x
_atom_site_fract_y
_atom_site_fract_z
Cl1 Cl 1.50599(7) 0.36558(7) 0.63748(7)
C1 C 0.8970(2) 0.2411(2) 1.0737(2)
O1 O 0.76877(19) 0.03880(16) 0.85830(16)
C2 C 0.8075(2) 0.23488(19) 1.1563(2)
C3 C 0.8843(3) 0.2884(2) 1.3107(2)
N1 N 1.1477(2) 0.31208(19) 1.06845(19)
H1 H 1.2339 0.3742 1.1066
C4 C 1.0575(2) 0.3021(2) 1.1450(2)
C5 C 0.6421(2) 0.1775(2) 1.0903(2)
H2 H 0.5890 0.1414 0.9894
C6 C 1.3875(2) 0.3208(2) 0.7205(2)
C7 C 1.1993(2) 0.2527(2) 0.8529(2)
C8 C 0.5587(3) 0.1743(2) 1.1722(3)
H3 H 0.4499 0.1369 1.1262
C9 C 0.9183(2) 0.2261(2) 0.8344(2)
H4 H 0.9083 0.3226 0.8194
C10 C 0.8164(2) 0.1930(2) 0.9108(2)
H5 H 0.7201 0.2389 0.8777
C11 C 1.3385(3) 0.1784(2) 0.7025(3)
H6 H 1.3673 0.1050 0.6456
C12 C 1.0938(2) 0.2155(2) 0.9225(2)
H7 H 1.1013 0.1159 0.9293
C13 C 1.1313(3) 0.3584(2) 1.2987(2)
H8 H 1.2383 0.4017 1.3457
C14 C 0.7948(3) 0.2821(2) 1.3915(3)
H9 H 0.8454 0.3164 1.4927
C15 C 1.2457(3) 0.1452(2) 0.7699(2)
H10 H 1.2139 0.0486 0.7592
C16 C 0.6356(3) 0.2266(2) 1.3238(3)
H11 H 0.5783 0.2236 1.3788
C17 C 1.0487(3) 0.3503(2) 1.3784(2)
H12 H 1.1007 0.3860 1.4795
C18 C 1.2497(3) 0.3958(2) 0.8674(3)
H13 H 1.2193 0.4699 0.9220
C19 C 1.3439(3) 0.4302(2) 0.8022(3)
H14 H 1.3776 0.5266 0.8135
C20 C 0.8393(3) 0.1090(3) 0.6878(3)
H15 H 0.7710 0.1492 0.6115
H16 H 0.9200 0.0670 0.6605
C21 C 0.7433(4) -0.0016(3) 0.7108(3)
H17 H 0.6304 -0.0085 0.6477
H18 H 0.7755 -0.0956 0.6870
loop_
_geom_bond_atom_site_label_1
_geom_bond_atom_site_label_2
_geom_bond_site_symmetry_1
_geom_bond_site_symmetry_2
Cl1 C6 1_555 1_555
C1 C2 1_555 1_555
O1 C10 1_555 1_555
C2 C3 1_555 1_555
C3 C14 1_555 1_555
N1 H1 1_555 1_555
C4 C1 1_555 1_555
C5 C2 1_555 1_555
H2 C5 1_555 1_555
C6 C11 1_555 1_555
C7 C12 1_555 1_555
C8 C5 1_555 1_555
H3 C8 1_555 1_555
C9 H4 1_555 1_555
C10 C1 1_555 1_555
H5 C10 1_555 1_555
C11 H6 1_555 1_555
C12 N1 1_555 1_555
H7 C12 1_555 1_555
C13 C4 1_555 1_555
H8 C13 1_555 1_555
C14 H9 1_555 1_555
C15 C7 1_555 1_555
H10 C15 1_555 1_555
C16 C8 1_555 1_555
H11 C16 1_555 1_555
C17 C3 1_555 1_555
H12 C17 1_555 1_555
C18 C7 1_555 1_555
H13 C18 1_555 1_555
C19 C6 1_555 1_555
H14 C19 1_555 1_555
C20 C9 1_555 1_555
H15 C20 1_555 1_555
H16 C20 1_555 1_555
C21 O1 1_555 1_555
H17 C21 1_555 1_555
H18 C21 1_555 1_555
N1 C4 1_555 1_555
C9 C10 1_555 1_555
C9 C12 1_555 1_555
C11 C15 1_555 1_555
C13 C17 1_555 1_555
C14 C16 1_555 1_555
C18 C19 1_555 1_555
C20 C21 1_555 1_555

#END
