
#######################################################################
#
#                 Cambridge Crystallographic Data Centre
#                                CCDC 
#
#######################################################################
#
# If this CIF has been generated from an entry in the Cambridge 
# Structural Database, then it will include bibliographic, chemical, 
# crystal, experimental, refinement or atomic coordinate data resulting 
# from the CCDC's data processing and validation procedures.
#
#######################################################################

data_DUZBUW
_chemical_formula_moiety         'C22 H22 N8 O4,C2 H6 O1 S1'
_chemical_name_systematic        
'6,13-Dioxo-5,7,12,14-tetrahydro-5a,6a,12a,13a-tetraazabenzo[5,6]azuleno[2,1,8-ija]benzo[f]azulene-13b,13c-dicarbohydrazide dimethylsulfoxide clathrate'
_symmetry_cell_setting           triclinic
_symmetry_space_group_name_H-M   'P -1'
_symmetry_Int_Tables_number      2
_space_group_name_Hall           '-P 1'
loop_
_symmetry_equiv_pos_site_id
_symmetry_equiv_pos_as_xyz
1 x,y,z
2 -x,-y,-z
_cell_length_a                   7.5238(14)
_cell_length_b                   10.2342(19)
_cell_length_c                   17.321(3)
_cell_angle_alpha                76.942(4)
_cell_angle_beta                 78.930(4)
_cell_angle_gamma                86.607(4)
_cell_volume                     1274.88
_exptl_crystal_colour            colorless
_exptl_crystal_description       needle
_cell_formula_units_Z            2
_exptl_crystal_recrystallization_method DMSO
loop_
_atom_site_label
_atom_site_type_symbol
_atom_site_fract_x
_atom_site_fract_y
_atom_site_fract_z
C1 C 0.5138(5) 0.5728(4) 0.3938(2)
C2 C 0.3638(6) 0.5135(4) 0.3810(3)
H1 H 0.2550 0.5614 0.3800
C3 C 0.3760(7) 0.3834(5) 0.3699(3)
H2 H 0.2741 0.3432 0.3630
C4 C 0.5366(7) 0.3136(5) 0.3688(3)
H3 H 0.5442 0.2267 0.3604
C5 C 0.6869(6) 0.3717(4) 0.3800(3)
H4 H 0.7962 0.3241 0.3786
C6 C 0.6771(5) 0.5021(4) 0.3935(2)
C7 C 0.4914(5) 0.7112(4) 0.4115(3)
H5 H 0.3667 0.7409 0.4109
H6 H 0.5140 0.7056 0.4654
C8 C 0.8431(5) 0.5634(4) 0.4073(3)
H7 H 0.8199 0.5792 0.4615
H8 H 0.9434 0.4996 0.4036
C9 C 0.5730(6) 0.8693(4) 0.2795(3)
C10 C 1.0002(5) 0.6926(4) 0.2762(2)
C11 C 0.8014(5) 0.8146(4) 0.3570(2)
C12 C 0.8367(6) 0.8632(4) 0.4305(3)
C13 C 0.8790(5) 0.9095(4) 0.2728(2)
C14 C 0.9557(6) 1.0419(4) 0.2790(3)
C15 C 1.0911(6) 0.8596(4) 0.1485(3)
H9 H 1.1991 0.8048 0.1384
H10 H 1.1279 0.9525 0.1345
C16 C 0.7348(7) 1.0013(5) 0.1511(3)
H11 H 0.8176 1.0755 0.1381
H12 H 0.6165 1.0379 0.1425
C17 C 0.7985(8) 0.9083(5) 0.0948(3)
C18 C 0.6883(10) 0.8877(7) 0.0428(4)
H13 H 0.5750 0.9296 0.0447
C19 C 0.7426(15) 0.8069(10) -0.0113(5)
H14 H 0.6675 0.7953 -0.0460
C20 C 0.9080(15) 0.7441(8) -0.0135(4)
H15 H 0.9461 0.6900 -0.0503
C21 C 1.0195(10) 0.7600(6) 0.0386(3)
H16 H 1.1316 0.7161 0.0367
C22 C 0.9649(8) 0.8414(5) 0.0937(3)
N1 N 0.6103(4) 0.8123(3) 0.3551(2)
N2 N 0.8960(4) 0.6894(3) 0.35024(19)
N3 N 0.7230(5) 0.9362(4) 0.2351(2)
N4 N 1.0140(4) 0.8246(3) 0.23516(19)
N5 N 0.7007(5) 0.9340(4) 0.4640(2)
H17 H 0.603(4) 0.956(4) 0.442(2)
N6 N 0.7081(5) 0.9925(4) 0.5297(2)
H18 H 0.794(5) 1.051(4) 0.515(3)
H19 H 0.727(7) 0.927(3) 0.569(2)
N7 N 1.1325(5) 1.0432(4) 0.2743(3)
H20 H 1.195(6) 0.969(3) 0.275(3)
N8 N 1.2108(7) 1.1536(5) 0.2910(3)
H21 H 1.127(6) 1.214(5) 0.289(4)
H22 H 1.293(6) 1.195(5) 0.254(3)
O1 O 0.4288(4) 0.8655(3) 0.2581(2)
O2 O 1.0754(4) 0.5974(3) 0.25241(18)
O3 O 0.9801(4) 0.8373(3) 0.4539(2)
O4 O 0.8564(5) 1.1361(3) 0.2875(3)
C23 C 0.4004(19) 0.5343(11) 0.1161(12)
H23 H 0.2883 0.4934 0.1169
H24 H 0.4204 0.6106 0.0717
H25 H 0.3949 0.5627 0.1657
C24 C 0.716(2) 0.4606(18) 0.1669(13)
H26 H 0.7248 0.3864 0.2113
H27 H 0.6626 0.5366 0.1870
H28 H 0.8352 0.4828 0.1362
O5 O 0.4972(11) 0.2873(6) 0.1454(5)
S1 S 0.5813(4) 0.4163(3) 0.1049(2)
C25? C 0.477(6) 0.542(2) 0.138(2)
C26? C 0.599(3) 0.330(2) 0.0701(11)
H29? H 0.5301 0.6028 0.1613
H30? H 0.3485 0.5386 0.1578
H31? H 0.4982 0.5734 0.0800
H32? H 0.5947 0.4081 0.0274
H33? H 0.5025 0.2714 0.0723
H34? H 0.7132 0.2842 0.0600
O6? O 0.769(2) 0.412(4) 0.165(2)
S2? S 0.5746(13) 0.3798(8) 0.1627(6)
loop_
_geom_bond_atom_site_label_1
_geom_bond_atom_site_label_2
_geom_bond_site_symmetry_1
_geom_bond_site_symmetry_2
C1 C2 1_555 1_555
C2 H1 1_555 1_555
C3 C2 1_555 1_555
H2 C3 1_555 1_555
C4 C3 1_555 1_555
H3 C4 1_555 1_555
C5 C4 1_555 1_555
H4 C5 1_555 1_555
C6 C1 1_555 1_555
C7 C1 1_555 1_555
H5 C7 1_555 1_555
H6 C7 1_555 1_555
C8 C6 1_555 1_555
H7 C8 1_555 1_555
H8 C8 1_555 1_555
C9 N1 1_555 1_555
C10 N2 1_555 1_555
C11 C12 1_555 1_555
C12 N5 1_555 1_555
C13 C11 1_555 1_555
C14 C13 1_555 1_555
C15 H9 1_555 1_555
H10 C15 1_555 1_555
C16 H11 1_555 1_555
H12 C16 1_555 1_555
C17 C16 1_555 1_555
C18 C17 1_555 1_555
H13 C18 1_555 1_555
C19 C18 1_555 1_555
H14 C19 1_555 1_555
C20 C19 1_555 1_555
H15 C20 1_555 1_555
C21 C20 1_555 1_555
H16 C21 1_555 1_555
C22 C15 1_555 1_555
N1 C7 1_555 1_555
N2 C8 1_555 1_555
N3 C9 1_555 1_555
N4 C10 1_555 1_555
N5 H17 1_555 1_555
N6 N5 1_555 1_555
H18 N6 1_555 1_555
H19 N6 1_555 1_555
N7 C14 1_555 1_555
H20 N7 1_555 1_555
N8 N7 1_555 1_555
H21 N8 1_555 1_555
H22 N8 1_555 1_555
O1 C9 1_555 1_555
O2 C10 1_555 1_555
O3 C12 1_555 1_555
O4 C14 1_555 1_555
C23 H23 1_555 1_555
H24 C23 1_555 1_555
H25 C23 1_555 1_555
C24 H26 1_555 1_555
H27 C24 1_555 1_555
H28 C24 1_555 1_555
O5 S1 1_555 1_555
S1 C23 1_555 1_555
C5 C6 1_555 1_555
C11 N1 1_555 1_555
C11 N2 1_555 1_555
C13 N3 1_555 1_555
C13 N4 1_555 1_555
C15 N4 1_555 1_555
C16 N3 1_555 1_555
C17 C22 1_555 1_555
C21 C22 1_555 1_555
C24 S1 1_555 1_555

#END
