
#######################################################################
#
#                 Cambridge Crystallographic Data Centre
#                                CCDC 
#
#######################################################################
#
# If this CIF has been generated from an entry in the Cambridge 
# Structural Database, then it will include bibliographic, chemical, 
# crystal, experimental, refinement or atomic coordinate data resulting 
# from the CCDC's data processing and validation procedures.
#
#######################################################################

data_DUZGEM
_chemical_formula_moiety         'C28 H32 O2 S2'
_chemical_name_systematic        
1,1'-thieno[3',2':5,6]naphtho[2,1-b]thiene-2,7-diyldiheptan-1-one
_symmetry_cell_setting           triclinic
_symmetry_space_group_name_H-M   'P -1'
_symmetry_Int_Tables_number      2
_space_group_name_Hall           '-P 1'
loop_
_symmetry_equiv_pos_site_id
_symmetry_equiv_pos_as_xyz
1 x,y,z
2 -x,-y,-z
_cell_length_a                   5.4552(2)
_cell_length_b                   9.1130(3)
_cell_length_c                   24.9685(8)
_cell_angle_alpha                80.515(2)
_cell_angle_beta                 88.025(2)
_cell_angle_gamma                77.197(2)
_cell_volume                     1193.85
_exptl_crystal_colour            white
_exptl_crystal_description       plate
_cell_formula_units_Z            2
loop_
_atom_site_label
_atom_site_type_symbol
_atom_site_fract_x
_atom_site_fract_y
_atom_site_fract_z
C1 C 1.5728(3) 0.76514(16) 0.22987(6)
C2 C 1.6791(3) 0.67107(16) 0.19173(6)
H1 H 1.8401 0.6049 0.1979
C3 C 1.5467(3) 0.67680(16) 0.14579(6)
H2 H 1.6158 0.6126 0.1202
C4 C 1.3058(3) 0.77746(16) 0.13543(6)
C5 C 1.1662(3) 0.78500(15) 0.08700(6)
C6 C 1.2303(3) 0.69984(16) 0.04349(6)
H3 H 1.3840 0.6274 0.0417
C7 C 1.0468(3) 0.73367(16) 0.00475(6)
C8 C 0.9306(3) 0.88527(16) 0.07893(6)
C9 C 0.8273(3) 0.98328(16) 0.11631(6)
H4 H 0.6700 1.0530 0.1094
C10 C 0.9593(3) 0.97514(16) 0.16251(6)
H5 H 0.8906 1.0395 0.1881
C11 C 1.1977(3) 0.87265(16) 0.17356(6)
C12 C 1.3348(3) 0.86288(16) 0.22245(6)
C13 C 1.2664(3) 0.94266(17) 0.26730(6)
H6 H 1.1103 1.0124 0.2698
C14 C 1.4501(3) 0.90767(17) 0.30617(6)
C15 C 1.0540(3) 0.66325(16) -0.04473(6)
C16 C 0.8239(3) 0.70923(17) -0.08102(6)
H7 H 0.7760 0.8219 -0.0893
H8 H 0.6827 0.6733 -0.0611
C17 C 0.8621(3) 0.64600(17) -0.13429(6)
H9 H 0.8969 0.5332 -0.1263
H10 H 1.0102 0.6758 -0.1532
C18 C 0.6328(3) 0.70385(17) -0.17156(6)
H11 H 0.4847 0.6744 -0.1524
H12 H 0.5984 0.8166 -0.1794
C19 C 0.6669(3) 0.64154(17) -0.22510(6)
H13 H 0.8109 0.6745 -0.2449
H14 H 0.7082 0.5287 -0.2172
C20 C 0.4349(3) 0.69387(19) -0.26162(6)
H15 H 0.2890 0.6647 -0.2414
H16 H 0.3977 0.8064 -0.2710
C21 C 0.4682(4) 0.6254(2) -0.31379(7)
H17 H 0.6145 0.6520 -0.3336
H18 H 0.3175 0.6659 -0.3364
H19 H 0.4940 0.5142 -0.3049
C22 C 1.4559(3) 0.96795(17) 0.35751(6)
C23 C 1.2139(3) 1.05967(17) 0.37676(6)
H20 H 1.0854 0.9970 0.3806
H21 H 1.1533 1.1502 0.3489
C24 C 1.2404(3) 1.11239(18) 0.43071(6)
H22 H 1.3039 1.0222 0.4585
H23 H 1.3658 1.1771 0.4267
C25 C 0.9927(3) 1.20202(18) 0.44998(6)
H24 H 0.8652 1.1391 0.4521
H25 H 0.9337 1.2948 0.4229
C26 C 1.0144(3) 1.24867(18) 0.50526(6)
H26 H 1.0746 1.1559 0.5322
H27 H 1.1411 1.3122 0.5030
C27 C 0.7674(3) 1.3371(2) 0.52475(7)
H28 H 0.6416 1.2728 0.5275
H29 H 0.7058 1.4287 0.4974
C28 C 0.7871(4) 1.3868(2) 0.57950(7)
H30 H 0.8398 1.2966 0.6073
H31 H 0.6230 1.4452 0.5893
H32 H 0.9112 1.4507 0.5772
O1 O 1.2417(2) 0.57168(13) -0.05530(4)
O2 O 1.6535(2) 0.94156(14) 0.38243(5)
S1 S 0.78963(6) 0.87167(4) 0.019653(13)
S2 S 1.71325(6) 0.77621(4) 0.289862(14)
loop_
_geom_bond_atom_site_label_1
_geom_bond_atom_site_label_2
_geom_bond_site_symmetry_1
_geom_bond_site_symmetry_2
C1 C2 1_555 1_555
C2 H1 1_555 1_555
C3 C2 1_555 1_555
H2 C3 1_555 1_555
C4 C3 1_555 1_555
C5 C4 1_555 1_555
C6 C5 1_555 1_555
H3 C6 1_555 1_555
C7 C6 1_555 1_555
C8 C5 1_555 1_555
C9 C8 1_555 1_555
H4 C9 1_555 1_555
C10 C9 1_555 1_555
H5 C10 1_555 1_555
C11 C4 1_555 1_555
C12 C1 1_555 1_555
C13 C12 1_555 1_555
H6 C13 1_555 1_555
C14 C13 1_555 1_555
C15 C7 1_555 1_555
C16 C15 1_555 1_555
H7 C16 1_555 1_555
H8 C16 1_555 1_555
C17 C16 1_555 1_555
H9 C17 1_555 1_555
H10 C17 1_555 1_555
C18 C17 1_555 1_555
H11 C18 1_555 1_555
H12 C18 1_555 1_555
C19 C18 1_555 1_555
H13 C19 1_555 1_555
H14 C19 1_555 1_555
C20 C19 1_555 1_555
H15 C20 1_555 1_555
H16 C20 1_555 1_555
C21 C20 1_555 1_555
H17 C21 1_555 1_555
H18 C21 1_555 1_555
H19 C21 1_555 1_555
C22 C14 1_555 1_555
C23 C22 1_555 1_555
H20 C23 1_555 1_555
H21 C23 1_555 1_555
C24 C23 1_555 1_555
H22 C24 1_555 1_555
H23 C24 1_555 1_555
C25 C24 1_555 1_555
H24 C25 1_555 1_555
H25 C25 1_555 1_555
C26 C25 1_555 1_555
H26 C26 1_555 1_555
H27 C26 1_555 1_555
C27 C26 1_555 1_555
H28 C27 1_555 1_555
H29 C27 1_555 1_555
C28 C27 1_555 1_555
H30 C28 1_555 1_555
H31 C28 1_555 1_555
H32 C28 1_555 1_555
O1 C15 1_555 1_555
O2 C22 1_555 1_555
S1 C7 1_555 1_555
S2 C1 1_555 1_555
C8 S1 1_555 1_555
C10 C11 1_555 1_555
C11 C12 1_555 1_555
C14 S2 1_555 1_555

#END
