
#######################################################################
#
#                 Cambridge Crystallographic Data Centre
#                                CCDC 
#
#######################################################################
#
# If this CIF has been generated from an entry in the Cambridge 
# Structural Database, then it will include bibliographic, chemical, 
# crystal, experimental, refinement or atomic coordinate data resulting 
# from the CCDC's data processing and validation procedures.
#
#######################################################################

data_DXCHAC10
_chemical_formula_moiety         'C24 H40 O4,0.6(C3 H6 O1)'
_chemical_name_systematic        'Deoxycholic acid acetone clathrate'
_symmetry_cell_setting           orthorhombic
_symmetry_space_group_name_H-M   'P 21 21 21'
_symmetry_Int_Tables_number      19
_space_group_name_Hall           'P 2ac 2ab'
loop_
_symmetry_equiv_pos_site_id
_symmetry_equiv_pos_as_xyz
1 x,y,z
2 1/2+x,1/2-y,-z
3 -x,1/2+y,1/2-z
4 1/2-x,-y,1/2+z
_cell_length_a                   25.809(5)
_cell_length_b                   13.610(3)
_cell_length_c                   7.233(1)
_cell_angle_alpha                90
_cell_angle_beta                 90
_cell_angle_gamma                90
_cell_volume                     2540.67
_chemical_melting_point          170-175deg.C
_cell_formula_units_Z            4
loop_
_atom_site_label
_atom_site_type_symbol
_atom_site_fract_x
_atom_site_fract_y
_atom_site_fract_z
C1 C 0.1192 0.2268 0.3553
C2 C 0.0658 0.1971 0.2918
C3 C 0.0679 0.1265 0.1320
C4 C 0.0995 0.1701 -0.0210
C5 C 0.1537 0.2000 0.0323
C6 C 0.1838 0.2461 -0.1288
C7 C 0.1646 0.3445 -0.1906
C8 C 0.1622 0.4172 -0.0243
C9 C 0.1312 0.3751 0.1347
C10 C 0.1527 0.2727 0.1987
C11 C 0.1242 0.4496 0.2869
C12 C 0.0999 0.5472 0.2199
C13 C 0.1326 0.5920 0.0665
C14 C 0.1375 0.5137 -0.0848
C15 C 0.1621 0.5708 -0.2482
C16 C 0.1380 0.6721 -0.2328
C17 C 0.1079 0.6776 -0.0477
C18 C 0.1846 0.6234 0.1425
C19 C 0.2073 0.2869 0.2744
C20 C 0.1080 0.7820 0.0295
C21 C 0.0811 0.7909 0.2190
C22 C 0.0856 0.8587 -0.1109
C23 C 0.0309 0.8416 -0.1613
C24 C 0.0117 0.9229 -0.2947
O1 O 0.0175 0.1023 0.0858
O2 O 0.0477 0.5297 0.1602
O3 O 0.0097 1.0079 -0.2449
O4 O -0.0063 0.8935 -0.4448
H1 H 0.114 0.265 0.461
H2 H 0.142 0.187 0.370
H3 H 0.048 0.171 0.345
H4 H 0.049 0.251 0.246
H5 H 0.087 0.074 0.157
H6 H 0.079 0.225 -0.084
H7 H 0.104 0.116 -0.090
H8 H 0.173 0.128 0.057
H9 H 0.227 0.232 -0.121
H10 H 0.187 0.212 -0.206
H11 H 0.135 0.343 -0.248
H12 H 0.193 0.365 -0.321
H13 H 0.202 0.423 -0.003
H14 H 0.096 0.358 0.079
H15 H 0.108 0.432 0.358
H16 H 0.160 0.463 0.336
H17 H 0.098 0.576 0.308
H18 H 0.105 0.503 -0.102
H19 H 0.201 0.560 -0.259
H20 H 0.157 0.536 -0.351
H21 H 0.113 0.661 -0.278
H22 H 0.165 0.705 -0.228
H23 H 0.070 0.662 -0.077
H24 H 0.210 0.656 0.075
H25 H 0.205 0.592 0.174
H26 H 0.187 0.653 0.228
H27 H 0.236 0.319 0.221
H28 H 0.215 0.248 0.305
H29 H 0.208 0.324 0.371
H30 H 0.153 0.793 0.033
H31 H 0.104 0.762 0.328
H32 H 0.045 0.769 0.228
H33 H 0.085 0.849 0.227
H34 H 0.103 0.852 -0.172
H35 H 0.090 0.917 -0.069
H36 H 0.017 0.839 -0.083
H37 H 0.029 0.770 -0.232
H38 H 0.002 0.107 0.044
H39 H 0.033 0.552 0.225
H40 H -0.022 0.920 -0.511
O5 O 0.211 -0.044 0.291
C25 C 0.279 0.025 0.471
C26 C 0.253 -0.001 0.291
C27 C 0.281 0.025 0.118
loop_
_geom_bond_atom_site_label_1
_geom_bond_atom_site_label_2
_geom_bond_site_symmetry_1
_geom_bond_site_symmetry_2
C1 C2 1_555 1_555
C2 C3 1_555 1_555
C3 C4 1_555 1_555
C4 C5 1_555 1_555
C5 C6 1_555 1_555
C6 C7 1_555 1_555
C7 C8 1_555 1_555
C8 C9 1_555 1_555
C9 C10 1_555 1_555
C10 C1 1_555 1_555
C11 C9 1_555 1_555
C12 C11 1_555 1_555
C13 C12 1_555 1_555
C14 C8 1_555 1_555
C15 C14 1_555 1_555
C16 C15 1_555 1_555
C17 C13 1_555 1_555
C18 C13 1_555 1_555
C19 C10 1_555 1_555
C20 C17 1_555 1_555
C21 C20 1_555 1_555
C22 C20 1_555 1_555
C23 C22 1_555 1_555
C24 C23 1_555 1_555
O1 C3 1_555 1_555
O2 C12 1_555 1_555
O3 C24 1_555 1_555
O4 C24 1_555 1_555
H1 C1 1_555 1_555
H2 C1 1_555 1_555
H3 C2 1_555 1_555
H4 C2 1_555 1_555
H5 C3 1_555 1_555
H6 C4 1_555 1_555
H7 C4 1_555 1_555
H8 C5 1_555 1_555
H9 C6 1_555 1_555
H10 C6 1_555 1_555
H11 C7 1_555 1_555
H12 C7 1_555 1_555
H13 C8 1_555 1_555
H14 C9 1_555 1_555
H15 C11 1_555 1_555
H16 C11 1_555 1_555
H17 C12 1_555 1_555
H18 C14 1_555 1_555
H19 C15 1_555 1_555
H20 C15 1_555 1_555
H21 C16 1_555 1_555
H22 C16 1_555 1_555
H23 C17 1_555 1_555
H24 C18 1_555 1_555
H25 C18 1_555 1_555
H26 C18 1_555 1_555
H27 C19 1_555 1_555
H28 C19 1_555 1_555
H29 C19 1_555 1_555
H30 C20 1_555 1_555
H31 C21 1_555 1_555
H32 C21 1_555 1_555
H33 C21 1_555 1_555
H34 C22 1_555 1_555
H35 C22 1_555 1_555
H36 C23 1_555 1_555
H37 C23 1_555 1_555
H38 O1 1_555 1_555
H39 O2 1_555 1_555
H40 O4 1_555 1_555
O5 C26 1_555 1_555
C25 C26 1_555 1_555
C26 C27 1_555 1_555
C5 C10 1_555 1_555
C13 C14 1_555 1_555
C16 C17 1_555 1_555

#END
