
#######################################################################
#
#                 Cambridge Crystallographic Data Centre
#                                CCDC 
#
#######################################################################
#
# If this CIF has been generated from an entry in the Cambridge 
# Structural Database, then it will include bibliographic, chemical, 
# crystal, experimental, refinement or atomic coordinate data resulting 
# from the CCDC's data processing and validation procedures.
#
#######################################################################

data_EABPOM
_chemical_formula_moiety         'C44 H52 O4,C2 H3 N1'
_chemical_name_systematic        
'3,9,16,22-Tetra-t-butyl-13,26-dioxaheptacyclo(18.5.2.1^1,5^.1^11,14^.1^14,18^.0^7,12^.0^24,27^)triaconta-2,4,7,9,11,15,17,20,22,24(27)-decaene-28,30-dione acetonitrile solvate'
_symmetry_cell_setting           triclinic
_symmetry_space_group_name_H-M   'P -1'
_symmetry_Int_Tables_number      2
_space_group_name_Hall           '-P 1'
loop_
_symmetry_equiv_pos_site_id
_symmetry_equiv_pos_as_xyz
1 x,y,z
2 -x,-y,-z
_cell_length_a                   13.301(2)
_cell_length_b                   15.202(2)
_cell_length_c                   10.486(1)
_cell_angle_alpha                106.10(1)
_cell_angle_beta                 101.20(1)
_cell_angle_gamma                83.48(1)
_cell_volume                     1994.32
_chemical_melting_point          254-256deg.C(dec.)
_cell_formula_units_Z            2
loop_
_atom_site_label
_atom_site_type_symbol
_atom_site_fract_x
_atom_site_fract_y
_atom_site_fract_z
O1 O 0.5800(2) 0.7916(2) 0.3093(3)
O2 O 0.7730(2) 0.6943(2) 0.3667(3)
O3 O 0.7653(2) 0.8639(2) 0.6294(3)
O4 O 0.6243(2) 0.7114(2) 0.5696(3)
C1 C 0.5935(2) 0.7087(2) 0.2919(3)
C2 C 0.5206(3) 0.6547(2) 0.3229(4)
C3 C 0.5359(3) 0.5626(2) 0.2894(4)
C4 C 0.6198(2) 0.5113(2) 0.2287(3)
C5 C 0.6902(3) 0.5592(2) 0.2064(4)
C6 C 0.6859(3) 0.6597(2) 0.2376(4)
C7 C 0.7174(3) 0.6973(2) 0.1319(3)
C8 C 0.8446(2) 0.7352(2) 0.3266(3)
C9 C 0.8201(2) 0.7337(2) 0.1934(3)
C10 C 0.8865(3) 0.7677(2) 0.1345(3)
C11 C 0.9774(2) 0.8050(2) 0.2105(3)
C12 C 0.9967(3) 0.8076(2) 0.3462(4)
C13 C 0.9318(3) 0.7734(2) 0.4086(3)
C14 C 0.9551(3) 0.7800(3) 0.5590(3)
C15 C 0.7868(3) 0.7874(2) 0.6438(3)
C16 C 0.8831(3) 0.7356(2) 0.6094(4)
C17 C 0.9092(3) 0.6554(3) 0.6453(4)
C18 C 0.8469(2) 0.6136(2) 0.7059(3)
C19 C 0.7577(3) 0.6556(3) 0.7319(4)
C20 C 0.7149(3) 0.7418(3) 0.6976(4)
C21 C 0.6586(3) 0.8090(3) 0.8025(3)
C22 C 0.5381(2) 0.7676(2) 0.5995(3)
C23 C 0.5531(2) 0.8238(2) 0.7287(3)
C24 C 0.4738(3) 0.8841(2) 0.7746(3)
C25 C 0.3793(2) 0.8892(2) 0.6905(3)
C26 C 0.3685(2) 0.8299(2) 0.5621(3)
C27 C 0.4460(2) 0.7681(2) 0.5131(3)
C28 C 0.4279(3) 0.7025(2) 0.3737(3)
C29 C 0.6227(3) 0.4072(2) 0.1884(4)
C30 C 0.5312(6) 0.3754(4) 0.0807(7)
C31 C 0.6169(7) 0.3731(4) 0.3074(7)
C32 C 0.7196(6) 0.3642(4) 0.143(1)
C33 C 1.0541(3) 0.8409(3) 0.1479(4)
C34 C 1.1528(5) 0.7797(5) 0.1538(8)
C35 C 1.0794(4) 0.9378(4) 0.2260(6)
C36 C 1.0142(5) 0.8407(6) 0.0040(6)
C37 C 0.8859(3) 0.5220(3) 0.7365(4)
C38 C 0.9903(6) 0.5317(6) 0.828(1)
C39 C 0.8204(6) 0.4899(4) 0.8141(8)
C40 C 0.901(1) 0.4522(4) 0.6120(7)
C41 C 0.2896(2) 0.9546(2) 0.7366(3)
C42 C 0.3223(3) 1.0277(3) 0.8669(4)
C43 C 0.2114(3) 0.8982(3) 0.7604(6)
C44 C 0.2409(4) 1.0047(4) 0.6310(5)
H1 H 0.4870 0.5287 0.3074
H2 H 0.7467 0.5259 0.1678
H3 H 0.8700 0.7655 0.0414
H4 H 1.0575 0.8340 0.3997
H5 H 0.9737 0.6250 0.6290
H6 H 0.7184 0.6286 0.7757
H7 H 0.4837 0.9223 0.8641
H8 H 0.3041 0.8317 0.5043
H9 H 0.6694 0.7450 0.1119
H10 H 0.7218 0.6499 0.0517
H11 H 0.9540 0.8431 0.6060
H12 H 1.0219 0.7522 0.5785
H13 H 0.6915 0.8651 0.8364
H14 H 0.6563 0.7835 0.8748
H15 H 0.2895 1.0419 0.6196
H16 H 0.1830 1.0423 0.6593
H17 H 0.2197 0.9613 0.5479
H18 H 0.3848 0.6573 0.3757
H19 H 0.3937 0.7365 0.3125
H20 H 0.4697 0.3990 0.1149
H21 H 0.5333 0.3102 0.0553
H22 H 0.5331 0.3968 0.0044
H23 H 0.6727 0.3941 0.3774
H24 H 0.5540 0.3957 0.3384
H25 H 0.6205 0.3080 0.2822
H26 H 0.7185 0.2994 0.1215
H27 H 0.7266 0.3818 0.0648
H28 H 0.7761 0.3839 0.2122
H29 H 1.1387 0.7187 0.1035
H30 H 1.2015 0.8018 0.1166
H31 H 1.1798 0.7805 0.2448
H32 H 1.0191 0.9775 0.2210
H33 H 1.1297 0.9575 0.1886
H34 H 1.1055 0.9392 0.3176
H35 H 0.9549 0.8817 -0.0005
H36 H 0.9969 0.7806 -0.0466
H37 H 1.0656 0.8599 -0.0322
H38 H 1.0373 0.5510 0.7853
H39 H 0.9837 0.5758 0.9107
H40 H 1.0149 0.4742 0.8452
H41 H 0.8514 0.4350 0.8350
H42 H 0.8140 0.5358 0.8952
H43 H 0.7542 0.4785 0.7613
H44 H 0.9481 0.4723 0.5702
H45 H 0.9277 0.3962 0.6328
H46 H 0.8372 0.4431 0.5526
H47 H 0.3706 1.0642 0.8531
H48 H 0.2639 1.0656 0.8927
H49 H 0.3528 0.9989 0.9360
H50 H 0.2423 0.8682 0.8280
H51 H 0.1547 0.9374 0.7892
H52 H 0.1885 0.8538 0.6792
N1 N 0.3874(6) 0.8755(5) 0.0880(7)
C45 C 0.3982(4) 0.9131(4) 0.1987(7)
C46 C 0.4142(4) 0.9633(4) 0.3407(6)
loop_
_geom_bond_atom_site_label_1
_geom_bond_atom_site_label_2
_geom_bond_site_symmetry_1
_geom_bond_site_symmetry_2
O1 C1 1_555 1_555
O2 C6 1_555 1_555
O3 C15 1_555 1_555
O4 C20 1_555 1_555
C1 C2 1_555 1_555
C2 C3 1_555 1_555
C3 C4 1_555 1_555
C4 C5 1_555 1_555
C5 C6 1_555 1_555
C6 C1 1_555 1_555
C7 C6 1_555 1_555
C8 O2 1_555 1_555
C9 C7 1_555 1_555
C10 C9 1_555 1_555
C11 C10 1_555 1_555
C12 C11 1_555 1_555
C13 C8 1_555 1_555
C14 C13 1_555 1_555
C15 C16 1_555 1_555
C16 C14 1_555 1_555
C17 C16 1_555 1_555
C18 C17 1_555 1_555
C19 C18 1_555 1_555
C20 C15 1_555 1_555
C21 C20 1_555 1_555
C22 O4 1_555 1_555
C23 C21 1_555 1_555
C24 C23 1_555 1_555
C25 C24 1_555 1_555
C26 C25 1_555 1_555
C27 C22 1_555 1_555
C28 C2 1_555 1_555
C29 C4 1_555 1_555
C30 C29 1_555 1_555
C31 C29 1_555 1_555
C32 C29 1_555 1_555
C33 C11 1_555 1_555
C34 C33 1_555 1_555
C35 C33 1_555 1_555
C36 C33 1_555 1_555
C37 C18 1_555 1_555
C38 C37 1_555 1_555
C39 C37 1_555 1_555
C40 C37 1_555 1_555
C41 C25 1_555 1_555
C42 C41 1_555 1_555
C43 C41 1_555 1_555
C44 C41 1_555 1_555
H1 C3 1_555 1_555
H2 C5 1_555 1_555
H3 C10 1_555 1_555
H4 C12 1_555 1_555
H5 C17 1_555 1_555
H6 C19 1_555 1_555
H7 C24 1_555 1_555
H8 C26 1_555 1_555
H9 C7 1_555 1_555
H10 C7 1_555 1_555
H11 C14 1_555 1_555
H12 C14 1_555 1_555
H13 C21 1_555 1_555
H14 C21 1_555 1_555
H15 C44 1_555 1_555
H16 C44 1_555 1_555
H17 C44 1_555 1_555
H18 C28 1_555 1_555
H19 C28 1_555 1_555
H20 C30 1_555 1_555
H21 C30 1_555 1_555
H22 C30 1_555 1_555
H23 C31 1_555 1_555
H24 C31 1_555 1_555
H25 C31 1_555 1_555
H26 C32 1_555 1_555
H27 C32 1_555 1_555
H28 C32 1_555 1_555
H29 C34 1_555 1_555
H30 C34 1_555 1_555
H31 C34 1_555 1_555
H32 C35 1_555 1_555
H33 C35 1_555 1_555
H34 C35 1_555 1_555
H35 C36 1_555 1_555
H36 C36 1_555 1_555
H37 C36 1_555 1_555
H38 C38 1_555 1_555
H39 C38 1_555 1_555
H40 C38 1_555 1_555
H41 C39 1_555 1_555
H42 C39 1_555 1_555
H43 C39 1_555 1_555
H44 C40 1_555 1_555
H45 C40 1_555 1_555
H46 C40 1_555 1_555
H47 C42 1_555 1_555
H48 C42 1_555 1_555
H49 C42 1_555 1_555
H50 C43 1_555 1_555
H51 C43 1_555 1_555
H52 C43 1_555 1_555
N1 C45 1_555 1_555
C45 C46 1_555 1_555
C8 C9 1_555 1_555
C12 C13 1_555 1_555
C19 C20 1_555 1_555
C22 C23 1_555 1_555
C26 C27 1_555 1_555
C27 C28 1_555 1_555

#END
