
#######################################################################
#
#                 Cambridge Crystallographic Data Centre
#                                CCDC 
#
#######################################################################
#
# If this CIF has been generated from an entry in the Cambridge 
# Structural Database, then it will include bibliographic, chemical, 
# crystal, experimental, refinement or atomic coordinate data resulting 
# from the CCDC's data processing and validation procedures.
#
#######################################################################

data_EABRUU
_chemical_formula_moiety         'C17 H22 Cl1 N1 O1'
_chemical_name_systematic        
(R)-(+)-N-(\a-Methylbenzyl)-(4-methylcyclohexylidene)chloroacetamide
_symmetry_cell_setting           orthorhombic
_symmetry_space_group_name_H-M   'P 21 21 21'
_symmetry_Int_Tables_number      19
_space_group_name_Hall           'P 2ac 2ab'
loop_
_symmetry_equiv_pos_site_id
_symmetry_equiv_pos_as_xyz
1 x,y,z
2 1/2+x,1/2-y,-z
3 -x,1/2+y,1/2-z
4 1/2-x,-y,1/2+z
_cell_length_a                   9.456(3)
_cell_length_b                   11.453(3)
_cell_length_c                   14.991(4)
_cell_angle_alpha                90
_cell_angle_beta                 90
_cell_angle_gamma                90
_cell_volume                     1623.52
_chemical_melting_point          83-84deg.C
_cell_formula_units_Z            4
loop_
_atom_site_label
_atom_site_type_symbol
_atom_site_fract_x
_atom_site_fract_y
_atom_site_fract_z
Cl1 Cl 0.7189(3) 0.4894(2) 1.0043(1)
O1 O 0.9062(4) 0.7183(5) 0.9619(3)
N1 N 0.6864(5) 0.7915(4) 0.9644(3)
C1 C 0.7209(7) 0.6404(5) 1.1419(4)
C2 C 0.6842(8) 0.5461(6) 1.2065(4)
C3 C 0.5759(8) 0.5846(6) 1.2750(4)
C4 C 0.6123(7) 0.7002(6) 1.3190(4)
C5 C 0.6324(8) 0.7910(5) 1.2475(4)
C6 C 0.7490(8) 0.7573(6) 1.1825(4)
C7 C 0.5043(10) 0.7352(7) 1.3871(5)
C8 C 0.7382(7) 0.6260(5) 1.0555(4)
C9 C 0.7848(6) 0.7165(5) 0.9899(4)
C10 C 0.7147(7) 0.8901(5) 0.9067(4)
C11 C 0.6634(10) 0.9996(6) 0.9531(5)
C12 C 0.6558(6) 0.8723(5) 0.8130(4)
C13 C 0.5998(8) 0.9618(6) 0.7647(5)
C14 C 0.5523(8) 0.9457(7) 0.6793(4)
C15 C 0.5616(8) 0.8381(7) 0.6413(4)
C16 C 0.6175(8) 0.7485(7) 0.6876(4)
C17 C 0.6643(8) 0.7648(6) 0.7737(4)
H1 H 0.6462 0.4817 1.1742
H2 H 0.5718 0.5261 1.3195
H3 H 0.4884 0.5921 1.2460
H4 H 0.6963 0.6915 1.3531
H5 H 0.5470 0.7994 1.2151
H6 H 0.6565 0.8630 1.2750
H7 H 0.8386 0.7549 1.2131
H8 H 0.7561 0.8144 1.1361
H9 H 0.4922 0.6754 1.4311
H10 H 0.5301 0.8057 1.4157
H11 H 0.4133 0.7468 1.3586
H12 H 0.5920 0.7800 0.9851
H13 H 0.8145 0.9006 0.8973
H14 H 0.7055 1.0048 1.0103
H15 H 0.6877 1.0660 0.9186
H16 H 0.5634 0.9952 0.9591
H17 H 0.5921 1.0376 0.7906
H18 H 0.5165 1.0104 0.6464
H19 H 0.7679 0.5221 1.2363
H20 H 0.6204 0.6708 0.6615
H21 H 0.7044 0.7014 0.8057
H22 H 0.5288 0.8286 0.5812
loop_
_geom_bond_atom_site_label_1
_geom_bond_atom_site_label_2
_geom_bond_site_symmetry_1
_geom_bond_site_symmetry_2
Cl1 C8 1_555 1_555
O1 C9 1_555 1_555
N1 C9 1_555 1_555
C1 C2 1_555 1_555
C2 C3 1_555 1_555
C3 C4 1_555 1_555
C4 C5 1_555 1_555
C5 C6 1_555 1_555
C6 C1 1_555 1_555
C7 C4 1_555 1_555
C8 C1 1_555 1_555
C9 C8 1_555 1_555
C10 N1 1_555 1_555
C11 C10 1_555 1_555
C12 C10 1_555 1_555
C13 C12 1_555 1_555
C14 C13 1_555 1_555
C15 C14 1_555 1_555
C16 C15 1_555 1_555
C17 C12 1_555 1_555
H1 C2 1_555 1_555
H2 C3 1_555 1_555
H3 C3 1_555 1_555
H4 C4 1_555 1_555
H5 C5 1_555 1_555
H6 C5 1_555 1_555
H7 C6 1_555 1_555
H8 C6 1_555 1_555
H9 C7 1_555 1_555
H10 C7 1_555 1_555
H11 C7 1_555 1_555
H12 N1 1_555 1_555
H13 C10 1_555 1_555
H14 C11 1_555 1_555
H15 C11 1_555 1_555
H16 C11 1_555 1_555
H17 C13 1_555 1_555
H18 C14 1_555 1_555
H19 C2 1_555 1_555
H20 C16 1_555 1_555
H21 C17 1_555 1_555
H22 C15 1_555 1_555
C16 C17 1_555 1_555

#END
