
#######################################################################
#
#                 Cambridge Crystallographic Data Centre
#                                CCDC 
#
#######################################################################
#
# If this CIF has been generated from an entry in the Cambridge 
# Structural Database, then it will include bibliographic, chemical, 
# crystal, experimental, refinement or atomic coordinate data resulting 
# from the CCDC's data processing and validation procedures.
#
#######################################################################

data_EACJIB
_chemical_formula_moiety         'C32 H28 N2 O7,C2 H6 O1'
_chemical_name_systematic        
'5,5-bis(2-Hydroperoxy-2,2-diphenylethyl)barbituric acid ethanol solvate'
_symmetry_cell_setting           triclinic
_symmetry_space_group_name_H-M   'P -1'
_symmetry_Int_Tables_number      2
_space_group_name_Hall           '-P 1'
loop_
_symmetry_equiv_pos_site_id
_symmetry_equiv_pos_as_xyz
1 x,y,z
2 -x,-y,-z
_cell_length_a                   6.721(1)
_cell_length_b                   13.402(4)
_cell_length_c                   17.561(5)
_cell_angle_alpha                77.77(2)
_cell_angle_beta                 83.76(2)
_cell_angle_gamma                78.99(2)
_cell_volume                     1513.61
_exptl_crystal_colour            colorless
_chemical_melting_point          234-235deg.C
_cell_formula_units_Z            2
loop_
_atom_site_label
_atom_site_type_symbol
_atom_site_fract_x
_atom_site_fract_y
_atom_site_fract_z
O1 O 0.7958(4) 0.3634(2) 0.1982(2)
O2 O 0.8605(5) 0.0268(3) 0.3149(2)
O3 O 0.2401(4) 0.1816(2) 0.2380(2)
O4 O 0.5852(4) 0.3610(2) 0.3534(2)
O5 O 0.7830(5) 0.2895(3) 0.0588(2)
N1 N 0.8220(6) 0.1941(3) 0.2518(2)
N2 N 0.5467(6) 0.1070(3) 0.2785(3)
C1 C 0.4899(6) 0.2912(3) 0.2107(3)
C2 C 0.7119(7) 0.2868(4) 0.2198(3)
C3 C 0.7498(7) 0.1036(4) 0.2842(3)
C4 C 0.4145(7) 0.1893(3) 0.2432(3)
C5 C 0.3574(6) 0.3781(3) 0.2506(3)
C6 C 0.3739(6) 0.3731(3) 0.3381(3)
C7 C 0.2547(7) 0.4705(3) 0.3646(3)
C8 C 0.1086(7) 0.5390(4) 0.3220(3)
C9 C 0.0015(8) 0.6245(4) 0.3500(4)
C10 C 0.0381(9) 0.6419(4) 0.4219(4)
C11 C 0.1822(9) 0.5746(4) 0.4650(3)
C12 C 0.2906(8) 0.4885(4) 0.4368(3)
C13 C 0.3039(7) 0.2785(3) 0.3912(3)
C14 C 0.1052(7) 0.2621(3) 0.3882(3)
C15 C 0.0365(8) 0.1780(4) 0.4370(3)
C16 C 0.1597(9) 0.1107(4) 0.4900(3)
C17 C 0.3532(9) 0.1277(4) 0.4945(3)
C18 C 0.4246(7) 0.2110(4) 0.4454(3)
O6 O 0.6565(5) 0.4580(3) 0.3216(2)
C19 C 0.4426(7) 0.3245(3) 0.1229(3)
C20 C 0.5773(7) 0.2698(4) 0.0615(3)
C21 C 0.6039(8) 0.1511(4) 0.0813(3)
C22 C 0.7922(9) 0.0894(4) 0.0915(3)
C23 C 0.8078(11) -0.0181(5) 0.1072(4)
C24 C 0.6410(13) -0.0632(5) 0.1121(4)
C25 C 0.4559(11) -0.0023(5) 0.1013(3)
C26 C 0.4352(8) 0.1055(4) 0.0845(3)
C27 C 0.4962(9) 0.3088(4) -0.0208(3)
C28 C 0.2941(10) 0.3457(4) -0.0323(3)
C29 C 0.2268(12) 0.3724(4) -0.1076(4)
C30 C 0.3627(17) 0.3605(5) -0.1696(5)
C31 C 0.5639(14) 0.3262(6) -0.1603(4)
C32 C 0.6335(11) 0.2983(5) -0.0852(4)
O7 O 0.7811(6) 0.4011(3) 0.0354(2)
H1 H 0.9502(7) 0.1950(39) 0.2569(30)
H2 H 0.5046(82) 0.0584(40) 0.2955(32)
H3 H 0.2121 0.3773 0.2435
H4 H 0.3945 0.4451 0.2220
H5 H 0.0794 0.5269 0.2704
H6 H -0.1032 0.6741 0.3180
H7 H -0.0406 0.7033 0.4420
H8 H 0.2101 0.5869 0.5168
H9 H 0.3953 0.4391 0.4688
H10 H 0.0128 0.3113 0.3508
H11 H -0.1045 0.1662 0.4336
H12 H 0.1092 0.0500 0.5248
H13 H 0.4429 0.0798 0.5335
H14 H 0.5656 0.2223 0.4494
H15 H 0.7316(75) 0.4398(39) 0.2738(30)
H16 H 0.4500 0.3999 0.1070
H17 H 0.3004 0.3141 0.1199
H18 H 0.9164 0.1215 0.0876
H19 H 0.9441 -0.0628 0.1151
H20 H 0.6542 -0.1404 0.1235
H21 H 0.3327 -0.0353 0.1054
H22 H 0.2988 0.1494 0.0750
H23 H 0.1947 0.3534 0.0136
H24 H 0.0800 0.3999 -0.1158
H25 H 0.3134 0.3775 -0.2233
H26 H 0.6619 0.3210 -0.2070
H27 H 0.7807 0.2710 -0.0778
H28 H 0.8264(73) 0.4083(38) 0.0893(30)
O8 O 0.2992(9) -0.0433(4) 0.3486(3)
C33 C 0.4995 -0.2030 0.3353
C34 C 0.3036 -0.1454 0.3468
H29 H 0.1686 0.0065 0.3292
O9? O 0.3037(15) -0.0470(6) 0.3183(5)
C35? C 0.4402 -0.2243 0.3409
C36? C 0.2810 -0.1446 0.3125
loop_
_geom_bond_atom_site_label_1
_geom_bond_atom_site_label_2
_geom_bond_site_symmetry_1
_geom_bond_site_symmetry_2
O1 C2 1_555 1_555
O2 C3 1_555 1_555
O3 C4 1_555 1_555
O4 C6 1_555 1_555
O5 C20 1_555 1_555
N1 C2 1_555 1_555
N2 C3 1_555 1_555
C1 C2 1_555 1_555
C3 N1 1_555 1_555
C4 N2 1_555 1_555
C5 C1 1_555 1_555
C6 C5 1_555 1_555
C7 C6 1_555 1_555
C8 C7 1_555 1_555
C9 C8 1_555 1_555
C10 C9 1_555 1_555
C11 C10 1_555 1_555
C12 C7 1_555 1_555
C13 C6 1_555 1_555
C14 C13 1_555 1_555
C15 C14 1_555 1_555
C16 C15 1_555 1_555
C17 C16 1_555 1_555
C18 C13 1_555 1_555
O6 O4 1_555 1_555
C19 C1 1_555 1_555
C20 C19 1_555 1_555
C21 C20 1_555 1_555
C22 C21 1_555 1_555
C23 C22 1_555 1_555
C24 C23 1_555 1_555
C25 C24 1_555 1_555
C26 C21 1_555 1_555
C27 C20 1_555 1_555
C28 C27 1_555 1_555
C29 C28 1_555 1_555
C30 C29 1_555 1_555
C31 C30 1_555 1_555
C32 C27 1_555 1_555
O7 O5 1_555 1_555
O8 C34 1_555 1_555
C33 C34 1_555 1_555
H1 N1 1_555 1_555
H2 N2 1_555 1_555
H3 C5 1_555 1_555
H4 C5 1_555 1_555
H5 C8 1_555 1_555
H6 C9 1_555 1_555
H7 C10 1_555 1_555
H8 C11 1_555 1_555
H9 C12 1_555 1_555
H10 C14 1_555 1_555
H11 C15 1_555 1_555
H12 C16 1_555 1_555
H13 C17 1_555 1_555
H14 C18 1_555 1_555
H15 O6 1_555 1_555
H16 C19 1_555 1_555
H17 C19 1_555 1_555
H18 C22 1_555 1_555
H19 C23 1_555 1_555
H20 C24 1_555 1_555
H21 C25 1_555 1_555
H22 C26 1_555 1_555
H23 C28 1_555 1_555
H24 C29 1_555 1_555
H25 C30 1_555 1_555
H26 C31 1_555 1_555
H27 C32 1_555 1_555
H28 O7 1_555 1_555
H29 O8 1_555 1_555
C1 C4 1_555 1_555
C11 C12 1_555 1_555
C17 C18 1_555 1_555
C25 C26 1_555 1_555
C31 C32 1_555 1_555

#END
