
#######################################################################
#
#                 Cambridge Crystallographic Data Centre
#                                CCDC 
#
#######################################################################
#
# If this CIF has been generated from an entry in the Cambridge 
# Structural Database, then it will include bibliographic, chemical, 
# crystal, experimental, refinement or atomic coordinate data resulting 
# from the CCDC's data processing and validation procedures.
#
#######################################################################

data_EACKAU
_chemical_formula_moiety         'C22 H24 O2 S4'
_chemical_name_systematic        
3,7,16,20-Tetrathiatricyclo(20.4.0.0^9,14^)hexacosa-1(22),9,11,13,23,25-hexaene-5,18-dione
_symmetry_cell_setting           monoclinic
_symmetry_space_group_name_H-M   'P 21/c'
_symmetry_Int_Tables_number      14
_space_group_name_Hall           '-P 2ybc'
loop_
_symmetry_equiv_pos_site_id
_symmetry_equiv_pos_as_xyz
1 x,y,z
2 -x,1/2+y,1/2-z
3 -x,-y,-z
4 x,1/2-y,1/2+z
_cell_length_a                   14.978(3)
_cell_length_b                   4.952(9)
_cell_length_c                   15.338(3)
_cell_angle_alpha                90
_cell_angle_beta                 107.93(1)
_cell_angle_gamma                90
_cell_volume                     1082.38
_chemical_melting_point          169deg.C
_cell_formula_units_Z            2
loop_
_atom_site_label
_atom_site_type_symbol
_atom_site_fract_x
_atom_site_fract_y
_atom_site_fract_z
S1 S 0.62315(7) 0.0603(2) 0.11445(7)
S2 S 0.27398(7) -0.0335(2) 0.15803(7)
O1 O 0.4530(2) 0.2119(6) 0.1444(3)
C1 C 0.9021(3) 0.169(1) 0.0286(3)
C2 C 0.9462(3) 0.326(1) 0.1026(4)
C3 C 0.9185(3) 0.319(1) 0.1793(4)
C4 C 0.8460(4) 0.157(1) 0.1809(3)
C5 C 0.7983(3) -0.0025(7) 0.1065(3)
C6 C 0.7161(3) -0.170(1) 0.1136(4)
C7 C 0.5352(3) -0.1766(9) 0.1237(3)
C8 C 0.4516(3) -0.0275(8) 0.1333(3)
C9 C 0.3665(3) -0.1975(8) 0.1279(3)
C10 C 0.2178(4) 0.162(1) 0.0559(3)
C11 C 0.8273(3) 0.0040(7) 0.0283(3)
H1 H 0.920(3) 0.183(9) -0.021(3)
H2 H 0.992(3) 0.43(1) 0.099(3)
H3 H 0.940(3) 0.423(9) 0.227(3)
H4 H 0.824(3) 0.144(8) 0.224(2)
H5 H 0.691(3) -0.300(9) 0.058(3)
H6 H 0.732(3) -0.260(9) 0.167(3)
H7 H 0.515(3) -0.289(7) 0.069(2)
H8 H 0.557(3) -0.273(8) 0.172(3)
H9 H 0.341(3) -0.279(8) 0.062(3)
H10 H 0.386(3) -0.339(8) 0.163(3)
H11 H 0.267(3) 0.281(9) 0.046(3)
H12 H 0.177(3) 0.268(9) 0.073(3)
C11B C 0.1727(3) -0.0040(7) -0.0283(3)
C10B C 0.7822(4) -0.162(1) -0.0559(3)
C1B C 0.0979(3) -0.169(1) -0.0286(3)
C5B C 0.2017(3) 0.0025(7) -0.1065(3)
S2B S 0.72602(7) 0.0335(2) -0.15803(7)
H11B H 0.733(3) -0.281(9) -0.046(3)
H12B H 0.823(3) -0.268(9) -0.073(3)
C2B C 0.0538(3) -0.326(1) -0.1026(4)
H1B H 0.080(3) -0.183(9) 0.021(3)
C4B C 0.1540(4) -0.157(1) -0.1809(3)
C6B C 0.2839(3) 0.170(1) -0.1136(4)
C9B C 0.6335(3) 0.1975(8) -0.1279(3)
C3B C 0.0815(3) -0.319(1) -0.1793(4)
H2B H 0.008(3) -0.43(1) -0.099(3)
H4B H 0.176(3) -0.144(8) -0.224(2)
S1B S 0.37685(7) -0.0603(2) -0.11445(7)
H5B H 0.309(3) 0.300(9) -0.058(3)
H6B H 0.268(3) 0.260(9) -0.167(3)
C8B C 0.5484(3) 0.0275(8) -0.1333(3)
H9B H 0.659(3) 0.279(8) -0.062(3)
H10B H 0.614(3) 0.339(8) -0.163(3)
H3B H 0.060(3) -0.423(9) -0.227(3)
C7B C 0.4648(3) 0.1766(9) -0.1237(3)
O1B O 0.5470(2) -0.2119(6) -0.1444(3)
H7B H 0.485(3) 0.289(7) -0.069(2)
H8B H 0.443(3) 0.273(8) -0.172(3)
loop_
_geom_bond_atom_site_label_1
_geom_bond_atom_site_label_2
_geom_bond_site_symmetry_1
_geom_bond_site_symmetry_2
S1 C6 1_555 1_555
S2 C9 1_555 1_555
O1 C8 1_555 1_555
C1 C2 1_555 1_555
C2 C3 1_555 1_555
C3 C4 1_555 1_555
C4 C5 1_555 1_555
C5 C6 1_555 1_555
C6 H5 1_555 1_555
C7 S1 1_555 1_555
C8 C7 1_555 1_555
C9 C8 1_555 1_555
C10 S2 1_555 1_555
C11 C1 1_555 1_555
H1 C1 1_555 1_555
H2 C2 1_555 1_555
H3 C3 1_555 1_555
H4 C4 1_555 1_555
H6 C6 1_555 1_555
H7 C7 1_555 1_555
H8 C7 1_555 1_555
H9 C9 1_555 1_555
H10 C9 1_555 1_555
H11 C10 1_555 1_555
H12 C10 1_555 1_555
C11B C10 1_555 1_555
C10B C11 1_555 1_555
C1B C11B 1_555 1_555
C5B C11B 1_555 1_555
S2B C10B 1_555 1_555
H11B C10B 1_555 1_555
H12B C10B 1_555 1_555
C2B C1B 1_555 1_555
H1B C1B 1_555 1_555
C4B C5B 1_555 1_555
C6B C5B 1_555 1_555
C9B S2B 1_555 1_555
C3B C2B 1_555 1_555
H2B C2B 1_555 1_555
H4B C4B 1_555 1_555
S1B C6B 1_555 1_555
H5B C6B 1_555 1_555
H6B C6B 1_555 1_555
C8B C9B 1_555 1_555
H9B C9B 1_555 1_555
H10B C9B 1_555 1_555
H3B C3B 1_555 1_555
C7B S1B 1_555 1_555
O1B C8B 1_555 1_555
H7B C7B 1_555 1_555
H8B C7B 1_555 1_555
C5 C11 1_555 1_555
C4B C3B 1_555 1_555
C8B C7B 1_555 1_555

#END
