
#######################################################################
#
#                 Cambridge Crystallographic Data Centre
#                                CCDC 
#
#######################################################################
#
# If this CIF has been generated from an entry in the Cambridge 
# Structural Database, then it will include bibliographic, chemical, 
# crystal, experimental, refinement or atomic coordinate data resulting 
# from the CCDC's data processing and validation procedures.
#
#######################################################################

data_EAFGUN
_chemical_formula_moiety         'C17 H25 N1 O2'
_chemical_name_systematic        
1-(2,5-Dimethylpyrrolidinylcarbonyl)-5-methyl-6-methylenebicyclo(3.2.1)octan-2-one
_symmetry_cell_setting           orthorhombic
_symmetry_space_group_name_H-M   'P 21 21 21'
_symmetry_Int_Tables_number      19
_space_group_name_Hall           'P 2ac 2ab'
loop_
_symmetry_equiv_pos_site_id
_symmetry_equiv_pos_as_xyz
1 x,y,z
2 1/2+x,1/2-y,-z
3 -x,1/2+y,1/2-z
4 1/2-x,-y,1/2+z
_cell_length_a                   6.512(3)
_cell_length_b                   10.942(5)
_cell_length_c                   22.344(11)
_cell_angle_alpha                90
_cell_angle_beta                 90
_cell_angle_gamma                90
_cell_volume                     1592.11
_exptl_crystal_colour            colorless
_chemical_melting_point          88-92deg.C
_cell_formula_units_Z            4
loop_
_atom_site_label
_atom_site_type_symbol
_atom_site_fract_x
_atom_site_fract_y
_atom_site_fract_z
O1 O -0.2321(4) 0.7661(3) 0.1488(1)
O2 O 0.1611(6) 0.8039(3) 0.0428(1)
N1 N 0.0819(5) 0.8310(3) 0.1737(1)
C1 C 0.3073(7) 0.8232(4) 0.1815(2)
C2 C 0.3631(8) 0.9588(5) 0.1867(2)
C3 C 0.1835(9) 1.0120(5) 0.2231(2)
C4 C -0.0010(8) 0.9505(5) 0.1944(2)
C5 C 0.3663(9) 0.7540(6) 0.2387(2)
C6 C -0.0878(9) 1.0238(5) 0.1431(2)
C7 C -0.0454(7) 0.7521(4) 0.1464(2)
C8 C 0.0383(7) 0.6461(4) 0.1083(2)
C9 C 0.1385(8) 0.6974(4) 0.0515(2)
C10 C 0.206(1) 0.6009(4) 0.0067(2)
C11 C 0.0654(9) 0.4901(4) 0.0019(2)
C12 C -0.0271(8) 0.4505(4) 0.0632(2)
C13 C -0.1388(8) 0.5620(4) 0.0883(2)
C14 C 0.1489(9) 0.4332(4) 0.1052(2)
C15 C 0.1857(8) 0.5524(4) 0.1382(2)
C16 C -0.167(1) 0.3411(5) 0.0548(3)
C17 C 0.250(1) 0.3312(5) 0.1154(3)
H1 H 0.375 0.780 0.150
H2 H 0.372 0.996 0.148
H3 H 0.490 0.969 0.207
H4 H 0.177 1.098 0.219
H5 H 0.195 0.991 0.264
H6 H -0.113 0.942 0.221
H7 H 0.330 0.670 0.235
H8 H 0.510 0.761 0.245
H9 H 0.295 0.788 0.272
H10 H -0.202 0.982 0.127
H11 H -0.130 1.102 0.157
H12 H 0.015 1.034 0.113
H13 H 0.339 0.573 0.018
H14 H 0.214 0.638 -0.032
H15 H 0.142 0.424 -0.014
H16 H -0.044 0.510 -0.025
H17 H -0.220 0.600 0.058
H18 H -0.223 0.540 0.121
H19 H 0.154 0.544 0.179
H20 H 0.324 0.578 0.134
H21 H -0.090 0.275 0.039
H22 H -0.224 0.319 0.092
H23 H -0.274 0.362 0.028
H24 H 0.360 0.330 0.143
H25 H 0.212 0.258 0.095
loop_
_geom_bond_atom_site_label_1
_geom_bond_atom_site_label_2
_geom_bond_site_symmetry_1
_geom_bond_site_symmetry_2
O1 C7 1_555 1_555
O2 C9 1_555 1_555
N1 C1 1_555 1_555
C1 C2 1_555 1_555
C2 C3 1_555 1_555
C3 C4 1_555 1_555
C4 N1 1_555 1_555
C5 C1 1_555 1_555
C6 C4 1_555 1_555
C7 N1 1_555 1_555
C8 C7 1_555 1_555
C9 C8 1_555 1_555
C10 C9 1_555 1_555
C11 C10 1_555 1_555
C12 C11 1_555 1_555
C13 C8 1_555 1_555
C14 C12 1_555 1_555
C15 C8 1_555 1_555
C16 C12 1_555 1_555
C17 C14 1_555 1_555
H1 C1 1_555 1_555
H2 C2 1_555 1_555
H3 C2 1_555 1_555
H4 C3 1_555 1_555
H5 C3 1_555 1_555
H6 C4 1_555 1_555
H7 C5 1_555 1_555
H8 C5 1_555 1_555
H9 C5 1_555 1_555
H10 C6 1_555 1_555
H11 C6 1_555 1_555
H12 C6 1_555 1_555
H13 C10 1_555 1_555
H14 C10 1_555 1_555
H15 C11 1_555 1_555
H16 C11 1_555 1_555
H17 C13 1_555 1_555
H18 C13 1_555 1_555
H19 C15 1_555 1_555
H20 C15 1_555 1_555
H21 C16 1_555 1_555
H22 C16 1_555 1_555
H23 C16 1_555 1_555
H24 C17 1_555 1_555
H25 C17 1_555 1_555
C12 C13 1_555 1_555
C14 C15 1_555 1_555

#END
