
#######################################################################
#
#                 Cambridge Crystallographic Data Centre
#                                CCDC 
#
#######################################################################
#
# If this CIF has been generated from an entry in the Cambridge 
# Structural Database, then it will include bibliographic, chemical, 
# crystal, experimental, refinement or atomic coordinate data resulting 
# from the CCDC's data processing and validation procedures.
#
#######################################################################

data_EBABOB
_chemical_formula_moiety         'C21 H37 N1 Si2'
_chemical_name_systematic        
N-(2,6-di-isopropylphenyl)-3,3-bis(trimethylsilyl)prop-2-en-1-imine
_symmetry_cell_setting           monoclinic
_symmetry_space_group_name_H-M   'P 21/c'
_symmetry_Int_Tables_number      14
_space_group_name_Hall           '-P 2ybc'
loop_
_symmetry_equiv_pos_site_id
_symmetry_equiv_pos_as_xyz
1 x,y,z
2 -x,1/2+y,1/2-z
3 -x,-y,-z
4 x,1/2-y,1/2+z
_cell_length_a                   12.2230(12)
_cell_length_b                   12.3881(14)
_cell_length_c                   15.7504(16)
_cell_angle_alpha                90
_cell_angle_beta                 102.165(3)
_cell_angle_gamma                90
_cell_volume                     2331.37
_exptl_crystal_colour            yellow
_exptl_crystal_description       block
_cell_formula_units_Z            4
loop_
_atom_site_label
_atom_site_type_symbol
_atom_site_fract_x
_atom_site_fract_y
_atom_site_fract_z
C1 C 0.73877(12) 0.60247(11) 0.39232(9)
H1 H 0.8052 0.5744 0.4279
C2 C 0.68622(12) 0.54638(11) 0.31231(9)
H2 H 0.6223 0.5798 0.2775
C3 C 0.71938(12) 0.45185(11) 0.28292(9)
C4 C 0.74535(12) 0.73927(11) 0.49471(9)
C5 C 0.72476(12) 0.69851(12) 0.57311(10)
C6 C 0.64742(14) 0.60169(13) 0.57328(11)
H3 H 0.6608 0.5504 0.5275
C7 C 0.52539(15) 0.63926(16) 0.54775(13)
H4 H 0.5118 0.6953 0.5882
H5 H 0.4755 0.5779 0.5501
H6 H 0.5108 0.6686 0.4886
C8 C 0.66925(19) 0.54064(17) 0.65939(13)
H7 H 0.7478 0.518 0.6743
H8 H 0.6208 0.4769 0.654
H9 H 0.6531 0.5879 0.7052
C9 C 0.76950(13) 0.75473(13) 0.64915(10)
H10 H 0.7557 0.7295 0.7029
C10 C 0.83389(13) 0.84688(13) 0.64790(10)
H11 H 0.8657 0.8826 0.7007
C11 C 0.85170(13) 0.88660(13) 0.56988(11)
H12 H 0.8955 0.9499 0.5695
C12 C 0.80627(12) 0.83501(12) 0.49168(10)
C13 C 0.82214(13) 0.87826(12) 0.40490(10)
H13 H 0.7561 0.8544 0.36
C14 C 0.82570(16) 1.00187(13) 0.40140(12)
H14 H 0.7598 1.0316 0.4193
H15 H 0.8259 1.0251 0.342
H16 H 0.8937 1.028 0.4407
C15 C 0.92683(14) 0.83045(15) 0.37960(11)
H17 H 0.9937 0.8537 0.4216
H18 H 0.9313 0.8556 0.3215
H19 H 0.9222 0.7515 0.3796
C16 C 0.50730(16) 0.48949(16) 0.13929(12)
H20 H 0.5398 0.5556 0.121
H21 H 0.4652 0.507 0.184
H22 H 0.4569 0.4568 0.0892
C17 C 0.55918(15) 0.26735(14) 0.22172(12)
H23 H 0.5226 0.2855 0.2695
H24 H 0.6183 0.2141 0.2417
H25 H 0.5039 0.2371 0.1734
C18 C 0.69423(16) 0.35813(15) 0.09472(12)
H26 H 0.6384 0.3422 0.0418
H27 H 0.7421 0.2948 0.1111
H28 H 0.7402 0.4195 0.0841
C19 C 0.97783(14) 0.45893(14) 0.36069(13)
H29 H 1.0424 0.4137 0.3856
H30 H 0.9718 0.5181 0.4008
H31 H 0.9875 0.4887 0.3051
C20 C 0.81988(17) 0.32653(16) 0.44856(12)
H32 H 0.7519 0.2823 0.4381
H33 H 0.81 0.3886 0.4848
H34 H 0.8835 0.2832 0.4784
C21 C 0.87474(15) 0.25489(13) 0.27887(13)
H35 H 0.937 0.2133 0.3129
H36 H 0.8942 0.2788 0.2246
H37 H 0.8076 0.2095 0.2656
N1 N 0.69536(10) 0.68927(10) 0.41435(8)
Si1 Si 0.62185(4) 0.39219(3) 0.18456(3)
Si2 Si 0.84691(4) 0.37509(3) 0.34273(3)
loop_
_geom_bond_atom_site_label_1
_geom_bond_atom_site_label_2
_geom_bond_site_symmetry_1
_geom_bond_site_symmetry_2
C1 H1 1_555 1_555
C2 C1 1_555 1_555
H2 C2 1_555 1_555
C3 C2 1_555 1_555
C4 C5 1_555 1_555
C5 C6 1_555 1_555
C6 H3 1_555 1_555
C7 C6 1_555 1_555
H4 C7 1_555 1_555
H5 C7 1_555 1_555
H6 C7 1_555 1_555
C8 C6 1_555 1_555
H7 C8 1_555 1_555
H8 C8 1_555 1_555
H9 C8 1_555 1_555
C9 C5 1_555 1_555
H10 C9 1_555 1_555
C10 C9 1_555 1_555
H11 C10 1_555 1_555
C11 C10 1_555 1_555
H12 C11 1_555 1_555
C12 C4 1_555 1_555
C13 C12 1_555 1_555
H13 C13 1_555 1_555
C14 C13 1_555 1_555
H14 C14 1_555 1_555
H15 C14 1_555 1_555
H16 C14 1_555 1_555
C15 C13 1_555 1_555
H17 C15 1_555 1_555
H18 C15 1_555 1_555
H19 C15 1_555 1_555
C16 H20 1_555 1_555
H21 C16 1_555 1_555
H22 C16 1_555 1_555
C17 H23 1_555 1_555
H24 C17 1_555 1_555
H25 C17 1_555 1_555
C18 H26 1_555 1_555
H27 C18 1_555 1_555
H28 C18 1_555 1_555
C19 H29 1_555 1_555
H30 C19 1_555 1_555
H31 C19 1_555 1_555
C20 H32 1_555 1_555
H33 C20 1_555 1_555
H34 C20 1_555 1_555
C21 H35 1_555 1_555
H36 C21 1_555 1_555
H37 C21 1_555 1_555
N1 C1 1_555 1_555
Si1 C3 1_555 1_555
Si2 C3 1_555 1_555
C4 N1 1_555 1_555
C11 C12 1_555 1_555
C16 Si1 1_555 1_555
C17 Si1 1_555 1_555
C18 Si1 1_555 1_555
C19 Si2 1_555 1_555
C20 Si2 1_555 1_555
C21 Si2 1_555 1_555

#END
