
#######################################################################
#
#                 Cambridge Crystallographic Data Centre
#                                CCDC 
#
#######################################################################
#
# If this CIF has been generated from an entry in the Cambridge 
# Structural Database, then it will include bibliographic, chemical, 
# crystal, experimental, refinement or atomic coordinate data resulting 
# from the CCDC's data processing and validation procedures.
#
#######################################################################

data_EBACIU
_chemical_formula_moiety         'C25 H39 N3 O6'
_chemical_name_systematic        
'(6-(t-Butoxycarbonylamino)hexanoyl)-(\a-aminoisobutyryl)-phenylalanine methyl ester'
_symmetry_cell_setting           monoclinic
_symmetry_space_group_name_H-M   'P 21'
_symmetry_Int_Tables_number      4
_space_group_name_Hall           'P 2yb'
loop_
_symmetry_equiv_pos_site_id
_symmetry_equiv_pos_as_xyz
1 x,y,z
2 -x,1/2+y,-z
_cell_length_a                   10.386
_cell_length_b                   9.538
_cell_length_c                   27.711
_cell_angle_alpha                90.00
_cell_angle_beta                 93.99
_cell_angle_gamma                90.00
_cell_volume                     2738.44
_exptl_crystal_colour            colorless
_chemical_melting_point          '92-93 deg.C'
_cell_formula_units_Z            4
_exptl_crystal_recrystallization_method methanol/water
loop_
_atom_site_label
_atom_site_type_symbol
_atom_site_fract_x
_atom_site_fract_y
_atom_site_fract_z
N1 N -0.0949(6) 1.0737(9) 0.2866(3)
H1 H -0.1767 1.0650 0.2887
C1 C -0.0446(8) 1.0405(11) 0.2442(3)
O1 O 0.0700(5) 1.0658(8) 0.2380(2)
C2 C -0.1377(8) 0.9811(12) 0.2054(3)
C3 C -0.2231(8) 1.0994(13) 0.1873(3)
H2 H -0.2682 1.1365 0.2136
H3 H -0.2844 1.0655 0.1625
H4 H -0.1714 1.1718 0.1743
C4 C -0.0668(8) 0.9184(13) 0.1645(3)
H5 H -0.0079 0.9863 0.1531
H6 H -0.1279 0.8920 0.1385
H7 H -0.0196 0.8370 0.1760
N2 N -0.2181(6) 0.8734(10) 0.2264(3)
H8 H -0.3008 0.8797 0.2229
C5 C -0.1628(9) 0.7651(13) 0.2510(3)
O2 O -0.0471(5) 0.7515(8) 0.2598(2)
C6 C -0.2548(8) 0.6539(13) 0.2660(3)
H9 H -0.3427 0.6823 0.2565
H10 H -0.2469 0.6441 0.3009
C7 C -0.2267(10) 0.5097(14) 0.2421(4)
H11 H -0.1381 0.4829 0.2509
H12 H -0.2826 0.4389 0.2546
C8 C -0.2476(8) 0.5142(11) 0.1878(4)
H13 H -0.2166 0.4265 0.1752
H14 H -0.1938 0.5883 0.1761
C9 C -0.3836(8) 0.5371(12) 0.1660(4)
H15 H -0.4403 0.4708 0.1805
H16 H -0.4110 0.6306 0.1745
C10 C -0.4001(9) 0.5215(15) 0.1121(4)
H17 H -0.4841 0.5568 0.1004
H18 H -0.3346 0.5759 0.0972
N3 N -0.3887(7) 0.3733(11) 0.0987(3)
H19 H -0.3131 0.3388 0.0959
C11 C -0.4936(11) 0.2880(19) 0.0907(3)
O3 O -0.6032(6) 0.3298(8) 0.0903(2)
O4 O -0.4518(6) 0.1613(10) 0.0817(3)
C12 C -0.5448(9) 0.0531(14) 0.0644(4)
C13 C -0.6398(12) 0.0262(15) 0.1021(4)
H20 H -0.5940 -0.0009 0.1319
H21 H -0.6976 -0.0477 0.0913
H22 H -0.6883 0.1100 0.1071
C14 C -0.6139(12) 0.0992(18) 0.0183(4)
H23 H -0.6726 0.1736 0.0247
H24 H -0.6613 0.0217 0.0038
H25 H -0.5525 0.1321 -0.0035
C15 C -0.4596(13) -0.0734(19) 0.0578(8)
H26 H -0.3814 -0.0441 0.0443
H27 H -0.5043 -0.1391 0.0364
H28 H -0.4392 -0.1170 0.0886
C16 C -0.0162(8) 1.1237(13) 0.3288(4)
H29 H 0.0669 1.1586 0.3191
C17 C -0.0844(8) 1.2360(13) 0.3559(4)
H30 H -0.1144 1.3088 0.3334
H31 H -0.1593 1.1954 0.3696
O5 O 0.1118(7) 0.9300(10) 0.3511(3)
C18 C 0.0035(10) 0.9917(15) 0.3600(5)
C19 C 0.1298(11) 0.7891(17) 0.3692(5)
H32 H 0.1272 0.7893 0.4038
H33 H 0.2120 0.7543 0.3607
H34 H 0.0624 0.7300 0.3553
O6 O -0.0689(7) 0.9465(10) 0.3878(3)
C20 C 0.0013(11) 1.3003(17) 0.3956(5)
C21 C 0.0978(14) 1.3939(16) 0.3843(5)
H35 H 0.1102 1.4171 0.3523
C22 C 0.1781(15) 1.4540(17) 0.4237(9)
H36 H 0.2440 1.5177 0.4193
C23 C 0.147(2) 1.407(3) 0.4694(8)
H37 H 0.2047 1.4357 0.4946
C24 C 0.0585(18) 1.335(4) 0.4822(9)
H38 H 0.0403 1.3237 0.5143
C25 C -0.0152(12) 1.2704(18) 0.4420(7)
H39 H -0.0774 1.2044 0.4487
N4 N 0.5047(6) 0.9320(11) 0.3330(3)
H40 H 0.4260 0.9036 0.3324
C26 C 0.6003(9) 0.8583(17) 0.3637(4)
H41 H 0.6818 0.8609 0.3479
O7 O 0.6498(7) 0.6266(13) 0.3854(3)
C27 C 0.5587(12) 0.7068(19) 0.3662(4)
O8 O 0.4539(8) 0.6649(9) 0.3522(3)
C28 C 0.6212(14) 0.477(2) 0.3878(6)
H42 H 0.5517 0.4625 0.4083
H43 H 0.6964 0.4279 0.4007
H44 H 0.5967 0.4430 0.3559
C29 C 0.6249(8) 0.9202(14) 0.4139(3)
H45 H 0.6629 1.0125 0.4112
H46 H 0.6868 0.8617 0.4324
C30 C 0.5029(9) 0.9324(18) 0.4411(3)
C31 C 0.4617(12) 0.8201(16) 0.4680(4)
H47 H 0.5098 0.7380 0.4712
C32 C 0.3483(16) 0.834(2) 0.4896(5)
H48 H 0.3234 0.7612 0.5092
C33 C 0.2690(15) 0.948(3) 0.4845(6)
H49 H 0.1896 0.9514 0.4980
C34 C 0.3139(14) 1.056(2) 0.4583(5)
H50 H 0.2649 1.1375 0.4552
C35 C 0.4275(13) 1.0503(16) 0.4362(4)
H51 H 0.4535 1.1259 0.4181
C36 C 0.5314(9) 1.0418(14) 0.3054(4)
O9 O 0.6368(5) 1.0998(8) 0.3087(2)
C37 C 0.4168(7) 1.1040(12) 0.2759(3)
C38 C 0.4613(8) 1.1988(12) 0.2347(4)
H52 H 0.5022 1.1423 0.2115
H53 H 0.5215 1.2673 0.2481
H54 H 0.3879 1.2454 0.2191
C39 C 0.3390(8) 1.1918(11) 0.3099(4)
H55 H 0.2710 1.2401 0.2914
H56 H 0.3948 1.2590 0.3266
H57 H 0.3023 1.1314 0.3330
N5 N 0.3360(6) 0.9896(10) 0.2559(3)
H58 H 0.2556 0.9899 0.2616
C40 C 0.3784(8) 0.8849(12) 0.2294(3)
O10 O 0.4955(5) 0.8734(8) 0.2235(2)
C41 C 0.2833(8) 0.7832(12) 0.2096(4)
H59 H 0.2959 0.7677 0.1756
H60 H 0.1972 0.8207 0.2119
C42 C 0.2957(8) 0.6418(14) 0.2371(4)
H61 H 0.3796 0.6013 0.2325
H62 H 0.2910 0.6593 0.2714
C43 C 0.1917(9) 0.5374(13) 0.2206(4)
H63 H 0.1990 0.4562 0.2416
H64 H 0.1081 0.5798 0.2243
C44 C 0.1963(9) 0.4884(12) 0.1687(4)
H65 H 0.2829 0.4554 0.1640
H66 H 0.1792 0.5678 0.1474
C45 C 0.1004(8) 0.3716(13) 0.1543(4)
H67 H 0.1170 0.2925 0.1758
H68 H 0.0138 0.4049 0.1588
N6 N 0.1058(6) 0.3255(9) 0.1063(3)
H69 H 0.1787 0.3229 0.0934
C46 C -0.0028(11) 0.2854(11) 0.0803(4)
O11 O -0.1100(5) 0.2915(8) 0.0945(2)
O12 O 0.0298(5) 0.2446(7) 0.0377(2)
C47 C -0.0631(10) 0.1648(14) 0.0039(4)
C48 C 0.0144(11) 0.1306(13) -0.0381(4)
H70 H 0.0505 0.2151 -0.0502
H71 H -0.0403 0.0873 -0.0631
H72 H 0.0828 0.0673 -0.0278
C49 C -0.1083(10) 0.0376(15) 0.0293(4)
H73 H -0.0350 -0.0130 0.0433
H74 H -0.1565 -0.0214 0.0066
H75 H -0.1622 0.0657 0.0544
C50 C -0.1762(8) 0.2596(13) -0.0118(4)
H76 H -0.2213 0.2854 0.0160
H77 H -0.2340 0.2106 -0.0345
H78 H -0.1448 0.3424 -0.0267
loop_
_geom_bond_atom_site_label_1
_geom_bond_atom_site_label_2
_geom_bond_site_symmetry_1
_geom_bond_site_symmetry_2
N1 H1 1_555 1_555
C1 N1 1_555 1_555
O1 C1 1_555 1_555
C2 C1 1_555 1_555
C3 C2 1_555 1_555
H2 C3 1_555 1_555
H3 C3 1_555 1_555
H4 C3 1_555 1_555
C4 C2 1_555 1_555
H5 C4 1_555 1_555
H6 C4 1_555 1_555
H7 C4 1_555 1_555
N2 C2 1_555 1_555
H8 N2 1_555 1_555
C5 N2 1_555 1_555
O2 C5 1_555 1_555
C6 C5 1_555 1_555
H9 C6 1_555 1_555
H10 C6 1_555 1_555
C7 C6 1_555 1_555
H11 C7 1_555 1_555
H12 C7 1_555 1_555
C8 C7 1_555 1_555
H13 C8 1_555 1_555
H14 C8 1_555 1_555
C9 C8 1_555 1_555
H15 C9 1_555 1_555
H16 C9 1_555 1_555
C10 C9 1_555 1_555
H17 C10 1_555 1_555
H18 C10 1_555 1_555
N3 C10 1_555 1_555
H19 N3 1_555 1_555
C11 N3 1_555 1_555
O3 C11 1_555 1_555
O4 C11 1_555 1_555
C12 O4 1_555 1_555
C13 C12 1_555 1_555
H20 C13 1_555 1_555
H21 C13 1_555 1_555
H22 C13 1_555 1_555
C14 C12 1_555 1_555
H23 C14 1_555 1_555
H24 C14 1_555 1_555
H25 C14 1_555 1_555
C15 C12 1_555 1_555
H26 C15 1_555 1_555
H27 C15 1_555 1_555
H28 C15 1_555 1_555
C16 N1 1_555 1_555
H29 C16 1_555 1_555
C17 C16 1_555 1_555
H30 C17 1_555 1_555
H31 C17 1_555 1_555
O5 C18 1_555 1_555
C18 C16 1_555 1_555
C19 O5 1_555 1_555
H32 C19 1_555 1_555
H33 C19 1_555 1_555
H34 C19 1_555 1_555
O6 C18 1_555 1_555
C20 C17 1_555 1_555
C21 C20 1_555 1_555
H35 C21 1_555 1_555
C22 C21 1_555 1_555
H36 C22 1_555 1_555
C23 C22 1_555 1_555
H37 C23 1_555 1_555
C24 C23 1_555 1_555
H38 C24 1_555 1_555
C25 C20 1_555 1_555
H39 C25 1_555 1_555
N4 H40 1_555 1_555
C26 N4 1_555 1_555
H41 C26 1_555 1_555
O7 C27 1_555 1_555
C27 C26 1_555 1_555
O8 C27 1_555 1_555
C28 O7 1_555 1_555
H42 C28 1_555 1_555
H43 C28 1_555 1_555
H44 C28 1_555 1_555
C29 C26 1_555 1_555
H45 C29 1_555 1_555
H46 C29 1_555 1_555
C30 C29 1_555 1_555
C31 C30 1_555 1_555
H47 C31 1_555 1_555
C32 C31 1_555 1_555
H48 C32 1_555 1_555
C33 C32 1_555 1_555
H49 C33 1_555 1_555
C34 C33 1_555 1_555
H50 C34 1_555 1_555
C35 C30 1_555 1_555
H51 C35 1_555 1_555
C36 N4 1_555 1_555
O9 C36 1_555 1_555
C37 C36 1_555 1_555
C38 C37 1_555 1_555
H52 C38 1_555 1_555
H53 C38 1_555 1_555
H54 C38 1_555 1_555
C39 C37 1_555 1_555
H55 C39 1_555 1_555
H56 C39 1_555 1_555
H57 C39 1_555 1_555
N5 C37 1_555 1_555
H58 N5 1_555 1_555
C40 N5 1_555 1_555
O10 C40 1_555 1_555
C41 C40 1_555 1_555
H59 C41 1_555 1_555
H60 C41 1_555 1_555
C42 C41 1_555 1_555
H61 C42 1_555 1_555
H62 C42 1_555 1_555
C43 C42 1_555 1_555
H63 C43 1_555 1_555
H64 C43 1_555 1_555
C44 C43 1_555 1_555
H65 C44 1_555 1_555
H66 C44 1_555 1_555
C45 C44 1_555 1_555
H67 C45 1_555 1_555
H68 C45 1_555 1_555
N6 C45 1_555 1_555
H69 N6 1_555 1_555
C46 N6 1_555 1_555
O11 C46 1_555 1_555
O12 C46 1_555 1_555
C47 O12 1_555 1_555
C48 C47 1_555 1_555
H70 C48 1_555 1_555
H71 C48 1_555 1_555
H72 C48 1_555 1_555
C49 C47 1_555 1_555
H73 C49 1_555 1_555
H74 C49 1_555 1_555
H75 C49 1_555 1_555
C50 C47 1_555 1_555
H76 C50 1_555 1_555
H77 C50 1_555 1_555
H78 C50 1_555 1_555
C24 C25 1_555 1_555
C34 C35 1_555 1_555

#END
