
#######################################################################
#
#                 Cambridge Crystallographic Data Centre
#                                CCDC 
#
#######################################################################
#
# If this CIF has been generated from an entry in the Cambridge 
# Structural Database, then it will include bibliographic, chemical, 
# crystal, experimental, refinement or atomic coordinate data resulting 
# from the CCDC's data processing and validation procedures.
#
#######################################################################

data_EBAHOH
_chemical_formula_moiety         'C23 H29 N3 O2 S1'
_chemical_name_systematic        
1-((3S,4R)-6-(4-methoxyphenyl)-4-(2-(piperidin-4-yl)-1,3-thiazol-4-yl)-2,3,4,5-tetrahydropyridin-3-yl)propan-1-one
_symmetry_cell_setting           triclinic
_symmetry_space_group_name_H-M   'P -1'
_symmetry_Int_Tables_number      2
_space_group_name_Hall           '-P 1'
loop_
_symmetry_equiv_pos_site_id
_symmetry_equiv_pos_as_xyz
1 x,y,z
2 -x,-y,-z
_cell_length_a                   10.2590(6)
_cell_length_b                   10.6420(8)
_cell_length_c                   11.9099(6)
_cell_angle_alpha                68.806(8)
_cell_angle_beta                 64.658(7)
_cell_angle_gamma                77.909(9)
_cell_volume                     1093.35
_exptl_crystal_colour            colorless
_exptl_crystal_description       Prism
_cell_formula_units_Z            2
loop_
_atom_site_label
_atom_site_type_symbol
_atom_site_fract_x
_atom_site_fract_y
_atom_site_fract_z
S1 S -0.03813(4) 0.88589(4) 0.31378(5)
O1 O 0.41149(14) 0.71292(14) 0.39670(12)
O2 O 0.82449(12) 0.57845(12) -0.52479(10)
N1 N -0.17761(14) 1.36540(14) 0.07045(15)
N2 N 0.20769(13) 0.95281(13) 0.12854(13)
N3 N 0.66311(13) 0.66025(13) 0.01884(12)
C1 C -0.14800(17) 1.34288(16) 0.18613(19)
H1 H -0.2354 1.3700 0.2539
H2 H -0.0694 1.3992 0.1632
C2 C -0.10407(17) 1.19501(16) 0.23950(18)
H3 H -0.1863 1.1396 0.2706
H4 H -0.0791 1.1823 0.3147
C3 C 0.02579(16) 1.14787(15) 0.13434(17)
H5 H 0.1073 1.2041 0.1071
C4 C -0.00991(17) 1.17682(16) 0.01418(17)
H6 H 0.0752 1.1507 -0.0560
H7 H -0.0907 1.1230 0.0373
C5 C -0.05179(17) 1.32648(16) -0.03350(18)
H8 H 0.0303 1.3800 -0.0594
H9 H -0.0750 1.3456 -0.1109
C6 C 0.07629(16) 1.00288(15) 0.18166(16)
C7 C 0.10143(17) 0.76343(16) 0.29575(17)
C8 C 0.22195(16) 0.81625(15) 0.19379(15)
C9 C 0.36580(15) 0.73788(15) 0.15316(15)
H10 H 0.3538 0.6426 0.2120
C10 C 0.41970(15) 0.73583(15) 0.01257(14)
H11 H 0.3585 0.6785 0.0082
H12 H 0.4091 0.8286 -0.0443
C11 C 0.57603(14) 0.68294(13) -0.03869(14)
C12 C 0.61756(16) 0.69432(16) 0.13916(15)
H13 H 0.6991 0.7332 0.1361
H14 H 0.5964 0.6100 0.2137
C13 C 0.48435(16) 0.79428(15) 0.16473(15)
H15 H 0.5089 0.8842 0.0969
C14 C 0.43661(17) 0.80927(17) 0.29911(16)
C15 C 0.4145(9) 0.9564(7) 0.2982(7)
H16 H 0.3244 0.9986 0.2850
H17 H 0.4964 1.0080 0.2260
C16 C 0.4049(11) 0.9583(10) 0.4315(8)
H18 H 0.3895 1.0518 0.4331
H19 H 0.4952 0.9178 0.4430
H20 H 0.3241 0.9064 0.5023
C17 C 0.63457(14) 0.65598(14) -0.16675(14)
C18 C 0.78398(15) 0.62699(15) -0.22679(14)
H21 H 0.8452 0.6241 -0.1844
C19 C 0.84370(15) 0.60269(16) -0.34548(15)
H22 H 0.9449 0.5832 -0.3842
C20 C 0.75445(15) 0.60688(15) -0.40872(14)
C21 C 0.60657(15) 0.63706(15) -0.35315(15)
H23 H 0.5462 0.6414 -0.3968
C22 C 0.54758(15) 0.66105(15) -0.23221(14)
H24 H 0.4465 0.6812 -0.1939
C23 C 0.74094(19) 0.5904(2) -0.59883(17)
H25 H 0.8033 0.5677 -0.6791
H26 H 0.6994 0.6833 -0.6211
H27 H 0.6630 0.5284 -0.5469
H28 H -0.205(3) 1.4524(12) 0.040(2)
C24? C 0.4413(13) 0.9468(9) 0.3053(10)
H29? H 0.4218 1.0162 0.2314
H30? H 0.5399 0.9573 0.2949
C25? C 0.3320(8) 0.9720(8) 0.4336(6)
H31? H 0.3391 1.0636 0.4307
H32? H 0.3533 0.9063 0.5071
H33? H 0.2340 0.9622 0.4446
H34? H 0.1208 0.7261 0.3767
H35? H 0.0741 0.6889 0.2806
loop_
_geom_bond_atom_site_label_1
_geom_bond_atom_site_label_2
_geom_bond_site_symmetry_1
_geom_bond_site_symmetry_2
S1 C6 1_555 1_555
O1 C14 1_555 1_555
O2 C20 1_555 1_555
N1 C1 1_555 1_555
N2 C6 1_555 1_555
N3 C11 1_555 1_555
C1 H1 1_555 1_555
H2 C1 1_555 1_555
C2 C1 1_555 1_555
H3 C2 1_555 1_555
H4 C2 1_555 1_555
C3 C2 1_555 1_555
H5 C3 1_555 1_555
C4 C3 1_555 1_555
H6 C4 1_555 1_555
H7 C4 1_555 1_555
C5 N1 1_555 1_555
H8 C5 1_555 1_555
H9 C5 1_555 1_555
C6 C3 1_555 1_555
C7 S1 1_555 1_555
C8 N2 1_555 1_555
C9 C8 1_555 1_555
H10 C9 1_555 1_555
C10 C9 1_555 1_555
H11 C10 1_555 1_555
H12 C10 1_555 1_555
C11 C10 1_555 1_555
C12 N3 1_555 1_555
H13 C12 1_555 1_555
H14 C12 1_555 1_555
C13 C9 1_555 1_555
H15 C13 1_555 1_555
C14 C13 1_555 1_555
C15 C14 1_555 1_555
H16 C15 1_555 1_555
H17 C15 1_555 1_555
C16 C15 1_555 1_555
H18 C16 1_555 1_555
H19 C16 1_555 1_555
H20 C16 1_555 1_555
C17 C11 1_555 1_555
C18 C17 1_555 1_555
H21 C18 1_555 1_555
C19 C18 1_555 1_555
H22 C19 1_555 1_555
C20 C19 1_555 1_555
C21 C20 1_555 1_555
H23 C21 1_555 1_555
C22 C17 1_555 1_555
H24 C22 1_555 1_555
C23 O2 1_555 1_555
H25 C23 1_555 1_555
H26 C23 1_555 1_555
H27 C23 1_555 1_555
H28 N1 1_555 1_555
C4 C5 1_555 1_555
C7 C8 1_555 1_555
C12 C13 1_555 1_555
C21 C22 1_555 1_555

#END
