
#######################################################################
#
#                 Cambridge Crystallographic Data Centre
#                                CCDC 
#
#######################################################################
#
# If this CIF has been generated from an entry in the Cambridge 
# Structural Database, then it will include bibliographic, chemical, 
# crystal, experimental, refinement or atomic coordinate data resulting 
# from the CCDC's data processing and validation procedures.
#
#######################################################################

data_EBALIE
_chemical_name_common            
(5,7,12,14-Tetraphenyldibenzo(b,i)-1,4,8,11-tetra-aza(14)annulene)
_chemical_formula_moiety         'C32 H28 N4'
_chemical_name_systematic        
8,17-Dimethyl-6,15-diphenyl-5,14-dihydrodibenzo[b,i][1,4,8,11]tetraazacyclotetradecine
_symmetry_cell_setting           triclinic
_symmetry_space_group_name_H-M   'P -1'
_symmetry_Int_Tables_number      2
_space_group_name_Hall           '-P 1'
loop_
_symmetry_equiv_pos_site_id
_symmetry_equiv_pos_as_xyz
1 x,y,z
2 -x,-y,-z
_cell_length_a                   11.207(3)
_cell_length_b                   11.602(9)
_cell_length_c                   19.546(6)
_cell_angle_alpha                89.95(4)
_cell_angle_beta                 92.27(2)
_cell_angle_gamma                98.64(4)
_cell_volume                     2510.6
_exptl_crystal_colour            orange
_exptl_crystal_description       block
_cell_formula_units_Z            4
loop_
_atom_site_label
_atom_site_type_symbol
_atom_site_fract_x
_atom_site_fract_y
_atom_site_fract_z
N1 N 0.1925(5) 0.9496(5) 0.3132(3)
N2 N 0.2305(5) 0.9796(5) 0.4499(3)
N3 N 0.2096(5) 1.2030(5) 0.4283(3)
N4 N 0.2333(6) 1.1781(5) 0.2919(3)
C1 C 0.2497(8) 0.7662(7) 0.2643(4)
C2 C 0.2332(6) 0.8506(7) 0.3210(4)
C3 C 0.2720(7) 0.8158(6) 0.3881(4)
C4 C 0.2678(6) 0.8731(7) 0.4478(4)
C5 C 0.3166(7) 0.8254(7) 0.5131(4)
C6 C 0.2813(8) 0.7097(8) 0.5302(4)
C7 C 0.3318(9) 0.6639(7) 0.5882(5)
C8 C 0.4147(10) 0.732(1) 0.6289(5)
C9 C 0.4505(8) 0.847(1) 0.6131(5)
C10 C 0.4015(7) 0.8954(7) 0.5551(4)
C11 C 0.1790(7) 1.0364(7) 0.5026(4)
C12 C 0.1308(7) 0.9789(6) 0.5599(4)
C13 C 0.0708(7) 1.0375(8) 0.6068(4)
C14 C 0.0574(7) 1.1505(8) 0.5938(4)
C15 C 0.1066(7) 1.2097(7) 0.5375(4)
C16 C 0.1688(6) 1.1533(6) 0.4910(4)
C17 C 0.3087(9) 1.3917(7) 0.4790(4)
C18 C 0.2669(7) 1.3075(7) 0.4207(4)
C19 C 0.3013(7) 1.3505(6) 0.3546(4)
C20 C 0.2840(7) 1.2917(6) 0.2947(4)
C21 C 0.3391(7) 1.3446(6) 0.2321(4)
C22 C 0.3196(7) 1.4552(7) 0.2131(4)
C23 C 0.3805(8) 1.5106(7) 0.1593(5)
C24 C 0.4627(8) 1.4600(9) 0.1241(4)
C25 C 0.4809(8) 1.3473(8) 0.1426(4)
C26 C 0.4184(7) 1.2904(7) 0.1952(4)
C27 C 0.1688(7) 1.1090(7) 0.2408(4)
C28 C 0.1170(7) 1.1560(6) 0.1825(4)
C29 C 0.0422(8) 1.0873(8) 0.1364(4)
C30 C 0.0153(7) 0.9681(8) 0.1477(4)
C31 C 0.0657(7) 0.9197(6) 0.2047(4)
C32 C 0.1455(7) 0.9882(6) 0.2506(4)
H1 H 0.3307 0.7553 0.2600
H2 H 0.2014 0.6909 0.2714
H3 H 0.2209 0.7935 0.2201
H4 H 0.3046 0.7406 0.3899
H5 H 0.2198 0.6617 0.5011
H6 H 0.3062 0.5805 0.5999
H7 H 0.4495 0.6996 0.6699
H8 H 0.5131 0.8960 0.6422
H9 H 0.4237 0.9777 0.5446
H10 H 0.1367 0.8946 0.5655
H11 H 0.0400 0.9968 0.6492
H12 H 0.0139 1.1886 0.6266
H13 H 0.0950 1.2912 0.5314
H14 H 0.3954 1.4110 0.4825
H15 H 0.2766 1.4640 0.4734
H16 H 0.2827 1.3594 0.5223
H17 H 0.3448 1.4308 0.3518
H18 H 0.2622 1.4921 0.2386
H19 H 0.3623 1.5897 0.1457
H20 H 0.5102 1.5037 0.0876
H21 H 0.5410 1.3104 0.1183
H22 H 0.4304 1.2081 0.2055
H23 H 0.1365 1.2407 0.1747
H24 H 0.0065 1.1226 0.0967
H25 H -0.0388 0.9206 0.1157
H26 H 0.0438 0.8340 0.2134
H27 H 0.2402 1.0242 0.4065
H28 H 0.2343 1.1286 0.3228
N5 N -0.2058(5) 1.5521(5) 0.0569(3)
N6 N -0.2209(5) 1.5309(5) 0.1941(3)
N7 N -0.1917(5) 1.3093(5) 0.1813(3)
N8 N -0.2279(5) 1.3202(5) 0.0451(3)
C33 C -0.2684(8) 1.7323(7) 0.0046(4)
C34 C -0.2471(6) 1.6513(6) 0.0627(4)
C35 C -0.2759(7) 1.6884(6) 0.1294(4)
C36 C -0.2665(7) 1.6331(6) 0.1908(4)
C37 C -0.3162(7) 1.6780(6) 0.2526(4)
C38 C -0.2959(7) 1.7966(7) 0.2679(4)
C39 C -0.3505(7) 1.8384(7) 0.3244(4)
C40 C -0.4224(8) 1.7615(9) 0.3650(4)
C41 C -0.4445(7) 1.6456(8) 0.3500(4)
C42 C -0.3906(7) 1.6035(6) 0.2943(4)
C43 C -0.1598(7) 1.4834(7) 0.2485(4)
C44 C -0.1069(7) 1.5480(7) 0.3038(4)
C45 C -0.0368(8) 1.5020(8) 0.3532(4)
C46 C -0.0184(8) 1.3886(9) 0.3476(4)
C47 C -0.0702(7) 1.3206(7) 0.2923(4)
C48 C -0.1432(7) 1.3654(6) 0.2430(4)
C49 C -0.2577(8) 1.1160(7) 0.2354(4)
C50 C -0.2386(7) 1.1989(7) 0.1763(4)
C51 C -0.2808(6) 1.1510(6) 0.1109(4)
C52 C -0.2744(7) 1.2046(6) 0.0489(4)
C53 C -0.3272(7) 1.1448(6) -0.0140(4)
C54 C -0.3001(8) 1.0362(7) -0.0309(4)
C55 C -0.3479(8) 0.9811(7) -0.0902(5)
C56 C -0.4213(8) 1.0310(7) -0.1347(4)
C57 C -0.4487(7) 1.1398(7) -0.1178(4)
C58 C -0.4052(7) 1.1947(7) -0.0585(4)
C59 C -0.1799(6) 1.3863(6) -0.0111(3)
C60 C -0.1345(7) 1.3360(6) -0.0671(4)
C61 C -0.0791(7) 1.4054(7) -0.1172(4)
C62 C -0.0631(7) 1.5249(7) -0.1114(4)
C63 C -0.1055(6) 1.5770(6) -0.0551(4)
C64 C -0.1676(6) 1.5096(6) -0.0040(4)
H29 H -0.2473 1.7068 -0.0360
H30 H -0.3497 1.7467 0.0003
H31 H -0.2184 1.8098 0.0123
H32 H -0.3074 1.7633 0.1304
H33 H -0.2439 1.8485 0.2394
H34 H -0.3346 1.9219 0.3353
H35 H -0.4582 1.7912 0.4052
H36 H -0.4987 1.5943 0.3784
H37 H -0.4035 1.5193 0.2841
H38 H -0.1195 1.6294 0.3089
H39 H -0.0004 1.5462 0.3916
H40 H 0.0318 1.3540 0.3830
H41 H -0.0550 1.2396 0.2874
H42 H -0.2267 1.1490 0.2776
H43 H -0.3432 1.0860 0.2404
H44 H -0.2199 1.0454 0.2285
H45 H -0.3247 1.0707 0.1115
H46 H -0.2438 1.0012 -0.0009
H47 H -0.3313 0.9011 -0.1003
H48 H -0.4547 0.9909 -0.1775
H49 H -0.5007 1.1791 -0.1485
H50 H -0.4282 1.2714 -0.0471
H51 H -0.1420 1.2483 -0.0709
H52 H -0.0502 1.3686 -0.1571
H53 H -0.0204 1.5738 -0.1468
H54 H -0.0923 1.6599 -0.0533
H55 H -0.2337 1.4832 0.1529
H56 H -0.2357 1.3597 0.0812
loop_
_geom_bond_atom_site_label_1
_geom_bond_atom_site_label_2
_geom_bond_site_symmetry_1
_geom_bond_site_symmetry_2
N1 C2 1_555 1_555
N2 C4 1_555 1_555
N3 C16 1_555 1_555
N4 C20 1_555 1_555
N5 C34 1_555 1_555
N6 C36 1_555 1_555
N7 C48 1_555 1_555
N8 C52 1_555 1_555
C1 C2 1_555 1_555
C2 C3 1_555 1_555
C3 C4 1_555 1_555
C4 C5 1_555 1_555
C5 C6 1_555 1_555
C6 C7 1_555 1_555
C7 C8 1_555 1_555
C8 C9 1_555 1_555
C9 C10 1_555 1_555
C10 C5 1_555 1_555
C11 N2 1_555 1_555
C12 C11 1_555 1_555
C13 C12 1_555 1_555
C14 C13 1_555 1_555
C15 C14 1_555 1_555
C16 C11 1_555 1_555
C17 C18 1_555 1_555
C18 N3 1_555 1_555
C19 C18 1_555 1_555
C20 C19 1_555 1_555
C21 C20 1_555 1_555
C22 C21 1_555 1_555
C23 C22 1_555 1_555
C24 C23 1_555 1_555
C25 C24 1_555 1_555
C26 C21 1_555 1_555
C27 N4 1_555 1_555
C28 C27 1_555 1_555
C29 C28 1_555 1_555
C30 C29 1_555 1_555
C31 C30 1_555 1_555
C32 N1 1_555 1_555
C33 C34 1_555 1_555
C34 C35 1_555 1_555
C35 C36 1_555 1_555
C36 C37 1_555 1_555
C37 C38 1_555 1_555
C38 C39 1_555 1_555
C39 C40 1_555 1_555
C40 C41 1_555 1_555
C41 C42 1_555 1_555
C42 C37 1_555 1_555
C43 N6 1_555 1_555
C44 C43 1_555 1_555
C45 C44 1_555 1_555
C46 C45 1_555 1_555
C47 C46 1_555 1_555
C48 C43 1_555 1_555
C49 C50 1_555 1_555
C50 N7 1_555 1_555
C51 C50 1_555 1_555
C52 C51 1_555 1_555
C53 C52 1_555 1_555
C54 C53 1_555 1_555
C55 C54 1_555 1_555
C56 C55 1_555 1_555
C57 C56 1_555 1_555
C58 C53 1_555 1_555
C59 N8 1_555 1_555
C60 C59 1_555 1_555
C61 C60 1_555 1_555
C62 C61 1_555 1_555
C63 C62 1_555 1_555
C64 N5 1_555 1_555
H1 C1 1_555 1_555
H2 C1 1_555 1_555
H3 C1 1_555 1_555
H4 C3 1_555 1_555
H5 C6 1_555 1_555
H6 C7 1_555 1_555
H7 C8 1_555 1_555
H8 C9 1_555 1_555
H9 C10 1_555 1_555
H10 C12 1_555 1_555
H11 C13 1_555 1_555
H12 C14 1_555 1_555
H13 C15 1_555 1_555
H14 C17 1_555 1_555
H15 C17 1_555 1_555
H16 C17 1_555 1_555
H17 C19 1_555 1_555
H18 C22 1_555 1_555
H19 C23 1_555 1_555
H20 C24 1_555 1_555
H21 C25 1_555 1_555
H22 C26 1_555 1_555
H23 C28 1_555 1_555
H24 C29 1_555 1_555
H25 C30 1_555 1_555
H26 C31 1_555 1_555
H27 N2 1_555 1_555
H28 N4 1_555 1_555
H29 C33 1_555 1_555
H30 C33 1_555 1_555
H31 C33 1_555 1_555
H32 C35 1_555 1_555
H33 C38 1_555 1_555
H34 C39 1_555 1_555
H35 C40 1_555 1_555
H36 C41 1_555 1_555
H37 C42 1_555 1_555
H38 C44 1_555 1_555
H39 C45 1_555 1_555
H40 C46 1_555 1_555
H41 C47 1_555 1_555
H42 C49 1_555 1_555
H43 C49 1_555 1_555
H44 C49 1_555 1_555
H45 C51 1_555 1_555
H46 C54 1_555 1_555
H47 C55 1_555 1_555
H48 C56 1_555 1_555
H49 C57 1_555 1_555
H50 C58 1_555 1_555
H51 C60 1_555 1_555
H52 C61 1_555 1_555
H53 C62 1_555 1_555
H54 C63 1_555 1_555
H55 N6 1_555 1_555
H56 N8 1_555 1_555
C15 C16 1_555 1_555
C25 C26 1_555 1_555
C27 C32 1_555 1_555
C31 C32 1_555 1_555
C47 C48 1_555 1_555
C57 C58 1_555 1_555
C59 C64 1_555 1_555
C63 C64 1_555 1_555

#END
