
#######################################################################
#
#                 Cambridge Crystallographic Data Centre
#                                CCDC 
#
#######################################################################
#
# If this CIF has been generated from an entry in the Cambridge 
# Structural Database, then it will include bibliographic, chemical, 
# crystal, experimental, refinement or atomic coordinate data resulting 
# from the CCDC's data processing and validation procedures.
#
#######################################################################

data_EBARAC
_chemical_formula_moiety         'C21 H23 Br1 N2 O4'
_chemical_name_systematic        
1-(5-(4-Bromophenyl)-3-methyl-4-(3,4,5-trimethoxyphenyl)-4,5-dihydro-1H-pyrazol-1-yl)ethanone
_symmetry_cell_setting           orthorhombic
_symmetry_space_group_name_H-M   'P b c a'
_symmetry_Int_Tables_number      61
_space_group_name_Hall           '-P 2ac 2ab'
loop_
_symmetry_equiv_pos_site_id
_symmetry_equiv_pos_as_xyz
1 x,y,z
2 1/2-x,-y,1/2+z
3 -x,1/2+y,1/2-z
4 1/2+x,1/2-y,-z
5 -x,-y,-z
6 1/2+x,y,1/2-z
7 x,1/2-y,1/2+z
8 1/2-x,1/2+y,z
_cell_length_a                   8.2364(10)
_cell_length_b                   15.4230(17)
_cell_length_c                   31.225(4)
_cell_angle_alpha                90
_cell_angle_beta                 90
_cell_angle_gamma                90
_cell_volume                     3966.51
_exptl_crystal_colour            colorless
_exptl_crystal_description       plate
_cell_formula_units_Z            8
loop_
_atom_site_label
_atom_site_type_symbol
_atom_site_fract_x
_atom_site_fract_y
_atom_site_fract_z
Br1 Br 1.57935(3) -0.186641(16) 0.878314(9)
C1 C 0.7906(3) 0.01480(15) 0.82595(7)
H1 H 0.8614 -0.0338 0.8267
C2 C 0.7048(3) 0.03380(15) 0.78887(8)
C3 C 0.6012(3) 0.10548(16) 0.78747(8)
C4 C 0.5866(3) 0.15825(15) 0.82363(8)
C5 C 0.6722(3) 0.13903(15) 0.86083(8)
H2 H 0.6619 0.1751 0.8853
C6 C 0.7733(3) 0.06659(15) 0.86193(7)
C7 C 0.8667(3) 0.04294(15) 0.90182(7)
H3 H 0.8807 -0.0215 0.9020
C8 C 0.7895(3) 0.06861(15) 0.94392(8)
C9 C 0.6229(3) 0.04348(17) 0.95714(8)
H4 H 0.6013 0.0656 0.9860
H5 H 0.6135 -0.0199 0.9571
H6 H 0.5441 0.0681 0.9370
C10 C 1.0384(3) 0.08445(15) 0.90531(7)
H7 H 1.0492 0.1328 0.8841
C11 C 1.1735(3) 0.01970(15) 0.89898(7)
C12 C 1.2681(3) 0.02176(16) 0.86247(8)
H8 H 1.2505 0.0656 0.8416
C13 C 1.3889(3) -0.03994(15) 0.85600(8)
H9 H 1.4543 -0.0386 0.8309
C14 C 1.4119(3) -0.10293(15) 0.88656(8)
C15 C 1.3183(3) -0.10728(16) 0.92321(8)
H10 H 1.3353 -0.1518 0.9438
C16 C 1.1993(3) -0.04539(15) 0.92921(8)
H11 H 1.1340 -0.0472 0.9543
C17 C 0.8011(3) -0.09371(17) 0.75412(8)
H12 H 0.9159 -0.0792 0.7581
H13 H 0.7876 -0.1259 0.7273
H14 H 0.7640 -0.1295 0.7781
C18 C 0.5544(3) 0.18678(17) 0.72465(8)
H15 H 0.5345 0.2424 0.7389
H16 H 0.4922 0.1843 0.6979
H17 H 0.6705 0.1811 0.7183
C19 C 0.4470(3) 0.27667(18) 0.85670(9)
H18 H 0.4082 0.2388 0.8797
H19 H 0.3637 0.3200 0.8501
H20 H 0.5466 0.3060 0.8659
C20 C 1.1561(3) 0.16650(15) 0.96764(8)
C21 C 1.1292(3) 0.19834(17) 1.01261(8)
H21 H 1.2183 0.2371 1.0208
H22 H 1.1257 0.1488 1.0322
H23 H 1.0261 0.2299 1.0141
N1 N 1.0346(2) 0.11990(13) 0.94932(6)
N2 N 0.8846(2) 0.10934(13) 0.96957(6)
O1 O 0.7075(2) -0.01592(11) 0.75244(5)
O2 O 0.5051(2) 0.11760(11) 0.75211(6)
O3 O 0.4799(2) 0.22586(11) 0.81932(5)
O4 O 1.2816(2) 0.17998(11) 0.94758(5)
loop_
_geom_bond_atom_site_label_1
_geom_bond_atom_site_label_2
_geom_bond_site_symmetry_1
_geom_bond_site_symmetry_2
Br1 C14 1_555 1_555
C1 H1 1_555 1_555
C2 C1 1_555 1_555
C3 C2 1_555 1_555
C4 C3 1_555 1_555
C5 C4 1_555 1_555
H2 C5 1_555 1_555
C6 C1 1_555 1_555
C7 C6 1_555 1_555
H3 C7 1_555 1_555
C8 C7 1_555 1_555
C9 C8 1_555 1_555
H4 C9 1_555 1_555
H5 C9 1_555 1_555
H6 C9 1_555 1_555
C10 C7 1_555 1_555
H7 C10 1_555 1_555
C11 C10 1_555 1_555
C12 C11 1_555 1_555
H8 C12 1_555 1_555
C13 C12 1_555 1_555
H9 C13 1_555 1_555
C14 C13 1_555 1_555
C15 C14 1_555 1_555
H10 C15 1_555 1_555
C16 C11 1_555 1_555
H11 C16 1_555 1_555
C17 H12 1_555 1_555
H13 C17 1_555 1_555
H14 C17 1_555 1_555
C18 H15 1_555 1_555
H16 C18 1_555 1_555
H17 C18 1_555 1_555
C19 H18 1_555 1_555
H19 C19 1_555 1_555
H20 C19 1_555 1_555
C20 C21 1_555 1_555
C21 H21 1_555 1_555
H22 C21 1_555 1_555
H23 C21 1_555 1_555
N1 C10 1_555 1_555
N2 C8 1_555 1_555
O1 C2 1_555 1_555
O2 C3 1_555 1_555
O3 C4 1_555 1_555
O4 C20 1_555 1_555
C5 C6 1_555 1_555
C15 C16 1_555 1_555
C17 O1 1_555 1_555
C18 O2 1_555 1_555
C19 O3 1_555 1_555
C20 N1 1_555 1_555
N1 N2 1_555 1_555

#END
