
#######################################################################
#
#                 Cambridge Crystallographic Data Centre
#                                CCDC 
#
#######################################################################
#
# If this CIF has been generated from an entry in the Cambridge 
# Structural Database, then it will include bibliographic, chemical, 
# crystal, experimental, refinement or atomic coordinate data resulting 
# from the CCDC's data processing and validation procedures.
#
#######################################################################

data_EBAWEJ
_chemical_formula_moiety         'C54 H58 N2 O6,3(C3 H6 O1)'
_chemical_name_systematic        
'5,17-Di-t-butyl-26,28-bis(benzylaminocarbonylmethoxy)calix(4)arene acetone clathrate acetone solvate'
_symmetry_cell_setting           monoclinic
_symmetry_space_group_name_H-M   'C 2/c'
_symmetry_Int_Tables_number      15
_space_group_name_Hall           '-C 2yn'
loop_
_symmetry_equiv_pos_site_id
_symmetry_equiv_pos_as_xyz
1 x,y,z
2 -x,y,1/2-z
3 1/2+x,1/2+y,z
4 1/2-x,1/2+y,1/2-z
5 -x,-y,-z
6 x,-y,1/2+z
7 1/2-x,1/2-y,-z
8 1/2+x,1/2-y,1/2+z
_cell_length_a                   26.277(8)
_cell_length_b                   12.967(5)
_cell_length_c                   20.355(4)
_cell_angle_alpha                90
_cell_angle_beta                 124.845(14)
_cell_angle_gamma                90
_cell_volume                     5692.08
_exptl_crystal_colour            colorless
_exptl_crystal_description       needle
_chemical_melting_point          305-307deg.C
_cell_formula_units_Z            4
_chemical_properties_physical    air-sensitive
loop_
_atom_site_label
_atom_site_type_symbol
_atom_site_fract_x
_atom_site_fract_y
_atom_site_fract_z
O1 O 0.4364(2) 0.9120(3) 0.7423(2)
O2 O 0.5473(2) 0.9457(4) 0.8844(2)
O3 O 0.5919(3) 1.1997(4) 0.9635(3)
N1 N 0.5790(3) 1.1205(5) 0.8559(4)
C1 C 0.3423(3) 0.8581(6) 0.5912(4)
C2 C 0.3457(3) 0.8142(6) 0.6633(4)
C3 C 0.3044(4) 0.7477(6) 0.6589(5)
C4 C 0.3090(4) 0.7106(8) 0.7250(6)
C5 C 0.3602(4) 0.7378(7) 0.7998(5)
C6 C 0.4038(3) 0.8039(6) 0.8095(4)
C7 C 0.3970(3) 0.8422(5) 0.7409(5)
C8 C 0.4588(3) 0.8341(6) 0.8926(4)
C9 C 0.5205(3) 0.7882(6) 0.9178(4)
C10 C 0.5375(4) 0.6877(6) 0.9478(4)
C11 C 0.5940(4) 0.6396(6) 0.9705(4)
C12 C 0.6313(3) 0.7004(6) 0.9566(4)
C13 C 0.3833(3) 0.7997(6) 0.5732(4)
C14 C 0.5619(4) 0.8444(6) 0.9112(4)
C15 C 0.6128(4) 0.5367(7) 1.0096(5)
C16 C 0.5661(8) 0.4552(14) 0.9560(11)
C17 C 0.6135(12) 0.5456(14) 1.0851(9)
C18 C 0.6766(7) 0.5019(15) 1.0345(16)
C22 C 0.5682(4) 1.0223(6) 0.9454(4)
C23 C 0.5809(4) 1.1218(7) 0.9223(5)
C24 C 0.5932(4) 1.2117(7) 0.8280(5)
C25 C 0.6068(5) 1.1821(8) 0.7682(5)
C26 C 0.5725(4) 1.2196(9) 0.6933(7)
C27 C 0.5853(7) 1.1885(16) 0.6378(10)
C28 C 0.6342(8) 1.1219(9) 0.6603(11)
C29 C 0.6677(6) 1.0836(10) 0.7358(9)
C30 C 0.6546(5) 1.1138(8) 0.7886(6)
C12A C 0.3687(3) 0.7004(6) 0.5434(4)
C11A C 0.4060(4) 0.6396(6) 0.5295(4)
C10A C 0.4625(4) 0.6877(6) 0.5522(4)
C9A C 0.4795(3) 0.7882(6) 0.5822(4)
C8A C 0.5412(3) 0.8341(6) 0.6074(4)
C6A C 0.5962(3) 0.8039(6) 0.6905(4)
C5A C 0.6398(4) 0.7378(7) 0.7002(5)
C4A C 0.6910(4) 0.7106(8) 0.7750(6)
C3A C 0.6956(4) 0.7477(6) 0.8411(5)
C2A C 0.6543(3) 0.8142(6) 0.8367(4)
C1A C 0.6577(3) 0.8581(6) 0.9088(4)
C13A C 0.6167(3) 0.7997(6) 0.9268(4)
C7A C 0.6030(3) 0.8422(5) 0.7591(5)
O1A O 0.5636(2) 0.9120(3) 0.7577(2)
C14A C 0.4381(4) 0.8444(6) 0.5888(4)
O2A O 0.4527(2) 0.9457(4) 0.6156(2)
C22A C 0.4318(4) 1.0223(6) 0.5546(4)
C23A C 0.4191(4) 1.1218(7) 0.5777(5)
O3A O 0.4081(3) 1.1997(4) 0.5365(3)
N1A N 0.4210(3) 1.1205(5) 0.6441(4)
C24A C 0.4068(4) 1.2117(7) 0.6720(5)
C25A C 0.3932(5) 1.1821(8) 0.7318(5)
C26A C 0.4275(4) 1.2196(9) 0.8067(7)
C27A C 0.4147(7) 1.1885(16) 0.8622(10)
C28A C 0.3658(8) 1.1219(9) 0.8397(11)
C29A C 0.3323(6) 1.0836(10) 0.7642(9)
C30A C 0.3454(5) 1.1138(8) 0.7114(6)
C15A C 0.3872(4) 0.5367(7) 0.4904(5)
C16A C 0.4339(8) 0.4552(14) 0.5440(11)
C17A C 0.3865(12) 0.5456(14) 0.4149(9)
C18A C 0.3234(7) 0.5019(15) 0.4655(16)
C31 C 0.2549(7) 0.4222(11) 0.6158(7)
O4 O 0.2227(4) 0.5008(8) 0.5869(5)
C32 C 0.2428(9) 0.3412(14) 0.5554(10)
C33 C 0.2642(9) 0.3881(15) 0.6927(9)
C36 C 0.0000 -0.0331(9) 0.2500
O5 O 0.0000 0.0638(9) 0.2500
C37 C 0.0557(8) -0.0716(15) 0.2520(16)
C37A C -0.0557(8) -0.0716(15) 0.2480(16)
C19? C 0.5565(9) 0.4704(20) 0.9828(17)
C20? C 0.6542(14) 0.5432(22) 1.1001(6)
C21? C 0.6471(15) 0.4807(18) 0.9795(19)
C34? C 0.3216(10) 0.4528(21) 0.6810(15)
C35? C 0.2273(13) 0.3305(23) 0.6303(22)
O6? O 0.0000 -0.1312(12) 0.2500
C38? C -0.0588(8) 0.0046(17) 0.2395(18)
loop_
_geom_bond_atom_site_label_1
_geom_bond_atom_site_label_2
_geom_bond_site_symmetry_1
_geom_bond_site_symmetry_2
O1 C7 1_555 1_555
O2 C14 1_555 1_555
O3 C23 1_555 1_555
N1 C23 1_555 1_555
C1 C2 1_555 1_555
C2 C3 1_555 1_555
C3 C4 1_555 1_555
C4 C5 1_555 1_555
C5 C6 1_555 1_555
C6 C7 1_555 1_555
C7 C2 1_555 1_555
C8 C6 1_555 1_555
C9 C8 1_555 1_555
C10 C9 1_555 1_555
C11 C10 1_555 1_555
C12 C11 1_555 1_555
C13 C1 1_555 1_555
C14 C9 1_555 1_555
C15 C11 1_555 1_555
C16 C15 1_555 1_555
C17 C15 1_555 1_555
C18 C15 1_555 1_555
C22 O2 1_555 1_555
C23 C22 1_555 1_555
C24 N1 1_555 1_555
C25 C24 1_555 1_555
C26 C25 1_555 1_555
C27 C26 1_555 1_555
C28 C27 1_555 1_555
C29 C28 1_555 1_555
C30 C25 1_555 1_555
C31 O4 1_555 1_555
C32 C31 1_555 1_555
C33 C31 1_555 1_555
C36 O5 1_555 1_555
C37 C36 1_555 1_555
C12A C13 1_555 1_555
C11A C12A 1_555 1_555
C10A C11A 1_555 1_555
C9A C10A 1_555 1_555
C8A C9A 1_555 1_555
C6A C8A 1_555 1_555
C5A C6A 1_555 1_555
C4A C5A 1_555 1_555
C3A C4A 1_555 1_555
C2A C3A 1_555 1_555
C1A C2A 1_555 1_555
C13A C12 1_555 1_555
C7A C6A 1_555 1_555
O1A C7A 1_555 1_555
C14A C13 1_555 1_555
O2A C14A 1_555 1_555
C22A O2A 1_555 1_555
C23A C22A 1_555 1_555
O3A C23A 1_555 1_555
N1A C23A 1_555 1_555
C24A N1A 1_555 1_555
C25A C24A 1_555 1_555
C26A C25A 1_555 1_555
C27A C26A 1_555 1_555
C28A C27A 1_555 1_555
C29A C28A 1_555 1_555
C30A C25A 1_555 1_555
C15A C11A 1_555 1_555
C16A C15A 1_555 1_555
C17A C15A 1_555 1_555
C18A C15A 1_555 1_555
C37A C36 1_555 1_555
C14 C13A 1_555 1_555
C29 C30 1_555 1_555
C9A C14A 1_555 1_555
C2A C7A 1_555 1_555
C1A C13A 1_555 1_555
C29A C30A 1_555 1_555

#END
