
#######################################################################
#
#                 Cambridge Crystallographic Data Centre
#                                CCDC 
#
#######################################################################
#
# If this CIF has been generated from an entry in the Cambridge 
# Structural Database, then it will include bibliographic, chemical, 
# crystal, experimental, refinement or atomic coordinate data resulting 
# from the CCDC's data processing and validation procedures.
#
#######################################################################

data_EBEHOI
_chemical_formula_moiety         
'C40 H48 Cs1 O12 1+,C1 N1 S1 1-,0.5(C1 H4 O1),0.5(H2 O1)'
_chemical_name_systematic        
'bis(2,3:11,12-Dibenzo-18-crown-6)-cesium thiocyanate methanol solvate hemihydrate'
_symmetry_cell_setting           monoclinic
_symmetry_space_group_name_H-M   'P 21/c'
_symmetry_Int_Tables_number      14
_space_group_name_Hall           '-P 2ybc'
loop_
_symmetry_equiv_pos_site_id
_symmetry_equiv_pos_as_xyz
1 x,y,z
2 -x,1/2+y,1/2-z
3 -x,-y,-z
4 x,1/2-y,1/2+z
_cell_length_a                   14.503(2)
_cell_length_b                   15.152(3)
_cell_length_c                   39.989(6)
_cell_angle_alpha                90
_cell_angle_beta                 90.796(8)
_cell_angle_gamma                90
_cell_volume                     8786.71
_exptl_crystal_colour            colorless
_cell_formula_units_Z            8
loop_
_atom_site_label
_atom_site_type_symbol
_atom_site_fract_x
_atom_site_fract_y
_atom_site_fract_z
N1 N -0.1658(13) 0.4539(18) -0.2496(5)
S2 S -0.2355(4) 0.4008(3) -0.3078(2)
C83 C -0.1959(13) 0.4301(13) -0.2745(6)
S1 S 0.3358(12) 0.6030(7) 0.0116(3)
N3 N 0.2266(31) 0.5959(29) 0.0772(20)
C82 C 0.2501(41) 0.6013(22) 0.0479(14)
Cs1 Cs 0.2147(1) 0.1050(1) 0.0576(1)
C1 C 0.0895(8) -0.0758(7) 0.1143(3)
O1 O 0.0037(5) 0.0167(5) 0.0790(2)
C2 C 0.1077(9) -0.1114(9) 0.1467(3)
O2 O 0.0072(5) 0.1341(5) 0.0241(2)
O3 O 0.1535(6) 0.1222(5) -0.0227(2)
C3 C 0.0557(11) -0.0849(11) 0.1727(4)
O4 O 0.2890(5) 0.0149(5) -0.0134(2)
C4 C -0.0137(10) -0.0251(10) 0.1686(4)
O5 O 0.2906(5) -0.0981(5) 0.0436(2)
C5 C -0.0328(8) 0.0100(8) 0.1387(4)
O6 O 0.1354(5) -0.0956(5) 0.0862(2)
C6 C 0.0169(7) -0.0152(8) 0.1099(3)
O7 O 0.3001(6) 0.0676(6) 0.1311(3)
C7 C -0.0663(9) 0.0818(9) 0.0740(4)
O8 O 0.1647(5) 0.1992(5) 0.1310(2)
C8 C -0.0750(9) 0.0994(9) 0.0383(4)
O9 O 0.1521(5) 0.3049(5) 0.0810(2)
C9 C -0.0066(10) 0.1435(11) -0.0106(4)
C10 C 0.0768(11) 0.1820(10) -0.0261(4)
O10 O 0.2793(6) 0.2929(6) 0.0295(2)
O11 O 0.4513(7) 0.2040(6) 0.0447(3)
C11 C 0.2315(9) 0.1427(8) -0.0402(3)
C12 C 0.2420(11) 0.2124(9) -0.0609(4)
O12 O 0.4476(7) 0.0720(6) 0.0840(3)
C13 C 0.3218(5) 0.2256(10) -0.0772(4)
C14 C 0.3954(12) 0.1703(10) -0.0725(4)
C15 C 0.3874(10) 0.0991(8) -0.0515(3)
C16 C 0.3053(9) 0.0838(7) -0.0356(3)
C17 C 0.3662(8) -0.0379(8) -0.0038(4)
C18 C 0.3332(9) -0.1186(7) 0.0130(3)
C19 C 0.2504(9) -0.1765(8) 0.0573(4)
C20 C 0.2098(8) -0.1586(7) 0.0897(4)
C21 C 0.0809(8) 0.2413(8) 0.1273(3)
C22 C 0.0075(10) 0.2330(9) 0.1483(4)
C23 C -0.0745(1) 0.2787(12) 0.1413(5)
C24 C -0.0802(11) 0.3330(11) 0.1155(5)
C25 C -0.0054(11) 0.3451(9) 0.0947(5)
C26 C 0.0764(9) 0.2992(8) 0.1005(4)
C27 C 0.1537(10) 0.3666(9) 0.0540(4)
C28 C 0.2494(10) 0.3740(8) 0.0428(4)
C29 C 0.3607(12) 0.2922(11) 0.0094(4)
C30 C 0.4430(11) 0.2863(12) 0.0260(5)
C31 C 0.5290(10) 0.1929(8) 0.0632(3)
C32 C 0.6058(10) 0.2441(10) 0.0610(4)
C33 C 0.6803(12) 0.2283(13) 0.0808(5)
C34 C 0.6792(13) 0.1583(16) 0.1035(5)
C35 C 0.6024(14) 0.1059(12) 0.1060(5)
C36 C 0.5272(11) 0.1211(9) 0.0849(4)
C37 C 0.4291(13) 0.0038(10) 0.1075(5)
C38 C 0.3899(13) 0.0321(15) 0.1363(6)
C39 C 0.2729(10) 0.1123(10) 0.1613(4)
C40 C 0.1764(9) 0.1405(8) 0.1585(3)
Cs2 Cs 0.3438(1) 0.4007(1) -0.1777(1)
O13 O 0.2676(6) 0.4702(6) -0.1004(3)
O14 O 0.4579(6) 0.4440(7) -0.1109(3)
O15 O 0.5147(6) 0.2829(5) -0.1366(2)
O16 O 0.3942(6) 0.1836(6) -0.1633(3)
O17 O 0.2113(6) 0.2292(6) -0.1622(3)
O18 O 0.1442(7) 0.3928(6) -0.1365(3)
O19 O 0.3004(6) 0.3173(6) -0.2542(2)
O20 O 0.1835(7) 0.4392(9) -0.2452(3)
O21 O 0.2273(6) 0.5787(7) -0.2020(3)
O22 O 0.4118(6) 0.6108(5) -0.1853(2)
O23 O 0.5383(5) 0.5048(5) -0.2044(3)
O24 O 0.4874(5) 0.3488(5) -0.2388(2)
C41 C 0.1228(10) 0.4081(9) -0.1037(4)
C42 C 0.0379(11) 0.3832(10) -0.0905(5)
C43 C 0.0218(13) 0.4050(13) -0.0563(6)
C44 C 0.0872(15) 0.4440(14) -0.0379(5)
C45 C 0.1706(12) 0.4675(11) -0.0510(5)
C46 C 0.1880(11) 0.4484(9) -0.0841(4)
C47 C 0.3426(14) 0.5033(16) -0.0800(6)
C48 C 0.4181(14) 0.5110(15) -0.0911(7)
C49 C 0.5275(11) 0.3955(10) -0.0948(4)
C50 C 0.5771(9) 0.3417(9) -0.1202(4)
C51 C 0.5476(9) 0.2290(8) -0.1602(3)
C52 C 0.6383(9) 0.2250(9) -0.1707(4)
C53 C 0.6631(11) 0.1674(11) -0.1954(4)
C54 C 0.5989(12) 0.1160(10) -0.2108(4)
C55 C 0.5063(11) 0.1174(8) -0.2004(4)
C56 C 0.4821(9) 0.1740(8) -0.1765(3)
C57 C 0.3265(11) 0.1235(9) -0.1745(4)
C58 C 0.2407(11) 0.1408(10) -0.1567(5)
C59 C 0.1198(12) 0.2410(13) -0.1496(6)
C60 C 0.0935(11) 0.3325(14) -0.1577(6)
C61 C 0.4946(8) 0.6225(7) -0.1694(3)
C62 C 0.5149(8) 0.6855(7) -0.1447(3)
C63 C 0.6029(10) 0.6891(9) -0.1307(3)
C64 C 0.6697(10) 0.6319(9) -0.1404(4)
C65 C 0.6507(8) 0.5691(8) -0.1651(4)
C66 C 0.5624(8) 0.5643(7) -0.1790(3)
C67 C 0.6047(8) 0.4444(9) -0.2154(4)
C68 C 0.5687(9) 0.3964(9) -0.2442(4)
C69 C 0.4561(9) 0.3029(10) -0.2680(3)
C70 C 0.3679(10) 0.2566(9) -0.2618(4)
C71 C 0.2098(9) 0.2907(11) -0.2534(3)
C72 C 0.1828(12) 0.2039(13) -0.2566(4)
C73 C 0.0881(16) 0.1859(18) -0.2545(6)
C74 C 0.0243(16) 0.2523(22) -0.2515(7)
C75 C 0.0537(12) 0.3361(17) -0.2490(4)
C76 C 0.1480(10) 0.3585(13) -0.2487(4)
C77 C 0.1290(14) 0.5183(18) -0.2380(5)
C78 C 0.1540(20) 0.5700(20) -0.2216(12)
C79 C 0.2699(11) 0.6612(10) -0.2048(4)
C80 C 0.3411(8) 0.6750(8) -0.1785(3)
O25 O 0.0891(17) -0.5302(22) 0.1691(8)
C81 C 0.1218(19) -0.4550(14) 0.1815(5)
O26 O 0.1842(11) 0.6419(11) 0.1316(5)
N2? N 0.1660(35) 0.6556(26) -0.0057(14)
C84? C 0.2284(46) 0.6304(27) 0.0053(14)
C85? C 0.5000 0.5000 0.0000
loop_
_geom_bond_atom_site_label_1
_geom_bond_atom_site_label_2
_geom_bond_site_symmetry_1
_geom_bond_site_symmetry_2
N1 C83 1_555 1_555
S1 C82 1_555 1_555
Cs1 O1 1_555 1_555
C1 C2 1_555 1_555
O1 C6 1_555 1_555
Cs2 O13 1_555 1_555
S2 C83 1_555 1_555
C2 C3 1_555 1_555
O2 Cs1 1_555 1_555
N3 C82 1_555 1_555
O3 Cs1 1_555 1_555
C3 C4 1_555 1_555
O4 Cs1 1_555 1_555
C4 C5 1_555 1_555
O5 Cs1 1_555 1_555
C5 C6 1_555 1_555
O6 Cs1 1_555 1_555
C6 C1 1_555 1_555
O7 Cs1 1_555 1_555
C7 O1 1_555 1_555
O8 Cs1 1_555 1_555
C8 O2 1_555 1_555
O9 Cs1 1_555 1_555
C9 O2 1_555 1_555
C10 O3 1_555 1_555
O10 Cs1 1_555 1_555
O11 Cs1 1_555 1_555
C11 O3 1_555 1_555
C12 C11 1_555 1_555
O12 Cs1 1_555 1_555
C13 C12 1_555 1_555
O13 C46 1_555 1_555
O14 Cs2 1_555 1_555
C14 C13 1_555 1_555
C15 C14 1_555 1_555
O15 Cs2 1_555 1_555
O16 Cs2 1_555 1_555
C16 O4 1_555 1_555
C17 O4 1_555 1_555
O17 Cs2 1_555 1_555
O18 Cs2 1_555 1_555
C18 O5 1_555 1_555
C19 O5 1_555 1_555
O19 Cs2 1_555 1_555
C20 O6 1_555 1_555
O20 Cs2 1_555 1_555
O21 Cs2 1_555 1_555
C21 O8 1_555 1_555
O22 Cs2 1_555 1_555
C22 C21 1_555 1_555
O23 Cs2 1_555 1_555
C23 C22 1_555 1_555
O24 Cs2 1_555 1_555
C24 C23 1_555 1_555
C25 C24 1_555 1_555
O25 C81 1_555 1_555
C26 O9 1_555 1_555
C27 O9 1_555 1_555
C28 O10 1_555 1_555
C29 O10 1_555 1_555
C30 O11 1_555 1_555
C31 O11 1_555 1_555
C32 C31 1_555 1_555
C33 C32 1_555 1_555
C34 C33 1_555 1_555
C35 C34 1_555 1_555
C36 O12 1_555 1_555
C37 O12 1_555 1_555
C38 O7 1_555 1_555
C39 O7 1_555 1_555
C40 O8 1_555 1_555
C41 O18 1_555 1_555
C42 C41 1_555 1_555
C43 C42 1_555 1_555
C44 C43 1_555 1_555
C45 C44 1_555 1_555
C46 C41 1_555 1_555
C47 O13 1_555 1_555
C48 O14 1_555 1_555
C49 O14 1_555 1_555
C50 O15 1_555 1_555
C51 O15 1_555 1_555
C52 C51 1_555 1_555
C53 C52 1_555 1_555
C54 C53 1_555 1_555
C55 C54 1_555 1_555
C56 O16 1_555 1_555
C57 O16 1_555 1_555
C58 O17 1_555 1_555
C59 O17 1_555 1_555
C60 O18 1_555 1_555
C61 O22 1_555 1_555
C62 C61 1_555 1_555
C63 C62 1_555 1_555
C64 C63 1_555 1_555
C65 C64 1_555 1_555
C66 O23 1_555 1_555
C67 O23 1_555 1_555
C68 O24 1_555 1_555
C69 O24 1_555 1_555
C70 O19 1_555 1_555
C71 O19 1_555 1_555
C72 C71 1_555 1_555
C73 C72 1_555 1_555
C74 C73 1_555 1_555
C75 C74 1_555 1_555
C76 O20 1_555 1_555
C77 O20 1_555 1_555
C78 O21 1_555 1_555
C79 O21 1_555 1_555
C80 O22 1_555 1_555
C1 O6 1_555 1_555
C7 C8 1_555 1_555
C9 C10 1_555 1_555
C11 C16 1_555 1_555
C15 C16 1_555 1_555
C17 C18 1_555 1_555
C19 C20 1_555 1_555
C21 C26 1_555 1_555
C25 C26 1_555 1_555
C27 C28 1_555 1_555
C29 C30 1_555 1_555
C31 C36 1_555 1_555
C35 C36 1_555 1_555
C37 C38 1_555 1_555
C39 C40 1_555 1_555
C45 C46 1_555 1_555
C47 C48 1_555 1_555
C49 C50 1_555 1_555
C51 C56 1_555 1_555
C55 C56 1_555 1_555
C57 C58 1_555 1_555
C59 C60 1_555 1_555
C61 C66 1_555 1_555
C65 C66 1_555 1_555
C67 C68 1_555 1_555
C69 C70 1_555 1_555
C71 C76 1_555 1_555
C75 C76 1_555 1_555
C77 C78 1_555 1_555
C79 C80 1_555 1_555

#END
