
#######################################################################
#
#                 Cambridge Crystallographic Data Centre
#                                CCDC 
#
#######################################################################
#
# If this CIF has been generated from an entry in the Cambridge 
# Structural Database, then it will include bibliographic, chemical, 
# crystal, experimental, refinement or atomic coordinate data resulting 
# from the CCDC's data processing and validation procedures.
#
#######################################################################

data_EBEPEJ
_chemical_formula_moiety         'C17 H20 N2 O3'
_chemical_name_systematic        1,3-bis(4-methoxybenzyl)urea
_symmetry_cell_setting           triclinic
_symmetry_space_group_name_H-M   'P 1'
_symmetry_Int_Tables_number      1
_space_group_name_Hall           'P 1'
loop_
_symmetry_equiv_pos_site_id
_symmetry_equiv_pos_as_xyz
1 x,y,z
_cell_length_a                   5.6155(12)
_cell_length_b                   7.605(2)
_cell_length_c                   17.646(5)
_cell_angle_alpha                94.794(16)
_cell_angle_beta                 90.406(13)
_cell_angle_gamma                92.540(15)
_cell_volume                     750.17
_exptl_crystal_colour            colorless
_cell_formula_units_Z            2
loop_
_atom_site_label
_atom_site_type_symbol
_atom_site_fract_x
_atom_site_fract_y
_atom_site_fract_z
C1 C 0.8915(4) 0.8146(4) 0.72494(13)
H1 H 0.8750 0.9150 0.6942
H2 H 0.9159 0.8578 0.7784
H3 H 0.7466 0.7377 0.7198
C2 C 1.0867(4) 0.6509(3) 0.62423(12)
C3 C 1.2800(4) 0.5505(3) 0.60078(12)
H4 H 1.4020 0.5303 0.6362
C4 C 1.2933(3) 0.4808(3) 0.52621(12)
H5 H 1.4253 0.4131 0.5107
C5 C 1.1154(3) 0.5082(3) 0.47300(12)
C6 C 0.9233(4) 0.6049(3) 0.49767(12)
H6 H 0.7992 0.6222 0.4626
C7 C 0.9067(4) 0.6778(3) 0.57277(12)
H7 H 0.7741 0.7447 0.5883
C8 C 1.1390(4) 0.4311(3) 0.39175(12)
H8 H 1.2665 0.4995 0.3672
H9 H 1.1902 0.3083 0.3924
C9 C 0.8850(3) 0.5548(2) 0.29678(10)
C10 C 0.6058(4) 0.6513(3) 0.20148(12)
H10 H 0.6976 0.7651 0.2115
H11 H 0.4350 0.6745 0.2088
C11 C 0.6421(3) 0.5825(3) 0.11984(12)
C12 C 0.8474(4) 0.6245(3) 0.08050(12)
H12 H 0.9702 0.6973 0.1058
C13 C 0.8774(4) 0.5624(3) 0.00502(12)
H13 H 1.0190 0.5930 -0.0209
C14 C 0.6983(4) 0.4548(3) -0.03229(12)
C15 C 0.4920(4) 0.4099(3) 0.00642(12)
H14 H 0.3707 0.3350 -0.0185
C16 C 0.4643(4) 0.4749(3) 0.08139(12)
H15 H 0.3218 0.4456 0.1071
C17 C 0.9131(4) 0.4316(4) -0.14889(14)
H16 H 0.9354 0.5603 -0.1476
H17 H 0.8925 0.3821 -0.2017
H18 H 1.0533 0.3827 -0.1265
N1 N 0.9237(3) 0.4294(2) 0.34550(9)
H19 H 0.817(4) 0.344(3) 0.3455(14)
N2 N 0.6781(3) 0.5313(2) 0.25682(9)
H20 H 0.595(4) 0.431(3) 0.2602(14)
O1 O 1.0913(3) 0.7171(2) 0.69926(9)
O2 O 1.0273(2) 0.68297(18) 0.29096(8)
O3 O 0.7068(3) 0.3874(2) -0.10663(9)
C18 C 0.4064(4) -0.2040(4) -0.13279(13)
H21 H 0.5535 -0.1315 -0.1224
H22 H 0.3936 -0.2400 -0.1874
H23 H 0.4094 -0.3092 -0.1044
C19 C 0.1951(4) -0.0435(3) -0.03479(13)
C20 C -0.0011(4) 0.0549(3) -0.01467(12)
H24 H -0.1137 0.0791 -0.0524
C21 C -0.0326(4) 0.1179(3) 0.06058(12)
H25 H -0.1681 0.1837 0.0740
C22 C 0.1325(3) 0.0857(3) 0.11693(12)
C23 C 0.3293(3) -0.0104(3) 0.09545(12)
H26 H 0.4442 -0.0316 0.1330
C24 C 0.3630(4) -0.0766(3) 0.02055(12)
H27 H 0.4979 -0.1433 0.0072
C25 C 0.0953(4) 0.1578(3) 0.19827(12)
H28 H 0.1899 0.2706 0.2078
H29 H -0.0748 0.1839 0.2048
C26 C 0.3688(3) 0.0605(2) 0.29490(10)
C27 C 0.6190(4) -0.0688(3) 0.38825(12)
H30 H 0.7485 -0.0049 0.3626
H31 H 0.6635 -0.1931 0.3893
C28 C 0.6019(4) 0.0117(3) 0.46919(12)
C29 C 0.4056(4) -0.0245(3) 0.51375(12)
H32 H 0.2764 -0.0973 0.4923
C30 C 0.3946(4) 0.0442(3) 0.58961(12)
H33 H 0.2592 0.0182 0.6194
C31 C 0.5835(4) 0.1507(3) 0.62106(12)
C32 C 0.7808(4) 0.1881(3) 0.57731(12)
H34 H 0.9096 0.2615 0.5987
C33 C 0.7894(4) 0.1184(3) 0.50252(12)
H35 H 0.9260 0.1437 0.4732
C34 C 0.3885(5) 0.1899(4) 0.74058(14)
H36 H 0.2478 0.2398 0.7189
H37 H 0.4175 0.2441 0.7924
H38 H 0.3614 0.0621 0.7419
N3 N 0.1615(3) 0.0399(2) 0.25459(9)
H39 H 0.079(4) -0.061(3) 0.2572(14)
N4 N 0.4009(3) -0.0648(2) 0.34362(9)
H40 H 0.299(4) -0.157(3) 0.3399(14)
O4 O 0.2073(3) -0.1043(2) -0.10992(9)
O5 O 0.5159(2) 0.18564(18) 0.28910(8)
O6 O 0.5898(3) 0.2247(2) 0.69501(9)
loop_
_geom_bond_atom_site_label_1
_geom_bond_atom_site_label_2
_geom_bond_site_symmetry_1
_geom_bond_site_symmetry_2
C1 H1 1_555 1_555
H2 C1 1_555 1_555
H3 C1 1_555 1_555
C2 C3 1_555 1_555
C3 H4 1_555 1_555
C4 C3 1_555 1_555
H5 C4 1_555 1_555
C5 C4 1_555 1_555
C6 C5 1_555 1_555
H6 C6 1_555 1_555
C7 C2 1_555 1_555
H7 C7 1_555 1_555
C8 C5 1_555 1_555
H8 C8 1_555 1_555
H9 C8 1_555 1_555
C9 N1 1_555 1_555
C10 H10 1_555 1_555
H11 C10 1_555 1_555
C11 C10 1_555 1_555
C12 C11 1_555 1_555
H12 C12 1_555 1_555
C13 C12 1_555 1_555
H13 C13 1_555 1_555
C14 C13 1_555 1_555
C15 C14 1_555 1_555
H14 C15 1_555 1_555
C16 C11 1_555 1_555
H15 C16 1_555 1_555
C17 H16 1_555 1_555
H17 C17 1_555 1_555
H18 C17 1_555 1_555
N1 C8 1_555 1_555
H19 N1 1_555 1_555
N2 C9 1_555 1_555
H20 N2 1_555 1_555
O1 C1 1_555 1_555
O2 C9 1_555 1_555
O3 C14 1_555 1_555
C18 H21 1_555 1_555
H22 C18 1_555 1_555
H23 C18 1_555 1_555
C19 C20 1_555 1_555
C20 H24 1_555 1_555
C21 C20 1_555 1_555
H25 C21 1_555 1_555
C22 C21 1_555 1_555
C23 C22 1_555 1_555
H26 C23 1_555 1_555
C24 C19 1_555 1_555
H27 C24 1_555 1_555
C25 C22 1_555 1_555
H28 C25 1_555 1_555
H29 C25 1_555 1_555
C26 N3 1_555 1_555
C27 H30 1_555 1_555
H31 C27 1_555 1_555
C28 C27 1_555 1_555
C29 C28 1_555 1_555
H32 C29 1_555 1_555
C30 C29 1_555 1_555
H33 C30 1_555 1_555
C31 C30 1_555 1_555
C32 C31 1_555 1_555
H34 C32 1_555 1_555
C33 C28 1_555 1_555
H35 C33 1_555 1_555
C34 H36 1_555 1_555
H37 C34 1_555 1_555
H38 C34 1_555 1_555
N3 C25 1_555 1_555
H39 N3 1_555 1_555
N4 C26 1_555 1_555
H40 N4 1_555 1_555
O4 C18 1_555 1_555
O5 C26 1_555 1_555
O6 C31 1_555 1_555
C2 O1 1_555 1_555
C6 C7 1_555 1_555
C10 N2 1_555 1_555
C15 C16 1_555 1_555
C17 O3 1_555 1_555
C19 O4 1_555 1_555
C23 C24 1_555 1_555
C27 N4 1_555 1_555
C32 C33 1_555 1_555
C34 O6 1_555 1_555

#END
