
#######################################################################
#
#                 Cambridge Crystallographic Data Centre
#                                CCDC 
#
#######################################################################
#
# If this CIF has been generated from an entry in the Cambridge 
# Structural Database, then it will include bibliographic, chemical, 
# crystal, experimental, refinement or atomic coordinate data resulting 
# from the CCDC's data processing and validation procedures.
#
#######################################################################

data_EBERIO01
_chemical_formula_moiety         'C8 H17 B10 N1 O1'
_chemical_name_systematic        
rac-1-(2-Pyridylmethanol)-1,2-dicarba-closo-dodecaborane
_symmetry_cell_setting           monoclinic
_symmetry_space_group_name_H-M   'P 21/c'
_symmetry_Int_Tables_number      14
_space_group_name_Hall           '-P 2ybc'
loop_
_symmetry_equiv_pos_site_id
_symmetry_equiv_pos_as_xyz
1 x,y,z
2 -x,1/2+y,1/2-z
3 -x,-y,-z
4 x,1/2-y,1/2+z
_cell_length_a                   10.5050(8)
_cell_length_b                   6.7736(5)
_cell_length_c                   20.6577(12)
_cell_angle_alpha                90
_cell_angle_beta                 103.134(7)
_cell_angle_gamma                90
_cell_volume                     1431.48
_exptl_crystal_colour            colorless
_exptl_crystal_description       needle
_cell_formula_units_Z            4
loop_
_atom_site_label
_atom_site_type_symbol
_atom_site_fract_x
_atom_site_fract_y
_atom_site_fract_z
N1 N 0.83354(17) 0.1054(3) 0.17104(8)
C1 C 0.81303(19) -0.0809(3) 0.18848(9)
C2 C 0.7331(2) -0.2070(4) 0.14533(11)
H1 H 0.7207 -0.3358 0.1583
C3 C 0.88003(19) -0.1477(3) 0.25780(9)
H2 H 0.8842 -0.2922 0.2572
B1 B 0.5665(3) -0.0680(4) 0.34747(12)
H3 H 0.4598 -0.0877 0.3351
B2 B 0.6714(2) -0.2277(4) 0.31686(11)
H4 H 0.6341 -0.3525 0.2839
B3 B 0.6512(2) 0.0164(3) 0.28885(12)
H5 H 0.6003 0.0519 0.2375
B4 B 0.8190(3) -0.2425(4) 0.37664(11)
H6 H 0.8791 -0.3772 0.3829
C4 C 0.7726(3) 0.1649(4) 0.11021(11)
H7 H 0.7866 0.2935 0.0977
B5 B 0.8085(3) -0.0934(4) 0.44450(12)
H8 H 0.8607 -0.1292 0.4956
B6 B 0.6387(3) 0.1689(4) 0.35594(13)
H9 H 0.5793 0.3043 0.3492
C5 C 0.6908(3) 0.0474(4) 0.06528(12)
H10 H 0.6493 0.0956 0.0237
B7 B 0.6720(3) -0.2305(4) 0.40239(12)
H11 H 0.6343 -0.3566 0.4259
C6 C 0.6717(3) -0.1424(4) 0.08304(11)
H12 H 0.6179 -0.2269 0.0534
B8 B 0.6522(3) 0.0154(4) 0.42673(13)
H13 H 0.6014 0.0504 0.4664
B9 B 0.7883(3) 0.1534(4) 0.41571(13)
H14 H 0.8273 0.2791 0.4479
C7 C 0.8858(2) -0.0094(4) 0.38451(11)
H15 H 0.9926 0.0095 0.3964
C8 C 0.80188(18) -0.0885(3) 0.31001(8)
O1 O 1.00975(17) -0.0769(3) 0.27631(10)
H16 H 1.0596 -0.1696 0.2886
B10 B 0.7880(2) 0.1516(4) 0.33043(12)
H17 H 0.8277 0.2749 0.3065
H18? H 0.9600 -0.3860 0.2776
H19? H 0.9685 -0.0927 0.2701
O2? O 0.8853(10) -0.3508(15) 0.2604(5)
loop_
_geom_bond_atom_site_label_1
_geom_bond_atom_site_label_2
_geom_bond_site_symmetry_1
_geom_bond_site_symmetry_2
N1 C1 1_555 1_555
C1 C2 1_555 1_555
C2 H1 1_555 1_555
C3 C1 1_555 1_555
H2 C3 1_555 1_555
B1 H3 1_555 1_555
B2 B1 1_555 1_555
H4 B2 1_555 1_555
B3 B1 1_555 1_555
H5 B3 1_555 1_555
B4 B2 1_555 1_555
H6 B4 1_555 1_555
C4 N1 1_555 1_555
H7 C4 1_555 1_555
B5 B4 1_555 1_555
H8 B5 1_555 1_555
B6 B1 1_555 1_555
H9 B6 1_555 1_555
C5 C4 1_555 1_555
H10 C5 1_555 1_555
B7 B1 1_555 1_555
H11 B7 1_555 1_555
C6 C2 1_555 1_555
H12 C6 1_555 1_555
B8 B1 1_555 1_555
H13 B8 1_555 1_555
B9 B5 1_555 1_555
H14 B9 1_555 1_555
C7 B4 1_555 1_555
H15 C7 1_555 1_555
C8 C3 1_555 1_555
O1 C3 1_555 1_555
H16 O1 1_555 1_555
B10 B3 1_555 1_555
H17 B10 1_555 1_555
B2 B3 1_555 1_555
B2 B7 1_555 1_555
B2 C8 1_555 1_555
B3 B6 1_555 1_555
B3 C8 1_555 1_555
B4 B7 1_555 1_555
B4 C8 1_555 1_555
B5 B7 1_555 1_555
B5 B8 1_555 1_555
B5 C7 1_555 1_555
B6 B8 1_555 1_555
B6 B9 1_555 1_555
B6 B10 1_555 1_555
C5 C6 1_555 1_555
B7 B8 1_555 1_555
B8 B9 1_555 1_555
B9 C7 1_555 1_555
B9 B10 1_555 1_555
C7 C8 1_555 1_555
C7 B10 1_555 1_555
C8 B10 1_555 1_555

#END
