
#######################################################################
#
#                 Cambridge Crystallographic Data Centre
#                                CCDC 
#
#######################################################################
#
# If this CIF has been generated from an entry in the Cambridge 
# Structural Database, then it will include bibliographic, chemical, 
# crystal, experimental, refinement or atomic coordinate data resulting 
# from the CCDC's data processing and validation procedures.
#
#######################################################################

data_EBERAH
_chemical_formula_moiety         'C50 H74 N1 Na1 O13,0.5(H2 O1)'
_chemical_name_systematic        
'(2-(6-(6-(15-((1,3-benzodioxol-5-ylcarbonyl)amino)-2-(5-ethyl-5-(hydroxy)-6-methyltetrahydro-2H-pyran-2-yl)-2,10,12-trimethyl-1,6,8-trioxadispiro[4.1.5^7^.3^5^]pentadec-13-en-9-yl)-3-hydroxy-4-methyl-5-(oxo)octan-2-yl)-5-methyltetrahydro-2H-pyran-2-yl)butanoato)-sodium hemihydrate'
_symmetry_cell_setting           tetragonal
_symmetry_space_group_name_H-M   'P 41 21 2'
_symmetry_Int_Tables_number      92
_space_group_name_Hall           'P 4abw 2nw'
loop_
_symmetry_equiv_pos_site_id
_symmetry_equiv_pos_as_xyz
1 x,y,z
2 -x,-y,1/2+z
3 1/2-y,1/2+x,1/4+z
4 1/2+y,1/2-x,3/4+z
5 1/2-x,1/2+y,1/4-z
6 1/2+x,1/2-y,3/4-z
7 y,x,-z
8 -y,-x,1/2-z
_cell_length_a                   13.4057(2)
_cell_length_b                   13.4057(2)
_cell_length_c                   55.9155(10)
_cell_angle_alpha                90
_cell_angle_beta                 90
_cell_angle_gamma                90
_cell_volume                     10048.7
_exptl_crystal_colour            colorless
_exptl_crystal_description       prism
_cell_formula_units_Z            8
loop_
_atom_site_label
_atom_site_type_symbol
_atom_site_fract_x
_atom_site_fract_y
_atom_site_fract_z
Na1 Na 0.87105(11) 0.25732(10) 0.06094(3)
H1 H 0.855(4) 0.439(3) -0.0287(8)
N1 N 0.8059(2) 0.4178(2) -0.02210(6)
O1 O 0.9169(2) 0.1103(2) 0.04153(6)
C1 C 0.8786(3) 0.0407(3) 0.05351(7)
C2 C 0.8020(3) -0.1155(4) 0.03712(9)
H2 H 0.816(4) -0.184(4) 0.0331(9)
H3 H 0.756(4) -0.121(4) 0.0519(9)
O2 O 1.02734(17) -0.06538(17) 0.07710(4)
C3 C 0.8995(3) -0.0678(3) 0.04587(7)
H4 H 0.946(3) -0.068(3) 0.0328(7)
O3 O 0.8232(3) 0.0544(3) 0.07103(6)
C4 C 0.7577(3) -0.0604(4) 0.01612(9)
H5 H 0.736961 0.006416 0.021199
H6 H 0.699595 -0.097151 0.010137
H7 H 0.807604 -0.054792 0.003396
O4 O 1.1116(2) 0.13941(18) 0.04465(5)
H8 H 1.038(4) 0.129(3) 0.0432(7)
C5 C 0.9815(4) -0.2297(3) 0.06265(9)
H9 H 0.996(4) -0.262(4) 0.0790(8)
H10 H 0.932(4) -0.261(4) 0.0531(8)
O5 O 0.91984(16) 0.50691(15) 0.01840(4)
C6 C 0.9462(3) -0.1233(3) 0.06708(7)
H11 H 0.899(3) -0.121(3) 0.0800(7)
O6 O 1.04386(17) 0.44719(16) 0.04269(4)
C7 C 1.0807(3) -0.2359(3) 0.04945(8)
H12 H 1.106(4) -0.304(4) 0.0500(8)
H13 H 1.069(3) -0.208(4) 0.0327(8)
O7 O 0.81790(17) 0.40987(17) 0.04331(4)
C8 C 1.1605(3) -0.1699(3) 0.06124(7)
H14 H 1.220(3) -0.168(3) 0.0486(7)
O8 O 0.74397(18) 0.33507(19) 0.08438(4)
C9 C 1.1162(2) -0.0647(2) 0.06257(7)
H15 H 1.098(3) -0.044(3) 0.0460(7)
O9 O 0.6654(2) 0.1705(2) 0.06129(5)
H16 H 0.715(4) 0.135(4) 0.0664(8)
C10 C 1.1948(4) -0.2089(3) 0.08561(8)
H17 H 1.251324 -0.168992 0.091273
H18 H 1.215322 -0.278790 0.084084
H19 H 1.139787 -0.203941 0.097091
O10 O 0.6459(3) 0.3739(3) -0.02636(6)
C11 C 1.1268(3) 0.1175(2) 0.06965(6)
H20 H 1.062(3) 0.113(3) 0.0778(7)
C12 C 1.2846(3) 0.0198(3) 0.06122(8)
H21 H 1.277484 0.028314 0.043896
H22 H 1.319163 -0.043102 0.064539
H23 H 1.323389 0.075432 0.067779
O11 O 0.6646(3) 0.6264(3) -0.11959(6)
C13 C 1.1817(3) 0.0180(2) 0.07280(7)
H24 H 1.188(3) 0.004(3) 0.0890(7)
O12 O 0.5509(2) 0.5033(2) -0.11003(5)
C14 C 1.1780(3) 0.2081(3) 0.08035(7)
H25 H 1.236(3) 0.225(3) 0.0711(7)
C15 C 1.2115(4) 0.1953(3) 0.10641(8)
H26 H 1.233262 0.259796 0.112784
H27 H 1.267045 0.147774 0.107108
H28 H 1.155736 0.169997 0.115973
C16 C 1.1095(3) 0.2987(3) 0.07972(6)
C17 C 1.1197(3) 0.4857(3) 0.08765(8)
H29 H 1.148(4) 0.547(4) 0.0803(8)
H30 H 1.043(4) 0.483(4) 0.0865(8)
C18 C 1.1574(3) 0.3973(3) 0.07314(7)
H31 H 1.230(3) 0.388(3) 0.0757(7)
C19 C 1.1512(4) 0.4791(4) 0.11381(9)
H32 H 1.127689 0.415975 0.120614
H33 H 1.122117 0.534895 0.122729
H34 H 1.224115 0.482181 0.114892
C20 C 1.1419(3) 0.4058(2) 0.04597(7)
H35 H 1.144(3) 0.335(3) 0.0390(7)
C21 C 1.2217(3) 0.4670(3) 0.03299(8)
H36 H 1.222(3) 0.533(3) 0.0407(7)
C22 C 1.0836(3) 0.5139(3) 0.00343(7)
H37 H 1.081(3) 0.580(3) 0.0106(7)
C23 C 1.1906(3) 0.4770(3) 0.00699(8)
H38 H 1.199(3) 0.419(4) -0.0014(8)
H39 H 1.232(3) 0.524(3) -0.0015(7)
C24 C 1.0099(2) 0.4507(2) 0.01818(6)
C25 C 1.0556(3) 0.5177(3) -0.02281(7)
H40 H 1.057989 0.450262 -0.029554
H41 H 1.102687 0.560693 -0.031379
H42 H 0.987965 0.544590 -0.024471
C26 C 1.3241(3) 0.4165(3) 0.03447(9)
H43 H 1.318454 0.347229 0.029039
H44 H 1.347694 0.417679 0.051055
H45 H 1.371528 0.452290 0.024267
C27 C 0.9964(3) 0.3460(2) 0.00903(6)
H46 H 1.060(3) 0.309(3) 0.0084(6)
C28 C 0.9105(3) 0.3099(2) 0.00182(6)
H47 H 0.904(3) 0.244(3) -0.0044(7)
C29 C 0.8268(2) 0.4556(2) 0.02062(6)
C30 C 0.8184(2) 0.3739(3) 0.00166(6)
H48 H 0.759157 0.331302 0.005325
C31 C 0.7439(3) 0.5333(3) 0.01960(7)
H49 H 0.682(3) 0.501(3) 0.0130(7)
H50 H 0.759(3) 0.586(3) 0.0082(7)
C32 C 0.7287(3) 0.5635(3) 0.04533(8)
H51 H 0.757(3) 0.627(4) 0.0513(7)
H52 H 0.657(4) 0.574(3) 0.0483(7)
C33 C 0.7700(3) 0.4768(3) 0.06049(7)
C34 C 0.7825(3) 0.5461(4) -0.06362(9)
H53 H 0.835(4) 0.560(4) -0.0531(9)
C35 C 0.7726(4) 0.6020(4) -0.08441(10)
H54 H 0.816(5) 0.656(5) -0.0881(10)
C36 C 0.6927(3) 0.5804(4) -0.09875(8)
C37 C 0.5807(4) 0.5715(4) -0.12804(8)
H55 H 0.526(4) 0.622(4) -0.1335(9)
H56 H 0.608(4) 0.532(4) -0.1418(9)
C38 C 0.6250(3) 0.5074(3) -0.09288(7)
C39 C 0.6332(3) 0.4530(3) -0.07244(7)
H57 H 0.582(3) 0.403(3) -0.0668(7)
C40 C 0.7148(3) 0.4724(3) -0.05747(7)
C41 C 0.7196(3) 0.4165(3) -0.03430(7)
C42 C 0.6027(4) 0.0512(4) 0.10457(10)
H58 H 0.646476 0.019608 0.092750
H59 H 0.555314 0.001842 0.110731
H60 H 0.642987 0.077325 0.117789
C43 C 0.5459(3) 0.1363(4) 0.09284(9)
H61 H 0.510(4) 0.174(4) 0.1051(9)
H62 H 0.500(4) 0.098(4) 0.0804(8)
C44 C 0.6430(4) 0.3090(3) 0.12033(7)
H63 H 0.695491 0.345748 0.128774
H64 H 0.617499 0.255708 0.130647
H65 H 0.588569 0.354685 0.116227
C45 C 0.6858(3) 0.2637(3) 0.09754(7)
H66 H 0.741(3) 0.219(3) 0.1029(7)
C46 C 0.6111(3) 0.2147(3) 0.08049(7)
C47 C 0.5459(3) 0.2942(3) 0.06895(8)
H67 H 0.500(3) 0.263(3) 0.0570(7)
H68 H 0.504(3) 0.327(3) 0.0826(8)
C48 C 0.6094(3) 0.3722(3) 0.05628(7)
H69 H 0.571(3) 0.432(3) 0.0493(7)
H70 H 0.646(3) 0.338(3) 0.0425(8)
C49 C 0.6893(3) 0.4137(3) 0.07266(7)
H71 H 0.662(3) 0.461(3) 0.0860(7)
C50 C 0.8463(3) 0.5139(3) 0.07829(7)
H72 H 0.871414 0.457599 0.087719
H73 H 0.815164 0.562762 0.088977
H74 H 0.901781 0.545343 0.069730
O13 O 1.02046(19) 0.29122(17) 0.08379(5)
O14 O 1.1992(2) 0.1992(2) 0.000000
loop_
_geom_bond_atom_site_label_1
_geom_bond_atom_site_label_2
_geom_bond_site_symmetry_1
_geom_bond_site_symmetry_2
Na1 O1 1_555 1_555
H1 N1 1_555 1_555
N1 C30 1_555 1_555
O1 C1 1_555 1_555
C1 C3 1_555 1_555
C2 H2 1_555 1_555
H3 C2 1_555 1_555
O2 C6 1_555 1_555
C3 C2 1_555 1_555
H4 C3 1_555 1_555
O3 Na1 1_555 1_555
C4 C2 1_555 1_555
H5 C4 1_555 1_555
H6 C4 1_555 1_555
H7 C4 1_555 1_555
O4 H8 1_555 1_555
C5 H9 1_555 1_555
H10 C5 1_555 1_555
O5 C24 1_555 1_555
C6 C3 1_555 1_555
H11 C6 1_555 1_555
O6 C20 1_555 1_555
C7 C5 1_555 1_555
H12 C7 1_555 1_555
H13 C7 1_555 1_555
O7 Na1 1_555 1_555
C8 C7 1_555 1_555
H14 C8 1_555 1_555
O8 Na1 1_555 1_555
C9 O2 1_555 1_555
H15 C9 1_555 1_555
O9 Na1 1_555 1_555
H16 O9 1_555 1_555
C10 C8 1_555 1_555
H17 C10 1_555 1_555
H18 C10 1_555 1_555
H19 C10 1_555 1_555
O10 C41 1_555 1_555
C11 O4 1_555 1_555
H20 C11 1_555 1_555
C12 H21 1_555 1_555
H22 C12 1_555 1_555
H23 C12 1_555 1_555
O11 C36 1_555 1_555
C13 C9 1_555 1_555
H24 C13 1_555 1_555
O12 C37 1_555 1_555
C14 C11 1_555 1_555
H25 C14 1_555 1_555
C15 C14 1_555 1_555
H26 C15 1_555 1_555
H27 C15 1_555 1_555
H28 C15 1_555 1_555
C16 C14 1_555 1_555
C17 H29 1_555 1_555
H30 C17 1_555 1_555
C18 C16 1_555 1_555
H31 C18 1_555 1_555
C19 C17 1_555 1_555
H32 C19 1_555 1_555
H33 C19 1_555 1_555
H34 C19 1_555 1_555
C20 C18 1_555 1_555
H35 C20 1_555 1_555
C21 C20 1_555 1_555
H36 C21 1_555 1_555
C22 H37 1_555 1_555
C23 C21 1_555 1_555
H38 C23 1_555 1_555
H39 C23 1_555 1_555
C24 O6 1_555 1_555
C25 C22 1_555 1_555
H40 C25 1_555 1_555
H41 C25 1_555 1_555
H42 C25 1_555 1_555
C26 C21 1_555 1_555
H43 C26 1_555 1_555
H44 C26 1_555 1_555
H45 C26 1_555 1_555
C27 C24 1_555 1_555
H46 C27 1_555 1_555
C28 C27 1_555 1_555
H47 C28 1_555 1_555
C29 O5 1_555 1_555
C30 C28 1_555 1_555
H48 C30 1_555 1_555
C31 C29 1_555 1_555
H49 C31 1_555 1_555
H50 C31 1_555 1_555
C32 C31 1_555 1_555
H51 C32 1_555 1_555
H52 C32 1_555 1_555
C33 O7 1_555 1_555
C34 H53 1_555 1_555
C35 C34 1_555 1_555
H54 C35 1_555 1_555
C36 C35 1_555 1_555
C37 O11 1_555 1_555
H55 C37 1_555 1_555
H56 C37 1_555 1_555
C38 O12 1_555 1_555
C39 C38 1_555 1_555
H57 C39 1_555 1_555
C40 C34 1_555 1_555
C41 N1 1_555 1_555
C42 H58 1_555 1_555
H59 C42 1_555 1_555
H60 C42 1_555 1_555
C43 C42 1_555 1_555
H61 C43 1_555 1_555
H62 C43 1_555 1_555
C44 H63 1_555 1_555
H64 C44 1_555 1_555
H65 C44 1_555 1_555
C45 O8 1_555 1_555
H66 C45 1_555 1_555
C46 O9 1_555 1_555
C47 C46 1_555 1_555
H67 C47 1_555 1_555
H68 C47 1_555 1_555
C48 C47 1_555 1_555
H69 C48 1_555 1_555
H70 C48 1_555 1_555
C49 O8 1_555 1_555
H71 C49 1_555 1_555
C50 C33 1_555 1_555
H72 C50 1_555 1_555
H73 C50 1_555 1_555
H74 C50 1_555 1_555
O13 Na1 1_555 1_555
C1 O3 1_555 1_555
C5 C6 1_555 1_555
O7 C29 1_555 1_555
C8 C9 1_555 1_555
C11 C13 1_555 1_555
C12 C13 1_555 1_555
C16 O13 1_555 1_555
C17 C18 1_555 1_555
C22 C23 1_555 1_555
C22 C24 1_555 1_555
C29 C30 1_555 1_555
C32 C33 1_555 1_555
C33 C49 1_555 1_555
C36 C38 1_555 1_555
C39 C40 1_555 1_555
C40 C41 1_555 1_555
C43 C46 1_555 1_555
C44 C45 1_555 1_555
C45 C46 1_555 1_555
C48 C49 1_555 1_555

#END
