
#######################################################################
#
#                 Cambridge Crystallographic Data Centre
#                                CCDC 
#
#######################################################################
#
# If this CIF has been generated from an entry in the Cambridge 
# Structural Database, then it will include bibliographic, chemical, 
# crystal, experimental, refinement or atomic coordinate data resulting 
# from the CCDC's data processing and validation procedures.
#
#######################################################################

data_EBETIO
_chemical_formula_moiety         'C16 H31 N1 O3 S1'
_chemical_name_systematic        
't-Butyl (2S,5R)-2-((S)-1-hydroxy-2,2-dimethylpropyl)-5-isopropylthiazolidine-3-carboxylate'
_symmetry_cell_setting           monoclinic
_symmetry_space_group_name_H-M   'P 21'
_symmetry_Int_Tables_number      4
_space_group_name_Hall           'P 2yb'
loop_
_symmetry_equiv_pos_site_id
_symmetry_equiv_pos_as_xyz
1 x,y,z
2 -x,1/2+y,-z
_cell_length_a                   15.141(1)
_cell_length_b                   10.652(1)
_cell_length_c                   5.774(1)
_cell_angle_alpha                90
_cell_angle_beta                 92.22(1)
_cell_angle_gamma                90
_cell_volume                     930.543
_cell_formula_units_Z            2
loop_
_atom_site_label
_atom_site_type_symbol
_atom_site_fract_x
_atom_site_fract_y
_atom_site_fract_z
S1 S 0.32818(4) 0.00000 0.3193(1)
C1 C 0.2860(1) 0.1629(2) 0.3100(4)
N1 N 0.1962(1) 0.1499(2) 0.2159(4)
C2 C 0.1860(2) 0.0491(3) 0.0464(4)
C3 C 0.2343(2) -0.0654(2) 0.1477(4)
C4 C 0.3420(2) 0.2506(2) 0.1600(4)
C5 C 0.4197(2) 0.3160(3) 0.2883(4)
C6 C 0.3842(2) 0.4016(3) 0.4753(5)
C7 C 0.4845(2) 0.2230(4) 0.4001(6)
C8 C 0.4672(2) 0.3990(4) 0.1156(6)
O1 O 0.3674(2) 0.1881(2) -0.0448(3)
C9 C 0.2644(2) -0.1588(3) -0.0344(5)
C10 C 0.3066(3) -0.2740(4) 0.0732(8)
C11 C 0.1865(2) -0.1950(3) -0.1961(6)
C12 C 0.1244(2) 0.2086(2) 0.2994(4)
O2 O 0.0498(1) 0.1892(2) 0.2299(3)
O3 O 0.1504(1) 0.2902(2) 0.4678(3)
C13 C 0.0874(2) 0.3812(3) 0.5570(5)
C14 C 0.0112(2) 0.3167(3) 0.6712(5)
C15 C 0.1436(2) 0.4510(4) 0.7399(6)
C16 C 0.0552(3) 0.4667(3) 0.3639(7)
H1 H 0.283(2) 0.198(3) 0.472(5)
H2 H 0.126(2) 0.039(3) 0.013(4)
H3 H 0.211(2) 0.076(3) -0.089(4)
H4 H 0.197(2) -0.107(3) 0.248(5)
H5 H 0.296(2) 0.319(3) 0.104(5)
H6 H 0.433(3) 0.447(6) 0.556(9)
H7 H 0.353(3) 0.357(5) 0.592(8)
H8 H 0.334(3) 0.460(6) 0.421(9)
H9 H 0.539(2) 0.273(4) 0.465(6)
H10 H 0.506(3) 0.170(5) 0.280(7)
H11 H 0.457(2) 0.175(4) 0.524(6)
H12 H 0.520(2) 0.444(4) 0.190(6)
H13 H 0.427(2) 0.459(3) 0.041(6)
H14 H 0.494(3) 0.338(4) -0.020(9)
H15 H 0.389(2) 0.109(4) 0.022(6)
H16 H 0.316(2) -0.111(4) -0.116(5)
H17 H 0.327(3) -0.341(6) -0.053(9)
H18 H 0.264(3) -0.305(5) 0.179(8)
H19 H 0.349(2) -0.252(4) 0.159(6)
H20 H 0.210(3) -0.261(6) -0.312(8)
H21 H 0.163(2) -0.112(5) -0.280(7)
H22 H 0.139(2) -0.231(3) -0.110(5)
H23 H -0.025(2) 0.376(4) 0.736(7)
H24 H 0.030(3) 0.255(4) 0.760(7)
H25 H -0.034(2) 0.272(4) 0.569(6)
H26 H 0.105(2) 0.532(4) 0.776(6)
H27 H 0.195(2) 0.484(5) 0.684(6)
H28 H 0.158(4) 0.395(9) 0.864(10)
H29 H 0.009(3) 0.528(5) 0.427(7)
H30 H 0.017(3) 0.414(6) 0.231(8)
H31 H 0.111(3) 0.507(5) 0.324(8)
loop_
_geom_bond_atom_site_label_1
_geom_bond_atom_site_label_2
_geom_bond_site_symmetry_1
_geom_bond_site_symmetry_2
S1 C1 1_555 1_555
C1 N1 1_555 1_555
N1 C2 1_555 1_555
C2 C3 1_555 1_555
C3 S1 1_555 1_555
C4 C1 1_555 1_555
C5 C4 1_555 1_555
C6 C5 1_555 1_555
C7 C5 1_555 1_555
C8 C5 1_555 1_555
O1 C4 1_555 1_555
C9 C3 1_555 1_555
C10 C9 1_555 1_555
C11 C9 1_555 1_555
C12 N1 1_555 1_555
O2 C12 1_555 1_555
O3 C12 1_555 1_555
C13 O3 1_555 1_555
C14 C13 1_555 1_555
C15 C13 1_555 1_555
C16 C13 1_555 1_555
H1 C1 1_555 1_555
H2 C2 1_555 1_555
H3 C2 1_555 1_555
H4 C3 1_555 1_555
H5 C4 1_555 1_555
H6 C6 1_555 1_555
H7 C6 1_555 1_555
H8 C6 1_555 1_555
H9 C7 1_555 1_555
H10 C7 1_555 1_555
H11 C7 1_555 1_555
H12 C8 1_555 1_555
H13 C8 1_555 1_555
H14 C8 1_555 1_555
H15 O1 1_555 1_555
H16 C9 1_555 1_555
H17 C10 1_555 1_555
H18 C10 1_555 1_555
H19 C10 1_555 1_555
H20 C11 1_555 1_555
H21 C11 1_555 1_555
H22 C11 1_555 1_555
H23 C14 1_555 1_555
H24 C14 1_555 1_555
H25 C14 1_555 1_555
H26 C15 1_555 1_555
H27 C15 1_555 1_555
H28 C15 1_555 1_555
H29 C16 1_555 1_555
H30 C16 1_555 1_555
H31 C16 1_555 1_555

#END
