
#######################################################################
#
#                 Cambridge Crystallographic Data Centre
#                                CCDC 
#
#######################################################################
#
# If this CIF has been generated from an entry in the Cambridge 
# Structural Database, then it will include bibliographic, chemical, 
# crystal, experimental, refinement or atomic coordinate data resulting 
# from the CCDC's data processing and validation procedures.
#
#######################################################################

data_EBHYUR
_chemical_formula_moiety         'C11 H20 N2 O2'
_chemical_name_systematic        
N-(6-Ethoxy-bicyclo(3.1.0)hex-6-yl)-N',N'-dimethylurea
_symmetry_cell_setting           monoclinic
_symmetry_space_group_name_H-M   'P 21/n'
_symmetry_Int_Tables_number      14
_space_group_name_Hall           '-P 2yn'
loop_
_symmetry_equiv_pos_site_id
_symmetry_equiv_pos_as_xyz
1 x,y,z
2 1/2-x,1/2+y,1/2-z
3 -x,-y,-z
4 1/2+x,1/2-y,1/2+z
_cell_length_a                   8.053(2)
_cell_length_b                   17.251(7)
_cell_length_c                   9.123(2)
_cell_angle_alpha                90
_cell_angle_beta                 107.11(2)
_cell_angle_gamma                90
_cell_volume                     1211.3
_exptl_crystal_colour            colorless
_chemical_melting_point          139deg.C
_cell_formula_units_Z            4
loop_
_atom_site_label
_atom_site_type_symbol
_atom_site_fract_x
_atom_site_fract_y
_atom_site_fract_z
O1 O 0.53066 0.11301 0.37924
O2 O 0.71611 0.27218 0.44402
N1 N 0.51887 0.22655 0.22890
N2 N 0.52956 0.35698 0.29176
C1 C 0.75051 0.12285 0.25030
C2 C 0.85161 0.17451 0.17343
C3 C 0.72911 0.19377 0.01586
C4 C 0.59208 0.12987 -0.02215
C5 C 0.58751 0.09675 0.12925
C6 C 0.57724 0.14860 0.25812
C7 C 0.59470 0.28454 0.32887
C8 C 0.38280 0.37501 0.16205
C9 C 0.60150 0.42067 0.39357
C10 C 0.34957 0.10241 0.35043
C11 C 0.31320 0.08270 0.49860
H1 H 0.43300 0.23330 0.15060
H2 H 0.80820 0.09160 0.32200
H3 H 0.89500 0.21910 0.23460
H4 H 0.95600 0.14600 0.16630
H5 H 0.67310 0.24720 0.01470
H6 H 0.78000 0.19940 -0.06810
H7 H 0.48130 0.14660 -0.08470
H8 H 0.62480 0.08840 -0.07740
H9 H 0.53660 0.04290 0.13590
H10 H 0.39400 0.42660 0.13600
H11 H 0.38200 0.34780 0.07100
H12 H 0.28600 0.34710 0.15900
H13 H 0.69800 0.40360 0.48600
H14 H 0.64200 0.45920 0.33900
H15 H 0.51100 0.44620 0.42600
H16 H 0.30570 0.06140 0.27530
H17 H 0.29080 0.14870 0.30790
H18 H 0.35700 0.12650 0.56700
H19 H 0.18800 0.08340 0.49100
H20 H 0.37500 0.03610 0.54500
loop_
_geom_bond_atom_site_label_1
_geom_bond_atom_site_label_2
_geom_bond_site_symmetry_1
_geom_bond_site_symmetry_2
O1 C6 1_555 1_555
O2 C7 1_555 1_555
N1 C6 1_555 1_555
N2 C7 1_555 1_555
C1 C2 1_555 1_555
C2 C3 1_555 1_555
C3 C4 1_555 1_555
C4 C5 1_555 1_555
C5 C1 1_555 1_555
C6 C1 1_555 1_555
C7 N1 1_555 1_555
C8 N2 1_555 1_555
C9 N2 1_555 1_555
C10 O1 1_555 1_555
C11 C10 1_555 1_555
H1 N1 1_555 1_555
H2 C1 1_555 1_555
H3 C2 1_555 1_555
H4 C2 1_555 1_555
H5 C3 1_555 1_555
H6 C3 1_555 1_555
H7 C4 1_555 1_555
H8 C4 1_555 1_555
H9 C5 1_555 1_555
H10 C8 1_555 1_555
H11 C8 1_555 1_555
H12 C8 1_555 1_555
H13 C9 1_555 1_555
H14 C9 1_555 1_555
H15 C9 1_555 1_555
H16 C10 1_555 1_555
H17 C10 1_555 1_555
H18 C11 1_555 1_555
H19 C11 1_555 1_555
H20 C11 1_555 1_555
C5 C6 1_555 1_555

#END
