
#######################################################################
#
#                 Cambridge Crystallographic Data Centre
#                                CCDC 
#
#######################################################################
#
# If this CIF has been generated from an entry in the Cambridge 
# Structural Database, then it will include bibliographic, chemical, 
# crystal, experimental, refinement or atomic coordinate data resulting 
# from the CCDC's data processing and validation procedures.
#
#######################################################################

data_EBIJUW
_chemical_formula_moiety         'C21 H30 N6 O4,2(C4 H8 O1)'
_chemical_name_systematic        
"5,5'-Methylenebis(N'-acetyl-4-ethyl-3-methyl-1H-pyrrole-2-carbohydrazide) tetrahydrofuran solvate"
_symmetry_cell_setting           monoclinic
_symmetry_space_group_name_H-M   'P 21/n'
_symmetry_Int_Tables_number      14
_space_group_name_Hall           '-P 2yn'
loop_
_symmetry_equiv_pos_site_id
_symmetry_equiv_pos_as_xyz
1 x,y,z
2 1/2-x,1/2+y,1/2-z
3 -x,-y,-z
4 1/2+x,1/2-y,1/2+z
_cell_length_a                   10.579(2)
_cell_length_b                   19.247(4)
_cell_length_c                   30.125(6)
_cell_angle_alpha                90
_cell_angle_beta                 94.26(3)
_cell_angle_gamma                90
_cell_volume                     6116.93
_cell_formula_units_Z            8
loop_
_atom_site_label
_atom_site_type_symbol
_atom_site_fract_x
_atom_site_fract_y
_atom_site_fract_z
O1 O 0.4029(3) 1.11981(15) 0.27624(13)
O2 O 0.5414(2) 0.95041(14) 0.33244(13)
O3 O 0.6649(3) 1.04580(15) 0.02831(13)
O4 O 0.4409(3) 1.11624(15) 0.09087(13)
N1 N 0.5592(3) 1.09149(17) 0.32929(15)
H1 H 0.5898 1.0968 0.3563
N2 N 0.6186(3) 1.04705(17) 0.30030(15)
H2 H 0.6616 1.0643 0.2798
N3 N 0.7707(3) 0.96345(17) 0.24865(15)
H3 H 0.7897 1.0068 0.2470
N4 N 0.7731(3) 0.96512(17) 0.13339(15)
H4 H 0.7081 0.9461 0.1440
N5 N 0.5459(3) 0.99070(17) 0.07722(15)
H5 H 0.5432 0.9626 0.0993
N6 N 0.4354(3) 1.01393(17) 0.05334(15)
H6 H 0.3953 0.9874 0.0341
C1 C 0.4032(4) 1.1733(2) 0.3485(2)
H13 H 0.4084 1.2207 0.3388
H14 H 0.4532 1.1676 0.3762
H15 H 0.3165 1.1619 0.3526
C2 C 0.4526(4) 1.1259(2) 0.3140(2)
C3 C 0.6086(4) 0.9771(2) 0.3044(2)
C4 C 0.6811(4) 0.9358(2) 0.27512(19)
C5 C 0.6772(4) 0.8638(2) 0.26772(18)
C6 C 0.7690(4) 0.8493(2) 0.23721(17)
C7 C 0.8241(4) 0.9115(2) 0.22567(18)
C8 C 0.5926(4) 0.8130(2) 0.28855(18)
H16 H 0.6227 0.8055 0.3190
H17 H 0.5928 0.7698 0.2727
H18 H 0.5079 0.8311 0.2874
C9 C 0.8018(4) 0.7790(2) 0.2181(2)
H19 H 0.8926 0.7719 0.2227
H20 H 0.7607 0.7429 0.2343
C10 C 0.7623(4) 0.7713(2) 0.1688(2)
H21 H 0.6719 0.7753 0.1641
H22 H 0.7885 0.7267 0.1586
H23 H 0.8017 0.8072 0.1524
C11 C 0.9287(4) 0.9263(2) 0.19587(18)
H24 H 0.9938 0.9527 0.2128
H25 H 0.9662 0.8824 0.1881
C12 C 0.8934(4) 0.9649(2) 0.15380(19)
C13 C 0.9708(4) 0.9989(2) 0.12576(19)
C14 C 0.8952(4) 1.0218(2) 0.08790(19)
C15 C 0.7713(4) 1.0003(2) 0.09325(18)
C16 C 1.1116(4) 1.0124(2) 0.1366(2)
H26 H 1.1453 0.9769 0.1570
H27 H 1.1551 1.0086 0.1095
C17 C 1.1392(4) 1.0835(2) 0.1573(2)
H28 H 1.1113 1.1191 0.1365
H29 H 1.2287 1.0881 0.1646
H30 H 1.0951 1.0881 0.1839
C18 C 0.9440(4) 1.0599(2) 0.0491(2)
H31 H 0.8783 1.0626 0.0254
H32 H 1.0155 1.0355 0.0389
H33 H 0.9693 1.1060 0.0581
C19 C 0.6595(4) 1.0150(2) 0.06367(19)
C20 C 0.3927(4) 1.0785(2) 0.06099(19)
C21 C 0.2828(4) 1.1023(2) 0.03036(19)
H34 H 0.2157 1.1181 0.0476
H35 H 0.2529 1.0643 0.0118
H36 H 0.3094 1.1397 0.0121
O5 O 0.7250(3) 0.10630(15) 0.22571(13)
O6 O 0.5211(2) -0.05141(14) 0.16534(12)
O7 O 0.3964(2) 0.06301(15) 0.46866(13)
O8 O 0.6932(3) 0.09980(15) 0.41188(13)
N7 N 0.5649(3) 0.08793(17) 0.17263(15)
H7 H 0.5367 0.0946 0.1454
N8 N 0.4903(3) 0.05109(17) 0.20121(16)
H8 H 0.4592 0.0720 0.2232
N9 N 0.3048(3) -0.01575(18) 0.25016(15)
H9 H 0.3124 0.0276 0.2568
N10 N 0.2846(3) -0.00639(17) 0.36092(15)
H10 H 0.3449 -0.0315 0.3520
N11 N 0.5088(3) 0.00392(17) 0.42002(15)
H11 H 0.5105 -0.0175 0.3950
N12 N 0.6174(3) 0.00817(17) 0.44943(15)
H12 H 0.6302 -0.0217 0.4705
C22 C 0.7446(4) 0.1522(2) 0.1515(2)
H37 H 0.7543 0.2001 0.1602
H38 H 0.6940 0.1493 0.1238
H39 H 0.8264 0.1322 0.1482
C23 C 0.6800(4) 0.1131(2) 0.1869(2)
C24 C 0.4674(4) -0.0179(2) 0.19418(18)
C25 C 0.3756(4) -0.0508(2) 0.22032(19)
C26 C 0.3346(4) -0.1196(2) 0.21885(19)
C27 C 0.2381(4) -0.1253(2) 0.24868(18)
C28 C 0.2215(4) -0.0606(2) 0.26725(18)
C29 C 0.3802(4) -0.1773(2) 0.1904(2)
H40 H 0.3514 -0.1692 0.1599
H41 H 0.3471 -0.2208 0.2000
H42 H 0.4712 -0.1788 0.1932
C30 C 0.1649(4) -0.1907(2) 0.25839(19)
H43 H 0.1486 -0.2167 0.2310
H44 H 0.0837 -0.1776 0.2688
C31 C 0.2343(5) -0.2378(2) 0.2931(2)
H45 H 0.3100 -0.2556 0.2815
H46 H 0.1802 -0.2757 0.2999
H47 H 0.2564 -0.2116 0.3196
C32 C 0.1256(4) -0.0360(2) 0.29756(19)
H48 H 0.0658 -0.0067 0.2803
H49 H 0.0789 -0.0764 0.3066
C33 C 0.1686(4) 0.0025(2) 0.33817(18)
C34 C 0.0987(4) 0.0470(2) 0.36378(18)
C35 C 0.1743(4) 0.0641(2) 0.40234(19)
C36 C 0.2908(4) 0.0309(2) 0.40034(18)
C37 C -0.0325(4) 0.0714(2) 0.34809(19)
H50 H -0.0780 0.0837 0.3738
H51 H -0.0778 0.0336 0.3327
C38 C -0.0312(5) 0.1335(3) 0.3172(2)
H52 H 0.0083 0.1721 0.3328
H53 H -0.1167 0.1455 0.3071
H54 H 0.0154 0.1221 0.2920
C39 C 0.1378(4) 0.1124(2) 0.43817(19)
H55 H 0.0535 0.1294 0.4310
H56 H 0.1959 0.1508 0.4405
H57 H 0.1408 0.0880 0.4660
C40 C 0.3998(4) 0.0348(2) 0.43204(19)
C41 C 0.7022(4) 0.0601(2) 0.4442(2)
C42 C 0.8092(4) 0.0631(2) 0.4803(2)
H58 H 0.8844 0.0437 0.4693
H59 H 0.7865 0.0370 0.5056
H60 H 0.8247 0.1106 0.4888
O9 O 0.5810(3) 0.73835(16) 0.01493(14)
C43 C 0.6141(4) 0.7584(2) 0.0597(2)
H61 H 0.6870 0.7891 0.0611
H62 H 0.6348 0.7179 0.0779
C44 C 0.4994(4) 0.7958(2) 0.0760(2)
H63 H 0.5244 0.8321 0.0972
H64 H 0.4426 0.7637 0.0894
C45 C 0.4394(4) 0.8257(2) 0.0326(2)
H65 H 0.4802 0.8687 0.0249
H66 H 0.3495 0.8339 0.0343
C46 C 0.4630(4) 0.7685(2) -0.0009(2)
H67 H 0.3957 0.7342 -0.0018
H68 H 0.4681 0.7877 -0.0305
O10 O 0.1643(3) 0.77758(17) 0.07466(15)
C47 C 0.1065(5) 0.8418(2) 0.0861(2)
H69 H 0.1554 0.8805 0.0759
H70 H 0.1048 0.8453 0.1182
C48 C -0.0263(4) 0.8448(3) 0.0647(2)
H71 H -0.0343 0.8804 0.0419
H72 H -0.0870 0.8540 0.0866
C49 C -0.0453(4) 0.7726(2) 0.0447(2)
H73 H -0.0846 0.7416 0.0650
H74 H -0.0971 0.7744 0.0168
C50 C 0.0879(4) 0.7501(3) 0.0376(2)
H75 H 0.0938 0.6998 0.0369
H76 H 0.1146 0.7686 0.0099
O11 O 0.0856(3) 0.21907(16) 0.06938(15)
C51 C -0.0180(5) 0.2504(2) 0.0898(2)
H77 H -0.0095 0.2433 0.1218
H78 H -0.0978 0.2304 0.0781
C52 C -0.0135(5) 0.3277(2) 0.0789(3)
H79 H -0.0759 0.3395 0.0549
H80 H -0.0287 0.3556 0.1048
C53 C 0.1186(5) 0.3384(3) 0.0652(3)
H81 H 0.1164 0.3539 0.0345
H82 H 0.1624 0.3731 0.0839
C54 C 0.1846(5) 0.2699(2) 0.0704(2)
H83 H 0.2387 0.2622 0.0462
H84 H 0.2359 0.2679 0.0984
O12 O 0.4492(4) 0.3510(2) 0.1282(2)
C55 C 0.5521(6) 0.3067(3) 0.1352(3)
H85 H 0.5298 0.2609 0.1237
H86 H 0.5753 0.3025 0.1668
C56 C 0.6601(5) 0.3343(4) 0.1124(3)
H87 H 0.6953 0.2994 0.0937
H88 H 0.7263 0.3515 0.1336
C57 C 0.5979(5) 0.3941(3) 0.0843(3)
H89 H 0.6180 0.4390 0.0977
H90 H 0.6245 0.3936 0.0541
C58 C 0.4600(5) 0.3778(3) 0.0851(3)
H91 H 0.4088 0.4193 0.0802
H92 H 0.4338 0.3437 0.0626
loop_
_geom_bond_atom_site_label_1
_geom_bond_atom_site_label_2
_geom_bond_site_symmetry_1
_geom_bond_site_symmetry_2
O1 C2 1_555 1_555
O2 C3 1_555 1_555
O3 C19 1_555 1_555
O4 C20 1_555 1_555
O5 C23 1_555 1_555
O6 C24 1_555 1_555
O7 C40 1_555 1_555
O8 C41 1_555 1_555
N1 H1 1_555 1_555
N2 N1 1_555 1_555
H2 N2 1_555 1_555
N3 H3 1_555 1_555
N4 H4 1_555 1_555
N5 H5 1_555 1_555
N6 N5 1_555 1_555
H6 N6 1_555 1_555
N7 H7 1_555 1_555
N8 N7 1_555 1_555
H8 N8 1_555 1_555
N9 H9 1_555 1_555
N10 H10 1_555 1_555
N11 H11 1_555 1_555
N12 N11 1_555 1_555
H12 N12 1_555 1_555
C1 H13 1_555 1_555
H14 C1 1_555 1_555
H15 C1 1_555 1_555
C2 N1 1_555 1_555
C3 N2 1_555 1_555
C4 N3 1_555 1_555
C5 C4 1_555 1_555
C6 C5 1_555 1_555
C7 N3 1_555 1_555
C8 C5 1_555 1_555
H16 C8 1_555 1_555
H17 C8 1_555 1_555
H18 C8 1_555 1_555
C9 C6 1_555 1_555
H19 C9 1_555 1_555
H20 C9 1_555 1_555
C10 C9 1_555 1_555
H21 C10 1_555 1_555
H22 C10 1_555 1_555
H23 C10 1_555 1_555
C11 C7 1_555 1_555
H24 C11 1_555 1_555
H25 C11 1_555 1_555
C12 N4 1_555 1_555
C13 C12 1_555 1_555
C14 C13 1_555 1_555
C15 N4 1_555 1_555
C16 C13 1_555 1_555
H26 C16 1_555 1_555
H27 C16 1_555 1_555
C17 C16 1_555 1_555
H28 C17 1_555 1_555
H29 C17 1_555 1_555
H30 C17 1_555 1_555
C18 C14 1_555 1_555
H31 C18 1_555 1_555
H32 C18 1_555 1_555
H33 C18 1_555 1_555
C19 N5 1_555 1_555
C20 N6 1_555 1_555
C21 C20 1_555 1_555
H34 C21 1_555 1_555
H35 C21 1_555 1_555
H36 C21 1_555 1_555
C22 H37 1_555 1_555
H38 C22 1_555 1_555
H39 C22 1_555 1_555
C23 N7 1_555 1_555
C24 N8 1_555 1_555
C25 N9 1_555 1_555
C26 C25 1_555 1_555
C27 C26 1_555 1_555
C28 N9 1_555 1_555
C29 C26 1_555 1_555
H40 C29 1_555 1_555
H41 C29 1_555 1_555
H42 C29 1_555 1_555
C30 C27 1_555 1_555
H43 C30 1_555 1_555
H44 C30 1_555 1_555
C31 C30 1_555 1_555
H45 C31 1_555 1_555
H46 C31 1_555 1_555
H47 C31 1_555 1_555
C32 C28 1_555 1_555
H48 C32 1_555 1_555
H49 C32 1_555 1_555
C33 N10 1_555 1_555
C34 C33 1_555 1_555
C35 C34 1_555 1_555
C36 N10 1_555 1_555
C37 C34 1_555 1_555
H50 C37 1_555 1_555
H51 C37 1_555 1_555
C38 C37 1_555 1_555
H52 C38 1_555 1_555
H53 C38 1_555 1_555
H54 C38 1_555 1_555
C39 C35 1_555 1_555
H55 C39 1_555 1_555
H56 C39 1_555 1_555
H57 C39 1_555 1_555
C40 N11 1_555 1_555
C41 N12 1_555 1_555
C42 C41 1_555 1_555
H58 C42 1_555 1_555
H59 C42 1_555 1_555
H60 C42 1_555 1_555
O9 C43 1_555 1_555
C43 H61 1_555 1_555
H62 C43 1_555 1_555
C44 C43 1_555 1_555
H63 C44 1_555 1_555
H64 C44 1_555 1_555
C45 C44 1_555 1_555
H65 C45 1_555 1_555
H66 C45 1_555 1_555
C46 O9 1_555 1_555
H67 C46 1_555 1_555
H68 C46 1_555 1_555
O10 C47 1_555 1_555
C47 H69 1_555 1_555
H70 C47 1_555 1_555
C48 C47 1_555 1_555
H71 C48 1_555 1_555
H72 C48 1_555 1_555
C49 C48 1_555 1_555
H73 C49 1_555 1_555
H74 C49 1_555 1_555
C50 O10 1_555 1_555
H75 C50 1_555 1_555
H76 C50 1_555 1_555
O11 C51 1_555 1_555
C51 H77 1_555 1_555
H78 C51 1_555 1_555
C52 C51 1_555 1_555
H79 C52 1_555 1_555
H80 C52 1_555 1_555
C53 C52 1_555 1_555
H81 C53 1_555 1_555
H82 C53 1_555 1_555
C54 O11 1_555 1_555
H83 C54 1_555 1_555
H84 C54 1_555 1_555
O12 C55 1_555 1_555
C55 H85 1_555 1_555
H86 C55 1_555 1_555
C56 C55 1_555 1_555
H87 C56 1_555 1_555
H88 C56 1_555 1_555
C57 C56 1_555 1_555
H89 C57 1_555 1_555
H90 C57 1_555 1_555
C58 O12 1_555 1_555
H91 C58 1_555 1_555
H92 C58 1_555 1_555
C1 C2 1_555 1_555
C3 C4 1_555 1_555
C6 C7 1_555 1_555
C11 C12 1_555 1_555
C14 C15 1_555 1_555
C15 C19 1_555 1_555
C22 C23 1_555 1_555
C24 C25 1_555 1_555
C27 C28 1_555 1_555
C32 C33 1_555 1_555
C35 C36 1_555 1_555
C36 C40 1_555 1_555
C45 C46 1_555 1_555
C49 C50 1_555 1_555
C53 C54 1_555 1_555
C57 C58 1_555 1_555

#END
