
#######################################################################
#
#                 Cambridge Crystallographic Data Centre
#                                CCDC 
#
#######################################################################
#
# If this CIF has been generated from an entry in the Cambridge 
# Structural Database, then it will include bibliographic, chemical, 
# crystal, experimental, refinement or atomic coordinate data resulting 
# from the CCDC's data processing and validation procedures.
#
#######################################################################

data_EBOJIR
_chemical_formula_moiety         'C32 H23 N3'
_chemical_name_systematic        
N-(4-(2-(4-(9H-carbazol-9-yl)phenyl)vinyl)phenyl)-1-(pyridin-3-yl)methanimine
_chemical_properties_biological  
'cytotoxic effect against HeLa cells was tested, showed low cyctotoxicity.'
_symmetry_cell_setting           monoclinic
_symmetry_space_group_name_H-M   'C 2/c'
_symmetry_Int_Tables_number      15
_space_group_name_Hall           '-C 2yn'
loop_
_symmetry_equiv_pos_site_id
_symmetry_equiv_pos_as_xyz
1 x,y,z
2 -x,y,1/2-z
3 1/2+x,1/2+y,z
4 1/2-x,1/2+y,1/2-z
5 -x,-y,-z
6 x,-y,1/2+z
7 1/2-x,1/2-y,-z
8 1/2+x,1/2-y,1/2+z
_cell_length_a                   37.005(8)
_cell_length_b                   11.212(2)
_cell_length_c                   45.528(10)
_cell_angle_alpha                90
_cell_angle_beta                 91.208(3)
_cell_angle_gamma                90
_cell_volume                     18885.4
_exptl_crystal_colour            yellow
_exptl_crystal_description       block
_cell_formula_units_Z            32
loop_
_atom_site_label
_atom_site_type_symbol
_atom_site_fract_x
_atom_site_fract_y
_atom_site_fract_z
C1 C 0.62191(18) 1.2975(5) 0.79596(11)
C2 C 0.6035(2) 1.3768(6) 0.77637(13)
H1 H 0.6165 1.4276 0.7644
C3 C 0.5664(2) 1.3773(7) 0.77540(14)
H2 H 0.5541 1.4296 0.7629
C4 C 0.54720(19) 1.2995(6) 0.79313(14)
H3 H 0.5221 1.3000 0.7920
C5 C 0.56438(17) 1.2220(5) 0.81225(13)
H4 H 0.5513 1.1710 0.8241
C6 C 0.60225(17) 1.2227(5) 0.81318(11)
C7 C 0.65950(17) 1.2799(5) 0.80197(11)
C8 C 0.66117(16) 1.1918(5) 0.82364(11)
C9 C 0.69419(18) 1.1499(6) 0.83469(13)
H5 H 0.6952 1.0914 0.8492
C10 C 0.72509(19) 1.1976(7) 0.82353(16)
H6 H 0.7474 1.1714 0.8307
C11 C 0.7239(2) 1.2826(7) 0.80210(16)
H7 H 0.7454 1.3113 0.7947
C12 C 0.6915(2) 1.3272(6) 0.79106(12)
H8 H 0.6910 1.3868 0.7768
C13 C 0.61726(15) 1.0877(5) 0.85494(12)
C14 C 0.59388(16) 0.9922(5) 0.85238(13)
H9 H 0.5836 0.9722 0.8342
C15 C 0.58570(18) 0.9256(5) 0.87747(16)
H10 H 0.5696 0.8621 0.8759
C16 C 0.6013(2) 0.9531(6) 0.90454(14)
C17 C 0.6250(2) 1.0455(7) 0.90596(14)
H11 H 0.6364 1.0633 0.9238
C18 C 0.63258(19) 1.1123(5) 0.88208(12)
H12 H 0.6485 1.1762 0.8841
C19 C 0.5971(2) 0.8891(6) 0.93104(18)
H13 H 0.6159 0.9033 0.9444
C20 C 0.5748(2) 0.8199(6) 0.94058(16)
H14 H 0.5561 0.8056 0.9271
C21 C 0.57004(18) 0.7538(5) 0.96786(12)
C22 C 0.53615(17) 0.7191(5) 0.97519(11)
H15 H 0.5168 0.7424 0.9632
C23 C 0.52931(14) 0.6509(4) 0.99961(10)
H16 H 0.5057 0.6305 1.0039
C24 C 0.55780(13) 0.6124(4) 1.01792(9)
C25 C 0.59238(13) 0.6466(4) 1.01068(10)
H17 H 0.6119 0.6220 1.0224
C26 C 0.59831(15) 0.7168(5) 0.98633(12)
H18 H 0.6218 0.7399 0.9822
C27 C 0.52512(13) 0.5225(4) 1.05538(10)
H19 H 0.5044 0.5597 1.0479
C28 C 0.52222(12) 0.4472(4) 1.08103(10)
C29 C 0.48951(13) 0.4237(5) 1.09360(12)
H20 H 0.4691 0.4585 1.0849
C30 C 0.55215(12) 0.3932(4) 1.09439(10)
H21 H 0.5751 0.4037 1.0868
C31 C 0.54752(14) 0.3244(5) 1.11889(11)
H22 H 0.5673 0.2888 1.1282
C32 C 0.51385(15) 0.3087(5) 1.12940(11)
H23 H 0.5114 0.2623 1.1462
N1 N 0.62624(12) 1.1568(4) 0.83037(9)
N2 N 0.55470(10) 0.5393(3) 1.04282(8)
N3 N 0.48439(12) 0.3550(4) 1.11730(10)
C33 C 0.35954(15) 1.0803(5) 0.78912(10)
C34 C 0.34513(14) 0.9973(4) 0.80900(10)
C35 C 0.30841(14) 0.9803(5) 0.81185(11)
H24 H 0.2993 0.9261 0.8253
C36 C 0.28603(16) 1.0473(5) 0.79389(12)
H25 H 0.2611 1.0382 0.7953
C37 C 0.29937(18) 1.1276(6) 0.77394(13)
H26 H 0.2834 1.1703 0.7619
C38 C 0.33566(18) 1.1452(5) 0.77162(12)
H27 H 0.3443 1.2007 0.7583
C39 C 0.39785(15) 1.0771(5) 0.79290(11)
C40 C 0.40560(14) 0.9940(5) 0.81498(11)
C41 C 0.44069(16) 0.9672(6) 0.82333(13)
H28 H 0.4457 0.9122 0.8381
C42 C 0.46830(18) 1.0253(7) 0.80885(15)
H29 H 0.4922 1.0089 0.8141
C43 C 0.46110(19) 1.1063(7) 0.78695(15)
H30 H 0.4801 1.1430 0.7774
C44 C 0.42628(19) 1.1335(6) 0.77898(13)
H31 H 0.4216 1.1895 0.7643
C45 C 0.36939(13) 0.8723(5) 0.84993(10)
C46 C 0.35112(14) 0.7649(4) 0.84800(11)
H32 H 0.3428 0.7370 0.8298
C47 C 0.34523(13) 0.6995(4) 0.87293(10)
H33 H 0.3330 0.6272 0.8715
C48 C 0.35741(12) 0.7402(5) 0.90039(10)
C49 C 0.37641(13) 0.8454(5) 0.90168(11)
H34 H 0.3853 0.8722 0.9198
C50 C 0.38254(13) 0.9121(4) 0.87707(10)
H35 H 0.3954 0.9832 0.8785
C51 C 0.34964(13) 0.6783(5) 0.92793(11)
H36 H 0.3583 0.7140 0.9451
C52 C 0.33180(13) 0.5780(5) 0.93093(11)
H37 H 0.3240 0.5401 0.9138
C53 C 0.32279(12) 0.5192(4) 0.95907(11)
C54 C 0.30715(13) 0.4071(4) 0.95873(10)
H38 H 0.3025 0.3703 0.9408
C55 C 0.29836(12) 0.3488(4) 0.98400(10)
H39 H 0.2884 0.2727 0.9829
C56 C 0.30421(12) 0.4021(4) 1.01132(10)
C57 C 0.31900(12) 0.5160(4) 1.01178(10)
H40 H 0.3226 0.5546 1.0297
C58 C 0.32839(12) 0.5725(4) 0.98624(11)
H41 H 0.3387 0.6481 0.9872
C59 C 0.29489(13) 0.2457(5) 1.04265(11)
H42 H 0.3045 0.1960 1.0285
C60 C 0.28171(13) 0.1934(5) 1.07029(10)
C61 C 0.28418(19) 0.0754(5) 1.07489(13)
H43 H 0.2954 0.0292 1.0608
C62 C 0.26597(15) 0.2600(5) 1.09156(12)
H44 H 0.2643 0.3423 1.0893
C63 C 0.25277(16) 0.2080(7) 1.11580(12)
H45 H 0.2419 0.2533 1.1303
C64 C 0.2557(2) 0.0891(8) 1.11855(14)
H46 H 0.2463 0.0535 1.1352
N4 N 0.37340(11) 0.9453(4) 0.82479(8)
N5 N 0.29333(11) 0.3539(4) 1.03811(8)
N6 N 0.2712(2) 0.0197(5) 1.09899(13)
C65 C 0.37057(18) 0.5398(5) 0.79322(12)
C66 C 0.35095(16) 0.4667(5) 0.81189(11)
C67 C 0.31341(17) 0.4635(5) 0.81107(13)
H47 H 0.3006 0.4155 0.8238
C68 C 0.2959(2) 0.5351(6) 0.79038(16)
H48 H 0.2708 0.5354 0.7894
C69 C 0.3149(2) 0.6057(6) 0.77131(15)
H49 H 0.3025 0.6514 0.7573
C70 C 0.3519(2) 0.6088(6) 0.77289(14)
H50 H 0.3645 0.6578 0.7602
C71 C 0.40800(16) 0.5232(5) 0.80056(13)
C72 C 0.41027(16) 0.4417(5) 0.82367(12)
C73 C 0.44325(17) 0.4036(6) 0.83558(13)
H51 H 0.4443 0.3485 0.8508
C74 C 0.47397(19) 0.4502(7) 0.82398(16)
H52 H 0.4964 0.4269 0.8316
C75 C 0.4722(2) 0.5303(7) 0.80150(17)
H53 H 0.4937 0.5593 0.7941
C76 C 0.4402(2) 0.5702(6) 0.78927(14)
H54 H 0.4398 0.6259 0.7741
C77 C 0.36655(15) 0.3386(5) 0.85558(12)
C78 C 0.34294(15) 0.2443(5) 0.85342(12)
H55 H 0.3320 0.2244 0.8355
C79 C 0.33551(16) 0.1774(5) 0.87926(14)
H56 H 0.3190 0.1148 0.8783
C80 C 0.35271(19) 0.2048(6) 0.90602(13)
C81 C 0.3759(2) 0.2983(6) 0.90689(13)
H57 H 0.3875 0.3177 0.9246
C82 C 0.38257(17) 0.3645(5) 0.88265(12)
H58 H 0.3983 0.4290 0.8842
C83 C 0.34802(19) 0.1349(6) 0.93387(14)
H59 H 0.3663 0.1425 0.9481
C84 C 0.32329(18) 0.0702(6) 0.93984(14)
H60 H 0.3050 0.0617 0.9257
C85 C 0.31914(17) 0.0021(5) 0.96791(12)
C86 C 0.28496(15) -0.0331(5) 0.97543(11)
H61 H 0.2654 -0.0104 0.9636
C87 C 0.27885(14) -0.1011(5) 1.00002(10)
H62 H 0.2553 -0.1227 1.0045
C88 C 0.30747(12) -0.1380(4) 1.01825(9)
C89 C 0.34179(13) -0.1038(4) 1.01075(10)
H63 H 0.3614 -0.1277 1.0224
C90 C 0.34757(15) -0.0346(5) 0.98623(12)
H64 H 0.3710 -0.0120 0.9818
C91 C 0.27509(13) -0.2288(4) 1.05592(10)
H65 H 0.2542 -0.1931 1.0483
C92 C 0.27235(12) -0.3042(4) 1.08187(10)
C93 C 0.23945(13) -0.3273(5) 1.09436(11)
H66 H 0.2191 -0.2925 1.0857
C94 C 0.30226(12) -0.3562(4) 1.09504(10)
H67 H 0.3251 -0.3453 1.0873
C95 C 0.29781(14) -0.4245(5) 1.11984(11)
H68 H 0.3177 -0.4584 1.1295
C96 C 0.26422(15) -0.4415(5) 1.12984(11)
H69 H 0.2617 -0.4891 1.1464
N7 N 0.37499(12) 0.4072(4) 0.83069(9)
N8 N 0.30458(10) -0.2103(4) 1.04345(8)
N9 N 0.23467(12) -0.3953(4) 1.11783(10)
C97 C 0.35262(14) 0.1829(5) 0.20925(11)
C98 C 0.34482(13) 0.2587(5) 0.18564(11)
C99 C 0.30932(14) 0.2807(5) 0.17635(13)
H70 H 0.3041 0.3307 0.1605
C100 C 0.28250(16) 0.2256(6) 0.19155(15)
H71 H 0.2586 0.2389 0.1859
C101 C 0.28982(19) 0.1511(7) 0.21489(15)
H72 H 0.2709 0.1154 0.2247
C102 C 0.32485(17) 0.1288(6) 0.22394(13)
H73 H 0.3297 0.0782 0.2397
C103 C 0.39171(14) 0.1835(5) 0.21315(11)
C104 C 0.40548(13) 0.2590(4) 0.19176(10)
C105 C 0.44220(13) 0.2756(5) 0.18865(11)
H74 H 0.4513 0.3258 0.1743
C106 C 0.46456(16) 0.2139(5) 0.20785(13)
H75 H 0.4894 0.2225 0.2063
C107 C 0.45126(18) 0.1391(6) 0.22947(14)
H76 H 0.4672 0.0989 0.2421
C108 C 0.41490(18) 0.1249(6) 0.23212(12)
H77 H 0.4059 0.0757 0.2467
C109 C 0.38077(12) 0.3752(4) 0.14918(10)
C110 C 0.36720(12) 0.3371(4) 0.12245(10)
H78 H 0.3541 0.2665 0.1212
C111 C 0.37304(12) 0.4032(4) 0.09754(10)
H79 H 0.3636 0.3765 0.0796
C112 C 0.39255(12) 0.5082(4) 0.09846(10)
C113 C 0.40528(13) 0.5474(4) 0.12584(10)
H80 H 0.4180 0.6189 0.1272
C114 C 0.39944(13) 0.4826(4) 0.15070(11)
H81 H 0.4080 0.5106 0.1688
C115 C 0.39984(12) 0.5711(4) 0.07120(10)
H82 H 0.3907 0.5360 0.0541
C116 C 0.41754(13) 0.6706(5) 0.06781(10)
H83 H 0.4253 0.7083 0.0850
C117 C 0.42683(12) 0.7304(4) 0.04054(10)
C118 C 0.42128(12) 0.6769(4) 0.01307(10)
H84 H 0.4110 0.6014 0.0119
C119 C 0.43082(12) 0.7342(4) -0.01213(10)
H85 H 0.4272 0.6960 -0.0301
C120 C 0.44568(12) 0.8469(4) -0.01169(10)
C121 C 0.45167(12) 0.9007(4) 0.01540(10)
H86 H 0.4619 0.9764 0.0163
C122 C 0.44266(12) 0.8432(4) 0.04086(10)
H87 H 0.4472 0.8806 0.0588
C123 C 0.45507(13) 1.0051(5) -0.04314(11)
H88 H 0.4453 1.0545 -0.0290
C124 C 0.46841(13) 1.0580(5) -0.07050(10)
C125 C 0.46603(19) 1.1764(5) -0.07519(13)
H89 H 0.4550 1.2227 -0.0610
C126 C 0.48438(15) 0.9915(5) -0.09168(11)
H90 H 0.4861 0.9092 -0.0895
C127 C 0.49758(18) 1.0446(7) -0.11561(13)
H91 H 0.5088 0.9994 -0.1299
C128 C 0.4945(2) 1.1629(8) -0.11882(14)
H92 H 0.5038 1.1983 -0.1355
N10 N 0.37688(10) 0.3049(4) 0.17490(8)
N11 N 0.45660(11) 0.8955(4) -0.03861(9)
N12 N 0.4786(2) 1.2321(5) -0.09915(13)
loop_
_geom_bond_atom_site_label_1
_geom_bond_atom_site_label_2
_geom_bond_site_symmetry_1
_geom_bond_site_symmetry_2
C1 C2 1_555 1_555
C2 H1 1_555 1_555
C3 C2 1_555 1_555
H2 C3 1_555 1_555
C4 C3 1_555 1_555
H3 C4 1_555 1_555
C5 C4 1_555 1_555
H4 C5 1_555 1_555
C6 C1 1_555 1_555
C7 C1 1_555 1_555
C8 C7 1_555 1_555
C9 C8 1_555 1_555
H5 C9 1_555 1_555
C10 C9 1_555 1_555
H6 C10 1_555 1_555
C11 C10 1_555 1_555
H7 C11 1_555 1_555
C12 C7 1_555 1_555
H8 C12 1_555 1_555
C13 C14 1_555 1_555
C14 H9 1_555 1_555
C15 C14 1_555 1_555
H10 C15 1_555 1_555
C16 C15 1_555 1_555
C17 C16 1_555 1_555
H11 C17 1_555 1_555
C18 C13 1_555 1_555
H12 C18 1_555 1_555
C19 C16 1_555 1_555
H13 C19 1_555 1_555
C20 C19 1_555 1_555
H14 C20 1_555 1_555
C21 C20 1_555 1_555
C22 C21 1_555 1_555
H15 C22 1_555 1_555
C23 C22 1_555 1_555
H16 C23 1_555 1_555
C24 C23 1_555 1_555
C25 C24 1_555 1_555
H17 C25 1_555 1_555
C26 C21 1_555 1_555
H18 C26 1_555 1_555
C27 H19 1_555 1_555
C28 C27 1_555 1_555
C29 C28 1_555 1_555
H20 C29 1_555 1_555
C30 C28 1_555 1_555
H21 C30 1_555 1_555
C31 C30 1_555 1_555
H22 C31 1_555 1_555
C32 C31 1_555 1_555
H23 C32 1_555 1_555
N1 C6 1_555 1_555
N2 C24 1_555 1_555
N3 C29 1_555 1_555
C33 C34 1_555 1_555
C34 C35 1_555 1_555
C35 H24 1_555 1_555
C36 C35 1_555 1_555
H25 C36 1_555 1_555
C37 C36 1_555 1_555
H26 C37 1_555 1_555
C38 C33 1_555 1_555
H27 C38 1_555 1_555
C39 C33 1_555 1_555
C40 C39 1_555 1_555
C41 C40 1_555 1_555
H28 C41 1_555 1_555
C42 C41 1_555 1_555
H29 C42 1_555 1_555
C43 C42 1_555 1_555
H30 C43 1_555 1_555
C44 C39 1_555 1_555
H31 C44 1_555 1_555
C45 C46 1_555 1_555
C46 H32 1_555 1_555
C47 C46 1_555 1_555
H33 C47 1_555 1_555
C48 C47 1_555 1_555
C49 C48 1_555 1_555
H34 C49 1_555 1_555
C50 C45 1_555 1_555
H35 C50 1_555 1_555
C51 C48 1_555 1_555
H36 C51 1_555 1_555
C52 C51 1_555 1_555
H37 C52 1_555 1_555
C53 C52 1_555 1_555
C54 C53 1_555 1_555
H38 C54 1_555 1_555
C55 C54 1_555 1_555
H39 C55 1_555 1_555
C56 C55 1_555 1_555
C57 C56 1_555 1_555
H40 C57 1_555 1_555
C58 C53 1_555 1_555
H41 C58 1_555 1_555
C59 H42 1_555 1_555
C60 C59 1_555 1_555
C61 C60 1_555 1_555
H43 C61 1_555 1_555
C62 C60 1_555 1_555
H44 C62 1_555 1_555
C63 C62 1_555 1_555
H45 C63 1_555 1_555
C64 C63 1_555 1_555
H46 C64 1_555 1_555
N4 C34 1_555 1_555
N5 C56 1_555 1_555
N6 C61 1_555 1_555
C65 C66 1_555 1_555
C66 C67 1_555 1_555
C67 H47 1_555 1_555
C68 C67 1_555 1_555
H48 C68 1_555 1_555
C69 C68 1_555 1_555
H49 C69 1_555 1_555
C70 C65 1_555 1_555
H50 C70 1_555 1_555
C71 C65 1_555 1_555
C72 C71 1_555 1_555
C73 C72 1_555 1_555
H51 C73 1_555 1_555
C74 C73 1_555 1_555
H52 C74 1_555 1_555
C75 C74 1_555 1_555
H53 C75 1_555 1_555
C76 C71 1_555 1_555
H54 C76 1_555 1_555
C77 C78 1_555 1_555
C78 H55 1_555 1_555
C79 C78 1_555 1_555
H56 C79 1_555 1_555
C80 C79 1_555 1_555
C81 C80 1_555 1_555
H57 C81 1_555 1_555
C82 C77 1_555 1_555
H58 C82 1_555 1_555
C83 C80 1_555 1_555
H59 C83 1_555 1_555
C84 C83 1_555 1_555
H60 C84 1_555 1_555
C85 C84 1_555 1_555
C86 C85 1_555 1_555
H61 C86 1_555 1_555
C87 C86 1_555 1_555
H62 C87 1_555 1_555
C88 C87 1_555 1_555
C89 C88 1_555 1_555
H63 C89 1_555 1_555
C90 C85 1_555 1_555
H64 C90 1_555 1_555
C91 H65 1_555 1_555
C92 C91 1_555 1_555
C93 C92 1_555 1_555
H66 C93 1_555 1_555
C94 C92 1_555 1_555
H67 C94 1_555 1_555
C95 C94 1_555 1_555
H68 C95 1_555 1_555
C96 C95 1_555 1_555
H69 C96 1_555 1_555
N7 C66 1_555 1_555
N8 C88 1_555 1_555
N9 C93 1_555 1_555
C97 C98 1_555 1_555
C98 C99 1_555 1_555
C99 H70 1_555 1_555
C100 C99 1_555 1_555
H71 C100 1_555 1_555
C101 C100 1_555 1_555
H72 C101 1_555 1_555
C102 C97 1_555 1_555
H73 C102 1_555 1_555
C103 C97 1_555 1_555
C104 C103 1_555 1_555
C105 C104 1_555 1_555
H74 C105 1_555 1_555
C106 C105 1_555 1_555
H75 C106 1_555 1_555
C107 C106 1_555 1_555
H76 C107 1_555 1_555
C108 C103 1_555 1_555
H77 C108 1_555 1_555
C109 C110 1_555 1_555
C110 H78 1_555 1_555
C111 C110 1_555 1_555
H79 C111 1_555 1_555
C112 C111 1_555 1_555
C113 C112 1_555 1_555
H80 C113 1_555 1_555
C114 C109 1_555 1_555
H81 C114 1_555 1_555
C115 C112 1_555 1_555
H82 C115 1_555 1_555
C116 C115 1_555 1_555
H83 C116 1_555 1_555
C117 C116 1_555 1_555
C118 C117 1_555 1_555
H84 C118 1_555 1_555
C119 C118 1_555 1_555
H85 C119 1_555 1_555
C120 C119 1_555 1_555
C121 C120 1_555 1_555
H86 C121 1_555 1_555
C122 C117 1_555 1_555
H87 C122 1_555 1_555
C123 H88 1_555 1_555
C124 C123 1_555 1_555
C125 C124 1_555 1_555
H89 C125 1_555 1_555
C126 C124 1_555 1_555
H90 C126 1_555 1_555
C127 C126 1_555 1_555
H91 C127 1_555 1_555
C128 C127 1_555 1_555
H92 C128 1_555 1_555
N10 C98 1_555 1_555
N11 C120 1_555 1_555
N12 C125 1_555 1_555
C5 C6 1_555 1_555
C8 N1 1_555 1_555
C11 C12 1_555 1_555
C13 N1 1_555 1_555
C17 C18 1_555 1_555
C25 C26 1_555 1_555
C27 N2 1_555 1_555
C32 N3 1_555 1_555
C37 C38 1_555 1_555
C40 N4 1_555 1_555
C43 C44 1_555 1_555
C45 N4 1_555 1_555
C49 C50 1_555 1_555
C57 C58 1_555 1_555
C59 N5 1_555 1_555
C64 N6 1_555 1_555
C69 C70 1_555 1_555
C72 N7 1_555 1_555
C75 C76 1_555 1_555
C77 N7 1_555 1_555
C81 C82 1_555 1_555
C89 C90 1_555 1_555
C91 N8 1_555 1_555
C96 N9 1_555 1_555
C101 C102 1_555 1_555
C104 N10 1_555 1_555
C107 C108 1_555 1_555
C109 N10 1_555 1_555
C113 C114 1_555 1_555
C121 C122 1_555 1_555
C123 N11 1_555 1_555
C128 N12 1_555 1_555

#END
