
#######################################################################
#
#                 Cambridge Crystallographic Data Centre
#                                CCDC 
#
#######################################################################
#
# If this CIF has been generated from an entry in the Cambridge 
# Structural Database, then it will include bibliographic, chemical, 
# crystal, experimental, refinement or atomic coordinate data resulting 
# from the CCDC's data processing and validation procedures.
#
#######################################################################

data_EBONOY
_chemical_formula_moiety         'C9 H13 B1 Cl1 O2 P1'
_chemical_name_systematic        
2-Chloro-2-(trimethylphosphino)-1,3,2-benzodioxaborole
_symmetry_cell_setting           monoclinic
_symmetry_space_group_name_H-M   'P 21/c'
_symmetry_Int_Tables_number      14
_space_group_name_Hall           '-P 2ybc'
loop_
_symmetry_equiv_pos_site_id
_symmetry_equiv_pos_as_xyz
1 x,y,z
2 x,1/2-y,1/2+z
3 -x,-y,-z
4 -x,1/2+y,1/2-z
_cell_length_a                   12.2244(10)
_cell_length_b                   16.3667(14)
_cell_length_c                   12.7944(11)
_cell_angle_alpha                90
_cell_angle_beta                 117.195(2)
_cell_angle_gamma                90
_cell_volume                     2276.84
_exptl_crystal_colour            colorless
_exptl_crystal_description       Block
_cell_formula_units_Z            8
_exptl_crystal_recrystallization_method toluene
loop_
_atom_site_label
_atom_site_type_symbol
_atom_site_fract_x
_atom_site_fract_y
_atom_site_fract_z
O1 O 0.41862(9) 0.12158(6) 0.05064(9)
B1 B 0.34434(15) 0.18522(10) 0.06666(14)
O2 O 0.34126(9) 0.16941(6) 0.17741(9)
C1 C 0.47208(12) 0.08036(8) 0.15542(12)
C2 C 0.42633(12) 0.10876(9) 0.23041(12)
C3 C 0.46623(14) 0.07780(9) 0.34181(13)
H1 H 0.4354 0.0976 0.3931
C4 C 0.55491(15) 0.01545(10) 0.37601(14)
H2 H 0.5844 -0.0079 0.4521
C5 C 0.60007(14) -0.01257(10) 0.30153(15)
H3 H 0.6601 -0.0547 0.3276
C6 C 0.55951(14) 0.01965(9) 0.18828(14)
H4 H 0.5907 0.0006 0.1370
Cl1 Cl 0.40795(4) 0.29181(2) 0.06642(3)
P1 P 0.17894(3) 0.18554(2) -0.06737(3)
C7 C 0.10143(16) 0.09128(10) -0.07133(14)
H5 H 0.1542 0.0451 -0.0676
H6 H 0.0243 0.0884 -0.1444
H7 H 0.0836 0.0890 -0.0041
C8 C 0.08546(15) 0.26713(10) -0.05914(14)
H8 H 0.0753 0.2610 0.0121
H9 H 0.0047 0.2655 -0.1283
H10 H 0.1253 0.3196 -0.0567
C9 C 0.18995(16) 0.19344(11) -0.20263(14)
H11 H 0.2335 0.2438 -0.2021
H12 H 0.1072 0.1945 -0.2690
H13 H 0.2351 0.1463 -0.2103
B2 B 0.16877(15) 0.69282(10) 0.42532(14)
O3 O 0.04670(9) 0.66813(7) 0.40832(9)
O4 O 0.20499(9) 0.63581(6) 0.35939(9)
C10 C 0.00580(13) 0.61324(9) 0.31719(12)
C11 C 0.09955(13) 0.59474(8) 0.28738(12)
C12 C 0.08136(14) 0.54184(9) 0.19720(13)
H14 H 0.1451 0.5300 0.1765
C13 C -0.03556(16) 0.50616(10) 0.13722(14)
H15 H -0.0517 0.4693 0.0744
C14 C -0.12795(15) 0.52377(10) 0.16813(14)
H16 H -0.2058 0.4981 0.1267
C15 C -0.10931(14) 0.57854(10) 0.25903(13)
H17 H -0.1729 0.5911 0.2795
Cl2 Cl 0.16405(4) 0.80243(2) 0.37044(3)
P2 P 0.29380(3) 0.69546(2) 0.59120(3)
C16 C 0.28369(15) 0.60551(10) 0.66714(15)
H18 H 0.3450 0.6086 0.7499
H19 H 0.2993 0.5570 0.6311
H20 H 0.2013 0.6019 0.6618
C17 C 0.28049(15) 0.78312(10) 0.66868(14)
H21 H 0.3390 0.7783 0.7522
H22 H 0.1967 0.7863 0.6599
H23 H 0.2985 0.8326 0.6363
C18 C 0.44347(14) 0.69771(10) 0.59783(15)
H24 H 0.4516 0.7471 0.5586
H25 H 0.4542 0.6493 0.5584
H26 H 0.5064 0.6980 0.6802
loop_
_geom_bond_atom_site_label_1
_geom_bond_atom_site_label_2
_geom_bond_site_symmetry_1
_geom_bond_site_symmetry_2
O1 B1 1_555 1_555
B1 O2 1_555 1_555
O2 C2 1_555 1_555
C1 O1 1_555 1_555
C2 C1 1_555 1_555
C3 C2 1_555 1_555
H1 C3 1_555 1_555
C4 C3 1_555 1_555
H2 C4 1_555 1_555
C5 C4 1_555 1_555
H3 C5 1_555 1_555
C6 C1 1_555 1_555
H4 C6 1_555 1_555
Cl1 B1 1_555 1_555
P1 B1 1_555 1_555
C7 P1 1_555 1_555
H5 C7 1_555 1_555
H6 C7 1_555 1_555
H7 C7 1_555 1_555
C8 P1 1_555 1_555
H8 C8 1_555 1_555
H9 C8 1_555 1_555
H10 C8 1_555 1_555
C9 P1 1_555 1_555
H11 C9 1_555 1_555
H12 C9 1_555 1_555
H13 C9 1_555 1_555
B2 O3 1_555 1_555
O3 C10 1_555 1_555
O4 B2 1_555 1_555
C10 C11 1_555 1_555
C11 O4 1_555 1_555
C12 C11 1_555 1_555
H14 C12 1_555 1_555
C13 C12 1_555 1_555
H15 C13 1_555 1_555
C14 C13 1_555 1_555
H16 C14 1_555 1_555
C15 C10 1_555 1_555
H17 C15 1_555 1_555
Cl2 B2 1_555 1_555
P2 B2 1_555 1_555
C16 P2 1_555 1_555
H18 C16 1_555 1_555
H19 C16 1_555 1_555
H20 C16 1_555 1_555
C17 P2 1_555 1_555
H21 C17 1_555 1_555
H22 C17 1_555 1_555
H23 C17 1_555 1_555
C18 P2 1_555 1_555
H24 C18 1_555 1_555
H25 C18 1_555 1_555
H26 C18 1_555 1_555
C5 C6 1_555 1_555
C14 C15 1_555 1_555

#END
