
#######################################################################
#
#                 Cambridge Crystallographic Data Centre
#                                CCDC 
#
#######################################################################
#
# If this CIF has been generated from an entry in the Cambridge 
# Structural Database, then it will include bibliographic, chemical, 
# crystal, experimental, refinement or atomic coordinate data resulting 
# from the CCDC's data processing and validation procedures.
#
#######################################################################

data_EBONIV
_chemical_formula_moiety         'C7 H9 N1 O2,C4 H4 O4'
_chemical_name_systematic        
'3-hydroxy-1,2-dimethylpyridin-4(1H)-one maleic acid'
_symmetry_cell_setting           triclinic
_symmetry_space_group_name_H-M   'P -1'
_symmetry_Int_Tables_number      2
_space_group_name_Hall           '-P 1'
loop_
_symmetry_equiv_pos_site_id
_symmetry_equiv_pos_as_xyz
1 x,y,z
2 -x,-y,-z
_cell_length_a                   7.6433(17)
_cell_length_b                   8.2780(18)
_cell_length_c                   9.687(2)
_cell_angle_alpha                81.723(4)
_cell_angle_beta                 87.976(4)
_cell_angle_gamma                83.789(4)
_cell_volume                     602.843
_exptl_crystal_description       block
_cell_formula_units_Z            2
loop_
_atom_site_label
_atom_site_type_symbol
_atom_site_fract_x
_atom_site_fract_y
_atom_site_fract_z
C1 C 0.89035(18) 0.85378(16) 1.14938(14)
C2 C 0.7859(2) 0.99627(16) 1.06947(15)
H1 H 0.7660 1.0867 1.1170
C3 C 0.71539(19) 1.02094(16) 0.94421(15)
H2 H 0.6570 1.1249 0.9183
C4 C 0.71602(19) 0.90684(16) 0.83923(15)
O1 O 0.63021(16) 0.96112(13) 0.73027(11)
O2 O 0.79823(19) 0.76611(13) 0.85967(12)
O3 O 0.92853(16) 0.71889(13) 1.09547(12)
O4 O 0.94011(16) 0.86741(14) 1.26533(11)
H3 H 0.635(6) 0.898(4) 0.659(3)
H4 H 0.886(3) 0.720(3) 1.011(2)
C5 C 0.66127(16) 0.68451(14) 0.49469(13)
C6 C 0.75462(18) 0.57461(16) 0.59469(14)
H5 H 0.7766 0.6052 0.6806
C7 C 0.81373(17) 0.42140(16) 0.56572(14)
H6 H 0.8760 0.3481 0.6330
C8 C 0.69394(17) 0.47718(14) 0.34003(13)
C9 C 0.63083(17) 0.63284(14) 0.36596(13)
C10 C 0.6640(2) 0.42046(17) 0.20409(15)
H7 H 0.7753 0.3898 0.1610
H8 H 0.6002 0.5076 0.1439
H9 H 0.5972 0.3275 0.2200
C11 C 0.8526(2) 0.20476(16) 0.41867(17)
H10 H 0.9154 0.1501 0.4992
H11 H 0.9306 0.2101 0.3386
H12 H 0.7561 0.1450 0.4029
N1 N 0.78428(14) 0.37351(12) 0.44234(12)
O5 O 0.53993(14) 0.73333(11) 0.26588(10)
O6 O 0.59451(14) 0.83528(11) 0.51014(10)
H13 H 0.503(3) 0.838(2) 0.300(2)
loop_
_geom_bond_atom_site_label_1
_geom_bond_atom_site_label_2
_geom_bond_site_symmetry_1
_geom_bond_site_symmetry_2
C1 C2 1_555 1_555
C2 H1 1_555 1_555
C3 C2 1_555 1_555
H2 C3 1_555 1_555
C4 C3 1_555 1_555
O1 C4 1_555 1_555
O2 C4 1_555 1_555
O3 C1 1_555 1_555
O4 C1 1_555 1_555
H3 O1 1_555 1_555
H4 O3 1_555 1_555
C5 C6 1_555 1_555
C6 H5 1_555 1_555
C7 C6 1_555 1_555
H6 C7 1_555 1_555
C8 C9 1_555 1_555
C9 C5 1_555 1_555
C10 C8 1_555 1_555
H7 C10 1_555 1_555
H8 C10 1_555 1_555
H9 C10 1_555 1_555
C11 H10 1_555 1_555
H11 C11 1_555 1_555
H12 C11 1_555 1_555
N1 C7 1_555 1_555
O5 C9 1_555 1_555
O6 C5 1_555 1_555
H13 O5 1_555 1_555
C8 N1 1_555 1_555
C11 N1 1_555 1_555

#END
