
#######################################################################
#
#                 Cambridge Crystallographic Data Centre
#                                CCDC 
#
#######################################################################
#
# If this CIF has been generated from an entry in the Cambridge 
# Structural Database, then it will include bibliographic, chemical, 
# crystal, experimental, refinement or atomic coordinate data resulting 
# from the CCDC's data processing and validation procedures.
#
#######################################################################

data_EBONAN
_chemical_formula_moiety         'C7 H9 N1 O2,C7 H6 O3'
_chemical_name_systematic        
'3-hydroxy-1,2-dimethylpyridin-4(1H)-one 4-hydroxybenzoic acid'
_symmetry_cell_setting           triclinic
_symmetry_space_group_name_H-M   'P -1'
_symmetry_Int_Tables_number      2
_space_group_name_Hall           '-P 1'
loop_
_symmetry_equiv_pos_site_id
_symmetry_equiv_pos_as_xyz
1 x,y,z
2 -x,-y,-z
_cell_length_a                   7.4128(5)
_cell_length_b                   8.5138(6)
_cell_length_c                   11.1298(7)
_cell_angle_alpha                94.550(2)
_cell_angle_beta                 92.3710(10)
_cell_angle_gamma                111.0850(10)
_cell_volume                     651.472
_cell_formula_units_Z            2
loop_
_atom_site_label
_atom_site_type_symbol
_atom_site_fract_x
_atom_site_fract_y
_atom_site_fract_z
O1 O 0.07553(13) -0.08279(12) 0.87215(9)
O2 O 0.27050(14) 0.19897(13) 1.02820(10)
N1 N 0.65847(15) 0.16404(14) 0.85809(10)
C1 C 0.56087(17) 0.22392(15) 0.94093(11)
C2 C 0.36481(17) 0.14005(15) 0.94441(11)
C3 C 0.5627(2) 0.02705(18) 0.77989(13)
H1 H 0.6318 -0.0107 0.7240
C4 C 0.25783(17) -0.00661(15) 0.86429(11)
C5 C 0.87038(19) 0.2455(2) 0.85547(15)
H2 H 0.9157 0.1826 0.7965
H3 H 0.9315 0.2479 0.9337
H4 H 0.9020 0.3591 0.8345
C6 C 0.3683(2) -0.05789(18) 0.77999(12)
H5 H 0.3073 -0.1511 0.7238
C7 C 0.6708(2) 0.37875(18) 1.02367(15)
H6 H 0.7710 0.3594 1.0706
H7 H 0.5841 0.4046 1.0767
H8 H 0.7280 0.4720 0.9770
H9 H 0.150(3) 0.125(3) 1.0297(17)
O3 O 0.23403(14) 0.05206(13) 0.47454(10)
C8 C 0.43626(17) 0.30311(15) 0.59035(11)
O4 O 0.09706(14) 0.18839(15) 0.59638(11)
O5 O 0.97833(15) 0.65315(15) 0.70486(12)
C9 C 0.60435(18) 0.28588(16) 0.55049(12)
H10 H 0.5952 0.1929 0.4973
C10 C 0.78358(19) 0.40462(17) 0.58874(13)
H11 H 0.8951 0.3921 0.5617
C11 C 0.6314(2) 0.56407(17) 0.70711(13)
H12 H 0.6407 0.6582 0.7591
C12 C 0.45192(19) 0.44418(17) 0.66854(12)
H13 H 0.3405 0.4577 0.6950
C13 C 0.79735(19) 0.54396(17) 0.66836(13)
C14 C 0.24706(18) 0.17275(16) 0.55019(12)
H14 H 0.977(3) 0.738(3) 0.759(2)
H15 H -0.039(4) 0.090(4) 0.567(3)
loop_
_geom_bond_atom_site_label_1
_geom_bond_atom_site_label_2
_geom_bond_site_symmetry_1
_geom_bond_site_symmetry_2
O1 C4 1_555 1_555
O2 C2 1_555 1_555
N1 C1 1_555 1_555
C1 C2 1_555 1_555
C2 C4 1_555 1_555
C3 N1 1_555 1_555
H1 C3 1_555 1_555
C4 C6 1_555 1_555
C5 N1 1_555 1_555
H2 C5 1_555 1_555
H3 C5 1_555 1_555
H4 C5 1_555 1_555
C6 C3 1_555 1_555
H5 C6 1_555 1_555
C7 C1 1_555 1_555
H6 C7 1_555 1_555
H7 C7 1_555 1_555
H8 C7 1_555 1_555
H9 O2 1_555 1_555
O3 C14 1_555 1_555
C8 C9 1_555 1_555
O4 C14 1_555 1_555
O5 C13 1_555 1_555
C9 H10 1_555 1_555
C10 C9 1_555 1_555
H11 C10 1_555 1_555
C11 H12 1_555 1_555
C12 C8 1_555 1_555
H13 C12 1_555 1_555
C13 C10 1_555 1_555
C14 C8 1_555 1_555
H14 O5 1_555 1_555
H15 O4 1_555 1_555
C11 C12 1_555 1_555
C11 C13 1_555 1_555

#END
