
#######################################################################
#
#                 Cambridge Crystallographic Data Centre
#                                CCDC 
#
#######################################################################
#
# If this CIF has been generated from an entry in the Cambridge 
# Structural Database, then it will include bibliographic, chemical, 
# crystal, experimental, refinement or atomic coordinate data resulting 
# from the CCDC's data processing and validation procedures.
#
#######################################################################

data_EBOPEQ
_chemical_formula_moiety         'C24 H37 B1 Cl1 O2 P1'
_chemical_name_systematic        
2-Chloro-2-(tris(cyclohexyl)phosphino)-1,3,2-benzodioxaborole
_symmetry_cell_setting           monoclinic
_symmetry_space_group_name_H-M   'P 21/n'
_symmetry_Int_Tables_number      14
_space_group_name_Hall           '-P 2yn'
loop_
_symmetry_equiv_pos_site_id
_symmetry_equiv_pos_as_xyz
1 x,y,z
2 1/2+x,1/2-y,1/2+z
3 -x,-y,-z
4 1/2-x,1/2+y,1/2-z
_cell_length_a                   11.541(2)
_cell_length_b                   13.426(3)
_cell_length_c                   15.070(3)
_cell_angle_alpha                90
_cell_angle_beta                 92.226(3)
_cell_angle_gamma                90
_cell_volume                     2333.33
_exptl_crystal_colour            colorless
_exptl_crystal_description       irregular
_cell_formula_units_Z            4
_exptl_crystal_recrystallization_method toluene/hexane
loop_
_atom_site_label
_atom_site_type_symbol
_atom_site_fract_x
_atom_site_fract_y
_atom_site_fract_z
P1 P 0.71572(3) 0.77223(2) 0.15375(2)
Cl1 Cl 0.60594(3) 0.57237(3) 0.22538(2)
B1 B 0.69280(13) 0.62868(11) 0.12509(10)
O1 O 0.62590(8) 0.61738(7) 0.04558(6)
O2 O 0.80133(8) 0.57464(7) 0.11028(7)
C1 C 0.67845(12) 0.53998(10) -0.00001(9)
C2 C 0.78227(12) 0.51437(10) 0.03828(9)
C3 C 0.85080(14) 0.43766(11) 0.00542(11)
H1 H 0.9238(17) 0.4208(14) 0.0315(13)
C4 C 0.81085(15) 0.38640(12) -0.06894(11)
H2 H 0.8582(17) 0.3356(16) -0.0953(13)
C5 C 0.70791(16) 0.41260(12) -0.10698(10)
H3 H 0.6840(17) 0.3769(15) -0.1582(14)
C6 C 0.63879(14) 0.49041(11) -0.07313(10)
H4 H 0.5687(17) 0.5074(14) -0.0955(12)
C7 C 0.75215(12) 0.84255(10) 0.05142(9)
H5 H 0.6751(15) 0.8527(13) 0.0256(11)
C8 C 0.80221(15) 0.94670(11) 0.06915(10)
H6 H 0.8799(17) 0.9386(14) 0.0923(13)
H7 H 0.7534(17) 0.9837(15) 0.1120(13)
C9 C 0.81066(17) 1.00702(13) -0.01703(11)
H8 H 0.7323(18) 1.0191(15) -0.0358(13)
H9 H 0.8396(19) 1.0736(17) -0.0061(14)
C10 C 0.88241(16) 0.95353(13) -0.08882(11)
H10 H 0.9614(18) 0.9483(15) -0.0726(13)
H11 H 0.8835(17) 0.9913(15) -0.1430(14)
C11 C 0.83812(15) 0.84795(13) -0.10443(10)
H12 H 0.8884(17) 0.8158(15) -0.1463(13)
H13 H 0.7609(19) 0.8521(16) -0.1303(14)
C12 C 0.82877(14) 0.78720(12) -0.01828(10)
H14 H 0.8003(17) 0.7245(15) -0.0279(13)
H15 H 0.9088(19) 0.7761(15) 0.0040(14)
C13 C 0.57716(11) 0.82047(10) 0.19993(9)
H16 H 0.5565(16) 0.7732(13) 0.2487(12)
C14 C 0.47965(12) 0.81267(11) 0.13319(10)
H17 H 0.4963(15) 0.8619(14) 0.0826(12)
H18 H 0.4766(16) 0.7459(14) 0.1074(12)
C15 C 0.36265(12) 0.83809(11) 0.17891(10)
H19 H 0.3423(16) 0.7891(14) 0.2260(12)
H20 H 0.3005(16) 0.8352(14) 0.1336(12)
C16 C 0.36406(14) 0.94051(13) 0.22290(13)
H21 H 0.3742(18) 0.9933(16) 0.1750(14)
H22 H 0.2933(18) 0.9576(15) 0.2533(14)
C17 C 0.46287(14) 0.94821(14) 0.28721(13)
H23 H 0.4477(18) 0.8992(15) 0.3371(14)
H24 H 0.4654(17) 1.0148(16) 0.3127(14)
C18 C 0.57971(13) 0.92533(12) 0.24036(12)
H25 H 0.6440(17) 0.9310(14) 0.2833(13)
H26 H 0.5925(16) 0.9752(15) 0.1942(13)
C19 C 0.82585(11) 0.79367(10) 0.23644(9)
H27 H 0.8296(16) 0.8669(15) 0.2432(12)
C20 C 0.94727(12) 0.75826(13) 0.20379(10)
H28 H 0.9724(16) 0.7916(14) 0.1453(13)
H29 H 0.9442(16) 0.6869(15) 0.1941(12)
C21 C 1.03731(13) 0.78189(14) 0.27306(11)
H30 H 1.0457(17) 0.8553(16) 0.2797(13)
H31 H 1.1126(17) 0.7563(14) 0.2516(13)
C22 C 1.00393(14) 0.73710(14) 0.36357(11)
H32 H 1.059(2) 0.7571(16) 0.4057(15)
H33 H 1.0068(16) 0.6654(15) 0.3603(13)
C23 C 0.88313(14) 0.77018(14) 0.39511(10)
H34 H 0.8859(18) 0.8430(17) 0.4060(14)
H35 H 0.8563(18) 0.7400(15) 0.4529(15)
C24 C 0.79251(13) 0.74555(12) 0.32671(10)
H36 H 0.7178(17) 0.7697(14) 0.3503(13)
H37 H 0.7872(16) 0.6744(15) 0.3212(12)
loop_
_geom_bond_atom_site_label_1
_geom_bond_atom_site_label_2
_geom_bond_site_symmetry_1
_geom_bond_site_symmetry_2
P1 B1 1_555 1_555
Cl1 B1 1_555 1_555
B1 O1 1_555 1_555
O1 C1 1_555 1_555
O2 B1 1_555 1_555
C1 C2 1_555 1_555
C2 O2 1_555 1_555
C3 C2 1_555 1_555
H1 C3 1_555 1_555
C4 C3 1_555 1_555
H2 C4 1_555 1_555
C5 C4 1_555 1_555
H3 C5 1_555 1_555
C6 C1 1_555 1_555
H4 C6 1_555 1_555
C7 P1 1_555 1_555
H5 C7 1_555 1_555
C8 C7 1_555 1_555
H6 C8 1_555 1_555
H7 C8 1_555 1_555
C9 C8 1_555 1_555
H8 C9 1_555 1_555
H9 C9 1_555 1_555
C10 C9 1_555 1_555
H10 C10 1_555 1_555
H11 C10 1_555 1_555
C11 C10 1_555 1_555
H12 C11 1_555 1_555
H13 C11 1_555 1_555
C12 C7 1_555 1_555
H14 C12 1_555 1_555
H15 C12 1_555 1_555
C13 P1 1_555 1_555
H16 C13 1_555 1_555
C14 C13 1_555 1_555
H17 C14 1_555 1_555
H18 C14 1_555 1_555
C15 C14 1_555 1_555
H19 C15 1_555 1_555
H20 C15 1_555 1_555
C16 C15 1_555 1_555
H21 C16 1_555 1_555
H22 C16 1_555 1_555
C17 C16 1_555 1_555
H23 C17 1_555 1_555
H24 C17 1_555 1_555
C18 C13 1_555 1_555
H25 C18 1_555 1_555
H26 C18 1_555 1_555
C19 P1 1_555 1_555
H27 C19 1_555 1_555
C20 C19 1_555 1_555
H28 C20 1_555 1_555
H29 C20 1_555 1_555
C21 C20 1_555 1_555
H30 C21 1_555 1_555
H31 C21 1_555 1_555
C22 C21 1_555 1_555
H32 C22 1_555 1_555
H33 C22 1_555 1_555
C23 C22 1_555 1_555
H34 C23 1_555 1_555
H35 C23 1_555 1_555
C24 C19 1_555 1_555
H36 C24 1_555 1_555
H37 C24 1_555 1_555
C5 C6 1_555 1_555
C11 C12 1_555 1_555
C17 C18 1_555 1_555
C23 C24 1_555 1_555

#END
