
#######################################################################
#
#                 Cambridge Crystallographic Data Centre
#                                CCDC 
#
#######################################################################
#
# If this CIF has been generated from an entry in the Cambridge 
# Structural Database, then it will include bibliographic, chemical, 
# crystal, experimental, refinement or atomic coordinate data resulting 
# from the CCDC's data processing and validation procedures.
#
#######################################################################

data_EBOSEW
_chemical_formula_moiety         'C32 H23 N3'
_chemical_name_systematic        
N-(4-(2-(4-(9H-carbazol-9-yl)phenyl)vinyl)phenyl)-1-(pyridin-2-yl)methanimine
_chemical_properties_biological  
'cytotoxic effect against HeLa cells was tested, showed low cyctotoxicity.'
_symmetry_cell_setting           monoclinic
_symmetry_space_group_name_H-M   'C 2/c'
_symmetry_Int_Tables_number      15
_space_group_name_Hall           '-C 2yn'
loop_
_symmetry_equiv_pos_site_id
_symmetry_equiv_pos_as_xyz
1 x,y,z
2 -x,y,1/2-z
3 1/2+x,1/2+y,z
4 1/2-x,1/2+y,1/2-z
5 -x,-y,-z
6 x,-y,1/2+z
7 1/2-x,1/2-y,-z
8 1/2+x,1/2-y,1/2+z
_cell_length_a                   17.791(4)
_cell_length_b                   6.3822(15)
_cell_length_c                   42.441(10)
_cell_angle_alpha                90
_cell_angle_beta                 93.833(3)
_cell_angle_gamma                90
_cell_volume                     4808.21
_exptl_crystal_colour            yellow
_exptl_crystal_description       block
_cell_formula_units_Z            8
loop_
_atom_site_label
_atom_site_type_symbol
_atom_site_fract_x
_atom_site_fract_y
_atom_site_fract_z
C1 C 0.22394(17) 1.1271(5) 0.21079(7)
C2 C 0.1856(3) 1.2472(6) 0.23201(8)
C3 C 0.1096(3) 1.2285(6) 0.23270(9)
C4 C 0.0694(2) 1.0901(6) 0.21287(8)
C5 C 0.10441(17) 0.9681(5) 0.19179(7)
C6 C 0.18255(16) 0.9877(4) 0.19087(6)
C7 C 0.30171(17) 1.1085(5) 0.20369(7)
C8 C 0.3693(2) 1.1960(6) 0.21616(9)
C9 C 0.4352(2) 1.1328(7) 0.20467(10)
C10 C 0.4371(2) 0.9830(7) 0.18089(10)
C11 C 0.37166(18) 0.8956(6) 0.16782(9)
C12 C 0.30443(16) 0.9578(5) 0.17963(7)
C13 C 0.21009(15) 0.7370(4) 0.14777(7)
C14 C 0.17634(19) 0.5514(5) 0.15564(8)
C15 C 0.1557(2) 0.4076(6) 0.13246(8)
C16 C 0.16779(16) 0.4424(5) 0.10104(7)
C17 C 0.20216(17) 0.6313(5) 0.09361(8)
C18 C 0.22264(17) 0.7770(5) 0.11639(7)
C19 C 0.14452(19) 0.2823(5) 0.07733(8)
C20 C 0.1565(2) 0.2813(6) 0.04687(9)
C21 C 0.13405(19) 0.1150(5) 0.02422(8)
C22 C 0.0896(2) -0.0541(6) 0.03172(9)
C23 C 0.0693(2) -0.2069(6) 0.00971(9)
C24 C 0.09404(19) -0.2002(5) -0.02009(8)
C25 C 0.1348(2) -0.0277(6) -0.02898(9)
C26 C 0.1532(2) 0.1288(6) -0.00681(9)
C27 C 0.1152(2) -0.4347(6) -0.06006(8)
C28 C 0.09268(18) -0.5958(5) -0.08330(7)
C29 C 0.01808(18) -0.6540(6) -0.08893(8)
C30 C 0.0000(2) -0.8082(6) -0.11087(8)
C31 C 0.0562(2) -0.8997(6) -0.12640(9)
C32 C 0.1297(2) -0.8319(6) -0.11988(9)
H1 H 0.213(2) 1.330(6) 0.2447(9)
H2 H 0.084(2) 1.293(7) 0.2486(10)
H3 H 0.0144(19) 1.081(5) 0.2150(7)
H4 H 0.0762(17) 0.872(5) 0.1774(7)
H5 H 0.365(2) 1.293(6) 0.2326(9)
H6 H 0.483(3) 1.192(6) 0.2140(9)
H7 H 0.488(2) 0.941(6) 0.1721(9)
H8 H 0.3740(19) 0.798(6) 0.1527(8)
H9 H 0.1602(18) 0.530(5) 0.1776(9)
H10 H 0.1325(19) 0.279(6) 0.1390(8)
H11 H 0.2119(17) 0.663(5) 0.0732(8)
H12 H 0.2433(18) 0.905(5) 0.1121(7)
H13 H 0.1185(18) 0.159(5) 0.0856(7)
H14 H 0.072(2) -0.057(6) 0.0546(9)
H15 H 0.042(3) -0.314(9) 0.0178(12)
H16 H 0.1521(19) -0.019(6) -0.0534(8)
H17 H 0.1831(18) 0.275(5) -0.0142(7)
H18 H 0.171(2) -0.384(6) -0.0580(8)
H19 H -0.019(2) -0.578(6) -0.0740(9)
H20 H -0.060(2) -0.854(6) -0.1173(9)
H21 H 0.048(2) -1.014(6) -0.1412(8)
H22 H 0.174(2) -0.899(7) -0.1329(9)
N1 N 0.23125(13) 0.8862(4) 0.17170(5)
N2 N 0.07038(16) -0.3587(4) -0.04177(6)
N3 N 0.14863(15) -0.6839(5) -0.09859(7)
H23 H 0.180(2) 0.433(7) 0.0355(9)
loop_
_geom_bond_atom_site_label_1
_geom_bond_atom_site_label_2
_geom_bond_site_symmetry_1
_geom_bond_site_symmetry_2
C1 C2 1_555 1_555
C2 C3 1_555 1_555
C3 C4 1_555 1_555
C4 C5 1_555 1_555
C5 C6 1_555 1_555
C6 C1 1_555 1_555
C7 C1 1_555 1_555
C8 C7 1_555 1_555
C9 C8 1_555 1_555
C10 C9 1_555 1_555
C11 C10 1_555 1_555
C12 C7 1_555 1_555
C13 C14 1_555 1_555
C14 C15 1_555 1_555
C15 C16 1_555 1_555
C16 C17 1_555 1_555
C17 C18 1_555 1_555
C18 C13 1_555 1_555
C19 C16 1_555 1_555
C20 C19 1_555 1_555
C21 C20 1_555 1_555
C22 C21 1_555 1_555
C23 C22 1_555 1_555
C24 C23 1_555 1_555
C25 C24 1_555 1_555
C26 C21 1_555 1_555
C27 C28 1_555 1_555
C28 C29 1_555 1_555
C29 C30 1_555 1_555
C30 C31 1_555 1_555
C31 C32 1_555 1_555
C32 H22 1_555 1_555
H1 C2 1_555 1_555
H2 C3 1_555 1_555
H3 C4 1_555 1_555
H4 C5 1_555 1_555
H5 C8 1_555 1_555
H6 C9 1_555 1_555
H7 C10 1_555 1_555
H8 C11 1_555 1_555
H9 C14 1_555 1_555
H10 C15 1_555 1_555
H11 C17 1_555 1_555
H12 C18 1_555 1_555
H13 C19 1_555 1_555
H14 C22 1_555 1_555
H15 C23 1_555 1_555
H16 C25 1_555 1_555
H17 C26 1_555 1_555
H18 C27 1_555 1_555
H19 C29 1_555 1_555
H20 C30 1_555 1_555
H21 C31 1_555 1_555
N1 C6 1_555 1_555
N2 C24 1_555 1_555
N3 C28 1_555 1_555
H23 C20 1_555 1_555
C11 C12 1_555 1_555
C12 N1 1_555 1_555
C13 N1 1_555 1_555
C25 C26 1_555 1_555
C27 N2 1_555 1_555
C32 N3 1_555 1_555

#END
