
#######################################################################
#
#                 Cambridge Crystallographic Data Centre
#                                CCDC 
#
#######################################################################
#
# If this CIF has been generated from an entry in the Cambridge 
# Structural Database, then it will include bibliographic, chemical, 
# crystal, experimental, refinement or atomic coordinate data resulting 
# from the CCDC's data processing and validation procedures.
#
#######################################################################

data_EBOTEX
_chemical_formula_moiety         'C37 H33 N3'
_chemical_name_systematic        
4-(((4-(2-(4-(9H-carbazol-9-yl)phenyl)vinyl)phenyl)imino)methyl)-N,N-diethylaniline
_chemical_properties_biological  
'cytotoxic effect against HeLa cells was tested, showed low cyctotoxicity.'
_symmetry_cell_setting           triclinic
_symmetry_space_group_name_H-M   'P -1'
_symmetry_Int_Tables_number      2
_space_group_name_Hall           '-P 1'
loop_
_symmetry_equiv_pos_site_id
_symmetry_equiv_pos_as_xyz
1 x,y,z
2 -x,-y,-z
_cell_length_a                   9.806(3)
_cell_length_b                   17.473(4)
_cell_length_c                   35.205(9)
_cell_angle_alpha                104.37
_cell_angle_beta                 96.872(3)
_cell_angle_gamma                90.00
_cell_volume                     5798.57
_exptl_crystal_colour            yellow
_exptl_crystal_description       block
_cell_formula_units_Z            8
loop_
_atom_site_label
_atom_site_type_symbol
_atom_site_fract_x
_atom_site_fract_y
_atom_site_fract_z
C1 C 0.5829(9) 1.5240(5) 0.2214(2)
C2 C 0.5310(8) 1.4503(5) 0.1990(2)
C3 C 0.3994(9) 1.4240(5) 0.2003(2)
H1 H 0.3648 1.3754 0.1846
C4 C 0.3216(9) 1.4723(6) 0.2257(3)
H2 H 0.2331 1.4553 0.2274
C5 C 0.3695(12) 1.5441(6) 0.2485(3)
H3 H 0.3136 1.5744 0.2656
C6 C 0.4970(12) 1.5728(5) 0.2469(3)
H4 H 0.5275 1.6227 0.2620
C7 C 0.7195(9) 1.5325(5) 0.2125(2)
C8 C 0.7487(8) 1.4618(5) 0.1859(2)
C9 C 0.8713(8) 1.4510(5) 0.1701(2)
H5 H 0.8879 1.4046 0.1518
C10 C 0.9689(9) 1.5124(6) 0.1827(3)
H6 H 1.0540 1.5074 0.1733
C11 C 0.9383(12) 1.5820(7) 0.2097(3)
H7 H 1.0048 1.6226 0.2177
C12 C 0.8184(11) 1.5929(5) 0.2246(2)
H8 H 0.8021 1.6398 0.2426
C13 C 0.6280(7) 1.3327(5) 0.1548(2)
C14 C 0.5346(8) 1.3101(5) 0.1223(2)
H9 H 0.4745 1.3467 0.1152
C15 C 0.5277(8) 1.2330(5) 0.0997(2)
H10 H 0.4594 1.2178 0.0783
C16 C 0.6219(8) 1.1770(4) 0.1082(2)
C17 C 0.7104(7) 1.2014(5) 0.1424(2)
H11 H 0.7708 1.1655 0.1502
C18 C 0.7123(8) 1.2768(5) 0.1652(2)
H12 H 0.7723 1.2907 0.1885
C19 C 0.6174(9) 1.0981(5) 0.0830(2)
H13 H 0.5392 1.0827 0.0649
C20 C 0.7123(9) 1.0465(5) 0.0832(2)
H14 H 0.7891 1.0624 0.1018
C21 C 0.7135(8) 0.9664(5) 0.0577(2)
C22 C 0.6006(8) 0.9283(5) 0.0348(2)
H15 H 0.5177 0.9541 0.0344
C23 C 0.6059(8) 0.8515(5) 0.0119(2)
H16 H 0.5252 0.8271 -0.0027
C24 C 0.7253(8) 0.8098(4) 0.0096(2)
C25 C 0.8431(8) 0.8510(5) 0.0336(2)
H17 H 0.9266 0.8258 0.0336
C26 C 0.8379(8) 0.9271(5) 0.0570(2)
H18 H 0.9171 0.9521 0.0722
C27 C 0.8172(10) 0.6903(5) -0.0162(2)
H19 H 0.8969 0.7096 0.0006
C28 C 0.8166(8) 0.6114(5) -0.0411(2)
C29 C 0.7059(8) 0.5739(5) -0.0646(2)
H20 H 0.6230 0.5998 -0.0642
C30 C 0.7089(8) 0.4991(5) -0.0892(3)
H21 H 0.6297 0.4777 -0.1057
C31 C 0.8245(8) 0.4553(5) -0.0902(2)
C32 C 0.9446(8) 0.4947(5) -0.0664(3)
H22 H 1.0272 0.4686 -0.0671
C33 C 0.9422(8) 0.5694(5) -0.0427(3)
H23 H 1.0224 0.5931 -0.0276
C34 C 0.7070(10) 0.3367(5) -0.1348(3)
H24 H 0.6315 0.3535 -0.1195
H25 H 0.7194 0.2810 -0.1363
C35 C 0.6687(12) 0.3459(6) -0.1745(3)
H26 H 0.6448 0.3997 -0.1732
H27 H 0.5914 0.3114 -0.1870
H28 H 0.7447 0.3327 -0.1895
C36 C 0.9565(9) 0.3376(5) -0.1192(3)
H29 H 1.0317 0.3761 -0.1149
H30 H 0.9519 0.3058 -0.1462
C37 C 0.9860(10) 0.2861(6) -0.0921(4)
H31 H 1.0084 0.3180 -0.0656
H32 H 1.0622 0.2537 -0.0996
H33 H 0.9066 0.2530 -0.0934
N1 N 0.6331(6) 1.4117(3) 0.17769(18)
N2 N 0.7188(7) 0.7334(4) -0.01576(19)
N3 N 0.8283(7) 0.3794(4) -0.11429(19)
C38 C 0.9262(9) 1.3026(5) 0.2783(2)
C39 C 0.9724(8) 1.2476(4) 0.2992(2)
C40 C 1.1041(8) 1.2165(5) 0.2977(2)
H34 H 1.1343 1.1797 0.3116
C41 C 1.1870(10) 1.2439(6) 0.2741(3)
H35 H 1.2747 1.2242 0.2723
C42 C 1.1463(11) 1.2972(6) 0.2540(3)
H36 H 1.2062 1.3137 0.2388
C43 C 1.0194(11) 1.3274(5) 0.2552(2)
H37 H 0.9930 1.3645 0.2411
C44 C 0.7900(9) 1.3214(4) 0.2875(2)
C45 C 0.7543(8) 1.2740(4) 0.3124(2)
C46 C 0.6317(9) 1.2786(5) 0.3277(2)
H38 H 0.6121 1.2473 0.3444
C47 C 0.5388(10) 1.3311(6) 0.3177(3)
H39 H 0.4543 1.3357 0.3274
C48 C 0.5709(12) 1.3771(6) 0.2931(3)
H40 H 0.5061 1.4123 0.2869
C49 C 0.6918(12) 1.3740(5) 0.2775(2)
H41 H 0.7088 1.4056 0.2608
C50 C 0.8724(7) 1.1741(4) 0.3425(2)
C51 C 0.9664(8) 1.1853(4) 0.3750(2)
H42 H 1.0275 1.2286 0.3815
C52 C 0.9715(8) 1.1318(5) 0.3986(2)
H43 H 1.0380 1.1395 0.4205
C53 C 0.8799(7) 1.0673(5) 0.3904(2)
C54 C 0.7906(8) 1.0553(4) 0.3558(2)
H44 H 0.7319 1.0109 0.3482
C55 C 0.7871(8) 1.1082(4) 0.3325(2)
H45 H 0.7256 1.0989 0.3095
C56 C 0.8840(9) 1.0136(5) 0.4159(2)
H46 H 0.9639 1.0148 0.4332
C57 C 0.7875(9) 0.9641(5) 0.4169(2)
H47 H 0.7090 0.9626 0.3990
C58 C 0.7860(8) 0.9097(5) 0.4430(2)
C59 C 0.9007(8) 0.8955(5) 0.4659(2)
H48 H 0.9831 0.9217 0.4658
C60 C 0.8968(7) 0.8422(4) 0.4897(2)
H49 H 0.9772 0.8331 0.5046
C61 C 0.7759(7) 0.8025(4) 0.4915(2)
C62 C 0.6563(8) 0.8180(5) 0.4671(2)
H50 H 0.5730 0.7923 0.4668
C63 C 0.6648(8) 0.8711(4) 0.4441(2)
H51 H 0.5858 0.8810 0.4288
C64 C 0.6827(9) 0.7070(5) 0.5173(2)
H52 H 0.6028 0.7098 0.5006
C65 C 0.6822(9) 0.6526(4) 0.5422(2)
C66 C 0.7963(8) 0.6373(4) 0.5652(2)
H53 H 0.8791 0.6628 0.5647
C67 C 0.7940(8) 0.5864(5) 0.5890(3)
H54 H 0.8743 0.5802 0.6047
C68 C 0.6770(8) 0.5435(5) 0.5906(2)
C69 C 0.5547(8) 0.5598(5) 0.5664(2)
H55 H 0.4714 0.5347 0.5668
C70 C 0.5608(8) 0.6116(5) 0.5430(3)
H56 H 0.4817 0.6197 0.5273
C71 C 0.7949(9) 0.4676(5) 0.6335(3)
H57 H 0.7832 0.4130 0.6345
H58 H 0.8697 0.4702 0.6181
C72 C 0.8326(11) 0.5153(6) 0.6731(2)
H59 H 0.8634 0.5668 0.6721
H60 H 0.9052 0.4907 0.6861
H61 H 0.7543 0.5200 0.6874
C73 C 0.5433(9) 0.4544(5) 0.6178(3)
H62 H 0.4686 0.4889 0.6136
H63 H 0.5470 0.4491 0.6447
C74 C 0.5130(10) 0.3768(6) 0.5907(3)
H64 H 0.4901 0.3827 0.5643
H65 H 0.4369 0.3519 0.5983
H66 H 0.5922 0.3446 0.5917
N4 N 0.8671(6) 1.2287(3) 0.31889(18)
N5 N 0.7825(6) 0.7503(4) 0.51656(18)
N6 N 0.6707(7) 0.4911(4) 0.61357(19)
C75 C 0.0667(8) 0.2047(4) 0.7161(2)
C76 C 0.0224(8) 0.2562(4) 0.6931(2)
C77 C -0.1094(8) 0.2870(4) 0.6922(2)
H67 H -0.1365 0.3214 0.6765
C78 C -0.1971(9) 0.2644(5) 0.7154(3)
H68 H -0.2853 0.2841 0.7153
C79 C -0.1576(11) 0.2127(6) 0.7391(3)
H69 H -0.2188 0.1989 0.7547
C80 C -0.0273(10) 0.1822(5) 0.7393(2)
H70 H -0.0016 0.1470 0.7546
C81 C 0.2028(8) 0.1846(4) 0.7090(2)
C82 C 0.2384(7) 0.2262(4) 0.6821(2)
C83 C 0.3649(8) 0.2202(4) 0.6680(2)
H71 H 0.3868 0.2480 0.6501
C84 C 0.4576(8) 0.1703(5) 0.6822(3)
H72 H 0.5439 0.1649 0.6735
C85 C 0.4247(10) 0.1282(5) 0.7089(3)
H73 H 0.4887 0.0952 0.7178
C86 C 0.2986(10) 0.1354(5) 0.7221(2)
H74 H 0.2769 0.1073 0.7399
C87 C 0.1299(7) 0.3246(5) 0.6477(2)
C88 C 0.0914(8) 0.2983(5) 0.6077(3)
H75 H 0.0599 0.2462 0.5973
C89 C 0.0984(9) 0.3467(5) 0.5828(3)
H76 H 0.0740 0.3268 0.5557
C90 C 0.1415(7) 0.4250(5) 0.5975(3)
C91 C 0.1826(8) 0.4508(4) 0.6376(3)
H77 H 0.2156 0.5026 0.6479
C92 C 0.1760(8) 0.4020(5) 0.6626(2)
H78 H 0.2026 0.4213 0.6896
C93 C 0.1512(8) 0.4757(6) 0.5681(3)
H79 H 0.1326 0.4501 0.5414
C94 C 0.1821(8) 0.5490(6) 0.5763(3)
H80 H 0.2023 0.5745 0.6030
C95 C 0.1892(7) 0.5979(5) 0.5478(2)
C96 C 0.2063(8) 0.6781(5) 0.5615(2)
H81 H 0.2092 0.6998 0.5885
C97 C 0.2194(8) 0.7288(5) 0.5376(3)
H82 H 0.2285 0.7830 0.5486
C98 C 0.2191(7) 0.6995(5) 0.4983(3)
C99 C 0.2005(8) 0.6201(5) 0.4823(2)
H83 H 0.1969 0.6000 0.4551
C100 C 0.1868(8) 0.5682(5) 0.5068(3)
H84 H 0.1761 0.5141 0.4958
C101 C 0.2714(8) 0.8156(6) 0.4812(2)
H85 H 0.3012 0.8366 0.5079
C102 C 0.2789(8) 0.8654(5) 0.4549(2)
C103 C 0.3169(8) 0.9443(6) 0.4695(3)
H86 H 0.3379 0.9634 0.4967
C104 C 0.3258(8) 0.9977(5) 0.4455(3)
H87 H 0.3515 1.0503 0.4572
C105 C 0.2966(7) 0.9725(5) 0.4045(2)
C106 C 0.2472(8) 0.8955(5) 0.3904(3)
H88 H 0.2174 0.8772 0.3635
C107 C 0.2400(8) 0.8443(5) 0.4146(3)
H89 H 0.2072 0.7929 0.4031
C108 C 0.3377(9) 1.1072(5) 0.3975(3)
H90 H 0.2928 1.1362 0.3795
H91 H 0.3009 1.1249 0.4225
C109 C 0.4846(9) 1.1270(6) 0.4038(4)
H92 H 0.5296 1.0909 0.3843
H93 H 0.5221 1.1230 0.4297
H94 H 0.4987 1.1800 0.4015
C110 C 0.2764(11) 0.9982(5) 0.3382(3)
H95 H 0.3094 0.9452 0.3293
H96 H 0.3299 1.0331 0.3277
C111 C 0.1313(11) 0.9989(5) 0.3211(3)
H97 H 0.0760 0.9666 0.3321
H98 H 0.1237 0.9783 0.2929
H99 H 0.0999 1.0521 0.3271
N7 N 0.1284(6) 0.2715(3) 0.67249(16)
N8 N 0.2276(6) 0.7462(4) 0.4706(2)
N9 N 0.3027(7) 1.0221(4) 0.3813(2)
C112 C 0.2982(8) -0.0233(5) 0.7920(2)
C113 C 0.2603(7) 0.0457(4) 0.8163(2)
C114 C 0.1331(8) 0.0547(5) 0.8309(2)
H100 H 0.1097 0.1015 0.8478
C115 C 0.0435(8) -0.0116(6) 0.8184(3)
H101 H -0.0424 -0.0086 0.8273
C116 C 0.0773(9) -0.0811(6) 0.7934(3)
H102 H 0.0145 -0.1236 0.7855
C117 C 0.2016(9) -0.0875(5) 0.7802(2)
H103 H 0.2240 -0.1345 0.7633
C118 C 0.4348(7) -0.0098(5) 0.7840(2)
C119 C 0.4764(7) 0.0667(5) 0.8054(2)
C120 C 0.6059(8) 0.1001(5) 0.8064(2)
H104 H 0.6301 0.1514 0.8209
C121 C 0.6971(9) 0.0528(6) 0.7844(3)
H105 H 0.7849 0.0728 0.7841
C122 C 0.6601(10) -0.0226(7) 0.7630(3)
H106 H 0.7237 -0.0523 0.7485
C123 C 0.5311(10) -0.0566(5) 0.7622(2)
H107 H 0.5089 -0.1083 0.7479
C124 C 0.3691(7) 0.1798(5) 0.8501(2)
C125 C 0.4017(9) 0.1949(5) 0.8898(3)
H108 H 0.4288 0.1532 0.9008
C126 C 0.3966(9) 0.2693(6) 0.9147(3)
H109 H 0.4207 0.2779 0.9419
C127 C 0.3546(8) 0.3306(6) 0.8981(4)
C128 C 0.3177(9) 0.3149(6) 0.8589(3)
H110 H 0.2860 0.3557 0.8479
C129 C 0.3253(9) 0.2402(6) 0.8345(3)
H111 H 0.3003 0.2314 0.8074
C130 C 0.3483(10) 0.4109(9) 0.9321(5)
H112 H 0.3694 0.4109 0.9586
C131 C 0.3178(9) 0.4674(9) 0.9235(4)
H113 H 0.2958 0.4649 0.8968
C132 C 0.3103(8) 0.5499(6) 0.9537(3)
C133 C 0.3142(8) 0.5617(5) 0.9948(3)
H114 H 0.3261 0.5188 1.0060
C134 C 0.3002(8) 0.6379(6) 1.0194(3)
H115 H 0.3030 0.6455 1.0465
C135 C 0.2825(7) 0.7001(5) 1.0024(3)
C136 C 0.2814(9) 0.6893(6) 0.9634(3)
H116 H 0.2717 0.7323 0.9522
C137 C 0.2948(9) 0.6145(7) 0.9397(3)
H117 H 0.2928 0.6086 0.9126
C138 C 0.2305(8) 0.8328(6) 1.0202(3)
H118 H 0.1988 0.8262 0.9936
C139 C 0.2238(9) 0.9115(5) 1.0460(3)
C140 C 0.2618(8) 0.9298(5) 1.0867(3)
H119 H 0.2927 0.8895 1.0982
C141 C 0.2557(9) 1.0058(5) 1.1111(3)
H120 H 0.2851 1.0157 1.1380
C142 C 0.2051(8) 1.0673(6) 1.0948(3)
C143 C 0.1788(9) 1.0491(6) 1.0540(3)
H121 H 0.1548 1.0896 1.0419
C144 C 0.1863(9) 0.9742(6) 1.0306(3)
H122 H 0.1654 0.9656 1.0034
C145 C 0.2238(11) 1.1593(6) 1.1607(3)
H123 H 0.1947 1.1141 1.1695
H124 H 0.1674 1.2031 1.1714
C146 C 0.3686(12) 1.1801(6) 1.1773(3)
H125 H 0.4234 1.1343 1.1706
H126 H 0.3747 1.1985 1.2055
H127 H 0.4017 1.2210 1.1666
C147 C 0.1668(9) 1.2070(6) 1.1011(3)
H128 H 0.2043 1.1983 1.0762
H129 H 0.2114 1.2545 1.1187
C148 C 0.0157(10) 1.2203(7) 1.0942(4)
H130 H -0.0218 1.1881 1.0688
H131 H 0.0013 1.2749 1.0949
H132 H -0.0292 1.2063 1.1144
N10 N 0.3685(6) 0.1021(4) 0.82510(18)
N11 N 0.2741(6) 0.7748(4) 1.0305(2)
N12 N 0.1990(8) 1.1407(4) 1.1181(2)
loop_
_geom_bond_atom_site_label_1
_geom_bond_atom_site_label_2
_geom_bond_site_symmetry_1
_geom_bond_site_symmetry_2
C1 C2 1_555 1_555
C2 C3 1_555 1_555
C3 H1 1_555 1_555
C4 C3 1_555 1_555
H2 C4 1_555 1_555
C5 C4 1_555 1_555
H3 C5 1_555 1_555
C6 C1 1_555 1_555
H4 C6 1_555 1_555
C7 C1 1_555 1_555
C8 C7 1_555 1_555
C9 C8 1_555 1_555
H5 C9 1_555 1_555
C10 C9 1_555 1_555
H6 C10 1_555 1_555
C11 C10 1_555 1_555
H7 C11 1_555 1_555
C12 C7 1_555 1_555
H8 C12 1_555 1_555
C13 C14 1_555 1_555
C14 H9 1_555 1_555
C15 C14 1_555 1_555
H10 C15 1_555 1_555
C16 C15 1_555 1_555
C17 C16 1_555 1_555
H11 C17 1_555 1_555
C18 C13 1_555 1_555
H12 C18 1_555 1_555
C19 C16 1_555 1_555
H13 C19 1_555 1_555
C20 C19 1_555 1_555
H14 C20 1_555 1_555
C21 C20 1_555 1_555
C22 C21 1_555 1_555
H15 C22 1_555 1_555
C23 C22 1_555 1_555
H16 C23 1_555 1_555
C24 C23 1_555 1_555
C25 C24 1_555 1_555
H17 C25 1_555 1_555
C26 C21 1_555 1_555
H18 C26 1_555 1_555
C27 H19 1_555 1_555
C28 C27 1_555 1_555
C29 C28 1_555 1_555
H20 C29 1_555 1_555
C30 C29 1_555 1_555
H21 C30 1_555 1_555
C31 C30 1_555 1_555
C32 C31 1_555 1_555
H22 C32 1_555 1_555
C33 C28 1_555 1_555
H23 C33 1_555 1_555
C34 H24 1_555 1_555
H25 C34 1_555 1_555
C35 C34 1_555 1_555
H26 C35 1_555 1_555
H27 C35 1_555 1_555
H28 C35 1_555 1_555
C36 H29 1_555 1_555
H30 C36 1_555 1_555
C37 C36 1_555 1_555
H31 C37 1_555 1_555
H32 C37 1_555 1_555
H33 C37 1_555 1_555
N1 C2 1_555 1_555
N2 C24 1_555 1_555
N3 C31 1_555 1_555
C38 C39 1_555 1_555
C39 C40 1_555 1_555
C40 H34 1_555 1_555
C41 C40 1_555 1_555
H35 C41 1_555 1_555
C42 C41 1_555 1_555
H36 C42 1_555 1_555
C43 C38 1_555 1_555
H37 C43 1_555 1_555
C44 C38 1_555 1_555
C45 C44 1_555 1_555
C46 C45 1_555 1_555
H38 C46 1_555 1_555
C47 C46 1_555 1_555
H39 C47 1_555 1_555
C48 C47 1_555 1_555
H40 C48 1_555 1_555
C49 C44 1_555 1_555
H41 C49 1_555 1_555
C50 C51 1_555 1_555
C51 H42 1_555 1_555
C52 C51 1_555 1_555
H43 C52 1_555 1_555
C53 C52 1_555 1_555
C54 C53 1_555 1_555
H44 C54 1_555 1_555
C55 C50 1_555 1_555
H45 C55 1_555 1_555
C56 C53 1_555 1_555
H46 C56 1_555 1_555
C57 C56 1_555 1_555
H47 C57 1_555 1_555
C58 C57 1_555 1_555
C59 C58 1_555 1_555
H48 C59 1_555 1_555
C60 C59 1_555 1_555
H49 C60 1_555 1_555
C61 C60 1_555 1_555
C62 C61 1_555 1_555
H50 C62 1_555 1_555
C63 C58 1_555 1_555
H51 C63 1_555 1_555
C64 H52 1_555 1_555
C65 C64 1_555 1_555
C66 C65 1_555 1_555
H53 C66 1_555 1_555
C67 C66 1_555 1_555
H54 C67 1_555 1_555
C68 C67 1_555 1_555
C69 C68 1_555 1_555
H55 C69 1_555 1_555
C70 C65 1_555 1_555
H56 C70 1_555 1_555
C71 H57 1_555 1_555
H58 C71 1_555 1_555
C72 C71 1_555 1_555
H59 C72 1_555 1_555
H60 C72 1_555 1_555
H61 C72 1_555 1_555
C73 H62 1_555 1_555
H63 C73 1_555 1_555
C74 C73 1_555 1_555
H64 C74 1_555 1_555
H65 C74 1_555 1_555
H66 C74 1_555 1_555
N4 C39 1_555 1_555
N5 C61 1_555 1_555
N6 C68 1_555 1_555
C75 C76 1_555 1_555
C76 C77 1_555 1_555
C77 H67 1_555 1_555
C78 C77 1_555 1_555
H68 C78 1_555 1_555
C79 C78 1_555 1_555
H69 C79 1_555 1_555
C80 C75 1_555 1_555
H70 C80 1_555 1_555
C81 C75 1_555 1_555
C82 C81 1_555 1_555
C83 C82 1_555 1_555
H71 C83 1_555 1_555
C84 C83 1_555 1_555
H72 C84 1_555 1_555
C85 C84 1_555 1_555
H73 C85 1_555 1_555
C86 C81 1_555 1_555
H74 C86 1_555 1_555
C87 C88 1_555 1_555
C88 H75 1_555 1_555
C89 C88 1_555 1_555
H76 C89 1_555 1_555
C90 C89 1_555 1_555
C91 C90 1_555 1_555
H77 C91 1_555 1_555
C92 C87 1_555 1_555
H78 C92 1_555 1_555
C93 C90 1_555 1_555
H79 C93 1_555 1_555
C94 C93 1_555 1_555
H80 C94 1_555 1_555
C95 C94 1_555 1_555
C96 C95 1_555 1_555
H81 C96 1_555 1_555
C97 C96 1_555 1_555
H82 C97 1_555 1_555
C98 C97 1_555 1_555
C99 C98 1_555 1_555
H83 C99 1_555 1_555
C100 C95 1_555 1_555
H84 C100 1_555 1_555
C101 H85 1_555 1_555
C102 C101 1_555 1_555
C103 C102 1_555 1_555
H86 C103 1_555 1_555
C104 C103 1_555 1_555
H87 C104 1_555 1_555
C105 C104 1_555 1_555
C106 C105 1_555 1_555
H88 C106 1_555 1_555
C107 C102 1_555 1_555
H89 C107 1_555 1_555
C108 H90 1_555 1_555
H91 C108 1_555 1_555
C109 C108 1_555 1_555
H92 C109 1_555 1_555
H93 C109 1_555 1_555
H94 C109 1_555 1_555
C110 H95 1_555 1_555
H96 C110 1_555 1_555
C111 C110 1_555 1_555
H97 C111 1_555 1_555
H98 C111 1_555 1_555
H99 C111 1_555 1_555
N7 C76 1_555 1_555
N8 C98 1_555 1_555
N9 C105 1_555 1_555
C112 C113 1_555 1_555
C113 C114 1_555 1_555
C114 H100 1_555 1_555
C115 C114 1_555 1_555
H101 C115 1_555 1_555
C116 C115 1_555 1_555
H102 C116 1_555 1_555
C117 C112 1_555 1_555
H103 C117 1_555 1_555
C118 C112 1_555 1_555
C119 C118 1_555 1_555
C120 C119 1_555 1_555
H104 C120 1_555 1_555
C121 C120 1_555 1_555
H105 C121 1_555 1_555
C122 C121 1_555 1_555
H106 C122 1_555 1_555
C123 C118 1_555 1_555
H107 C123 1_555 1_555
C124 C125 1_555 1_555
C125 H108 1_555 1_555
C126 C125 1_555 1_555
H109 C126 1_555 1_555
C127 C126 1_555 1_555
C128 C127 1_555 1_555
H110 C128 1_555 1_555
C129 C124 1_555 1_555
H111 C129 1_555 1_555
C130 C127 1_555 1_555
H112 C130 1_555 1_555
C131 C130 1_555 1_555
H113 C131 1_555 1_555
C132 C131 1_555 1_555
C133 C132 1_555 1_555
H114 C133 1_555 1_555
C134 C133 1_555 1_555
H115 C134 1_555 1_555
C135 C134 1_555 1_555
C136 C135 1_555 1_555
H116 C136 1_555 1_555
C137 C132 1_555 1_555
H117 C137 1_555 1_555
C138 H118 1_555 1_555
C139 C138 1_555 1_555
C140 C139 1_555 1_555
H119 C140 1_555 1_555
C141 C140 1_555 1_555
H120 C141 1_555 1_555
C142 C141 1_555 1_555
C143 C142 1_555 1_555
H121 C143 1_555 1_555
C144 C139 1_555 1_555
H122 C144 1_555 1_555
C145 H123 1_555 1_555
H124 C145 1_555 1_555
C146 C145 1_555 1_555
H125 C146 1_555 1_555
H126 C146 1_555 1_555
H127 C146 1_555 1_555
C147 H128 1_555 1_555
H129 C147 1_555 1_555
C148 C147 1_555 1_555
H130 C148 1_555 1_555
H131 C148 1_555 1_555
H132 C148 1_555 1_555
N10 C113 1_555 1_555
N11 C135 1_555 1_555
N12 C142 1_555 1_555
C5 C6 1_555 1_555
C8 N1 1_555 1_555
C11 C12 1_555 1_555
C13 N1 1_555 1_555
C17 C18 1_555 1_555
C25 C26 1_555 1_555
C27 N2 1_555 1_555
C32 C33 1_555 1_555
C34 N3 1_555 1_555
C36 N3 1_555 1_555
C42 C43 1_555 1_555
C45 N4 1_555 1_555
C48 C49 1_555 1_555
C50 N4 1_555 1_555
C54 C55 1_555 1_555
C62 C63 1_555 1_555
C64 N5 1_555 1_555
C69 C70 1_555 1_555
C71 N6 1_555 1_555
C73 N6 1_555 1_555
C79 C80 1_555 1_555
C82 N7 1_555 1_555
C85 C86 1_555 1_555
C87 N7 1_555 1_555
C91 C92 1_555 1_555
C99 C100 1_555 1_555
C101 N8 1_555 1_555
C106 C107 1_555 1_555
C108 N9 1_555 1_555
C110 N9 1_555 1_555
C116 C117 1_555 1_555
C119 N10 1_555 1_555
C122 C123 1_555 1_555
C124 N10 1_555 1_555
C128 C129 1_555 1_555
C136 C137 1_555 1_555
C138 N11 1_555 1_555
C143 C144 1_555 1_555
C145 N12 1_555 1_555
C147 N12 1_555 1_555

#END
