
#######################################################################
#
#                 Cambridge Crystallographic Data Centre
#                                CCDC 
#
#######################################################################
#
# If this CIF has been generated from an entry in the Cambridge 
# Structural Database, then it will include bibliographic, chemical, 
# crystal, experimental, refinement or atomic coordinate data resulting 
# from the CCDC's data processing and validation procedures.
#
#######################################################################

data_EBOXOL
_chemical_formula_moiety         'C8 H9 F3 N1 O1 1+,Cl1 1-'
_chemical_name_systematic        
'4-[(2,2,2-trifluoroethoxy)methyl]pyridin-1-ium chloride'
_symmetry_cell_setting           orthorhombic
_symmetry_space_group_name_H-M   'P b c a'
_symmetry_Int_Tables_number      61
_space_group_name_Hall           '-P 2ac 2ab'
loop_
_symmetry_equiv_pos_site_id
_symmetry_equiv_pos_as_xyz
1 x,y,z
2 1/2-x,-y,1/2+z
3 1/2+x,1/2-y,-z
4 -x,1/2+y,1/2-z
5 -x,-y,-z
6 1/2+x,y,1/2-z
7 1/2-x,1/2+y,z
8 x,1/2-y,1/2+z
_cell_length_a                   9.2236(3)
_cell_length_b                   13.5704(5)
_cell_length_c                   15.8600(5)
_cell_angle_alpha                90
_cell_angle_beta                 90
_cell_angle_gamma                90
_cell_volume                     1985.16
_exptl_crystal_colour            colorless
_exptl_crystal_description       prism
_cell_formula_units_Z            8
loop_
_atom_site_label
_atom_site_type_symbol
_atom_site_fract_x
_atom_site_fract_y
_atom_site_fract_z
Cl1 Cl 0.05957(3) -0.15913(2) -0.10192(2)
F1 F 0.62467(11) 0.35557(6) 0.09652(5)
F2 F 0.68077(8) 0.40956(6) 0.21971(5)
F3 F 0.45867(9) 0.37504(6) 0.19017(6)
O1 O 0.53248(10) 0.18040(7) 0.16109(6)
N1 N 0.26627(12) -0.08440(8) 0.02742(7)
C1 C 0.39350(14) -0.12504(10) 0.04880(8)
C2 C 0.48867(14) -0.07384(9) 0.09915(8)
C3 C 0.45331(13) 0.02072(9) 0.12647(7)
C4 C 0.31866(14) 0.05944(9) 0.10412(8)
C5 C 0.22692(14) 0.00532(10) 0.05434(8)
C6 C 0.55635(14) 0.07928(9) 0.17978(8)
C7 C 0.62181(14) 0.24287(9) 0.20975(8)
C8 C 0.59554(14) 0.34516(9) 0.17858(8)
H1 H 0.2052(19) -0.1167(13) -0.0078(11)
H2 H 0.4144(16) -0.1877(11) 0.0281(9)
H3 H 0.5773(16) -0.1027(11) 0.1124(9)
H4 H 0.2881(16) 0.1212(12) 0.1221(9)
H5 H 0.1349(17) 0.0282(11) 0.0377(9)
H6 H 0.5379(15) 0.0666(11) 0.2397(10)
H7 H 0.6549(18) 0.0616(11) 0.1670(9)
H8 H 0.7214(16) 0.2299(10) 0.2016(8)
H9 H 0.5952(15) 0.2414(11) 0.2692(9)
loop_
_geom_bond_atom_site_label_1
_geom_bond_atom_site_label_2
_geom_bond_site_symmetry_1
_geom_bond_site_symmetry_2
F1 C8 1_555 1_555
F2 C8 1_555 1_555
F3 C8 1_555 1_555
O1 C6 1_555 1_555
N1 C1 1_555 1_555
C1 C2 1_555 1_555
C2 C3 1_555 1_555
C3 C4 1_555 1_555
C4 C5 1_555 1_555
C5 N1 1_555 1_555
C6 C3 1_555 1_555
C7 O1 1_555 1_555
C8 C7 1_555 1_555
H1 N1 1_555 1_555
H2 C1 1_555 1_555
H3 C2 1_555 1_555
H4 C4 1_555 1_555
H5 C5 1_555 1_555
H6 C6 1_555 1_555
H7 C6 1_555 1_555
H8 C7 1_555 1_555
H9 C7 1_555 1_555

#END
