
#######################################################################
#
#                 Cambridge Crystallographic Data Centre
#                                CCDC 
#
#######################################################################
#
# If this CIF has been generated from an entry in the Cambridge 
# Structural Database, then it will include bibliographic, chemical, 
# crystal, experimental, refinement or atomic coordinate data resulting 
# from the CCDC's data processing and validation procedures.
#
#######################################################################

data_EBUCUZ
_chemical_name_common            alpha,alpha-bis(Pinacolboranyl)toluene
_chemical_formula_moiety         'C19 H30 B2 O4'
_chemical_name_systematic        
Phenyl-bis(4,4,5,5-tetramethyl-1,3,2-dioxaborolanyl-B)methane
_symmetry_cell_setting           monoclinic
_symmetry_space_group_name_H-M   'P 21/n'
_symmetry_Int_Tables_number      14
_space_group_name_Hall           '-P 2yn'
loop_
_symmetry_equiv_pos_site_id
_symmetry_equiv_pos_as_xyz
1 x,y,z
2 1/2+x,1/2-y,1/2+z
3 -x,-y,-z
4 1/2-x,1/2+y,1/2-z
_cell_length_a                   11.810(1)
_cell_length_b                   11.503(1)
_cell_length_c                   15.721(1)
_cell_angle_alpha                90
_cell_angle_beta                 111.96(1)
_cell_angle_gamma                90
_cell_volume                     1980.75
_exptl_crystal_colour            colorless
_exptl_crystal_description       block
_cell_formula_units_Z            4
loop_
_atom_site_label
_atom_site_type_symbol
_atom_site_fract_x
_atom_site_fract_y
_atom_site_fract_z
O1 O 0.12954(11) 0.17583(11) 0.33835(9)
O2 O 0.31010(11) 0.27636(10) 0.38119(8)
O3 O 0.30378(11) 0.23167(10) 0.60867(8)
O4 O 0.10229(11) 0.17870(11) 0.55814(9)
C1 C 0.20843(16) 0.45605(14) 0.48321(11)
C2 C 0.33357(16) 0.47785(15) 0.52152(12)
H1 H 0.3895 0.4150 0.5333
C3 C 0.37758(17) 0.59037(15) 0.54264(12)
H2 H 0.4631 0.6040 0.5685
C4 C 0.29659(17) 0.68328(15) 0.52603(12)
H3 H 0.3269 0.7601 0.5410
C5 C 0.17197(17) 0.66417(15) 0.48779(12)
H4 H 0.1166 0.7275 0.4763
C6 C 0.12814(16) 0.55076(15) 0.46618(12)
H5 H 0.0426 0.5376 0.4397
C7 C 0.15695(15) 0.33340(14) 0.45984(11)
H6 H 0.0661 0.3403 0.4310
C8 C 0.19057(17) 0.13754(16) 0.27699(13)
C9 C 0.32533(16) 0.17174(14) 0.33211(12)
C10 C 0.1687(2) 0.00781(18) 0.25993(18)
H7 H 0.1961 -0.0334 0.3187
H8 H 0.2145 -0.0203 0.2233
H9 H 0.0814 -0.0064 0.2267
C11 C 0.13305(19) 0.2050(2) 0.18714(13)
H10 H 0.0443 0.1942 0.1630
H11 H 0.1660 0.1763 0.1424
H12 H 0.1521 0.2879 0.1985
C12 C 0.39442(19) 0.08438(17) 0.40664(15)
H13 H 0.4717 0.1188 0.4472
H14 H 0.4111 0.0140 0.3782
H15 H 0.3447 0.0644 0.4424
C13 C 0.39928(17) 0.20079(15) 0.27409(13)
H16 H 0.3605 0.2654 0.2329
H17 H 0.4028 0.1326 0.2378
H18 H 0.4822 0.2232 0.3141
C14 C 0.29143(17) 0.15692(15) 0.68067(12)
C15 C 0.16853(16) 0.09332(15) 0.62854(12)
C16 C 0.2867(2) 0.23821(17) 0.75615(13)
H19 H 0.3599 0.2872 0.7773
H20 H 0.2834 0.1921 0.8076
H21 H 0.2140 0.2875 0.7320
C17 C 0.40218(18) 0.07811(17) 0.71771(14)
H22 H 0.4120 0.0354 0.6670
H23 H 0.3909 0.0229 0.7614
H24 H 0.4752 0.1252 0.7488
C18 C 0.09303(19) 0.06547(17) 0.68596(15)
H25 H 0.0683 0.1379 0.7070
H26 H 0.1420 0.0188 0.7392
H27 H 0.0202 0.0216 0.6488
C19 C 0.18416(18) -0.01533(15) 0.57798(13)
H28 H 0.1037 -0.0446 0.5385
H29 H 0.2272 -0.0752 0.6227
H30 H 0.2315 0.0041 0.5404
B1 B 0.20037(17) 0.26394(16) 0.39105(13)
B2 B 0.18784(17) 0.24782(16) 0.54512(13)
loop_
_geom_bond_atom_site_label_1
_geom_bond_atom_site_label_2
_geom_bond_site_symmetry_1
_geom_bond_site_symmetry_2
O1 C8 1_555 1_555
O2 C9 1_555 1_555
O3 C14 1_555 1_555
O4 C15 1_555 1_555
C1 C2 1_555 1_555
C2 H1 1_555 1_555
C3 C2 1_555 1_555
H2 C3 1_555 1_555
C4 C3 1_555 1_555
H3 C4 1_555 1_555
C5 C4 1_555 1_555
H4 C5 1_555 1_555
C6 C1 1_555 1_555
H5 C6 1_555 1_555
C7 C1 1_555 1_555
H6 C7 1_555 1_555
C8 C9 1_555 1_555
C9 C12 1_555 1_555
C10 C8 1_555 1_555
H7 C10 1_555 1_555
H8 C10 1_555 1_555
H9 C10 1_555 1_555
C11 C8 1_555 1_555
H10 C11 1_555 1_555
H11 C11 1_555 1_555
H12 C11 1_555 1_555
C12 H13 1_555 1_555
H14 C12 1_555 1_555
H15 C12 1_555 1_555
C13 C9 1_555 1_555
H16 C13 1_555 1_555
H17 C13 1_555 1_555
H18 C13 1_555 1_555
C14 C15 1_555 1_555
C15 C18 1_555 1_555
C16 C14 1_555 1_555
H19 C16 1_555 1_555
H20 C16 1_555 1_555
H21 C16 1_555 1_555
C17 C14 1_555 1_555
H22 C17 1_555 1_555
H23 C17 1_555 1_555
H24 C17 1_555 1_555
C18 H25 1_555 1_555
H26 C18 1_555 1_555
H27 C18 1_555 1_555
C19 C15 1_555 1_555
H28 C19 1_555 1_555
H29 C19 1_555 1_555
H30 C19 1_555 1_555
B1 O1 1_555 1_555
B2 O3 1_555 1_555
O2 B1 1_555 1_555
O4 B2 1_555 1_555
C5 C6 1_555 1_555
C7 B1 1_555 1_555
C7 B2 1_555 1_555

#END
