
#######################################################################
#
#                 Cambridge Crystallographic Data Centre
#                                CCDC 
#
#######################################################################
#
# If this CIF has been generated from an entry in the Cambridge 
# Structural Database, then it will include bibliographic, chemical, 
# crystal, experimental, refinement or atomic coordinate data resulting 
# from the CCDC's data processing and validation procedures.
#
#######################################################################

data_EBUHIS
_chemical_formula_moiety         'C39 H76 O2 Si4'
_chemical_name_systematic        
3,5-bis(t-Butyl(dimethyl)silyloxymethyl)-1,7-bis(tri-isopropylsilyl)hepta-3,4-dien-1,6-diyne
_symmetry_cell_setting           orthorhombic
_symmetry_space_group_name_H-M   'P b c n'
_symmetry_Int_Tables_number      60
_space_group_name_Hall           '-P 2n 2ab'
loop_
_symmetry_equiv_pos_site_id
_symmetry_equiv_pos_as_xyz
1 x,y,z
2 1/2+x,1/2+y,1/2-z
3 x,-y,1/2+z
4 1/2-x,1/2+y,z
5 -x,-y,-z
6 1/2-x,1/2-y,1/2+z
7 -x,y,1/2-z
8 1/2+x,1/2-y,-z
_cell_length_a                   14.767(5)
_cell_length_b                   11.746(4)
_cell_length_c                   27.420(13)
_cell_angle_alpha                90
_cell_angle_beta                 90
_cell_angle_gamma                90
_cell_volume                     4756.09
_exptl_crystal_colour            colorless
_exptl_crystal_description       prism
_cell_formula_units_Z            4
loop_
_atom_site_label
_atom_site_type_symbol
_atom_site_fract_x
_atom_site_fract_y
_atom_site_fract_z
Si1 Si 0.39765(10) 0.16352(12) 0.40719(5)
Si2 Si 0.31581(11) 0.62783(14) 0.20040(6)
O1 O 0.3556(3) 0.5089(4) 0.22094(14)
C1 C 0.5000 0.3849(5) 0.2500
C2 C 0.4284(4) 0.3871(4) 0.2774(2)
C3 C 0.4196(4) 0.3149(4) 0.3192(2)
C4 C 0.4076(4) 0.2564(4) 0.3548(2)
C5 C 0.2765(5) 0.1623(6) 0.4271(3)
H1 H 0.2677(5) 0.2398(6) 0.4372(3)
C6 C 0.2098(6) 0.1493(10) 0.3898(4)
H2 H 0.1507(6) 0.1494(10) 0.4044(4)
H3 H 0.2146(6) 0.2116(10) 0.3674(4)
H4 H 0.2190(6) 0.0789(10) 0.3727(4)
C7 C 0.2614(6) 0.0982(7) 0.4743(3)
H5 H 0.1981(6) 0.1005(7) 0.4824(3)
H6 H 0.2802(6) 0.0204(7) 0.4705(3)
H7 H 0.2957(6) 0.1330(7) 0.5001(3)
C8 C 0.4425(6) 0.0232(6) 0.3882(2)
H8 H 0.5050(6) 0.0426(6) 0.3836(2)
C9 C 0.4514(7) -0.0617(6) 0.4283(3)
H9 H 0.4751(7) -0.1316(6) 0.4153(3)
H10 H 0.4919(7) -0.0328(6) 0.4527(3)
H11 H 0.3931(7) -0.0755(6) 0.4425(3)
C10 C 0.4222(9) -0.0213(7) 0.3426(3)
H12 H 0.4508(9) -0.0942(7) 0.3390(3)
H13 H 0.3578(9) -0.0297(7) 0.3393(3)
H14 H 0.4442(9) 0.0296(7) 0.3179(3)
C11 C 0.4672(4) 0.2274(6) 0.4568(2)
H15 H 0.4581(4) 0.1822(6) 0.4855(2)
C12 C 0.4398(7) 0.3471(7) 0.4690(3)
H16 H 0.4780(7) 0.3753(7) 0.4946(3)
H17 H 0.4465(7) 0.3943(7) 0.4406(3)
H18 H 0.3778(7) 0.3484(7) 0.4795(3)
C13 C 0.5669(6) 0.2252(10) 0.4453(3)
H19 H 0.5999(6) 0.2589(10) 0.4718(3)
H20 H 0.5862(6) 0.1478(10) 0.4410(3)
H21 H 0.5781(6) 0.2674(10) 0.4160(3)
C14 C 0.3496(4) 0.4639(5) 0.2678(2)
H22 H 0.3491(4) 0.5247(5) 0.2912(2)
H23 H 0.2942(4) 0.4219(5) 0.2712(2)
C15 C 0.1919(4) 0.6321(6) 0.2092(3)
H24 H 0.1644(4) 0.5701(6) 0.1919(3)
H25 H 0.1782(4) 0.6257(6) 0.2433(3)
H26 H 0.1686(4) 0.7029(6) 0.1969(3)
C16 C 0.3629(6) 0.7492(8) 0.2347(3)
H27 H 0.4276(6) 0.7502(8) 0.2311(3)
H28 H 0.3380(6) 0.8188(8) 0.2222(3)
H29 H 0.3476(6) 0.7417(8) 0.2686(3)
C17 C 0.3502(4) 0.6265(5) 0.1360(2)
C18 C 0.3191(4) 0.7370(6) 0.1108(2)
H30 H 0.3373(4) 0.7358(6) 0.0772(2)
H31 H 0.2544(4) 0.7433(6) 0.1127(2)
H32 H 0.3464(4) 0.8011(6) 0.1268(2)
C19 C 0.4548(4) 0.6179(6) 0.1320(2)
H33 H 0.4723(4) 0.6173(6) 0.0983(2)
H34 H 0.4820(4) 0.6821(6) 0.1480(2)
H35 H 0.4750(4) 0.5490(6) 0.1474(2)
C20 C 0.3063(5) 0.5280(6) 0.1094(3)
H36 H 0.3252(5) 0.5288(6) 0.0759(3)
H37 H 0.3246(5) 0.4576(6) 0.1243(3)
H38 H 0.2417(5) 0.5351(6) 0.1111(3)
C2F C 0.5716(4) 0.3871(4) 0.2226(2)
C3F C 0.5804(4) 0.3149(4) 0.1808(2)
C4F C 0.5924(4) 0.2564(4) 0.1452(2)
Si1F Si 0.60235(10) 0.16352(12) 0.09281(5)
C5F C 0.7235(5) 0.1623(6) 0.0729(3)
H1F H 0.7323(5) 0.2398(6) 0.0628(3)
C6F C 0.7902(6) 0.1493(10) 0.1102(4)
H2F H 0.8493(6) 0.1494(10) 0.0956(4)
H3F H 0.7854(6) 0.2116(10) 0.1326(4)
H4F H 0.7810(6) 0.0789(10) 0.1273(4)
C7F C 0.7386(6) 0.0982(7) 0.0257(3)
H5F H 0.8019(6) 0.1005(7) 0.0176(3)
H6F H 0.7198(6) 0.0204(7) 0.0295(3)
H7F H 0.7043(6) 0.1330(7) -0.0001(3)
C8F C 0.5575(6) 0.0232(6) 0.1118(2)
H8F H 0.4950(6) 0.0426(6) 0.1164(2)
C9F C 0.5486(7) -0.0617(6) 0.0717(3)
H9F H 0.5249(7) -0.1316(6) 0.0847(3)
H10F H 0.5081(7) -0.0328(6) 0.0473(3)
H11F H 0.6069(7) -0.0755(6) 0.0575(3)
C10F C 0.5778(9) -0.0213(7) 0.1574(3)
H12F H 0.5492(9) -0.0942(7) 0.1610(3)
H13F H 0.6422(9) -0.0297(7) 0.1607(3)
H14F H 0.5558(9) 0.0296(7) 0.1821(3)
C11F C 0.5328(4) 0.2274(6) 0.0432(2)
H15F H 0.5419(4) 0.1822(6) 0.0145(2)
C12F C 0.5602(7) 0.3471(7) 0.0310(3)
H16F H 0.5220(7) 0.3753(7) 0.0054(3)
H17F H 0.5535(7) 0.3943(7) 0.0594(3)
H18F H 0.6222(7) 0.3484(7) 0.0205(3)
C13F C 0.4331(6) 0.2252(10) 0.0547(3)
H19F H 0.4001(6) 0.2589(10) 0.0282(3)
H20F H 0.4138(6) 0.1478(10) 0.0590(3)
H21F H 0.4219(6) 0.2674(10) 0.0840(3)
C14F C 0.6504(4) 0.4639(5) 0.2322(2)
O1F O 0.6444(3) 0.5089(4) 0.27906(14)
Si2F Si 0.68419(11) 0.62783(14) 0.29960(6)
C15F C 0.8081(4) 0.6321(6) 0.2908(3)
H24F H 0.8356(4) 0.5701(6) 0.3081(3)
H25F H 0.8218(4) 0.6257(6) 0.2567(3)
H26F H 0.8314(4) 0.7029(6) 0.3031(3)
C16F C 0.6371(6) 0.7492(8) 0.2653(3)
H27F H 0.5724(6) 0.7502(8) 0.2689(3)
H28F H 0.6620(6) 0.8188(8) 0.2778(3)
H29F H 0.6524(6) 0.7417(8) 0.2314(3)
C17F C 0.6498(4) 0.6265(5) 0.3640(2)
C18F C 0.6809(4) 0.7370(6) 0.3892(2)
H30F H 0.6627(4) 0.7358(6) 0.4228(2)
H31F H 0.7456(4) 0.7433(6) 0.3873(2)
H32F H 0.6536(4) 0.8011(6) 0.3732(2)
C19F C 0.5452(4) 0.6179(6) 0.3680(2)
H33F H 0.5277(4) 0.6173(6) 0.4017(2)
H34F H 0.5180(4) 0.6821(6) 0.3520(2)
H35F H 0.5250(4) 0.5490(6) 0.3526(2)
C20F C 0.6937(5) 0.5280(6) 0.3906(3)
H36F H 0.6748(5) 0.5288(6) 0.4241(3)
H37F H 0.6754(5) 0.4576(6) 0.3757(3)
H38F H 0.7583(5) 0.5351(6) 0.3889(3)
H22F H 0.6509(4) 0.5247(5) 0.2088(2)
H23F H 0.7058(4) 0.4219(5) 0.2288(2)
loop_
_geom_bond_atom_site_label_1
_geom_bond_atom_site_label_2
_geom_bond_site_symmetry_1
_geom_bond_site_symmetry_2
Si1 C4 1_555 1_555
Si2 O1 1_555 1_555
O1 C14 1_555 1_555
C1 C2 1_555 1_555
C2 C3 1_555 1_555
C3 C4 1_555 1_555
C5 Si1 1_555 1_555
H1 C5 1_555 1_555
C6 C5 1_555 1_555
H2 C6 1_555 1_555
H3 C6 1_555 1_555
H4 C6 1_555 1_555
C7 C5 1_555 1_555
H5 C7 1_555 1_555
H6 C7 1_555 1_555
H7 C7 1_555 1_555
C8 Si1 1_555 1_555
H8 C8 1_555 1_555
C9 C8 1_555 1_555
H9 C9 1_555 1_555
H10 C9 1_555 1_555
H11 C9 1_555 1_555
C10 C8 1_555 1_555
H12 C10 1_555 1_555
H13 C10 1_555 1_555
H14 C10 1_555 1_555
C11 Si1 1_555 1_555
H15 C11 1_555 1_555
C12 C11 1_555 1_555
H16 C12 1_555 1_555
H17 C12 1_555 1_555
H18 C12 1_555 1_555
C13 C11 1_555 1_555
H19 C13 1_555 1_555
H20 C13 1_555 1_555
H21 C13 1_555 1_555
C14 C2 1_555 1_555
H22 C14 1_555 1_555
H23 C14 1_555 1_555
C15 Si2 1_555 1_555
H24 C15 1_555 1_555
H25 C15 1_555 1_555
H26 C15 1_555 1_555
C16 Si2 1_555 1_555
H27 C16 1_555 1_555
H28 C16 1_555 1_555
H29 C16 1_555 1_555
C17 Si2 1_555 1_555
C18 C17 1_555 1_555
H30 C18 1_555 1_555
H31 C18 1_555 1_555
H32 C18 1_555 1_555
C19 C17 1_555 1_555
H33 C19 1_555 1_555
H34 C19 1_555 1_555
H35 C19 1_555 1_555
C20 C17 1_555 1_555
H36 C20 1_555 1_555
H37 C20 1_555 1_555
H38 C20 1_555 1_555
C2F C1 1_555 1_555
C3F C2F 1_555 1_555
C4F C3F 1_555 1_555
Si1F C4F 1_555 1_555
C5F Si1F 1_555 1_555
H1F C5F 1_555 1_555
C6F C5F 1_555 1_555
H2F C6F 1_555 1_555
H3F C6F 1_555 1_555
H4F C6F 1_555 1_555
C7F C5F 1_555 1_555
H5F C7F 1_555 1_555
H6F C7F 1_555 1_555
H7F C7F 1_555 1_555
C8F Si1F 1_555 1_555
H8F C8F 1_555 1_555
C9F C8F 1_555 1_555
H9F C9F 1_555 1_555
H10F C9F 1_555 1_555
H11F C9F 1_555 1_555
C10F C8F 1_555 1_555
H12F C10F 1_555 1_555
H13F C10F 1_555 1_555
H14F C10F 1_555 1_555
C11F Si1F 1_555 1_555
H15F C11F 1_555 1_555
C12F C11F 1_555 1_555
H16F C12F 1_555 1_555
H17F C12F 1_555 1_555
H18F C12F 1_555 1_555
C13F C11F 1_555 1_555
H19F C13F 1_555 1_555
H20F C13F 1_555 1_555
H21F C13F 1_555 1_555
C14F C2F 1_555 1_555
O1F C14F 1_555 1_555
Si2F O1F 1_555 1_555
C15F Si2F 1_555 1_555
H24F C15F 1_555 1_555
H25F C15F 1_555 1_555
H26F C15F 1_555 1_555
C16F Si2F 1_555 1_555
H27F C16F 1_555 1_555
H28F C16F 1_555 1_555
H29F C16F 1_555 1_555
C17F Si2F 1_555 1_555
C18F C17F 1_555 1_555
H30F C18F 1_555 1_555
H31F C18F 1_555 1_555
H32F C18F 1_555 1_555
C19F C17F 1_555 1_555
H33F C19F 1_555 1_555
H34F C19F 1_555 1_555
H35F C19F 1_555 1_555
C20F C17F 1_555 1_555
H36F C20F 1_555 1_555
H37F C20F 1_555 1_555
H38F C20F 1_555 1_555
H22F C14F 1_555 1_555
H23F C14F 1_555 1_555

#END
