
#######################################################################
#
#                 Cambridge Crystallographic Data Centre
#                                CCDC 
#
#######################################################################
#
# If this CIF has been generated from an entry in the Cambridge 
# Structural Database, then it will include bibliographic, chemical, 
# crystal, experimental, refinement or atomic coordinate data resulting 
# from the CCDC's data processing and validation procedures.
#
#######################################################################

data_EBUJES
_chemical_formula_moiety         'C22 H15 N2 O2 1-,C7 H11 N2 1+'
_chemical_name_systematic        
'4-(dimethylamino)pyridinium 2-cyano-3-(4-(diphenylamino)phenyl)acrylate'
_symmetry_cell_setting           monoclinic
_symmetry_space_group_name_H-M   'P 21/n'
_symmetry_Int_Tables_number      14
_space_group_name_Hall           '-P 2yn'
loop_
_symmetry_equiv_pos_site_id
_symmetry_equiv_pos_as_xyz
1 x,y,z
2 1/2-x,1/2+y,1/2-z
3 -x,-y,-z
4 1/2+x,1/2-y,1/2+z
_cell_length_a                   7.6459(15)
_cell_length_b                   27.929(6)
_cell_length_c                   11.311(2)
_cell_angle_alpha                90
_cell_angle_beta                 91.84(3)
_cell_angle_gamma                90
_cell_volume                     2414.13
_exptl_crystal_colour            yellow
_exptl_crystal_description       block
_cell_formula_units_Z            4
loop_
_atom_site_label
_atom_site_type_symbol
_atom_site_fract_x
_atom_site_fract_y
_atom_site_fract_z
N1 N 1.2613(2) 0.25147(6) 0.67687(15)
N2 N 0.8202(2) 0.31940(6) 0.79269(16)
C1 C 1.2408(3) 0.25952(7) 0.79335(18)
H1 H 1.3302 0.2495 0.8482
C2 C 1.0962(3) 0.28148(7) 0.83470(18)
H2 H 1.0861 0.2868 0.9172
C3 C 0.9609(3) 0.29643(7) 0.75483(18)
C4 C 0.9857(3) 0.28656(7) 0.63362(18)
H3 H 0.8973 0.2950 0.5765
C5 C 1.1345(3) 0.26509(7) 0.59836(18)
H4 H 1.1497 0.2595 0.5165
C6 C 0.8069(3) 0.33542(9) 0.9142(2)
H5 H 0.9112 0.3253 0.9602
H6 H 0.7026 0.3213 0.9484
H7 H 0.7979 0.3704 0.9159
C7 C 0.6731(3) 0.33151(9) 0.7140(2)
H8 H 0.6937 0.3189 0.6348
H9 H 0.6604 0.3664 0.7101
H10 H 0.5660 0.3174 0.7441
H11 H 1.373(3) 0.2356(9) 0.651(2)
O1 O 0.06148(19) 0.28914(5) 0.12387(12)
O2 O 0.1142(2) 0.28735(5) 0.32005(13)
N3 N 0.3666(3) 0.35683(8) -0.01404(17)
N4 N 1.0701(2) 0.43663(6) 0.34897(15)
C8 C 0.1497(3) 0.29919(7) 0.21782(18)
C9 C 0.3134(3) 0.32827(7) 0.19949(18)
C10 C 0.3434(3) 0.34385(8) 0.08081(19)
C11 C 0.4219(3) 0.33856(7) 0.29196(18)
H12 H 0.3833 0.3270 0.3656
C12 C 0.9089(3) 0.41287(7) 0.33385(18)
C13 C 0.8037(3) 0.40278(7) 0.42972(18)
H13 H 0.8399 0.4126 0.5071
C14 C 0.6483(3) 0.37879(7) 0.41227(18)
H14 H 0.5796 0.3718 0.4786
C15 C 0.5879(3) 0.36424(7) 0.29995(18)
C16 C 0.6922(3) 0.37504(7) 0.20497(19)
H15 H 0.6542 0.3660 0.1274
C17 C 0.8494(3) 0.39858(7) 0.22119(19)
H16 H 0.9185 0.4052 0.1548
C18 C 1.1291(3) 0.46763(7) 0.25781(18)
C19 C 1.0193(3) 0.50293(8) 0.2104(2)
H17 H 0.9037 0.5064 0.2375
C20 C 1.0799(3) 0.53302(9) 0.1230(3)
H18 H 1.0044 0.5568 0.0896
C21 C 1.2473(3) 0.52891(9) 0.0841(2)
H19 H 1.2879 0.5499 0.0249
C22 C 1.3561(3) 0.49403(8) 0.1318(2)
H20 H 1.4723 0.4911 0.1054
C23 C 1.2972(3) 0.46322(7) 0.21786(19)
H21 H 1.3725 0.4390 0.2495
C24 C 1.1683(3) 0.43416(7) 0.45758(18)
C25 C 1.2581(3) 0.47392(7) 0.50063(19)
H22 H 1.2532 0.5031 0.4576
C26 C 1.3549(3) 0.47132(8) 0.6061(2)
H23 H 1.4183 0.4986 0.6338
C27 C 1.3602(3) 0.42941(8) 0.6714(2)
H24 H 1.4244 0.4279 0.7446
C28 C 1.2700(3) 0.38943(8) 0.62822(19)
H25 H 1.2718 0.3606 0.6728
C29 C 1.1780(3) 0.39124(7) 0.52134(19)
H26 H 1.1212 0.3634 0.4910
loop_
_geom_bond_atom_site_label_1
_geom_bond_atom_site_label_2
_geom_bond_site_symmetry_1
_geom_bond_site_symmetry_2
N1 C1 1_555 1_555
N2 C3 1_555 1_555
C1 H1 1_555 1_555
C2 C1 1_555 1_555
H2 C2 1_555 1_555
C3 C2 1_555 1_555
C4 C3 1_555 1_555
H3 C4 1_555 1_555
C5 N1 1_555 1_555
H4 C5 1_555 1_555
C6 N2 1_555 1_555
H5 C6 1_555 1_555
H6 C6 1_555 1_555
H7 C6 1_555 1_555
C7 N2 1_555 1_555
H8 C7 1_555 1_555
H9 C7 1_555 1_555
H10 C7 1_555 1_555
H11 N1 1_555 1_555
O1 C8 1_555 1_555
O2 C8 1_555 1_555
N3 C10 1_555 1_555
N4 C12 1_555 1_555
C8 C9 1_555 1_555
C9 C10 1_555 1_555
C11 C9 1_555 1_555
H12 C11 1_555 1_555
C12 C13 1_555 1_555
C13 H13 1_555 1_555
C14 C13 1_555 1_555
H14 C14 1_555 1_555
C15 C11 1_555 1_555
C16 C15 1_555 1_555
H15 C16 1_555 1_555
C17 C12 1_555 1_555
H16 C17 1_555 1_555
C18 N4 1_555 1_555
C19 C18 1_555 1_555
H17 C19 1_555 1_555
C20 C19 1_555 1_555
H18 C20 1_555 1_555
C21 C20 1_555 1_555
H19 C21 1_555 1_555
C22 C21 1_555 1_555
H20 C22 1_555 1_555
C23 C18 1_555 1_555
H21 C23 1_555 1_555
C24 N4 1_555 1_555
C25 C24 1_555 1_555
H22 C25 1_555 1_555
C26 C25 1_555 1_555
H23 C26 1_555 1_555
C27 C26 1_555 1_555
H24 C27 1_555 1_555
C28 C27 1_555 1_555
H25 C28 1_555 1_555
C29 C24 1_555 1_555
H26 C29 1_555 1_555
C4 C5 1_555 1_555
C14 C15 1_555 1_555
C16 C17 1_555 1_555
C22 C23 1_555 1_555
C28 C29 1_555 1_555

#END
