
#######################################################################
#
#                 Cambridge Crystallographic Data Centre
#                                CCDC 
#
#######################################################################
#
# If this CIF has been generated from an entry in the Cambridge 
# Structural Database, then it will include bibliographic, chemical, 
# crystal, experimental, refinement or atomic coordinate data resulting 
# from the CCDC's data processing and validation procedures.
#
#######################################################################

data_EBUKAQ
_chemical_compound_source        'isolated from Garcinia multiflora'
_chemical_name_common            'garmultin A acetone unknown solvate'
_chemical_formula_moiety         'C38 H48 O8,x(C3 H6 O1)'
_chemical_name_systematic        
'5-(3,4-dihydroxybenzoyl)-9-(2-hydroxypropan-2-yl)-1,7-dimethyl-3,15-bis(3-methylbut-2-en-1-yl)-8,17-dioxahexacyclo[7.6.2.1^3,13^.0^5,16^.0^7,11^.0^13,16^]octadecane-4,18-dione acetone unknown solvate'
_chemical_properties_biological  
'Activity against human tumour cell lines HL-60, SMMC-7721, A-549, MCF-7 and SW480. (-)-garmultin A exhibited stronger inhibitory activity than (+)-garmultin A.'
_symmetry_cell_setting           triclinic
_symmetry_space_group_name_H-M   'P -1'
_symmetry_Int_Tables_number      2
_space_group_name_Hall           '-P 1'
loop_
_symmetry_equiv_pos_site_id
_symmetry_equiv_pos_as_xyz
1 x,y,z
2 -x,-y,-z
_cell_length_a                   10.9230(10)
_cell_length_b                   14.1551(12)
_cell_length_c                   14.1908(12)
_cell_angle_alpha                108.623(3)
_cell_angle_beta                 93.277(3)
_cell_angle_gamma                90.412(3)
_cell_volume                     2075.09
_chemical_melting_point          '306-309 deg.C'
_cell_formula_units_Z            2
_exptl_crystal_recrystallization_method acetone
loop_
_atom_site_label
_atom_site_type_symbol
_atom_site_fract_x
_atom_site_fract_y
_atom_site_fract_z
C1 C 1.0934(3) -0.0274(2) 0.1873(2)
H1 H 1.1205 -0.0703 0.1282
C2 C 0.9985(3) 0.0353(2) 0.1835(2)
H2 H 0.9620 0.0335 0.1221
C3 C 1.1492(2) -0.0277(2) 0.2772(2)
C4 C 1.1101(3) 0.0403(2) 0.3649(2)
C5 C 1.0163(3) 0.1034(2) 0.3606(2)
H3 H 0.9921 0.1487 0.4195
C6 C 0.9566(2) 0.10144(19) 0.27074(19)
C7 C 0.8581(2) 0.17660(19) 0.27622(19)
C8 C 0.7340(2) 0.15195(17) 0.21102(17)
C9 C 0.7514(2) 0.16893(19) 0.11123(19)
C10 C 0.7018(2) 0.03779(18) 0.17960(19)
H4 H 0.6478 0.0193 0.1195
H5 H 0.7765 0.0008 0.1642
C11 C 0.6397(3) 0.00785(18) 0.2601(2)
C12 C 0.6729(3) -0.0974(2) 0.2561(2)
H6 H 0.7604 -0.1033 0.2568
H7 H 0.6361 -0.1442 0.1961
H8 H 0.6431 -0.1112 0.3128
C13 C 0.4993(3) 0.02356(19) 0.2598(2)
H9 H 0.4576 -0.0412 0.2472
C14 C 0.4811(3) 0.0874(2) 0.3673(2)
H10 H 0.4129 0.1315 0.3705
H11 H 0.4670 0.0461 0.4088
C15 C 0.6018(2) 0.14561(18) 0.39823(19)
C16 C 0.7526(3) 0.2458(3) 0.5381(2)
H12 H 0.8167 0.2056 0.5034
H13 H 0.7719 0.2645 0.6086
H14 H 0.7456 0.3048 0.5188
C17 C 0.6331(3) 0.1872(2) 0.51231(19)
C18 C 0.5296(3) 0.2482(3) 0.5659(2)
H15 H 0.4543 0.2096 0.5477
H16 H 0.5218 0.3076 0.5474
H17 H 0.5472 0.2661 0.6366
C19 C 0.6218(2) 0.21772(17) 0.25960(17)
C20 C 0.6981(3) 0.40775(19) 0.3394(2)
H18 H 0.6723 0.4096 0.4035
H19 H 0.6877 0.4720 0.3312
H20 H 0.7830 0.3908 0.3347
C21 C 0.5026(2) 0.17475(17) 0.19112(18)
C22 C 0.4097(2) 0.25665(19) 0.2312(2)
H21 H 0.3464 0.2547 0.1798
H22 H 0.3712 0.2471 0.2875
C23 C 0.4807(2) 0.35649(18) 0.26314(19)
H23 H 0.4613 0.3887 0.2126
C24 C 0.4383(3) 0.4252(2) 0.3623(2)
H24 H 0.4417 0.3900 0.4109
H25 H 0.4936 0.4829 0.3870
C25 C 0.3103(3) 0.4592(2) 0.3514(3)
H26 H 0.3007 0.5019 0.3136
C26 C 0.2094(3) 0.4372(2) 0.3876(3)
C27 C 0.2013(4) 0.3685(3) 0.4476(3)
H27 H 0.1183 0.3649 0.4654
H28 H 0.2544 0.3930 0.5070
H29 H 0.2259 0.3033 0.4091
C28 C 0.6206(2) 0.32948(17) 0.25768(18)
C29 C 0.6630(3) 0.32816(19) 0.1556(2)
H30 H 0.7485 0.3499 0.1633
H31 H 0.6157 0.3753 0.1329
C30 C 0.6488(2) 0.22360(18) 0.07511(19)
C31 C 0.6642(3) 0.2260(2) -0.0307(2)
H32 H 0.7475 0.2478 -0.0348
H33 H 0.6525 0.1588 -0.0769
C32 C 0.5772(3) 0.2930(2) -0.0628(2)
H34 H 0.4948 0.2848 -0.0531
C33 C 0.6037(4) 0.3618(3) -0.1029(3)
C34 C 0.5075(5) 0.4241(3) -0.1308(3)
H35 H 0.5451 0.4701 -0.1583
H36 H 0.4664 0.4605 -0.0727
H37 H 0.4491 0.3818 -0.1794
C35 C 0.7292(6) 0.3825(5) -0.1267(6)
H38 H 0.7275 0.4359 -0.1548
H39 H 0.7594 0.3238 -0.1738
H40 H 0.7820 0.4014 -0.0669
C36 C 0.4479(3) 0.07043(19) 0.1836(2)
H41 H 0.3601 0.0763 0.1897
H42 H 0.4606 0.0250 0.1176
C37 C 0.0901(4) 0.4849(4) 0.3721(4)
H43 H 0.0266 0.4612 0.4037
H44 H 0.0684 0.4678 0.3021
H45 H 0.0993 0.5560 0.4008
C38 C 0.5284(2) 0.17468(18) 0.08622(19)
O1 O 1.23852(18) -0.09437(16) 0.27614(15)
H46 H 1.2644 -0.0874 0.3334
O2 O 1.1684(2) 0.0398(2) 0.45328(16)
H47 H 1.2216 -0.0023 0.4419
O3 O 0.87485(19) 0.25899(15) 0.33627(17)
O4 O 0.8419(2) 0.14344(18) 0.06479(16)
O5 O 0.45655(19) 0.13678(15) 0.01576(14)
O6 O 0.69050(16) 0.07487(12) 0.35626(13)
O7 O 0.60918(16) 0.22925(12) 0.36250(12)
O8 O 0.6415(2) 0.10056(16) 0.54591(15)
H48 H 0.6562 0.1188 0.6064
C1A C 0.9066(3) 0.0274(2) 0.8127(2)
H1A H 0.8795 0.0703 0.8718
C2A C 1.0015(3) -0.0353(2) 0.8165(2)
H2A H 1.0380 -0.0335 0.8779
C3A C 0.8508(2) 0.0277(2) 0.7228(2)
C4A C 0.8899(3) -0.0403(2) 0.6351(2)
C5A C 0.9837(3) -0.1034(2) 0.6394(2)
H3A H 1.0079 -0.1487 0.5805
C6A C 1.0434(2) -0.10144(19) 0.72926(19)
C7A C 1.1419(2) -0.17660(19) 0.72378(19)
C8A C 1.2660(2) -0.15195(17) 0.78898(17)
C9A C 1.2486(2) -0.16893(19) 0.88877(19)
C10A C 1.2982(2) -0.03779(18) 0.82040(19)
H4A H 1.3522 -0.0193 0.8805
H5A H 1.2235 -0.0008 0.8358
C11A C 1.3603(3) -0.00785(18) 0.7399(2)
C12A C 1.3271(3) 0.0974(2) 0.7439(2)
H6A H 1.2396 0.1033 0.7432
H7A H 1.3639 0.1442 0.8039
H8A H 1.3569 0.1112 0.6872
C13A C 1.5007(3) -0.02356(19) 0.7402(2)
H9A H 1.5424 0.0412 0.7528
C14A C 1.5189(3) -0.0874(2) 0.6327(2)
H10A H 1.5871 -0.1315 0.6295
H11A H 1.5330 -0.0461 0.5912
C15A C 1.3982(2) -0.14561(18) 0.60177(19)
C16A C 1.2474(3) -0.2458(3) 0.4619(2)
H12A H 1.1833 -0.2056 0.4966
H13A H 1.2281 -0.2645 0.3914
H14A H 1.2544 -0.3048 0.4812
C17A C 1.3669(3) -0.1872(2) 0.48769(19)
C18A C 1.4704(3) -0.2482(3) 0.4341(2)
H15A H 1.5457 -0.2096 0.4523
H16A H 1.4782 -0.3076 0.4526
H17A H 1.4528 -0.2661 0.3634
C19A C 1.3782(2) -0.21772(17) 0.74040(17)
C20A C 1.3019(3) -0.40775(19) 0.6606(2)
H18A H 1.3277 -0.4096 0.5965
H19A H 1.3123 -0.4720 0.6688
H20A H 1.2170 -0.3908 0.6653
C21A C 1.4974(2) -0.17475(17) 0.80888(18)
C22A C 1.5903(2) -0.25665(19) 0.7688(2)
H21A H 1.6536 -0.2547 0.8202
H22A H 1.6288 -0.2471 0.7125
C23A C 1.5193(2) -0.35649(18) 0.73686(19)
H23A H 1.5387 -0.3887 0.7874
C24A C 1.5617(3) -0.4252(2) 0.6377(2)
H24A H 1.5583 -0.3900 0.5891
H25A H 1.5064 -0.4829 0.6130
C25A C 1.6897(3) -0.4592(2) 0.6486(3)
H26A H 1.6993 -0.5019 0.6864
C26A C 1.7906(3) -0.4372(2) 0.6124(3)
C27A C 1.7987(4) -0.3685(3) 0.5524(3)
H27A H 1.8817 -0.3649 0.5346
H28A H 1.7456 -0.3930 0.4930
H29A H 1.7741 -0.3033 0.5909
C28A C 1.3794(2) -0.32948(17) 0.74232(18)
C29A C 1.3370(3) -0.32816(19) 0.8444(2)
H30A H 1.2515 -0.3499 0.8367
H31A H 1.3843 -0.3753 0.8671
C30A C 1.3512(2) -0.22360(18) 0.92489(19)
C31A C 1.3358(3) -0.2260(2) 1.0307(2)
H32A H 1.2525 -0.2478 1.0348
H33A H 1.3475 -0.1588 1.0769
C32A C 1.4228(3) -0.2930(2) 1.0628(2)
H34A H 1.5052 -0.2848 1.0531
C33A C 1.3963(4) -0.3618(3) 1.1029(3)
C34A C 1.4925(5) -0.4241(3) 1.1308(3)
H35A H 1.4549 -0.4701 1.1583
H36A H 1.5336 -0.4605 1.0727
H37A H 1.5509 -0.3818 1.1794
C35A C 1.2708(6) -0.3825(5) 1.1267(6)
H38A H 1.2725 -0.4359 1.1548
H39A H 1.2406 -0.3238 1.1738
H40A H 1.2180 -0.4014 1.0669
C36A C 1.5521(3) -0.07043(19) 0.8164(2)
H41A H 1.6399 -0.0763 0.8103
H42A H 1.5394 -0.0250 0.8824
C37A C 1.9099(4) -0.4849(4) 0.6279(4)
H43A H 1.9734 -0.4612 0.5963
H44A H 1.9316 -0.4678 0.6979
H45A H 1.9007 -0.5560 0.5992
C38A C 1.4716(2) -0.17468(18) 0.91378(19)
O1A O 0.76148(18) 0.09437(16) 0.72386(15)
H46A H 0.7356 0.0874 0.6666
O2A O 0.8316(2) -0.0398(2) 0.54672(16)
H47A H 0.7784 0.0023 0.5581
O3A O 1.12515(19) -0.25899(15) 0.66373(17)
O4A O 1.1581(2) -0.14344(18) 0.93521(16)
O5A O 1.54345(19) -0.13678(15) 0.98424(14)
O6A O 1.30950(16) -0.07487(12) 0.64374(13)
O7A O 1.39082(16) -0.22925(12) 0.63750(12)
O8A O 1.3585(2) -0.10056(16) 0.45409(15)
H48A H 1.3438 -0.1188 0.3936
C39 C 0.1357(8) 0.2976(7) 0.0270(6)
C40 C 0.0519(9) 0.3573(7) 0.0847(13)
H49 H 0.0612 0.4240 0.0824
H50 H 0.0652 0.3576 0.1523
H51 H -0.0295 0.3320 0.0599
C41 C 0.1402(6) 0.1948(6) 0.0165(6)
H52 H 0.2021 0.1645 -0.0281
H53 H 0.0620 0.1632 -0.0099
H54 H 0.1597 0.1871 0.0805
O9 O 0.2106(11) 0.3351(8) -0.0096(9)
C42? C 0.9887(12) -0.2655(13) 0.2482(12)
C43? C 0.8784(7) -0.2658(4) 0.3240(4)
C44? C 0.8259(6) -0.2244(4) 0.4037(4)
O10? O 0.9483(13) -0.1889(12) 0.3563(16)
O11? O 0.8139(9) -0.3564(7) 0.2701(7)
H55? H 0.7495 -0.3438 0.2445
loop_
_geom_bond_atom_site_label_1
_geom_bond_atom_site_label_2
_geom_bond_site_symmetry_1
_geom_bond_site_symmetry_2
C1 H1 1_555 1_555
C2 C1 1_555 1_555
H2 C2 1_555 1_555
C3 C1 1_555 1_555
C4 C3 1_555 1_555
C5 C4 1_555 1_555
H3 C5 1_555 1_555
C6 C2 1_555 1_555
C7 C6 1_555 1_555
C8 C7 1_555 1_555
C9 C8 1_555 1_555
C10 C8 1_555 1_555
H4 C10 1_555 1_555
H5 C10 1_555 1_555
C11 C10 1_555 1_555
C12 C11 1_555 1_555
H6 C12 1_555 1_555
H7 C12 1_555 1_555
H8 C12 1_555 1_555
C13 C11 1_555 1_555
H9 C13 1_555 1_555
C14 C13 1_555 1_555
H10 C14 1_555 1_555
H11 C14 1_555 1_555
C15 C14 1_555 1_555
C16 H12 1_555 1_555
H13 C16 1_555 1_555
H14 C16 1_555 1_555
C17 C15 1_555 1_555
C18 C17 1_555 1_555
H15 C18 1_555 1_555
H16 C18 1_555 1_555
H17 C18 1_555 1_555
C19 C8 1_555 1_555
C20 H18 1_555 1_555
H19 C20 1_555 1_555
H20 C20 1_555 1_555
C21 C19 1_555 1_555
C22 C21 1_555 1_555
H21 C22 1_555 1_555
H22 C22 1_555 1_555
C23 C22 1_555 1_555
H23 C23 1_555 1_555
C24 C23 1_555 1_555
H24 C24 1_555 1_555
H25 C24 1_555 1_555
C25 C24 1_555 1_555
H26 C25 1_555 1_555
C26 C25 1_555 1_555
C27 C26 1_555 1_555
H27 C27 1_555 1_555
H28 C27 1_555 1_555
H29 C27 1_555 1_555
C28 C19 1_555 1_555
C29 C28 1_555 1_555
H30 C29 1_555 1_555
H31 C29 1_555 1_555
C30 C9 1_555 1_555
C31 C30 1_555 1_555
H32 C31 1_555 1_555
H33 C31 1_555 1_555
C32 C31 1_555 1_555
H34 C32 1_555 1_555
C33 C32 1_555 1_555
C34 C33 1_555 1_555
H35 C34 1_555 1_555
H36 C34 1_555 1_555
H37 C34 1_555 1_555
C35 C33 1_555 1_555
H38 C35 1_555 1_555
H39 C35 1_555 1_555
H40 C35 1_555 1_555
C36 C13 1_555 1_555
H41 C36 1_555 1_555
H42 C36 1_555 1_555
C37 C26 1_555 1_555
H43 C37 1_555 1_555
H44 C37 1_555 1_555
H45 C37 1_555 1_555
C38 C21 1_555 1_555
O1 C3 1_555 1_555
H46 O1 1_555 1_555
O2 C4 1_555 1_555
H47 O2 1_555 1_555
O3 C7 1_555 1_555
O4 C9 1_555 1_555
O5 C38 1_555 1_555
O6 C11 1_555 1_555
O7 C15 1_555 1_555
O8 C17 1_555 1_555
H48 O8 1_555 1_555
C39 C40 1_555 1_555
C40 H49 1_555 1_555
H50 C40 1_555 1_555
H51 C40 1_555 1_555
C41 C39 1_555 1_555
H52 C41 1_555 1_555
H53 C41 1_555 1_555
H54 C41 1_555 1_555
O9 C39 1_555 1_555
C1A H1A 1_555 1_555
C2A C1A 1_555 1_555
H2A C2A 1_555 1_555
C3A C1A 1_555 1_555
C4A C3A 1_555 1_555
C5A C4A 1_555 1_555
H3A C5A 1_555 1_555
C6A C2A 1_555 1_555
C7A C6A 1_555 1_555
C8A C7A 1_555 1_555
C9A C8A 1_555 1_555
C10A C8A 1_555 1_555
H4A C10A 1_555 1_555
H5A C10A 1_555 1_555
C11A C10A 1_555 1_555
C12A C11A 1_555 1_555
H6A C12A 1_555 1_555
H7A C12A 1_555 1_555
H8A C12A 1_555 1_555
C13A C11A 1_555 1_555
H9A C13A 1_555 1_555
C14A C13A 1_555 1_555
H10A C14A 1_555 1_555
H11A C14A 1_555 1_555
C15A C14A 1_555 1_555
C16A H12A 1_555 1_555
H13A C16A 1_555 1_555
H14A C16A 1_555 1_555
C17A C15A 1_555 1_555
C18A C17A 1_555 1_555
H15A C18A 1_555 1_555
H16A C18A 1_555 1_555
H17A C18A 1_555 1_555
C19A C8A 1_555 1_555
C20A H18A 1_555 1_555
H19A C20A 1_555 1_555
H20A C20A 1_555 1_555
C21A C19A 1_555 1_555
C22A C21A 1_555 1_555
H21A C22A 1_555 1_555
H22A C22A 1_555 1_555
C23A C22A 1_555 1_555
H23A C23A 1_555 1_555
C24A C23A 1_555 1_555
H24A C24A 1_555 1_555
H25A C24A 1_555 1_555
C25A C24A 1_555 1_555
H26A C25A 1_555 1_555
C26A C25A 1_555 1_555
C27A C26A 1_555 1_555
H27A C27A 1_555 1_555
H28A C27A 1_555 1_555
H29A C27A 1_555 1_555
C28A C19A 1_555 1_555
C29A C28A 1_555 1_555
H30A C29A 1_555 1_555
H31A C29A 1_555 1_555
C30A C9A 1_555 1_555
C31A C30A 1_555 1_555
H32A C31A 1_555 1_555
H33A C31A 1_555 1_555
C32A C31A 1_555 1_555
H34A C32A 1_555 1_555
C33A C32A 1_555 1_555
C34A C33A 1_555 1_555
H35A C34A 1_555 1_555
H36A C34A 1_555 1_555
H37A C34A 1_555 1_555
C35A C33A 1_555 1_555
H38A C35A 1_555 1_555
H39A C35A 1_555 1_555
H40A C35A 1_555 1_555
C36A C13A 1_555 1_555
H41A C36A 1_555 1_555
H42A C36A 1_555 1_555
C37A C26A 1_555 1_555
H43A C37A 1_555 1_555
H44A C37A 1_555 1_555
H45A C37A 1_555 1_555
C38A C21A 1_555 1_555
O1A C3A 1_555 1_555
H46A O1A 1_555 1_555
O2A C4A 1_555 1_555
H47A O2A 1_555 1_555
O3A C7A 1_555 1_555
O4A C9A 1_555 1_555
O5A C38A 1_555 1_555
O6A C11A 1_555 1_555
O7A C15A 1_555 1_555
O8A C17A 1_555 1_555
H48A O8A 1_555 1_555
C5 C6 1_555 1_555
C15 O6 1_555 1_555
C16 C17 1_555 1_555
C19 O7 1_555 1_555
C20 C28 1_555 1_555
C21 C36 1_555 1_555
C23 C28 1_555 1_555
C29 C30 1_555 1_555
C30 C38 1_555 1_555
C5A C6A 1_555 1_555
C15A O6A 1_555 1_555
C16A C17A 1_555 1_555
C19A O7A 1_555 1_555
C20A C28A 1_555 1_555
C21A C36A 1_555 1_555
C23A C28A 1_555 1_555
C29A C30A 1_555 1_555
C30A C38A 1_555 1_555

#END
