
#######################################################################
#
#                 Cambridge Crystallographic Data Centre
#                                CCDC 
#
#######################################################################
#
# If this CIF has been generated from an entry in the Cambridge 
# Structural Database, then it will include bibliographic, chemical, 
# crystal, experimental, refinement or atomic coordinate data resulting 
# from the CCDC's data processing and validation procedures.
#
#######################################################################

data_EBUPEZ
_chemical_formula_moiety         'C30 H30 Br6 O6 Te3,3(H2 O1)'
_chemical_name_systematic        
"1,1,4,4,7,7-hexabromo-2,3,5,6,8,9-hexaethoxy-4,7-dihydro-1H-1\l^4^,4\l^4^,7\l^4^-triphenyleno[1,12-bcd:4,5-b'c'd':8,9-b''c''d'']tristellurophene trihydrate"
_symmetry_cell_setting           triclinic
_symmetry_space_group_name_H-M   'P -1'
_symmetry_Int_Tables_number      2
_space_group_name_Hall           '-P 1'
loop_
_symmetry_equiv_pos_site_id
_symmetry_equiv_pos_as_xyz
1 x,y,z
2 -x,-y,-z
_cell_length_a                   10.889(2)
_cell_length_b                   10.890(2)
_cell_length_c                   18.299(4)
_cell_angle_alpha                86.12(3)
_cell_angle_beta                 86.29(3)
_cell_angle_gamma                71.19(3)
_cell_volume                     2047.21
_exptl_crystal_colour            orange
_exptl_crystal_description       block
_chemical_melting_point          'above 573 K'
_cell_formula_units_Z            2
_chemical_properties_physical    ', Heat-sensitive,decompse under high pressure'
_exptl_crystal_preparation       ', photosynthesis'
loop_
_atom_site_label
_atom_site_type_symbol
_atom_site_fract_x
_atom_site_fract_y
_atom_site_fract_z
Te1 Te 0.81504(14) 0.95077(13) 0.36540(8)
Br1 Br 0.6678(2) 1.0559(2) 0.25065(13)
Br2 Br 0.9509(2) 0.8369(2) 0.47818(13)
Te2 Te 1.29378(14) 0.53924(14) 0.14343(8)
Br3 Br 1.1763(3) 0.6792(3) 0.02891(14)
Br4 Br 1.3869(2) 0.4034(2) 0.26546(13)
C1 C 0.963(2) 0.7408(19) 0.2736(12)
C2 C 0.852(2) 0.708(2) 0.2986(12)
C3 C 0.833(2) 0.5946(19) 0.2784(12)
C4 C 0.932(2) 0.5082(19) 0.2283(12)
C5 C 1.044(2) 0.542(2) 0.2065(12)
C6 C 1.059(2) 0.6595(19) 0.2304(12)
C7 C 0.760(2) 0.785(2) 0.3510(12)
C8 C 0.662(2) 0.744(2) 0.3794(12)
C9 C 0.643(2) 0.6288(19) 0.3571(12)
C10 C 0.727(2) 0.558(2) 0.3049(12)
C11 C 0.912(2) 0.3991(19) 0.2059(12)
C12 C 1.009(2) 0.316(2) 0.1577(12)
C13 C 1.120(2) 0.3542(19) 0.1358(12)
C14 C 1.136(2) 0.4625(19) 0.1598(12)
C15 C 1.172(2) 0.688(2) 0.2071(12)
C16 C 1.191(2) 0.8028(19) 0.2279(12)
C17 C 1.085(2) 0.892(2) 0.2717(12)
C18 C 0.978(2) 0.8580(19) 0.2937(12)
C19 C 0.593(2) 0.7562(19) 0.5056(11)
H1 H 0.6757 0.7513 0.5242
H2 H 0.5897 0.6685 0.5032
C20 C 0.485(2) 0.8315(19) 0.5554(12)
H3 H 0.4934 0.7897 0.6036
H4 H 0.4031 0.8354 0.5369
H5 H 0.4888 0.9180 0.5578
C21 C 0.412(2) 0.673(2) 0.3747(12)
H6 H 0.3879 0.6754 0.3245
H7 H 0.4046 0.7603 0.3874
C22 C 0.327(2) 0.614(2) 0.4283(11)
H8 H 0.2372 0.6666 0.4253
H9 H 0.3533 0.6114 0.4775
H10 H 0.3364 0.5274 0.4150
C23 C 0.900(2) 0.1568(19) 0.1465(12)
H11 H 0.8190 0.2215 0.1329
H12 H 0.8940 0.1354 0.1986
C24 C 0.923(2) 0.0392(19) 0.1049(11)
H13 H 0.8528 0.0045 0.1156
H14 H 1.0031 -0.0246 0.1187
H15 H 0.9279 0.0612 0.0533
C25 C 1.185(2) 0.291(2) 0.0111(11)
H16 H 1.0934 0.3059 0.0061
H17 H 1.2050 0.3671 -0.0098
C26 C 1.258(2) 0.1814(19) -0.0294(12)
H18 H 1.2363 0.1975 -0.0799
H19 H 1.2372 0.1060 -0.0099
H20 H 1.3490 0.1670 -0.0255
C27 C 1.294(2) 0.928(2) 0.1519(12)
H21 H 1.2266 1.0073 0.1648
H22 H 1.2748 0.9020 0.1053
C28 C 1.426(2) 0.948(2) 0.1468(12)
H23 H 1.4260 1.0144 0.1099
H24 H 1.4914 0.8680 0.1340
H25 H 1.4434 0.9727 0.1933
C29 C 1.200(2) 1.0063(19) 0.3340(12)
H26 H 1.2787 0.9375 0.3206
H27 H 1.1762 0.9920 0.3851
C30 C 1.219(2) 1.1394(19) 0.3210(12)
H28 H 1.2879 1.1432 0.3504
H29 H 1.1405 1.2062 0.3343
H30 H 1.2423 1.1521 0.2701
O1 O 0.5789(14) 0.8199(13) 0.4335(8)
O2 O 0.5461(14) 0.5843(13) 0.3845(8)
O3 O 1.0046(14) 0.2067(13) 0.1304(8)
O4 O 1.2128(14) 0.2750(13) 0.0903(8)
O5 O 1.2995(14) 0.8266(13) 0.2080(8)
O6 O 1.0944(14) 1.0093(13) 0.2871(8)
Te3 Te 0.72979(14) 0.38926(13) 0.25347(8)
Br5 Br 0.8435(2) 0.2588(2) 0.37160(13)
Br6 Br 0.6225(2) 0.5468(2) 0.14028(13)
O7 O 0.5708(14) 0.2086(14) 0.1033(8)
H31 H 0.5537 0.1484 0.1297
H32 H 0.5659 0.2728 0.1286
O8 O 0.4901(18) 0.3313(18) 1.0030(10)
H33 H 0.5071 0.3877 0.9733
H34 H 0.4876 0.2662 0.9807
O9 O 0.0678(13) 0.4723(13) 0.4176(7)
H35 H 0.0382 0.5444 0.4380
H36 H 0.0569 0.4128 0.4472
Te4? Te 0.761(3) 0.913(3) 0.3478(18)
Br7? Br 0.612(5) 1.017(4) 0.229(3)
Te5? Te 0.678(2) 1.347(2) 0.2341(13)
Br8? Br 0.569(4) 1.501(3) 0.123(2)
Br9? Br 0.797(4) 1.219(3) 0.352(2)
Te6? Te 1.2465(16) 0.4953(15) 0.1289(9)
Br10? Br 1.136(2) 0.634(2) 0.0141(14)
Br11? Br 1.344(2) 0.360(2) 0.2497(14)
loop_
_geom_bond_atom_site_label_1
_geom_bond_atom_site_label_2
_geom_bond_site_symmetry_1
_geom_bond_site_symmetry_2
Te1 Br1 1_555 1_555
Br2 Te1 1_555 1_555
Te2 Br3 1_555 1_555
Br4 Te2 1_555 1_555
C1 C2 1_555 1_555
C2 C3 1_555 1_555
C3 C4 1_555 1_555
C4 C5 1_555 1_555
C5 C6 1_555 1_555
C6 C1 1_555 1_555
C7 Te1 1_555 1_555
C8 C7 1_555 1_555
C9 C8 1_555 1_555
C10 C3 1_555 1_555
C11 C4 1_555 1_555
C12 C11 1_555 1_555
C13 C12 1_555 1_555
C14 Te2 1_555 1_555
C15 Te2 1_555 1_555
C16 C15 1_555 1_555
C17 C16 1_555 1_555
C18 Te1 1_555 1_555
C19 H1 1_555 1_555
H2 C19 1_555 1_555
C20 C19 1_555 1_555
H3 C20 1_555 1_555
H4 C20 1_555 1_555
H5 C20 1_555 1_555
C21 H6 1_555 1_555
H7 C21 1_555 1_555
C22 C21 1_555 1_555
H8 C22 1_555 1_555
H9 C22 1_555 1_555
H10 C22 1_555 1_555
C23 H11 1_555 1_555
H12 C23 1_555 1_555
C24 C23 1_555 1_555
H13 C24 1_555 1_555
H14 C24 1_555 1_555
H15 C24 1_555 1_555
C25 H16 1_555 1_555
H17 C25 1_555 1_555
C26 C25 1_555 1_555
H18 C26 1_555 1_555
H19 C26 1_555 1_555
H20 C26 1_555 1_555
C27 H21 1_555 1_555
H22 C27 1_555 1_555
C28 C27 1_555 1_555
H23 C28 1_555 1_555
H24 C28 1_555 1_555
H25 C28 1_555 1_555
C29 H26 1_555 1_555
H27 C29 1_555 1_555
C30 C29 1_555 1_555
H28 C30 1_555 1_555
H29 C30 1_555 1_555
H30 C30 1_555 1_555
O1 C8 1_555 1_555
O2 C9 1_555 1_555
O3 C12 1_555 1_555
O4 C13 1_555 1_555
O5 C16 1_555 1_555
O6 C17 1_555 1_555
Te3 C10 1_555 1_555
Br5 Te3 1_555 1_555
Br6 Te3 1_555 1_555
O7 H31 1_555 1_555
H32 O7 1_555 1_555
O8 H33 1_555 1_555
H34 O8 1_555 1_555
O9 H35 1_555 1_555
H36 O9 1_555 1_555
C1 C18 1_555 1_555
C2 C7 1_555 1_555
C5 C14 1_555 1_555
C6 C15 1_555 1_555
C9 C10 1_555 1_555
C11 Te3 1_555 1_555
C13 C14 1_555 1_555
C17 C18 1_555 1_555
C19 O1 1_555 1_555
C21 O2 1_555 1_555
C23 O3 1_555 1_555
C25 O4 1_555 1_555
C27 O5 1_555 1_555
C29 O6 1_555 1_555

#END
