
#######################################################################
#
#                 Cambridge Crystallographic Data Centre
#                                CCDC 
#
#######################################################################
#
# If this CIF has been generated from an entry in the Cambridge 
# Structural Database, then it will include bibliographic, chemical, 
# crystal, experimental, refinement or atomic coordinate data resulting 
# from the CCDC's data processing and validation procedures.
#
#######################################################################

data_EBUVAY
_chemical_formula_moiety         'C18 H26 O2 S4'
_chemical_name_systematic        
4-Carboxy-5-methyl-4',5'-dipentyl-1,1',3,3'-tetrathiafulvalene
_symmetry_cell_setting           monoclinic
_symmetry_space_group_name_H-M   'P 21/c'
_symmetry_Int_Tables_number      14
_space_group_name_Hall           '-P 2ybc'
loop_
_symmetry_equiv_pos_site_id
_symmetry_equiv_pos_as_xyz
1 x,y,z
2 x,1/2-y,1/2+z
3 -x,-y,-z
4 -x,1/2+y,1/2-z
_cell_length_a                   14.779(1)
_cell_length_b                   14.532(3)
_cell_length_c                   9.277(1)
_cell_angle_alpha                90
_cell_angle_beta                 92.62(1)
_cell_angle_gamma                90
_cell_volume                     1990.32
_exptl_crystal_colour            red
_exptl_crystal_description       plate
_chemical_melting_point          '132-133 deg.C'
_cell_formula_units_Z            4
loop_
_atom_site_label
_atom_site_type_symbol
_atom_site_fract_x
_atom_site_fract_y
_atom_site_fract_z
S1 S 0.62261(9) 0.46225(9) -0.06836(14)
S2 S 0.51881(9) 0.31942(9) 0.07956(14)
S3 S 0.74624(9) 0.49395(9) 0.22901(14)
S4 S 0.64273(9) 0.34907(9) 0.37098(13)
O1 O 0.4504(2) 0.4149(2) -0.3950(4)
O2 O 0.5677(3) 0.5101(3) -0.3495(4)
C1 C 0.6054(3) 0.4014(3) 0.0921(5)
C2 C 0.5298(3) 0.4101(3) -0.1656(5)
C3 C 0.4819(4) 0.3449(3) -0.0978(5)
C4 C 0.6567(3) 0.4143(3) 0.2145(5)
C5 C 0.7916(4) 0.4520(3) 0.3966(5)
C6 C 0.7445(4) 0.3867(3) 0.4606(5)
C7 C 0.5142(4) 0.4468(4) -0.3131(6)
C8 C 0.3997(4) 0.2927(4) -0.1488(6)
H1 H 0.3828 0.3109 -0.2481
H2 H 0.3496 0.3064 -0.0865
H3 H 0.4125 0.2265 -0.1458
C9 C 0.8795(4) 0.4953(4) 0.4476(6)
H4 H 0.9261 0.4813 0.3775
H5 H 0.8993 0.4671 0.5410
C10 C 0.8742(4) 0.5997(4) 0.4681(6)
H6 H 0.8569 0.6278 0.3735
H7 H 0.9352 0.6231 0.4977
C11 C 0.8070(4) 0.6320(4) 0.5780(6)
H8 H 0.8040 0.7000 0.5755
H9 H 0.7460 0.6082 0.5493
C12 C 0.8312(4) 0.6013(4) 0.7324(6)
H10 H 0.8951 0.6175 0.7572
H11 H 0.8254 0.5336 0.7387
C13 C 0.7705(4) 0.6458(4) 0.8405(6)
H12 H 0.7811 0.7124 0.8423
H13 H 0.7844 0.6201 0.9366
H14 H 0.7069 0.6337 0.8122
C14 C 0.7682(4) 0.3358(3) 0.5999(5)
H15 H 0.7136 0.3324 0.6578
H16 H 0.8148 0.3713 0.6561
C15 C 0.8036(4) 0.2390(4) 0.5761(6)
H17 H 0.7577 0.2044 0.5170
H18 H 0.8108 0.2078 0.6708
C16 C 0.8930(4) 0.2346(4) 0.5031(6)
H19 H 0.9389 0.2699 0.5613
H20 H 0.8857 0.2648 0.4075
C17 C 0.9280(4) 0.1370(4) 0.4817(6)
H21 H 0.9419 0.1093 0.5776
H22 H 0.8795 0.0998 0.4329
C18 C 1.0117(5) 0.1325(5) 0.3954(7)
H23 H 0.9984 0.1594 0.2998
H24 H 1.0302 0.0682 0.3846
H25 H 1.0608 0.1671 0.4450
loop_
_geom_bond_atom_site_label_1
_geom_bond_atom_site_label_2
_geom_bond_site_symmetry_1
_geom_bond_site_symmetry_2
S1 C1 1_555 1_555
S2 C1 1_555 1_555
S3 C4 1_555 1_555
S4 C4 1_555 1_555
O1 C7 1_555 1_555
O2 C7 1_555 1_555
C1 C4 1_555 1_555
C2 S1 1_555 1_555
C3 S2 1_555 1_555
C5 S3 1_555 1_555
C6 S4 1_555 1_555
C7 C2 1_555 1_555
C8 C3 1_555 1_555
H1 C8 1_555 1_555
H2 C8 1_555 1_555
H3 C8 1_555 1_555
C9 C5 1_555 1_555
H4 C9 1_555 1_555
H5 C9 1_555 1_555
C10 C9 1_555 1_555
H6 C10 1_555 1_555
H7 C10 1_555 1_555
C11 C10 1_555 1_555
H8 C11 1_555 1_555
H9 C11 1_555 1_555
C12 C11 1_555 1_555
H10 C12 1_555 1_555
H11 C12 1_555 1_555
C13 C12 1_555 1_555
H12 C13 1_555 1_555
H13 C13 1_555 1_555
H14 C13 1_555 1_555
C14 C6 1_555 1_555
H15 C14 1_555 1_555
H16 C14 1_555 1_555
C15 C14 1_555 1_555
H17 C15 1_555 1_555
H18 C15 1_555 1_555
C16 C15 1_555 1_555
H19 C16 1_555 1_555
H20 C16 1_555 1_555
C17 C16 1_555 1_555
H21 C17 1_555 1_555
H22 C17 1_555 1_555
C18 C17 1_555 1_555
H23 C18 1_555 1_555
H24 C18 1_555 1_555
H25 C18 1_555 1_555
C2 C3 1_555 1_555
C5 C6 1_555 1_555

#END
