
#######################################################################
#
#                 Cambridge Crystallographic Data Centre
#                                CCDC 
#
#######################################################################
#
# If this CIF has been generated from an entry in the Cambridge 
# Structural Database, then it will include bibliographic, chemical, 
# crystal, experimental, refinement or atomic coordinate data resulting 
# from the CCDC's data processing and validation procedures.
#
#######################################################################

data_EBUVIG
_chemical_formula_moiety         'C23 H22 O5'
_chemical_name_systematic        
11-(Methoxycarbonyl)-11-(2-(methoxycarbonyl)-3-methyloxiran-2-yl)-9,10-dihydro-9,10-ethanoanthracene
_symmetry_cell_setting           monoclinic
_symmetry_space_group_name_H-M   'P 21/c'
_symmetry_Int_Tables_number      14
_space_group_name_Hall           '-P 2ybc'
loop_
_symmetry_equiv_pos_site_id
_symmetry_equiv_pos_as_xyz
1 x,y,z
2 x,1/2-y,1/2+z
3 -x,-y,-z
4 -x,1/2+y,1/2-z
_cell_length_a                   15.2350(10)
_cell_length_b                   15.1510(10)
_cell_length_c                   8.2570(10)
_cell_angle_alpha                90
_cell_angle_beta                 95.770(10)
_cell_angle_gamma                90
_cell_volume                     1896.27
_exptl_crystal_colour            colorless
_exptl_crystal_description       prism
_cell_formula_units_Z            4
loop_
_atom_site_label
_atom_site_type_symbol
_atom_site_fract_x
_atom_site_fract_y
_atom_site_fract_z
O1 O -0.6836(2) -0.5048(3) -0.5631(5)
O2 O -0.9075(2) -0.5135(3) -0.3470(5)
O3 O -0.5985(3) -0.5262(3) -0.3283(5)
O4 O -0.7357(3) -0.6694(3) -0.3369(6)
C1 C -0.8331(3) -0.3404(4) -0.1334(6)
C2 C -0.8043(3) -0.4211(4) -0.0648(6)
C3 C -0.7475(3) -0.4688(3) -0.3223(6)
C4 C -0.8791(3) -0.5442(4) -0.5014(7)
H1 H -0.8916 -0.4984 -0.5806
C5 C -0.6680(4) -0.5024(4) -0.4011(7)
H2 H -0.8372 -0.3841 -0.4499
H3 H -0.7397 -0.3610 -0.4786
C6 C -0.7787(3) -0.3775(3) -0.3942(6)
H4 H -0.7984 -0.2481 -0.2930
C7 C -0.7756(3) -0.3067(3) -0.2606(7)
O5 O -0.8326(3) -0.6572(3) -0.1542(7)
C8 C -0.6532(4) -0.3830(4) -0.1123(6)
C9 C -0.7996(4) -0.6270(4) -0.2678(8)
H5 H -0.9322 -0.2459 -0.1380
C10 C -0.9103(3) -0.3016(4) -0.0926(7)
H6 H -0.8312 -0.5190 0.1003
C11 C -0.8512(4) -0.4617(4) 0.0485(7)
H7 H -0.5482 -0.4453 0.0160
C12 C -0.5684(4) -0.3906(4) -0.0341(7)
H8 H -0.7053 -0.5094 -0.0764
C13 C -0.7230(3) -0.4553(3) -0.1326(6)
H9 H -0.6435 -0.1716 -0.2316
C14 C -0.6254(4) -0.2314(4) -0.1772(8)
H10 H -1.0123 -0.3211 0.0495
C15 C -0.6820(4) -0.3028(4) -0.1820(7)
H11 H -0.4992 -0.1906 -0.0944
C16 C -0.8198(3) -0.5403(4) -0.3529(7)
H12 H -0.6629 -0.7820 -0.3263
H13 H -0.7584 -0.7975 -0.2767
H14 H -0.6871 -0.7513 -0.1550
C17 C -0.9570(4) -0.3439(4) 0.0198(8)
H15 H -0.9594 -0.4464 0.1733
C18 C -0.5405(4) -0.2401(5) -0.0983(9)
H16 H -0.6329 -0.5352 -0.7703
H17 H -0.5981 -0.5952 -0.6230
H18 H -0.5637 -0.4981 -0.6340
C19 C -0.7106(4) -0.7548(4) -0.2724(9)
H19 H -0.9638 -0.6176 -0.6679
H20 H -0.9604 -0.6518 -0.4883
H21 H -0.8809 -0.6695 -0.5906
C20 C -0.9282(4) -0.4217(4) 0.0892(7)
H22 H -0.4534 -0.3267 0.0290
C21 C -0.6137(4) -0.5352(4) -0.6534(7)
C22 C -0.9225(4) -0.6270(5) -0.5670(9)
C23 C -0.5134(4) -0.3189(6) -0.0275(9)
loop_
_geom_bond_atom_site_label_1
_geom_bond_atom_site_label_2
_geom_bond_site_symmetry_1
_geom_bond_site_symmetry_2
O1 C5 1_555 1_555
O2 C4 1_555 1_555
O3 C5 1_555 1_555
O4 C9 1_555 1_555
C1 C2 1_555 1_555
C2 C11 1_555 1_555
C3 C5 1_555 1_555
C4 H1 1_555 1_555
H2 C6 1_555 1_555
H3 C6 1_555 1_555
C6 C3 1_555 1_555
H4 C7 1_555 1_555
C7 C1 1_555 1_555
O5 C9 1_555 1_555
C8 C12 1_555 1_555
C9 C16 1_555 1_555
H5 C10 1_555 1_555
C10 C1 1_555 1_555
H6 C11 1_555 1_555
C11 C20 1_555 1_555
H7 C12 1_555 1_555
C12 C23 1_555 1_555
H8 C13 1_555 1_555
C13 C2 1_555 1_555
H9 C14 1_555 1_555
C14 C15 1_555 1_555
H10 C17 1_555 1_555
C15 C7 1_555 1_555
H11 C18 1_555 1_555
C16 O2 1_555 1_555
H12 C19 1_555 1_555
H13 C19 1_555 1_555
H14 C19 1_555 1_555
C17 C10 1_555 1_555
H15 C20 1_555 1_555
C18 C14 1_555 1_555
H16 C21 1_555 1_555
H17 C21 1_555 1_555
H18 C21 1_555 1_555
C19 O4 1_555 1_555
H19 C22 1_555 1_555
H20 C22 1_555 1_555
H21 C22 1_555 1_555
C20 C17 1_555 1_555
H22 C23 1_555 1_555
C21 O1 1_555 1_555
C22 C4 1_555 1_555
C23 C18 1_555 1_555
C3 C16 1_555 1_555
C3 C13 1_555 1_555
C4 C16 1_555 1_555
C6 C7 1_555 1_555
C8 C13 1_555 1_555
C8 C15 1_555 1_555

#END
