
#######################################################################
#
#                 Cambridge Crystallographic Data Centre
#                                CCDC 
#
#######################################################################
#
# If this CIF has been generated from an entry in the Cambridge 
# Structural Database, then it will include bibliographic, chemical, 
# crystal, experimental, refinement or atomic coordinate data resulting 
# from the CCDC's data processing and validation procedures.
#
#######################################################################

data_ECACAP
_chemical_formula_moiety         'C27 H27 Br1 N2 O7 Si1'
_chemical_name_systematic        
'2-(4-bromophenyl)-6-(dimethyl(phenyl)silyl)-3-methyltetrahydro-2H-pyran-4-yl 3,5-dinitrobenzoate'
_symmetry_cell_setting           monoclinic
_symmetry_space_group_name_H-M   'P 21/n'
_symmetry_Int_Tables_number      14
_space_group_name_Hall           '-P 2yn'
loop_
_symmetry_equiv_pos_site_id
_symmetry_equiv_pos_as_xyz
1 x,y,z
2 1/2-x,1/2+y,1/2-z
3 -x,-y,-z
4 1/2+x,1/2-y,1/2+z
_cell_length_a                   17.8456(17)
_cell_length_b                   7.9478(7)
_cell_length_c                   19.1615(17)
_cell_angle_alpha                90
_cell_angle_beta                 96.747(3)
_cell_angle_gamma                90
_cell_volume                     2698.92
_exptl_crystal_colour            colorless
_exptl_crystal_description       Block
_cell_formula_units_Z            4
loop_
_atom_site_label
_atom_site_type_symbol
_atom_site_fract_x
_atom_site_fract_y
_atom_site_fract_z
C1 C 0.3034(2) 0.5789(4) 1.00671(16)
C2 C 0.3470(2) 0.6553(4) 0.96118(18)
H1 H 0.4005 0.6537 0.9702
C3 C 0.31145(19) 0.7348(4) 0.90185(17)
H2 H 0.3409 0.7882 0.8700
C4 C 0.23334(18) 0.7370(4) 0.88851(16)
C5 C 0.19063(19) 0.6540(4) 0.93392(17)
H3 H 0.1372 0.6522 0.9245
C6 C 0.2263(2) 0.5735(4) 0.99341(17)
H4 H 0.1974 0.5154 1.0244
C7 C 0.19722(17) 0.8334(4) 0.82529(15)
H5 H 0.2306 0.9312 0.8176
C8 C 0.18727(18) 0.7288(4) 0.75742(15)
H6 H 0.2381 0.6892 0.7473
C9 C 0.13683(19) 0.5752(4) 0.76308(16)
H7 H 0.0902 0.6098 0.7814
H8 H 0.1634 0.4927 0.7950
H9 H 0.1246 0.5246 0.7165
C10 C 0.15646(17) 0.8515(4) 0.69964(15)
H10 H 0.1940 0.9442 0.6973
C11 C 0.08216(18) 0.9282(4) 0.71476(16)
H11 H 0.0432 0.8395 0.7142
H12 H 0.0650 1.0122 0.6782
C12 C 0.09337(18) 1.0129(4) 0.78698(16)
H13 H 0.1284 1.1103 0.7845
C13 C 0.0325(2) 1.1966(5) 0.90664(18)
H14 H 0.0740 1.2750 0.9019
H15 H 0.0492 1.1113 0.9420
H16 H -0.0105 1.2584 0.9213
C14 C -0.0427(2) 1.2432(4) 0.75518(19)
H17 H -0.0908 1.2801 0.7700
H18 H -0.0519 1.1880 0.7093
H19 H -0.0099 1.3410 0.7517
C15 C -0.0581(2) 0.9040(4) 0.83011(18)
C16 C -0.0373(2) 0.7831(5) 0.8815(2)
H20 H 0.0074 0.7986 0.9130
C17 C -0.0810(3) 0.6403(6) 0.8874(3)
H21 H -0.0660 0.5594 0.9228
C18 C -0.1454(3) 0.6156(6) 0.8424(3)
H22 H -0.1745 0.5164 0.8458
C19 C -0.1681(3) 0.7345(7) 0.7923(2)
H23 H -0.2135 0.7189 0.7618
C20 C -0.1245(2) 0.8782(6) 0.78603(19)
H24 H -0.1405 0.9596 0.7511
C21 C 0.20808(18) 0.7351(4) 0.60242(15)
C22 C 0.19283(18) 0.6436(4) 0.53413(15)
C23 C 0.25396(18) 0.5726(4) 0.50655(16)
H25 H 0.3036 0.5844 0.5300
C24 C 0.24103(18) 0.4842(4) 0.44425(16)
C25 C 0.1703(2) 0.4623(4) 0.40843(16)
H26 H 0.1624 0.3988 0.3662
C26 C 0.11141(19) 0.5379(4) 0.43728(17)
C27 C 0.12023(18) 0.6270(4) 0.49924(16)
H27 H 0.0781 0.6758 0.5177
N1 N 0.30532(17) 0.3982(4) 0.41786(15)
N2 N 0.03472(17) 0.5181(4) 0.40014(15)
O1 O 0.12661(12) 0.8983(3) 0.84097(11)
O2 O 0.14500(12) 0.7683(3) 0.63127(11)
O3 O 0.27105(12) 0.7706(3) 0.62811(11)
O4 O 0.36730(13) 0.4131(4) 0.45201(13)
O5 O 0.29275(16) 0.3156(4) 0.36395(14)
O6 O -0.01523(14) 0.6079(4) 0.41816(14)
O7 O 0.02546(16) 0.4141(4) 0.35360(15)
Si1 Si 0.00391(5) 1.09233(11) 0.82094(4)
Br1 Br 0.35176(3) 0.48933(5) 1.092638(19)
loop_
_geom_bond_atom_site_label_1
_geom_bond_atom_site_label_2
_geom_bond_site_symmetry_1
_geom_bond_site_symmetry_2
C1 C2 1_555 1_555
C2 H1 1_555 1_555
C3 C2 1_555 1_555
H2 C3 1_555 1_555
C4 C3 1_555 1_555
C5 C4 1_555 1_555
H3 C5 1_555 1_555
C6 C1 1_555 1_555
H4 C6 1_555 1_555
C7 C4 1_555 1_555
H5 C7 1_555 1_555
C8 C7 1_555 1_555
H6 C8 1_555 1_555
C9 C8 1_555 1_555
H7 C9 1_555 1_555
H8 C9 1_555 1_555
H9 C9 1_555 1_555
C10 C8 1_555 1_555
H10 C10 1_555 1_555
C11 C10 1_555 1_555
H11 C11 1_555 1_555
H12 C11 1_555 1_555
C12 C11 1_555 1_555
H13 C12 1_555 1_555
C13 H14 1_555 1_555
H15 C13 1_555 1_555
H16 C13 1_555 1_555
C14 H17 1_555 1_555
H18 C14 1_555 1_555
H19 C14 1_555 1_555
C15 C16 1_555 1_555
C16 H20 1_555 1_555
C17 C16 1_555 1_555
H21 C17 1_555 1_555
C18 C17 1_555 1_555
H22 C18 1_555 1_555
C19 C18 1_555 1_555
H23 C19 1_555 1_555
C20 C15 1_555 1_555
H24 C20 1_555 1_555
C21 C22 1_555 1_555
C22 C23 1_555 1_555
C23 H25 1_555 1_555
C24 C23 1_555 1_555
C25 C24 1_555 1_555
H26 C25 1_555 1_555
C26 C25 1_555 1_555
C27 C22 1_555 1_555
H27 C27 1_555 1_555
N1 C24 1_555 1_555
N2 C26 1_555 1_555
O1 C7 1_555 1_555
O2 C10 1_555 1_555
O3 C21 1_555 1_555
O4 N1 1_555 1_555
O5 N1 1_555 1_555
O6 N2 1_555 1_555
O7 N2 1_555 1_555
Si1 C12 1_555 1_555
Br1 C1 1_555 1_555
C5 C6 1_555 1_555
C12 O1 1_555 1_555
C13 Si1 1_555 1_555
C14 Si1 1_555 1_555
C15 Si1 1_555 1_555
C19 C20 1_555 1_555
C21 O2 1_555 1_555
C26 C27 1_555 1_555

#END
