
#######################################################################
#
#                 Cambridge Crystallographic Data Centre
#                                CCDC 
#
#######################################################################
#
# If this CIF has been generated from an entry in the Cambridge 
# Structural Database, then it will include bibliographic, chemical, 
# crystal, experimental, refinement or atomic coordinate data resulting 
# from the CCDC's data processing and validation procedures.
#
#######################################################################

data_ECADAP
_chemical_formula_moiety         'C24 H21 F1 O6 S2'
_chemical_name_systematic        
'(1S,2S)-Methyl 1-(fluoro(bis(phenylsulfonyl))methyl)indane-2-carboxylate'
_symmetry_cell_setting           orthorhombic
_symmetry_space_group_name_H-M   'P 21 21 21'
_symmetry_Int_Tables_number      19
_space_group_name_Hall           'P 2ac 2ab'
loop_
_symmetry_equiv_pos_site_id
_symmetry_equiv_pos_as_xyz
1 x,y,z
2 1/2+x,1/2-y,-z
3 -x,1/2+y,1/2-z
4 1/2-x,-y,1/2+z
_cell_length_a                   8.43135(17)
_cell_length_b                   16.4951(12)
_cell_length_c                   16.5885(4)
_cell_angle_alpha                90
_cell_angle_beta                 90
_cell_angle_gamma                90
_cell_volume                     2307.06
_exptl_crystal_colour            colorless
_exptl_crystal_description       block
_cell_formula_units_Z            4
loop_
_atom_site_label
_atom_site_type_symbol
_atom_site_fract_x
_atom_site_fract_y
_atom_site_fract_z
S1 S 0.57647(4) 0.51877(2) 0.45122(2)
S2 S 0.28032(4) 0.51443(2) 0.34784(2)
F1 F 0.29804(9) 0.46996(4) 0.49736(5)
O1 O 0.10294(13) 0.32391(7) 0.54380(7)
O2 O 0.35632(14) 0.32572(7) 0.58598(6)
O3 O 0.15780(13) 0.45886(6) 0.32408(6)
O4 O 0.39556(13) 0.54319(7) 0.29097(6)
O5 O 0.53152(12) 0.60285(6) 0.45617(7)
O6 O 0.69290(11) 0.49265(6) 0.39351(6)
C1 C 0.39233(16) 0.46088(8) 0.42950(8)
C2 C 0.43173(16) 0.37009(8) 0.41236(8)
C3 C 0.42850(18) 0.34679(9) 0.32301(8)
C4 C 0.53311(18) 0.36996(9) 0.26254(9)
C5 C 0.5023(2) 0.34427(11) 0.18381(10)
C6 C 0.3722(3) 0.29533(11) 0.16669(10)
C7 C 0.2689(2) 0.27188(10) 0.22796(10)
C8 C 0.29597(18) 0.29843(8) 0.30601(9)
C9 C 0.19595(17) 0.28525(9) 0.38037(9)
C10 C 0.31467(16) 0.30527(8) 0.44762(9)
C11 C 0.24331(18) 0.32041(8) 0.52942(9)
C12 C 0.3007(3) 0.34030(12) 0.66727(10)
C13 C 0.18206(17) 0.59797(8) 0.39274(9)
C14 C 0.03517(17) 0.58417(9) 0.42835(9)
C15 C -0.05242(18) 0.65042(9) 0.45509(10)
C16 C 0.00539(17) 0.72847(9) 0.44520(10)
C17 C 0.15131(19) 0.74125(9) 0.40830(9)
C18 C 0.24192(18) 0.67605(9) 0.38184(9)
C19 C 0.63586(15) 0.48739(9) 0.54822(8)
C20 C 0.56079(17) 0.52045(10) 0.61574(9)
C21 C 0.61758(18) 0.50076(10) 0.69177(9)
C22 C 0.74770(18) 0.44940(10) 0.69993(9)
C23 C 0.82138(18) 0.41700(9) 0.63261(9)
C24 C 0.76592(16) 0.43538(8) 0.55558(9)
H1 H 0.5402 0.3585 0.4338
H2 H 0.6232 0.4024 0.2744
H3 H 0.5711 0.3604 0.1414
H4 H 0.3538 0.2778 0.1129
H5 H 0.1807 0.2380 0.2163
H6 H 0.1584 0.2285 0.3841
H7 H 0.1036 0.3223 0.3815
H8 H 0.3799 0.2551 0.4542
H9 H 0.2371 0.3900 0.6684
H10 H 0.3919 0.3463 0.7035
H11 H 0.2356 0.2945 0.6850
H12 H -0.0046 0.5306 0.4343
H13 H -0.1523 0.6421 0.4802
H14 H -0.0549 0.7734 0.4637
H15 H 0.1894 0.7950 0.4011
H16 H 0.3421 0.6845 0.3569
H17 H 0.4725 0.5557 0.6097
H18 H 0.5676 0.5224 0.7384
H19 H 0.7863 0.4365 0.7522
H20 H 0.9101 0.3821 0.6390
H21 H 0.8154 0.4131 0.5092
loop_
_geom_bond_atom_site_label_1
_geom_bond_atom_site_label_2
_geom_bond_site_symmetry_1
_geom_bond_site_symmetry_2
S1 O5 1_555 1_555
S2 O3 1_555 1_555
F1 C1 1_555 1_555
O1 C11 1_555 1_555
O2 C11 1_555 1_555
O4 S2 1_555 1_555
O6 S1 1_555 1_555
C1 S1 1_555 1_555
C2 C1 1_555 1_555
C3 C2 1_555 1_555
C4 C3 1_555 1_555
C5 C4 1_555 1_555
C6 C5 1_555 1_555
C7 C6 1_555 1_555
C8 C3 1_555 1_555
C9 C8 1_555 1_555
C10 C2 1_555 1_555
C11 C10 1_555 1_555
C12 O2 1_555 1_555
C13 S2 1_555 1_555
C14 C13 1_555 1_555
C15 C14 1_555 1_555
C16 C15 1_555 1_555
C17 C16 1_555 1_555
C18 C13 1_555 1_555
C19 S1 1_555 1_555
C20 C19 1_555 1_555
C21 C20 1_555 1_555
C22 C21 1_555 1_555
C23 C22 1_555 1_555
C24 C19 1_555 1_555
H1 C2 1_555 1_555
H2 C4 1_555 1_555
H3 C5 1_555 1_555
H4 C6 1_555 1_555
H5 C7 1_555 1_555
H6 C9 1_555 1_555
H7 C9 1_555 1_555
H8 C10 1_555 1_555
H9 C12 1_555 1_555
H10 C12 1_555 1_555
H11 C12 1_555 1_555
H12 C14 1_555 1_555
H13 C15 1_555 1_555
H14 C16 1_555 1_555
H15 C17 1_555 1_555
H16 C18 1_555 1_555
H17 C20 1_555 1_555
H18 C21 1_555 1_555
H19 C22 1_555 1_555
H20 C23 1_555 1_555
H21 C24 1_555 1_555
S2 C1 1_555 1_555
C7 C8 1_555 1_555
C9 C10 1_555 1_555
C17 C18 1_555 1_555
C23 C24 1_555 1_555

#END
