
#######################################################################
#
#                 Cambridge Crystallographic Data Centre
#                                CCDC 
#
#######################################################################
#
# If this CIF has been generated from an entry in the Cambridge 
# Structural Database, then it will include bibliographic, chemical, 
# crystal, experimental, refinement or atomic coordinate data resulting 
# from the CCDC's data processing and validation procedures.
#
#######################################################################

data_ECAGIB
_chemical_formula_moiety         'C15 H14 N2 S1'
_chemical_name_systematic        4-(1,3-benzothiazol-2-yl)-N,N-dimethylaniline
_symmetry_cell_setting           orthorhombic
_symmetry_space_group_name_H-M   'P b c a'
_symmetry_Int_Tables_number      61
_space_group_name_Hall           '-P 2ac 2ab'
loop_
_symmetry_equiv_pos_site_id
_symmetry_equiv_pos_as_xyz
1 x,y,z
2 1/2-x,-y,1/2+z
3 1/2+x,1/2-y,-z
4 -x,1/2+y,1/2-z
5 -x,-y,-z
6 1/2+x,y,1/2-z
7 1/2-x,1/2+y,z
8 x,1/2-y,1/2+z
_cell_length_a                   11.0177(15)
_cell_length_b                   7.8508(11)
_cell_length_c                   29.691(4)
_cell_angle_alpha                90
_cell_angle_beta                 90
_cell_angle_gamma                90
_cell_volume                     2568.2
_exptl_crystal_colour            colorless
_exptl_crystal_description       rod-like
_cell_formula_units_Z            8
loop_
_atom_site_label
_atom_site_type_symbol
_atom_site_fract_x
_atom_site_fract_y
_atom_site_fract_z
S1 S 0.77770(6) 0.01253(8) 0.60466(2)
N1 N 0.96074(15) 0.2173(2) 0.61401(7)
C1 C 0.96654(17) 0.2058(3) 0.71182(9)
H1 H 1.0276 0.2661 0.6972
C2 C 0.93875(18) 0.2027(3) 0.56823(8)
C3 C 0.87971(17) 0.1203(2) 0.68596(7)
C4 C 0.87395(17) 0.1146(2) 0.78151(8)
C5 C 0.96477(17) 0.2037(3) 0.75759(8)
H2 H 1.0245 0.2620 0.7735
C6 C 0.8422(2) 0.0953(3) 0.55647(8)
C7 C 0.88269(17) 0.1277(2) 0.63709(8)
C8 C 0.78936(17) 0.0326(3) 0.70975(9)
H3 H 0.7297 -0.0254 0.6937
N2 N 0.87142(17) 0.1140(3) 0.82771(7)
C9 C 0.78625(18) 0.0298(3) 0.75562(9)
H4 H 0.7246 -0.0297 0.7701
C10 C 1.0048(2) 0.2827(3) 0.53448(10)
H5 H 1.0690 0.3546 0.5418
C11 C 0.8123(2) 0.0686(3) 0.51142(10)
H6 H 0.7482 -0.0025 0.5036
C12 C 0.7785(2) 0.0236(4) 0.85263(10)
H7 H 0.7000 0.0662 0.8443
H8 H 0.7909 0.0404 0.8843
H9 H 0.7832 -0.0958 0.8458
C13 C 0.9750(3) 0.2551(3) 0.49059(10)
H10 H 1.0195 0.3084 0.4680
C14 C 0.8790(3) 0.1487(4) 0.47891(9)
H11 H 0.8601 0.1319 0.4487
C15 C 0.9704(2) 0.1817(4) 0.85393(9)
H12 H 1.0460 0.1539 0.8396
H13 H 0.9686 0.1331 0.8836
H14 H 0.9626 0.3032 0.8560
loop_
_geom_bond_atom_site_label_1
_geom_bond_atom_site_label_2
_geom_bond_site_symmetry_1
_geom_bond_site_symmetry_2
S1 C6 1_555 1_555
N1 C2 1_555 1_555
C1 H1 1_555 1_555
C2 C6 1_555 1_555
C3 C1 1_555 1_555
C4 C5 1_555 1_555
C5 C1 1_555 1_555
H2 C5 1_555 1_555
C6 C11 1_555 1_555
C7 S1 1_555 1_555
C8 C3 1_555 1_555
H3 C8 1_555 1_555
N2 C4 1_555 1_555
C9 C4 1_555 1_555
H4 C9 1_555 1_555
C10 C2 1_555 1_555
H5 C10 1_555 1_555
C11 H6 1_555 1_555
C12 N2 1_555 1_555
H7 C12 1_555 1_555
H8 C12 1_555 1_555
H9 C12 1_555 1_555
C13 C10 1_555 1_555
H10 C13 1_555 1_555
C14 C11 1_555 1_555
H11 C14 1_555 1_555
C15 N2 1_555 1_555
H12 C15 1_555 1_555
H13 C15 1_555 1_555
H14 C15 1_555 1_555
N1 C7 1_555 1_555
C3 C7 1_555 1_555
C8 C9 1_555 1_555
C13 C14 1_555 1_555

#END
