
#######################################################################
#
#                 Cambridge Crystallographic Data Centre
#                                CCDC 
#
#######################################################################
#
# If this CIF has been generated from an entry in the Cambridge 
# Structural Database, then it will include bibliographic, chemical, 
# crystal, experimental, refinement or atomic coordinate data resulting 
# from the CCDC's data processing and validation procedures.
#
#######################################################################

data_ECAGAT
_chemical_formula_moiety         'C42 H38 N2 O4 S2,0.76(C1 H2 Cl2)'
_chemical_name_systematic        
'2,8-bis(2,6-di-isopropylphenyl)[1]benzothieno[4,5,6,7-lmn]thieno[3,2-f][3,8]phenanthroline-1,3,7,9(2H,8H)-tetrone dichloromethane solvate'
_symmetry_cell_setting           triclinic
_symmetry_space_group_name_H-M   'P -1'
_symmetry_Int_Tables_number      2
_space_group_name_Hall           '-P 1'
loop_
_symmetry_equiv_pos_site_id
_symmetry_equiv_pos_as_xyz
1 x,y,z
2 -x,-y,-z
_cell_length_a                   8.9017(18)
_cell_length_b                   9.2639(19)
_cell_length_c                   13.141(3)
_cell_angle_alpha                97.10(3)
_cell_angle_beta                 101.59(3)
_cell_angle_gamma                107.30(3)
_cell_volume                     993.88
_exptl_crystal_colour            red
_exptl_crystal_description       plate
_cell_formula_units_Z            1
loop_
_atom_site_label
_atom_site_type_symbol
_atom_site_fract_x
_atom_site_fract_y
_atom_site_fract_z
S1 S 0.2565(2) 0.64982(19) 0.72529(11)
O1 O 0.5045(2) 0.8752(2) 0.68292(14)
O2 O 0.8562(3) 1.3160(2) 0.89655(15)
N1 N 0.6797(2) 1.0968(2) 0.79025(14)
C1 C 0.1188(8) 0.5428(9) 0.7863(5)
H1 H 0.0393 0.4496 0.7512
C2 C 0.134(2) 0.6018(16) 0.8852(11)
H2 H 0.0649 0.5573 0.9256
C3 C 0.2710(3) 0.7445(2) 0.92522(17)
C4 C 0.3474(3) 0.7848(2) 0.84182(17)
C5 C 0.4771(2) 0.9198(2) 0.85791(17)
C6 C 0.5367(2) 1.0197(2) 0.95751(16)
C7 C 0.6686(3) 1.1570(2) 0.97528(17)
C8 C 0.7435(3) 1.1989(3) 0.88727(18)
C9 C 0.5510(3) 0.9580(3) 0.76939(17)
C10 C 0.7519(3) 1.1407(3) 0.70368(18)
C11 C 0.6843(3) 1.2235(3) 0.63810(19)
C12 C 0.7553(4) 1.2624(3) 0.5550(2)
H3 H 0.7126 1.3171 0.5090
C13 C 0.8850(4) 1.2220(4) 0.5402(2)
H4 H 0.9297 1.2490 0.4842
C14 C 0.9506(4) 1.1418(4) 0.6069(3)
H5 H 1.0396 1.1153 0.5955
C15 C 0.8867(3) 1.0985(3) 0.6923(2)
C16 C 0.5444(4) 1.2756(3) 0.6537(2)
H6 H 0.5090 1.2364 0.7139
C17 C 0.4001(5) 1.2202(11) 0.5587(4)
H7 H 0.4306 1.2638 0.5003
H8 H 0.3132 1.2517 0.5756
H9 H 0.3649 1.1098 0.5398
C18 C 0.5984(8) 1.4525(6) 0.6795(9)
H10 H 0.6762 1.4894 0.7471
H11 H 0.5051 1.4831 0.6825
H12 H 0.6466 1.4953 0.6262
C19 C 0.9601(4) 1.0122(4) 0.7659(3)
H13 H 0.9369 1.0293 0.8353
C20 C 0.8867(13) 0.8375(12) 0.7115(12)
H14 H 0.9319 0.7780 0.7558
H15 H 0.9124 0.8239 0.6441
H16 H 0.7708 0.8036 0.7011
C21 C 1.1474(8) 1.0652(10) 0.7758(10)
H17 H 1.2002 1.0330 0.8357
H18 H 1.1891 1.1755 0.7853
H19 H 1.1678 1.0195 0.7126
S1A S 0.7435(2) 1.35018(19) 1.27471(11)
O1A O 0.4955(2) 1.1248(2) 1.31708(14)
O2A O 0.1438(3) 0.6840(2) 1.10345(15)
N1A N 0.3203(2) 0.9032(2) 1.20975(14)
C1A C 0.8812(8) 1.4572(9) 1.2137(5)
H1A H 0.9607 1.5504 1.2488
C2A C 0.866(2) 1.3982(16) 1.1148(11)
H2A H 0.9351 1.4427 1.0744
C3A C 0.7290(3) 1.2555(2) 1.07478(17)
C4A C 0.6526(3) 1.2152(2) 1.15818(17)
C5A C 0.5229(2) 1.0802(2) 1.14209(17)
C6A C 0.4633(2) 0.9803(2) 1.04249(16)
C7A C 0.3314(3) 0.8430(2) 1.02472(17)
C8A C 0.2565(3) 0.8011(3) 1.11273(18)
C9A C 0.4490(3) 1.0420(3) 1.23061(17)
C10A C 0.2481(3) 0.8593(3) 1.29632(18)
C11A C 0.3157(3) 0.7765(3) 1.36190(19)
C12A C 0.2447(4) 0.7376(3) 1.4450(2)
H3A H 0.2874 0.6829 1.4910
C13A C 0.1150(4) 0.7780(4) 1.4598(2)
H4A H 0.0703 0.7510 1.5158
C14A C 0.0494(4) 0.8582(4) 1.3931(3)
H5A H -0.0396 0.8847 1.4045
C15A C 0.1133(3) 0.9015(3) 1.3077(2)
C16A C 0.4556(4) 0.7244(3) 1.3463(2)
H6A H 0.4910 0.7636 1.2861
C17A C 0.5999(5) 0.7798(11) 1.4413(4)
H7A H 0.5694 0.7362 1.4997
H8A H 0.6868 0.7483 1.4244
H9A H 0.6351 0.8902 1.4602
C18A C 0.4016(8) 0.5475(6) 1.3205(9)
H10A H 0.3238 0.5106 1.2529
H11A H 0.4949 0.5169 1.3175
H12A H 0.3534 0.5047 1.3738
C19A C 0.0399(4) 0.9878(4) 1.2341(3)
H13A H 0.0631 0.9707 1.1647
C20A C 0.1133(13) 1.1625(12) 1.2885(12)
H14A H 0.0681 1.2220 1.2442
H15A H 0.0876 1.1761 1.3559
H16A H 0.2292 1.1964 1.2989
C21A C -0.1474(8) 0.9348(10) 1.2242(10)
H17A H -0.2002 0.9670 1.1643
H18A H -0.1891 0.8245 1.2147
H19A H -0.1678 0.9805 1.2874
Cl1 Cl 0.5376(8) 0.5205(11) 0.9543(7)
Cl2 Cl 0.8007(9) 0.7933(8) 0.9506(4)
C22 C 0.7460(14) 0.6169(14) 0.9822(15)
H20 H 0.7919 0.6277 1.0574
H21 H 0.7941 0.5532 0.9444
H22? H 0.5546 1.3373 0.5985
H23? H 0.8877 0.9916 0.8134
C23? C 0.400(3) 1.144(4) 0.579(3)
H24? H 0.4174 1.1333 0.5089
H25? H 0.3019 1.1676 0.5772
H26? H 0.3917 1.0497 0.6038
C24? C 0.578(7) 1.418(5) 0.739(4)
H27? H 0.5252 1.3918 0.7944
H28? H 0.5408 1.4938 0.7079
H29? H 0.6933 1.4594 0.7680
C25? C 1.1310(15) 1.1063(15) 0.8430(13)
H30? H 1.1648 1.0423 0.8886
H31? H 1.1235 1.1950 0.8851
H32? H 1.2090 1.1390 0.8024
C26? C 0.959(2) 0.8562(18) 0.7210(14)
H33? H 0.8568 0.8007 0.6714
H34? H 0.9759 0.8011 0.7771
H35? H 1.0451 0.8664 0.6854
S2? S 0.1227(14) 0.5798(12) 0.8954(8)
C27? C 0.272(3) 0.662(3) 0.7540(16)
H36? H 0.3063 0.6616 0.6918
C28? C 0.143(3) 0.542(3) 0.7653(12)
H37? H 0.0780 0.4571 0.7130
loop_
_geom_bond_atom_site_label_1
_geom_bond_atom_site_label_2
_geom_bond_site_symmetry_1
_geom_bond_site_symmetry_2
S1 C1 1_555 1_555
O1 C9 1_555 1_555
O2 C8 1_555 1_555
N1 C8 1_555 1_555
C1 H1 1_555 1_555
C2 C1 1_555 1_555
H2 C2 1_555 1_555
C3 C2 1_555 1_555
C4 S1 1_555 1_555
C5 C4 1_555 1_555
C6 C5 1_555 1_555
C7 C6 1_555 1_555
C8 C7 1_555 1_555
C9 N1 1_555 1_555
C10 N1 1_555 1_555
C11 C10 1_555 1_555
C12 C11 1_555 1_555
H3 C12 1_555 1_555
C13 C12 1_555 1_555
H4 C13 1_555 1_555
C14 C13 1_555 1_555
H5 C14 1_555 1_555
C15 C10 1_555 1_555
C16 C11 1_555 1_555
H6 C16 1_555 1_555
C17 C16 1_555 1_555
H7 C17 1_555 1_555
H8 C17 1_555 1_555
H9 C17 1_555 1_555
C18 C16 1_555 1_555
H10 C18 1_555 1_555
H11 C18 1_555 1_555
H12 C18 1_555 1_555
C19 C15 1_555 1_555
H13 C19 1_555 1_555
C20 C19 1_555 1_555
H14 C20 1_555 1_555
H15 C20 1_555 1_555
H16 C20 1_555 1_555
C21 C19 1_555 1_555
H17 C21 1_555 1_555
H18 C21 1_555 1_555
H19 C21 1_555 1_555
Cl1 C22 1_555 1_555
Cl2 C22 1_555 1_555
C22 H20 1_555 1_555
H21 C22 1_555 1_555
S1A C1A 1_555 1_555
O1A C9A 1_555 1_555
O2A C8A 1_555 1_555
N1A C8A 1_555 1_555
C1A H1A 1_555 1_555
C2A C1A 1_555 1_555
H2A C2A 1_555 1_555
C3A C7 1_555 1_555
C4A S1A 1_555 1_555
C5A C4A 1_555 1_555
C6A C6 1_555 1_555
C7A C3 1_555 1_555
C8A C7A 1_555 1_555
C9A N1A 1_555 1_555
C10A N1A 1_555 1_555
C11A C10A 1_555 1_555
C12A C11A 1_555 1_555
H3A C12A 1_555 1_555
C13A C12A 1_555 1_555
H4A C13A 1_555 1_555
C14A C13A 1_555 1_555
H5A C14A 1_555 1_555
C15A C10A 1_555 1_555
C16A C11A 1_555 1_555
H6A C16A 1_555 1_555
C17A C16A 1_555 1_555
H7A C17A 1_555 1_555
H8A C17A 1_555 1_555
H9A C17A 1_555 1_555
C18A C16A 1_555 1_555
H10A C18A 1_555 1_555
H11A C18A 1_555 1_555
H12A C18A 1_555 1_555
C19A C15A 1_555 1_555
H13A C19A 1_555 1_555
C20A C19A 1_555 1_555
H14A C20A 1_555 1_555
H15A C20A 1_555 1_555
H16A C20A 1_555 1_555
C21A C19A 1_555 1_555
H17A C21A 1_555 1_555
H18A C21A 1_555 1_555
H19A C21A 1_555 1_555
C3 C4 1_555 1_555
C5 C9 1_555 1_555
C14 C15 1_555 1_555
C2A C3A 1_555 1_555
C3A C4A 1_555 1_555
C5A C6A 1_555 1_555
C5A C9A 1_555 1_555
C6A C7A 1_555 1_555
C14A C15A 1_555 1_555

#END
