
#######################################################################
#
#                 Cambridge Crystallographic Data Centre
#                                CCDC 
#
#######################################################################
#
# If this CIF has been generated from an entry in the Cambridge 
# Structural Database, then it will include bibliographic, chemical, 
# crystal, experimental, refinement or atomic coordinate data resulting 
# from the CCDC's data processing and validation procedures.
#
#######################################################################

data_ECALEC
_chemical_formula_moiety         'C15 H12 N2 O1'
_chemical_name_systematic        '1,3-diphenylpyrazole 2-oxide'
_symmetry_cell_setting           hexagonal
_symmetry_space_group_name_H-M   'P 65'
_symmetry_Int_Tables_number      170
_space_group_name_Hall           'P 65'
loop_
_symmetry_equiv_pos_site_id
_symmetry_equiv_pos_as_xyz
1 x,y,z
2 x-y,x,5/6+z
3 -y,x-y,2/3+z
4 -x,-y,1/2+z
5 -x+y,-x,1/3+z
6 y,-x+y,1/6+z
_cell_length_a                   6.1726(13)
_cell_length_b                   6.1726(13)
_cell_length_c                   54.71(3)
_cell_angle_alpha                90
_cell_angle_beta                 90
_cell_angle_gamma                120
_cell_volume                     1805.23
_exptl_crystal_colour            'light yellow'
_exptl_crystal_description       block
_cell_formula_units_Z            6
loop_
_atom_site_label
_atom_site_type_symbol
_atom_site_fract_x
_atom_site_fract_y
_atom_site_fract_z
O1 O 0.0117(13) 0.005(2) 0.1397(2)
N1 N 0.2515(13) 0.1304(18) 0.1403(2)
N2 N 0.4011(17) 0.070(2) 0.12590(18)
C1 C 0.094(3) 0.300(3) 0.1852(3)
H1 H 0.0061 0.1266 0.1837
C2 C 0.018(3) 0.422(4) 0.2018(3)
H2 H -0.1115 0.3319 0.2128
C3 C 0.138(3) 0.674(4) 0.2012(2)
H3 H 0.0642 0.7536 0.2091
C4 C 0.343(4) 0.807(3) 0.1908(3)
H4 H 0.4367 0.9768 0.1945
C5 C 0.434(3) 0.700(3) 0.1732(3)
H5 H 0.5746 0.8001 0.1638
C6 C 0.307(2) 0.447(3) 0.1708(2)
C7 C 0.398(2) 0.333(2) 0.1541(2)
C8 C 0.651(3) 0.402(3) 0.1487(3)
H6 H 0.7942 0.5361 0.1553
C9 C 0.643(2) 0.234(2) 0.1320(3)
H7 H 0.7815 0.2319 0.1257
C10 C 0.307(2) -0.142(2) 0.1088(2)
C11 C 0.098(2) -0.209(3) 0.0951(2)
H8 H 0.0101 -0.1234 0.0970
C12 C 0.015(3) -0.406(3) 0.0782(3)
H9 H -0.1331 -0.4538 0.0698
C13 C 0.142(3) -0.534(4) 0.0736(2)
H10 H 0.0967 -0.6515 0.0611
C14 C 0.357(3) -0.467(3) 0.0903(2)
H11 H 0.4381 -0.5598 0.0897
C15 C 0.439(3) -0.272(2) 0.1064(2)
H12 H 0.5814 -0.2259 0.1157
loop_
_geom_bond_atom_site_label_1
_geom_bond_atom_site_label_2
_geom_bond_site_symmetry_1
_geom_bond_site_symmetry_2
O1 N1 1_555 1_555
N1 N2 1_555 1_555
N2 C9 1_555 1_555
C1 H1 1_555 1_555
C2 C1 1_555 1_555
H2 C2 1_555 1_555
C3 C2 1_555 1_555
H3 C3 1_555 1_555
C4 C3 1_555 1_555
H4 C4 1_555 1_555
C5 C4 1_555 1_555
H5 C5 1_555 1_555
C6 C1 1_555 1_555
C7 N1 1_555 1_555
C8 C7 1_555 1_555
H6 C8 1_555 1_555
C9 C8 1_555 1_555
H7 C9 1_555 1_555
C10 N2 1_555 1_555
C11 C10 1_555 1_555
H8 C11 1_555 1_555
C12 C11 1_555 1_555
H9 C12 1_555 1_555
C13 C12 1_555 1_555
H10 C13 1_555 1_555
C14 C13 1_555 1_555
H11 C14 1_555 1_555
C15 C10 1_555 1_555
H12 C15 1_555 1_555
C5 C6 1_555 1_555
C6 C7 1_555 1_555
C14 C15 1_555 1_555

#END
