
#######################################################################
#
#                 Cambridge Crystallographic Data Centre
#                                CCDC 
#
#######################################################################
#
# If this CIF has been generated from an entry in the Cambridge 
# Structural Database, then it will include bibliographic, chemical, 
# crystal, experimental, refinement or atomic coordinate data resulting 
# from the CCDC's data processing and validation procedures.
#
#######################################################################

data_ECAPAC
_chemical_formula_moiety         
'C50 H48 N14 O2,1.41(C3 H10 N2),0.59(C1 H1 Cl3)'
_chemical_name_systematic        
"2,2',8,8',14,14',20,20'-octamethyl-5,5'-bi(2,8,14,20,25,26,27-heptaazapentacyclo[19.3.1.1^3,7^.1^9,13^.1^15,19^]octacosane)-1(25),1'(25'),3(28),3'(28'),4,4',6,6',9(27),9'(27'),10,10',12,12',15(26),15'(26'),16,16',18,18',21,21',23,23'-tetracosaene-28,28'-diol 1,3-diaminopropane chloroform solvate"
_symmetry_cell_setting           monoclinic
_symmetry_space_group_name_H-M   'C 2/c'
_symmetry_Int_Tables_number      15
_space_group_name_Hall           '-C 2yn'
loop_
_symmetry_equiv_pos_site_id
_symmetry_equiv_pos_as_xyz
1 x,y,z
2 -x,y,1/2-z
3 1/2+x,1/2+y,z
4 1/2-x,1/2+y,1/2-z
5 -x,-y,-z
6 x,-y,1/2+z
7 1/2-x,1/2-y,-z
8 1/2+x,1/2-y,1/2+z
_cell_length_a                   28.402(6)
_cell_length_b                   9.816(2)
_cell_length_c                   18.722(4)
_cell_angle_alpha                90
_cell_angle_beta                 90.70(3)
_cell_angle_gamma                90
_cell_volume                     5219.19
_exptl_crystal_colour            colorless
_exptl_crystal_description       block
_cell_formula_units_Z            4
loop_
_atom_site_label
_atom_site_type_symbol
_atom_site_fract_x
_atom_site_fract_y
_atom_site_fract_z
N8 N 0.68953(16) 0.6681(5) 0.4305(3)
H24 H 0.6973 0.7025 0.4730
H25 H 0.6640 0.6163 0.4345
N9 N 0.81320(18) 0.5129(11) 0.5088(3)
H26 H 0.8307 0.4395 0.5047
H27 H 0.8183 0.5640 0.4714
C26 C 0.7281(2) 0.5866(8) 0.4042(4)
H28 H 0.7566 0.6409 0.4063
H29 H 0.7218 0.5651 0.3544
C27 C 0.7371(2) 0.4505(11) 0.4456(4)
H30 H 0.7074 0.4077 0.4576
H31 H 0.7550 0.3879 0.4164
C28 C 0.76526(19) 0.4860(7) 0.5148(3)
H32 H 0.7506 0.5652 0.5362
H33 H 0.7617 0.4109 0.5480
O1 O 0.65532(6) 0.88146(19) 0.36799(10)
N1 N 0.57344(7) 0.9698(2) 0.44281(10)
N2 N 0.64933(6) 0.7843(2) 0.22883(10)
N3 N 0.64438(6) 0.56002(19) 0.26314(9)
N4 N 0.63353(7) 0.3380(2) 0.30026(11)
N5 N 0.60904(7) 0.4284(2) 0.41039(10)
N6 N 0.58999(8) 0.5290(2) 0.51998(11)
N7 N 0.58270(6) 0.7530(2) 0.48694(9)
C1 C 0.55721(10) 1.1082(3) 0.45223(14)
H1 H 0.5497 1.1472 0.4065
H2 H 0.5815 1.1611 0.4751
H3 H 0.5296 1.1083 0.4814
C2 C 0.57103(7) 0.9104(2) 0.37285(11)
C3 C 0.52762(7) 0.9011(2) 0.33837(11)
H4 H 0.5007 0.9284 0.3624
C4 C 0.52322(7) 0.8520(2) 0.26851(11)
C5 C 0.56414(7) 0.8097(2) 0.23453(11)
H5 H 0.5621 0.7757 0.1882
C6 C 0.60779(7) 0.8172(2) 0.26821(11)
C7 C 0.61217(7) 0.8684(2) 0.33802(12)
C8 C 0.67199(9) 0.8950(3) 0.19104(14)
H6 H 0.7031 0.9087 0.2103
H7 H 0.6539 0.9769 0.1966
H8 H 0.6739 0.8726 0.1412
C9 C 0.66841(7) 0.6564(2) 0.22816(11)
C10 C 0.71034(8) 0.6276(3) 0.19220(12)
H9 H 0.7266 0.6955 0.1681
C11 C 0.72663(8) 0.4955(3) 0.19385(13)
H10 H 0.7545 0.4741 0.1707
C12 C 0.70247(9) 0.3944(3) 0.22913(13)
H11 H 0.7133 0.3050 0.2300
C13 C 0.66100(8) 0.4320(2) 0.26356(12)
C14 C 0.65446(11) 0.2120(3) 0.32575(19)
H12 H 0.6782 0.2322 0.3611
H13 H 0.6685 0.1646 0.2865
H14 H 0.6306 0.1559 0.3465
C15 C 0.59729(8) 0.3959(2) 0.34296(12)
C16 C 0.55359(8) 0.4206(2) 0.31331(12)
H15 H 0.5462 0.3912 0.2673
C17 C 0.52082(8) 0.4903(3) 0.35367(13)
H16 H 0.4913 0.5108 0.3346
C18 C 0.53258(8) 0.5288(3) 0.42218(12)
H17 H 0.5114 0.5769 0.4501
C19 C 0.57702(8) 0.4939(2) 0.44889(12)
C20 C 0.61319(12) 0.4289(3) 0.56529(15)
H18 H 0.5909 0.3921 0.5983
H19 H 0.6385 0.4716 0.5913
H20 H 0.6255 0.3569 0.5363
C21 C 0.58740(8) 0.6644(3) 0.54053(12)
C22 C 0.59003(9) 0.7042(3) 0.61222(12)
H21 H 0.5943 0.6412 0.6488
C23 C 0.58598(9) 0.8426(3) 0.62597(12)
H22 H 0.5868 0.8730 0.6730
C24 C 0.58084(9) 0.9357(3) 0.57170(13)
H23 H 0.5787 1.0285 0.5811
C25 C 0.57896(7) 0.8857(2) 0.50140(11)
O1A O 0.34468(6) 0.88146(19) 0.13201(10)
N1A N 0.42656(7) 0.9698(2) 0.05719(10)
N2A N 0.35067(6) 0.7843(2) 0.27117(10)
N3A N 0.35562(6) 0.56002(19) 0.23686(9)
N4A N 0.36647(7) 0.3380(2) 0.19974(11)
N5A N 0.39096(7) 0.4284(2) 0.08961(10)
N6A N 0.41001(8) 0.5290(2) -0.01998(11)
N7A N 0.41730(6) 0.7530(2) 0.01306(9)
C1A C 0.44279(10) 1.1082(3) 0.04777(14)
H1A H 0.4503 1.1472 0.0935
H2A H 0.4185 1.1611 0.0249
H3A H 0.4704 1.1083 0.0186
C2A C 0.42897(7) 0.9104(2) 0.12715(11)
C3A C 0.47238(7) 0.9011(2) 0.16163(11)
H4A H 0.4993 0.9284 0.1376
C4A C 0.47678(7) 0.8520(2) 0.23149(11)
C5A C 0.43586(7) 0.8097(2) 0.26547(11)
H5A H 0.4379 0.7757 0.3118
C6A C 0.39221(7) 0.8172(2) 0.23179(11)
C7A C 0.38783(7) 0.8684(2) 0.16198(12)
C8A C 0.32801(9) 0.8950(3) 0.30896(14)
H6A H 0.2969 0.9087 0.2897
H7A H 0.3461 0.9769 0.3034
H8A H 0.3261 0.8726 0.3588
C9A C 0.33159(7) 0.6564(2) 0.27184(11)
C10A C 0.28966(8) 0.6276(3) 0.30780(12)
H9A H 0.2734 0.6955 0.3319
C11A C 0.27337(8) 0.4955(3) 0.30615(13)
H10A H 0.2455 0.4741 0.3293
C12A C 0.29753(9) 0.3944(3) 0.27087(13)
H11A H 0.2867 0.3050 0.2700
C13A C 0.33900(8) 0.4320(2) 0.23644(12)
C14A C 0.34554(11) 0.2120(3) 0.17425(19)
H12A H 0.3218 0.2322 0.1389
H13A H 0.3315 0.1646 0.2135
H14A H 0.3694 0.1559 0.1535
C15A C 0.40271(8) 0.3959(2) 0.15704(12)
C16A C 0.44641(8) 0.4206(2) 0.18669(12)
H15A H 0.4538 0.3912 0.2327
C17A C 0.47918(8) 0.4903(3) 0.14633(13)
H16A H 0.5087 0.5108 0.1654
C18A C 0.46742(8) 0.5288(3) 0.07782(12)
H17A H 0.4886 0.5769 0.0499
C19A C 0.42298(8) 0.4939(2) 0.05111(12)
C20A C 0.38681(12) 0.4289(3) -0.06529(15)
H18A H 0.4091 0.3921 -0.0983
H19A H 0.3615 0.4716 -0.0913
H20A H 0.3745 0.3569 -0.0363
C21A C 0.41260(8) 0.6644(3) -0.04053(12)
C22A C 0.40997(9) 0.7042(3) -0.11222(12)
H21A H 0.4057 0.6412 -0.1488
C23A C 0.41402(9) 0.8426(3) -0.12597(12)
H22A H 0.4132 0.8730 -0.1730
C24A C 0.41916(9) 0.9357(3) -0.07170(13)
H23A H 0.4213 1.0285 -0.0811
C25A C 0.42104(7) 0.8857(2) -0.00140(11)
Cl1? Cl 0.7384(3) 0.3935(5) 0.4597(5)
Cl2? Cl 0.70459(10) 0.6416(3) 0.52036(14)
Cl3? Cl 0.75701(12) 0.6511(3) 0.39182(16)
C29? C 0.7179(4) 0.5598(10) 0.4492(8)
H34? H 0.6883 0.5515 0.4220
H35? H 0.6836 0.7358 0.4001
loop_
_geom_bond_atom_site_label_1
_geom_bond_atom_site_label_2
_geom_bond_site_symmetry_1
_geom_bond_site_symmetry_2
O1 C7 1_555 1_555
N1 C1 1_555 1_555
N2 C6 1_555 1_555
N3 C9 1_555 1_555
N4 C13 1_555 1_555
N5 C15 1_555 1_555
N6 C19 1_555 1_555
N7 C21 1_555 1_555
C1 H1 1_555 1_555
H2 C1 1_555 1_555
H3 C1 1_555 1_555
C2 N1 1_555 1_555
C3 C2 1_555 1_555
H4 C3 1_555 1_555
C4 C3 1_555 1_555
C5 C4 1_555 1_555
H5 C5 1_555 1_555
C6 C5 1_555 1_555
C7 C2 1_555 1_555
C8 N2 1_555 1_555
H6 C8 1_555 1_555
H7 C8 1_555 1_555
H8 C8 1_555 1_555
C9 N2 1_555 1_555
C10 C9 1_555 1_555
H9 C10 1_555 1_555
C11 C10 1_555 1_555
H10 C11 1_555 1_555
C12 C11 1_555 1_555
H11 C12 1_555 1_555
C13 N3 1_555 1_555
C14 N4 1_555 1_555
H12 C14 1_555 1_555
H13 C14 1_555 1_555
H14 C14 1_555 1_555
C15 N4 1_555 1_555
C16 C15 1_555 1_555
H15 C16 1_555 1_555
C17 C16 1_555 1_555
H16 C17 1_555 1_555
C18 C17 1_555 1_555
H17 C18 1_555 1_555
C19 N5 1_555 1_555
C20 N6 1_555 1_555
H18 C20 1_555 1_555
H19 C20 1_555 1_555
H20 C20 1_555 1_555
C21 N6 1_555 1_555
C22 C21 1_555 1_555
H21 C22 1_555 1_555
C23 C22 1_555 1_555
H22 C23 1_555 1_555
C24 C23 1_555 1_555
H23 C24 1_555 1_555
C25 N1 1_555 1_555
N8 H24 1_555 1_555
H25 N8 1_555 1_555
N9 H26 1_555 1_555
H27 N9 1_555 1_555
C26 N8 1_555 1_555
H28 C26 1_555 1_555
H29 C26 1_555 1_555
C27 C26 1_555 1_555
H30 C27 1_555 1_555
H31 C27 1_555 1_555
C28 N9 1_555 1_555
H32 C28 1_555 1_555
H33 C28 1_555 1_555
O1A C7A 1_555 1_555
N1A C1A 1_555 1_555
N2A C6A 1_555 1_555
N3A C9A 1_555 1_555
N4A C13A 1_555 1_555
N5A C15A 1_555 1_555
N6A C19A 1_555 1_555
N7A C21A 1_555 1_555
C1A H1A 1_555 1_555
H2A C1A 1_555 1_555
H3A C1A 1_555 1_555
C2A N1A 1_555 1_555
C3A C2A 1_555 1_555
H4A C3A 1_555 1_555
C4A C4 1_555 1_555
C5A C4A 1_555 1_555
H5A C5A 1_555 1_555
C6A C5A 1_555 1_555
C7A C2A 1_555 1_555
C8A N2A 1_555 1_555
H6A C8A 1_555 1_555
H7A C8A 1_555 1_555
H8A C8A 1_555 1_555
C9A N2A 1_555 1_555
C10A C9A 1_555 1_555
H9A C10A 1_555 1_555
C11A C10A 1_555 1_555
H10A C11A 1_555 1_555
C12A C11A 1_555 1_555
H11A C12A 1_555 1_555
C13A N3A 1_555 1_555
C14A N4A 1_555 1_555
H12A C14A 1_555 1_555
H13A C14A 1_555 1_555
H14A C14A 1_555 1_555
C15A N4A 1_555 1_555
C16A C15A 1_555 1_555
H15A C16A 1_555 1_555
C17A C16A 1_555 1_555
H16A C17A 1_555 1_555
C18A C17A 1_555 1_555
H17A C18A 1_555 1_555
C19A N5A 1_555 1_555
C20A N6A 1_555 1_555
H18A C20A 1_555 1_555
H19A C20A 1_555 1_555
H20A C20A 1_555 1_555
C21A N6A 1_555 1_555
C22A C21A 1_555 1_555
H21A C22A 1_555 1_555
C23A C22A 1_555 1_555
H22A C23A 1_555 1_555
C24A C23A 1_555 1_555
H23A C24A 1_555 1_555
C25A N1A 1_555 1_555
N7 C25 1_555 1_555
C6 C7 1_555 1_555
C12 C13 1_555 1_555
C18 C19 1_555 1_555
C24 C25 1_555 1_555
C27 C28 1_555 1_555
N7A C25A 1_555 1_555
C3A C4A 1_555 1_555
C6A C7A 1_555 1_555
C12A C13A 1_555 1_555
C18A C19A 1_555 1_555
C24A C25A 1_555 1_555

#END
