
#######################################################################
#
#                 Cambridge Crystallographic Data Centre
#                                CCDC 
#
#######################################################################
#
# If this CIF has been generated from an entry in the Cambridge 
# Structural Database, then it will include bibliographic, chemical, 
# crystal, experimental, refinement or atomic coordinate data resulting 
# from the CCDC's data processing and validation procedures.
#
#######################################################################

data_ECAPII
_chemical_formula_moiety         'C30 H23 Cl1 O1'
_chemical_name_systematic        
(Z)-5-Benzylidene-2-(2-chlorophenyl)-2-methyl-3,4-diphenyl-2,5-dihydrofuran
_symmetry_cell_setting           monoclinic
_symmetry_space_group_name_H-M   'P 21/c'
_symmetry_Int_Tables_number      14
_space_group_name_Hall           '-P 2ybc'
loop_
_symmetry_equiv_pos_site_id
_symmetry_equiv_pos_as_xyz
1 x,y,z
2 -x,1/2+y,1/2-z
3 -x,-y,-z
4 x,1/2-y,1/2+z
_cell_length_a                   9.2481(10)
_cell_length_b                   17.4891(18)
_cell_length_c                   14.3020(15)
_cell_angle_alpha                90
_cell_angle_beta                 97.552(2)
_cell_angle_gamma                90
_cell_volume                     2293.15
_exptl_crystal_colour            colorless
_cell_formula_units_Z            4
loop_
_atom_site_label
_atom_site_type_symbol
_atom_site_fract_x
_atom_site_fract_y
_atom_site_fract_z
Cl1 Cl 0.15702(7) 0.76541(4) 0.75811(4)
O1 O -0.08615(14) 0.68737(7) 0.63916(10)
C1 C -0.1115(2) 0.60787(13) 0.77128(16)
C2 C -0.0451(2) 0.62675(11) 0.69740(15)
C3 C 0.0833(2) 0.59058(11) 0.66601(14)
C4 C 0.1153(2) 0.62741(11) 0.58996(14)
C5 C 0.0062(2) 0.69143(11) 0.56462(14)
C6 C 0.0822(2) 0.76904(11) 0.56558(14)
C7 C 0.0911(2) 0.80696(13) 0.48108(16)
H1 H 0.0405 0.7872 0.4259
C8 C 0.1718(3) 0.87251(15) 0.4760(2)
C9 C 0.2435(3) 0.90366(14) 0.5562(2)
H2 H 0.2990 0.9477 0.5529
C10 C 0.2340(3) 0.87016(13) 0.64125(19)
H3 H 0.2806 0.8923 0.6962
C11 C 0.1555(2) 0.80364(12) 0.64593(15)
C12 C -0.2391(2) 0.64181(11) 0.80496(15)
C13 C -0.3266(3) 0.69661(15) 0.7565(2)
C14 C -0.4476(3) 0.72429(15) 0.7917(2)
H4 H -0.5047 0.7613 0.7579
C15 C -0.4859(3) 0.69879(17) 0.8749(2)
C16 C -0.4003(3) 0.64510(17) 0.9246(2)
H5 H -0.4248 0.6272 0.9818
C17 C -0.2774(3) 0.61709(14) 0.89056(18)
H6 H -0.2194 0.5811 0.9257
C18 C 0.1644(2) 0.52729(11) 0.71695(14)
C19 C 0.1012(3) 0.45831(14) 0.73491(17)
C20 C 0.1821(3) 0.40055(14) 0.78218(19)
H7 H 0.1380 0.3543 0.7935
C21 C 0.3263(3) 0.41150(16) 0.81214(18)
H8 H 0.3811 0.3723 0.8433
C22 C 0.3911(3) 0.47962(15) 0.79679(18)
H9 H 0.4893 0.4871 0.8185
C23 C 0.3115(2) 0.53698(14) 0.74931(16)
C24 C 0.2322(2) 0.60962(11) 0.53107(14)
C25 C 0.2151(3) 0.55118(15) 0.46663(18)
C26 C 0.3239(3) 0.53430(17) 0.41272(19)
H10 H 0.3112 0.4947 0.3691
C27 C 0.4499(4) 0.5754(2) 0.4231(2)
C28 C 0.4682(3) 0.63252(19) 0.4865(3)
C29 C 0.3595(3) 0.65065(13) 0.5409(2)
H11 H 0.3730 0.6906 0.5841
C30 C -0.0917(2) 0.67433(13) 0.47269(16)
H12 H -0.1416 0.6268 0.4785
H13 H -0.0332 0.6708 0.4221
H14 H -0.1618 0.7147 0.4596
H15 H -0.065(2) 0.5652(11) 0.8055(14)
H16 H 0.183(3) 0.8972(13) 0.4197(18)
H17 H -0.304(3) 0.7171(13) 0.6974(19)
H18 H -0.575(3) 0.7167(13) 0.8996(19)
H19 H 0.006(3) 0.4472(14) 0.7137(17)
H20 H 0.353(2) 0.5822(12) 0.7372(14)
H21 H 0.134(3) 0.5224(14) 0.4620(19)
H22 H 0.520(3) 0.5653(15) 0.385(2)
H23 H 0.556(4) 0.6604(16) 0.498(2)
loop_
_geom_bond_atom_site_label_1
_geom_bond_atom_site_label_2
_geom_bond_site_symmetry_1
_geom_bond_site_symmetry_2
Cl1 C11 1_555 1_555
O1 C2 1_555 1_555
C1 C2 1_555 1_555
C2 C3 1_555 1_555
C3 C4 1_555 1_555
C4 C5 1_555 1_555
C5 O1 1_555 1_555
C6 C5 1_555 1_555
C7 C6 1_555 1_555
H1 C7 1_555 1_555
C8 C7 1_555 1_555
C9 C8 1_555 1_555
H2 C9 1_555 1_555
C10 C9 1_555 1_555
H3 C10 1_555 1_555
C11 C6 1_555 1_555
C12 C1 1_555 1_555
C13 C12 1_555 1_555
C14 C13 1_555 1_555
H4 C14 1_555 1_555
C15 C14 1_555 1_555
C16 C15 1_555 1_555
H5 C16 1_555 1_555
C17 C12 1_555 1_555
H6 C17 1_555 1_555
C18 C3 1_555 1_555
C19 C18 1_555 1_555
C20 C19 1_555 1_555
H7 C20 1_555 1_555
C21 C20 1_555 1_555
H8 C21 1_555 1_555
C22 C21 1_555 1_555
H9 C22 1_555 1_555
C23 C18 1_555 1_555
C24 C4 1_555 1_555
C25 C24 1_555 1_555
C26 C25 1_555 1_555
H10 C26 1_555 1_555
C27 C26 1_555 1_555
C28 C27 1_555 1_555
C29 C24 1_555 1_555
H11 C29 1_555 1_555
C30 C5 1_555 1_555
H12 C30 1_555 1_555
H13 C30 1_555 1_555
H14 C30 1_555 1_555
H15 C1 1_555 1_555
H16 C8 1_555 1_555
H17 C13 1_555 1_555
H18 C15 1_555 1_555
H19 C19 1_555 1_555
H20 C23 1_555 1_555
H21 C25 1_555 1_555
H22 C27 1_555 1_555
H23 C28 1_555 1_555
C10 C11 1_555 1_555
C16 C17 1_555 1_555
C22 C23 1_555 1_555
C28 C29 1_555 1_555

#END
