
#######################################################################
#
#                 Cambridge Crystallographic Data Centre
#                                CCDC 
#
#######################################################################
#
# If this CIF has been generated from an entry in the Cambridge 
# Structural Database, then it will include bibliographic, chemical, 
# crystal, experimental, refinement or atomic coordinate data resulting 
# from the CCDC's data processing and validation procedures.
#
#######################################################################

data_ECAPUW
_chemical_name_common            
4-{2-[4-(1,3-benzothiazol-2-yl)phenyl]ethenyl}-N,N-diphenylaniline
_chemical_formula_moiety         'C33 H24 N2 S1'
_chemical_name_systematic        
(E)-4-(4-(benzo[d]thiazol-2-yl)styryl)-N,N-diphenylaniline
_symmetry_cell_setting           triclinic
_symmetry_space_group_name_H-M   'P -1'
_symmetry_Int_Tables_number      2
_space_group_name_Hall           '-P 1'
loop_
_symmetry_equiv_pos_site_id
_symmetry_equiv_pos_as_xyz
1 x,y,z
2 -x,-y,-z
_cell_length_a                   10.1930(6)
_cell_length_b                   10.5329(6)
_cell_length_c                   26.0752(18)
_cell_angle_alpha                85.312(4)
_cell_angle_beta                 82.900(4)
_cell_angle_gamma                64.441(4)
_cell_volume                     2504.9
_exptl_crystal_colour            colorless
_exptl_crystal_description       block
_cell_formula_units_Z            4
_exptl_crystal_preparation       Luminescent
loop_
_atom_site_label
_atom_site_type_symbol
_atom_site_fract_x
_atom_site_fract_y
_atom_site_fract_z
S1 S 0.93914(13) 0.70803(12) 0.37193(4)
N1 N 0.7576(4) 0.9733(4) 0.39781(11)
C1 C 0.8691(6) 1.0846(6) 0.2691(2)
H1 H 0.8511 1.1665 0.2490
N2 N 0.4903(3) 0.4652(3) 0.85392(11)
C2 C 0.1520(5) 0.7696(4) 0.94675(18)
H2 H 0.0777 0.8370 0.9674
C3 C 0.9660(6) 0.9576(7) 0.24925(17)
H3 H 1.0127 0.9551 0.2161
C4 C 0.7509(5) 0.0903(4) 0.93029(16)
H4 H 0.8081 0.0085 0.9481
C5 C 0.7989(5) 1.0938(5) 0.31723(19)
H5 H 0.7336 1.1811 0.3299
C6 C 0.9953(5) 0.8337(5) 0.27750(17)
H6 H 1.0607 0.7474 0.2640
C7 C 0.1375(4) 0.7626(4) 0.89578(19)
H7 H 0.0525 0.8254 0.8818
C8 C 0.2769(5) 0.6766(4) 0.96698(16)
H8 H 0.2873 0.6798 1.0017
C9 C 0.6016(5) 0.1415(4) 0.93657(16)
H9 H 0.5578 0.0941 0.9588
C10 C 0.5512(4) 0.6545(4) 0.73340(15)
H10 H 0.5383 0.7451 0.7226
C11 C 0.5800(4) 0.3353(3) 0.87847(13)
C12 C 0.6513(4) 0.5728(4) 0.64284(14)
H11 H 0.6943 0.4947 0.6220
C13 C 0.9226(4) 0.8425(4) 0.32745(15)
C14 C 0.6434(4) 0.8622(4) 0.55111(15)
H12 H 0.5876 0.9334 0.5741
C15 C 0.2477(4) 0.6632(4) 0.86460(15)
H13 H 0.2362 0.6594 0.8300
C16 C 0.6851(4) 0.8977(4) 0.50227(14)
H14 H 0.6579 0.9920 0.4926
C17 C 0.5152(4) 0.2626(4) 0.91021(15)
H15 H 0.4142 0.2949 0.9138
C18 C 0.7655(4) 0.6191(4) 0.53154(15)
H16 H 0.7933 0.5249 0.5414
C19 C 0.5292(4) 0.4941(4) 0.80181(13)
C20 C 0.8152(4) 0.1598(4) 0.89798(14)
H17 H 0.9166 0.1241 0.8933
C21 C 0.7684(4) 0.7932(4) 0.46665(14)
C22 C 0.6077(4) 0.5474(4) 0.69753(14)
C23 C 0.8068(4) 0.6536(4) 0.48219(15)
H18 H 0.8609 0.5827 0.4590
C24 C 0.3870(4) 0.5784(4) 0.93634(14)
H19 H 0.4716 0.5163 0.9507
C25 C 0.6355(4) 0.6936(4) 0.62083(15)
H20 H 0.5885 0.7711 0.6418
C26 C 0.6818(4) 0.7238(4) 0.56735(13)
C27 C 0.3755(4) 0.5692(3) 0.88490(13)
C28 C 0.6246(4) 0.4151(4) 0.71550(14)
H21 H 0.6639 0.3417 0.6926
C29 C 0.8118(4) 0.8345(4) 0.41500(14)
C30 C 0.8248(4) 0.9730(4) 0.34733(15)
C31 C 0.5140(4) 0.6277(4) 0.78467(14)
H22 H 0.4785 0.7002 0.8080
C32 C 0.5854(4) 0.3878(4) 0.76617(14)
H23 H 0.5966 0.2975 0.7766
C33 C 0.7310(4) 0.2833(4) 0.87194(13)
H24 H 0.7756 0.3309 0.8502
N3 N 1.0011(3) 0.5312(3) 0.14933(11)
C34 C 0.4646(11) 0.0623(10) 0.7365(3)
H25 H 0.3850 0.0668 0.7593
C35 C 0.5979(13) -0.0220(10) 0.7494(3)
H26 H 0.6091 -0.0735 0.7806
C36 C 0.8928(7) 0.3558(7) 0.3827(4)
H27 H 0.9905 0.3326 0.3717
C37 C 1.3696(6) 0.2075(7) 0.0776(3)
H28 H 1.4529 0.1357 0.0622
C38 C 0.7192(7) -0.0333(6) 0.7169(3)
H29 H 0.8132 -0.0917 0.7252
C39 C 0.8023(7) 0.4124(6) 0.3651(3)
H30 H 0.7043 0.4386 0.3767
C40 C 0.7631(5) 0.9075(7) 0.0698(3)
H31 H 0.7140 0.9916 0.0517
C41 C 0.6646(8) 0.3463(6) 0.4588(2)
H32 H 0.5923 0.4007 0.4376
C42 C 0.8087(10) 0.3131(7) 0.4417(2)
C43 C 1.3256(6) 0.3432(7) 0.0582(2)
H33 H 1.3779 0.3624 0.0292
C44 C 0.4386(6) 0.1394(6) 0.6935(3)
H34 H 0.3432 0.1969 0.6864
C45 C 0.9139(8) 0.2311(7) 0.4739(2)
H35 H 1.0118 0.2067 0.4629
C46 C 0.8869(7) 0.4481(5) 0.30463(16)
C47 C 1.2925(6) 0.1772(6) 0.1191(2)
H36 H 1.3230 0.0850 0.1321
C48 C 1.0284(6) 0.4281(4) 0.28733(18)
H37 H 1.0999 0.3921 0.3102
C49 C 0.6255(6) 0.3009(5) 0.50659(18)
H38 H 0.5275 0.3251 0.5174
C50 C 1.2043(5) 0.4511(5) 0.08137(18)
H39 H 1.1760 0.5431 0.0685
C51 C 0.8172(6) 0.7828(7) 0.0453(2)
H40 H 0.8039 0.7826 0.0107
C52 C 0.7811(5) 0.9089(5) 0.1204(2)
H41 H 0.7416 0.9938 0.1373
C53 C 0.8771(6) 0.1856(5) 0.52102(18)
H42 H 0.9498 0.1309 0.5421
C54 C 0.7814(5) 0.5083(4) 0.27039(17)
H43 H 0.6846 0.5280 0.2817
C55 C 1.1679(5) 0.2841(4) 0.14212(16)
H44 H 1.1133 0.2628 0.1699
C56 C 0.9606(4) 0.5113(4) 0.20270(14)
C57 C 1.0650(5) 0.4598(4) 0.23750(16)
H45 H 1.1604 0.4467 0.2269
C58 C 0.6944(5) 0.0482(4) 0.67000(17)
C59 C 0.8914(4) 0.6564(5) 0.07136(16)
H46 H 0.9242 0.5716 0.0548
C60 C 0.7306(5) 0.2199(4) 0.53844(15)
C61 C 0.8582(4) 0.7838(4) 0.14718(16)
H47 H 0.8706 0.7854 0.1818
C62 C 0.9166(4) 0.6575(4) 0.12252(15)
C63 C 0.5534(5) 0.1338(4) 0.65965(16)
C64 C 1.1246(4) 0.4222(4) 0.12405(15)
C65 C 0.6906(5) 0.1688(4) 0.58874(15)
C66 C 0.8176(4) 0.5394(4) 0.22004(15)
H48 H 0.7453 0.5795 0.1975
N4 N 0.7674(16) 0.0913(14) 0.6180(5)
S2 S 0.4892(5) 0.2428(5) 0.61185(17)
loop_
_geom_bond_atom_site_label_1
_geom_bond_atom_site_label_2
_geom_bond_site_symmetry_1
_geom_bond_site_symmetry_2
S1 C13 1_555 1_555
N1 C29 1_555 1_555
C1 H1 1_555 1_555
N2 C11 1_555 1_555
C2 H2 1_555 1_555
C3 C1 1_555 1_555
H3 C3 1_555 1_555
C4 H4 1_555 1_555
C5 C1 1_555 1_555
H5 C5 1_555 1_555
C6 C3 1_555 1_555
H6 C6 1_555 1_555
C7 C2 1_555 1_555
H7 C7 1_555 1_555
C8 C2 1_555 1_555
H8 C8 1_555 1_555
C9 C4 1_555 1_555
H9 C9 1_555 1_555
C10 H10 1_555 1_555
C11 C17 1_555 1_555
C12 H11 1_555 1_555
C13 C6 1_555 1_555
C14 H12 1_555 1_555
C15 C7 1_555 1_555
H13 C15 1_555 1_555
C16 C14 1_555 1_555
H14 C16 1_555 1_555
C17 C9 1_555 1_555
H15 C17 1_555 1_555
C18 H16 1_555 1_555
C19 N2 1_555 1_555
C20 C4 1_555 1_555
H17 C20 1_555 1_555
C21 C16 1_555 1_555
C22 C10 1_555 1_555
C23 C18 1_555 1_555
H18 C23 1_555 1_555
C24 C8 1_555 1_555
H19 C24 1_555 1_555
C25 C12 1_555 1_555
H20 C25 1_555 1_555
C26 C14 1_555 1_555
C27 N2 1_555 1_555
C28 C22 1_555 1_555
H21 C28 1_555 1_555
C29 S1 1_555 1_555
C30 N1 1_555 1_555
C31 C10 1_555 1_555
H22 C31 1_555 1_555
C32 C19 1_555 1_555
H23 C32 1_555 1_555
C33 C11 1_555 1_555
H24 C33 1_555 1_555
N3 C56 1_555 1_555
C34 H25 1_555 1_555
C35 C34 1_555 1_555
H26 C35 1_555 1_555
C36 H27 1_555 1_555
C37 H28 1_555 1_555
C38 C35 1_555 1_555
H29 C38 1_555 1_555
C39 C36 1_555 1_555
H30 C39 1_555 1_555
C40 H31 1_555 1_555
C41 H32 1_555 1_555
C42 C36 1_555 1_555
C43 C37 1_555 1_555
H33 C43 1_555 1_555
C44 C34 1_555 1_555
H34 C44 1_555 1_555
C45 C42 1_555 1_555
H35 C45 1_555 1_555
C46 C39 1_555 1_555
C47 C37 1_555 1_555
H36 C47 1_555 1_555
C48 C46 1_555 1_555
H37 C48 1_555 1_555
C49 C41 1_555 1_555
H38 C49 1_555 1_555
C50 C43 1_555 1_555
H39 C50 1_555 1_555
C51 C40 1_555 1_555
H40 C51 1_555 1_555
C52 C40 1_555 1_555
H41 C52 1_555 1_555
C53 C45 1_555 1_555
H42 C53 1_555 1_555
C54 C46 1_555 1_555
H43 C54 1_555 1_555
C55 C47 1_555 1_555
H44 C55 1_555 1_555
C56 C57 1_555 1_555
C57 C48 1_555 1_555
H45 C57 1_555 1_555
C58 C38 1_555 1_555
C59 C51 1_555 1_555
H46 C59 1_555 1_555
C60 C49 1_555 1_555
C61 C52 1_555 1_555
H47 C61 1_555 1_555
C62 N3 1_555 1_555
C63 C44 1_555 1_555
C64 N3 1_555 1_555
C65 C60 1_555 1_555
C66 C54 1_555 1_555
H48 C66 1_555 1_555
N4 C58 1_555 1_555
S2 C63 1_555 1_555
C5 C30 1_555 1_555
C12 C22 1_555 1_555
C13 C30 1_555 1_555
C15 C27 1_555 1_555
C18 C26 1_555 1_555
C19 C31 1_555 1_555
C20 C33 1_555 1_555
C21 C23 1_555 1_555
C21 C29 1_555 1_555
C24 C27 1_555 1_555
C25 C26 1_555 1_555
C28 C32 1_555 1_555
C41 C42 1_555 1_555
C50 C64 1_555 1_555
C53 C60 1_555 1_555
C55 C64 1_555 1_555
C56 C66 1_555 1_555
C58 C63 1_555 1_555
C59 C62 1_555 1_555
C61 C62 1_555 1_555
C65 N4 1_555 1_555
C65 S2 1_555 1_555

#END
