
#######################################################################
#
#                 Cambridge Crystallographic Data Centre
#                                CCDC 
#
#######################################################################
#
# If this CIF has been generated from an entry in the Cambridge 
# Structural Database, then it will include bibliographic, chemical, 
# crystal, experimental, refinement or atomic coordinate data resulting 
# from the CCDC's data processing and validation procedures.
#
#######################################################################

data_ECAROP
_chemical_formula_moiety         'C18 H26 O2'
_chemical_name_systematic        
(1S,2S,5R,1'R,2'S)-1-(2'-Phenylepoxyethyl)-2-isopropyl-5-methylcyclohexan-1-ol
_symmetry_cell_setting           monoclinic
_symmetry_space_group_name_H-M   'P 21'
_symmetry_Int_Tables_number      4
_space_group_name_Hall           'P 2yb'
loop_
_symmetry_equiv_pos_site_id
_symmetry_equiv_pos_as_xyz
1 x,y,z
2 -x,1/2+y,-z
_cell_length_a                   11.7748(6)
_cell_length_b                   5.8362(4)
_cell_length_c                   12.9741(9)
_cell_angle_alpha                90
_cell_angle_beta                 113.262(2)
_cell_angle_gamma                90
_cell_volume                     819.103
_exptl_crystal_colour            colorless
_exptl_crystal_description       prism
_chemical_melting_point          '109-112 deg.C'
_cell_formula_units_Z            2
loop_
_atom_site_label
_atom_site_type_symbol
_atom_site_fract_x
_atom_site_fract_y
_atom_site_fract_z
O1 O 0.4366(2) 0.35687 1.1459(2)
O2 O 0.4219(2) 0.0754(4) 0.9613(2)
C1 C 0.3970(3) 0.1225(6) 1.1430(3)
C2 C 0.2972(3) 0.1167(6) 1.1930(3)
C3 C 0.3553(3) 0.1791(6) 1.3167(3)
C4 C 0.4612(3) 0.0211(7) 1.3828(3)
C5 C 0.5634(3) 0.0217(6) 1.3370(3)
C6 C 0.5067(3) -0.0297(6) 1.2123(3)
C7 C 0.3443(3) 0.0358(6) 1.0241(3)
C8 C 0.3005(3) 0.1810(6) 0.9240(3)
C9 C 0.2053(3) 0.1052(6) 0.8147(3)
C10 C 0.2132(3) -0.1022(6) 0.7662(3)
C11 C 0.1225(4) -0.1684(6) 0.6656(3)
C12 C 0.0201(3) -0.0307(8) 0.6131(3)
C13 C 0.0107(3) 0.1737(7) 0.6600(3)
C14 C 0.1025(3) 0.2435(7) 0.7604(3)
C15 C 0.1774(3) 0.2477(6) 1.1258(3)
C16 C 0.0706(3) 0.1532(6) 1.1527(4)
C17 C 0.1854(3) 0.5048(7) 1.1428(3)
C18 C 0.6671(3) -0.1453(8) 1.3994(3)
H1 H 0.486(5) 0.335(9) 1.100(4)
H2 H 0.274 -0.040 1.191
H3 H 0.598 0.171 1.347
H4 H 0.307 -0.112 1.014
H5 H 0.301 0.341 0.938
H6 H 0.282 -0.200 0.803
H7 H 0.130 -0.309 0.632
H8 H -0.043 -0.078 0.545
H9 H -0.059 0.269 0.623
H10 H 0.095 0.386 0.792
H11 H 0.158 0.220 1.049
H12 H 0.386 0.332 1.324
H13 H 0.294 0.169 1.347
H14 H 0.496 0.070 1.459
H15 H 0.430 -0.130 1.379
H16 H 0.479 -0.184 1.203
H17 H 0.569 -0.011 1.184
H18 H 0.057 -0.003 1.131
H19 H 0.091 0.165 1.231
H20 H -0.002 0.239 1.113
H21 H 0.112 0.574 1.092
H22 H 0.195 0.539 1.217
H23 H 0.254 0.562 1.130
H24 H 0.730 -0.135 1.370
H25 H 0.701 -0.108 1.477
H26 H 0.635 -0.297 1.390
loop_
_geom_bond_atom_site_label_1
_geom_bond_atom_site_label_2
_geom_bond_site_symmetry_1
_geom_bond_site_symmetry_2
O1 C1 1_555 1_555
O2 C7 1_555 1_555
C1 C2 1_555 1_555
C2 C3 1_555 1_555
C3 C4 1_555 1_555
C4 C5 1_555 1_555
C5 C6 1_555 1_555
C6 C1 1_555 1_555
C7 C1 1_555 1_555
C8 O2 1_555 1_555
C9 C8 1_555 1_555
C10 C9 1_555 1_555
C11 C10 1_555 1_555
C12 C11 1_555 1_555
C13 C12 1_555 1_555
C14 C9 1_555 1_555
C15 C2 1_555 1_555
C16 C15 1_555 1_555
C17 C15 1_555 1_555
C18 C5 1_555 1_555
H1 O1 1_555 1_555
H2 C2 1_555 1_555
H3 C5 1_555 1_555
H4 C7 1_555 1_555
H5 C8 1_555 1_555
H6 C10 1_555 1_555
H7 C11 1_555 1_555
H8 C12 1_555 1_555
H9 C13 1_555 1_555
H10 C14 1_555 1_555
H11 C15 1_555 1_555
H12 C3 1_555 1_555
H13 C3 1_555 1_555
H14 C4 1_555 1_555
H15 C4 1_555 1_555
H16 C6 1_555 1_555
H17 C6 1_555 1_555
H18 C16 1_555 1_555
H19 C16 1_555 1_555
H20 C16 1_555 1_555
H21 C17 1_555 1_555
H22 C17 1_555 1_555
H23 C17 1_555 1_555
H24 C18 1_555 1_555
H25 C18 1_555 1_555
H26 C18 1_555 1_555
C7 C8 1_555 1_555
C13 C14 1_555 1_555

#END
