
#######################################################################
#
#                 Cambridge Crystallographic Data Centre
#                                CCDC 
#
#######################################################################
#
# If this CIF has been generated from an entry in the Cambridge 
# Structural Database, then it will include bibliographic, chemical, 
# crystal, experimental, refinement or atomic coordinate data resulting 
# from the CCDC's data processing and validation procedures.
#
#######################################################################

data_ECAXOY
_chemical_formula_moiety         'C26 H8 F14 N2 O4 S2'
_chemical_name_systematic        
2,8-bis(2,2,3,3,4,4,4-heptafluorobutyl)[1]benzothieno[4,5,6,7-lmn]thieno[3,2-f][3,8]phenanthroline-1,3,7,9(2H,8H)-tetrone
_symmetry_cell_setting           monoclinic
_symmetry_space_group_name_H-M   'P 21/c'
_symmetry_Int_Tables_number      14
_space_group_name_Hall           '-P 2ybc'
loop_
_symmetry_equiv_pos_site_id
_symmetry_equiv_pos_as_xyz
1 x,y,z
2 -x,1/2+y,1/2-z
3 -x,-y,-z
4 x,1/2-y,1/2+z
_cell_length_a                   28.23(2)
_cell_length_b                   11.002(9)
_cell_length_c                   8.319(7)
_cell_angle_alpha                90
_cell_angle_beta                 93.130(11)
_cell_angle_gamma                90
_cell_volume                     2579.91
_exptl_crystal_colour            red
_exptl_crystal_description       rod
_cell_formula_units_Z            4
loop_
_atom_site_label
_atom_site_type_symbol
_atom_site_fract_x
_atom_site_fract_y
_atom_site_fract_z
S1 S 0.2807(3) 0.3410(5) 0.5370(14)
S2 S 0.2159(3) 1.0897(4) 0.3964(13)
F1 F 0.0640(3) 0.5543(6) 0.3218(11)
F2 F 0.0964(3) 0.3917(8) 0.4241(9)
F3 F 0.0359(2) 0.4020(7) 0.0477(8)
F4 F 0.0568(2) 0.2510(7) 0.2067(10)
F5 F -0.0027(3) 0.3483(9) 0.4328(10)
F6 F -0.0355(3) 0.2935(9) 0.2041(14)
F7 F -0.0264(3) 0.4807(7) 0.2603(12)
F8 F 0.4324(3) 0.9114(7) 0.6289(11)
F9 F 0.3966(2) 1.0784(7) 0.5594(9)
F10 F 0.4245(3) 1.1904(8) 0.8277(14)
F11 F 0.4551(3) 1.0253(10) 0.9313(10)
F12 F 0.5190(3) 1.0165(8) 0.7010(13)
F13 F 0.4878(3) 1.1712(11) 0.5838(13)
F14 F 0.5192(3) 1.1827(9) 0.8256(12)
O1 O 0.1973(3) 0.3635(6) 0.3517(11)
O2 O 0.1293(3) 0.7061(6) 0.1368(10)
O3 O 0.2947(3) 1.0683(6) 0.6037(10)
O4 O 0.3688(3) 0.7244(7) 0.7912(10)
N1 N 0.1605(3) 0.5358(8) 0.2590(11)
N2 N 0.3342(3) 0.8956(8) 0.6846(10)
C1 C 0.1969(4) 0.4757(9) 0.3478(14)
C2 C 0.1592(4) 0.6640(9) 0.2316(12)
C3 C 0.1943(3) 0.7362(9) 0.3270(12)
C4 C 0.1917(3) 0.8633(9) 0.3239(12)
C5 C 0.1545(8) 0.9440(17) 0.243(4)
H1 H 0.1269 0.9162 0.1889
C6 C 0.1669(6) 1.0655(19) 0.260(2)
H2 H 0.1509 1.1280 0.2053
C7 C 0.2256(4) 0.9341(7) 0.4156(12)
C8 C 0.2620(3) 0.8799(9) 0.5055(12)
C9 C 0.2976(4) 0.9567(9) 0.5985(12)
C10 C 0.3383(3) 0.7697(9) 0.6990(13)
C11 C 0.3028(3) 0.6955(9) 0.6052(12)
C12 C 0.3050(3) 0.5683(8) 0.6093(11)
C13 C 0.3408(10) 0.4883(17) 0.697(5)
H3 H 0.3664 0.5164 0.7619
C14 C 0.3304(7) 0.367(2) 0.669(2)
H4 H 0.3483 0.3040 0.7161
C15 C 0.2715(4) 0.4968(7) 0.5206(13)
C16 C 0.2345(4) 0.5503(9) 0.4298(12)
C17 C 0.2312(3) 0.6794(8) 0.4206(12)
C18 C 0.2657(3) 0.7527(9) 0.5114(11)
C19 C 0.1236(3) 0.4621(9) 0.1767(12)
H5 H 0.1363 0.3828 0.1519
H6 H 0.1131 0.5009 0.0763
C20 C 0.0817(4) 0.4471(10) 0.2819(14)
C21 C 0.0417(4) 0.3670(10) 0.2028(13)
C22 C -0.0065(4) 0.3728(11) 0.2778(15)
C23 C 0.3675(3) 0.9691(10) 0.7813(13)
H7 H 0.3789 0.9228 0.8749
H8 H 0.3514 1.0407 0.8189
C24 C 0.4099(4) 1.0086(9) 0.6864(13)
C25 C 0.4462(4) 1.0851(11) 0.7929(15)
C26 C 0.4938(5) 1.1141(12) 0.7239(18)
S3? S 0.3499(5) 0.4883(11) 0.716(2)
C27? C 0.280(2) 0.3626(15) 0.545(12)
H9? H 0.2610 0.2986 0.5076
C28? C 0.3226(17) 0.356(3) 0.637(6)
H10? H 0.3369 0.2808 0.6564
S4? S 0.1484(5) 0.9439(11) 0.2085(19)
C29? C 0.1747(16) 1.075(3) 0.295(5)
H11? H 0.1598 1.1498 0.2811
C30? C 0.218(2) 1.0678(16) 0.385(10)
H12? H 0.2374 1.1318 0.4180
loop_
_geom_bond_atom_site_label_1
_geom_bond_atom_site_label_2
_geom_bond_site_symmetry_1
_geom_bond_site_symmetry_2
S1 C14 1_555 1_555
S2 C6 1_555 1_555
F1 C20 1_555 1_555
F2 C20 1_555 1_555
F3 C21 1_555 1_555
F4 C21 1_555 1_555
F5 C22 1_555 1_555
F6 C22 1_555 1_555
F7 C22 1_555 1_555
F8 C24 1_555 1_555
F9 C24 1_555 1_555
F10 C25 1_555 1_555
F11 C25 1_555 1_555
F12 C26 1_555 1_555
F13 C26 1_555 1_555
F14 C26 1_555 1_555
O1 C1 1_555 1_555
O2 C2 1_555 1_555
O3 C9 1_555 1_555
O4 C10 1_555 1_555
N1 C1 1_555 1_555
N2 C9 1_555 1_555
C1 C16 1_555 1_555
C2 N1 1_555 1_555
C3 C2 1_555 1_555
C4 C3 1_555 1_555
C5 C4 1_555 1_555
H1 C5 1_555 1_555
C6 C5 1_555 1_555
H2 C6 1_555 1_555
C7 S2 1_555 1_555
C8 C7 1_555 1_555
C9 C8 1_555 1_555
C10 N2 1_555 1_555
C11 C10 1_555 1_555
C12 C11 1_555 1_555
C13 C12 1_555 1_555
H3 C13 1_555 1_555
C14 C13 1_555 1_555
H4 C14 1_555 1_555
C15 S1 1_555 1_555
C16 C15 1_555 1_555
C17 C3 1_555 1_555
C18 C8 1_555 1_555
C19 N1 1_555 1_555
H5 C19 1_555 1_555
H6 C19 1_555 1_555
C20 C19 1_555 1_555
C21 C20 1_555 1_555
C22 C21 1_555 1_555
C23 N2 1_555 1_555
H7 C23 1_555 1_555
H8 C23 1_555 1_555
C24 C23 1_555 1_555
C25 C24 1_555 1_555
C26 C25 1_555 1_555
C4 C7 1_555 1_555
C11 C18 1_555 1_555
C12 C15 1_555 1_555
C16 C17 1_555 1_555
C17 C18 1_555 1_555

#END
