
#######################################################################
#
#                 Cambridge Crystallographic Data Centre
#                                CCDC 
#
#######################################################################
#
# If this CIF has been generated from an entry in the Cambridge 
# Structural Database, then it will include bibliographic, chemical, 
# crystal, experimental, refinement or atomic coordinate data resulting 
# from the CCDC's data processing and validation procedures.
#
#######################################################################

data_ECAXAJ
_chemical_formula_moiety         'C30 H28 F2 N2'
_chemical_name_systematic        
9-(6-(2,6-Difluoro-3-(4-methylpyridin-2-yl)phenyl)hexyl)-9H-carbazole
_symmetry_cell_setting           orthorhombic
_symmetry_space_group_name_H-M   'P 21 21 21'
_symmetry_Int_Tables_number      19
_space_group_name_Hall           'P 2ac 2ab'
loop_
_symmetry_equiv_pos_site_id
_symmetry_equiv_pos_as_xyz
1 x,y,z
2 1/2-x,-y,1/2+z
3 -x,1/2+y,1/2-z
4 1/2+x,1/2-y,-z
_cell_length_a                   5.0573(13)
_cell_length_b                   14.471(4)
_cell_length_c                   31.891(9)
_cell_angle_alpha                90
_cell_angle_beta                 90
_cell_angle_gamma                90
_cell_volume                     2333.92
_exptl_crystal_colour            colorless
_exptl_crystal_description       block
_cell_formula_units_Z            4
_chemical_properties_physical    air-sensitive
loop_
_atom_site_label
_atom_site_type_symbol
_atom_site_fract_x
_atom_site_fract_y
_atom_site_fract_z
F1 F 0.0988(2) 0.14954(7) 0.10191(3)
F2 F -0.3048(2) -0.09778(6) 0.03312(3)
N1 N -0.7950(3) 0.09302(10) -0.03238(5)
N2 N -0.0485(3) -0.41480(9) 0.21769(4)
C1 C -1.0154(5) -0.18865(14) -0.05598(7)
H1 H -1.1553 -0.1912 -0.0763
H2 H -1.0753 -0.2153 -0.0301
H3 H -0.8657 -0.2227 -0.0662
C2 C -0.9371(4) -0.08953(12) -0.04875(5)
C3 C -1.0659(4) -0.01771(13) -0.06832(5)
H4 H -1.2025 -0.0288 -0.0872
C4 C -0.9866(4) 0.07147(13) -0.05913(6)
H5 H -1.0735 0.1197 -0.0726
C5 C -0.6684(3) 0.02346(11) -0.01274(5)
C6 C -0.7354(4) -0.06789(12) -0.02073(5)
H6 H -0.6446 -0.1151 -0.0072
C7 C -0.4627(3) 0.05365(11) 0.01779(5)
C8 C -0.4328(4) 0.14784(11) 0.02670(5)
H7 H -0.5430 0.1901 0.0134
C9 C -0.2453(4) 0.18007(11) 0.05460(5)
H8 H -0.2279 0.2430 0.0598
C10 C -0.0855(4) 0.11750(11) 0.07449(5)
C11 C -0.0994(3) 0.02328(11) 0.06799(5)
C12 C -0.2917(3) -0.00471(10) 0.03963(5)
C13 C 0.0814(4) -0.04452(11) 0.08945(5)
H9 H 0.2404 -0.0124 0.0982
H10 H 0.1329 -0.0916 0.0694
C14 C -0.0408(4) -0.09181(11) 0.12774(5)
H11 H -0.0890 -0.0455 0.1484
H12 H -0.2005 -0.1241 0.1194
C15 C 0.1519(3) -0.16002(11) 0.14722(5)
H13 H 0.3075 -0.1264 0.1564
H14 H 0.2077 -0.2033 0.1257
C16 C 0.0436(4) -0.21492(11) 0.18451(5)
H15 H 0.1874 -0.2487 0.1975
H16 H -0.0267 -0.1722 0.2051
C17 C -0.1717(3) -0.28245(12) 0.17193(6)
H17 H -0.1103 -0.3180 0.1480
H18 H -0.3257 -0.2476 0.1630
C18 C -0.2552(3) -0.34949(12) 0.20655(6)
H19 H -0.3042 -0.3144 0.2313
H20 H -0.4100 -0.3834 0.1973
C19 C 0.1192(3) -0.40991(11) 0.25209(5)
C20 C 0.1342(4) -0.34332(12) 0.28358(5)
H21 H 0.0184 -0.2934 0.2842
C21 C 0.3265(4) -0.35417(13) 0.31373(5)
H22 H 0.3384 -0.3110 0.3353
C22 C 0.5044(4) -0.42811(12) 0.31297(5)
H23 H 0.6342 -0.4328 0.3335
C23 C 0.4879(3) -0.49415(12) 0.28185(5)
H24 H 0.6067 -0.5432 0.2812
C24 C 0.2912(3) -0.48656(11) 0.25141(5)
C25 C 0.2224(3) -0.54049(11) 0.21501(5)
C26 C 0.3165(4) -0.62282(11) 0.19778(5)
H25 H 0.4552 -0.6544 0.2105
C27 C 0.2014(4) -0.65682(12) 0.16174(6)
H26 H 0.2638 -0.7115 0.1500
C28 C -0.0073(4) -0.61005(12) 0.14267(5)
H27 H -0.0831 -0.6347 0.1186
C29 C -0.1048(4) -0.52798(12) 0.15866(5)
H28 H -0.2428 -0.4968 0.1456
C30 C 0.0119(3) -0.49376(11) 0.19512(5)
loop_
_geom_bond_atom_site_label_1
_geom_bond_atom_site_label_2
_geom_bond_site_symmetry_1
_geom_bond_site_symmetry_2
F1 C10 1_555 1_555
F2 C12 1_555 1_555
N1 C4 1_555 1_555
N2 C18 1_555 1_555
C1 H1 1_555 1_555
H2 C1 1_555 1_555
H3 C1 1_555 1_555
C2 C1 1_555 1_555
C3 C2 1_555 1_555
H4 C3 1_555 1_555
C4 C3 1_555 1_555
H5 C4 1_555 1_555
C5 N1 1_555 1_555
C6 C2 1_555 1_555
H6 C6 1_555 1_555
C7 C5 1_555 1_555
C8 C7 1_555 1_555
H7 C8 1_555 1_555
C9 C8 1_555 1_555
H8 C9 1_555 1_555
C10 C9 1_555 1_555
C11 C10 1_555 1_555
C12 C7 1_555 1_555
C13 C11 1_555 1_555
H9 C13 1_555 1_555
H10 C13 1_555 1_555
C14 C13 1_555 1_555
H11 C14 1_555 1_555
H12 C14 1_555 1_555
C15 C14 1_555 1_555
H13 C15 1_555 1_555
H14 C15 1_555 1_555
C16 C15 1_555 1_555
H15 C16 1_555 1_555
H16 C16 1_555 1_555
C17 C16 1_555 1_555
H17 C17 1_555 1_555
H18 C17 1_555 1_555
C18 C17 1_555 1_555
H19 C18 1_555 1_555
H20 C18 1_555 1_555
C19 N2 1_555 1_555
C20 C19 1_555 1_555
H21 C20 1_555 1_555
C21 C20 1_555 1_555
H22 C21 1_555 1_555
C22 C21 1_555 1_555
H23 C22 1_555 1_555
C23 C22 1_555 1_555
H24 C23 1_555 1_555
C24 C19 1_555 1_555
C25 C24 1_555 1_555
C26 C25 1_555 1_555
H25 C26 1_555 1_555
C27 C26 1_555 1_555
H26 C27 1_555 1_555
C28 C27 1_555 1_555
H27 C28 1_555 1_555
C29 C28 1_555 1_555
H28 C29 1_555 1_555
C30 N2 1_555 1_555
C5 C6 1_555 1_555
C11 C12 1_555 1_555
C23 C24 1_555 1_555
C25 C30 1_555 1_555
C29 C30 1_555 1_555

#END
