
#######################################################################
#
#                 Cambridge Crystallographic Data Centre
#                                CCDC 
#
#######################################################################
#
# If this CIF has been generated from an entry in the Cambridge 
# Structural Database, then it will include bibliographic, chemical, 
# crystal, experimental, refinement or atomic coordinate data resulting 
# from the CCDC's data processing and validation procedures.
#
#######################################################################

data_ECAYUF
_chemical_formula_moiety         'C40 H24 S2'
_chemical_name_systematic        
2-(5,11-diphenyl-12-(2-thienyl)indeno[1,2-b]fluoren-6-yl)thiophene
_symmetry_cell_setting           triclinic
_symmetry_space_group_name_H-M   'P -1'
_symmetry_Int_Tables_number      2
_space_group_name_Hall           '-P 1'
loop_
_symmetry_equiv_pos_site_id
_symmetry_equiv_pos_as_xyz
1 x,y,z
2 -x,-y,-z
_cell_length_a                   7.5051(7)
_cell_length_b                   8.6296(7)
_cell_length_c                   11.6509(11)
_cell_angle_alpha                73.729(5)
_cell_angle_beta                 77.669(4)
_cell_angle_gamma                77.532(6)
_cell_volume                     697.781
_exptl_crystal_colour            'dark red'
_exptl_crystal_description       needle
_cell_formula_units_Z            1
loop_
_atom_site_label
_atom_site_type_symbol
_atom_site_fract_x
_atom_site_fract_y
_atom_site_fract_z
S1 S 0.21303(11) 0.26704(10) 0.22026(7)
C1 C 0.4330(3) 0.5929(3) 0.3868(2)
C2 C 0.3885(3) 0.4325(3) 0.4504(2)
C3 C 0.4587(3) 0.3425(3) 0.5628(2)
C4 C 0.3898(3) 0.1860(3) 0.6034(2)
C5 C 0.4042(4) 0.0533(3) 0.7040(3)
H1 H 0.4664 0.0552 0.7664
C6 C 0.3256(4) -0.0820(4) 0.7112(3)
H2 H 0.3368 -0.1734 0.7789
C7 C 0.2318(4) -0.0871(4) 0.6227(3)
H3 H 0.1810 -0.1816 0.6292
C8 C 0.2122(4) 0.0470(3) 0.5239(3)
H4 H 0.1460 0.0456 0.4633
C9 C 0.2890(3) 0.1810(3) 0.5149(2)
C10 C 0.2844(3) 0.3379(3) 0.4226(2)
C11 C 0.1717(4) 0.3790(3) 0.3263(3)
C12 C 0.0154(3) 0.5045(3) 0.3084(2)
H5 H -0.0348 0.5787 0.3584
C13 C -0.0543(4) 0.5028(4) 0.2057(3)
H6 H -0.1567 0.5796 0.1777
C14 C 0.0355(5) 0.3840(4) 0.1504(3)
H7 H 0.0034 0.3675 0.0806
C15 C 0.3659(3) 0.6827(3) 0.2708(2)
C16 C 0.4412(4) 0.6330(4) 0.1656(3)
H8 H 0.5372 0.5408 0.1674
C17 C 0.3789(4) 0.7158(5) 0.0570(3)
H9 H 0.4318 0.6803 -0.0149
C18 C 0.2393(5) 0.8502(4) 0.0543(3)
H10 H 0.1972 0.9084 -0.0198
C19 C 0.1616(4) 0.8996(4) 0.1592(3)
H11 H 0.0642 0.9907 0.1576
C20 C 0.2247(4) 0.8173(4) 0.2664(3)
H12 H 0.1711 0.8529 0.3382
S1A S 0.78697(11) 0.73296(10) 0.77974(7)
C1A C 0.5670(3) 0.4071(3) 0.6132(2)
C2A C 0.6115(3) 0.5675(3) 0.5496(2)
C3A C 0.5413(3) 0.6575(3) 0.4372(2)
C4A C 0.6102(3) 0.8140(3) 0.3966(2)
C5A C 0.5958(4) 0.9467(3) 0.2960(3)
H1A H 0.5336 0.9448 0.2336
C6A C 0.6744(4) 1.0820(4) 0.2888(3)
H2A H 0.6632 1.1734 0.2211
C7A C 0.7682(4) 1.0871(4) 0.3773(3)
H3A H 0.8190 1.1816 0.3708
C8A C 0.7878(4) 0.9530(3) 0.4761(3)
H4A H 0.8540 0.9544 0.5367
C9A C 0.7110(3) 0.8190(3) 0.4851(2)
C10A C 0.7156(3) 0.6621(3) 0.5774(2)
C11A C 0.8283(4) 0.6210(3) 0.6737(3)
C12A C 0.9846(3) 0.4955(3) 0.6916(2)
H5A H 1.0348 0.4213 0.6416
C13A C 1.0543(4) 0.4972(4) 0.7943(3)
H6A H 1.1567 0.4204 0.8223
C14A C 0.9645(5) 0.6160(4) 0.8496(3)
H7A H 0.9966 0.6325 0.9194
C15A C 0.6341(3) 0.3173(3) 0.7292(2)
C16A C 0.5588(4) 0.3670(4) 0.8344(3)
H8A H 0.4628 0.4592 0.8326
C17A C 0.6211(4) 0.2842(5) 0.9430(3)
H9A H 0.5682 0.3197 1.0149
C18A C 0.7607(5) 0.1498(4) 0.9457(3)
H10A H 0.8028 0.0916 1.0198
C19A C 0.8384(4) 0.1004(4) 0.8408(3)
H11A H 0.9358 0.0093 0.8424
C20A C 0.7753(4) 0.1827(4) 0.7336(3)
H12A H 0.8289 0.1471 0.6618
loop_
_geom_bond_atom_site_label_1
_geom_bond_atom_site_label_2
_geom_bond_site_symmetry_1
_geom_bond_site_symmetry_2
S1 C11 1_555 1_555
C1 C2 1_555 1_555
C2 C3 1_555 1_555
C3 C4 1_555 1_555
C4 C5 1_555 1_555
C5 H1 1_555 1_555
C6 C5 1_555 1_555
H2 C6 1_555 1_555
C7 C6 1_555 1_555
H3 C7 1_555 1_555
C8 C7 1_555 1_555
H4 C8 1_555 1_555
C9 C4 1_555 1_555
C10 C2 1_555 1_555
C11 C10 1_555 1_555
C12 C11 1_555 1_555
H5 C12 1_555 1_555
C13 C12 1_555 1_555
H6 C13 1_555 1_555
C14 S1 1_555 1_555
H7 C14 1_555 1_555
C15 C1 1_555 1_555
C16 C15 1_555 1_555
H8 C16 1_555 1_555
C17 C16 1_555 1_555
H9 C17 1_555 1_555
C18 C17 1_555 1_555
H10 C18 1_555 1_555
C19 C18 1_555 1_555
H11 C19 1_555 1_555
C20 C15 1_555 1_555
H12 C20 1_555 1_555
S1A C11A 1_555 1_555
C1A C3 1_555 1_555
C2A C1A 1_555 1_555
C3A C1 1_555 1_555
C4A C3A 1_555 1_555
C5A C4A 1_555 1_555
H1A C5A 1_555 1_555
C6A C5A 1_555 1_555
H2A C6A 1_555 1_555
C7A C6A 1_555 1_555
H3A C7A 1_555 1_555
C8A C7A 1_555 1_555
H4A C8A 1_555 1_555
C9A C4A 1_555 1_555
C10A C2A 1_555 1_555
C11A C10A 1_555 1_555
C12A C11A 1_555 1_555
H5A C12A 1_555 1_555
C13A C12A 1_555 1_555
H6A C13A 1_555 1_555
C14A S1A 1_555 1_555
H7A C14A 1_555 1_555
C15A C1A 1_555 1_555
C16A C15A 1_555 1_555
H8A C16A 1_555 1_555
C17A C16A 1_555 1_555
H9A C17A 1_555 1_555
C18A C17A 1_555 1_555
H10A C18A 1_555 1_555
C19A C18A 1_555 1_555
H11A C19A 1_555 1_555
C20A C15A 1_555 1_555
H12A C20A 1_555 1_555
C8 C9 1_555 1_555
C9 C10 1_555 1_555
C13 C14 1_555 1_555
C19 C20 1_555 1_555
C2A C3A 1_555 1_555
C8A C9A 1_555 1_555
C9A C10A 1_555 1_555
C13A C14A 1_555 1_555
C19A C20A 1_555 1_555

#END
