
#######################################################################
#
#                 Cambridge Crystallographic Data Centre
#                                CCDC 
#
#######################################################################
#
# If this CIF has been generated from an entry in the Cambridge 
# Structural Database, then it will include bibliographic, chemical, 
# crystal, experimental, refinement or atomic coordinate data resulting 
# from the CCDC's data processing and validation procedures.
#
#######################################################################

data_ECAZEQ
_chemical_formula_moiety         'C44 H28'
_chemical_name_systematic        5,6,11,12-tetraphenylindeno[1,2-b]fluorene
_symmetry_cell_setting           triclinic
_symmetry_space_group_name_H-M   'P -1'
_symmetry_Int_Tables_number      2
_space_group_name_Hall           '-P 1'
loop_
_symmetry_equiv_pos_site_id
_symmetry_equiv_pos_as_xyz
1 x,y,z
2 -x,-y,-z
_cell_length_a                   7.5970(4)
_cell_length_b                   8.9994(4)
_cell_length_c                   11.0344(5)
_cell_angle_alpha                78.931(2)
_cell_angle_beta                 75.805(2)
_cell_angle_gamma                83.409(2)
_cell_volume                     715.945
_exptl_crystal_colour            red
_exptl_crystal_description       needle
_cell_formula_units_Z            1
loop_
_atom_site_label
_atom_site_type_symbol
_atom_site_fract_x
_atom_site_fract_y
_atom_site_fract_z
C1 C 1.0678(2) 0.92153(17) 0.10994(13)
C2 C 0.9569(2) 0.85232(17) 0.06087(14)
C3 C 0.8875(2) 0.69970(18) 0.09980(14)
C4 C 0.9000(2) 0.58199(18) 0.19936(15)
H1 H 0.9616 0.5925 0.2622
C5 C 0.8203(2) 0.44756(18) 0.20563(15)
H2 H 0.8289 0.3659 0.2732
C6 C 0.7291(2) 0.43106(19) 0.11526(15)
H3 H 0.6779 0.3379 0.1206
C7 C 0.7121(2) 0.54942(18) 0.01721(15)
H4 H 0.6483 0.5388 -0.0444
C8 C 0.7894(2) 0.68340(18) 0.01048(14)
C9 C 0.7860(2) 0.82523(18) -0.08043(14)
C10 C 0.8875(2) 0.92573(18) -0.04998(14)
C11 C 1.1409(2) 0.84119(17) 0.22065(14)
C12 C 1.0629(2) 0.86785(19) 0.34279(15)
H5 H 0.9627 0.9409 0.3571
C13 C 1.1309(2) 0.7881(2) 0.44388(15)
H6 H 1.0770 0.8069 0.5273
C14 C 1.2758(3) 0.6818(2) 0.42464(17)
H7 H 1.3210 0.6270 0.4946
C15 C 1.3553(2) 0.65496(19) 0.30351(16)
H8 H 1.4563 0.5825 0.2896
C16 C 1.2873(2) 0.73409(18) 0.20248(15)
H9 H 1.3416 0.7148 0.1193
C17 C 0.6802(2) 0.84472(18) -0.17969(14)
C18 C 0.7239(2) 0.75218(19) -0.27196(15)
H10 H 0.8229 0.6774 -0.2718
C19 C 0.6245(3) 0.7678(2) -0.36419(15)
H11 H 0.6574 0.7057 -0.4279
C20 C 0.4784(2) 0.8734(2) -0.36331(16)
H12 H 0.4097 0.8835 -0.4261
C21 C 0.4314(2) 0.9645(2) -0.27166(16)
H13 H 0.3304 1.0373 -0.2711
C22 C 0.5320(2) 0.94963(19) -0.18029(15)
H14 H 0.4987 1.0124 -0.1171
C1A C 0.9322(2) 1.07847(17) -0.10994(13)
C2A C 1.0431(2) 1.14768(17) -0.06087(14)
C3A C 1.1125(2) 1.30030(18) -0.09980(14)
C4A C 1.1000(2) 1.41801(18) -0.19936(15)
H1A H 1.0384 1.4075 -0.2622
C5A C 1.1797(2) 1.55244(18) -0.20563(15)
H2A H 1.1711 1.6341 -0.2732
C6A C 1.2709(2) 1.56894(19) -0.11526(15)
H3A H 1.3221 1.6621 -0.1206
C7A C 1.2879(2) 1.45058(18) -0.01721(15)
H4A H 1.3517 1.4612 0.0444
C8A C 1.2106(2) 1.31660(18) -0.01048(14)
C9A C 1.2140(2) 1.17477(18) 0.08043(14)
C10A C 1.1125(2) 1.07427(18) 0.04998(14)
C11A C 0.8591(2) 1.15881(17) -0.22065(14)
C12A C 0.9371(2) 1.13215(19) -0.34279(15)
H5A H 1.0373 1.0591 -0.3571
C13A C 0.8691(2) 1.2119(2) -0.44388(15)
H6A H 0.9230 1.1931 -0.5273
C14A C 0.7242(3) 1.3182(2) -0.42464(17)
H7A H 0.6790 1.3730 -0.4946
C15A C 0.6447(2) 1.34504(19) -0.30351(16)
H8A H 0.5437 1.4175 -0.2896
C16A C 0.7127(2) 1.26591(18) -0.20248(15)
H9A H 0.6584 1.2852 -0.1193
C17A C 1.3198(2) 1.15528(18) 0.17969(14)
C18A C 1.2761(2) 1.24782(19) 0.27196(15)
H10A H 1.1771 1.3226 0.2718
C19A C 1.3755(3) 1.2322(2) 0.36419(15)
H11A H 1.3426 1.2943 0.4279
C20A C 1.5216(2) 1.1266(2) 0.36331(16)
H12A H 1.5903 1.1165 0.4261
C21A C 1.5686(2) 1.0355(2) 0.27166(16)
H13A H 1.6696 0.9627 0.2711
C22A C 1.4680(2) 1.05037(19) 0.18029(15)
H14A H 1.5013 0.9876 0.1171
loop_
_geom_bond_atom_site_label_1
_geom_bond_atom_site_label_2
_geom_bond_site_symmetry_1
_geom_bond_site_symmetry_2
C1 C2 1_555 1_555
C2 C3 1_555 1_555
C3 C4 1_555 1_555
C4 H1 1_555 1_555
C5 C4 1_555 1_555
H2 C5 1_555 1_555
C6 C5 1_555 1_555
H3 C6 1_555 1_555
C7 C6 1_555 1_555
H4 C7 1_555 1_555
C8 C3 1_555 1_555
C9 C8 1_555 1_555
C10 C2 1_555 1_555
C11 C1 1_555 1_555
C12 C11 1_555 1_555
H5 C12 1_555 1_555
C13 C12 1_555 1_555
H6 C13 1_555 1_555
C14 C13 1_555 1_555
H7 C14 1_555 1_555
C15 C14 1_555 1_555
H8 C15 1_555 1_555
C16 C11 1_555 1_555
H9 C16 1_555 1_555
C17 C9 1_555 1_555
C18 C17 1_555 1_555
H10 C18 1_555 1_555
C19 C18 1_555 1_555
H11 C19 1_555 1_555
C20 C19 1_555 1_555
H12 C20 1_555 1_555
C21 C20 1_555 1_555
H13 C21 1_555 1_555
C22 C17 1_555 1_555
H14 C22 1_555 1_555
C1A C10 1_555 1_555
C2A C1A 1_555 1_555
C3A C2A 1_555 1_555
C4A C3A 1_555 1_555
H1A C4A 1_555 1_555
C5A C4A 1_555 1_555
H2A C5A 1_555 1_555
C6A C5A 1_555 1_555
H3A C6A 1_555 1_555
C7A C6A 1_555 1_555
H4A C7A 1_555 1_555
C8A C3A 1_555 1_555
C9A C8A 1_555 1_555
C10A C1 1_555 1_555
C11A C1A 1_555 1_555
C12A C11A 1_555 1_555
H5A C12A 1_555 1_555
C13A C12A 1_555 1_555
H6A C13A 1_555 1_555
C14A C13A 1_555 1_555
H7A C14A 1_555 1_555
C15A C14A 1_555 1_555
H8A C15A 1_555 1_555
C16A C11A 1_555 1_555
H9A C16A 1_555 1_555
C17A C9A 1_555 1_555
C18A C17A 1_555 1_555
H10A C18A 1_555 1_555
C19A C18A 1_555 1_555
H11A C19A 1_555 1_555
C20A C19A 1_555 1_555
H12A C20A 1_555 1_555
C21A C20A 1_555 1_555
H13A C21A 1_555 1_555
C22A C17A 1_555 1_555
H14A C22A 1_555 1_555
C7 C8 1_555 1_555
C9 C10 1_555 1_555
C15 C16 1_555 1_555
C21 C22 1_555 1_555
C2A C10A 1_555 1_555
C7A C8A 1_555 1_555
C9A C10A 1_555 1_555
C15A C16A 1_555 1_555
C21A C22A 1_555 1_555

#END
