
#######################################################################
#
#                 Cambridge Crystallographic Data Centre
#                                CCDC 
#
#######################################################################
#
# If this CIF has been generated from an entry in the Cambridge 
# Structural Database, then it will include bibliographic, chemical, 
# crystal, experimental, refinement or atomic coordinate data resulting 
# from the CCDC's data processing and validation procedures.
#
#######################################################################

data_ECECEW
_chemical_formula_moiety         'C20 H19 N1 O4 S1'
_chemical_name_systematic        
1-Benzoyl-5-methyl-3-((4-methylphenyl)sulfonyl)-3-azabicyclo[3.1.0]hexan-2-one
_symmetry_cell_setting           triclinic
_symmetry_space_group_name_H-M   'P -1'
_symmetry_Int_Tables_number      2
_space_group_name_Hall           '-P 1'
loop_
_symmetry_equiv_pos_site_id
_symmetry_equiv_pos_as_xyz
1 x,y,z
2 -x,-y,-z
_cell_length_a                   7.0007(8)
_cell_length_b                   10.4842(8)
_cell_length_c                   12.8845(12)
_cell_angle_alpha                103.453(8)
_cell_angle_beta                 95.091(3)
_cell_angle_gamma                95.585(3)
_cell_volume                     909.286
_exptl_crystal_colour            colorless
_exptl_crystal_description       block
_cell_formula_units_Z            2
loop_
_atom_site_label
_atom_site_type_symbol
_atom_site_fract_x
_atom_site_fract_y
_atom_site_fract_z
S1 S 0.26375(8) 0.33374(5) 0.45849(4)
O1 O 0.3761(3) 0.3455(2) -0.01059(14)
O2 O 0.3652(2) 0.19896(15) 0.24213(12)
O3 O 0.1964(3) 0.43820(16) 0.53346(13)
O4 O 0.4410(2) 0.28683(17) 0.48563(13)
N1 N 0.2832(3) 0.39046(18) 0.34901(15)
C1 C 0.0516(4) 0.1508(2) -0.06795(19)
H1 H 0.1495 0.1408 -0.1148
C2 C -0.1245(4) 0.0738(3) -0.0983(2)
H2 H -0.1469 0.0101 -0.1652
C3 C -0.2678(4) 0.0892(3) -0.0317(2)
H3 H -0.3901 0.0375 -0.0537
C4 C -0.2354(4) 0.1795(3) 0.0673(2)
H4 H -0.3344 0.1891 0.1134
C5 C -0.0576(4) 0.2557(2) 0.0985(2)
H5 H -0.0342 0.3170 0.1667
C6 C 0.0872(3) 0.2430(2) 0.03052(18)
C7 C 0.2764(4) 0.3276(2) 0.05809(18)
C8 C 0.3357(3) 0.3936(2) 0.17439(18)
C9 C 0.3317(3) 0.3125(2) 0.25411(17)
C10 C 0.2224(4) 0.5184(2) 0.33760(19)
H6 H 0.2904 0.5925 0.3954
H7 H 0.0813 0.5184 0.3392
C11 C 0.2800(4) 0.5283(2) 0.22851(19)
C12 C 0.4848(4) 0.5146(2) 0.2106(2)
H8 H 0.5783 0.5197 0.2742
H9 H 0.5375 0.5533 0.1544
C13 C 0.1637(5) 0.6070(3) 0.1682(2)
H10 H 0.1436 0.6900 0.2173
H11 H 0.0383 0.5559 0.1380
H12 H 0.2334 0.6265 0.1099
C14 C 0.0831(3) 0.1986(2) 0.41652(17)
C15 C 0.1334(4) 0.0713(2) 0.39700(19)
H13 H 0.2647 0.0565 0.4076
C16 C -0.0116(4) -0.0340(2) 0.3617(2)
H14 H 0.0214 -0.1216 0.3492
C17 C -0.2038(4) -0.0143(3) 0.34444(19)
C18 C -0.2494(4) 0.1151(3) 0.3653(2)
H15 H -0.3804 0.1301 0.3542
C19 C -0.1085(4) 0.2218(2) 0.4017(2)
H16 H -0.1418 0.3094 0.4163
C20 C -0.3612(5) -0.1283(3) 0.3057(2)
H17 H -0.3044 -0.2116 0.2956
H18 H -0.4284 -0.1224 0.2373
H19 H -0.4532 -0.1253 0.3591
loop_
_geom_bond_atom_site_label_1
_geom_bond_atom_site_label_2
_geom_bond_site_symmetry_1
_geom_bond_site_symmetry_2
S1 O3 1_555 1_555
O1 C7 1_555 1_555
O2 C9 1_555 1_555
O4 S1 1_555 1_555
N1 S1 1_555 1_555
C1 H1 1_555 1_555
C2 C1 1_555 1_555
H2 C2 1_555 1_555
C3 C2 1_555 1_555
H3 C3 1_555 1_555
C4 C3 1_555 1_555
H4 C4 1_555 1_555
C5 C4 1_555 1_555
H5 C5 1_555 1_555
C6 C1 1_555 1_555
C7 C6 1_555 1_555
C8 C7 1_555 1_555
C9 N1 1_555 1_555
C10 N1 1_555 1_555
H6 C10 1_555 1_555
H7 C10 1_555 1_555
C11 C8 1_555 1_555
C12 C8 1_555 1_555
H8 C12 1_555 1_555
H9 C12 1_555 1_555
C13 C11 1_555 1_555
H10 C13 1_555 1_555
H11 C13 1_555 1_555
H12 C13 1_555 1_555
C14 S1 1_555 1_555
C15 C14 1_555 1_555
H13 C15 1_555 1_555
C16 C15 1_555 1_555
H14 C16 1_555 1_555
C17 C16 1_555 1_555
C18 C17 1_555 1_555
H15 C18 1_555 1_555
C19 C14 1_555 1_555
H16 C19 1_555 1_555
C20 C17 1_555 1_555
H17 C20 1_555 1_555
H18 C20 1_555 1_555
H19 C20 1_555 1_555
C5 C6 1_555 1_555
C8 C9 1_555 1_555
C10 C11 1_555 1_555
C11 C12 1_555 1_555
C18 C19 1_555 1_555

#END
