
#######################################################################
#
#                 Cambridge Crystallographic Data Centre
#                                CCDC 
#
#######################################################################
#
# If this CIF has been generated from an entry in the Cambridge 
# Structural Database, then it will include bibliographic, chemical, 
# crystal, experimental, refinement or atomic coordinate data resulting 
# from the CCDC's data processing and validation procedures.
#
#######################################################################

data_ECEDEX
_chemical_formula_moiety         'C44 H41 B1'
_chemical_name_systematic        
Dimesityl(4-(1,2,2-triphenylvinyl)phenyl)borane
_symmetry_cell_setting           triclinic
_symmetry_space_group_name_H-M   'P -1'
_symmetry_Int_Tables_number      2
_space_group_name_Hall           '-P 1'
loop_
_symmetry_equiv_pos_site_id
_symmetry_equiv_pos_as_xyz
1 x,y,z
2 -x,-y,-z
_cell_length_a                   10.7027(2)
_cell_length_b                   17.7028(3)
_cell_length_c                   19.3060(6)
_cell_angle_alpha                106.086(2)
_cell_angle_beta                 103.506(2)
_cell_angle_gamma                97.0900(10)
_cell_volume                     3347.44
_exptl_crystal_colour            colorless
_exptl_crystal_description       plate
_cell_formula_units_Z            4
loop_
_atom_site_label
_atom_site_type_symbol
_atom_site_fract_x
_atom_site_fract_y
_atom_site_fract_z
B1 B 0.7711(3) 0.97599(16) 0.80203(13)
C1 C 0.70487(17) 0.95009(10) 0.48275(11)
C2 C 0.75813(17) 1.01203(11) 0.46332(11)
C3 C 0.72008(18) 0.95688(10) 0.56373(10)
C4 C 0.84367(19) 0.96548(12) 0.61205(11)
H1 H 0.9192 0.9711 0.5946
C5 C 0.85777(19) 0.96589(12) 0.68564(11)
H2 H 0.9418 0.9662 0.7159
C6 C 0.75214(19) 0.96594(11) 0.71626(11)
C7 C 0.62871(19) 0.96012(11) 0.66819(11)
H3 H 0.5548 0.9616 0.6874
C8 C 0.61222(19) 0.95227(11) 0.59254(11)
H4 H 0.5264 0.9437 0.5601
C9 C 0.81472(17) 1.09364(11) 0.51967(11)
C10 C 0.94014(19) 1.13371(12) 0.52551(12)
H5 H 0.9892 1.1085 0.4940
C11 C 0.9931(2) 1.20955(13) 0.57678(13)
H6 H 1.0789 1.2355 0.5809
C12 C 0.9219(2) 1.24754(12) 0.62188(13)
H7 H 0.9585 1.2997 0.6568
C13 C 0.7972(2) 1.20968(12) 0.61631(13)
H8 H 0.7478 1.2358 0.6472
C14 C 0.74434(19) 1.13311(11) 0.56530(12)
H9 H 0.6586 1.1074 0.5616
C15 C 0.63553(18) 0.87001(11) 0.42781(11)
C16 C 0.6582(2) 0.80055(12) 0.44553(12)
H10 H 0.7145 0.8053 0.4932
C17 C 0.6004(2) 0.72494(12) 0.39498(13)
H11 H 0.6184 0.6787 0.4082
C18 C 0.5172(2) 0.71596(13) 0.32588(13)
H12 H 0.4785 0.6640 0.2911
C19 C 0.4909(2) 0.78341(13) 0.30788(12)
H13 H 0.4329 0.7778 0.2605
C20 C 0.54840(19) 0.85995(12) 0.35841(12)
H14 H 0.5278 0.9058 0.3453
C21 C 0.76462(17) 1.00419(11) 0.38521(11)
C22 C 0.8095(2) 0.94063(12) 0.34319(12)
H15 H 0.8385 0.9016 0.3649
C23 C 0.8120(2) 0.93409(14) 0.27032(13)
H16 H 0.8435 0.8910 0.2426
C24 C 0.7686(2) 0.99041(15) 0.23754(13)
H17 H 0.7687 0.9853 0.1873
C25 C 0.7252(2) 1.05391(14) 0.27857(13)
H18 H 0.6955 1.0924 0.2563
C26 C 0.72478(19) 1.06173(12) 0.35259(12)
H19 H 0.6973 1.1064 0.3809
C27 C 0.6839(2) 1.02851(13) 0.84288(12)
C28 C 0.6845(2) 1.10733(13) 0.84004(12)
C29 C 0.6029(2) 1.15285(15) 0.87260(13)
H20 H 0.6061 1.2064 0.8715
C30 C 0.5169(2) 1.12153(16) 0.90667(13)
C31 C 0.5172(2) 1.04424(16) 0.90940(13)
H21 H 0.4599 1.0223 0.9329
C32 C 0.5988(3) 0.99742(17) 0.87892(13)
C33 C 0.7726(3) 1.14561(14) 0.80298(16)
H22 H 0.8614 1.1360 0.8192
H23 H 0.7752 1.2035 0.8174
H24 H 0.7384 1.1221 0.7483
C34 C 0.4293(3) 1.1719(2) 0.94083(18)
H25 H 0.3600 1.1372 0.9496
H26 H 0.3897 1.1995 0.9064
H27 H 0.4814 1.2116 0.9886
C35 C 0.5908(3) 0.91320(15) 0.88323(15)
H28 H 0.5377 0.9055 0.9167
H29 H 0.6793 0.9049 0.9029
H30 H 0.5504 0.8746 0.8329
C36 C 0.88022(19) 0.93669(12) 0.84115(11)
C37 C 0.8699(2) 0.85271(12) 0.81798(11)
C38 C 0.9677(2) 0.81848(13) 0.85046(12)
H31 H 0.9566 0.7617 0.8356
C39 C 1.0818(2) 0.86506(14) 0.90420(13)
C40 C 1.0933(3) 0.94778(14) 0.92652(13)
H32 H 1.1706 0.9806 0.9631
C41 C 0.9949(2) 0.98411(15) 0.89694(12)
C42 C 0.7526(3) 0.79726(15) 0.75775(14)
H33 H 0.7785 0.7481 0.7325
H34 H 0.7193 0.8239 0.7211
H35 H 0.6838 0.7837 0.7806
C43 C 1.1887(3) 0.82654(17) 0.93766(18)
H36 H 1.1616 0.8035 0.9738
H37 H 1.2696 0.8671 0.9633
H38 H 1.2041 0.7840 0.8976
C44 C 1.0185(2) 1.07448(13) 0.92296(14)
H39 H 1.0484 1.0947 0.8860
H40 H 1.0856 1.0957 0.9715
H41 H 0.9367 1.0918 0.9283
B2 B 0.6847(3) 0.50298(16) 0.19272(13)
C45 C 0.79567(17) 0.54397(10) 0.51610(10)
C46 C 0.74055(17) 0.48374(11) 0.53705(10)
C47 C 0.77061(18) 0.53775(10) 0.43508(10)
C48 C 0.87170(19) 0.55465(11) 0.40447(11)
H42 H 0.9595 0.5720 0.4357
C49 C 0.8455(2) 0.54635(11) 0.32810(11)
H43 H 0.9163 0.5576 0.3081
C50 C 0.71753(19) 0.52188(11) 0.28031(11)
C51 C 0.61634(18) 0.50837(12) 0.31289(11)
H44 H 0.5281 0.4938 0.2823
C52 C 0.64116(18) 0.51555(11) 0.38810(10)
H45 H 0.5703 0.5054 0.4083
C53 C 0.67700(17) 0.40252(10) 0.48241(10)
C54 C 0.74346(18) 0.35947(11) 0.43612(12)
H46 H 0.8296 0.3828 0.4381
C55 C 0.6855(2) 0.28313(12) 0.38719(13)
H47 H 0.7316 0.2547 0.3555
C56 C 0.5610(2) 0.24809(12) 0.38423(12)
H48 H 0.5218 0.1954 0.3511
C57 C 0.4937(2) 0.29001(13) 0.42962(12)
H49 H 0.4073 0.2665 0.4269
C58 C 0.55131(19) 0.36582(12) 0.47891(12)
H50 H 0.5050 0.3935 0.5109
C59 C 0.87934(17) 0.62057(11) 0.57103(10)
C60 C 0.8659(2) 0.69323(11) 0.55766(12)
H51 H 0.8072 0.6929 0.5123
C61 C 0.9373(2) 0.76594(12) 0.60982(13)
H52 H 0.9266 0.8149 0.6002
C62 C 1.0243(2) 0.76689(14) 0.67597(13)
H53 H 1.0711 0.8165 0.7125
C63 C 1.0424(2) 0.69490(14) 0.68836(12)
H54 H 1.1040 0.6953 0.7328
C64 C 0.97158(18) 0.62258(12) 0.63643(11)
H55 H 0.9858 0.5737 0.6453
C65 C 0.74419(17) 0.49185(11) 0.61645(10)
C66 C 0.71321(19) 0.55838(12) 0.66255(11)
H56 H 0.6844 0.5988 0.6428
C67 C 0.7244(2) 0.56554(13) 0.73712(12)
H57 H 0.7042 0.6113 0.7685
C68 C 0.7651(2) 0.50631(15) 0.76651(12)
H58 H 0.7741 0.5121 0.8180
C69 C 0.7920(2) 0.43966(14) 0.72092(12)
H59 H 0.8183 0.3987 0.7405
C70 C 0.78077(19) 0.43197(12) 0.64617(11)
H60 H 0.7983 0.3852 0.6148
C71 C 0.7937(2) 0.53734(12) 0.16069(11)
C72 C 0.8427(2) 0.62070(13) 0.18005(12)
C73 C 0.9515(2) 0.64791(13) 0.15884(12)
H61 H 0.9833 0.7040 0.1724
C74 C 1.0146(2) 0.59510(14) 0.11836(12)
C75 C 0.9645(2) 0.51390(14) 0.09754(12)
H62 H 1.0050 0.4772 0.0686
C76 C 0.8564(3) 0.48405(15) 0.11762(12)
C77 C 0.7764(3) 0.68242(15) 0.22156(16)
H63 H 0.7079 0.6946 0.1852
H64 H 0.8416 0.7316 0.2514
H65 H 0.7370 0.6608 0.2549
C78 C 1.1370(2) 0.62572(15) 0.10021(14)
H66 H 1.1214 0.6677 0.0771
H67 H 1.1598 0.5814 0.0652
H68 H 1.2094 0.6479 0.1465
C79 C 0.8136(3) 0.39441(13) 0.09670(15)
H69 H 0.8291 0.3787 0.1423
H70 H 0.8638 0.3676 0.0643
H71 H 0.7199 0.3786 0.0698
C80 C 0.54741(19) 0.44652(12) 0.14236(11)
C81 C 0.4558(2) 0.47363(14) 0.09421(11)
C82 C 0.3328(2) 0.42546(13) 0.05371(12)
H72 H 0.2721 0.4453 0.0223
C83 C 0.2967(2) 0.34935(13) 0.05810(12)
C84 C 0.3870(2) 0.32208(12) 0.10426(12)
H73 H 0.3641 0.2697 0.1073
C85 C 0.5102(2) 0.36853(12) 0.14646(11)
C86 C 0.4842(2) 0.55770(14) 0.08861(13)
H74 H 0.4191 0.5617 0.0453
H75 H 0.5721 0.5687 0.0823
H76 H 0.4795 0.5969 0.1346
C87 C 0.1624(3) 0.29775(16) 0.01452(16)
H77 H 0.1618 0.2715 -0.0374
H78 H 0.0964 0.3315 0.0149
H79 H 0.1421 0.2569 0.0379
C88 C 0.5992(2) 0.33128(13) 0.19482(13)
H80 H 0.5608 0.3231 0.2342
H81 H 0.6855 0.3671 0.2179
H82 H 0.6089 0.2795 0.1636
B3? B 0.734(3) 0.525(2) 0.1986(12)
C89? C 0.818(2) 0.4666(12) 0.1518(12)
C90? C 0.811(2) 0.3901(13) 0.1528(13)
C91? C 0.8926(19) 0.3441(12) 0.1214(11)
C92? C 0.988(2) 0.3763(13) 0.0876(13)
C93? C 0.987(2) 0.4509(13) 0.0881(12)
C94? C 0.910(3) 0.4996(13) 0.1167(14)
C95? C 0.7227(19) 0.3493(12) 0.1905(11)
C96? C 1.071(3) 0.3220(16) 0.0569(16)
C97? C 0.913(2) 0.5856(12) 0.1128(12)
C98? C 0.6203(15) 0.5632(8) 0.1551(9)
C99? C 0.6352(16) 0.6477(9) 0.1823(10)
C100? C 0.5348(14) 0.6837(10) 0.1537(9)
C101? C 0.4202(17) 0.6380(9) 0.0975(10)
C102? C 0.400(2) 0.5534(10) 0.0724(13)
C103? C 0.5031(15) 0.5176(14) 0.0984(9)
C104? C 0.755(3) 0.6971(19) 0.2455(18)
C105? C 0.309(2) 0.6776(13) 0.0698(13)
C106? C 0.4829(19) 0.4266(12) 0.0707(11)
H83? H 0.8866 0.2902 0.1219
H84? H 1.0465 0.4730 0.0659
H85? H 0.7137 0.2909 0.1711
H86? H 0.6360 0.3631 0.1793
H87? H 0.7626 0.3678 0.2449
H88? H 1.0228 0.2875 0.0059
H89? H 1.0942 0.2887 0.0890
H90? H 1.1515 0.3541 0.0555
H91? H 0.8395 0.5851 0.0711
H92? H 0.9041 0.6205 0.1601
H93? H 0.9957 0.6059 0.1048
H94? H 0.5441 0.7403 0.1725
H95? H 0.3185 0.5217 0.0389
H96? H 0.7727 0.6703 0.2839
H97? H 0.8304 0.7024 0.2257
H98? H 0.7381 0.7504 0.2679
H99? H 0.2265 0.6383 0.0501
H100? H 0.3266 0.6980 0.0300
H101? H 0.3035 0.7222 0.1116
H102? H 0.3916 0.4038 0.0409
H103? H 0.5026 0.4067 0.1138
H104? H 0.5414 0.4106 0.0395
loop_
_geom_bond_atom_site_label_1
_geom_bond_atom_site_label_2
_geom_bond_site_symmetry_1
_geom_bond_site_symmetry_2
B1 C6 1_555 1_555
C1 C2 1_555 1_555
C2 C9 1_555 1_555
C3 C1 1_555 1_555
C4 C3 1_555 1_555
H1 C4 1_555 1_555
C5 C4 1_555 1_555
H2 C5 1_555 1_555
C6 C5 1_555 1_555
C7 C6 1_555 1_555
H3 C7 1_555 1_555
C8 C3 1_555 1_555
H4 C8 1_555 1_555
C9 C10 1_555 1_555
C10 H5 1_555 1_555
C11 C10 1_555 1_555
H6 C11 1_555 1_555
C12 C11 1_555 1_555
H7 C12 1_555 1_555
C13 C12 1_555 1_555
H8 C13 1_555 1_555
C14 C9 1_555 1_555
H9 C14 1_555 1_555
C15 C1 1_555 1_555
C16 C15 1_555 1_555
H10 C16 1_555 1_555
C17 C16 1_555 1_555
H11 C17 1_555 1_555
C18 C17 1_555 1_555
H12 C18 1_555 1_555
C19 C18 1_555 1_555
H13 C19 1_555 1_555
C20 C15 1_555 1_555
H14 C20 1_555 1_555
C21 C2 1_555 1_555
C22 C21 1_555 1_555
H15 C22 1_555 1_555
C23 C22 1_555 1_555
H16 C23 1_555 1_555
C24 C23 1_555 1_555
H17 C24 1_555 1_555
C25 C24 1_555 1_555
H18 C25 1_555 1_555
C26 C21 1_555 1_555
H19 C26 1_555 1_555
C27 B1 1_555 1_555
C28 C27 1_555 1_555
C29 C28 1_555 1_555
H20 C29 1_555 1_555
C30 C29 1_555 1_555
C31 C30 1_555 1_555
H21 C31 1_555 1_555
C32 C27 1_555 1_555
C33 C28 1_555 1_555
H22 C33 1_555 1_555
H23 C33 1_555 1_555
H24 C33 1_555 1_555
C34 C30 1_555 1_555
H25 C34 1_555 1_555
H26 C34 1_555 1_555
H27 C34 1_555 1_555
C35 C32 1_555 1_555
H28 C35 1_555 1_555
H29 C35 1_555 1_555
H30 C35 1_555 1_555
C36 B1 1_555 1_555
C37 C36 1_555 1_555
C38 C37 1_555 1_555
H31 C38 1_555 1_555
C39 C38 1_555 1_555
C40 C39 1_555 1_555
H32 C40 1_555 1_555
C41 C36 1_555 1_555
C42 C37 1_555 1_555
H33 C42 1_555 1_555
H34 C42 1_555 1_555
H35 C42 1_555 1_555
C43 C39 1_555 1_555
H36 C43 1_555 1_555
H37 C43 1_555 1_555
H38 C43 1_555 1_555
C44 C41 1_555 1_555
H39 C44 1_555 1_555
H40 C44 1_555 1_555
H41 C44 1_555 1_555
B2 C50 1_555 1_555
C45 C46 1_555 1_555
C46 C53 1_555 1_555
C47 C45 1_555 1_555
C48 C47 1_555 1_555
H42 C48 1_555 1_555
C49 C48 1_555 1_555
H43 C49 1_555 1_555
C50 C49 1_555 1_555
C51 C50 1_555 1_555
H44 C51 1_555 1_555
C52 C47 1_555 1_555
H45 C52 1_555 1_555
C53 C54 1_555 1_555
C54 H46 1_555 1_555
C55 C54 1_555 1_555
H47 C55 1_555 1_555
C56 C55 1_555 1_555
H48 C56 1_555 1_555
C57 C56 1_555 1_555
H49 C57 1_555 1_555
C58 C53 1_555 1_555
H50 C58 1_555 1_555
C59 C45 1_555 1_555
C60 C59 1_555 1_555
H51 C60 1_555 1_555
C61 C60 1_555 1_555
H52 C61 1_555 1_555
C62 C61 1_555 1_555
H53 C62 1_555 1_555
C63 C62 1_555 1_555
H54 C63 1_555 1_555
C64 C59 1_555 1_555
H55 C64 1_555 1_555
C65 C46 1_555 1_555
C66 C65 1_555 1_555
H56 C66 1_555 1_555
C67 C66 1_555 1_555
H57 C67 1_555 1_555
C68 C67 1_555 1_555
H58 C68 1_555 1_555
C69 C68 1_555 1_555
H59 C69 1_555 1_555
C70 C65 1_555 1_555
H60 C70 1_555 1_555
C71 B2 1_555 1_555
C72 C71 1_555 1_555
C73 C72 1_555 1_555
H61 C73 1_555 1_555
C74 C73 1_555 1_555
C75 C74 1_555 1_555
H62 C75 1_555 1_555
C76 C71 1_555 1_555
C77 C72 1_555 1_555
H63 C77 1_555 1_555
H64 C77 1_555 1_555
H65 C77 1_555 1_555
C78 C74 1_555 1_555
H66 C78 1_555 1_555
H67 C78 1_555 1_555
H68 C78 1_555 1_555
C79 C76 1_555 1_555
H69 C79 1_555 1_555
H70 C79 1_555 1_555
H71 C79 1_555 1_555
C80 B2 1_555 1_555
C81 C80 1_555 1_555
C82 C81 1_555 1_555
H72 C82 1_555 1_555
C83 C82 1_555 1_555
C84 C83 1_555 1_555
H73 C84 1_555 1_555
C85 C80 1_555 1_555
C86 C81 1_555 1_555
H74 C86 1_555 1_555
H75 C86 1_555 1_555
H76 C86 1_555 1_555
C87 C83 1_555 1_555
H77 C87 1_555 1_555
H78 C87 1_555 1_555
H79 C87 1_555 1_555
C88 C85 1_555 1_555
H80 C88 1_555 1_555
H81 C88 1_555 1_555
H82 C88 1_555 1_555
C7 C8 1_555 1_555
C13 C14 1_555 1_555
C19 C20 1_555 1_555
C25 C26 1_555 1_555
C31 C32 1_555 1_555
C40 C41 1_555 1_555
C51 C52 1_555 1_555
C57 C58 1_555 1_555
C63 C64 1_555 1_555
C69 C70 1_555 1_555
C75 C76 1_555 1_555
C84 C85 1_555 1_555

#END
