
#######################################################################
#
#                 Cambridge Crystallographic Data Centre
#                                CCDC 
#
#######################################################################
#
# If this CIF has been generated from an entry in the Cambridge 
# Structural Database, then it will include bibliographic, chemical, 
# crystal, experimental, refinement or atomic coordinate data resulting 
# from the CCDC's data processing and validation procedures.
#
#######################################################################

data_ECEFUO
_chemical_formula_moiety         'C9 H8 I1 N1 O2'
_chemical_name_systematic        5-Iodo-3,7-dimethyl-3H-benzoxazol-2-one
_symmetry_cell_setting           orthorhombic
_symmetry_space_group_name_H-M   'P b c a'
_symmetry_Int_Tables_number      61
_space_group_name_Hall           '-P 2ac 2ab'
loop_
_symmetry_equiv_pos_site_id
_symmetry_equiv_pos_as_xyz
1 x,y,z
2 1/2-x,-y,1/2+z
3 -x,1/2+y,1/2-z
4 1/2+x,1/2-y,-z
5 -x,-y,-z
6 1/2+x,y,1/2-z
7 x,1/2-y,1/2+z
8 1/2-x,1/2+y,z
_cell_length_a                   13.7861(4)
_cell_length_b                   16.5709(4)
_cell_length_c                   34.1035(10)
_cell_angle_alpha                90
_cell_angle_beta                 90
_cell_angle_gamma                90
_cell_volume                     7790.88
_exptl_crystal_colour            colorless
_exptl_crystal_description       plate
_cell_formula_units_Z            32
_exptl_crystal_recrystallization_method 'ethyl acetate/hexanes'
loop_
_atom_site_label
_atom_site_type_symbol
_atom_site_fract_x
_atom_site_fract_y
_atom_site_fract_z
I1 I 0.94352(3) 0.10353(3) 0.735348(11)
O1 O 0.8636(2) 0.2928(2) 0.53101(10)
O2 O 0.8830(2) 0.3313(2) 0.59467(10)
N1 N 0.8904(3) 0.2001(3) 0.58097(12)
C1 C 0.8770(4) 0.2752(3) 0.56475(17)
C2 C 0.9001(3) 0.2890(3) 0.62928(15)
C3 C 0.9119(3) 0.3224(3) 0.66575(15)
C4 C 0.9273(4) 0.2654(4) 0.69540(17)
C5 C 0.9298(3) 0.1838(3) 0.68772(14)
C6 C 0.9184(3) 0.1514(4) 0.65039(16)
C7 C 0.9045(3) 0.2078(3) 0.62118(14)
C29 C 0.8897(5) 0.1264(4) 0.55835(19)
C30 C 0.9059(6) 0.4116(4) 0.6729(2)
H1 H 0.930(3) 0.286(3) 0.7184(13)
H2 H 0.919(3) 0.093(3) 0.6435(11)
H9 H 0.845(5) 0.140(4) 0.5372(19)
H10 H 0.864(4) 0.074(3) 0.5706(16)
H11 H 0.950(5) 0.118(4) 0.5487(19)
H12 H 0.952(4) 0.438(3) 0.6554(15)
H13 H 0.929(4) 0.421(4) 0.6922(18)
H14 H 0.833(5) 0.435(4) 0.667(2)
I2 I 0.62136(2) 0.02722(2) 0.539284(11)
O3 O 0.6636(3) 0.4616(2) 0.62002(11)
O4 O 0.6669(2) 0.3320(2) 0.64161(9)
N2 N 0.6472(3) 0.3525(3) 0.57779(11)
C8 C 0.6595(4) 0.3914(4) 0.61279(16)
C9 C 0.6587(3) 0.2582(3) 0.62309(15)
C10 C 0.6606(3) 0.1835(3) 0.64061(15)
C11 C 0.6513(4) 0.1190(4) 0.61464(16)
C12 C 0.6378(3) 0.1305(3) 0.57484(15)
C13 C 0.6348(3) 0.2072(3) 0.55750(16)
C14 C 0.6461(3) 0.2701(3) 0.58314(14)
C31 C 0.6402(5) 0.3934(4) 0.54005(17)
C32 C 0.6725(5) 0.1714(5) 0.68433(17)
H3 H 0.652(3) 0.070(3) 0.6242(12)
H4 H 0.627(3) 0.218(2) 0.5282(12)
H15 H 0.642(4) 0.448(4) 0.5438(17)
H16 H 0.581(4) 0.381(3) 0.5291(15)
H17 H 0.701(4) 0.383(3) 0.5247(15)
H18 H 0.704(4) 0.216(4) 0.6951(17)
H19 H 0.703(5) 0.118(5) 0.688(2)
H20 H 0.611(4) 0.178(4) 0.6954(17)
I3 I 0.37548(3) 0.47590(2) 0.550086(11)
O5 O 0.4093(3) 0.0391(2) 0.62835(11)
O6 O 0.4231(2) 0.1684(2) 0.65009(9)
N3 N 0.3856(3) 0.1500(3) 0.58753(12)
C15 C 0.4054(4) 0.1105(4) 0.62190(16)
C16 C 0.4138(3) 0.2436(3) 0.63234(15)
C17 C 0.4264(3) 0.3166(4) 0.64955(15)
C18 C 0.4135(4) 0.3820(4) 0.62415(17)
C19 C 0.3911(3) 0.3718(3) 0.58498(15)
C20 C 0.3786(4) 0.2966(3) 0.56807(18)
C21 C 0.3903(3) 0.2323(3) 0.59311(14)
C33 C 0.3611(5) 0.1097(4) 0.55099(18)
C34 C 0.4509(6) 0.3281(5) 0.69204(19)
H5 H 0.426(3) 0.429(3) 0.6315(13)
H6 H 0.367(3) 0.289(3) 0.5461(12)
H21 H 0.299(3) 0.126(3) 0.5410(13)
H22 H 0.366(4) 0.050(4) 0.5529(17)
H23 H 0.401(4) 0.122(3) 0.5328(16)
H24 H 0.456(5) 0.280(2) 0.7013(18)
H25 H 0.408(4) 0.351(4) 0.7074(17)
H26 H 0.510(3) 0.346(4) 0.694(2)
I4 I 1.19436(3) 0.39348(2) 0.744368(10)
O7 O 1.1156(3) 0.2075(2) 0.53948(11)
O8 O 1.1513(2) 0.1683(2) 0.60187(10)
N4 N 1.1284(3) 0.2990(3) 0.59061(11)
C22 C 1.1299(4) 0.2248(4) 0.57348(17)
C23 C 1.1653(3) 0.2104(3) 0.63682(15)
C24 C 1.1874(3) 0.1764(3) 0.67221(15)
C25 C 1.1961(4) 0.2326(4) 0.70269(17)
C26 C 1.1843(3) 0.3141(3) 0.69623(14)
C27 C 1.1611(4) 0.3469(4) 0.65959(15)
C28 C 1.1522(3) 0.2908(3) 0.63009(15)
C35 C 1.1118(5) 0.3737(4) 0.5691(2)
C36 C 1.2005(7) 0.0884(4) 0.6786(2)
H7 H 1.215(3) 0.217(3) 0.7255(13)
H8 H 1.156(4) 0.404(3) 0.6532(15)
H27 H 1.175(6) 0.399(5) 0.566(2)
H28 H 1.074(5) 0.411(4) 0.586(2)
H29 H 1.077(4) 0.365(3) 0.5490(16)
H30 H 1.154(4) 0.065(3) 0.6805(16)
H31 H 1.242(6) 0.069(5) 0.696(2)
H32 H 1.224(4) 0.062(3) 0.6534(17)
loop_
_geom_bond_atom_site_label_1
_geom_bond_atom_site_label_2
_geom_bond_site_symmetry_1
_geom_bond_site_symmetry_2
I1 C5 1_555 1_555
I2 C12 1_555 1_555
I3 C19 1_555 1_555
I4 C26 1_555 1_555
O1 C1 1_555 1_555
O2 C1 1_555 1_555
O3 C8 1_555 1_555
O4 C8 1_555 1_555
O5 C15 1_555 1_555
O6 C15 1_555 1_555
O7 C22 1_555 1_555
O8 C22 1_555 1_555
N1 C1 1_555 1_555
N2 C8 1_555 1_555
N3 C15 1_555 1_555
N4 C22 1_555 1_555
C2 O2 1_555 1_555
C3 C2 1_555 1_555
C4 C3 1_555 1_555
C5 C4 1_555 1_555
C6 C5 1_555 1_555
C7 N1 1_555 1_555
C9 O4 1_555 1_555
C10 C9 1_555 1_555
C11 C10 1_555 1_555
C12 C11 1_555 1_555
C13 C12 1_555 1_555
C14 N2 1_555 1_555
C16 O6 1_555 1_555
C17 C16 1_555 1_555
C18 C17 1_555 1_555
C19 C18 1_555 1_555
C20 C19 1_555 1_555
C21 N3 1_555 1_555
C23 O8 1_555 1_555
C24 C23 1_555 1_555
C25 C24 1_555 1_555
C26 C25 1_555 1_555
C27 C26 1_555 1_555
C28 N4 1_555 1_555
C29 N1 1_555 1_555
C30 C3 1_555 1_555
C31 N2 1_555 1_555
C32 C10 1_555 1_555
C33 N3 1_555 1_555
C34 C17 1_555 1_555
C35 N4 1_555 1_555
C36 C24 1_555 1_555
H1 C4 1_555 1_555
H2 C6 1_555 1_555
H3 C11 1_555 1_555
H4 C13 1_555 1_555
H5 C18 1_555 1_555
H6 C20 1_555 1_555
H7 C25 1_555 1_555
H8 C27 1_555 1_555
H9 C29 1_555 1_555
H10 C29 1_555 1_555
H11 C29 1_555 1_555
H12 C30 1_555 1_555
H13 C30 1_555 1_555
H14 C30 1_555 1_555
H15 C31 1_555 1_555
H16 C31 1_555 1_555
H17 C31 1_555 1_555
H18 C32 1_555 1_555
H19 C32 1_555 1_555
H20 C32 1_555 1_555
H21 C33 1_555 1_555
H22 C33 1_555 1_555
H23 C33 1_555 1_555
H24 C34 1_555 1_555
H25 C34 1_555 1_555
H26 C34 1_555 1_555
H27 C35 1_555 1_555
H28 C35 1_555 1_555
H29 C35 1_555 1_555
H30 C36 1_555 1_555
H31 C36 1_555 1_555
H32 C36 1_555 1_555
C2 C7 1_555 1_555
C6 C7 1_555 1_555
C9 C14 1_555 1_555
C13 C14 1_555 1_555
C16 C21 1_555 1_555
C20 C21 1_555 1_555
C23 C28 1_555 1_555
C27 C28 1_555 1_555

#END
