
#######################################################################
#
#                 Cambridge Crystallographic Data Centre
#                                CCDC 
#
#######################################################################
#
# If this CIF has been generated from an entry in the Cambridge 
# Structural Database, then it will include bibliographic, chemical, 
# crystal, experimental, refinement or atomic coordinate data resulting 
# from the CCDC's data processing and validation procedures.
#
#######################################################################

data_ECEFID
_chemical_formula_moiety         'C10 H14 N4,C55 H70 O10'
_chemical_name_systematic        
'4,9,14,19,24,26,28,30,32,34-Decaethoxyhexacyclo[21.2.2.2^3,6^.2^8,11^.2^13,16^.2^18,21^]pentatriaconta-1(25),3,5,8,10,13,15,18,20,23,26,28,30,32,34-pentadecaene 1,4-bis(imidazol-1-yl)butane clathrate'
_symmetry_cell_setting           monoclinic
_symmetry_space_group_name_H-M   'P 21/n'
_symmetry_Int_Tables_number      14
_space_group_name_Hall           '-P 2yn'
loop_
_symmetry_equiv_pos_site_id
_symmetry_equiv_pos_as_xyz
1 x,y,z
2 1/2-x,1/2+y,1/2-z
3 -x,-y,-z
4 1/2+x,1/2-y,1/2+z
_cell_length_a                   13.215(2)
_cell_length_b                   22.647(4)
_cell_length_c                   20.966(4)
_cell_angle_alpha                90
_cell_angle_beta                 100.064(3)
_cell_angle_gamma                90
_cell_volume                     6178.16
_cell_formula_units_Z            4
loop_
_atom_site_label
_atom_site_type_symbol
_atom_site_fract_x
_atom_site_fract_y
_atom_site_fract_z
N1 N 0.7900(5) 0.1018(5) 0.2551(4)
C1 C 0.7341(6) 0.0498(4) 0.2340(4)
H1 H 0.6691 0.0401 0.2418
C2 C 0.7951(7) 0.0152(5) 0.1987(5)
H2 H 0.7770 -0.0211 0.1794
N2 N 0.8887(6) 0.0459(6) 0.1981(4)
C3 C 0.8855(5) 0.0994(6) 0.2330(5)
H3 H 0.9370 0.1279 0.2401
N3 N 0.3585(5) 0.1826(3) 0.26987(19)
C4 C 0.2681(6) 0.1522(3) 0.2790(4)
H4 H 0.2600 0.1115 0.2802
N4 N 0.1921(6) 0.1950(4) 0.2858(3)
C5 C 0.2355(7) 0.2518(4) 0.2809(3)
H5 H 0.2025 0.2878 0.2836
C6 C 0.3384(6) 0.2442(3) 0.2711(4)
H6 H 0.3845 0.2742 0.2662
C7 C 0.5174(15) 0.1494(10) 0.2745(8)
H7 H 0.4990 0.1195 0.3036
H8 H 0.5393 0.1847 0.2993
C8 C 0.4255(16) 0.163(2) 0.2204(7)
H9 H 0.3991 0.1286 0.1956
H10 H 0.4392 0.1947 0.1918
C9 C 0.6033(6) 0.1267(7) 0.2396(8)
H11 H 0.6289 0.1593 0.2169
H12 H 0.5751 0.0975 0.2077
C10 C 0.6932(9) 0.0992(10) 0.2868(6)
H13 H 0.6775 0.0585 0.2958
H14 H 0.7047 0.1209 0.3273
O1 O 0.4407(2) 0.17958(13) 0.47252(16)
O2 O 0.3710(2) 0.29799(12) 0.10488(15)
O3 O 0.6014(2) 0.10926(12) 0.04408(16)
O4 O 0.6709(2) 0.00206(14) 0.41781(18)
O5 O 0.5191(3) 0.35194(15) 0.34085(16)
C11 C 0.5458(3) 0.15757(17) 0.0586(2)
O6 O 0.8276(2) 0.20279(13) 0.41162(16)
O7 O 0.2217(2) 0.09484(14) 0.09440(17)
C12 C 0.5314(3) 0.25856(17) 0.09410(19)
O8 O 0.5321(2) -0.06049(14) 0.19205(15)
C13 C 0.6703(3) 0.24573(17) 0.42233(19)
C14 C 0.5989(3) 0.13739(17) 0.4636(2)
C15 C 0.5370(3) 0.18713(18) 0.4577(2)
C16 C 0.6756(3) 0.31093(16) 0.3265(2)
O9 O 0.7771(2) 0.27942(17) 0.17653(17)
C17 C 0.5813(3) 0.33412(17) 0.2983(2)
C18 C 0.5727(3) 0.24052(17) 0.43782(19)
H15 H 0.5304 0.2736 0.4348
C19 C 0.7131(3) 0.29631(19) 0.2186(2)
C20 C 0.3712(3) -0.01871(17) 0.1985(2)
C21 C 0.5105(3) 0.04165(17) 0.4282(2)
C22 C 0.3818(3) 0.19675(17) 0.0670(2)
H16 H 0.3109 0.1922 0.0627
C23 C 0.5903(3) 0.21178(18) 0.0785(2)
H17 H 0.6608 0.2167 0.0814
C24 C 0.7313(3) 0.19596(18) 0.4279(2)
C25 C 0.2978(3) 0.05587(17) 0.1206(2)
C26 C 0.4400(3) 0.14991(16) 0.05244(19)
O10 O 0.2531(2) 0.01364(15) 0.33205(17)
C27 C 0.7411(3) 0.29255(18) 0.2855(2)
H18 H 0.8052 0.2773 0.3031
C28 C 0.4589(3) 0.01312(17) 0.1138(2)
H19 H 0.5164 0.0105 0.0939
C29 C 0.3815(3) 0.05253(16) 0.0897(2)
C30 C 0.4257(3) 0.25059(17) 0.0881(2)
C31 C 0.4144(3) -0.02330(17) 0.3202(2)
C32 C 0.3573(3) 0.01200(18) 0.3544(2)
C33 C 0.6959(3) 0.14308(17) 0.4481(2)
H20 H 0.7386 0.1102 0.4515
C34 C 0.4056(3) 0.04407(18) 0.4075(2)
H21 H 0.3661 0.0678 0.4298
C35 C 0.4530(3) -0.02227(18) 0.1666(2)
C36 C 0.2921(3) 0.02117(18) 0.1749(2)
H22 H 0.2356 0.0245 0.1956
C37 C 0.7060(3) 0.30410(17) 0.3990(2)
H23 H 0.7802 0.3067 0.4108
H24 H 0.6764 0.3361 0.4203
C38 C 0.5525(3) 0.33666(18) 0.2320(2)
H25 H 0.4883 0.3518 0.2145
C39 C 0.2636(3) 0.2909(2) 0.1051(2)
H26 H 0.2523 0.2587 0.1335
H27 H 0.2274 0.2822 0.0618
C40 C 0.5660(3) 0.00440(18) 0.3948(2)
C41 C 0.6165(3) 0.31722(17) 0.1909(2)
C42 C 0.5823(3) 0.31700(18) 0.1183(2)
H28 H 0.5340 0.3490 0.1061
H29 H 0.6413 0.3238 0.0975
C43 C 0.5182(3) -0.02692(18) 0.3417(2)
H30 H 0.5575 -0.0512 0.3199
C44 C 0.3909(3) 0.09136(17) 0.03159(19)
H31 H 0.3231 0.0981 0.0063
H32 H 0.4318 0.0711 0.0042
C45 C 0.3647(3) -0.05487(18) 0.2584(2)
H33 H 0.3988 -0.0925 0.2556
H34 H 0.2932 -0.0627 0.2603
C46 C 0.5617(3) 0.07862(17) 0.4849(2)
H35 H 0.6196 0.0570 0.5087
H36 H 0.5133 0.0855 0.5139
C47 C 0.7086(4) 0.1147(2) 0.0475(3)
H37 H 0.7412 0.1242 0.0914
H38 H 0.7236 0.1461 0.0191
C48 C 0.3712(3) 0.2272(2) 0.4625(3)
H39 H 0.3647 0.2414 0.4183
H40 H 0.3959 0.2594 0.4916
C49 C 0.2258(4) 0.3476(2) 0.1288(3)
H41 H 0.2607 0.3551 0.1722
H42 H 0.1532 0.3449 0.1284
H43 H 0.2393 0.3793 0.1010
C50 C 0.1246(4) 0.0918(3) 0.1127(4)
H44 H 0.1298 0.1025 0.1580
H45 H 0.0977 0.0520 0.1069
C51 C 0.9031(3) 0.1583(2) 0.4323(3)
H46 H 0.8841 0.1218 0.4090
H47 H 0.9076 0.1508 0.4783
C52 C 1.0026(4) 0.1796(3) 0.4189(4)
H48 H 0.9985 0.1847 0.3731
H49 H 1.0552 0.1512 0.4345
H50 H 1.0191 0.2166 0.4405
C53 C 0.8393(4) -0.0312(3) 0.4243(5)
H51 H 0.8570 0.0099 0.4243
H52 H 0.8829 -0.0531 0.4007
H53 H 0.8483 -0.0454 0.4680
C54 C 0.2694(4) 0.2060(3) 0.4752(3)
H54 H 0.2424 0.1770 0.4434
H55 H 0.2226 0.2387 0.4728
H56 H 0.2778 0.1887 0.5176
C55 C 0.7484(4) 0.0576(3) 0.0273(4)
H57 H 0.7323 0.0267 0.0553
H58 H 0.8216 0.0601 0.0302
H59 H 0.7170 0.0490 -0.0165
C56 C 0.7314(4) -0.0389(3) 0.3932(4)
H60 H 0.7250 -0.0337 0.3467
H61 H 0.7087 -0.0785 0.4012
C57 C 0.5683(6) -0.0984(3) 0.1479(3)
H62 H 0.6310 -0.1174 0.1692
H63 H 0.5846 -0.0754 0.1121
C58 C 0.4362(5) 0.3885(3) 0.3216(3)
H64 H 0.3884 0.3701 0.2869
H65 H 0.4590 0.4256 0.3058
C59 C 0.3849(6) 0.3993(4) 0.3787(3)
H66 H 0.3658 0.3623 0.3954
H67 H 0.3245 0.4230 0.3656
H68 H 0.4314 0.4197 0.4117
C60 C 0.1879(4) 0.0300(3) 0.3760(4)
H69 H 0.2129 0.0128 0.4181
H70 H 0.1876 0.0726 0.3806
C61 C 0.4928(7) -0.1437(3) 0.1229(3)
H71 H 0.4765 -0.1666 0.1583
H72 H 0.5208 -0.1690 0.0936
H73 H 0.4315 -0.1251 0.1004
C62 C 0.8845(4) 0.2788(4) 0.2004(3)
H74 H 0.9012 0.2460 0.2302
H75 H 0.9045 0.3151 0.2237
C63 C 0.9401(5) 0.2728(5) 0.1473(4)
H76 H 0.9295 0.2339 0.1292
H77 H 1.0121 0.2789 0.1628
H78 H 0.9156 0.3016 0.1147
C64 C 0.0552(4) 0.1334(3) 0.0716(4)
H79 H 0.0830 0.1726 0.0771
H80 H -0.0113 0.1326 0.0840
H81 H 0.0491 0.1220 0.0270
C65 C 0.0855(5) 0.0093(4) 0.3519(5)
H82 H 0.0564 0.0318 0.3143
H83 H 0.0439 0.0141 0.3848
H84 H 0.0878 -0.0316 0.3405
loop_
_geom_bond_atom_site_label_1
_geom_bond_atom_site_label_2
_geom_bond_site_symmetry_1
_geom_bond_site_symmetry_2
N1 C1 1_555 1_555
C1 H1 1_555 1_555
C2 C1 1_555 1_555
H2 C2 1_555 1_555
N2 C2 1_555 1_555
C3 N1 1_555 1_555
H3 C3 1_555 1_555
N3 C4 1_555 1_555
C4 H4 1_555 1_555
N4 C4 1_555 1_555
C5 N4 1_555 1_555
H5 C5 1_555 1_555
C6 N3 1_555 1_555
H6 C6 1_555 1_555
C7 H7 1_555 1_555
H8 C7 1_555 1_555
C8 N3 1_555 1_555
H9 C8 1_555 1_555
H10 C8 1_555 1_555
C9 C7 1_555 1_555
H11 C9 1_555 1_555
H12 C9 1_555 1_555
C10 N1 1_555 1_555
H13 C10 1_555 1_555
H14 C10 1_555 1_555
O1 C15 1_555 1_555
O2 C30 1_555 1_555
O3 C11 1_555 1_555
O4 C40 1_555 1_555
O5 C17 1_555 1_555
C11 C23 1_555 1_555
O6 C24 1_555 1_555
O7 C25 1_555 1_555
C12 C23 1_555 1_555
O8 C35 1_555 1_555
C13 C18 1_555 1_555
C14 C15 1_555 1_555
C15 C18 1_555 1_555
C16 C17 1_555 1_555
O9 C19 1_555 1_555
C17 C38 1_555 1_555
C18 H15 1_555 1_555
C19 C27 1_555 1_555
C20 C35 1_555 1_555
C21 C34 1_555 1_555
C22 H16 1_555 1_555
C23 H17 1_555 1_555
C24 C13 1_555 1_555
C25 C29 1_555 1_555
C26 C11 1_555 1_555
O10 C32 1_555 1_555
C27 C16 1_555 1_555
H18 C27 1_555 1_555
C28 H19 1_555 1_555
C29 C28 1_555 1_555
C30 C12 1_555 1_555
C31 C32 1_555 1_555
C32 C34 1_555 1_555
C33 C14 1_555 1_555
H20 C33 1_555 1_555
C34 H21 1_555 1_555
C35 C28 1_555 1_555
C36 C20 1_555 1_555
H22 C36 1_555 1_555
C37 C13 1_555 1_555
H23 C37 1_555 1_555
H24 C37 1_555 1_555
C38 H25 1_555 1_555
C39 O2 1_555 1_555
H26 C39 1_555 1_555
H27 C39 1_555 1_555
C40 C21 1_555 1_555
C41 C19 1_555 1_555
C42 C12 1_555 1_555
H28 C42 1_555 1_555
H29 C42 1_555 1_555
C43 C31 1_555 1_555
H30 C43 1_555 1_555
C44 C26 1_555 1_555
H31 C44 1_555 1_555
H32 C44 1_555 1_555
C45 C20 1_555 1_555
H33 C45 1_555 1_555
H34 C45 1_555 1_555
C46 C14 1_555 1_555
H35 C46 1_555 1_555
H36 C46 1_555 1_555
C47 O3 1_555 1_555
H37 C47 1_555 1_555
H38 C47 1_555 1_555
C48 O1 1_555 1_555
H39 C48 1_555 1_555
H40 C48 1_555 1_555
C49 C39 1_555 1_555
H41 C49 1_555 1_555
H42 C49 1_555 1_555
H43 C49 1_555 1_555
C50 O7 1_555 1_555
H44 C50 1_555 1_555
H45 C50 1_555 1_555
C51 O6 1_555 1_555
H46 C51 1_555 1_555
H47 C51 1_555 1_555
C52 C51 1_555 1_555
H48 C52 1_555 1_555
H49 C52 1_555 1_555
H50 C52 1_555 1_555
C53 H51 1_555 1_555
H52 C53 1_555 1_555
H53 C53 1_555 1_555
C54 C48 1_555 1_555
H54 C54 1_555 1_555
H55 C54 1_555 1_555
H56 C54 1_555 1_555
C55 C47 1_555 1_555
H57 C55 1_555 1_555
H58 C55 1_555 1_555
H59 C55 1_555 1_555
C56 O4 1_555 1_555
H60 C56 1_555 1_555
H61 C56 1_555 1_555
C57 O8 1_555 1_555
H62 C57 1_555 1_555
H63 C57 1_555 1_555
C58 O5 1_555 1_555
H64 C58 1_555 1_555
H65 C58 1_555 1_555
C59 C58 1_555 1_555
H66 C59 1_555 1_555
H67 C59 1_555 1_555
H68 C59 1_555 1_555
C60 O10 1_555 1_555
H69 C60 1_555 1_555
H70 C60 1_555 1_555
C61 C57 1_555 1_555
H71 C61 1_555 1_555
H72 C61 1_555 1_555
H73 C61 1_555 1_555
C62 O9 1_555 1_555
H74 C62 1_555 1_555
H75 C62 1_555 1_555
C63 C62 1_555 1_555
H76 C63 1_555 1_555
H77 C63 1_555 1_555
H78 C63 1_555 1_555
C64 C50 1_555 1_555
H79 C64 1_555 1_555
H80 C64 1_555 1_555
H81 C64 1_555 1_555
C65 C60 1_555 1_555
H82 C65 1_555 1_555
H83 C65 1_555 1_555
H84 C65 1_555 1_555
N2 C3 1_555 1_555
C5 C6 1_555 1_555
C7 C8 1_555 1_555
C9 C10 1_555 1_555
C16 C37 1_555 1_555
C21 C46 1_555 1_555
C22 C26 1_555 1_555
C22 C30 1_555 1_555
C24 C33 1_555 1_555
C25 C36 1_555 1_555
C29 C44 1_555 1_555
C31 C45 1_555 1_555
C38 C41 1_555 1_555
C40 C43 1_555 1_555
C41 C42 1_555 1_555
C53 C56 1_555 1_555

#END
