
#######################################################################
#
#                 Cambridge Crystallographic Data Centre
#                                CCDC 
#
#######################################################################
#
# If this CIF has been generated from an entry in the Cambridge 
# Structural Database, then it will include bibliographic, chemical, 
# crystal, experimental, refinement or atomic coordinate data resulting 
# from the CCDC's data processing and validation procedures.
#
#######################################################################

data_ECEGOJ
_chemical_formula_moiety         'C15 H20 N2 O5,H2 O1'
_chemical_name_systematic        
'2-Ethoxy-4-methyl-1-(\b-D-erythro-pentofuranosyl)-1H-benzimidazole monohydrate'
_symmetry_cell_setting           monoclinic
_symmetry_space_group_name_H-M   'P 21'
_symmetry_Int_Tables_number      4
_space_group_name_Hall           'P 2yb'
loop_
_symmetry_equiv_pos_site_id
_symmetry_equiv_pos_as_xyz
1 x,y,z
2 -x,1/2+y,-z
_cell_length_a                   5.0919(13)
_cell_length_b                   15.305(4)
_cell_length_c                   10.026(3)
_cell_angle_alpha                90
_cell_angle_beta                 92.181(4)
_cell_angle_gamma                90
_cell_volume                     780.776
_exptl_crystal_colour            colorless
_exptl_crystal_description       block
_cell_formula_units_Z            2
loop_
_atom_site_label
_atom_site_type_symbol
_atom_site_fract_x
_atom_site_fract_y
_atom_site_fract_z
N1 N 0.6884(5) 0.44363(17) 0.2224(2)
N2 N 0.6952(5) 0.48351(16) 0.4399(2)
O1 O 0.7673(4) 0.43557(15) -0.00380(18)
O2 O 0.5842(5) 0.23448(15) 0.0975(2)
H1 H 0.424(12) 0.204(4) 0.123(6)
O3 O 0.3356(7) 0.2686(2) -0.1421(3)
H2 H 0.435(11) 0.232(4) -0.128(6)
O4 O 0.8217(5) 0.49069(16) -0.2806(2)
H3 H 0.793(8) 0.496(3) -0.358(4)
O5 O 0.9806(4) 0.37280(15) 0.36530(19)
C1 C 0.7277(6) 0.3845(2) 0.1124(3)
H4 H 0.8864 0.3499 0.1321
C2 C 0.4964(6) 0.3218(2) 0.0813(3)
H5 H 0.3500 0.3339 0.1392
C3 C 0.4188(6) 0.3419(2) -0.0655(3)
H6 H 0.2742 0.3841 -0.0666
C4 C 0.6615(6) 0.3879(2) -0.1177(3)
H7 H 0.7893 0.3448 -0.1471
C5 C 0.5951(7) 0.4511(2) -0.2277(3)
H8 H 0.4984 0.4207 -0.2988
H9 H 0.4819 0.4963 -0.1941
C6 C 0.7954(6) 0.4333(2) 0.3495(3)
C7 C 0.4957(6) 0.50846(19) 0.2318(3)
C8 C 0.5010(6) 0.53270(19) 0.3674(3)
C9 C 0.3272(6) 0.5950(2) 0.4135(3)
C10 C 0.1580(7) 0.6322(2) 0.3176(4)
H10 H 0.0406 0.6748 0.3443
C11 C 0.1560(7) 0.6089(2) 0.1839(4)
H11 H 0.0382 0.6360 0.1241
C12 C 0.3250(7) 0.5464(2) 0.1377(3)
H12 H 0.3244 0.5305 0.0482
C13 C 0.3149(7) 0.6170(2) 0.5592(3)
H13 H 0.2089 0.5745 0.6026
H14 H 0.2389 0.6739 0.5689
H15 H 0.4892 0.6166 0.5992
C14 C 1.0859(6) 0.3585(2) 0.4995(3)
H16 H 0.9487 0.3388 0.5569
H17 H 1.1607 0.4121 0.5360
C15 C 1.2935(7) 0.2901(2) 0.4895(4)
H18 H 1.2193 0.2390 0.4472
H19 H 1.3610 0.2753 0.5773
H20 H 1.4335 0.3120 0.4374
O6 O 0.1222(5) 0.15722(18) 0.1609(3)
H21 H -0.0315 0.1762 0.1444
H22 H 0.1204 0.1059 0.1934
loop_
_geom_bond_atom_site_label_1
_geom_bond_atom_site_label_2
_geom_bond_site_symmetry_1
_geom_bond_site_symmetry_2
N1 C1 1_555 1_555
N2 C6 1_555 1_555
O1 C1 1_555 1_555
O2 H1 1_555 1_555
O3 H2 1_555 1_555
O4 H3 1_555 1_555
O5 C6 1_555 1_555
C1 H4 1_555 1_555
C2 O2 1_555 1_555
H5 C2 1_555 1_555
C3 O3 1_555 1_555
H6 C3 1_555 1_555
C4 O1 1_555 1_555
H7 C4 1_555 1_555
C5 O4 1_555 1_555
H8 C5 1_555 1_555
H9 C5 1_555 1_555
C6 N1 1_555 1_555
C7 N1 1_555 1_555
C8 N2 1_555 1_555
C9 C8 1_555 1_555
C10 C9 1_555 1_555
H10 C10 1_555 1_555
C11 C10 1_555 1_555
H11 C11 1_555 1_555
C12 C7 1_555 1_555
H12 C12 1_555 1_555
C13 C9 1_555 1_555
H13 C13 1_555 1_555
H14 C13 1_555 1_555
H15 C13 1_555 1_555
C14 O5 1_555 1_555
H16 C14 1_555 1_555
H17 C14 1_555 1_555
C15 C14 1_555 1_555
H18 C15 1_555 1_555
H19 C15 1_555 1_555
H20 C15 1_555 1_555
O6 H21 1_555 1_555
H22 O6 1_555 1_555
C1 C2 1_555 1_555
C2 C3 1_555 1_555
C3 C4 1_555 1_555
C4 C5 1_555 1_555
C7 C8 1_555 1_555
C11 C12 1_555 1_555

#END
