
#######################################################################
#
#                 Cambridge Crystallographic Data Centre
#                                CCDC 
#
#######################################################################
#
# If this CIF has been generated from an entry in the Cambridge 
# Structural Database, then it will include bibliographic, chemical, 
# crystal, experimental, refinement or atomic coordinate data resulting 
# from the CCDC's data processing and validation procedures.
#
#######################################################################

data_ECELAC
_chemical_formula_moiety         'C14 H18 O3'
_chemical_name_systematic        
4,4a,5,5-tetramethylhexahydro-1aH-cyclopropa[1,2]indeno[3a,4-b]oxirene-2,6-dione
_symmetry_cell_setting           monoclinic
_symmetry_space_group_name_H-M   'P 21'
_symmetry_Int_Tables_number      4
_space_group_name_Hall           'P 2yb'
loop_
_symmetry_equiv_pos_site_id
_symmetry_equiv_pos_as_xyz
1 x,y,z
2 -x,1/2+y,-z
_cell_length_a                   9.6605(19)
_cell_length_b                   6.9639(14)
_cell_length_c                   9.7024(19)
_cell_angle_alpha                90
_cell_angle_beta                 108.44(3)
_cell_angle_gamma                90
_cell_volume                     619.213
_cell_formula_units_Z            2
loop_
_atom_site_label
_atom_site_type_symbol
_atom_site_fract_x
_atom_site_fract_y
_atom_site_fract_z
O1 O 0.21602(17) 0.2657(2) 1.12734(19)
O2 O 0.44468(15) 0.1725(2) 0.91310(15)
O3 O 0.36979(17) 0.4933(2) 0.67987(18)
C1 C 0.3407(2) 0.2890(3) 0.9550(3)
H1 H 0.3624 0.4282 0.9766
C2 C 0.2620(2) 0.1806(4) 1.0400(2)
C3 C 0.2383(2) -0.0313(4) 1.0100(2)
H2 H 0.1473 -0.0682 1.0295
H3 H 0.3194 -0.1009 1.0808
C4 C 0.2275(2) -0.1048(3) 0.8540(2)
H4 H 0.3252 -0.1568 0.8581
C5 C 0.1934(2) 0.0647(3) 0.7480(2)
C6 C 0.1943(2) 0.0308(3) 0.5922(2)
H5 H 0.1007 -0.0157 0.5215
C7 C 0.2642(2) 0.2082(3) 0.5450(2)
H6 H 0.2138 0.2694 0.4490
C8 C 0.3215(2) 0.3313(3) 0.6748(3)
C9 C 0.3070(2) 0.2206(3) 0.8029(2)
C10 C 0.3280(2) 0.0036(3) 0.5487(2)
C11 C 0.4778(2) -0.0493(3) 0.6494(2)
H7 H 0.4813 -0.1874 0.6696
H8 H 0.4977 0.0221 0.7406
H9 H 0.5515 -0.0170 0.6032
C12 C 0.3002(2) -0.0799(4) 0.3990(2)
H10 H 0.2991 -0.2204 0.4046
H11 H 0.3777 -0.0392 0.3602
H12 H 0.2058 -0.0345 0.3348
C13 C 0.0419(2) 0.1565(3) 0.7327(2)
H13 H 0.0327 0.2786 0.6803
H14 H 0.0338 0.1796 0.8295
H15 H -0.0358 0.0690 0.6788
C14 C 0.1171(2) -0.2679(3) 0.8074(3)
H16 H 0.0200 -0.2206 0.8021
H17 H 0.1450 -0.3724 0.8785
H18 H 0.1153 -0.3154 0.7118
loop_
_geom_bond_atom_site_label_1
_geom_bond_atom_site_label_2
_geom_bond_site_symmetry_1
_geom_bond_site_symmetry_2
O1 C2 1_555 1_555
O2 C1 1_555 1_555
O3 C8 1_555 1_555
C1 H1 1_555 1_555
C2 C1 1_555 1_555
C3 C2 1_555 1_555
H2 C3 1_555 1_555
H3 C3 1_555 1_555
C4 C3 1_555 1_555
H4 C4 1_555 1_555
C5 C4 1_555 1_555
C6 C5 1_555 1_555
H5 C6 1_555 1_555
C7 C6 1_555 1_555
H6 C7 1_555 1_555
C8 C7 1_555 1_555
C9 O2 1_555 1_555
C10 C6 1_555 1_555
C11 C10 1_555 1_555
H7 C11 1_555 1_555
H8 C11 1_555 1_555
H9 C11 1_555 1_555
C12 C10 1_555 1_555
H10 C12 1_555 1_555
H11 C12 1_555 1_555
H12 C12 1_555 1_555
C13 C5 1_555 1_555
H13 C13 1_555 1_555
H14 C13 1_555 1_555
H15 C13 1_555 1_555
C14 C4 1_555 1_555
H16 C14 1_555 1_555
H17 C14 1_555 1_555
H18 C14 1_555 1_555
C1 C9 1_555 1_555
C5 C9 1_555 1_555
C7 C10 1_555 1_555
C8 C9 1_555 1_555

#END
