
#######################################################################
#
#                 Cambridge Crystallographic Data Centre
#                                CCDC 
#
#######################################################################
#
# If this CIF has been generated from an entry in the Cambridge 
# Structural Database, then it will include bibliographic, chemical, 
# crystal, experimental, refinement or atomic coordinate data resulting 
# from the CCDC's data processing and validation procedures.
#
#######################################################################

data_ECEMEG
_chemical_formula_moiety         'C15 H26 O2 Si1'
_chemical_name_systematic        (3-Hydroxy-1-phenylheptyl)(dimethyl)silanol
_symmetry_cell_setting           monoclinic
_symmetry_space_group_name_H-M   'P 21/c'
_symmetry_Int_Tables_number      14
_space_group_name_Hall           '-P 2ybc'
loop_
_symmetry_equiv_pos_site_id
_symmetry_equiv_pos_as_xyz
1 x,y,z
2 -x,1/2+y,1/2-z
3 -x,-y,-z
4 x,1/2-y,1/2+z
_cell_length_a                   10.8246(6)
_cell_length_b                   7.3636(4)
_cell_length_c                   20.8150(11)
_cell_angle_alpha                90
_cell_angle_beta                 96.456(3)
_cell_angle_gamma                90
_cell_volume                     1648.6
_cell_formula_units_Z            4
loop_
_atom_site_label
_atom_site_type_symbol
_atom_site_fract_x
_atom_site_fract_y
_atom_site_fract_z
Si1 Si 0.16649(5) 0.29841(7) 0.36791(3)
O1 O 0.09223(15) 0.1900(2) 0.30613(9)
H1 H 0.0332 0.2515 0.2905
O2 O 0.09846(15) 0.8454(2) 0.26223(9)
H2 H 0.1004 0.9484 0.2774
C1 C 0.17282(19) 0.5475(3) 0.34737(10)
H3 H 0.0867 0.5910 0.3421
C2 C 0.23904(19) 0.6500(3) 0.40417(10)
C3 C 0.1723(2) 0.7386(3) 0.44784(10)
H4 H 0.0859 0.7411 0.4405
C4 C 0.2319(2) 0.8237(3) 0.50228(11)
H5 H 0.1852 0.8818 0.5311
C5 C 0.3593(2) 0.8226(3) 0.51387(11)
H6 H 0.3991 0.8786 0.5505
C6 C 0.4270(2) 0.7379(3) 0.47075(11)
H7 H 0.5134 0.7378 0.4780
C7 C 0.3678(2) 0.6525(3) 0.41654(11)
H8 H 0.4152 0.5957 0.3878
C8 C 0.3230(2) 0.1949(3) 0.38074(11)
H9 H 0.3154 0.0675 0.3892
H10 H 0.3704 0.2520 0.4170
H11 H 0.3644 0.2115 0.3427
C9 C 0.0841(3) 0.2719(4) 0.44052(15)
H12 H 0.0063 0.3356 0.4342
H13 H 0.1343 0.3210 0.4774
H14 H 0.0691 0.1454 0.4476
C10 C 0.2244(2) 0.5817(3) 0.28290(10)
H15 H 0.3095 0.5381 0.2863
H16 H 0.1765 0.5108 0.2496
C11 C 0.2227(2) 0.7797(3) 0.26157(11)
H17 H 0.2786 0.8499 0.2925
C12 C 0.2637(3) 0.8009(4) 0.19452(13)
H18 H 0.2055 0.7440 0.1617
H19 H 0.3461 0.7512 0.1924
C13 C 0.2626(3) 1.0167(4) 0.18754(13)
H20 H 0.1870 1.0639 0.2022
H21 H 0.3324 1.0666 0.2153
C14 C 0.2699(8) 1.0766(8) 0.1218(3)
H22 H 0.2001 1.0264 0.0941
H23 H 0.3455 1.0293 0.1072
C15 C 0.2688(8) 1.2809(8) 0.1146(4)
H24 H 0.2757 1.3122 0.0703
H25 H 0.3376 1.3318 0.1418
H26 H 0.1924 1.3284 0.1270
C16? C 0.2605(7) 0.9781(8) 0.1572(3)
C17? C 0.3526(7) 1.1102(8) 0.1896(3)
C18? C 0.3488(9) 1.2944(9) 0.1559(4)
H27? H 0.3489 0.7583 0.1977
H28? H 0.2147 0.7150 0.1670
H29? H 0.2798 0.9549 0.1135
H30? H 0.1777 1.0298 0.1545
H31? H 0.4355 1.0596 0.1904
H32? H 0.3357 1.1271 0.2340
H33? H 0.4109 1.3725 0.1778
H34? H 0.2682 1.3480 0.1568
H35? H 0.3650 1.2786 0.1118
loop_
_geom_bond_atom_site_label_1
_geom_bond_atom_site_label_2
_geom_bond_site_symmetry_1
_geom_bond_site_symmetry_2
Si1 O1 1_555 1_555
O1 H1 1_555 1_555
O2 H2 1_555 1_555
C1 Si1 1_555 1_555
H3 C1 1_555 1_555
C2 C1 1_555 1_555
C3 C2 1_555 1_555
H4 C3 1_555 1_555
C4 C3 1_555 1_555
H5 C4 1_555 1_555
C5 C4 1_555 1_555
H6 C5 1_555 1_555
C6 C5 1_555 1_555
H7 C6 1_555 1_555
C7 C2 1_555 1_555
H8 C7 1_555 1_555
C8 Si1 1_555 1_555
H9 C8 1_555 1_555
H10 C8 1_555 1_555
H11 C8 1_555 1_555
C9 Si1 1_555 1_555
H12 C9 1_555 1_555
H13 C9 1_555 1_555
H14 C9 1_555 1_555
C10 C1 1_555 1_555
H15 C10 1_555 1_555
H16 C10 1_555 1_555
C11 O2 1_555 1_555
H17 C11 1_555 1_555
C12 C11 1_555 1_555
H18 C12 1_555 1_555
H19 C12 1_555 1_555
C13 C12 1_555 1_555
H20 C13 1_555 1_555
H21 C13 1_555 1_555
C14 C13 1_555 1_555
H22 C14 1_555 1_555
H23 C14 1_555 1_555
C15 C14 1_555 1_555
H24 C15 1_555 1_555
H25 C15 1_555 1_555
H26 C15 1_555 1_555
C6 C7 1_555 1_555
C10 C11 1_555 1_555

#END
