
#######################################################################
#
#                 Cambridge Crystallographic Data Centre
#                                CCDC 
#
#######################################################################
#
# If this CIF has been generated from an entry in the Cambridge 
# Structural Database, then it will include bibliographic, chemical, 
# crystal, experimental, refinement or atomic coordinate data resulting 
# from the CCDC's data processing and validation procedures.
#
#######################################################################

data_ECEZOD
_chemical_name_common            'Diatrizoic acid dimethyl sulfoxide solvate'
_chemical_formula_moiety         'C11 H9 I3 N2 O4,C2 H6 O1 S1'
_chemical_name_systematic        
'3,5-Diacetamido-2,4,6-triiodobenzoic acid dimethyl sulfoxide solvate'
_symmetry_cell_setting           orthorhombic
_symmetry_space_group_name_H-M   'P n m a'
_symmetry_Int_Tables_number      62
_space_group_name_Hall           '-P 2ac 2n'
loop_
_symmetry_equiv_pos_site_id
_symmetry_equiv_pos_as_xyz
1 x,y,z
2 1/2+x,1/2-y,1/2-z
3 -x,1/2+y,-z
4 1/2-x,-y,1/2+z
5 -x,-y,-z
6 1/2-x,1/2+y,1/2+z
7 x,1/2-y,z
8 1/2+x,y,1/2-z
_cell_length_a                   19.3415(5)
_cell_length_b                   12.5777(4)
_cell_length_c                   8.9696(2)
_cell_angle_alpha                90
_cell_angle_beta                 90
_cell_angle_gamma                90
_cell_volume                     2182.05
_exptl_crystal_colour            colorless
_exptl_crystal_description       block
_cell_formula_units_Z            4
loop_
_atom_site_label
_atom_site_type_symbol
_atom_site_fract_x
_atom_site_fract_y
_atom_site_fract_z
H1 H 0.517(6) 0.250000 0.667(12)
H2 H 0.7229(2) 0.4715(3) 0.1089(4)
H3 H 0.8503(6) 0.6020(19) 0.260(6)
H4 H 0.792(3) 0.606(2) 0.1341(16)
H5 H 0.778(2) 0.6580(5) 0.294(5)
C1 C 0.5431(3) 0.250000 0.4590(9)
C2 C 0.6067(3) 0.250000 0.3606(7)
C3 C 0.6370(2) 0.3454(3) 0.3174(5)
C4 C 0.6987(2) 0.3466(3) 0.2371(4)
C5 C 0.7294(3) 0.250000 0.2003(6)
C6 C 0.7720(3) 0.4958(4) 0.2954(6)
C7 C 0.8004(4) 0.5995(5) 0.2413(8)
N1 N 0.7303(2) 0.4441(3) 0.1978(4)
O1 O 0.5581(3) 0.250000 0.5973(6)
O2 O 0.4855(3) 0.250000 0.4084(7)
O3 O 0.7836(3) 0.4594(4) 0.4188(4)
I1 I 0.58891(2) 0.49010(3) 0.36858(5)
I2 I 0.82534(3) 0.250000 0.09299(6)
H2F H 0.7229(2) 0.0285(3) 0.1089(4)
H3F H 0.8503(6) -0.1020(19) 0.260(6)
H4F H 0.792(3) -0.106(2) 0.1341(16)
H5F H 0.778(2) -0.1580(5) 0.294(5)
C3F C 0.6370(2) 0.1546(3) 0.3174(5)
C4F C 0.6987(2) 0.1534(3) 0.2371(4)
C6F C 0.7720(3) 0.0042(4) 0.2954(6)
C7F C 0.8004(4) -0.0995(5) 0.2413(8)
N1F N 0.7303(2) 0.0559(3) 0.1978(4)
O3F O 0.7836(3) 0.0406(4) 0.4188(4)
I1F I 0.58891(2) 0.00990(3) 0.36858(5)
C8 C 0.4551(17) 0.1486(16) 1.032(2)
O4 O 0.4560(4) 0.250000 0.7739(8)
S1 S 0.4590(5) 0.250000 0.9307(6)
C8F C 0.4551(17) 0.3514(16) 1.032(2)
loop_
_geom_bond_atom_site_label_1
_geom_bond_atom_site_label_2
_geom_bond_site_symmetry_1
_geom_bond_site_symmetry_2
H1 O1 1_555 1_555
H2 N1 1_555 1_555
H3 C7 1_555 1_555
H4 C7 1_555 1_555
H5 C7 1_555 1_555
C1 C2 1_555 1_555
C2 C3 1_555 1_555
C3 C4 1_555 1_555
C4 C5 1_555 1_555
C5 I2 1_555 1_555
C6 C7 1_555 1_555
N1 C4 1_555 1_555
O1 C1 1_555 1_555
O2 C1 1_555 1_555
O3 C6 1_555 1_555
I1 C3 1_555 1_555
C8 S1 1_555 1_555
O4 S1 1_555 1_555
S1 C8F 1_555 1_555
H2F N1F 1_555 1_555
H3F C7F 1_555 1_555
H4F C7F 1_555 1_555
H5F C7F 1_555 1_555
C3F C2 1_555 1_555
C4F C5 1_555 1_555
C6F C7F 1_555 1_555
N1F C4F 1_555 1_555
O3F C6F 1_555 1_555
I1F C3F 1_555 1_555
C6 N1 1_555 1_555
C3F C4F 1_555 1_555
C6F N1F 1_555 1_555

#END
