
#######################################################################
#
#                 Cambridge Crystallographic Data Centre
#                                CCDC 
#
#######################################################################
#
# If this CIF has been generated from an entry in the Cambridge 
# Structural Database, then it will include bibliographic, chemical, 
# crystal, experimental, refinement or atomic coordinate data resulting 
# from the CCDC's data processing and validation procedures.
#
#######################################################################

data_ECIBAV
_chemical_name_common            'Diatrizoic acid dimethyl sulfoxide solvate'
_chemical_formula_moiety         'C11 H9 I3 N2 O4,4(C2 H6 O1 S1)'
_chemical_name_systematic        
'3,5-Diacetamido-2,4,6-triiodobenzoic acid dimethyl sulfoxide solvate'
_symmetry_cell_setting           monoclinic
_symmetry_space_group_name_H-M   'P 21/c'
_symmetry_Int_Tables_number      14
_space_group_name_Hall           '-P 2ybc'
loop_
_symmetry_equiv_pos_site_id
_symmetry_equiv_pos_as_xyz
1 x,y,z
2 -x,1/2+y,1/2-z
3 -x,-y,-z
4 x,1/2-y,1/2+z
_cell_length_a                   20.5386(5)
_cell_length_b                   9.6418(2)
_cell_length_c                   16.3885(4)
_cell_angle_alpha                90
_cell_angle_beta                 96.764(1)
_cell_angle_gamma                90
_cell_volume                     3222.81
_cell_formula_units_Z            4
loop_
_atom_site_label
_atom_site_type_symbol
_atom_site_fract_x
_atom_site_fract_y
_atom_site_fract_z
H1 H 0.309(3) -0.2291(7) 0.7251(14)
H2 H 0.38070(16) 0.1653(4) 0.4211(2)
H3 H 0.12445(16) 0.2805(4) 0.5303(2)
H4 H 0.4256(3) 0.396(3) 0.3599(5)
H5 H 0.4711(11) 0.4638(19) 0.4354(11)
H6 H 0.4782(9) 0.3025(14) 0.4150(15)
H7 H 0.0172(6) 0.167(3) 0.3827(4)
H8 H -0.0008(3) 0.123(2) 0.4714(16)
H9 H 0.0287(4) 0.2737(10) 0.4580(18)
C1 C 0.3078(2) -0.0508(5) 0.6989(3)
C2 C 0.2891(2) 0.0375(4) 0.6216(3)
C3 C 0.33706(19) 0.0852(4) 0.5749(2)
C4 C 0.3198(2) 0.1726(4) 0.5073(2)
C5 C 0.2543(2) 0.2102(4) 0.4880(2)
C6 C 0.2058(2) 0.1637(4) 0.5344(2)
C7 C 0.22407(19) 0.0763(4) 0.6015(2)
C8 C 0.3967(2) 0.3456(4) 0.4718(3)
C9 C 0.4473(2) 0.3799(5) 0.4157(3)
C10 C 0.0981(2) 0.1200(5) 0.4635(3)
C11 C 0.0298(2) 0.1759(5) 0.4420(3)
N1 N 0.36848(16) 0.2196(4) 0.4597(2)
N2 N 0.13908(16) 0.2020(4) 0.5121(2)
O1 O 0.29455(17) -0.1813(3) 0.6840(2)
O2 O 0.33060(18) -0.0026(3) 0.7630(2)
O3 O 0.38065(17) 0.4270(3) 0.5237(2)
O4 O 0.11568(16) 0.0077(3) 0.4380(2)
I1 I 0.435263(13) 0.02491(3) 0.603739(17)
I2 I 0.227456(14) 0.33388(3) 0.384221(17)
I3 I 0.150755(13) 0.00716(3) 0.672130(17)
H10 H 0.3668(8) -0.1528(12) 0.894(2)
H11 H 0.3896(12) -0.232(3) 0.9784(4)
H12 H 0.4186(6) -0.277(2) 0.896(2)
H13 H 0.2128(6) -0.326(3) 0.938(2)
H14 H 0.2690(10) -0.282(4) 1.0096(4)
H15 H 0.2503(15) -0.1819(13) 0.9324(19)
C12 C 0.3796(3) -0.2428(6) 0.9187(4)
C13 C 0.2549(3) -0.2787(6) 0.9504(4)
O5 O 0.29124(17) -0.3468(3) 0.8062(2)
S1 S 0.31461(6) -0.36229(12) 0.89696(7)
H16 H 0.0424(5) -0.102(3) 0.9333(7)
H17 H 0.0956(16) -0.2196(8) 0.9595(3)
H18 H 0.1186(11) -0.071(2) 0.9296(6)
H19 H -0.0088(10) -0.346(3) 0.7688(4)
H20 H 0.0217(4) -0.3945(17) 0.8586(16)
H21 H -0.0263(6) -0.2633(11) 0.8481(18)
C14 C 0.0842(2) -0.1420(5) 0.9218(3)
C15 C 0.0081(2) -0.3142(5) 0.8241(3)
O6 O 0.05174(15) -0.0820(3) 0.76511(19)
S2 S 0.07663(5) -0.20324(12) 0.81815(7)
H22 H 0.1908(4) 0.620(6) 0.5757(19)
H23 H 0.2122(10) 0.628(5) 0.673(2)
H24 H 0.2143(9) 0.4828(10) 0.626(4)
H25 H 0.1554(15) 0.367(2) 0.7304(7)
H26 H 0.1485(17) 0.5075(12) 0.7810(7)
H27 H 0.0858(3) 0.411(3) 0.7574(13)
C16 C 0.1907(3) 0.5708(9) 0.6281(4)
C17 C 0.1265(3) 0.4455(6) 0.7391(3)
O7 O 0.08244(15) 0.4349(3) 0.58196(18)
S3 S 0.10816(7) 0.53745(13) 0.64621(8)
H28 H 0.3356(5) 0.2309(16) 0.2443(16)
H29 H 0.3371(5) 0.148(3) 0.1599(3)
H30 H 0.3136(2) 0.0717(17) 0.2381(17)
H31 H 0.3878(10) -0.1305(14) 0.2172(16)
H32 H 0.4187(17) -0.0611(5) 0.1418(3)
H33 H 0.4657(7) -0.1244(16) 0.2176(16)
C18 C 0.3439(2) 0.1407(5) 0.2200(3)
C19 C 0.4244(2) -0.0753(5) 0.2015(3)
O8 O 0.42866(15) 0.0545(3) 0.34302(18)
S4 S 0.42612(5) 0.08865(12) 0.25203(7)
loop_
_geom_bond_atom_site_label_1
_geom_bond_atom_site_label_2
_geom_bond_site_symmetry_1
_geom_bond_site_symmetry_2
H1 O1 1_555 1_555
H2 N1 1_555 1_555
H3 N2 1_555 1_555
H4 C9 1_555 1_555
H5 C9 1_555 1_555
H6 C9 1_555 1_555
H7 C11 1_555 1_555
H8 C11 1_555 1_555
H9 C11 1_555 1_555
C1 C2 1_555 1_555
C2 C3 1_555 1_555
C3 C4 1_555 1_555
C4 C5 1_555 1_555
C5 C6 1_555 1_555
C6 C7 1_555 1_555
C7 C2 1_555 1_555
C8 C9 1_555 1_555
C10 C11 1_555 1_555
N1 C4 1_555 1_555
N2 C6 1_555 1_555
O1 C1 1_555 1_555
O2 C1 1_555 1_555
O3 C8 1_555 1_555
O4 C10 1_555 1_555
I1 C3 1_555 1_555
I2 C5 1_555 1_555
I3 C7 1_555 1_555
H10 C12 1_555 1_555
H11 C12 1_555 1_555
H12 C12 1_555 1_555
H13 C13 1_555 1_555
H14 C13 1_555 1_555
H15 C13 1_555 1_555
C12 S1 1_555 1_555
C13 S1 1_555 1_555
O5 S1 1_555 1_555
H16 C14 1_555 1_555
H17 C14 1_555 1_555
H18 C14 1_555 1_555
H19 C15 1_555 1_555
H20 C15 1_555 1_555
H21 C15 1_555 1_555
C14 S2 1_555 1_555
C15 S2 1_555 1_555
O6 S2 1_555 1_555
H22 C16 1_555 1_555
H23 C16 1_555 1_555
H24 C16 1_555 1_555
H25 C17 1_555 1_555
H26 C17 1_555 1_555
H27 C17 1_555 1_555
C16 S3 1_555 1_555
C17 S3 1_555 1_555
O7 S3 1_555 1_555
H28 C18 1_555 1_555
H29 C18 1_555 1_555
H30 C18 1_555 1_555
H31 C19 1_555 1_555
H32 C19 1_555 1_555
H33 C19 1_555 1_555
C18 S4 1_555 1_555
C19 S4 1_555 1_555
O8 S4 1_555 1_555
C8 N1 1_555 1_555
C10 N2 1_555 1_555

#END
