
#######################################################################
#
#                 Cambridge Crystallographic Data Centre
#                                CCDC 
#
#######################################################################
#
# If this CIF has been generated from an entry in the Cambridge 
# Structural Database, then it will include bibliographic, chemical, 
# crystal, experimental, refinement or atomic coordinate data resulting 
# from the CCDC's data processing and validation procedures.
#
#######################################################################

data_ECIBAW
_chemical_formula_moiety         'C24 H18 N1 P1'
_chemical_name_systematic        6-(diphenylphosphanyl)pyrido[2,1-a]isoindole
_symmetry_cell_setting           triclinic
_symmetry_space_group_name_H-M   'P -1'
_symmetry_Int_Tables_number      2
_space_group_name_Hall           '-P 1'
loop_
_symmetry_equiv_pos_site_id
_symmetry_equiv_pos_as_xyz
1 x,y,z
2 -x,-y,-z
_cell_length_a                   8.8835(2)
_cell_length_b                   12.9891(2)
_cell_length_c                   16.9506(3)
_cell_angle_alpha                69.9640(10)
_cell_angle_beta                 88.8130(10)
_cell_angle_gamma                81.3560(10)
_cell_volume                     1815.66
_exptl_crystal_colour            colorless
_exptl_crystal_description       block
_cell_formula_units_Z            4
loop_
_atom_site_label
_atom_site_type_symbol
_atom_site_fract_x
_atom_site_fract_y
_atom_site_fract_z
P1 P 0.18525(5) 0.86896(4) 0.04047(3)
N1 N 0.37367(16) 0.88621(13) -0.09747(10)
C1 C 0.29355(18) 0.81888(14) -0.03272(10)
C2 C 0.30515(16) 0.71777(12) -0.04616(9)
C3 C 0.24393(19) 0.62192(14) -0.00183(11)
H1 H 0.1835 0.6194 0.0455
C4 C 0.2717(2) 0.53224(15) -0.02715(12)
H2 H 0.2301 0.4671 0.0029
C5 C 0.3610(2) 0.53458(16) -0.09721(13)
H3 H 0.3788 0.4711 -0.1138
C6 C 0.4220(2) 0.62674(15) -0.14142(12)
H4 H 0.4831 0.6275 -0.1882
C7 C 0.39337(18) 0.72105(14) -0.11708(10)
C8 C 0.43576(18) 0.82751(15) -0.14954(10)
C9 C 0.5228(2) 0.87923(17) -0.21841(11)
H5 H 0.5660 0.8398 -0.2535
C10 C 0.5442(2) 0.98578(18) -0.23416(13)
H6 H 0.6022 1.0213 -0.2805
C11 C 0.4802(2) 1.04381(17) -0.18161(13)
H7 H 0.4954 1.1184 -0.1935
C12 C 0.3972(2) 0.99528(15) -0.11438(12)
H8 H 0.3558 1.0353 -0.0794
C13 C 0.00537(18) 0.81735(14) 0.03525(11)
C14 C -0.0729(2) 0.76199(16) 0.10453(12)
H9 H -0.0308 0.7444 0.1595
C15 C -0.2133(2) 0.73199(17) 0.09384(13)
H10 H -0.2661 0.6940 0.1418
C16 C -0.2762(2) 0.75652(16) 0.01509(13)
H11 H -0.3718 0.7356 0.0084
C17 C -0.1991(2) 0.81177(18) -0.05409(13)
H12 H -0.2417 0.8288 -0.1089
C18 C -0.0605(2) 0.84256(17) -0.04433(12)
H13 H -0.0092 0.8815 -0.0926
C19 C 0.26503(18) 0.77949(14) 0.14446(11)
C20 C 0.38131(19) 0.68990(15) 0.15820(11)
H14 H 0.4211 0.6704 0.1119
C21 C 0.4398(2) 0.62874(16) 0.23875(12)
H15 H 0.5191 0.5678 0.2472
C22 C 0.3834(2) 0.65604(17) 0.30649(12)
H16 H 0.4225 0.6134 0.3616
C23 C 0.2696(2) 0.74577(18) 0.29392(12)
H17 H 0.2311 0.7653 0.3404
C24 C 0.2118(2) 0.80715(17) 0.21351(12)
H18 H 0.1344 0.8692 0.2054
P2 P 0.64117(5) 0.83069(4) 0.51267(3)
N2 N 0.82410(16) 0.89925(12) 0.61058(9)
C25 C 0.75769(19) 0.81196(14) 0.60316(11)
C26 C 0.80917(17) 0.71957(13) 0.67453(10)
C27 C 0.78413(19) 0.60833(15) 0.69992(11)
H19 H 0.7192 0.5857 0.6672
C28 C 0.8544(2) 0.53372(16) 0.77203(12)
H20 H 0.8383 0.4586 0.7890
C29 C 0.9505(2) 0.56543(16) 0.82216(12)
H21 H 0.9982 0.5114 0.8719
C30 C 0.97579(19) 0.67254(16) 0.80006(11)
H22 H 1.0396 0.6938 0.8342
C31 C 0.90530(18) 0.75122(14) 0.72542(10)
C32 C 0.91495(18) 0.86411(14) 0.68454(11)
C33 C 0.9971(2) 0.93935(16) 0.70093(12)
H23 H 1.0602 0.9164 0.7503
C34 C 0.9862(2) 1.04556(17) 0.64572(14)
H24 H 1.0425 1.0964 0.6563
C35 C 0.8911(2) 1.07925(16) 0.57321(13)
H25 H 0.8822 1.1536 0.5356
C36 C 0.8122(2) 1.00784(15) 0.55610(12)
H26 H 0.7486 1.0320 0.5068
C37 C 0.75486(19) 0.74972(15) 0.45680(11)
C38 C 0.8971(2) 0.68689(15) 0.48444(11)
H27 H 0.9382 0.6802 0.5376
C39 C 0.9793(2) 0.63412(17) 0.43527(13)
H28 H 1.0766 0.5918 0.4547
C40 C 0.9210(2) 0.64264(19) 0.35821(14)
H29 H 0.9773 0.6059 0.3247
C41 C 0.7809(3) 0.7046(2) 0.33017(14)
H30 H 0.7400 0.7104 0.2772
C42 C 0.6991(2) 0.7586(2) 0.37833(13)
H31 H 0.6032 0.8024 0.3576
C43 C 0.49356(18) 0.74471(15) 0.55907(11)
C44 C 0.3975(2) 0.77726(17) 0.61507(12)
H32 H 0.4129 0.8399 0.6290
C45 C 0.2804(2) 0.7197(2) 0.65049(13)
H33 H 0.2174 0.7420 0.6895
C46 C 0.2539(2) 0.6302(2) 0.62983(14)
H34 H 0.1728 0.5910 0.6542
C47 C 0.3461(2) 0.59789(18) 0.57360(14)
H35 H 0.3278 0.5365 0.5588
C48 C 0.4659(2) 0.65446(16) 0.53830(12)
H36 H 0.5291 0.6312 0.4998
loop_
_geom_bond_atom_site_label_1
_geom_bond_atom_site_label_2
_geom_bond_site_symmetry_1
_geom_bond_site_symmetry_2
P1 C1 1_555 1_555
N1 C1 1_555 1_555
C1 C2 1_555 1_555
C2 C3 1_555 1_555
C3 H1 1_555 1_555
C4 C3 1_555 1_555
H2 C4 1_555 1_555
C5 C4 1_555 1_555
H3 C5 1_555 1_555
C6 C5 1_555 1_555
H4 C6 1_555 1_555
C7 C2 1_555 1_555
C8 N1 1_555 1_555
C9 C8 1_555 1_555
H5 C9 1_555 1_555
C10 C9 1_555 1_555
H6 C10 1_555 1_555
C11 C10 1_555 1_555
H7 C11 1_555 1_555
C12 N1 1_555 1_555
H8 C12 1_555 1_555
C13 P1 1_555 1_555
C14 C13 1_555 1_555
H9 C14 1_555 1_555
C15 C14 1_555 1_555
H10 C15 1_555 1_555
C16 C15 1_555 1_555
H11 C16 1_555 1_555
C17 C16 1_555 1_555
H12 C17 1_555 1_555
C18 C13 1_555 1_555
H13 C18 1_555 1_555
C19 P1 1_555 1_555
C20 C19 1_555 1_555
H14 C20 1_555 1_555
C21 C20 1_555 1_555
H15 C21 1_555 1_555
C22 C21 1_555 1_555
H16 C22 1_555 1_555
C23 C22 1_555 1_555
H17 C23 1_555 1_555
C24 C19 1_555 1_555
H18 C24 1_555 1_555
P2 C25 1_555 1_555
N2 C25 1_555 1_555
C25 C26 1_555 1_555
C26 C27 1_555 1_555
C27 H19 1_555 1_555
C28 C27 1_555 1_555
H20 C28 1_555 1_555
C29 C28 1_555 1_555
H21 C29 1_555 1_555
C30 C29 1_555 1_555
H22 C30 1_555 1_555
C31 C26 1_555 1_555
C32 N2 1_555 1_555
C33 C32 1_555 1_555
H23 C33 1_555 1_555
C34 C33 1_555 1_555
H24 C34 1_555 1_555
C35 C34 1_555 1_555
H25 C35 1_555 1_555
C36 N2 1_555 1_555
H26 C36 1_555 1_555
C37 P2 1_555 1_555
C38 C37 1_555 1_555
H27 C38 1_555 1_555
C39 C38 1_555 1_555
H28 C39 1_555 1_555
C40 C39 1_555 1_555
H29 C40 1_555 1_555
C41 C40 1_555 1_555
H30 C41 1_555 1_555
C42 C37 1_555 1_555
H31 C42 1_555 1_555
C43 P2 1_555 1_555
C44 C43 1_555 1_555
H32 C44 1_555 1_555
C45 C44 1_555 1_555
H33 C45 1_555 1_555
C46 C45 1_555 1_555
H34 C46 1_555 1_555
C47 C46 1_555 1_555
H35 C47 1_555 1_555
C48 C43 1_555 1_555
H36 C48 1_555 1_555
C6 C7 1_555 1_555
C7 C8 1_555 1_555
C11 C12 1_555 1_555
C17 C18 1_555 1_555
C23 C24 1_555 1_555
C30 C31 1_555 1_555
C31 C32 1_555 1_555
C35 C36 1_555 1_555
C41 C42 1_555 1_555
C47 C48 1_555 1_555

#END
