
#######################################################################
#
#                 Cambridge Crystallographic Data Centre
#                                CCDC 
#
#######################################################################
#
# If this CIF has been generated from an entry in the Cambridge 
# Structural Database, then it will include bibliographic, chemical, 
# crystal, experimental, refinement or atomic coordinate data resulting 
# from the CCDC's data processing and validation procedures.
#
#######################################################################

data_ECIGII
_chemical_formula_moiety         'C30 H19 Cl1'
_chemical_name_systematic        
'5-(4-Chlorophenyl)-12-phenyltetracene unknown solvate'
_symmetry_cell_setting           monoclinic
_symmetry_space_group_name_H-M   'P 21/n'
_symmetry_Int_Tables_number      14
_space_group_name_Hall           '-P 2yn'
loop_
_symmetry_equiv_pos_site_id
_symmetry_equiv_pos_as_xyz
1 x,y,z
2 1/2-x,1/2+y,1/2-z
3 -x,-y,-z
4 1/2+x,1/2-y,1/2+z
_cell_length_a                   13.7094(11)
_cell_length_b                   9.4888(8)
_cell_length_c                   19.2635(16)
_cell_angle_alpha                90
_cell_angle_beta                 92.874(2)
_cell_angle_gamma                90
_cell_volume                     2502.76
_exptl_crystal_colour            orange
_exptl_crystal_description       block
_cell_formula_units_Z            4
loop_
_atom_site_label
_atom_site_type_symbol
_atom_site_fract_x
_atom_site_fract_y
_atom_site_fract_z
Cl1 Cl 0.02594(10) 0.8950(2) 0.06166(9)
C1 C 0.3982(3) 0.8836(3) 0.23298(18)
C2 C 0.4893(2) 0.8811(3) 0.20119(17)
C3 C 0.4943(2) 0.8791(3) 0.12807(17)
H1 H 0.4354 0.8778 0.0999
C4 C 0.5831(2) 0.8791(3) 0.09635(17)
C5 C 0.5879(2) 0.8772(3) 0.02183(17)
H2 H 0.5293 0.8727 -0.0065
C6 C 0.6756(3) 0.8816(3) -0.00847(18)
H3 H 0.6777 0.8806 -0.0577
C7 C 0.7641(2) 0.8877(3) 0.03328(18)
H4 H 0.8247 0.8931 0.0116
C8 C 0.7630(2) 0.8860(3) 0.10385(17)
H5 H 0.8230 0.8879 0.1307
C9 C 0.6725(2) 0.8814(3) 0.13840(17)
C10 C 0.6685(2) 0.8820(3) 0.21029(17)
H6 H 0.7278 0.8835 0.2380
C11 C 0.5793(2) 0.8804(3) 0.24325(17)
C12 C 0.5767(2) 0.8807(3) 0.31703(17)
C13 C 0.4863(3) 0.8827(3) 0.34800(17)
C14 C 0.4794(3) 0.8840(3) 0.42193(18)
H7 H 0.5378 0.8837 0.4507
C15 C 0.3922(3) 0.8857(4) 0.45232(19)
H8 H 0.3903 0.8849 0.5016
C16 C 0.3044(3) 0.8888(4) 0.41093(18)
H9 H 0.2438 0.8913 0.4327
C17 C 0.3050(3) 0.8884(3) 0.33983(18)
H10 H 0.2451 0.8894 0.3128
C18 C 0.3964(2) 0.8865(3) 0.30581(17)
C19 C 0.3053(2) 0.8864(3) 0.18989(17)
C20 C 0.2715(3) 0.7662(4) 0.15462(19)
H11 H 0.3088 0.6819 0.1580
C21 C 0.1852(3) 0.7679(4) 0.1150(2)
H12 H 0.1629 0.6852 0.0914
C22 C 0.1307(3) 0.8913(4) 0.10986(19)
C23 C 0.1621(3) 1.0117(4) 0.1445(2)
H13 H 0.1243 1.0955 0.1413
C24 C 0.2495(2) 1.0089(3) 0.18404(17)
H14 H 0.2717 1.0919 0.2075
C25 C 0.6689(3) 0.8819(4) 0.36238(16)
C26 C 0.7207(3) 1.0054(4) 0.37414(19)
H15 H 0.7006 1.0889 0.3502
C27 C 0.8017(3) 1.0093(4) 0.4205(2)
H16 H 0.8361 1.0951 0.4286
C28 C 0.8321(3) 0.8875(4) 0.45490(19)
C29 C 0.7828(3) 0.7616(4) 0.4409(2)
H17 H 0.8047 0.6769 0.4628
C30 C 0.7017(3) 0.7597(4) 0.3950(2)
H18 H 0.6683 0.6735 0.3859
Cl2? Cl 0.91808(19) 0.9049(3) 0.51355(14)
loop_
_geom_bond_atom_site_label_1
_geom_bond_atom_site_label_2
_geom_bond_site_symmetry_1
_geom_bond_site_symmetry_2
Cl1 C22 1_555 1_555
C1 C2 1_555 1_555
C2 C3 1_555 1_555
C3 H1 1_555 1_555
C4 C3 1_555 1_555
C5 C4 1_555 1_555
H2 C5 1_555 1_555
C6 C5 1_555 1_555
H3 C6 1_555 1_555
C7 C6 1_555 1_555
H4 C7 1_555 1_555
C8 C7 1_555 1_555
H5 C8 1_555 1_555
C9 C4 1_555 1_555
C10 C9 1_555 1_555
H6 C10 1_555 1_555
C11 C2 1_555 1_555
C12 C11 1_555 1_555
C13 C12 1_555 1_555
C14 C13 1_555 1_555
H7 C14 1_555 1_555
C15 C14 1_555 1_555
H8 C15 1_555 1_555
C16 C15 1_555 1_555
H9 C16 1_555 1_555
C17 C16 1_555 1_555
H10 C17 1_555 1_555
C18 C1 1_555 1_555
C19 C1 1_555 1_555
C20 C19 1_555 1_555
H11 C20 1_555 1_555
C21 C20 1_555 1_555
H12 C21 1_555 1_555
C22 C21 1_555 1_555
C23 C22 1_555 1_555
H13 C23 1_555 1_555
C24 C19 1_555 1_555
H14 C24 1_555 1_555
C25 C12 1_555 1_555
C26 C25 1_555 1_555
H15 C26 1_555 1_555
C27 C26 1_555 1_555
H16 C27 1_555 1_555
C28 C27 1_555 1_555
C29 C28 1_555 1_555
H17 C29 1_555 1_555
C30 C25 1_555 1_555
H18 C30 1_555 1_555
C8 C9 1_555 1_555
C10 C11 1_555 1_555
C13 C18 1_555 1_555
C17 C18 1_555 1_555
C23 C24 1_555 1_555
C29 C30 1_555 1_555

#END
