
#######################################################################
#
#                 Cambridge Crystallographic Data Centre
#                                CCDC 
#
#######################################################################
#
# If this CIF has been generated from an entry in the Cambridge 
# Structural Database, then it will include bibliographic, chemical, 
# crystal, experimental, refinement or atomic coordinate data resulting 
# from the CCDC's data processing and validation procedures.
#
#######################################################################

data_ECIGOO
_chemical_formula_moiety         'C28 H24'
_chemical_name_systematic        5-Isobutyl-12-phenyltetracene
_symmetry_cell_setting           monoclinic
_symmetry_space_group_name_H-M   'P 21/c'
_symmetry_Int_Tables_number      14
_space_group_name_Hall           '-P 2ybc'
loop_
_symmetry_equiv_pos_site_id
_symmetry_equiv_pos_as_xyz
1 x,y,z
2 -x,1/2+y,1/2-z
3 -x,-y,-z
4 x,1/2-y,1/2+z
_cell_length_a                   19.0506(16)
_cell_length_b                   9.9398(8)
_cell_length_c                   10.6781(9)
_cell_angle_alpha                90
_cell_angle_beta                 102.330(1)
_cell_angle_gamma                90
_cell_volume                     1975.36
_exptl_crystal_colour            yellow
_exptl_crystal_description       block
_chemical_melting_point          '140-141 deg.C'
_cell_formula_units_Z            4
loop_
_atom_site_label
_atom_site_type_symbol
_atom_site_fract_x
_atom_site_fract_y
_atom_site_fract_z
C1 C 0.21121(5) 0.65694(10) 0.73034(10)
C2 C 0.19778(5) 0.54876(9) 0.64047(9)
C3 C 0.13369(5) 0.53968(10) 0.54550(10)
H1 H 0.0984 0.6079 0.5417
C4 C 0.12032(5) 0.43482(11) 0.45731(10)
C5 C 0.05397(6) 0.42344(12) 0.36467(11)
H2 H 0.0172 0.4884 0.3633
C6 C 0.04308(6) 0.32052(13) 0.27866(11)
H3 H -0.0015 0.3140 0.2186
C7 C 0.09730(6) 0.22265(12) 0.27725(11)
H4 H 0.0892 0.1528 0.2151
C8 C 0.16089(6) 0.22845(11) 0.36458(10)
H5 H 0.1967 0.1623 0.3630
C9 C 0.17426(5) 0.33336(10) 0.45872(9)
C10 C 0.23763(5) 0.34004(10) 0.55176(9)
H6 H 0.2732 0.2728 0.5531
C11 C 0.25073(5) 0.44368(9) 0.64424(9)
C12 C 0.31429(5) 0.44469(9) 0.74202(9)
C13 C 0.32510(5) 0.54618(9) 0.83494(9)
C14 C 0.38686(6) 0.54490(11) 0.93943(10)
H7 H 0.4199 0.4723 0.9467
C15 C 0.39897(6) 0.64529(11) 1.02799(11)
H8 H 0.4398 0.6416 1.0968
C16 C 0.35054(6) 0.75596(11) 1.01780(11)
H9 H 0.3599 0.8267 1.0789
C17 C 0.29104(6) 0.76127(10) 0.92125(10)
H10 H 0.2598 0.8365 0.9159
C18 C 0.27409(5) 0.65593(10) 0.82681(9)
C19 C 0.15725(6) 0.77063(11) 0.71417(10)
H11 H 0.1650 0.8238 0.7944
H12 H 0.1082 0.7324 0.6992
C20 C 0.16288(6) 0.86493(11) 0.60148(11)
H13 H 0.1736 0.8080 0.5306
C21 C 0.09149(8) 0.93637(14) 0.55077(14)
H14 H 0.0798 0.9936 0.6183
H15 H 0.0534 0.8694 0.5247
H16 H 0.0954 0.9920 0.4768
C22 C 0.22441(8) 0.96506(12) 0.64028(13)
H17 H 0.2311 1.0150 0.5645
H18 H 0.2687 0.9164 0.6776
H19 H 0.2130 1.0281 0.7037
C23 C 0.36981(5) 0.33867(10) 0.74026(9)
C24 C 0.37359(7) 0.22206(12) 0.81301(11)
H20 H 0.3408 0.2088 0.8676
C25 C 0.42515(7) 0.12436(13) 0.80642(12)
H21 H 0.4272 0.0447 0.8563
C26 C 0.47334(6) 0.14281(12) 0.72760(11)
H22 H 0.5087 0.0763 0.7239
C27 C 0.46998(6) 0.25809(12) 0.65432(11)
H23 H 0.5030 0.2711 0.6001
C28 C 0.41826(6) 0.35493(11) 0.66022(11)
H24 H 0.4158 0.4336 0.6089
loop_
_geom_bond_atom_site_label_1
_geom_bond_atom_site_label_2
_geom_bond_site_symmetry_1
_geom_bond_site_symmetry_2
C1 C2 1_555 1_555
C2 C3 1_555 1_555
C3 H1 1_555 1_555
C4 C3 1_555 1_555
C5 C4 1_555 1_555
H2 C5 1_555 1_555
C6 C5 1_555 1_555
H3 C6 1_555 1_555
C7 C6 1_555 1_555
H4 C7 1_555 1_555
C8 C7 1_555 1_555
H5 C8 1_555 1_555
C9 C4 1_555 1_555
C10 C9 1_555 1_555
H6 C10 1_555 1_555
C11 C2 1_555 1_555
C12 C11 1_555 1_555
C13 C12 1_555 1_555
C14 C13 1_555 1_555
H7 C14 1_555 1_555
C15 C14 1_555 1_555
H8 C15 1_555 1_555
C16 C15 1_555 1_555
H9 C16 1_555 1_555
C17 C16 1_555 1_555
H10 C17 1_555 1_555
C18 C1 1_555 1_555
C19 C1 1_555 1_555
H11 C19 1_555 1_555
H12 C19 1_555 1_555
C20 C19 1_555 1_555
H13 C20 1_555 1_555
C21 C20 1_555 1_555
H14 C21 1_555 1_555
H15 C21 1_555 1_555
H16 C21 1_555 1_555
C22 C20 1_555 1_555
H17 C22 1_555 1_555
H18 C22 1_555 1_555
H19 C22 1_555 1_555
C23 C12 1_555 1_555
C24 C23 1_555 1_555
H20 C24 1_555 1_555
C25 C24 1_555 1_555
H21 C25 1_555 1_555
C26 C25 1_555 1_555
H22 C26 1_555 1_555
C27 C26 1_555 1_555
H23 C27 1_555 1_555
C28 C23 1_555 1_555
H24 C28 1_555 1_555
C8 C9 1_555 1_555
C10 C11 1_555 1_555
C13 C18 1_555 1_555
C17 C18 1_555 1_555
C27 C28 1_555 1_555

#END
