
#######################################################################
#
#                 Cambridge Crystallographic Data Centre
#                                CCDC 
#
#######################################################################
#
# If this CIF has been generated from an entry in the Cambridge 
# Structural Database, then it will include bibliographic, chemical, 
# crystal, experimental, refinement or atomic coordinate data resulting 
# from the CCDC's data processing and validation procedures.
#
#######################################################################

data_ECIRIU
_chemical_formula_moiety         'C2 H10 N6 O2 2+,2(C6 H2 N3 O8 1-),5(H2 O1)'
_chemical_name_systematic        
"2,2'-(hydrazine-1,2-diyldicarbonyl)dihydrazinium bis(3-hydroxy-2,4,6-trinitrophenolate) pentahydrate"
_symmetry_cell_setting           monoclinic
_symmetry_space_group_name_H-M   'P 21/c'
_symmetry_Int_Tables_number      14
_space_group_name_Hall           '-P 2ybc'
loop_
_symmetry_equiv_pos_site_id
_symmetry_equiv_pos_as_xyz
1 x,y,z
2 -x,1/2+y,1/2-z
3 -x,-y,-z
4 x,1/2-y,1/2+z
_cell_length_a                   10.324(2)
_cell_length_b                   9.2938(19)
_cell_length_c                   29.738(6)
_cell_angle_alpha                90
_cell_angle_beta                 99.37(3)
_cell_angle_gamma                90
_cell_volume                     2815.27
_exptl_crystal_colour            yellow
_exptl_crystal_description       block
_cell_formula_units_Z            4
loop_
_atom_site_label
_atom_site_type_symbol
_atom_site_fract_x
_atom_site_fract_y
_atom_site_fract_z
O1 O -0.2378(3) 1.0769(3) 0.12257(9)
O2 O -0.1499(3) 0.8975(3) 0.09206(10)
O3 O 0.0252(2) 1.1925(2) 0.15252(8)
O4 O 0.1609(3) 1.4412(3) 0.15314(8)
O5 O 0.2570(3) 1.4721(3) 0.09454(8)
O6 O 0.0144(3) 1.3618(3) -0.05205(9)
O7 O -0.1195(3) 1.1807(3) -0.06120(8)
O8 O -0.1871(2) 1.0507(3) 0.00714(8)
H1 H -0.1853 1.0631 -0.0207
N1 N -0.1612(3) 1.0260(3) 0.09909(9)
N2 N 0.1719(3) 1.4142(3) 0.11334(9)
N3 N -0.0417(3) 1.2621(3) -0.03624(10)
C1 C -0.0786(3) 1.1270(3) 0.07867(11)
C2 C 0.0109(3) 1.2115(3) 0.10997(11)
C3 C 0.0834(3) 1.3139(3) 0.08675(11)
C4 C 0.0687(3) 1.3244(3) 0.03992(11)
H2 H 0.1204 1.3917 0.0266
C5 C -0.0203(3) 1.2384(3) 0.01209(11)
C6 C -0.0971(3) 1.1355(3) 0.03178(11)
O9 O -0.4219(2) 1.2175(3) 0.42590(8)
O10 O -0.5546(2) 1.3883(2) 0.43820(8)
O11 O -0.6951(3) 1.4401(3) 0.58134(9)
O12 O -0.5672(17) 1.375(2) 0.6418(3)
O13 O -0.4207(2) 1.1342(2) 0.63516(7)
O14 O -0.2866(3) 0.8756(3) 0.57066(9)
O15 O -0.1722(2) 1.0431(3) 0.60896(8)
O16 O -0.2975(2) 1.0675(3) 0.49209(8)
H3 H -0.3194 1.0878 0.4644
N4 N -0.4825(3) 1.2864(3) 0.45210(9)
N5 N -0.6060(3) 1.3634(3) 0.60012(10)
N6 N -0.2666(3) 1.0006(3) 0.58180(9)
C7 C -0.4674(3) 1.2450(3) 0.49877(10)
C8 C -0.5435(3) 1.3140(3) 0.52710(10)
H4 H -0.6063 1.3840 0.5147
C9 C -0.5284(3) 1.2818(3) 0.57266(10)
C10 C -0.4362(3) 1.1739(3) 0.59402(10)
C11 C -0.3638(3) 1.1089(3) 0.56242(10)
C12 C -0.3751(3) 1.1382(3) 0.51652(10)
O18 O -0.4363(2) 0.8861(2) 0.27483(8)
O19 O -0.1149(2) 1.1523(3) 0.24298(9)
N7 N -0.4500(3) 1.0975(3) 0.33281(9)
H5 H -0.3666 1.1149 0.3446
H6 H -0.5035 1.1699 0.3367
H7 H -0.4773 1.0073 0.3348
N8 N -0.4266(3) 1.1262(3) 0.28811(9)
H8 H -0.3844 1.2063 0.2900
N9 N -0.3625(3) 1.0335(3) 0.22374(10)
H9 H -0.3479 0.9589 0.2082
N10 N -0.3332(3) 1.1716(3) 0.21186(9)
H10 H -0.3943 1.2281 0.1991
N11 N -0.1940(3) 1.3554(3) 0.20401(9)
H11 H -0.2374 1.3680 0.1771
N12 N -0.0630(3) 1.4065(3) 0.20819(9)
H12 H -0.0562 1.5008 0.2039
H13 H -0.0123 1.3533 0.1932
H14 H -0.0309 1.4146 0.2377
C13 C -0.4084(3) 1.0078(3) 0.26288(10)
C14 C -0.2059(3) 1.2176(3) 0.22059(10)
O20 O -0.0246(3) 1.4164(3) 0.30359(8)
H15 H -0.0981 1.3854 0.3078
H16 H -0.0041 1.4982 0.3145
O21 O -0.3657(3) 0.7996(3) 0.15825(8)
H17 H -0.2872 0.7726 0.1647
H18 H -0.3740 0.8331 0.1317
O22 O 0.2507(3) 1.1669(3) 0.22487(11)
H19 H 0.3085 1.2302 0.2243
H20 H 0.1943 1.1918 0.2026
O23 O -0.2899(4) 1.3961(4) 0.31640(16)
H21 H -0.2469 1.3512 0.3384
H22 H -0.3560 1.4318 0.3253
O24 O 0.1519(4) 1.1832(5) 0.30417(16)
H23 H 0.1587 1.1843 0.2764
H24 H 0.1015 1.2546 0.3027
O17? O -0.609(4) 1.322(4) 0.6393(7)
O25? O 0.1022(6) 1.1780(6) 0.33294(19)
H25? H 0.0627 1.2452 0.3175
H26? H 0.0823 1.1948 0.3587
loop_
_geom_bond_atom_site_label_1
_geom_bond_atom_site_label_2
_geom_bond_site_symmetry_1
_geom_bond_site_symmetry_2
O1 N1 1_555 1_555
O2 N1 1_555 1_555
O3 C2 1_555 1_555
O4 N2 1_555 1_555
O5 N2 1_555 1_555
O6 N3 1_555 1_555
O7 N3 1_555 1_555
O8 H1 1_555 1_555
N1 C1 1_555 1_555
N2 C3 1_555 1_555
N3 C5 1_555 1_555
C1 C2 1_555 1_555
C2 C3 1_555 1_555
C3 C4 1_555 1_555
C4 H2 1_555 1_555
C5 C4 1_555 1_555
C6 O8 1_555 1_555
O9 N4 1_555 1_555
O10 N4 1_555 1_555
O11 N5 1_555 1_555
O12 N5 1_555 1_555
O13 C10 1_555 1_555
O14 N6 1_555 1_555
O15 N6 1_555 1_555
O16 H3 1_555 1_555
N4 C7 1_555 1_555
N5 C9 1_555 1_555
N6 C11 1_555 1_555
C7 C8 1_555 1_555
C8 H4 1_555 1_555
C9 C8 1_555 1_555
C10 C9 1_555 1_555
C11 C10 1_555 1_555
C12 O16 1_555 1_555
O18 C13 1_555 1_555
O19 C14 1_555 1_555
N7 H5 1_555 1_555
H6 N7 1_555 1_555
H7 N7 1_555 1_555
N8 N7 1_555 1_555
H8 N8 1_555 1_555
N9 H9 1_555 1_555
N10 N9 1_555 1_555
H10 N10 1_555 1_555
N11 H11 1_555 1_555
N12 N11 1_555 1_555
H12 N12 1_555 1_555
H13 N12 1_555 1_555
H14 N12 1_555 1_555
C13 N8 1_555 1_555
C14 N10 1_555 1_555
O20 H15 1_555 1_555
H16 O20 1_555 1_555
O21 H17 1_555 1_555
H18 O21 1_555 1_555
O22 H19 1_555 1_555
H20 O22 1_555 1_555
O23 H21 1_555 1_555
H22 O23 1_555 1_555
O24 H23 1_555 1_555
H24 O24 1_555 1_555
C1 C6 1_555 1_555
C5 C6 1_555 1_555
C7 C12 1_555 1_555
C11 C12 1_555 1_555
N9 C13 1_555 1_555
N11 C14 1_555 1_555

#END
