
#######################################################################
#
#                 Cambridge Crystallographic Data Centre
#                                CCDC 
#
#######################################################################
#
# If this CIF has been generated from an entry in the Cambridge 
# Structural Database, then it will include bibliographic, chemical, 
# crystal, experimental, refinement or atomic coordinate data resulting 
# from the CCDC's data processing and validation procedures.
#
#######################################################################

data_ECITEP
_chemical_formula_moiety         'C6 H4 Se2 Te2'
_chemical_name_systematic        Diselenaditellurafulvalene
_symmetry_cell_setting           triclinic
_symmetry_space_group_name_H-M   'P -1'
_symmetry_Int_Tables_number      2
_space_group_name_Hall           '-P 1'
loop_
_symmetry_equiv_pos_site_id
_symmetry_equiv_pos_as_xyz
1 x,y,z
2 -x,-y,-z
_cell_length_a                   9.088(3)
_cell_length_b                   10.845(3)
_cell_length_c                   8.875(3)
_cell_angle_alpha                106.46(3)
_cell_angle_beta                 109.79(3)
_cell_angle_gamma                104.14(3)
_cell_volume                     731.071
_exptl_crystal_colour            black
_exptl_crystal_description       prismatic
_chemical_melting_point          412-413K
_cell_formula_units_Z            3
_exptl_crystal_recrystallization_method benzene
loop_
_atom_site_label
_atom_site_type_symbol
_atom_site_fract_x
_atom_site_fract_y
_atom_site_fract_z
Te1 Te 0.57057(7) 0.82089(6) 0.42721(8)
Te2 Te 0.19728(8) 0.43640(7) 0.49062(9)
Se1 Se 0.20139(9) 0.55492(8) 0.16331(9)
Se2 Se 0.5747(1) 0.70404(8) 0.76518(9)
C1 C 0.3870(8) 0.6484(7) 0.3995(9)
C2 C 0.245(1) 0.7235(9) 0.124(1)
C3 C 0.389(1) 0.8313(8) 0.225(1)
C4 C 0.3874(8) 0.6060(7) 0.5258(8)
C5 C 0.439(1) 0.605(1) 0.856(1)
C6 C 0.295(1) 0.504(1) 0.755(1)
H1 H 0.1631 0.7313 0.0329
H2 H 0.4076 0.9132 0.2037
H3 H 0.4808 0.6340 0.9801
H4 H 0.2348 0.4589 0.8038
Te3 Te 0.84996(9) 1.16095(7) 1.47491(9)
Se3 Se 0.9381(1) 0.94055(9) 1.19542(10)
C7 C 0.9604(8) 1.0198(7) 1.4379(9)
C8 C 0.818(2) 1.053(1) 1.124(1)
C9 C 0.779(1) 1.136(1) 1.229(1)
H5 H 0.7874 1.0498 1.0096
H6 H 0.7157 1.1866 1.1851
C7A C 1.0396(8) 0.9802(7) 1.5621(9)
Te3A Te 1.15004(9) 0.83905(7) 1.52509(9)
C9A C 1.221(1) 0.864(1) 1.771(1)
C8A C 1.182(2) 0.947(1) 1.876(1)
Se3A Se 1.0619(1) 1.05945(9) 1.80458(10)
H5A H 1.2126 0.9502 1.9904
H6A H 1.2843 0.8134 1.8149
loop_
_geom_bond_atom_site_label_1
_geom_bond_atom_site_label_2
_geom_bond_site_symmetry_1
_geom_bond_site_symmetry_2
Te1 C1 1_555 1_555
Te2 C4 1_555 1_555
Te3 C7 1_555 1_555
Se1 C1 1_555 1_555
Se2 C4 1_555 1_555
Se3 C7 1_555 1_555
C1 C4 1_555 1_555
C2 Se1 1_555 1_555
C3 Te1 1_555 1_555
C5 Se2 1_555 1_555
C6 Te2 1_555 1_555
C7 C7A 1_555 1_555
C8 Se3 1_555 1_555
C9 Te3 1_555 1_555
H1 C2 1_555 1_555
H2 C3 1_555 1_555
H3 C5 1_555 1_555
H4 C6 1_555 1_555
H5 C8 1_555 1_555
H6 C9 1_555 1_555
C7A Te3A 1_555 1_555
Te3A C9A 1_555 1_555
C9A C8A 1_555 1_555
C8A Se3A 1_555 1_555
Se3A C7A 1_555 1_555
H5A C8A 1_555 1_555
H6A C9A 1_555 1_555
C2 C3 1_555 1_555
C5 C6 1_555 1_555
C8 C9 1_555 1_555

#END
