
#######################################################################
#
#                 Cambridge Crystallographic Data Centre
#                                CCDC 
#
#######################################################################
#
# If this CIF has been generated from an entry in the Cambridge 
# Structural Database, then it will include bibliographic, chemical, 
# crystal, experimental, refinement or atomic coordinate data resulting 
# from the CCDC's data processing and validation procedures.
#
#######################################################################

data_ECOCAA
_chemical_name_common            1,2,3,4,5-Pentaphenylsilole
_chemical_formula_moiety         'C34 H26 Si1'
_chemical_name_systematic        1,2,3,4,5-Pentaphenyl-1-silacyclopentadiene
_symmetry_cell_setting           monoclinic
_symmetry_space_group_name_H-M   'P 21/c'
_symmetry_Int_Tables_number      14
_space_group_name_Hall           '-P 2ybc'
loop_
_symmetry_equiv_pos_site_id
_symmetry_equiv_pos_as_xyz
1 x,y,z
2 x,1/2-y,1/2+z
3 -x,-y,-z
4 -x,1/2+y,1/2-z
_cell_length_a                   16.396(3)
_cell_length_b                   6.2240(10)
_cell_length_c                   24.427(5)
_cell_angle_alpha                90
_cell_angle_beta                 91.96(3)
_cell_angle_gamma                90
_cell_volume                     2491.29
_exptl_crystal_colour            colorless
_exptl_crystal_description       needle
_chemical_melting_point          491-2K
_cell_formula_units_Z            4
_exptl_crystal_recrystallization_method toluene
loop_
_atom_site_label
_atom_site_type_symbol
_atom_site_fract_x
_atom_site_fract_y
_atom_site_fract_z
Si1 Si 0.31895(3) 0.86317(10) 0.83392(2)
C1 C 0.23945(10) 0.6708(3) 0.80751(8)
C2 C 0.19531(10) 0.6060(3) 0.85100(8)
C3 C 0.22174(10) 0.6984(3) 0.90587(8)
C4 C 0.28624(10) 0.8361(4) 0.90584(8)
C5 C 0.42714(10) 0.7809(4) 0.82532(7)
C6 C 0.45346(12) 0.5737(4) 0.83941(9)
C7 C 0.53506(13) 0.5166(5) 0.83776(11)
C8 C 0.59192(12) 0.6651(4) 0.82178(10)
C9 C 0.56774(12) 0.8692(5) 0.80661(9)
C10 C 0.48589(12) 0.9273(4) 0.80799(9)
C11 C 0.22744(9) 0.6080(4) 0.74966(8)
C12 C 0.20387(10) 0.4021(4) 0.73189(8)
C13 C 0.19820(11) 0.3526(4) 0.67642(8)
C14 C 0.21581(11) 0.5070(4) 0.63755(9)
C15 C 0.23819(12) 0.7123(4) 0.65439(9)
C16 C 0.24435(11) 0.7622(4) 0.70964(8)
C17 C 0.12170(10) 0.4659(3) 0.84419(7)
C18 C 0.12060(12) 0.2542(4) 0.86323(8)
C19 C 0.05308(13) 0.1252(4) 0.85285(9)
C20 C -0.01424(13) 0.2022(4) 0.82379(9)
C21 C -0.01450(11) 0.4126(4) 0.80470(8)
C22 C 0.05279(11) 0.5432(4) 0.81511(8)
C23 C 0.17338(10) 0.6491(4) 0.95530(7)
C24 C 0.17682(13) 0.4500(4) 0.98127(9)
C25 C 0.13105(14) 0.4104(4) 1.02705(9)
C26 C 0.08156(13) 0.5691(4) 1.04727(9)
C27 C 0.07838(12) 0.7688(4) 1.02262(9)
C28 C 0.12398(11) 0.8086(4) 0.97669(8)
C29 C 0.32813(10) 0.9471(4) 0.95224(8)
C30 C 0.36555(13) 1.1448(5) 0.94283(10)
C31 C 0.41023(15) 1.2530(5) 0.98363(11)
C32 C 0.41880(15) 1.1629(6) 1.03513(11)
C33 C 0.38247(15) 0.9672(6) 1.04524(11)
C34 C 0.33711(13) 0.8597(5) 1.00459(9)
H1 H 0.3086(11) 1.077(4) 0.8124(9)
H2 H 0.4099(14) 0.484(5) 0.8479(11)
H3 H 0.5495(15) 0.370(5) 0.8478(12)
H4 H 0.6488(13) 0.634(4) 0.8229(9)
H5 H 0.6079(13) 0.966(4) 0.7945(10)
H6 H 0.4679(12) 1.069(4) 0.7973(10)
H7 H 0.1935(12) 0.287(4) 0.7561(10)
H8 H 0.1822(14) 0.213(5) 0.6645(11)
H9 H 0.2110(13) 0.476(4) 0.5977(11)
H10 H 0.2491(14) 0.832(5) 0.6285(11)
H11 H 0.2613(13) 0.914(5) 0.7213(11)
H12 H 0.1689(11) 0.199(4) 0.8817(8)
H13 H 0.0552(14) -0.016(5) 0.8642(11)
H14 H -0.0582(13) 0.123(4) 0.8173(9)
H15 H -0.0604(12) 0.466(4) 0.7865(9)
H16 H 0.0522(12) 0.687(4) 0.8006(9)
H17 H 0.2127(13) 0.340(4) 0.9693(10)
H18 H 0.1326(14) 0.266(5) 1.0429(11)
H19 H 0.0485(14) 0.539(4) 1.0766(11)
H20 H 0.0420(14) 0.887(5) 1.0362(11)
H21 H 0.1203(12) 0.950(4) 0.9592(10)
H22 H 0.3554(15) 1.218(5) 0.9070(12)
H23 H 0.4358(18) 1.395(6) 0.9764(13)
H24 H 0.4534(15) 1.232(5) 1.0604(12)
H25 H 0.3913(18) 0.895(6) 1.0804(15)
H26 H 0.3106(14) 0.727(5) 1.0119(10)
loop_
_geom_bond_atom_site_label_1
_geom_bond_atom_site_label_2
_geom_bond_site_symmetry_1
_geom_bond_site_symmetry_2
Si1 C1 1_555 1_555
C1 C2 1_555 1_555
C2 C3 1_555 1_555
C3 C4 1_555 1_555
C4 Si1 1_555 1_555
C5 Si1 1_555 1_555
C6 C5 1_555 1_555
C7 C6 1_555 1_555
C8 C7 1_555 1_555
C9 C8 1_555 1_555
C10 C5 1_555 1_555
C11 C1 1_555 1_555
C12 C11 1_555 1_555
C13 C12 1_555 1_555
C14 C13 1_555 1_555
C15 C14 1_555 1_555
C16 C11 1_555 1_555
C17 C2 1_555 1_555
C18 C17 1_555 1_555
C19 C18 1_555 1_555
C20 C19 1_555 1_555
C21 C20 1_555 1_555
C22 C17 1_555 1_555
C23 C3 1_555 1_555
C24 C23 1_555 1_555
C25 C24 1_555 1_555
C26 C25 1_555 1_555
C27 C26 1_555 1_555
C28 C23 1_555 1_555
C29 C4 1_555 1_555
C30 C29 1_555 1_555
C31 C30 1_555 1_555
C32 C31 1_555 1_555
C33 C32 1_555 1_555
C34 C29 1_555 1_555
H1 Si1 1_555 1_555
H2 C6 1_555 1_555
H3 C7 1_555 1_555
H4 C8 1_555 1_555
H5 C9 1_555 1_555
H6 C10 1_555 1_555
H7 C12 1_555 1_555
H8 C13 1_555 1_555
H9 C14 1_555 1_555
H10 C15 1_555 1_555
H11 C16 1_555 1_555
H12 C18 1_555 1_555
H13 C19 1_555 1_555
H14 C20 1_555 1_555
H15 C21 1_555 1_555
H16 C22 1_555 1_555
H17 C24 1_555 1_555
H18 C25 1_555 1_555
H19 C26 1_555 1_555
H20 C27 1_555 1_555
H21 C28 1_555 1_555
H22 C30 1_555 1_555
H23 C31 1_555 1_555
H24 C32 1_555 1_555
H25 C33 1_555 1_555
H26 C34 1_555 1_555
C9 C10 1_555 1_555
C15 C16 1_555 1_555
C21 C22 1_555 1_555
C27 C28 1_555 1_555
C33 C34 1_555 1_555

#END
