
#######################################################################
#
#                 Cambridge Crystallographic Data Centre
#                                CCDC 
#
#######################################################################
#
# If this CIF has been generated from an entry in the Cambridge 
# Structural Database, then it will include bibliographic, chemical, 
# crystal, experimental, refinement or atomic coordinate data resulting 
# from the CCDC's data processing and validation procedures.
#
#######################################################################

data_ECOJOY
_chemical_formula_moiety         'C41 H35 Br1 O7'
_chemical_name_systematic        
'1-hydroxy-3,5-dimethoxy-9-(4-methoxyphenyl)-11-phenyl-10-(2-phenylvinyl)-8-oxatricyclo[7.2.1.0^2,7^]dodeca-2,4,6-trien-12-yl 4-bromobenzoate'
_symmetry_cell_setting           monoclinic
_symmetry_space_group_name_H-M   'P 21/c'
_symmetry_Int_Tables_number      14
_space_group_name_Hall           '-P 2ybc'
loop_
_symmetry_equiv_pos_site_id
_symmetry_equiv_pos_as_xyz
1 x,y,z
2 -x,1/2+y,1/2-z
3 -x,-y,-z
4 x,1/2-y,1/2+z
_cell_length_a                   22.603(2)
_cell_length_b                   20.3183(19)
_cell_length_c                   14.8174(13)
_cell_angle_alpha                90
_cell_angle_beta                 95.493(4)
_cell_angle_gamma                90
_cell_volume                     6773.71
_exptl_crystal_colour            colorless
_exptl_crystal_description       bar
_cell_formula_units_Z            8
loop_
_atom_site_label
_atom_site_type_symbol
_atom_site_fract_x
_atom_site_fract_y
_atom_site_fract_z
Br1 Br 0.97710(2) 0.53306(2) -0.20398(2)
O1 O 0.87551(7) 0.55160(9) 0.21092(11)
O2 O 0.95160(8) 0.55620(10) 0.35916(12)
O3 O 0.79380(7) 0.65392(9) 0.27061(11)
H1 H 0.8002 0.6944 0.2659
O4 O 0.85823(8) 0.76389(10) 0.29108(13)
O5 O 1.07190(9) 0.74106(13) 0.35515(15)
O6 O 0.91566(10) 0.25004(11) 0.37981(16)
O7 O 0.79113(9) 0.51226(13) 0.13760(14)
C1 C 0.93542(12) 0.53365(14) -0.09829(17)
C2 C 0.88247(14) 0.49994(19) -0.0993(2)
H2 H 0.8670 0.4769 -0.1521
C3 C 0.85220(13) 0.50006(19) -0.0225(2)
H3 H 0.8152 0.4777 -0.0232
C4 C 0.87541(11) 0.53266(13) 0.05584(17)
C5 C 0.84201(12) 0.53033(13) 0.13736(18)
C6 C 0.84965(11) 0.55479(13) 0.29565(16)
H4 H 0.8115 0.5297 0.2924
C7 C 0.89412(11) 0.52826(14) 0.37171(17)
C8 C 0.87237(12) 0.56072(14) 0.46042(17)
H5 H 0.9064 0.5877 0.4882
C9 C 0.85717(13) 0.51332(15) 0.53201(18)
H6 H 0.8827 0.4764 0.5417
C10 C 0.81306(12) 0.51653(14) 0.58286(18)
H7 H 0.7859 0.5520 0.5721
C11 C 0.80180(11) 0.46959(14) 0.65585(18)
C12 C 0.76281(12) 0.48665(14) 0.71995(18)
H8 H 0.7436 0.5283 0.7162
C13 C 0.75187(12) 0.44329(15) 0.78920(18)
H9 H 0.7246 0.4551 0.8314
C14 C 0.78042(13) 0.38309(16) 0.7969(2)
H10 H 0.7734 0.3540 0.8449
C15 C 0.92904(11) 0.56607(13) 0.05532(17)
H11 H 0.9452 0.5884 0.1084
C16 C 0.95912(12) 0.56712(14) -0.02190(18)
H12 H 0.9955 0.5905 -0.0224
C17 C 0.95274(11) 0.62277(15) 0.34670(16)
C18 C 0.90073(11) 0.66008(14) 0.32741(16)
C19 C 0.84085(11) 0.62479(13) 0.32637(16)
C20 C 0.82361(11) 0.61011(13) 0.42431(16)
H13 H 0.7850 0.5857 0.4178
C21 C 0.81955(13) 0.36527(16) 0.7339(2)
H14 H 0.8397 0.3242 0.7393
C22 C 0.82910(12) 0.40769(15) 0.66296(19)
H15 H 0.8545 0.3945 0.6188
C23 C 0.81465(12) 0.67072(14) 0.47981(16)
C24 C 0.86134(13) 0.71121(16) 0.51519(18)
H16 H 0.9012 0.6990 0.5080
C25 C 0.85007(16) 0.76905(16) 0.5607(2)
H17 H 0.8821 0.7962 0.5841
C26 C 0.79223(16) 0.78704(16) 0.57198(19)
H18 H 0.7846 0.8265 0.6032
C27 C 0.74603(15) 0.74796(16) 0.5382(2)
H19 H 0.7063 0.7604 0.5461
C28 C 0.75686(13) 0.69018(15) 0.49239(18)
H20 H 0.7244 0.6635 0.4693
C29 C 0.90889(11) 0.72741(15) 0.31388(17)
C30 C 0.86490(13) 0.82991(15) 0.2582(2)
H21 H 0.8787 0.8588 0.3089
H22 H 0.8265 0.8458 0.2300
H23 H 0.8940 0.8301 0.2133
C31 C 0.96509(12) 0.75720(16) 0.32294(18)
H24 H 0.9692 0.8033 0.3152
C32 C 1.01493(12) 0.71736(17) 0.34367(18)
C33 C 1.07965(13) 0.8102(2) 0.3543(2)
H25 H 1.0622 0.8279 0.2963
H26 H 1.1222 0.8205 0.3623
H27 H 1.0599 0.8299 0.4038
C34 C 1.00901(12) 0.65061(17) 0.35386(18)
H28 H 1.0432 0.6237 0.3657
C35 C 0.90172(12) 0.45486(15) 0.37292(17)
C36 C 0.95644(13) 0.42596(16) 0.40050(17)
H29 H 0.9899 0.4532 0.4170
C37 C 0.96302(13) 0.35773(16) 0.40435(18)
H30 H 1.0006 0.3390 0.4236
C38 C 0.91483(14) 0.31731(16) 0.3802(2)
C39 C 0.97115(15) 0.21840(18) 0.4014(2)
H31 H 0.9994 0.2331 0.3594
H32 H 0.9659 0.1706 0.3962
H33 H 0.9865 0.2296 0.4636
C40 C 0.85988(13) 0.34547(16) 0.3525(2)
H34 H 0.8266 0.3181 0.3357
C41 C 0.85365(12) 0.41311(16) 0.3494(2)
H35 H 0.8158 0.4316 0.3309
Br2 Br 0.51754(2) 0.44864(2) 0.69611(2)
O8 O 0.63002(7) 0.43773(8) 0.28899(11)
O9 O 0.55489(7) 0.43391(8) 0.13652(11)
O10 O 0.71734(8) 0.34668(9) 0.22227(12)
H36 H 0.7165 0.3056 0.2154
O11 O 0.66788(8) 0.23558(9) 0.15981(14)
O12 O 0.45908(8) 0.22425(9) 0.10366(14)
O13 O 0.55952(10) 0.74087(10) 0.16014(16)
O14 O 0.70742(8) 0.49126(10) 0.36401(12)
C42 C 0.56037(12) 0.45366(13) 0.59212(18)
C43 C 0.61621(12) 0.48257(14) 0.59970(18)
H37 H 0.6326 0.5001 0.6561
C44 C 0.64780(12) 0.48566(14) 0.52427(18)
H38 H 0.6860 0.5056 0.5288
C45 C 0.62389(11) 0.45977(12) 0.44203(17)
C46 C 0.65918(11) 0.46523(12) 0.36280(17)
C47 C 0.65590(11) 0.44216(12) 0.20495(16)
H39 H 0.6922 0.4705 0.2115
C48 C 0.61051(11) 0.46915(12) 0.13144(16)
C49 C 0.63722(11) 0.44790(12) 0.04082(16)
H40 H 0.6057 0.4247 0.0009
C50 C 0.66014(11) 0.50423(13) -0.01067(17)
H41 H 0.6955 0.5251 0.0148
C51 C 0.63548(11) 0.52715(13) -0.08810(17)
H42 H 0.5995 0.5070 -0.1123
C52 C 0.65858(12) 0.58148(13) -0.14130(17)
C53 C 0.62960(13) 0.59710(13) -0.22570(18)
H43 H 0.5942 0.5746 -0.2470
C54 C 0.65237(15) 0.64563(14) -0.2790(2)
H44 H 0.6330 0.6552 -0.3372
C55 C 0.70264(14) 0.67977(15) -0.2479(2)
H45 H 0.7183 0.7124 -0.2849
C56 C 0.56806(11) 0.43017(12) 0.43620(17)
H46 H 0.5518 0.4120 0.3802
C57 C 0.53612(11) 0.42692(12) 0.51107(18)
H47 H 0.4981 0.4066 0.5069
C58 C 0.55909(11) 0.36621(12) 0.13964(15)
C59 C 0.61362(11) 0.33457(13) 0.15492(16)
C60 C 0.67001(11) 0.37548(12) 0.16646(16)
C61 C 0.68705(10) 0.39772(13) 0.07198(16)
H48 H 0.7250 0.4230 0.0823
C62 C 0.73053(14) 0.66647(15) -0.1625(2)
H49 H 0.7645 0.6911 -0.1400
C63 C 0.70884(13) 0.61737(14) -0.11013(19)
H50 H 0.7285 0.6080 -0.0520
C64 C 0.69847(11) 0.34031(13) 0.01135(17)
C65 C 0.65643(12) 0.31261(15) -0.05128(19)
H51 H 0.6188 0.3332 -0.0637
C66 C 0.66873(13) 0.25466(16) -0.0964(2)
H52 H 0.6395 0.2364 -0.1395
C67 C 0.72293(14) 0.22360(15) -0.0789(2)
H53 H 0.7305 0.1832 -0.1080
C68 C 0.76610(14) 0.25189(16) -0.0187(2)
H54 H 0.8039 0.2315 -0.0073
C69 C 0.75418(12) 0.31008(15) 0.02508(19)
H55 H 0.7844 0.3298 0.0652
C70 C 0.61349(12) 0.26527(13) 0.15020(17)
C71 C 0.66994(14) 0.16698(14) 0.1368(2)
H56 H 0.6513 0.1411 0.1821
H57 H 0.7114 0.1532 0.1358
H58 H 0.6486 0.1599 0.0769
C72 C 0.56102(12) 0.23043(13) 0.13503(18)
H59 H 0.5616 0.1837 0.1338
C73 C 0.50743(12) 0.26422(13) 0.12160(17)
C74 C 0.40269(12) 0.25516(15) 0.0917(2)
H60 H 0.3967 0.2815 0.1454
H61 H 0.3716 0.2216 0.0830
H62 H 0.4008 0.2838 0.0383
C75 C 0.50532(11) 0.33243(13) 0.12380(16)
H63 H 0.4686 0.3553 0.1148
C76 C 0.59630(11) 0.54114(12) 0.13893(17)
C77 C 0.63764(12) 0.58551(14) 0.1799(2)
H64 H 0.6756 0.5701 0.2037
C78 C 0.62410(13) 0.65139(14) 0.1862(2)
H65 H 0.6526 0.6809 0.2149
C79 C 0.56861(13) 0.67483(13) 0.15044(19)
C80 C 0.50080(15) 0.76470(16) 0.1374(2)
H66 H 0.4907 0.7611 0.0718
H67 H 0.4985 0.8109 0.1558
H68 H 0.4728 0.7385 0.1690
C81 C 0.52761(12) 0.63166(13) 0.10826(17)
H69 H 0.4900 0.6472 0.0828
C82 C 0.54172(11) 0.56536(13) 0.10331(16)
H70 H 0.5132 0.5358 0.0748
loop_
_geom_bond_atom_site_label_1
_geom_bond_atom_site_label_2
_geom_bond_site_symmetry_1
_geom_bond_site_symmetry_2
Br1 C1 1_555 1_555
O1 C5 1_555 1_555
O2 C7 1_555 1_555
O3 H1 1_555 1_555
O4 C29 1_555 1_555
O5 C32 1_555 1_555
O6 C38 1_555 1_555
O7 C5 1_555 1_555
C1 C2 1_555 1_555
C2 H2 1_555 1_555
C3 C2 1_555 1_555
H3 C3 1_555 1_555
C4 C3 1_555 1_555
C5 C4 1_555 1_555
C6 O1 1_555 1_555
H4 C6 1_555 1_555
C7 C6 1_555 1_555
C8 C7 1_555 1_555
H5 C8 1_555 1_555
C9 C8 1_555 1_555
H6 C9 1_555 1_555
C10 C9 1_555 1_555
H7 C10 1_555 1_555
C11 C10 1_555 1_555
C12 C11 1_555 1_555
H8 C12 1_555 1_555
C13 C12 1_555 1_555
H9 C13 1_555 1_555
C14 C13 1_555 1_555
H10 C14 1_555 1_555
C15 C4 1_555 1_555
H11 C15 1_555 1_555
C16 C1 1_555 1_555
H12 C16 1_555 1_555
C17 O2 1_555 1_555
C18 C17 1_555 1_555
C19 O3 1_555 1_555
C20 C8 1_555 1_555
H13 C20 1_555 1_555
C21 C14 1_555 1_555
H14 C21 1_555 1_555
C22 C11 1_555 1_555
H15 C22 1_555 1_555
C23 C20 1_555 1_555
C24 C23 1_555 1_555
H16 C24 1_555 1_555
C25 C24 1_555 1_555
H17 C25 1_555 1_555
C26 C25 1_555 1_555
H18 C26 1_555 1_555
C27 C26 1_555 1_555
H19 C27 1_555 1_555
C28 C23 1_555 1_555
H20 C28 1_555 1_555
C29 C18 1_555 1_555
C30 O4 1_555 1_555
H21 C30 1_555 1_555
H22 C30 1_555 1_555
H23 C30 1_555 1_555
C31 C29 1_555 1_555
H24 C31 1_555 1_555
C32 C31 1_555 1_555
C33 O5 1_555 1_555
H25 C33 1_555 1_555
H26 C33 1_555 1_555
H27 C33 1_555 1_555
C34 C17 1_555 1_555
H28 C34 1_555 1_555
C35 C7 1_555 1_555
C36 C35 1_555 1_555
H29 C36 1_555 1_555
C37 C36 1_555 1_555
H30 C37 1_555 1_555
C38 C37 1_555 1_555
C39 O6 1_555 1_555
H31 C39 1_555 1_555
H32 C39 1_555 1_555
H33 C39 1_555 1_555
C40 C38 1_555 1_555
H34 C40 1_555 1_555
C41 C35 1_555 1_555
H35 C41 1_555 1_555
Br2 C42 1_555 1_555
O8 C46 1_555 1_555
O9 C48 1_555 1_555
O10 H36 1_555 1_555
O11 C70 1_555 1_555
O12 C73 1_555 1_555
O13 C79 1_555 1_555
O14 C46 1_555 1_555
C42 C43 1_555 1_555
C43 H37 1_555 1_555
C44 C43 1_555 1_555
H38 C44 1_555 1_555
C45 C44 1_555 1_555
C46 C45 1_555 1_555
C47 O8 1_555 1_555
H39 C47 1_555 1_555
C48 C47 1_555 1_555
C49 C48 1_555 1_555
H40 C49 1_555 1_555
C50 C49 1_555 1_555
H41 C50 1_555 1_555
C51 C50 1_555 1_555
H42 C51 1_555 1_555
C52 C51 1_555 1_555
C53 C52 1_555 1_555
H43 C53 1_555 1_555
C54 C53 1_555 1_555
H44 C54 1_555 1_555
C55 C54 1_555 1_555
H45 C55 1_555 1_555
C56 C45 1_555 1_555
H46 C56 1_555 1_555
C57 C42 1_555 1_555
H47 C57 1_555 1_555
C58 O9 1_555 1_555
C59 C58 1_555 1_555
C60 O10 1_555 1_555
C61 C49 1_555 1_555
H48 C61 1_555 1_555
C62 C55 1_555 1_555
H49 C62 1_555 1_555
C63 C52 1_555 1_555
H50 C63 1_555 1_555
C64 C61 1_555 1_555
C65 C64 1_555 1_555
H51 C65 1_555 1_555
C66 C65 1_555 1_555
H52 C66 1_555 1_555
C67 C66 1_555 1_555
H53 C67 1_555 1_555
C68 C67 1_555 1_555
H54 C68 1_555 1_555
C69 C64 1_555 1_555
H55 C69 1_555 1_555
C70 C59 1_555 1_555
C71 O11 1_555 1_555
H56 C71 1_555 1_555
H57 C71 1_555 1_555
H58 C71 1_555 1_555
C72 C70 1_555 1_555
H59 C72 1_555 1_555
C73 C72 1_555 1_555
C74 O12 1_555 1_555
H60 C74 1_555 1_555
H61 C74 1_555 1_555
H62 C74 1_555 1_555
C75 C58 1_555 1_555
H63 C75 1_555 1_555
C76 C48 1_555 1_555
C77 C76 1_555 1_555
H64 C77 1_555 1_555
C78 C77 1_555 1_555
H65 C78 1_555 1_555
C79 C78 1_555 1_555
C80 O13 1_555 1_555
H66 C80 1_555 1_555
H67 C80 1_555 1_555
H68 C80 1_555 1_555
C81 C79 1_555 1_555
H69 C81 1_555 1_555
C82 C76 1_555 1_555
H70 C82 1_555 1_555
C6 C19 1_555 1_555
C15 C16 1_555 1_555
C18 C19 1_555 1_555
C19 C20 1_555 1_555
C21 C22 1_555 1_555
C27 C28 1_555 1_555
C32 C34 1_555 1_555
C40 C41 1_555 1_555
C47 C60 1_555 1_555
C56 C57 1_555 1_555
C59 C60 1_555 1_555
C60 C61 1_555 1_555
C62 C63 1_555 1_555
C68 C69 1_555 1_555
C73 C75 1_555 1_555
C81 C82 1_555 1_555

#END
