
#######################################################################
#
#                 Cambridge Crystallographic Data Centre
#                                CCDC 
#
#######################################################################
#
# If this CIF has been generated from an entry in the Cambridge 
# Structural Database, then it will include bibliographic, chemical, 
# crystal, experimental, refinement or atomic coordinate data resulting 
# from the CCDC's data processing and validation procedures.
#
#######################################################################

data_ECONUG
_chemical_formula_moiety         'C13 H12 N4 O2'
_chemical_name_systematic        N-(4-aminobenzoyl)-N'-(picolinoyl)hydrazine
_symmetry_cell_setting           monoclinic
_symmetry_space_group_name_H-M   'C c'
_symmetry_Int_Tables_number      9
_space_group_name_Hall           'C -2yc'
loop_
_symmetry_equiv_pos_site_id
_symmetry_equiv_pos_as_xyz
1 x,y,z
2 x,-y,1/2+z
3 1/2+x,1/2+y,z
4 1/2+x,1/2-y,1/2+z
_cell_length_a                   14.119(2)
_cell_length_b                   11.1322(8)
_cell_length_c                   7.9424(7)
_cell_angle_alpha                90
_cell_angle_beta                 99.087(6)
_cell_angle_gamma                90
_cell_volume                     1232.68
_exptl_crystal_colour            colorless
_exptl_crystal_description       prism
_cell_formula_units_Z            4
_exptl_crystal_recrystallization_method water
loop_
_atom_site_label
_atom_site_type_symbol
_atom_site_fract_x
_atom_site_fract_y
_atom_site_fract_z
C1 C 0.8190(11) 0.4715(18) 1.0240(18)
H1 H 0.8456 0.533 1.0954
C2 C 0.8785(14) 0.373(2) 1.000(2)
H2 H 0.9413 0.3667 1.0564
C3 C 0.8379(14) 0.2878(18) 0.892(2)
H3 H 0.8722 0.2176 0.8807
C4 C 0.7440(16) 0.3003(14) 0.791(2)
H4 H 0.7211 0.2468 0.7038
C5 C 0.6889(11) 0.3991(16) 0.8318(19)
C6 C 0.5867(11) 0.4123(11) 0.7420(16)
C7 C 0.3789(14) 0.4112(16) 0.8066(19)
C8 C 0.2826(14) 0.4028(12) 0.7181(17)
C9 C 0.2317(13) 0.3052(18) 0.752(2)
H5 H 0.26 0.2486 0.8301
C10 C 0.1464(16) 0.2897(13) 0.679(2)
H6 H 0.1123 0.2222 0.7038
C11 C 0.1026(9) 0.3754(14) 0.5581(15)
C12 C 0.1558(11) 0.4726(14) 0.530(2)
H7 H 0.1299 0.5316 0.4528
C13 C 0.2402(8) 0.4827(13) 0.6072(16)
H8 H 0.275 0.5503 0.5856
N1 N 0.7237(10) 0.4836(12) 0.9483(16)
N2 N 0.5274(14) 0.4990(11) 0.7965(16)
H9 H 0.5509 0.5544 0.8661
N3 N 0.4311(13) 0.4946(13) 0.7377(18)
H10 H 0.4047 0.5431 0.6598
N4 N 0.0165(9) 0.3660(10) 0.4834(16)
H11 H -0.0082 0.4213 0.4146
H12 H -0.0171 0.3043 0.5016
O1 O 0.5512(8) 0.3523(11) 0.6156(11)
O2 O 0.4095(8) 0.3515(10) 0.9326(11)
loop_
_geom_bond_atom_site_label_1
_geom_bond_atom_site_label_2
_geom_bond_site_symmetry_1
_geom_bond_site_symmetry_2
C1 H1 1_555 1_555
C2 C1 1_555 1_555
H2 C2 1_555 1_555
C3 C2 1_555 1_555
H3 C3 1_555 1_555
C4 C3 1_555 1_555
H4 C4 1_555 1_555
C5 C4 1_555 1_555
C6 C5 1_555 1_555
C7 C8 1_555 1_555
C8 C9 1_555 1_555
C9 H5 1_555 1_555
C10 C9 1_555 1_555
H6 C10 1_555 1_555
C11 C10 1_555 1_555
C12 C11 1_555 1_555
H7 C12 1_555 1_555
C13 C8 1_555 1_555
H8 C13 1_555 1_555
N1 C1 1_555 1_555
N2 C6 1_555 1_555
H9 N2 1_555 1_555
N3 C7 1_555 1_555
H10 N3 1_555 1_555
N4 C11 1_555 1_555
H11 N4 1_555 1_555
H12 N4 1_555 1_555
O1 C6 1_555 1_555
O2 C7 1_555 1_555
C5 N1 1_555 1_555
C12 C13 1_555 1_555
N2 N3 1_555 1_555

#END
