
#######################################################################
#
#                 Cambridge Crystallographic Data Centre
#                                CCDC 
#
#######################################################################
#
# If this CIF has been generated from an entry in the Cambridge 
# Structural Database, then it will include bibliographic, chemical, 
# crystal, experimental, refinement or atomic coordinate data resulting 
# from the CCDC's data processing and validation procedures.
#
#######################################################################

data_ECOZUS
_chemical_formula_moiety         'C6 H16 B11 Br6 1-,H3 O1 1+,1.5(C6 H6)'
_chemical_name_systematic        
'oxonium hexabromo-pentamethyl-1-carba-closo-dodecaborane benzene solvate'
_symmetry_cell_setting           monoclinic
_symmetry_space_group_name_H-M   'C 2/m'
_symmetry_Int_Tables_number      12
_space_group_name_Hall           '-C 2y'
loop_
_symmetry_equiv_pos_site_id
_symmetry_equiv_pos_as_xyz
1 x,y,z
2 1/2+x,1/2+y,z
3 -x,y,-z
4 1/2-x,1/2+y,-z
5 -x,-y,-z
6 1/2-x,1/2-y,-z
7 x,-y,z
8 1/2+x,1/2-y,z
_cell_length_a                   15.857(2)
_cell_length_b                   10.0744(13)
_cell_length_c                   19.014(2)
_cell_angle_alpha                90
_cell_angle_beta                 101.957(3)
_cell_angle_gamma                90
_cell_volume                     2971.58
_exptl_crystal_colour            colorless
_exptl_crystal_description       prism
_cell_formula_units_Z            4
loop_
_atom_site_label
_atom_site_type_symbol
_atom_site_fract_x
_atom_site_fract_y
_atom_site_fract_z
C1 C 0.0255(3) 0.0000 0.2496(3)
H1 H -0.0297(7) 0.0000 0.2180(5)
C2 C 0.0885(3) 0.1698(4) 0.1485(2)
H2 H 0.0353 0.1386 0.1169
H3 H 0.1372 0.1558 0.1249
H4 H 0.0832 0.2646 0.1583
C3 C -0.0022(2) 0.2736(4) 0.2867(2)
H5 H -0.0573 0.2553 0.2539
H6 H 0.0270 0.3468 0.2675
H7 H -0.0127 0.2984 0.3340
C4 C -0.0564(3) 0.0000 0.3715(3)
H8 H -0.1074 0.0000 0.3322
H9 H -0.0570 0.0794 0.4011
H10 H -0.0570 -0.0794 0.4011
B1 B 0.1040(2) 0.0900(4) 0.2213(2)
B2 B 0.0567(2) 0.1449(3) 0.2942(2)
B3 B 0.0270(3) 0.0000 0.3395(3)
B4 B 0.1236(2) 0.0879(3) 0.37571(19)
B5 B 0.1700(2) 0.1419(3) 0.3036(2)
B6 B 0.1997(3) 0.0000 0.2590(3)
B7 B 0.2122(3) 0.0000 0.3539(3)
Br1 Br 0.13453(2) 0.18850(3) 0.465097(19)
Br2 Br 0.23748(3) 0.30627(3) 0.30951(2)
Br3 Br 0.29771(3) 0.0000 0.21142(3)
Br4 Br 0.32858(3) 0.0000 0.41451(3)
C2F C 0.0885(3) -0.1698(4) 0.1485(2)
H2F H 0.0353 -0.1386 0.1169
H3F H 0.1372 -0.1558 0.1249
H4F H 0.0832 -0.2646 0.1583
C3F C -0.0022(2) -0.2736(4) 0.2867(2)
H5F H -0.0573 -0.2553 0.2539
H6F H 0.0270 -0.3468 0.2675
H7F H -0.0127 -0.2984 0.3340
B1F B 0.1040(2) -0.0900(4) 0.2213(2)
B2F B 0.0567(2) -0.1449(3) 0.2942(2)
B4F B 0.1236(2) -0.0879(3) 0.37571(19)
B5F B 0.1700(2) -0.1419(3) 0.3036(2)
Br1F Br 0.13453(2) -0.18850(3) 0.465097(19)
Br2F Br 0.23748(3) -0.30627(3) 0.30951(2)
O1 O 0.3239(3) 0.0000 0.5778(2)
H11 H 0.305(3) 0.077(4) 0.600(2)
H12 H 0.315(4) 0.0000 0.525(4)
H11F H 0.305(3) -0.077(4) 0.600(2)
C5 C 0.7954(4) 1.0000 0.1471(4)
H13 H 0.7729 1.0000 0.1897
C6 C 0.8109(3) 0.8848(6) 0.1179(3)
H14 H 0.7979 0.8037 0.1388
C7 C 0.8455(4) 0.8830(6) 0.0576(4)
H15 H 0.8575 0.8010 0.0370
C8 C 0.8626(7) 1.0000 0.0277(5)
H16 H 0.8864 1.0000 -0.0142
C6F C 0.8109(3) 1.1152(6) 0.1179(3)
H14F H 0.7979 1.1963 0.1388
C7F C 0.8455(4) 1.1170(6) 0.0576(4)
H15F H 0.8575 1.1990 0.0370
C9 C 0.0874(6) 0.5000 0.0022(8)
H17 H 0.1477 0.5000 0.0041
C10 C 0.0575(8) 0.5000 0.0631(9)
H18 H 0.0979 0.5000 0.1077
C11 C 0.0295(7) 0.5000 -0.0642(7)
H19 H 0.0491 0.5000 -0.1082
C9D C -0.0874(6) 0.5000 -0.0022(8)
H17D H -0.1477 0.5000 -0.0041
C10D C -0.0575(8) 0.5000 -0.0631(9)
H18D H -0.0979 0.5000 -0.1077
C11D C -0.0295(7) 0.5000 0.0642(7)
H19D H -0.0491 0.5000 0.1082
loop_
_geom_bond_atom_site_label_1
_geom_bond_atom_site_label_2
_geom_bond_site_symmetry_1
_geom_bond_site_symmetry_2
C1 H1 1_555 1_555
C2 H2 1_555 1_555
H3 C2 1_555 1_555
H4 C2 1_555 1_555
C3 H5 1_555 1_555
H6 C3 1_555 1_555
H7 C3 1_555 1_555
C4 H8 1_555 1_555
H9 C4 1_555 1_555
H10 C4 1_555 1_555
B1 C1 1_555 1_555
B2 C1 1_555 1_555
B3 C1 1_555 1_555
B4 B2 1_555 1_555
B5 B1 1_555 1_555
B6 B1 1_555 1_555
B7 B4 1_555 1_555
Br1 B4 1_555 1_555
Br2 B5 1_555 1_555
Br3 B6 1_555 1_555
Br4 B7 1_555 1_555
O1 H11 1_555 1_555
H12 O1 1_555 1_555
C5 H13 1_555 1_555
C6 C5 1_555 1_555
H14 C6 1_555 1_555
C7 C6 1_555 1_555
H15 C7 1_555 1_555
C8 C7 1_555 1_555
H16 C8 1_555 1_555
C9 H17 1_555 1_555
C10 C9 1_555 1_555
H18 C10 1_555 1_555
C11 C9 1_555 1_555
H19 C11 1_555 1_555
C2F H2F 1_555 1_555
H3F C2F 1_555 1_555
H4F C2F 1_555 1_555
C3F H5F 1_555 1_555
H6F C3F 1_555 1_555
H7F C3F 1_555 1_555
B1F C1 1_555 1_555
B2F C1 1_555 1_555
B4F B3 1_555 1_555
B5F B6 1_555 1_555
Br1F B4F 1_555 1_555
Br2F B5F 1_555 1_555
H11F O1 1_555 1_555
C6F C5 1_555 1_555
H14F C6F 1_555 1_555
C7F C8 1_555 1_555
H15F C7F 1_555 1_555
C9D H17D 1_555 1_555
C10D C11 1_555 1_555
H18D C10D 1_555 1_555
C11D C10 1_555 1_555
H19D C11D 1_555 1_555
C2 B1 1_555 1_555
C3 B2 1_555 1_555
C4 B3 1_555 1_555
B1 B2 1_555 1_555
B1 B1F 1_555 1_555
B2 B3 1_555 1_555
B2 B5 1_555 1_555
B3 B4 1_555 1_555
B3 B2F 1_555 1_555
B4 B5 1_555 1_555
B4 B4F 1_555 1_555
B5 B6 1_555 1_555
B5 B7 1_555 1_555
B6 B7 1_555 1_555
B6 B1F 1_555 1_555
B7 B4F 1_555 1_555
B7 B5F 1_555 1_555
C2F B1F 1_555 1_555
C3F B2F 1_555 1_555
B1F B2F 1_555 1_555
B1F B5F 1_555 1_555
B2F B4F 1_555 1_555
B2F B5F 1_555 1_555
B4F B5F 1_555 1_555
C6F C7F 1_555 1_555
C9D C10D 1_555 1_555
C9D C11D 1_555 1_555

#END
