
#######################################################################
#
#                 Cambridge Crystallographic Data Centre
#                                CCDC 
#
#######################################################################
#
# If this CIF has been generated from an entry in the Cambridge 
# Structural Database, then it will include bibliographic, chemical, 
# crystal, experimental, refinement or atomic coordinate data resulting 
# from the CCDC's data processing and validation procedures.
#
#######################################################################

data_ECUJIV
_chemical_formula_moiety         'C14 H21 N1 O6'
_chemical_name_systematic        
'(3S,6R,7aR)-3-t-Butyl-1,6,7,7a-tetrahydro-6-methyl-5-oxopyrrolo(1,2-c)oxazole-6,7a-dicarboxylic acid 7a-methyl ester'
_symmetry_cell_setting           orthorhombic
_symmetry_space_group_name_H-M   'P 21 21 21'
_symmetry_Int_Tables_number      19
_space_group_name_Hall           'P 2ac 2ab'
loop_
_symmetry_equiv_pos_site_id
_symmetry_equiv_pos_as_xyz
1 x,y,z
2 1/2-x,-y,1/2+z
3 -x,1/2+y,1/2-z
4 1/2+x,1/2-y,-z
_cell_length_a                   7.147(3)
_cell_length_b                   11.284(4)
_cell_length_c                   18.635(7)
_cell_angle_alpha                90
_cell_angle_beta                 90
_cell_angle_gamma                90
_cell_volume                     1502.85
_chemical_melting_point          'decomposes above 132 deg.C'
_cell_formula_units_Z            4
loop_
_atom_site_label
_atom_site_type_symbol
_atom_site_fract_x
_atom_site_fract_y
_atom_site_fract_z
C1 C 1.0404(2) 0.03392(11) 0.90423(7)
H1 H 1.0422 -0.0123 0.9494
H2 H 1.1700 0.0424 0.8862
O1 O 0.95406(15) 0.14778(8) 0.91470(5)
C2 C 0.7563(2) 0.13506(10) 0.91014(6)
H3 H 0.7045 0.1272 0.9598
C3 C 0.6714(2) 0.24541(10) 0.87493(7)
C4 C 0.7622(2) 0.27125(11) 0.80262(7)
H4 H 0.7399 0.2047 0.7700
H5 H 0.8972 0.2821 0.8092
H6 H 0.7079 0.3436 0.7823
C5 C 0.7062(2) 0.34974(11) 0.92626(8)
H7 H 0.6537 0.4223 0.9056
H8 H 0.8411 0.3598 0.9334
H9 H 0.6460 0.3336 0.9725
C6 C 0.4610(2) 0.22612(11) 0.86589(8)
H10 H 0.4393 0.1596 0.8331
H11 H 0.4039 0.2980 0.8461
H12 H 0.4049 0.2085 0.9127
N1 N 0.73198(16) 0.02001(8) 0.87192(5)
C7 C 0.62282(19) -0.06658(10) 0.90084(7)
O2 O 0.47540(14) -0.04674(7) 0.93186(5)
C8 C 0.7118(2) -0.18856(9) 0.88937(7)
C9 C 0.5835(2) -0.27003(11) 0.84615(7)
H13 H 0.4678 -0.2840 0.8731
H14 H 0.6469 -0.3457 0.8375
H15 H 0.5536 -0.2326 0.8001
C10 C 0.7595(2) -0.24009(10) 0.96278(7)
O3 O 0.80399(16) -0.35319(8) 0.95895(6)
H16 H 0.847(3) -0.3727(16) 0.9998(11)
O4 O 0.7634(2) -0.18199(10) 1.01684(6)
C11 C 0.8989(2) -0.16145(10) 0.85077(7)
H17 H 1.0053 -0.1962 0.8775
H18 H 0.8982 -0.1946 0.8016
C12 C 0.91518(18) -0.02436(10) 0.84847(7)
C13 C 0.9627(2) 0.01724(10) 0.77265(7)
C14 C 0.8556(3) 0.02425(13) 0.65348(7)
H19 H 0.7476 0.0005 0.6245
H20 H 0.9684 -0.0149 0.6352
H21 H 0.8715 0.1104 0.6507
O5 O 1.10775(16) 0.06370(9) 0.75609(6)
O6 O 0.82522(15) -0.01005(8) 0.72720(5)
loop_
_geom_bond_atom_site_label_1
_geom_bond_atom_site_label_2
_geom_bond_site_symmetry_1
_geom_bond_site_symmetry_2
C1 H1 1_555 1_555
H2 C1 1_555 1_555
O1 C1 1_555 1_555
C2 O1 1_555 1_555
H3 C2 1_555 1_555
C3 C2 1_555 1_555
C4 C3 1_555 1_555
H4 C4 1_555 1_555
H5 C4 1_555 1_555
H6 C4 1_555 1_555
C5 C3 1_555 1_555
H7 C5 1_555 1_555
H8 C5 1_555 1_555
H9 C5 1_555 1_555
C6 C3 1_555 1_555
H10 C6 1_555 1_555
H11 C6 1_555 1_555
H12 C6 1_555 1_555
N1 C2 1_555 1_555
C7 N1 1_555 1_555
O2 C7 1_555 1_555
C8 C7 1_555 1_555
C9 C8 1_555 1_555
H13 C9 1_555 1_555
H14 C9 1_555 1_555
H15 C9 1_555 1_555
C10 C8 1_555 1_555
O3 C10 1_555 1_555
H16 O3 1_555 1_555
O4 C10 1_555 1_555
C11 C8 1_555 1_555
H17 C11 1_555 1_555
H18 C11 1_555 1_555
C12 C1 1_555 1_555
C13 C12 1_555 1_555
C14 H19 1_555 1_555
H20 C14 1_555 1_555
H21 C14 1_555 1_555
O5 C13 1_555 1_555
O6 C13 1_555 1_555
N1 C12 1_555 1_555
C11 C12 1_555 1_555
C14 O6 1_555 1_555

#END
