
#######################################################################
#
#                 Cambridge Crystallographic Data Centre
#                                CCDC 
#
#######################################################################
#
# If this CIF has been generated from an entry in the Cambridge 
# Structural Database, then it will include bibliographic, chemical, 
# crystal, experimental, refinement or atomic coordinate data resulting 
# from the CCDC's data processing and validation procedures.
#
#######################################################################

data_ECUJAN
_chemical_formula_moiety         'C12 H19 N1 O4'
_chemical_name_systematic        
'(3S,7aR)-3-t-Butyl-1,6,7,7a-tetrahydro-5-oxopyrrolo(1,2-c)oxazole-7a-carboxylic acid methyl ester'
_symmetry_cell_setting           monoclinic
_symmetry_space_group_name_H-M   'P 21'
_symmetry_Int_Tables_number      4
_space_group_name_Hall           'P 2yb'
loop_
_symmetry_equiv_pos_site_id
_symmetry_equiv_pos_as_xyz
1 x,y,z
2 -x,1/2+y,-z
_cell_length_a                   8.4952(9)
_cell_length_b                   13.1924(14)
_cell_length_c                   11.3217(12)
_cell_angle_alpha                90
_cell_angle_beta                 90.020(2)
_cell_angle_gamma                90
_cell_volume                     1268.85
_chemical_melting_point          '82-83 deg.C'
_cell_formula_units_Z            4
loop_
_atom_site_label
_atom_site_type_symbol
_atom_site_fract_x
_atom_site_fract_y
_atom_site_fract_z
C1 C 0.7263(2) 0.50090(17) 0.41314(18)
H1 H 0.6785 0.5674 0.4057
H2 H 0.6490 0.4539 0.4444
O1 O 0.86177(17) 0.50465(13) 0.48629(13)
C2 C 0.9942(2) 0.53330(16) 0.41612(19)
H3 H 1.0116 0.6064 0.4238
C3 C 1.1405(3) 0.47664(18) 0.4599(2)
C4 C 1.1204(3) 0.36225(19) 0.4490(2)
H4 H 1.2136 0.3290 0.4771
H5 H 1.1032 0.3448 0.3677
H6 H 1.0317 0.3410 0.4952
C5 C 1.1631(3) 0.5071(2) 0.5888(2)
H7 H 1.2540 0.4732 0.6202
H8 H 1.0717 0.4881 0.6335
H9 H 1.1780 0.5791 0.5938
C6 C 1.2830(2) 0.5109(2) 0.3870(2)
H10 H 1.3754 0.4759 0.4138
H11 H 1.2977 0.5826 0.3965
H12 H 1.2651 0.4958 0.3052
N1 N 0.94697(17) 0.51015(13) 0.29440(15)
C7 C 0.9720(2) 0.57436(15) 0.20170(18)
O2 O 1.07915(18) 0.63465(13) 0.19354(14)
C8 C 0.8442(2) 0.55515(17) 0.1124(2)
H13 H 0.8810 0.5098 0.0508
H14 H 0.8099 0.6181 0.0765
C9 C 0.7099(2) 0.50626(17) 0.18297(18)
H15 H 0.6607 0.4523 0.1380
H16 H 0.6306 0.5561 0.2034
C10 C 0.7898(2) 0.46425(14) 0.29447(19)
C11 C 0.7972(2) 0.34858(16) 0.2865(2)
C12 C 0.8928(3) 0.21252(18) 0.1709(3)
H17 H 0.9583 0.2005 0.1033
H18 H 0.7888 0.1872 0.1558
H19 H 0.9363 0.1784 0.2384
O3 O 0.7274(2) 0.29132(13) 0.35061(16)
O4 O 0.88511(18) 0.32017(12) 0.19410(15)
C13 C 0.7002(2) 0.32081(17) 0.90283(17)
H20 H 0.7252 0.2496 0.8929
H21 H 0.7932 0.3561 0.9306
O5 O 0.57165(16) 0.33378(11) 0.98343(13)
C14 C 0.4287(2) 0.31884(17) 0.92068(18)
H22 H 0.3965 0.2478 0.9281
C15 C 0.3004(2) 0.38691(17) 0.97261(19)
C16 C 0.3470(3) 0.49847(18) 0.9672(2)
H23 H 0.2643 0.5391 1.0003
H24 H 0.3639 0.5178 0.8865
H25 H 0.4421 0.5087 1.0114
C17 C 0.2731(3) 0.35366(19) 1.10055(19)
H26 H 0.1929 0.3952 1.1354
H27 H 0.3691 0.3608 1.1445
H28 H 0.2403 0.2841 1.1019
C18 C 0.1480(3) 0.37077(19) 0.9032(2)
H29 H 0.0667 0.4132 0.9352
H30 H 0.1165 0.3011 0.9090
H31 H 0.1649 0.3879 0.8217
N2 N 0.47316(18) 0.33951(12) 0.79702(16)
C19 C 0.4239(2) 0.28050(16) 0.7056(2)
O6 O 0.30412(18) 0.23111(12) 0.70541(14)
C20 C 0.5449(2) 0.29003(18) 0.60678(19)
H32 H 0.5156 0.3432 0.5519
H33 H 0.5550 0.2267 0.5638
C21 C 0.6981(2) 0.31634(17) 0.67069(18)
H34 H 0.7612 0.3631 0.6245
H35 H 0.7596 0.2559 0.6867
C22 C 0.6407(2) 0.36660(15) 0.78756(18)
C23 C 0.6675(2) 0.48070(16) 0.78168(18)
C24 C 0.5921(3) 0.63064(18) 0.6855(2)
H36 H 0.5181 0.6545 0.6278
H37 H 0.6973 0.6435 0.6583
H38 H 0.5752 0.6655 0.7588
O7 O 0.7660(2) 0.52544(13) 0.83445(16)
O8 O 0.57094(17) 0.52320(11) 0.70296(14)
loop_
_geom_bond_atom_site_label_1
_geom_bond_atom_site_label_2
_geom_bond_site_symmetry_1
_geom_bond_site_symmetry_2
C1 H1 1_555 1_555
H2 C1 1_555 1_555
O1 C1 1_555 1_555
C2 O1 1_555 1_555
H3 C2 1_555 1_555
C3 C2 1_555 1_555
C4 C3 1_555 1_555
H4 C4 1_555 1_555
H5 C4 1_555 1_555
H6 C4 1_555 1_555
C5 C3 1_555 1_555
H7 C5 1_555 1_555
H8 C5 1_555 1_555
H9 C5 1_555 1_555
C6 C3 1_555 1_555
H10 C6 1_555 1_555
H11 C6 1_555 1_555
H12 C6 1_555 1_555
N1 C2 1_555 1_555
C7 N1 1_555 1_555
O2 C7 1_555 1_555
C8 C7 1_555 1_555
H13 C8 1_555 1_555
H14 C8 1_555 1_555
C9 C8 1_555 1_555
H15 C9 1_555 1_555
H16 C9 1_555 1_555
C10 C1 1_555 1_555
C11 C10 1_555 1_555
C12 H17 1_555 1_555
H18 C12 1_555 1_555
H19 C12 1_555 1_555
O3 C11 1_555 1_555
O4 C11 1_555 1_555
C13 H20 1_555 1_555
H21 C13 1_555 1_555
O5 C13 1_555 1_555
C14 O5 1_555 1_555
H22 C14 1_555 1_555
C15 C14 1_555 1_555
C16 C15 1_555 1_555
H23 C16 1_555 1_555
H24 C16 1_555 1_555
H25 C16 1_555 1_555
C17 C15 1_555 1_555
H26 C17 1_555 1_555
H27 C17 1_555 1_555
H28 C17 1_555 1_555
C18 C15 1_555 1_555
H29 C18 1_555 1_555
H30 C18 1_555 1_555
H31 C18 1_555 1_555
N2 C14 1_555 1_555
C19 N2 1_555 1_555
O6 C19 1_555 1_555
C20 C19 1_555 1_555
H32 C20 1_555 1_555
H33 C20 1_555 1_555
C21 C20 1_555 1_555
H34 C21 1_555 1_555
H35 C21 1_555 1_555
C22 C13 1_555 1_555
C23 C22 1_555 1_555
C24 H36 1_555 1_555
H37 C24 1_555 1_555
H38 C24 1_555 1_555
O7 C23 1_555 1_555
O8 C23 1_555 1_555
N1 C10 1_555 1_555
C9 C10 1_555 1_555
C12 O4 1_555 1_555
N2 C22 1_555 1_555
C21 C22 1_555 1_555
C24 O8 1_555 1_555

#END
