
#######################################################################
#
#                 Cambridge Crystallographic Data Centre
#                                CCDC 
#
#######################################################################
#
# If this CIF has been generated from an entry in the Cambridge 
# Structural Database, then it will include bibliographic, chemical, 
# crystal, experimental, refinement or atomic coordinate data resulting 
# from the CCDC's data processing and validation procedures.
#
#######################################################################

data_ECUJEU
_chemical_formula_moiety         'C32 H27 N2 O3 P1'
_chemical_name_systematic        
3-(bis(4-methylphenyl)phosphoryl)-2,5-bis(phenylamino)cyclohexa-2,5-diene-1,4-dione
_symmetry_cell_setting           monoclinic
_symmetry_space_group_name_H-M   'P 21/c'
_symmetry_Int_Tables_number      14
_space_group_name_Hall           '-P 2ybc'
loop_
_symmetry_equiv_pos_site_id
_symmetry_equiv_pos_as_xyz
1 x,y,z
2 -x,1/2+y,1/2-z
3 -x,-y,-z
4 x,1/2-y,1/2+z
_cell_length_a                   9.7594(4)
_cell_length_b                   21.0496(9)
_cell_length_c                   12.6655(5)
_cell_angle_alpha                90
_cell_angle_beta                 93.323(3)
_cell_angle_gamma                90
_cell_volume                     2597.52
_exptl_crystal_colour            black
_exptl_crystal_description       parallelepiped
_cell_formula_units_Z            4
loop_
_atom_site_label
_atom_site_type_symbol
_atom_site_fract_x
_atom_site_fract_y
_atom_site_fract_z
P1 P 0.37835(5) 0.38211(2) 0.13397(4)
O1 O 0.17950(14) 0.28011(6) 0.06468(10)
O2 O 0.08556(14) 0.34542(7) 0.45225(10)
O3 O 0.47374(14) 0.41930(6) 0.20799(10)
N1 N 0.32609(18) 0.39311(8) 0.37465(13)
H1 H 0.384(2) 0.4107(10) 0.3369(16)
N2 N 0.04231(18) 0.19749(8) 0.16900(13)
H2 H 0.071(2) 0.1950(10) 0.1059(17)
C1 C 0.17848(19) 0.29047(9) 0.16072(14)
C2 C 0.2591(2) 0.33977(9) 0.21159(14)
C3 C 0.24660(19) 0.35162(9) 0.31944(14)
C4 C 0.12867(19) 0.31988(9) 0.37341(14)
C5 C 0.0713(2) 0.26267(9) 0.32845(14)
H3 H 0.0185 0.2354 0.3700
C6 C 0.09221(19) 0.24719(9) 0.22602(14)
C7 C 0.4736(2) 0.32489(9) 0.06030(14)
C8 C 0.5859(2) 0.29649(10) 0.11351(16)
H4 H 0.6100 0.3082 0.1846
C9 C 0.6633(2) 0.25122(11) 0.06438(17)
H5 H 0.7401 0.2327 0.1023
C10 C 0.6309(2) 0.23246(10) -0.03856(16)
C11 C 0.5219(2) 0.26272(10) -0.09315(16)
H6 H 0.5004 0.2520 -0.1651
C12 C 0.4437(2) 0.30832(10) -0.04487(15)
H7 H 0.3695 0.3283 -0.0838
C13 C 0.7094(3) 0.17911(12) -0.0877(2)
H8 H 0.6445 0.1488 -0.1216
H9 H 0.7664 0.1574 -0.0326
H10 H 0.7682 0.1966 -0.1408
C14 C 0.2871(2) 0.43400(9) 0.04095(14)
C15 C 0.1698(2) 0.41813(10) -0.02253(15)
H11 H 0.1322 0.3766 -0.0189
C16 C 0.1085(2) 0.46249(10) -0.09053(17)
H12 H 0.0286 0.4510 -0.1326
C17 C 0.1614(2) 0.52364(10) -0.09874(16)
C18 C 0.2764(2) 0.53927(10) -0.03499(17)
H13 H 0.3135 0.5809 -0.0386
C19 C 0.3387(2) 0.49546(10) 0.03403(17)
H14 H 0.4174 0.5075 0.0771
C20 C 0.0957(3) 0.57188(12) -0.1743(2)
H15 H -0.0044 0.5679 -0.1750
H16 H 0.1261 0.5643 -0.2456
H17 H 0.1228 0.6148 -0.1513
C21 C 0.33949(19) 0.40360(10) 0.48714(14)
C22 C 0.3457(2) 0.46600(10) 0.52339(16)
H18 H 0.3384 0.5003 0.4746
C23 C 0.3627(2) 0.47805(11) 0.63124(17)
H19 H 0.3658 0.5206 0.6562
C24 C 0.3749(2) 0.42830(12) 0.70202(16)
H20 H 0.3847 0.4365 0.7758
C25 C 0.3728(2) 0.36662(11) 0.66528(16)
H21 H 0.3833 0.3325 0.7141
C26 C 0.3555(2) 0.35388(10) 0.55774(15)
H22 H 0.3548 0.3113 0.5330
C27 C -0.0462(2) 0.14790(9) 0.19672(14)
C28 C -0.1538(2) 0.15715(10) 0.26295(15)
H23 H -0.1653 0.1970 0.2965
C29 C -0.2437(2) 0.10757(11) 0.27926(17)
H24 H -0.3169 0.1137 0.3244
C30 C -0.2283(2) 0.04949(11) 0.23088(17)
H25 H -0.2912 0.0161 0.2421
C31 C -0.1209(2) 0.04019(10) 0.16602(16)
H26 H -0.1096 0.0001 0.1331
C32 C -0.0295(2) 0.08910(10) 0.14871(15)
H27 H 0.0442 0.0825 0.1042
loop_
_geom_bond_atom_site_label_1
_geom_bond_atom_site_label_2
_geom_bond_site_symmetry_1
_geom_bond_site_symmetry_2
P1 O3 1_555 1_555
O1 C1 1_555 1_555
O2 C4 1_555 1_555
N1 H1 1_555 1_555
N2 H2 1_555 1_555
C1 C2 1_555 1_555
C2 P1 1_555 1_555
C3 N1 1_555 1_555
C4 C3 1_555 1_555
C5 C4 1_555 1_555
H3 C5 1_555 1_555
C6 N2 1_555 1_555
C7 P1 1_555 1_555
C8 C7 1_555 1_555
H4 C8 1_555 1_555
C9 C8 1_555 1_555
H5 C9 1_555 1_555
C10 C9 1_555 1_555
C11 C10 1_555 1_555
H6 C11 1_555 1_555
C12 C7 1_555 1_555
H7 C12 1_555 1_555
C13 C10 1_555 1_555
H8 C13 1_555 1_555
H9 C13 1_555 1_555
H10 C13 1_555 1_555
C14 P1 1_555 1_555
C15 C14 1_555 1_555
H11 C15 1_555 1_555
C16 C15 1_555 1_555
H12 C16 1_555 1_555
C17 C16 1_555 1_555
C18 C17 1_555 1_555
H13 C18 1_555 1_555
C19 C14 1_555 1_555
H14 C19 1_555 1_555
C20 C17 1_555 1_555
H15 C20 1_555 1_555
H16 C20 1_555 1_555
H17 C20 1_555 1_555
C21 N1 1_555 1_555
C22 C21 1_555 1_555
H18 C22 1_555 1_555
C23 C22 1_555 1_555
H19 C23 1_555 1_555
C24 C23 1_555 1_555
H20 C24 1_555 1_555
C25 C24 1_555 1_555
H21 C25 1_555 1_555
C26 C21 1_555 1_555
H22 C26 1_555 1_555
C27 N2 1_555 1_555
C28 C27 1_555 1_555
H23 C28 1_555 1_555
C29 C28 1_555 1_555
H24 C29 1_555 1_555
C30 C29 1_555 1_555
H25 C30 1_555 1_555
C31 C30 1_555 1_555
H26 C31 1_555 1_555
C32 C27 1_555 1_555
H27 C32 1_555 1_555
C1 C6 1_555 1_555
C2 C3 1_555 1_555
C5 C6 1_555 1_555
C11 C12 1_555 1_555
C18 C19 1_555 1_555
C25 C26 1_555 1_555
C31 C32 1_555 1_555

#END
