
#######################################################################
#
#                 Cambridge Crystallographic Data Centre
#                                CCDC 
#
#######################################################################
#
# If this CIF has been generated from an entry in the Cambridge 
# Structural Database, then it will include bibliographic, chemical, 
# crystal, experimental, refinement or atomic coordinate data resulting 
# from the CCDC's data processing and validation procedures.
#
#######################################################################

data_ECUJUH
_chemical_formula_moiety         'C20 H25 N1 O6'
_chemical_name_systematic        
'(3S,6R,7aR)-6-Benzyl-3-t-butyl-1,6,7,7a-tetrahydro-5-oxopyrrolo(1,2-c)oxazole-6,7a-dicarboxylic acid 7a-methyl ester'
_symmetry_cell_setting           orthorhombic
_symmetry_space_group_name_H-M   'P 21 21 21'
_symmetry_Int_Tables_number      19
_space_group_name_Hall           'P 2ac 2ab'
loop_
_symmetry_equiv_pos_site_id
_symmetry_equiv_pos_as_xyz
1 x,y,z
2 1/2-x,-y,1/2+z
3 -x,1/2+y,1/2-z
4 1/2+x,1/2-y,-z
_cell_length_a                   8.2069(14)
_cell_length_b                   9.3101(16)
_cell_length_c                   24.962(4)
_cell_angle_alpha                90
_cell_angle_beta                 90
_cell_angle_gamma                90
_cell_volume                     1907.27
_chemical_melting_point          'decomposes above 133 deg.C'
_cell_formula_units_Z            4
loop_
_atom_site_label
_atom_site_type_symbol
_atom_site_fract_x
_atom_site_fract_y
_atom_site_fract_z
C1 C 0.49030(14) 0.03408(13) 0.96617(5)
H1 H 0.4369 0.0907 0.9937
H2 H 0.5756 -0.0232 0.9825
O1 O 0.55482(10) 0.12480(10) 0.92407(4)
C2 C 0.42575(14) 0.15529(13) 0.88603(5)
H3 H 0.3777 0.2489 0.8946
C3 C 0.49618(15) 0.16039(14) 0.82923(5)
C4 C 0.55864(17) 0.01342(15) 0.81081(5)
H4 H 0.4705 -0.0544 0.8111
H5 H 0.6430 -0.0187 0.8346
H6 H 0.6016 0.0212 0.7752
C5 C 0.63760(16) 0.26897(15) 0.82871(6)
H7 H 0.7226 0.2361 0.8521
H8 H 0.5990 0.3608 0.8407
H9 H 0.6794 0.2777 0.7929
C6 C 0.35862(17) 0.21137(16) 0.79186(6)
H10 H 0.2712 0.1429 0.7925
H11 H 0.3997 0.2199 0.7560
H12 H 0.3192 0.3031 0.8038
N1 N 0.30452(11) 0.04193(11) 0.89685(4)
C7 C 0.14463(14) 0.08030(13) 0.90707(5)
O2 O 0.07318(11) 0.17908(10) 0.88571(4)
C8 C 0.07215(14) -0.01985(13) 0.95013(5)
C9 C 0.02099(15) 0.07818(14) 0.99662(5)
O3 O 0.14907(12) 0.15272(11) 1.01427(4)
H13 H 0.119(2) 0.208(2) 1.0394(9)
O4 O -0.11437(12) 0.08564(12) 1.01500(4)
C10 C -0.07829(14) -0.10173(13) 0.92878(5)
H14 H -0.1264 -0.1554 0.9581
H15 H -0.1583 -0.0322 0.9167
C11 C -0.04277(14) -0.20441(14) 0.88333(5)
C12 C -0.02172(16) -0.15523(15) 0.83081(5)
H16 H -0.0297 -0.0575 0.8236
C13 C 0.01092(19) -0.25029(17) 0.78930(6)
H17 H 0.0251 -0.2158 0.7546
C14 C 0.02254(19) -0.39700(18) 0.79938(6)
H18 H 0.0440 -0.4605 0.7715
C15 C 0.00183(18) -0.44822(16) 0.85132(7)
H19 H 0.0097 -0.5460 0.8584
C16 C -0.03068(16) -0.35180(15) 0.89258(6)
H20 H -0.0447 -0.3865 0.9272
C17 C 0.21714(13) -0.11523(13) 0.96752(5)
H21 H 0.1957 -0.2151 0.9590
H22 H 0.2351 -0.1071 1.0058
C18 C 0.36797(14) -0.06067(13) 0.93631(4)
C19 C 0.45199(14) -0.19276(13) 0.91282(5)
C20 C 0.43629(18) -0.38242(15) 0.85170(6)
H23 H 0.3738 -0.4141 0.8214
H24 H 0.4287 -0.4524 0.8798
H25 H 0.5482 -0.3710 0.8414
O5 O 0.56844(11) -0.24883(11) 0.93357(4)
O6 O 0.37284(11) -0.24577(10) 0.87061(4)
loop_
_geom_bond_atom_site_label_1
_geom_bond_atom_site_label_2
_geom_bond_site_symmetry_1
_geom_bond_site_symmetry_2
C1 H1 1_555 1_555
H2 C1 1_555 1_555
O1 C1 1_555 1_555
C2 O1 1_555 1_555
H3 C2 1_555 1_555
C3 C2 1_555 1_555
C4 C3 1_555 1_555
H4 C4 1_555 1_555
H5 C4 1_555 1_555
H6 C4 1_555 1_555
C5 C3 1_555 1_555
H7 C5 1_555 1_555
H8 C5 1_555 1_555
H9 C5 1_555 1_555
C6 C3 1_555 1_555
H10 C6 1_555 1_555
H11 C6 1_555 1_555
H12 C6 1_555 1_555
N1 C2 1_555 1_555
C7 N1 1_555 1_555
O2 C7 1_555 1_555
C8 C7 1_555 1_555
C9 C8 1_555 1_555
O3 C9 1_555 1_555
H13 O3 1_555 1_555
O4 C9 1_555 1_555
C10 C8 1_555 1_555
H14 C10 1_555 1_555
H15 C10 1_555 1_555
C11 C10 1_555 1_555
C12 C11 1_555 1_555
H16 C12 1_555 1_555
C13 C12 1_555 1_555
H17 C13 1_555 1_555
C14 C13 1_555 1_555
H18 C14 1_555 1_555
C15 C14 1_555 1_555
H19 C15 1_555 1_555
C16 C11 1_555 1_555
H20 C16 1_555 1_555
C17 C8 1_555 1_555
H21 C17 1_555 1_555
H22 C17 1_555 1_555
C18 C1 1_555 1_555
C19 C18 1_555 1_555
C20 H23 1_555 1_555
H24 C20 1_555 1_555
H25 C20 1_555 1_555
O5 C19 1_555 1_555
O6 C19 1_555 1_555
N1 C18 1_555 1_555
C15 C16 1_555 1_555
C17 C18 1_555 1_555
C20 O6 1_555 1_555

#END
