
#######################################################################
#
#                 Cambridge Crystallographic Data Centre
#                                CCDC 
#
#######################################################################
#
# If this CIF has been generated from an entry in the Cambridge 
# Structural Database, then it will include bibliographic, chemical, 
# crystal, experimental, refinement or atomic coordinate data resulting 
# from the CCDC's data processing and validation procedures.
#
#######################################################################

data_ECUKAO
_chemical_formula_moiety         'C15 H23 N1 O6'
_chemical_name_systematic        
'(3S,7aR)-3-t-Butyl-1,6,7,7a-tetrahydro-5-oxopyrrolo(1,2-c)oxazole-6,7a-dicarboxylic acid 6-ethyl ester 7a-methyl ester'
_symmetry_cell_setting           monoclinic
_symmetry_space_group_name_H-M   'P 21'
_symmetry_Int_Tables_number      4
_space_group_name_Hall           'P 2yb'
loop_
_symmetry_equiv_pos_site_id
_symmetry_equiv_pos_as_xyz
1 x,y,z
2 -x,1/2+y,-z
_cell_length_a                   6.6354(12)
_cell_length_b                   10.241(2)
_cell_length_c                   12.127(2)
_cell_angle_alpha                90.00
_cell_angle_beta                 101.712(3)
_cell_angle_gamma                90.00
_cell_volume                     806.911
_chemical_melting_point          '105-107 deg.C'
_cell_formula_units_Z            2
loop_
_atom_site_label
_atom_site_type_symbol
_atom_site_fract_x
_atom_site_fract_y
_atom_site_fract_z
C1 C 1.1426(3) 0.95169(19) 0.60959(15)
H1 H 1.1690 0.8609 0.5882
H2 H 1.1591 1.0113 0.5478
O1 O 1.27603(19) 0.98790(13) 0.71353(11)
C2 C 1.1951(3) 0.93642(18) 0.80499(15)
H3 H 1.2549 0.8479 0.8253
C3 C 1.2514(3) 1.02763(19) 0.90694(15)
C4 C 1.1614(3) 1.1642(2) 0.87826(17)
H4 H 1.2164 1.2006 0.8157
H5 H 1.1991 1.2210 0.9443
H6 H 1.0111 1.1583 0.8565
C5 C 1.4875(3) 1.0340(2) 0.93854(18)
H7 H 1.5409 1.0705 0.8755
H8 H 1.5429 0.9459 0.9553
H9 H 1.5293 1.0896 1.0050
C6 C 1.1651(3) 0.9704(2) 1.00520(16)
H10 H 1.0146 0.9667 0.9842
H11 H 1.2061 1.0258 1.0719
H12 H 1.2198 0.8821 1.0221
N1 N 0.9727(2) 0.92379(14) 0.75568(12)
C7 C 0.8481(3) 0.82512(17) 0.77829(15)
O2 O 0.8754(2) 0.75749(14) 0.86155(12)
C8 C 0.6656(3) 0.81825(17) 0.67681(16)
H13 H 0.5549 0.8789 0.6902
C9 C 0.5793(3) 0.68095(18) 0.66085(16)
C10 C 0.3569(3) 0.52973(18) 0.72598(18)
H14 H 0.4368 0.4787 0.7894
H15 H 0.3648 0.4845 0.6548
C11 C 0.1383(4) 0.5405(2) 0.7377(3)
H16 H 0.0788 0.4529 0.7380
H17 H 0.0603 0.5906 0.6744
H18 H 0.1321 0.5850 0.8085
O3 O 0.6274(2) 0.60117(16) 0.59807(14)
O4 O 0.4415(2) 0.66113(13) 0.72581(13)
C12 C 0.7575(3) 0.87106(19) 0.57924(15)
H19 H 0.6522 0.9180 0.5238
H20 H 0.8154 0.7995 0.5404
C13 C 0.9282(3) 0.96493(17) 0.63736(14)
C14 C 0.8500(3) 1.1064(2) 0.62404(16)
C15 C 0.6103(4) 1.2524(2) 0.6757(2)
H21 H 0.5049 1.2541 0.7218
H22 H 0.5468 1.2720 0.5973
H23 H 0.7160 1.3179 0.7037
O5 O 0.9091(3) 1.18681(18) 0.56600(17)
O6 O 0.7037(2) 1.12436(13) 0.68214(13)
loop_
_geom_bond_atom_site_label_1
_geom_bond_atom_site_label_2
_geom_bond_site_symmetry_1
_geom_bond_site_symmetry_2
C1 H1 1_555 1_555
H2 C1 1_555 1_555
O1 C1 1_555 1_555
C2 O1 1_555 1_555
H3 C2 1_555 1_555
C3 C2 1_555 1_555
C4 C3 1_555 1_555
H4 C4 1_555 1_555
H5 C4 1_555 1_555
H6 C4 1_555 1_555
C5 C3 1_555 1_555
H7 C5 1_555 1_555
H8 C5 1_555 1_555
H9 C5 1_555 1_555
C6 C3 1_555 1_555
H10 C6 1_555 1_555
H11 C6 1_555 1_555
H12 C6 1_555 1_555
N1 C2 1_555 1_555
C7 N1 1_555 1_555
O2 C7 1_555 1_555
C8 C7 1_555 1_555
H13 C8 1_555 1_555
C9 C8 1_555 1_555
C10 H14 1_555 1_555
H15 C10 1_555 1_555
C11 C10 1_555 1_555
H16 C11 1_555 1_555
H17 C11 1_555 1_555
H18 C11 1_555 1_555
O3 C9 1_555 1_555
O4 C9 1_555 1_555
C12 C8 1_555 1_555
H19 C12 1_555 1_555
H20 C12 1_555 1_555
C13 C1 1_555 1_555
C14 C13 1_555 1_555
C15 H21 1_555 1_555
H22 C15 1_555 1_555
H23 C15 1_555 1_555
O5 C14 1_555 1_555
O6 C14 1_555 1_555
N1 C13 1_555 1_555
C10 O4 1_555 1_555
C12 C13 1_555 1_555
C15 O6 1_555 1_555

#END
