
#######################################################################
#
#                 Cambridge Crystallographic Data Centre
#                                CCDC 
#
#######################################################################
#
# If this CIF has been generated from an entry in the Cambridge 
# Structural Database, then it will include bibliographic, chemical, 
# crystal, experimental, refinement or atomic coordinate data resulting 
# from the CCDC's data processing and validation procedures.
#
#######################################################################

data_ECUKIX
_chemical_formula_moiety         'C76 H64 Si3'
_chemical_name_systematic        
bis(2-(1-methyl-2,3,4,5-tetraphenylsiloyl)-2-phenylethenyl)-dimethylsilane
_symmetry_cell_setting           triclinic
_symmetry_space_group_name_H-M   'P -1'
_symmetry_Int_Tables_number      2
_space_group_name_Hall           '-P 1'
loop_
_symmetry_equiv_pos_site_id
_symmetry_equiv_pos_as_xyz
1 x,y,z
2 -x,-y,-z
_cell_length_a                   12.1496(9)
_cell_length_b                   12.7512(9)
_cell_length_c                   22.4750(17)
_cell_angle_alpha                104.1790(10)
_cell_angle_beta                 93.981(2)
_cell_angle_gamma                113.6780(10)
_cell_volume                     3035.9
_exptl_crystal_colour            green
_exptl_crystal_description       rod
_cell_formula_units_Z            2
_exptl_crystal_recrystallization_method dichloromethane/hexane
loop_
_atom_site_label
_atom_site_type_symbol
_atom_site_fract_x
_atom_site_fract_y
_atom_site_fract_z
Si1 Si 0.04828(5) 0.51891(4) 0.12296(2)
Si2 Si 0.02919(5) 0.49759(4) 0.32753(2)
Si3 Si 0.12745(5) 0.91037(4) 0.12934(2)
C1 C 0.1686(2) 0.48473(18) 0.08708(9)
H1 H 0.1833 0.5162 0.0522
H2 H 0.1416 0.3994 0.0729
H3 H 0.2429 0.5210 0.1176
C2 C -0.1014(2) 0.41642(18) 0.07023(10)
H4 H -0.1628 0.4416 0.0833
H5 H -0.1239 0.3361 0.0720
H6 H -0.0950 0.4186 0.0282
C3 C 0.05142(16) 0.49311(14) 0.20197(8)
H7 H 0.0919 0.4471 0.2079
C4 C 0.00529(15) 0.52970(14) 0.25096(8)
C5 C -0.06796(17) 0.59962(16) 0.24969(8)
C6 C -0.0182(2) 0.72117(17) 0.28060(10)
H8 H 0.0629 0.7601 0.3015
C7 C -0.0858(3) 0.7858(2) 0.28119(12)
H9 H -0.0498 0.8678 0.3017
C8 C -0.2054(3) 0.7299(3) 0.25184(13)
H10 H -0.2514 0.7733 0.2526
C9 C -0.2573(2) 0.6092(3) 0.22125(14)
H11 H -0.3388 0.5706 0.2012
C10 C -0.1886(2) 0.5444(2) 0.22017(11)
H12 H -0.2246 0.4627 0.1992
C11 C 0.0919(2) 0.38537(18) 0.31905(9)
H13 H 0.0943 0.3639 0.3570
H14 H 0.1732 0.4188 0.3106
H15 H 0.0407 0.3152 0.2852
C12 C 0.11788(16) 0.63893(15) 0.39339(8)
C13 C 0.03846(15) 0.65380(14) 0.43038(7)
C14 C -0.09062(16) 0.55669(15) 0.41192(8)
C15 C -0.11314(16) 0.46106(15) 0.36199(8)
C16 C 0.25012(16) 0.71741(15) 0.40338(8)
C17 C 0.30532(19) 0.7379(2) 0.35304(10)
H16 H 0.2582 0.7017 0.3130
C18 C 0.4289(2) 0.8109(2) 0.36065(12)
H17 H 0.4631 0.8248 0.3260
C19 C 0.5008(2) 0.8624(2) 0.41873(12)
H18 H 0.5840 0.9113 0.4239
C20 C 0.4493(2) 0.8413(2) 0.46919(12)
H19 H 0.4981 0.8753 0.5089
C21 C 0.32590(19) 0.7704(2) 0.46203(10)
H20 H 0.2926 0.7577 0.4971
C22 C 0.07085(15) 0.75955(15) 0.48648(8)
C23 C 0.08778(19) 0.86941(17) 0.47967(9)
H21 H 0.0755 0.8769 0.4399
C24 C 0.1230(2) 0.96868(18) 0.53173(11)
H22 H 0.1322 1.0419 0.5268
C25 C 0.1441(2) 0.9591(2) 0.59045(10)
H23 H 0.1701 1.0264 0.6252
C26 C 0.1271(2) 0.8505(2) 0.59805(10)
H24 H 0.1410 0.8437 0.6379
C27 C 0.08910(19) 0.75113(18) 0.54620(9)
H25 H 0.0756 0.6772 0.5516
C28 C -0.18362(16) 0.57862(16) 0.44691(9)
C29 C -0.2100(2) 0.5441(2) 0.50003(10)
H26 H -0.1679 0.5068 0.5157
C30 C -0.2985(3) 0.5646(3) 0.53000(13)
H27 H -0.3168 0.5397 0.5651
C31 C -0.3586(2) 0.6214(3) 0.50794(16)
H28 H -0.4179 0.6351 0.5282
C32 C -0.3327(2) 0.6582(2) 0.45638(16)
H29 H -0.3733 0.6980 0.4419
C33 C -0.24502(19) 0.63607(19) 0.42534(11)
H30 H -0.2281 0.6603 0.3899
C34 C -0.22511(16) 0.34679(15) 0.33744(8)
C35 C -0.31136(17) 0.29960(17) 0.37267(9)
H31 H -0.3059 0.3464 0.4126
C36 C -0.40507(19) 0.18496(19) 0.34985(10)
H32 H -0.4612 0.1558 0.3747
C37 C -0.4162(2) 0.11397(19) 0.29119(11)
H33 H -0.4780 0.0361 0.2764
C38 C -0.3352(2) 0.1589(2) 0.25461(11)
H34 H -0.3433 0.1121 0.2142
C39 C -0.2411(2) 0.27358(18) 0.27727(9)
H35 H -0.1871 0.3026 0.2515
C40 C 0.06272(17) 0.67319(15) 0.12873(8)
H36 H -0.0103 0.6800 0.1316
C41 C 0.15649(17) 0.77589(15) 0.12956(8)
C42 C 0.28464(17) 0.78937(15) 0.13493(9)
C43 C 0.3545(2) 0.8269(2) 0.09144(12)
H37 H 0.3213 0.8446 0.0588
C44 C 0.4730(3) 0.8383(2) 0.09618(16)
H38 H 0.5185 0.8632 0.0665
C45 C 0.5242(2) 0.8133(2) 0.14380(15)
H39 H 0.6041 0.8214 0.1467
C46 C 0.4568(2) 0.7765(2) 0.18708(12)
H40 H 0.4907 0.7589 0.2196
C47 C 0.33813(19) 0.76509(19) 0.18282(10)
H41 H 0.2935 0.7406 0.2128
C48 C -0.0381(2) 0.87075(19) 0.12384(11)
H42 H -0.0646 0.8476 0.1598
H43 H -0.0833 0.8052 0.0867
H44 H -0.0523 0.9389 0.1221
C49 C 0.19705(17) 0.99193(15) 0.07213(8)
C50 C 0.27319(16) 1.10619(15) 0.10522(8)
C51 C 0.28006(17) 1.13903(15) 0.17465(8)
C52 C 0.21880(17) 1.04660(15) 0.19717(8)
C53 C 0.17662(18) 0.94164(15) 0.00334(8)
C54 C 0.0597(2) 0.88729(17) -0.03191(10)
H45 H -0.0062 0.8797 -0.0118
C55 C 0.0382(2) 0.8439(2) -0.09644(11)
H46 H -0.0411 0.8098 -0.1192
C56 C 0.1335(3) 0.8513(2) -0.12652(11)
H47 H 0.1195 0.8225 -0.1699
C57 C 0.2500(3) 0.9014(2) -0.09264(11)
H48 H 0.3147 0.9044 -0.1130
C58 C 0.2718(2) 0.94742(19) -0.02841(10)
H49 H 0.3515 0.9829 -0.0061
C59 C 0.35161(17) 1.19809(15) 0.07733(9)
C60 C 0.3026(2) 1.22933(18) 0.03095(11)
H50 H 0.2184 1.1921 0.0166
C61 C 0.3765(3) 1.3150(2) 0.00548(13)
H51 H 0.3420 1.3356 -0.0254
C62 C 0.4993(3) 1.3686(3) 0.02576(16)
H52 H 0.5492 1.4256 0.0084
C63 C 0.5500(2) 1.3396(3) 0.07135(15)
H53 H 0.6343 1.3771 0.0851
C64 C 0.4769(2) 1.2546(2) 0.09742(12)
H54 H 0.5124 1.2354 0.1286
C65 C 0.34474(17) 1.26711(15) 0.21409(9)
C66 C 0.31872(18) 1.35479(16) 0.19909(10)
H55 H 0.2641 1.3347 0.1626
C67 C 0.3729(2) 1.47163(18) 0.23765(12)
H56 H 0.3535 1.5291 0.2271
C68 C 0.4547(2) 1.5038(2) 0.29109(12)
H57 H 0.4914 1.5827 0.3168
C69 C 0.4821(2) 1.4181(2) 0.30646(12)
H58 H 0.5377 1.4391 0.3428
C70 C 0.4276(2) 1.30099(19) 0.26827(10)
H59 H 0.4469 1.2438 0.2792
C71 C 0.20999(17) 1.05727(15) 0.26355(9)
C72 C 0.1598(2) 1.12827(19) 0.29671(10)
H60 H 0.1278 1.1682 0.2766
C73 C 0.1569(3) 1.1404(2) 0.35894(12)
H61 H 0.1234 1.1888 0.3805
C74 C 0.2027(2) 1.0818(2) 0.38942(11)
H62 H 0.2017 1.0915 0.4317
C75 C 0.2502(2) 1.00908(18) 0.35755(10)
H63 H 0.2810 0.9687 0.3781
C76 C 0.25248(18) 0.99563(16) 0.29465(9)
H64 H 0.2830 0.9444 0.2730
loop_
_geom_bond_atom_site_label_1
_geom_bond_atom_site_label_2
_geom_bond_site_symmetry_1
_geom_bond_site_symmetry_2
Si1 C1 1_555 1_555
Si2 C4 1_555 1_555
Si3 C41 1_555 1_555
C1 H1 1_555 1_555
H2 C1 1_555 1_555
H3 C1 1_555 1_555
C2 Si1 1_555 1_555
H4 C2 1_555 1_555
H5 C2 1_555 1_555
H6 C2 1_555 1_555
C3 Si1 1_555 1_555
H7 C3 1_555 1_555
C4 C3 1_555 1_555
C5 C4 1_555 1_555
C6 C5 1_555 1_555
H8 C6 1_555 1_555
C7 C6 1_555 1_555
H9 C7 1_555 1_555
C8 C7 1_555 1_555
H10 C8 1_555 1_555
C9 C8 1_555 1_555
H11 C9 1_555 1_555
C10 C5 1_555 1_555
H12 C10 1_555 1_555
C11 Si2 1_555 1_555
H13 C11 1_555 1_555
H14 C11 1_555 1_555
H15 C11 1_555 1_555
C12 Si2 1_555 1_555
C13 C12 1_555 1_555
C14 C13 1_555 1_555
C15 Si2 1_555 1_555
C16 C12 1_555 1_555
C17 C16 1_555 1_555
H16 C17 1_555 1_555
C18 C17 1_555 1_555
H17 C18 1_555 1_555
C19 C18 1_555 1_555
H18 C19 1_555 1_555
C20 C19 1_555 1_555
H19 C20 1_555 1_555
C21 C16 1_555 1_555
H20 C21 1_555 1_555
C22 C13 1_555 1_555
C23 C22 1_555 1_555
H21 C23 1_555 1_555
C24 C23 1_555 1_555
H22 C24 1_555 1_555
C25 C24 1_555 1_555
H23 C25 1_555 1_555
C26 C25 1_555 1_555
H24 C26 1_555 1_555
C27 C22 1_555 1_555
H25 C27 1_555 1_555
C28 C14 1_555 1_555
C29 C28 1_555 1_555
H26 C29 1_555 1_555
C30 C29 1_555 1_555
H27 C30 1_555 1_555
C31 C30 1_555 1_555
H28 C31 1_555 1_555
C32 C31 1_555 1_555
H29 C32 1_555 1_555
C33 C28 1_555 1_555
H30 C33 1_555 1_555
C34 C15 1_555 1_555
C35 C34 1_555 1_555
H31 C35 1_555 1_555
C36 C35 1_555 1_555
H32 C36 1_555 1_555
C37 C36 1_555 1_555
H33 C37 1_555 1_555
C38 C37 1_555 1_555
H34 C38 1_555 1_555
C39 C34 1_555 1_555
H35 C39 1_555 1_555
C40 Si1 1_555 1_555
H36 C40 1_555 1_555
C41 C40 1_555 1_555
C42 C41 1_555 1_555
C43 C42 1_555 1_555
H37 C43 1_555 1_555
C44 C43 1_555 1_555
H38 C44 1_555 1_555
C45 C44 1_555 1_555
H39 C45 1_555 1_555
C46 C45 1_555 1_555
H40 C46 1_555 1_555
C47 C42 1_555 1_555
H41 C47 1_555 1_555
C48 Si3 1_555 1_555
H42 C48 1_555 1_555
H43 C48 1_555 1_555
H44 C48 1_555 1_555
C49 Si3 1_555 1_555
C50 C49 1_555 1_555
C51 C50 1_555 1_555
C52 Si3 1_555 1_555
C53 C49 1_555 1_555
C54 C53 1_555 1_555
H45 C54 1_555 1_555
C55 C54 1_555 1_555
H46 C55 1_555 1_555
C56 C55 1_555 1_555
H47 C56 1_555 1_555
C57 C56 1_555 1_555
H48 C57 1_555 1_555
C58 C53 1_555 1_555
H49 C58 1_555 1_555
C59 C50 1_555 1_555
C60 C59 1_555 1_555
H50 C60 1_555 1_555
C61 C60 1_555 1_555
H51 C61 1_555 1_555
C62 C61 1_555 1_555
H52 C62 1_555 1_555
C63 C62 1_555 1_555
H53 C63 1_555 1_555
C64 C59 1_555 1_555
H54 C64 1_555 1_555
C65 C51 1_555 1_555
C66 C65 1_555 1_555
H55 C66 1_555 1_555
C67 C66 1_555 1_555
H56 C67 1_555 1_555
C68 C67 1_555 1_555
H57 C68 1_555 1_555
C69 C68 1_555 1_555
H58 C69 1_555 1_555
C70 C65 1_555 1_555
H59 C70 1_555 1_555
C71 C52 1_555 1_555
C72 C71 1_555 1_555
H60 C72 1_555 1_555
C73 C72 1_555 1_555
H61 C73 1_555 1_555
C74 C73 1_555 1_555
H62 C74 1_555 1_555
C75 C74 1_555 1_555
H63 C75 1_555 1_555
C76 C71 1_555 1_555
H64 C76 1_555 1_555
C9 C10 1_555 1_555
C14 C15 1_555 1_555
C20 C21 1_555 1_555
C26 C27 1_555 1_555
C32 C33 1_555 1_555
C38 C39 1_555 1_555
C46 C47 1_555 1_555
C51 C52 1_555 1_555
C57 C58 1_555 1_555
C63 C64 1_555 1_555
C69 C70 1_555 1_555
C75 C76 1_555 1_555

#END
