
#######################################################################
#
#                 Cambridge Crystallographic Data Centre
#                                CCDC 
#
#######################################################################
#
# If this CIF has been generated from an entry in the Cambridge 
# Structural Database, then it will include bibliographic, chemical, 
# crystal, experimental, refinement or atomic coordinate data resulting 
# from the CCDC's data processing and validation procedures.
#
#######################################################################

data_ECUMEX
_chemical_formula_moiety         'C29 H20 O2'
_chemical_name_systematic        
3,3a,8b-triphenyl-3a,8b-dihydro-1H-benzo[b]cyclopenta[d]furan-1-one
_symmetry_cell_setting           monoclinic
_symmetry_space_group_name_H-M   'P 21/c'
_symmetry_Int_Tables_number      14
_space_group_name_Hall           '-P 2ybc'
loop_
_symmetry_equiv_pos_site_id
_symmetry_equiv_pos_as_xyz
1 x,y,z
2 -x,1/2+y,1/2-z
3 -x,-y,-z
4 x,1/2-y,1/2+z
_cell_length_a                   19.2095(11)
_cell_length_b                   8.4395(5)
_cell_length_c                   27.5953(12)
_cell_angle_alpha                90
_cell_angle_beta                 113.721(3)
_cell_angle_gamma                90
_cell_volume                     4095.75
_exptl_crystal_colour            yellow
_exptl_crystal_description       Block
_cell_formula_units_Z            8
loop_
_atom_site_label
_atom_site_type_symbol
_atom_site_fract_x
_atom_site_fract_y
_atom_site_fract_z
O1 O 0.14516(6) -0.17929(13) 0.49755(4)
O2 O 0.24328(5) -0.09857(12) 0.67428(4)
C1 C 0.43378(8) -0.24674(18) 0.63534(6)
H1 H 0.4150 -0.2893 0.6014
C2 C 0.50794(8) -0.27765(19) 0.66987(6)
H2 H 0.5380 -0.3442 0.6595
C3 C 0.53780(9) -0.20985(19) 0.71997(6)
H3 H 0.5880 -0.2292 0.7428
C4 C 0.49242(9) -0.1133(2) 0.73577(6)
H4 H 0.5124 -0.0668 0.7691
C5 C 0.41733(8) -0.08589(18) 0.70200(6)
H5 H 0.3870 -0.0230 0.7133
C6 C 0.38659(8) -0.15144(18) 0.65118(6)
C7 C 0.30658(8) -0.12536(17) 0.61489(6)
C8 C 0.27025(8) -0.19246(18) 0.56712(6)
H6 H 0.2930 -0.2627 0.5520
C9 C 0.19113(8) -0.14262(18) 0.54172(6)
C10 C 0.17278(8) -0.03543(18) 0.58000(5)
C11 C 0.25269(8) -0.02148(17) 0.62968(5)
C12 C 0.17049(8) -0.15842(18) 0.65643(6)
C13 C 0.12668(8) -0.12786(17) 0.60381(6)
C14 C 0.05217(9) -0.18104(19) 0.58123(6)
H7 H 0.0221 -0.1625 0.5457
C15 C 0.02349(9) -0.2627(2) 0.61294(7)
H8 H -0.0263 -0.2997 0.5984
C16 C 0.06834(9) -0.28964(19) 0.66603(7)
H9 H 0.0478 -0.3436 0.6866
C17 C 0.14300(9) -0.23797(19) 0.68904(6)
H10 H 0.1732 -0.2557 0.7246
C18 C 0.13928(8) 0.12309(18) 0.55537(6)
C19 C 0.16543(8) 0.19942(19) 0.52113(6)
H11 H 0.1964 0.1452 0.5081
C20 C 0.14570(9) 0.3551(2) 0.50630(6)
H12 H 0.1643 0.4052 0.4839
C21 C 0.09865(9) 0.4367(2) 0.52445(6)
H13 H 0.0868 0.5424 0.5153
C22 C 0.06927(9) 0.3597(2) 0.55650(6)
H14 H 0.0361 0.4125 0.5678
C23 C 0.08944(9) 0.2043(2) 0.57158(6)
H15 H 0.0693 0.1533 0.5929
C24 C 0.27783(8) 0.14759(18) 0.64557(5)
C25 C 0.32504(8) 0.22629(19) 0.62652(6)
H16 H 0.3466 0.1713 0.6068
C26 C 0.34043(9) 0.3865(2) 0.63666(6)
H17 H 0.3726 0.4379 0.6240
C27 C 0.30822(9) 0.4695(2) 0.66544(6)
H18 H 0.3181 0.5771 0.6718
C28 C 0.26129(10) 0.3924(2) 0.68474(7)
H19 H 0.2394 0.4484 0.7041
C29 C 0.24671(9) 0.2318(2) 0.67544(6)
H20 H 0.2160 0.1801 0.6892
O3 O 0.64421(6) 0.40157(13) 0.49695(4)
O4 O 0.73575(5) 0.47100(12) 0.67358(4)
C30 C 0.93228(8) 0.33424(19) 0.63685(6)
H21 H 0.9167 0.3065 0.6014
C31 C 1.00503(9) 0.2982(2) 0.67237(6)
H22 H 1.0379 0.2450 0.6608
C32 C 1.02965(9) 0.34066(19) 0.72529(6)
H23 H 1.0787 0.3161 0.7490
C33 C 0.98069(8) 0.41969(19) 0.74239(6)
H24 H 0.9970 0.4488 0.7778
C34 C 0.90749(8) 0.45569(18) 0.70708(6)
H25 H 0.8751 0.5094 0.7190
C35 C 0.88159(8) 0.41247(18) 0.65383(6)
C36 C 0.80264(8) 0.44231(17) 0.61660(6)
C37 C 0.76749(8) 0.37925(18) 0.56805(6)
H26 H 0.7905 0.3089 0.5531
C38 C 0.68932(8) 0.43384(18) 0.54167(6)
C39 C 0.67085(8) 0.54257(18) 0.57978(5)
C40 C 0.74913(8) 0.54863(18) 0.63074(5)
C41 C 0.66272(8) 0.41237(17) 0.65341(6)
C42 C 0.62121(8) 0.45104(18) 0.60098(6)
C43 C 0.54634(8) 0.40058(19) 0.57611(6)
H27 H 0.5176 0.4253 0.5408
C44 C 0.51521(9) 0.3123(2) 0.60501(6)
H28 H 0.4650 0.2783 0.5889
C45 C 0.55826(9) 0.27406(19) 0.65768(6)
H29 H 0.5366 0.2136 0.6761
C46 C 0.63328(9) 0.32467(19) 0.68330(6)
H30 H 0.6622 0.3009 0.7187
C47 C 0.64113(8) 0.70309(18) 0.55543(6)
C48 C 0.66446(9) 0.77073(19) 0.51835(6)
H31 H 0.6925 0.7109 0.5043
C49 C 0.64621(9) 0.9264(2) 0.50227(6)
H32 H 0.6623 0.9702 0.4776
C50 C 0.60450(9) 1.0167(2) 0.52240(7)
H33 H 0.5934 1.1218 0.5121
C51 C 0.57923(10) 0.9503(2) 0.55808(7)
H34 H 0.5501 1.0100 0.5713
C52 C 0.59710(9) 0.7950(2) 0.57414(6)
H35 H 0.5793 0.7511 0.5979
C53 C 0.77764(8) 0.71486(18) 0.64820(6)
C54 C 0.82402(9) 0.7908(2) 0.62732(6)
H36 H 0.8427 0.7344 0.6062
C55 C 0.84242(10) 0.9495(2) 0.63794(6)
H37 H 0.8735 0.9992 0.6240
C56 C 0.81461(10) 1.0340(2) 0.66915(7)
H38 H 0.8268 1.1405 0.6762
C57 C 0.76874(10) 0.9602(2) 0.68984(7)
H39 H 0.7496 1.0175 0.7106
C58 C 0.75079(9) 0.8007(2) 0.67998(6)
H40 H 0.7207 0.7512 0.6947
loop_
_geom_bond_atom_site_label_1
_geom_bond_atom_site_label_2
_geom_bond_site_symmetry_1
_geom_bond_site_symmetry_2
O1 C9 1_555 1_555
O2 C11 1_555 1_555
C1 H1 1_555 1_555
C2 C1 1_555 1_555
H2 C2 1_555 1_555
C3 C2 1_555 1_555
H3 C3 1_555 1_555
C4 C3 1_555 1_555
H4 C4 1_555 1_555
C5 C4 1_555 1_555
H5 C5 1_555 1_555
C6 C1 1_555 1_555
C7 C6 1_555 1_555
C8 C7 1_555 1_555
H6 C8 1_555 1_555
C9 C8 1_555 1_555
C10 C9 1_555 1_555
C11 C7 1_555 1_555
C12 O2 1_555 1_555
C13 C10 1_555 1_555
C14 C13 1_555 1_555
H7 C14 1_555 1_555
C15 C14 1_555 1_555
H8 C15 1_555 1_555
C16 C15 1_555 1_555
H9 C16 1_555 1_555
C17 C12 1_555 1_555
H10 C17 1_555 1_555
C18 C10 1_555 1_555
C19 C18 1_555 1_555
H11 C19 1_555 1_555
C20 C19 1_555 1_555
H12 C20 1_555 1_555
C21 C20 1_555 1_555
H13 C21 1_555 1_555
C22 C21 1_555 1_555
H14 C22 1_555 1_555
C23 C18 1_555 1_555
H15 C23 1_555 1_555
C24 C11 1_555 1_555
C25 C24 1_555 1_555
H16 C25 1_555 1_555
C26 C25 1_555 1_555
H17 C26 1_555 1_555
C27 C26 1_555 1_555
H18 C27 1_555 1_555
C28 C27 1_555 1_555
H19 C28 1_555 1_555
C29 C24 1_555 1_555
H20 C29 1_555 1_555
O3 C38 1_555 1_555
O4 C40 1_555 1_555
C30 H21 1_555 1_555
C31 C30 1_555 1_555
H22 C31 1_555 1_555
C32 C31 1_555 1_555
H23 C32 1_555 1_555
C33 C32 1_555 1_555
H24 C33 1_555 1_555
C34 C33 1_555 1_555
H25 C34 1_555 1_555
C35 C30 1_555 1_555
C36 C35 1_555 1_555
C37 C36 1_555 1_555
H26 C37 1_555 1_555
C38 C37 1_555 1_555
C39 C38 1_555 1_555
C40 C36 1_555 1_555
C41 O4 1_555 1_555
C42 C39 1_555 1_555
C43 C42 1_555 1_555
H27 C43 1_555 1_555
C44 C43 1_555 1_555
H28 C44 1_555 1_555
C45 C44 1_555 1_555
H29 C45 1_555 1_555
C46 C41 1_555 1_555
H30 C46 1_555 1_555
C47 C39 1_555 1_555
C48 C47 1_555 1_555
H31 C48 1_555 1_555
C49 C48 1_555 1_555
H32 C49 1_555 1_555
C50 C49 1_555 1_555
H33 C50 1_555 1_555
C51 C50 1_555 1_555
H34 C51 1_555 1_555
C52 C47 1_555 1_555
H35 C52 1_555 1_555
C53 C40 1_555 1_555
C54 C53 1_555 1_555
H36 C54 1_555 1_555
C55 C54 1_555 1_555
H37 C55 1_555 1_555
C56 C55 1_555 1_555
H38 C56 1_555 1_555
C57 C56 1_555 1_555
H39 C57 1_555 1_555
C58 C53 1_555 1_555
H40 C58 1_555 1_555
C5 C6 1_555 1_555
C10 C11 1_555 1_555
C12 C13 1_555 1_555
C16 C17 1_555 1_555
C22 C23 1_555 1_555
C28 C29 1_555 1_555
C34 C35 1_555 1_555
C39 C40 1_555 1_555
C41 C42 1_555 1_555
C45 C46 1_555 1_555
C51 C52 1_555 1_555
C57 C58 1_555 1_555

#END
