
#######################################################################
#
#                 Cambridge Crystallographic Data Centre
#                                CCDC 
#
#######################################################################
#
# If this CIF has been generated from an entry in the Cambridge 
# Structural Database, then it will include bibliographic, chemical, 
# crystal, experimental, refinement or atomic coordinate data resulting 
# from the CCDC's data processing and validation procedures.
#
#######################################################################

data_ECUNEY
_chemical_formula_moiety         'C18 H20 Br1 F3 O4'
_chemical_name_systematic        
'isopropyl 2-acetyl-5-(4-bromophenyl)-2-methyl-5-oxo-3-(trifluoromethyl)pentanoate'
_symmetry_cell_setting           monoclinic
_symmetry_space_group_name_H-M   'P 21'
_symmetry_Int_Tables_number      4
_space_group_name_Hall           'P 2yb'
loop_
_symmetry_equiv_pos_site_id
_symmetry_equiv_pos_as_xyz
1 x,y,z
2 -x,1/2+y,-z
_cell_length_a                   6.8900(12)
_cell_length_b                   8.1833(14)
_cell_length_c                   17.791(3)
_cell_angle_alpha                90
_cell_angle_beta                 91.418(6)
_cell_angle_gamma                90
_cell_volume                     1002.8
_exptl_crystal_colour            colorless
_exptl_crystal_description       block
_cell_formula_units_Z            2
loop_
_atom_site_label
_atom_site_type_symbol
_atom_site_fract_x
_atom_site_fract_y
_atom_site_fract_z
Br1 Br 0.74769(9) 0.08300(9) 0.02784(3)
F1 F -0.1827(7) 0.4993(7) -0.4130(3)
F2 F 0.0113(7) 0.3026(6) -0.3944(3)
F3 F 0.1179(8) 0.5437(6) -0.4064(2)
O1 O -0.0193(5) 0.1748(5) -0.2189(2)
O2 O -0.4363(5) 0.6183(5) -0.2914(3)
O3 O -0.2843(5) 0.8248(5) -0.3454(2)
O4 O -0.1033(6) 0.5268(5) -0.1444(2)
C1 C 0.4681(7) 0.2715(6) -0.1591(3)
H1 H 0.5016 0.3391 -0.1987
C2 C 0.6081(8) 0.2313(6) -0.1054(3)
H2 H 0.7344 0.2701 -0.1087
C3 C 0.5558(8) 0.1325(6) -0.0468(3)
C4 C 0.3715(9) 0.0755(9) -0.0413(3)
H3 H 0.3376 0.0121 -0.0003
C5 C 0.2357(8) 0.1117(7) -0.0965(3)
H4 H 0.1120 0.0668 -0.0941
C6 C 0.2797(7) 0.2142(6) -0.1559(3)
C7 C 0.1250(7) 0.2588(6) -0.2105(3)
C8 C 0.1522(7) 0.4139(6) -0.2549(4)
H5 H 0.2459 0.3941 -0.2937
H6 H 0.2048 0.4978 -0.2217
C9 C -0.0394(7) 0.4767(6) -0.2921(3)
H7 H -0.1426 0.4027 -0.2765
C10 C -0.0972(7) 0.6484(6) -0.2671(3)
C11 C -0.2933(7) 0.6952(7) -0.3038(3)
C12 C -0.4646(9) 0.8867(10) -0.3815(5)
H8 H -0.5719 0.8112 -0.3725
C13 C -0.4271(19) 0.895(2) -0.4618(5)
H9 H -0.5415 0.9322 -0.4884
H10 H -0.3930 0.7878 -0.4796
H11 H -0.3220 0.9689 -0.4703
C14 C -0.5059(16) 1.0405(13) -0.3512(7)
H12 H -0.5368 1.0287 -0.2992
H13 H -0.6144 1.0879 -0.3782
H14 H -0.3946 1.1102 -0.3555
C15 C -0.1369(8) 0.6456(7) -0.1826(3)
C16 C -0.2219(12) 0.7940(8) -0.1469(4)
H15 H -0.2394 0.7738 -0.0943
H16 H -0.3452 0.8184 -0.1706
H17 H -0.1357 0.8850 -0.1528
C17 C -0.0247(11) 0.4592(9) -0.3753(4)
C18 C 0.0601(8) 0.7800(6) -0.2806(4)
H18 H 0.0144 0.8843 -0.2638
H19 H 0.0863 0.7855 -0.3333
H20 H 0.1769 0.7516 -0.2531
loop_
_geom_bond_atom_site_label_1
_geom_bond_atom_site_label_2
_geom_bond_site_symmetry_1
_geom_bond_site_symmetry_2
Br1 C3 1_555 1_555
F1 C17 1_555 1_555
F2 C17 1_555 1_555
F3 C17 1_555 1_555
O1 C7 1_555 1_555
O2 C11 1_555 1_555
O3 C11 1_555 1_555
O4 C15 1_555 1_555
C1 H1 1_555 1_555
C2 C1 1_555 1_555
H2 C2 1_555 1_555
C3 C2 1_555 1_555
C4 C3 1_555 1_555
H3 C4 1_555 1_555
C5 C4 1_555 1_555
H4 C5 1_555 1_555
C6 C1 1_555 1_555
C7 C6 1_555 1_555
C8 C7 1_555 1_555
H5 C8 1_555 1_555
H6 C8 1_555 1_555
C9 C8 1_555 1_555
H7 C9 1_555 1_555
C10 C9 1_555 1_555
C11 C10 1_555 1_555
C12 O3 1_555 1_555
H8 C12 1_555 1_555
C13 C12 1_555 1_555
H9 C13 1_555 1_555
H10 C13 1_555 1_555
H11 C13 1_555 1_555
C14 C12 1_555 1_555
H12 C14 1_555 1_555
H13 C14 1_555 1_555
H14 C14 1_555 1_555
C15 C10 1_555 1_555
C16 C15 1_555 1_555
H15 C16 1_555 1_555
H16 C16 1_555 1_555
H17 C16 1_555 1_555
C17 C9 1_555 1_555
C18 C10 1_555 1_555
H18 C18 1_555 1_555
H19 C18 1_555 1_555
H20 C18 1_555 1_555
C5 C6 1_555 1_555

#END
