
#######################################################################
#
#                 Cambridge Crystallographic Data Centre
#                                CCDC 
#
#######################################################################
#
# If this CIF has been generated from an entry in the Cambridge 
# Structural Database, then it will include bibliographic, chemical, 
# crystal, experimental, refinement or atomic coordinate data resulting 
# from the CCDC's data processing and validation procedures.
#
#######################################################################

data_ECUNAU
_chemical_formula_moiety         'C22 H20 F1 N1 O1'
_chemical_name_systematic        
3-(2-fluorophenyl)-5-methyl-2,4-diphenyl-1,2-oxazolidine
_symmetry_cell_setting           monoclinic
_symmetry_space_group_name_H-M   'P 21/n'
_symmetry_Int_Tables_number      14
_space_group_name_Hall           '-P 2yn'
loop_
_symmetry_equiv_pos_site_id
_symmetry_equiv_pos_as_xyz
1 x,y,z
2 1/2-x,1/2+y,1/2-z
3 -x,-y,-z
4 1/2+x,1/2-y,1/2+z
_cell_length_a                   13.4005(7)
_cell_length_b                   9.5236(7)
_cell_length_c                   14.6548(7)
_cell_angle_alpha                90
_cell_angle_beta                 105.033(5)
_cell_angle_gamma                90
_cell_volume                     1806.25
_exptl_crystal_colour            colorless
_exptl_crystal_description       plate
_cell_formula_units_Z            4
loop_
_atom_site_label
_atom_site_type_symbol
_atom_site_fract_x
_atom_site_fract_y
_atom_site_fract_z
F1 F 0.24518(17) 0.4292(3) 0.50297(13)
O1 O 0.23299(13) 0.2050(2) 0.18270(11)
N1 N 0.30334(15) 0.2123(3) 0.27614(12)
C1 C 0.4003(2) 0.2610(3) 0.26956(17)
C2 C 0.4726(2) 0.3014(4) 0.35128(18)
H1 H 0.4545 0.3032 0.4084
C3 C 0.5712(2) 0.3389(4) 0.3486(2)
H2 H 0.6189 0.3669 0.4037
C4 C 0.5994(2) 0.3350(4) 0.2648(2)
H3 H 0.6661 0.3590 0.2630
C5 C 0.5279(2) 0.2954(4) 0.1841(2)
H4 H 0.5465 0.2925 0.1272
C6 C 0.4292(2) 0.2598(3) 0.18561(18)
H5 H 0.3814 0.2347 0.1298
C7 C 0.0515(2) 0.2865(3) 0.32794(16)
C8 C 0.0019(2) 0.4055(4) 0.3432(2)
H6 H 0.0216 0.4912 0.3230
C9 C -0.1074(3) 0.2783(5) 0.4171(2)
H7 H -0.1605 0.2755 0.4472
C10 C -0.0769(3) 0.4023(5) 0.3880(3)
H8 H -0.1091 0.4853 0.3982
C11 C -0.0601(3) 0.1592(5) 0.4021(3)
H9 H -0.0812 0.0737 0.4215
C12 C 0.0197(2) 0.1626(4) 0.3580(2)
H10 H 0.0521 0.0794 0.3488
C13 C 0.26669(19) 0.2165(4) 0.43112(17)
C14 C 0.2858(2) 0.0739(4) 0.4424(2)
H11 H 0.2886 0.0199 0.3902
C15 C 0.3008(3) 0.0097(5) 0.5301(3)
H12 H 0.3135 -0.0863 0.5364
C16 C 0.2969(3) 0.0888(8) 0.6071(3)
H13 H 0.3079 0.0462 0.6660
C17 C 0.2770(3) 0.2285(7) 0.5987(3)
H14 H 0.2730 0.2820 0.6508
C18 C 0.2628(2) 0.2891(5) 0.5108(2)
C19 C 0.13588(18) 0.2956(3) 0.27697(16)
H15 H 0.1274 0.3866 0.2446
C20 C 0.24953(18) 0.2900(3) 0.33792(15)
H16 H 0.2772 0.3856 0.3482
C21 C 0.13524(19) 0.1858(4) 0.20223(17)
H17 H 0.1317 0.0919 0.2286
C22 C 0.0531(2) 0.2005(4) 0.11052(19)
H18 H 0.0551 0.2938 0.0862
H19 H -0.0136 0.1836 0.1213
H20 H 0.0654 0.1336 0.0657
loop_
_geom_bond_atom_site_label_1
_geom_bond_atom_site_label_2
_geom_bond_site_symmetry_1
_geom_bond_site_symmetry_2
F1 C18 1_555 1_555
O1 N1 1_555 1_555
N1 C1 1_555 1_555
C1 C2 1_555 1_555
C2 H1 1_555 1_555
C3 C2 1_555 1_555
H2 C3 1_555 1_555
C4 C3 1_555 1_555
H3 C4 1_555 1_555
C5 C4 1_555 1_555
H4 C5 1_555 1_555
C6 C1 1_555 1_555
H5 C6 1_555 1_555
C7 C8 1_555 1_555
C8 H6 1_555 1_555
C9 H7 1_555 1_555
C10 C8 1_555 1_555
H8 C10 1_555 1_555
C11 C9 1_555 1_555
H9 C11 1_555 1_555
C12 C7 1_555 1_555
H10 C12 1_555 1_555
C13 C14 1_555 1_555
C14 H11 1_555 1_555
C15 C14 1_555 1_555
H12 C15 1_555 1_555
C16 C15 1_555 1_555
H13 C16 1_555 1_555
C17 C16 1_555 1_555
H14 C17 1_555 1_555
C18 C13 1_555 1_555
C19 C7 1_555 1_555
H15 C19 1_555 1_555
C20 N1 1_555 1_555
H16 C20 1_555 1_555
C21 O1 1_555 1_555
H17 C21 1_555 1_555
C22 C21 1_555 1_555
H18 C22 1_555 1_555
H19 C22 1_555 1_555
H20 C22 1_555 1_555
C5 C6 1_555 1_555
C9 C10 1_555 1_555
C11 C12 1_555 1_555
C13 C20 1_555 1_555
C17 C18 1_555 1_555
C19 C20 1_555 1_555
C19 C21 1_555 1_555

#END
