
#######################################################################
#
#                 Cambridge Crystallographic Data Centre
#                                CCDC 
#
#######################################################################
#
# If this CIF has been generated from an entry in the Cambridge 
# Structural Database, then it will include bibliographic, chemical, 
# crystal, experimental, refinement or atomic coordinate data resulting 
# from the CCDC's data processing and validation procedures.
#
#######################################################################

data_ECUQUO
_chemical_formula_moiety         'C4 F8 I2,C6 H18 N3 O1 P1'
_chemical_name_systematic        
'1,4-Di-iodo-1,1,2,2,3,3,4,4-octafluorobutane hexamethylphosphoramide'
_symmetry_cell_setting           orthorhombic
_symmetry_space_group_name_H-M   'P c a 21'
_symmetry_Int_Tables_number      29
_space_group_name_Hall           'P 2c -2ac'
loop_
_symmetry_equiv_pos_site_id
_symmetry_equiv_pos_as_xyz
1 x,y,z
2 -x,-y,1/2+z
3 1/2-x,y,1/2+z
4 1/2+x,-y,z
_cell_length_a                   20.312(4)
_cell_length_b                   8.679(8)
_cell_length_c                   12.045(4)
_cell_angle_alpha                90
_cell_angle_beta                 90
_cell_angle_gamma                90
_cell_volume                     2123.39
_exptl_crystal_colour            colorless
_exptl_crystal_description       prism
_cell_formula_units_Z            4
loop_
_atom_site_label
_atom_site_type_symbol
_atom_site_fract_x
_atom_site_fract_y
_atom_site_fract_z
O1 O 0.4405(5) 0.9700(12) 0.4388(10)
P1 P 0.50330(18) 0.8952(4) 0.4727(3)
N1 N 0.5657(6) 1.0088(16) 0.4534(11)
N2 N 0.4990(6) 0.8543(16) 0.6001(13)
N3 N 0.5188(8) 0.7416(17) 0.3984(15)
C1 C 0.5602(14) 1.1603(19) 0.4857(19)
H1 H 0.5149 1.1841 0.5000
H2 H 0.5765 1.2259 0.4277
H3 H 0.5856 1.1767 0.5520
C2 C 0.6338(9) 0.951(2) 0.430(3)
H4 H 0.6318 0.8439 0.4098
H5 H 0.6605 0.9620 0.4955
H6 H 0.6528 1.0089 0.3705
C3 C 0.5586(11) 0.830(3) 0.674(2)
H7 H 0.5975 0.8643 0.6367
H8 H 0.5627 0.7223 0.6917
H9 H 0.5531 0.8875 0.7419
C4 C 0.4399(9) 0.800(3) 0.6637(18)
H10 H 0.4015 0.8069 0.6175
H11 H 0.4340 0.8628 0.7284
H12 H 0.4463 0.6945 0.6858
C5 C 0.5212(17) 0.596(2) 0.446(2)
H13 H 0.5219 0.6052 0.5251
H14 H 0.5602 0.5437 0.4211
H15 H 0.4830 0.5382 0.4235
C6 C 0.5197(13) 0.744(3) 0.278(2)
H16 H 0.5172 0.8486 0.2524
H17 H 0.4828 0.6870 0.2500
H18 H 0.5598 0.6980 0.2518
I1 I 0.33546(6) 0.81944(13) 0.32312(11)
C7 C 0.2601(10) 0.700(2) 0.244(3)
C8 C 0.2728(7) 0.555(2) 0.2009(18)
F1 F 0.2066(7) 0.6804(19) 0.314(2)
F2 F 0.2329(13) 0.7901(15) 0.166(2)
F3 F 0.3012(9) 0.4606(15) 0.2792(15)
F4 F 0.3192(7) 0.5737(18) 0.1198(14)
I2 I 0.15259(6) 0.18202(14) 0.02493(10)
C9 C 0.2164(10) 0.456(3) 0.1494(18)
C10 C 0.2364(17) 0.315(3) 0.094(3)
F5 F 0.1743(7) 0.420(2) 0.2256(17)
F6 F 0.1845(8) 0.5397(13) 0.0677(14)
F7 F 0.2754(7) 0.350(2) 0.0015(16)
F8 F 0.2730(8) 0.2281(17) 0.153(2)
loop_
_geom_bond_atom_site_label_1
_geom_bond_atom_site_label_2
_geom_bond_site_symmetry_1
_geom_bond_site_symmetry_2
O1 P1 1_555 1_555
P1 N1 1_555 1_555
N1 C1 1_555 1_555
N2 P1 1_555 1_555
N3 P1 1_555 1_555
C1 H1 1_555 1_555
H2 C1 1_555 1_555
H3 C1 1_555 1_555
C2 N1 1_555 1_555
H4 C2 1_555 1_555
H5 C2 1_555 1_555
H6 C2 1_555 1_555
C3 N2 1_555 1_555
H7 C3 1_555 1_555
H8 C3 1_555 1_555
H9 C3 1_555 1_555
C4 N2 1_555 1_555
H10 C4 1_555 1_555
H11 C4 1_555 1_555
H12 C4 1_555 1_555
C5 N3 1_555 1_555
H13 C5 1_555 1_555
H14 C5 1_555 1_555
H15 C5 1_555 1_555
C6 N3 1_555 1_555
H16 C6 1_555 1_555
H17 C6 1_555 1_555
H18 C6 1_555 1_555
I1 C7 1_555 1_555
C7 C8 1_555 1_555
C8 F3 1_555 1_555
F1 C7 1_555 1_555
F2 C7 1_555 1_555
F4 C8 1_555 1_555
I2 C10 1_555 1_555
C9 C8 1_555 1_555
C10 C9 1_555 1_555
F5 C9 1_555 1_555
F6 C9 1_555 1_555
F7 C10 1_555 1_555
F8 C10 1_555 1_555

#END
