
#######################################################################
#
#                 Cambridge Crystallographic Data Centre
#                                CCDC 
#
#######################################################################
#
# If this CIF has been generated from an entry in the Cambridge 
# Structural Database, then it will include bibliographic, chemical, 
# crystal, experimental, refinement or atomic coordinate data resulting 
# from the CCDC's data processing and validation procedures.
#
#######################################################################

data_ECUQOJ
_chemical_formula_moiety         'C29 H24 O2'
_chemical_name_systematic        
2',7'-bis(4-Methoxyphenyl)-spiro(cyclopropane-1,9'-9H-fluorene)
_symmetry_cell_setting           orthorhombic
_symmetry_space_group_name_H-M   'C m c 21'
_symmetry_Int_Tables_number      36
_space_group_name_Hall           'C 2n -2'
loop_
_symmetry_equiv_pos_site_id
_symmetry_equiv_pos_as_xyz
1 x,y,z
2 -x,-y,1/2+z
3 -x,y,z
4 x,-y,1/2+z
5 1/2+x,1/2+y,z
6 1/2-x,1/2-y,1/2+z
7 1/2-x,1/2+y,z
8 1/2+x,1/2-y,1/2+z
_cell_length_a                   23.307(12)
_cell_length_b                   9.841(4)
_cell_length_c                   9.211(4)
_cell_angle_alpha                90
_cell_angle_beta                 90
_cell_angle_gamma                90
_cell_volume                     2112.67
_exptl_crystal_colour            yellow
_exptl_crystal_description       block
_cell_formula_units_Z            4
_exptl_crystal_recrystallization_method hexane/dichloromethane
loop_
_atom_site_label
_atom_site_type_symbol
_atom_site_fract_x
_atom_site_fract_y
_atom_site_fract_z
C1 C 0.55077(9) 0.67722(19) 0.6665(3)
C2 C 0.53114(9) 0.5595(2) 0.5957(3)
C3 C 0.56987(10) 0.4659(2) 0.5417(4)
H1 H 0.5570 0.3883 0.4941
C4 C 0.62763(10) 0.4888(3) 0.5592(4)
H2 H 0.6536 0.4255 0.5228
C5 C 0.64858(9) 0.6042(2) 0.6300(3)
C6 C 0.60911(9) 0.6999(2) 0.6840(3)
H3 H 0.6220 0.7777 0.7310
C7 C 0.5000 0.8529(3) 0.8415(5)
H4 H 0.5351 0.8591 0.8978
C8 C 0.5000 0.9136(3) 0.6932(5)
H5 H 0.5351 0.9564 0.6598
C9 C 0.5000 0.7605(3) 0.7103(4)
C10 C 0.71157(9) 0.6218(2) 0.6478(3)
C11 C 0.75014(11) 0.5563(3) 0.5550(3)
H6 H 0.7359 0.5038 0.4791
C12 C 0.80867(11) 0.5673(3) 0.5727(3)
H7 H 0.8332 0.5228 0.5089
C13 C 0.83092(9) 0.6433(2) 0.6838(3)
C14 C 0.79434(11) 0.7112(3) 0.7760(3)
H8 H 0.8090 0.7637 0.8513
C15 C 0.73523(11) 0.7007(3) 0.7560(3)
H9 H 0.7109 0.7485 0.8177
C16 C 0.91413(12) 0.7108(4) 0.8147(5)
H10 H 0.8992 0.6709 0.9019
H11 H 0.9050 0.8059 0.8127
H12 H 0.9550 0.6995 0.8121
O1 O 0.88949(7) 0.6464(2) 0.6930(3)
C1B C 0.44923(9) 0.67722(19) 0.6665(3)
C2B C 0.46886(9) 0.5595(2) 0.5957(3)
C3B C 0.43013(10) 0.4659(2) 0.5417(4)
H1B H 0.4430 0.3883 0.4941
C4B C 0.37237(10) 0.4888(3) 0.5592(4)
H2B H 0.3464 0.4255 0.5228
C5B C 0.35142(9) 0.6042(2) 0.6300(3)
C6B C 0.39089(9) 0.6999(2) 0.6840(3)
H3B H 0.3780 0.7777 0.7310
H4B H 0.4649 0.8591 0.8978
H5B H 0.4649 0.9564 0.6598
C10B C 0.28843(9) 0.6218(2) 0.6478(3)
C11B C 0.24986(11) 0.5563(3) 0.5550(3)
H6B H 0.2641 0.5038 0.4791
C12B C 0.19133(11) 0.5673(3) 0.5727(3)
H7B H 0.1668 0.5228 0.5089
C13B C 0.16908(9) 0.6433(2) 0.6838(3)
C14B C 0.20566(11) 0.7112(3) 0.7760(3)
H8B H 0.1910 0.7637 0.8513
C15B C 0.26477(11) 0.7007(3) 0.7560(3)
H9B H 0.2891 0.7485 0.8177
C16B C 0.08587(12) 0.7108(4) 0.8147(5)
H10B H 0.1008 0.6709 0.9019
H11B H 0.0950 0.8059 0.8127
H12B H 0.0450 0.6995 0.8121
O1B O 0.11051(7) 0.6464(2) 0.6930(3)
loop_
_geom_bond_atom_site_label_1
_geom_bond_atom_site_label_2
_geom_bond_site_symmetry_1
_geom_bond_site_symmetry_2
C1 C2 1_555 1_555
C2 C3 1_555 1_555
C3 H1 1_555 1_555
C4 C3 1_555 1_555
H2 C4 1_555 1_555
C5 C4 1_555 1_555
C6 C1 1_555 1_555
H3 C6 1_555 1_555
C7 H4 1_555 1_555
C8 C7 1_555 1_555
H5 C8 1_555 1_555
C9 C1 1_555 1_555
C10 C5 1_555 1_555
C11 C10 1_555 1_555
H6 C11 1_555 1_555
C12 C11 1_555 1_555
H7 C12 1_555 1_555
C13 C12 1_555 1_555
C14 C13 1_555 1_555
H8 C14 1_555 1_555
C15 C10 1_555 1_555
H9 C15 1_555 1_555
C16 H10 1_555 1_555
H11 C16 1_555 1_555
H12 C16 1_555 1_555
O1 C13 1_555 1_555
C1B C9 1_555 1_555
C2B C2 1_555 1_555
C3B C2B 1_555 1_555
H1B C3B 1_555 1_555
C4B C3B 1_555 1_555
H2B C4B 1_555 1_555
C5B C4B 1_555 1_555
C6B C1B 1_555 1_555
H3B C6B 1_555 1_555
H4B C7 1_555 1_555
H5B C8 1_555 1_555
C10B C5B 1_555 1_555
C11B C10B 1_555 1_555
H6B C11B 1_555 1_555
C12B C11B 1_555 1_555
H7B C12B 1_555 1_555
C13B C12B 1_555 1_555
C14B C13B 1_555 1_555
H8B C14B 1_555 1_555
C15B C10B 1_555 1_555
H9B C15B 1_555 1_555
C16B H10B 1_555 1_555
H11B C16B 1_555 1_555
H12B C16B 1_555 1_555
O1B C13B 1_555 1_555
C5 C6 1_555 1_555
C7 C9 1_555 1_555
C8 C9 1_555 1_555
C14 C15 1_555 1_555
C16 O1 1_555 1_555
C1B C2B 1_555 1_555
C5B C6B 1_555 1_555
C14B C15B 1_555 1_555
C16B O1B 1_555 1_555

#END
