
#######################################################################
#
#                 Cambridge Crystallographic Data Centre
#                                CCDC 
#
#######################################################################
#
# If this CIF has been generated from an entry in the Cambridge 
# Structural Database, then it will include bibliographic, chemical, 
# crystal, experimental, refinement or atomic coordinate data resulting 
# from the CCDC's data processing and validation procedures.
#
#######################################################################

data_ECUTUR
_chemical_formula_moiety         'C10 F8,C14 H10'
_chemical_name_systematic        'Perfluoronaphthalene anthracene'
_symmetry_cell_setting           monoclinic
_symmetry_space_group_name_H-M   'P 21/n'
_symmetry_Int_Tables_number      14
_space_group_name_Hall           '-P 2yn'
loop_
_symmetry_equiv_pos_site_id
_symmetry_equiv_pos_as_xyz
1 x,y,z
2 1/2-x,1/2+y,1/2-z
3 -x,-y,-z
4 1/2+x,1/2-y,1/2+z
_cell_length_a                   6.810(1)
_cell_length_b                   18.326(1)
_cell_length_c                   7.390(1)
_cell_angle_alpha                90
_cell_angle_beta                 100.35(1)
_cell_angle_gamma                90
_cell_volume                     907.266
_exptl_crystal_colour            colorless
_exptl_crystal_description       needle
_chemical_melting_point          '174-175 deg.C'
_cell_formula_units_Z            2
_exptl_crystal_recrystallization_method dichloromethane
loop_
_atom_site_label
_atom_site_type_symbol
_atom_site_fract_x
_atom_site_fract_y
_atom_site_fract_z
F1 F -0.15250(17) -0.02211(5) 0.09406(13)
F2 F -0.12562(16) 0.12346(6) 0.07511(14)
F3 F -0.00395(17) 0.20440(5) 0.38149(15)
F4 F 0.09646(16) 0.14022(5) 0.71343(15)
C1 C -0.0844(3) 0.01591(10) 0.2494(2)
C2 C -0.0729(3) 0.08959(10) 0.2384(2)
C3 C -0.0109(3) 0.13137(9) 0.3963(3)
C4 C 0.0397(3) 0.09819(9) 0.5624(2)
C5 C -0.0325(3) -0.02136(9) 0.4190(2)
C5B C 0.0325(3) 0.02136(9) 0.5810(2)
C1B C 0.0844(3) -0.01591(10) 0.7506(2)
F1B F 0.15250(17) 0.02211(5) 0.90594(13)
C2B C 0.0729(3) -0.08959(10) 0.7616(2)
F2B F 0.12562(16) -0.12346(6) 0.92489(14)
C3B C 0.0109(3) -0.13137(9) 0.6037(3)
F3B F 0.00395(17) -0.20440(5) 0.61851(15)
C4B C -0.0397(3) -0.09819(9) 0.4376(2)
F4B F -0.09646(16) -0.14022(5) 0.28657(15)
C6 C 0.4389(3) 0.11322(10) 0.2316(3)
H1 H 0.397(3) 0.1021(10) 0.102(3)
C7 C 0.4673(3) 0.18411(11) 0.2843(3)
H2 H 0.453(3) 0.2257(10) 0.194(3)
C8 C 0.5258(3) 0.20259(11) 0.4734(3)
H3 H 0.543(3) 0.2552(11) 0.508(3)
C9 C 0.5548(3) 0.14956(10) 0.6035(3)
H4 H 0.595(3) 0.1603(10) 0.727(3)
C10 C 0.5279(3) 0.07402(9) 0.5553(3)
C11 C 0.4683(3) 0.05523(10) 0.3640(3)
C12 C 0.5584(3) 0.01814(10) 0.6859(3)
H5 H 0.598(2) 0.0290(8) 0.814(2)
C12B C 0.4416(3) -0.01814(10) 0.3141(3)
C10B C 0.4721(3) -0.07402(9) 0.4447(3)
C9B C 0.4452(3) -0.14956(10) 0.3965(3)
C8B C 0.4742(3) -0.20259(11) 0.5266(3)
C7B C 0.5327(3) -0.18411(11) 0.7157(3)
C6B C 0.5611(3) -0.11322(10) 0.7684(3)
H1B H 0.603(3) -0.1021(10) 0.898(3)
C11B C 0.5317(3) -0.05523(10) 0.6360(3)
H2B H 0.547(3) -0.2257(10) 0.806(3)
H3B H 0.457(3) -0.2552(11) 0.492(3)
H4B H 0.405(3) -0.1603(10) 0.273(3)
H5B H 0.402(2) -0.0290(8) 0.186(2)
loop_
_geom_bond_atom_site_label_1
_geom_bond_atom_site_label_2
_geom_bond_site_symmetry_1
_geom_bond_site_symmetry_2
F1 C1 1_555 1_555
F2 C2 1_555 1_555
F3 C3 1_555 1_555
F4 C4 1_555 1_555
C1 C2 1_555 1_555
C2 C3 1_555 1_555
C3 C4 1_555 1_555
C4 C5B 1_555 1_555
C5 C1 1_555 1_555
C6 H1 1_555 1_555
C7 C6 1_555 1_555
H2 C7 1_555 1_555
C8 C7 1_555 1_555
H3 C8 1_555 1_555
C9 C8 1_555 1_555
H4 C9 1_555 1_555
C10 C9 1_555 1_555
C11 C6 1_555 1_555
C12 C10 1_555 1_555
H5 C12 1_555 1_555
C5B C5 1_555 1_555
C1B C5B 1_555 1_555
F1B C1B 1_555 1_555
C2B C1B 1_555 1_555
F2B C2B 1_555 1_555
C3B C2B 1_555 1_555
F3B C3B 1_555 1_555
C4B C5 1_555 1_555
F4B C4B 1_555 1_555
C12B C11 1_555 1_555
C10B C12B 1_555 1_555
C9B C10B 1_555 1_555
C8B C9B 1_555 1_555
C7B C8B 1_555 1_555
C6B C7B 1_555 1_555
H1B C6B 1_555 1_555
C11B C12 1_555 1_555
H2B C7B 1_555 1_555
H3B C8B 1_555 1_555
H4B C9B 1_555 1_555
H5B C12B 1_555 1_555
C10 C11 1_555 1_555
C3B C4B 1_555 1_555
C10B C11B 1_555 1_555
C6B C11B 1_555 1_555

#END
