
#######################################################################
#
#                 Cambridge Crystallographic Data Centre
#                                CCDC 
#
#######################################################################
#
# If this CIF has been generated from an entry in the Cambridge 
# Structural Database, then it will include bibliographic, chemical, 
# crystal, experimental, refinement or atomic coordinate data resulting 
# from the CCDC's data processing and validation procedures.
#
#######################################################################

data_ECUVED01
_chemical_formula_moiety         'C10 F8,C14 H10'
_chemical_name_systematic        'Perfluoronaphthalene phenanthrene'
_symmetry_cell_setting           monoclinic
_symmetry_space_group_name_H-M   'P 21/n'
_symmetry_Int_Tables_number      14
_space_group_name_Hall           '-P 2yn'
loop_
_symmetry_equiv_pos_site_id
_symmetry_equiv_pos_as_xyz
1 x,y,z
2 1/2-x,1/2+y,1/2-z
3 -x,-y,-z
4 1/2+x,1/2-y,1/2+z
_cell_length_a                   6.776(2)
_cell_length_b                   18.180(6)
_cell_length_c                   7.666(3)
_cell_angle_alpha                90
_cell_angle_beta                 102.45(1)
_cell_angle_gamma                90
_cell_volume                     922.15
_exptl_crystal_colour            colorless
_exptl_crystal_description       prism
_chemical_melting_point          '172-174 deg.C'
_cell_formula_units_Z            2
_exptl_crystal_recrystallization_method dichloromethane
loop_
_atom_site_label
_atom_site_type_symbol
_atom_site_fract_x
_atom_site_fract_y
_atom_site_fract_z
F1 F 0.3962(2) 0.60662(8) 0.1925(2)
F2 F 0.4749(2) 0.70922(8) 0.4490(3)
F3 F 0.5921(2) 0.67112(9) 0.7958(2)
F4 F 0.6300(2) 0.53051(9) 0.8940(2)
C15 C 0.4520(4) 0.58504(15) 0.3642(4)
C16 C 0.4917(4) 0.63766(13) 0.4919(4)
C17 C 0.5520(4) 0.61793(15) 0.6710(4)
C18 C 0.5711(4) 0.54666(15) 0.7195(4)
C19 C 0.4693(3) 0.51012(13) 0.4082(3)
C19B C 0.5307(3) 0.48988(13) 0.5918(3)
C15B C 0.5480(4) 0.41496(15) 0.6358(4)
F1B F 0.6038(2) 0.39338(8) 0.8075(2)
C16B C 0.5083(4) 0.36234(13) 0.5081(4)
F2B F 0.5251(2) 0.29078(8) 0.5510(3)
C17B C 0.4480(4) 0.38207(15) 0.3290(4)
F3B F 0.4079(2) 0.32888(9) 0.2042(2)
C18B C 0.4289(4) 0.45334(15) 0.2805(4)
F4B F 0.3700(2) 0.46949(9) 0.1060(2)
C1 C 0.4791(7) 0.8353(3) -0.0537(8)
H1 H 0.4453 0.8038 -0.1563
C2 C 0.5307(7) 0.8077(3) 0.1187(7)
H2 H 0.5321 0.7553 0.1334
C3 C 0.5808(7) 0.8529(3) 0.2672(7)
H3 H 0.6165 0.8317 0.3845
C4 C 0.5773(7) 0.9283(3) 0.2469(8)
H4 H 0.6108 0.9595 0.3502
C5 C 0.4352(7) 0.9095(3) -0.1926(7)
H5 H 0.3991 0.9281 -0.3125
C6 C 0.4407(7) 0.8349(3) -0.1646(7)
H6 H 0.4105 0.8013 -0.2634
C7 C 0.4935(7) 0.8079(3) 0.0140(8)
H7 H 0.4988 0.7558 0.0351
C8 C 0.5358(7) 0.8543(3) 0.1526(7)
H8 H 0.5685 0.8353 0.2722
C9 C 0.5790(7) 0.9809(3) 0.2729(6)
H9 H 0.6157 0.9609 0.3914
C10 C 0.4269(7) 0.9458(3) -0.2488(7)
H10 H 0.3971 0.9138 -0.3506
C11 C 0.4771(7) 0.9139(3) -0.0742(7)
C12 C 0.5248(7) 0.9606(3) 0.0761(7)
C13 C 0.4803(6) 0.9592(3) -0.0505(6)
C14 C 0.5330(7) 0.9320(3) 0.1269(8)
C10B C 0.5731(7) 1.0542(3) 0.2488(7)
C5B C 0.5648(7) 1.0905(3) 0.1926(7)
C1B C 0.5209(7) 1.1647(3) 0.0537(8)
H1B H 0.5547 1.1962 0.1563
C6B C 0.5593(7) 1.1651(3) 0.1646(7)
C2B C 0.4693(7) 1.1923(3) -0.1187(7)
H2B H 0.4679 1.2447 -0.1334
H7B H 0.5012 1.2442 -0.0351
C3B C 0.4192(7) 1.1471(3) -0.2672(7)
H3B H 0.3835 1.1683 -0.3845
H8B H 0.4315 1.1647 -0.2722
C7B C 0.5065(7) 1.1921(3) -0.0140(8)
C8B C 0.4642(7) 1.1457(3) -0.1526(7)
C4B C 0.4227(7) 1.0717(3) -0.2469(8)
H4B H 0.3892 1.0405 -0.3502
C9B C 0.4210(7) 1.0191(3) -0.2729(6)
H6B H 0.5895 1.1987 0.2634
H5B H 0.6009 1.0719 0.3125
H10B H 0.6029 1.0862 0.3506
C11B C 0.5229(7) 1.0861(3) 0.0742(7)
C13B C 0.5197(6) 1.0408(3) 0.0505(6)
C12B C 0.4752(7) 1.0394(3) -0.0761(7)
H9B H 0.3843 1.0391 -0.3914
C14B C 0.4670(7) 1.0680(3) -0.1269(8)
loop_
_geom_bond_atom_site_label_1
_geom_bond_atom_site_label_2
_geom_bond_site_symmetry_1
_geom_bond_site_symmetry_2
C1 H1 1_555 1_555
H1 C6 1_555 1_555
C2 C1 1_555 1_555
H2 C2 1_555 1_555
C3 C2 1_555 1_555
H3 C3 1_555 1_555
C4 C3 1_555 1_555
H4 C4 1_555 1_555
C5 C1 1_555 1_555
H5 C5 1_555 1_555
C6 C1 1_555 1_555
H6 H1 1_555 1_555
C7 C1 1_555 1_555
H7 C2 1_555 1_555
C8 C1 1_555 1_555
H8 C2 1_555 1_555
C9 C4 1_555 1_555
H9 C4 1_555 1_555
C10 C5 1_555 1_555
H10 C5 1_555 1_555
C11 C1 1_555 1_555
C12 C4 1_555 1_555
C13 C5 1_555 1_555
C14 C4 1_555 1_555
F1 C15 1_555 1_555
F2 C16 1_555 1_555
F3 C17 1_555 1_555
F4 C18 1_555 1_555
C15 C16 1_555 1_555
C16 C17 1_555 1_555
C17 C18 1_555 1_555
C18 C19B 1_555 1_555
C19 C15 1_555 1_555
C10B C9 1_555 1_555
C5B C10B 1_555 1_555
C1B C5B 1_555 1_555
H1B C1B 1_555 1_555
C6B C5B 1_555 1_555
C2B C1B 1_555 1_555
H2B C2B 1_555 1_555
H7B C2B 1_555 1_555
C3B C2B 1_555 1_555
H3B C3B 1_555 1_555
H8B C2B 1_555 1_555
C7B C1B 1_555 1_555
C8B C1B 1_555 1_555
C4B C3B 1_555 1_555
H4B C4B 1_555 1_555
C9B C10 1_555 1_555
H6B H1B 1_555 1_555
H5B C10B 1_555 1_555
H10B C10B 1_555 1_555
C11B C10B 1_555 1_555
C13B C12 1_555 1_555
C12B C13 1_555 1_555
H9B C4B 1_555 1_555
C14B C8B 1_555 1_555
C19B C19 1_555 1_555
C15B C19B 1_555 1_555
F1B C15B 1_555 1_555
C16B C15B 1_555 1_555
F2B C16B 1_555 1_555
C17B C16B 1_555 1_555
F3B C17B 1_555 1_555
C18B C19 1_555 1_555
F4B C18B 1_555 1_555
H1 C7 1_555 1_555
C2 C7 1_555 1_555
C2 C8 1_555 1_555
H2 H7 1_555 1_555
C3 C8 1_555 1_555
C3 H8 1_555 1_555
H3 H8 1_555 1_555
C4 C8 1_555 1_555
H4 C9 1_555 1_555
H4 H9 1_555 1_555
C5 C6 1_555 1_555
C5 C11 1_555 1_555
H5 C10 1_555 1_555
H5 H10 1_555 1_555
C6 H6 1_555 1_555
C6 C7 1_555 1_555
C6 C11 1_555 1_555
C7 H7 1_555 1_555
C7 C8 1_555 1_555
C8 H8 1_555 1_555
C8 C14 1_555 1_555
C9 H9 1_555 1_555
C9 C12 1_555 1_555
C9 C14 1_555 1_555
C10 H10 1_555 1_555
C10 C11 1_555 1_555
C10 C13 1_555 1_555
C11 C12 1_555 1_555
C11 C13 1_555 1_555
C11 C14 1_555 1_555
C12 C13 1_555 1_555
C12 C14 1_555 1_555
C13 C14 1_555 1_555
C13 C13B 1_555 1_555
C10B C13B 1_555 1_555
C5B H5B 1_555 1_555
C5B H10B 1_555 1_555
C5B C11B 1_555 1_555
C5B C13B 1_555 1_555
C1B C6B 1_555 1_555
C1B C11B 1_555 1_555
H1B C6B 1_555 1_555
H1B C7B 1_555 1_555
C6B C7B 1_555 1_555
C6B H6B 1_555 1_555
C6B C11B 1_555 1_555
C2B C7B 1_555 1_555
C2B C8B 1_555 1_555
H2B H7B 1_555 1_555
H7B C7B 1_555 1_555
C3B H8B 1_555 1_555
C3B C8B 1_555 1_555
H3B H8B 1_555 1_555
H8B C8B 1_555 1_555
C7B C8B 1_555 1_555
C8B C4B 1_555 1_555
C4B C9B 1_555 1_555
C4B C12B 1_555 1_555
C4B C14B 1_555 1_555
H4B C9B 1_555 1_555
H4B H9B 1_555 1_555
C9B C12B 1_555 1_555
C9B H9B 1_555 1_555
C9B C14B 1_555 1_555
H5B H10B 1_555 1_555
C11B C13B 1_555 1_555
C11B C12B 1_555 1_555
C11B C14B 1_555 1_555
C13B C12B 1_555 1_555
C13B C14B 1_555 1_555
C12B C14B 1_555 1_555
C17B C18B 1_555 1_555

#END
