
#######################################################################
#
#                 Cambridge Crystallographic Data Centre
#                                CCDC 
#
#######################################################################
#
# If this CIF has been generated from an entry in the Cambridge 
# Structural Database, then it will include bibliographic, chemical, 
# crystal, experimental, refinement or atomic coordinate data resulting 
# from the CCDC's data processing and validation procedures.
#
#######################################################################

data_ECUWIL
_chemical_formula_moiety         'C21 H14 Cl1 N1 O3 S1'
_chemical_name_systematic        
2-(2-chloro-5-(2-naphthylsulfonyl)phenoxy)pyridine
_symmetry_cell_setting           orthorhombic
_symmetry_space_group_name_H-M   'P b c a'
_symmetry_Int_Tables_number      61
_space_group_name_Hall           '-P 2ac 2ab'
loop_
_symmetry_equiv_pos_site_id
_symmetry_equiv_pos_as_xyz
1 x,y,z
2 1/2-x,-y,1/2+z
3 -x,1/2+y,1/2-z
4 1/2+x,1/2-y,-z
5 -x,-y,-z
6 1/2+x,y,1/2-z
7 x,1/2-y,1/2+z
8 1/2-x,1/2+y,z
_cell_length_a                   7.6701(15)
_cell_length_b                   20.085(4)
_cell_length_c                   24.106(5)
_cell_angle_alpha                90
_cell_angle_beta                 90
_cell_angle_gamma                90
_cell_volume                     3713.62
_exptl_crystal_colour            colorless
_exptl_crystal_description       block
_cell_formula_units_Z            8
loop_
_atom_site_label
_atom_site_type_symbol
_atom_site_fract_x
_atom_site_fract_y
_atom_site_fract_z
S1 S 0.85585(11) 0.22412(4) 0.67611(4)
Cl1 Cl 1.42022(15) 0.13724(6) 0.50471(4)
O1 O 1.0681(4) 0.18814(13) 0.47787(9)
N1 N 0.9284(4) 0.08696(16) 0.48371(13)
C1 C 0.8338(4) 0.35526(17) 0.65192(13)
H1 H 0.7811 0.3415 0.6191
O2 O 0.6902(3) 0.21810(11) 0.64877(11)
O3 O 0.8862(3) 0.18857(12) 0.72674(9)
C2 C 1.1032(5) 0.18283(17) 0.53437(13)
C3 C 0.8920(4) 0.30913(17) 0.68890(12)
C4 C 0.9930(4) 0.3939(2) 0.74996(14)
H2 H 1.0467 0.4065 0.7829
C5 C 1.0167(4) 0.20032(16) 0.62809(12)
C6 C 1.3035(5) 0.16156(18) 0.60817(15)
H3 H 1.4135 0.1483 0.6201
C7 C 0.9345(4) 0.44369(18) 0.71322(14)
C8 C 0.9734(4) 0.3282(2) 0.73888(13)
H4 H 1.0129 0.2962 0.7638
C9 C 1.1796(4) 0.18016(18) 0.64671(14)
H5 H 1.2048 0.1792 0.6844
C10 C 0.9786(4) 0.20217(16) 0.57209(13)
H6 H 0.8697 0.2164 0.5600
C11 C 1.2660(5) 0.16237(18) 0.55230(15)
C12 C 0.8529(4) 0.42392(18) 0.66312(13)
C13 C 0.9567(4) 0.14068(19) 0.45555(14)
C14 C 0.9501(5) 0.5126(2) 0.72488(17)
H7 H 1.0048 0.5260 0.7574
C15 C 0.7881(5) 0.4740(2) 0.62718(16)
H8 H 0.7338 0.4621 0.5941
C16 C 0.8910(5) 0.1549(2) 0.40369(15)
H9 H 0.9169 0.1946 0.3855
C17 C 0.8049(5) 0.5398(2) 0.64087(19)
H10 H 0.7607 0.5722 0.6172
C18 C 0.7862(5) 0.1079(3) 0.38045(16)
H11 H 0.7371 0.1151 0.3457
C19 C 0.8878(5) 0.5587(2) 0.6900(2)
H12 H 0.8997 0.6037 0.6986
C20 C 0.7533(5) 0.0498(3) 0.40865(19)
H13 H 0.6826 0.0170 0.3932
C21 C 0.8262(6) 0.0410(2) 0.45957(19)
H14 H 0.8043 0.0016 0.4785
loop_
_geom_bond_atom_site_label_1
_geom_bond_atom_site_label_2
_geom_bond_site_symmetry_1
_geom_bond_site_symmetry_2
S1 O2 1_555 1_555
Cl1 C11 1_555 1_555
O1 C2 1_555 1_555
N1 C13 1_555 1_555
C1 H1 1_555 1_555
O3 S1 1_555 1_555
C2 C10 1_555 1_555
C3 S1 1_555 1_555
C4 H2 1_555 1_555
C5 S1 1_555 1_555
C6 H3 1_555 1_555
C7 C4 1_555 1_555
C8 C3 1_555 1_555
H4 C8 1_555 1_555
C9 C5 1_555 1_555
H5 C9 1_555 1_555
C10 C5 1_555 1_555
H6 C10 1_555 1_555
C11 C2 1_555 1_555
C12 C1 1_555 1_555
C13 O1 1_555 1_555
C14 C7 1_555 1_555
H7 C14 1_555 1_555
C15 C12 1_555 1_555
H8 C15 1_555 1_555
C16 C13 1_555 1_555
H9 C16 1_555 1_555
C17 C15 1_555 1_555
H10 C17 1_555 1_555
C18 C16 1_555 1_555
H11 C18 1_555 1_555
C19 C14 1_555 1_555
H12 C19 1_555 1_555
C20 C18 1_555 1_555
H13 C20 1_555 1_555
C21 N1 1_555 1_555
H14 C21 1_555 1_555
C1 C3 1_555 1_555
C4 C8 1_555 1_555
C6 C9 1_555 1_555
C6 C11 1_555 1_555
C7 C12 1_555 1_555
C17 C19 1_555 1_555
C20 C21 1_555 1_555

#END
