
#######################################################################
#
#                 Cambridge Crystallographic Data Centre
#                                CCDC 
#
#######################################################################
#
# If this CIF has been generated from an entry in the Cambridge 
# Structural Database, then it will include bibliographic, chemical, 
# crystal, experimental, refinement or atomic coordinate data resulting 
# from the CCDC's data processing and validation procedures.
#
#######################################################################

data_ECUXOQ
_chemical_name_common            pentanitrohexaazaisowurtzitane
_chemical_formula_moiety         'C6 H7 N11 O10'
_chemical_name_systematic        
2,4,6,8,10-pentanitro-2,4,6,8,10,12-hexaazatetracyclo(5.5.0.0^5,9^.0^3,11^)dodecane
_symmetry_cell_setting           orthorhombic
_symmetry_space_group_name_H-M   'P 21 21 21'
_symmetry_Int_Tables_number      19
_space_group_name_Hall           'P 2ac 2ab'
loop_
_symmetry_equiv_pos_site_id
_symmetry_equiv_pos_as_xyz
1 x,y,z
2 1/2-x,-y,1/2+z
3 -x,1/2+y,1/2-z
4 1/2+x,1/2-y,-z
_cell_length_a                   8.577(2)
_cell_length_b                   12.075(3)
_cell_length_c                   13.223(4)
_cell_angle_alpha                90
_cell_angle_beta                 90
_cell_angle_gamma                90
_cell_volume                     1369.47
_exptl_crystal_description       'rectangular prism'
_chemical_melting_point          207deg.C(dec.)
_cell_formula_units_Z            4
_exptl_crystal_recrystallization_method acetone/water
loop_
_atom_site_label
_atom_site_type_symbol
_atom_site_fract_x
_atom_site_fract_y
_atom_site_fract_z
C1 C 0.3048(9) 0.7929(7) 0.1419(7)
H1 H 0.3299 0.7608 0.0758
N1 N 0.2809(7) 0.7063(5) 0.2192(6)
N2 N 0.1637(9) 0.6290(7) 0.2042(9)
O1 O 0.1254(8) 0.5744(6) 0.2779(7)
O2 O 0.1152(8) 0.6206(6) 0.1188(8)
C2 C 0.3042(8) 0.7519(7) 0.3197(7)
H2 H 0.3544 0.6977 0.3643
N3 N 0.1677(7) 0.7957(6) 0.3649(5)
N4 N 0.0870(12) 0.7313(8) 0.4385(7)
O3 O 0.1578(10) 0.6619(8) 0.4799(7)
O4 O -0.0498(10) 0.7572(8) 0.4513(7)
C3 C 0.0843(9) 0.8783(7) 0.3092(7)
H3 H -0.0082 0.9033 0.3463
N5 N 0.0420(7) 0.8363(5) 0.2079(6)
N6 N -0.1162(10) 0.8421(6) 0.1780(10)
O5 O -0.2085(8) 0.8378(6) 0.2458(7)
O6 O -0.1436(9) 0.8433(7) 0.0879(8)
C4 C 0.1596(10) 0.8715(7) 0.1360(7)
H4 H 0.1177 0.8761 0.0671
N7 N 0.1928(8) 0.9834(5) 0.1789(6)
N8 N 0.3013(9) 1.0457(7) 0.1240(9)
O7 O 0.3603(9) 1.1219(6) 0.1717(6)
O8 O 0.3217(10) 1.0244(6) 0.0347(7)
C5 C 0.1989(9) 0.9774(6) 0.2883(7)
H5 H 0.1597 1.0459 0.3187
N9 N 0.3489(8) 0.9491(5) 0.3286(5)
N10 N 0.4414(10) 1.0337(7) 0.3667(6)
O9 O 0.5739(9) 1.0134(6) 0.3806(6)
O10 O 0.3772(9) 1.1222(6) 0.3897(5)
C6 C 0.4203(9) 0.8484(6) 0.2915(8)
H6 H 0.5219 0.8366 0.3237
N11 N 0.4361(8) 0.8501(6) 0.1847(6)
H7 H 0.538(10) 0.832(7) 0.164(6)
loop_
_geom_bond_atom_site_label_1
_geom_bond_atom_site_label_2
_geom_bond_site_symmetry_1
_geom_bond_site_symmetry_2
C1 H1 1_555 1_555
N1 C1 1_555 1_555
N2 N1 1_555 1_555
O1 N2 1_555 1_555
O2 N2 1_555 1_555
C2 N1 1_555 1_555
H2 C2 1_555 1_555
N3 C2 1_555 1_555
N4 N3 1_555 1_555
O3 N4 1_555 1_555
O4 N4 1_555 1_555
C3 N3 1_555 1_555
H3 C3 1_555 1_555
N5 C3 1_555 1_555
N6 N5 1_555 1_555
O5 N6 1_555 1_555
O6 N6 1_555 1_555
C4 C1 1_555 1_555
H4 C4 1_555 1_555
N7 C4 1_555 1_555
N8 N7 1_555 1_555
O7 N8 1_555 1_555
O8 N8 1_555 1_555
C5 C3 1_555 1_555
H5 C5 1_555 1_555
N9 C5 1_555 1_555
N10 N9 1_555 1_555
O9 N10 1_555 1_555
O10 N10 1_555 1_555
C6 C2 1_555 1_555
H6 C6 1_555 1_555
N11 C1 1_555 1_555
H7 N11 1_555 1_555
N5 C4 1_555 1_555
N7 C5 1_555 1_555
N9 C6 1_555 1_555
C6 N11 1_555 1_555

#END
