
#######################################################################
#
#                 Cambridge Crystallographic Data Centre
#                                CCDC 
#
#######################################################################
#
# If this CIF has been generated from an entry in the Cambridge 
# Structural Database, then it will include bibliographic, chemical, 
# crystal, experimental, refinement or atomic coordinate data resulting 
# from the CCDC's data processing and validation procedures.
#
#######################################################################

data_ECUXUY
_chemical_formula_moiety         'C23 H21 F3 N2 O1 S1'
_chemical_name_systematic        
2-(4-t-butylphenyl)-N-(quinolin-8-yl)-3-[(trifluoromethyl)sulfanyl]prop-2-enamide
_symmetry_cell_setting           monoclinic
_symmetry_space_group_name_H-M   'P 21/n'
_symmetry_Int_Tables_number      14
_space_group_name_Hall           '-P 2yn'
loop_
_symmetry_equiv_pos_site_id
_symmetry_equiv_pos_as_xyz
1 x,y,z
2 1/2-x,1/2+y,1/2-z
3 -x,-y,-z
4 1/2+x,1/2-y,1/2+z
_cell_length_a                   17.843(2)
_cell_length_b                   22.6128(17)
_cell_length_c                   23.019(2)
_cell_angle_alpha                90
_cell_angle_beta                 104.466(10)
_cell_angle_gamma                90
_cell_volume                     8993.25
_exptl_crystal_colour            colorless
_exptl_crystal_description       cube
_cell_formula_units_Z            16
loop_
_atom_site_label
_atom_site_type_symbol
_atom_site_fract_x
_atom_site_fract_y
_atom_site_fract_z
S1 S 0.11670(9) 0.39205(5) 0.65108(6)
C1 C 0.1279(2) 0.31603(18) 0.65118(18)
C2 C 0.1364(2) 0.28406(16) 0.60445(17)
C3 C 0.1467(2) 0.21851(15) 0.60968(15)
C4 C 0.0862(2) 0.18214(17) 0.61528(17)
C5 C 0.0946(2) 0.12119(17) 0.61633(18)
C6 C 0.1625(2) 0.09445(17) 0.61204(17)
C7 C 0.2226(3) 0.13068(19) 0.6091(2)
C8 C 0.2157(2) 0.19187(19) 0.6077(2)
C9 C 0.1687(3) 0.02673(19) 0.6102(2)
C10 C 0.2339(6) 0.0062(3) 0.5909(8)
C11 C 0.1605(12) 0.0022(4) 0.6683(5)
C12 C 0.0966(6) 0.0020(4) 0.5690(7)
C13 C 0.1340(2) 0.31441(17) 0.54661(17)
N1 N 0.1384(2) 0.27805(14) 0.50103(14)
C14 C 0.1420(2) 0.29282(18) 0.44266(17)
C15 C 0.1625(2) 0.24462(19) 0.40861(17)
N2 N 0.1761(2) 0.19120(16) 0.43727(15)
C16 C 0.1946(3) 0.1469(2) 0.4062(2)
C17 C 0.1993(3) 0.1518(3) 0.3465(3)
C18 C 0.1851(3) 0.2044(3) 0.3184(2)
C19 C 0.1665(3) 0.2541(2) 0.34933(19)
C20 C 0.1528(3) 0.3104(3) 0.3245(2)
C21 C 0.1355(4) 0.3560(3) 0.3579(2)
C22 C 0.1289(3) 0.3473(2) 0.4174(2)
O1 O 0.1276(2) 0.36806(13) 0.54180(13)
C23 C 0.1056(5) 0.3986(3) 0.7256(3)
F1 F 0.1629(3) 0.3782(2) 0.76798(17)
F2 F 0.1003(5) 0.4553(2) 0.7364(2)
F3 F 0.0433(3) 0.3714(3) 0.7341(2)
H1 H 0.1271 0.2958 0.6889
H2 H 0.0366 0.2003 0.6182
H3 H 0.0495 0.0975 0.6192
H4 H 0.2737 0.1133 0.6082
H5 H 0.2599 0.2166 0.6057
H6 H 0.2341 -0.0411 0.5942
H7 H 0.2843 0.0252 0.6263
H8 H 0.2314 0.0220 0.5473
H9 H 0.1384 -0.0385 0.6614
H10 H 0.2111 0.0022 0.6969
H11 H 0.1223 0.0281 0.6834
H12 H 0.0887 -0.0395 0.5732
H13 H 0.0485 0.0241 0.5703
H14 H 0.1003 0.0076 0.5254
H15 H 0.2056 0.1084 0.4265
H16 H 0.2128 0.1172 0.3255
H17 H 0.1872 0.2082 0.2763
H18 H 0.1567 0.3185 0.2833
H19 H 0.1269 0.3947 0.3392
H20 H 0.1138 0.3802 0.4407
H21 H 0.1499 0.2397 0.5119
S2 S 0.45145(8) 0.08049(5) 0.62079(6)
C24 C 0.4382(2) 0.15604(17) 0.61462(18)
C25 C 0.4213(2) 0.18715(17) 0.56331(17)
C26 C 0.4121(2) 0.25223(16) 0.56473(15)
C27 C 0.4699(2) 0.28746(17) 0.59911(16)
C28 C 0.4613(3) 0.34782(19) 0.59979(18)
C29 C 0.3942(5) 0.3755(2) 0.5662(3)
C30 C 0.3359(3) 0.33959(19) 0.5327(2)
C31 C 0.3448(2) 0.27918(18) 0.53190(18)
C32 C 0.3819(5) 0.4434(2) 0.5652(3)
C33 C 0.3251(8) 0.4579(3) 0.5995(6)
C34 C 0.3706(5) 0.4662(2) 0.5069(3)
C35 C 0.4551(8) 0.4740(3) 0.6022(7)
C36 C 0.4161(2) 0.15492(19) 0.50630(18)
N3 N 0.4110(2) 0.18940(15) 0.45759(15)
C37 C 0.4013(3) 0.1743(2) 0.3966(2)
C38 C 0.3833(2) 0.2227(3) 0.35665(19)
N4 N 0.3770(2) 0.2761(2) 0.37945(17)
C39 C 0.3578(4) 0.3207(3) 0.3414(3)
C40 C 0.3464(4) 0.3156(4) 0.2798(4)
C41 C 0.3536(4) 0.2623(5) 0.2563(3)
C42 C 0.3723(3) 0.2123(3) 0.2938(2)
C43 C 0.3797(4) 0.1546(5) 0.2751(3)
C44 C 0.3976(4) 0.1084(4) 0.3140(4)
C45 C 0.4083(3) 0.1182(3) 0.3769(2)
O2 O 0.4166(2) 0.10061(14) 0.50523(14)
C46 C 0.4758(4) 0.0770(2) 0.7002(3)
F4 F 0.5308(3) 0.1138(2) 0.72747(15)
F5 F 0.4184(3) 0.0885(2) 0.72462(18)
F6 F 0.5010(3) 0.02349(18) 0.7173(2)
H22 H 0.4422 0.1777 0.6525
H23 H 0.5197 0.2684 0.6237
H24 H 0.5045 0.3714 0.6237
H25 H 0.2863 0.3578 0.5097
H26 H 0.3029 0.2553 0.5074
H27 H 0.3229 0.4998 0.6085
H28 H 0.3264 0.4349 0.6336
H29 H 0.2701 0.4499 0.5701
H30 H 0.4519 0.5175 0.5987
H31 H 0.4662 0.4641 0.6458
H32 H 0.5019 0.4618 0.5881
H33 H 0.3524 0.3603 0.3583
H34 H 0.3325 0.3491 0.2534
H35 H 0.3450 0.2567 0.2122
H36 H 0.3725 0.1466 0.2327
H37 H 0.4041 0.0681 0.3007
H38 H 0.4206 0.0844 0.4060
H39 H 0.4163 0.2282 0.4648
H40 H 0.3580 0.5064 0.5077
H41 H 0.4065 0.4559 0.4897
H42 H 0.3191 0.4465 0.4852
S3 S -0.12898(8) 0.11777(5) 0.62890(5)
C47 C -0.1254(3) 0.12361(18) 0.55437(18)
C48 C -0.1182(2) 0.17405(18) 0.52585(17)
C49 C -0.1132(2) 0.23057(17) 0.55899(18)
N5 N -0.0959(2) 0.27796(15) 0.52875(14)
C50 C -0.0940(2) 0.33796(17) 0.54344(19)
C51 C -0.0887(2) 0.37652(18) 0.4963(2)
N6 N -0.0816(2) 0.35170(16) 0.44453(18)
C52 C -0.0778(3) 0.3876(3) 0.4001(3)
C53 C -0.0804(4) 0.4490(3) 0.4040(3)
C54 C -0.0892(4) 0.4740(2) 0.4558(3)
C55 C -0.0924(3) 0.43867(19) 0.5044(2)
C56 C -0.0999(3) 0.4597(2) 0.5600(3)
C57 C -0.1030(3) 0.4214(2) 0.6055(3)
C58 C -0.1005(3) 0.3600(2) 0.5979(2)
O3 O -0.1212(2) 0.23270(13) 0.61001(13)
C59 C -0.1118(2) 0.17350(16) 0.46261(16)
C60 C -0.0421(3) 0.1644(2) 0.44799(19)
C61 C -0.0370(3) 0.1673(2) 0.38959(19)
C62 C -0.0996(3) 0.17889(19) 0.34246(18)
C63 C -0.0914(3) 0.1827(2) 0.2783(2)
C64 C -0.0531(7) 0.2408(5) 0.2716(3)
C65 C -0.0334(6) 0.1346(5) 0.2674(3)
C66 C -0.1640(5) 0.1729(5) 0.2324(3)
C67 C -0.1695(3) 0.1859(3) 0.3569(2)
C68 C -0.1755(3) 0.1842(2) 0.4156(2)
C69 C -0.1272(4) 0.0386(3) 0.6323(3)
F7 F -0.0663(2) 0.01437(16) 0.6219(2)
F8 F -0.1865(3) 0.01286(16) 0.5960(2)
F9 F -0.1308(4) 0.02419(19) 0.6873(2)
H43 H -0.1290 0.0871 0.5315
H44 H -0.0728 0.3695 0.3618
H45 H -0.0783 0.4732 0.3688
H46 H -0.0920 0.5171 0.4577
H47 H -0.1016 0.5023 0.5664
H48 H -0.1058 0.4380 0.6440
H49 H -0.1033 0.3326 0.6306
H50 H 0.0034 0.1576 0.4802
H51 H 0.0149 0.1603 0.3811
H52 H -0.0376 0.2409 0.2335
H53 H -0.0923 0.2721 0.2696
H54 H -0.0091 0.2470 0.3041
H55 H -0.0231 0.1390 0.2281
H56 H 0.0168 0.1383 0.2986
H57 H -0.0553 0.0957 0.2708
H58 H -0.1559 0.1727 0.1928
H59 H -0.1995 0.2070 0.2346
H60 H -0.1881 0.1372 0.2406
H61 H -0.2165 0.1932 0.3248
H62 H -0.2267 0.1904 0.4253
H63 H -0.0933 0.2707 0.4910
S4 S 0.69617(9) 0.41000(6) 0.68103(5)
C70 C 0.6763(3) 0.40417(19) 0.60321(17)
C71 C 0.6623(2) 0.35402(16) 0.57165(16)
C72 C 0.6658(2) 0.29752(18) 0.60495(17)
N7 N 0.6582(2) 0.24884(15) 0.57118(14)
C73 C 0.6576(2) 0.18917(18) 0.5884(2)
C74 C 0.6402(2) 0.14911(19) 0.5385(2)
N8 N 0.6280(2) 0.17202(17) 0.4827(2)
C75 C 0.6114(3) 0.1356(3) 0.4365(3)
C76 C 0.6071(4) 0.0741(3) 0.4436(4)
C77 C 0.6197(4) 0.0505(3) 0.4997(5)
C78 C 0.6375(3) 0.0873(2) 0.5507(4)
C79 C 0.6539(3) 0.0690(3) 0.6117(4)
C80 C 0.6690(4) 0.1086(3) 0.6566(3)
C81 C 0.6707(3) 0.1687(2) 0.6451(2)
O4 O 0.6749(2) 0.29697(14) 0.65950(12)
C82 C 0.6495(2) 0.35450(15) 0.50540(16)
C83 C 0.5798(3) 0.3398(2) 0.46718(19)
C84 C 0.5719(3) 0.3368(2) 0.40609(19)
C85 C 0.6316(3) 0.34904(18) 0.38003(17)
C86 C 0.7004(3) 0.3669(2) 0.41939(19)
C87 C 0.7092(3) 0.3697(2) 0.48003(18)
C88 C 0.6215(3) 0.3446(2) 0.31243(19)
C89 C 0.6956(5) 0.3563(5) 0.2945(3)
C90 C 0.5575(5) 0.3870(4) 0.2811(3)
C91 C 0.5921(7) 0.2818(4) 0.2932(3)
C92 C 0.7129(5) 0.4877(3) 0.6857(3)
F10 F 0.7361(3) 0.5020(2) 0.74337(18)
F11 F 0.7660(4) 0.5070(2) 0.6598(2)
F12 F 0.6515(4) 0.51962(19) 0.6639(3)
H64 H 0.6761 0.4406 0.5812
H65 H 0.6017 0.1521 0.3948
H66 H 0.5942 0.0490 0.4098
H67 H 0.6174 0.0079 0.5055
H68 H 0.6528 0.0269 0.6207
H69 H 0.6803 0.0940 0.6986
H70 H 0.6824 0.1974 0.6789
H71 H 0.5349 0.3309 0.4837
H72 H 0.5202 0.3258 0.3797
H73 H 0.7463 0.3775 0.4030
H74 H 0.7590 0.3818 0.5075
H75 H 0.6894 0.3525 0.2525
H76 H 0.7133 0.3977 0.3065
H77 H 0.7365 0.3294 0.3161
H78 H 0.5428 0.3796 0.2379
H79 H 0.5790 0.4278 0.2878
H80 H 0.5120 0.3841 0.2977
H81 H 0.5768 0.2798 0.2487
H82 H 0.6335 0.2540 0.3078
H83 H 0.5474 0.2725 0.3084
H84 H 0.6530 0.2549 0.5319
loop_
_geom_bond_atom_site_label_1
_geom_bond_atom_site_label_2
_geom_bond_site_symmetry_1
_geom_bond_site_symmetry_2
S1 C1 1_555 1_555
C1 C2 1_555 1_555
C2 C3 1_555 1_555
C3 C4 1_555 1_555
C4 C5 1_555 1_555
C5 C6 1_555 1_555
C6 C7 1_555 1_555
C7 C8 1_555 1_555
C8 C3 1_555 1_555
C9 C6 1_555 1_555
C10 C9 1_555 1_555
C11 C9 1_555 1_555
C12 C9 1_555 1_555
C13 C2 1_555 1_555
N1 C13 1_555 1_555
C14 N1 1_555 1_555
C15 C14 1_555 1_555
N2 C15 1_555 1_555
C16 N2 1_555 1_555
C17 C16 1_555 1_555
C18 C17 1_555 1_555
C19 C15 1_555 1_555
C20 C19 1_555 1_555
C21 C20 1_555 1_555
C22 C14 1_555 1_555
O1 C13 1_555 1_555
C23 S1 1_555 1_555
F1 C23 1_555 1_555
F2 C23 1_555 1_555
F3 C23 1_555 1_555
H1 C1 1_555 1_555
H2 C4 1_555 1_555
H3 C5 1_555 1_555
H4 C7 1_555 1_555
H5 C8 1_555 1_555
H6 C10 1_555 1_555
H7 C10 1_555 1_555
H8 C10 1_555 1_555
H9 C11 1_555 1_555
H10 C11 1_555 1_555
H11 C11 1_555 1_555
H12 C12 1_555 1_555
H13 C12 1_555 1_555
H14 C12 1_555 1_555
H15 C16 1_555 1_555
H16 C17 1_555 1_555
H17 C18 1_555 1_555
H18 C20 1_555 1_555
H19 C21 1_555 1_555
H20 C22 1_555 1_555
H21 N1 1_555 1_555
S2 C24 1_555 1_555
C24 C25 1_555 1_555
C25 C26 1_555 1_555
C26 C27 1_555 1_555
C27 C28 1_555 1_555
C28 C29 1_555 1_555
C29 C30 1_555 1_555
C30 C31 1_555 1_555
C31 C26 1_555 1_555
C32 C29 1_555 1_555
C33 C32 1_555 1_555
C34 C32 1_555 1_555
C35 C32 1_555 1_555
C36 C25 1_555 1_555
N3 C36 1_555 1_555
C37 N3 1_555 1_555
C38 C37 1_555 1_555
N4 C38 1_555 1_555
C39 N4 1_555 1_555
C40 C39 1_555 1_555
C41 C40 1_555 1_555
C42 C38 1_555 1_555
C43 C42 1_555 1_555
C44 C43 1_555 1_555
C45 C37 1_555 1_555
O2 C36 1_555 1_555
C46 S2 1_555 1_555
F4 C46 1_555 1_555
F5 C46 1_555 1_555
F6 C46 1_555 1_555
H22 C24 1_555 1_555
H23 C27 1_555 1_555
H24 C28 1_555 1_555
H25 C30 1_555 1_555
H26 C31 1_555 1_555
H27 C33 1_555 1_555
H28 C33 1_555 1_555
H29 C33 1_555 1_555
H30 C35 1_555 1_555
H31 C35 1_555 1_555
H32 C35 1_555 1_555
H33 C39 1_555 1_555
H34 C40 1_555 1_555
H35 C41 1_555 1_555
H36 C43 1_555 1_555
H37 C44 1_555 1_555
H38 C45 1_555 1_555
H39 N3 1_555 1_555
H40 C34 1_555 1_555
H41 C34 1_555 1_555
H42 C34 1_555 1_555
S3 C47 1_555 1_555
C47 C48 1_555 1_555
C48 C49 1_555 1_555
C49 N5 1_555 1_555
N5 C50 1_555 1_555
C50 C51 1_555 1_555
C51 N6 1_555 1_555
N6 C52 1_555 1_555
C52 C53 1_555 1_555
C53 C54 1_555 1_555
C54 C55 1_555 1_555
C55 C51 1_555 1_555
C56 C55 1_555 1_555
C57 C56 1_555 1_555
C58 C50 1_555 1_555
O3 C49 1_555 1_555
C59 C48 1_555 1_555
C60 C59 1_555 1_555
C61 C60 1_555 1_555
C62 C61 1_555 1_555
C63 C62 1_555 1_555
C64 C63 1_555 1_555
C65 C63 1_555 1_555
C66 C63 1_555 1_555
C67 C62 1_555 1_555
C68 C59 1_555 1_555
C69 S3 1_555 1_555
F7 C69 1_555 1_555
F8 C69 1_555 1_555
F9 C69 1_555 1_555
H43 C47 1_555 1_555
H44 C52 1_555 1_555
H45 C53 1_555 1_555
H46 C54 1_555 1_555
H47 C56 1_555 1_555
H48 C57 1_555 1_555
H49 C58 1_555 1_555
H50 C60 1_555 1_555
H51 C61 1_555 1_555
H52 C64 1_555 1_555
H53 C64 1_555 1_555
H54 C64 1_555 1_555
H55 C65 1_555 1_555
H56 C65 1_555 1_555
H57 C65 1_555 1_555
H58 C66 1_555 1_555
H59 C66 1_555 1_555
H60 C66 1_555 1_555
H61 C67 1_555 1_555
H62 C68 1_555 1_555
H63 N5 1_555 1_555
S4 C70 1_555 1_555
C70 C71 1_555 1_555
C71 C72 1_555 1_555
C72 N7 1_555 1_555
N7 C73 1_555 1_555
C73 C74 1_555 1_555
C74 N8 1_555 1_555
N8 C75 1_555 1_555
C75 C76 1_555 1_555
C76 C77 1_555 1_555
C77 C78 1_555 1_555
C78 C74 1_555 1_555
C79 C78 1_555 1_555
C80 C79 1_555 1_555
C81 C73 1_555 1_555
O4 C72 1_555 1_555
C82 C71 1_555 1_555
C83 C82 1_555 1_555
C84 C83 1_555 1_555
C85 C84 1_555 1_555
C86 C85 1_555 1_555
C87 C82 1_555 1_555
C88 C85 1_555 1_555
C89 C88 1_555 1_555
C90 C88 1_555 1_555
C91 C88 1_555 1_555
C92 S4 1_555 1_555
F10 C92 1_555 1_555
F11 C92 1_555 1_555
F12 C92 1_555 1_555
H64 C70 1_555 1_555
H65 C75 1_555 1_555
H66 C76 1_555 1_555
H67 C77 1_555 1_555
H68 C79 1_555 1_555
H69 C80 1_555 1_555
H70 C81 1_555 1_555
H71 C83 1_555 1_555
H72 C84 1_555 1_555
H73 C86 1_555 1_555
H74 C87 1_555 1_555
H75 C89 1_555 1_555
H76 C89 1_555 1_555
H77 C89 1_555 1_555
H78 C90 1_555 1_555
H79 C90 1_555 1_555
H80 C90 1_555 1_555
H81 C91 1_555 1_555
H82 C91 1_555 1_555
H83 C91 1_555 1_555
H84 N7 1_555 1_555
C18 C19 1_555 1_555
C21 C22 1_555 1_555
C41 C42 1_555 1_555
C44 C45 1_555 1_555
C57 C58 1_555 1_555
C67 C68 1_555 1_555
C80 C81 1_555 1_555
C86 C87 1_555 1_555

#END
