
#######################################################################
#
#                 Cambridge Crystallographic Data Centre
#                                CCDC 
#
#######################################################################
#
# If this CIF has been generated from an entry in the Cambridge 
# Structural Database, then it will include bibliographic, chemical, 
# crystal, experimental, refinement or atomic coordinate data resulting 
# from the CCDC's data processing and validation procedures.
#
#######################################################################

data_ECUYAF
_chemical_formula_moiety         'C21 H20 O8 S1,C1 H4 O1'
_chemical_name_systematic        
'6,7-dihydroxy-4-(4-hydroxy-3,5-dimethoxyphenyl)-5-methoxy-8-(methylsulfanyl)naphthalene-2-carboxylic acid methanol solvate'
_symmetry_cell_setting           triclinic
_symmetry_space_group_name_H-M   'P -1'
_symmetry_Int_Tables_number      2
_space_group_name_Hall           '-P 1'
loop_
_symmetry_equiv_pos_site_id
_symmetry_equiv_pos_as_xyz
1 x,y,z
2 -x,-y,-z
_cell_length_a                   8.4319(3)
_cell_length_b                   11.7976(4)
_cell_length_c                   13.0028(5)
_cell_angle_alpha                89.9418(14)
_cell_angle_beta                 106.3857(12)
_cell_angle_gamma                106.8766(13)
_cell_volume                     1182.87
_exptl_crystal_colour            brown
_exptl_crystal_description       rhomboid
_cell_formula_units_Z            2
loop_
_atom_site_label
_atom_site_type_symbol
_atom_site_fract_x
_atom_site_fract_y
_atom_site_fract_z
S1 S 0.39567(5) 0.21917(3) 0.35330(3)
O1 O 0.88686(17) 0.95747(10) 0.12618(9)
C1 C 0.7926(2) 0.81808(14) 0.25236(13)
H1 H 0.7856 0.7512 0.2088
O2 O 0.90658(16) 1.14076(10) 0.24814(10)
H2 H 0.912(3) 1.1875(15) 0.2895(16)
C2 C 0.8438(2) 0.93190(14) 0.21996(12)
O3 O 0.82171(15) 1.11669(9) 0.43325(9)
C3 C 0.8549(2) 1.03060(13) 0.28326(13)
O4 O 1.05347(15) 0.63349(10) 0.67674(9)
C4 C 0.81187(19) 1.01402(13) 0.37943(12)
O5 O 0.93787(16) 0.43626(10) 0.64815(10)
H3 H 1.009(3) 0.43902(13) 0.7105(19)
C5 C 0.76269(19) 0.90045(13) 0.41300(12)
H4 H 0.7367 0.8899 0.4795
C6 C 0.75169(19) 0.80257(13) 0.34909(12)
O6 O 0.15174(15) 0.28930(10) 0.16523(9)
H5 H 0.126(2) 0.237(2) 0.2022(13)
O7 O 0.16309(15) 0.50162(11) 0.10470(9)
H6 H 0.181(2) 0.575(3) 0.0892(15)
C7 C 0.7096(2) 0.68161(13) 0.38964(12)
O8 O 0.42104(14) 0.70049(9) 0.20632(9)
C8 C 0.8245(2) 0.66565(14) 0.48220(12)
H7 H 0.9158 0.7327 0.5212
C9 C 0.8116(2) 0.55266(14) 0.52169(12)
C10 C 0.6807(2) 0.45474(13) 0.46549(13)
H8 H 0.6756 0.3782 0.4900
C11 C 0.5536(2) 0.46635(13) 0.37193(12)
C12 C 0.4137(2) 0.36556(13) 0.31416(13)
C13 C 0.2881(2) 0.37991(14) 0.22570(13)
C14 C 0.2943(2) 0.49412(14) 0.19093(13)
C15 C 0.4270(2) 0.59228(14) 0.24492(13)
C16 C 0.5640(2) 0.58228(13) 0.33431(12)
C17 C 0.8723(3) 0.85894(17) 0.05670(15)
H9 H 0.7523 0.8067 0.0350
H10 H 0.9496 0.8145 0.0948
H11 H 0.9049 0.8880 -0.0073
C18 C 0.7875(2) 1.10822(15) 0.53469(13)
H12 H 0.6666 1.0612 0.5244
H13 H 0.8078 1.1881 0.5670
H14 H 0.8646 1.0695 0.5824
C19 C 0.9451(2) 0.54600(14) 0.62196(13)
C20 C 0.4845(3) 0.16586(17) 0.25826(15)
H15 H 0.4131 0.1680 0.1848
H16 H 0.4851 0.0840 0.2707
H17 H 0.6034 0.2168 0.2679
C21 C 0.3479(2) 0.76556(14) 0.26402(15)
H18 H 0.3704 0.8474 0.2436
H19 H 0.4010 0.7662 0.3416
H20 H 0.2225 0.7273 0.2462
O9 O 0.85332(19) 0.56232(14) 0.15469(12)
H21 H 0.915(7) 0.566(5) 0.112(4)
C22 C 0.6968(3) 0.4710(2) 0.11755(17)
H22 H 0.6413 0.4785 0.0418
H23 H 0.6200 0.4766 0.1603
H24 H 0.7192 0.3940 0.1245
loop_
_geom_bond_atom_site_label_1
_geom_bond_atom_site_label_2
_geom_bond_site_symmetry_1
_geom_bond_site_symmetry_2
S1 C12 1_555 1_555
O1 C2 1_555 1_555
C1 H1 1_555 1_555
O2 H2 1_555 1_555
C2 C1 1_555 1_555
O3 C4 1_555 1_555
C3 O2 1_555 1_555
O4 C19 1_555 1_555
C4 C3 1_555 1_555
O5 H3 1_555 1_555
C5 C4 1_555 1_555
H4 C5 1_555 1_555
C6 C1 1_555 1_555
O6 H5 1_555 1_555
O7 H6 1_555 1_555
C7 C6 1_555 1_555
O8 C15 1_555 1_555
C8 C7 1_555 1_555
H7 C8 1_555 1_555
C9 C8 1_555 1_555
C10 C9 1_555 1_555
H8 C10 1_555 1_555
C11 C10 1_555 1_555
C12 C11 1_555 1_555
C13 O6 1_555 1_555
C14 O7 1_555 1_555
C15 C14 1_555 1_555
C16 C7 1_555 1_555
C17 O1 1_555 1_555
H9 C17 1_555 1_555
H10 C17 1_555 1_555
H11 C17 1_555 1_555
C18 O3 1_555 1_555
H12 C18 1_555 1_555
H13 C18 1_555 1_555
H14 C18 1_555 1_555
C19 O5 1_555 1_555
C20 S1 1_555 1_555
H15 C20 1_555 1_555
H16 C20 1_555 1_555
H17 C20 1_555 1_555
C21 O8 1_555 1_555
H18 C21 1_555 1_555
H19 C21 1_555 1_555
H20 C21 1_555 1_555
O9 H21 1_555 1_555
C22 O9 1_555 1_555
H22 C22 1_555 1_555
H23 C22 1_555 1_555
H24 C22 1_555 1_555
C2 C3 1_555 1_555
C5 C6 1_555 1_555
C9 C19 1_555 1_555
C11 C16 1_555 1_555
C12 C13 1_555 1_555
C13 C14 1_555 1_555
C15 C16 1_555 1_555

#END
