
#######################################################################
#
#                 Cambridge Crystallographic Data Centre
#                                CCDC 
#
#######################################################################
#
# If this CIF has been generated from an entry in the Cambridge 
# Structural Database, then it will include bibliographic, chemical, 
# crystal, experimental, refinement or atomic coordinate data resulting 
# from the CCDC's data processing and validation procedures.
#
#######################################################################

data_ECUYEJ
_chemical_formula_moiety         'C21 H20 O8,2(H2 O1)'
_chemical_name_systematic        
'6-hydroxy-4-(4-hydroxy-3,5-dimethoxyphenyl)-5,7-dimethoxynaphthalene-2-carboxylic acid dihydrate'
_symmetry_cell_setting           triclinic
_symmetry_space_group_name_H-M   'P -1'
_symmetry_Int_Tables_number      2
_space_group_name_Hall           '-P 1'
loop_
_symmetry_equiv_pos_site_id
_symmetry_equiv_pos_as_xyz
1 x,y,z
2 -x,-y,-z
_cell_length_a                   7.1541(4)
_cell_length_b                   12.2169(7)
_cell_length_c                   12.5923(7)
_cell_angle_alpha                64.384(2)
_cell_angle_beta                 84.733(3)
_cell_angle_gamma                89.351(3)
_cell_volume                     987.722
_exptl_crystal_colour            'pale brown'
_exptl_crystal_description       rod
_cell_formula_units_Z            2
loop_
_atom_site_label
_atom_site_type_symbol
_atom_site_fract_x
_atom_site_fract_y
_atom_site_fract_z
O1 O 0.59744(16) 0.12039(10) 1.00272(9)
C1 C 0.4256(2) 0.26334(14) 0.84304(13)
H1 H 0.5222 0.2679 0.7841
O2 O 0.33214(18) 0.11334(11) 1.16430(9)
H2 H 0.239(3) 0.1157(16) 1.2071(13)
C2 C 0.4462(2) 0.19047(14) 0.96170(13)
O3 O 0.02226(17) 0.24138(11) 1.11046(9)
C3 C 0.3069(2) 0.18575(14) 1.04893(13)
O4 O 0.13433(18) 0.77629(11) 0.61433(10)
C4 C 0.1474(2) 0.25407(14) 1.01604(13)
O5 O 0.16996(18) 0.83102(11) 0.41935(10)
H3 H 0.146(3) 0.9039(19) 0.41606(13)
C5 C 0.1249(2) 0.32548(14) 0.89766(13)
H4 H 0.0152 0.3714 0.8761
C6 C 0.2641(2) 0.32971(14) 0.81009(13)
O6 O 0.38207(17) 0.31042(10) 0.28657(9)
C7 C 0.2439(2) 0.41344(14) 0.68364(13)
O7 O 0.37918(17) 0.13407(10) 0.49552(10)
H5 H 0.382(3) 0.0808(14) 0.5691(19)
C8 C 0.2053(2) 0.53169(15) 0.66169(13)
H6 H 0.1842 0.5515 0.7269
O8 O 0.32576(15) 0.16263(9) 0.69682(9)
C9 C 0.1957(2) 0.62441(14) 0.54677(13)
C10 C 0.1535(2) 0.10412(16) 0.76358(14)
H7 H 0.0643 0.1656 0.7635
H8 H 0.1776 0.0508 0.8451
H9 H 0.1006 0.0559 0.7278
C11 C 0.3745(3) 0.40490(16) 0.17009(14)
H10 H 0.4123 0.3735 0.1119
H11 H 0.4600 0.4722 0.1582
H12 H 0.2461 0.4338 0.1602
C12 C 0.1630(2) 0.74989(15) 0.53135(13)
C13 C -0.1414(2) 0.31189(16) 1.08705(14)
H13 H -0.1047 0.3982 1.0439
H14 H -0.2141 0.2976 1.1620
H15 H -0.2181 0.2885 1.0392
C14 C 0.7343(2) 0.11647(16) 0.91445(14)
H16 H 0.6737 0.0892 0.8630
H17 H 0.8319 0.0598 0.9528
H18 H 0.7914 0.1977 0.8670
C15 C 0.2715(2) 0.38186(14) 0.58516(13)
C16 C 0.3079(2) 0.26376(14) 0.59193(13)
C17 C 0.3413(2) 0.24512(14) 0.49169(14)
C18 C 0.3381(2) 0.34212(15) 0.37748(13)
C19 C 0.2950(2) 0.45495(15) 0.36697(13)
H19 H 0.2873 0.5196 0.2907
C20 C 0.2616(2) 0.47701(14) 0.46859(13)
C21 C 0.2233(2) 0.59631(14) 0.45238(13)
H20 H 0.2165 0.6584 0.3746
O9 O 0.12937(19) 0.06275(10) 0.37216(10)
H21 H 0.208(3) 0.088(2) 0.409(2)
H22 H 0.032(4) 0.101(3) 0.373(2)
O10 O 0.61560(19) 0.07057(11) 0.31604(11)
H23 H 0.546(4) 0.083(3) 0.258(3)
H24 H 0.591(4) 0.122(2) 0.343(2)
loop_
_geom_bond_atom_site_label_1
_geom_bond_atom_site_label_2
_geom_bond_site_symmetry_1
_geom_bond_site_symmetry_2
O1 C2 1_555 1_555
C1 H1 1_555 1_555
O2 H2 1_555 1_555
C2 C1 1_555 1_555
O3 C4 1_555 1_555
C3 O2 1_555 1_555
O4 C12 1_555 1_555
C4 C3 1_555 1_555
O5 H3 1_555 1_555
C5 C4 1_555 1_555
H4 C5 1_555 1_555
C6 C1 1_555 1_555
O6 C11 1_555 1_555
C7 C6 1_555 1_555
O7 H5 1_555 1_555
C8 C7 1_555 1_555
H6 C8 1_555 1_555
O8 C10 1_555 1_555
C9 C8 1_555 1_555
C10 H7 1_555 1_555
H8 C10 1_555 1_555
H9 C10 1_555 1_555
C11 H10 1_555 1_555
H11 C11 1_555 1_555
H12 C11 1_555 1_555
C12 O5 1_555 1_555
C13 O3 1_555 1_555
H13 C13 1_555 1_555
H14 C13 1_555 1_555
H15 C13 1_555 1_555
C14 O1 1_555 1_555
H16 C14 1_555 1_555
H17 C14 1_555 1_555
H18 C14 1_555 1_555
C15 C7 1_555 1_555
C16 O8 1_555 1_555
C17 O7 1_555 1_555
C18 O6 1_555 1_555
C19 C18 1_555 1_555
H19 C19 1_555 1_555
C20 C15 1_555 1_555
C21 C9 1_555 1_555
H20 C21 1_555 1_555
O9 H21 1_555 1_555
H22 O9 1_555 1_555
O10 H23 1_555 1_555
H24 O10 1_555 1_555
C2 C3 1_555 1_555
C5 C6 1_555 1_555
C9 C12 1_555 1_555
C15 C16 1_555 1_555
C16 C17 1_555 1_555
C17 C18 1_555 1_555
C19 C20 1_555 1_555
C20 C21 1_555 1_555

#END
