
#######################################################################
#
#                 Cambridge Crystallographic Data Centre
#                                CCDC 
#
#######################################################################
#
# If this CIF has been generated from an entry in the Cambridge 
# Structural Database, then it will include bibliographic, chemical, 
# crystal, experimental, refinement or atomic coordinate data resulting 
# from the CCDC's data processing and validation procedures.
#
#######################################################################

data_ECUYUZ
_chemical_formula_moiety         'C18 H29 B10 N1 O4'
_chemical_name_systematic        
3-([4-(methoxycarbonyl)bicyclo[2.2.2]octane-1-carbonyl]oxy)-1-(pyridin-2-yl)-1,2-dicarba-closo-dodecaborane(10)
_symmetry_cell_setting           triclinic
_symmetry_space_group_name_H-M   'P -1'
_symmetry_Int_Tables_number      2
_space_group_name_Hall           '-P 1'
loop_
_symmetry_equiv_pos_site_id
_symmetry_equiv_pos_as_xyz
1 x,y,z
2 -x,-y,-z
_cell_length_a                   10.435(5)
_cell_length_b                   10.813(5)
_cell_length_c                   21.420(9)
_cell_angle_alpha                84.083(7)
_cell_angle_beta                 81.585(7)
_cell_angle_gamma                75.119(7)
_cell_volume                     2305.26
_exptl_crystal_colour            colorless
_exptl_crystal_description       block
_cell_formula_units_Z            4
loop_
_atom_site_label
_atom_site_type_symbol
_atom_site_fract_x
_atom_site_fract_y
_atom_site_fract_z
B1 B 0.9563(4) 0.8126(3) 0.60858(18)
B2 B 1.0211(4) 0.7133(3) 0.67523(17)
H1 H 0.970810 0.728096 0.723683
B3 B 1.1006(4) 0.5550(3) 0.65081(18)
H2 H 1.102079 0.468995 0.683252
B4 B 1.1970(4) 0.6670(4) 0.65835(18)
H3 H 1.261965 0.653985 0.695795
B5 B 1.0845(4) 0.5541(3) 0.56991(17)
H4 H 1.074743 0.468231 0.549498
B6 B 1.0939(4) 0.8202(3) 0.55002(19)
H5 H 1.091993 0.904804 0.516545
B7 B 1.1076(4) 0.8248(3) 0.63156(18)
H6 H 1.114916 0.912162 0.651478
B8 B 1.2361(4) 0.5666(3) 0.59265(19)
H7 H 1.326986 0.487884 0.587441
B9 B 1.2428(4) 0.7307(4) 0.57998(19)
H8 H 1.338697 0.756934 0.566584
B10 B 1.1701(4) 0.6647(4) 0.52633(19)
H9 H 1.216409 0.650005 0.477251
C1 C 0.6212(3) 1.0373(3) 0.63790(14)
C2 C 0.4643(4) 1.1586(4) 0.56118(18)
H10 H 0.451549 1.250676 0.553531
H11 H 0.441600 1.126095 0.524759
C3 C 0.8288(3) 0.6126(3) 0.63086(15)
C4 C 0.7636(3) 0.9811(3) 0.64912(15)
C5 C 0.3717(3) 1.1290(3) 0.62062(15)
C6 C 0.0018(4) 1.2245(4) 0.6555(2)
H12 H -0.017413 1.296822 0.625326
H13 H -0.049279 1.245971 0.695635
H14 H -0.021506 1.152934 0.641032
C7 C 1.0039(3) 0.7090(3) 0.54874(15)
H15 H 0.936097 0.722697 0.512433
C8 C 0.9618(3) 0.6467(3) 0.61933(14)
C9 C 0.2275(4) 1.1745(3) 0.60890(17)
C10 C 0.5456(3) 0.9309(3) 0.65086(17)
H16 H 0.589423 0.860579 0.624468
H17 H 0.545904 0.898237 0.694765
C11 C 0.7760(4) 0.5785(3) 0.69008(16)
H18 H 0.820584 0.577553 0.724745
C12 C 0.4037(4) 1.1901(3) 0.67636(18)
H19 H 0.380134 1.282792 0.669165
H20 H 0.351440 1.167305 0.715073
C13 C 0.5525(4) 1.1432(3) 0.68314(17)
H21 H 0.563413 1.110070 0.726390
H22 H 0.594391 1.214475 0.673826
C14 C 0.5914(4) 0.5506(4) 0.64584(19)
H23 H 0.509302 0.529777 0.649887
C15 C 0.6497(4) 0.5868(4) 0.58780(19)
H24 H 0.605321 0.590199 0.552797
C16 C 0.6549(4) 0.5454(4) 0.69781(19)
H25 H 0.617428 0.520026 0.737631
C17 C 0.4027(4) 0.9844(3) 0.6367(2)
H26 H 0.341969 0.965779 0.673134
H27 H 0.388238 0.942319 0.601370
C18 C 0.6118(4) 1.0960(4) 0.56977(17)
H28 H 0.648321 1.029631 0.540307
H29 H 0.663480 1.159975 0.560925
N1 N 0.7691(3) 0.6179(3) 0.57893(14)
O1 O 0.8279(2) 0.8949(2) 0.60641(10)
O2 O 0.8191(3) 1.0046(2) 0.69018(12)
O3 O 0.1441(3) 1.1907(3) 0.66217(13)
O4 O 0.1879(3) 1.1898(4) 0.55884(14)
B11 B 0.4174(4) 0.6726(3) 0.89329(17)
B12 B 0.4641(4) 0.7679(4) 0.82452(18)
H30 H 0.445604 0.748869 0.777584
B13 B 0.3918(4) 0.9376(4) 0.92644(18)
H31 H 0.327217 1.025592 0.946276
B14 B 0.4494(4) 0.9284(4) 0.84431(18)
H32 H 0.422124 1.011572 0.810432
B15 B 0.6477(4) 0.7573(4) 0.91316(19)
H33 H 0.751470 0.730459 0.924081
B16 B 0.5300(4) 0.6683(4) 0.94894(18)
H34 H 0.554929 0.585881 0.983482
B17 B 0.5876(4) 0.6605(3) 0.86655(18)
H35 H 0.651553 0.572055 0.846892
B18 B 0.5637(4) 0.9203(4) 0.8994(2)
H36 H 0.612570 0.998407 0.901338
B19 B 0.6080(4) 0.8172(4) 0.83664(19)
H37 H 0.685728 0.828837 0.797439
B20 B 0.5136(4) 0.8299(4) 0.96838(19)
H38 H 0.527524 0.849697 1.015947
C19 C 0.0242(5) 0.9257(4) 0.8061(2)
H39 H -0.004566 0.941016 0.766344
C20 C 0.1960(3) 0.8738(3) 0.87165(16)
C21 C 0.3421(3) 0.8393(3) 0.88059(15)
C22 C 0.0104(4) 0.3522(3) 0.87578(16)
C23 C 0.2199(3) 0.4445(3) 0.86599(15)
C24 C -0.0197(4) 0.4914(4) 0.8475(3)
H40 H -0.036567 0.493558 0.803993
H41 H -0.099313 0.541363 0.871103
C25 C 0.3796(4) 0.7810(3) 0.95136(15)
H42 H 0.299891 0.769266 0.989559
C26 C 0.1592(4) 0.8929(3) 0.81223(18)
H43 H 0.223079 0.884250 0.776752
C27 C -0.2746(4) 0.2552(4) 0.8248(2)
H44 H -0.275837 0.180717 0.853238
H45 H -0.280875 0.235790 0.782769
H46 H -0.348986 0.324243 0.838002
C28 C 0.2430(4) 0.3406(4) 0.8211(2)
H47 H 0.325590 0.277222 0.827300
H48 H 0.250974 0.377033 0.777770
C29 C -0.0653(5) 0.9350(4) 0.8591(3)
H49 H -0.156318 0.953575 0.855997
C30 C 0.3398(4) 0.5017(3) 0.85740(17)
C31 C 0.1907(5) 0.3886(5) 0.93364(19)
H50 H 0.181604 0.453077 0.963403
H51 H 0.263624 0.316372 0.943383
C32 C 0.1232(5) 0.2752(4) 0.8332(3)
H52 H 0.092880 0.268500 0.793258
H53 H 0.152263 0.189226 0.852606
C33 C -0.0214(5) 0.9170(5) 0.9167(2)
H54 H -0.083874 0.924957 0.952740
C34 C 0.0605(6) 0.3450(6) 0.9390(2)
H55 H 0.075331 0.257366 0.957302
H56 H -0.007419 0.398564 0.967352
C35 C -0.1142(4) 0.3021(4) 0.88174(19)
C36 C 0.0968(4) 0.5498(4) 0.8497(2)
H57 H 0.072781 0.612626 0.881271
H58 H 0.117654 0.593161 0.808943
N2 N 0.1096(4) 0.8879(4) 0.92359(16)
O5 O 0.3281(2) 0.5921(2) 0.89850(10)
O6 O -0.1503(3) 0.2928(3) 0.82534(14)
O7 O 0.4350(3) 0.4747(3) 0.81789(14)
O8 O -0.1785(4) 0.2804(5) 0.92972(17)
loop_
_geom_bond_atom_site_label_1
_geom_bond_atom_site_label_2
_geom_bond_site_symmetry_1
_geom_bond_site_symmetry_2
B1 B2 1_555 1_555
B2 H1 1_555 1_555
B3 B2 1_555 1_555
H2 B3 1_555 1_555
B4 B2 1_555 1_555
H3 B4 1_555 1_555
B5 B3 1_555 1_555
H4 B5 1_555 1_555
B6 B1 1_555 1_555
H5 B6 1_555 1_555
B7 B1 1_555 1_555
H6 B7 1_555 1_555
B8 B3 1_555 1_555
H7 B8 1_555 1_555
B9 B4 1_555 1_555
H8 B9 1_555 1_555
B10 B5 1_555 1_555
H9 B10 1_555 1_555
C1 C4 1_555 1_555
C2 H10 1_555 1_555
H11 C2 1_555 1_555
C3 C8 1_555 1_555
C4 O1 1_555 1_555
C5 C2 1_555 1_555
C6 H12 1_555 1_555
H13 C6 1_555 1_555
H14 C6 1_555 1_555
C7 B1 1_555 1_555
H15 C7 1_555 1_555
C8 B1 1_555 1_555
C9 C5 1_555 1_555
C10 C1 1_555 1_555
H16 C10 1_555 1_555
H17 C10 1_555 1_555
C11 C3 1_555 1_555
H18 C11 1_555 1_555
C12 C5 1_555 1_555
H19 C12 1_555 1_555
H20 C12 1_555 1_555
C13 C1 1_555 1_555
H21 C13 1_555 1_555
H22 C13 1_555 1_555
C14 H23 1_555 1_555
C15 C14 1_555 1_555
H24 C15 1_555 1_555
C16 C11 1_555 1_555
H25 C16 1_555 1_555
C17 C5 1_555 1_555
H26 C17 1_555 1_555
H27 C17 1_555 1_555
C18 C1 1_555 1_555
H28 C18 1_555 1_555
H29 C18 1_555 1_555
N1 C3 1_555 1_555
O1 B1 1_555 1_555
O2 C4 1_555 1_555
O3 C6 1_555 1_555
O4 C9 1_555 1_555
B11 B12 1_555 1_555
B12 H30 1_555 1_555
B13 H31 1_555 1_555
B14 B12 1_555 1_555
H32 B14 1_555 1_555
B15 H33 1_555 1_555
B16 B11 1_555 1_555
H34 B16 1_555 1_555
B17 B11 1_555 1_555
H35 B17 1_555 1_555
B18 B13 1_555 1_555
H36 B18 1_555 1_555
B19 B12 1_555 1_555
H37 B19 1_555 1_555
B20 B13 1_555 1_555
H38 B20 1_555 1_555
C19 H39 1_555 1_555
C20 C21 1_555 1_555
C21 B11 1_555 1_555
C22 C24 1_555 1_555
C23 C28 1_555 1_555
C24 H40 1_555 1_555
H41 C24 1_555 1_555
C25 B11 1_555 1_555
H42 C25 1_555 1_555
C26 C19 1_555 1_555
H43 C26 1_555 1_555
C27 H44 1_555 1_555
H45 C27 1_555 1_555
H46 C27 1_555 1_555
C28 H47 1_555 1_555
H48 C28 1_555 1_555
C29 C19 1_555 1_555
H49 C29 1_555 1_555
C30 C23 1_555 1_555
C31 C23 1_555 1_555
H50 C31 1_555 1_555
H51 C31 1_555 1_555
C32 C22 1_555 1_555
H52 C32 1_555 1_555
H53 C32 1_555 1_555
C33 C29 1_555 1_555
H54 C33 1_555 1_555
C34 C22 1_555 1_555
H55 C34 1_555 1_555
H56 C34 1_555 1_555
C35 C22 1_555 1_555
C36 C23 1_555 1_555
H57 C36 1_555 1_555
H58 C36 1_555 1_555
N2 C20 1_555 1_555
O5 B11 1_555 1_555
O6 C27 1_555 1_555
O7 C30 1_555 1_555
O8 C35 1_555 1_555
B2 B7 1_555 1_555
B2 C8 1_555 1_555
B3 B4 1_555 1_555
B3 C8 1_555 1_555
B4 B7 1_555 1_555
B4 B8 1_555 1_555
B5 B8 1_555 1_555
B5 C7 1_555 1_555
B5 C8 1_555 1_555
B6 B7 1_555 1_555
B6 B9 1_555 1_555
B6 B10 1_555 1_555
B6 C7 1_555 1_555
B7 B9 1_555 1_555
B8 B9 1_555 1_555
B8 B10 1_555 1_555
B9 B10 1_555 1_555
B10 C7 1_555 1_555
C2 C18 1_555 1_555
C7 C8 1_555 1_555
C9 O3 1_555 1_555
C10 C17 1_555 1_555
C12 C13 1_555 1_555
C14 C16 1_555 1_555
C15 N1 1_555 1_555
B12 B17 1_555 1_555
B12 C21 1_555 1_555
B13 B14 1_555 1_555
B13 C21 1_555 1_555
B13 C25 1_555 1_555
B14 B18 1_555 1_555
B14 B19 1_555 1_555
B14 C21 1_555 1_555
B15 B16 1_555 1_555
B15 B17 1_555 1_555
B15 B18 1_555 1_555
B15 B19 1_555 1_555
B15 B20 1_555 1_555
B16 B17 1_555 1_555
B16 B20 1_555 1_555
B16 C25 1_555 1_555
B17 B19 1_555 1_555
B18 B19 1_555 1_555
B18 B20 1_555 1_555
B20 C25 1_555 1_555
C20 C26 1_555 1_555
C21 C25 1_555 1_555
C24 C36 1_555 1_555
C28 C32 1_555 1_555
C30 O5 1_555 1_555
C31 C34 1_555 1_555
C33 N2 1_555 1_555
C35 O6 1_555 1_555

#END
