
#######################################################################
#
#                 Cambridge Crystallographic Data Centre
#                                CCDC 
#
#######################################################################
#
# If this CIF has been generated from an entry in the Cambridge 
# Structural Database, then it will include bibliographic, chemical, 
# crystal, experimental, refinement or atomic coordinate data resulting 
# from the CCDC's data processing and validation procedures.
#
#######################################################################

data_EDACAQ
_chemical_formula_moiety         'C21 H22 N2 O1 Si1'
_chemical_name_systematic        
2-phenyl-N-(quinolin-8-yl)-3-(trimethylsilyl)prop-2-enamide
_symmetry_cell_setting           monoclinic
_symmetry_space_group_name_H-M   'P 21/n'
_symmetry_Int_Tables_number      14
_space_group_name_Hall           '-P 2yn'
loop_
_symmetry_equiv_pos_site_id
_symmetry_equiv_pos_as_xyz
1 x,y,z
2 1/2-x,1/2+y,1/2-z
3 -x,-y,-z
4 1/2+x,1/2-y,1/2+z
_cell_length_a                   11.9573(3)
_cell_length_b                   11.2275(3)
_cell_length_c                   14.8598(4)
_cell_angle_alpha                90
_cell_angle_beta                 98.9260(10)
_cell_angle_gamma                90
_cell_volume                     1970.78
_exptl_crystal_colour            colorless
_exptl_crystal_description       block
_cell_formula_units_Z            4
loop_
_atom_site_label
_atom_site_type_symbol
_atom_site_fract_x
_atom_site_fract_y
_atom_site_fract_z
Si1 Si 0.09932(4) 0.77307(5) 0.24196(4)
C1 C 0.23559(12) 0.53628(13) 0.46122(9)
N1 N 0.47392(12) 0.69313(14) 0.19667(10)
O1 O 0.33041(11) 0.79280(11) 0.47656(8)
N2 N 0.37601(11) 0.73393(11) 0.33998(9)
H1 H 0.3579 0.6808 0.2966
C2 C 0.14481(13) 0.46221(14) 0.47225(11)
H2 H 0.0732 0.4745 0.4358
C3 C 0.35280(14) 0.42383(15) 0.57914(11)
H3 H 0.4243 0.4108 0.6156
C4 C 0.26181(16) 0.35143(16) 0.58942(12)
H4 H 0.2706 0.2888 0.6329
C5 C 0.15822(15) 0.37099(16) 0.53593(12)
H5 H 0.0956 0.3215 0.5428
C6 C 0.33970(13) 0.51523(14) 0.51579(10)
H6 H 0.4026 0.5644 0.5094
C7 C 0.13576(13) 0.64950(14) 0.32648(11)
H7 H 0.0837 0.5850 0.3196
C8 C 0.22201(12) 0.63624(12) 0.39470(10)
C9 C -0.05604(18) 0.7957(2) 0.2369(2)
H8 H -0.0832 0.8526 0.1884
H9 H -0.0712 0.8269 0.2954
H10 H -0.0953 0.7195 0.2243
C10 C 0.17115(19) 0.91691(18) 0.2762(2)
H11 H 0.2483 0.9153 0.2616
H12 H 0.1741 0.9288 0.3418
H13 H 0.1289 0.9824 0.2431
C11 C 0.1344(2) 0.7238(3) 0.12995(16)
H14 H 0.0983 0.6468 0.1135
H15 H 0.2166 0.7157 0.1341
H16 H 0.1067 0.7829 0.0833
C12 C 0.31419(12) 0.72962(13) 0.40920(10)
C13 C 0.46475(12) 0.81126(14) 0.32784(11)
C14 C 0.51481(13) 0.78730(14) 0.24873(11)
C15 C 0.60553(13) 0.85979(17) 0.22941(12)
C16 C 0.64423(15) 0.95403(17) 0.28914(14)
H17 H 0.7045 1.0033 0.2766
C17 C 0.59559(16) 0.97449(18) 0.36453(14)
H18 H 0.6229 1.0378 0.4044
C18 C 0.50474(15) 0.90304(16) 0.38485(13)
H19 H 0.4717 0.9187 0.4378
C19 C 0.65335(15) 0.8298(2) 0.15191(13)
H20 H 0.7133 0.8764 0.1354
C20 C 0.61415(18) 0.7348(2) 0.10077(14)
H21 H 0.6474 0.7129 0.0491
C21 C 0.52273(18) 0.6682(2) 0.12527(14)
H22 H 0.4952 0.6023 0.0883
loop_
_geom_bond_atom_site_label_1
_geom_bond_atom_site_label_2
_geom_bond_site_symmetry_1
_geom_bond_site_symmetry_2
Si1 C7 1_555 1_555
C1 C2 1_555 1_555
N1 C14 1_555 1_555
O1 C12 1_555 1_555
N2 H1 1_555 1_555
C2 H2 1_555 1_555
C3 H3 1_555 1_555
C4 C3 1_555 1_555
H4 C4 1_555 1_555
C5 C2 1_555 1_555
H5 C5 1_555 1_555
C6 C1 1_555 1_555
H6 C6 1_555 1_555
C7 H7 1_555 1_555
C8 C1 1_555 1_555
C9 Si1 1_555 1_555
H8 C9 1_555 1_555
H9 C9 1_555 1_555
H10 C9 1_555 1_555
C10 Si1 1_555 1_555
H11 C10 1_555 1_555
H12 C10 1_555 1_555
H13 C10 1_555 1_555
C11 Si1 1_555 1_555
H14 C11 1_555 1_555
H15 C11 1_555 1_555
H16 C11 1_555 1_555
C12 N2 1_555 1_555
C13 N2 1_555 1_555
C14 C13 1_555 1_555
C15 C14 1_555 1_555
C16 C15 1_555 1_555
H17 C16 1_555 1_555
C17 C16 1_555 1_555
H18 C17 1_555 1_555
C18 C13 1_555 1_555
H19 C18 1_555 1_555
C19 C15 1_555 1_555
H20 C19 1_555 1_555
C20 C19 1_555 1_555
H21 C20 1_555 1_555
C21 N1 1_555 1_555
H22 C21 1_555 1_555
C3 C6 1_555 1_555
C4 C5 1_555 1_555
C7 C8 1_555 1_555
C8 C12 1_555 1_555
C17 C18 1_555 1_555
C20 C21 1_555 1_555

#END
