
#######################################################################
#
#                 Cambridge Crystallographic Data Centre
#                                CCDC 
#
#######################################################################
#
# If this CIF has been generated from an entry in the Cambridge 
# Structural Database, then it will include bibliographic, chemical, 
# crystal, experimental, refinement or atomic coordinate data resulting 
# from the CCDC's data processing and validation procedures.
#
#######################################################################

data_EDAFOF
_chemical_formula_moiety         'C14 H18 N2 O2 S1'
_chemical_name_systematic        
(-)-2,5-bis((R)-4-ethyl-4,5-dihydro-1,3-oxazolin-2-yl)thiophene
_symmetry_cell_setting           monoclinic
_symmetry_space_group_name_H-M   'C 2'
_symmetry_Int_Tables_number      5
_space_group_name_Hall           'C 2y'
loop_
_symmetry_equiv_pos_site_id
_symmetry_equiv_pos_as_xyz
1 x,y,z
2 -x,y,-z
3 1/2+x,1/2+y,z
4 1/2-x,1/2+y,-z
_cell_length_a                   15.010(2)
_cell_length_b                   6.3193(9)
_cell_length_c                   7.6881(11)
_cell_angle_alpha                90.00
_cell_angle_beta                 107.126(2)
_cell_angle_gamma                90.00
_cell_volume                     696.902
_exptl_crystal_colour            colorless
_chemical_melting_point          '89-90 deg.C'
_cell_formula_units_Z            2
_exptl_crystal_recrystallization_method acetone/hexane
loop_
_atom_site_label
_atom_site_type_symbol
_atom_site_fract_x
_atom_site_fract_y
_atom_site_fract_z
S1 S 0.5000 0.79762(8) 0.0000
O1 O 0.38651(9) 1.0643(2) -0.47749(16)
N1 N 0.37355(13) 0.7303(3) -0.3821(2)
C1 C 0.47460(12) 1.1877(3) -0.0943(2)
H1 H 0.4562 1.3123 -0.1648
C2 C 0.45551(11) 0.9878(3) -0.1616(2)
C3 C 0.40334(12) 0.9165(3) -0.3444(2)
C4 C 0.33428(13) 0.9543(3) -0.6431(2)
H2 H 0.3682 0.9586 -0.7356
H3 H 0.2720 1.0189 -0.6950
C5 C 0.32564(13) 0.7267(3) -0.5815(2)
H4 H 0.2583 0.6926 -0.6023
C6 C 0.36885(14) 0.5598(3) -0.6742(2)
H5 H 0.3748 0.4254 -0.6056
H6 H 0.4322 0.6057 -0.6721
C7 C 0.31056(13) 0.5218(4) -0.8713(2)
H7 H 0.3408 0.4142 -0.9263
H8 H 0.3053 0.6541 -0.9402
H9 H 0.2482 0.4729 -0.8738
O1A O 0.61349(9) 1.0643(2) 0.47749(16)
N1A N 0.62645(13) 0.7303(3) 0.3821(2)
C1A C 0.52540(12) 1.1877(3) 0.0943(2)
H1A H 0.5438 1.3123 0.1648
C2A C 0.54449(11) 0.9878(3) 0.1616(2)
C3A C 0.59666(12) 0.9165(3) 0.3444(2)
C4A C 0.66572(13) 0.9543(3) 0.6431(2)
H2A H 0.6318 0.9586 0.7356
H3A H 0.7280 1.0189 0.6950
C5A C 0.67436(13) 0.7267(3) 0.5815(2)
H4A H 0.7417 0.6926 0.6023
C6A C 0.63115(14) 0.5598(3) 0.6742(2)
H5A H 0.6252 0.4254 0.6056
H6A H 0.5678 0.6057 0.6721
C7A C 0.68944(13) 0.5218(4) 0.8713(2)
H7A H 0.6592 0.4142 0.9263
H8A H 0.6947 0.6541 0.9402
H9A H 0.7518 0.4729 0.8738
loop_
_geom_bond_atom_site_label_1
_geom_bond_atom_site_label_2
_geom_bond_site_symmetry_1
_geom_bond_site_symmetry_2
S1 C2 1_555 1_555
O1 C3 1_555 1_555
N1 C3 1_555 1_555
C1 H1 1_555 1_555
C2 C1 1_555 1_555
C3 C2 1_555 1_555
C4 O1 1_555 1_555
H2 C4 1_555 1_555
H3 C4 1_555 1_555
C5 N1 1_555 1_555
H4 C5 1_555 1_555
C6 C5 1_555 1_555
H5 C6 1_555 1_555
H6 C6 1_555 1_555
C7 C6 1_555 1_555
H7 C7 1_555 1_555
H8 C7 1_555 1_555
H9 C7 1_555 1_555
O1A C3A 1_555 1_555
N1A C3A 1_555 1_555
C1A C1 1_555 1_555
H1A C1A 1_555 1_555
C2A S1 1_555 1_555
C3A C2A 1_555 1_555
C4A O1A 1_555 1_555
H2A C4A 1_555 1_555
H3A C4A 1_555 1_555
C5A N1A 1_555 1_555
H4A C5A 1_555 1_555
C6A C5A 1_555 1_555
H5A C6A 1_555 1_555
H6A C6A 1_555 1_555
C7A C6A 1_555 1_555
H7A C7A 1_555 1_555
H8A C7A 1_555 1_555
H9A C7A 1_555 1_555
C4 C5 1_555 1_555
C1A C2A 1_555 1_555
C4A C5A 1_555 1_555

#END
