
#######################################################################
#
#                 Cambridge Crystallographic Data Centre
#                                CCDC 
#
#######################################################################
#
# If this CIF has been generated from an entry in the Cambridge 
# Structural Database, then it will include bibliographic, chemical, 
# crystal, experimental, refinement or atomic coordinate data resulting 
# from the CCDC's data processing and validation procedures.
#
#######################################################################

data_EDAFAT
_chemical_formula_moiety         'C20 H16 N2 O4,C2 H6 O2'
_chemical_name_systematic        
'2-hydroxyethyl 4-oxo-3-phenyl-4,9-dihydro-1H-pyrrolo[2,3-b]quinoline-2-carboxylate ethane-1,2-diol solvate'
_symmetry_cell_setting           monoclinic
_symmetry_space_group_name_H-M   'P 21'
_symmetry_Int_Tables_number      4
_space_group_name_Hall           'P 2yb'
loop_
_symmetry_equiv_pos_site_id
_symmetry_equiv_pos_as_xyz
1 x,y,z
2 -x,1/2+y,-z
_cell_length_a                   6.1050(12)
_cell_length_b                   17.278(3)
_cell_length_c                   9.698(2)
_cell_angle_alpha                90
_cell_angle_beta                 97.095(4)
_cell_angle_gamma                90
_cell_volume                     1015.13
_exptl_crystal_colour            'light colorless'
_exptl_crystal_description       block
_cell_formula_units_Z            2
loop_
_atom_site_label
_atom_site_type_symbol
_atom_site_fract_x
_atom_site_fract_y
_atom_site_fract_z
C1 C -1.4387(9) -0.0657(4) -1.2995(6)
H1 H -1.5007 -0.0906 -1.3800
C2 C -1.5527(10) -0.0071(4) -1.2451(7)
H2 H -1.6924 0.0066 -1.2873
C3 C -1.4596(11) 0.0317(4) -1.1270(7)
H3 H -1.5344 0.0730 -1.0930
C4 C -1.2582(11) 0.0097(4) -1.0600(7)
H4 H -1.1982 0.0354 -0.9799
C5 C -1.1433(9) -0.0513(3) -1.1119(6)
C6 C -1.2285(9) -0.0889(3) -1.2355(5)
C7 C -1.1076(8) -0.1504(3) -1.2992(5)
C8 C -0.9112(8) -0.1751(3) -1.2141(5)
C9 C -0.8380(9) -0.1353(3) -1.0923(5)
C10 C -0.5920(8) -0.2271(3) -1.1156(5)
C11 C -0.7520(8) -0.2359(3) -1.2274(5)
C12 C -0.7624(8) -0.2926(3) -1.3412(5)
C13 C -0.9434(9) -0.3411(3) -1.3645(6)
H5 H -1.0553 -0.3384 -1.3077
C14 C -0.9570(11) -0.3943(4) -1.4742(7)
H6 H -1.0777 -0.4275 -1.4893
C15 C -0.7957(10) -0.3981(4) -1.5587(6)
H7 H -0.8052 -0.4336 -1.6312
C16 C -0.6181(10) -0.3487(4) -1.5362(6)
H8 H -0.5087 -0.3507 -1.5949
C17 C -0.5998(9) -0.2968(4) -1.4288(5)
H9 H -0.4779 -0.2642 -1.4146
C18 C -0.3961(9) -0.2728(3) -1.0699(6)
C19 C -0.0876(9) -0.2790(4) -0.8920(6)
H10 H 0.0275 -0.2806 -0.9525
H11 H -0.1252 -0.3316 -0.8690
C20 C -0.0124(10) -0.2343(5) -0.7634(6)
H12 H 0.1218 -0.2568 -0.7159
H13 H 0.0176 -0.1811 -0.7865
N1 N -0.9421(7) -0.0742(2) -1.0424(4)
H14 H -0.8845 -0.0501 -0.9692
N2 N -0.6466(7) -0.1645(2) -1.0340(4)
H15 H -0.5700 -0.1479 -0.9595
O1 O -1.1746(6) -0.1766(2) -1.4164(4)
O2 O -0.3400(6) -0.3321(2) -1.1218(4)
O3 O -0.2807(6) -0.2387(2) -0.9594(4)
O4 O -0.1842(8) -0.2374(3) -0.6769(4)
H16 H -0.1412 -0.2177 -0.6014
C21 C -0.5742(13) -0.5556(5) -1.2991(8)
H17 H -0.6715 -0.5285 -1.2436
H18 H -0.6537 -0.5645 -1.3907
C22 C -0.3806(15) -0.5094(5) -1.3106(7)
H19 H -0.2832 -0.5381 -1.3636
H20 H -0.4253 -0.4628 -1.3625
O5 O -0.5092(10) -0.6280(3) -1.2352(5)
H21 H -0.6134 -0.6583 -1.2458
O6 O -0.2603(9) -0.4876(2) -1.1818(5)
H22 H -0.2765 -0.4411 -1.1690
loop_
_geom_bond_atom_site_label_1
_geom_bond_atom_site_label_2
_geom_bond_site_symmetry_1
_geom_bond_site_symmetry_2
C1 H1 1_555 1_555
C2 C1 1_555 1_555
H2 C2 1_555 1_555
C3 C2 1_555 1_555
H3 C3 1_555 1_555
C4 C3 1_555 1_555
H4 C4 1_555 1_555
C5 C4 1_555 1_555
C6 C1 1_555 1_555
C7 C6 1_555 1_555
C8 C7 1_555 1_555
C9 C8 1_555 1_555
C10 C11 1_555 1_555
C11 C8 1_555 1_555
C12 C11 1_555 1_555
C13 C12 1_555 1_555
H5 C13 1_555 1_555
C14 C13 1_555 1_555
H6 C14 1_555 1_555
C15 C14 1_555 1_555
H7 C15 1_555 1_555
C16 C15 1_555 1_555
H8 C16 1_555 1_555
C17 C12 1_555 1_555
H9 C17 1_555 1_555
C18 C10 1_555 1_555
C19 H10 1_555 1_555
H11 C19 1_555 1_555
C20 C19 1_555 1_555
H12 C20 1_555 1_555
H13 C20 1_555 1_555
N1 C5 1_555 1_555
H14 N1 1_555 1_555
N2 C9 1_555 1_555
H15 N2 1_555 1_555
O1 C7 1_555 1_555
O2 C18 1_555 1_555
O3 C18 1_555 1_555
O4 C20 1_555 1_555
H16 O4 1_555 1_555
C21 H17 1_555 1_555
H18 C21 1_555 1_555
C22 C21 1_555 1_555
H19 C22 1_555 1_555
H20 C22 1_555 1_555
O5 C21 1_555 1_555
H21 O5 1_555 1_555
O6 C22 1_555 1_555
H22 O6 1_555 1_555
C5 C6 1_555 1_555
C9 N1 1_555 1_555
C10 N2 1_555 1_555
C16 C17 1_555 1_555
C19 O3 1_555 1_555

#END
