
#######################################################################
#
#                 Cambridge Crystallographic Data Centre
#                                CCDC 
#
#######################################################################
#
# If this CIF has been generated from an entry in the Cambridge 
# Structural Database, then it will include bibliographic, chemical, 
# crystal, experimental, refinement or atomic coordinate data resulting 
# from the CCDC's data processing and validation procedures.
#
#######################################################################

data_EDAGEY
_chemical_formula_moiety         'C23 H22 N2 O2 S1'
_chemical_name_systematic        
5-benzyl-1-[(4-methylphenyl)sulfonyl]-3-phenyl-4,5-dihydro-1H-pyrazole
_symmetry_cell_setting           monoclinic
_symmetry_space_group_name_H-M   'C 2/c'
_symmetry_Int_Tables_number      15
_space_group_name_Hall           '-C 2yn'
loop_
_symmetry_equiv_pos_site_id
_symmetry_equiv_pos_as_xyz
1 x,y,z
2 -x,y,1/2-z
3 1/2+x,1/2+y,z
4 1/2-x,1/2+y,1/2-z
5 -x,-y,-z
6 x,-y,1/2+z
7 1/2-x,1/2-y,-z
8 1/2+x,1/2-y,1/2+z
_cell_length_a                   25.609(7)
_cell_length_b                   10.536(3)
_cell_length_c                   19.793(5)
_cell_angle_alpha                90
_cell_angle_beta                 130.31
_cell_angle_gamma                90
_cell_volume                     4072.41
_exptl_crystal_colour            colorless
_exptl_crystal_description       block
_cell_formula_units_Z            8
loop_
_atom_site_label
_atom_site_type_symbol
_atom_site_fract_x
_atom_site_fract_y
_atom_site_fract_z
C1 C 0.27010(8) 1.01669(16) 0.44694(10)
C2 C 0.29304(9) 0.96363(17) 0.52605(12)
H1 H 0.282260 0.880085 0.527836
C3 C 0.33197(10) 1.03594(19) 0.60198(12)
H2 H 0.346955 1.000798 0.655005
C4 C 0.34930(9) 1.16032(17) 0.60092(11)
C5 C 0.32652(9) 1.21053(17) 0.52107(12)
H3 H 0.338004 1.293547 0.519430
C6 C 0.28723(9) 1.14005(16) 0.44407(11)
H4 H 0.272472 1.174840 0.391061
C7 C 0.39225(12) 1.2374(2) 0.68450(14)
H5 H 0.439558 1.214806 0.718645
H6 H 0.378301 1.220645 0.718466
H7 H 0.386377 1.325967 0.669853
C8 C 0.32691(8) 0.77253(15) 0.40471(10)
H8 H 0.343721 0.798764 0.463294
C9 C 0.38267(9) 0.79512(17) 0.39910(13)
H9 H 0.427855 0.790721 0.457134
H10 H 0.379810 0.734116 0.360113
C10 C 0.36686(8) 0.92671(15) 0.36173(10)
C11 C 0.30224(9) 0.63579(16) 0.38795(11)
H11 H 0.264289 0.629338 0.387614
H12 H 0.286554 0.607964 0.330743
C12 C 0.36040(9) 0.55361(16) 0.45992(12)
C13 C 0.39138(12) 0.4693(2) 0.44170(15)
H13 H 0.373252 0.458233 0.383479
C14 C 0.44827(14) 0.4022(3) 0.50807(19)
H14 H 0.468370 0.345374 0.494891
C15 C 0.47525(16) 0.4188(3) 0.59329(19)
H15 H 0.514966 0.375704 0.638597
C16 C 0.44475(14) 0.4980(3) 0.61309(17)
H16 H 0.462962 0.506864 0.671495
C17 C 0.38662(12) 0.56552(19) 0.54634(13)
H17 H 0.365372 0.618562 0.559720
C18 C 0.41294(8) 1.00488(16) 0.35963(10)
C19 C 0.47590(10) 0.95597(19) 0.39151(14)
H18 H 0.488771 0.874654 0.415430
C20 C 0.51923(11) 1.0272(2) 0.38786(17)
H19 H 0.560914 0.993355 0.408913
C21 C 0.50141(11) 1.1468(2) 0.35365(15)
H20 H 0.530382 1.193639 0.350156
C22 C 0.44056(12) 1.1982(2) 0.32431(16)
H21 H 0.429181 1.280920 0.302864
C23 C 0.39616(10) 1.12766(19) 0.32647(13)
H22 H 0.354743 1.162754 0.305547
N1 N 0.27406(7) 0.86540(13) 0.33682(9)
N2 N 0.30656(7) 0.96414(13) 0.32704(8)
O1 O 0.19596(7) 0.81727(13) 0.36580(9)
O2 O 0.17475(6) 1.00524(15) 0.27650(8)
S1 S 0.22088(2) 0.92452(4) 0.35027(3)
loop_
_geom_bond_atom_site_label_1
_geom_bond_atom_site_label_2
_geom_bond_site_symmetry_1
_geom_bond_site_symmetry_2
C1 C2 1_555 1_555
C2 H1 1_555 1_555
C3 C2 1_555 1_555
H2 C3 1_555 1_555
C4 C3 1_555 1_555
C5 C4 1_555 1_555
H3 C5 1_555 1_555
C6 C1 1_555 1_555
H4 C6 1_555 1_555
C7 C4 1_555 1_555
H5 C7 1_555 1_555
H6 C7 1_555 1_555
H7 C7 1_555 1_555
C8 H8 1_555 1_555
C9 C8 1_555 1_555
H9 C9 1_555 1_555
H10 C9 1_555 1_555
C10 C9 1_555 1_555
C11 C8 1_555 1_555
H11 C11 1_555 1_555
H12 C11 1_555 1_555
C12 C11 1_555 1_555
C13 C12 1_555 1_555
H13 C13 1_555 1_555
C14 C13 1_555 1_555
H14 C14 1_555 1_555
C15 C14 1_555 1_555
H15 C15 1_555 1_555
C16 C15 1_555 1_555
H16 C16 1_555 1_555
C17 C12 1_555 1_555
H17 C17 1_555 1_555
C18 C10 1_555 1_555
C19 C18 1_555 1_555
H18 C19 1_555 1_555
C20 C19 1_555 1_555
H19 C20 1_555 1_555
C21 C20 1_555 1_555
H20 C21 1_555 1_555
C22 C21 1_555 1_555
H21 C22 1_555 1_555
C23 C18 1_555 1_555
H22 C23 1_555 1_555
N1 C8 1_555 1_555
N2 C10 1_555 1_555
O1 S1 1_555 1_555
O2 S1 1_555 1_555
S1 C1 1_555 1_555
C5 C6 1_555 1_555
C16 C17 1_555 1_555
C22 C23 1_555 1_555
N1 N2 1_555 1_555
N1 S1 1_555 1_555

#END
