
#######################################################################
#
#                 Cambridge Crystallographic Data Centre
#                                CCDC 
#
#######################################################################
#
# If this CIF has been generated from an entry in the Cambridge 
# Structural Database, then it will include bibliographic, chemical, 
# crystal, experimental, refinement or atomic coordinate data resulting 
# from the CCDC's data processing and validation procedures.
#
#######################################################################

data_EDAHEZ
_chemical_formula_moiety         'C15 H18 F1 N1 O1'
_chemical_name_systematic        
6-(2-fluoropropan-2-yl)-2-phenyl-4,5,6,6a-tetrahydro-3aH-cyclopenta[d][1,3]oxazole
_symmetry_cell_setting           monoclinic
_symmetry_space_group_name_H-M   'P 21/n'
_symmetry_Int_Tables_number      14
_space_group_name_Hall           '-P 2yn'
loop_
_symmetry_equiv_pos_site_id
_symmetry_equiv_pos_as_xyz
1 x,y,z
2 1/2-x,1/2+y,1/2-z
3 -x,-y,-z
4 1/2+x,1/2-y,1/2+z
_cell_length_a                   14.352(5)
_cell_length_b                   8.032(3)
_cell_length_c                   22.473(8)
_cell_angle_alpha                90
_cell_angle_beta                 95.996(8)
_cell_angle_gamma                90
_cell_volume                     2576.41
_exptl_crystal_colour            colorless
_exptl_crystal_description       Prism
_cell_formula_units_Z            8
loop_
_atom_site_label
_atom_site_type_symbol
_atom_site_fract_x
_atom_site_fract_y
_atom_site_fract_z
F1 F 0.15093(6) 0.39342(11) 0.05148(3)
O1 O 0.12868(6) 0.61481(12) 0.23370(4)
N1 N 0.27075(7) 0.61452(14) 0.28894(5)
C1 C 0.18266(9) 0.59183(16) 0.28678(5)
C2 C 0.13215(9) 0.53612(16) 0.33717(6)
C3 C 0.04125(9) 0.47405(18) 0.32698(6)
H1 H 0.0100 0.4744 0.2876
C4 C -0.00410(10) 0.41163(19) 0.37391(6)
H2 H -0.0659 0.3686 0.3667
C5 C 0.04164(10) 0.41272(19) 0.43151(6)
H3 H 0.0116 0.3684 0.4637
C6 C 0.13141(10) 0.47858(19) 0.44206(6)
H4 H 0.1617 0.4818 0.4817
C7 C 0.17706(9) 0.53957(18) 0.39526(6)
H5 H 0.2386 0.5835 0.4027
C8 C 0.19413(9) 0.65725(17) 0.19054(5)
H6 H 0.1783 0.7675 0.1714
C9 C 0.29036(9) 0.66315(17) 0.22836(6)
H7 H 0.3168 0.7784 0.2287
C10 C 0.35398(9) 0.54159(17) 0.19847(6)
H8 H 0.4181 0.5871 0.1986
H9 H 0.3574 0.4326 0.2192
C11 C 0.30665(9) 0.52465(18) 0.13458(6)
H10 H 0.3259 0.4205 0.1157
H11 H 0.3218 0.6205 0.1096
C12 C 0.20178(8) 0.52143(16) 0.14315(6)
H12 H 0.1890 0.4125 0.1623
C13 C 0.13346(9) 0.53615(17) 0.08675(6)
C14 C 0.03229(9) 0.5229(2) 0.10024(6)
H13 H -0.0090 0.5232 0.0627
H14 H 0.0170 0.6178 0.1249
H15 H 0.0236 0.4191 0.1219
C15 C 0.14874(10) 0.68587(19) 0.04819(6)
H16 H 0.2134 0.6859 0.0379
H17 H 0.1372 0.7879 0.0702
H18 H 0.1055 0.6809 0.0115
F2 F 0.66277(6) 0.23016(11) 0.06373(4)
O2 O 0.63021(6) 0.30469(12) 0.23497(4)
N2 N 0.77028(7) 0.31175(14) 0.29235(5)
C16 C 0.68197(9) 0.33352(16) 0.28849(5)
C17 C 0.62824(9) 0.39580(16) 0.33643(6)
C18 C 0.53567(9) 0.44798(17) 0.32312(6)
H19 H 0.5053 0.4338 0.2838
C19 C 0.48759(9) 0.52049(18) 0.36701(6)
H20 H 0.4251 0.5585 0.3575
C20 C 0.53130(10) 0.53696(18) 0.42468(6)
H21 H 0.4989 0.5869 0.4548
C21 C 0.62225(10) 0.4806(2) 0.43837(6)
H22 H 0.6513 0.4895 0.4782
C22 C 0.67128(9) 0.41133(18) 0.39461(6)
H23 H 0.7340 0.3746 0.4042
C23 C 0.69785(9) 0.26546(16) 0.19298(5)
H24 H 0.6835 0.1559 0.1730
C24 C 0.79267(9) 0.25991(17) 0.23255(6)
H25 H 0.8191 0.1446 0.2339
C25 C 0.85765(9) 0.38098(17) 0.20338(6)
H26 H 0.8627 0.4882 0.2252
H27 H 0.9211 0.3329 0.2030
C26 C 0.81116(9) 0.40526(18) 0.13972(6)
H28 H 0.8278 0.3137 0.1133
H29 H 0.8300 0.5126 0.1229
C27 C 0.70587(8) 0.40376(16) 0.14690(6)
H30 H 0.6905 0.5114 0.1660
C28 C 0.64070(9) 0.38600(18) 0.08943(6)
C29 C 0.53830(9) 0.3766(2) 0.10045(7)
H31 H 0.5001 0.3518 0.0628
H32 H 0.5188 0.4835 0.1161
H33 H 0.5299 0.2884 0.1296
C30 C 0.65725(10) 0.5182(2) 0.04367(6)
H34 H 0.7232 0.5167 0.0360
H35 H 0.6417 0.6279 0.0590
H36 H 0.6176 0.4957 0.0064
loop_
_geom_bond_atom_site_label_1
_geom_bond_atom_site_label_2
_geom_bond_site_symmetry_1
_geom_bond_site_symmetry_2
F1 C13 1_555 1_555
O1 C1 1_555 1_555
N1 C1 1_555 1_555
C1 C2 1_555 1_555
C2 C3 1_555 1_555
C3 H1 1_555 1_555
C4 C3 1_555 1_555
H2 C4 1_555 1_555
C5 C4 1_555 1_555
H3 C5 1_555 1_555
C6 C5 1_555 1_555
H4 C6 1_555 1_555
C7 C2 1_555 1_555
H5 C7 1_555 1_555
C8 O1 1_555 1_555
H6 C8 1_555 1_555
C9 N1 1_555 1_555
H7 C9 1_555 1_555
C10 C9 1_555 1_555
H8 C10 1_555 1_555
H9 C10 1_555 1_555
C11 C10 1_555 1_555
H10 C11 1_555 1_555
H11 C11 1_555 1_555
C12 C8 1_555 1_555
H12 C12 1_555 1_555
C13 C12 1_555 1_555
C14 C13 1_555 1_555
H13 C14 1_555 1_555
H14 C14 1_555 1_555
H15 C14 1_555 1_555
C15 C13 1_555 1_555
H16 C15 1_555 1_555
H17 C15 1_555 1_555
H18 C15 1_555 1_555
F2 C28 1_555 1_555
O2 C16 1_555 1_555
N2 C16 1_555 1_555
C16 C17 1_555 1_555
C17 C18 1_555 1_555
C18 H19 1_555 1_555
C19 C18 1_555 1_555
H20 C19 1_555 1_555
C20 C19 1_555 1_555
H21 C20 1_555 1_555
C21 C20 1_555 1_555
H22 C21 1_555 1_555
C22 C17 1_555 1_555
H23 C22 1_555 1_555
C23 O2 1_555 1_555
H24 C23 1_555 1_555
C24 N2 1_555 1_555
H25 C24 1_555 1_555
C25 C24 1_555 1_555
H26 C25 1_555 1_555
H27 C25 1_555 1_555
C26 C25 1_555 1_555
H28 C26 1_555 1_555
H29 C26 1_555 1_555
C27 C23 1_555 1_555
H30 C27 1_555 1_555
C28 C27 1_555 1_555
C29 C28 1_555 1_555
H31 C29 1_555 1_555
H32 C29 1_555 1_555
H33 C29 1_555 1_555
C30 C28 1_555 1_555
H34 C30 1_555 1_555
H35 C30 1_555 1_555
H36 C30 1_555 1_555
C6 C7 1_555 1_555
C8 C9 1_555 1_555
C11 C12 1_555 1_555
C21 C22 1_555 1_555
C23 C24 1_555 1_555
C26 C27 1_555 1_555

#END
