
#######################################################################
#
#                 Cambridge Crystallographic Data Centre
#                                CCDC 
#
#######################################################################
#
# If this CIF has been generated from an entry in the Cambridge 
# Structural Database, then it will include bibliographic, chemical, 
# crystal, experimental, refinement or atomic coordinate data resulting 
# from the CCDC's data processing and validation procedures.
#
#######################################################################

data_EDAJAX
_chemical_formula_moiety         'C22 H17 N1 O3 S1'
_chemical_name_systematic        
2'-(benzenecarbonyl)-2',3'-dihydrospiro[1,2-benzothiazole-3,1'-indene]-1,1(2H)-dione
_symmetry_cell_setting           monoclinic
_symmetry_space_group_name_H-M   'P 21/n'
_symmetry_Int_Tables_number      14
_space_group_name_Hall           '-P 2yn'
loop_
_symmetry_equiv_pos_site_id
_symmetry_equiv_pos_as_xyz
1 x,y,z
2 1/2-x,1/2+y,1/2-z
3 -x,-y,-z
4 1/2+x,1/2-y,1/2+z
_cell_length_a                   10.6461(11)
_cell_length_b                   7.0696(6)
_cell_length_c                   23.381(3)
_cell_angle_alpha                90
_cell_angle_beta                 95.897(9)
_cell_angle_gamma                90
_cell_volume                     1750.43
_exptl_crystal_colour            colorless
_exptl_crystal_description       block
_cell_formula_units_Z            4
loop_
_atom_site_label
_atom_site_type_symbol
_atom_site_fract_x
_atom_site_fract_y
_atom_site_fract_z
S1 S 0.90095(14) 0.91908(17) 0.58664(6)
O1 O 0.7213(3) 0.3209(4) 0.66513(14)
O2 O 0.8903(3) 1.0944(4) 0.55490(15)
O3 O 1.0239(3) 0.8688(5) 0.61256(15)
N1 N 0.7969(3) 0.9160(5) 0.63414(15)
H1 H 0.8020 0.9910 0.6633
C1 C 0.8321(4) 0.7298(6) 0.5472(2)
C2 C 0.7265(4) 0.6675(6) 0.57076(18)
C3 C 0.9025(5) 0.5003(6) 0.6959(2)
C4 C 0.6939(4) 0.7755(5) 0.6233(2)
C5 C 0.3521(5) 0.8261(7) 0.6342(2)
H2 H 0.2917 0.7612 0.6525
C6 C 0.5656(4) 0.8652(6) 0.6129(2)
C7 C 0.8736(5) 0.6508(6) 0.4981(2)
H3 H 0.9444 0.6965 0.4824
C8 C 0.6790(4) 0.6486(6) 0.67740(19)
H4 H 0.7043 0.7249 0.7117
C9 C 0.7658(5) 0.4757(7) 0.67929(19)
C10 C 0.4761(5) 0.7690(6) 0.6416(2)
C11 C 0.6988(5) 0.4351(6) 0.4963(2)
H5 H 0.6541 0.3339 0.4789
C12 C 0.5327(5) 1.0192(6) 0.5784(2)
H6 H 0.5935 1.0834 0.5601
C13 C 0.4077(5) 1.0768(6) 0.5716(2)
H7 H 0.3839 1.1803 0.5484
C14 C 0.8039(5) 0.5004(6) 0.4737(2)
H8 H 0.8293 0.4424 0.4411
C15 C 0.9515(5) 0.6248(6) 0.7372(2)
H9 H 0.8972 0.7054 0.7542
C16 C 0.6578(5) 0.5178(6) 0.5449(2)
H10 H 0.5856 0.4738 0.5599
C17 C 0.5380(4) 0.6092(6) 0.6763(2)
H11 H 0.5165 0.4883 0.6583
H12 H 0.5124 0.6086 0.7150
C18 C 0.9854(5) 0.3831(7) 0.6695(2)
H13 H 0.9548 0.2977 0.6411
C19 C 0.3168(5) 0.9796(7) 0.5995(2)
H14 H 0.2329 1.0182 0.5948
C20 C 1.0793(5) 0.6336(7) 0.7540(2)
H15 H 1.1103 0.7176 0.7827
C21 C 1.1605(5) 0.5177(7) 0.7283(3)
H16 H 1.2469 0.5220 0.7396
C22 C 1.1134(6) 0.3962(7) 0.6861(2)
H17 H 1.1688 0.3203 0.6681
loop_
_geom_bond_atom_site_label_1
_geom_bond_atom_site_label_2
_geom_bond_site_symmetry_1
_geom_bond_site_symmetry_2
S1 O2 1_555 1_555
O1 C9 1_555 1_555
O3 S1 1_555 1_555
N1 S1 1_555 1_555
H1 N1 1_555 1_555
C1 S1 1_555 1_555
C2 C1 1_555 1_555
C3 C9 1_555 1_555
C4 N1 1_555 1_555
C5 H2 1_555 1_555
C6 C4 1_555 1_555
C7 C1 1_555 1_555
H3 C7 1_555 1_555
C8 C4 1_555 1_555
H4 C8 1_555 1_555
C9 C8 1_555 1_555
C10 C5 1_555 1_555
C11 H5 1_555 1_555
C12 C6 1_555 1_555
H6 C12 1_555 1_555
C13 C12 1_555 1_555
H7 C13 1_555 1_555
C14 C7 1_555 1_555
H8 C14 1_555 1_555
C15 C3 1_555 1_555
H9 C15 1_555 1_555
C16 C2 1_555 1_555
H10 C16 1_555 1_555
C17 C8 1_555 1_555
H11 C17 1_555 1_555
H12 C17 1_555 1_555
C18 C3 1_555 1_555
H13 C18 1_555 1_555
C19 C5 1_555 1_555
H14 C19 1_555 1_555
C20 C15 1_555 1_555
H15 C20 1_555 1_555
C21 C20 1_555 1_555
H16 C21 1_555 1_555
C22 C18 1_555 1_555
H17 C22 1_555 1_555
C2 C4 1_555 1_555
C6 C10 1_555 1_555
C10 C17 1_555 1_555
C11 C14 1_555 1_555
C11 C16 1_555 1_555
C13 C19 1_555 1_555
C21 C22 1_555 1_555

#END
