
#######################################################################
#
#                 Cambridge Crystallographic Data Centre
#                                CCDC 
#
#######################################################################
#
# If this CIF has been generated from an entry in the Cambridge 
# Structural Database, then it will include bibliographic, chemical, 
# crystal, experimental, refinement or atomic coordinate data resulting 
# from the CCDC's data processing and validation procedures.
#
#######################################################################

data_EDAJUQ
_chemical_formula_moiety         'C37 H28 N4 O4'
_chemical_name_systematic        
"Dimethyl 4,4'-((4-(2,2':6',2''-terpyridin-4'-yl)phenyl)imino)dibenzoate"
_symmetry_cell_setting           triclinic
_symmetry_space_group_name_H-M   'P -1'
_symmetry_Int_Tables_number      2
_space_group_name_Hall           '-P 1'
loop_
_symmetry_equiv_pos_site_id
_symmetry_equiv_pos_as_xyz
1 x,y,z
2 -x,-y,-z
_cell_length_a                   8.145(5)
_cell_length_b                   19.587(5)
_cell_length_c                   19.968(5)
_cell_angle_alpha                105.366(5)
_cell_angle_beta                 94.884(5)
_cell_angle_gamma                93.516(5)
_cell_volume                     3048.9
_cell_formula_units_Z            4
loop_
_atom_site_label
_atom_site_type_symbol
_atom_site_fract_x
_atom_site_fract_y
_atom_site_fract_z
N1 N 0.2327(4) 0.5276(2) 0.8506(2)
O1 O 0.2881(4) 0.5020(2) 0.5283(2)
N3 N 0.3379(5) 0.1062(2) 0.8844(2)
C1 C 0.2969(5) 0.2466(2) 0.8794(2)
C3 C 0.2305(5) 0.5355(2) 0.7820(2)
O4 O 0.1113(4) 0.5866(2) 0.5473(2)
C4 C 0.3630(5) 0.3799(2) 0.9225(2)
H1 H 0.4327 0.3739 0.9596
N4 N 0.2656(5) 0.0788(2) 0.6984(2)
C6 C 0.2442(5) 0.4577(2) 0.8605(2)
C10 C 0.3478(6) 0.4476(2) 0.9149(2)
H3 H 0.4077 0.4865 0.9466
C14 C 0.2206(5) 0.5867(2) 0.9089(2)
C15 C 0.1511(5) 0.3999(2) 0.8147(2)
H5 H 0.0770 0.4065 0.7794
C17 C 0.2151(5) 0.5442(2) 0.6430(2)
C19 C 0.3123(5) 0.4965(2) 0.6655(2)
H7 H 0.3722 0.4668 0.6340
C21 C 0.1692(5) 0.3319(2) 0.8220(2)
H8 H 0.1091 0.2930 0.7903
C22 C 0.1981(6) 0.5480(2) 0.5690(2)
C24 C 0.2952(5) 0.1916(2) 0.8196(2)
H10 H 0.2791 0.2007 0.7762
C25 C 0.3171(6) 0.1229(2) 0.8229(2)
N7 N 0.3865(6) 0.1940(2) 1.0688(2)
C27 C 0.1434(5) 0.5780(2) 0.9657(2)
H11 H 0.0989 0.5331 0.9656
C28 C 0.1277(5) 0.5881(2) 0.6915(2)
H12 H 0.0646 0.6211 0.6779
C29 C 0.3209(5) 0.4928(2) 0.7335(2)
H13 H 0.3881 0.4612 0.7474
C32 C 0.1319(6) 0.6353(2) 1.0225(2)
H16 H 0.0816 0.6285 1.0607
C33 C 0.1772(6) 0.7634(3) 1.0844(3)
C34 C 0.3399(6) 0.1599(2) 0.9433(2)
C36 C 0.3133(6) 0.0634(2) 0.7583(2)
C37 C 0.2764(5) 0.3212(2) 0.8760(2)
C38 C 0.1947(5) 0.7028(2) 1.0230(2)
C39 C 0.1334(5) 0.5834(2) 0.7592(2)
H17 H 0.0718 0.6125 0.7905
C42 C 0.2897(5) 0.6541(2) 0.9103(2)
H19 H 0.3456 0.6605 0.8734
C45 C 0.2745(5) 0.7115(2) 0.9669(2)
H22 H 0.3187 0.7565 0.9672
C46 C 0.3209(5) 0.2297(2) 0.9426(2)
H23 H 0.3242 0.2651 0.9844
O6 O 0.2064(5) 0.8260(2) 1.0713(2)
O7 O 0.1388(5) 0.7577(2) 1.1394(2)
C56 C 0.3622(6) 0.1401(2) 1.0108(2)
C58 C 0.2598(6) 0.0265(3) 0.6395(2)
H34 H 0.2226 0.0361 0.5978
C60 C 0.3589(7) -0.0030(2) 0.7600(3)
H36 H 0.3907 -0.0123 0.8024
C62 C 0.4092(8) 0.1773(3) 1.1294(3)
H38 H 0.4289 0.2144 1.1700
C63 C 0.2755(6) 0.5000(3) 0.4545(2)
H39 H 0.1622 0.4889 0.4350
H40 H 0.3413 0.4642 0.4303
H41 H 0.3148 0.5455 0.4497
C65 C 0.3057(7) -0.0409(3) 0.6364(3)
H45 H 0.3022 -0.0754 0.5939
C67 C 0.3596(8) 0.0711(3) 1.0126(3)
H47 H 0.3433 0.0345 0.9715
C68 C 0.3563(8) -0.0553(3) 0.6979(3)
H48 H 0.3888 -0.1000 0.6979
C69 C 0.4056(8) 0.1105(3) 1.1359(3)
H49 H 0.4193 0.1018 1.1795
C71 C 0.3815(10) 0.0563(3) 1.0764(3)
H51 H 0.3797 0.0095 1.0786
C73 C 0.1867(10) 0.8884(3) 1.1286(3)
H53 H 0.0798 0.8836 1.1446
H54 H 0.1963 0.9303 1.1124
H55 H 0.2711 0.8922 1.1663
O2 O 0.7715(4) 0.5691(2) 0.8350(2)
N2 N 0.6681(4) 0.2596(2) 0.6229(2)
O3 O 0.4064(4) 0.3413(2) 0.3468(2)
C2 C 0.6290(5) 0.2667(2) 0.5541(2)
N5 N 0.9120(4) -0.1539(2) 0.6412(2)
C5 C 0.6999(5) 0.1906(2) 0.6307(2)
C7 C 0.8559(5) -0.1977(2) 0.5148(2)
C8 C 0.9191(6) -0.1008(2) 0.7009(2)
C9 C 0.9068(5) -0.2639(2) 0.5149(2)
H2 H 0.9386 -0.2742 0.5568
C11 C 0.7722(5) 0.4470(2) 0.7281(2)
H4 H 0.8116 0.4900 0.7215
C12 C 0.6912(5) 0.3209(2) 0.6807(2)
C13 C 0.5477(5) 0.2829(2) 0.4198(2)
N6 N 0.8070(5) -0.1807(2) 0.4557(2)
C16 C 0.8570(5) -0.1395(2) 0.5815(2)
C18 C 0.7573(5) 0.3857(2) 0.6730(2)
H6 H 0.7918 0.3877 0.6302
C20 C 0.7716(5) 0.0542(2) 0.6393(2)
C23 C 0.8730(6) -0.0334(2) 0.7022(2)
H9 H 0.8797 0.0017 0.7444
C26 C 0.8167(5) -0.0185(2) 0.6403(2)
C30 C 0.5161(5) 0.3145(2) 0.5430(2)
H14 H 0.4663 0.3410 0.5804
C31 C 0.7012(5) 0.2277(2) 0.4970(2)
H15 H 0.7776 0.1960 0.5033
C35 C 0.7284(5) 0.4441(2) 0.7932(2)
C40 C 0.7403(6) 0.5087(2) 0.8539(3)
C41 C 0.8603(6) 0.1148(2) 0.6828(2)
H18 H 0.9445 0.1103 0.7154
C43 C 0.6602(6) 0.2357(2) 0.4309(2)
H20 H 0.7091 0.2090 0.3933
C44 C 0.6707(5) 0.3796(2) 0.8021(2)
H21 H 0.6459 0.3770 0.8460
C47 C 0.9842(6) -0.1176(3) 0.7665(2)
C48 C 0.6490(6) 0.3183(2) 0.7464(2)
H24 H 0.6064 0.2756 0.7530
O5 O 0.7248(5) 0.5074(2) 0.9123(2)
C49 C 0.8252(6) 0.1823(2) 0.6783(2)
H25 H 0.8869 0.2221 0.7077
C50 C 0.6433(6) 0.0627(2) 0.5919(2)
H26 H 0.5829 0.0228 0.5620
C51 C 0.5064(6) 0.2893(3) 0.3484(3)
C52 C 0.8074(5) -0.0728(2) 0.5793(2)
H27 H 0.7684 -0.0651 0.5369
C53 C 0.9096(6) -0.3145(2) 0.4516(3)
H28 H 0.9430 -0.3594 0.4504
C54 C 0.4774(5) 0.3228(2) 0.4769(2)
H29 H 0.4036 0.3555 0.4707
O8 O 0.5547(5) 0.2530(2) 0.2965(2)
C55 C 0.6043(6) 0.1305(2) 0.5889(2)
H30 H 0.5146 0.1355 0.5590
N8 N 0.9797(6) -0.0673(2) 0.8261(2)
C57 C 0.7748(7) 0.6349(2) 0.8910(2)
H31 H 0.8449 0.6315 0.9309
H32 H 0.6648 0.6422 0.9035
H33 H 0.8169 0.6741 0.8752
C59 C 0.8109(7) -0.2310(3) 0.3950(3)
H35 H 0.7768 -0.2201 0.3536
C61 C 0.8624(6) -0.2975(3) 0.3908(3)
H37 H 0.8652 -0.3302 0.3477
C64 C 0.3553(8) 0.3507(3) 0.2788(2)
H42 H 0.4511 0.3562 0.2553
H43 H 0.2956 0.3922 0.2844
H44 H 0.2852 0.3098 0.2518
C66 C 1.0489(7) -0.1821(3) 0.7655(3)
H46 H 1.0510 -0.2169 0.7237
C70 C 1.0396(9) -0.0808(3) 0.8856(3)
H50 H 1.0380 -0.0456 0.9273
C72 C 1.1097(9) -0.1933(3) 0.8281(3)
H52 H 1.1555 -0.2355 0.8287
C74 C 1.1025(9) -0.1426(4) 0.8886(3)
H56 H 1.1398 -0.1500 0.9313
loop_
_geom_bond_atom_site_label_1
_geom_bond_atom_site_label_2
_geom_bond_site_symmetry_1
_geom_bond_site_symmetry_2
N1 C3 1_555 1_555
O1 C22 1_555 1_555
O2 C40 1_555 1_555
N2 C2 1_555 1_555
N3 C25 1_555 1_555
C1 C24 1_555 1_555
O3 C51 1_555 1_555
C2 C30 1_555 1_555
C3 C29 1_555 1_555
O4 C22 1_555 1_555
C4 H1 1_555 1_555
N4 C36 1_555 1_555
N5 C8 1_555 1_555
C5 N2 1_555 1_555
C6 N1 1_555 1_555
C7 C9 1_555 1_555
C8 C23 1_555 1_555
C9 H2 1_555 1_555
C10 C4 1_555 1_555
H3 C10 1_555 1_555
C11 H4 1_555 1_555
C12 N2 1_555 1_555
C13 C43 1_555 1_555
N6 C7 1_555 1_555
C14 N1 1_555 1_555
C15 C6 1_555 1_555
H5 C15 1_555 1_555
C16 N5 1_555 1_555
C17 C19 1_555 1_555
C18 C11 1_555 1_555
H6 C18 1_555 1_555
C19 H7 1_555 1_555
C20 C26 1_555 1_555
C21 C15 1_555 1_555
H8 C21 1_555 1_555
C22 C17 1_555 1_555
C23 H9 1_555 1_555
C24 H10 1_555 1_555
C25 C24 1_555 1_555
N7 C56 1_555 1_555
C26 C23 1_555 1_555
C27 C14 1_555 1_555
H11 C27 1_555 1_555
C28 C17 1_555 1_555
H12 C28 1_555 1_555
C29 C19 1_555 1_555
H13 C29 1_555 1_555
C30 H14 1_555 1_555
C31 C2 1_555 1_555
H15 C31 1_555 1_555
C32 C27 1_555 1_555
H16 C32 1_555 1_555
C33 C38 1_555 1_555
C34 N3 1_555 1_555
C35 C11 1_555 1_555
C36 C25 1_555 1_555
C37 C1 1_555 1_555
C38 C32 1_555 1_555
C39 C3 1_555 1_555
H17 C39 1_555 1_555
C40 C35 1_555 1_555
C41 C20 1_555 1_555
H18 C41 1_555 1_555
C42 C14 1_555 1_555
H19 C42 1_555 1_555
C43 C31 1_555 1_555
H20 C43 1_555 1_555
C44 C35 1_555 1_555
H21 C44 1_555 1_555
C45 C38 1_555 1_555
H22 C45 1_555 1_555
C46 C1 1_555 1_555
H23 C46 1_555 1_555
C47 C8 1_555 1_555
C48 C12 1_555 1_555
H24 C48 1_555 1_555
O5 C40 1_555 1_555
C49 C5 1_555 1_555
H25 C49 1_555 1_555
C50 C20 1_555 1_555
H26 C50 1_555 1_555
O6 C33 1_555 1_555
C51 C13 1_555 1_555
C52 C16 1_555 1_555
H27 C52 1_555 1_555
O7 C33 1_555 1_555
C53 C9 1_555 1_555
H28 C53 1_555 1_555
C54 C13 1_555 1_555
H29 C54 1_555 1_555
O8 C51 1_555 1_555
C55 C5 1_555 1_555
H30 C55 1_555 1_555
N8 C47 1_555 1_555
C56 C34 1_555 1_555
C57 O2 1_555 1_555
H31 C57 1_555 1_555
H32 C57 1_555 1_555
H33 C57 1_555 1_555
C58 N4 1_555 1_555
H34 C58 1_555 1_555
C59 N6 1_555 1_555
H35 C59 1_555 1_555
C60 C36 1_555 1_555
H36 C60 1_555 1_555
C61 C53 1_555 1_555
H37 C61 1_555 1_555
C62 N7 1_555 1_555
H38 C62 1_555 1_555
C63 O1 1_555 1_555
H39 C63 1_555 1_555
H40 C63 1_555 1_555
H41 C63 1_555 1_555
C64 O3 1_555 1_555
H42 C64 1_555 1_555
H43 C64 1_555 1_555
H44 C64 1_555 1_555
C65 C58 1_555 1_555
H45 C65 1_555 1_555
C66 C47 1_555 1_555
H46 C66 1_555 1_555
C67 C56 1_555 1_555
H47 C67 1_555 1_555
C68 C60 1_555 1_555
H48 C68 1_555 1_555
C69 C62 1_555 1_555
H49 C69 1_555 1_555
C70 N8 1_555 1_555
H50 C70 1_555 1_555
C71 C67 1_555 1_555
H51 C71 1_555 1_555
C72 C66 1_555 1_555
H52 C72 1_555 1_555
C73 O6 1_555 1_555
H53 C73 1_555 1_555
H54 C73 1_555 1_555
H55 C73 1_555 1_555
C74 C70 1_555 1_555
H56 C74 1_555 1_555
C4 C37 1_555 1_555
C6 C10 1_555 1_555
C7 C16 1_555 1_555
C12 C18 1_555 1_555
C21 C37 1_555 1_555
C26 C52 1_555 1_555
C28 C39 1_555 1_555
C30 C54 1_555 1_555
C34 C46 1_555 1_555
C41 C49 1_555 1_555
C42 C45 1_555 1_555
C44 C48 1_555 1_555
C50 C55 1_555 1_555
C59 C61 1_555 1_555
C65 C68 1_555 1_555
C69 C71 1_555 1_555
C72 C74 1_555 1_555

#END
