
#######################################################################
#
#                 Cambridge Crystallographic Data Centre
#                                CCDC 
#
#######################################################################
#
# If this CIF has been generated from an entry in the Cambridge 
# Structural Database, then it will include bibliographic, chemical, 
# crystal, experimental, refinement or atomic coordinate data resulting 
# from the CCDC's data processing and validation procedures.
#
#######################################################################

data_EDAJUR
_chemical_formula_moiety         'C25 H24 N2 O5 S2'
_chemical_name_systematic        
'(4R,5S)-ethyl 1-[(4-methylphenyl)sulfonyl]-7-oxo-5-phenyl-3-(thiophen-2-yl)-4,5,6,7-tetrahydro-1H-1,2-diazepine-4-carboxylate'
_symmetry_cell_setting           orthorhombic
_symmetry_space_group_name_H-M   'P 21 21 21'
_symmetry_Int_Tables_number      19
_space_group_name_Hall           'P 2ac 2ab'
loop_
_symmetry_equiv_pos_site_id
_symmetry_equiv_pos_as_xyz
1 x,y,z
2 1/2-x,-y,1/2+z
3 1/2+x,1/2-y,-z
4 -x,1/2+y,1/2-z
_cell_length_a                   7.8958(4)
_cell_length_b                   16.9193(6)
_cell_length_c                   18.2874(8)
_cell_angle_alpha                90
_cell_angle_beta                 90
_cell_angle_gamma                90
_cell_volume                     2443.04
_exptl_crystal_colour            colorless
_exptl_crystal_description       block
_cell_formula_units_Z            4
loop_
_atom_site_label
_atom_site_type_symbol
_atom_site_fract_x
_atom_site_fract_y
_atom_site_fract_z
S1 S 0.06479(19) -0.16760(10) 0.23472(11)
S2 S 0.35190(15) 0.07860(5) 0.12287(5)
O1 O 0.5215(4) 0.00464(15) -0.00187(15)
O2 O 0.7757(4) -0.04292(16) 0.14926(16)
O3 O 0.6202(4) -0.04340(15) 0.25157(14)
O4 O 0.2790(5) 0.08052(17) 0.19379(14)
O5 O 0.5037(4) 0.12157(15) 0.10869(17)
N1 N 0.3980(5) -0.01842(16) 0.10841(16)
N2 N 0.2950(4) -0.07082(17) 0.15030(17)
C1 C 0.4759(5) -0.0433(2) 0.0424(2)
C2 C 0.4891(6) -0.1310(2) 0.0328(2)
H1 H 0.5322 -0.1418 -0.0159
H2 H 0.3764 -0.1536 0.0359
C3 C 0.6033(5) -0.1723(2) 0.08879(19)
H3 H 0.7194 -0.1553 0.0782
C4 C 0.5627(5) -0.1438(2) 0.16718(19)
H4 H 0.5964 -0.1861 0.2008
C5 C 0.3754(5) -0.12930(19) 0.17824(18)
C6 C 0.6014(5) -0.2620(2) 0.0815(2)
C7 C 0.5061(6) -0.3016(2) 0.0305(2)
H5 H 0.4335 -0.2735 0.0000
C8 C 0.5172(7) -0.3837(2) 0.0238(3)
H6 H 0.4545 -0.4094 -0.0120
C9 C 0.6181(7) -0.4264(2) 0.0690(2)
H7 H 0.6228 -0.4811 0.0647
C10 C 0.7123(6) -0.3887(2) 0.1205(2)
H8 H 0.7815 -0.4175 0.1519
C11 C 0.7044(6) -0.3073(2) 0.1261(2)
H9 H 0.7707 -0.2821 0.1611
C12 C 0.6666(5) -0.0706(2) 0.1867(2)
C13 C 0.6883(8) 0.0323(3) 0.2747(3)
H10 H 0.7149 0.0632 0.2315
H11 H 0.6013 0.0604 0.3016
C14 C 0.8341(10) 0.0276(4) 0.3186(4)
H12 H 0.9233 0.0023 0.2917
H13 H 0.8094 -0.0026 0.3618
H14 H 0.8691 0.0799 0.3324
C15 C 0.2755(5) -0.1842(2) 0.2216(2)
C16 C 0.3279(5) -0.25148(19) 0.2592(2)
C17 C 0.1912(6) -0.2849(2) 0.2986(2)
H15 H 0.2023 -0.3290 0.3284
C18 C 0.0460(7) -0.2470(3) 0.2887(3)
H16 H -0.0558 -0.2630 0.3097
C19 C 0.1964(5) 0.10266(19) 0.0588(2)
C20 C 0.2384(6) 0.1445(2) -0.0034(2)
H17 H 0.3503 0.1583 -0.0129
C21 C 0.1116(7) 0.1653(3) -0.0507(2)
H18 H 0.1391 0.1936 -0.0926
C22 C -0.0550(7) 0.1456(2) -0.0385(3)
C23 C -0.0927(6) 0.1025(2) 0.0237(3)
H19 H -0.2042 0.0879 0.0328
C24 C 0.0316(6) 0.0811(2) 0.0722(2)
H20 H 0.0045 0.0522 0.1138
C25 C -0.1922(8) 0.1700(3) -0.0904(3)
H21 H -0.2013 0.2266 -0.0908
H22 H -0.2979 0.1474 -0.0751
H23 H -0.1652 0.1516 -0.1387
H24? H 0.4183 -0.2377 0.2928
H25? H 0.3717 -0.2900 0.2247
loop_
_geom_bond_atom_site_label_1
_geom_bond_atom_site_label_2
_geom_bond_site_symmetry_1
_geom_bond_site_symmetry_2
S1 C15 1_555 1_555
S2 O4 1_555 1_555
O1 C1 1_555 1_555
O2 C12 1_555 1_555
O3 C12 1_555 1_555
O5 S2 1_555 1_555
N1 S2 1_555 1_555
N2 N1 1_555 1_555
C1 N1 1_555 1_555
C2 C1 1_555 1_555
H1 C2 1_555 1_555
H2 C2 1_555 1_555
C3 C2 1_555 1_555
H3 C3 1_555 1_555
C4 C3 1_555 1_555
H4 C4 1_555 1_555
C5 N2 1_555 1_555
C6 C3 1_555 1_555
C7 C6 1_555 1_555
H5 C7 1_555 1_555
C8 C7 1_555 1_555
H6 C8 1_555 1_555
C9 C8 1_555 1_555
H7 C9 1_555 1_555
C10 C9 1_555 1_555
H8 C10 1_555 1_555
C11 C6 1_555 1_555
H9 C11 1_555 1_555
C12 C4 1_555 1_555
C13 O3 1_555 1_555
H10 C13 1_555 1_555
H11 C13 1_555 1_555
C14 C13 1_555 1_555
H12 C14 1_555 1_555
H13 C14 1_555 1_555
H14 C14 1_555 1_555
C15 C5 1_555 1_555
C16 C15 1_555 1_555
C17 C16 1_555 1_555
H15 C17 1_555 1_555
C18 S1 1_555 1_555
H16 C18 1_555 1_555
C19 S2 1_555 1_555
C20 C19 1_555 1_555
H17 C20 1_555 1_555
C21 C20 1_555 1_555
H18 C21 1_555 1_555
C22 C21 1_555 1_555
C23 C22 1_555 1_555
H19 C23 1_555 1_555
C24 C19 1_555 1_555
H20 C24 1_555 1_555
C25 C22 1_555 1_555
H21 C25 1_555 1_555
H22 C25 1_555 1_555
H23 C25 1_555 1_555
C4 C5 1_555 1_555
C10 C11 1_555 1_555
C17 C18 1_555 1_555
C23 C24 1_555 1_555

#END
