
#######################################################################
#
#                 Cambridge Crystallographic Data Centre
#                                CCDC 
#
#######################################################################
#
# If this CIF has been generated from an entry in the Cambridge 
# Structural Database, then it will include bibliographic, chemical, 
# crystal, experimental, refinement or atomic coordinate data resulting 
# from the CCDC's data processing and validation procedures.
#
#######################################################################

data_EDAKAX
_chemical_formula_moiety         'C33 H24 N4'
_chemical_name_systematic        
N,N-Diphenyl-4-(2,2':6',2''-terpyridin-4'-yl)aniline
_symmetry_cell_setting           triclinic
_symmetry_space_group_name_H-M   'P -1'
_symmetry_Int_Tables_number      2
_space_group_name_Hall           '-P 1'
loop_
_symmetry_equiv_pos_site_id
_symmetry_equiv_pos_as_xyz
1 x,y,z
2 -x,-y,-z
_cell_length_a                   9.298(5)
_cell_length_b                   11.366(5)
_cell_length_c                   12.783(5)
_cell_angle_alpha                107.334(5)
_cell_angle_beta                 98.911(5)
_cell_angle_gamma                98.521(5)
_cell_volume                     1246.66
_cell_formula_units_Z            2
loop_
_atom_site_label
_atom_site_type_symbol
_atom_site_fract_x
_atom_site_fract_y
_atom_site_fract_z
N1 N 1.07203(14) 0.11926(12) 0.70103(11)
C1 C 0.92825(18) 0.10895(15) 0.65659(13)
N2 N 0.63578(16) 0.73961(13) 0.80299(14)
N3 N 0.70007(16) -0.02658(13) 0.54200(13)
C2 C 1.31148(18) 0.24423(14) 0.80695(13)
C3 C 0.93884(18) 0.33081(15) 0.74079(14)
C4 C 0.86526(18) 0.44025(15) 0.75716(14)
C5 C 0.84235(18) -0.01927(15) 0.58680(13)
N4 N 1.39058(16) 0.35912(14) 0.86694(15)
C6 C 0.7533(2) 0.44348(16) 0.67288(15)
H1 H 0.7276 0.3775 0.6052
C7 C 0.71350(19) 0.64079(15) 0.78749(15)
C8 C 0.70627(19) 0.86405(15) 0.87535(15)
C9 C 0.85972(18) 0.21134(15) 0.67397(14)
H2 H 0.7601 0.2001 0.6407
C10 C 0.48552(19) 0.71908(16) 0.74601(15)
C11 C 1.14975(17) 0.23429(14) 0.76540(13)
C12 C 0.82675(19) 0.64020(16) 0.87193(15)
H3 H 0.8523 0.7063 0.9396
C13 C 1.08690(18) 0.34037(15) 0.78866(14)
H4 H 1.1437 0.4177 0.8362
C14 C 0.90172(19) 0.54215(15) 0.85629(15)
H5 H 0.9784 0.5443 0.9134
C15 C 1.6098(2) 0.27403(17) 0.87720(17)
H6 H 1.7121 0.2872 0.9023
C16 C 1.3777(2) 0.14177(17) 0.78047(17)
H7 H 1.3206 0.0624 0.7386
C17 C 0.9050(2) -0.12416(16) 0.57014(15)
H8 H 1.0046 -0.1166 0.6012
C18 C 0.6797(2) 0.54168(16) 0.68700(16)
H9 H 0.6064 0.5416 0.6285
C19 C 0.6194(2) -0.14009(18) 0.48068(17)
H10 H 0.5204 -0.1460 0.4491
C20 C 0.8864(2) 1.05407(18) 0.92086(18)
H11 H 0.9656 1.1005 0.9043
C21 C 0.4432(2) 0.79901(16) 0.68948(15)
H12 H 0.5135 0.8652 0.6875
C22 C 0.6730(2) -0.24871(18) 0.46118(17)
H13 H 0.6121 -0.3261 0.4180
C23 C 0.8236(2) 0.93242(17) 0.85142(15)
H14 H 0.8609 0.8969 0.7885
C24 C 1.5284(2) 0.15738(18) 0.81616(18)
H15 H 1.5743 0.0887 0.7987
C25 C 0.3798(2) 0.62127(19) 0.74760(18)
H16 H 0.4064 0.5669 0.7855
C26 C 1.5371(2) 0.37125(18) 0.90057(19)
H17 H 1.5929 0.4511 0.9426
C27 C 0.8181(2) -0.24015(17) 0.50691(17)
H18 H 0.8581 -0.3121 0.4955
C28 C 0.8325(2) 1.10649(18) 1.01385(19)
H19 H 0.8745 1.1885 1.0603
C29 C 0.6533(2) 0.91718(18) 0.96908(17)
H20 H 0.5740 0.8715 0.9861
C30 C 0.2973(3) 0.7809(2) 0.63601(17)
H21 H 0.2695 0.8352 0.5984
C31 C 0.7176(2) 1.0381(2) 1.03790(19)
H22 H 0.6817 1.0733 1.1017
C32 C 0.2341(2) 0.6040(2) 0.6929(2)
H23 H 0.1631 0.5375 0.6935
C33 C 0.1937(3) 0.6842(2) 0.6378(2)
H24 H 0.0953 0.6725 0.6016
loop_
_geom_bond_atom_site_label_1
_geom_bond_atom_site_label_2
_geom_bond_site_symmetry_1
_geom_bond_site_symmetry_2
N1 C1 1_555 1_555
C1 C5 1_555 1_555
N2 C7 1_555 1_555
N3 C5 1_555 1_555
C2 N4 1_555 1_555
C3 C4 1_555 1_555
C4 C6 1_555 1_555
C5 C17 1_555 1_555
N4 C26 1_555 1_555
C6 H1 1_555 1_555
C7 C12 1_555 1_555
C8 N2 1_555 1_555
C9 C1 1_555 1_555
H2 C9 1_555 1_555
C10 N2 1_555 1_555
C11 N1 1_555 1_555
C12 H3 1_555 1_555
C13 C3 1_555 1_555
H4 C13 1_555 1_555
C14 C4 1_555 1_555
H5 C14 1_555 1_555
C15 H6 1_555 1_555
C16 C2 1_555 1_555
H7 C16 1_555 1_555
C17 H8 1_555 1_555
C18 C6 1_555 1_555
H9 C18 1_555 1_555
C19 N3 1_555 1_555
H10 C19 1_555 1_555
C20 H11 1_555 1_555
C21 C10 1_555 1_555
H12 C21 1_555 1_555
C22 C19 1_555 1_555
H13 C22 1_555 1_555
C23 C8 1_555 1_555
H14 C23 1_555 1_555
C24 C15 1_555 1_555
H15 C24 1_555 1_555
C25 C10 1_555 1_555
H16 C25 1_555 1_555
C26 C15 1_555 1_555
H17 C26 1_555 1_555
C27 C17 1_555 1_555
H18 C27 1_555 1_555
C28 C20 1_555 1_555
H19 C28 1_555 1_555
C29 C8 1_555 1_555
H20 C29 1_555 1_555
C30 C21 1_555 1_555
H21 C30 1_555 1_555
C31 C28 1_555 1_555
H22 C31 1_555 1_555
C32 C25 1_555 1_555
H23 C32 1_555 1_555
C33 C30 1_555 1_555
H24 C33 1_555 1_555
C2 C11 1_555 1_555
C3 C9 1_555 1_555
C7 C18 1_555 1_555
C11 C13 1_555 1_555
C12 C14 1_555 1_555
C16 C24 1_555 1_555
C20 C23 1_555 1_555
C22 C27 1_555 1_555
C29 C31 1_555 1_555
C32 C33 1_555 1_555

#END
