
#######################################################################
#
#                 Cambridge Crystallographic Data Centre
#                                CCDC 
#
#######################################################################
#
# If this CIF has been generated from an entry in the Cambridge 
# Structural Database, then it will include bibliographic, chemical, 
# crystal, experimental, refinement or atomic coordinate data resulting 
# from the CCDC's data processing and validation procedures.
#
#######################################################################

data_EDALED
_chemical_formula_moiety         'C23 H34 B1 O1 P1'
_chemical_name_systematic        
trihydrido{(4-methoxyphenyl)[5-methyl-2-isopropylcyclohexyl]phenylphosphine}boron
_symmetry_cell_setting           orthorhombic
_symmetry_space_group_name_H-M   'P 21 21 21'
_symmetry_Int_Tables_number      19
_space_group_name_Hall           'P 2ac 2ab'
loop_
_symmetry_equiv_pos_site_id
_symmetry_equiv_pos_as_xyz
1 x,y,z
2 1/2-x,-y,1/2+z
3 1/2+x,1/2-y,-z
4 -x,1/2+y,1/2-z
_cell_length_a                   8.8058(3)
_cell_length_b                   10.7920(4)
_cell_length_c                   23.4763(7)
_cell_angle_alpha                90
_cell_angle_beta                 90
_cell_angle_gamma                90
_cell_volume                     2231
_exptl_crystal_colour            colorless
_exptl_crystal_description       block
_cell_formula_units_Z            4
loop_
_atom_site_label
_atom_site_type_symbol
_atom_site_fract_x
_atom_site_fract_y
_atom_site_fract_z
B1 B 0.3917(4) 0.5795(3) 0.37224(13)
H1 H 0.4979 0.5704 0.3805
H2 H 0.3516 0.6482 0.3935
H3 H 0.3783 0.5944 0.3322
O1 O 0.5986(3) -0.01576(18) 0.29975(8)
P1 P 0.28610(7) 0.43055(5) 0.39338(2)
C1 C 0.0851(3) 0.4316(2) 0.36969(9)
H4 H 0.0293 0.3672 0.3904
C2 C 0.0841(3) 0.4001(3) 0.30564(11)
H5 H 0.1518 0.4566 0.2860
H6 H 0.1234 0.3169 0.3005
C3 C -0.0727(4) 0.4078(3) 0.27830(12)
H7 H -0.1362 0.3434 0.2956
C4 C -0.1460(4) 0.5316(3) 0.29060(14)
H8 H -0.0901 0.5965 0.2712
H9 H -0.2490 0.5315 0.2760
C5 C -0.1490(3) 0.5584(3) 0.35374(13)
H10 H -0.2116 0.4969 0.3726
H11 H -0.1953 0.6389 0.3599
C6 C 0.0090(3) 0.5577(3) 0.38066(10)
H12 H 0.0693 0.6199 0.3603
C7 C 0.0043(4) 0.5986(3) 0.44385(12)
H13 H 0.1039 0.5791 0.4602
C8 C -0.1134(5) 0.5309(4) 0.47946(15)
H14 H -0.2132 0.5587 0.4690
H15 H -0.0961 0.5478 0.5191
H16 H -0.1054 0.4433 0.4728
C9 C -0.0164(5) 0.7387(3) 0.44854(15)
H17 H -0.1144 0.7613 0.4340
H18 H 0.0612 0.7797 0.4268
H19 H -0.0089 0.7632 0.4878
C10 C -0.0625(5) 0.3808(4) 0.21430(14)
H20 H -0.1629 0.3782 0.1984
H21 H -0.0134 0.3024 0.2085
H22 H -0.0048 0.4449 0.1960
C11 C 0.2969(3) 0.4007(2) 0.47010(9)
C12 C 0.4140(3) 0.4562(2) 0.50004(10)
H23 H 0.4819 0.5080 0.4812
C13 C 0.4305(4) 0.4347(3) 0.55800(11)
H24 H 0.5083 0.4734 0.5780
C14 C 0.3328(4) 0.3572(3) 0.58574(11)
H25 H 0.3447 0.3426 0.6245
C15 C 0.2169(4) 0.3009(3) 0.55639(11)
H26 H 0.1510 0.2477 0.5754
C16 C 0.1976(3) 0.3226(2) 0.49904(10)
H27 H 0.1179 0.2850 0.4796
C17 C 0.3702(3) 0.2907(2) 0.36338(9)
C18 C 0.3357(3) 0.1740(2) 0.38363(11)
H28 H 0.2624 0.1659 0.4119
C19 C 0.4064(3) 0.0690(3) 0.36323(10)
H29 H 0.3808 -0.0086 0.3776
C20 C 0.5161(3) 0.0801(2) 0.32114(9)
C21 C 0.5480(3) 0.1972(3) 0.29911(11)
H30 H 0.6183 0.2051 0.2698
C22 C 0.4776(3) 0.3004(2) 0.32001(9)
H31 H 0.5016 0.3779 0.3052
C23 C 0.5885(5) -0.1322(3) 0.32763(14)
H32 H 0.6178 -0.1230 0.3668
H33 H 0.6550 -0.1903 0.3093
H34 H 0.4859 -0.1620 0.3257
loop_
_geom_bond_atom_site_label_1
_geom_bond_atom_site_label_2
_geom_bond_site_symmetry_1
_geom_bond_site_symmetry_2
B1 H1 1_555 1_555
H2 B1 1_555 1_555
H3 B1 1_555 1_555
O1 C20 1_555 1_555
P1 B1 1_555 1_555
C1 P1 1_555 1_555
H4 C1 1_555 1_555
C2 C1 1_555 1_555
H5 C2 1_555 1_555
H6 C2 1_555 1_555
C3 C2 1_555 1_555
H7 C3 1_555 1_555
C4 C3 1_555 1_555
H8 C4 1_555 1_555
H9 C4 1_555 1_555
C5 C4 1_555 1_555
H10 C5 1_555 1_555
H11 C5 1_555 1_555
C6 C1 1_555 1_555
H12 C6 1_555 1_555
C7 C6 1_555 1_555
H13 C7 1_555 1_555
C8 C7 1_555 1_555
H14 C8 1_555 1_555
H15 C8 1_555 1_555
H16 C8 1_555 1_555
C9 C7 1_555 1_555
H17 C9 1_555 1_555
H18 C9 1_555 1_555
H19 C9 1_555 1_555
C10 C3 1_555 1_555
H20 C10 1_555 1_555
H21 C10 1_555 1_555
H22 C10 1_555 1_555
C11 P1 1_555 1_555
C12 C11 1_555 1_555
H23 C12 1_555 1_555
C13 C12 1_555 1_555
H24 C13 1_555 1_555
C14 C13 1_555 1_555
H25 C14 1_555 1_555
C15 C14 1_555 1_555
H26 C15 1_555 1_555
C16 C11 1_555 1_555
H27 C16 1_555 1_555
C17 P1 1_555 1_555
C18 C17 1_555 1_555
H28 C18 1_555 1_555
C19 C18 1_555 1_555
H29 C19 1_555 1_555
C20 C19 1_555 1_555
C21 C20 1_555 1_555
H30 C21 1_555 1_555
C22 C17 1_555 1_555
H31 C22 1_555 1_555
C23 O1 1_555 1_555
H32 C23 1_555 1_555
H33 C23 1_555 1_555
H34 C23 1_555 1_555
C5 C6 1_555 1_555
C15 C16 1_555 1_555
C21 C22 1_555 1_555

#END
