
#######################################################################
#
#                 Cambridge Crystallographic Data Centre
#                                CCDC 
#
#######################################################################
#
# If this CIF has been generated from an entry in the Cambridge 
# Structural Database, then it will include bibliographic, chemical, 
# crystal, experimental, refinement or atomic coordinate data resulting 
# from the CCDC's data processing and validation procedures.
#
#######################################################################

data_EDANEE
_chemical_name_common            toste61
_chemical_formula_moiety         'C21 H20 Br1 N1 O1'
_chemical_name_systematic        
8'-Bromo-2-phenylspiro[3,1-benzoxazine-4,1'-cyclooct[4]ene]
_symmetry_cell_setting           orthorhombic
_symmetry_space_group_name_H-M   'P 21 21 2'
_symmetry_Int_Tables_number      18
_space_group_name_Hall           'P 2 2ab'
loop_
_symmetry_equiv_pos_site_id
_symmetry_equiv_pos_as_xyz
1 x,y,z
2 -x,-y,z
3 1/2+x,1/2-y,-z
4 1/2-x,1/2+y,-z
_cell_length_a                   12.0602(11)
_cell_length_b                   18.0394(17)
_cell_length_c                   7.8387(7)
_cell_angle_alpha                90
_cell_angle_beta                 90
_cell_angle_gamma                90
_cell_volume                     1705.38
_exptl_crystal_colour            colorless
_exptl_crystal_description       rod
_cell_formula_units_Z            4
loop_
_atom_site_label
_atom_site_type_symbol
_atom_site_fract_x
_atom_site_fract_y
_atom_site_fract_z
C1 C 0.04177(17) 0.30933(13) 0.9235(3)
C2 C 0.10721(16) 0.31394(13) 0.7559(2)
H1 H 0.1006 0.3659 0.7125
C3 C 0.07409(19) 0.26223(14) 0.6115(3)
H2 H 0.0781 0.2106 0.6539
H3 H 0.1292 0.2672 0.5187
C4 C -0.04157(19) 0.27498(14) 0.5364(3)
H4 H -0.0486 0.2457 0.4301
H5 H -0.0976 0.2563 0.6180
C5 C -0.0665(2) 0.35490(16) 0.4971(3)
H6 H -0.0677 0.3682 0.3798
C6 C -0.0872(2) 0.40914(15) 0.6078(3)
H7 H -0.0997 0.4563 0.5575
C7 C -0.09403(18) 0.40811(13) 0.7998(3)
H8 H -0.1674 0.4284 0.8315
H9 H -0.0377 0.4434 0.8429
C8 C -0.07899(18) 0.33570(13) 0.8982(3)
H10 H -0.1202 0.2962 0.8375
H11 H -0.1135 0.3416 1.0120
C9 C 0.04759(18) 0.23401(13) 1.0073(3)
C10 C -0.01326(18) 0.17385(13) 0.9484(3)
H12 H -0.0628 0.1803 0.8554
C11 C -0.00292(19) 0.10454(14) 1.0231(3)
H13 H -0.0445 0.0638 0.9806
C12 C 0.06876(18) 0.09487(14) 1.1606(3)
H14 H 0.0762 0.0475 1.2121
C13 C 0.12908(18) 0.15440(13) 1.2220(3)
H15 H 0.1776 0.1477 1.3162
C14 C 0.11906(17) 0.22419(13) 1.1466(3)
C15 C 0.16200(17) 0.34761(13) 1.1603(3)
C16 C 0.22089(18) 0.41266(12) 1.2319(3)
C17 C 0.28497(18) 0.40327(13) 1.3785(3)
H16 H 0.2876 0.3563 1.4332
C18 C 0.3445(2) 0.46197(15) 1.4439(3)
H17 H 0.3886 0.4552 1.5431
C19 C 0.34037(19) 0.53074(15) 1.3661(3)
H18 H 0.3820 0.5709 1.4113
C20 C 0.27569(19) 0.54084(13) 1.2227(3)
H19 H 0.2727 0.5881 1.1693
C21 C 0.21506(19) 0.48224(13) 1.1564(3)
H20 H 0.1694 0.4897 1.0590
N1 N 0.18144(13) 0.28281(11) 1.2164(2)
O1 O 0.08871(12) 0.36648(9) 1.03665(19)
Br1 Br 0.265729(16) 0.295093(14) 0.80230(3)
loop_
_geom_bond_atom_site_label_1
_geom_bond_atom_site_label_2
_geom_bond_site_symmetry_1
_geom_bond_site_symmetry_2
C1 C2 1_555 1_555
C2 H1 1_555 1_555
C3 C2 1_555 1_555
H2 C3 1_555 1_555
H3 C3 1_555 1_555
C4 C3 1_555 1_555
H4 C4 1_555 1_555
H5 C4 1_555 1_555
C5 C4 1_555 1_555
H6 C5 1_555 1_555
C6 C5 1_555 1_555
H7 C6 1_555 1_555
C7 C6 1_555 1_555
H8 C7 1_555 1_555
H9 C7 1_555 1_555
C8 C1 1_555 1_555
H10 C8 1_555 1_555
H11 C8 1_555 1_555
C9 C1 1_555 1_555
C10 C9 1_555 1_555
H12 C10 1_555 1_555
C11 C10 1_555 1_555
H13 C11 1_555 1_555
C12 C11 1_555 1_555
H14 C12 1_555 1_555
C13 C12 1_555 1_555
H15 C13 1_555 1_555
C14 C9 1_555 1_555
C15 C16 1_555 1_555
C16 C17 1_555 1_555
C17 H16 1_555 1_555
C18 C17 1_555 1_555
H17 C18 1_555 1_555
C19 C18 1_555 1_555
H18 C19 1_555 1_555
C20 C19 1_555 1_555
H19 C20 1_555 1_555
C21 C16 1_555 1_555
H20 C21 1_555 1_555
N1 C14 1_555 1_555
O1 C1 1_555 1_555
Br1 C2 1_555 1_555
C7 C8 1_555 1_555
C13 C14 1_555 1_555
C15 N1 1_555 1_555
C15 O1 1_555 1_555
C20 C21 1_555 1_555

#END
