
#######################################################################
#
#                 Cambridge Crystallographic Data Centre
#                                CCDC 
#
#######################################################################
#
# If this CIF has been generated from an entry in the Cambridge 
# Structural Database, then it will include bibliographic, chemical, 
# crystal, experimental, refinement or atomic coordinate data resulting 
# from the CCDC's data processing and validation procedures.
#
#######################################################################

data_EDANOP
_chemical_formula_moiety         'C24 H42 O4 Si2'
_chemical_name_systematic        
4,6-bis{[t-butyl(dimethyl)silyl]oxy}-5-methylidenetetrahydro-1H-3a,6-methanoazulene-3,7(2H,4H)-dione
_symmetry_cell_setting           orthorhombic
_symmetry_space_group_name_H-M   'P b c a'
_symmetry_Int_Tables_number      61
_space_group_name_Hall           '-P 2ac 2ab'
loop_
_symmetry_equiv_pos_site_id
_symmetry_equiv_pos_as_xyz
1 x,y,z
2 1/2-x,-y,1/2+z
3 -x,1/2+y,1/2-z
4 1/2+x,1/2-y,-z
5 -x,-y,-z
6 1/2+x,y,1/2-z
7 x,1/2-y,1/2+z
8 1/2-x,1/2+y,z
_cell_length_a                   14.9248(6)
_cell_length_b                   12.5159(5)
_cell_length_c                   28.6868(14)
_cell_angle_alpha                90
_cell_angle_beta                 90
_cell_angle_gamma                90
_cell_volume                     5358.62
_exptl_crystal_colour            colorless
_exptl_crystal_description       Block
_cell_formula_units_Z            8
loop_
_atom_site_label
_atom_site_type_symbol
_atom_site_fract_x
_atom_site_fract_y
_atom_site_fract_z
O1 O 0.75795(14) 0.6521(2) 0.35534(9)
C1 C 0.72884(17) 0.5674(3) 0.36787(9)
C2 C 0.7829(2) 0.4698(3) 0.37875(15)
H1 H 0.8405 0.4889 0.3921
H2 H 0.7928 0.4273 0.3509
C3 C 0.7263(2) 0.4096(3) 0.41369(13)
H3 H 0.7352 0.4374 0.4449
H4 H 0.7409 0.3341 0.4135
C4 C 0.62969(17) 0.4280(2) 0.39746(9)
H5 H 0.6178 0.3795 0.3714
C5 C 0.5598(2) 0.4064(2) 0.43533(11)
H6 H 0.5342 0.3364 0.4295
H7 H 0.5908 0.4025 0.4650
C6 C 0.48341(16) 0.48439(19) 0.44066(8)
O2 O 0.42056(12) 0.46501(16) 0.46527(7)
C7 C 0.49191(14) 0.58946(17) 0.41348(8)
O3 O 0.43051(11) 0.66302(14) 0.43163(6)
Si1 Si 0.43294(5) 0.79513(6) 0.42983(3)
C8 C 0.5139(3) 0.8458(3) 0.47387(17)
H8 H 0.5686 0.8057 0.4718
H9 H 0.4888 0.8379 0.5045
H10 H 0.5260 0.9199 0.4680
C9 C 0.4638(3) 0.8456(3) 0.37148(14)
H11 H 0.5179 0.8114 0.3613
H12 H 0.4730 0.9214 0.3730
H13 H 0.4164 0.8301 0.3499
C10 C 0.3156(2) 0.8371(2) 0.44496(12)
C11 C 0.2889(3) 0.7943(4) 0.49215(18)
H14 H 0.2289 0.8167 0.4993
H15 H 0.3292 0.8213 0.5154
H16 H 0.2916 0.7177 0.4918
C12 C 0.2506(3) 0.7931(4) 0.40826(19)
H17 H 0.1904 0.8131 0.4163
H18 H 0.2551 0.7166 0.4073
H19 H 0.2655 0.8219 0.3782
C13 C 0.3108(3) 0.9601(3) 0.44519(18)
H20 H 0.2515 0.9823 0.4538
H21 H 0.3246 0.9868 0.4146
H22 H 0.3532 0.9878 0.4672
C14 C 0.59109(15) 0.62177(19) 0.41390(8)
H23 H 0.5991 0.6954 0.4041
H24 H 0.6176 0.6119 0.4445
C15 C 0.62995(15) 0.54373(19) 0.37830(8)
C16 C 0.56349(15) 0.55385(18) 0.33699(8)
H25 H 0.5665 0.4910 0.3166
O4 O 0.57636(11) 0.64925(13) 0.31131(6)
Si2 Si 0.61455(4) 0.66470(5) 0.25775(2)
C17 C 0.6901(2) 0.5525(3) 0.24164(12)
H26 H 0.7411 0.5521 0.2621
H27 H 0.7099 0.5614 0.2100
H28 H 0.6584 0.4861 0.2445
C18 C 0.6764(2) 0.7933(3) 0.25820(13)
H29 H 0.7215 0.7914 0.2820
H30 H 0.6354 0.8506 0.2644
H31 H 0.7042 0.8042 0.2284
C19 C 0.51704(19) 0.6716(2) 0.21586(9)
C20 C 0.5503(3) 0.6956(4) 0.16631(12)
H32 H 0.5005 0.6947 0.1451
H33 H 0.5931 0.6424 0.1571
H34 H 0.5780 0.7648 0.1657
C21 C 0.4514(3) 0.7583(3) 0.23142(14)
H35 H 0.3997 0.7574 0.2115
H36 H 0.4800 0.8269 0.2295
H37 H 0.4333 0.7450 0.2630
C22 C 0.4672(2) 0.5647(3) 0.21514(11)
H38 H 0.4172 0.5694 0.1942
H39 H 0.4462 0.5483 0.2459
H40 H 0.5071 0.5094 0.2048
C23 C 0.47482(16) 0.55876(19) 0.36257(8)
C24 C 0.3948(2) 0.5360(3) 0.34615(12)
H41 H 0.341(3) 0.546(3) 0.3651(13)
H42 H 0.388(2) 0.511(3) 0.3137(14)
loop_
_geom_bond_atom_site_label_1
_geom_bond_atom_site_label_2
_geom_bond_site_symmetry_1
_geom_bond_site_symmetry_2
O1 C1 1_555 1_555
C1 C2 1_555 1_555
C2 H1 1_555 1_555
H2 C2 1_555 1_555
C3 C2 1_555 1_555
H3 C3 1_555 1_555
H4 C3 1_555 1_555
C4 C3 1_555 1_555
H5 C4 1_555 1_555
C5 C4 1_555 1_555
H6 C5 1_555 1_555
H7 C5 1_555 1_555
C6 C5 1_555 1_555
O2 C6 1_555 1_555
C7 C6 1_555 1_555
O3 C7 1_555 1_555
Si1 O3 1_555 1_555
C8 Si1 1_555 1_555
H8 C8 1_555 1_555
H9 C8 1_555 1_555
H10 C8 1_555 1_555
C9 Si1 1_555 1_555
H11 C9 1_555 1_555
H12 C9 1_555 1_555
H13 C9 1_555 1_555
C10 Si1 1_555 1_555
C11 C10 1_555 1_555
H14 C11 1_555 1_555
H15 C11 1_555 1_555
H16 C11 1_555 1_555
C12 C10 1_555 1_555
H17 C12 1_555 1_555
H18 C12 1_555 1_555
H19 C12 1_555 1_555
C13 C10 1_555 1_555
H20 C13 1_555 1_555
H21 C13 1_555 1_555
H22 C13 1_555 1_555
C14 C7 1_555 1_555
H23 C14 1_555 1_555
H24 C14 1_555 1_555
C15 C1 1_555 1_555
C16 C15 1_555 1_555
H25 C16 1_555 1_555
O4 C16 1_555 1_555
Si2 O4 1_555 1_555
C17 Si2 1_555 1_555
H26 C17 1_555 1_555
H27 C17 1_555 1_555
H28 C17 1_555 1_555
C18 Si2 1_555 1_555
H29 C18 1_555 1_555
H30 C18 1_555 1_555
H31 C18 1_555 1_555
C19 Si2 1_555 1_555
C20 C19 1_555 1_555
H32 C20 1_555 1_555
H33 C20 1_555 1_555
H34 C20 1_555 1_555
C21 C19 1_555 1_555
H35 C21 1_555 1_555
H36 C21 1_555 1_555
H37 C21 1_555 1_555
C22 C19 1_555 1_555
H38 C22 1_555 1_555
H39 C22 1_555 1_555
H40 C22 1_555 1_555
C23 C7 1_555 1_555
C24 C23 1_555 1_555
H41 C24 1_555 1_555
H42 C24 1_555 1_555
C4 C15 1_555 1_555
C14 C15 1_555 1_555
C16 C23 1_555 1_555

#END
