
#######################################################################
#
#                 Cambridge Crystallographic Data Centre
#                                CCDC 
#
#######################################################################
#
# If this CIF has been generated from an entry in the Cambridge 
# Structural Database, then it will include bibliographic, chemical, 
# crystal, experimental, refinement or atomic coordinate data resulting 
# from the CCDC's data processing and validation procedures.
#
#######################################################################

data_EDANUV
_chemical_formula_moiety         'C18 H28 O3 Si1'
_chemical_name_systematic        
6-{[t-butyl(dimethyl)silyl]oxy}-8-methylidenetetrahydro-3a,6-ethanoindene-3,5(2H,4H)-dione
_symmetry_cell_setting           monoclinic
_symmetry_space_group_name_H-M   'P 21/c'
_symmetry_Int_Tables_number      14
_space_group_name_Hall           '-P 2ybc'
loop_
_symmetry_equiv_pos_site_id
_symmetry_equiv_pos_as_xyz
1 x,y,z
2 -x,1/2+y,1/2-z
3 -x,-y,-z
4 x,1/2-y,1/2+z
_cell_length_a                   19.273(7)
_cell_length_b                   7.630(3)
_cell_length_c                   12.384(5)
_cell_angle_alpha                90
_cell_angle_beta                 100.001(10)
_cell_angle_gamma                90
_cell_volume                     1793.43
_exptl_crystal_colour            colorless
_exptl_crystal_description       Plate
_cell_formula_units_Z            4
loop_
_atom_site_label
_atom_site_type_symbol
_atom_site_fract_x
_atom_site_fract_y
_atom_site_fract_z
O1 O 0.51205(17) 0.9196(5) 0.6593(3)
C1 C 0.4513(2) 0.9453(6) 0.6242(3)
C2 C 0.4155(2) 1.1219(5) 0.6138(4)
H1 H 0.4348 1.1958 0.5625
H2 H 0.4215 1.1805 0.6843
C3 C 0.3379(2) 1.0832(5) 0.5716(4)
H3 H 0.3122 1.0692 0.6318
H4 H 0.3163 1.1763 0.5239
C4 C 0.3396(2) 0.9150(5) 0.5094(4)
H5 H 0.3556 0.9429 0.4405
C5 C 0.39748(19) 0.8075(5) 0.5789(3)
C6 C 0.3701(2) 0.7121(5) 0.6709(3)
H6 H 0.4080 0.6451 0.7138
H7 H 0.3536 0.7968 0.7191
O2 O 0.2805(2) 0.4980(5) 0.6799(3)
C7 C 0.3111(2) 0.5917(5) 0.6247(3)
C8 C 0.2724(2) 0.8056(5) 0.4807(4)
H8 H 0.2518 0.8232 0.4043
H9 H 0.2383 0.8427 0.5253
C9 C 0.4208(2) 0.6660(6) 0.5057(4)
H10 H 0.4421 0.7194 0.4483
H11 H 0.4553 0.5896 0.5485
C10 C 0.3563(2) 0.5622(5) 0.4560(3)
C11 C 0.3580(3) 0.4388(7) 0.3839(4)
H12 H 0.318(3) 0.393(7) 0.358(4)
H13 H 0.406(3) 0.410(7) 0.360(4)
C12 C 0.28996(18) 0.6090(4) 0.5016(3)
O3 O 0.23435(14) 0.4961(3) 0.4621(2)
Si1 Si 0.15528(5) 0.51790(12) 0.39086(8)
C13 C 0.1591(3) 0.6039(6) 0.2524(4)
H14 H 0.1747 0.7236 0.2579
H15 H 0.1131 0.5980 0.2079
H16 H 0.1915 0.5349 0.2194
C14 C 0.1000(2) 0.6614(6) 0.4620(4)
H17 H 0.1146 0.7810 0.4570
H18 H 0.1054 0.6278 0.5377
H19 H 0.0515 0.6496 0.4281
C15 C 0.11879(19) 0.2896(5) 0.3808(3)
C16 C 0.0445(2) 0.2900(6) 0.3145(5)
H20 H 0.0260 0.1729 0.3101
H21 H 0.0456 0.3330 0.2420
H22 H 0.0149 0.3645 0.3496
C17 C 0.1171(3) 0.2195(7) 0.4970(4)
H23 H 0.0986 0.1024 0.4923
H24 H 0.0878 0.2936 0.5326
H25 H 0.1641 0.2187 0.5386
C18 C 0.1651(3) 0.1690(6) 0.3249(4)
H26 H 0.1442 0.0545 0.3159
H27 H 0.2111 0.1607 0.3693
H28 H 0.1692 0.2160 0.2543
loop_
_geom_bond_atom_site_label_1
_geom_bond_atom_site_label_2
_geom_bond_site_symmetry_1
_geom_bond_site_symmetry_2
O1 C1 1_555 1_555
C1 C2 1_555 1_555
C2 H1 1_555 1_555
H2 C2 1_555 1_555
C3 C2 1_555 1_555
H3 C3 1_555 1_555
H4 C3 1_555 1_555
C4 C3 1_555 1_555
H5 C4 1_555 1_555
C5 C1 1_555 1_555
C6 C5 1_555 1_555
H6 C6 1_555 1_555
H7 C6 1_555 1_555
O2 C7 1_555 1_555
C7 C6 1_555 1_555
C8 C4 1_555 1_555
H8 C8 1_555 1_555
H9 C8 1_555 1_555
C9 C5 1_555 1_555
H10 C9 1_555 1_555
H11 C9 1_555 1_555
C10 C9 1_555 1_555
C11 C10 1_555 1_555
H12 C11 1_555 1_555
H13 C11 1_555 1_555
C12 C7 1_555 1_555
O3 C12 1_555 1_555
Si1 O3 1_555 1_555
C13 Si1 1_555 1_555
H14 C13 1_555 1_555
H15 C13 1_555 1_555
H16 C13 1_555 1_555
C14 Si1 1_555 1_555
H17 C14 1_555 1_555
H18 C14 1_555 1_555
H19 C14 1_555 1_555
C15 Si1 1_555 1_555
C16 C15 1_555 1_555
H20 C16 1_555 1_555
H21 C16 1_555 1_555
H22 C16 1_555 1_555
C17 C15 1_555 1_555
H23 C17 1_555 1_555
H24 C17 1_555 1_555
H25 C17 1_555 1_555
C18 C15 1_555 1_555
H26 C18 1_555 1_555
H27 C18 1_555 1_555
H28 C18 1_555 1_555
C4 C5 1_555 1_555
C8 C12 1_555 1_555
C10 C12 1_555 1_555

#END
