
#######################################################################
#
#                 Cambridge Crystallographic Data Centre
#                                CCDC 
#
#######################################################################
#
# If this CIF has been generated from an entry in the Cambridge 
# Structural Database, then it will include bibliographic, chemical, 
# crystal, experimental, refinement or atomic coordinate data resulting 
# from the CCDC's data processing and validation procedures.
#
#######################################################################

data_EDAPEH
_chemical_formula_moiety         'C21 H32 O3 Si1'
_chemical_name_systematic        
3-{[t-butyl(dimethyl)silyl]oxy}-2-methylidenedecahydro-3,6-methanocyclopenta[d]naphthalene-10,11(1H)-dione
_symmetry_cell_setting           triclinic
_symmetry_space_group_name_H-M   'P -1'
_symmetry_Int_Tables_number      2
_space_group_name_Hall           '-P 1'
loop_
_symmetry_equiv_pos_site_id
_symmetry_equiv_pos_as_xyz
1 x,y,z
2 -x,-y,-z
_cell_length_a                   7.3119(5)
_cell_length_b                   11.5520(9)
_cell_length_c                   12.6325(10)
_cell_angle_alpha                104.8535(24)
_cell_angle_beta                 97.6124(22)
_cell_angle_gamma                94.5246(23)
_cell_volume                     1015.17
_exptl_crystal_colour            colorless
_exptl_crystal_description       Prism
_cell_formula_units_Z            2
loop_
_atom_site_label
_atom_site_type_symbol
_atom_site_fract_x
_atom_site_fract_y
_atom_site_fract_z
Si1 Si 0.23449(7) 0.79754(5) 0.07503(4)
O1 O 0.7805(2) 0.55257(14) 0.39716(13)
O2 O 0.23625(18) 0.92270(12) 0.32975(11)
O3 O 0.41140(17) 0.78005(12) 0.16090(9)
C1 C 0.7593(2) 0.64735(17) 0.45849(15)
C2 C 0.8472(3) 0.6832(2) 0.57825(17)
H1 H 0.9610 0.7363 0.5870
H2 H 0.8800 0.6116 0.5994
C3 C 0.7224(4) 0.7464(2) 0.65566(17)
H3 H 0.7691 0.8313 0.6835
H4 H 0.7252 0.7126 0.7186
C4 C 0.5234(3) 0.7335(2) 0.59770(17)
H5 H 0.4463 0.7720 0.6500
H6 H 0.4758 0.6487 0.5697
C5 C 0.5160(2) 0.79177(16) 0.50187(13)
H7 H 0.5636 0.8771 0.5337
C6 C 0.6458(2) 0.73644(14) 0.41781(13)
C7 C 0.5294(2) 0.68284(14) 0.30292(13)
H8 H 0.6082 0.6427 0.2512
C8 C 0.3626(3) 0.59514(16) 0.30191(17)
H9 H 0.4049 0.5258 0.3235
H10 H 0.2929 0.5670 0.2274
C9 C 0.2363(3) 0.65591(19) 0.3819(2)
H11 H 0.2242 0.6122 0.4372
H12 H 0.1136 0.6548 0.3413
C10 C 0.3204(2) 0.78686(17) 0.43902(15)
H13 H 0.2401 0.8271 0.4897
C11 C 0.3317(2) 0.84701(15) 0.34770(14)
C12 C 0.4752(2) 0.79806(14) 0.27361(12)
C13 C 0.6552(2) 0.88403(15) 0.31454(13)
C14 C 0.6990(3) 0.9765(2) 0.2771(2)
H14 H 0.817(4) 1.026(2) 0.307(2)
H15 H 0.611(4) 0.993(2) 0.220(2)
C15 C 0.7749(2) 0.83830(17) 0.39774(15)
H16 H 0.8162 0.9016 0.4659
H17 H 0.8827 0.8075 0.3683
C16 C 0.0075(3) 0.7488(3) 0.1090(2)
H18 H 0.0136 0.6742 0.1289
H19 H -0.0871 0.7376 0.0457
H20 H -0.0218 0.8094 0.1701
C17 C 0.2439(5) 0.9564(2) 0.0679(3)
H21 H 0.2121 1.0060 0.1348
H22 H 0.1573 0.9613 0.0055
H23 H 0.3672 0.9841 0.0596
C18 C 0.2723(3) 0.6970(2) -0.06109(16)
C19 C 0.2518(6) 0.5666(3) -0.0560(3)
H24 H 0.2673 0.5146 -0.1260
H25 H 0.1305 0.5462 -0.0400
H26 H 0.3446 0.5567 0.0013
C20 C 0.4644(5) 0.7246(4) -0.0858(3)
H27 H 0.4812 0.6683 -0.1533
H28 H 0.5551 0.7182 -0.0260
H29 H 0.4792 0.8050 -0.0940
C21 C 0.1303(6) 0.7103(5) -0.1558(3)
H30 H 0.1584 0.6639 -0.2251
H31 H 0.1348 0.7937 -0.1554
H32 H 0.0082 0.6817 -0.1464
loop_
_geom_bond_atom_site_label_1
_geom_bond_atom_site_label_2
_geom_bond_site_symmetry_1
_geom_bond_site_symmetry_2
Si1 O3 1_555 1_555
O1 C1 1_555 1_555
O2 C11 1_555 1_555
O3 C12 1_555 1_555
C1 C2 1_555 1_555
C2 H1 1_555 1_555
H2 C2 1_555 1_555
C3 C2 1_555 1_555
H3 C3 1_555 1_555
H4 C3 1_555 1_555
C4 C3 1_555 1_555
H5 C4 1_555 1_555
H6 C4 1_555 1_555
C5 C4 1_555 1_555
H7 C5 1_555 1_555
C6 C1 1_555 1_555
C7 C6 1_555 1_555
H8 C7 1_555 1_555
C8 C7 1_555 1_555
H9 C8 1_555 1_555
H10 C8 1_555 1_555
C9 C8 1_555 1_555
H11 C9 1_555 1_555
H12 C9 1_555 1_555
C10 C5 1_555 1_555
H13 C10 1_555 1_555
C11 C10 1_555 1_555
C12 C7 1_555 1_555
C13 C12 1_555 1_555
C14 C13 1_555 1_555
H14 C14 1_555 1_555
H15 C14 1_555 1_555
C15 C6 1_555 1_555
H16 C15 1_555 1_555
H17 C15 1_555 1_555
C16 Si1 1_555 1_555
H18 C16 1_555 1_555
H19 C16 1_555 1_555
H20 C16 1_555 1_555
C17 Si1 1_555 1_555
H21 C17 1_555 1_555
H22 C17 1_555 1_555
H23 C17 1_555 1_555
C18 Si1 1_555 1_555
C19 C18 1_555 1_555
H24 C19 1_555 1_555
H25 C19 1_555 1_555
H26 C19 1_555 1_555
C20 C18 1_555 1_555
H27 C20 1_555 1_555
H28 C20 1_555 1_555
H29 C20 1_555 1_555
C21 C18 1_555 1_555
H30 C21 1_555 1_555
H31 C21 1_555 1_555
H32 C21 1_555 1_555
C5 C6 1_555 1_555
C9 C10 1_555 1_555
C11 C12 1_555 1_555
C13 C15 1_555 1_555

#END
