
#######################################################################
#
#                 Cambridge Crystallographic Data Centre
#                                CCDC 
#
#######################################################################
#
# If this CIF has been generated from an entry in the Cambridge 
# Structural Database, then it will include bibliographic, chemical, 
# crystal, experimental, refinement or atomic coordinate data resulting 
# from the CCDC's data processing and validation procedures.
#
#######################################################################

data_EDAPIL
_chemical_formula_moiety         'C23 H34 B1 O1 P1'
_chemical_name_systematic        
trihydrido{(2-methoxyphenyl)[5-methyl-2-isopropylcyclohexyl]phenylphosphine}boron
_symmetry_cell_setting           monoclinic
_symmetry_space_group_name_H-M   'P 21'
_symmetry_Int_Tables_number      4
_space_group_name_Hall           'P 2yb'
loop_
_symmetry_equiv_pos_site_id
_symmetry_equiv_pos_as_xyz
1 x,y,z
2 -x,1/2+y,-z
_cell_length_a                   8.9699(8)
_cell_length_b                   30.381(3)
_cell_length_c                   9.3419(9)
_cell_angle_alpha                90
_cell_angle_beta                 116.560(3)
_cell_angle_gamma                90
_cell_volume                     2277.14
_exptl_crystal_colour            colorless
_exptl_crystal_description       block
_cell_formula_units_Z            4
loop_
_atom_site_label
_atom_site_type_symbol
_atom_site_fract_x
_atom_site_fract_y
_atom_site_fract_z
P1 P 0.66156(9) 0.08047(2) 0.24475(9)
B1 B 0.8652(5) 0.05313(15) 0.2608(6)
O1 O 0.2965(2) 0.11306(8) 0.0755(3)
C1 C 0.6295(4) 0.07230(10) 0.4225(4)
C2 C 0.7438(5) 0.04702(11) 0.5477(4)
H1 H 0.8358 0.0353 0.5400
C3 C 0.7232(6) 0.03902(13) 0.6819(5)
H2 H 0.8022 0.0225 0.7650
C4 C 0.5871(7) 0.05522(15) 0.6951(6)
H3 H 0.5732 0.0498 0.7864
C5 C 0.4718(6) 0.07954(17) 0.5717(6)
H4 H 0.3788 0.0904 0.5796
C6 C 0.4911(5) 0.08809(14) 0.4367(5)
H5 H 0.4111 0.1046 0.3542
C7 C 0.4779(4) 0.05583(10) 0.0839(4)
C8 C 0.3164(4) 0.07329(10) 0.0166(4)
C9 C 0.1843(5) 0.05158(14) -0.1038(5)
H6 H 0.0780 0.0638 -0.1487
C10 C 0.2134(6) 0.01139(15) -0.1562(6)
H7 H 0.1253 -0.0036 -0.2364
C11 C 0.3677(6) -0.00644(14) -0.0928(5)
H8 H 0.3848 -0.0335 -0.1299
C12 C 0.4997(5) 0.01525(11) 0.0264(4)
H9 H 0.6052 0.0026 0.0694
C13 C 0.6615(3) 0.14034(9) 0.2052(4)
H10 H 0.5772 0.1546 0.2291
C14 C 0.8329(3) 0.16202(9) 0.3091(4)
H11 H 0.9132 0.1480 0.2790
C15 C 0.8244(5) 0.21075(11) 0.2617(5)
H12 H 0.7434 0.2257 0.2867
H13 H 0.9321 0.2243 0.3243
C16 C 0.7765(4) 0.21656(11) 0.0860(5)
H14 H 0.8614 0.2034 0.0621
H15 H 0.7710 0.2477 0.0614
C17 C 0.6085(4) 0.19527(11) -0.0185(4)
H16 H 0.5241 0.2099 0.0044
C18 C 0.6140(4) 0.14703(11) 0.0272(4)
H17 H 0.6942 0.1318 0.0018
H18 H 0.5055 0.1339 -0.0363
C19 C 0.5593(5) 0.20112(15) -0.1950(5)
H19 H 0.6362 0.1855 -0.2219
H20 H 0.5614 0.2318 -0.2181
H21 H 0.4489 0.1898 -0.2568
C20 C 0.9000(4) 0.15553(12) 0.4911(4)
H22 H 0.8931 0.1239 0.5081
C21 C 1.0846(4) 0.16789(15) 0.5816(5)
H23 H 1.1460 0.1532 0.5337
H24 H 1.1268 0.1590 0.6914
H25 H 1.0966 0.1992 0.5763
C22 C 0.7980(5) 0.17852(15) 0.5635(5)
H26 H 0.8368 0.1693 0.6726
H27 H 0.6826 0.1708 0.5034
H28 H 0.8107 0.2098 0.5598
C23 C 0.1315(5) 0.12622(15) 0.0447(6)
H29 H 0.0675 0.1324 -0.0672
H30 H 0.1372 0.1522 0.1056
H31 H 0.0791 0.1029 0.0752
H32 H 0.856(4) 0.0567(12) 0.136(5)
H33 H 0.867(4) 0.0180(11) 0.287(4)
H34 H 0.983(5) 0.0709(12) 0.363(5)
P2 P 0.08863(9) 0.38936(2) 0.06869(9)
B2 B 0.2949(5) 0.41656(14) 0.0977(6)
O2 O -0.1917(3) 0.35684(8) 0.1290(3)
C24 C -0.0911(4) 0.41288(10) -0.1014(4)
C25 C -0.2375(4) 0.39058(15) -0.1915(5)
H35 H -0.2480 0.3612 -0.1699
C26 C -0.3690(5) 0.41210(17) -0.3146(6)
H36 H -0.4678 0.3971 -0.3750
C27 C -0.3536(6) 0.45567(17) -0.3475(6)
H37 H -0.4420 0.4698 -0.4308
C28 C -0.2107(5) 0.47819(13) -0.2596(5)
H38 H -0.2012 0.5077 -0.2812
C29 C -0.0794(5) 0.45672(10) -0.1374(4)
H39 H 0.0191 0.4720 -0.0780
C30 C 0.0475(4) 0.40040(9) 0.2391(4)
C31 C -0.0971(4) 0.38512(12) 0.2465(4)
C32 C -0.1307(5) 0.39902(13) 0.3718(6)
H40 H -0.2292 0.3905 0.3740
C33 C -0.0206(7) 0.42484(15) 0.4899(6)
H41 H -0.0453 0.4341 0.5718
C34 C 0.1267(6) 0.43762(13) 0.4908(5)
H42 H 0.2043 0.4539 0.5757
C35 C 0.1580(5) 0.42590(10) 0.3637(4)
H43 H 0.2557 0.4354 0.3621
C36 C 0.0998(3) 0.32861(10) 0.0530(4)
H44 H -0.0135 0.3166 0.0067
C37 C 0.1839(4) 0.31463(9) -0.0518(4)
H45 H 0.2948 0.3282 -0.0043
C38 C 0.2119(5) 0.26426(11) -0.0390(4)
H46 H 0.1047 0.2495 -0.0824
H47 H 0.2676 0.2557 -0.1030
C39 C 0.3147(5) 0.24943(11) 0.1309(4)
H48 H 0.4242 0.2629 0.1726
H49 H 0.3290 0.2178 0.1329
C40 C 0.2335(4) 0.26174(10) 0.2360(4)
H50 H 0.1265 0.2463 0.1948
C41 C 0.1966(4) 0.31123(11) 0.2249(4)
H51 H 0.3013 0.3270 0.2768
H52 H 0.1329 0.3176 0.2834
C42 C 0.3353(6) 0.24745(15) 0.4078(5)
H53 H 0.3580 0.2165 0.4110
H54 H 0.2740 0.2533 0.4676
H55 H 0.4384 0.2634 0.4539
C43 C 0.0967(5) 0.33012(12) -0.2273(4)
H56 H 0.0655 0.3610 -0.2260
C44 C -0.0630(7) 0.30511(15) -0.3294(5)
H57 H -0.0358 0.2760 -0.3503
H58 H -0.1238 0.3204 -0.4288
H59 H -0.1302 0.3032 -0.2734
C45 C 0.2196(7) 0.32908(17) -0.3012(6)
H60 H 0.3202 0.3442 -0.2319
H61 H 0.1701 0.3433 -0.4037
H62 H 0.2451 0.2991 -0.3139
C46 C -0.3456(5) 0.34163(17) 0.1199(8)
H63 H -0.3245 0.3233 0.2108
H64 H -0.4037 0.3249 0.0235
H65 H -0.4124 0.3664 0.1195
H66 H 0.283(4) 0.4497(11) 0.126(4)
H67 H 0.396(4) 0.4015(10) 0.209(4)
H68 H 0.307(4) 0.4106(10) -0.021(4)
loop_
_geom_bond_atom_site_label_1
_geom_bond_atom_site_label_2
_geom_bond_site_symmetry_1
_geom_bond_site_symmetry_2
P1 B1 1_555 1_555
B1 H32 1_555 1_555
O1 C8 1_555 1_555
C1 P1 1_555 1_555
C2 C1 1_555 1_555
H1 C2 1_555 1_555
C3 C2 1_555 1_555
H2 C3 1_555 1_555
C4 C3 1_555 1_555
H3 C4 1_555 1_555
C5 C4 1_555 1_555
H4 C5 1_555 1_555
C6 C1 1_555 1_555
H5 C6 1_555 1_555
C7 P1 1_555 1_555
C8 C7 1_555 1_555
C9 C8 1_555 1_555
H6 C9 1_555 1_555
C10 C9 1_555 1_555
H7 C10 1_555 1_555
C11 C10 1_555 1_555
H8 C11 1_555 1_555
C12 C7 1_555 1_555
H9 C12 1_555 1_555
C13 P1 1_555 1_555
H10 C13 1_555 1_555
C14 C13 1_555 1_555
H11 C14 1_555 1_555
C15 C14 1_555 1_555
H12 C15 1_555 1_555
H13 C15 1_555 1_555
C16 C15 1_555 1_555
H14 C16 1_555 1_555
H15 C16 1_555 1_555
C17 C16 1_555 1_555
H16 C17 1_555 1_555
C18 C13 1_555 1_555
H17 C18 1_555 1_555
H18 C18 1_555 1_555
C19 C17 1_555 1_555
H19 C19 1_555 1_555
H20 C19 1_555 1_555
H21 C19 1_555 1_555
C20 C14 1_555 1_555
H22 C20 1_555 1_555
C21 C20 1_555 1_555
H23 C21 1_555 1_555
H24 C21 1_555 1_555
H25 C21 1_555 1_555
C22 C20 1_555 1_555
H26 C22 1_555 1_555
H27 C22 1_555 1_555
H28 C22 1_555 1_555
C23 O1 1_555 1_555
H29 C23 1_555 1_555
H30 C23 1_555 1_555
H31 C23 1_555 1_555
H33 B1 1_555 1_555
H34 B1 1_555 1_555
P2 B2 1_555 1_555
B2 H66 1_555 1_555
O2 C31 1_555 1_555
C24 P2 1_555 1_555
C25 C24 1_555 1_555
H35 C25 1_555 1_555
C26 C25 1_555 1_555
H36 C26 1_555 1_555
C27 C26 1_555 1_555
H37 C27 1_555 1_555
C28 C27 1_555 1_555
H38 C28 1_555 1_555
C29 C24 1_555 1_555
H39 C29 1_555 1_555
C30 P2 1_555 1_555
C31 C30 1_555 1_555
C32 C31 1_555 1_555
H40 C32 1_555 1_555
C33 C32 1_555 1_555
H41 C33 1_555 1_555
C34 C33 1_555 1_555
H42 C34 1_555 1_555
C35 C30 1_555 1_555
H43 C35 1_555 1_555
C36 P2 1_555 1_555
H44 C36 1_555 1_555
C37 C36 1_555 1_555
H45 C37 1_555 1_555
C38 C37 1_555 1_555
H46 C38 1_555 1_555
H47 C38 1_555 1_555
C39 C38 1_555 1_555
H48 C39 1_555 1_555
H49 C39 1_555 1_555
C40 C39 1_555 1_555
H50 C40 1_555 1_555
C41 C36 1_555 1_555
H51 C41 1_555 1_555
H52 C41 1_555 1_555
C42 C40 1_555 1_555
H53 C42 1_555 1_555
H54 C42 1_555 1_555
H55 C42 1_555 1_555
C43 C37 1_555 1_555
H56 C43 1_555 1_555
C44 C43 1_555 1_555
H57 C44 1_555 1_555
H58 C44 1_555 1_555
H59 C44 1_555 1_555
C45 C43 1_555 1_555
H60 C45 1_555 1_555
H61 C45 1_555 1_555
H62 C45 1_555 1_555
C46 O2 1_555 1_555
H63 C46 1_555 1_555
H64 C46 1_555 1_555
H65 C46 1_555 1_555
H67 B2 1_555 1_555
H68 B2 1_555 1_555
C5 C6 1_555 1_555
C11 C12 1_555 1_555
C17 C18 1_555 1_555
C28 C29 1_555 1_555
C34 C35 1_555 1_555
C40 C41 1_555 1_555

#END
