
#######################################################################
#
#                 Cambridge Crystallographic Data Centre
#                                CCDC 
#
#######################################################################
#
# If this CIF has been generated from an entry in the Cambridge 
# Structural Database, then it will include bibliographic, chemical, 
# crystal, experimental, refinement or atomic coordinate data resulting 
# from the CCDC's data processing and validation procedures.
#
#######################################################################

data_EDARAF
_chemical_formula_moiety         'C21 H32 O7'
_chemical_name_systematic        
9,15-dihydroxy-3-methoxy-2,2,9,13-tetramethyldodecahydro-1H,4aH-6,13-epoxy-7a,10-methanocyclohepta[e]pyrano[2,3-b]oxocin-1-one
_symmetry_cell_setting           orthorhombic
_symmetry_space_group_name_H-M   'P 21 21 21'
_symmetry_Int_Tables_number      19
_space_group_name_Hall           'P 2ac 2ab'
loop_
_symmetry_equiv_pos_site_id
_symmetry_equiv_pos_as_xyz
1 x,y,z
2 1/2+x,1/2-y,-z
3 -x,1/2+y,1/2-z
4 1/2-x,-y,1/2+z
_cell_length_a                   25.6570(17)
_cell_length_b                   6.1824(4)
_cell_length_c                   12.8915(7)
_cell_angle_alpha                90
_cell_angle_beta                 90
_cell_angle_gamma                90
_cell_volume                     2044.87
_exptl_crystal_colour            colorless
_exptl_crystal_description       needle
_cell_formula_units_Z            4
loop_
_atom_site_label
_atom_site_type_symbol
_atom_site_fract_x
_atom_site_fract_y
_atom_site_fract_z
C1 C 0.1262(4) -0.0589(17) 0.4919(7)
H1 H 0.1501 -0.1817 0.4987
C2 C 0.1023(4) -0.0799(19) 0.3806(7)
H2 H 0.1005 -0.2334 0.3619
C3 C 0.0166(4) -0.083(2) 0.4481(9)
H3 H -0.0186 -0.0294 0.4332
C4 C 0.0301(4) -0.023(2) 0.5600(8)
C5 C 0.0866(4) -0.0888(18) 0.5773(9)
C6 C 0.1425(5) 0.252(2) 0.3272(9)
H4 H 0.1181 0.3395 0.2863
C7 C 0.1983(4) 0.302(2) 0.2913(8)
H5 H 0.2059 0.2170 0.2297
H6 H 0.2008 0.4532 0.2728
C8 C 0.2389(4) 0.2507(18) 0.3745(8)
C9 C 0.2162(4) 0.0838(16) 0.4541(7)
H7 H 0.2105 -0.0486 0.4138
C10 C 0.1614(4) 0.1457(18) 0.4974(8)
C11 C 0.2569(4) 0.0203(19) 0.5383(9)
H8 H 0.2386 -0.0398 0.5975
H9 H 0.2793 -0.0921 0.5105
C12 C 0.2910(5) 0.209(2) 0.5754(9)
H10 H 0.3217 0.1514 0.6097
H11 H 0.2717 0.2938 0.6256
C13 C 0.3080(5) 0.356(2) 0.4846(9)
H12 H 0.3305 0.4720 0.5103
C14 C 0.2598(5) 0.4513(17) 0.4308(9)
H13 H 0.2346 0.5021 0.4824
C15 C 0.2886(4) 0.1580(18) 0.3280(9)
H14 H 0.2929 0.2080 0.2572
H15 H 0.2871 0.0013 0.3277
C16 C 0.3346(5) 0.238(2) 0.3966(10)
C17 C 0.3746(5) 0.063(3) 0.4275(12)
H16 H 0.4005 0.0500 0.3739
H17 H 0.3572 -0.0730 0.4363
H18 H 0.3912 0.1036 0.4913
C18 C -0.0053(5) -0.132(2) 0.6392(9)
H19 H 0.0012 -0.2851 0.6396
H20 H -0.0411 -0.1062 0.6211
H21 H 0.0015 -0.0737 0.7068
C19 C 0.0264(5) 0.229(2) 0.5705(12)
H22 H -0.0082 0.2754 0.5527
H23 H 0.0511 0.2954 0.5246
H24 H 0.0340 0.2700 0.6407
C20 C 0.1619(5) 0.252(2) 0.6037(8)
H25 H 0.1804 0.3865 0.5999
H26 H 0.1789 0.1578 0.6524
H27 H 0.1268 0.2777 0.6260
C21 C -0.0044(6) -0.388(3) 0.3488(10)
H28 H -0.0402 -0.3448 0.3425
H29 H -0.0023 -0.5435 0.3478
H30 H 0.0152 -0.3304 0.2918
O1 O 0.0511(3) 0.0096(14) 0.3756(5)
O2 O 0.0998(3) -0.1695(16) 0.6598(6)
O3 O 0.0160(4) -0.3108(14) 0.4421(6)
O4 O 0.1325(3) 0.0283(14) 0.3075(5)
O5 O 0.1370(3) 0.3055(11) 0.4309(6)
O6 O 0.2714(4) 0.6177(13) 0.3592(8)
H31 H 0.3030 0.6385 0.3581
O7 O 0.3639(3) 0.4071(14) 0.3417(7)
H32 H 0.3706 0.3663 0.2826
loop_
_geom_bond_atom_site_label_1
_geom_bond_atom_site_label_2
_geom_bond_site_symmetry_1
_geom_bond_site_symmetry_2
C1 H1 1_555 1_555
C2 C1 1_555 1_555
H2 C2 1_555 1_555
C3 H3 1_555 1_555
C4 C3 1_555 1_555
C5 C1 1_555 1_555
C6 H4 1_555 1_555
C7 C6 1_555 1_555
H5 C7 1_555 1_555
H6 C7 1_555 1_555
C8 C7 1_555 1_555
C9 C8 1_555 1_555
H7 C9 1_555 1_555
C10 C1 1_555 1_555
C11 C9 1_555 1_555
H8 C11 1_555 1_555
H9 C11 1_555 1_555
C12 C11 1_555 1_555
H10 C12 1_555 1_555
H11 C12 1_555 1_555
C13 C12 1_555 1_555
H12 C13 1_555 1_555
C14 C8 1_555 1_555
H13 C14 1_555 1_555
C15 C8 1_555 1_555
H14 C15 1_555 1_555
H15 C15 1_555 1_555
C16 C13 1_555 1_555
C17 C16 1_555 1_555
H16 C17 1_555 1_555
H17 C17 1_555 1_555
H18 C17 1_555 1_555
C18 C4 1_555 1_555
H19 C18 1_555 1_555
H20 C18 1_555 1_555
H21 C18 1_555 1_555
C19 C4 1_555 1_555
H22 C19 1_555 1_555
H23 C19 1_555 1_555
H24 C19 1_555 1_555
C20 C10 1_555 1_555
H25 C20 1_555 1_555
H26 C20 1_555 1_555
H27 C20 1_555 1_555
C21 H28 1_555 1_555
H29 C21 1_555 1_555
H30 C21 1_555 1_555
O1 C2 1_555 1_555
O2 C5 1_555 1_555
O3 C3 1_555 1_555
O4 C2 1_555 1_555
O5 C6 1_555 1_555
O6 C14 1_555 1_555
H31 O6 1_555 1_555
O7 C16 1_555 1_555
H32 O7 1_555 1_555
C3 O1 1_555 1_555
C4 C5 1_555 1_555
C6 O4 1_555 1_555
C9 C10 1_555 1_555
C10 O5 1_555 1_555
C13 C14 1_555 1_555
C15 C16 1_555 1_555
C21 O3 1_555 1_555

#END
