
#######################################################################
#
#                 Cambridge Crystallographic Data Centre
#                                CCDC 
#
#######################################################################
#
# If this CIF has been generated from an entry in the Cambridge 
# Structural Database, then it will include bibliographic, chemical, 
# crystal, experimental, refinement or atomic coordinate data resulting 
# from the CCDC's data processing and validation procedures.
#
#######################################################################

data_EDAXIQ03
_chemical_name_common            'L-phenylalaninium hydrogen maleate'
_chemical_formula_moiety         'C9 H12 N1 O2 1+,C4 H3 O4 1-'
_chemical_name_systematic        
'1-carboxy-2-phenylethan-1-aminium 3-carboxyprop-2-enoate'
_symmetry_cell_setting           monoclinic
_symmetry_space_group_name_H-M   'P 21'
_symmetry_Int_Tables_number      4
_space_group_name_Hall           'P 2yb'
loop_
_symmetry_equiv_pos_site_id
_symmetry_equiv_pos_as_xyz
1 x,y,z
2 -x,1/2+y,-z
_cell_length_a                   10.905(2)
_cell_length_b                   5.2338(10)
_cell_length_c                   11.439(2)
_cell_angle_alpha                90
_cell_angle_beta                 101.36(3)
_cell_angle_gamma                90
_cell_volume                     640.086
_exptl_crystal_colour            colorless
_exptl_crystal_description       block
_cell_formula_units_Z            2
loop_
_atom_site_label
_atom_site_type_symbol
_atom_site_fract_x
_atom_site_fract_y
_atom_site_fract_z
O1 O 0.09398(11) 0.4797(3) -0.38042(10)
C1 C 0.13435(9) 0.6832(2) -0.32466(9)
O2 O 0.13502(11) 0.7093(3) -0.21586(10)
C2 C 0.18056(9) 0.9027(2) -0.38813(9)
C3 C 0.18958(9) 0.9259(2) -0.50303(8)
C4 C 0.16080(9) 0.7375(2) -0.60262(8)
O3 O 0.12246(11) 0.5108(3) -0.58414(10)
O4 O 0.17820(12) 0.8024(3) -0.70279(10)
H1 H 0.2224(3) 1.1068(5) -0.5314(2)
H2 H 0.2053(3) 1.0688(5) -0.3314(2)
H3 H 0.1053(3) 0.4899(5) -0.4834(3)
O5 O 0.22401(11) 1.0900(3) -0.09239(10)
C5 C 0.16363(9) 1.0948(2) -0.00459(8)
O6 O 0.09486(10) 0.9256(3) 0.01774(10)
C6 C 0.18084(8) 1.3412(2) 0.06700(8)
N1 N 0.12404(6) 1.3033(2) 0.17391(6)
H4 H 0.1348(3) 1.4678(6) 0.2256(2)
H5 H 0.1613(3) 1.1467(6) 0.2250(2)
H6 H 0.0294(2) 1.2663(6) 0.1498(2)
C7 C 0.31497(9) 1.4413(2) 0.10135(8)
C8 C 0.40380(9) 1.2666(2) 0.18219(8)
C9 C 0.41924(9) 1.2907(2) 0.30587(8)
C10 C 0.49976(10) 1.1277(3) 0.38181(9)
C11 C 0.56617(9) 0.9395(3) 0.33456(8)
C12 C 0.55255(9) 0.9154(3) 0.21131(9)
C13 C 0.47136(9) 1.0775(2) 0.13570(9)
H7 H 0.4592(3) 1.0570(6) 0.0392(2)
H8 H 0.6056(3) 0.7704(6) 0.1741(3)
H9 H 0.6289(3) 0.8129(7) 0.3939(2)
H10 H 0.5115(3) 1.1508(7) 0.4775(2)
H11 H 0.3696(3) 1.4408(6) 0.3429(2)
H12 H 0.3114(3) 1.6287(5) 0.1434(2)
H13 H 0.3472(2) 1.4738(6) 0.0173(2)
H14 H 0.1255(2) 1.4865(5) 0.0116(2)
H15 H 0.1928(2) 0.9300(6) -0.1457(2)
loop_
_geom_bond_atom_site_label_1
_geom_bond_atom_site_label_2
_geom_bond_site_symmetry_1
_geom_bond_site_symmetry_2
O1 C1 1_555 1_555
C1 O2 1_555 1_555
C2 C1 1_555 1_555
C3 C2 1_555 1_555
C4 C3 1_555 1_555
O3 C4 1_555 1_555
O4 C4 1_555 1_555
H1 C3 1_555 1_555
H2 C2 1_555 1_555
H3 O3 1_555 1_555
O5 C5 1_555 1_555
C5 O6 1_555 1_555
C6 C5 1_555 1_555
N1 C6 1_555 1_555
H4 N1 1_555 1_555
H5 N1 1_555 1_555
H6 N1 1_555 1_555
C7 C6 1_555 1_555
C8 C7 1_555 1_555
C9 C8 1_555 1_555
C10 C9 1_555 1_555
C11 C10 1_555 1_555
C12 C11 1_555 1_555
C13 C8 1_555 1_555
H7 C13 1_555 1_555
H8 C12 1_555 1_555
H9 C11 1_555 1_555
H10 C10 1_555 1_555
H11 C9 1_555 1_555
H12 C7 1_555 1_555
H13 C7 1_555 1_555
H14 C6 1_555 1_555
H15 O5 1_555 1_555
C12 C13 1_555 1_555

#END
