
#######################################################################
#
#                 Cambridge Crystallographic Data Centre
#                                CCDC 
#
#######################################################################
#
# If this CIF has been generated from an entry in the Cambridge 
# Structural Database, then it will include bibliographic, chemical, 
# crystal, experimental, refinement or atomic coordinate data resulting 
# from the CCDC's data processing and validation procedures.
#
#######################################################################

data_EDAXIQ05
_chemical_formula_moiety         'C9 H12 N1 O2 1+,C4 H3 O4 1-'
_chemical_name_systematic        'L-phenylalaninium hydrogen maleate'
_symmetry_cell_setting           monoclinic
_symmetry_space_group_name_H-M   'P 21'
_symmetry_Int_Tables_number      4
_space_group_name_Hall           'P 2yb'
loop_
_symmetry_equiv_pos_site_id
_symmetry_equiv_pos_as_xyz
1 x,y,z
2 -x,1/2+y,-z
_cell_length_a                   10.905(2)
_cell_length_b                   5.2338(10)
_cell_length_c                   11.439(2)
_cell_angle_alpha                90
_cell_angle_beta                 101.36(3)
_cell_angle_gamma                90
_cell_volume                     640.086
_exptl_crystal_colour            colorless
_exptl_crystal_description       block
_cell_formula_units_Z            2
loop_
_atom_site_label
_atom_site_type_symbol
_atom_site_fract_x
_atom_site_fract_y
_atom_site_fract_z
O1 O 0.09516(2) 0.4786(3) -0.38078(2)
O2 O 0.12318(2) 0.5095(3) -0.58415(2)
O3 O 0.13521(2) 0.7084(3) -0.21652(2)
O4 O 0.17832(2) 0.8004(3) -0.70331(2)
C1 C 0.13464(2) 0.6824(3) -0.32530(2)
C2 C 0.18015(2) 0.9012(3) -0.38884(2)
C3 C 0.18958(2) 0.9238(3) -0.50385(2)
C4 C 0.16122(2) 0.7356(3) -0.60348(2)
H1 H 0.108(1) 0.490(3) -0.482(1)
H2 H 0.205(1) 1.067(2) -0.3353(8)
H3 H 0.223(1) 1.103(2) -0.5310(8)
O5 O 0.22350(2) 1.0886(3) -0.09277(2)
O6 O 0.09514(2) 0.9225(3) 0.01777(2)
N1 N 0.12387(2) 1.2983(3) 0.17420(2)
C5 C 0.16349(2) 1.0922(3) -0.00443(2)
C6 C 0.18067(2) 1.3373(3) 0.06745(2)
C7 C 0.31499(2) 1.4370(3) 0.10137(2)
C8 C 0.40364(2) 1.2627(3) 0.18246(2)
C9 C 0.41968(2) 1.2878(3) 0.30620(2)
C10 C 0.49986(3) 1.1253(3) 0.38180(2)
C11 C 0.56582(2) 0.9369(3) 0.33443(2)
C12 C 0.55181(2) 0.9116(3) 0.21135(2)
C13 C 0.47072(2) 1.0735(3) 0.13591(2)
H4 H 0.137(1) 1.462(2) 0.2237(9)
H5 H 0.1611(9) 1.145(2) 0.2191(9)
H6 H 0.0284(8) 1.259(2) 0.1514(9)
H7 H 0.191(1) 0.936(3) -0.147(1)
H8 H 0.1241(8) 1.484(2) 0.0128(8)
H9 H 0.3113(9) 1.624(2) 0.1428(8)
H10 H 0.3460(9) 1.469(2) 0.0183(7)
H11 H 0.3685(8) 1.440(2) 0.3399(8)
H12 H 0.5120(9) 1.146(2) 0.4803(7)
H13 H 0.6284(9) 0.811(2) 0.3954(8)
H14 H 0.6043(9) 0.768(2) 0.1718(8)
H15 H 0.4605(9) 1.056(2) 0.0400(8)
loop_
_geom_bond_atom_site_label_1
_geom_bond_atom_site_label_2
_geom_bond_site_symmetry_1
_geom_bond_site_symmetry_2
O1 C1 1_555 1_555
O2 C4 1_555 1_555
O3 C1 1_555 1_555
O4 C4 1_555 1_555
C1 C2 1_555 1_555
C2 C3 1_555 1_555
C3 C4 1_555 1_555
H1 O1 1_555 1_555
H2 C2 1_555 1_555
H3 C3 1_555 1_555
O5 C5 1_555 1_555
O6 C5 1_555 1_555
N1 C6 1_555 1_555
C5 C6 1_555 1_555
C6 C7 1_555 1_555
C7 C8 1_555 1_555
C8 C9 1_555 1_555
C9 C10 1_555 1_555
C10 C11 1_555 1_555
C11 C12 1_555 1_555
C12 C13 1_555 1_555
C13 C8 1_555 1_555
H4 N1 1_555 1_555
H5 N1 1_555 1_555
H6 N1 1_555 1_555
H7 O5 1_555 1_555
H8 C6 1_555 1_555
H9 C7 1_555 1_555
H10 C7 1_555 1_555
H11 C9 1_555 1_555
H12 C10 1_555 1_555
H13 C11 1_555 1_555
H14 C12 1_555 1_555
H15 C13 1_555 1_555
O2 H1 1_555 1_555

#END
