
#######################################################################
#
#                 Cambridge Crystallographic Data Centre
#                                CCDC 
#
#######################################################################
#
# If this CIF has been generated from an entry in the Cambridge 
# Structural Database, then it will include bibliographic, chemical, 
# crystal, experimental, refinement or atomic coordinate data resulting 
# from the CCDC's data processing and validation procedures.
#
#######################################################################

data_EDAXUC
_chemical_compound_source        'fruit of Melicope ellyrana'
_chemical_name_common            4,5'-Dihydroxy-3,3',7-trimethoxyflavone
_chemical_formula_moiety         'C18 H16 O7'
_chemical_name_systematic        Pachypodol
_symmetry_cell_setting           triclinic
_symmetry_space_group_name_H-M   'P -1'
_symmetry_Int_Tables_number      2
_space_group_name_Hall           '-P 1'
loop_
_symmetry_equiv_pos_site_id
_symmetry_equiv_pos_as_xyz
1 x,y,z
2 -x,-y,-z
_cell_length_a                   9.399(6)
_cell_length_b                   11.836(9)
_cell_length_c                   8.041(3)
_cell_angle_alpha                97.64(5)
_cell_angle_beta                 111.08(3)
_cell_angle_gamma                71.83(7)
_cell_volume                     792.832
_exptl_crystal_colour            yellow
_exptl_crystal_description       prismatic
_cell_formula_units_Z            2
_exptl_crystal_recrystallization_method n-hexane
loop_
_atom_site_label
_atom_site_type_symbol
_atom_site_fract_x
_atom_site_fract_y
_atom_site_fract_z
O1 O 0.5549(2) 0.67398(16) 0.4730(3)
O2 O 0.7168(3) 0.30782(19) 0.1726(3)
O3 O 0.1697(2) 0.87229(17) 0.4575(3)
O4 O 0.7394(3) 1.0726(2) 1.0165(3)
O5 O 0.4334(2) 1.16198(17) 0.8146(3)
O6 O 0.0885(3) 0.6939(2) 0.2185(3)
O7 O 0.1743(3) 0.4917(2) 0.0539(3)
C1 C 0.4398(3) 0.7707(2) 0.5028(4)
C2 C 0.2840(3) 0.7803(2) 0.4158(4)
C3 C 0.2329(4) 0.6885(3) 0.2918(4)
C4 C 0.3578(3) 0.5905(2) 0.2616(4)
C5 C 0.3259(4) 0.4943(3) 0.1424(4)
C6 C 0.4496(4) 0.4029(3) 0.1164(4)
C7 C 0.6058(4) 0.4030(2) 0.2094(4)
C8 C 0.6428(4) 0.4942(3) 0.3299(4)
C9 C 0.5163(3) 0.5859(2) 0.3514(4)
C10 C 0.5142(3) 0.8505(2) 0.6393(4)
C11 C 0.6709(4) 0.8100(3) 0.7484(4)
C12 C 0.7448(4) 0.8843(3) 0.8746(4)
C13 C 0.6618(3) 1.0015(3) 0.8936(4)
C14 C 0.5040(3) 1.0443(2) 0.7858(4)
C15 C 0.4307(3) 0.9697(3) 0.6611(4)
C16 C 0.2678(4) 1.2085(3) 0.7215(5)
C17 C 0.0697(4) 0.9524(3) 0.3142(5)
C18 C 0.8813(5) 0.2993(3) 0.2640(6)
H1 H 0.672(4) 1.135(3) 1.015(5)
H2 H 0.4282 0.3398 0.0342
H3 H 0.7287 0.7294 0.7367
H4 H 0.8528 0.8545 0.9486
H5 H 0.3221 0.9994 0.5897
H6 H 0.2289 1.2846 0.7701
H7 H -0.0047 1.0138 0.3534
H8 H 0.1336 0.9858 0.2785
H9 H 0.0149 0.9099 0.2162
H10 H 0.9042 0.2967 0.3882
H11 H 0.9446 0.2288 0.2246
H12 H 0.9037 0.3665 0.2377
H13 H 0.117(4) 0.559(3) 0.095(5)
H14 H 0.7498 0.4945 0.3940
H15 H 0.2508 1.2160 0.5986
H16 H 0.2125 1.1564 0.7315
loop_
_geom_bond_atom_site_label_1
_geom_bond_atom_site_label_2
_geom_bond_site_symmetry_1
_geom_bond_site_symmetry_2
O1 C1 1_555 1_555
O2 C7 1_555 1_555
O3 C2 1_555 1_555
O4 C13 1_555 1_555
O5 C14 1_555 1_555
O6 C3 1_555 1_555
O7 C5 1_555 1_555
C1 C2 1_555 1_555
C2 C3 1_555 1_555
C3 C4 1_555 1_555
C4 C5 1_555 1_555
C5 C6 1_555 1_555
C6 C7 1_555 1_555
C7 C8 1_555 1_555
C8 C9 1_555 1_555
C9 O1 1_555 1_555
C10 C1 1_555 1_555
C11 C10 1_555 1_555
C12 C11 1_555 1_555
C13 C12 1_555 1_555
C14 C13 1_555 1_555
C15 C10 1_555 1_555
C16 O5 1_555 1_555
C17 O3 1_555 1_555
C18 O2 1_555 1_555
H1 O4 1_555 1_555
H2 C6 1_555 1_555
H3 C11 1_555 1_555
H4 C12 1_555 1_555
H5 C15 1_555 1_555
H6 C16 1_555 1_555
H7 C17 1_555 1_555
H8 C17 1_555 1_555
H9 C17 1_555 1_555
H10 C18 1_555 1_555
H11 C18 1_555 1_555
H12 C18 1_555 1_555
H13 O7 1_555 1_555
H14 C8 1_555 1_555
H15 C16 1_555 1_555
H16 C16 1_555 1_555
C4 C9 1_555 1_555
C14 C15 1_555 1_555

#END
