
#######################################################################
#
#                 Cambridge Crystallographic Data Centre
#                                CCDC 
#
#######################################################################
#
# If this CIF has been generated from an entry in the Cambridge 
# Structural Database, then it will include bibliographic, chemical, 
# crystal, experimental, refinement or atomic coordinate data resulting 
# from the CCDC's data processing and validation procedures.
#
#######################################################################

data_EDAZIU
_chemical_formula_moiety         'C14 H20 O4'
_chemical_name_systematic        
'Methyl 3-isopropylidene-9-methyl-2-oxo-1-oxaspiro[4.4]nonane-6-carboxylate'
_symmetry_cell_setting           monoclinic
_symmetry_space_group_name_H-M   'P 21/c'
_symmetry_Int_Tables_number      14
_space_group_name_Hall           '-P 2ybc'
loop_
_symmetry_equiv_pos_site_id
_symmetry_equiv_pos_as_xyz
1 x,y,z
2 -x,1/2+y,1/2-z
3 -x,-y,-z
4 x,1/2-y,1/2+z
_cell_length_a                   7.900(3)
_cell_length_b                   6.278(2)
_cell_length_c                   26.961(8)
_cell_angle_alpha                90
_cell_angle_beta                 91.79(2)
_cell_angle_gamma                90
_cell_volume                     1336.51
_exptl_crystal_colour            colorless
_exptl_crystal_description       plate
_cell_formula_units_Z            4
loop_
_atom_site_label
_atom_site_type_symbol
_atom_site_fract_x
_atom_site_fract_y
_atom_site_fract_z
O1 O 0.9766(3) 0.8650(5) 0.14719(10)
O2 O 1.0743(3) 0.5359(5) 0.12797(10)
O3 O 0.5796(3) 0.7016(4) 0.14594(9)
O4 O 0.5269(4) 0.9078(5) 0.07960(10)
C1 C 0.6944(6) 0.7397(7) -0.01212(15)
H1 H 0.6288 0.8533 0.0032
H2 H 0.6342 0.6893 -0.0422
H3 H 0.8057 0.7948 -0.0208
C2 C 0.7168(4) 0.5581(7) 0.02387(13)
C3 C 0.6727(5) 0.5637(6) 0.07127(13)
C4 C 0.6963(5) 0.3886(7) 0.10962(13)
H4 H 0.8101 0.3234 0.1079
H5 H 0.6094 0.2761 0.1050
C5 C 0.6755(5) 0.5068(6) 0.15901(14)
C6 C 0.8451(5) 0.5728(7) 0.18590(13)
H6 H 0.8213 0.6899 0.2098
C7 C 0.9787(5) 0.6483(7) 0.15113(14)
C8 C 1.0919(6) 0.9537(7) 0.11155(17)
H7 H 1.2060 0.8970 0.1181
H8 H 1.0940 1.1092 0.1147
H9 H 1.0534 0.9146 0.0779
C9 C 0.8950(5) 0.3700(7) 0.21570(15)
H10 H 0.9461 0.4085 0.2485
H11 H 0.9773 0.2836 0.1974
C10 C 0.7268(5) 0.2448(7) 0.22191(16)
H12 H 0.7303 0.1074 0.2039
H13 H 0.7082 0.2157 0.2574
C11 C 0.5846(5) 0.3875(7) 0.19998(14)
H14 H 0.5547 0.4938 0.2259
C12 C 0.4212(5) 0.2726(7) 0.18331(16)
H15 H 0.3496 0.3699 0.1634
H16 H 0.3602 0.2266 0.2125
H17 H 0.4494 0.1480 0.1633
C13 C 0.5885(5) 0.7443(7) 0.09637(15)
C14 C 0.7919(5) 0.3574(7) 0.00203(15)
H18 H 0.8464 0.2730 0.0286
H19 H 0.8761 0.3966 -0.0223
H20 H 0.7018 0.2734 -0.0143
loop_
_geom_bond_atom_site_label_1
_geom_bond_atom_site_label_2
_geom_bond_site_symmetry_1
_geom_bond_site_symmetry_2
O1 C7 1_555 1_555
O2 C7 1_555 1_555
O3 C5 1_555 1_555
O4 C13 1_555 1_555
C1 H1 1_555 1_555
H2 C1 1_555 1_555
H3 C1 1_555 1_555
C2 C1 1_555 1_555
C3 C2 1_555 1_555
C4 C3 1_555 1_555
H4 C4 1_555 1_555
H5 C4 1_555 1_555
C5 C4 1_555 1_555
C6 C5 1_555 1_555
H6 C6 1_555 1_555
C7 C6 1_555 1_555
C8 O1 1_555 1_555
H7 C8 1_555 1_555
H8 C8 1_555 1_555
H9 C8 1_555 1_555
C9 C6 1_555 1_555
H10 C9 1_555 1_555
H11 C9 1_555 1_555
C10 C9 1_555 1_555
H12 C10 1_555 1_555
H13 C10 1_555 1_555
C11 C5 1_555 1_555
H14 C11 1_555 1_555
C12 C11 1_555 1_555
H15 C12 1_555 1_555
H16 C12 1_555 1_555
H17 C12 1_555 1_555
C13 O3 1_555 1_555
C14 C2 1_555 1_555
H18 C14 1_555 1_555
H19 C14 1_555 1_555
H20 C14 1_555 1_555
C3 C13 1_555 1_555
C10 C11 1_555 1_555

#END
