
#######################################################################
#
#                 Cambridge Crystallographic Data Centre
#                                CCDC 
#
#######################################################################
#
# If this CIF has been generated from an entry in the Cambridge 
# Structural Database, then it will include bibliographic, chemical, 
# crystal, experimental, refinement or atomic coordinate data resulting 
# from the CCDC's data processing and validation procedures.
#
#######################################################################

data_EDAZOA
_chemical_formula_moiety         'C17 H16 Br1 N1 O4'
_chemical_name_systematic        
3-(4-Bromobenzoyl)-5a-methylhexahydro-2H-pentaleno[1,6a-d][1,3]oxazole-2,6(3H)-dione
_symmetry_cell_setting           monoclinic
_symmetry_space_group_name_H-M   'C 2'
_symmetry_Int_Tables_number      5
_space_group_name_Hall           'C 2y'
loop_
_symmetry_equiv_pos_site_id
_symmetry_equiv_pos_as_xyz
1 x,y,z
2 -x,y,-z
3 1/2+x,1/2+y,z
4 1/2-x,1/2+y,-z
_cell_length_a                   19.8802(12)
_cell_length_b                   6.2307(4)
_cell_length_c                   12.7748(8)
_cell_angle_alpha                90
_cell_angle_beta                 95.433(4)
_cell_angle_gamma                90
_cell_volume                     1575.27
_exptl_crystal_colour            colorless
_exptl_crystal_description       needle
_cell_formula_units_Z            4
loop_
_atom_site_label
_atom_site_type_symbol
_atom_site_fract_x
_atom_site_fract_y
_atom_site_fract_z
Br1 Br 0.544099(16) 0.61115(7) 0.37907(2)
O1 O 0.65944(14) 0.0432(4) -0.4903(2)
O2 O 0.72868(11) 0.3208(4) -0.14863(18)
O3 O 0.70944(11) 0.4270(4) 0.01232(19)
O4 O 0.59461(13) -0.1288(5) -0.0004(2)
N1 N 0.65022(13) 0.1437(5) -0.07163(19)
C1 C 0.69142(17) 0.0833(7) -0.4076(3)
C2 C 0.7602(2) 0.0009(7) -0.3728(3)
H1 H 0.7946 0.0779 -0.4095
H2 H 0.7631 -0.1542 -0.3886
C3 C 0.77186(19) 0.0384(7) -0.2552(3)
H3 H 0.8120 0.1306 -0.2386
H4 H 0.7794 -0.0997 -0.2177
C4 C 0.70884(17) 0.1484(6) -0.2221(2)
C5 C 0.65895(17) 0.0098(6) -0.1650(3)
H5 H 0.6780 -0.1349 -0.1454
C6 C 0.59371(18) -0.0052(7) -0.2400(3)
H6 H 0.5944 -0.1335 -0.2855
H7 H 0.5534 -0.0118 -0.2001
C7 C 0.59384(18) 0.2000(7) -0.3048(3)
H8 H 0.5656 0.1832 -0.3724
H9 H 0.5765 0.3225 -0.2659
C8 C 0.66758(18) 0.2338(6) -0.3230(3)
C9 C 0.69658(16) 0.3082(6) -0.0602(3)
C10 C 0.61431(18) 0.0539(5) 0.0075(3)
C11 C 0.59865(16) 0.1949(6) 0.0961(3)
C12 C 0.57374(16) 0.4001(6) 0.0801(3)
H10 H 0.5699 0.4591 0.0112
C13 C 0.55408(16) 0.5223(6) 0.1633(3)
H11 H 0.5352 0.6614 0.1518
C14 C 0.56280(17) 0.4351(6) 0.2631(3)
C15 C 0.58666(18) 0.2302(6) 0.2817(3)
H12 H 0.5912 0.1735 0.3510
C16 C 0.60385(15) 0.1081(8) 0.1982(2)
H13 H 0.6193 -0.0351 0.2097
C17 C 0.6855(2) 0.4627(7) -0.3531(3)
H14 H 0.6766 0.5609 -0.2961
H15 H 0.6580 0.5044 -0.4175
H16 H 0.7335 0.4696 -0.3649
loop_
_geom_bond_atom_site_label_1
_geom_bond_atom_site_label_2
_geom_bond_site_symmetry_1
_geom_bond_site_symmetry_2
Br1 C14 1_555 1_555
O1 C1 1_555 1_555
O2 C4 1_555 1_555
O3 C9 1_555 1_555
O4 C10 1_555 1_555
N1 C5 1_555 1_555
C1 C2 1_555 1_555
C2 H1 1_555 1_555
H2 C2 1_555 1_555
C3 C2 1_555 1_555
H3 C3 1_555 1_555
H4 C3 1_555 1_555
C4 C3 1_555 1_555
C5 C4 1_555 1_555
H5 C5 1_555 1_555
C6 C5 1_555 1_555
H6 C6 1_555 1_555
H7 C6 1_555 1_555
C7 C6 1_555 1_555
H8 C7 1_555 1_555
H9 C7 1_555 1_555
C8 C1 1_555 1_555
C9 O2 1_555 1_555
C10 N1 1_555 1_555
C11 C10 1_555 1_555
C12 C11 1_555 1_555
H10 C12 1_555 1_555
C13 C12 1_555 1_555
H11 C13 1_555 1_555
C14 C13 1_555 1_555
C15 C14 1_555 1_555
H12 C15 1_555 1_555
C16 C11 1_555 1_555
H13 C16 1_555 1_555
C17 C8 1_555 1_555
H14 C17 1_555 1_555
H15 C17 1_555 1_555
H16 C17 1_555 1_555
N1 C9 1_555 1_555
C4 C8 1_555 1_555
C7 C8 1_555 1_555
C15 C16 1_555 1_555

#END
