
#######################################################################
#
#                 Cambridge Crystallographic Data Centre
#                                CCDC 
#
#######################################################################
#
# If this CIF has been generated from an entry in the Cambridge 
# Structural Database, then it will include bibliographic, chemical, 
# crystal, experimental, refinement or atomic coordinate data resulting 
# from the CCDC's data processing and validation procedures.
#
#######################################################################

data_EDEFOI
_chemical_formula_moiety         'C32 H24 N6'
_chemical_name_systematic        
N,N,N',N'-tetrakis(2-pyridyl)-1,1-biphenyl-4,4'-diamine
_symmetry_cell_setting           monoclinic
_symmetry_space_group_name_H-M   'P 21/c'
_symmetry_Int_Tables_number      14
_space_group_name_Hall           '-P 2ybc'
loop_
_symmetry_equiv_pos_site_id
_symmetry_equiv_pos_as_xyz
1 x,y,z
2 -x,1/2+y,1/2-z
3 -x,-y,-z
4 x,1/2-y,1/2+z
_cell_length_a                   11.6017(12)
_cell_length_b                   10.5589(11)
_cell_length_c                   10.3432(11)
_cell_angle_alpha                90
_cell_angle_beta                 100.194(3)
_cell_angle_gamma                90
_cell_volume                     1247.05
_chemical_melting_point          225-227deg.C
_cell_formula_units_Z            2
_exptl_crystal_recrystallization_method dichloromethane/hexane
loop_
_atom_site_label
_atom_site_type_symbol
_atom_site_fract_x
_atom_site_fract_y
_atom_site_fract_z
N1 N 0.3490(3) 0.5428(3) -0.0031(3)
C1 C 0.2568(3) 0.5504(3) 0.0674(3)
N2 N 0.4443(3) 0.5918(3) 0.3607(3)
C2 C 0.1499(3) 0.5173(3) 0.0165(3)
N3 N 0.2809(2) 0.5938(3) 0.1965(3)
C3 C 0.1284(3) 0.4731(5) -0.1051(4)
C4 C 0.2116(4) 0.4611(4) -0.1835(4)
C5 C 0.3214(3) 0.4978(4) -0.1301(3)
C6 C 0.3884(3) 0.6480(4) 0.2535(3)
C7 C 0.4328(3) 0.7506(4) 0.1983(3)
C8 C 0.5413(3) 0.7973(4) 0.2566(4)
C9 C 0.5999(3) 0.7397(4) 0.3674(4)
C10 C 0.5490(3) 0.6398(4) 0.4146(3)
C11 C 0.2004(3) 0.5635(4) 0.2845(3)
C12 C 0.1587(3) 0.6592(4) 0.3530(4)
C13 C 0.0821(3) 0.6334(5) 0.4371(4)
C14 C 0.0431(3) 0.5132(4) 0.4557(3)
C15 C 0.0868(3) 0.4184(4) 0.3882(4)
C16 C 0.1647(3) 0.4426(4) 0.3034(4)
H1 H 0.0899 0.5248 0.0649
H2 H 0.0522 0.4485 -0.1395
H3 H 0.1934 0.4296 -0.2686
H4 H 0.3802 0.4926 -0.1806
H5 H 0.3911 0.7883 0.1230
H6 H 0.5737 0.8667 0.2209
H7 H 0.6728 0.7688 0.4087
H8 H 0.5892 0.6011 0.4901
H9 H 0.1823 0.7422 0.3426
H10 H 0.0558 0.6999 0.4831
H11 H 0.0638 0.3354 0.3993
H12 H 0.1927 0.3759 0.2591
C14B C -0.0431(3) 0.4868(4) 0.5443(3)
C13B C -0.0821(3) 0.3666(5) 0.5629(4)
C12B C -0.1587(3) 0.3408(4) 0.6470(4)
C11B C -0.2004(3) 0.4365(4) 0.7155(3)
N3B N -0.2809(2) 0.4062(3) 0.8035(3)
C1B C -0.2568(3) 0.4496(3) 0.9326(3)
N1B N -0.3490(3) 0.4572(3) 1.0031(3)
C5B C -0.3214(3) 0.5022(4) 1.1301(3)
C4B C -0.2116(4) 0.5389(4) 1.1835(4)
C3B C -0.1284(3) 0.5269(5) 1.1051(4)
C2B C -0.1499(3) 0.4827(3) 0.9835(3)
H1B H -0.0899 0.4752 0.9351
H2B H -0.0522 0.5515 1.1395
H3B H -0.1934 0.5704 1.2686
H4B H -0.3802 0.5074 1.1806
C6B C -0.3884(3) 0.3520(4) 0.7465(3)
N2B N -0.4443(3) 0.4082(3) 0.6393(3)
C10B C -0.5490(3) 0.3602(4) 0.5854(3)
C9B C -0.5999(3) 0.2603(4) 0.6326(4)
C8B C -0.5413(3) 0.2027(4) 0.7434(4)
C7B C -0.4328(3) 0.2494(4) 0.8017(3)
H5B H -0.3911 0.2117 0.8770
H6B H -0.5737 0.1333 0.7791
H7B H -0.6728 0.2312 0.5913
H8B H -0.5892 0.3989 0.5099
C16B C -0.1647(3) 0.5574(4) 0.6966(4)
C15B C -0.0868(3) 0.5816(4) 0.6118(4)
H11B H -0.0638 0.6646 0.6007
H12B H -0.1927 0.6241 0.7409
H9B H -0.1823 0.2578 0.6574
H10B H -0.0558 0.3001 0.5169
loop_
_geom_bond_atom_site_label_1
_geom_bond_atom_site_label_2
_geom_bond_site_symmetry_1
_geom_bond_site_symmetry_2
N1 C1 1_555 1_555
C1 C2 1_555 1_555
N2 C6 1_555 1_555
C2 C3 1_555 1_555
N3 C1 1_555 1_555
C3 C4 1_555 1_555
C4 C5 1_555 1_555
C5 N1 1_555 1_555
C6 N3 1_555 1_555
C7 C6 1_555 1_555
C8 C7 1_555 1_555
C9 C8 1_555 1_555
C10 N2 1_555 1_555
C11 N3 1_555 1_555
C12 C11 1_555 1_555
C13 C12 1_555 1_555
C14 C13 1_555 1_555
C15 C14 1_555 1_555
C16 C11 1_555 1_555
H1 C2 1_555 1_555
H2 C3 1_555 1_555
H3 C4 1_555 1_555
H4 C5 1_555 1_555
H5 C7 1_555 1_555
H6 C8 1_555 1_555
H7 C9 1_555 1_555
H8 C10 1_555 1_555
H9 C12 1_555 1_555
H10 C13 1_555 1_555
H11 C15 1_555 1_555
H12 C16 1_555 1_555
C14B C14 1_555 1_555
C13B C14B 1_555 1_555
C12B C13B 1_555 1_555
C11B C12B 1_555 1_555
N3B C11B 1_555 1_555
C1B N3B 1_555 1_555
N1B C1B 1_555 1_555
C5B N1B 1_555 1_555
C4B C5B 1_555 1_555
C3B C4B 1_555 1_555
C2B C1B 1_555 1_555
H1B C2B 1_555 1_555
H2B C3B 1_555 1_555
H3B C4B 1_555 1_555
H4B C5B 1_555 1_555
C6B N3B 1_555 1_555
N2B C6B 1_555 1_555
C10B N2B 1_555 1_555
C9B C10B 1_555 1_555
C8B C9B 1_555 1_555
C7B C6B 1_555 1_555
H5B C7B 1_555 1_555
H6B C8B 1_555 1_555
H7B C9B 1_555 1_555
H8B C10B 1_555 1_555
C16B C11B 1_555 1_555
C15B C14B 1_555 1_555
H11B C15B 1_555 1_555
H12B C16B 1_555 1_555
H9B C12B 1_555 1_555
H10B C13B 1_555 1_555
C9 C10 1_555 1_555
C15 C16 1_555 1_555
C3B C2B 1_555 1_555
C8B C7B 1_555 1_555
C16B C15B 1_555 1_555

#END
