
#######################################################################
#
#                 Cambridge Crystallographic Data Centre
#                                CCDC 
#
#######################################################################
#
# If this CIF has been generated from an entry in the Cambridge 
# Structural Database, then it will include bibliographic, chemical, 
# crystal, experimental, refinement or atomic coordinate data resulting 
# from the CCDC's data processing and validation procedures.
#
#######################################################################

data_EDEJIJ
_chemical_formula_moiety         'C3 H7 N8 1+,C2 H1 N4 O3 1-'
_chemical_name_systematic        
'3,6,7-triamino-7H-[1,2,4]triazolo[4,3-b][1,2,4]triazol-2-ium 5-methyl-3-nitro-1,5-dihydro-1,2,4-triazol-4-ide'
_symmetry_cell_setting           triclinic
_symmetry_space_group_name_H-M   'P -1'
_symmetry_Int_Tables_number      2
_space_group_name_Hall           '-P 1'
loop_
_symmetry_equiv_pos_site_id
_symmetry_equiv_pos_as_xyz
1 x,y,z
2 -x,-y,-z
_cell_length_a                   5.6694(4)
_cell_length_b                   10.0497(5)
_cell_length_c                   10.3125(5)
_cell_angle_alpha                79.214(4)
_cell_angle_beta                 79.689(5)
_cell_angle_gamma                77.498(5)
_cell_volume                     557.591
_exptl_crystal_colour            colorless
_exptl_crystal_description       block
_cell_formula_units_Z            2
loop_
_atom_site_label
_atom_site_type_symbol
_atom_site_fract_x
_atom_site_fract_y
_atom_site_fract_z
O1 O -0.4265(3) 1.12304(16) 0.34475(17)
O2 O 0.4424(4) 0.9326(2) 0.1560(2)
N1 N -0.0256(4) 1.02433(19) 0.2615(2)
O3 O 0.4640(4) 0.7455(2) 0.3011(2)
N2 N 0.0071(4) 0.8290(2) 0.4142(2)
N3 N -0.2174(4) 0.91053(19) 0.4362(2)
H1 H -0.3313 0.8901 0.4993
N4 N 0.3552(4) 0.8573(2) 0.2511(2)
C1 C -0.2386(4) 1.0280(2) 0.3459(2)
C2 C 0.1067(4) 0.9040(2) 0.3101(2)
N5 N 0.7921(4) 0.61215(19) 0.07892(19)
N6 N 0.9877(4) 0.5399(2) 0.24683(19)
N7 N 0.9273(4) 0.7856(2) -0.0328(2)
H2 H 0.9479 0.8548 -0.0941
N8 N 0.6919(4) 0.49791(19) 0.14715(19)
N9 N 1.0641(4) 0.7437(2) 0.0737(2)
N10 N 0.7899(4) 0.3552(2) 0.3463(2)
H3 H 0.6820 0.3066 0.3471
H4 H 0.8794 0.3364 0.4089
N11 N 1.1496(4) 0.5153(2) 0.3400(2)
H5 H 1.2980 0.5042 0.3001
N12 N 0.6107(4) 0.7151(2) -0.1158(2)
H6 H 0.6098 0.7769 -0.1859
H7 H 0.5128 0.6577 -0.1014
C3 C 0.8184(4) 0.4591(2) 0.2486(2)
C4 C 0.7632(4) 0.7082(2) -0.0299(2)
C5 C 0.9694(4) 0.6387(2) 0.1365(2)
H8 H 1.121(7) 0.600(4) 0.388(4)
H9? H 1.1284 0.4416 0.3950
loop_
_geom_bond_atom_site_label_1
_geom_bond_atom_site_label_2
_geom_bond_site_symmetry_1
_geom_bond_site_symmetry_2
O1 C1 1_555 1_555
O2 N4 1_555 1_555
N1 C1 1_555 1_555
O3 N4 1_555 1_555
N2 N3 1_555 1_555
N3 H1 1_555 1_555
N4 C2 1_555 1_555
C1 N3 1_555 1_555
C2 N1 1_555 1_555
N5 N8 1_555 1_555
N6 N11 1_555 1_555
N7 H2 1_555 1_555
N8 C3 1_555 1_555
N9 N7 1_555 1_555
N10 H3 1_555 1_555
H4 N10 1_555 1_555
N11 H5 1_555 1_555
N12 H6 1_555 1_555
H7 N12 1_555 1_555
C3 N6 1_555 1_555
C4 N5 1_555 1_555
C5 N5 1_555 1_555
H8 N11 1_555 1_555
N2 C2 1_555 1_555
N6 C5 1_555 1_555
N7 C4 1_555 1_555
N9 C5 1_555 1_555
N10 C3 1_555 1_555
N12 C4 1_555 1_555

#END
