
#######################################################################
#
#                 Cambridge Crystallographic Data Centre
#                                CCDC 
#
#######################################################################
#
# If this CIF has been generated from an entry in the Cambridge 
# Structural Database, then it will include bibliographic, chemical, 
# crystal, experimental, refinement or atomic coordinate data resulting 
# from the CCDC's data processing and validation procedures.
#
#######################################################################

data_EDELUV
_chemical_formula_moiety         'C10 H14 N4 O1,2(C2 H4 O2)'
_chemical_name_systematic        
'(E)-1-(4-(Dimethylamino)benzylidene)semicarbazide acetic acid'
_symmetry_cell_setting           triclinic
_symmetry_space_group_name_H-M   'P -1'
_symmetry_Int_Tables_number      2
_space_group_name_Hall           '-P 1'
loop_
_symmetry_equiv_pos_site_id
_symmetry_equiv_pos_as_xyz
1 x,y,z
2 -x,-y,-z
_cell_length_a                   7.2931(2)
_cell_length_b                   10.7952(8)
_cell_length_c                   12.2472(7)
_cell_angle_alpha                71.422(17)
_cell_angle_beta                 80.020(4)
_cell_angle_gamma                73.947(4)
_cell_volume                     874.492
_exptl_crystal_colour            'light yellow'
_exptl_crystal_description       block
_cell_formula_units_Z            2
loop_
_atom_site_label
_atom_site_type_symbol
_atom_site_fract_x
_atom_site_fract_y
_atom_site_fract_z
O1 O -0.0214(4) 0.6237(2) 0.5764(2)
N1 N 0.3989(6) 0.9089(3) -0.2633(3)
N2 N 0.1380(5) 0.7164(3) 0.2810(3)
N3 N 0.0888(5) 0.6399(3) 0.3916(3)
N4 N 0.0405(6) 0.8213(4) 0.4616(4)
C1 C 0.2324(6) 0.8560(4) 0.0449(3)
H1 H 0.1941 0.9067 0.0972
C2 C 0.2830(6) 0.9184(4) -0.0688(3)
H2 H 0.2769 1.0101 -0.0915
C3 C 0.3434(6) 0.8470(4) -0.1512(3)
C4 C 0.3461(6) 0.7089(4) -0.1113(3)
H3 H 0.3838 0.6576 -0.1631
C5 C 0.2941(6) 0.6479(3) 0.0034(3)
H4 H 0.2977 0.5565 0.0268
C6 C 0.2366(5) 0.7196(3) 0.0842(3)
C7 C 0.1849(6) 0.6532(4) 0.2048(3)
H5 H 0.1862 0.5622 0.2267
C8 C 0.0324(6) 0.6951(4) 0.4796(3)
C9 C 0.3996(8) 1.0509(4) -0.3013(4)
H6 H 0.2720 1.1034 -0.2895
H7 H 0.4438 1.0761 -0.3820
H8 H 0.4833 1.0670 -0.2575
C10 C 0.4361(8) 0.8414(5) -0.3535(4)
H9 H 0.5516 0.7714 -0.3415
H10 H 0.4506 0.9053 -0.4278
H11 H 0.3308 0.8030 -0.3508
H20 H 0.070(5) 0.872(3) 0.393(3)
H21 H 0.070(5) 0.558(2) 0.400(3)
H22 H 0.000(8) 0.857(6) 0.523(5)
O2 O 0.4506(5) 0.5408(3) 0.6268(3)
O3 O 0.4009(5) 0.3657(3) 0.5886(3)
H12 H 0.4495 0.4040 0.5221
C11 C 0.3914(7) 0.4363(5) 0.6571(5)
C12 C 0.3084(8) 0.3842(5) 0.7785(5)
H13 H 0.4089 0.3254 0.8251
H14 H 0.2162 0.3355 0.7789
H15 H 0.2468 0.4583 0.8096
O4 O 0.9048(5) 0.8908(3) 0.6896(3)
O5 O 0.8966(5) 0.6762(3) 0.7728(2)
H16 H 0.9164 0.6733 0.7056
C13 C 0.8785(6) 0.8016(4) 0.7749(4)
C14 C 0.8229(7) 0.8142(5) 0.8945(4)
H17 H 0.9334 0.8155 0.9264
H18 H 0.7724 0.7390 0.9418
H19 H 0.7270 0.8961 0.8924
loop_
_geom_bond_atom_site_label_1
_geom_bond_atom_site_label_2
_geom_bond_site_symmetry_1
_geom_bond_site_symmetry_2
O1 C8 1_555 1_555
N1 C3 1_555 1_555
N2 N3 1_555 1_555
N3 C8 1_555 1_555
N4 C8 1_555 1_555
C1 H1 1_555 1_555
C2 C1 1_555 1_555
H2 C2 1_555 1_555
C3 C2 1_555 1_555
C4 C3 1_555 1_555
H3 C4 1_555 1_555
C5 C4 1_555 1_555
H4 C5 1_555 1_555
C6 C1 1_555 1_555
C7 N2 1_555 1_555
H5 C7 1_555 1_555
C9 N1 1_555 1_555
H6 C9 1_555 1_555
H7 C9 1_555 1_555
H8 C9 1_555 1_555
C10 N1 1_555 1_555
H9 C10 1_555 1_555
H10 C10 1_555 1_555
H11 C10 1_555 1_555
O2 C11 1_555 1_555
O3 H12 1_555 1_555
C11 O3 1_555 1_555
C12 C11 1_555 1_555
H13 C12 1_555 1_555
H14 C12 1_555 1_555
H15 C12 1_555 1_555
O4 C13 1_555 1_555
O5 H16 1_555 1_555
C13 O5 1_555 1_555
C14 C13 1_555 1_555
H17 C14 1_555 1_555
H18 C14 1_555 1_555
H19 C14 1_555 1_555
H20 N4 1_555 1_555
H21 N3 1_555 1_555
H22 N4 1_555 1_555
C5 C6 1_555 1_555
C6 C7 1_555 1_555

#END
