
#######################################################################
#
#                 Cambridge Crystallographic Data Centre
#                                CCDC 
#
#######################################################################
#
# If this CIF has been generated from an entry in the Cambridge 
# Structural Database, then it will include bibliographic, chemical, 
# crystal, experimental, refinement or atomic coordinate data resulting 
# from the CCDC's data processing and validation procedures.
#
#######################################################################

data_EDELEF
_chemical_formula_moiety         'C31 H34 O8'
_chemical_name_systematic        
1,6-Di-O-acetyl-2,3,4-tri-O-benzyl-\a-D-mannopyranoside
_symmetry_cell_setting           rhombohedral
_symmetry_space_group_name_H-M   'R 3'
_symmetry_Int_Tables_number      146
_space_group_name_Hall           'R 3'
loop_
_symmetry_equiv_pos_site_id
_symmetry_equiv_pos_as_xyz
1 x,y,z
2 -y,x-y,z
3 -x+y,-x,z
4 2/3+x,1/3+y,1/3+z
5 2/3-y,1/3+x-y,1/3+z
6 2/3-x+y,1/3-x,1/3+z
7 1/3+x,2/3+y,2/3+z
8 1/3-y,2/3+x-y,2/3+z
9 1/3-x+y,2/3-x,2/3+z
_cell_length_a                   24.001(3)
_cell_length_b                   24.001(3)
_cell_length_c                   13.441(3)
_cell_angle_alpha                90
_cell_angle_beta                 90
_cell_angle_gamma                120.00
_cell_volume                     6705.34
_exptl_crystal_colour            colorless
_exptl_crystal_description       block
_cell_formula_units_Z            9
_exptl_crystal_recrystallization_method 'hexane/ethyl acetate'
loop_
_atom_site_label
_atom_site_type_symbol
_atom_site_fract_x
_atom_site_fract_y
_atom_site_fract_z
O1 O 0.8308(2) 0.89609(18) 0.0017(3)
O2 O 0.7086(2) 0.8907(2) 0.0209(3)
O3 O 0.6777(4) 0.9119(4) 0.1583(6)
O4 O 0.71440(19) 0.72464(19) 0.0247(3)
O5 O 0.8332(2) 0.7232(2) 0.0228(3)
O6 O 0.9087(2) 0.8540(2) 0.0925(3)
O7 O 0.86749(18) 0.88162(18) -0.1512(3)
O8 O 0.9173(2) 0.9883(2) -0.1794(4)
C1 C 0.7701(3) 0.8374(3) 0.0044(4)
H1 H 0.7513 0.8282 -0.0624
C2 C 0.7752(3) 0.7796(3) 0.0409(4)
H2 H 0.7851 0.7841 0.1122
C3 C 0.8278(3) 0.7760(3) -0.0153(4)
H3 H 0.8152 0.7675 -0.0855
C4 C 0.8894(3) 0.8393(3) -0.0087(4)
H4 H 0.9232 0.8373 -0.0470
C5 C 0.8803(3) 0.8924(3) -0.0467(5)
H5 H 0.9205 0.9332 -0.0374
C6 C 0.7279(3) 0.8491(3) 0.0724(5)
H6 H 0.6902 0.8086 0.0900
H7 H 0.7510 0.8697 0.1330
C7 C 0.6824(4) 0.9177(5) 0.0706(7)
C8 C 0.6651(5) 0.9575(4) 0.0146(7)
H8 H 0.6391 0.9685 0.0550
H9 H 0.6412 0.9345 -0.0433
H10 H 0.7033 0.9960 -0.0055
C9 C 0.6919(3) 0.6800(3) 0.1058(5)
H11 H 0.6883 0.7004 0.1658
H12 H 0.7212 0.6640 0.1183
C10 C 0.6280(2) 0.6269(3) 0.0754(4)
C11 C 0.5738(3) 0.6333(3) 0.0843(4)
H13 H 0.5774 0.6706 0.1116
C12 C 0.5143(2) 0.5841(4) 0.0526(5)
H14 H 0.4780 0.5884 0.0586
C13 C 0.5090(3) 0.5284(3) 0.0118(4)
H15 H 0.4691 0.4955 -0.0094
C14 C 0.5631(4) 0.5220(3) 0.0028(4)
H16 H 0.5596 0.4847 -0.0244
C15 C 0.6227(3) 0.5712(3) 0.0346(4)
H17 H 0.6589 0.5669 0.0286
C16 C 0.8486(4) 0.6916(4) -0.0499(5)
H18 H 0.8883 0.7223 -0.0824
H19 H 0.8149 0.6741 -0.0998
C17 C 0.8561(2) 0.63855(18) -0.0072(3)
C18 C 0.8460(2) 0.6219(2) 0.0929(3)
H20 H 0.8323 0.6431 0.1357
C19 C 0.8564(2) 0.5736(2) 0.1290(3)
H21 H 0.8497 0.5624 0.1960
C20 C 0.8769(2) 0.54193(18) 0.0651(4)
H22 H 0.8839 0.5096 0.0893
C21 C 0.8870(2) 0.5586(2) -0.0350(4)
H23 H 0.9007 0.5374 -0.0778
C22 C 0.8766(2) 0.6069(2) -0.0712(2)
H24 H 0.8834 0.6180 -0.1381
C23 C 0.9567(4) 0.8403(5) 0.1229(6)
H25 H 0.9962 0.8663 0.0861
H26 H 0.9429 0.7953 0.1120
C24 C 0.9667(4) 0.8558(4) 0.2296(4)
C25 C 1.0186(3) 0.9125(4) 0.2651(6)
H27 H 1.0479 0.9426 0.2207
C26 C 1.0267(3) 0.9240(3) 0.3668(7)
H28 H 1.0615 0.9619 0.3905
C27 C 0.9830(5) 0.8790(5) 0.4332(4)
H29 H 0.9885 0.8867 0.5013
C28 C 0.9311(4) 0.8223(4) 0.3978(5)
H30 H 0.9019 0.7922 0.4422
C29 C 0.9230(3) 0.8108(3) 0.2960(6)
H31 H 0.8883 0.7729 0.2723
C30 C 0.8914(3) 0.9350(4) -0.2107(5)
C31 C 0.8804(4) 0.9152(4) -0.3171(5)
H32 H 0.9109 0.9500 -0.3578
H33 H 0.8375 0.9044 -0.3358
H34 H 0.8856 0.8784 -0.3264
loop_
_geom_bond_atom_site_label_1
_geom_bond_atom_site_label_2
_geom_bond_site_symmetry_1
_geom_bond_site_symmetry_2
O1 C1 1_555 1_555
O2 C6 1_555 1_555
O3 C7 1_555 1_555
O4 C2 1_555 1_555
O5 C3 1_555 1_555
O6 C4 1_555 1_555
O7 C5 1_555 1_555
O8 C30 1_555 1_555
C1 H1 1_555 1_555
C2 C1 1_555 1_555
H2 C2 1_555 1_555
C3 C2 1_555 1_555
H3 C3 1_555 1_555
C4 C3 1_555 1_555
H4 C4 1_555 1_555
C5 O1 1_555 1_555
H5 C5 1_555 1_555
C6 C1 1_555 1_555
H6 C6 1_555 1_555
H7 C6 1_555 1_555
C7 O2 1_555 1_555
C8 C7 1_555 1_555
H8 C8 1_555 1_555
H9 C8 1_555 1_555
H10 C8 1_555 1_555
C9 O4 1_555 1_555
H11 C9 1_555 1_555
H12 C9 1_555 1_555
C10 C9 1_555 1_555
C11 C10 1_555 1_555
H13 C11 1_555 1_555
C12 C11 1_555 1_555
H14 C12 1_555 1_555
C13 C12 1_555 1_555
H15 C13 1_555 1_555
C14 C13 1_555 1_555
H16 C14 1_555 1_555
C15 C10 1_555 1_555
H17 C15 1_555 1_555
C16 O5 1_555 1_555
H18 C16 1_555 1_555
H19 C16 1_555 1_555
C17 C16 1_555 1_555
C18 C17 1_555 1_555
H20 C18 1_555 1_555
C19 C18 1_555 1_555
H21 C19 1_555 1_555
C20 C19 1_555 1_555
H22 C20 1_555 1_555
C21 C20 1_555 1_555
H23 C21 1_555 1_555
C22 C17 1_555 1_555
H24 C22 1_555 1_555
C23 O6 1_555 1_555
H25 C23 1_555 1_555
H26 C23 1_555 1_555
C24 C23 1_555 1_555
C25 C24 1_555 1_555
H27 C25 1_555 1_555
C26 C25 1_555 1_555
H28 C26 1_555 1_555
C27 C26 1_555 1_555
H29 C27 1_555 1_555
C28 C27 1_555 1_555
H30 C28 1_555 1_555
C29 C24 1_555 1_555
H31 C29 1_555 1_555
C30 O7 1_555 1_555
C31 C30 1_555 1_555
H32 C31 1_555 1_555
H33 C31 1_555 1_555
H34 C31 1_555 1_555
C4 C5 1_555 1_555
C14 C15 1_555 1_555
C21 C22 1_555 1_555
C28 C29 1_555 1_555

#END
