
#######################################################################
#
#                 Cambridge Crystallographic Data Centre
#                                CCDC 
#
#######################################################################
#
# If this CIF has been generated from an entry in the Cambridge 
# Structural Database, then it will include bibliographic, chemical, 
# crystal, experimental, refinement or atomic coordinate data resulting 
# from the CCDC's data processing and validation procedures.
#
#######################################################################

data_EDELUW
_chemical_formula_moiety         'C52 H60 Si2'
_chemical_name_systematic        
'[(1,9-dimethyl-1,3a,9,16c-tetrahydrodibenzo[de,op]pentacene-7,15-diyl)diethyne-2,1-diyl]bis[tri(propan-2-yl)silane]'
_symmetry_cell_setting           monoclinic
_symmetry_space_group_name_H-M   'C 2/c'
_symmetry_Int_Tables_number      15
_space_group_name_Hall           '-C 2yn'
loop_
_symmetry_equiv_pos_site_id
_symmetry_equiv_pos_as_xyz
1 x,y,z
2 -x,y,1/2-z
3 1/2+x,1/2+y,z
4 1/2-x,1/2+y,1/2-z
5 -x,-y,-z
6 x,-y,1/2+z
7 1/2-x,1/2-y,-z
8 1/2+x,1/2-y,1/2+z
_cell_length_a                   18.548(6)
_cell_length_b                   19.178(6)
_cell_length_c                   13.920(5)
_cell_angle_alpha                90
_cell_angle_beta                 122.838(4)
_cell_angle_gamma                90
_cell_volume                     4160.31
_exptl_crystal_colour            blue
_exptl_crystal_description       prism
_cell_formula_units_Z            4
loop_
_atom_site_label
_atom_site_type_symbol
_atom_site_fract_x
_atom_site_fract_y
_atom_site_fract_z
C1 C 0.22295(11) 0.81254(8) -0.05736(15)
H1 H 0.2068 0.8565 -0.0949
C2 C 0.29157(11) 0.81127(8) 0.06000(15)
C3 C 0.32151(10) 0.74537(8) 0.12020(14)
C4 C 0.39547(11) 0.74443(8) 0.24056(14)
C5 C 0.43543(11) 0.68319(9) 0.30451(15)
C6 C 0.50588(13) 0.68943(10) 0.41891(16)
H2 H 0.5324 0.6480 0.4610
C7 C 0.53748(13) 0.75180(10) 0.47148(15)
H3 H 0.5843 0.7532 0.5489
C8 C 0.50090(12) 0.81436(10) 0.41134(15)
C9 C 0.53469(13) 0.88022(10) 0.46344(16)
H4 H 0.5815 0.8821 0.5409
C10 C 0.50106(13) 0.94070(10) 0.40419(16)
H5 H 0.5244 0.9843 0.4403
C11 C 0.43246(12) 0.93848(9) 0.29069(16)
H6 H 0.4093 0.9809 0.2501
C12 C 0.39693(11) 0.87506(9) 0.23514(15)
C13 C 0.43024(11) 0.81067(9) 0.29513(14)
C14 C 0.41080(13) 0.60984(10) 0.26103(18)
H7 H 0.3531 0.5999 0.2438
H8 H 0.4519 0.5773 0.3195
H9 H 0.4114 0.6045 0.1914
C15 C 0.32799(11) 0.87430(8) 0.11614(15)
C16 C 0.29575(11) 0.93949(9) 0.05702(15)
C17 C 0.26953(11) 0.99561(9) 0.01164(15)
C18 C 0.11277(11) 1.08992(9) -0.09951(15)
H10 H 0.0812 1.0752 -0.1815
C19 C 0.08457(12) 1.16531(9) -0.09779(17)
H11 H 0.0223 1.1666 -0.1327
H12 H 0.0997 1.1956 -0.1410
H13 H 0.1138 1.1817 -0.0186
C20 C 0.08394(13) 1.04101(10) -0.03956(18)
H14 H 0.1129 1.0540 0.0412
H15 H 0.0988 0.9929 -0.0456
H16 H 0.0217 1.0449 -0.0760
C21 C 0.25093(13) 1.10327(10) -0.16052(17)
H17 H 0.3139 1.0976 -0.1263
C22 C 0.22829(16) 1.17775(11) -0.2052(2)
H18 H 0.2415 1.1849 -0.2638
H19 H 0.2619 1.2105 -0.1421
H20 H 0.1670 1.1858 -0.2385
C23 C 0.20596(19) 1.05124(13) -0.2580(2)
H21 H 0.1438 1.0545 -0.2934
H22 H 0.2253 1.0040 -0.2284
H23 H 0.2198 1.0616 -0.3152
C24 C 0.29859(13) 1.14561(9) 0.08083(16)
H24 H 0.2777 1.1940 0.0529
C25 C 0.28795(17) 1.13213(11) 0.18177(17)
H25 H 0.3050 1.0841 0.2088
H26 H 0.2278 1.1391 0.1565
H27 H 0.3243 1.1646 0.2441
C26 C 0.39289(14) 1.14277(11) 0.1190(2)
H28 H 0.4258 1.1766 0.1805
H29 H 0.3978 1.1541 0.0541
H30 H 0.4155 1.0958 0.1468
Si1 Si 0.23149(3) 1.08460(2) -0.04273(4)
C1F C 0.27705(11) 0.68746(8) 0.05736(15)
H1F H 0.2932 0.6435 0.0949
C2F C 0.20843(11) 0.68873(8) -0.06000(15)
C3F C 0.17849(10) 0.75463(8) -0.12020(14)
C4F C 0.10453(11) 0.75557(8) -0.24056(14)
C5F C 0.06457(11) 0.81681(9) -0.30451(15)
C6F C -0.00588(13) 0.81057(10) -0.41891(16)
H2F H -0.0324 0.8520 -0.4610
C7F C -0.03748(13) 0.74820(10) -0.47148(15)
H3F H -0.0843 0.7468 -0.5489
C8F C -0.00090(12) 0.68564(10) -0.41134(15)
C9F C -0.03469(13) 0.61978(10) -0.46344(16)
H4F H -0.0815 0.6179 -0.5409
C10F C -0.00106(13) 0.55930(10) -0.40419(16)
H5F H -0.0244 0.5157 -0.4403
C11F C 0.06754(12) 0.56152(9) -0.29069(16)
H6F H 0.0907 0.5191 -0.2501
C12F C 0.10307(11) 0.62494(9) -0.23514(15)
C13F C 0.06976(11) 0.68933(9) -0.29513(14)
C14F C 0.08920(13) 0.89016(10) -0.26103(18)
H7F H 0.1469 0.9001 -0.2438
H8F H 0.0481 0.9227 -0.3195
H9F H 0.0886 0.8955 -0.1914
C15F C 0.17201(11) 0.62570(8) -0.11614(15)
C16F C 0.20425(11) 0.56051(9) -0.05702(15)
C17F C 0.23047(11) 0.50439(9) -0.01164(15)
C18F C 0.38723(11) 0.41008(9) 0.09951(15)
H10F H 0.4188 0.4248 0.1815
C19F C 0.41543(12) 0.33469(9) 0.09779(17)
H11F H 0.4777 0.3334 0.1327
H12F H 0.4003 0.3044 0.1410
H13F H 0.3862 0.3183 0.0186
C20F C 0.41606(13) 0.45899(10) 0.03956(18)
H14F H 0.3871 0.4460 -0.0412
H15F H 0.4012 0.5071 0.0456
H16F H 0.4783 0.4551 0.0760
C21F C 0.24907(13) 0.39673(10) 0.16052(17)
H17F H 0.1861 0.4024 0.1263
C22F C 0.27171(16) 0.32225(11) 0.2052(2)
H18F H 0.2585 0.3151 0.2638
H19F H 0.2381 0.2895 0.1421
H20F H 0.3330 0.3142 0.2385
C23F C 0.29404(19) 0.44876(13) 0.2580(2)
H21F H 0.3562 0.4455 0.2934
H22F H 0.2747 0.4960 0.2284
H23F H 0.2802 0.4384 0.3152
C24F C 0.20141(13) 0.35439(9) -0.08083(16)
H24F H 0.2223 0.3060 -0.0529
C25F C 0.21205(17) 0.36787(11) -0.18177(17)
H25F H 0.1950 0.4159 -0.2088
H26F H 0.2722 0.3609 -0.1565
H27F H 0.1757 0.3354 -0.2441
C26F C 0.10711(14) 0.35723(11) -0.1190(2)
H28F H 0.0742 0.3234 -0.1805
H29F H 0.1022 0.3459 -0.0541
H30F H 0.0845 0.4042 -0.1468
Si1F Si 0.26851(3) 0.41540(2) 0.04273(4)
loop_
_geom_bond_atom_site_label_1
_geom_bond_atom_site_label_2
_geom_bond_site_symmetry_1
_geom_bond_site_symmetry_2
C1 H1 1_555 1_555
C2 C1 1_555 1_555
C3 C2 1_555 1_555
C4 C3 1_555 1_555
C5 C4 1_555 1_555
C6 C5 1_555 1_555
H2 C6 1_555 1_555
C7 C6 1_555 1_555
H3 C7 1_555 1_555
C8 C7 1_555 1_555
C9 C8 1_555 1_555
H4 C9 1_555 1_555
C10 C9 1_555 1_555
H5 C10 1_555 1_555
C11 C10 1_555 1_555
H6 C11 1_555 1_555
C12 C11 1_555 1_555
C13 C4 1_555 1_555
C14 C5 1_555 1_555
H7 C14 1_555 1_555
H8 C14 1_555 1_555
H9 C14 1_555 1_555
C15 C2 1_555 1_555
C16 C15 1_555 1_555
C17 C16 1_555 1_555
C18 H10 1_555 1_555
C19 C18 1_555 1_555
H11 C19 1_555 1_555
H12 C19 1_555 1_555
H13 C19 1_555 1_555
C20 C18 1_555 1_555
H14 C20 1_555 1_555
H15 C20 1_555 1_555
H16 C20 1_555 1_555
C21 H17 1_555 1_555
C22 C21 1_555 1_555
H18 C22 1_555 1_555
H19 C22 1_555 1_555
H20 C22 1_555 1_555
C23 C21 1_555 1_555
H21 C23 1_555 1_555
H22 C23 1_555 1_555
H23 C23 1_555 1_555
C24 H24 1_555 1_555
C25 C24 1_555 1_555
H25 C25 1_555 1_555
H26 C25 1_555 1_555
H27 C25 1_555 1_555
C26 C24 1_555 1_555
H28 C26 1_555 1_555
H29 C26 1_555 1_555
H30 C26 1_555 1_555
Si1 C17 1_555 1_555
C1F C3 1_555 1_555
H1F C1F 1_555 1_555
C2F C1F 1_555 1_555
C3F C1 1_555 1_555
C4F C3F 1_555 1_555
C5F C4F 1_555 1_555
C6F C5F 1_555 1_555
H2F C6F 1_555 1_555
C7F C6F 1_555 1_555
H3F C7F 1_555 1_555
C8F C7F 1_555 1_555
C9F C8F 1_555 1_555
H4F C9F 1_555 1_555
C10F C9F 1_555 1_555
H5F C10F 1_555 1_555
C11F C10F 1_555 1_555
H6F C11F 1_555 1_555
C12F C11F 1_555 1_555
C13F C4F 1_555 1_555
C14F C5F 1_555 1_555
H7F C14F 1_555 1_555
H8F C14F 1_555 1_555
H9F C14F 1_555 1_555
C15F C2F 1_555 1_555
C16F C15F 1_555 1_555
C17F C16F 1_555 1_555
C18F H10F 1_555 1_555
C19F C18F 1_555 1_555
H11F C19F 1_555 1_555
H12F C19F 1_555 1_555
H13F C19F 1_555 1_555
C20F C18F 1_555 1_555
H14F C20F 1_555 1_555
H15F C20F 1_555 1_555
H16F C20F 1_555 1_555
C21F H17F 1_555 1_555
C22F C21F 1_555 1_555
H18F C22F 1_555 1_555
H19F C22F 1_555 1_555
H20F C22F 1_555 1_555
C23F C21F 1_555 1_555
H21F C23F 1_555 1_555
H22F C23F 1_555 1_555
H23F C23F 1_555 1_555
C24F H24F 1_555 1_555
C25F C24F 1_555 1_555
H25F C25F 1_555 1_555
H26F C25F 1_555 1_555
H27F C25F 1_555 1_555
C26F C24F 1_555 1_555
H28F C26F 1_555 1_555
H29F C26F 1_555 1_555
H30F C26F 1_555 1_555
Si1F C17F 1_555 1_555
C8 C13 1_555 1_555
C12 C13 1_555 1_555
C12 C15 1_555 1_555
C18 Si1 1_555 1_555
C21 Si1 1_555 1_555
C24 Si1 1_555 1_555
C2F C3F 1_555 1_555
C8F C13F 1_555 1_555
C12F C13F 1_555 1_555
C12F C15F 1_555 1_555
C18F Si1F 1_555 1_555
C21F Si1F 1_555 1_555
C24F Si1F 1_555 1_555

#END
