
#######################################################################
#
#                 Cambridge Crystallographic Data Centre
#                                CCDC 
#
#######################################################################
#
# If this CIF has been generated from an entry in the Cambridge 
# Structural Database, then it will include bibliographic, chemical, 
# crystal, experimental, refinement or atomic coordinate data resulting 
# from the CCDC's data processing and validation procedures.
#
#######################################################################

data_EDELEG
_chemical_formula_moiety         'C124 H152 N8 O16,4(C9 H12),C8 H16'
_chemical_name_systematic        
'2,8,14,20-tetrahexyl-(4,24:12,16)-bis(5,8-bis(dibutylcarbamoyl)naphthalene-2,3-diolato)-(6,10:18,22)-bis(1,4-dihydroxynaphthalene-2,3-diolato)resorcin(4)arene tetramesitylene clathrate cyclooctane solvate'
_symmetry_cell_setting           orthorhombic
_symmetry_space_group_name_H-M   'P n a b'
_symmetry_Int_Tables_number      60
_space_group_name_Hall           '-P 2bc 2n'
loop_
_symmetry_equiv_pos_site_id
_symmetry_equiv_pos_as_xyz
1 x,y,z
2 -x,1/2-y,1/2+z
3 1/2+x,1/2-y,1/2-z
4 1/2-x,y,-z
5 -x,-y,-z
6 x,1/2+y,1/2-z
7 1/2-x,1/2+y,1/2+z
8 1/2+x,-y,z
_cell_length_a                   28.7688(10)
_cell_length_b                   32.1565(10)
_cell_length_c                   33.9968(12)
_cell_angle_alpha                90
_cell_angle_beta                 90
_cell_angle_gamma                90
_cell_volume                     31450.6
_exptl_crystal_colour            yellow
_exptl_crystal_description       rod
_cell_formula_units_Z            8
loop_
_atom_site_label
_atom_site_type_symbol
_atom_site_fract_x
_atom_site_fract_y
_atom_site_fract_z
O1 O 0.4357(2) 0.52139(18) 0.31711(18)
O2 O 0.28047(19) 0.47233(17) 0.29108(17)
O3 O 0.55772(19) 0.33943(18) 0.3128(2)
O4 O 0.5196(2) 0.48470(18) 0.32523(18)
O5 O 0.2179(2) 0.3556(2) 0.2229(2)
H1 H 0.228(4) 0.341(4) 0.199(4)
O6 O 0.3785(2) 0.5243(2) 0.17124(19)
O7 O 0.5995(2) 0.4399(3) 0.1950(2)
N1 N 0.4457(3) 0.5265(2) 0.2489(3)
O8 O 0.3094(2) 0.50743(18) 0.22234(18)
H2 H 0.330(3) 0.506(3) 0.1992(19)
C1 C 0.2826(3) 0.4476(3) 0.1849(3)
N2 N 0.5345(3) 0.4897(2) 0.2591(3)
O9 O 0.2321(2) 0.3983(2) 0.2909(2)
C2 C 0.5375(3) 0.4117(3) 0.3171(3)
H3 H 0.571(3) 0.414(2) 0.293(2)
N3 N 0.2624(3) 0.2468(2) 0.2461(4)
C3 C 0.5189(3) 0.5022(3) 0.2226(3)
O10 O 0.2675(2) 0.2543(2) 0.3128(2)
C4 C 0.5198(4) 0.2896(3) 0.2724(4)
O11 O 0.3510(2) 0.21716(18) 0.3140(3)
O12 O 0.5088(2) 0.26716(19) 0.3072(2)
C5 C 0.3224(3) 0.4697(3) 0.3122(3)
C6 C 0.4581(3) 0.5321(3) 0.1808(3)
N4 N 0.4034(3) 0.5903(3) 0.1806(2)
C7 C 0.2769(3) 0.4498(3) 0.2553(3)
C8 C 0.2604(3) 0.4062(3) 0.1848(3)
O13 O 0.5896(2) 0.37873(19) 0.2474(2)
H4 H 0.5891 0.3959 0.2236
C9 C 0.2792(3) 0.4246(3) 0.3596(3)
H5 H 0.2521 0.4381 0.3463
C10 C 0.4025(3) 0.4705(3) 0.3582(3)
C11 C 0.3984(3) 0.4940(3) 0.3247(3)
N5 N 0.4049(3) 0.1468(3) 0.1692(2)
O14 O 0.2084(2) 0.2962(3) 0.1675(3)
C12 C 0.4786(3) 0.4337(3) 0.3649(3)
C13 C 0.3216(3) 0.4473(3) 0.3456(3)
C14 C 0.5120(3) 0.4421(3) 0.3356(3)
O15 O 0.4877(2) 0.2317(2) 0.2365(3)
H6 H 0.4834 0.2231 0.2093
C15 C 0.2444(3) 0.3914(3) 0.2209(3)
C16 C 0.2996(3) 0.3066(3) 0.3557(3)
C17 C 0.2792(3) 0.3791(3) 0.3464(3)
C18 C 0.4609(3) 0.5142(3) 0.2822(3)
C19 C 0.5014(3) 0.3604(3) 0.3607(3)
C20 C 0.5484(3) 0.4982(3) 0.1899(3)
C21 C 0.2908(3) 0.4682(3) 0.2208(3)
C22 C 0.3599(3) 0.4944(3) 0.3012(3)
H7 H 0.3587 0.5110 0.2781
C23 C 0.4418(3) 0.6205(3) 0.1865(3)
H8 H 0.4686 0.6059 0.1985
H9 H 0.4315 0.6423 0.2051
C24 C 0.4973(4) 0.3163(3) 0.3751(3)
H10 H 0.5261 0.3017 0.3661
C25 C 0.2526(3) 0.4122(3) 0.2557(3)
C26 C 0.4733(3) 0.5199(2) 0.2176(3)
C27 C 0.3021(3) 0.3480(3) 0.3674(3)
H11 H 0.3197 0.3551 0.3901
C28 C 0.4569(3) 0.2926(3) 0.3573(3)
C29 C 0.3636(3) 0.4469(3) 0.3685(3)
H12 H 0.3650 0.4299 0.3914
N6 N 0.1734(3) 0.2350(2) 0.1822(3)
N7 N 0.3514(3) 0.2107(2) 0.2470(4)
C30 C 0.2860(4) 0.2419(3) 0.2788(4)
C31 C 0.5617(3) 0.3457(3) 0.2423(3)
C32 C 0.3226(4) 0.2061(4) 0.1425(4)
H13 H 0.3358 0.1958 0.1188
C33 C 0.5457(3) 0.3254(3) 0.2746(4)
C34 C 0.2566(3) 0.3669(4) 0.3118(3)
C35 C 0.4639(3) 0.2699(3) 0.3236(4)
C36 C 0.3980(3) 0.1871(4) 0.1753(3)
C37 C 0.2568(4) 0.2375(3) 0.1762(4)
C38 C 0.5064(3) 0.4945(3) 0.2887(4)
C39 C 0.4746(3) 0.3923(3) 0.3756(3)
H14 H 0.4518 0.3853 0.3946
C40 C 0.2736(4) 0.2965(3) 0.3235(4)
C41 C 0.5242(4) 0.2924(4) 0.2019(4)
C42 C 0.2812(4) 0.2339(3) 0.2118(4)
C43 C 0.5957(4) 0.4801(4) 0.1954(3)
C44 C 0.2858(4) 0.4449(4) 0.1134(3)
H15 H 0.2924 0.4582 0.0891
C45 C 0.3760(4) 0.2706(3) 0.3602(3)
C46 C 0.3277(4) 0.2170(3) 0.2120(4)
C47 C 0.1617(4) 0.1676(3) 0.1499(4)
H16 H 0.1307 0.1775 0.1413
H17 H 0.1844 0.1759 0.1295
C48 C 0.5307(3) 0.3710(3) 0.3298(3)
N8 N 0.6309(3) 0.5035(3) 0.1995(3)
C49 C 0.3857(3) 0.2457(3) 0.3273(3)
C50 C 0.3566(3) 0.6051(3) 0.1803(3)
H18 H 0.3375 0.5866 0.1636
H19 H 0.3559 0.6332 0.1685
C51 C 0.4103(3) 0.5491(3) 0.1769(3)
C52 C 0.4872(4) 0.5260(3) 0.1486(3)
H20 H 0.4767 0.5336 0.1231
C53 C 0.5102(3) 0.2716(3) 0.2367(4)
C54 C 0.4140(4) 0.2934(3) 0.3742(3)
H21 H 0.4096 0.3103 0.3968
C55 C 0.1745(3) 0.1905(3) 0.1888(3)
H22 H 0.1520 0.1829 0.2097
H23 H 0.2059 0.1819 0.1975
C56 C 0.2957(4) 0.4644(3) 0.1484(3)
H24 H 0.3119 0.4901 0.1479
C57 C 0.5504(4) 0.3295(4) 0.2052(4)
C58 C 0.2528(4) 0.3883(3) 0.1481(4)
H25 H 0.2373 0.3622 0.1472
C59 C 0.2508(4) 0.3254(3) 0.3013(4)
H26 H 0.2318 0.3176 0.2797
O16 O 0.4279(3) 0.2128(2) 0.1780(3)
C60 C 0.4766(3) 0.1273(3) 0.2063(3)
H27 H 0.4750 0.1538 0.2210
H28 H 0.4601 0.1058 0.2219
C61 C 0.4294(3) 0.2456(3) 0.3085(3)
H29 H 0.4346 0.2290 0.2858
C62 C 0.4477(3) 0.4684(3) 0.3818(3)
H30 H 0.4644 0.4953 0.3775
C63 C 0.3355(4) 0.6071(3) 0.2206(3)
H31 H 0.3519 0.6284 0.2364
H32 H 0.3397 0.5799 0.2339
C64 C 0.6769(4) 0.4875(4) 0.2113(4)
H33 H 0.6826 0.4612 0.1970
H34 H 0.7008 0.5077 0.2025
C65 C 0.4572(4) 0.6406(3) 0.1489(4)
H35 H 0.4323 0.6591 0.1389
H36 H 0.4633 0.6191 0.1288
C66 C 0.1197(4) 0.2821(4) 0.2187(4)
H37 H 0.0872 0.2923 0.2185
H38 H 0.1402 0.3067 0.2168
C67 C 0.6837(5) 0.4799(4) 0.2532(4)
H39 H 0.7176 0.4780 0.2576
H40 H 0.6707 0.4520 0.2587
C68 C 0.3275(4) 0.2708(3) 0.3779(3)
H41 H 0.3123 0.2435 0.3719
C69 C 0.4408(3) 0.4632(3) 0.4276(3)
H42 H 0.4239 0.4370 0.4329
H43 H 0.4717 0.4612 0.4404
C70 C 0.3307(4) 0.2236(3) 0.2786(5)
C71 C 0.6383(4) 0.5649(3) 0.1553(4)
H44 H 0.6714 0.5594 0.1492
H45 H 0.6191 0.5498 0.1359
C72 C 0.2694(3) 0.4269(3) 0.4047(3)
H46 H 0.2939 0.4112 0.4189
H47 H 0.2711 0.4562 0.4133
C73 C 0.6273(4) 0.5486(4) 0.1967(4)
H48 H 0.6490 0.5614 0.2157
H49 H 0.5953 0.5571 0.2040
C74 C 0.4524(4) 0.1325(4) 0.1664(4)
H50 H 0.4704 0.1525 0.1504
H51 H 0.4528 0.1054 0.1525
C75 C 0.3463(4) 0.2033(3) 0.1772(4)
C76 C 0.5148(5) 0.2744(6) 0.1643(5)
H52 H 0.4970 0.2497 0.1620
C77 C 0.3674(4) 0.1154(3) 0.1696(3)
H53 H 0.3387 0.1282 0.1801
H54 H 0.3763 0.0924 0.1873
C78 C 0.2770(4) 0.2251(4) 0.1425(4)
H55 H 0.2611 0.2288 0.1183
C79 C 0.1268(3) 0.2563(3) 0.1833(4)
H56 H 0.1237 0.2741 0.1597
H57 H 0.1021 0.2349 0.1822
C80 C 0.4972(4) 0.3134(3) 0.4203(3)
H58 H 0.4707 0.3295 0.4308
H59 H 0.4930 0.2840 0.4282
C81 C 0.1604(5) 0.1206(4) 0.1519(5)
H60 H 0.1353 0.1113 0.1697
H61 H 0.1904 0.1098 0.1620
C82 C 0.5639(5) 0.3519(5) 0.1695(4)
H62 H 0.5786 0.3783 0.1707
C83 C 0.5318(3) 0.5087(3) 0.1531(3)
H63 H 0.5508 0.5042 0.1306
C84 C 0.2658(4) 0.4051(4) 0.1140(4)
H64 H 0.2616 0.3901 0.0902
C85 C 0.1177(5) 0.2879(4) 0.2928(4)
H65 H 0.0846 0.2954 0.2924
H66 H 0.1365 0.3133 0.2916
H67 H 0.1247 0.2728 0.3171
C86 C 0.2833(4) 0.6177(5) 0.2191(4)
H68 H 0.2677 0.5980 0.2011
H69 H 0.2796 0.6460 0.2080
C87 C 0.5023(4) 0.6664(3) 0.1566(4)
H70 H 0.4966 0.6866 0.1780
H71 H 0.5276 0.6476 0.1650
C88 C 0.1287(4) 0.2606(4) 0.2578(5)
H72 H 0.1096 0.2351 0.2592
H73 H 0.1618 0.2523 0.2590
C89 C 0.3579(5) 0.0984(4) 0.1295(5)
H74 H 0.3508 0.1231 0.1132
H75 H 0.3885 0.0882 0.1201
C90 C 0.2223(5) 0.4093(6) 0.4158(5)
H76 H 0.1982 0.4256 0.4019
H77 H 0.2205 0.3804 0.4060
C91 C 0.2588(4) 0.6161(5) 0.2597(5)
H78 H 0.2250 0.6155 0.2558
H79 H 0.2673 0.6408 0.2750
H80 H 0.2686 0.5910 0.2738
C92 C 0.5253(4) 0.1151(4) 0.2017(4)
H81 H 0.5412 0.1359 0.1850
H82 H 0.5266 0.0880 0.1878
C93 C 0.6338(6) 0.6283(6) 0.1109(6)
H83 H 0.6140 0.6126 0.0927
H84 H 0.6663 0.6263 0.1024
H85 H 0.6242 0.6576 0.1111
C94 C 0.6291(5) 0.6106(5) 0.1516(5)
H86 H 0.6508 0.6256 0.1692
H87 H 0.5972 0.6162 0.1612
C95 C 0.4138(5) 0.4996(4) 0.4454(4)
H88 H 0.3820 0.5004 0.4343
H89 H 0.4295 0.5261 0.4389
C96 C 0.5173(5) 0.6901(4) 0.1190(4)
H90 H 0.5162 0.6712 0.0964
H91 H 0.5491 0.7005 0.1223
H92 H 0.4962 0.7135 0.1144
C97 C 0.5514(5) 0.1113(5) 0.2406(6)
H93 H 0.5809 0.0968 0.2363
H94 H 0.5325 0.0956 0.2594
H95 H 0.5575 0.1392 0.2512
C98 C 0.6687(6) 0.4837(9) 0.3237(4)
H96 H 0.6742 0.4544 0.3176
H97 H 0.6398 0.4864 0.3388
H98 H 0.6947 0.4946 0.3394
C99 C 0.5411(5) 0.3295(5) 0.4377(5)
H99 H 0.5348 0.3392 0.4648
H100 H 0.5518 0.3537 0.4221
C100 C 0.5542(6) 0.3329(6) 0.1335(4)
H101 H 0.5624 0.3459 0.1094
C101 C 0.2117(4) 0.2579(4) 0.1765(4)
C102 C 0.4115(7) 0.4941(6) 0.4907(5)
H102 H 0.4430 0.4974 0.5019
H103 H 0.4006 0.4656 0.4969
C103 C 0.1095(7) 0.3662(7) 0.5197(7)
H104 H 0.0826 0.3835 0.5132
H105 H 0.1094 0.3600 0.5480
H106 H 0.1080 0.3401 0.5048
C104 C 0.5312(6) 0.2928(7) 0.1338(6)
H107 H 0.5281 0.2788 0.1093
C105 C 0.3277(4) 0.2768(4) 0.4228(3)
H108 H 0.2954 0.2752 0.4326
H109 H 0.3398 0.3049 0.4289
C106 C 0.2771(6) 0.0861(8) 0.1222(7)
H110 H 0.2706 0.0887 0.1504
H111 H 0.2538 0.0679 0.1101
H112 H 0.2759 0.1136 0.1099
C107 C 0.1516(8) 0.1040(6) 0.1095(6)
H113 H 0.1721 0.1185 0.0910
H114 H 0.1192 0.1090 0.1022
H115 H 0.1581 0.0741 0.1086
C108 C 0.1623(7) 0.3914(7) 0.4643(5)
H116 H 0.1596 0.3633 0.4527
H117 H 0.1386 0.4094 0.4519
C109 C 0.3254(6) 0.0673(5) 0.1164(6)
H118 H 0.3287 0.0416 0.1321
H119 H 0.3306 0.0605 0.0884
C116 C 0.3780(7) 0.5264(7) 0.5100(6)
H123 H 0.3472 0.5248 0.4972
H124 H 0.3904 0.5548 0.5060
C118 C 0.1532(7) 0.3889(7) 0.5093(5)
H128 H 0.1799 0.3749 0.5220
H129 H 0.1514 0.4175 0.5200
C120 C 0.3581(8) 0.2434(7) 0.4450(7)
H133 H 0.3441 0.2170 0.4357
H134 H 0.3881 0.2454 0.4308
C122 C 0.2114(6) 0.4091(6) 0.4557(6)
H137 H 0.2133 0.4379 0.4660
H138 H 0.2348 0.3922 0.4699
C130 C 0.3727(11) 0.5177(10) 0.5553(7)
H154 H 0.3456 0.5332 0.5657
H155 H 0.3672 0.4877 0.5597
C139 C 0.5799(8) 0.2971(7) 0.4390(8)
H164 H 0.6062 0.3097 0.4536
H165 H 0.5905 0.2928 0.4116
C146 C 0.4170(11) 0.5313(11) 0.5772(10)
H169 H 0.4398 0.5474 0.5571
H170 H 0.4345 0.5042 0.5888
H171 H 0.4077 0.5518 0.6011
C158 C 0.6194(10) 0.2324(10) 0.4491(10)
H189 H 0.6240 0.2245 0.4212
H190 H 0.6461 0.2489 0.4587
C159 C 0.607(2) 0.1948(17) 0.4759(18)
H191 H 0.6056 0.1669 0.4583
H192 H 0.5743 0.2002 0.4900
H193 H 0.6341 0.1913 0.4980
C160 C 0.5711(9) 0.2538(7) 0.4570(9)
H194 H 0.5455 0.2390 0.4435
H195 H 0.5643 0.2555 0.4855
C162 C 0.374(3) 0.231(2) 0.4877(12)
H199 H 0.3795 0.2581 0.5015
H200 H 0.3471 0.2183 0.5004
C163 C 0.417(2) 0.203(2) 0.499(3)
H201 H 0.4368 0.1977 0.4755
H202 H 0.4359 0.2162 0.5197
C164 C 0.392(3) 0.163(3) 0.513(3)
H203 H 0.3612 0.1693 0.5029
H204 H 0.4059 0.1439 0.4937
C165 C 0.377(2) 0.1293(18) 0.5436(18)
H205 H 0.3616 0.1034 0.5281
H206 H 0.3520 0.1424 0.5637
H207 H 0.4070 0.1185 0.5599
C179 C 0.6646(7) 0.5091(6) 0.2846(5)
H231 H 0.6318 0.5164 0.2791
H232 H 0.6831 0.5350 0.2860
C110 C 0.7123(5) 0.9211(3) 0.3828(4)
C111 C 0.7544(5) 0.9091(4) 0.3993(4)
H120 H 0.7715 0.9281 0.4151
C112 C 0.7715(4) 0.8693(5) 0.3928(4)
C113 C 0.7465(5) 0.8414(3) 0.3698(5)
H121 H 0.7582 0.8142 0.3653
C114 C 0.7044(5) 0.8535(4) 0.3533(4)
C115 C 0.6873(4) 0.8933(4) 0.3598(4)
H122 H 0.6585 0.9015 0.3485
C117 C 0.6817(8) 0.8204(6) 0.3257(6)
H125 H 0.7012 0.7954 0.3250
H126 H 0.6788 0.8318 0.2991
H127 H 0.6508 0.8131 0.3358
C119 C 0.6910(7) 0.9634(5) 0.3931(6)
H130 H 0.7079 0.9756 0.4153
H131 H 0.6583 0.9597 0.4003
H132 H 0.6933 0.9820 0.3703
C129 C 0.8165(9) 0.8552(10) 0.4135(10)
H151 H 0.8292 0.8799 0.4322
H152 H 0.8425 0.8477 0.3917
H153 H 0.8094 0.8280 0.4313
C123 C 0.3633(6) 0.3273(5) 0.2355(5)
H139 H 0.3721 0.3007 0.2482
H140 H 0.3290 0.3272 0.2341
C124 C 0.4206(6) 0.3787(5) 0.2677(5)
H141 H 0.4435 0.3557 0.2680
H142 H 0.4226 0.3925 0.2937
C125 C 0.4391(6) 0.4054(5) 0.1929(4)
H143 H 0.4561 0.4300 0.1830
H144 H 0.4589 0.3809 0.1873
C126 C 0.4370(7) 0.4096(6) 0.2376(4)
H145 H 0.4690 0.4169 0.2457
H146 H 0.4181 0.4349 0.2424
C127 C 0.3745(6) 0.3597(5) 0.2651(5)
H147 H 0.3521 0.3826 0.2612
H148 H 0.3678 0.3475 0.2912
C128 C 0.3769(8) 0.3235(7) 0.1993(6)
H149 H 0.3534 0.3048 0.1874
H150 H 0.4056 0.3067 0.2012
C138 C 0.3872(8) 0.3538(7) 0.1679(6)
H162 H 0.3611 0.3502 0.1492
H163 H 0.4147 0.3419 0.1546
C155 C 0.3964(10) 0.4009(8) 0.1673(10)
H181 H 0.4024 0.4109 0.1402
H182 H 0.3698 0.4165 0.1784
C140 C 0.5793(9) 0.5190(9) 0.9313(9)
H166 H 0.6055 0.5356 0.9246
C141 C 0.5351(11) 0.5365(7) 0.9312(8)
C142 C 0.4967(9) 0.5123(10) 0.9411(9)
H167 H 0.4665 0.5242 0.9411
C143 C 0.5026(9) 0.4707(9) 0.9510(8)
C144 C 0.5469(11) 0.4532(7) 0.9511(8)
H168 H 0.5509 0.4248 0.9578
C145 C 0.5852(8) 0.4774(9) 0.9412(9)
C156 C 0.6289(10) 0.4525(11) 0.9340(11)
H183 H 0.6449 0.4626 0.9069
H184 H 0.6202 0.4199 0.9319
H185 H 0.6528 0.4573 0.9581
C157 C 0.4627(14) 0.4449(16) 0.9677(19)
H186 H 0.4683 0.4124 0.9611
H187 H 0.4303 0.4549 0.9548
H188 H 0.4611 0.4490 0.9992
C168 C 0.5282(19) 0.5838(10) 0.926(2)
H214 H 0.5386 0.5926 0.8963
H215 H 0.5492 0.6004 0.9469
H216 H 0.4921 0.5916 0.9301
C148 C 0.4328(7) 0.4215(5) 0.6110(6)
H175 H 0.4445 0.4489 0.6136
C149 C 0.3941(7) 0.4091(5) 0.6325(5)
C150 C 0.3770(6) 0.3689(6) 0.6287(5)
H176 H 0.3506 0.3605 0.6434
C151 C 0.3986(7) 0.3410(5) 0.6033(6)
C152 C 0.4373(7) 0.3534(6) 0.5818(6)
H177 H 0.4521 0.3343 0.5644
C153 C 0.4544(6) 0.3936(7) 0.5856(6)
C154 C 0.3763(10) 0.4377(8) 0.6651(7)
H178 H 0.3724 0.4216 0.6894
H179 H 0.3464 0.4497 0.6573
H180 H 0.3988 0.4601 0.6696
C161 C 0.4938(10) 0.4062(12) 0.5582(9)
H196 H 0.4808 0.4174 0.5337
H197 H 0.5130 0.3818 0.5522
H198 H 0.5130 0.4274 0.5709
C167 C 0.3777(15) 0.2981(9) 0.5960(14)
H211 H 0.3521 0.3001 0.5729
H212 H 0.3615 0.2870 0.6226
H213 H 0.4049 0.2768 0.5873
C121? C 0.5532(12) 0.3305(14) 0.4814(7)
H135? H 0.5452 0.3037 0.4940
H136? H 0.5358 0.3530 0.4948
C131? C 0.6936(13) 0.3379(11) 0.5167(13)
H156? H 0.6785 0.3476 0.4891
H157? H 0.7277 0.3251 0.5114
H158? H 0.6963 0.3643 0.5362
C132? C 0.6174(11) 0.3123(9) 0.5473(15)
H159? H 0.6030 0.3381 0.5415
C133? C 0.5930(9) 0.2819(10) 0.5678(13)
C134? C 0.6141(11) 0.2440(10) 0.5764(13)
H160? H 0.5974 0.2233 0.5903
C135? C 0.6596(11) 0.2366(9) 0.5645(14)
C136? C 0.6840(9) 0.2670(10) 0.5440(13)
H161? H 0.7150 0.2620 0.5359
C137? C 0.6629(11) 0.3049(10) 0.5354(15)
C147? C 0.5425(9) 0.2887(12) 0.5774(12)
H172? H 0.5370 0.3184 0.5818
H173? H 0.5344 0.2732 0.6012
H174? H 0.5233 0.2791 0.5554
C166? C 0.6820(16) 0.1940(11) 0.5723(16)
H208? H 0.7032 0.1958 0.5984
H209? H 0.7035 0.1855 0.5475
H210? H 0.6552 0.1710 0.5763
C169? C 0.680(2) 0.3533(12) 0.522(2)
H217? H 0.6842 0.3726 0.5478
H218? H 0.6520 0.3646 0.5043
H219? H 0.7122 0.3543 0.5051
C170? C 0.7078(10) 0.2816(11) 0.5401(13)
H220? H 0.7379 0.2889 0.5307
C171? C 0.6707(12) 0.3087(10) 0.5346(15)
C172? C 0.6268(11) 0.2980(11) 0.5482(15)
H221? H 0.6014 0.3165 0.5445
C173? C 0.6199(10) 0.2603(11) 0.5674(13)
C174? C 0.6570(12) 0.2333(10) 0.5729(14)
H222? H 0.6523 0.2075 0.5860
C175? C 0.7010(10) 0.2439(11) 0.5593(13)
C176? C 0.5729(14) 0.2465(17) 0.5803(19)
H223? H 0.5512 0.2733 0.5853
H224? H 0.5760 0.2288 0.6072
H225? H 0.5576 0.2273 0.5577
C177? C 0.7389(16) 0.2096(14) 0.5577(19)
H226? H 0.7348 0.1916 0.5311
H227? H 0.7354 0.1894 0.5829
H228? H 0.7729 0.2238 0.5579
C178? C 0.6066(12) 0.3387(18) 0.4843(12)
H229? H 0.6234 0.3152 0.4719
H230? H 0.6142 0.3643 0.4695
C180? C 0.6236(17) 0.343(2) 0.5269(14)
H233? H 0.6476 0.3655 0.5280
H234? H 0.6381 0.3171 0.5356
C181? C 0.584(3) 0.355(4) 0.5551(18)
H235? H 0.5980 0.3657 0.5826
H236? H 0.5626 0.3275 0.5604
H237? H 0.5626 0.3789 0.5421
C182? C 0.4877(9) 0.4633(16) 0.4486(9)
C183? C 0.4908(17) 0.4671(16) 0.4929(9)
C184? C 0.4622(18) 0.4378(16) 0.5179(11)
C185? C 0.4691(19) 0.4417(18) 0.5626(11)
C186? C 0.434(3) 0.470(3) 0.5836(19)
C187? C 0.2531(10) 0.4706(6) 0.4146(7)
C188? C 0.2437(13) 0.4770(10) 0.4592(8)
C189? C 0.2337(19) 0.5232(11) 0.4693(13)
C190? C 0.223(2) 0.532(2) 0.5129(13)
C191? C 0.185(5) 0.565(4) 0.517(3)
C192? C 0.2764(11) 0.281(2) 0.4365(19)
C193? C 0.272(6) 0.274(5) 0.481(2)
C194? C 0.299(3) 0.241(2) 0.5058(18)
C195? C 0.309(3) 0.266(2) 0.5434(15)
C196? C 0.310(2) 0.254(2) 0.5867(16)
C197? C 0.2851(9) 0.0526(9) 0.1082(7)
C198? C 0.6549(12) 0.4601(10) 0.2849(6)
C199? C 0.3063(7) 0.0786(7) 0.1409(6)
H238? H 0.4214 0.4862 0.4377
H239? H 0.4245 0.4367 0.4330
H240? H 0.2452 0.4064 0.4120
H241? H 0.2981 0.4203 0.4196
H242? H 0.3453 0.3022 0.4298
H243? H 0.3426 0.2527 0.4357
H244? H 0.5039 0.4373 0.4413
H245? H 0.5061 0.4865 0.4374
H246? H 0.5238 0.4635 0.5004
H247? H 0.4820 0.4959 0.5001
H248? H 0.4697 0.4089 0.5100
H249? H 0.4290 0.4426 0.5119
H250? H 0.4676 0.4135 0.5743
H251? H 0.5007 0.4528 0.5676
H252? H 0.4126 0.4510 0.6031
H253? H 0.4116 0.4844 0.5620
H254? H 0.4517 0.4931 0.6004
H255? H 0.2242 0.4765 0.3998
H256? H 0.2770 0.4908 0.4059
H257? H 0.2168 0.4598 0.4672
H258? H 0.2711 0.4675 0.4744
H259? H 0.2610 0.5400 0.4616
H260? H 0.2070 0.5326 0.4532
H261? H 0.2116 0.5036 0.5270
H262? H 0.2540 0.5426 0.5275
H263? H 0.1576 0.5596 0.4960
H264? H 0.1994 0.5956 0.5127
H265? H 0.1701 0.5634 0.5467
H266? H 0.2647 0.3089 0.4298
H267? H 0.2571 0.2602 0.4225
H268? H 0.2388 0.2686 0.4861
H269? H 0.2792 0.3011 0.4934
H270? H 0.3394 0.2789 0.5386
H271? H 0.2861 0.2896 0.5424
H272? H 0.2791 0.2166 0.5113
H273? H 0.3277 0.2324 0.4927
H274? H 0.3391 0.2338 0.5919
H275? H 0.2780 0.2379 0.5942
H276? H 0.3130 0.2816 0.6046
H277? H 0.2833 0.0692 0.0841
H278? H 0.2539 0.0436 0.1160
H279? H 0.3046 0.0281 0.1035
H280? H 0.6620 0.4301 0.2871
H281? H 0.6213 0.4634 0.2793
H282? H 0.6837 0.5102 0.3170
H283? H 0.6903 0.4666 0.3390
H284? H 0.6407 0.4892 0.3394
H285? H 0.3096 0.0612 0.1647
H286? H 0.2848 0.1017 0.1473
loop_
_geom_bond_atom_site_label_1
_geom_bond_atom_site_label_2
_geom_bond_site_symmetry_1
_geom_bond_site_symmetry_2
O1 C11 1_555 1_555
O2 C5 1_555 1_555
O3 C33 1_555 1_555
O4 C14 1_555 1_555
O5 H1 1_555 1_555
O6 C51 1_555 1_555
O7 C43 1_555 1_555
N1 C18 1_555 1_555
O8 H2 1_555 1_555
C1 C8 1_555 1_555
N2 C3 1_555 1_555
O9 C25 1_555 1_555
C2 H3 1_555 1_555
N3 C30 1_555 1_555
C3 C20 1_555 1_555
O10 C30 1_555 1_555
C4 O12 1_555 1_555
O11 C49 1_555 1_555
O12 C35 1_555 1_555
C5 C13 1_555 1_555
C6 C26 1_555 1_555
N4 C23 1_555 1_555
C7 O2 1_555 1_555
C8 C15 1_555 1_555
O13 H4 1_555 1_555
C9 H5 1_555 1_555
C10 C11 1_555 1_555
C11 C22 1_555 1_555
N5 C36 1_555 1_555
O14 C101 1_555 1_555
C12 C14 1_555 1_555
C13 C9 1_555 1_555
C14 C2 1_555 1_555
O15 H6 1_555 1_555
C15 O5 1_555 1_555
C16 C27 1_555 1_555
C17 C9 1_555 1_555
C18 O1 1_555 1_555
C19 C24 1_555 1_555
C20 C43 1_555 1_555
C21 O8 1_555 1_555
C22 C5 1_555 1_555
H7 C22 1_555 1_555
C23 H8 1_555 1_555
H9 C23 1_555 1_555
C24 H10 1_555 1_555
C25 C7 1_555 1_555
C26 N1 1_555 1_555
C27 C17 1_555 1_555
H11 C27 1_555 1_555
C28 C24 1_555 1_555
C29 C10 1_555 1_555
H12 C29 1_555 1_555
N6 C55 1_555 1_555
N7 C46 1_555 1_555
C30 C70 1_555 1_555
C31 O13 1_555 1_555
C32 H13 1_555 1_555
C33 C4 1_555 1_555
C34 O9 1_555 1_555
C35 C28 1_555 1_555
C36 O16 1_555 1_555
C37 C42 1_555 1_555
C38 O4 1_555 1_555
C39 C12 1_555 1_555
H14 C39 1_555 1_555
C40 O10 1_555 1_555
C41 C53 1_555 1_555
C42 N3 1_555 1_555
C43 N8 1_555 1_555
C44 H15 1_555 1_555
C45 C49 1_555 1_555
C46 C42 1_555 1_555
C47 H16 1_555 1_555
H17 C47 1_555 1_555
C48 O3 1_555 1_555
N8 C64 1_555 1_555
C49 C61 1_555 1_555
C50 N4 1_555 1_555
H18 C50 1_555 1_555
H19 C50 1_555 1_555
C51 C6 1_555 1_555
C52 C6 1_555 1_555
H20 C52 1_555 1_555
C53 C4 1_555 1_555
C54 C28 1_555 1_555
H21 C54 1_555 1_555
C55 C47 1_555 1_555
H22 C55 1_555 1_555
H23 C55 1_555 1_555
C56 C1 1_555 1_555
H24 C56 1_555 1_555
C57 C31 1_555 1_555
C58 C8 1_555 1_555
H25 C58 1_555 1_555
C59 C34 1_555 1_555
H26 C59 1_555 1_555
C60 H27 1_555 1_555
H28 C60 1_555 1_555
C61 C35 1_555 1_555
H29 C61 1_555 1_555
C62 C10 1_555 1_555
H30 C62 1_555 1_555
C63 C50 1_555 1_555
H31 C63 1_555 1_555
H32 C63 1_555 1_555
C64 H33 1_555 1_555
H34 C64 1_555 1_555
C65 C23 1_555 1_555
H35 C65 1_555 1_555
H36 C65 1_555 1_555
C66 H37 1_555 1_555
H38 C66 1_555 1_555
C67 C64 1_555 1_555
H39 C67 1_555 1_555
H40 C67 1_555 1_555
C68 C16 1_555 1_555
H41 C68 1_555 1_555
C69 C62 1_555 1_555
H42 C69 1_555 1_555
H43 C69 1_555 1_555
C70 O11 1_555 1_555
C71 H44 1_555 1_555
H45 C71 1_555 1_555
C72 C9 1_555 1_555
H46 C72 1_555 1_555
H47 C72 1_555 1_555
C73 N8 1_555 1_555
H48 C73 1_555 1_555
H49 C73 1_555 1_555
C74 N5 1_555 1_555
H50 C74 1_555 1_555
H51 C74 1_555 1_555
C75 C32 1_555 1_555
C76 C41 1_555 1_555
H52 C76 1_555 1_555
C77 N5 1_555 1_555
H53 C77 1_555 1_555
H54 C77 1_555 1_555
C78 C32 1_555 1_555
H55 C78 1_555 1_555
C79 N6 1_555 1_555
H56 C79 1_555 1_555
H57 C79 1_555 1_555
C80 C24 1_555 1_555
H58 C80 1_555 1_555
H59 C80 1_555 1_555
C81 C47 1_555 1_555
H60 C81 1_555 1_555
H61 C81 1_555 1_555
C82 C57 1_555 1_555
H62 C82 1_555 1_555
C83 C20 1_555 1_555
H63 C83 1_555 1_555
C84 C44 1_555 1_555
H64 C84 1_555 1_555
C85 H65 1_555 1_555
H66 C85 1_555 1_555
H67 C85 1_555 1_555
C86 C63 1_555 1_555
H68 C86 1_555 1_555
H69 C86 1_555 1_555
C87 C65 1_555 1_555
H70 C87 1_555 1_555
H71 C87 1_555 1_555
C88 C66 1_555 1_555
H72 C88 1_555 1_555
H73 C88 1_555 1_555
C89 C77 1_555 1_555
H74 C89 1_555 1_555
H75 C89 1_555 1_555
C90 C72 1_555 1_555
H76 C90 1_555 1_555
H77 C90 1_555 1_555
C91 C86 1_555 1_555
H78 C91 1_555 1_555
H79 C91 1_555 1_555
H80 C91 1_555 1_555
C92 C60 1_555 1_555
H81 C92 1_555 1_555
H82 C92 1_555 1_555
C93 H83 1_555 1_555
H84 C93 1_555 1_555
H85 C93 1_555 1_555
C94 C71 1_555 1_555
H86 C94 1_555 1_555
H87 C94 1_555 1_555
C95 C69 1_555 1_555
H88 C95 1_555 1_555
H89 C95 1_555 1_555
C96 C87 1_555 1_555
H90 C96 1_555 1_555
H91 C96 1_555 1_555
H92 C96 1_555 1_555
C97 C92 1_555 1_555
H93 C97 1_555 1_555
H94 C97 1_555 1_555
H95 C97 1_555 1_555
C98 H96 1_555 1_555
H97 C98 1_555 1_555
H98 C98 1_555 1_555
C99 C80 1_555 1_555
H99 C99 1_555 1_555
H100 C99 1_555 1_555
C100 C82 1_555 1_555
H101 C100 1_555 1_555
C101 N6 1_555 1_555
C102 C95 1_555 1_555
H102 C102 1_555 1_555
H103 C102 1_555 1_555
C103 H104 1_555 1_555
H105 C103 1_555 1_555
H106 C103 1_555 1_555
C104 C76 1_555 1_555
H107 C104 1_555 1_555
C105 C68 1_555 1_555
H108 C105 1_555 1_555
H109 C105 1_555 1_555
C106 H110 1_555 1_555
H111 C106 1_555 1_555
H112 C106 1_555 1_555
C107 C81 1_555 1_555
H113 C107 1_555 1_555
H114 C107 1_555 1_555
H115 C107 1_555 1_555
C108 H116 1_555 1_555
H117 C108 1_555 1_555
C109 C89 1_555 1_555
H118 C109 1_555 1_555
H119 C109 1_555 1_555
C110 C111 1_555 1_555
C111 H120 1_555 1_555
C112 C111 1_555 1_555
C113 C112 1_555 1_555
H121 C113 1_555 1_555
C114 C113 1_555 1_555
C115 C110 1_555 1_555
H122 C115 1_555 1_555
C116 C102 1_555 1_555
H123 C116 1_555 1_555
H124 C116 1_555 1_555
C117 C114 1_555 1_555
H125 C117 1_555 1_555
H126 C117 1_555 1_555
H127 C117 1_555 1_555
C118 C103 1_555 1_555
H128 C118 1_555 1_555
H129 C118 1_555 1_555
C119 C110 1_555 1_555
H130 C119 1_555 1_555
H131 C119 1_555 1_555
H132 C119 1_555 1_555
C120 C105 1_555 1_555
H133 C120 1_555 1_555
H134 C120 1_555 1_555
C122 C90 1_555 1_555
H137 C122 1_555 1_555
H138 C122 1_555 1_555
C123 H139 1_555 1_555
H140 C123 1_555 1_555
C124 H141 1_555 1_555
H142 C124 1_555 1_555
C125 H143 1_555 1_555
H144 C125 1_555 1_555
C126 C124 1_555 1_555
H145 C126 1_555 1_555
H146 C126 1_555 1_555
C127 C123 1_555 1_555
H147 C127 1_555 1_555
H148 C127 1_555 1_555
C128 C123 1_555 1_555
H149 C128 1_555 1_555
H150 C128 1_555 1_555
C129 C112 1_555 1_555
H151 C129 1_555 1_555
H152 C129 1_555 1_555
H153 C129 1_555 1_555
C130 C116 1_555 1_555
H154 C130 1_555 1_555
H155 C130 1_555 1_555
C138 C128 1_555 1_555
H162 C138 1_555 1_555
H163 C138 1_555 1_555
C139 C99 1_555 1_555
H164 C139 1_555 1_555
H165 C139 1_555 1_555
C140 H166 1_555 1_555
C141 C140 1_555 1_555
C142 C141 1_555 1_555
H167 C142 1_555 1_555
C143 C142 1_555 1_555
C144 C143 1_555 1_555
H168 C144 1_555 1_555
C145 C140 1_555 1_555
C146 C130 1_555 1_555
H169 C146 1_555 1_555
H170 C146 1_555 1_555
H171 C146 1_555 1_555
C148 H175 1_555 1_555
C149 C148 1_555 1_555
C150 C149 1_555 1_555
H176 C150 1_555 1_555
C151 C150 1_555 1_555
C152 C151 1_555 1_555
H177 C152 1_555 1_555
C153 C148 1_555 1_555
C154 C149 1_555 1_555
H178 C154 1_555 1_555
H179 C154 1_555 1_555
H180 C154 1_555 1_555
C155 C125 1_555 1_555
H181 C155 1_555 1_555
H182 C155 1_555 1_555
C156 C145 1_555 1_555
H183 C156 1_555 1_555
H184 C156 1_555 1_555
H185 C156 1_555 1_555
C157 C143 1_555 1_555
H186 C157 1_555 1_555
H187 C157 1_555 1_555
H188 C157 1_555 1_555
C158 H189 1_555 1_555
H190 C158 1_555 1_555
C159 C158 1_555 1_555
H191 C159 1_555 1_555
H192 C159 1_555 1_555
H193 C159 1_555 1_555
C160 C139 1_555 1_555
H194 C160 1_555 1_555
H195 C160 1_555 1_555
C161 C153 1_555 1_555
H196 C161 1_555 1_555
H197 C161 1_555 1_555
H198 C161 1_555 1_555
C162 C120 1_555 1_555
H199 C162 1_555 1_555
H200 C162 1_555 1_555
C163 C162 1_555 1_555
H201 C163 1_555 1_555
H202 C163 1_555 1_555
C164 C163 1_555 1_555
H203 C164 1_555 1_555
H204 C164 1_555 1_555
C165 C164 1_555 1_555
H205 C165 1_555 1_555
H206 C165 1_555 1_555
H207 C165 1_555 1_555
C167 C151 1_555 1_555
H211 C167 1_555 1_555
H212 C167 1_555 1_555
H213 C167 1_555 1_555
C168 C141 1_555 1_555
H214 C168 1_555 1_555
H215 C168 1_555 1_555
H216 C168 1_555 1_555
C179 C67 1_555 1_555
H231 C179 1_555 1_555
H232 C179 1_555 1_555
C1 C21 1_555 1_555
N2 C38 1_555 1_555
C2 C48 1_555 1_555
C3 C26 1_555 1_555
N4 C51 1_555 1_555
C7 C21 1_555 1_555
C12 C62 1_555 1_555
C13 C29 1_555 1_555
O15 C53 1_555 1_555
C15 C25 1_555 1_555
C16 C40 1_555 1_555
C17 C34 1_555 1_555
C18 C38 1_555 1_555
C19 C39 1_555 1_555
C19 C48 1_555 1_555
N7 C70 1_555 1_555
C31 C33 1_555 1_555
C36 C75 1_555 1_555
C37 C78 1_555 1_555
C37 C101 1_555 1_555
C40 C59 1_555 1_555
C41 C57 1_555 1_555
C44 C56 1_555 1_555
C45 C54 1_555 1_555
C45 C68 1_555 1_555
C46 C75 1_555 1_555
C52 C83 1_555 1_555
C58 C84 1_555 1_555
C60 C74 1_555 1_555
C66 C79 1_555 1_555
C71 C73 1_555 1_555
C85 C88 1_555 1_555
C93 C94 1_555 1_555
C98 C179 1_555 1_555
C100 C104 1_555 1_555
C106 C109 1_555 1_555
C108 C118 1_555 1_555
C108 C122 1_555 1_555
C114 C115 1_555 1_555
C124 C127 1_555 1_555
C125 C126 1_555 1_555
C138 C155 1_555 1_555
C144 C145 1_555 1_555
C152 C153 1_555 1_555
C158 C160 1_555 1_555

#END
