
#######################################################################
#
#                 Cambridge Crystallographic Data Centre
#                                CCDC 
#
#######################################################################
#
# If this CIF has been generated from an entry in the Cambridge 
# Structural Database, then it will include bibliographic, chemical, 
# crystal, experimental, refinement or atomic coordinate data resulting 
# from the CCDC's data processing and validation procedures.
#
#######################################################################

data_EDEMAD
_chemical_formula_moiety         'C54 H58 Si2'
_chemical_name_systematic        
(1,12-dihydrodibenzo[de,qr]hexacene-7,16-diyldiethyne-2,1-diyl)bis[tri(propan-2-yl)silane]
_symmetry_cell_setting           triclinic
_symmetry_space_group_name_H-M   'P -1'
_symmetry_Int_Tables_number      2
_space_group_name_Hall           '-P 1'
loop_
_symmetry_equiv_pos_site_id
_symmetry_equiv_pos_as_xyz
1 x,y,z
2 -x,-y,-z
_cell_length_a                   8.410(3)
_cell_length_b                   9.846(4)
_cell_length_c                   14.020(6)
_cell_angle_alpha                73.046(5)
_cell_angle_beta                 77.078(5)
_cell_angle_gamma                87.083(5)
_cell_volume                     1082.22
_exptl_crystal_colour            blue
_exptl_crystal_description       prism
_cell_formula_units_Z            1
loop_
_atom_site_label
_atom_site_type_symbol
_atom_site_fract_x
_atom_site_fract_y
_atom_site_fract_z
C1 C 0.99804(16) 0.54628(13) 0.03175(10)
C2 C 0.85477(16) 0.55786(14) 0.09958(10)
H1 H 0.8532 0.6182 0.1417
C3 C 0.71027(16) 0.48319(13) 0.10861(10)
C4 C 0.71334(16) 0.39027(13) 0.04448(10)
C5 C 0.85657(16) 0.37823(14) -0.02219(10)
H2 H 0.8587 0.3169 -0.0637
C6 C 0.56570(16) 0.49842(14) 0.17800(10)
C7 C 0.41779(16) 0.42244(14) 0.18809(10)
C8 C 0.27390(17) 0.43897(15) 0.25557(11)
H3 H 0.2731 0.5003 0.2969
C9 C 0.13038(17) 0.36635(15) 0.26328(11)
H4 H 0.0334 0.3790 0.3096
C10 C 0.12900(17) 0.27717(15) 0.20446(11)
H5 H 0.0311 0.2280 0.2109
C11 C 0.27185(16) 0.25738(14) 0.13417(11)
C12 C 0.27087(17) 0.16967(14) 0.07025(11)
H6 H 0.1738 0.1197 0.0761
C13 C 0.40861(17) 0.15605(14) 0.00005(11)
H7 H 0.4058 0.0981 -0.0431
C14 C 0.55344(17) 0.22714(14) -0.00834(11)
H8 H 0.6480 0.2158 -0.0570
C15 C 0.56213(16) 0.31383(14) 0.05289(10)
C16 C 0.41896(16) 0.33056(14) 0.12525(10)
C17 C 0.56434(16) 0.59417(14) 0.23752(10)
C18 C 0.56897(16) 0.67822(15) 0.28492(11)
C19 C 0.75096(17) 0.72519(15) 0.43213(11)
H9 H 0.6914 0.6447 0.4884
C20 C 0.89972(19) 0.65997(18) 0.37630(13)
H10 H 0.9658 0.7355 0.3223
H11 H 0.8627 0.5928 0.3460
H12 H 0.9655 0.6101 0.4250
C21 C 0.8047(2) 0.82691(17) 0.48420(12)
H13 H 0.8725 0.7760 0.5314
H14 H 0.7082 0.8634 0.5222
H15 H 0.8677 0.9063 0.4322
C22 C 0.39889(17) 0.83679(15) 0.43314(11)
H16 H 0.4192 0.9031 0.4714
C23 C 0.27697(18) 0.90786(18) 0.36784(13)
H17 H 0.2572 0.8467 0.3275
H18 H 0.3218 0.9996 0.3218
H19 H 0.1740 0.9227 0.4125
C24 C 0.3259(2) 0.69885(17) 0.51229(13)
H20 H 0.2223 0.7191 0.5537
H21 H 0.4020 0.6587 0.5566
H22 H 0.3067 0.6306 0.4771
C25 C 0.66963(17) 0.97994(15) 0.24826(11)
H23 H 0.5856 1.0018 0.2057
C26 C 0.83247(18) 0.97046(16) 0.17478(12)
H24 H 0.8503 1.0570 0.1171
H25 H 0.8295 0.8880 0.1495
H26 H 0.9215 0.9603 0.2109
C27 C 0.67168(19) 1.10675(15) 0.29129(11)
H27 H 0.7511 1.0900 0.3349
H28 H 0.5630 1.1175 0.3316
H29 H 0.7023 1.1935 0.2347
Si1 Si 0.60039(4) 0.80803(4) 0.35087(3)
C1A C 1.00196(16) 0.45372(13) -0.03175(10)
C2A C 1.14523(16) 0.44214(14) -0.09958(10)
H1A H 1.1468 0.3818 -0.1417
C3A C 1.28973(16) 0.51681(13) -0.10861(10)
C4A C 1.28666(16) 0.60973(13) -0.04448(10)
C5A C 1.14343(16) 0.62177(14) 0.02219(10)
H2A H 1.1413 0.6831 0.0637
C6A C 1.43430(16) 0.50158(14) -0.17800(10)
C7A C 1.58221(16) 0.57756(14) -0.18809(10)
C8A C 1.72610(17) 0.56103(15) -0.25557(11)
H3A H 1.7269 0.4997 -0.2969
C9A C 1.86962(17) 0.63365(15) -0.26328(11)
H4A H 1.9666 0.6210 -0.3096
C10A C 1.87100(17) 0.72283(15) -0.20446(11)
H5A H 1.9689 0.7720 -0.2109
C11A C 1.72815(16) 0.74262(14) -0.13417(11)
C12A C 1.72913(17) 0.83033(14) -0.07025(11)
H6A H 1.8262 0.8803 -0.0761
C13A C 1.59139(17) 0.84395(14) -0.00005(11)
H7A H 1.5942 0.9019 0.0431
C14A C 1.44656(17) 0.77286(14) 0.00834(11)
H8A H 1.3520 0.7842 0.0570
C15A C 1.43787(16) 0.68617(14) -0.05289(10)
C16A C 1.58104(16) 0.66944(14) -0.12525(10)
C17A C 1.43566(16) 0.40583(14) -0.23752(10)
C18A C 1.43103(16) 0.32178(15) -0.28492(11)
C19A C 1.24904(17) 0.27481(15) -0.43213(11)
H9A H 1.3086 0.3553 -0.4884
C20A C 1.10028(19) 0.34003(18) -0.37630(13)
H10A H 1.0342 0.2645 -0.3223
H11A H 1.1373 0.4072 -0.3460
H12A H 1.0345 0.3899 -0.4250
C21A C 1.1953(2) 0.17309(17) -0.48420(12)
H13A H 1.1275 0.2240 -0.5314
H14A H 1.2918 0.1366 -0.5222
H15A H 1.1323 0.0937 -0.4322
C22A C 1.60111(17) 0.16321(15) -0.43314(11)
H16A H 1.5808 0.0969 -0.4714
C23A C 1.72303(18) 0.09214(18) -0.36784(13)
H17A H 1.7428 0.1533 -0.3275
H18A H 1.6782 0.0004 -0.3218
H19A H 1.8260 0.0773 -0.4125
C24A C 1.6741(2) 0.30115(17) -0.51229(13)
H20A H 1.7777 0.2809 -0.5537
H21A H 1.5980 0.3413 -0.5566
H22A H 1.6933 0.3694 -0.4771
C25A C 1.33037(17) 0.02006(15) -0.24826(11)
H23A H 1.4144 -0.0018 -0.2057
C26A C 1.16753(18) 0.02954(16) -0.17478(12)
H24A H 1.1497 -0.0570 -0.1171
H25A H 1.1705 0.1120 -0.1495
H26A H 1.0785 0.0397 -0.2109
C27A C 1.32832(19) -0.10675(15) -0.29129(11)
H27A H 1.2489 -0.0900 -0.3349
H28A H 1.4370 -0.1175 -0.3316
H29A H 1.2977 -0.1935 -0.2347
Si1A Si 1.39961(4) 0.19197(4) -0.35087(3)
loop_
_geom_bond_atom_site_label_1
_geom_bond_atom_site_label_2
_geom_bond_site_symmetry_1
_geom_bond_site_symmetry_2
C1 C2 1_555 1_555
C2 H1 1_555 1_555
C3 C2 1_555 1_555
C4 C3 1_555 1_555
C5 C4 1_555 1_555
H2 C5 1_555 1_555
C6 C3 1_555 1_555
C7 C6 1_555 1_555
C8 C7 1_555 1_555
H3 C8 1_555 1_555
C9 C8 1_555 1_555
H4 C9 1_555 1_555
C10 C9 1_555 1_555
H5 C10 1_555 1_555
C11 C10 1_555 1_555
C12 C11 1_555 1_555
H6 C12 1_555 1_555
C13 C12 1_555 1_555
H7 C13 1_555 1_555
C14 C13 1_555 1_555
H8 C14 1_555 1_555
C15 C4 1_555 1_555
C16 C7 1_555 1_555
C17 C6 1_555 1_555
C18 C17 1_555 1_555
C19 H9 1_555 1_555
C20 C19 1_555 1_555
H10 C20 1_555 1_555
H11 C20 1_555 1_555
H12 C20 1_555 1_555
C21 C19 1_555 1_555
H13 C21 1_555 1_555
H14 C21 1_555 1_555
H15 C21 1_555 1_555
C22 H16 1_555 1_555
C23 C22 1_555 1_555
H17 C23 1_555 1_555
H18 C23 1_555 1_555
H19 C23 1_555 1_555
C24 C22 1_555 1_555
H20 C24 1_555 1_555
H21 C24 1_555 1_555
H22 C24 1_555 1_555
C25 H23 1_555 1_555
C26 C25 1_555 1_555
H24 C26 1_555 1_555
H25 C26 1_555 1_555
H26 C26 1_555 1_555
C27 C25 1_555 1_555
H27 C27 1_555 1_555
H28 C27 1_555 1_555
H29 C27 1_555 1_555
Si1 C18 1_555 1_555
C1A C1 1_555 1_555
C2A C1A 1_555 1_555
H1A C2A 1_555 1_555
C3A C2A 1_555 1_555
C4A C3A 1_555 1_555
C5A C1 1_555 1_555
H2A C5A 1_555 1_555
C6A C3A 1_555 1_555
C7A C6A 1_555 1_555
C8A C7A 1_555 1_555
H3A C8A 1_555 1_555
C9A C8A 1_555 1_555
H4A C9A 1_555 1_555
C10A C9A 1_555 1_555
H5A C10A 1_555 1_555
C11A C10A 1_555 1_555
C12A C11A 1_555 1_555
H6A C12A 1_555 1_555
C13A C12A 1_555 1_555
H7A C13A 1_555 1_555
C14A C13A 1_555 1_555
H8A C14A 1_555 1_555
C15A C4A 1_555 1_555
C16A C7A 1_555 1_555
C17A C6A 1_555 1_555
C18A C17A 1_555 1_555
C19A H9A 1_555 1_555
C20A C19A 1_555 1_555
H10A C20A 1_555 1_555
H11A C20A 1_555 1_555
H12A C20A 1_555 1_555
C21A C19A 1_555 1_555
H13A C21A 1_555 1_555
H14A C21A 1_555 1_555
H15A C21A 1_555 1_555
C22A H16A 1_555 1_555
C23A C22A 1_555 1_555
H17A C23A 1_555 1_555
H18A C23A 1_555 1_555
H19A C23A 1_555 1_555
C24A C22A 1_555 1_555
H20A C24A 1_555 1_555
H21A C24A 1_555 1_555
H22A C24A 1_555 1_555
C25A H23A 1_555 1_555
C26A C25A 1_555 1_555
H24A C26A 1_555 1_555
H25A C26A 1_555 1_555
H26A C26A 1_555 1_555
C27A C25A 1_555 1_555
H27A C27A 1_555 1_555
H28A C27A 1_555 1_555
H29A C27A 1_555 1_555
Si1A C18A 1_555 1_555
C5 C1A 1_555 1_555
C11 C16 1_555 1_555
C14 C15 1_555 1_555
C15 C16 1_555 1_555
C19 Si1 1_555 1_555
C22 Si1 1_555 1_555
C25 Si1 1_555 1_555
C4A C5A 1_555 1_555
C11A C16A 1_555 1_555
C14A C15A 1_555 1_555
C15A C16A 1_555 1_555
C19A Si1A 1_555 1_555
C22A Si1A 1_555 1_555
C25A Si1A 1_555 1_555

#END
