
#######################################################################
#
#                 Cambridge Crystallographic Data Centre
#                                CCDC 
#
#######################################################################
#
# If this CIF has been generated from an entry in the Cambridge 
# Structural Database, then it will include bibliographic, chemical, 
# crystal, experimental, refinement or atomic coordinate data resulting 
# from the CCDC's data processing and validation procedures.
#
#######################################################################

data_EDEMAC
_chemical_formula_moiety         'C17 H13 F3 O3'
_chemical_name_systematic        
4-(4-(Benzyloxy)phenyl)-1,1,1-trifluoro-4-hydroxybut-3-en-2-one
_symmetry_cell_setting           orthorhombic
_symmetry_space_group_name_H-M   'P 21 21 21'
_symmetry_Int_Tables_number      19
_space_group_name_Hall           'P 2ac 2ab'
loop_
_symmetry_equiv_pos_site_id
_symmetry_equiv_pos_as_xyz
1 x,y,z
2 1/2-x,-y,1/2+z
3 -x,1/2+y,1/2-z
4 1/2+x,1/2-y,-z
_cell_length_a                   7.6226(11)
_cell_length_b                   11.0708(15)
_cell_length_c                   17.748(2)
_cell_angle_alpha                90
_cell_angle_beta                 90
_cell_angle_gamma                90
_cell_volume                     1497.72
_exptl_crystal_colour            colorless
_exptl_crystal_description       block
_chemical_melting_point          '367 K'
_cell_formula_units_Z            4
_exptl_crystal_recrystallization_method ethanol
loop_
_atom_site_label
_atom_site_type_symbol
_atom_site_fract_x
_atom_site_fract_y
_atom_site_fract_z
C1 C 0.3740(6) 0.8855(4) -0.1935(2)
C2 C 0.3147(6) 0.7911(4) -0.2368(3)
H1 H 0.2789 0.7200 -0.2136
C3 C 0.3078(7) 0.8003(5) -0.3137(3)
H2 H 0.2660 0.7360 -0.3422
C4 C 0.3626(7) 0.9049(5) -0.3489(3)
H3 H 0.3585 0.9109 -0.4011
C5 C 0.4231(7) 1.0001(5) -0.3067(3)
H4 H 0.4582 1.0711 -0.3302
C6 C 0.4317(6) 0.9904(4) -0.2297(3)
H5 H 0.4762 1.0541 -0.2014
C7 C 0.3784(7) 0.8811(4) -0.1086(2)
H6 H 0.4802 0.9245 -0.0901
H7 H 0.2741 0.9192 -0.0882
C8 C 0.3801(6) 0.7331(4) -0.0104(2)
C9 C 0.3715(7) 0.6124(4) 0.0080(3)
H8 H 0.3680 0.5548 -0.0301
C10 C 0.3680(7) 0.5765(4) 0.0812(2)
H9 H 0.3623 0.4945 0.0924
C11 C 0.3728(6) 0.6596(3) 0.1395(2)
C12 C 0.3821(7) 0.7810(4) 0.1203(2)
H10 H 0.3847 0.8387 0.1584
C13 C 0.3876(6) 0.8183(4) 0.0466(2)
H11 H 0.3962 0.9000 0.0350
C14 C 0.3696(5) 0.6193(4) 0.2183(2)
C15 C 0.3426(6) 0.6954(4) 0.2797(2)
H12 H 0.3231 0.7773 0.2719
C16 C 0.3446(6) 0.6505(4) 0.3516(3)
C17 C 0.3182(7) 0.7320(5) 0.4185(3)
F1 F 0.2753(14) 0.6788(5) 0.4809(3)
F2 F 0.1903(12) 0.8142(7) 0.4089(3)
F3 F 0.4573(10) 0.7974(9) 0.4330(5)
O1 O 0.3861(5) 0.7590(2) -0.08524(15)
O2 O 0.3947(5) 0.5056(3) 0.2297(2)
O3 O 0.3710(6) 0.5400(3) 0.3683(2)
H13 H 0.370(9) 0.503(5) 0.300(4)
F4? F 0.436(2) 0.6954(13) 0.4677(8)
F5? F 0.1678(14) 0.7131(15) 0.4486(9)
F6? F 0.343(3) 0.8437(7) 0.4061(7)
loop_
_geom_bond_atom_site_label_1
_geom_bond_atom_site_label_2
_geom_bond_site_symmetry_1
_geom_bond_site_symmetry_2
C1 C2 1_555 1_555
C2 H1 1_555 1_555
C3 C2 1_555 1_555
H2 C3 1_555 1_555
C4 C3 1_555 1_555
H3 C4 1_555 1_555
C5 C4 1_555 1_555
H4 C5 1_555 1_555
C6 C1 1_555 1_555
H5 C6 1_555 1_555
C7 C1 1_555 1_555
H6 C7 1_555 1_555
H7 C7 1_555 1_555
C8 C9 1_555 1_555
C9 H8 1_555 1_555
C10 C9 1_555 1_555
H9 C10 1_555 1_555
C11 C10 1_555 1_555
C12 C11 1_555 1_555
H10 C12 1_555 1_555
C13 C8 1_555 1_555
H11 C13 1_555 1_555
C14 C11 1_555 1_555
C15 C14 1_555 1_555
H12 C15 1_555 1_555
C16 C15 1_555 1_555
C17 C16 1_555 1_555
F1 C17 1_555 1_555
F2 C17 1_555 1_555
F3 C17 1_555 1_555
O1 C7 1_555 1_555
O2 C14 1_555 1_555
O3 C16 1_555 1_555
H13 O2 1_555 1_555
C5 C6 1_555 1_555
C8 O1 1_555 1_555
C12 C13 1_555 1_555

#END
