
#######################################################################
#
#                 Cambridge Crystallographic Data Centre
#                                CCDC 
#
#######################################################################
#
# If this CIF has been generated from an entry in the Cambridge 
# Structural Database, then it will include bibliographic, chemical, 
# crystal, experimental, refinement or atomic coordinate data resulting 
# from the CCDC's data processing and validation procedures.
#
#######################################################################

data_EDENUX
_chemical_formula_moiety         'C16 H16 O3 S1'
_chemical_name_systematic        
'2,10,12-Trimethyl-12H-dibenzo[d,g][1,3,2]dioxathiocine 6-oxide'
_symmetry_cell_setting           orthorhombic
_symmetry_space_group_name_H-M   'P c a 21'
_symmetry_Int_Tables_number      29
_space_group_name_Hall           'P 2c -2ac'
loop_
_symmetry_equiv_pos_site_id
_symmetry_equiv_pos_as_xyz
1 x,y,z
2 -x,-y,1/2+z
3 1/2+x,-y,z
4 1/2-x,y,1/2+z
_cell_length_a                   14.122(3)
_cell_length_b                   8.0880(16)
_cell_length_c                   25.343(5)
_cell_angle_alpha                90
_cell_angle_beta                 90
_cell_angle_gamma                90
_cell_volume                     2894.65
_exptl_crystal_colour            colorless
_exptl_crystal_description       block
_chemical_melting_point          '126-128 deg.C'
_cell_formula_units_Z            8
_exptl_crystal_recrystallization_method 'isopropyl alcohol'
loop_
_atom_site_label
_atom_site_type_symbol
_atom_site_fract_x
_atom_site_fract_y
_atom_site_fract_z
S1 S 0.21883(16) 0.7088(3) 0.74303(10)
O1 O 0.1300(4) 0.7391(6) 0.7223(2)
O2 O 0.2261(3) 0.8052(6) 0.7991(2)
O3 O 0.2965(3) 0.8038(6) 0.7086(2)
C1 C 0.0108(6) 1.3898(10) 0.8340(3)
H1 H -0.0482 1.3606 0.8503
H2 H -0.0013 1.4450 0.8011
H3 H 0.0456 1.4622 0.8570
C2 C 0.0693(5) 1.2320(9) 0.8237(3)
C3 C 0.1592(4) 1.2418(8) 0.8007(3)
H4 H 0.1826 1.3447 0.7906
C4 C 0.2138(5) 1.1037(9) 0.7925(3)
C5 C 0.1728(5) 0.9516(10) 0.8060(3)
C6 C 0.0842(5) 0.9431(10) 0.8286(3)
H5 H 0.0590 0.8416 0.8385
C7 C 0.0340(5) 1.0837(10) 0.8362(3)
H6 H -0.0266 1.0770 0.8505
C8 C 0.2456(6) 1.3871(9) 0.5856(3)
H7 H 0.2534 1.4839 0.6071
H8 H 0.1839 1.3883 0.5697
H9 H 0.2931 1.3861 0.5584
C9 C 0.2561(4) 1.2314(8) 0.6201(3)
C10 C 0.2452(5) 1.0780(9) 0.5978(3)
H10 H 0.2296 1.0695 0.5622
C11 C 0.2570(5) 0.9372(9) 0.6271(3)
H11 H 0.2511 0.8337 0.6115
C12 C 0.2775(4) 0.9505(9) 0.6798(3)
C13 C 0.2884(4) 1.1028(9) 0.7053(3)
C14 C 0.2783(4) 1.2404(8) 0.6728(3)
H12 H 0.2871 1.3445 0.6876
C15 C 0.3078(4) 1.1142(9) 0.7630(3)
H13 H 0.3439 1.0152 0.7725
C16 C 0.3669(4) 1.2611(7) 0.7795(3)
H14 H 0.4262 1.2589 0.7610
H15 H 0.3783 1.2563 0.8168
H16 H 0.3337 1.3613 0.7711
S2 S 0.04866(15) 0.7149(3) 0.51953(10)
O4 O 0.1369(4) 0.7467(6) 0.5400(2)
O5 O -0.0329(3) 0.8073(6) 0.5539(2)
O6 O 0.0424(3) 0.8172(6) 0.4638(2)
C17 C 0.2390(6) 1.4193(10) 0.4275(3)
H17 H 0.2000 1.5103 0.4385
H18 H 0.2535 1.4303 0.3907
H19 H 0.2966 1.4192 0.4476
C18 C 0.1868(5) 1.2598(8) 0.4366(3)
C19 C 0.2286(5) 1.1054(10) 0.4249(3)
H20 H 0.2899 1.1010 0.4115
C20 C 0.1795(6) 0.9635(11) 0.4330(3)
H21 H 0.2053 0.8631 0.4223
C21 C 0.0904(5) 0.9661(9) 0.4573(3)
C22 C 0.0483(5) 1.1173(9) 0.4706(3)
C23 C 0.0994(5) 1.2595(8) 0.4597(3)
H22 H 0.0725 1.3607 0.4685
C24 C 0.0153(5) 1.3952(9) 0.6739(3)
H23 H 0.0061 1.4887 0.6511
H24 H 0.0772 1.4006 0.6894
H25 H -0.0317 1.3965 0.7013
C25 C 0.0060(4) 1.2366(9) 0.6420(3)
C26 C -0.0158(4) 1.2464(7) 0.5889(3)
H26 H -0.0231 1.3501 0.5736
C27 C -0.0273(4) 1.1081(10) 0.5581(3)
C28 C -0.0154(4) 0.9546(9) 0.5820(3)
C29 C 0.0086(5) 0.9411(10) 0.6343(3)
H27 H 0.0189 0.8378 0.6493
C30 C 0.0170(4) 1.0803(10) 0.6639(3)
H28 H 0.0305 1.0707 0.6997
C31 C -0.0445(4) 1.1191(8) 0.4987(3)
H29 H -0.0772 1.0169 0.4886
C32 C -0.1105(4) 1.2619(8) 0.4832(3)
H30 H -0.1209 1.2601 0.4458
H31 H -0.0820 1.3652 0.4930
H32 H -0.1700 1.2498 0.5012
loop_
_geom_bond_atom_site_label_1
_geom_bond_atom_site_label_2
_geom_bond_site_symmetry_1
_geom_bond_site_symmetry_2
S1 O1 1_555 1_555
O2 S1 1_555 1_555
O3 S1 1_555 1_555
C1 H1 1_555 1_555
H2 C1 1_555 1_555
H3 C1 1_555 1_555
C2 C1 1_555 1_555
C3 C2 1_555 1_555
H4 C3 1_555 1_555
C4 C3 1_555 1_555
C5 O2 1_555 1_555
C6 C5 1_555 1_555
H5 C6 1_555 1_555
C7 C2 1_555 1_555
H6 C7 1_555 1_555
C8 H7 1_555 1_555
H8 C8 1_555 1_555
H9 C8 1_555 1_555
C9 C8 1_555 1_555
C10 C9 1_555 1_555
H10 C10 1_555 1_555
C11 C10 1_555 1_555
H11 C11 1_555 1_555
C12 O3 1_555 1_555
C13 C12 1_555 1_555
C14 C9 1_555 1_555
H12 C14 1_555 1_555
C15 C4 1_555 1_555
H13 C15 1_555 1_555
C16 C15 1_555 1_555
H14 C16 1_555 1_555
H15 C16 1_555 1_555
H16 C16 1_555 1_555
S2 O4 1_555 1_555
O5 S2 1_555 1_555
O6 S2 1_555 1_555
C17 H17 1_555 1_555
H18 C17 1_555 1_555
H19 C17 1_555 1_555
C18 C17 1_555 1_555
C19 C18 1_555 1_555
H20 C19 1_555 1_555
C20 C19 1_555 1_555
H21 C20 1_555 1_555
C21 O6 1_555 1_555
C22 C21 1_555 1_555
C23 C18 1_555 1_555
H22 C23 1_555 1_555
C24 H23 1_555 1_555
H24 C24 1_555 1_555
H25 C24 1_555 1_555
C25 C24 1_555 1_555
C26 C25 1_555 1_555
H26 C26 1_555 1_555
C27 C26 1_555 1_555
C28 O5 1_555 1_555
C29 C28 1_555 1_555
H27 C29 1_555 1_555
C30 C25 1_555 1_555
H28 C30 1_555 1_555
C31 C22 1_555 1_555
H29 C31 1_555 1_555
C32 C31 1_555 1_555
H30 C32 1_555 1_555
H31 C32 1_555 1_555
H32 C32 1_555 1_555
C4 C5 1_555 1_555
C6 C7 1_555 1_555
C11 C12 1_555 1_555
C13 C14 1_555 1_555
C13 C15 1_555 1_555
C20 C21 1_555 1_555
C22 C23 1_555 1_555
C27 C28 1_555 1_555
C27 C31 1_555 1_555
C29 C30 1_555 1_555

#END
