
#######################################################################
#
#                 Cambridge Crystallographic Data Centre
#                                CCDC 
#
#######################################################################
#
# If this CIF has been generated from an entry in the Cambridge 
# Structural Database, then it will include bibliographic, chemical, 
# crystal, experimental, refinement or atomic coordinate data resulting 
# from the CCDC's data processing and validation procedures.
#
#######################################################################

data_EDEPUZ
_chemical_formula_moiety         'C3 H4 N2 O1 S2'
_chemical_name_systematic        3-Amino-2-thioxo-1,3-thiazolidin-4-one
_symmetry_cell_setting           monoclinic
_symmetry_space_group_name_H-M   'P 21/n'
_symmetry_Int_Tables_number      14
_space_group_name_Hall           '-P 2yn'
loop_
_symmetry_equiv_pos_site_id
_symmetry_equiv_pos_as_xyz
1 x,y,z
2 1/2-x,1/2+y,1/2-z
3 -x,-y,-z
4 1/2+x,1/2-y,1/2+z
_cell_length_a                   9.8257(17)
_cell_length_b                   9.3118(16)
_cell_length_c                   13.416(2)
_cell_angle_alpha                90
_cell_angle_beta                 105.924(3)
_cell_angle_gamma                90
_cell_volume                     1180.39
_exptl_crystal_colour            colorless
_exptl_crystal_description       block
_cell_formula_units_Z            8
_exptl_crystal_recrystallization_method 'anhydrous ethanol'
loop_
_atom_site_label
_atom_site_type_symbol
_atom_site_fract_x
_atom_site_fract_y
_atom_site_fract_z
S1 S 0.42862(7) 0.22451(7) 0.88952(5)
S2 S 0.45652(7) 0.17983(7) 1.11280(5)
O1 O 0.13941(19) -0.0621(2) 0.80930(12)
N1 N 0.28161(19) 0.03994(19) 0.95556(13)
N2 N 0.2236(2) -0.0421(2) 1.02200(14)
C1 C 0.3843(2) 0.1415(2) 0.99099(17)
C2 C 0.2310(2) 0.0216(3) 0.84990(17)
C3 C 0.3057(3) 0.1194(3) 0.79385(17)
H1 H 0.2381 0.1814 0.7470
H2 H 0.3554 0.0638 0.7537
H5 H 0.295(2) -0.080(3) 1.0717(15)
H6 H 0.174(2) 0.021(2) 1.0505(17)
S3 S 0.74095(8) 0.46329(7) 0.97871(6)
S4 S 0.94214(8) 0.65599(8) 1.12373(5)
O2 O 0.8082(2) 0.6549(2) 0.74386(13)
N3 N 0.87489(19) 0.66393(19) 0.91821(13)
N4 N 0.9526(2) 0.7909(2) 0.92041(18)
C4 C 0.8593(2) 0.6040(2) 1.00653(17)
C5 C 0.7091(3) 0.4857(3) 0.8416(2)
H3 H 0.7339 0.3987 0.8108
H4 H 0.6099 0.5064 0.8098
C6 C 0.7985(3) 0.6077(3) 0.82491(18)
H7 H 0.974(3) 0.788(3) 0.8592(10)
H8 H 1.0315(17) 0.790(3) 0.9741(12)
loop_
_geom_bond_atom_site_label_1
_geom_bond_atom_site_label_2
_geom_bond_site_symmetry_1
_geom_bond_site_symmetry_2
S1 C1 1_555 1_555
S2 C1 1_555 1_555
S3 C4 1_555 1_555
S4 C4 1_555 1_555
O1 C2 1_555 1_555
O2 C6 1_555 1_555
N1 N2 1_555 1_555
N2 H5 1_555 1_555
N3 N4 1_555 1_555
N4 H7 1_555 1_555
C1 N1 1_555 1_555
C2 N1 1_555 1_555
C3 S1 1_555 1_555
H1 C3 1_555 1_555
H2 C3 1_555 1_555
C4 N3 1_555 1_555
C5 S3 1_555 1_555
H3 C5 1_555 1_555
H4 C5 1_555 1_555
C6 N3 1_555 1_555
H6 N2 1_555 1_555
H8 N4 1_555 1_555
C2 C3 1_555 1_555
C5 C6 1_555 1_555

#END
