
#######################################################################
#
#                 Cambridge Crystallographic Data Centre
#                                CCDC 
#
#######################################################################
#
# If this CIF has been generated from an entry in the Cambridge 
# Structural Database, then it will include bibliographic, chemical, 
# crystal, experimental, refinement or atomic coordinate data resulting 
# from the CCDC's data processing and validation procedures.
#
#######################################################################

data_EDETOX
_chemical_formula_moiety         'C25 H29 N1 O5'
_chemical_name_systematic        
'13-Methyl-3-oxo-2,3,6,7,8,9,10,11,12,13,14,15,16,17-tetradecahydro-1H-cyclopenta(a)phenanthren-17-yl 4-nitrobenzoate'
_symmetry_cell_setting           orthorhombic
_symmetry_space_group_name_H-M   'P 21 21 21'
_symmetry_Int_Tables_number      19
_space_group_name_Hall           'P 2ac 2ab'
loop_
_symmetry_equiv_pos_site_id
_symmetry_equiv_pos_as_xyz
1 x,y,z
2 1/2-x,-y,1/2+z
3 -x,1/2+y,1/2-z
4 1/2+x,1/2-y,-z
_cell_length_a                   10.8866(6)
_cell_length_b                   11.5321(6)
_cell_length_c                   17.6671(9)
_cell_angle_alpha                90
_cell_angle_beta                 90
_cell_angle_gamma                90
_cell_volume                     2218.02
_exptl_crystal_colour            colorless
_exptl_crystal_description       prism
_chemical_melting_point          '472-475 K'
_cell_formula_units_Z            4
_exptl_crystal_recrystallization_method ethanol
loop_
_atom_site_label
_atom_site_type_symbol
_atom_site_fract_x
_atom_site_fract_y
_atom_site_fract_z
O1 O 0.5768(3) 0.6312(3) 0.42364(14)
O2 O 0.4737(2) 0.51962(18) 1.01883(11)
O3 O 0.5297(3) 0.6795(2) 1.08166(12)
O4 O 0.6884(3) 0.1759(3) 1.30309(17)
O5 O 0.7028(3) 0.3232(3) 1.37676(16)
N1 N 0.6778(3) 0.2788(3) 1.31684(18)
C1 C 0.5414(4) 0.5881(3) 0.48331(19)
C2 C 0.4313(3) 0.6266(3) 0.52155(16)
H1 H 0.3846 0.6845 0.4989
C3 C 0.3929(3) 0.5836(3) 0.58751(15)
C4 C 0.2712(3) 0.6168(3) 0.62039(17)
H2 H 0.2157 0.5512 0.6172
H3 H 0.2364 0.6797 0.5910
C5 C 0.2828(3) 0.6547(3) 0.70291(16)
H4 H 0.3268 0.7278 0.7052
H5 H 0.2014 0.6670 0.7238
C6 C 0.3497(3) 0.5657(2) 0.75022(15)
H6 H 0.3006 0.4945 0.7509
C7 C 0.3685(3) 0.6050(3) 0.83138(15)
H7 H 0.4229 0.6725 0.8284
C8 C 0.2595(3) 0.6435(4) 0.87880(18)
H8 H 0.1906 0.5910 0.8726
H9 H 0.2337 0.7213 0.8651
C9 C 0.3092(3) 0.6400(3) 0.96115(18)
H10 H 0.3118 0.7172 0.9828
H11 H 0.2580 0.5911 0.9928
C10 C 0.4384(3) 0.5895(3) 0.95376(15)
H12 H 0.4975 0.6529 0.9475
C11 C 0.4355(3) 0.5171(2) 0.88165(15)
C12 C 0.5594(3) 0.4892(3) 0.84696(16)
H13 H 0.5988 0.4284 0.8761
H14 H 0.6114 0.5575 0.8490
C13 C 0.5457(3) 0.4499(3) 0.76461(16)
H15 H 0.6266 0.4379 0.7431
H16 H 0.5027 0.3762 0.7635
C14 C 0.4756(3) 0.5373(3) 0.71588(15)
H17 H 0.5233 0.6093 0.7165
C15 C 0.4674(3) 0.4983(3) 0.63285(16)
H18 H 0.4254 0.4232 0.6314
C16 C 0.5959(4) 0.4828(5) 0.5982(2)
H19 H 0.6489 0.5429 0.6184
H20 H 0.6284 0.4089 0.6152
C17 C 0.6043(5) 0.4862(5) 0.5178(2)
H21 H 0.5685 0.4158 0.4973
H22 H 0.6902 0.4876 0.5034
C18 C 0.3607(3) 0.4057(3) 0.89454(18)
H23 H 0.3478 0.3673 0.8470
H24 H 0.2828 0.4251 0.9166
H25 H 0.4049 0.3551 0.9280
C19 C 0.5181(3) 0.5761(3) 1.07838(16)
C20 C 0.5542(3) 0.4962(3) 1.14058(15)
C21 C 0.5865(3) 0.5425(3) 1.21044(17)
H26 H 0.5827 0.6223 1.2177
C22 C 0.6237(3) 0.4725(3) 1.26874(18)
H27 H 0.6444 0.5037 1.3156
C23 C 0.6298(3) 0.3553(3) 1.25628(17)
C24 C 0.5963(3) 0.3054(3) 1.18887(17)
H28 H 0.5996 0.2255 1.1823
C25 C 0.5576(3) 0.3771(3) 1.13105(17)
H29 H 0.5334 0.3450 1.0851
loop_
_geom_bond_atom_site_label_1
_geom_bond_atom_site_label_2
_geom_bond_site_symmetry_1
_geom_bond_site_symmetry_2
O1 C1 1_555 1_555
O2 C10 1_555 1_555
O3 C19 1_555 1_555
O4 N1 1_555 1_555
O5 N1 1_555 1_555
N1 C23 1_555 1_555
C1 C2 1_555 1_555
C2 H1 1_555 1_555
C3 C2 1_555 1_555
C4 C3 1_555 1_555
H2 C4 1_555 1_555
H3 C4 1_555 1_555
C5 C4 1_555 1_555
H4 C5 1_555 1_555
H5 C5 1_555 1_555
C6 C5 1_555 1_555
H6 C6 1_555 1_555
C7 C6 1_555 1_555
H7 C7 1_555 1_555
C8 C7 1_555 1_555
H8 C8 1_555 1_555
H9 C8 1_555 1_555
C9 C8 1_555 1_555
H10 C9 1_555 1_555
H11 C9 1_555 1_555
C10 C9 1_555 1_555
H12 C10 1_555 1_555
C11 C7 1_555 1_555
C12 C11 1_555 1_555
H13 C12 1_555 1_555
H14 C12 1_555 1_555
C13 C12 1_555 1_555
H15 C13 1_555 1_555
H16 C13 1_555 1_555
C14 C6 1_555 1_555
H17 C14 1_555 1_555
C15 C3 1_555 1_555
H18 C15 1_555 1_555
C16 C15 1_555 1_555
H19 C16 1_555 1_555
H20 C16 1_555 1_555
C17 C1 1_555 1_555
H21 C17 1_555 1_555
H22 C17 1_555 1_555
C18 C11 1_555 1_555
H23 C18 1_555 1_555
H24 C18 1_555 1_555
H25 C18 1_555 1_555
C19 O2 1_555 1_555
C20 C19 1_555 1_555
C21 C20 1_555 1_555
H26 C21 1_555 1_555
C22 C21 1_555 1_555
H27 C22 1_555 1_555
C23 C22 1_555 1_555
C24 C23 1_555 1_555
H28 C24 1_555 1_555
C25 C20 1_555 1_555
H29 C25 1_555 1_555
C10 C11 1_555 1_555
C13 C14 1_555 1_555
C14 C15 1_555 1_555
C16 C17 1_555 1_555
C24 C25 1_555 1_555

#END
