
#######################################################################
#
#                 Cambridge Crystallographic Data Centre
#                                CCDC 
#
#######################################################################
#
# If this CIF has been generated from an entry in the Cambridge 
# Structural Database, then it will include bibliographic, chemical, 
# crystal, experimental, refinement or atomic coordinate data resulting 
# from the CCDC's data processing and validation procedures.
#
#######################################################################

data_EDIFOP
_chemical_formula_moiety         'C27 H24 B2 F4 N4 O2'
_chemical_name_systematic        
6,6-difluoro-13-(5,5-difluoro-1,3,7,9-tetramethyl-5H-dipyrrolo[1,2-c:2',1'-f][1,3,2]diazaborinin-4-ium-5-ato-10-yl)-3-methoxy-6H-pyrido[2',1':2,3]imidazo[1,5-c][1,3,2]benzoxazaborinin-7-ium-6-ate
_symmetry_cell_setting           triclinic
_symmetry_space_group_name_H-M   'P -1'
_symmetry_Int_Tables_number      2
_space_group_name_Hall           '-P 1'
loop_
_symmetry_equiv_pos_site_id
_symmetry_equiv_pos_as_xyz
1 x,y,z
2 -x,-y,-z
_cell_length_a                   9.3823(9)
_cell_length_b                   11.6652(13)
_cell_length_c                   12.7087(13)
_cell_angle_alpha                110.083(3)
_cell_angle_beta                 102.478(3)
_cell_angle_gamma                97.527(3)
_cell_volume                     1243.15
_exptl_crystal_colour            'light red'
_exptl_crystal_description       block
_cell_formula_units_Z            2
_exptl_crystal_preparation       ', Luminescent'
loop_
_atom_site_label
_atom_site_type_symbol
_atom_site_fract_x
_atom_site_fract_y
_atom_site_fract_z
F1 F 0.42045(17) 0.00355(15) 1.08964(14)
F2 F 0.26646(17) 0.13255(16) 1.14345(13)
F3 F 0.3806(2) 0.44789(19) 0.5706(2)
F4 F 0.2667(2) 0.2623(2) 0.42286(15)
O1 O 0.1332(2) 0.3613(2) 0.54714(16)
O2 O -0.1944(2) 0.4965(2) 0.7809(2)
N1 N 0.3354(2) 0.2670(2) 0.61446(17)
N2 N 0.4645(2) 0.16435(19) 0.70201(17)
N3 N 0.4542(2) 0.19669(19) 1.06069(16)
N4 N 0.2334(2) 0.02309(18) 0.93820(17)
C1 C 0.5740(3) 0.1024(2) 0.7242(2)
H1 H 0.5785 0.0682 0.7807
C2 C 0.6761(3) 0.0917(3) 0.6621(3)
H2 H 0.7520 0.0505 0.6765
C3 C 0.6673(3) 0.1424(3) 0.5764(3)
H3 H 0.7390 0.1359 0.5356
C4 C 0.5566(3) 0.2008(3) 0.5517(2)
H4 H 0.5502 0.2328 0.4936
C5 C 0.4515(3) 0.2116(2) 0.6163(2)
C6 C 0.2736(3) 0.2571(2) 0.70139(19)
C7 C 0.3521(2) 0.1933(2) 0.7570(2)
C8 C 0.1485(3) 0.3145(2) 0.7191(2)
C9 C 0.0856(3) 0.3682(2) 0.6417(2)
C10 C -0.0300(3) 0.4286(3) 0.6595(2)
H5 H -0.0717 0.4629 0.6073
C11 C -0.0836(3) 0.4378(3) 0.7544(3)
C12 C -0.0225(3) 0.3843(3) 0.8327(2)
H6 H -0.0588 0.3900 0.8964
C13 C 0.0901(3) 0.3242(2) 0.8140(2)
H7 H 0.1296 0.2885 0.8657
C14 C -0.2601(4) 0.5548(3) 0.7065(3)
H8 H -0.3046 0.4930 0.6289
H9 H -0.1842 0.6176 0.7050
H10 H -0.3358 0.5932 0.7354
C15 C 0.3436(2) 0.1609(2) 0.85831(19)
C16 C 0.4511(3) 0.2303(2) 0.9650(2)
C17 C 0.5722(3) 0.3348(2) 0.9990(2)
C18 C 0.6451(3) 0.3591(2) 1.1136(2)
H11 H 0.7296 0.4224 1.1595
C19 C 0.5720(3) 0.2737(2) 1.1493(2)
C20 C 0.6147(3) 0.4073(2) 0.9292(2)
H12 H 0.6533 0.3565 0.8697
H13 H 0.6900 0.4814 0.9797
H14 H 0.5280 0.4304 0.8935
C21 C 0.6119(4) 0.2628(3) 1.2649(2)
H15 H 0.5251 0.2603 1.2933
H16 H 0.6893 0.3337 1.3191
H17 H 0.6470 0.1874 1.2569
C22 C 0.2351(3) 0.0588(2) 0.8447(2)
C23 C 0.1159(3) -0.0260(2) 0.7464(2)
C24 C 0.0477(3) -0.1098(2) 0.7843(2)
H18 H -0.0340 -0.1761 0.7392
C25 C 0.1214(3) -0.0789(2) 0.9020(2)
C26 C 0.0675(3) -0.0250(3) 0.6269(2)
H19 H 0.0212 0.0444 0.6300
H20 H -0.0030 -0.1018 0.5758
H21 H 0.1531 -0.0168 0.5979
C27 C 0.0895(3) -0.1451(3) 0.9787(3)
H22 H 0.1676 -0.1879 0.9934
H23 H -0.0047 -0.2047 0.9409
H24 H 0.0850 -0.0854 1.0513
B1 B 0.2786(4) 0.3374(3) 0.5362(3)
B2 B 0.3437(3) 0.0880(3) 1.0622(3)
loop_
_geom_bond_atom_site_label_1
_geom_bond_atom_site_label_2
_geom_bond_site_symmetry_1
_geom_bond_site_symmetry_2
F1 B2 1_555 1_555
F2 B2 1_555 1_555
F3 B1 1_555 1_555
F4 B1 1_555 1_555
O1 C9 1_555 1_555
O2 C11 1_555 1_555
N1 C5 1_555 1_555
N2 C1 1_555 1_555
N3 C16 1_555 1_555
N4 C22 1_555 1_555
C1 H1 1_555 1_555
C2 C1 1_555 1_555
H2 C2 1_555 1_555
C3 C2 1_555 1_555
H3 C3 1_555 1_555
C4 C3 1_555 1_555
H4 C4 1_555 1_555
C5 N2 1_555 1_555
C6 N1 1_555 1_555
C7 N2 1_555 1_555
C8 C6 1_555 1_555
C9 C8 1_555 1_555
C10 C9 1_555 1_555
H5 C10 1_555 1_555
C11 C10 1_555 1_555
C12 C11 1_555 1_555
H6 C12 1_555 1_555
C13 C8 1_555 1_555
H7 C13 1_555 1_555
C14 O2 1_555 1_555
H8 C14 1_555 1_555
H9 C14 1_555 1_555
H10 C14 1_555 1_555
C15 C7 1_555 1_555
C16 C15 1_555 1_555
C17 C16 1_555 1_555
C18 C17 1_555 1_555
H11 C18 1_555 1_555
C19 N3 1_555 1_555
C20 C17 1_555 1_555
H12 C20 1_555 1_555
H13 C20 1_555 1_555
H14 C20 1_555 1_555
C21 C19 1_555 1_555
H15 C21 1_555 1_555
H16 C21 1_555 1_555
H17 C21 1_555 1_555
C22 C15 1_555 1_555
C23 C22 1_555 1_555
C24 C23 1_555 1_555
H18 C24 1_555 1_555
C25 N4 1_555 1_555
C26 C23 1_555 1_555
H19 C26 1_555 1_555
H20 C26 1_555 1_555
H21 C26 1_555 1_555
C27 C25 1_555 1_555
H22 C27 1_555 1_555
H23 C27 1_555 1_555
H24 C27 1_555 1_555
B1 O1 1_555 1_555
B2 N3 1_555 1_555
N1 B1 1_555 1_555
N4 B2 1_555 1_555
C4 C5 1_555 1_555
C6 C7 1_555 1_555
C12 C13 1_555 1_555
C18 C19 1_555 1_555
C24 C25 1_555 1_555

#END
