
#######################################################################
#
#                 Cambridge Crystallographic Data Centre
#                                CCDC 
#
#######################################################################
#
# If this CIF has been generated from an entry in the Cambridge 
# Structural Database, then it will include bibliographic, chemical, 
# crystal, experimental, refinement or atomic coordinate data resulting 
# from the CCDC's data processing and validation procedures.
#
#######################################################################

data_EDIFUV
_chemical_formula_moiety         'C14 H11 B1 F2 N2 O2'
_chemical_name_systematic        
difluoro(2-(imidazo[1,2-a]pyridin-2-yl)-5-methoxyphenolato)boron
_symmetry_cell_setting           monoclinic
_symmetry_space_group_name_H-M   'P 21/n'
_symmetry_Int_Tables_number      14
_space_group_name_Hall           '-P 2yn'
loop_
_symmetry_equiv_pos_site_id
_symmetry_equiv_pos_as_xyz
1 x,y,z
2 1/2-x,1/2+y,1/2-z
3 -x,-y,-z
4 1/2+x,1/2-y,1/2+z
_cell_length_a                   9.660(5)
_cell_length_b                   11.305(5)
_cell_length_c                   12.011(4)
_cell_angle_alpha                90
_cell_angle_beta                 99.33(4)
_cell_angle_gamma                90
_cell_volume                     1294.32
_exptl_crystal_colour            'dark violet'
_exptl_crystal_description       block
_cell_formula_units_Z            4
_exptl_crystal_preparation       ', Luminescent'
loop_
_atom_site_label
_atom_site_type_symbol
_atom_site_fract_x
_atom_site_fract_y
_atom_site_fract_z
F1 F 0.5687(3) 0.5400(2) 0.2399(2)
F2 F 0.7643(2) 0.4365(3) 0.23575(19)
O1 O 0.5711(3) 0.3406(3) 0.2766(2)
O2 O 0.2905(3) 0.0354(3) 0.3739(2)
N1 N 0.7021(3) 0.4760(3) 0.4151(2)
N2 N 0.7986(3) 0.5549(3) 0.5763(2)
C1 C 0.8858(4) 0.6284(4) 0.6474(3)
H1 H 0.8890 0.6243 0.7251
C2 C 0.9669(4) 0.7068(4) 0.6019(4)
H2 H 1.0279 0.7560 0.6487
C3 C 0.9594(4) 0.7141(4) 0.4853(4)
H3 H 1.0132 0.7701 0.4550
C4 C 0.8746(4) 0.6404(3) 0.4148(3)
H4 H 0.8714 0.6448 0.3371
C5 C 0.7929(3) 0.5586(3) 0.4612(3)
C6 C 0.7080(3) 0.4680(3) 0.6002(3)
H5 H 0.6904 0.4469 0.6715
C7 C 0.6488(3) 0.4187(3) 0.5002(2)
C8 C 0.5525(3) 0.3219(3) 0.4722(2)
C9 C 0.5179(3) 0.2849(3) 0.3590(3)
C10 C 0.4306(3) 0.1889(3) 0.3316(3)
H6 H 0.4095 0.1646 0.2568
C11 C 0.3751(3) 0.1296(3) 0.4123(3)
C12 C 0.4044(3) 0.1645(4) 0.5240(3)
H7 H 0.3660 0.1245 0.5794
C13 C 0.4921(3) 0.2605(4) 0.5513(3)
H8 H 0.5112 0.2847 0.6262
C14 C 0.2246(4) -0.0292(4) 0.4515(4)
H9 H 0.2947 -0.0649 0.5071
H10 H 0.1665 -0.0898 0.4121
H11 H 0.1678 0.0232 0.4879
B1 B 0.6511(4) 0.4479(4) 0.2871(3)
loop_
_geom_bond_atom_site_label_1
_geom_bond_atom_site_label_2
_geom_bond_site_symmetry_1
_geom_bond_site_symmetry_2
F1 B1 1_555 1_555
F2 B1 1_555 1_555
O1 C9 1_555 1_555
O2 C11 1_555 1_555
N1 C5 1_555 1_555
N2 C1 1_555 1_555
C1 H1 1_555 1_555
C2 C1 1_555 1_555
H2 C2 1_555 1_555
C3 C2 1_555 1_555
H3 C3 1_555 1_555
C4 C3 1_555 1_555
H4 C4 1_555 1_555
C5 N2 1_555 1_555
C6 N2 1_555 1_555
H5 C6 1_555 1_555
C7 N1 1_555 1_555
C8 C7 1_555 1_555
C9 C8 1_555 1_555
C10 C9 1_555 1_555
H6 C10 1_555 1_555
C11 C10 1_555 1_555
C12 C11 1_555 1_555
H7 C12 1_555 1_555
C13 C8 1_555 1_555
H8 C13 1_555 1_555
C14 O2 1_555 1_555
H9 C14 1_555 1_555
H10 C14 1_555 1_555
H11 C14 1_555 1_555
B1 O1 1_555 1_555
N1 B1 1_555 1_555
C4 C5 1_555 1_555
C6 C7 1_555 1_555
C12 C13 1_555 1_555

#END
