
#######################################################################
#
#                 Cambridge Crystallographic Data Centre
#                                CCDC 
#
#######################################################################
#
# If this CIF has been generated from an entry in the Cambridge 
# Structural Database, then it will include bibliographic, chemical, 
# crystal, experimental, refinement or atomic coordinate data resulting 
# from the CCDC's data processing and validation procedures.
#
#######################################################################

data_EDIGEG
_chemical_formula_moiety         'C27 H25 B1 F2 N4 O2'
_chemical_name_systematic        
(2-{3-[(3,5-dimethyl-1H-pyrrol-2-yl)(3,5-dimethyl-2H-pyrrol-2-ylidene)methyl]imidazo[1,2-a]pyridin-2-yl}-5-methoxyphenolato)(difluoro)boron
_symmetry_cell_setting           monoclinic
_symmetry_space_group_name_H-M   'P 21/c'
_symmetry_Int_Tables_number      14
_space_group_name_Hall           '-P 2ybc'
loop_
_symmetry_equiv_pos_site_id
_symmetry_equiv_pos_as_xyz
1 x,y,z
2 -x,1/2+y,1/2-z
3 -x,-y,-z
4 x,1/2-y,1/2+z
_cell_length_a                   11.3818(5)
_cell_length_b                   14.3350(4)
_cell_length_c                   15.3759(5)
_cell_angle_alpha                90
_cell_angle_beta                 95.034(3)
_cell_angle_gamma                90
_cell_volume                     2499.03
_exptl_crystal_colour            'light red'
_exptl_crystal_description       block
_cell_formula_units_Z            4
_exptl_crystal_preparation       ', Luminescent'
loop_
_atom_site_label
_atom_site_type_symbol
_atom_site_fract_x
_atom_site_fract_y
_atom_site_fract_z
F1 F 0.97554(12) 0.60005(9) 0.56782(9)
F2 F 0.86501(13) 0.58082(9) 0.68199(8)
O1 O 0.45913(14) 0.10798(11) 0.61025(12)
H1 H 0.5109 0.0952 0.5783
O2 O 0.35525(13) 0.31949(11) 0.82014(10)
N1 N 0.65292(15) 0.12324(11) 0.53537(11)
N2 N 0.79602(14) 0.19924(11) 0.47523(10)
N3 N 0.96240(14) 0.44682(11) 0.62815(10)
N4 N 0.79193(14) 0.51903(10) 0.54239(10)
C1 C 0.91540(17) 0.35863(13) 0.60727(12)
C2 C 0.8815(2) 0.21274(15) 0.41883(14)
H2 H 0.9238 0.2683 0.4194
C3 C 0.9031(2) 0.14393(16) 0.36273(15)
H3 H 0.9610 0.1521 0.3243
C4 C 0.8391(2) 0.05980(16) 0.36139(16)
H4 H 0.8547 0.0132 0.3219
C5 C 0.7548(2) 0.04606(14) 0.41736(15)
H5 H 0.7133 -0.0099 0.4171
C6 C 0.73113(18) 0.11784(13) 0.47571(13)
C7 C 0.66796(17) 0.20956(13) 0.57418(13)
C8 C 0.75646(17) 0.25829(13) 0.53807(12)
C9 C 0.59122(17) 0.23841(13) 0.64153(12)
C10 C 0.48868(17) 0.18717(13) 0.65523(13)
C11 C 0.41297(18) 0.21683(14) 0.71489(13)
H6 H 0.3453 0.1825 0.7225
C12 C 0.43654(17) 0.29698(14) 0.76350(13)
C13 C 0.53861(19) 0.34743(14) 0.75365(13)
H7 H 0.5563 0.4006 0.7870
C14 C 0.61355(18) 0.31723(14) 0.69342(13)
H8 H 0.6820 0.3511 0.6872
C15 C 0.3778(2) 0.3980(2) 0.87505(17)
H9 H 0.3823 0.4530 0.8399
H10 H 0.4512 0.3893 0.9099
H11 H 0.3152 0.4048 0.9125
C16 C 0.80841(16) 0.35146(12) 0.55536(12)
C17 C 0.99625(19) 0.29051(15) 0.64254(13)
C18 C 1.09020(19) 0.33906(17) 0.68289(14)
H12 H 1.1575 0.3125 0.7115
C19 C 1.06825(18) 0.43425(16) 0.67397(13)
C20 C 0.9872(3) 0.18596(16) 0.63759(18)
H13 H 0.9082 0.1672 0.6466
H14 H 1.0412 0.1587 0.6819
H15 H 1.0063 0.1653 0.5812
C21 C 1.1434(2) 0.5133(2) 0.70838(18)
H16 H 1.1669 0.5499 0.6606
H17 H 1.2123 0.4893 0.7415
H18 H 1.0997 0.5516 0.7453
C22 C 0.74965(17) 0.42963(13) 0.52078(12)
C23 C 0.64799(18) 0.44021(15) 0.45992(14)
C24 C 0.6330(2) 0.53437(16) 0.44778(14)
H19 H 0.5734 0.5622 0.4114
C25 C 0.7210(2) 0.58171(14) 0.49867(13)
C26 C 0.5743(2) 0.36506(18) 0.41416(18)
H20 H 0.6233 0.3266 0.3812
H21 H 0.5135 0.3930 0.3755
H22 H 0.5391 0.3275 0.4566
C27 C 0.7389(2) 0.68477(15) 0.50821(16)
H23 H 0.7344 0.7023 0.5681
H24 H 0.6789 0.7169 0.4721
H25 H 0.8151 0.7012 0.4905
B1 B 0.9002(2) 0.53981(16) 0.60652(14)
loop_
_geom_bond_atom_site_label_1
_geom_bond_atom_site_label_2
_geom_bond_site_symmetry_1
_geom_bond_site_symmetry_2
F1 B1 1_555 1_555
F2 B1 1_555 1_555
O1 H1 1_555 1_555
O2 C12 1_555 1_555
N1 C6 1_555 1_555
N2 C2 1_555 1_555
N3 C1 1_555 1_555
N4 C22 1_555 1_555
C1 C16 1_555 1_555
C2 H2 1_555 1_555
C3 C2 1_555 1_555
H3 C3 1_555 1_555
C4 C3 1_555 1_555
H4 C4 1_555 1_555
C5 C4 1_555 1_555
H5 C5 1_555 1_555
C6 N2 1_555 1_555
C7 N1 1_555 1_555
C8 N2 1_555 1_555
C9 C7 1_555 1_555
C10 O1 1_555 1_555
C11 C10 1_555 1_555
H6 C11 1_555 1_555
C12 C11 1_555 1_555
C13 C12 1_555 1_555
H7 C13 1_555 1_555
C14 C9 1_555 1_555
H8 C14 1_555 1_555
C15 O2 1_555 1_555
H9 C15 1_555 1_555
H10 C15 1_555 1_555
H11 C15 1_555 1_555
C16 C8 1_555 1_555
C17 C1 1_555 1_555
C18 C17 1_555 1_555
H12 C18 1_555 1_555
C19 N3 1_555 1_555
C20 C17 1_555 1_555
H13 C20 1_555 1_555
H14 C20 1_555 1_555
H15 C20 1_555 1_555
C21 C19 1_555 1_555
H16 C21 1_555 1_555
H17 C21 1_555 1_555
H18 C21 1_555 1_555
C22 C16 1_555 1_555
C23 C22 1_555 1_555
C24 C23 1_555 1_555
H19 C24 1_555 1_555
C25 N4 1_555 1_555
C26 C23 1_555 1_555
H20 C26 1_555 1_555
H21 C26 1_555 1_555
H22 C26 1_555 1_555
C27 C25 1_555 1_555
H23 C27 1_555 1_555
H24 C27 1_555 1_555
H25 C27 1_555 1_555
B1 N3 1_555 1_555
N4 B1 1_555 1_555
C5 C6 1_555 1_555
C7 C8 1_555 1_555
C9 C10 1_555 1_555
C13 C14 1_555 1_555
C18 C19 1_555 1_555
C24 C25 1_555 1_555

#END
