
#######################################################################
#
#                 Cambridge Crystallographic Data Centre
#                                CCDC 
#
#######################################################################
#
# If this CIF has been generated from an entry in the Cambridge 
# Structural Database, then it will include bibliographic, chemical, 
# crystal, experimental, refinement or atomic coordinate data resulting 
# from the CCDC's data processing and validation procedures.
#
#######################################################################

data_EDIJEH
_chemical_formula_moiety         'C18 H25 N4 1+,I1 1-'
_chemical_name_systematic        
'1-Methyl-1-(3-(N,N-bis(2-pyridyl)amino)propyl)pyrrolidinium iodide'
_symmetry_cell_setting           monoclinic
_symmetry_space_group_name_H-M   'P 21/n'
_symmetry_Int_Tables_number      14
_space_group_name_Hall           '-P 2yn'
loop_
_symmetry_equiv_pos_site_id
_symmetry_equiv_pos_as_xyz
1 x,y,z
2 1/2-x,1/2+y,1/2-z
3 -x,-y,-z
4 1/2+x,1/2-y,1/2+z
_cell_length_a                   10.756(2)
_cell_length_b                   9.1086(19)
_cell_length_c                   19.236(4)
_cell_angle_alpha                90
_cell_angle_beta                 94.476(4)
_cell_angle_gamma                90
_cell_volume                     1878.84
_exptl_crystal_colour            colorless
_exptl_crystal_description       needle
_cell_formula_units_Z            4
loop_
_atom_site_label
_atom_site_type_symbol
_atom_site_fract_x
_atom_site_fract_y
_atom_site_fract_z
I1 I 0.744064(16) 0.380367(18) 0.637030(9)
N1 N 0.3422(2) 0.1023(2) 0.68009(10)
N2 N 0.57172(17) 0.35759(19) 0.83872(9)
N3 N 0.3339(2) -0.0602(3) 0.58692(11)
N4 N 0.1681(2) 0.2455(3) 0.64441(12)
C1 C 0.3121(3) 0.1078(3) 0.75287(13)
H1 H 0.3405 0.0178 0.7759
H2 H 0.2222 0.1126 0.7543
C2 C 0.3701(2) 0.2374(3) 0.79272(14)
H3 H 0.3450 0.3274 0.7686
H4 H 0.3391 0.2406 0.8387
C3 C 0.5109(2) 0.2290(3) 0.80021(12)
H5 H 0.5356 0.1394 0.8248
H6 H 0.5414 0.2238 0.7541
C4 C 0.7108(2) 0.3339(3) 0.85002(13)
H7 H 0.7515 0.3577 0.8082
H8 H 0.7295 0.2328 0.8627
C5 C 0.7534(2) 0.4378(3) 0.90950(14)
H9 H 0.7855 0.5284 0.8914
H10 H 0.8183 0.3925 0.9402
C6 C 0.6374(3) 0.4671(4) 0.94830(14)
H11 H 0.6514 0.4386 0.9969
H12 H 0.6155 0.5704 0.9460
C7 C 0.5344(3) 0.3743(3) 0.91142(13)
H13 H 0.5289 0.2793 0.9338
H14 H 0.4544 0.4233 0.9117
C8 C 0.5488(3) 0.4973(3) 0.79832(14)
H15 H 0.4637 0.5273 0.8008
H16 H 0.5648 0.4813 0.7505
H17 H 0.6034 0.5727 0.8178
C9 C 0.3805(2) -0.0301(3) 0.65134(12)
C10 C 0.4631(2) -0.1245(3) 0.68885(16)
H18 H 0.4959 -0.1005 0.7336
C11 C 0.4945(3) -0.2533(3) 0.65798(19)
H19 H 0.5488 -0.3185 0.6820
C12 C 0.4464(3) -0.2866(3) 0.5919(2)
H20 H 0.4660 -0.3744 0.5706
C13 C 0.3689(3) -0.1867(3) 0.55839(18)
H21 H 0.3383 -0.2075 0.5129
C14 C 0.2840(2) 0.2080(3) 0.63409(12)
C15 C 0.3504(2) 0.2704(3) 0.58228(14)
H22 H 0.4327 0.2436 0.5774
C16 C 0.2920(3) 0.3720(3) 0.53861(17)
H23 H 0.3336 0.4142 0.5030
C17 C 0.1705(3) 0.4107(3) 0.54825(17)
H24 H 0.1286 0.4792 0.5192
C18 C 0.1138(3) 0.3469(4) 0.60075(17)
H25 H 0.0322 0.3746 0.6072
loop_
_geom_bond_atom_site_label_1
_geom_bond_atom_site_label_2
_geom_bond_site_symmetry_1
_geom_bond_site_symmetry_2
N1 C1 1_555 1_555
N2 C3 1_555 1_555
N3 C9 1_555 1_555
N4 C14 1_555 1_555
C1 H1 1_555 1_555
H2 C1 1_555 1_555
C2 C1 1_555 1_555
H3 C2 1_555 1_555
H4 C2 1_555 1_555
C3 C2 1_555 1_555
H5 C3 1_555 1_555
H6 C3 1_555 1_555
C4 N2 1_555 1_555
H7 C4 1_555 1_555
H8 C4 1_555 1_555
C5 C4 1_555 1_555
H9 C5 1_555 1_555
H10 C5 1_555 1_555
C6 C5 1_555 1_555
H11 C6 1_555 1_555
H12 C6 1_555 1_555
C7 N2 1_555 1_555
H13 C7 1_555 1_555
H14 C7 1_555 1_555
C8 N2 1_555 1_555
H15 C8 1_555 1_555
H16 C8 1_555 1_555
H17 C8 1_555 1_555
C9 N1 1_555 1_555
C10 C9 1_555 1_555
H18 C10 1_555 1_555
C11 C10 1_555 1_555
H19 C11 1_555 1_555
C12 C11 1_555 1_555
H20 C12 1_555 1_555
C13 N3 1_555 1_555
H21 C13 1_555 1_555
C14 N1 1_555 1_555
C15 C14 1_555 1_555
H22 C15 1_555 1_555
C16 C15 1_555 1_555
H23 C16 1_555 1_555
C17 C16 1_555 1_555
H24 C17 1_555 1_555
C18 N4 1_555 1_555
H25 C18 1_555 1_555
C6 C7 1_555 1_555
C12 C13 1_555 1_555
C17 C18 1_555 1_555

#END
