
#######################################################################
#
#                 Cambridge Crystallographic Data Centre
#                                CCDC 
#
#######################################################################
#
# If this CIF has been generated from an entry in the Cambridge 
# Structural Database, then it will include bibliographic, chemical, 
# crystal, experimental, refinement or atomic coordinate data resulting 
# from the CCDC's data processing and validation procedures.
#
#######################################################################

data_EDISAO
_chemical_formula_moiety         'C20 H18 Cl1 N3 O2'
_chemical_name_systematic        
3-(5-(4-chlorophenyl)-1,3-dimethyl-2-oxo-2,3-dihydro-1H-imidazol-4-yl)-5-methyl-1,3-dihydro-2H-indol-2-one
_symmetry_cell_setting           monoclinic
_symmetry_space_group_name_H-M   'P 21/c'
_symmetry_Int_Tables_number      14
_space_group_name_Hall           '-P 2ybc'
loop_
_symmetry_equiv_pos_site_id
_symmetry_equiv_pos_as_xyz
1 x,y,z
2 -x,1/2+y,1/2-z
3 -x,-y,-z
4 x,1/2-y,1/2+z
_cell_length_a                   9.8551(14)
_cell_length_b                   16.606(2)
_cell_length_c                   13.4927(17)
_cell_angle_alpha                90
_cell_angle_beta                 120.337(8)
_cell_angle_gamma                90
_cell_volume                     1905.77
_exptl_crystal_colour            colorless
_exptl_crystal_description       prism
_cell_formula_units_Z            4
loop_
_atom_site_label
_atom_site_type_symbol
_atom_site_fract_x
_atom_site_fract_y
_atom_site_fract_z
Cl1 Cl 0.7140(2) 0.37600(8) 0.51378(9)
O1 O 0.0442(4) 0.09281(14) -0.1388(2)
O2 O 0.2398(3) 0.40989(13) -0.17437(19)
N1 N 0.0573(3) 0.23277(13) -0.12812(17)
N2 N 0.2205(3) 0.16500(13) 0.02449(19)
N3 N 0.0026(3) 0.46442(13) -0.21515(17)
H1 H -0.0134 0.4936 -0.2764
C1 C 0.5806(6) 0.3368(2) 0.3798(3)
C2 C 0.6011(4) 0.3540(2) 0.2889(4)
H2 H 0.6856 0.3853 0.2992
C3 C 0.4934(3) 0.3239(2) 0.1808(3)
H3 H 0.5057 0.3357 0.1184
C4 C 0.3689(3) 0.27690(15) 0.1653(2)
C5 C 0.3538(5) 0.2609(2) 0.2593(3)
H4 H 0.2713 0.2287 0.2506
C6 C 0.4579(6) 0.2915(2) 0.3655(3)
H5 H 0.4442 0.2811 0.4276
C7 C 0.2518(3) 0.24722(15) 0.0508(2)
C8 C 0.1498(3) 0.28888(14) -0.04348(19)
C9 C 0.1014(4) 0.15635(17) -0.0860(3)
C10 C -0.0670(4) 0.2493(2) -0.2445(2)
H6 H -0.1106 0.1994 -0.2838
H7 H -0.0251 0.2790 -0.2840
H8 H -0.1478 0.2804 -0.2427
C11 C 0.3085(5) 0.0968(2) 0.0970(3)
H9 H 0.2606 0.0474 0.0578
H10 H 0.3076 0.0991 0.1677
H11 H 0.4150 0.0989 0.1130
C12 C 0.1191(3) 0.37707(14) -0.05822(19)
H12 H 0.1973 0.4028 0.0136
C13 C 0.1325(3) 0.41746(15) -0.1558(2)
C14 C -0.1017(3) 0.45703(14) -0.17435(19)
C15 C -0.2486(4) 0.49182(17) -0.2137(2)
H13 H -0.2915 0.5271 -0.2758
C16 C -0.3288(3) 0.47219(19) -0.1573(3)
H14 H -0.4276 0.4947 -0.1832
C17 C -0.2685(3) 0.42055(17) -0.0641(3)
C18 C -0.1221(3) 0.38662(16) -0.0276(2)
H15 H -0.0794 0.3513 0.0344
C19 C -0.0395(3) 0.40434(14) -0.08149(19)
C20 C -0.3572(4) 0.4031(3) -0.0033(3)
H16 H -0.4557 0.4313 -0.0407
H17 H -0.2965 0.4206 0.0751
H18 H -0.3763 0.3463 -0.0054
loop_
_geom_bond_atom_site_label_1
_geom_bond_atom_site_label_2
_geom_bond_site_symmetry_1
_geom_bond_site_symmetry_2
Cl1 C1 1_555 1_555
O1 C9 1_555 1_555
O2 C13 1_555 1_555
N1 C8 1_555 1_555
N2 C7 1_555 1_555
N3 H1 1_555 1_555
C1 C2 1_555 1_555
C2 H2 1_555 1_555
C3 C2 1_555 1_555
H3 C3 1_555 1_555
C4 C3 1_555 1_555
C5 C4 1_555 1_555
H4 C5 1_555 1_555
C6 C1 1_555 1_555
H5 C6 1_555 1_555
C7 C4 1_555 1_555
C8 C7 1_555 1_555
C9 N1 1_555 1_555
C10 N1 1_555 1_555
H6 C10 1_555 1_555
H7 C10 1_555 1_555
H8 C10 1_555 1_555
C11 N2 1_555 1_555
H9 C11 1_555 1_555
H10 C11 1_555 1_555
H11 C11 1_555 1_555
C12 C8 1_555 1_555
H12 C12 1_555 1_555
C13 N3 1_555 1_555
C14 N3 1_555 1_555
C15 C14 1_555 1_555
H13 C15 1_555 1_555
C16 C15 1_555 1_555
H14 C16 1_555 1_555
C17 C16 1_555 1_555
C18 C17 1_555 1_555
H15 C18 1_555 1_555
C19 C12 1_555 1_555
C20 C17 1_555 1_555
H16 C20 1_555 1_555
H17 C20 1_555 1_555
H18 C20 1_555 1_555
N2 C9 1_555 1_555
C5 C6 1_555 1_555
C12 C13 1_555 1_555
C14 C19 1_555 1_555
C18 C19 1_555 1_555

#END
