
#######################################################################
#
#                 Cambridge Crystallographic Data Centre
#                                CCDC 
#
#######################################################################
#
# If this CIF has been generated from an entry in the Cambridge 
# Structural Database, then it will include bibliographic, chemical, 
# crystal, experimental, refinement or atomic coordinate data resulting 
# from the CCDC's data processing and validation procedures.
#
#######################################################################

data_EDIZAS
_chemical_formula_moiety         'C48 H72 N3 O13 P1,3(C1 H2 Cl2)'
_chemical_name_systematic        
'tris(4-(1,4,7,10-Tetraoxa-13-azacyclopentadecyl)phenyl)phosphine oxide dichloromethane solvate'
_symmetry_cell_setting           rhombohedral
_symmetry_space_group_name_H-M   'R -3'
_symmetry_Int_Tables_number      148
_space_group_name_Hall           '-R 3'
loop_
_symmetry_equiv_pos_site_id
_symmetry_equiv_pos_as_xyz
1 x,y,z
2 -y,x-y,z
3 -x+y,-x,z
4 1/3+x,2/3+y,2/3+z
5 1/3-y,2/3+x-y,2/3+z
6 1/3-x+y,2/3-x,2/3+z
7 2/3+x,1/3+y,1/3+z
8 2/3-y,1/3+x-y,1/3+z
9 2/3-x+y,1/3-x,1/3+z
10 -x,-y,-z
11 y,-x+y,-z
12 x-y,x,-z
13 2/3-x,1/3-y,1/3-z
14 2/3+y,1/3-x+y,1/3-z
15 2/3+x-y,1/3+x,1/3-z
16 1/3-x,2/3-y,2/3-z
17 1/3+y,2/3-x+y,2/3-z
18 1/3+x-y,2/3+x,2/3-z
_cell_length_a                   20.297(1)
_cell_length_b                   20.297(1)
_cell_length_c                   25.004(2)
_cell_angle_alpha                90
_cell_angle_beta                 90
_cell_angle_gamma                120
_cell_volume                     8920.8
_exptl_crystal_colour            colorless
_cell_formula_units_Z            6
_exptl_crystal_recrystallization_method dichloromethane/heptane
loop_
_atom_site_label
_atom_site_type_symbol
_atom_site_fract_x
_atom_site_fract_y
_atom_site_fract_z
O1 O 0.0000 0.0000 0.1923(2)
P1 P 0.0000 0.0000 0.1329(1)
C1 C -0.0068(3) -0.0846(3) 0.1043(2)
C2 C 0.0404(3) -0.1107(3) 0.1233(2)
C3 C 0.0382(3) -0.1747(3) 0.1020(2)
C4 C -0.0135(3) -0.2172(3) 0.0611(2)
C5 C -0.0610(3) -0.1901(3) 0.0420(2)
C6 C -0.0567(3) -0.1252(3) 0.0634(2)
N1 N -0.0187(2) -0.2829(2) 0.0415(2)
C7 C -0.0719(3) -0.3249(3) -0.0013(2)
C8 C -0.0454(3) -0.2904(3) -0.0557(2)
O2 O 0.0214(2) -0.2922(2) -0.0691(2)
C9 C 0.0538(4) -0.2537(2) -0.1181(2)
C10 C 0.1255(4) -0.2550(3) -0.1291(3)
O3 O 0.1847(2) -0.2020(2) -0.0961(2)
C11 C 0.2550(4) -0.2028(4) -0.0986(3)
C12 C 0.2573(4) -0.2585(5) -0.0645(4)
O4 O 0.2493(2) -0.2417(2) -0.0110(2)
C13 C 0.2422(4) -0.3006(4) 0.0224(4)
C14 C 0.2100(4) -0.2967(4) 0.0754(3)
O5 O 0.1297(2) -0.3291(2) 0.0753(2)
C15 C 0.1032(3) -0.2848(3) 0.0485(2)
C16 C 0.0222(3) -0.3167(3) 0.0672(2)
H1 H 0.075 -0.084 0.152
H2 H 0.072 -0.190 0.115
H3 H -0.096 -0.216 0.014
H4 H -0.089 -0.108 0.050
H5 H -0.080 -0.375 -0.002
H6 H -0.119 -0.326 0.006
H7 H -0.084 -0.319 -0.081
H8 H -0.035 -0.239 -0.055
H9 H 0.018 -0.279 -0.146
H10 H 0.065 -0.203 -0.115
H11 H 0.118 -0.304 -0.122
H12 H 0.139 -0.242 -0.165
H13 H 0.264 -0.212 -0.134
H14 H 0.295 -0.154 -0.087
H15 H 0.214 -0.308 -0.074
H16 H 0.302 -0.260 -0.070
H17 H 0.209 -0.348 0.006
H18 H 0.291 -0.296 0.028
H19 H 0.222 -0.325 0.100
H20 H 0.233 -0.246 0.086
H21 H 0.133 -0.233 0.059
H22 H 0.105 -0.290 0.011
H23 H 0.023 -0.309 0.104
H24 H -0.005 -0.370 0.060
C1A C 0.0846(3) 0.0778(4) 0.1043(2)
C2A C 0.1107(3) 0.1511(4) 0.1233(2)
C3A C 0.1747(3) 0.2129(4) 0.1020(2)
C4A C 0.2172(3) 0.2037(4) 0.0611(2)
C5A C 0.1901(3) 0.1291(4) 0.0420(2)
C6A C 0.1252(3) 0.0685(4) 0.0634(2)
H4A H 0.108 0.019 0.050
H3A H 0.216 0.120 0.014
N1A N 0.2829(2) 0.2642(3) 0.0415(2)
C7A C 0.3249(3) 0.2530(4) -0.0013(2)
C8A C 0.2904(3) 0.2450(4) -0.0557(2)
O2A O 0.2922(2) 0.3136(3) -0.0691(2)
C9A C 0.2537(2) 0.3075(4) -0.1181(2)
C10A C 0.2550(3) 0.3805(5) -0.1291(3)
O3A O 0.2020(2) 0.3867(3) -0.0961(2)
C11A C 0.2028(4) 0.4578(6) -0.0986(3)
C12A C 0.2585(5) 0.5158(6) -0.0645(4)
O4A O 0.2417(2) 0.4910(3) -0.0110(2)
C13A C 0.3006(4) 0.5428(6) 0.0224(4)
C14A C 0.2967(4) 0.5067(6) 0.0754(3)
O5A O 0.3291(2) 0.4588(3) 0.0753(2)
C15A C 0.2848(3) 0.3880(4) 0.0485(2)
C16A C 0.3167(3) 0.3389(4) 0.0672(2)
H23A H 0.309 0.332 0.104
H24A H 0.370 0.365 0.060
H21A H 0.233 0.366 0.059
H22A H 0.290 0.395 0.011
H19A H 0.325 0.547 0.100
H20A H 0.246 0.479 0.086
H17A H 0.348 0.557 0.006
H18A H 0.296 0.587 0.028
H15A H 0.308 0.522 -0.074
H16A H 0.260 0.562 -0.070
H13A H 0.212 0.476 -0.134
H14A H 0.154 0.449 -0.087
H11A H 0.304 0.422 -0.122
H12A H 0.242 0.381 -0.165
H9A H 0.279 0.297 -0.146
H10A H 0.203 0.268 -0.115
H7A H 0.319 0.235 -0.081
H8A H 0.239 0.204 -0.055
H5A H 0.375 0.295 -0.002
H6A H 0.326 0.207 0.006
H2A H 0.190 0.262 0.115
H1A H 0.084 0.159 0.152
C1B C -0.0778(4) 0.0068(3) 0.1043(2)
C2B C -0.1511(4) -0.0404(3) 0.1233(2)
C3B C -0.2129(4) -0.0382(3) 0.1020(2)
C4B C -0.2037(4) 0.0135(3) 0.0611(2)
C5B C -0.1291(4) 0.0610(3) 0.0420(2)
C6B C -0.0685(4) 0.0567(3) 0.0634(2)
H4B H -0.019 0.089 0.050
H3B H -0.120 0.096 0.014
N1B N -0.2642(3) 0.0187(2) 0.0415(2)
C7B C -0.2530(4) 0.0719(3) -0.0013(2)
C8B C -0.2450(4) 0.0454(3) -0.0557(2)
O2B O -0.3136(3) -0.0214(2) -0.0691(2)
C9B C -0.3075(4) -0.0538(4) -0.1181(2)
C10B C -0.3805(5) -0.1255(4) -0.1291(3)
O3B O -0.3867(3) -0.1847(2) -0.0961(2)
C11B C -0.4578(6) -0.2550(4) -0.0986(3)
C12B C -0.5158(6) -0.2573(4) -0.0645(4)
O4B O -0.4910(3) -0.2493(2) -0.0110(2)
C13B C -0.5428(6) -0.2422(4) 0.0224(4)
C14B C -0.5067(6) -0.2100(4) 0.0754(3)
O5B O -0.4588(3) -0.1297(2) 0.0753(2)
C15B C -0.3880(4) -0.1032(3) 0.0485(2)
C16B C -0.3389(4) -0.0222(3) 0.0672(2)
H23B H -0.332 -0.023 0.104
H24B H -0.365 0.005 0.060
H21B H -0.366 -0.133 0.059
H22B H -0.395 -0.105 0.011
H19B H -0.547 -0.222 0.100
H20B H -0.479 -0.233 0.086
H17B H -0.557 -0.209 0.006
H18B H -0.587 -0.291 0.028
H15B H -0.522 -0.214 -0.074
H16B H -0.562 -0.302 -0.070
H13B H -0.476 -0.264 -0.134
H14B H -0.449 -0.295 -0.087
H11B H -0.422 -0.118 -0.122
H12B H -0.381 -0.139 -0.165
H9B H -0.297 -0.018 -0.146
H10B H -0.268 -0.065 -0.115
H7B H -0.235 0.084 -0.081
H8B H -0.204 0.035 -0.055
H5B H -0.295 0.080 -0.002
H6B H -0.207 0.119 0.006
H2B H -0.262 -0.072 0.115
H1B H -0.159 -0.075 0.152
Cl1 Cl 0.5277(1) 1.0590(1) 0.0827(1)
C17 C 0.4483(4) 0.9670(4) 0.0756(3)
Cl2 Cl 0.4031(1) 0.9280(1) 0.1368(1)
H25 H 0.412 0.968 0.051
H26 H 0.464 0.934 0.059
loop_
_geom_bond_atom_site_label_1
_geom_bond_atom_site_label_2
_geom_bond_site_symmetry_1
_geom_bond_site_symmetry_2
O1 P1 1_555 1_555
P1 C1 1_555 1_555
C1 C2 1_555 1_555
C2 C3 1_555 1_555
C3 C4 1_555 1_555
C4 C5 1_555 1_555
C5 C6 1_555 1_555
C6 C1 1_555 1_555
N1 C4 1_555 1_555
C7 N1 1_555 1_555
C8 C7 1_555 1_555
O2 C8 1_555 1_555
C9 O2 1_555 1_555
C10 C9 1_555 1_555
O3 C10 1_555 1_555
C11 O3 1_555 1_555
C12 C11 1_555 1_555
O4 C12 1_555 1_555
C13 O4 1_555 1_555
C14 C13 1_555 1_555
O5 C14 1_555 1_555
C15 O5 1_555 1_555
C16 N1 1_555 1_555
Cl1 C17 1_555 1_555
C17 Cl2 1_555 1_555
H1 C2 1_555 1_555
H2 C3 1_555 1_555
H3 C5 1_555 1_555
H4 C6 1_555 1_555
H5 C7 1_555 1_555
H6 C7 1_555 1_555
H7 C8 1_555 1_555
H8 C8 1_555 1_555
H9 C9 1_555 1_555
H10 C9 1_555 1_555
H11 C10 1_555 1_555
H12 C10 1_555 1_555
H13 C11 1_555 1_555
H14 C11 1_555 1_555
H15 C12 1_555 1_555
H16 C12 1_555 1_555
H17 C13 1_555 1_555
H18 C13 1_555 1_555
H19 C14 1_555 1_555
H20 C14 1_555 1_555
H21 C15 1_555 1_555
H22 C15 1_555 1_555
H23 C16 1_555 1_555
H24 C16 1_555 1_555
H25 C17 1_555 1_555
H26 C17 1_555 1_555
C1A P1 1_555 1_555
C2A C1A 1_555 1_555
C3A C2A 1_555 1_555
C4A C3A 1_555 1_555
C5A C4A 1_555 1_555
C6A C1A 1_555 1_555
H4A C6A 1_555 1_555
H3A C5A 1_555 1_555
N1A C4A 1_555 1_555
C7A N1A 1_555 1_555
C8A C7A 1_555 1_555
O2A C8A 1_555 1_555
C9A O2A 1_555 1_555
C10A C9A 1_555 1_555
O3A C10A 1_555 1_555
C11A O3A 1_555 1_555
C12A C11A 1_555 1_555
O4A C12A 1_555 1_555
C13A O4A 1_555 1_555
C14A C13A 1_555 1_555
O5A C14A 1_555 1_555
C15A O5A 1_555 1_555
C16A N1A 1_555 1_555
H23A C16A 1_555 1_555
H24A C16A 1_555 1_555
H21A C15A 1_555 1_555
H22A C15A 1_555 1_555
H19A C14A 1_555 1_555
H20A C14A 1_555 1_555
H17A C13A 1_555 1_555
H18A C13A 1_555 1_555
H15A C12A 1_555 1_555
H16A C12A 1_555 1_555
H13A C11A 1_555 1_555
H14A C11A 1_555 1_555
H11A C10A 1_555 1_555
H12A C10A 1_555 1_555
H9A C9A 1_555 1_555
H10A C9A 1_555 1_555
H7A C8A 1_555 1_555
H8A C8A 1_555 1_555
H5A C7A 1_555 1_555
H6A C7A 1_555 1_555
H2A C3A 1_555 1_555
H1A C2A 1_555 1_555
C1B P1 1_555 1_555
C2B C1B 1_555 1_555
C3B C2B 1_555 1_555
C4B C3B 1_555 1_555
C5B C4B 1_555 1_555
C6B C1B 1_555 1_555
H4B C6B 1_555 1_555
H3B C5B 1_555 1_555
N1B C4B 1_555 1_555
C7B N1B 1_555 1_555
C8B C7B 1_555 1_555
O2B C8B 1_555 1_555
C9B O2B 1_555 1_555
C10B C9B 1_555 1_555
O3B C10B 1_555 1_555
C11B O3B 1_555 1_555
C12B C11B 1_555 1_555
O4B C12B 1_555 1_555
C13B O4B 1_555 1_555
C14B C13B 1_555 1_555
O5B C14B 1_555 1_555
C15B O5B 1_555 1_555
C16B N1B 1_555 1_555
H23B C16B 1_555 1_555
H24B C16B 1_555 1_555
H21B C15B 1_555 1_555
H22B C15B 1_555 1_555
H19B C14B 1_555 1_555
H20B C14B 1_555 1_555
H17B C13B 1_555 1_555
H18B C13B 1_555 1_555
H15B C12B 1_555 1_555
H16B C12B 1_555 1_555
H13B C11B 1_555 1_555
H14B C11B 1_555 1_555
H11B C10B 1_555 1_555
H12B C10B 1_555 1_555
H9B C9B 1_555 1_555
H10B C9B 1_555 1_555
H7B C8B 1_555 1_555
H8B C8B 1_555 1_555
H5B C7B 1_555 1_555
H6B C7B 1_555 1_555
H2B C3B 1_555 1_555
H1B C2B 1_555 1_555
C15 C16 1_555 1_555
C5A C6A 1_555 1_555
C15A C16A 1_555 1_555
C5B C6B 1_555 1_555
C15B C16B 1_555 1_555

#END
