
#######################################################################
#
#                 Cambridge Crystallographic Data Centre
#                                CCDC 
#
#######################################################################
#
# If this CIF has been generated from an entry in the Cambridge 
# Structural Database, then it will include bibliographic, chemical, 
# crystal, experimental, refinement or atomic coordinate data resulting 
# from the CCDC's data processing and validation procedures.
#
#######################################################################

data_EDOBAD
_chemical_formula_moiety         'C40 H36 B1 F10 P1,0.5(C5 H12)'
_chemical_name_systematic        
'(2-(dimesitylphosphonio)ethyl)(bis(pentafluorophenyl))(2-phenylethyl)borate n-pentane solvate'
_symmetry_cell_setting           monoclinic
_symmetry_space_group_name_H-M   'P 21/c'
_symmetry_Int_Tables_number      14
_space_group_name_Hall           '-P 2ybc'
loop_
_symmetry_equiv_pos_site_id
_symmetry_equiv_pos_as_xyz
1 x,y,z
2 -x,1/2+y,1/2-z
3 -x,-y,-z
4 x,1/2-y,1/2+z
_cell_length_a                   12.0059(4)
_cell_length_b                   19.5624(6)
_cell_length_c                   16.4058(5)
_cell_angle_alpha                90
_cell_angle_beta                 103.753(2)
_cell_angle_gamma                90
_cell_volume                     3742.66
_exptl_crystal_colour            colorless
_exptl_crystal_description       needle
_cell_formula_units_Z            4
loop_
_atom_site_label
_atom_site_type_symbol
_atom_site_fract_x
_atom_site_fract_y
_atom_site_fract_z
P1 P 0.38730(5) 0.33387(3) 0.18801(4)
H1 H 0.3807(17) 0.3213(10) 0.1068(13)
B1 B 0.6377(2) 0.48634(13) 0.21890(17)
C1 C 0.44258(19) 0.41993(11) 0.20222(15)
H2 H 0.3871 0.4521 0.1678
H3 H 0.4551 0.4335 0.2618
C2 C 0.55707(18) 0.42189(11) 0.17493(14)
H4 H 0.5412 0.4263 0.1131
H5 H 0.5989 0.3785 0.191
C3 C 0.57293(19) 0.55887(11) 0.18751(15)
H6 H 0.496 0.5581 0.1995
H7 H 0.6168 0.5965 0.2208
C4 C 0.5591(2) 0.57472(12) 0.09321(15)
H8 H 0.5416 0.5316 0.0612
H9 H 0.4924 0.6055 0.0746
C5 C 0.49554(18) 0.27678(11) 0.24719(14)
C6 C 0.51634(19) 0.27645(11) 0.33508(14)
C7 C 0.60168(19) 0.23362(12) 0.38022(15)
H10 H 0.6169 0.2334 0.4398
C8 C 0.6650(2) 0.19127(13) 0.34055(16)
C9 C 0.64437(19) 0.19332(12) 0.25400(15)
H11 H 0.6884 0.1648 0.2268
C10 C 0.56142(18) 0.23560(11) 0.20545(15)
C11 C 0.4532(2) 0.32189(12) 0.38316(14)
H12 H 0.4792 0.3692 0.381
H13 H 0.4686 0.3067 0.4417
H14 H 0.3706 0.3193 0.358
C12 C 0.7563(2) 0.14500(16) 0.39094(19)
H15 H 0.7913 0.1667 0.4448
H16 H 0.8153 0.1368 0.3598
H17 H 0.7217 0.1014 0.401
C13 C 0.5497(2) 0.23595(13) 0.11190(15)
H18 H 0.607 0.2053 0.098
H19 H 0.5617 0.2824 0.0935
H20 H 0.4727 0.2203 0.0834
C14 C 0.24454(19) 0.31627(11) 0.20112(14)
C15 C 0.19678(19) 0.25336(12) 0.16741(15)
C16 C 0.0856(2) 0.23729(12) 0.17146(17)
H21 H 0.0536 0.1949 0.149
C17 C 0.0197(2) 0.28111(13) 0.20728(18)
C18 C 0.0683(2) 0.34275(13) 0.23955(17)
H22 H 0.0239 0.373 0.2643
C19 C 0.1796(2) 0.36244(12) 0.23735(16)
C20 C 0.2601(2) 0.20313(12) 0.12509(16)
H23 H 0.213 0.1621 0.1093
H24 H 0.3327 0.1905 0.1638
H25 H 0.2757 0.2241 0.0747
C21 C -0.0999(2) 0.26184(15) 0.2119(2)
H26 H -0.1226 0.2196 0.1803
H27 H -0.153 0.2986 0.1878
H28 H -0.102 0.2548 0.2707
C22 C 0.2211(2) 0.43120(12) 0.27360(18)
H29 H 0.2919 0.4254 0.3174
H30 H 0.1624 0.4523 0.2979
H31 H 0.2362 0.4607 0.2291
C23 C 0.66262(19) 0.47353(12) 0.32241(15)
C24 C 0.7241(2) 0.41696(13) 0.35987(15)
F1 F 0.76828(12) 0.37276(7) 0.31124(9)
C25 C 0.7449(2) 0.40026(14) 0.44365(16)
F2 F 0.80567(14) 0.34375(9) 0.47395(10)
C26 C 0.7038(2) 0.44217(15) 0.49708(16)
F3 F 0.72450(15) 0.42744(10) 0.57985(9)
C27 C 0.6434(2) 0.49934(14) 0.46509(16)
F4 F 0.60358(14) 0.54178(9) 0.51681(10)
C28 C 0.6229(2) 0.51342(12) 0.38040(16)
F5 F 0.55949(13) 0.57044(7) 0.35561(9)
C29 C 0.76470(19) 0.48577(11) 0.19442(14)
C30 C 0.84667(19) 0.53453(11) 0.22924(15)
F6 F 0.82547(11) 0.57812(7) 0.28817(9)
C31 C 0.94882(19) 0.54480(11) 0.20655(15)
F7 F 1.02232(11) 0.59437(7) 0.24204(10)
C32 C 0.97548(19) 0.50368(12) 0.14573(15)
F8 F 1.07284(11) 0.51341(7) 0.12041(9)
C33 C 0.90091(19) 0.45275(11) 0.11120(14)
F9 F 0.92681(11) 0.41149(7) 0.05254(9)
C34 C 0.79874(18) 0.44504(11) 0.13588(14)
F10 F 0.72982(11) 0.39418(7) 0.09534(9)
C35 C 0.6623(2) 0.60740(11) 0.07144(15)
C36 C 0.7074(2) 0.66844(12) 0.10795(16)
H32 H 0.6715 0.6905 0.1465
C37 C 0.8034(2) 0.69808(13) 0.08966(17)
H33 H 0.8325 0.7399 0.1157
C38 C 0.8571(2) 0.66698(14) 0.03361(17)
H34 H 0.9231 0.6871 0.0211
C39 C 0.8135(2) 0.60601(14) -0.00414(16)
H35 H 0.8497 0.5843 -0.0428
C40 C 0.7172(2) 0.57669(13) 0.01443(15)
H36 H 0.688 0.535 -0.012
loop_
_geom_bond_atom_site_label_1
_geom_bond_atom_site_label_2
_geom_bond_site_symmetry_1
_geom_bond_site_symmetry_2
P1 H1 1_555 1_555
B1 C2 1_555 1_555
C1 P1 1_555 1_555
H2 C1 1_555 1_555
H3 C1 1_555 1_555
C2 C1 1_555 1_555
H4 C2 1_555 1_555
H5 C2 1_555 1_555
C3 B1 1_555 1_555
H6 C3 1_555 1_555
H7 C3 1_555 1_555
C4 C3 1_555 1_555
H8 C4 1_555 1_555
H9 C4 1_555 1_555
C5 P1 1_555 1_555
C6 C5 1_555 1_555
C7 C6 1_555 1_555
H10 C7 1_555 1_555
C8 C7 1_555 1_555
C9 C8 1_555 1_555
H11 C9 1_555 1_555
C10 C5 1_555 1_555
C11 C6 1_555 1_555
H12 C11 1_555 1_555
H13 C11 1_555 1_555
H14 C11 1_555 1_555
C12 C8 1_555 1_555
H15 C12 1_555 1_555
H16 C12 1_555 1_555
H17 C12 1_555 1_555
C13 C10 1_555 1_555
H18 C13 1_555 1_555
H19 C13 1_555 1_555
H20 C13 1_555 1_555
C14 P1 1_555 1_555
C15 C14 1_555 1_555
C16 C15 1_555 1_555
H21 C16 1_555 1_555
C17 C16 1_555 1_555
C18 C17 1_555 1_555
H22 C18 1_555 1_555
C19 C14 1_555 1_555
C20 C15 1_555 1_555
H23 C20 1_555 1_555
H24 C20 1_555 1_555
H25 C20 1_555 1_555
C21 C17 1_555 1_555
H26 C21 1_555 1_555
H27 C21 1_555 1_555
H28 C21 1_555 1_555
C22 C19 1_555 1_555
H29 C22 1_555 1_555
H30 C22 1_555 1_555
H31 C22 1_555 1_555
C23 B1 1_555 1_555
C24 C23 1_555 1_555
F1 C24 1_555 1_555
C25 C24 1_555 1_555
F2 C25 1_555 1_555
C26 C25 1_555 1_555
F3 C26 1_555 1_555
C27 C26 1_555 1_555
F4 C27 1_555 1_555
C28 C23 1_555 1_555
F5 C28 1_555 1_555
C29 B1 1_555 1_555
C30 C29 1_555 1_555
F6 C30 1_555 1_555
C31 C30 1_555 1_555
F7 C31 1_555 1_555
C32 C31 1_555 1_555
F8 C32 1_555 1_555
C33 C32 1_555 1_555
F9 C33 1_555 1_555
C34 C29 1_555 1_555
F10 C34 1_555 1_555
C35 C4 1_555 1_555
C36 C35 1_555 1_555
H32 C36 1_555 1_555
C37 C36 1_555 1_555
H33 C37 1_555 1_555
C38 C37 1_555 1_555
H34 C38 1_555 1_555
C39 C38 1_555 1_555
H35 C39 1_555 1_555
C40 C35 1_555 1_555
H36 C40 1_555 1_555
C9 C10 1_555 1_555
C18 C19 1_555 1_555
C27 C28 1_555 1_555
C33 C34 1_555 1_555
C39 C40 1_555 1_555

#END
