
#######################################################################
#
#                 Cambridge Crystallographic Data Centre
#                                CCDC 
#
#######################################################################
#
# If this CIF has been generated from an entry in the Cambridge 
# Structural Database, then it will include bibliographic, chemical, 
# crystal, experimental, refinement or atomic coordinate data resulting 
# from the CCDC's data processing and validation procedures.
#
#######################################################################

data_EDOBOR
_chemical_formula_moiety         'C41 H36 B1 F10 P1,2(C1 H2 Cl2)'
_chemical_name_systematic        
'(2-(dimesitylphosphonio)ethyl)(bis(pentafluorophenyl))(1-phenylprop-1-en-2-yl)borate dichloromethane solvate'
_symmetry_cell_setting           monoclinic
_symmetry_space_group_name_H-M   'P 21/c'
_symmetry_Int_Tables_number      14
_space_group_name_Hall           '-P 2ybc'
loop_
_symmetry_equiv_pos_site_id
_symmetry_equiv_pos_as_xyz
1 x,y,z
2 -x,1/2+y,1/2-z
3 -x,-y,-z
4 x,1/2-y,1/2+z
_cell_length_a                   16.5178(13)
_cell_length_b                   17.7218(12)
_cell_length_c                   14.3309(12)
_cell_angle_alpha                90
_cell_angle_beta                 91.218(5)
_cell_angle_gamma                90
_cell_volume                     4194.07
_exptl_crystal_colour            colorless
_exptl_crystal_description       plate
_cell_formula_units_Z            4
loop_
_atom_site_label
_atom_site_type_symbol
_atom_site_fract_x
_atom_site_fract_y
_atom_site_fract_z
P1 P 0.22978(5) 0.47466(5) 0.81322(5)
H1 H 0.264(2) 0.4188(19) 0.767(2)
B1 B 0.2112(2) 0.5924(2) 0.5567(3)
C1 C 0.19065(19) 0.53753(18) 0.7249(2)
H2 H 0.1433 0.5138 0.6932
H3 H 0.172 0.5846 0.7548
C2 C 0.2545(2) 0.55702(19) 0.6518(2)
H4 H 0.2851 0.5109 0.6357
H5 H 0.2934 0.5941 0.6786
C3 C 0.1574(2) 0.53219(19) 0.4938(2)
C4 C 0.1516(2) 0.4567(2) 0.5001(2)
H6 H 0.1159 0.4347 0.4549
C5 C 0.1077(2) 0.5676(2) 0.4145(2)
H7 H 0.1441 0.5868 0.3668
H8 H 0.0754 0.6093 0.4388
H9 H 0.0716 0.5294 0.3867
C6 C 0.30929(19) 0.52186(19) 0.8781(2)
C7 C 0.2894(2) 0.57405(19) 0.9477(2)
C8 C 0.3516(2) 0.6153(2) 0.9924(3)
H10 H 0.3382 0.6509 1.0391
C9 C 0.4315(3) 0.6051(2) 0.9698(3)
C10 C 0.4507(2) 0.5513(2) 0.9018(3)
H11 H 0.5059 0.5434 0.8873
C11 C 0.3910(2) 0.5092(2) 0.8550(2)
C12 C 0.2044(2) 0.5889(2) 0.9768(3)
H12 H 0.1708 0.6012 0.9217
H13 H 0.2039 0.6314 1.0206
H14 H 0.1828 0.5439 1.0071
C13 C 0.4973(3) 0.6534(3) 1.0149(4)
H15 H 0.4852 0.6614 1.0809
H16 H 0.4996 0.7022 0.983
H17 H 0.5496 0.6278 1.0101
C14 C 0.4178(2) 0.4537(2) 0.7823(3)
H18 H 0.477 0.4502 0.7839
H19 H 0.3993 0.4709 0.7204
H20 H 0.3946 0.404 0.7952
C15 C 0.15757(19) 0.42651(18) 0.8847(2)
C16 C 0.1883(2) 0.36469(19) 0.9371(2)
C17 C 0.1359(2) 0.32150(19) 0.9900(2)
H21 H 0.1568 0.2793 1.0235
C18 C 0.0543(2) 0.33806(19) 0.9953(2)
C19 C 0.0249(2) 0.39952(19) 0.9438(2)
H22 H -0.031 0.4116 0.9471
C20 C 0.0736(2) 0.44388(18) 0.8877(2)
C21 C 0.2767(2) 0.3431(2) 0.9392(3)
H23 H 0.2846 0.2982 0.9783
H24 H 0.3089 0.3849 0.9651
H25 H 0.2941 0.3323 0.8757
C22 C -0.0012(2) 0.2917(2) 1.0544(2)
H26 H 0.0002 0.3111 1.1185
H27 H 0.0167 0.239 1.0544
H28 H -0.0566 0.2948 1.0289
C23 C 0.0318(2) 0.5061(2) 0.8331(2)
H29 H 0.0285 0.4923 0.7669
H30 H 0.0626 0.5531 0.8405
H31 H -0.023 0.5134 0.8566
C24 C 0.1544(2) 0.66076(18) 0.5995(2)
C25 C 0.0734(2) 0.65299(19) 0.6232(2)
F1 F 0.03282(11) 0.58888(11) 0.60194(13)
C26 C 0.0299(2) 0.7061(2) 0.6721(2)
F2 F -0.04823(12) 0.69281(12) 0.69187(14)
C27 C 0.0666(2) 0.7716(2) 0.7013(2)
F3 F 0.02553(13) 0.82363(11) 0.74984(13)
C28 C 0.1469(2) 0.78268(19) 0.6810(2)
F4 F 0.18405(13) 0.84699(11) 0.70897(13)
C29 C 0.1876(2) 0.72842(19) 0.6314(2)
F5 F 0.26718(11) 0.74374(11) 0.61686(12)
C30 C 0.2801(2) 0.62572(19) 0.4838(2)
C31 C 0.2666(2) 0.6874(2) 0.4251(2)
F6 F 0.19599(13) 0.72632(12) 0.42747(13)
C32 C 0.3222(3) 0.7151(2) 0.3629(2)
F7 F 0.30409(15) 0.77612(13) 0.30941(13)
C33 C 0.3952(3) 0.6800(3) 0.3547(3)
F8 F 0.45000(18) 0.70459(18) 0.2931(2)
C34 C 0.4117(3) 0.6190(3) 0.4106(3)
F9 F 0.4838(2) 0.5831(2) 0.4033(2)
C35 C 0.3547(3) 0.5937(2) 0.4714(3)
F10 F 0.37748(16) 0.53160(14) 0.52140(19)
C36 C 0.1908(2) 0.40109(19) 0.5650(2)
C37 C 0.1435(2) 0.3636(2) 0.6304(2)
H32 H 0.088 0.3768 0.6358
C38 C 0.1759(3) 0.3076(2) 0.6874(3)
H33 H 0.1429 0.2831 0.7315
C39 C 0.2566(3) 0.2874(2) 0.6801(3)
H34 H 0.279 0.249 0.719
C40 C 0.3045(3) 0.3237(2) 0.6158(3)
H35 H 0.3599 0.3103 0.6108
C41 C 0.2714(2) 0.3800(2) 0.5581(2)
H36 H 0.3046 0.404 0.5136
loop_
_geom_bond_atom_site_label_1
_geom_bond_atom_site_label_2
_geom_bond_site_symmetry_1
_geom_bond_site_symmetry_2
P1 H1 1_555 1_555
B1 C2 1_555 1_555
C1 P1 1_555 1_555
H2 C1 1_555 1_555
H3 C1 1_555 1_555
C2 C1 1_555 1_555
H4 C2 1_555 1_555
H5 C2 1_555 1_555
C3 B1 1_555 1_555
C4 C3 1_555 1_555
H6 C4 1_555 1_555
C5 C3 1_555 1_555
H7 C5 1_555 1_555
H8 C5 1_555 1_555
H9 C5 1_555 1_555
C6 P1 1_555 1_555
C7 C6 1_555 1_555
C8 C7 1_555 1_555
H10 C8 1_555 1_555
C9 C8 1_555 1_555
C10 C9 1_555 1_555
H11 C10 1_555 1_555
C11 C6 1_555 1_555
C12 C7 1_555 1_555
H12 C12 1_555 1_555
H13 C12 1_555 1_555
H14 C12 1_555 1_555
C13 C9 1_555 1_555
H15 C13 1_555 1_555
H16 C13 1_555 1_555
H17 C13 1_555 1_555
C14 C11 1_555 1_555
H18 C14 1_555 1_555
H19 C14 1_555 1_555
H20 C14 1_555 1_555
C15 P1 1_555 1_555
C16 C15 1_555 1_555
C17 C16 1_555 1_555
H21 C17 1_555 1_555
C18 C17 1_555 1_555
C19 C18 1_555 1_555
H22 C19 1_555 1_555
C20 C15 1_555 1_555
C21 C16 1_555 1_555
H23 C21 1_555 1_555
H24 C21 1_555 1_555
H25 C21 1_555 1_555
C22 C18 1_555 1_555
H26 C22 1_555 1_555
H27 C22 1_555 1_555
H28 C22 1_555 1_555
C23 C20 1_555 1_555
H29 C23 1_555 1_555
H30 C23 1_555 1_555
H31 C23 1_555 1_555
C24 B1 1_555 1_555
C25 C24 1_555 1_555
F1 C25 1_555 1_555
C26 C25 1_555 1_555
F2 C26 1_555 1_555
C27 C26 1_555 1_555
F3 C27 1_555 1_555
C28 C27 1_555 1_555
F4 C28 1_555 1_555
C29 C24 1_555 1_555
F5 C29 1_555 1_555
C30 B1 1_555 1_555
C31 C30 1_555 1_555
F6 C31 1_555 1_555
C32 C31 1_555 1_555
F7 C32 1_555 1_555
C33 C32 1_555 1_555
F8 C33 1_555 1_555
C34 C33 1_555 1_555
F9 C34 1_555 1_555
C35 C30 1_555 1_555
F10 C35 1_555 1_555
C36 C4 1_555 1_555
C37 C36 1_555 1_555
H32 C37 1_555 1_555
C38 C37 1_555 1_555
H33 C38 1_555 1_555
C39 C38 1_555 1_555
H34 C39 1_555 1_555
C40 C39 1_555 1_555
H35 C40 1_555 1_555
C41 C36 1_555 1_555
H36 C41 1_555 1_555
C10 C11 1_555 1_555
C19 C20 1_555 1_555
C28 C29 1_555 1_555
C34 C35 1_555 1_555
C40 C41 1_555 1_555

#END
