
#######################################################################
#
#                 Cambridge Crystallographic Data Centre
#                                CCDC 
#
#######################################################################
#
# If this CIF has been generated from an entry in the Cambridge 
# Structural Database, then it will include bibliographic, chemical, 
# crystal, experimental, refinement or atomic coordinate data resulting 
# from the CCDC's data processing and validation procedures.
#
#######################################################################

data_EDOCIM
_chemical_formula_moiety         'C32 H30 B1 F10 N1'
_chemical_name_systematic        
bis(pentafluorophenyl)(phenylethynyl)(3-(2,2,6,6-tetramethylpiperidinium-1-yl)propyl)borate
_symmetry_cell_setting           monoclinic
_symmetry_space_group_name_H-M   'P 21/n'
_symmetry_Int_Tables_number      14
_space_group_name_Hall           '-P 2yn'
loop_
_symmetry_equiv_pos_site_id
_symmetry_equiv_pos_as_xyz
1 x,y,z
2 1/2-x,1/2+y,1/2-z
3 -x,-y,-z
4 1/2+x,1/2-y,1/2+z
_cell_length_a                   9.4215(2)
_cell_length_b                   19.3197(3)
_cell_length_c                   16.2269(4)
_cell_angle_alpha                90
_cell_angle_beta                 94.711(1)
_cell_angle_gamma                90
_cell_volume                     2943.65
_exptl_crystal_colour            colorless
_exptl_crystal_description       prism
_cell_formula_units_Z            4
loop_
_atom_site_label
_atom_site_type_symbol
_atom_site_fract_x
_atom_site_fract_y
_atom_site_fract_z
N1 N 0.1315(2) 0.18312(11) 1.13047(13)
H1 H 0.046(3) 0.2054(12) 1.1288(15)
C1 C 0.1421(3) 0.15271(13) 1.04459(16)
H2 H 0.2278 0.1717 1.0212
H3 H 0.1542 0.1019 1.0495
C2 C 0.0134(3) 0.16784(14) 0.98572(16)
H4 H 0.0011 0.2186 0.9806
H5 H -0.0725 0.1488 1.0088
C3 C 0.0265(3) 0.13673(13) 0.89950(16)
H6 H -0.0655 0.1430 0.8663
H7 H 0.0429 0.0863 0.9058
C4 C 0.1399(3) 0.25128(14) 0.85287(16)
C5 C 0.1109(3) 0.31192(13) 0.85762(17)
C6 C 0.1143(3) 0.12714(13) 1.19847(17)
C7 C 0.0980(3) 0.16467(14) 1.28044(18)
H8 H 0.0039 0.1877 1.2774
H9 H 0.0999 0.1300 1.3254
C8 C 0.2129(3) 0.21838(15) 1.30216(18)
H10 H 0.1957 0.2409 1.3553
H11 H 0.3073 0.1956 1.3087
C9 C 0.2118(3) 0.27246(14) 1.23437(17)
H12 H 0.2850 0.3078 1.2503
H13 H 0.1179 0.2958 1.2296
C10 C 0.2402(3) 0.24288(13) 1.15022(17)
C11 C -0.0230(3) 0.08844(15) 1.1729(2)
H14 H -0.0441 0.0561 1.2168
H15 H -0.0120 0.0627 1.1218
H16 H -0.1014 0.1216 1.1636
C12 C 0.2406(3) 0.07716(14) 1.20623(18)
H17 H 0.3262 0.1019 1.2284
H18 H 0.2562 0.0583 1.1516
H19 H 0.2203 0.0392 1.2436
C13 C 0.3942(3) 0.21723(15) 1.14869(19)
H20 H 0.3994 0.1831 1.1044
H21 H 0.4250 0.1958 1.2019
H22 H 0.4566 0.2564 1.1388
C14 C 0.2075(3) 0.29847(14) 1.08469(19)
H23 H 0.1055 0.3091 1.0808
H24 H 0.2342 0.2817 1.0311
H25 H 0.2619 0.3404 1.1001
B1 B 0.1540(3) 0.16934(15) 0.84702(19)
C15 C 0.1386(2) 0.14945(12) 0.74691(16)
F1 F -0.05351(16) 0.06922(8) 0.74723(10)
C16 C 0.0435(3) 0.10400(13) 0.70577(17)
F2 F -0.05881(19) 0.04513(9) 0.58723(11)
C17 C 0.0381(3) 0.09017(14) 0.62183(18)
F3 F 0.1261(2) 0.11007(10) 0.49211(11)
C18 C 0.1299(3) 0.12251(16) 0.57348(17)
F4 F 0.32196(18) 0.19989(9) 0.56490(11)
C19 C 0.2274(3) 0.16801(14) 0.61035(18)
F5 F 0.33233(16) 0.22429(8) 0.72514(10)
C20 C 0.2303(3) 0.17984(13) 0.69406(17)
C21 C 0.3131(3) 0.13891(13) 0.88122(16)
F6 F 0.23625(16) 0.02559(7) 0.84267(10)
C22 C 0.3400(3) 0.06827(13) 0.87526(17)
F7 F 0.48406(17) -0.03220(8) 0.89214(11)
C23 C 0.4678(3) 0.03693(14) 0.90054(18)
F8 F 0.70283(17) 0.04640(9) 0.96271(12)
C24 C 0.5781(3) 0.07591(15) 0.93533(18)
F9 F 0.66275(16) 0.18521(9) 0.98195(11)
C25 C 0.5579(3) 0.14609(15) 0.94431(17)
F10 F 0.42084(16) 0.24491(8) 0.92803(10)
C26 C 0.4291(3) 0.17554(13) 0.91640(16)
C27 C 0.0722(3) 0.38361(13) 0.86342(16)
C28 C 0.1407(3) 0.43467(14) 0.82101(19)
H26 H 0.2176 0.4224 0.7896
C29 C 0.0983(4) 0.50326(15) 0.8240(2)
H27 H 0.1463 0.5376 0.7950
C30 C -0.0135(4) 0.52157(15) 0.8691(2)
H28 H -0.0428 0.5685 0.8711
C31 C -0.0826(3) 0.47182(15) 0.91133(19)
H29 H -0.1602 0.4845 0.9420
C32 C -0.0397(3) 0.40345(14) 0.90937(17)
H30 H -0.0870 0.3696 0.9396
loop_
_geom_bond_atom_site_label_1
_geom_bond_atom_site_label_2
_geom_bond_site_symmetry_1
_geom_bond_site_symmetry_2
N1 H1 1_555 1_555
C1 N1 1_555 1_555
H2 C1 1_555 1_555
H3 C1 1_555 1_555
C2 C1 1_555 1_555
H4 C2 1_555 1_555
H5 C2 1_555 1_555
C3 C2 1_555 1_555
H6 C3 1_555 1_555
H7 C3 1_555 1_555
C4 C5 1_555 1_555
C5 C27 1_555 1_555
C6 N1 1_555 1_555
C7 C6 1_555 1_555
H8 C7 1_555 1_555
H9 C7 1_555 1_555
C8 C7 1_555 1_555
H10 C8 1_555 1_555
H11 C8 1_555 1_555
C9 C8 1_555 1_555
H12 C9 1_555 1_555
H13 C9 1_555 1_555
C10 N1 1_555 1_555
C11 C6 1_555 1_555
H14 C11 1_555 1_555
H15 C11 1_555 1_555
H16 C11 1_555 1_555
C12 C6 1_555 1_555
H17 C12 1_555 1_555
H18 C12 1_555 1_555
H19 C12 1_555 1_555
C13 C10 1_555 1_555
H20 C13 1_555 1_555
H21 C13 1_555 1_555
H22 C13 1_555 1_555
C14 C10 1_555 1_555
H23 C14 1_555 1_555
H24 C14 1_555 1_555
H25 C14 1_555 1_555
B1 C3 1_555 1_555
C15 B1 1_555 1_555
F1 C16 1_555 1_555
C16 C15 1_555 1_555
F2 C17 1_555 1_555
C17 C16 1_555 1_555
F3 C18 1_555 1_555
C18 C17 1_555 1_555
F4 C19 1_555 1_555
C19 C18 1_555 1_555
F5 C20 1_555 1_555
C20 C15 1_555 1_555
C21 B1 1_555 1_555
F6 C22 1_555 1_555
C22 C21 1_555 1_555
F7 C23 1_555 1_555
C23 C22 1_555 1_555
F8 C24 1_555 1_555
C24 C23 1_555 1_555
F9 C25 1_555 1_555
C25 C24 1_555 1_555
F10 C26 1_555 1_555
C26 C21 1_555 1_555
C27 C28 1_555 1_555
C28 H26 1_555 1_555
C29 C28 1_555 1_555
H27 C29 1_555 1_555
C30 C29 1_555 1_555
H28 C30 1_555 1_555
C31 C30 1_555 1_555
H29 C31 1_555 1_555
C32 C27 1_555 1_555
H30 C32 1_555 1_555
C4 B1 1_555 1_555
C9 C10 1_555 1_555
C19 C20 1_555 1_555
C25 C26 1_555 1_555
C31 C32 1_555 1_555

#END
