
#######################################################################
#
#                 Cambridge Crystallographic Data Centre
#                                CCDC 
#
#######################################################################
#
# If this CIF has been generated from an entry in the Cambridge 
# Structural Database, then it will include bibliographic, chemical, 
# crystal, experimental, refinement or atomic coordinate data resulting 
# from the CCDC's data processing and validation procedures.
#
#######################################################################

data_EDOCOR
_chemical_formula_moiety         'C15 H13 B1 F2 N4,C1 H4 O1'
_chemical_name_systematic        
"13,13-difluoro-2,4-dimethyl-13H-12\l^5^,13\l^5^-pyrido[1',2':3,4][1,3,5,2]triazaborinino[1,6-a][1,8]naphthyridine methanol solvate"
_symmetry_cell_setting           orthorhombic
_symmetry_space_group_name_H-M   'P 21 21 21'
_symmetry_Int_Tables_number      19
_space_group_name_Hall           'P 2ac 2ab'
loop_
_symmetry_equiv_pos_site_id
_symmetry_equiv_pos_as_xyz
1 x,y,z
2 1/2-x,-y,1/2+z
3 -x,1/2+y,1/2-z
4 1/2+x,1/2-y,-z
_cell_length_a                   7.0386(7)
_cell_length_b                   12.9628(12)
_cell_length_c                   16.8574(16)
_cell_angle_alpha                90
_cell_angle_beta                 90
_cell_angle_gamma                90
_cell_volume                     1538.07
_exptl_crystal_colour            colorless
_exptl_crystal_description       prism
_cell_formula_units_Z            4
loop_
_atom_site_label
_atom_site_type_symbol
_atom_site_fract_x
_atom_site_fract_y
_atom_site_fract_z
B1 B 0.3175(5) 0.2648(3) 0.6365(2)
F1 F 0.2043(3) 0.20538(14) 0.58658(10)
F2 F 0.3682(3) 0.35701(13) 0.60088(10)
N1 N 0.5058(4) 0.20247(19) 0.65123(14)
N2 N 0.4655(4) 0.1947(2) 0.79161(14)
N3 N 0.2201(3) 0.28195(18) 0.71908(14)
N4 N -0.0108(4) 0.3722(2) 0.64996(15)
C1 C 0.6125(5) 0.1796(2) 0.58480(18)
H1 H 0.5664 0.1994 0.5341
C2 C 0.7827(5) 0.1293(2) 0.59012(19)
H2 H 0.8550 0.1150 0.5438
C3 C 0.8485(4) 0.0993(2) 0.66507(19)
H3 H 0.9663 0.0641 0.6700
C4 C 0.7423(4) 0.1210(2) 0.73175(19)
H4 H 0.7867 0.1005 0.7826
C5 C 0.5677(4) 0.1737(2) 0.72457(18)
C6 C 0.2999(4) 0.2453(2) 0.78767(18)
C7 C 0.2015(5) 0.2621(2) 0.86132(18)
H5 H 0.2558 0.2370 0.9092
C8 C 0.0339(5) 0.3126(2) 0.86415(18)
H6 H -0.0285 0.3218 0.9136
C9 C -0.0502(4) 0.3524(2) 0.79332(18)
C10 C 0.0480(4) 0.3364(2) 0.72131(17)
C11 C -0.1759(4) 0.4251(2) 0.64868(19)
C12 C -0.2850(5) 0.4422(2) 0.71727(18)
H7 H -0.4019 0.4785 0.7131
C13 C -0.2256(4) 0.4075(2) 0.79036(18)
C14 C -0.2368(5) 0.4655(2) 0.56871(18)
H8 H -0.1274 0.4965 0.5418
H9 H -0.3361 0.5177 0.5758
H10 H -0.2864 0.4085 0.5366
C15 C -0.3374(5) 0.4293(3) 0.86507(19)
H11 H -0.2713 0.4817 0.8965
H12 H -0.3491 0.3657 0.8962
H13 H -0.4642 0.4544 0.8509
O1 O 0.6212(4) 0.1777(2) 0.94844(15)
H14 H 0.573(6) 0.177(4) 0.899(3)
C16 C 0.7639(5) 0.1011(3) 0.9556(2)
H15 H 0.8828 0.1269 0.9327
H16 H 0.7241 0.0388 0.9273
H17 H 0.7836 0.0848 1.0118
loop_
_geom_bond_atom_site_label_1
_geom_bond_atom_site_label_2
_geom_bond_site_symmetry_1
_geom_bond_site_symmetry_2
B1 F1 1_555 1_555
F2 B1 1_555 1_555
N1 B1 1_555 1_555
N2 C5 1_555 1_555
N3 B1 1_555 1_555
N4 C10 1_555 1_555
C1 N1 1_555 1_555
H1 C1 1_555 1_555
C2 C1 1_555 1_555
H2 C2 1_555 1_555
C3 C2 1_555 1_555
H3 C3 1_555 1_555
C4 C3 1_555 1_555
H4 C4 1_555 1_555
C5 N1 1_555 1_555
C6 N2 1_555 1_555
C7 C6 1_555 1_555
H5 C7 1_555 1_555
C8 C7 1_555 1_555
H6 C8 1_555 1_555
C9 C8 1_555 1_555
C10 N3 1_555 1_555
C11 N4 1_555 1_555
C12 C11 1_555 1_555
H7 C12 1_555 1_555
C13 C9 1_555 1_555
C14 C11 1_555 1_555
H8 C14 1_555 1_555
H9 C14 1_555 1_555
H10 C14 1_555 1_555
C15 C13 1_555 1_555
H11 C15 1_555 1_555
H12 C15 1_555 1_555
H13 C15 1_555 1_555
O1 H14 1_555 1_555
C16 O1 1_555 1_555
H15 C16 1_555 1_555
H16 C16 1_555 1_555
H17 C16 1_555 1_555
N3 C6 1_555 1_555
C4 C5 1_555 1_555
C9 C10 1_555 1_555
C12 C13 1_555 1_555

#END
