
#######################################################################
#
#                 Cambridge Crystallographic Data Centre
#                                CCDC 
#
#######################################################################
#
# If this CIF has been generated from an entry in the Cambridge 
# Structural Database, then it will include bibliographic, chemical, 
# crystal, experimental, refinement or atomic coordinate data resulting 
# from the CCDC's data processing and validation procedures.
#
#######################################################################

data_EDOCEI
_chemical_formula_moiety         'C24 H25 B1 F10 N1 1+,C18 H1 B1 F15 1-'
_chemical_name_systematic        
'1-(3-(bis(pentafluorophenyl)boryl)propyl)-2,2,6,6-tetramethylpiperidinium hydrido(tris(pentafluorophenyl))borate tris(2,3,4,5,6-pentafluorocyclohexyl)(hydrido)borate'
_symmetry_cell_setting           triclinic
_symmetry_space_group_name_H-M   'P -1'
_symmetry_Int_Tables_number      2
_space_group_name_Hall           '-P 1'
loop_
_symmetry_equiv_pos_site_id
_symmetry_equiv_pos_as_xyz
1 x,y,z
2 -x,-y,-z
_cell_length_a                   11.2158(5)
_cell_length_b                   13.2690(6)
_cell_length_c                   15.6892(7)
_cell_angle_alpha                68.3580(10)
_cell_angle_beta                 75.9060(10)
_cell_angle_gamma                71.5450(10)
_cell_volume                     2037.31
_exptl_crystal_colour            colorless
_exptl_crystal_description       plate
_cell_formula_units_Z            2
loop_
_atom_site_label
_atom_site_type_symbol
_atom_site_fract_x
_atom_site_fract_y
_atom_site_fract_z
N1 N 0.1858(2) 0.62214(17) 0.66752(14)
H1 H 0.139(2) 0.594(2) 0.6533(17)
B1 B 0.3410(3) 0.1908(2) 0.81066(19)
C1 C 0.2832(2) 0.52061(19) 0.71734(17)
H2 H 0.3693 0.5249 0.6836
H3 H 0.2797 0.5224 0.7804
C2 C 0.2603(2) 0.41047(19) 0.72446(17)
H4 H 0.2659 0.407 0.6616
H5 H 0.1741 0.4057 0.7578
C3 C 0.3600(2) 0.3116(2) 0.77669(19)
H6 H 0.3673 0.3279 0.8316
H7 H 0.4428 0.3108 0.736
C4 C 0.0949(3) 0.6886(2) 0.73197(19)
C5 C -0.0060(3) 0.7794(2) 0.6746(2)
H8 H -0.0607 0.7425 0.6618
H9 H -0.0604 0.8274 0.7121
C6 C 0.0488(3) 0.8531(2) 0.5833(2)
H10 H -0.0209 0.9092 0.5502
H11 H 0.1005 0.8935 0.5951
C7 C 0.1306(3) 0.7811(2) 0.52468(19)
H12 H 0.1647 0.83 0.465
H13 H 0.0766 0.7442 0.511
C8 C 0.2415(2) 0.6909(2) 0.56980(16)
C9 C 0.0283(3) 0.6056(2) 0.8098(2)
H14 H 0.0892 0.5513 0.8508
H15 H -0.0054 0.5661 0.7829
H16 H -0.0416 0.6463 0.8454
C10 C 0.1654(4) 0.7373(2) 0.7712(2)
H17 H 0.1117 0.7577 0.8248
H18 H 0.1869 0.8042 0.7238
H19 H 0.2436 0.6816 0.7907
C11 C 0.2997(3) 0.6095(2) 0.51343(18)
H20 H 0.2359 0.5729 0.5142
H21 H 0.3725 0.5527 0.5407
H22 H 0.3279 0.6509 0.4493
C12 C 0.3426(3) 0.7410(2) 0.57586(19)
H23 H 0.3888 0.7685 0.5139
H24 H 0.402 0.6834 0.6166
H25 H 0.3021 0.8032 0.601
C13 C 0.2050(2) 0.1679(2) 0.84767(17)
C14 C 0.1128(3) 0.2247(2) 0.90297(18)
F1 F 0.13831(17) 0.30233(13) 0.92709(11)
C15 C -0.0052(3) 0.2024(3) 0.93901(19)
F2 F -0.08771(18) 0.25621(16) 0.99563(12)
C16 C -0.0368(3) 0.1240(3) 0.9172(2)
F3 F -0.15077(18) 0.10267(18) 0.94910(15)
C17 C 0.0511(3) 0.0645(2) 0.8629(2)
F4 F 0.02195(17) -0.01483(15) 0.84423(13)
C18 C 0.1697(3) 0.0855(2) 0.83132(18)
F5 F 0.25265(15) 0.02340(13) 0.78127(11)
C19 C 0.4619(2) 0.0881(2) 0.82070(17)
C20 C 0.4683(2) -0.0069(2) 0.89908(17)
F6 F 0.36539(14) -0.01646(12) 0.96485(10)
C21 C 0.5780(3) -0.0912(2) 0.91731(17)
F7 F 0.57964(15) -0.17668(12) 0.99744(10)
C22 C 0.6862(2) -0.0858(2) 0.85427(18)
F8 F 0.79287(15) -0.16719(13) 0.87138(11)
C23 C 0.6849(2) 0.0037(2) 0.77356(18)
F9 F 0.78978(14) 0.00724(13) 0.71095(11)
C24 C 0.5749(2) 0.0883(2) 0.75909(17)
F10 F 0.58107(14) 0.17346(12) 0.67879(10)
B2 B 0.6575(3) 0.5856(3) 0.7043(2)
H26 H 0.563(3) 0.568(3) 0.696(2)
C25 C 0.7754(4) 0.4803(4) 0.6867(3)
C26 C 0.7575(3) 0.3734(4) 0.7185(2)
F11 F 0.64507(18) 0.35500(17) 0.76669(15)
C27 C 0.8491(4) 0.2801(3) 0.7057(3)
F12 F 0.8265(2) 0.17846(16) 0.73885(16)
C28 C 0.9669(4) 0.2930(3) 0.6559(3)
F13 F 1.05695(19) 0.20329(16) 0.64006(14)
C29 C 0.9897(3) 0.3970(3) 0.6228(2)
F14 F 1.10374(17) 0.41082(19) 0.57420(14)
C30 C 0.8951(5) 0.4873(4) 0.6403(3)
F15 F 0.9304(2) 0.58557(17) 0.60757(14)
C31 C 0.6664(4) 0.7046(3) 0.6216(2)
C32 C 0.6735(4) 0.8022(4) 0.6300(3)
F16 F 0.6825(2) 0.8071(2) 0.71334(15)
C33 C 0.6733(5) 0.9007(4) 0.5577(4)
F17 F 0.6786(3) 0.9943(2) 0.5711(2)
C34 C 0.6659(6) 0.9059(3) 0.4700(3)
F18 F 0.6637(3) 1.00116(19) 0.39826(16)
C35 C 0.6600(9) 0.8109(4) 0.4563(4)
F19 F 0.6531(4) 0.8109(3) 0.3716(2)
C36 C 0.6591(9) 0.7147(4) 0.5310(4)
F20 F 0.6482(4) 0.6246(3) 0.5143(3)
C37 C 0.6360(4) 0.5918(4) 0.8094(2)
C38 C 0.7156(4) 0.5274(3) 0.8768(3)
F21 F 0.8269(2) 0.45635(19) 0.85739(16)
C39 C 0.6871(4) 0.5309(3) 0.9666(2)
F22 F 0.7655(3) 0.46683(19) 1.03009(15)
C40 C 0.5740(5) 0.5997(4) 0.9928(2)
F23 F 0.5433(3) 0.6012(2) 1.08081(14)
C41 C 0.4934(4) 0.6666(4) 0.9287(3)
F24 F 0.3833(3) 0.7352(3) 0.9532(2)
C42 C 0.5267(4) 0.6599(5) 0.8398(3)
F25 F 0.4438(2) 0.7285(3) 0.7789(2)
B3? B 0.7476(14) 0.6203(10) 0.7096(9)
H27? H 0.854(6) 0.626(14) 0.701(12)
C43? C 0.8013(14) 0.4975(12) 0.6918(13)
C44? C 0.7325(11) 0.4179(13) 0.7279(10)
F26? F 0.6054(8) 0.4486(9) 0.7615(7)
C45? C 0.7816(15) 0.3094(13) 0.7251(11)
F27? F 0.7078(12) 0.2349(9) 0.7634(7)
C46? C 0.9050(16) 0.2786(10) 0.6820(12)
F28? F 0.9517(12) 0.1709(8) 0.6815(8)
C47? C 0.9787(13) 0.3533(13) 0.6491(13)
F29? F 1.0984(11) 0.3264(13) 0.6063(10)
C48? C 0.9230(15) 0.4619(13) 0.6492(18)
F30? F 1.0002(12) 0.5332(11) 0.6159(8)
C49? C 0.7036(17) 0.7222(12) 0.6165(10)
C50? C 0.6913(17) 0.8316(13) 0.6102(10)
F31? F 0.7136(12) 0.8505(10) 0.6841(8)
C51? C 0.656(2) 0.9226(13) 0.5358(12)
F32? F 0.6443(15) 1.0269(10) 0.5384(10)
C52? C 0.636(2) 0.9079(12) 0.4592(11)
F33? F 0.5996(12) 0.9983(9) 0.3843(7)
C53? C 0.642(4) 0.8016(14) 0.4617(16)
F34? F 0.625(2) 0.7864(17) 0.3850(12)
C54? C 0.674(4) 0.7124(16) 0.5398(16)
F35? F 0.678(2) 0.6120(15) 0.5337(15)
C55? C 0.6511(16) 0.6217(17) 0.8067(10)
C56? C 0.6983(18) 0.560(2) 0.8908(10)
F36? F 0.8176(15) 0.4935(13) 0.8873(11)
C57? C 0.6337(16) 0.5703(16) 0.9754(9)
F37? F 0.6801(18) 0.5078(14) 1.0540(10)
C58? C 0.5117(16) 0.6357(16) 0.9797(10)
F38? F 0.4475(17) 0.6478(13) 1.0618(8)
C59? C 0.4581(16) 0.7041(16) 0.9007(10)
F39? F 0.3404(14) 0.7728(12) 0.9017(11)
C60? C 0.5322(19) 0.691(2) 0.8178(10)
F40? F 0.4785(14) 0.7580(13) 0.7409(9)
loop_
_geom_bond_atom_site_label_1
_geom_bond_atom_site_label_2
_geom_bond_site_symmetry_1
_geom_bond_site_symmetry_2
N1 H1 1_555 1_555
B1 C3 1_555 1_555
C1 N1 1_555 1_555
H2 C1 1_555 1_555
H3 C1 1_555 1_555
C2 C1 1_555 1_555
H4 C2 1_555 1_555
H5 C2 1_555 1_555
C3 C2 1_555 1_555
H6 C3 1_555 1_555
H7 C3 1_555 1_555
C4 N1 1_555 1_555
C5 C4 1_555 1_555
H8 C5 1_555 1_555
H9 C5 1_555 1_555
C6 C5 1_555 1_555
H10 C6 1_555 1_555
H11 C6 1_555 1_555
C7 C6 1_555 1_555
H12 C7 1_555 1_555
H13 C7 1_555 1_555
C8 N1 1_555 1_555
C9 C4 1_555 1_555
H14 C9 1_555 1_555
H15 C9 1_555 1_555
H16 C9 1_555 1_555
C10 C4 1_555 1_555
H17 C10 1_555 1_555
H18 C10 1_555 1_555
H19 C10 1_555 1_555
C11 C8 1_555 1_555
H20 C11 1_555 1_555
H21 C11 1_555 1_555
H22 C11 1_555 1_555
C12 C8 1_555 1_555
H23 C12 1_555 1_555
H24 C12 1_555 1_555
H25 C12 1_555 1_555
C13 B1 1_555 1_555
C14 C13 1_555 1_555
F1 C14 1_555 1_555
C15 C14 1_555 1_555
F2 C15 1_555 1_555
C16 C15 1_555 1_555
F3 C16 1_555 1_555
C17 C16 1_555 1_555
F4 C17 1_555 1_555
C18 C13 1_555 1_555
F5 C18 1_555 1_555
C19 B1 1_555 1_555
C20 C19 1_555 1_555
F6 C20 1_555 1_555
C21 C20 1_555 1_555
F7 C21 1_555 1_555
C22 C21 1_555 1_555
F8 C22 1_555 1_555
C23 C22 1_555 1_555
F9 C23 1_555 1_555
C24 C19 1_555 1_555
F10 C24 1_555 1_555
B2 H26 1_555 1_555
C25 B2 1_555 1_555
C26 C25 1_555 1_555
F11 C26 1_555 1_555
C27 C26 1_555 1_555
F12 C27 1_555 1_555
C28 C27 1_555 1_555
F13 C28 1_555 1_555
C29 C28 1_555 1_555
F14 C29 1_555 1_555
C30 C25 1_555 1_555
F15 C30 1_555 1_555
C31 B2 1_555 1_555
C32 C31 1_555 1_555
F16 C32 1_555 1_555
C33 C32 1_555 1_555
F17 C33 1_555 1_555
C34 C33 1_555 1_555
F18 C34 1_555 1_555
C35 C34 1_555 1_555
F19 C35 1_555 1_555
C36 C31 1_555 1_555
F20 C36 1_555 1_555
C37 B2 1_555 1_555
C38 C37 1_555 1_555
F21 C38 1_555 1_555
C39 C38 1_555 1_555
F22 C39 1_555 1_555
C40 C39 1_555 1_555
F23 C40 1_555 1_555
C41 C40 1_555 1_555
F24 C41 1_555 1_555
C42 C37 1_555 1_555
F25 C42 1_555 1_555
C7 C8 1_555 1_555
C17 C18 1_555 1_555
C23 C24 1_555 1_555
C29 C30 1_555 1_555
C35 C36 1_555 1_555
C41 C42 1_555 1_555

#END
