
#######################################################################
#
#                 Cambridge Crystallographic Data Centre
#                                CCDC 
#
#######################################################################
#
# If this CIF has been generated from an entry in the Cambridge 
# Structural Database, then it will include bibliographic, chemical, 
# crystal, experimental, refinement or atomic coordinate data resulting 
# from the CCDC's data processing and validation procedures.
#
#######################################################################

data_EDOMAN
_chemical_formula_moiety         'C120 H92 B8 N12 O16,12(C6 H6)'
_chemical_name_systematic        
'tetrakis(\m~2~-4-(4-pyridylmethylenaminomethyl)pyridine)-tetrakis(1,4-phenylene)-octakis(phenylene-1,2,dioxy)-octa-boron benzene solvate'
_symmetry_cell_setting           tetragonal
_symmetry_space_group_name_H-M   'I 41/a'
_symmetry_Int_Tables_number      88
_space_group_name_Hall           '-I 4ad'
loop_
_symmetry_equiv_pos_site_id
_symmetry_equiv_pos_as_xyz
1 x,y,z
2 1/2-x,-y,1/2+z
3 3/4-y,1/4+x,1/4+z
4 3/4+y,3/4-x,3/4+z
5 1/2+x,1/2+y,1/2+z
6 -x,1/2-y,z
7 1/4-y,3/4+x,3/4+z
8 1/4+y,1/4-x,1/4+z
9 -x,-y,-z
10 1/2+x,y,1/2-z
11 1/4+y,3/4-x,3/4-z
12 1/4-y,1/4+x,1/4-z
13 1/2-x,1/2-y,1/2-z
14 x,1/2+y,-z
15 3/4+y,1/4-x,1/4-z
16 3/4-y,3/4+x,3/4-z
_cell_length_a                   22.310(3)
_cell_length_b                   22.310(3)
_cell_length_c                   33.644(7)
_cell_angle_alpha                90
_cell_angle_beta                 90
_cell_angle_gamma                90
_cell_volume                     16745.8
_exptl_crystal_colour            yellow
_exptl_crystal_description       prismatic
_cell_formula_units_Z            4
loop_
_atom_site_label
_atom_site_type_symbol
_atom_site_fract_x
_atom_site_fract_y
_atom_site_fract_z
O1 O 0.8015(3) 0.9517(3) -0.3504(2)
O2 O 0.8033(3) 0.8455(3) -0.3581(2)
N1 N 0.8695(4) 0.8915(5) -0.3063(2)
N2 N 1.0375(4) 0.9268(5) -0.2088(3)
N3 N 1.1219(7) 1.0619(4) -0.1016(3)
B1 B 0.8034(6) 0.8945(6) -0.3280(4)
B2 B 0.6399(8) 0.8801(10) -0.1850(5)
C1 C 0.8957(5) 0.9417(5) -0.2914(3)
H1 H 0.8787 0.9796 -0.2977
C2 C 0.9456(5) 0.9400(6) -0.2676(3)
H2 H 0.9615 0.9760 -0.2569
C3 C 0.9727(5) 0.8854(6) -0.2593(3)
C4 C 0.9460(5) 0.8329(6) -0.2750(3)
H3 H 0.9622 0.7944 -0.2693
C5 C 0.8962(5) 0.8387(6) -0.2988(3)
H4 H 0.8797 0.8036 -0.3104
C6 C 1.0254(5) 0.8804(6) -0.2327(4)
H5 H 1.0498 0.8455 -0.2326
C7 C 1.0884(6) 0.9246(5) -0.1881(3)
H6 H 1.1221 0.9247 -0.2073
H7 H 1.0897 0.8857 -0.1739
C8 C 1.0996(5) 0.9737(5) -0.1581(3)
C9 C 1.1562(6) 0.9859(5) -0.1459(3)
H8 H 1.1887 0.9637 -0.1566
C10 C 1.1670(6) 1.0297(6) -0.1182(3)
H9 H 1.2072 1.0378 -0.1105
C11 C 1.0659(8) 1.0502(6) -0.1131(4)
H10 H 1.0339 1.0723 -0.1016
C12 C 1.0528(6) 1.0060(6) -0.1417(3)
H11 H 1.0126 0.9984 -0.1495
C13 C 0.8122(4) 0.9366(7) -0.3900(4)
C14 C 0.8144(4) 0.8727(7) -0.3945(4)
C15 C 0.8244(5) 0.8470(7) -0.4309(4)
H12 H 0.8254 0.8048 -0.4345
C16 C 0.8331(5) 0.8876(10) -0.4628(4)
H13 H 0.8407 0.8711 -0.4883
C17 C 0.8315(6) 0.9480(9) -0.4595(4)
H14 H 0.8376 0.9727 -0.4822
C18 C 0.8206(5) 0.9736(7) -0.4222(4)
H15 H 0.8191 1.0159 -0.4192
C19 C 0.7558(4) 0.8896(6) -0.2933(3)
C20 C 0.7431(5) 0.9404(6) -0.2706(3)
H16 H 0.7610 0.9775 -0.2775
C21 C 0.7047(6) 0.9378(6) -0.2378(4)
H17 H 0.6964 0.9734 -0.2234
C22 C 0.6778(5) 0.8833(7) -0.2255(3)
C23 C 0.6895(5) 0.8332(6) -0.2484(4)
H18 H 0.6720 0.7959 -0.2414
C24 C 0.7268(5) 0.8367(5) -0.2817(3)
H19 H 0.7327 0.8015 -0.2971
O3 O 0.6185(7) 0.9609(8) -0.1749(5)
O4 O 0.5840(8) 0.8592(9) -0.1773(5)
C25 C 0.5679(6) 0.9527(8) -0.1527(4)
C26 C 0.5361(7) 0.9953(7) -0.1311(4)
H20 H 0.5489 1.0360 -0.1311
C27 C 0.4857(7) 0.9785(8) -0.1096(4)
H21 H 0.4640 1.0076 -0.0948
C28 C 0.4671(6) 0.9190(9) -0.1096(5)
H22 H 0.4327 0.9075 -0.0948
C29 C 0.4989(8) 0.8764(7) -0.1311(6)
H23 H 0.4861 0.8358 -0.1311
C30 C 0.5493(8) 0.8933(8) -0.1527(5)
O1J O 1.2017(3) 0.9485(3) 0.1004(2)
O1O O 0.7983(3) 0.5515(3) 0.1004(2)
O1E O 1.1985(3) 0.5483(3) -0.3504(2)
O2J O 1.0955(3) 0.9467(3) 0.1081(2)
O2O O 0.9045(3) 0.5533(3) 0.1081(2)
O2E O 1.1967(3) 0.6545(3) -0.3581(2)
N1J N 1.1415(5) 0.8805(4) 0.0563(2)
N1O N 0.8585(5) 0.6195(4) 0.0563(2)
N1E N 1.1305(4) 0.6085(5) -0.3063(2)
N2J N 1.1768(5) 0.7125(4) -0.0412(3)
N2O N 0.8232(5) 0.7875(4) -0.0412(3)
N2E N 0.9625(4) 0.5732(5) -0.2088(3)
N3J N 1.3119(4) 0.6281(7) -0.1484(3)
N3O N 0.6881(4) 0.8719(7) -0.1484(3)
N3E N 0.8781(7) 0.4381(4) -0.1016(3)
B1J B 1.1445(6) 0.9466(6) 0.0780(4)
B1O B 0.8555(6) 0.5534(6) 0.0780(4)
B1E B 1.1966(6) 0.6055(6) -0.3280(4)
B2J B 1.1301(10) 1.1101(8) -0.0650(5)
B2O B 0.8699(10) 0.3899(8) -0.0650(5)
B2E B 1.3601(8) 0.6199(10) -0.1850(5)
C1J C 1.1917(5) 0.8543(5) 0.0414(3)
C1O C 0.8083(5) 0.6457(5) 0.0414(3)
C1E C 1.1043(5) 0.5583(5) -0.2914(3)
H1J H 1.2296 0.8713 0.0477
H1O H 0.7704 0.6287 0.0477
H1E H 1.1213 0.5204 -0.2977
C2J C 1.1900(6) 0.8044(5) 0.0176(3)
C2O C 0.8100(6) 0.6956(5) 0.0176(3)
C2E C 1.0544(5) 0.5600(6) -0.2676(3)
H2J H 1.2260 0.7885 0.0069
H2O H 0.7740 0.7115 0.0069
H2E H 1.0385 0.5240 -0.2569
C3J C 1.1354(6) 0.7773(5) 0.0093(3)
C3O C 0.8646(6) 0.7227(5) 0.0093(3)
C3E C 1.0273(5) 0.6146(6) -0.2593(3)
C4J C 1.0829(6) 0.8040(5) 0.0250(3)
C4O C 0.9171(6) 0.6960(5) 0.0250(3)
C4E C 1.0540(5) 0.6671(6) -0.2750(3)
H3J H 1.0444 0.7878 0.0193
H3O H 0.9556 0.7122 0.0193
H3E H 1.0378 0.7056 -0.2693
C5J C 1.0887(6) 0.8538(5) 0.0488(3)
C5O C 0.9113(6) 0.6462(5) 0.0488(3)
C5E C 1.1038(5) 0.6613(6) -0.2988(3)
H4J H 1.0536 0.8703 0.0604
H4O H 0.9464 0.6297 0.0604
H4E H 1.1203 0.6964 -0.3104
C6J C 1.1304(6) 0.7246(5) -0.0173(4)
C6O C 0.8696(6) 0.7754(5) -0.0173(4)
C6E C 0.9746(5) 0.6196(6) -0.2327(4)
H5J H 1.0955 0.7002 -0.0174
H5O H 0.9045 0.7998 -0.0174
H5E H 0.9502 0.6545 -0.2326
C7J C 1.1746(5) 0.6616(6) -0.0619(3)
C7O C 0.8254(5) 0.8384(6) -0.0619(3)
C7E C 0.9116(6) 0.5754(5) -0.1881(3)
H6J H 1.1747 0.6279 -0.0427
H6O H 0.8253 0.8721 -0.0427
H6E H 0.8779 0.5753 -0.2073
H7J H 1.1357 0.6603 -0.0761
H7O H 0.8643 0.8397 -0.0761
H7E H 0.9103 0.6143 -0.1739
C8J C 1.2237(5) 0.6504(5) -0.0919(3)
C8O C 0.7763(5) 0.8496(5) -0.0919(3)
C8E C 0.9004(5) 0.5263(5) -0.1581(3)
C9J C 1.2359(5) 0.5938(6) -0.1041(3)
C9O C 0.7641(5) 0.9062(6) -0.1041(3)
C9E C 0.8438(6) 0.5141(5) -0.1459(3)
H8J H 1.2137 0.5613 -0.0934
H8O H 0.7863 0.9387 -0.0934
H8E H 0.8113 0.5363 -0.1566
C10J C 1.2797(6) 0.5830(6) -0.1318(3)
C10O C 0.7203(6) 0.9170(6) -0.1318(3)
C10E C 0.8330(6) 0.4703(6) -0.1182(3)
H9J H 1.2878 0.5428 -0.1395
H9O H 0.7122 0.9572 -0.1395
H9E H 0.7928 0.4622 -0.1105
C11J C 1.3002(6) 0.6841(8) -0.1369(4)
C11O C 0.6998(6) 0.8159(8) -0.1369(4)
C11E C 0.9341(8) 0.4498(6) -0.1131(4)
H10J H 1.3223 0.7161 -0.1484
H10O H 0.6777 0.7839 -0.1484
H10E H 0.9661 0.4277 -0.1016
C12J C 1.2560(6) 0.6972(6) -0.1083(3)
C12O C 0.7440(6) 0.8028(6) -0.1083(3)
C12E C 0.9472(6) 0.4940(6) -0.1417(3)
H11J H 1.2484 0.7374 -0.1005
H11O H 0.7516 0.7626 -0.1005
H11E H 0.9874 0.5016 -0.1495
C13J C 1.1866(7) 0.9378(4) 0.1400(4)
C13O C 0.8134(7) 0.5622(4) 0.1400(4)
C13E C 1.1878(4) 0.5634(7) -0.3900(4)
C14J C 1.1227(7) 0.9356(4) 0.1445(4)
C14O C 0.8773(7) 0.5644(4) 0.1445(4)
C14E C 1.1856(4) 0.6273(7) -0.3945(4)
C15J C 1.0970(7) 0.9256(5) 0.1809(4)
C15O C 0.9030(7) 0.5744(5) 0.1809(4)
C15E C 1.1756(5) 0.6530(7) -0.4309(4)
H12J H 1.0548 0.9246 0.1845
H12O H 0.9452 0.5754 0.1845
H12E H 1.1746 0.6952 -0.4345
C16J C 1.1376(10) 0.9169(5) 0.2128(4)
C16O C 0.8624(10) 0.5831(5) 0.2128(4)
C16E C 1.1669(5) 0.6124(10) -0.4628(4)
H13J H 1.1211 0.9093 0.2383
H13O H 0.8789 0.5907 0.2383
H13E H 1.1593 0.6289 -0.4883
C17J C 1.1980(9) 0.9185(6) 0.2095(4)
C17O C 0.8020(9) 0.5815(6) 0.2095(4)
C17E C 1.1685(6) 0.5520(9) -0.4595(4)
H14J H 1.2227 0.9124 0.2322
H14O H 0.7773 0.5876 0.2322
H14E H 1.1624 0.5273 -0.4822
C18J C 1.2236(7) 0.9294(5) 0.1722(4)
C18O C 0.7764(7) 0.5706(5) 0.1722(4)
C18E C 1.1794(5) 0.5264(7) -0.4222(4)
H15J H 1.2659 0.9309 0.1692
H15O H 0.7341 0.5691 0.1692
H15E H 1.1809 0.4841 -0.4192
C19J C 1.1396(6) 0.9942(4) 0.0433(3)
C19O C 0.8604(6) 0.5058(4) 0.0433(3)
C19E C 1.2442(4) 0.6104(6) -0.2933(3)
C20J C 1.1904(6) 1.0069(5) 0.0206(3)
C20O C 0.8096(6) 0.4931(5) 0.0206(3)
C20E C 1.2569(5) 0.5596(6) -0.2706(3)
H16J H 1.2275 0.9890 0.0275
H16O H 0.7725 0.5110 0.0275
H16E H 1.2390 0.5225 -0.2775
C21J C 1.1878(6) 1.0453(6) -0.0122(4)
C21O C 0.8122(6) 0.4547(6) -0.0122(4)
C21E C 1.2953(6) 0.5622(6) -0.2378(4)
H17J H 1.2234 1.0536 -0.0266
H17O H 0.7766 0.4464 -0.0266
H17E H 1.3036 0.5266 -0.2234
C22J C 1.1333(7) 1.0722(5) -0.0245(3)
C22O C 0.8667(7) 0.4278(5) -0.0245(3)
C22E C 1.3222(5) 0.6167(7) -0.2255(3)
C23J C 1.0832(6) 1.0605(5) -0.0016(4)
C23O C 0.9168(6) 0.4395(5) -0.0016(4)
C23E C 1.3105(5) 0.6668(6) -0.2484(4)
H18J H 1.0459 1.0780 -0.0086
H18O H 0.9541 0.4220 -0.0086
H18E H 1.3280 0.7041 -0.2414
C24J C 1.0867(5) 1.0232(5) 0.0317(3)
C24O C 0.9133(5) 0.4768(5) 0.0317(3)
C24E C 1.2732(5) 0.6633(5) -0.2817(3)
H19J H 1.0515 1.0173 0.0471
H19O H 0.9485 0.4827 0.0471
H19E H 1.2673 0.6985 -0.2971
O3J O 1.2109(8) 1.1315(7) -0.0751(5)
O3O O 0.7891(8) 0.3685(7) -0.0751(5)
O3E O 1.3815(7) 0.5391(8) -0.1749(5)
O4J O 1.1092(9) 1.1660(8) -0.0727(5)
O4O O 0.8908(9) 0.3340(8) -0.0727(5)
O4E O 1.4160(8) 0.6408(9) -0.1773(5)
C25J C 1.2027(8) 1.1821(6) -0.0973(4)
C25O C 0.7973(8) 0.3179(6) -0.0973(4)
C25E C 1.4321(6) 0.5473(8) -0.1527(4)
C26J C 1.2453(7) 1.2139(7) -0.1189(4)
C26O C 0.7547(7) 0.2861(7) -0.1189(4)
C26E C 1.4639(7) 0.5047(7) -0.1311(4)
H20J H 1.2860 1.2011 -0.1189
H20O H 0.7140 0.2989 -0.1189
H20E H 1.4511 0.4640 -0.1311
C27J C 1.2285(8) 1.2643(7) -0.1404(4)
C27O C 0.7715(8) 0.2357(7) -0.1404(4)
C27E C 1.5143(7) 0.5215(8) -0.1096(4)
H21J H 1.2576 1.2860 -0.1552
H21O H 0.7424 0.2140 -0.1552
H21E H 1.5360 0.4924 -0.0948
C28J C 1.1690(9) 1.2829(6) -0.1404(5)
C28O C 0.8310(9) 0.2171(6) -0.1404(5)
C28E C 1.5329(6) 0.5810(9) -0.1096(5)
H22J H 1.1575 1.3173 -0.1552
H22O H 0.8425 0.1827 -0.1552
H22E H 1.5673 0.5925 -0.0948
C29J C 1.1264(7) 1.2511(8) -0.1189(6)
C29O C 0.8736(7) 0.2489(8) -0.1189(6)
C29E C 1.5011(8) 0.6236(7) -0.1311(6)
H23J H 1.0858 1.2639 -0.1189
H23O H 0.9142 0.2361 -0.1189
H23E H 1.5139 0.6642 -0.1311
C30J C 1.1433(8) 1.2007(8) -0.0973(5)
C30O C 0.8567(8) 0.2993(8) -0.0973(5)
C30E C 1.4507(8) 0.6067(8) -0.1527(5)
C31 C 0.9256(4) 0.8077(5) -0.1607(3)
H24 H 0.9531 0.7787 -0.1511
C32 C 0.8789(5) 0.7904(4) -0.1855(3)
H25 H 0.8745 0.7496 -0.1929
C33 C 0.8386(4) 0.8330(7) -0.1996(2)
H26 H 0.8067 0.8211 -0.2166
C34 C 0.8451(5) 0.8928(6) -0.1889(3)
H27 H 0.8175 0.9218 -0.1985
C35 C 0.8917(6) 0.9101(4) -0.1641(4)
H28 H 0.8961 0.9510 -0.1567
C36 C 0.9320(4) 0.8676(6) -0.1500(3)
H29 H 0.9639 0.8794 -0.1330
C37 C 0.5754(5) 0.8104(8) -0.0346(4)
H30 H 0.5409 0.8021 -0.0503
C38 C 0.6082(7) 0.8624(7) -0.0413(3)
H31 H 0.5961 0.8896 -0.0615
C39 C 0.6586(6) 0.8746(5) -0.0184(4)
H32 H 0.6810 0.9102 -0.0229
C40 C 0.6762(4) 0.8348(7) 0.0112(4)
H33 H 0.7106 0.8431 0.0268
C41 C 0.6434(6) 0.7828(6) 0.0178(4)
H34 H 0.6554 0.7555 0.0380
C42 C 0.5930(6) 0.7706(5) -0.0051(5)
H35 H 0.5706 0.7350 -0.0006
C43 C 0.5829(14) 1.0598(10) -0.0530(6)
H36 H 0.5762 1.0234 -0.0390
C44 C 0.5395(8) 1.1045(15) -0.0527(5)
H37 H 0.5032 1.0987 -0.0385
C45 C 0.5494(10) 1.1578(11) -0.0731(7)
H38 H 0.5198 1.1884 -0.0728
C46 C 0.6026(14) 1.1663(9) -0.0938(7)
H39 H 0.6093 1.2027 -0.1077
C47 C 0.6460(8) 1.1216(15) -0.0941(6)
H40 H 0.6823 1.1274 -0.1083
C48 C 0.6361(10) 1.0683(12) -0.0737(7)
H41 H 0.6657 1.0377 -0.0739
C49? C 0.5596(8) 0.8961(9) -0.1538(5)
C50? C 0.5183(9) 0.9254(7) -0.1298(6)
C51? C 0.4751(8) 0.8927(10) -0.1094(5)
C52? C 0.4733(8) 0.8306(10) -0.1130(6)
C53? C 0.5147(9) 0.8013(7) -0.1370(6)
C54? C 0.5578(7) 0.8340(9) -0.1574(5)
H42? H 0.5195 0.9678 -0.1274
H43? H 0.4468 0.9127 -0.0930
H44? H 0.4438 0.8083 -0.0990
H45? H 0.5135 0.7589 -0.1394
O5? O 0.6062(8) 0.9217(10) -0.1761(5)
O6? O 0.6004(7) 0.8169(8) -0.1824(5)
loop_
_geom_bond_atom_site_label_1
_geom_bond_atom_site_label_2
_geom_bond_site_symmetry_1
_geom_bond_site_symmetry_2
O1 B1 1_555 1_555
O2 B1 1_555 1_555
N1 B1 1_555 1_555
N2 C6 1_555 1_555
N3 C10 1_555 1_555
B1 C19 1_555 1_555
B2 C22 1_555 1_555
C1 N1 1_555 1_555
H1 C1 1_555 1_555
C2 C1 1_555 1_555
H2 C2 1_555 1_555
C3 C2 1_555 1_555
C4 C3 1_555 1_555
H3 C4 1_555 1_555
C5 N1 1_555 1_555
H4 C5 1_555 1_555
C6 C3 1_555 1_555
H5 C6 1_555 1_555
C7 N2 1_555 1_555
H6 C7 1_555 1_555
H7 C7 1_555 1_555
C8 C7 1_555 1_555
C9 C8 1_555 1_555
H8 C9 1_555 1_555
C10 C9 1_555 1_555
H9 C10 1_555 1_555
C11 N3 1_555 1_555
H10 C11 1_555 1_555
C12 C8 1_555 1_555
H11 C12 1_555 1_555
C13 O1 1_555 1_555
C14 O2 1_555 1_555
C15 C14 1_555 1_555
H12 C15 1_555 1_555
C16 C15 1_555 1_555
H13 C16 1_555 1_555
C17 C16 1_555 1_555
H14 C17 1_555 1_555
C18 C13 1_555 1_555
H15 C18 1_555 1_555
C19 C20 1_555 1_555
C20 H16 1_555 1_555
C21 C20 1_555 1_555
H17 C21 1_555 1_555
C22 C21 1_555 1_555
C23 C22 1_555 1_555
H18 C23 1_555 1_555
C24 C19 1_555 1_555
H19 C24 1_555 1_555
O3 B2 1_555 1_555
O4 B2 1_555 1_555
C25 O3 1_555 1_555
C26 C25 1_555 1_555
H20 C26 1_555 1_555
C27 C26 1_555 1_555
H21 C27 1_555 1_555
C28 C27 1_555 1_555
H22 C28 1_555 1_555
C29 C28 1_555 1_555
H23 C29 1_555 1_555
C30 O4 1_555 1_555
C31 H24 1_555 1_555
C32 C31 1_555 1_555
H25 C32 1_555 1_555
C33 C32 1_555 1_555
H26 C33 1_555 1_555
C34 C33 1_555 1_555
H27 C34 1_555 1_555
C35 C34 1_555 1_555
H28 C35 1_555 1_555
C36 C31 1_555 1_555
H29 C36 1_555 1_555
C37 H30 1_555 1_555
C38 C37 1_555 1_555
H31 C38 1_555 1_555
C39 C38 1_555 1_555
H32 C39 1_555 1_555
C40 C39 1_555 1_555
H33 C40 1_555 1_555
C41 C40 1_555 1_555
H34 C41 1_555 1_555
C42 C37 1_555 1_555
H35 C42 1_555 1_555
C43 H36 1_555 1_555
C44 C43 1_555 1_555
H37 C44 1_555 1_555
C45 C44 1_555 1_555
H38 C45 1_555 1_555
C46 C45 1_555 1_555
H39 C46 1_555 1_555
C47 C46 1_555 1_555
H40 C47 1_555 1_555
C48 C43 1_555 1_555
H41 C48 1_555 1_555
O1J B1J 1_555 1_555
O1O B1O 1_555 1_555
O1E B1E 1_555 1_555
O2J B1J 1_555 1_555
O2O B1O 1_555 1_555
O2E B1E 1_555 1_555
N1J B1J 1_555 1_555
N1O B1O 1_555 1_555
N1E B1E 1_555 1_555
N2J C6J 1_555 1_555
N2O C6O 1_555 1_555
N2E C6E 1_555 1_555
N3J B2E 1_555 1_555
N3O B2 1_555 1_555
N3E B2O 1_555 1_555
B1J C19J 1_555 1_555
B1O C19O 1_555 1_555
B1E C19E 1_555 1_555
B2J N3 1_555 1_555
B2O C22O 1_555 1_555
B2E C22E 1_555 1_555
C1J N1J 1_555 1_555
C1O N1O 1_555 1_555
C1E N1E 1_555 1_555
H1J C1J 1_555 1_555
H1O C1O 1_555 1_555
H1E C1E 1_555 1_555
C2J C1J 1_555 1_555
C2O C1O 1_555 1_555
C2E C1E 1_555 1_555
H2J C2J 1_555 1_555
H2O C2O 1_555 1_555
H2E C2E 1_555 1_555
C3J C2J 1_555 1_555
C3O C2O 1_555 1_555
C3E C2E 1_555 1_555
C4J C3J 1_555 1_555
C4O C3O 1_555 1_555
C4E C3E 1_555 1_555
H3J C4J 1_555 1_555
H3O C4O 1_555 1_555
H3E C4E 1_555 1_555
C5J N1J 1_555 1_555
C5O N1O 1_555 1_555
C5E N1E 1_555 1_555
H4J C5J 1_555 1_555
H4O C5O 1_555 1_555
H4E C5E 1_555 1_555
C6J C3J 1_555 1_555
C6O C3O 1_555 1_555
C6E C3E 1_555 1_555
H5J C6J 1_555 1_555
H5O C6O 1_555 1_555
H5E C6E 1_555 1_555
C7J N2J 1_555 1_555
C7O N2O 1_555 1_555
C7E N2E 1_555 1_555
H6J C7J 1_555 1_555
H6O C7O 1_555 1_555
H6E C7E 1_555 1_555
H7J C7J 1_555 1_555
H7O C7O 1_555 1_555
H7E C7E 1_555 1_555
C8J C7J 1_555 1_555
C8O C7O 1_555 1_555
C8E C7E 1_555 1_555
C9J C8J 1_555 1_555
C9O C8O 1_555 1_555
C9E C8E 1_555 1_555
H8J C9J 1_555 1_555
H8O C9O 1_555 1_555
H8E C9E 1_555 1_555
C10J N3J 1_555 1_555
C10O N3O 1_555 1_555
C10E N3E 1_555 1_555
H9J C10J 1_555 1_555
H9O C10O 1_555 1_555
H9E C10E 1_555 1_555
C11J N3J 1_555 1_555
C11O N3O 1_555 1_555
C11E N3E 1_555 1_555
H10J C11J 1_555 1_555
H10O C11O 1_555 1_555
H10E C11E 1_555 1_555
C12J C8J 1_555 1_555
C12O C8O 1_555 1_555
C12E C8E 1_555 1_555
H11J C12J 1_555 1_555
H11O C12O 1_555 1_555
H11E C12E 1_555 1_555
C13J O1J 1_555 1_555
C13O O1O 1_555 1_555
C13E O1E 1_555 1_555
C14J O2J 1_555 1_555
C14O O2O 1_555 1_555
C14E O2E 1_555 1_555
C15J C14J 1_555 1_555
C15O C14O 1_555 1_555
C15E C14E 1_555 1_555
H12J C15J 1_555 1_555
H12O C15O 1_555 1_555
H12E C15E 1_555 1_555
C16J C15J 1_555 1_555
C16O C15O 1_555 1_555
C16E C15E 1_555 1_555
H13J C16J 1_555 1_555
H13O C16O 1_555 1_555
H13E C16E 1_555 1_555
C17J C16J 1_555 1_555
C17O C16O 1_555 1_555
C17E C16E 1_555 1_555
H14J C17J 1_555 1_555
H14O C17O 1_555 1_555
H14E C17E 1_555 1_555
C18J C13J 1_555 1_555
C18O C13O 1_555 1_555
C18E C13E 1_555 1_555
H15J C18J 1_555 1_555
H15O C18O 1_555 1_555
H15E C18E 1_555 1_555
C19J C20J 1_555 1_555
C19O C20O 1_555 1_555
C19E C20E 1_555 1_555
C20J H16J 1_555 1_555
C20O H16O 1_555 1_555
C20E H16E 1_555 1_555
C21J C20J 1_555 1_555
C21O C20O 1_555 1_555
C21E C20E 1_555 1_555
H17J C21J 1_555 1_555
H17O C21O 1_555 1_555
H17E C21E 1_555 1_555
C22J B2J 1_555 1_555
C22O C21O 1_555 1_555
C22E C21E 1_555 1_555
C23J C22J 1_555 1_555
C23O C22O 1_555 1_555
C23E C22E 1_555 1_555
H18J C23J 1_555 1_555
H18O C23O 1_555 1_555
H18E C23E 1_555 1_555
C24J C19J 1_555 1_555
C24O C19O 1_555 1_555
C24E C19E 1_555 1_555
H19J C24J 1_555 1_555
H19O C24O 1_555 1_555
H19E C24E 1_555 1_555
O3J B2J 1_555 1_555
O3O B2O 1_555 1_555
O3E B2E 1_555 1_555
O4J B2J 1_555 1_555
O4O B2O 1_555 1_555
O4E B2E 1_555 1_555
C25J O3J 1_555 1_555
C25O O3O 1_555 1_555
C25E O3E 1_555 1_555
C26J C25J 1_555 1_555
C26O C25O 1_555 1_555
C26E C25E 1_555 1_555
H20J C26J 1_555 1_555
H20O C26O 1_555 1_555
H20E C26E 1_555 1_555
C27J C26J 1_555 1_555
C27O C26O 1_555 1_555
C27E C26E 1_555 1_555
H21J C27J 1_555 1_555
H21O C27O 1_555 1_555
H21E C27E 1_555 1_555
C28J C27J 1_555 1_555
C28O C27O 1_555 1_555
C28E C27E 1_555 1_555
H22J C28J 1_555 1_555
H22O C28O 1_555 1_555
H22E C28E 1_555 1_555
C29J C28J 1_555 1_555
C29O C28O 1_555 1_555
C29E C28E 1_555 1_555
H23J C29J 1_555 1_555
H23O C29O 1_555 1_555
H23E C29E 1_555 1_555
C30J O4J 1_555 1_555
C30O O4O 1_555 1_555
C30E O4E 1_555 1_555
C4 C5 1_555 1_555
C11 C12 1_555 1_555
C13 C14 1_555 1_555
C17 C18 1_555 1_555
C23 C24 1_555 1_555
C25 C30 1_555 1_555
C29 C30 1_555 1_555
C35 C36 1_555 1_555
C41 C42 1_555 1_555
C47 C48 1_555 1_555
C4J C5J 1_555 1_555
C4O C5O 1_555 1_555
C4E C5E 1_555 1_555
C9J C10J 1_555 1_555
C9O C10O 1_555 1_555
C9E C10E 1_555 1_555
C11J C12J 1_555 1_555
C11O C12O 1_555 1_555
C11E C12E 1_555 1_555
C13J C14J 1_555 1_555
C13O C14O 1_555 1_555
C13E C14E 1_555 1_555
C17J C18J 1_555 1_555
C17O C18O 1_555 1_555
C17E C18E 1_555 1_555
C21J C22J 1_555 1_555
C23J C24J 1_555 1_555
C23O C24O 1_555 1_555
C23E C24E 1_555 1_555
C25J C30J 1_555 1_555
C25O C30O 1_555 1_555
C25E C30E 1_555 1_555
C29J C30J 1_555 1_555
C29O C30O 1_555 1_555
C29E C30E 1_555 1_555

#END
