
#######################################################################
#
#                 Cambridge Crystallographic Data Centre
#                                CCDC 
#
#######################################################################
#
# If this CIF has been generated from an entry in the Cambridge 
# Structural Database, then it will include bibliographic, chemical, 
# crystal, experimental, refinement or atomic coordinate data resulting 
# from the CCDC's data processing and validation procedures.
#
#######################################################################

data_EDOMER
_chemical_formula_moiety         'C72 H48 B4 N12 O8,4(C1 H1 Cl3)'
_chemical_name_systematic        
'bis(\m~2~-2,4,6-tris(4-pyridyl)-1,3,5-triazine)-bis(1,4-phenylene)-tetrakis(phenylene-1,2-dioxy)-tetra-boron chloroform solvate'
_symmetry_cell_setting           triclinic
_symmetry_space_group_name_H-M   'P -1'
_symmetry_Int_Tables_number      2
_space_group_name_Hall           '-P 1'
loop_
_symmetry_equiv_pos_site_id
_symmetry_equiv_pos_as_xyz
1 x,y,z
2 -x,-y,-z
_cell_length_a                   11.6294(11)
_cell_length_b                   14.0050(13)
_cell_length_c                   14.6561(14)
_cell_angle_alpha                108.908(8)
_cell_angle_beta                 112.991(9)
_cell_angle_gamma                100.591(8)
_cell_volume                     1942.36
_exptl_crystal_colour            'dark orange'
_exptl_crystal_description       prismatic
_cell_formula_units_Z            1
loop_
_atom_site_label
_atom_site_type_symbol
_atom_site_fract_x
_atom_site_fract_y
_atom_site_fract_z
O1 O 0.1502(3) -0.0292(3) 0.1577(3)
O2 O 0.2838(3) -0.1305(3) 0.2072(3)
O3 O 0.4050(3) 0.1614(2) 0.7813(2)
O4 O 0.1734(3) 0.0684(2) 0.6989(2)
N1 N 0.2500(4) 0.2481(3) 0.6979(3)
N2 N 0.2970(4) 0.6089(3) 0.6985(3)
N3 N 0.0674(4) 0.5341(3) 0.6441(3)
N4 N 0.1499(4) 0.7026(3) 0.6460(3)
N5 N 0.5997(4) 0.9350(3) 0.7356(3)
N6 N -0.3412(4) 0.6342(4) 0.5324(3)
B1 B 0.2664(6) -0.0251(5) 0.2485(5)
B2 B 0.2782(6) 0.1337(5) 0.6858(5)
C1 C 0.1189(6) -0.1175(5) 0.0668(5)
C2 C 0.0224(6) -0.1497(6) -0.0387(5)
H1 H -0.0316 -0.1084 -0.0569
C3 C 0.0071(8) -0.2442(7) -0.1168(6)
H2 H -0.0588 -0.2683 -0.1912
C4 C 0.0835(8) -0.3059(6) -0.0921(6)
H3 H 0.0694 -0.3712 -0.1490
C5 C 0.1823(7) -0.2727(5) 0.0170(6)
H4 H 0.2360 -0.3141 0.0355
C6 C 0.1976(6) -0.1780(5) 0.0954(5)
C7 C 0.2721(5) 0.0131(4) 0.3633(4)
C8 C 0.3876(5) 0.0606(4) 0.4631(4)
H5 H 0.4707 0.0709 0.4632
C9 C 0.3889(5) 0.0943(4) 0.5632(4)
H6 H 0.4719 0.1258 0.6294
C10 C 0.2703(5) 0.0829(4) 0.5692(4)
C11 C 0.1522(5) 0.0332(4) 0.4678(4)
H7 H 0.0690 0.0239 0.4674
C12 C 0.1528(5) -0.0028(4) 0.3687(4)
H8 H 0.0700 -0.0393 0.3021
C13 C 0.3763(5) 0.1286(4) 0.8504(4)
C14 C 0.4641(5) 0.1393(4) 0.9504(4)
H9 H 0.5571 0.1777 0.9834
C15 C 0.4123(6) 0.0916(5) 1.0025(4)
H10 H 0.4711 0.0959 1.0716
C16 C 0.2769(6) 0.0384(5) 0.9554(5)
H11 H 0.2441 0.0085 0.9939
C17 C 0.1868(5) 0.0271(4) 0.8527(4)
H12 H 0.0936 -0.0104 0.8198
C18 C 0.2400(5) 0.0732(4) 0.8019(4)
C19 C 0.1296(5) 0.2550(4) 0.6671(4)
H13 H 0.0566 0.1946 0.6470
C20 C 0.1076(5) 0.3471(4) 0.6635(4)
H14 H 0.0208 0.3506 0.6427
C21 C 0.2130(5) 0.4350(4) 0.6904(4)
C22 C 0.3389(5) 0.4285(4) 0.7256(4)
H15 H 0.4138 0.4883 0.7475
C23 C 0.3541(4) 0.3341(4) 0.7285(4)
H16 H 0.4407 0.3296 0.7528
C24 C 0.1899(5) 0.5322(4) 0.6783(4)
C25 C 0.0515(5) 0.6211(4) 0.6306(4)
C26 C 0.2684(5) 0.6906(4) 0.6788(4)
C27 C -0.0833(5) 0.6271(4) 0.5963(4)
C28 C -0.1882(5) 0.5425(4) 0.5746(4)
H17 H -0.1732 0.4804 0.5821
C29 C -0.3137(5) 0.5477(4) 0.5422(4)
H18 H -0.3843 0.4877 0.5261
C30 C -0.2384(5) 0.7161(4) 0.5540(4)
H19 H -0.2553 0.7778 0.5467
C31 C -0.1107(5) 0.7161(4) 0.5859(4)
H20 H -0.0418 0.7766 0.6006
C32 C 0.3834(5) 0.7780(4) 0.6974(4)
C33 C 0.3795(5) 0.8778(4) 0.7085(4)
H21 H 0.3014 0.8935 0.7021
C34 C 0.4916(5) 0.9564(4) 0.7295(4)
H22 H 0.4902 1.0266 0.7395
C35 C 0.6031(5) 0.8361(4) 0.7214(4)
H23 H 0.6804 0.8212 0.7238
C36 C 0.4970(5) 0.7558(4) 0.7033(4)
H24 H 0.5015 0.6867 0.6951
O1A O 0.8498(3) 1.0292(3) 0.8423(3)
O2A O 0.7162(3) 1.1305(3) 0.7928(3)
O3A O 0.5950(3) 0.8386(2) 0.2187(2)
O4A O 0.8266(3) 0.9316(2) 0.3011(2)
N1A N 0.7500(4) 0.7519(3) 0.3021(3)
N2A N 0.7030(4) 0.3911(3) 0.3015(3)
N3A N 0.9326(4) 0.4659(3) 0.3559(3)
N4A N 0.8501(4) 0.2974(3) 0.3540(3)
N5A N 0.4003(4) 0.0650(3) 0.2644(3)
N6A N 1.3412(4) 0.3658(4) 0.4676(3)
B1A B 0.7336(6) 1.0251(5) 0.7515(5)
B2A B 0.7218(6) 0.8663(5) 0.3142(5)
C1A C 0.8811(6) 1.1175(5) 0.9332(5)
C2A C 0.9776(6) 1.1497(6) 1.0387(5)
H1A H 1.0316 1.1084 1.0569
C3A C 0.9929(8) 1.2442(7) 1.1168(6)
H2A H 1.0588 1.2683 1.1912
C4A C 0.9165(8) 1.3059(6) 1.0921(6)
H3A H 0.9306 1.3712 1.1490
C5A C 0.8177(7) 1.2727(5) 0.9830(6)
H4A H 0.7640 1.3141 0.9645
C6A C 0.8024(6) 1.1780(5) 0.9046(5)
C7A C 0.7279(5) 0.9869(4) 0.6367(4)
C8A C 0.6124(5) 0.9394(4) 0.5369(4)
H5A H 0.5293 0.9291 0.5368
C9A C 0.6111(5) 0.9057(4) 0.4368(4)
H6A H 0.5281 0.8742 0.3706
C10A C 0.7297(5) 0.9171(4) 0.4308(4)
C11A C 0.8478(5) 0.9668(4) 0.5322(4)
H7A H 0.9310 0.9761 0.5326
C12A C 0.8472(5) 1.0028(4) 0.6313(4)
H8A H 0.9300 1.0393 0.6979
C13A C 0.6237(5) 0.8714(4) 0.1496(4)
C14A C 0.5359(5) 0.8607(4) 0.0496(4)
H9A H 0.4429 0.8223 0.0166
C15A C 0.5877(6) 0.9084(5) -0.0025(4)
H10A H 0.5289 0.9041 -0.0716
C16A C 0.7231(6) 0.9616(5) 0.0446(5)
H11A H 0.7559 0.9915 0.0061
C17A C 0.8132(5) 0.9729(4) 0.1473(4)
H12A H 0.9064 1.0104 0.1802
C18A C 0.7600(5) 0.9268(4) 0.1981(4)
C19A C 0.8704(5) 0.7450(4) 0.3329(4)
H13A H 0.9434 0.8054 0.3530
C20A C 0.8924(5) 0.6529(4) 0.3365(4)
H14A H 0.9792 0.6494 0.3573
C21A C 0.7870(5) 0.5650(4) 0.3096(4)
C22A C 0.6611(5) 0.5715(4) 0.2744(4)
H15A H 0.5862 0.5117 0.2525
C23A C 0.6459(4) 0.6659(4) 0.2715(4)
H16A H 0.5593 0.6704 0.2472
C24A C 0.8101(5) 0.4678(4) 0.3217(4)
C25A C 0.9485(5) 0.3789(4) 0.3694(4)
C26A C 0.7316(5) 0.3094(4) 0.3212(4)
C27A C 1.0833(5) 0.3729(4) 0.4037(4)
C28A C 1.1882(5) 0.4575(4) 0.4254(4)
H17A H 1.1732 0.5196 0.4179
C29A C 1.3137(5) 0.4523(4) 0.4578(4)
H18A H 1.3843 0.5123 0.4739
C30A C 1.2384(5) 0.2839(4) 0.4460(4)
H19A H 1.2553 0.2222 0.4533
C31A C 1.1107(5) 0.2839(4) 0.4141(4)
H20A H 1.0418 0.2234 0.3994
C32A C 0.6166(5) 0.2220(4) 0.3026(4)
C33A C 0.6205(5) 0.1222(4) 0.2915(4)
H21A H 0.6986 0.1065 0.2979
C34A C 0.5084(5) 0.0436(4) 0.2705(4)
H22A H 0.5098 -0.0266 0.2605
C35A C 0.3969(5) 0.1639(4) 0.2786(4)
H23A H 0.3196 0.1788 0.2762
C36A C 0.5030(5) 0.2442(4) 0.2967(4)
H24A H 0.4985 0.3133 0.3049
C37 C 0.2665(5) 0.7028(4) 0.3183(4)
H25 H 0.2952 0.7518 0.2883
Cl1 Cl 0.23639(14) 0.77668(12) 0.42141(13)
Cl2 Cl 0.39712(14) 0.65751(12) 0.37288(14)
Cl3 Cl 0.12264(16) 0.59408(14) 0.20964(13)
C38 C -0.2726(7) 0.6774(7) -0.0105(6)
H26 H -0.2819 0.7497 0.0043
Cl4 Cl -0.3043(2) 0.6146(2) -0.14975(18)
Cl5 Cl -0.3946(2) 0.59736(19) 0.00351(17)
Cl6 Cl -0.1214(5) 0.6952(5) 0.0787(4)
C39? C -0.2099(18) 0.6277(13) -0.0250(16)
Cl7? Cl -0.2857(10) 0.5164(7) -0.0118(8)
Cl8? Cl -0.0926(13) 0.7240(12) 0.1056(15)
Cl9? Cl -0.3236(12) 0.6726(12) -0.0961(17)
H27? H -0.1619 0.6045 -0.0668
loop_
_geom_bond_atom_site_label_1
_geom_bond_atom_site_label_2
_geom_bond_site_symmetry_1
_geom_bond_site_symmetry_2
O1 B1 1_555 1_555
O2 B1 1_555 1_555
O3 B2 1_555 1_555
O4 B2 1_555 1_555
N1 B2 1_555 1_555
N2 C24 1_555 1_555
N3 C24 1_555 1_555
N4 C25 1_555 1_555
N5 C34 1_555 1_555
N6 C29 1_555 1_555
B1 C7 1_555 1_555
B2 C10 1_555 1_555
C1 O1 1_555 1_555
C2 C1 1_555 1_555
H1 C2 1_555 1_555
C3 C2 1_555 1_555
H2 C3 1_555 1_555
C4 C3 1_555 1_555
H3 C4 1_555 1_555
C5 C4 1_555 1_555
H4 C5 1_555 1_555
C6 O2 1_555 1_555
C7 C8 1_555 1_555
C8 H5 1_555 1_555
C9 C8 1_555 1_555
H6 C9 1_555 1_555
C10 C9 1_555 1_555
C11 C10 1_555 1_555
H7 C11 1_555 1_555
C12 C7 1_555 1_555
H8 C12 1_555 1_555
C13 O3 1_555 1_555
C14 C13 1_555 1_555
H9 C14 1_555 1_555
C15 C14 1_555 1_555
H10 C15 1_555 1_555
C16 C15 1_555 1_555
H11 C16 1_555 1_555
C17 C16 1_555 1_555
H12 C17 1_555 1_555
C18 O4 1_555 1_555
C19 N1 1_555 1_555
H13 C19 1_555 1_555
C20 C19 1_555 1_555
H14 C20 1_555 1_555
C21 C20 1_555 1_555
C22 C21 1_555 1_555
H15 C22 1_555 1_555
C23 N1 1_555 1_555
H16 C23 1_555 1_555
C24 C21 1_555 1_555
C25 N3 1_555 1_555
C26 N2 1_555 1_555
C27 C25 1_555 1_555
C28 C27 1_555 1_555
H17 C28 1_555 1_555
C29 C28 1_555 1_555
H18 C29 1_555 1_555
C30 N6 1_555 1_555
H19 C30 1_555 1_555
C31 C27 1_555 1_555
H20 C31 1_555 1_555
C32 C26 1_555 1_555
C33 C32 1_555 1_555
H21 C33 1_555 1_555
C34 C33 1_555 1_555
H22 C34 1_555 1_555
C35 N5 1_555 1_555
H23 C35 1_555 1_555
C36 C32 1_555 1_555
H24 C36 1_555 1_555
C37 H25 1_555 1_555
Cl1 C37 1_555 1_555
Cl2 C37 1_555 1_555
Cl3 C37 1_555 1_555
C38 H26 1_555 1_555
Cl4 C38 1_555 1_555
Cl5 C38 1_555 1_555
Cl6 C38 1_555 1_555
O1A B1A 1_555 1_555
O2A B1A 1_555 1_555
O3A B2A 1_555 1_555
O4A B2A 1_555 1_555
N1A B2A 1_555 1_555
N2A C24A 1_555 1_555
N3A C24A 1_555 1_555
N4A C25A 1_555 1_555
N5A B1 1_555 1_555
N6A C29A 1_555 1_555
B1A N5 1_555 1_555
B2A C10A 1_555 1_555
C1A O1A 1_555 1_555
C2A C1A 1_555 1_555
H1A C2A 1_555 1_555
C3A C2A 1_555 1_555
H2A C3A 1_555 1_555
C4A C3A 1_555 1_555
H3A C4A 1_555 1_555
C5A C4A 1_555 1_555
H4A C5A 1_555 1_555
C6A O2A 1_555 1_555
C7A B1A 1_555 1_555
C8A C7A 1_555 1_555
H5A C8A 1_555 1_555
C9A C8A 1_555 1_555
H6A C9A 1_555 1_555
C10A C9A 1_555 1_555
C11A C10A 1_555 1_555
H7A C11A 1_555 1_555
C12A C7A 1_555 1_555
H8A C12A 1_555 1_555
C13A O3A 1_555 1_555
C14A C13A 1_555 1_555
H9A C14A 1_555 1_555
C15A C14A 1_555 1_555
H10A C15A 1_555 1_555
C16A C15A 1_555 1_555
H11A C16A 1_555 1_555
C17A C16A 1_555 1_555
H12A C17A 1_555 1_555
C18A O4A 1_555 1_555
C19A N1A 1_555 1_555
H13A C19A 1_555 1_555
C20A C19A 1_555 1_555
H14A C20A 1_555 1_555
C21A C20A 1_555 1_555
C22A C21A 1_555 1_555
H15A C22A 1_555 1_555
C23A N1A 1_555 1_555
H16A C23A 1_555 1_555
C24A C21A 1_555 1_555
C25A N3A 1_555 1_555
C26A N2A 1_555 1_555
C27A C25A 1_555 1_555
C28A C27A 1_555 1_555
H17A C28A 1_555 1_555
C29A C28A 1_555 1_555
H18A C29A 1_555 1_555
C30A N6A 1_555 1_555
H19A C30A 1_555 1_555
C31A C27A 1_555 1_555
H20A C31A 1_555 1_555
C32A C26A 1_555 1_555
C33A C32A 1_555 1_555
H21A C33A 1_555 1_555
C34A N5A 1_555 1_555
H22A C34A 1_555 1_555
C35A N5A 1_555 1_555
H23A C35A 1_555 1_555
C36A C32A 1_555 1_555
H24A C36A 1_555 1_555
N4 C26 1_555 1_555
C1 C6 1_555 1_555
C5 C6 1_555 1_555
C11 C12 1_555 1_555
C13 C18 1_555 1_555
C17 C18 1_555 1_555
C22 C23 1_555 1_555
C30 C31 1_555 1_555
C35 C36 1_555 1_555
N4A C26A 1_555 1_555
C1A C6A 1_555 1_555
C5A C6A 1_555 1_555
C11A C12A 1_555 1_555
C13A C18A 1_555 1_555
C17A C18A 1_555 1_555
C22A C23A 1_555 1_555
C30A C31A 1_555 1_555
C33A C34A 1_555 1_555
C35A C36A 1_555 1_555

#END
