
#######################################################################
#
#                 Cambridge Crystallographic Data Centre
#                                CCDC 
#
#######################################################################
#
# If this CIF has been generated from an entry in the Cambridge 
# Structural Database, then it will include bibliographic, chemical, 
# crystal, experimental, refinement or atomic coordinate data resulting 
# from the CCDC's data processing and validation procedures.
#
#######################################################################

data_EDOREX
_chemical_formula_moiety         'C20 H16 N2 O4 S2'
_chemical_name_systematic        
'2,5-dimethyl-2,5-dihydrobenzo[c][1,2]benzothiazino[4,3-f][2,1]benzothiazine 1,1,6,6-tetraoxide'
_symmetry_cell_setting           orthorhombic
_symmetry_space_group_name_H-M   'P b c a'
_symmetry_Int_Tables_number      61
_space_group_name_Hall           '-P 2ac 2ab'
loop_
_symmetry_equiv_pos_site_id
_symmetry_equiv_pos_as_xyz
1 x,y,z
2 1/2-x,-y,1/2+z
3 -x,1/2+y,1/2-z
4 1/2+x,1/2-y,-z
5 -x,-y,-z
6 1/2+x,y,1/2-z
7 x,1/2-y,1/2+z
8 1/2-x,1/2+y,z
_cell_length_a                   18.9965(18)
_cell_length_b                   8.9214(9)
_cell_length_c                   22.156(2)
_cell_angle_alpha                90
_cell_angle_beta                 90
_cell_angle_gamma                90
_cell_volume                     3754.9
_exptl_crystal_colour            colorless
_exptl_crystal_description       plate
_cell_formula_units_Z            8
_exptl_crystal_recrystallization_method acetone/Hexane
loop_
_atom_site_label
_atom_site_type_symbol
_atom_site_fract_x
_atom_site_fract_y
_atom_site_fract_z
S1 S 0.34776(3) 0.61418(6) 0.53548(2)
N1 N 0.28088(9) 0.5841(2) 0.58059(8)
C1 C 0.29863(10) 0.5739(2) 0.64299(9)
C2 C 0.25312(11) 0.6317(2) 0.68596(10)
H1 H 0.2109 0.6800 0.6736
C3 C 0.26874(11) 0.6196(2) 0.74654(10)
H2 H 0.2359 0.6536 0.7759
C4 C 0.33268(10) 0.5573(2) 0.76489(8)
N2 N 0.34910(9) 0.5469(2) 0.82709(7)
S2 S 0.39130(3) 0.39487(5) 0.84738(2)
C5 C 0.46520(10) 0.4145(2) 0.80100(8)
C6 C 0.53181(11) 0.3796(2) 0.82357(10)
H3 H 0.5372 0.3416 0.8634
C7 C 0.58968(11) 0.4013(2) 0.78702(11)
H4 H 0.6353 0.3741 0.8008
C8 C 0.58102(10) 0.4632(2) 0.73006(10)
H5 H 0.6212 0.4818 0.7057
C9 C 0.51475(10) 0.4982(2) 0.70800(9)
H6 H 0.5102 0.5418 0.6691
C10 C 0.45408(9) 0.46961(19) 0.74274(8)
C11 C 0.38191(9) 0.5068(2) 0.72192(8)
C12 C 0.36190(9) 0.5030(2) 0.66031(8)
C13 C 0.40135(9) 0.4163(2) 0.61423(8)
C14 C 0.43724(10) 0.2834(2) 0.62764(9)
H7 H 0.4386 0.2485 0.6681
C15 C 0.47080(11) 0.2020(2) 0.58275(10)
H8 H 0.4961 0.1138 0.5932
C16 C 0.46806(12) 0.2470(3) 0.52320(10)
H9 H 0.4921 0.1911 0.4931
C17 C 0.43027(12) 0.3737(3) 0.50751(9)
H10 H 0.4263 0.4033 0.4665
C18 C 0.39815(10) 0.4573(2) 0.55297(8)
O1 O 0.38408(8) 0.74674(18) 0.55524(7)
O2 O 0.32301(10) 0.6062(2) 0.47462(7)
C19 C 0.21100(14) 0.5733(5) 0.55882(12)
H11 H 0.1874 0.4881 0.5781
H12 H 0.2117 0.5585 0.5150
H13 H 0.1855 0.6658 0.5683
C20 C 0.31075(17) 0.6341(3) 0.87257(11)
H14 H 0.3061 0.7380 0.8588
H15 H 0.3367 0.6318 0.9108
H16 H 0.2639 0.5907 0.8785
O3 O 0.35296(8) 0.26312(17) 0.83013(7)
O4 O 0.41059(9) 0.41027(19) 0.90938(6)
loop_
_geom_bond_atom_site_label_1
_geom_bond_atom_site_label_2
_geom_bond_site_symmetry_1
_geom_bond_site_symmetry_2
S1 N1 1_555 1_555
N1 C1 1_555 1_555
C1 C2 1_555 1_555
C2 H1 1_555 1_555
C3 C2 1_555 1_555
H2 C3 1_555 1_555
C4 C3 1_555 1_555
N2 C4 1_555 1_555
S2 N2 1_555 1_555
C5 S2 1_555 1_555
C6 C5 1_555 1_555
H3 C6 1_555 1_555
C7 C6 1_555 1_555
H4 C7 1_555 1_555
C8 C7 1_555 1_555
H5 C8 1_555 1_555
C9 C8 1_555 1_555
H6 C9 1_555 1_555
C10 C5 1_555 1_555
C11 C4 1_555 1_555
C12 C1 1_555 1_555
C13 C12 1_555 1_555
C14 C13 1_555 1_555
H7 C14 1_555 1_555
C15 C14 1_555 1_555
H8 C15 1_555 1_555
C16 C15 1_555 1_555
H9 C16 1_555 1_555
C17 C16 1_555 1_555
H10 C17 1_555 1_555
C18 S1 1_555 1_555
O1 S1 1_555 1_555
O2 S1 1_555 1_555
C19 N1 1_555 1_555
H11 C19 1_555 1_555
H12 C19 1_555 1_555
H13 C19 1_555 1_555
C20 N2 1_555 1_555
H14 C20 1_555 1_555
H15 C20 1_555 1_555
H16 C20 1_555 1_555
O3 S2 1_555 1_555
O4 S2 1_555 1_555
C9 C10 1_555 1_555
C10 C11 1_555 1_555
C11 C12 1_555 1_555
C13 C18 1_555 1_555
C17 C18 1_555 1_555

#END
