
#######################################################################
#
#                 Cambridge Crystallographic Data Centre
#                                CCDC 
#
#######################################################################
#
# If this CIF has been generated from an entry in the Cambridge 
# Structural Database, then it will include bibliographic, chemical, 
# crystal, experimental, refinement or atomic coordinate data resulting 
# from the CCDC's data processing and validation procedures.
#
#######################################################################

data_EDOTEY
_chemical_formula_moiety         'C50 H60 N4 O8,Cs1 1+,F1 1-'
_chemical_name_systematic        
'Cesium fluoride 4,9,9,14,48,48-hexamethyl-20,23,26,29,32,35,38,41-octaoxa-53,54,55,56-tetraazanonacyclo[15.14.10.9^4,14^.1^3,30^.1^5,8^.1^10,13^.1^15,19^.1^44,47^.1^49,52^]hexapentaconta-1,3(42),5,7,10,12,15(43),16,18,30,44,46,49,51-tetradecaene'
_symmetry_cell_setting           tetragonal
_symmetry_space_group_name_H-M   'P 43'
_symmetry_Int_Tables_number      78
_space_group_name_Hall           'P 4cw'
loop_
_symmetry_equiv_pos_site_id
_symmetry_equiv_pos_as_xyz
1 x,y,z
2 -x,-y,1/2+z
3 -y,x,3/4+z
4 y,-x,1/4+z
_cell_length_a                   10.9535(15)
_cell_length_b                   10.9535(15)
_cell_length_c                   40.659(8)
_cell_angle_alpha                90
_cell_angle_beta                 90
_cell_angle_gamma                90
_cell_volume                     4878.23
_exptl_crystal_colour            colorless
_exptl_crystal_description       rod
_cell_formula_units_Z            4
loop_
_atom_site_label
_atom_site_type_symbol
_atom_site_fract_x
_atom_site_fract_y
_atom_site_fract_z
Cs1 Cs 0.27652(10) 0.13514(10) 0.11421(11)
N1 N 0.4546(8) 0.3878(9) 0.0948(2)
H1 H 0.3837 0.4210 0.0964
N2 N 0.2184(7) 0.3111(8) 0.0442(2)
H2 H 0.1991 0.3806 0.0526
N3 N 0.0296(7) 0.3217(7) 0.1064(2)
H3 H 0.0685 0.3838 0.0988
N4 N 0.2729(8) 0.4104(8) 0.1567(2)
H4 H 0.2652 0.4658 0.1419
O1 O 0.2464(16) 0.6482(13) -0.0383(3)
O2 O -0.0102(15) 0.7711(17) -0.0341(4)
O3 O -0.1705(13) 0.7186(11) 0.0405(3)
O4 O -0.1885(7) 0.7309(7) 0.1141(2)
O5 O 0.1543(7) 0.8366(7) 0.1745(2)
O6 O 0.3932(7) 0.9626(8) 0.1628(2)
O7 O 0.5034(8) 0.9589(9) 0.1002(2)
O8 O 0.5290(9) 0.7855(7) 0.0485(3)
C1 C 0.5332(9) 0.3682(9) 0.1201(3)
C2 C 0.6359(10) 0.3130(10) 0.1082(3)
H5 H 0.7047 0.2903 0.1202
C3 C 0.6166(9) 0.2976(10) 0.0744(3)
H6 H 0.6706 0.2603 0.0599
C4 C 0.5069(9) 0.3459(10) 0.0662(3)
C5 C 0.4401(10) 0.3566(9) 0.0328(3)
C6 C 0.3336(9) 0.2787(10) 0.0316(3)
C7 C 0.3215(12) 0.1584(10) 0.0189(3)
H7 H 0.3813 0.1127 0.0083
C8 C 0.1972(10) 0.1214(10) 0.0257(3)
H8 H 0.1625 0.0465 0.0204
C9 C 0.1418(8) 0.2121(9) 0.0408(3)
C10 C 0.0058(10) 0.2292(9) 0.0506(3)
C11 C -0.0099(10) 0.2294(10) 0.0878(3)
C12 C -0.0641(11) 0.1500(11) 0.1077(3)
H9 H -0.0997 0.0765 0.1014
C13 C -0.0584(10) 0.1968(11) 0.1404(3)
H10 H -0.0898 0.1587 0.1590
C14 C 0.0002(8) 0.3059(10) 0.1401(3)
C15 C 0.0450(11) 0.3988(12) 0.1664(3)
C16 C 0.1784(10) 0.3613(10) 0.1732(3)
C17 C 0.2292(12) 0.2769(10) 0.1934(3)
H11 H 0.1845 0.2261 0.2072
C18 C 0.3558(11) 0.2750(11) 0.1911(3)
H12 H 0.4104 0.2275 0.2031
C19 C 0.3826(10) 0.3622(10) 0.1663(3)
C20 C 0.5098(11) 0.4114(10) 0.1547(3)
C21 C 0.5308(12) 0.3141(13) 0.0061(3)
H13 H 0.5660 0.2373 0.0124
H14 H 0.5944 0.3738 0.0037
H15 H 0.4886 0.3047 -0.0145
C22 C -0.0638(11) 0.1155(11) 0.0356(3)
H16 H -0.1500 0.1311 0.0356
H17 H -0.0469 0.0444 0.0486
H18 H -0.0366 0.1020 0.0135
C23 C -0.0483(10) 0.3432(11) 0.0359(3)
H19 H -0.1328 0.3493 0.0420
H20 H -0.0418 0.3398 0.0124
H21 H -0.0050 0.4133 0.0439
C24 C -0.0269(12) 0.3709(15) 0.1979(3)
H22 H -0.0158 0.4362 0.2133
H23 H 0.0021 0.2959 0.2073
H24 H -0.1120 0.3632 0.1927
C25 C 0.6062(11) 0.3676(14) 0.1775(4)
H25 H 0.6139 0.2806 0.1756
H26 H 0.5844 0.3885 0.1996
H27 H 0.6825 0.4055 0.1719
C26 C 0.5090(13) 0.5559(12) 0.1561(3)
H28 H 0.5857 0.5867 0.1482
H29 H 0.4969 0.5820 0.1784
H30 H 0.4441 0.5867 0.1426
C27 C 0.4134(10) 0.4934(11) 0.0246(3)
C28 C 0.3274(10) 0.5246(12) -0.0002(3)
H31 H 0.2859 0.4627 -0.0112
C29 C 0.3048(11) 0.6419(13) -0.0083(2)
C30 C 0.3708(11) 0.7296(11) 0.0065(3)
H32 H 0.3585 0.8104 0.0002
C31 C 0.4580(13) 0.7037(12) 0.0310(3)
C32 C 0.4774(10) 0.5875(11) 0.0387(3)
H33 H 0.5368 0.5692 0.0543
C33 C 0.2070(18) 0.7723(14) -0.0479(5)
C34 C 0.1097(14) 0.829(2) -0.0278(5)
C35 C -0.096(2) 0.681(2) 0.0119(5)
C36 C -0.189(2) 0.6182(15) 0.0643(4)
C37 C -0.2605(17) 0.643(2) 0.0944(5)
C38 C -0.100(3) 0.778(3) -0.0142(7)
C39 C -0.0914(11) 0.6834(13) 0.1314(3)
C40 C -0.0166(10) 0.7765(13) 0.1444(3)
H34 H -0.0296 0.8585 0.1396
C41 C 0.0779(12) 0.7377(12) 0.1647(3)
C42 C 0.0987(10) 0.6194(10) 0.1709(3)
H35 H 0.1630 0.5986 0.1847
C43 C 0.0276(10) 0.5255(10) 0.1573(3)
C44 C -0.0725(9) 0.5659(11) 0.1371(3)
H36 H -0.1247 0.5084 0.1278
C45 C 0.2699(9) 0.8082(8) 0.1917(3)
H37 H 0.2535 0.7751 0.2133
H38 H 0.3170 0.7490 0.1793
C46 C 0.3372(11) 0.9248(9) 0.1943(2)
H39 H 0.2816 0.9882 0.2016
H40 H 0.4008 0.9165 0.2108
C47 C 0.5115(11) 0.9025(15) 0.1562(4)
H41 H 0.4981 0.8194 0.1488
H42 H 0.5601 0.8998 0.1761
C48 C 0.5766(11) 0.9726(15) 0.1305(2)
H43 H 0.5827 1.0580 0.1367
H44 H 0.6583 0.9405 0.1273
C49 C 0.5746(13) 0.9761(13) 0.0696(2)
H45 H 0.5848 1.0625 0.0651
H46 H 0.6549 0.9397 0.0720
C50 C 0.5074(14) 0.9169(8) 0.0424(4)
H47 H 0.4211 0.9362 0.0433
H48 H 0.5397 0.9415 0.0212
F1 F 0.199(2) 0.515(2) 0.0863(7)
C51? C 0.170(3) 0.8058(16) -0.0311(8)
C52? C 0.054(2) 0.803(3) -0.0496(7)
C53? C -0.050(2) 0.800(2) -0.0002(5)
C54? C -0.173(2) 0.747(5) 0.0049(4)
C55? C -0.126(4) 0.626(4) 0.0642(9)
C56? C -0.230(3) 0.655(3) 0.0861(6)
O9? O 0.2096(12) 0.6770(15) -0.0284(4)
O10? O -0.049(4) 0.718(4) -0.0436(12)
loop_
_geom_bond_atom_site_label_1
_geom_bond_atom_site_label_2
_geom_bond_site_symmetry_1
_geom_bond_site_symmetry_2
N1 H1 1_555 1_555
N2 H2 1_555 1_555
N3 H3 1_555 1_555
N4 H4 1_555 1_555
O1 C29 1_555 1_555
O2 C34 1_555 1_555
O3 C35 1_555 1_555
O4 C37 1_555 1_555
O5 C41 1_555 1_555
O6 C46 1_555 1_555
O7 C48 1_555 1_555
O8 C31 1_555 1_555
C1 N1 1_555 1_555
C2 C1 1_555 1_555
H5 C2 1_555 1_555
C3 C2 1_555 1_555
H6 C3 1_555 1_555
C4 N1 1_555 1_555
C5 C4 1_555 1_555
C6 N2 1_555 1_555
C7 C6 1_555 1_555
H7 C7 1_555 1_555
C8 C7 1_555 1_555
H8 C8 1_555 1_555
C9 N2 1_555 1_555
C10 C9 1_555 1_555
C11 N3 1_555 1_555
C12 C11 1_555 1_555
H9 C12 1_555 1_555
C13 C12 1_555 1_555
H10 C13 1_555 1_555
C14 N3 1_555 1_555
C15 C14 1_555 1_555
C16 N4 1_555 1_555
C17 C16 1_555 1_555
H11 C17 1_555 1_555
C18 C17 1_555 1_555
H12 C18 1_555 1_555
C19 N4 1_555 1_555
C20 C1 1_555 1_555
C21 C5 1_555 1_555
H13 C21 1_555 1_555
H14 C21 1_555 1_555
H15 C21 1_555 1_555
C22 C10 1_555 1_555
H16 C22 1_555 1_555
H17 C22 1_555 1_555
H18 C22 1_555 1_555
C23 C10 1_555 1_555
H19 C23 1_555 1_555
H20 C23 1_555 1_555
H21 C23 1_555 1_555
C24 C15 1_555 1_555
H22 C24 1_555 1_555
H23 C24 1_555 1_555
H24 C24 1_555 1_555
C25 C20 1_555 1_555
H25 C25 1_555 1_555
H26 C25 1_555 1_555
H27 C25 1_555 1_555
C26 C20 1_555 1_555
H28 C26 1_555 1_555
H29 C26 1_555 1_555
H30 C26 1_555 1_555
C27 C5 1_555 1_555
C28 C27 1_555 1_555
H31 C28 1_555 1_555
C29 C28 1_555 1_555
C30 C29 1_555 1_555
H32 C30 1_555 1_555
C31 C30 1_555 1_555
C32 C27 1_555 1_555
H33 C32 1_555 1_555
C33 O1 1_555 1_555
C34 C33 1_555 1_555
C35 C38 1_555 1_555
C36 O3 1_555 1_555
C37 C36 1_555 1_555
C38 O2 1_555 1_555
C39 O4 1_555 1_555
C40 C39 1_555 1_555
H34 C40 1_555 1_555
C41 C40 1_555 1_555
C42 C41 1_555 1_555
H35 C42 1_555 1_555
C43 C15 1_555 1_555
C44 C39 1_555 1_555
H36 C44 1_555 1_555
C45 O5 1_555 1_555
H37 C45 1_555 1_555
H38 C45 1_555 1_555
C46 C45 1_555 1_555
H39 C46 1_555 1_555
H40 C46 1_555 1_555
C47 O6 1_555 1_555
H41 C47 1_555 1_555
H42 C47 1_555 1_555
C48 C47 1_555 1_555
H43 C48 1_555 1_555
H44 C48 1_555 1_555
C49 O7 1_555 1_555
H45 C49 1_555 1_555
H46 C49 1_555 1_555
C50 O8 1_555 1_555
H47 C50 1_555 1_555
H48 C50 1_555 1_555
C3 C4 1_555 1_555
C5 C6 1_555 1_555
C8 C9 1_555 1_555
C10 C11 1_555 1_555
C13 C14 1_555 1_555
C15 C16 1_555 1_555
C18 C19 1_555 1_555
C19 C20 1_555 1_555
C31 C32 1_555 1_555
C42 C43 1_555 1_555
C43 C44 1_555 1_555
C49 C50 1_555 1_555

#END
