
#######################################################################
#
#                 Cambridge Crystallographic Data Centre
#                                CCDC 
#
#######################################################################
#
# If this CIF has been generated from an entry in the Cambridge 
# Structural Database, then it will include bibliographic, chemical, 
# crystal, experimental, refinement or atomic coordinate data resulting 
# from the CCDC's data processing and validation procedures.
#
#######################################################################

data_EDOXIF01
_chemical_name_common            
4,10,16,22-tetrahydroxy-6,12,18,24-tetramethoxy-2,8,14,20-tetra-n-pentylcalix(4)arene
_chemical_formula_moiety         'C52 H72 O8'
_chemical_name_systematic        
6,12,18,24-tetramethoxy-2,8,14,20-tetrapentylpentacyclo[19.3.1.1^3,7^.1^9,13^.1^15,19^]octacosa-1(25),3(28),4,6,9(27),10,12,15(26),16,18,21,23-dodecaene-4,10,16,22-tetrol
_symmetry_cell_setting           monoclinic
_symmetry_space_group_name_H-M   'P 21/c'
_symmetry_Int_Tables_number      14
_space_group_name_Hall           '-P 2ybc'
loop_
_symmetry_equiv_pos_site_id
_symmetry_equiv_pos_as_xyz
1 x,y,z
2 -x,1/2+y,1/2-z
3 -x,-y,-z
4 x,1/2-y,1/2+z
_cell_length_a                   12.2487(7)
_cell_length_b                   36.642(2)
_cell_length_c                   21.7405(13)
_cell_angle_alpha                90
_cell_angle_beta                 102.0480(10)
_cell_angle_gamma                90
_cell_volume                     9542.58
_exptl_crystal_colour            colorless
_exptl_crystal_description       plate
_chemical_melting_point          '391 K'
_cell_formula_units_Z            8
loop_
_atom_site_label
_atom_site_type_symbol
_atom_site_fract_x
_atom_site_fract_y
_atom_site_fract_z
O1 O 0.42394(12) 0.81035(4) 0.65794(6)
O2 O 0.07976(12) 0.85762(4) 0.53857(7)
O3 O 0.06321(11) 0.83077(4) 0.41666(7)
O4 O 0.20860(13) 0.80009(4) 0.23683(6)
O5 O 0.38173(11) 0.80615(4) 0.16772(6)
O6 O 0.74336(11) 0.77522(4) 0.29202(6)
O7 O 0.76010(12) 0.75380(4) 0.43001(6)
O8 O 0.57535(13) 0.76666(4) 0.60122(6)
H1 H 0.049(2) 0.8543(9) 0.4952(6)
H2 H 0.2594(18) 0.8062(7) 0.2114(10)
H3 H 0.733(2) 0.7541(5) 0.2666(11)
H4 H 0.538(3) 0.7847(7) 0.6195(14)
C1 C 0.42702(15) 0.84722(5) 0.56966(8)
C2 C 0.36447(16) 0.83106(5) 0.60926(8)
C3 C 0.24914(17) 0.83497(6) 0.59818(9)
H5 H 0.2079 0.8242 0.6259
C4 C 0.19445(16) 0.85479(5) 0.54619(9)
C5 C 0.25297(16) 0.87045(5) 0.50455(9)
C6 C 0.36802(15) 0.86588(5) 0.51723(8)
H6 H 0.4088 0.8760 0.4887
C7 C 0.36219(19) 0.79208(7) 0.69772(10)
H7 H 0.3251 0.8102 0.7195
H8 H 0.4131 0.7773 0.7287
H9 H 0.3060 0.7762 0.6722
C8 C 0.19654(16) 0.89249(5) 0.44638(9)
H10 H 0.1169 0.8964 0.4492
C9 C 0.25122(18) 0.93023(5) 0.44663(10)
H11 H 0.3306 0.9270 0.4446
H12 H 0.2143 0.9437 0.4084
C10 C 0.2449(2) 0.95322(6) 0.50426(11)
H13 H 0.1668 0.9612 0.5013
H14 H 0.2663 0.9379 0.5423
C11 C 0.3199(2) 0.98674(6) 0.51151(11)
H15 H 0.3976 0.9787 0.5130
H16 H 0.2971 1.0023 0.4737
C12 C 0.3181(2) 1.00968(7) 0.56927(12)
H17 H 0.2409 1.0185 0.5672
H18 H 0.3389 0.9941 0.6071
C13 C 0.3955(3) 1.04213(8) 0.57640(16)
H19 H 0.4725 1.0337 0.5799
H20 H 0.3897 1.0557 0.6144
H21 H 0.3746 1.0580 0.5396
C14 C 0.19665(16) 0.87004(5) 0.38734(9)
C15 C 0.13130(15) 0.83836(6) 0.37510(9)
C16 C 0.13584(16) 0.81618(6) 0.32425(9)
H22 H 0.0903 0.7950 0.3165
C17 C 0.20712(16) 0.82495(6) 0.28469(9)
C18 C 0.27306(15) 0.85632(5) 0.29374(8)
C19 C 0.26537(15) 0.87810(5) 0.34541(9)
H23 H 0.3094 0.8996 0.3524
C20 C 0.00978(18) 0.79567(6) 0.41137(11)
H24 H -0.0432 0.7940 0.3709
H25 H -0.0302 0.7926 0.4457
H26 H 0.0663 0.7765 0.4139
C21 C 0.35322(16) 0.86400(5) 0.25045(9)
H27 H 0.3116 0.8589 0.2066
C22 C 0.39370(18) 0.90372(6) 0.25155(10)
H28 H 0.3282 0.9202 0.2427
H29 H 0.4371 0.9096 0.2941
C23 C 0.4664(2) 0.91072(7) 0.20330(12)
H30 H 0.5277 0.8926 0.2100
H31 H 0.4205 0.9066 0.1607
C24 C 0.45147(15) 0.83776(5) 0.26368(8)
C25 C 0.46725(16) 0.81132(5) 0.22004(8)
C26 C 0.56289(16) 0.79005(5) 0.22905(9)
H32 H 0.5722 0.7725 0.1983
C27 C 0.64540(16) 0.79452(5) 0.28346(8)
C28 C 0.63100(15) 0.81944(5) 0.32995(8)
C29 C 0.53364(15) 0.84002(5) 0.31884(8)
H33 H 0.5222 0.8566 0.3505
C30 C 0.41052(19) 0.81417(7) 0.10878(9)
H34 H 0.4463 0.8382 0.1109
H35 H 0.3428 0.8143 0.0755
H36 H 0.4622 0.7955 0.0995
C31 C 0.72201(15) 0.82469(5) 0.38915(8)
H37 H 0.7860 0.8089 0.3839
C32 C 0.76570(17) 0.86397(5) 0.39451(9)
H38 H 0.7031 0.8808 0.3961
H39 H 0.8216 0.8666 0.4343
C33 C 0.81914(18) 0.87485(6) 0.33953(10)
H40 H 0.8773 0.8567 0.3358
H41 H 0.7614 0.8739 0.3002
C34 C 0.8715(2) 0.91259(7) 0.34573(12)
H42 H 0.8117 0.9311 0.3425
H43 H 0.9206 0.9149 0.3879
C35 C 0.68503(15) 0.81096(5) 0.44791(8)
C36 C 0.70404(15) 0.77431(5) 0.46622(8)
C37 C 0.66635(16) 0.76038(5) 0.51745(8)
H44 H 0.6770 0.7353 0.5283
C38 C 0.61303(16) 0.78325(5) 0.55282(8)
C39 C 0.60034(15) 0.82038(5) 0.53966(8)
C40 C 0.63521(15) 0.83299(5) 0.48613(8)
H45 H 0.6242 0.8580 0.4754
C41 C 0.81546(19) 0.72149(6) 0.45725(10)
H46 H 0.8622 0.7273 0.4984
H47 H 0.8623 0.7118 0.4296
H48 H 0.7598 0.7032 0.4624
C42 C 0.55444(15) 0.84595(5) 0.58344(8)
H49 H 0.5784 0.8357 0.6268
C43 C 0.60455(16) 0.88449(5) 0.58528(9)
H50 H 0.6864 0.8824 0.5896
H51 H 0.5742 0.8969 0.5449
C44 C 0.58054(18) 0.90787(6) 0.63882(10)
H52 H 0.4987 0.9101 0.6346
H53 H 0.6110 0.8956 0.6793
C45 C 0.6309(2) 0.94562(6) 0.63965(11)
H54 H 0.5912 0.9592 0.6023
H55 H 0.7099 0.9433 0.6363
C46 C 0.6254(2) 0.96784(7) 0.69879(14)
H56 H 0.5465 0.9738 0.6986
H57 H 0.6542 0.9527 0.7364
C47 C 0.6916(3) 1.00261(9) 0.7034(2)
H58 H 0.7691 0.9970 0.7018
H59 H 0.6894 1.0149 0.7432
H60 H 0.6593 1.0187 0.6682
C48 C 0.5164(4) 0.94808(9) 0.20539(19)
H61 H 0.5390 0.9561 0.2497
H62 H 0.4594 0.9654 0.1833
C49 C 0.6193(8) 0.9490(3) 0.1743(5)
H63 H 0.6728 0.9300 0.1936
H64 H 0.5951 0.9433 0.1290
C50 C 0.6778(7) 0.9859(2) 0.1814(5)
H65 H 0.7421 0.9851 0.1612
H66 H 0.7033 0.9915 0.2262
H67 H 0.6257 1.0048 0.1615
C51 C 0.9393(2) 0.92061(8) 0.29637(16)
H68 H 0.8919 0.9195 0.2535
H69 H 1.0016 0.9031 0.2993
C52 C 0.9835(19) 0.9599(3) 0.3125(9)
H70 H 1.0288 0.9675 0.2826
H71 H 1.0292 0.9603 0.3552
H72 H 0.9203 0.9766 0.3099
O9 O 0.90933(13) 0.82471(5) 0.15057(7)
O10 O 0.55486(13) 0.85230(5) 0.01814(8)
O11 O 0.54751(12) 0.82214(4) -0.10141(7)
O12 O 0.71013(12) 0.79055(4) -0.27446(6)
O13 O 0.88511(11) 0.79507(4) -0.33700(6)
O14 O 1.23832(11) 0.76782(4) -0.20087(6)
O15 O 1.25460(12) 0.75692(4) -0.05957(6)
O16 O 1.06994(15) 0.78145(5) 0.10822(7)
H85 H 0.531(2) 0.8466(8) -0.0247(6)
H86 H 0.7637(16) 0.7983(7) -0.2968(10)
H87 H 1.230(2) 0.7472(5) -0.2269(10)
H88 H 1.028(3) 0.7987(8) 0.1259(15)
C56 C 0.90359(17) 0.85596(6) 0.05513(9)
C57 C 0.84460(18) 0.83997(6) 0.09716(9)
C58 C 0.72915(19) 0.83923(6) 0.08420(10)
H89 H 0.6904 0.8285 0.1132
C59 C 0.67007(18) 0.85442(6) 0.02826(10)
C60 C 0.72447(18) 0.87041(5) -0.01483(9)
C61 C 0.84122(17) 0.87019(5) 0.00007(9)
H90 H 0.8799 0.8804 -0.0294
C62 C 0.8537(2) 0.80682(8) 0.19385(10)
H91 H 0.8043 0.8242 0.2089
H92 H 0.9092 0.7976 0.2296
H93 H 0.8095 0.7864 0.1727
C63 C 0.66158(18) 0.88716(6) -0.07694(10)
H94 H 0.5805 0.8869 -0.0756
C64 C 0.6935(2) 0.92705(6) -0.08385(11)
H95 H 0.7754 0.9287 -0.0798
H96 H 0.6579 0.9357 -0.1265
C65 C 0.6588(2) 0.95194(6) -0.03526(13)
H97 H 0.5770 0.9502 -0.0394
H98 H 0.6945 0.9433 0.0073
C66 C 0.6901(3) 0.99140(7) -0.04177(14)
H99 H 0.7724 0.9929 -0.0356
H100 H 0.6583 0.9993 -0.0854
C67 C 0.6533(3) 1.01761(8) 0.0020(2)
H101 H 0.6875 1.0104 0.0456
H102 H 0.5713 1.0155 -0.0030
C68 C 0.6816(4) 1.05695(9) -0.0070(2)
H103 H 0.7622 1.0606 0.0073
H104 H 0.6416 1.0726 0.0175
H105 H 0.6595 1.0633 -0.0517
C69 C 0.67518(16) 0.86314(5) -0.13194(9)
C70 C 0.61623(16) 0.83025(6) -0.14241(9)
C71 C 0.62860(16) 0.80704(6) -0.19061(9)
H106 H 0.5869 0.7850 -0.1976
C72 C 0.70220(15) 0.81606(5) -0.22864(8)
C73 C 0.76369(15) 0.84829(5) -0.22030(8)
C74 C 0.74771(16) 0.87129(5) -0.17160(9)
H107 H 0.7883 0.8936 -0.1652
C75 C 0.49470(17) 0.78697(6) -0.10717(10)
H108 H 0.4403 0.7856 -0.1472
H109 H 0.4564 0.7834 -0.0723
H110 H 0.5513 0.7679 -0.1060
C76 C 0.84720(15) 0.85597(5) -0.26186(8)
H111 H 0.8092 0.8494 -0.3058
C77 C 0.88460(17) 0.89579(5) -0.26373(9)
H112 H 0.8186 0.9120 -0.2690
H113 H 0.9353 0.9020 -0.2234
C78 C 0.94469(19) 0.90214(6) -0.31789(11)
H114 H 1.0087 0.8851 -0.3129
H115 H 0.8928 0.8960 -0.3579
C79 C 0.9872(2) 0.94057(7) -0.32271(13)
H116 H 1.0482 0.9455 -0.2859
H117 H 0.9261 0.9580 -0.3213
C80 C 0.94771(15) 0.83083(5) -0.24437(8)
C81 C 0.96677(15) 0.80248(5) -0.28349(8)
C82 C 1.06202(16) 0.78091(5) -0.26932(9)
H118 H 1.0730 0.7617 -0.2968
C83 C 1.14135(15) 0.78770(5) -0.21440(8)
C84 C 1.12463(15) 0.81537(5) -0.17277(8)
C85 C 1.02718(15) 0.83564(5) -0.18853(8)
H119 H 1.0136 0.8538 -0.1598
C86 C 0.91726(19) 0.80205(7) -0.39526(9)
H120 H 0.9520 0.8262 -0.3939
H121 H 0.8512 0.8013 -0.4296
H122 H 0.9707 0.7834 -0.4024
C87 C 1.21330(15) 0.82453(5) -0.11406(8)
H123 H 1.2792 0.8087 -0.1154
C88 C 1.25331(16) 0.86409(5) -0.11536(9)
H124 H 1.1896 0.8806 -0.1150
H125 H 1.3105 0.8689 -0.0768
C89 C 1.30266(18) 0.87290(6) -0.17269(10)
H126 H 1.3636 0.8554 -0.1745
H127 H 1.2442 0.8696 -0.2113
C90 C 1.3481(2) 0.91145(7) -0.17166(13)
H128 H 1.4059 0.9148 -0.1328
H129 H 1.2869 0.9288 -0.1700
C91 C 1.3987(3) 0.92087(10) -0.22833(16)
H130 H 1.4404 0.9441 -0.2200
H131 H 1.4524 0.9016 -0.2338
C92 C 1.3122(3) 0.92446(12) -0.28774(16)
H132 H 1.2711 0.9015 -0.2964
H133 H 1.3486 0.9301 -0.3227
H134 H 1.2603 0.9441 -0.2831
C93 C 1.17503(15) 0.81481(5) -0.05356(8)
C94 C 1.19711(16) 0.77974(5) -0.02791(8)
C95 C 1.16027(17) 0.76975(6) 0.02591(9)
H135 H 1.1735 0.7457 0.0422
C96 C 1.10441(17) 0.79463(6) 0.05593(8)
C97 C 1.08560(16) 0.83044(6) 0.03455(8)
C98 C 1.12116(16) 0.83918(6) -0.02094(8)
H136 H 1.1076 0.8632 -0.0372
C99 C 1.31020(19) 0.72616(6) -0.02660(11)
H137 H 1.3581 0.7343 0.0129
H138 H 1.3559 0.7142 -0.0527
H139 H 1.2547 0.7089 -0.0174
C100 C 1.03089(17) 0.85838(6) 0.07078(9)
H140 H 1.0546 0.8518 0.1162
C101 C 1.0701(2) 0.89794(7) 0.06494(11)
H141 H 1.1527 0.8987 0.0761
H142 H 1.0466 0.9059 0.0206
C102 C 1.0235(3) 0.92459(9) 0.10710(17)
H143 H 0.9415 0.9213 0.0996
H144 H 1.0545 0.9181 0.1515
C103 C 1.0308(2) 0.94712(9) -0.38335(14)
H145 H 1.0936 0.9302 -0.3838
H146 H 1.0602 0.9723 -0.3826
C104 C 0.9418(10) 0.9418(3) -0.4449(5)
H147 H 0.9759 0.9461 -0.4812
H148 H 0.8804 0.9591 -0.4458
H149 H 0.9128 0.9168 -0.4466
C105 C 1.0480(3) 0.96474(9) 0.09754(18)
H150 H 1.1256 0.9697 0.1198
H151 H 1.0447 0.9686 0.0521
C106 C 0.9740(9) 0.9926(3) 0.1186(6)
H152 H 0.9558 0.9843 0.1587
H153 H 0.9032 0.9941 0.0869
C107 C 1.0258(16) 1.0306(4) 0.1282(8)
H154 H 0.9757 1.0470 0.1449
H155 H 1.0373 1.0401 0.0878
H156 H 1.0978 1.0292 0.1580
H73? H 0.5709 0.9508 0.2457
H74? H 0.4564 0.9662 0.2051
C53? C 0.5755(8) 0.9573(3) 0.1514(4)
H75? H 0.5281 0.9499 0.1106
H76? H 0.5889 0.9839 0.1502
C54? C 0.6856(8) 0.9369(3) 0.1624(5)
H77? H 0.7238 0.9421 0.1280
H78? H 0.6716 0.9106 0.1640
H79? H 0.7326 0.9448 0.2023
H80? H 0.8886 0.9178 0.2547
H81? H 0.9966 0.9013 0.2996
C55? C 0.9990(18) 0.9573(4) 0.2961(8)
H82? H 1.0386 0.9578 0.2613
H83? H 1.0526 0.9605 0.3360
H84? H 0.9440 0.9771 0.2907
H157? H 1.0855 0.9674 -0.3761
H158? H 1.0701 0.9249 -0.3930
C108? C 0.9393(12) 0.9563(3) -0.4392(6)
H159? H 0.9717 0.9600 -0.4763
H160? H 0.9013 0.9786 -0.4305
H161? H 0.8855 0.9362 -0.4472
H162? H 1.1300 0.9681 0.1066
H163? H 1.0198 0.9708 0.0527
C109? C 0.9994(11) 0.9913(3) 0.1365(6)
H164? H 1.0442 0.9912 0.1800
H165? H 0.9224 0.9838 0.1379
C110? C 0.9974(17) 1.0298(4) 0.1096(8)
H166? H 0.9595 1.0463 0.1339
H167? H 0.9574 1.0297 0.0656
H168? H 1.0741 1.0383 0.1120
loop_
_geom_bond_atom_site_label_1
_geom_bond_atom_site_label_2
_geom_bond_site_symmetry_1
_geom_bond_site_symmetry_2
O1 C2 1_555 1_555
O2 H1 1_555 1_555
O3 C15 1_555 1_555
O4 H2 1_555 1_555
O5 C25 1_555 1_555
O6 H3 1_555 1_555
O7 C36 1_555 1_555
O8 H4 1_555 1_555
C1 C2 1_555 1_555
C2 C3 1_555 1_555
C3 H5 1_555 1_555
C4 O2 1_555 1_555
C5 C4 1_555 1_555
C6 C1 1_555 1_555
H6 C6 1_555 1_555
C7 O1 1_555 1_555
H7 C7 1_555 1_555
H8 C7 1_555 1_555
H9 C7 1_555 1_555
C8 C5 1_555 1_555
H10 C8 1_555 1_555
C9 C8 1_555 1_555
H11 C9 1_555 1_555
H12 C9 1_555 1_555
C10 C9 1_555 1_555
H13 C10 1_555 1_555
H14 C10 1_555 1_555
C11 C10 1_555 1_555
H15 C11 1_555 1_555
H16 C11 1_555 1_555
C12 C11 1_555 1_555
H17 C12 1_555 1_555
H18 C12 1_555 1_555
C13 C12 1_555 1_555
H19 C13 1_555 1_555
H20 C13 1_555 1_555
H21 C13 1_555 1_555
C14 C8 1_555 1_555
C15 C14 1_555 1_555
C16 C15 1_555 1_555
H22 C16 1_555 1_555
C17 O4 1_555 1_555
C18 C17 1_555 1_555
C19 C14 1_555 1_555
H23 C19 1_555 1_555
C20 O3 1_555 1_555
H24 C20 1_555 1_555
H25 C20 1_555 1_555
H26 C20 1_555 1_555
C21 C18 1_555 1_555
H27 C21 1_555 1_555
C22 C21 1_555 1_555
H28 C22 1_555 1_555
H29 C22 1_555 1_555
C23 C22 1_555 1_555
H30 C23 1_555 1_555
H31 C23 1_555 1_555
C24 C21 1_555 1_555
C25 C24 1_555 1_555
C26 C25 1_555 1_555
H32 C26 1_555 1_555
C27 O6 1_555 1_555
C28 C27 1_555 1_555
C29 C24 1_555 1_555
H33 C29 1_555 1_555
C30 O5 1_555 1_555
H34 C30 1_555 1_555
H35 C30 1_555 1_555
H36 C30 1_555 1_555
C31 C28 1_555 1_555
H37 C31 1_555 1_555
C32 C31 1_555 1_555
H38 C32 1_555 1_555
H39 C32 1_555 1_555
C33 C32 1_555 1_555
H40 C33 1_555 1_555
H41 C33 1_555 1_555
C34 C33 1_555 1_555
H42 C34 1_555 1_555
H43 C34 1_555 1_555
C35 C31 1_555 1_555
C36 C35 1_555 1_555
C37 C36 1_555 1_555
H44 C37 1_555 1_555
C38 O8 1_555 1_555
C39 C38 1_555 1_555
C40 C35 1_555 1_555
H45 C40 1_555 1_555
C41 O7 1_555 1_555
H46 C41 1_555 1_555
H47 C41 1_555 1_555
H48 C41 1_555 1_555
C42 C1 1_555 1_555
H49 C42 1_555 1_555
C43 C42 1_555 1_555
H50 C43 1_555 1_555
H51 C43 1_555 1_555
C44 C43 1_555 1_555
H52 C44 1_555 1_555
H53 C44 1_555 1_555
C45 C44 1_555 1_555
H54 C45 1_555 1_555
H55 C45 1_555 1_555
C46 C45 1_555 1_555
H56 C46 1_555 1_555
H57 C46 1_555 1_555
C47 C46 1_555 1_555
H58 C47 1_555 1_555
H59 C47 1_555 1_555
H60 C47 1_555 1_555
C48 C23 1_555 1_555
H61 C48 1_555 1_555
H62 C48 1_555 1_555
C49 C48 1_555 1_555
H63 C49 1_555 1_555
H64 C49 1_555 1_555
C50 C49 1_555 1_555
H65 C50 1_555 1_555
H66 C50 1_555 1_555
H67 C50 1_555 1_555
C51 C34 1_555 1_555
H68 C51 1_555 1_555
H69 C51 1_555 1_555
C52 C51 1_555 1_555
H70 C52 1_555 1_555
H71 C52 1_555 1_555
H72 C52 1_555 1_555
O9 C57 1_555 1_555
O10 H85 1_555 1_555
O11 C70 1_555 1_555
O12 H86 1_555 1_555
O13 C81 1_555 1_555
O14 H87 1_555 1_555
O15 C94 1_555 1_555
O16 H88 1_555 1_555
C56 C57 1_555 1_555
C57 C58 1_555 1_555
C58 H89 1_555 1_555
C59 O10 1_555 1_555
C60 C59 1_555 1_555
C61 C56 1_555 1_555
H90 C61 1_555 1_555
C62 O9 1_555 1_555
H91 C62 1_555 1_555
H92 C62 1_555 1_555
H93 C62 1_555 1_555
C63 C60 1_555 1_555
H94 C63 1_555 1_555
C64 C63 1_555 1_555
H95 C64 1_555 1_555
H96 C64 1_555 1_555
C65 C64 1_555 1_555
H97 C65 1_555 1_555
H98 C65 1_555 1_555
C66 C65 1_555 1_555
H99 C66 1_555 1_555
H100 C66 1_555 1_555
C67 C66 1_555 1_555
H101 C67 1_555 1_555
H102 C67 1_555 1_555
C68 C67 1_555 1_555
H103 C68 1_555 1_555
H104 C68 1_555 1_555
H105 C68 1_555 1_555
C69 C63 1_555 1_555
C70 C69 1_555 1_555
C71 C70 1_555 1_555
H106 C71 1_555 1_555
C72 O12 1_555 1_555
C73 C72 1_555 1_555
C74 C69 1_555 1_555
H107 C74 1_555 1_555
C75 O11 1_555 1_555
H108 C75 1_555 1_555
H109 C75 1_555 1_555
H110 C75 1_555 1_555
C76 C73 1_555 1_555
H111 C76 1_555 1_555
C77 C76 1_555 1_555
H112 C77 1_555 1_555
H113 C77 1_555 1_555
C78 C77 1_555 1_555
H114 C78 1_555 1_555
H115 C78 1_555 1_555
C79 C78 1_555 1_555
H116 C79 1_555 1_555
H117 C79 1_555 1_555
C80 C76 1_555 1_555
C81 C80 1_555 1_555
C82 C81 1_555 1_555
H118 C82 1_555 1_555
C83 O14 1_555 1_555
C84 C83 1_555 1_555
C85 C80 1_555 1_555
H119 C85 1_555 1_555
C86 O13 1_555 1_555
H120 C86 1_555 1_555
H121 C86 1_555 1_555
H122 C86 1_555 1_555
C87 C84 1_555 1_555
H123 C87 1_555 1_555
C88 C87 1_555 1_555
H124 C88 1_555 1_555
H125 C88 1_555 1_555
C89 C88 1_555 1_555
H126 C89 1_555 1_555
H127 C89 1_555 1_555
C90 C89 1_555 1_555
H128 C90 1_555 1_555
H129 C90 1_555 1_555
C91 C90 1_555 1_555
H130 C91 1_555 1_555
H131 C91 1_555 1_555
C92 C91 1_555 1_555
H132 C92 1_555 1_555
H133 C92 1_555 1_555
H134 C92 1_555 1_555
C93 C87 1_555 1_555
C94 C93 1_555 1_555
C95 C94 1_555 1_555
H135 C95 1_555 1_555
C96 O16 1_555 1_555
C97 C96 1_555 1_555
C98 C93 1_555 1_555
H136 C98 1_555 1_555
C99 O15 1_555 1_555
H137 C99 1_555 1_555
H138 C99 1_555 1_555
H139 C99 1_555 1_555
C100 C56 1_555 1_555
H140 C100 1_555 1_555
C101 C100 1_555 1_555
H141 C101 1_555 1_555
H142 C101 1_555 1_555
C102 C101 1_555 1_555
H143 C102 1_555 1_555
H144 C102 1_555 1_555
C103 C79 1_555 1_555
H145 C103 1_555 1_555
H146 C103 1_555 1_555
C104 C103 1_555 1_555
H147 C104 1_555 1_555
H148 C104 1_555 1_555
H149 C104 1_555 1_555
C105 C102 1_555 1_555
H150 C105 1_555 1_555
H151 C105 1_555 1_555
C106 C105 1_555 1_555
H152 C106 1_555 1_555
H153 C106 1_555 1_555
C107 C106 1_555 1_555
H154 C107 1_555 1_555
H155 C107 1_555 1_555
H156 C107 1_555 1_555
C3 C4 1_555 1_555
C5 C6 1_555 1_555
C16 C17 1_555 1_555
C18 C19 1_555 1_555
C26 C27 1_555 1_555
C28 C29 1_555 1_555
C37 C38 1_555 1_555
C39 C40 1_555 1_555
C39 C42 1_555 1_555
C58 C59 1_555 1_555
C60 C61 1_555 1_555
C71 C72 1_555 1_555
C73 C74 1_555 1_555
C82 C83 1_555 1_555
C84 C85 1_555 1_555
C95 C96 1_555 1_555
C97 C98 1_555 1_555
C97 C100 1_555 1_555

#END
