
#######################################################################
#
#                 Cambridge Crystallographic Data Centre
#                                CCDC 
#
#######################################################################
#
# If this CIF has been generated from an entry in the Cambridge 
# Structural Database, then it will include bibliographic, chemical, 
# crystal, experimental, refinement or atomic coordinate data resulting 
# from the CCDC's data processing and validation procedures.
#
#######################################################################

data_EDOXOL
_chemical_formula_moiety         'C76 H120 O8'
_chemical_name_systematic        
4,10,16,22-tetrahydroxy-6,12,18,24-tetramethoxy-2,8,14,20-tetra-n-undecylcalix(4)arene
_symmetry_cell_setting           monoclinic
_symmetry_space_group_name_H-M   'P 21/c'
_symmetry_Int_Tables_number      14
_space_group_name_Hall           '-P 2ybc'
loop_
_symmetry_equiv_pos_site_id
_symmetry_equiv_pos_as_xyz
1 x,y,z
2 -x,1/2+y,1/2-z
3 -x,-y,-z
4 x,1/2-y,1/2+z
_cell_length_a                   11.4872(2)
_cell_length_b                   51.4532(10)
_cell_length_c                   12.9436(2)
_cell_angle_alpha                90
_cell_angle_beta                 111.699(1)
_cell_angle_gamma                90
_cell_volume                     7108.24
_exptl_crystal_colour            colorless
_exptl_crystal_description       block
_cell_formula_units_Z            4
loop_
_atom_site_label
_atom_site_type_symbol
_atom_site_fract_x
_atom_site_fract_y
_atom_site_fract_z
C1 C 0.9209(4) 0.67207(9) 0.3739(3)
C2 C 0.8076(4) 0.66112(8) 0.3063(3)
H1 H 0.7781 0.6464 0.3338
C3 C 0.7344(4) 0.67027(8) 0.2006(3)
C4 C 0.7807(4) 0.69157(9) 0.1623(3)
O1 O 0.7052(3) 0.70060(6) 0.0582(2)
C5 C 0.7468(4) 0.72303(9) 0.0150(4)
H2 H 0.6850 0.7273 -0.0585
H3 H 0.8276 0.7193 0.0089
H4 H 0.7562 0.7378 0.0654
C6 C 0.8917(4) 0.70322(9) 0.2264(4)
H5 H 0.9206 0.7181 0.1993
C7 C 0.9616(4) 0.69330(9) 0.3307(4)
O2 O 1.0735(3) 0.70593(6) 0.3859(3)
H6 H 1.097(5) 0.7021(10) 0.454(4)
C8 C 0.6122(4) 0.65730(8) 0.1285(3)
H7 H 0.6095 0.6579 0.0504
C9 C 0.5002(4) 0.67299(8) 0.1296(3)
C10 C 0.4672(4) 0.67316(8) 0.2243(3)
H8 H 0.5181 0.6636 0.2878
C11 C 0.3648(4) 0.68642(8) 0.2299(3)
C12 C 0.2914(4) 0.70053(8) 0.1364(3)
O3 O 0.1933(3) 0.71441(6) 0.1462(2)
C13 C 0.1140(4) 0.72838(10) 0.0484(4)
H9 H 0.0474 0.7373 0.0648
H10 H 0.0765 0.7161 -0.0128
H11 H 0.1642 0.7412 0.0271
C14 C 0.3214(4) 0.70087(8) 0.0414(3)
H12 H 0.2707 0.7104 -0.0223
C15 C 0.4241(4) 0.68749(8) 0.0397(3)
O4 O 0.4484(3) 0.68942(7) -0.0570(2)
H13 H 0.520(4) 0.6895(10) -0.034(4)
C16 C 0.3294(4) 0.68418(8) 0.3327(3)
H14 H 0.2447 0.6923 0.3125
C17 C 0.4174(4) 0.69939(8) 0.4312(3)
C18 C 0.5194(4) 0.68807(9) 0.5131(3)
H15 H 0.5361 0.6702 0.5053
C19 C 0.5997(4) 0.70144(9) 0.6071(3)
C20 C 0.5698(4) 0.72720(9) 0.6189(3)
O5 O 0.6476(3) 0.73992(6) 0.7147(2)
C21 C 0.6005(4) 0.76269(9) 0.7480(3)
H16 H 0.6639 0.7697 0.8160
H17 H 0.5246 0.7584 0.7621
H18 H 0.5804 0.7758 0.6888
C22 C 0.4715(4) 0.73934(9) 0.5378(3)
H19 H 0.4557 0.7572 0.5451
C23 C 0.3953(4) 0.72561(9) 0.4453(4)
O6 O 0.3001(3) 0.73956(6) 0.3692(3)
H20 H 0.262(5) 0.7306(11) 0.323(4)
C24 C 0.7140(4) 0.68861(8) 0.6929(3)
H21 H 0.7267 0.6973 0.7655
C25 C 0.8329(4) 0.69326(8) 0.6708(3)
C26 C 0.8595(4) 0.67802(8) 0.5932(3)
H22 H 0.7979 0.6659 0.5506
C27 C 0.9713(4) 0.67950(9) 0.5746(3)
C28 C 1.0593(4) 0.69778(9) 0.6380(4)
O7 O 1.1689(3) 0.69884(6) 0.6158(2)
C29 C 1.2763(4) 0.70984(11) 0.6931(4)
H23 H 1.3446 0.7089 0.6650
H24 H 1.3001 0.7003 0.7634
H25 H 1.2599 0.7280 0.7053
C30 C 1.0356(4) 0.71400(9) 0.7139(3)
H26 H 1.0958 0.7264 0.7557
C31 C 0.9219(4) 0.71159(9) 0.7270(3)
O8 O 0.9044(3) 0.72879(6) 0.8030(3)
H27 H 0.830(4) 0.7307(10) 0.786(4)
C32 C 0.9937(4) 0.66189(9) 0.4903(3)
H28 H 1.0845 0.6636 0.5022
C33 C 0.6030(4) 0.62873(8) 0.1557(4)
H29 H 0.5189 0.6222 0.1089
H30 H 0.6110 0.6273 0.2343
C34 C 0.7022(4) 0.61142(8) 0.1376(3)
H31 H 0.6896 0.6118 0.0577
H32 H 0.7860 0.6188 0.1796
C35 C 0.7001(4) 0.58329(9) 0.1732(4)
H33 H 0.7123 0.5829 0.2529
H34 H 0.6168 0.5758 0.1307
C36 C 0.7998(4) 0.56660(9) 0.1553(4)
H35 H 0.7867 0.5669 0.0753
H36 H 0.8828 0.5744 0.1966
C37 C 0.8017(5) 0.53867(10) 0.1913(4)
H37 H 0.7185 0.5308 0.1509
H38 H 0.8167 0.5382 0.2717
C38 C 0.9009(5) 0.52234(10) 0.1705(4)
H39 H 0.8855 0.5228 0.0900
H40 H 0.9840 0.5303 0.2104
C39 C 0.9052(5) 0.49427(10) 0.2065(5)
H41 H 0.9202 0.4938 0.2869
H42 H 0.8224 0.4862 0.1662
C40 C 1.0047(5) 0.47830(10) 0.1861(5)
H43 H 0.9897 0.4788 0.1057
H44 H 1.0874 0.4864 0.2264
C41 C 1.0092(6) 0.45031(11) 0.2216(6)
H45 H 0.9302 0.4417 0.1746
H46 H 1.0131 0.4498 0.2993
C42 C 1.1197(6) 0.43446(12) 0.2149(6)
H47 H 1.1993 0.4433 0.2587
H48 H 1.1204 0.4170 0.2476
C43 C 1.1107(8) 0.43166(14) 0.1011(6)
H49 H 1.1832 0.4219 0.0994
H50 H 1.1092 0.4489 0.0684
H51 H 1.0336 0.4223 0.0584
C44 C 0.3151(4) 0.65531(9) 0.3589(3)
H52 H 0.3916 0.6457 0.3640
H53 H 0.3055 0.6540 0.4316
C45 C 0.2016(4) 0.64314(9) 0.2690(4)
H54 H 0.1249 0.6494 0.2789
H55 H 0.1984 0.6493 0.1956
C46 C 0.2000(5) 0.61378(10) 0.2684(4)
H56 H 0.2315 0.6076 0.3463
H57 H 0.1121 0.6079 0.2327
C47 C 0.2754(6) 0.60147(12) 0.2102(5)
H58 H 0.3644 0.6064 0.2483
H59 H 0.2471 0.6082 0.1331
C48 C 0.2647(7) 0.57171(13) 0.2071(6)
H60 H 0.2896 0.5653 0.2844
H61 H 0.1756 0.5670 0.1675
C49 C 0.3382(9) 0.55817(18) 0.1551(9)
H62 H 0.4260 0.5643 0.1878
H63 H 0.3059 0.5624 0.0748
C50 C 0.3352(12) 0.5282(2) 0.1694(10)
H64 H 0.3350 0.5251 0.2448
H65 H 0.2531 0.5222 0.1163
C51 C 0.4224(15) 0.5122(3) 0.1575(14)
H66 H 0.5051 0.5169 0.2140
H67 H 0.4265 0.5152 0.0834
C52 C 0.4006(13) 0.4856(3) 0.1681(14)
H68 H 0.3406 0.4833 0.2060
H69 H 0.3649 0.4774 0.0938
C53 C 0.5131(18) 0.4744(4) 0.2291(16)
H70 H 0.5782 0.4881 0.2555
H71 H 0.5067 0.4657 0.2951
C54 C 0.5459(13) 0.4573(3) 0.1695(12)
H72 H 0.6248 0.4491 0.2158
H73 H 0.5570 0.4661 0.1066
H74 H 0.4804 0.4441 0.1417
C55 C 0.6973(4) 0.65946(8) 0.7104(3)
H75 H 0.6759 0.6503 0.6384
H76 H 0.7779 0.6523 0.7620
C56 C 0.5961(4) 0.65391(9) 0.7569(4)
H77 H 0.5133 0.6585 0.7006
H78 H 0.6104 0.6649 0.8233
C57 C 0.5954(4) 0.62524(9) 0.7890(4)
H79 H 0.6763 0.6210 0.8489
H80 H 0.5877 0.6143 0.7239
C58 C 0.4886(5) 0.61846(11) 0.8285(4)
H81 H 0.5090 0.6020 0.8714
H82 H 0.4812 0.6323 0.8787
C59 C 0.3667(5) 0.61549(12) 0.7348(4)
H83 H 0.3735 0.6014 0.6853
H84 H 0.3468 0.6318 0.6911
C60 C 0.2594(5) 0.60914(11) 0.7750(5)
H85 H 0.2864 0.5948 0.8299
H86 H 0.1863 0.6029 0.7110
C61 C 0.2188(5) 0.63261(11) 0.8286(5)
H87 H 0.2919 0.6391 0.8921
H88 H 0.1894 0.6468 0.7734
C62 C 0.1163(5) 0.62542(11) 0.8687(5)
H89 H 0.1467 0.6113 0.9242
H90 H 0.0445 0.6185 0.8051
C63 C 0.0708(5) 0.64758(11) 0.9203(4)
H91 H 0.0329 0.6610 0.8630
H92 H 0.1435 0.6555 0.9797
C64 C -0.0257(5) 0.63921(11) 0.9698(4)
H93 H -0.0944 0.6297 0.9126
H94 H 0.0147 0.6272 1.0326
C65 C -0.0794(5) 0.66159(12) 1.0098(4)
H95 H -0.1389 0.6552 1.0421
H96 H -0.1228 0.6732 0.9473
H97 H -0.0118 0.6711 1.0665
C66 C 0.9723(4) 0.63315(9) 0.5104(3)
H98 H 1.0055 0.6299 0.5915
H99 H 0.8810 0.6298 0.4821
C67 C 1.0332(4) 0.61412(9) 0.4558(4)
H100 H 1.1232 0.6185 0.4791
H101 H 0.9947 0.6164 0.3742
C68 C 1.0218(4) 0.58564(9) 0.4832(4)
H102 H 1.0366 0.5841 0.5633
H103 H 0.9354 0.5796 0.4406
C69 C 1.1132(5) 0.56834(9) 0.4565(4)
H104 H 1.1985 0.5756 0.4931
H105 H 1.0929 0.5688 0.3753
C70 C 1.1144(5) 0.53975(9) 0.4925(4)
H106 H 1.1295 0.5392 0.5729
H107 H 1.0311 0.5320 0.4519
C71 C 1.2134(5) 0.52353(10) 0.4711(4)
H108 H 1.2964 0.5316 0.5105
H109 H 1.1974 0.5239 0.3905
C72 C 1.2182(5) 0.49541(10) 0.5076(4)
H110 H 1.2326 0.4950 0.5879
H111 H 1.1357 0.4873 0.4671
C73 C 1.3186(5) 0.47938(10) 0.4882(5)
H112 H 1.4015 0.4870 0.5318
H113 H 1.3068 0.4805 0.4086
C74 C 1.3188(5) 0.45089(10) 0.5197(4)
H114 H 1.2349 0.4435 0.4778
H115 H 1.3329 0.4498 0.5998
C75 C 1.4169(5) 0.43417(11) 0.4977(5)
H116 H 1.4071 0.4361 0.4188
H117 H 1.5015 0.4405 0.5442
C76 C 1.4070(6) 0.40575(12) 0.5224(5)
H118 H 1.4718 0.3959 0.5069
H119 H 1.3242 0.3992 0.4755
H120 H 1.4186 0.4037 0.6009
loop_
_geom_bond_atom_site_label_1
_geom_bond_atom_site_label_2
_geom_bond_site_symmetry_1
_geom_bond_site_symmetry_2
C1 C2 1_555 1_555
C2 H1 1_555 1_555
C3 C2 1_555 1_555
C4 C3 1_555 1_555
O1 C4 1_555 1_555
C5 O1 1_555 1_555
H2 C5 1_555 1_555
H3 C5 1_555 1_555
H4 C5 1_555 1_555
C6 C4 1_555 1_555
H5 C6 1_555 1_555
C7 C1 1_555 1_555
O2 C7 1_555 1_555
H6 O2 1_555 1_555
C8 C3 1_555 1_555
H7 C8 1_555 1_555
C9 C8 1_555 1_555
C10 C9 1_555 1_555
H8 C10 1_555 1_555
C11 C10 1_555 1_555
C12 C11 1_555 1_555
O3 C12 1_555 1_555
C13 O3 1_555 1_555
H9 C13 1_555 1_555
H10 C13 1_555 1_555
H11 C13 1_555 1_555
C14 C12 1_555 1_555
H12 C14 1_555 1_555
C15 C9 1_555 1_555
O4 C15 1_555 1_555
H13 O4 1_555 1_555
C16 C11 1_555 1_555
H14 C16 1_555 1_555
C17 C16 1_555 1_555
C18 C17 1_555 1_555
H15 C18 1_555 1_555
C19 C18 1_555 1_555
C20 C19 1_555 1_555
O5 C20 1_555 1_555
C21 O5 1_555 1_555
H16 C21 1_555 1_555
H17 C21 1_555 1_555
H18 C21 1_555 1_555
C22 C20 1_555 1_555
H19 C22 1_555 1_555
C23 C17 1_555 1_555
O6 C23 1_555 1_555
H20 O6 1_555 1_555
C24 C19 1_555 1_555
H21 C24 1_555 1_555
C25 C24 1_555 1_555
C26 C25 1_555 1_555
H22 C26 1_555 1_555
C27 C26 1_555 1_555
C28 C27 1_555 1_555
O7 C28 1_555 1_555
C29 O7 1_555 1_555
H23 C29 1_555 1_555
H24 C29 1_555 1_555
H25 C29 1_555 1_555
C30 C28 1_555 1_555
H26 C30 1_555 1_555
C31 C25 1_555 1_555
O8 C31 1_555 1_555
H27 O8 1_555 1_555
C32 C1 1_555 1_555
H28 C32 1_555 1_555
C33 C8 1_555 1_555
H29 C33 1_555 1_555
H30 C33 1_555 1_555
C34 C33 1_555 1_555
H31 C34 1_555 1_555
H32 C34 1_555 1_555
C35 C34 1_555 1_555
H33 C35 1_555 1_555
H34 C35 1_555 1_555
C36 C35 1_555 1_555
H35 C36 1_555 1_555
H36 C36 1_555 1_555
C37 C36 1_555 1_555
H37 C37 1_555 1_555
H38 C37 1_555 1_555
C38 C37 1_555 1_555
H39 C38 1_555 1_555
H40 C38 1_555 1_555
C39 C38 1_555 1_555
H41 C39 1_555 1_555
H42 C39 1_555 1_555
C40 C39 1_555 1_555
H43 C40 1_555 1_555
H44 C40 1_555 1_555
C41 C40 1_555 1_555
H45 C41 1_555 1_555
H46 C41 1_555 1_555
C42 C41 1_555 1_555
H47 C42 1_555 1_555
H48 C42 1_555 1_555
C43 C42 1_555 1_555
H49 C43 1_555 1_555
H50 C43 1_555 1_555
H51 C43 1_555 1_555
C44 C16 1_555 1_555
H52 C44 1_555 1_555
H53 C44 1_555 1_555
C45 C44 1_555 1_555
H54 C45 1_555 1_555
H55 C45 1_555 1_555
C46 C45 1_555 1_555
H56 C46 1_555 1_555
H57 C46 1_555 1_555
C47 C46 1_555 1_555
H58 C47 1_555 1_555
H59 C47 1_555 1_555
C48 C47 1_555 1_555
H60 C48 1_555 1_555
H61 C48 1_555 1_555
C49 C48 1_555 1_555
H62 C49 1_555 1_555
H63 C49 1_555 1_555
C50 C49 1_555 1_555
H64 C50 1_555 1_555
H65 C50 1_555 1_555
C51 C50 1_555 1_555
H66 C51 1_555 1_555
H67 C51 1_555 1_555
C52 C51 1_555 1_555
H68 C52 1_555 1_555
H69 C52 1_555 1_555
C53 C52 1_555 1_555
H70 C53 1_555 1_555
H71 C53 1_555 1_555
C54 C53 1_555 1_555
H72 C54 1_555 1_555
H73 C54 1_555 1_555
H74 C54 1_555 1_555
C55 C24 1_555 1_555
H75 C55 1_555 1_555
H76 C55 1_555 1_555
C56 C55 1_555 1_555
H77 C56 1_555 1_555
H78 C56 1_555 1_555
C57 C56 1_555 1_555
H79 C57 1_555 1_555
H80 C57 1_555 1_555
C58 C57 1_555 1_555
H81 C58 1_555 1_555
H82 C58 1_555 1_555
C59 C58 1_555 1_555
H83 C59 1_555 1_555
H84 C59 1_555 1_555
C60 C59 1_555 1_555
H85 C60 1_555 1_555
H86 C60 1_555 1_555
C61 C60 1_555 1_555
H87 C61 1_555 1_555
H88 C61 1_555 1_555
C62 C61 1_555 1_555
H89 C62 1_555 1_555
H90 C62 1_555 1_555
C63 C62 1_555 1_555
H91 C63 1_555 1_555
H92 C63 1_555 1_555
C64 C63 1_555 1_555
H93 C64 1_555 1_555
H94 C64 1_555 1_555
C65 C64 1_555 1_555
H95 C65 1_555 1_555
H96 C65 1_555 1_555
H97 C65 1_555 1_555
C66 C32 1_555 1_555
H98 C66 1_555 1_555
H99 C66 1_555 1_555
C67 C66 1_555 1_555
H100 C67 1_555 1_555
H101 C67 1_555 1_555
C68 C67 1_555 1_555
H102 C68 1_555 1_555
H103 C68 1_555 1_555
C69 C68 1_555 1_555
H104 C69 1_555 1_555
H105 C69 1_555 1_555
C70 C69 1_555 1_555
H106 C70 1_555 1_555
H107 C70 1_555 1_555
C71 C70 1_555 1_555
H108 C71 1_555 1_555
H109 C71 1_555 1_555
C72 C71 1_555 1_555
H110 C72 1_555 1_555
H111 C72 1_555 1_555
C73 C72 1_555 1_555
H112 C73 1_555 1_555
H113 C73 1_555 1_555
C74 C73 1_555 1_555
H114 C74 1_555 1_555
H115 C74 1_555 1_555
C75 C74 1_555 1_555
H116 C75 1_555 1_555
H117 C75 1_555 1_555
C76 C75 1_555 1_555
H118 C76 1_555 1_555
H119 C76 1_555 1_555
H120 C76 1_555 1_555
C6 C7 1_555 1_555
C14 C15 1_555 1_555
C22 C23 1_555 1_555
C27 C32 1_555 1_555
C30 C31 1_555 1_555

#END
