
#######################################################################
#
#                 Cambridge Crystallographic Data Centre
#                                CCDC 
#
#######################################################################
#
# If this CIF has been generated from an entry in the Cambridge 
# Structural Database, then it will include bibliographic, chemical, 
# crystal, experimental, refinement or atomic coordinate data resulting 
# from the CCDC's data processing and validation procedures.
#
#######################################################################

data_EDUCIR
_chemical_formula_moiety         'C36 H58 Li1 N6 Na1 Si2'
_chemical_name_systematic        
bis(\m~2~-N-(t-Butyldimethylsilyl)quinolin-8-amido)-(N,N,N',N'-tetramethylethane-1,2-diamine)-lithium(i)-sodium(i)
_symmetry_cell_setting           monoclinic
_symmetry_space_group_name_H-M   'C 2/c'
_symmetry_Int_Tables_number      15
_space_group_name_Hall           '-C 2yn'
loop_
_symmetry_equiv_pos_site_id
_symmetry_equiv_pos_as_xyz
1 x,y,z
2 -x,y,1/2-z
3 1/2+x,1/2+y,z
4 1/2-x,1/2+y,1/2-z
5 -x,-y,-z
6 x,-y,1/2+z
7 1/2-x,1/2-y,-z
8 1/2+x,1/2-y,1/2+z
_cell_length_a                   12.653(2)
_cell_length_b                   18.542(3)
_cell_length_c                   18.296(3)
_cell_angle_alpha                90
_cell_angle_beta                 108.794(3)
_cell_angle_gamma                90
_cell_volume                     4063.6
_exptl_crystal_colour            red
_exptl_crystal_description       block
_cell_formula_units_Z            4
_exptl_crystal_recrystallization_method hexane
loop_
_atom_site_label
_atom_site_type_symbol
_atom_site_fract_x
_atom_site_fract_y
_atom_site_fract_z
Si1 Si 0.79825(8) 0.03304(5) 0.11244(5)
Na1 Na 1.0000 -0.04676(9) 0.2500
Li1 Li 1.0000 0.1121(4) 0.2500
N1 N 0.9134(3) 0.16649(16) 0.30734(17)
N2 N 0.8563(2) 0.05043(13) 0.20820(14)
N3 N 1.0507(4) -0.15746(18) 0.1852(2)
C1 C 0.9395(4) 0.2245(2) 0.3513(2)
H1 H 0.9985 0.2530 0.3483
C2 C 0.8829(5) 0.2453(3) 0.4023(3)
H2 H 0.9042 0.2862 0.4329
C3 C 0.7970(5) 0.2042(4) 0.4057(3)
H3 H 0.7591 0.2170 0.4397
C4 C 0.7628(4) 0.1428(3) 0.3595(2)
C5 C 0.6742(4) 0.1006(4) 0.3607(3)
H4 H 0.6337 0.1117 0.3936
C6 C 0.6462(4) 0.0414(3) 0.3125(3)
H5 H 0.5867 0.0124 0.3134
C7 C 0.7050(3) 0.0245(2) 0.2627(2)
H6 H 0.6828 -0.0158 0.2311
C8 C 0.7963(3) 0.06445(18) 0.25710(18)
C9 C 0.8254(3) 0.1260(2) 0.30898(18)
C10 C 0.9163(3) 0.0301(2) 0.0717(2)
H7 H 0.8932 0.0517 0.0214
H8 H 0.9374 -0.0192 0.0679
H9 H 0.9789 0.0561 0.1050
C11 C 0.7207(4) -0.05573(19) 0.0867(2)
H10 H 0.6527 -0.0483 0.0447
H11 H 0.7035 -0.0738 0.1307
H12 H 0.7666 -0.0900 0.0715
C12 C 0.6967(3) 0.10601(18) 0.05847(19)
C13 C 0.7530(4) 0.1797(2) 0.0801(3)
H13 H 0.7026 0.2170 0.0534
H14 H 0.8195 0.1814 0.0657
H15 H 0.7721 0.1869 0.1348
C14 C 0.5904(3) 0.1066(2) 0.0806(2)
H16 H 0.5416 0.1439 0.0525
H17 H 0.6091 0.1154 0.1350
H18 H 0.5537 0.0607 0.0683
C15 C 0.6644(4) 0.0951(3) -0.0291(2)
H19 H 0.6132 0.1323 -0.0551
H20 H 0.6295 0.0489 -0.0426
H21 H 0.7301 0.0974 -0.0443
C16 C 1.1708(6) -0.1574(4) 0.2048(4)
H22 H 1.1936 -0.1983 0.1814
H23 H 1.2042 -0.1601 0.2598
H24 H 1.1942 -0.1139 0.1861
C17 C 1.0020(6) -0.1651(3) 0.1025(3)
H25 H 1.0289 -0.2087 0.0862
H26 H 1.0226 -0.1246 0.0774
H27 H 0.9222 -0.1673 0.0889
C18 C 1.0183(8) -0.2176(3) 0.2183(4)
H28 H 0.9594 -0.2404 0.1771
H29 H 1.0813 -0.2504 0.2310
Si1A Si 1.20175(8) 0.03304(5) 0.38756(5)
N1A N 1.0866(3) 0.16649(16) 0.19266(17)
N2A N 1.1437(2) 0.05043(13) 0.29180(14)
N3A N 0.9493(4) -0.15746(18) 0.3148(2)
C1A C 1.0605(4) 0.2245(2) 0.1487(2)
H1A H 1.0015 0.2530 0.1517
C2A C 1.1171(5) 0.2453(3) 0.0977(3)
H2A H 1.0958 0.2862 0.0671
C3A C 1.2030(5) 0.2042(4) 0.0943(3)
H3A H 1.2409 0.2170 0.0603
C4A C 1.2372(4) 0.1428(3) 0.1405(2)
C5A C 1.3258(4) 0.1006(4) 0.1393(3)
H4A H 1.3663 0.1117 0.1064
C6A C 1.3538(4) 0.0414(3) 0.1875(3)
H5A H 1.4133 0.0124 0.1866
C7A C 1.2950(3) 0.0245(2) 0.2373(2)
H6A H 1.3172 -0.0158 0.2689
C8A C 1.2037(3) 0.06445(18) 0.24290(18)
C9A C 1.1746(3) 0.1260(2) 0.19102(18)
C10A C 1.0837(3) 0.0301(2) 0.4283(2)
H7A H 1.1068 0.0517 0.4786
H8A H 1.0626 -0.0192 0.4321
H9A H 1.0211 0.0561 0.3950
C11A C 1.2793(4) -0.05573(19) 0.4133(2)
H10A H 1.3473 -0.0483 0.4553
H11A H 1.2965 -0.0738 0.3693
H12A H 1.2334 -0.0900 0.4285
C12A C 1.3033(3) 0.10601(18) 0.44153(19)
C13A C 1.2470(4) 0.1797(2) 0.4199(3)
H13A H 1.2974 0.2170 0.4466
H14A H 1.1805 0.1814 0.4343
H15A H 1.2279 0.1869 0.3652
C14A C 1.4096(3) 0.1066(2) 0.4194(2)
H16A H 1.4584 0.1439 0.4475
H17A H 1.3909 0.1154 0.3650
H18A H 1.4463 0.0607 0.4317
C15A C 1.3356(4) 0.0951(3) 0.5291(2)
H19A H 1.3868 0.1323 0.5551
H20A H 1.3705 0.0489 0.5426
H21A H 1.2699 0.0974 0.5443
C16A C 0.8292(6) -0.1574(4) 0.2952(4)
H22A H 0.8064 -0.1983 0.3186
H23A H 0.7958 -0.1601 0.2402
H24A H 0.8058 -0.1139 0.3139
C17A C 0.9980(6) -0.1651(3) 0.3975(3)
H25A H 0.9711 -0.2087 0.4138
H26A H 0.9774 -0.1246 0.4226
H27A H 1.0778 -0.1673 0.4111
C18A C 0.9817(8) -0.2176(3) 0.2817(4)
H28A H 1.0406 -0.2404 0.3229
H29A H 0.9187 -0.2504 0.2690
loop_
_geom_bond_atom_site_label_1
_geom_bond_atom_site_label_2
_geom_bond_site_symmetry_1
_geom_bond_site_symmetry_2
Si1 N2 1_555 1_555
Na1 N2 1_555 1_555
Li1 N1 1_555 1_555
N1 C1 1_555 1_555
N2 Li1 1_555 1_555
N3 Na1 1_555 1_555
C1 H1 1_555 1_555
C2 C1 1_555 1_555
H2 C2 1_555 1_555
C3 C2 1_555 1_555
H3 C3 1_555 1_555
C4 C3 1_555 1_555
C5 C4 1_555 1_555
H4 C5 1_555 1_555
C6 C5 1_555 1_555
H5 C6 1_555 1_555
C7 C6 1_555 1_555
H6 C7 1_555 1_555
C8 N2 1_555 1_555
C9 N1 1_555 1_555
C10 Si1 1_555 1_555
H7 C10 1_555 1_555
H8 C10 1_555 1_555
H9 C10 1_555 1_555
C11 Si1 1_555 1_555
H10 C11 1_555 1_555
H11 C11 1_555 1_555
H12 C11 1_555 1_555
C12 Si1 1_555 1_555
C13 C12 1_555 1_555
H13 C13 1_555 1_555
H14 C13 1_555 1_555
H15 C13 1_555 1_555
C14 C12 1_555 1_555
H16 C14 1_555 1_555
H17 C14 1_555 1_555
H18 C14 1_555 1_555
C15 C12 1_555 1_555
H19 C15 1_555 1_555
H20 C15 1_555 1_555
H21 C15 1_555 1_555
C16 N3 1_555 1_555
H22 C16 1_555 1_555
H23 C16 1_555 1_555
H24 C16 1_555 1_555
C17 N3 1_555 1_555
H25 C17 1_555 1_555
H26 C17 1_555 1_555
H27 C17 1_555 1_555
C18 N3 1_555 1_555
H28 C18 1_555 1_555
H29 C18 1_555 1_555
Si1A N2A 1_555 1_555
N1A Li1 1_555 1_555
N2A Na1 1_555 1_555
N3A Na1 1_555 1_555
C1A N1A 1_555 1_555
H1A C1A 1_555 1_555
C2A C1A 1_555 1_555
H2A C2A 1_555 1_555
C3A C2A 1_555 1_555
H3A C3A 1_555 1_555
C4A C3A 1_555 1_555
C5A C4A 1_555 1_555
H4A C5A 1_555 1_555
C6A C5A 1_555 1_555
H5A C6A 1_555 1_555
C7A C6A 1_555 1_555
H6A C7A 1_555 1_555
C8A N2A 1_555 1_555
C9A N1A 1_555 1_555
C10A Si1A 1_555 1_555
H7A C10A 1_555 1_555
H8A C10A 1_555 1_555
H9A C10A 1_555 1_555
C11A Si1A 1_555 1_555
H10A C11A 1_555 1_555
H11A C11A 1_555 1_555
H12A C11A 1_555 1_555
C12A Si1A 1_555 1_555
C13A C12A 1_555 1_555
H13A C13A 1_555 1_555
H14A C13A 1_555 1_555
H15A C13A 1_555 1_555
C14A C12A 1_555 1_555
H16A C14A 1_555 1_555
H17A C14A 1_555 1_555
H18A C14A 1_555 1_555
C15A C12A 1_555 1_555
H19A C15A 1_555 1_555
H20A C15A 1_555 1_555
H21A C15A 1_555 1_555
C16A N3A 1_555 1_555
H22A C16A 1_555 1_555
H23A C16A 1_555 1_555
H24A C16A 1_555 1_555
C17A N3A 1_555 1_555
H25A C17A 1_555 1_555
H26A C17A 1_555 1_555
H27A C17A 1_555 1_555
C18A C18 1_555 1_555
H28A C18A 1_555 1_555
H29A C18A 1_555 1_555
Li1 N2A 1_555 1_555
C4 C9 1_555 1_555
C7 C8 1_555 1_555
C8 C9 1_555 1_555
N3A C18A 1_555 1_555
C4A C9A 1_555 1_555
C7A C8A 1_555 1_555
C8A C9A 1_555 1_555

#END
