
#######################################################################
#
#                 Cambridge Crystallographic Data Centre
#                                CCDC 
#
#######################################################################
#
# If this CIF has been generated from an entry in the Cambridge 
# Structural Database, then it will include bibliographic, chemical, 
# crystal, experimental, refinement or atomic coordinate data resulting 
# from the CCDC's data processing and validation procedures.
#
#######################################################################

data_EDUCUE
_chemical_formula_moiety         'C13 H14 Cl1 N1 O1'
_chemical_name_systematic        
4-chloro-3-phenylhexahydrocyclopenta[b]pyrrol-2(1H)-one
_symmetry_cell_setting           monoclinic
_symmetry_space_group_name_H-M   'P 21/n'
_symmetry_Int_Tables_number      14
_space_group_name_Hall           '-P 2yn'
loop_
_symmetry_equiv_pos_site_id
_symmetry_equiv_pos_as_xyz
1 x,y,z
2 1/2-x,1/2+y,1/2-z
3 -x,-y,-z
4 1/2+x,1/2-y,1/2+z
_cell_length_a                   9.3467(3)
_cell_length_b                   5.7485(2)
_cell_length_c                   22.2673(7)
_cell_angle_alpha                90
_cell_angle_beta                 99.103(2)
_cell_angle_gamma                90
_cell_volume                     1181.34
_exptl_crystal_colour            colorless
_exptl_crystal_description       prism
_cell_formula_units_Z            4
loop_
_atom_site_label
_atom_site_type_symbol
_atom_site_fract_x
_atom_site_fract_y
_atom_site_fract_z
C1 C 0.71006(19) 0.8237(3) 0.96445(7)
H1 H 0.6775 0.6869 0.9865
C2 C 0.8609(2) 0.7875(4) 0.95088(11)
H2 H 0.8739 0.6269 0.9367
H3 H 0.9341 0.8189 0.9872
C3 C 0.8716(2) 0.9622(4) 0.90116(11)
H4 H 0.9478 0.9168 0.8772
H5 H 0.8939 1.1192 0.9184
C4 C 0.7220(2) 0.9575(3) 0.86175(8)
H6 H 0.6905 1.1167 0.8472
C5 C 0.63770(15) 0.6030(3) 0.81539(6)
C6 C 0.56683(16) 0.6155(3) 0.87281(6)
H7 H 0.6068 0.4877 0.9010
C7 C 0.61738(16) 0.8519(3) 0.90210(6)
H8 H 0.5332 0.9574 0.9041
C8 C 0.40427(16) 0.5855(3) 0.85732(6)
C9 C 0.32124(18) 0.7443(3) 0.81949(7)
H9 H 0.3666 0.8749 0.8043
C10 C 0.17297(19) 0.7135(4) 0.80372(8)
H10 H 0.1172 0.8225 0.7778
C11 C 0.1064(2) 0.5249(4) 0.82561(9)
H11 H 0.0049 0.5032 0.8146
C12 C 0.1875(2) 0.3673(4) 0.86360(10)
H12 H 0.1416 0.2378 0.8790
C13 C 0.33578(18) 0.3980(3) 0.87925(8)
H13 H 0.3910 0.2889 0.9053
N1 N 0.71493(16) 0.7942(2) 0.81153(6)
H14 H 0.7595 0.8208 0.7802
O1 O 0.62394(12) 0.4389(2) 0.77945(5)
Cl1 Cl 0.70441(5) 1.08961(8) 1.008574(19)
loop_
_geom_bond_atom_site_label_1
_geom_bond_atom_site_label_2
_geom_bond_site_symmetry_1
_geom_bond_site_symmetry_2
C1 H1 1_555 1_555
C2 C1 1_555 1_555
H2 C2 1_555 1_555
H3 C2 1_555 1_555
C3 C2 1_555 1_555
H4 C3 1_555 1_555
H5 C3 1_555 1_555
C4 C3 1_555 1_555
H6 C4 1_555 1_555
C5 C6 1_555 1_555
C6 H7 1_555 1_555
C7 C1 1_555 1_555
H8 C7 1_555 1_555
C8 C6 1_555 1_555
C9 C8 1_555 1_555
H9 C9 1_555 1_555
C10 C9 1_555 1_555
H10 C10 1_555 1_555
C11 C10 1_555 1_555
H11 C11 1_555 1_555
C12 C11 1_555 1_555
H12 C12 1_555 1_555
C13 C8 1_555 1_555
H13 C13 1_555 1_555
N1 C4 1_555 1_555
H14 N1 1_555 1_555
O1 C5 1_555 1_555
Cl1 C1 1_555 1_555
C4 C7 1_555 1_555
C5 N1 1_555 1_555
C6 C7 1_555 1_555
C12 C13 1_555 1_555

#END
