
#######################################################################
#
#                 Cambridge Crystallographic Data Centre
#                                CCDC 
#
#######################################################################
#
# If this CIF has been generated from an entry in the Cambridge 
# Structural Database, then it will include bibliographic, chemical, 
# crystal, experimental, refinement or atomic coordinate data resulting 
# from the CCDC's data processing and validation procedures.
#
#######################################################################

data_EDUDEP
_chemical_formula_moiety         'C21 H22 Cl1 N1 O3 S1'
_chemical_name_systematic        
4-chloro-3-(4-methylphenyl)-1-((4-methylphenyl)sulfonyl)hexahydrocyclopenta[b]pyrrol-2(1H)-one
_symmetry_cell_setting           monoclinic
_symmetry_space_group_name_H-M   'C 2/c'
_symmetry_Int_Tables_number      15
_space_group_name_Hall           '-C 2yn'
loop_
_symmetry_equiv_pos_site_id
_symmetry_equiv_pos_as_xyz
1 x,y,z
2 -x,y,1/2-z
3 1/2+x,1/2+y,z
4 1/2-x,1/2+y,1/2-z
5 -x,-y,-z
6 x,-y,1/2+z
7 1/2-x,1/2-y,-z
8 1/2+x,1/2-y,1/2+z
_cell_length_a                   15.3340(7)
_cell_length_b                   9.0523(4)
_cell_length_c                   28.9319(12)
_cell_angle_alpha                90
_cell_angle_beta                 101.982(2)
_cell_angle_gamma                90
_cell_volume                     3928.48
_exptl_crystal_colour            colorless
_exptl_crystal_description       prism
_cell_formula_units_Z            8
loop_
_atom_site_label
_atom_site_type_symbol
_atom_site_fract_x
_atom_site_fract_y
_atom_site_fract_z
C1 C 0.82124(17) 0.1177(3) 0.44632(9)
C2 C 0.85009(18) 0.0164(3) 0.48226(9)
H1 H 0.9111 -0.0116 0.4904
C3 C 0.78910(19) -0.0433(3) 0.50608(9)
H2 H 0.8087 -0.1129 0.5306
C4 C 0.69981(18) -0.0038(3) 0.49493(8)
C5 C 0.6328(2) -0.0744(4) 0.51917(10)
H3 H 0.6631 -0.1454 0.5427
H4 H 0.5877 -0.1259 0.4958
H5 H 0.6040 0.0018 0.5348
C6 C 0.67315(18) 0.1014(3) 0.45988(9)
H6 H 0.6126 0.1321 0.4526
C7 C 0.73262(19) 0.1623(3) 0.43539(9)
H7 H 0.7132 0.2337 0.4114
C8 C 0.96921(16) -0.0243(3) 0.36396(9)
H8 H 1.0258 0.0337 0.3683
C9 C 0.9802(2) -0.1582(3) 0.39637(11)
H9 H 0.9566 -0.1379 0.4251
H10 H 1.0437 -0.1869 0.4059
C10 C 0.9263(2) -0.2786(3) 0.36667(12)
H11 H 0.9468 -0.3779 0.3785
H12 H 0.8620 -0.2688 0.3667
C11 C 0.94401(19) -0.2520(3) 0.31781(11)
H13 H 0.8978 -0.3004 0.2929
C12 C 0.94163(16) -0.0833(3) 0.31258(9)
H14 H 0.9845 -0.0495 0.2931
C13 C 0.84672(15) -0.0252(3) 0.29198(8)
H15 H 0.8048 -0.1108 0.2852
C14 C 0.84171(14) 0.0639(3) 0.24717(8)
C15 C 0.80432(17) 0.0047(3) 0.20328(9)
H16 H 0.7786 -0.0912 0.2012
C16 C 0.80437(18) 0.0848(3) 0.16265(9)
H17 H 0.7789 0.0426 0.1328
C17 C 0.84071(17) 0.2251(3) 0.16435(9)
C18 C 0.87697(18) 0.2837(3) 0.20831(9)
H18 H 0.9020 0.3801 0.2104
C19 C 0.87758(18) 0.2048(3) 0.24927(9)
H19 H 0.9028 0.2474 0.2790
C20 C 0.82147(16) 0.0691(3) 0.33048(8)
C21 C 0.8409(2) 0.3135(3) 0.12002(10)
H20 H 0.8696 0.4092 0.1286
H21 H 0.7794 0.3292 0.1029
H22 H 0.8738 0.2593 0.0998
N1 N 0.89348(13) 0.0715(2) 0.36894(7)
O1 O 0.98586(14) 0.1692(2) 0.44205(8)
O2 O 0.86864(17) 0.3284(2) 0.39566(8)
O3 O 0.75205(12) 0.1329(2) 0.32916(6)
S1 S 0.89795(5) 0.18720(7) 0.41443(2)
Cl1 Cl 1.05477(5) -0.31640(9) 0.31583(3)
loop_
_geom_bond_atom_site_label_1
_geom_bond_atom_site_label_2
_geom_bond_site_symmetry_1
_geom_bond_site_symmetry_2
C1 C2 1_555 1_555
C2 H1 1_555 1_555
C3 C2 1_555 1_555
H2 C3 1_555 1_555
C4 C3 1_555 1_555
C5 C4 1_555 1_555
H3 C5 1_555 1_555
H4 C5 1_555 1_555
H5 C5 1_555 1_555
C6 C4 1_555 1_555
H6 C6 1_555 1_555
C7 C1 1_555 1_555
H7 C7 1_555 1_555
C8 H8 1_555 1_555
C9 C8 1_555 1_555
H9 C9 1_555 1_555
H10 C9 1_555 1_555
C10 C9 1_555 1_555
H11 C10 1_555 1_555
H12 C10 1_555 1_555
C11 C10 1_555 1_555
H13 C11 1_555 1_555
C12 C8 1_555 1_555
H14 C12 1_555 1_555
C13 C12 1_555 1_555
H15 C13 1_555 1_555
C14 C13 1_555 1_555
C15 C14 1_555 1_555
H16 C15 1_555 1_555
C16 C15 1_555 1_555
H17 C16 1_555 1_555
C17 C16 1_555 1_555
C18 C17 1_555 1_555
H18 C18 1_555 1_555
C19 C14 1_555 1_555
H19 C19 1_555 1_555
C20 C13 1_555 1_555
C21 C17 1_555 1_555
H20 C21 1_555 1_555
H21 C21 1_555 1_555
H22 C21 1_555 1_555
N1 C8 1_555 1_555
O1 S1 1_555 1_555
O2 S1 1_555 1_555
O3 C20 1_555 1_555
S1 C1 1_555 1_555
Cl1 C11 1_555 1_555
C6 C7 1_555 1_555
C11 C12 1_555 1_555
C18 C19 1_555 1_555
C20 N1 1_555 1_555
N1 S1 1_555 1_555

#END
