
#######################################################################
#
#                 Cambridge Crystallographic Data Centre
#                                CCDC 
#
#######################################################################
#
# If this CIF has been generated from an entry in the Cambridge 
# Structural Database, then it will include bibliographic, chemical, 
# crystal, experimental, refinement or atomic coordinate data resulting 
# from the CCDC's data processing and validation procedures.
#
#######################################################################

data_EDUDUF
_chemical_formula_moiety         'C18 H18 Cl1 N1 O3 S2'
_chemical_name_systematic        
4-chloro-1-((4-methylphenyl)sulfonyl)-3-(3-thienyl)hexahydrocyclopenta[b]pyrrol-2(1H)-one
_symmetry_cell_setting           triclinic
_symmetry_space_group_name_H-M   'P -1'
_symmetry_Int_Tables_number      2
_space_group_name_Hall           '-P 1'
loop_
_symmetry_equiv_pos_site_id
_symmetry_equiv_pos_as_xyz
1 x,y,z
2 -x,-y,-z
_cell_length_a                   8.5913(7)
_cell_length_b                   8.9672(7)
_cell_length_c                   26.615(2)
_cell_angle_alpha                90.669(3)
_cell_angle_beta                 94.048(3)
_cell_angle_gamma                116.617(2)
_cell_volume                     1826.39
_exptl_crystal_colour            colorless
_exptl_crystal_description       prism
_cell_formula_units_Z            4
loop_
_atom_site_label
_atom_site_type_symbol
_atom_site_fract_x
_atom_site_fract_y
_atom_site_fract_z
C1 C 0.4598(3) 0.1119(3) 0.06080(9)
C2 C 0.3993(3) -0.0468(3) 0.07904(10)
H1 H 0.4612 -0.0677 0.1069
C3 C 0.2478(3) -0.1742(3) 0.05617(10)
H2 H 0.2054 -0.2831 0.0686
C4 C 0.1565(3) -0.1461(3) 0.01538(9)
C5 C -0.0094(4) -0.2848(4) -0.00948(12)
H3 H -0.0368 -0.3882 0.0080
H4 H 0.0065 -0.3016 -0.0449
H5 H -0.1055 -0.2549 -0.0078
C6 C 0.2223(3) 0.0129(3) -0.00270(10)
H6 H 0.1624 0.0335 -0.0311
C7 C 0.3731(3) 0.1420(3) 0.01962(9)
H7 H 0.4167 0.2505 0.0068
C8 C 0.5613(3) 0.2602(3) 0.18592(9)
C9 C 0.5525(3) 0.3768(3) 0.22615(9)
H8 H 0.4448 0.3163 0.2442
C10 C 0.7113(3) 0.4318(3) 0.26299(9)
C11 C 0.7065(3) 0.4104(3) 0.31306(10)
H9 H 0.6018 0.3583 0.3295
C12 C 1.0061(4) 0.5511(4) 0.28868(12)
H10 H 1.1287 0.6056 0.2862
C13 C 0.8856(3) 0.5142(4) 0.24916(11)
H11 H 0.9144 0.5406 0.2155
C14 C 0.5403(3) 0.5207(3) 0.19775(9)
H12 H 0.6298 0.6315 0.2127
C15 C 0.3559(3) 0.5093(3) 0.19615(11)
H13 H 0.2932 0.4499 0.2256
C16 C 0.2650(4) 0.4138(4) 0.14701(13)
H14 H 0.1651 0.4355 0.1357
H15 H 0.2227 0.2922 0.1503
C17 C 0.4073(4) 0.4819(4) 0.11090(11)
H16 H 0.4233 0.5920 0.0994
H17 H 0.3790 0.4042 0.0811
C18 C 0.5698(3) 0.4974(3) 0.14184(9)
H18 H 0.6777 0.5932 0.1315
N1 N 0.5861(2) 0.3400(2) 0.14070(7)
O1 O 0.7684(2) 0.2151(3) 0.10766(7)
O2 O 0.7030(2) 0.4148(2) 0.05835(7)
O3 O 0.5536(2) 0.1240(2) 0.19181(7)
S1 S 0.64890(8) 0.27634(8) 0.09001(2)
S2 S 0.91160(10) 0.48827(10) 0.34344(3)
Cl1 Cl 0.37257(11) 0.71744(10) 0.19418(3)
C19 C 1.2422(3) 0.2891(3) 0.44330(9)
C20 C 1.3342(4) 0.4445(4) 0.42536(11)
H19 H 1.3913 0.4574 0.3953
C21 C 1.3426(4) 0.5811(4) 0.45144(12)
H20 H 1.4043 0.6885 0.4385
C22 C 1.2643(3) 0.5677(4) 0.49585(10)
C23 C 1.2748(5) 0.7181(4) 0.52390(13)
H21 H 1.3433 0.8184 0.5059
H22 H 1.3313 0.7274 0.5579
H23 H 1.1567 0.7068 0.5263
C24 C 1.1746(4) 0.4095(4) 0.51337(11)
H24 H 1.1202 0.3967 0.5440
C25 C 1.1619(4) 0.2703(4) 0.48775(10)
H25 H 1.0990 0.1626 0.5003
C26 C 1.0991(3) 0.1541(3) 0.31862(9)
C27 C 0.9360(3) 0.0646(3) 0.28278(9)
H26 H 0.8763 0.1377 0.2786
C28 C 0.9763(3) 0.0247(3) 0.23189(9)
C29 C 0.8858(3) 0.0256(3) 0.18830(9)
H27 H 0.7961 0.0604 0.1861
C30 C 1.1024(4) -0.0737(4) 0.17476(11)
H28 H 1.1780 -0.1147 0.1626
C31 C 1.1019(4) -0.0328(4) 0.22374(10)
H29 H 1.1778 -0.0417 0.2500
C32 C 0.8163(3) -0.0939(3) 0.30949(9)
H30 H 0.8054 -0.1972 0.2916
C33 C 0.6375(3) -0.1023(3) 0.31503(10)
H31 H 0.5995 -0.0545 0.2856
C34 C 0.6636(4) 0.0003(4) 0.36359(12)
H32 H 0.7215 0.1213 0.3578
H33 H 0.5505 -0.0283 0.3777
C35 C 0.7793(3) -0.0477(4) 0.39853(10)
H34 H 0.7084 -0.1509 0.4157
H35 H 0.8477 0.0429 0.4244
C36 C 0.8994(3) -0.0757(3) 0.36425(9)
H36 H 0.9117 -0.1782 0.3732
N2 N 1.0730(2) 0.0697(3) 0.36298(7)
O4 O 1.3870(2) 0.1570(3) 0.38763(8)
O5 O 1.1602(3) -0.0265(2) 0.44119(7)
O6 O 1.2286(2) 0.2786(2) 0.31082(7)
S3 S 1.22797(8) 0.11329(8) 0.41014(2)
S4 S 0.95137(9) -0.04285(9) 0.13775(2)
Cl2 Cl 0.48246(8) -0.31675(9) 0.32261(3)
loop_
_geom_bond_atom_site_label_1
_geom_bond_atom_site_label_2
_geom_bond_site_symmetry_1
_geom_bond_site_symmetry_2
C1 C2 1_555 1_555
C2 H1 1_555 1_555
C3 C2 1_555 1_555
H2 C3 1_555 1_555
C4 C3 1_555 1_555
C5 C4 1_555 1_555
H3 C5 1_555 1_555
H4 C5 1_555 1_555
H5 C5 1_555 1_555
C6 C4 1_555 1_555
H6 C6 1_555 1_555
C7 C1 1_555 1_555
H7 C7 1_555 1_555
C8 C9 1_555 1_555
C9 H8 1_555 1_555
C10 C9 1_555 1_555
C11 C10 1_555 1_555
H9 C11 1_555 1_555
C12 H10 1_555 1_555
C13 C10 1_555 1_555
H11 C13 1_555 1_555
C14 C9 1_555 1_555
H12 C14 1_555 1_555
C15 C14 1_555 1_555
H13 C15 1_555 1_555
C16 C15 1_555 1_555
H14 C16 1_555 1_555
H15 C16 1_555 1_555
C17 C16 1_555 1_555
H16 C17 1_555 1_555
H17 C17 1_555 1_555
C18 C14 1_555 1_555
H18 C18 1_555 1_555
N1 C8 1_555 1_555
O1 S1 1_555 1_555
O2 S1 1_555 1_555
O3 C8 1_555 1_555
S1 C1 1_555 1_555
S2 C11 1_555 1_555
Cl1 C15 1_555 1_555
C19 C20 1_555 1_555
C20 H19 1_555 1_555
C21 C20 1_555 1_555
H20 C21 1_555 1_555
C22 C21 1_555 1_555
C23 C22 1_555 1_555
H21 C23 1_555 1_555
H22 C23 1_555 1_555
H23 C23 1_555 1_555
C24 C22 1_555 1_555
H24 C24 1_555 1_555
C25 C19 1_555 1_555
H25 C25 1_555 1_555
C26 C27 1_555 1_555
C27 H26 1_555 1_555
C28 C27 1_555 1_555
C29 C28 1_555 1_555
H27 C29 1_555 1_555
C30 H28 1_555 1_555
C31 C28 1_555 1_555
H29 C31 1_555 1_555
C32 C27 1_555 1_555
H30 C32 1_555 1_555
C33 C32 1_555 1_555
H31 C33 1_555 1_555
C34 C33 1_555 1_555
H32 C34 1_555 1_555
H33 C34 1_555 1_555
C35 C34 1_555 1_555
H34 C35 1_555 1_555
H35 C35 1_555 1_555
C36 C32 1_555 1_555
H36 C36 1_555 1_555
N2 C26 1_555 1_555
O4 S3 1_555 1_555
O5 S3 1_555 1_555
O6 C26 1_555 1_555
S3 C19 1_555 1_555
S4 C29 1_555 1_555
Cl2 C33 1_555 1_555
C6 C7 1_555 1_555
C12 C13 1_555 1_555
C12 S2 1_555 1_555
C17 C18 1_555 1_555
C18 N1 1_555 1_555
N1 S1 1_555 1_555
C24 C25 1_555 1_555
C30 C31 1_555 1_555
C30 S4 1_555 1_555
C35 C36 1_555 1_555
C36 N2 1_555 1_555
N2 S3 1_555 1_555

#END
