
#######################################################################
#
#                 Cambridge Crystallographic Data Centre
#                                CCDC 
#
#######################################################################
#
# If this CIF has been generated from an entry in the Cambridge 
# Structural Database, then it will include bibliographic, chemical, 
# crystal, experimental, refinement or atomic coordinate data resulting 
# from the CCDC's data processing and validation procedures.
#
#######################################################################

data_EDUGES
_chemical_formula_moiety         'C84 H88 I8 O8,2(C2 H3 N1),2(C1 H2 Cl2)'
_chemical_name_systematic        
"2,8,14,20-tetra-n-hexyl-5,10,15,20-tetrakis(3,5-bis(iodo)phenyl)-4,24:6,10:12,16:18,22-O,O'- tetraethylenecalix[4]resorcinarene acetonitrile dichloromethane solvate"
_symmetry_cell_setting           triclinic
_symmetry_space_group_name_H-M   'P -1'
_symmetry_Int_Tables_number      2
_space_group_name_Hall           '-P 1'
loop_
_symmetry_equiv_pos_site_id
_symmetry_equiv_pos_as_xyz
1 x,y,z
2 -x,-y,-z
_cell_length_a                   14.1544(7)
_cell_length_b                   16.3348(9)
_cell_length_c                   21.5815(12)
_cell_angle_alpha                85.4550(10)
_cell_angle_beta                 82.5620(10)
_cell_angle_gamma                71.4600(10)
_cell_volume                     4687.22
_exptl_crystal_colour            colorless
_exptl_crystal_description       plate
_cell_formula_units_Z            2
loop_
_atom_site_label
_atom_site_type_symbol
_atom_site_fract_x
_atom_site_fract_y
_atom_site_fract_z
I1 I 0.866971(18) -0.446296(16) 0.494479(11)
I2 I 0.67163(3) -0.116315(19) 0.351546(19)
I3 I -0.16115(2) -0.24580(2) 0.616550(14)
I4 I 0.12646(2) -0.04004(2) 0.552002(15)
I5 I -0.108066(18) 0.110589(16) 0.047103(11)
I6 I 0.138086(19) 0.124025(16) 0.251066(11)
I7 I 0.68752(2) -0.31844(2) -0.205019(12)
I8 I 0.76553(2) -0.095737(19) -0.020752(14)
O1 O 0.49859(18) -0.43474(16) 0.42733(11)
O2 O 0.29221(18) -0.41281(16) 0.48356(11)
O3 O -0.00106(17) -0.26792(16) 0.38013(11)
O4 O 0.01763(17) -0.18049(16) 0.25710(11)
O5 O 0.22747(18) -0.18387(16) 0.06419(11)
O6 O 0.41444(19) -0.26855(16) -0.00751(11)
O7 O 0.71142(18) -0.42077(16) 0.09117(12)
O8 O 0.70572(18) -0.43060(16) 0.23399(11)
C1 C 0.5964(2) -0.4245(2) 0.32940(16)
C2 C 0.5203(2) -0.4514(2) 0.36415(15)
C3 C 0.4274(3) -0.3514(2) 0.44134(16)
H1 H 0.3878 -0.3237 0.4008
H2 H 0.4663 -0.3077 0.4529
C4 C 0.3543(3) -0.3625(2) 0.49584(16)
H3 H 0.3960 -0.3934 0.5350
H4 H 0.3060 -0.2988 0.5100
C5 C 0.2450(3) -0.3953(2) 0.42935(15)
C6 C 0.1504(3) -0.3315(2) 0.42966(15)
C7 C 0.0963(2) -0.3245(2) 0.37814(16)
C8 C -0.0123(3) -0.1774(2) 0.36946(16)
H5 H 0.0086 -0.1540 0.4100
H6 H -0.0910 -0.1423 0.3654
C9 C 0.0498(3) -0.1572(2) 0.31188(16)
H7 H 0.0417 -0.0885 0.3088
H8 H 0.1286 -0.1931 0.3147
C10 C 0.0913(2) -0.2267(2) 0.21341(15)
C11 C 0.1277(3) -0.1810(2) 0.16289(16)
C12 C 0.1956(3) -0.2286(2) 0.11558(15)
C13 C 0.3167(3) -0.1614(2) 0.06946(17)
H9 H 0.3556 -0.1997 0.1076
H10 H 0.2965 -0.0933 0.0797
C14 C 0.3841(3) -0.1788(2) 0.00886(18)
H11 H 0.3452 -0.1385 -0.0285
H12 H 0.4508 -0.1606 0.0126
C15 C 0.4606(3) -0.3266(2) 0.03810(15)
C16 C 0.5621(3) -0.3391(2) 0.04403(16)
C17 C 0.6093(3) -0.4005(2) 0.08820(16)
C18 C 0.7446(3) -0.3712(3) 0.13067(17)
H13 H 0.7422 -0.3096 0.1064
H14 H 0.8227 -0.4054 0.1372
C19 C 0.6856(3) -0.3531(2) 0.19439(17)
H15 H 0.7060 -0.3038 0.2160
H16 H 0.6058 -0.3284 0.1893
C20 C 0.6225(2) -0.4478(2) 0.26724(16)
C21 C 0.5745(2) -0.4949(2) 0.23929(15)
C22 C 0.4966(2) -0.5184(2) 0.27567(15)
H17 H 0.4571 -0.5537 0.2545
C23 C 0.4689(2) -0.4976(2) 0.33841(15)
C24 C 0.3841(2) -0.5218(2) 0.37966(16)
H18 H 0.4034 -0.5290 0.4275
C25 C 0.2852(2) -0.4485(2) 0.37888(15)
C26 C 0.2301(2) -0.4362(2) 0.32754(15)
H19 H 0.2620 -0.4752 0.2873
C27 C 0.1346(2) -0.3748(2) 0.32668(15)
C28 C 0.0758(3) -0.3632(2) 0.27069(15)
H20 H 0.0009 -0.3200 0.2847
C29 C 0.1212(2) -0.3171(2) 0.21658(15)
C30 C 0.1893(3) -0.3612(2) 0.16873(16)
H21 H 0.2140 -0.4310 0.1712
C31 C 0.2271(2) -0.3183(2) 0.11723(15)
C32 C 0.3004(3) -0.3659(2) 0.06379(15)
H22 H 0.2842 -0.3259 0.0212
C33 C 0.4074(3) -0.3753(2) 0.07413(15)
C34 C 0.4569(3) -0.4349(2) 0.11819(15)
H23 H 0.4158 -0.4715 0.1476
C35 C 0.5570(3) -0.4493(2) 0.12601(15)
C36 C 0.6092(2) -0.5206(2) 0.17160(15)
H24 H 0.6888 -0.5270 0.1636
C37 C 0.6491(3) -0.3765(2) 0.36001(16)
C38 C 0.7109(3) -0.4194(2) 0.40590(16)
H25 H 0.7168 -0.4855 0.4204
C39 C 0.7645(3) -0.3757(2) 0.43270(16)
C40 C 0.7565(3) -0.2904(2) 0.41726(18)
H26 H 0.7990 -0.2577 0.4383
C41 C 0.6916(3) -0.2483(2) 0.37364(19)
C42 C 0.6382(3) -0.2892(2) 0.34481(18)
H27 H 0.5886 -0.2542 0.3109
C43 C 0.1029(2) -0.2750(2) 0.48329(15)
C44 C 0.0199(3) -0.2877(2) 0.52018(16)
H28 H -0.0041 -0.3426 0.5137
C45 C -0.0314(3) -0.2289(2) 0.56518(17)
C46 C -0.0023(3) -0.1578(3) 0.57591(17)
H29 H -0.0433 -0.1127 0.6113
C47 C 0.0821(3) -0.1474(2) 0.53900(17)
C48 C 0.1334(3) -0.2033(2) 0.49270(16)
H30 H 0.1968 -0.1922 0.4638
C49 C 0.0921(2) -0.0852(2) 0.15893(15)
C50 C 0.0247(3) -0.0420(2) 0.11650(16)
H31 H -0.0008 -0.0783 0.0862
C51 C -0.0095(3) 0.0474(2) 0.11309(16)
C52 C 0.0226(3) 0.0958(2) 0.15108(17)
H32 H -0.0048 0.1655 0.1483
C53 C 0.0899(3) 0.0527(2) 0.19218(16)
C54 C 0.1264(3) -0.0375(2) 0.19636(16)
H33 H 0.1807 -0.0699 0.2283
C55 C 0.6178(3) -0.2949(2) -0.00430(17)
C56 C 0.6255(3) -0.3179(2) -0.06581(17)
H34 H 0.5946 -0.3670 -0.0765
C57 C 0.6725(3) -0.2782(3) -0.11320(17)
C58 C 0.7128(3) -0.2138(3) -0.10119(19)
H35 H 0.7496 -0.1831 -0.1385
C59 C 0.7036(3) -0.1910(2) -0.03959(19)
C60 C 0.6560(3) -0.2298(2) 0.00911(18)
H36 H 0.6487 -0.2100 0.0565
C61 C 0.3740(3) -0.6086(2) 0.36419(17)
H37 H 0.3085 -0.6183 0.3924
H38 H 0.3616 -0.6061 0.3152
C62 C 0.4661(3) -0.6857(2) 0.3761(2)
H39 H 0.4851 -0.6841 0.4232
H40 H 0.5299 -0.6817 0.3431
C63 C 0.4445(6) -0.7720(4) 0.3684(4)
H41 H 0.4237 -0.7742 0.3218
H42 H 0.3840 -0.7791 0.4030
C64 C 0.5506(7) -0.8486(6) 0.3792(5)
H43 H 0.5534 -0.9066 0.3564
H44 H 0.6135 -0.8275 0.3578
C65 C 0.5601(7) -0.8689(7) 0.4461(5)
H45 H 0.5787 -0.8178 0.4665
H46 H 0.6203 -0.9293 0.4521
C66 C 0.4616(12) -0.8773(13) 0.4794(9)
H47 H 0.4354 -0.9186 0.4532
H48 H 0.4057 -0.8136 0.4826
H49 H 0.4733 -0.9058 0.5263
C67 C 0.0620(3) -0.4473(2) 0.25135(16)
H50 H 0.0323 -0.4359 0.2062
H51 H 0.1348 -0.4971 0.2460
C68 C -0.0084(3) -0.4794(3) 0.29899(17)
H52 H -0.0788 -0.4274 0.3075
H53 H 0.0247 -0.4962 0.3430
C69 C -0.0300(3) -0.5578(2) 0.27788(17)
H54 H -0.0561 -0.5431 0.2317
H55 H 0.0393 -0.6118 0.2739
C70 C -0.1080(3) -0.5845(2) 0.32244(17)
H56 H -0.1774 -0.5305 0.3257
H57 H -0.0824 -0.5972 0.3688
C71 C -0.1307(3) -0.6637(3) 0.30417(18)
H58 H -0.0632 -0.7194 0.3046
H59 H -0.1520 -0.6533 0.2567
C72 C -0.2149(3) -0.6828(3) 0.34844(19)
H60 H -0.2280 -0.7403 0.3340
H61 H -0.2831 -0.6280 0.3471
H62 H -0.1937 -0.6937 0.3959
C73 C 0.2899(3) -0.4549(2) 0.05246(17)
H63 H 0.3459 -0.4842 0.0143
H64 H 0.3074 -0.4964 0.0942
C74 C 0.1883(3) -0.4536(3) 0.03693(19)
H65 H 0.1332 -0.4322 0.0773
H66 H 0.1912 -0.5191 0.0278
C75 C 0.1541(3) -0.3944(3) -0.0197(2)
H67 H 0.2148 -0.4070 -0.0578
H68 H 0.1354 -0.3272 -0.0075
C76 C 0.0621(3) -0.4101(3) -0.0410(2)
H69 H 0.0811 -0.4778 -0.0520
H70 H 0.0017 -0.3971 -0.0027
C77 C 0.0253(4) -0.3538(4) -0.0979(3)
H71 H 0.0856 -0.3656 -0.1362
H72 H 0.0037 -0.2859 -0.0868
C78 C -0.0646(4) -0.3739(4) -0.1178(3)
H73 H -0.0880 -0.3353 -0.1599
H74 H -0.1263 -0.3584 -0.0804
H75 H -0.0434 -0.4423 -0.1273
C79 C 0.5995(3) -0.6088(2) 0.15780(16)
H76 H 0.5226 -0.6087 0.1713
H77 H 0.6170 -0.6192 0.1078
C80 C 0.6707(3) -0.6821(2) 0.19375(17)
H78 H 0.7473 -0.6824 0.1785
H79 H 0.6555 -0.6682 0.2433
C81 C 0.6644(3) -0.7719(2) 0.18643(18)
H80 H 0.6782 -0.7868 0.1371
H81 H 0.5896 -0.7743 0.2041
C82 C 0.7429(3) -0.8386(2) 0.22299(19)
H82 H 0.8167 -0.8337 0.2053
H83 H 0.7284 -0.8215 0.2719
C83 C 0.7461(3) -0.9317(3) 0.2201(2)
H84 H 0.7617 -0.9506 0.1716
H85 H 0.6735 -0.9384 0.2387
C84 C 0.8282(3) -0.9912(3) 0.2584(2)
H86 H 0.9008 -0.9847 0.2394
H87 H 0.8299 -1.0580 0.2558
H88 H 0.8117 -0.9728 0.3070
Cl3 Cl 0.9276(2) -0.2560(2) 0.11075(18)
Cl4 Cl 0.7334(3) -0.1420(3) 0.15970(19)
C90 C 0.8604(7) -0.2008(7) 0.1707(5)
H102 H 0.8972 -0.1553 0.1820
H103 H 0.8604 -0.2455 0.2110
Cl7 Cl 0.4685(2) 0.07556(19) 0.20248(17)
Cl8 Cl 0.5000(3) -0.0123(3) 0.08399(17)
C92 C 0.4395(7) 0.0077(6) 0.1563(4)
H106 H 0.4510 -0.0543 0.1819
H107 H 0.3596 0.0340 0.1515
N1 N 0.4506(4) 0.8198(3) 0.2235(3)
C93 C 0.3545(3) 0.7117(3) 0.2561(2)
H108 H 0.3040 0.7140 0.2214
H109 H 0.3111 0.7276 0.3016
H110 H 0.4079 0.6470 0.2591
C94 C 0.4067(4) 0.7721(3) 0.2383(2)
N2 N 0.2703(5) 0.8643(4) 0.3675(3)
C95 C 0.3566(6) 0.9807(5) 0.3608(5)
H111 H 0.3659 1.0032 0.3122
H112 H 0.4298 0.9543 0.3780
H113 H 0.3105 1.0347 0.3890
C96 C 0.3083(5) 0.9145(5) 0.3652(3)
H89? H 0.5320 -0.6698 0.3537
H90? H 0.4715 -0.6916 0.4262
C85? C 0.4727(10) -0.7693(7) 0.3560(6)
H91? H 0.3972 -0.7730 0.3694
H92? H 0.4793 -0.7610 0.3052
C86? C 0.5333(8) -0.8544(7) 0.3660(5)
H93? H 0.5788 -0.8777 0.3224
H94? H 0.4859 -0.8953 0.3797
C87? C 0.6015(10) -0.8617(9) 0.4161(6)
H95? H 0.6264 -0.8047 0.4132
H96? H 0.6675 -0.9183 0.4088
C88? C 0.544(2) -0.8698(14) 0.4827(8)
H97? H 0.4658 -0.8297 0.4831
H98? H 0.5786 -0.8483 0.5178
H99? H 0.5472 -0.9370 0.4932
Cl1? Cl 0.9429(4) -0.2557(3) 0.0954(3)
Cl2? Cl 0.7453(5) -0.1565(5) 0.1694(4)
C89? C 0.8690(9) -0.1644(10) 0.1446(8)
H100? H 0.9073 -0.1681 0.1859
H101? H 0.8701 -0.1047 0.1185
Cl5? Cl 0.4539(6) 0.0742(5) 0.2249(5)
Cl6? Cl 0.5255(6) 0.0074(6) 0.0915(4)
C91? C 0.5288(19) -0.0095(14) 0.1715(8)
H104? H 0.6068 -0.0246 0.1803
H105? H 0.5071 -0.0674 0.1849
loop_
_geom_bond_atom_site_label_1
_geom_bond_atom_site_label_2
_geom_bond_site_symmetry_1
_geom_bond_site_symmetry_2
I1 C39 1_555 1_555
I2 C41 1_555 1_555
I3 C45 1_555 1_555
I4 C47 1_555 1_555
I5 C51 1_555 1_555
I6 C53 1_555 1_555
I7 C57 1_555 1_555
I8 C59 1_555 1_555
O1 C2 1_555 1_555
O2 C4 1_555 1_555
O3 C7 1_555 1_555
O4 C9 1_555 1_555
O5 C12 1_555 1_555
O6 C14 1_555 1_555
O7 C17 1_555 1_555
O8 C19 1_555 1_555
C1 C2 1_555 1_555
C2 C23 1_555 1_555
C3 O1 1_555 1_555
H1 C3 1_555 1_555
H2 C3 1_555 1_555
C4 C3 1_555 1_555
H3 C4 1_555 1_555
H4 C4 1_555 1_555
C5 O2 1_555 1_555
C6 C5 1_555 1_555
C7 C6 1_555 1_555
C8 O3 1_555 1_555
H5 C8 1_555 1_555
H6 C8 1_555 1_555
C9 C8 1_555 1_555
H7 C9 1_555 1_555
H8 C9 1_555 1_555
C10 O4 1_555 1_555
C11 C10 1_555 1_555
C12 C11 1_555 1_555
C13 O5 1_555 1_555
H9 C13 1_555 1_555
H10 C13 1_555 1_555
C14 C13 1_555 1_555
H11 C14 1_555 1_555
H12 C14 1_555 1_555
C15 O6 1_555 1_555
C16 C15 1_555 1_555
C17 C16 1_555 1_555
C18 O7 1_555 1_555
H13 C18 1_555 1_555
H14 C18 1_555 1_555
C19 C18 1_555 1_555
H15 C19 1_555 1_555
H16 C19 1_555 1_555
C20 O8 1_555 1_555
C21 C20 1_555 1_555
C22 C21 1_555 1_555
H17 C22 1_555 1_555
C23 C22 1_555 1_555
C24 C23 1_555 1_555
H18 C24 1_555 1_555
C25 C5 1_555 1_555
C26 C25 1_555 1_555
H19 C26 1_555 1_555
C27 C7 1_555 1_555
C28 C27 1_555 1_555
H20 C28 1_555 1_555
C29 C10 1_555 1_555
C30 C29 1_555 1_555
H21 C30 1_555 1_555
C31 C12 1_555 1_555
C32 C31 1_555 1_555
H22 C32 1_555 1_555
C33 C15 1_555 1_555
C34 C33 1_555 1_555
H23 C34 1_555 1_555
C35 C17 1_555 1_555
C36 C21 1_555 1_555
H24 C36 1_555 1_555
C37 C1 1_555 1_555
C38 C37 1_555 1_555
H25 C38 1_555 1_555
C39 C38 1_555 1_555
C40 C39 1_555 1_555
H26 C40 1_555 1_555
C41 C40 1_555 1_555
C42 C37 1_555 1_555
H27 C42 1_555 1_555
C43 C6 1_555 1_555
C44 C43 1_555 1_555
H28 C44 1_555 1_555
C45 C44 1_555 1_555
C46 C45 1_555 1_555
H29 C46 1_555 1_555
C47 C46 1_555 1_555
C48 C43 1_555 1_555
H30 C48 1_555 1_555
C49 C11 1_555 1_555
C50 C49 1_555 1_555
H31 C50 1_555 1_555
C51 C50 1_555 1_555
C52 C51 1_555 1_555
H32 C52 1_555 1_555
C53 C52 1_555 1_555
C54 C49 1_555 1_555
H33 C54 1_555 1_555
C55 C16 1_555 1_555
C56 C55 1_555 1_555
H34 C56 1_555 1_555
C57 C56 1_555 1_555
C58 C57 1_555 1_555
H35 C58 1_555 1_555
C59 C58 1_555 1_555
C60 C55 1_555 1_555
H36 C60 1_555 1_555
C61 C24 1_555 1_555
H37 C61 1_555 1_555
H38 C61 1_555 1_555
C62 C61 1_555 1_555
H39 C62 1_555 1_555
H40 C62 1_555 1_555
C63 C62 1_555 1_555
H41 C63 1_555 1_555
H42 C63 1_555 1_555
C64 C63 1_555 1_555
H43 C64 1_555 1_555
H44 C64 1_555 1_555
C65 C64 1_555 1_555
H45 C65 1_555 1_555
H46 C65 1_555 1_555
C66 C65 1_555 1_555
H47 C66 1_555 1_555
H48 C66 1_555 1_555
H49 C66 1_555 1_555
C67 C28 1_555 1_555
H50 C67 1_555 1_555
H51 C67 1_555 1_555
C68 C67 1_555 1_555
H52 C68 1_555 1_555
H53 C68 1_555 1_555
C69 C68 1_555 1_555
H54 C69 1_555 1_555
H55 C69 1_555 1_555
C70 C69 1_555 1_555
H56 C70 1_555 1_555
H57 C70 1_555 1_555
C71 C70 1_555 1_555
H58 C71 1_555 1_555
H59 C71 1_555 1_555
C72 C71 1_555 1_555
H60 C72 1_555 1_555
H61 C72 1_555 1_555
H62 C72 1_555 1_555
C73 C32 1_555 1_555
H63 C73 1_555 1_555
H64 C73 1_555 1_555
C74 C73 1_555 1_555
H65 C74 1_555 1_555
H66 C74 1_555 1_555
C75 C74 1_555 1_555
H67 C75 1_555 1_555
H68 C75 1_555 1_555
C76 C75 1_555 1_555
H69 C76 1_555 1_555
H70 C76 1_555 1_555
C77 C76 1_555 1_555
H71 C77 1_555 1_555
H72 C77 1_555 1_555
C78 C77 1_555 1_555
H73 C78 1_555 1_555
H74 C78 1_555 1_555
H75 C78 1_555 1_555
C79 C36 1_555 1_555
H76 C79 1_555 1_555
H77 C79 1_555 1_555
C80 C79 1_555 1_555
H78 C80 1_555 1_555
H79 C80 1_555 1_555
C81 C80 1_555 1_555
H80 C81 1_555 1_555
H81 C81 1_555 1_555
C82 C81 1_555 1_555
H82 C82 1_555 1_555
H83 C82 1_555 1_555
C83 C82 1_555 1_555
H84 C83 1_555 1_555
H85 C83 1_555 1_555
C84 C83 1_555 1_555
H86 C84 1_555 1_555
H87 C84 1_555 1_555
H88 C84 1_555 1_555
Cl3 C90 1_555 1_555
Cl4 C90 1_555 1_555
C90 H102 1_555 1_555
H103 C90 1_555 1_555
Cl7 C92 1_555 1_555
Cl8 C92 1_555 1_555
C92 H106 1_555 1_555
H107 C92 1_555 1_555
N1 C94 1_555 1_555
C93 H108 1_555 1_555
H109 C93 1_555 1_555
H110 C93 1_555 1_555
C94 C93 1_555 1_555
N2 C96 1_555 1_555
C95 H111 1_555 1_555
H112 C95 1_555 1_555
H113 C95 1_555 1_555
C96 C95 1_555 1_555
C1 C20 1_555 1_555
C24 C25 1_555 1_555
C26 C27 1_555 1_555
C28 C29 1_555 1_555
C30 C31 1_555 1_555
C32 C33 1_555 1_555
C34 C35 1_555 1_555
C35 C36 1_555 1_555
C41 C42 1_555 1_555
C47 C48 1_555 1_555
C53 C54 1_555 1_555
C59 C60 1_555 1_555

#END
