
#######################################################################
#
#                 Cambridge Crystallographic Data Centre
#                                CCDC 
#
#######################################################################
#
# If this CIF has been generated from an entry in the Cambridge 
# Structural Database, then it will include bibliographic, chemical, 
# crystal, experimental, refinement or atomic coordinate data resulting 
# from the CCDC's data processing and validation procedures.
#
#######################################################################

data_EDUHET
_chemical_formula_moiety         'C23 H31 N1 O1'
_chemical_name_systematic        
N-(4-methylphenyl)-1-(4-(nonyloxy)phenyl)methanimine
_symmetry_cell_setting           triclinic
_symmetry_space_group_name_H-M   'P -1'
_symmetry_Int_Tables_number      2
_space_group_name_Hall           '-P 1'
loop_
_symmetry_equiv_pos_site_id
_symmetry_equiv_pos_as_xyz
1 x,y,z
2 -x,-y,-z
_cell_length_a                   5.5447(3)
_cell_length_b                   7.9135(4)
_cell_length_c                   24.1006(10)
_cell_angle_alpha                80.896(3)
_cell_angle_beta                 84.689(3)
_cell_angle_gamma                71.886(2)
_cell_volume                     991.355
_exptl_crystal_colour            colorless
_exptl_crystal_description       plate
_cell_formula_units_Z            2
loop_
_atom_site_label
_atom_site_type_symbol
_atom_site_fract_x
_atom_site_fract_y
_atom_site_fract_z
O1 O 0.7911(3) 0.33716(17) 0.47247(5)
N1 N 1.1834(3) 0.0000(2) 0.71666(6)
C1 C 1.2493(3) -0.0827(2) 0.77202(7)
C2 C 1.4221(3) -0.0226(2) 0.79616(8)
H1 H 1.4865 0.0674 0.7751
C3 C 1.5009(4) -0.0919(3) 0.85023(8)
H2 H 1.6190 -0.0490 0.8655
C4 C 1.4102(4) -0.2235(2) 0.88256(8)
C5 C 1.2396(4) -0.2851(3) 0.85785(8)
H3 H 1.1775 -0.3764 0.8788
C6 C 1.1589(3) -0.2169(2) 0.80392(8)
H4 H 1.0424 -0.2609 0.7885
C7 C 1.4912(4) -0.2962(3) 0.94174(8)
H5 H 1.6736 -0.3143 0.9434
H6 H 1.4559 -0.4109 0.9532
H7 H 1.3968 -0.2106 0.9672
C8 C 1.0122(3) -0.0280(2) 0.69077(7)
H8 H 0.9242 -0.1090 0.7086
C9 C 0.9495(3) 0.0632(2) 0.63363(7)
C10 C 0.7740(4) 0.0262(2) 0.60320(8)
H9 H 0.6921 -0.0598 0.6199
C11 C 0.7161(4) 0.1126(2) 0.54881(8)
H10 H 0.5980 0.0847 0.5284
C12 C 0.8344(3) 0.2405(2) 0.52475(7)
C13 C 1.0091(3) 0.2798(2) 0.55500(8)
H11 H 1.0887 0.3672 0.5385
C14 C 1.0664(3) 0.1928(2) 0.60836(8)
H12 H 1.1860 0.2204 0.6284
C15 C 0.6131(3) 0.3064(2) 0.43803(7)
H13 H 0.4417 0.3336 0.4569
H14 H 0.6677 0.1798 0.4310
C16 C 0.6104(3) 0.4312(2) 0.38315(7)
H15 H 0.7843 0.4030 0.3655
H16 H 0.5611 0.5564 0.3914
C17 C 0.4287(3) 0.4173(2) 0.34139(7)
H17 H 0.2551 0.4428 0.3591
H18 H 0.4805 0.2932 0.3321
C18 C 0.4251(3) 0.5479(2) 0.28730(7)
H19 H 0.3764 0.6714 0.2970
H20 H 0.5990 0.5212 0.2697
C19 C 0.2438(3) 0.5405(2) 0.24456(7)
H21 H 0.0694 0.5692 0.2619
H22 H 0.2908 0.4167 0.2351
C20 C 0.2452(3) 0.6699(2) 0.19035(7)
H23 H 0.1879 0.7943 0.1995
H24 H 0.4216 0.6462 0.1743
C21 C 0.0759(4) 0.6548(2) 0.14600(8)
H25 H 0.1334 0.5304 0.1368
H26 H -0.1004 0.6782 0.1621
C22 C 0.0767(4) 0.7839(3) 0.09193(8)
H27 H 0.2521 0.7580 0.0752
H28 H 0.0240 0.9081 0.1012
C23 C -0.0993(4) 0.7715(3) 0.04855(9)
H29 H -0.0910 0.8573 0.0149
H30 H -0.2740 0.7997 0.0645
H31 H -0.0458 0.6496 0.0384
loop_
_geom_bond_atom_site_label_1
_geom_bond_atom_site_label_2
_geom_bond_site_symmetry_1
_geom_bond_site_symmetry_2
O1 C12 1_555 1_555
N1 C1 1_555 1_555
C1 C2 1_555 1_555
C2 H1 1_555 1_555
C3 C2 1_555 1_555
H2 C3 1_555 1_555
C4 C3 1_555 1_555
C5 C4 1_555 1_555
H3 C5 1_555 1_555
C6 C1 1_555 1_555
H4 C6 1_555 1_555
C7 C4 1_555 1_555
H5 C7 1_555 1_555
H6 C7 1_555 1_555
H7 C7 1_555 1_555
C8 N1 1_555 1_555
H8 C8 1_555 1_555
C9 C8 1_555 1_555
C10 C9 1_555 1_555
H9 C10 1_555 1_555
C11 C10 1_555 1_555
H10 C11 1_555 1_555
C12 C11 1_555 1_555
C13 C12 1_555 1_555
H11 C13 1_555 1_555
C14 C9 1_555 1_555
H12 C14 1_555 1_555
C15 O1 1_555 1_555
H13 C15 1_555 1_555
H14 C15 1_555 1_555
C16 C15 1_555 1_555
H15 C16 1_555 1_555
H16 C16 1_555 1_555
C17 C16 1_555 1_555
H17 C17 1_555 1_555
H18 C17 1_555 1_555
C18 C17 1_555 1_555
H19 C18 1_555 1_555
H20 C18 1_555 1_555
C19 C18 1_555 1_555
H21 C19 1_555 1_555
H22 C19 1_555 1_555
C20 C19 1_555 1_555
H23 C20 1_555 1_555
H24 C20 1_555 1_555
C21 C20 1_555 1_555
H25 C21 1_555 1_555
H26 C21 1_555 1_555
C22 C21 1_555 1_555
H27 C22 1_555 1_555
H28 C22 1_555 1_555
C23 C22 1_555 1_555
H29 C23 1_555 1_555
H30 C23 1_555 1_555
H31 C23 1_555 1_555
C5 C6 1_555 1_555
C13 C14 1_555 1_555

#END
