
#######################################################################
#
#                 Cambridge Crystallographic Data Centre
#                                CCDC 
#
#######################################################################
#
# If this CIF has been generated from an entry in the Cambridge 
# Structural Database, then it will include bibliographic, chemical, 
# crystal, experimental, refinement or atomic coordinate data resulting 
# from the CCDC's data processing and validation procedures.
#
#######################################################################

data_EDUKUM
_chemical_formula_moiety         'C86 H114 N4 O6 S6'
_chemical_name_systematic        
3,3'-[{4,8-bis[(2-ethylhexyl)oxy]benzo[1,2-b:4,5-b']bisthiene-2,6-diyl}bis(thiene-5,2-diyl)]bis[2,5-bis(2-ethylhexyl)-6-(thiophen-2-yl)-2,5-dihydropyrrolo[3,4-c]pyrrole-1,4-dione]
_symmetry_cell_setting           monoclinic
_symmetry_space_group_name_H-M   'C 2/c'
_symmetry_Int_Tables_number      15
_space_group_name_Hall           '-C 2yn'
loop_
_symmetry_equiv_pos_site_id
_symmetry_equiv_pos_as_xyz
1 x,y,z
2 -x,y,1/2-z
3 1/2+x,1/2+y,z
4 1/2-x,1/2+y,1/2-z
5 -x,-y,-z
6 x,-y,1/2+z
7 1/2-x,1/2-y,-z
8 1/2+x,1/2-y,1/2+z
_cell_length_a                   33.287(11)
_cell_length_b                   5.6052(19)
_cell_length_c                   45.613(15)
_cell_angle_alpha                90
_cell_angle_beta                 110.234(5)
_cell_angle_gamma                90
_cell_volume                     7985.29
_exptl_crystal_colour            colorless
_exptl_crystal_description       needle
_cell_formula_units_Z            4
loop_
_atom_site_label
_atom_site_type_symbol
_atom_site_fract_x
_atom_site_fract_y
_atom_site_fract_z
S1 S 0.66263(19) -0.4214(12) 0.72572(15)
S2 S 0.74772(16) 0.4808(10) 0.59085(13)
S3 S 0.6848(3) 1.083(2) 0.5303(2)
O1 O 0.7795(4) -0.290(2) 0.6730(3)
O2 O 0.6235(4) 0.312(2) 0.6379(3)
O3 O 0.8282(6) 1.013(4) 0.5120(5)
N1 N 0.6476(5) -0.022(3) 0.6704(4)
N2 N 0.7554(4) 0.038(3) 0.6411(3)
C1 C 0.6932(6) -0.661(4) 0.7405(5)
H1 H 0.6895 -0.7551 0.7567
C2 C 0.7230(6) -0.709(4) 0.7278(5)
H2 H 0.7420 -0.8420 0.7332
C3 C 0.7225(6) -0.533(4) 0.7049(5)
H3 H 0.7421 -0.5310 0.6940
C4 C 0.6899(6) -0.366(4) 0.7004(4)
C5 C 0.6829(6) -0.169(3) 0.6789(4)
C6 C 0.7111(5) -0.089(3) 0.6640(4)
C7 C 0.6914(5) 0.108(3) 0.6441(4)
C8 C 0.6508(6) 0.157(4) 0.6489(4)
C9 C 0.7506(5) -0.129(3) 0.6612(4)
C10 C 0.7191(5) 0.195(3) 0.6315(4)
C11 C 0.7117(5) 0.384(3) 0.6090(4)
C12 C 0.6774(6) 0.523(3) 0.6014(4)
H4 H 0.6548 0.5035 0.6093
C13 C 0.6784(6) 0.704(4) 0.5802(4)
H5 H 0.6562 0.8179 0.5724
C14 C 0.7140(5) 0.701(3) 0.5719(4)
C15 C 0.7236(4) 0.858(3) 0.5507(5)
C16 C 0.7562(13) 0.875(7) 0.5411(8)
H6 H 0.7780 0.7571 0.5480
C17 C 0.7610(6) 1.061(4) 0.5208(5)
C18 C 0.7216(7) 1.170(4) 0.5127(5)
C19 C 0.7902(6) 1.136(5) 0.5070(6)
C20 C 0.8644(7) 1.117(6) 0.5348(7)
H7 H 0.8600 1.1339 0.5551
H8 H 0.8710 1.2751 0.5280
C21 C 0.8992(11) 0.943(6) 0.5372(7)
H9 H 0.9231 1.0424 0.5511
C22 C 0.9049(10) 0.743(6) 0.5590(9)
H10 H 0.8956 0.7997 0.5763
H11 H 0.8846 0.6167 0.5480
C23 C 0.9467(12) 0.631(7) 0.5733(10)
H12 H 0.9570 0.5726 0.5569
H13 H 0.9441 0.4962 0.5863
H14 H 0.9670 0.7472 0.5864
C24 C 0.9153(15) 0.933(5) 0.5110(9)
H15 H 0.9418 0.8363 0.5179
H16 H 0.8940 0.8440 0.4938
C25 C 0.9247(15) 1.156(6) 0.4979(9)
H17 H 0.9469 1.2420 0.5149
H18 H 0.8985 1.2555 0.4918
C26 C 0.9393(15) 1.144(8) 0.4708(9)
H19 H 0.9676 1.0648 0.4781
H20 H 0.9194 1.0360 0.4553
C27 C 0.9435(14) 1.361(8) 0.4540(10)
H21 H 0.9462 1.3172 0.4340
H22 H 0.9690 1.4500 0.4666
H23 H 0.9180 1.4611 0.4502
C28 C 0.6088(6) -0.022(4) 0.6781(5)
H24 H 0.5969 0.1412 0.6757
H25 H 0.6160 -0.0693 0.7003
C29 C 0.5750(9) -0.192(7) 0.6577(6)
H26 H 0.5875 -0.3535 0.6643
C30 C 0.5678(12) -0.184(10) 0.6233(7)
H27 H 0.5926 -0.2578 0.6196
H28 H 0.5662 -0.0153 0.6166
C31 C 0.5277(15) -0.311(10) 0.6038(8)
H29 H 0.5350 -0.4382 0.5918
H30 H 0.5083 -0.1968 0.5893
H31 H 0.5135 -0.3791 0.6174
C32 C 0.5353(7) -0.190(8) 0.6667(7)
H32 H 0.5262 -0.0228 0.6678
H33 H 0.5118 -0.2729 0.6504
C33 C 0.5434(11) -0.310(10) 0.6977(9)
H34 H 0.5661 -0.2228 0.7142
H35 H 0.5538 -0.4749 0.6968
C34 C 0.5035(11) -0.320(12) 0.7063(10)
H36 H 0.4829 -0.4347 0.6925
H37 H 0.4897 -0.1606 0.7031
C35 C 0.7945(13) 0.059(9) 0.6341(8)
H38 H 0.7861 0.0893 0.6114
H39 H 0.8087 -0.0987 0.6382
C36 C 0.8280(7) 0.244(5) 0.6506(4)
H40 H 0.8142 0.4043 0.6465
C37 C 0.8438(8) 0.201(5) 0.6855(5)
H41 H 0.8604 0.0509 0.6905
H42 H 0.8190 0.1855 0.6927
C38 C 0.8718(10) 0.407(5) 0.7025(7)
H43 H 0.8600 0.5572 0.6920
H44 H 0.9008 0.3850 0.7022
H45 H 0.8726 0.4120 0.7241
C39 C 0.8636(9) 0.238(6) 0.6364(7)
H46 H 0.8512 0.2558 0.6134
H47 H 0.8839 0.3716 0.6449
C40 C 0.8867(8) 0.003(5) 0.6448(9)
H48 H 0.8902 -0.0366 0.6666
H49 H 0.8689 -0.1228 0.6312
C41 C 0.9296(9) 0.005(7) 0.6412(10)
H50 H 0.9449 0.1539 0.6502
H51 H 0.9261 -0.0002 0.6188
C42 C 0.9558(11) -0.210(8) 0.6579(11)
H52 H 0.9460 -0.3528 0.6451
H53 H 0.9521 -0.2319 0.6781
H54 H 0.9861 -0.1819 0.6612
S1F S 0.83737(19) 2.9214(12) 0.27428(15)
S2F S 0.75228(16) 2.0192(10) 0.40915(13)
S3F S 0.8152(3) 1.417(2) 0.4697(2)
O1F O 0.7205(4) 2.790(2) 0.3270(3)
O2F O 0.8765(4) 2.188(2) 0.3621(3)
O3F O 0.6718(6) 1.487(4) 0.4880(5)
N1F N 0.8524(5) 2.522(3) 0.3296(4)
N2F N 0.7446(4) 2.462(3) 0.3589(3)
C1F C 0.8068(6) 3.161(4) 0.2595(5)
H1F H 0.8105 3.2551 0.2433
C2F C 0.7770(6) 3.209(4) 0.2722(5)
H2F H 0.7580 3.3420 0.2668
C3F C 0.7775(6) 3.033(4) 0.2951(5)
H3F H 0.7579 3.0310 0.3060
C4F C 0.8101(6) 2.866(4) 0.2996(4)
C5F C 0.8171(6) 2.669(3) 0.3211(4)
C6F C 0.7889(5) 2.589(3) 0.3360(4)
C7F C 0.8086(5) 2.392(3) 0.3559(4)
C8F C 0.8492(6) 2.343(4) 0.3511(4)
C9F C 0.7494(5) 2.629(3) 0.3388(4)
C10F C 0.7809(5) 2.305(3) 0.3685(4)
C11F C 0.7883(5) 2.116(3) 0.3910(4)
C12F C 0.8226(6) 1.977(3) 0.3986(4)
H4F H 0.8452 1.9965 0.3907
C13F C 0.8216(6) 1.796(4) 0.4198(4)
H5F H 0.8438 1.6821 0.4276
C14F C 0.7860(5) 1.799(3) 0.4281(4)
C15F C 0.7764(4) 1.642(3) 0.4493(5)
C16F C 0.7438(13) 1.625(7) 0.4589(8)
H6F H 0.7220 1.7429 0.4520
C17F C 0.7390(6) 1.439(4) 0.4792(5)
C18F C 0.7784(7) 1.330(4) 0.4873(5)
C19F C 0.7098(6) 1.364(5) 0.4930(6)
C20F C 0.6356(7) 1.383(6) 0.4652(7)
H7F H 0.6400 1.3661 0.4449
H8F H 0.6290 1.2249 0.4720
C21F C 0.6008(11) 1.557(6) 0.4628(7)
H9F H 0.5769 1.4576 0.4489
C22F C 0.5951(10) 1.757(6) 0.4410(9)
H10F H 0.6044 1.7003 0.4237
H11F H 0.6154 1.8833 0.4520
C23F C 0.5533(12) 1.869(7) 0.4267(10)
H12F H 0.5430 1.9274 0.4431
H13F H 0.5559 2.0038 0.4137
H14F H 0.5330 1.7528 0.4136
C24F C 0.5847(15) 1.567(5) 0.4890(9)
H15F H 0.5582 1.6637 0.4821
H16F H 0.6060 1.6560 0.5062
C25F C 0.5753(15) 1.344(6) 0.5021(9)
H17F H 0.5531 1.2580 0.4851
H18F H 0.6015 1.2445 0.5082
C26F C 0.5607(15) 1.356(8) 0.5292(9)
H19F H 0.5324 1.4352 0.5219
H20F H 0.5806 1.4640 0.5447
C27F C 0.5565(14) 1.139(8) 0.5460(10)
H21F H 0.5538 1.1828 0.5660
H22F H 0.5310 1.0500 0.5334
H23F H 0.5820 1.0389 0.5498
C28F C 0.8912(6) 2.522(4) 0.3219(5)
H24F H 0.9031 2.3588 0.3243
H25F H 0.8840 2.5693 0.2997
C29F C 0.9250(9) 2.692(7) 0.3423(6)
H26F H 0.9125 2.8535 0.3357
C30F C 0.9322(12) 2.684(10) 0.3767(7)
H27F H 0.9074 2.7578 0.3804
H28F H 0.9338 2.5153 0.3834
C31F C 0.9723(15) 2.811(10) 0.3962(8)
H29F H 0.9650 2.9382 0.4082
H30F H 0.9917 2.6968 0.4107
H31F H 0.9865 2.8791 0.3826
C32F C 0.9647(7) 2.690(8) 0.3333(7)
H32F H 0.9738 2.5228 0.3322
H33F H 0.9882 2.7729 0.3496
C33F C 0.9566(11) 2.810(10) 0.3023(9)
H34F H 0.9339 2.7228 0.2858
H35F H 0.9462 2.9749 0.3032
C34F C 0.9965(11) 2.820(12) 0.2937(10)
H36F H 1.0171 2.9347 0.3075
H37F H 1.0103 2.6606 0.2969
C35F C 0.7055(13) 2.441(9) 0.3659(8)
H38F H 0.7139 2.4107 0.3886
H39F H 0.6913 2.5987 0.3618
C36F C 0.6720(7) 2.256(5) 0.3494(4)
H40F H 0.6858 2.0957 0.3535
C37F C 0.6562(8) 2.299(5) 0.3145(5)
H41F H 0.6396 2.4491 0.3095
H42F H 0.6810 2.3145 0.3073
C38F C 0.6282(10) 2.093(5) 0.2975(7)
H43F H 0.6400 1.9428 0.3080
H44F H 0.5992 2.1150 0.2978
H45F H 0.6274 2.0880 0.2759
C39F C 0.6364(9) 2.262(6) 0.3636(7)
H46F H 0.6488 2.2442 0.3866
H47F H 0.6161 2.1284 0.3551
C40F C 0.6133(8) 2.497(5) 0.3552(9)
H48F H 0.6098 2.5366 0.3334
H49F H 0.6311 2.6228 0.3688
C41F C 0.5704(9) 2.495(7) 0.3588(10)
H50F H 0.5551 2.3461 0.3498
H51F H 0.5739 2.5002 0.3812
C42F C 0.5442(11) 2.710(8) 0.3421(11)
H52F H 0.5540 2.8528 0.3549
H53F H 0.5479 2.7319 0.3219
H54F H 0.5139 2.6819 0.3388
S4? S 0.7765(5) 0.835(3) 0.5478(4)
C43? C 0.7045(15) 1.041(9) 0.5342(12)
H55? H 0.6783 1.0938 0.5360
C44? C 0.8321(17) 0.780(8) 0.525(2)
H56? H 0.8219 0.6583 0.5080
H57? H 0.8160 0.7633 0.5392
C45? C 0.8789(18) 0.758(14) 0.5415(16)
H58? H 0.8805 0.5801 0.5431
C46? C 0.895(4) 0.812(19) 0.5754(18)
H59? H 0.9253 0.8620 0.5812
H60? H 0.8788 0.9518 0.5788
C47? C 0.893(5) 0.62(3) 0.5971(19)
H61? H 0.8676 0.6488 0.6033
H62? H 0.9187 0.6265 0.6157
H63? H 0.8903 0.4675 0.5868
C48? C 0.907(2) 0.792(19) 0.523(3)
H64? H 0.9350 0.7150 0.5346
H65? H 0.8946 0.7052 0.5032
C49? C 0.916(5) 1.04(2) 0.516(3)
H66? H 0.9464 1.0750 0.5283
H67? H 0.8980 1.1472 0.5227
C50? C 0.910(5) 1.10(2) 0.483(3)
H68? H 0.8787 1.1094 0.4715
H69? H 0.9224 1.2554 0.4824
C51? C 0.928(6) 0.93(3) 0.465(3)
H70? H 0.9078 0.7967 0.4575
H71? H 0.9553 0.8709 0.4789
H72? H 0.9311 1.0153 0.4474
H73? H 0.5946 0.1346 0.6724
H74? H 0.6168 -0.0411 0.7010
C52? C 0.5768(9) -0.216(5) 0.6622(6)
H75? H 0.5915 -0.3743 0.6662
C53? C 0.5581(14) -0.173(9) 0.6274(6)
H76? H 0.5372 -0.0409 0.6232
H77? H 0.5813 -0.1249 0.6197
C54? C 0.5363(18) -0.392(9) 0.6098(9)
H78? H 0.5216 -0.3510 0.5878
H79? H 0.5153 -0.4506 0.6188
H80? H 0.5576 -0.5161 0.6114
C55? C 0.5450(15) -0.205(7) 0.6792(10)
H81? H 0.5604 -0.2200 0.7020
H82? H 0.5247 -0.3405 0.6726
C56? C 0.5203(16) 0.028(7) 0.6725(12)
H83? H 0.5403 0.1627 0.6803
H84? H 0.5063 0.0473 0.6496
C57? C 0.4867(14) 0.032(10) 0.6879(13)
H85? H 0.4586 -0.0152 0.6726
H86? H 0.4840 0.1960 0.6951
C58? C 0.4987(19) -0.137(13) 0.7156(13)
H87? H 0.4859 -0.2940 0.7087
H88? H 0.4879 -0.0741 0.7315
H89? H 0.5299 -0.1525 0.7244
C59? C 0.794(3) 0.04(2) 0.6315(19)
H90? H 0.7861 0.0604 0.6087
H91? H 0.8097 -0.1184 0.6371
C60? C 0.8213(14) 0.238(12) 0.6494(9)
H92? H 0.8070 0.3867 0.6386
C61? C 0.8649(16) 0.237(17) 0.6462(12)
H93? H 0.8773 0.0745 0.6502
H94? H 0.8843 0.3466 0.6617
C62? C 0.861(2) 0.315(15) 0.6136(13)
H95? H 0.8322 0.2822 0.5992
H96? H 0.8820 0.2266 0.6069
H97? H 0.8671 0.4862 0.6136
C63? C 0.8201(14) 0.253(11) 0.6820(10)
H98? H 0.7905 0.2274 0.6814
H99? H 0.8293 0.4140 0.6906
C64? C 0.8491(19) 0.069(8) 0.7028(11)
H100? H 0.8573 -0.0502 0.6899
H101? H 0.8336 -0.0152 0.7148
C65? C 0.8888(17) 0.185(10) 0.7252(16)
H102? H 0.8952 0.1162 0.7464
H103? H 0.9134 0.1521 0.7184
C66? C 0.883(2) 0.450(10) 0.7265(18)
H104? H 0.8519 0.4874 0.7183
H105? H 0.8969 0.5312 0.7137
H106? H 0.8949 0.5054 0.7481
H107? H 0.4994 -0.2891 0.7503
C67? C 0.5141(16) -0.395(11) 0.7401(10)
H108? H 0.5048 -0.5595 0.7410
H109? H 0.5451 -0.3836 0.7510
loop_
_geom_bond_atom_site_label_1
_geom_bond_atom_site_label_2
_geom_bond_site_symmetry_1
_geom_bond_site_symmetry_2
S1 C1 1_555 1_555
S2 C11 1_555 1_555
S3 C15 1_555 1_555
O1 C9 1_555 1_555
O2 C8 1_555 1_555
O3 C19 1_555 1_555
N1 C5 1_555 1_555
N2 C9 1_555 1_555
C1 H1 1_555 1_555
C2 C1 1_555 1_555
H2 C2 1_555 1_555
C3 C2 1_555 1_555
H3 C3 1_555 1_555
C4 S1 1_555 1_555
C5 C4 1_555 1_555
C6 C5 1_555 1_555
C7 C6 1_555 1_555
C8 N1 1_555 1_555
C9 C6 1_555 1_555
C10 N2 1_555 1_555
C11 C10 1_555 1_555
C12 C11 1_555 1_555
H4 C12 1_555 1_555
C13 C12 1_555 1_555
H5 C13 1_555 1_555
C14 S2 1_555 1_555
C15 C14 1_555 1_555
C16 C15 1_555 1_555
H6 C16 1_555 1_555
C17 C16 1_555 1_555
C18 S3 1_555 1_555
C19 C17 1_555 1_555
C20 O3 1_555 1_555
H7 C20 1_555 1_555
H8 C20 1_555 1_555
C21 C20 1_555 1_555
H9 C21 1_555 1_555
C22 C21 1_555 1_555
H10 C22 1_555 1_555
H11 C22 1_555 1_555
C23 C22 1_555 1_555
H12 C23 1_555 1_555
H13 C23 1_555 1_555
H14 C23 1_555 1_555
C24 C21 1_555 1_555
H15 C24 1_555 1_555
H16 C24 1_555 1_555
C25 C24 1_555 1_555
H17 C25 1_555 1_555
H18 C25 1_555 1_555
C26 C25 1_555 1_555
H19 C26 1_555 1_555
H20 C26 1_555 1_555
C27 C26 1_555 1_555
H21 C27 1_555 1_555
H22 C27 1_555 1_555
H23 C27 1_555 1_555
C28 N1 1_555 1_555
H24 C28 1_555 1_555
H25 C28 1_555 1_555
C29 C28 1_555 1_555
H26 C29 1_555 1_555
C30 C29 1_555 1_555
H27 C30 1_555 1_555
H28 C30 1_555 1_555
C31 C30 1_555 1_555
H29 C31 1_555 1_555
H30 C31 1_555 1_555
H31 C31 1_555 1_555
C32 C29 1_555 1_555
H32 C32 1_555 1_555
H33 C32 1_555 1_555
C33 C32 1_555 1_555
H34 C33 1_555 1_555
H35 C33 1_555 1_555
C34 C33 1_555 1_555
H36 C34 1_555 1_555
H37 C34 1_555 1_555
C35 N2 1_555 1_555
H38 C35 1_555 1_555
H39 C35 1_555 1_555
C36 C35 1_555 1_555
H40 C36 1_555 1_555
C37 C36 1_555 1_555
H41 C37 1_555 1_555
H42 C37 1_555 1_555
C38 C37 1_555 1_555
H43 C38 1_555 1_555
H44 C38 1_555 1_555
H45 C38 1_555 1_555
C39 C36 1_555 1_555
H46 C39 1_555 1_555
H47 C39 1_555 1_555
C40 C39 1_555 1_555
H48 C40 1_555 1_555
H49 C40 1_555 1_555
C41 C40 1_555 1_555
H50 C41 1_555 1_555
H51 C41 1_555 1_555
C42 C41 1_555 1_555
H52 C42 1_555 1_555
H53 C42 1_555 1_555
H54 C42 1_555 1_555
S1F C1F 1_555 1_555
S2F C11F 1_555 1_555
S3F C15F 1_555 1_555
O1F C9F 1_555 1_555
O2F C8F 1_555 1_555
O3F C19F 1_555 1_555
N1F C5F 1_555 1_555
N2F C9F 1_555 1_555
C1F H1F 1_555 1_555
C2F C1F 1_555 1_555
H2F C2F 1_555 1_555
C3F C2F 1_555 1_555
H3F C3F 1_555 1_555
C4F S1F 1_555 1_555
C5F C4F 1_555 1_555
C6F C5F 1_555 1_555
C7F C6F 1_555 1_555
C8F N1F 1_555 1_555
C9F C6F 1_555 1_555
C10F N2F 1_555 1_555
C11F C10F 1_555 1_555
C12F C11F 1_555 1_555
H4F C12F 1_555 1_555
C13F C12F 1_555 1_555
H5F C13F 1_555 1_555
C14F S2F 1_555 1_555
C15F C14F 1_555 1_555
C16F C15F 1_555 1_555
H6F C16F 1_555 1_555
C17F C16F 1_555 1_555
C18F C19 1_555 1_555
C19F C18 1_555 1_555
C20F O3F 1_555 1_555
H7F C20F 1_555 1_555
H8F C20F 1_555 1_555
C21F C20F 1_555 1_555
H9F C21F 1_555 1_555
C22F C21F 1_555 1_555
H10F C22F 1_555 1_555
H11F C22F 1_555 1_555
C23F C22F 1_555 1_555
H12F C23F 1_555 1_555
H13F C23F 1_555 1_555
H14F C23F 1_555 1_555
C24F C21F 1_555 1_555
H15F C24F 1_555 1_555
H16F C24F 1_555 1_555
C25F C24F 1_555 1_555
H17F C25F 1_555 1_555
H18F C25F 1_555 1_555
C26F C25F 1_555 1_555
H19F C26F 1_555 1_555
H20F C26F 1_555 1_555
C27F C26F 1_555 1_555
H21F C27F 1_555 1_555
H22F C27F 1_555 1_555
H23F C27F 1_555 1_555
C28F N1F 1_555 1_555
H24F C28F 1_555 1_555
H25F C28F 1_555 1_555
C29F C28F 1_555 1_555
H26F C29F 1_555 1_555
C30F C29F 1_555 1_555
H27F C30F 1_555 1_555
H28F C30F 1_555 1_555
C31F C30F 1_555 1_555
H29F C31F 1_555 1_555
H30F C31F 1_555 1_555
H31F C31F 1_555 1_555
C32F C29F 1_555 1_555
H32F C32F 1_555 1_555
H33F C32F 1_555 1_555
C33F C32F 1_555 1_555
H34F C33F 1_555 1_555
H35F C33F 1_555 1_555
C34F C33F 1_555 1_555
H36F C34F 1_555 1_555
H37F C34F 1_555 1_555
C35F N2F 1_555 1_555
H38F C35F 1_555 1_555
H39F C35F 1_555 1_555
C36F C35F 1_555 1_555
H40F C36F 1_555 1_555
C37F C36F 1_555 1_555
H41F C37F 1_555 1_555
H42F C37F 1_555 1_555
C38F C37F 1_555 1_555
H43F C38F 1_555 1_555
H44F C38F 1_555 1_555
H45F C38F 1_555 1_555
C39F C36F 1_555 1_555
H46F C39F 1_555 1_555
H47F C39F 1_555 1_555
C40F C39F 1_555 1_555
H48F C40F 1_555 1_555
H49F C40F 1_555 1_555
C41F C40F 1_555 1_555
H50F C41F 1_555 1_555
H51F C41F 1_555 1_555
C42F C41F 1_555 1_555
H52F C42F 1_555 1_555
H53F C42F 1_555 1_555
H54F C42F 1_555 1_555
C3 C4 1_555 1_555
C7 C8 1_555 1_555
C7 C10 1_555 1_555
C13 C14 1_555 1_555
C17 C18 1_555 1_555
S3F C18F 1_555 1_555
C3F C4F 1_555 1_555
C7F C8F 1_555 1_555
C7F C10F 1_555 1_555
C13F C14F 1_555 1_555
C17F C18F 1_555 1_555
C17F C19F 1_555 1_555

#END
