
#######################################################################
#
#                 Cambridge Crystallographic Data Centre
#                                CCDC 
#
#######################################################################
#
# If this CIF has been generated from an entry in the Cambridge 
# Structural Database, then it will include bibliographic, chemical, 
# crystal, experimental, refinement or atomic coordinate data resulting 
# from the CCDC's data processing and validation procedures.
#
#######################################################################

data_EDUKAP
_chemical_formula_moiety         'C20 H26 O4'
_chemical_name_systematic        
cis-syn-cis-1-Benzyloxy-4,4,12-trimethyl-3,5,7-trioxatetracyclo(6.5.0.0^2,6^.0^9,12^)tridecane
_symmetry_cell_setting           monoclinic
_symmetry_space_group_name_H-M   'P 21'
_symmetry_Int_Tables_number      4
_space_group_name_Hall           'P 2yb'
loop_
_symmetry_equiv_pos_site_id
_symmetry_equiv_pos_as_xyz
1 x,y,z
2 -x,1/2+y,-z
_cell_length_a                   11.9951(5)
_cell_length_b                   5.8347(3)
_cell_length_c                   12.6220(6)
_cell_angle_alpha                90
_cell_angle_beta                 97.325(2)
_cell_angle_gamma                90
_cell_volume                     876.177
_exptl_crystal_colour            colorless
_exptl_crystal_description       needle
_chemical_melting_point          58deg.C
_cell_formula_units_Z            2
loop_
_atom_site_label
_atom_site_type_symbol
_atom_site_fract_x
_atom_site_fract_y
_atom_site_fract_z
C1 C 0.70921(15) 0.2062(3) 0.68964(13)
C2 C 0.72390(15) 0.2432(3) 0.57177(14)
H1 H 0.7140 0.4034 0.5493
C3 C 0.80600(15) 0.0114(4) 0.45444(14)
C4 C 0.8839(2) -0.1908(4) 0.46361(18)
H2 H 0.8694 -0.2833 0.4005
H3 H 0.8717 -0.2803 0.5249
H4 H 0.9603 -0.1381 0.4713
C5 C 0.81491(18) 0.1564(4) 0.35538(16)
H5 H 0.7994 0.0627 0.2927
H6 H 0.8894 0.2183 0.3589
H7 H 0.7615 0.2795 0.3522
C6 C 0.63294(16) 0.0827(4) 0.51463(14)
H8 H 0.5763 0.1700 0.4684
C7 C 0.65910(14) -0.0364(3) 0.69069(14)
H9 H 0.7168 -0.1559 0.6932
C8 C 0.59528(15) -0.0433(3) 0.78744(14)
H10 H 0.6393 -0.1075 0.8513
C9 C 0.47086(16) -0.1215(4) 0.77270(15)
H11 H 0.4483 -0.1984 0.8347
H12 H 0.4498 -0.2104 0.7083
C10 C 0.43381(17) 0.1329(4) 0.76268(19)
H13 H 0.3801 0.1755 0.8105
H14 H 0.4077 0.1796 0.6900
C11 C 0.55689(15) 0.2098(3) 0.80252(14)
C12 C 0.5734(2) 0.2955(4) 0.91698(18)
H15 H 0.5345 0.1963 0.9606
H16 H 0.5441 0.4482 0.9195
H17 H 0.6521 0.2961 0.9432
C13 C 0.61669(15) 0.3595(3) 0.72637(15)
H18 H 0.5642 0.4083 0.6657
H19 H 0.6493 0.4943 0.7632
C14 C 0.87577(16) 0.4060(3) 0.76923(16)
H20 H 0.8386 0.5271 0.8040
H21 H 0.8862 0.4570 0.6980
C15 C 0.98801(16) 0.3510(3) 0.83259(15)
C16 C 1.03700(16) 0.5029(3) 0.91043(15)
H22 H 0.9997 0.6370 0.9245
C17 C 1.14174(17) 0.4538(4) 0.96706(16)
H23 H 1.1743 0.5558 1.0186
C18 C 1.19749(16) 0.2537(4) 0.94687(16)
H24 H 1.2674 0.2214 0.9847
C19 C 1.14847(17) 0.1010(4) 0.86980(16)
H25 H 1.1856 -0.0339 0.8564
C20 C 1.04465(16) 0.1494(3) 0.81320(15)
H26 H 1.0124 0.0468 0.7618
O1 O 0.80944(10) 0.2022(2) 0.76341(10)
O2 O 0.58319(10) -0.0411(2) 0.59254(10)
O3 O 0.69267(12) -0.0668(3) 0.45378(11)
O4 O 0.82796(10) 0.1479(2) 0.54920(10)
loop_
_geom_bond_atom_site_label_1
_geom_bond_atom_site_label_2
_geom_bond_site_symmetry_1
_geom_bond_site_symmetry_2
C1 C2 1_555 1_555
C2 H1 1_555 1_555
C3 C4 1_555 1_555
C4 H2 1_555 1_555
H3 C4 1_555 1_555
H4 C4 1_555 1_555
C5 C3 1_555 1_555
H5 C5 1_555 1_555
H6 C5 1_555 1_555
H7 C5 1_555 1_555
C6 C2 1_555 1_555
H8 C6 1_555 1_555
C7 C1 1_555 1_555
H9 C7 1_555 1_555
C8 C7 1_555 1_555
H10 C8 1_555 1_555
C9 C8 1_555 1_555
H11 C9 1_555 1_555
H12 C9 1_555 1_555
C10 C9 1_555 1_555
H13 C10 1_555 1_555
H14 C10 1_555 1_555
C11 C8 1_555 1_555
C12 C11 1_555 1_555
H15 C12 1_555 1_555
H16 C12 1_555 1_555
H17 C12 1_555 1_555
C13 C1 1_555 1_555
H18 C13 1_555 1_555
H19 C13 1_555 1_555
C14 H20 1_555 1_555
H21 C14 1_555 1_555
C15 C14 1_555 1_555
C16 C15 1_555 1_555
H22 C16 1_555 1_555
C17 C16 1_555 1_555
H23 C17 1_555 1_555
C18 C17 1_555 1_555
H24 C18 1_555 1_555
C19 C18 1_555 1_555
H25 C19 1_555 1_555
C20 C15 1_555 1_555
H26 C20 1_555 1_555
O1 C1 1_555 1_555
O2 C6 1_555 1_555
O3 C3 1_555 1_555
O4 C2 1_555 1_555
C3 O4 1_555 1_555
C6 O3 1_555 1_555
C7 O2 1_555 1_555
C10 C11 1_555 1_555
C11 C13 1_555 1_555
C14 O1 1_555 1_555
C19 C20 1_555 1_555

#END
