
#######################################################################
#
#                 Cambridge Crystallographic Data Centre
#                                CCDC 
#
#######################################################################
#
# If this CIF has been generated from an entry in the Cambridge 
# Structural Database, then it will include bibliographic, chemical, 
# crystal, experimental, refinement or atomic coordinate data resulting 
# from the CCDC's data processing and validation procedures.
#
#######################################################################

data_EDUVUW
_chemical_formula_moiety         
'3(C2 H5 N4 1+),H2 O4 P1 1-,H1 O4 P1 2-,3(H2 O1)'
_chemical_name_systematic        
'tris(5-amino-1H-1,2,4-triazol-4-ium) dihydrogenphosphate hydrogenphosphate trihydrate'
_symmetry_cell_setting           monoclinic
_symmetry_space_group_name_H-M   'P c'
_symmetry_Int_Tables_number      7
_space_group_name_Hall           'P -2yc'
loop_
_symmetry_equiv_pos_site_id
_symmetry_equiv_pos_as_xyz
1 x,y,z
2 x,-y,1/2+z
_cell_length_a                   10.4793(13)
_cell_length_b                   8.7655(11)
_cell_length_c                   11.4536(14)
_cell_angle_alpha                90
_cell_angle_beta                 107.489(2)
_cell_angle_gamma                90
_cell_volume                     1003.45
_exptl_crystal_colour            colorless
_exptl_crystal_description       block
_cell_formula_units_Z            2
loop_
_atom_site_label
_atom_site_type_symbol
_atom_site_fract_x
_atom_site_fract_y
_atom_site_fract_z
N5 N 0.95278(11) 0.16763(12) 0.67577(9)
H6 H 0.9835(17) 0.2502(16) 0.7144(15)
H7 H 0.9369(18) 0.0936(17) 0.7129(16)
N6 N 0.92010(10) 0.02876(11) 0.48939(9)
H8 H 0.8958 -0.0591 0.5132
N7 N 0.93026(11) 0.05748(11) 0.37327(10)
N8 N 0.98316(9) 0.26338(10) 0.49075(8)
H9 H 1.0082 0.3574 0.5133
C3 C 0.95240(10) 0.15303(12) 0.56033(10)
C4 C 0.96750(11) 0.19962(13) 0.37803(10)
H10 H 0.9821 0.2531 0.3110
N9 N 0.28072(10) 0.15370(11) 0.42295(9)
H11 H 0.2900(16) 0.137(2) 0.4966(12)
H12 H 0.2796(17) 0.2424(15) 0.3916(15)
N10 N 0.28411(10) 0.04801(11) 0.23314(8)
H13 H 0.2843 0.1345 0.1942
N11 N 0.28565(10) -0.09510(11) 0.18257(9)
N12 N 0.28158(9) -0.11349(11) 0.37482(8)
H14 H 0.2795 -0.1547 0.4443
C5 C 0.28234(10) 0.03715(12) 0.34900(9)
C6 C 0.28461(10) -0.18892(12) 0.27069(10)
H15 H 0.2858 -0.2969 0.2636
P1 P 0.23842(2) 0.41894(3) 0.11253(2)
O1 O 0.09137(7) 0.45148(9) 0.04480(7)
O2 O 0.31520(8) 0.55501(9) 0.07195(7)
H16 H 0.3902(19) 0.5380(10) 0.0918(15)
O3 O 0.26391(8) 0.42577(8) 0.25172(7)
O4 O 0.28676(8) 0.26682(9) 0.07706(7)
P2 P 0.59788(2) 0.42266(3) 0.46934(2)
O5 O 0.49521(8) 0.52280(9) 0.37270(7)
H17 H 0.4300(18) 0.4769(15) 0.3450(15)
O6 O 0.73507(8) 0.50517(10) 0.48323(7)
H18 H 0.7526(10) 0.5008(18) 0.4177(17)
O7 O 0.57479(8) 0.43008(9) 0.59371(7)
O8 O 0.59985(9) 0.26114(9) 0.42328(7)
O9 O 0.78679(8) 0.52112(11) 0.77991(8)
H19 H 0.8624(15) 0.502(2) 0.7733(18)
H20 H 0.7308(17) 0.484(2) 0.7240(15)
O10 O 1.04601(8) 0.44288(10) 0.79982(7)
H21 H 1.0714(18) 0.4441(19) 0.8747(12)
H22 H 1.1091(15) 0.481(2) 0.7840(17)
O11 O 0.91292(8) 0.75025(9) 0.58426(8)
H23 H 0.8480(15) 0.699(2) 0.5712(17)
H24 H 0.9680(16) 0.6944(19) 0.5732(17)
N1 N 0.62032(11) 0.15272(11) 0.77449(9)
H1 H 0.6049(17) 0.2392(16) 0.7386(16)
H2 H 0.6042(17) 0.1391(19) 0.8421(13)
N2 N 0.60906(10) 0.04376(11) 0.58172(9)
H3 H 0.6141 0.1293 0.5432
N3 N 0.59896(10) -0.09961(11) 0.52940(9)
N4 N 0.60216(9) -0.11435(11) 0.72352(9)
H4 H 0.6017 -0.1543 0.7939
C1 C 0.61011(10) 0.03524(12) 0.69840(10)
C2 C 0.59494(11) -0.19168(13) 0.61746(10)
H5 H 0.5879 -0.2995 0.6093
loop_
_geom_bond_atom_site_label_1
_geom_bond_atom_site_label_2
_geom_bond_site_symmetry_1
_geom_bond_site_symmetry_2
N1 H1 1_555 1_555
H2 N1 1_555 1_555
N2 H3 1_555 1_555
N3 N2 1_555 1_555
N4 H4 1_555 1_555
C1 N1 1_555 1_555
C2 N3 1_555 1_555
H5 C2 1_555 1_555
N5 H6 1_555 1_555
H7 N5 1_555 1_555
N6 H8 1_555 1_555
N7 N6 1_555 1_555
N8 H9 1_555 1_555
C3 N5 1_555 1_555
C4 N7 1_555 1_555
H10 C4 1_555 1_555
N9 H11 1_555 1_555
H12 N9 1_555 1_555
N10 H13 1_555 1_555
N11 N10 1_555 1_555
N12 H14 1_555 1_555
C5 N9 1_555 1_555
C6 N11 1_555 1_555
H15 C6 1_555 1_555
P1 O1 1_555 1_555
O2 P1 1_555 1_555
H16 O2 1_555 1_555
O3 P1 1_555 1_555
O4 P1 1_555 1_555
P2 O5 1_555 1_555
O5 H17 1_555 1_555
O6 P2 1_555 1_555
H18 O6 1_555 1_555
O7 P2 1_555 1_555
O8 P2 1_555 1_555
O9 H19 1_555 1_555
H20 O9 1_555 1_555
O10 H21 1_555 1_555
H22 O10 1_555 1_555
O11 H23 1_555 1_555
H24 O11 1_555 1_555
N2 C1 1_555 1_555
N4 C1 1_555 1_555
N4 C2 1_555 1_555
N6 C3 1_555 1_555
N8 C3 1_555 1_555
N8 C4 1_555 1_555
N10 C5 1_555 1_555
N12 C5 1_555 1_555
N12 C6 1_555 1_555

#END
