
#######################################################################
#
#                 Cambridge Crystallographic Data Centre
#                                CCDC 
#
#######################################################################
#
# If this CIF has been generated from an entry in the Cambridge 
# Structural Database, then it will include bibliographic, chemical, 
# crystal, experimental, refinement or atomic coordinate data resulting 
# from the CCDC's data processing and validation procedures.
#
#######################################################################

data_EDUXUX
_chemical_name_common            
(E,E)-1,4-Diethyl-1,4-bis(5-chloro-2-hydroxyphenyl)-2,3-diazabuta-1,3-diene
_chemical_formula_moiety         'C18 H18 Cl2 N2 O2'
_chemical_name_systematic        
(E,E)-4,4'-Dichloro-2,2'-(1,1'-(hydrazine-1,2-diylidene)-bis(prop-1-yl))-bis(phenol)
_symmetry_cell_setting           monoclinic
_symmetry_space_group_name_H-M   'P 21/c'
_symmetry_Int_Tables_number      14
_space_group_name_Hall           '-P 2ybc'
loop_
_symmetry_equiv_pos_site_id
_symmetry_equiv_pos_as_xyz
1 x,y,z
2 -x,1/2+y,1/2-z
3 -x,-y,-z
4 x,1/2-y,1/2+z
_cell_length_a                   9.3706(3)
_cell_length_b                   13.9089(4)
_cell_length_c                   6.7640(2)
_cell_angle_alpha                90
_cell_angle_beta                 103.0210(10)
_cell_angle_gamma                90
_cell_volume                     858.916
_exptl_crystal_colour            yellow
_exptl_crystal_description       plate
_cell_formula_units_Z            2
_exptl_crystal_recrystallization_method 1,2-dichloroethane
loop_
_atom_site_label
_atom_site_type_symbol
_atom_site_fract_x
_atom_site_fract_y
_atom_site_fract_z
Cl1 Cl -0.00768(5) 0.36471(3) 1.03985(8)
O1 O 0.58588(12) 0.37295(8) 0.90005(17)
H1 H 0.5916 0.4059 0.8016
N1 N 0.48939(13) 0.47487(9) 0.58463(18)
C1 C 0.16828(19) 0.36915(10) 0.9962(2)
C2 C 0.28142(19) 0.32278(11) 1.1277(2)
H2 H 0.2641 0.2898 1.2396
C3 C 0.41983(19) 0.32587(11) 1.0916(2)
H3 H 0.4961 0.2947 1.1801
C4 C 0.44800(17) 0.37479(10) 0.9253(2)
C5 C 0.33229(15) 0.42224(9) 0.7891(2)
C6 C 0.19278(16) 0.41832(10) 0.8310(2)
H4 H 0.1152 0.4496 0.7453
C7 C 0.35581(15) 0.47347(9) 0.6084(2)
C8 C 0.23007(16) 0.52225(11) 0.4663(2)
H5 H 0.1402 0.4879 0.4673
H6 H 0.2457 0.5198 0.3294
C9 C 0.2138(2) 0.62645(13) 0.5253(3)
H7 H 0.2073 0.6295 0.6648
H8 H 0.1265 0.6530 0.4409
H9 H 0.2973 0.6626 0.5076
Cl1B Cl 1.00768(5) 0.63529(3) -0.03985(8)
O1B O 0.41412(12) 0.62705(8) 0.09995(17)
H1B H 0.4084 0.5941 0.1984
N1B N 0.51061(13) 0.52513(9) 0.41537(18)
C1B C 0.83172(19) 0.63085(10) 0.0038(2)
C2B C 0.71858(19) 0.67722(11) -0.1277(2)
H2B H 0.7359 0.7102 -0.2396
C3B C 0.58017(19) 0.67413(11) -0.0916(2)
H3B H 0.5039 0.7053 -0.1801
C4B C 0.55200(17) 0.62521(10) 0.0747(2)
C5B C 0.66771(15) 0.57776(9) 0.2109(2)
C6B C 0.80722(16) 0.58168(10) 0.1690(2)
H4B H 0.8848 0.5504 0.2547
C7B C 0.64419(15) 0.52653(9) 0.3916(2)
C8B C 0.76993(16) 0.47775(11) 0.5337(2)
H5B H 0.8598 0.5121 0.5327
H6B H 0.7543 0.4802 0.6706
C9B C 0.7862(2) 0.37355(13) 0.4747(3)
H7B H 0.7927 0.3705 0.3352
H8B H 0.8735 0.3470 0.5591
H9B H 0.7027 0.3374 0.4924
loop_
_geom_bond_atom_site_label_1
_geom_bond_atom_site_label_2
_geom_bond_site_symmetry_1
_geom_bond_site_symmetry_2
Cl1 C1 1_555 1_555
O1 H1 1_555 1_555
N1 C7 1_555 1_555
C1 C2 1_555 1_555
C2 H2 1_555 1_555
C3 C2 1_555 1_555
H3 C3 1_555 1_555
C4 O1 1_555 1_555
C5 C4 1_555 1_555
C6 C1 1_555 1_555
H4 C6 1_555 1_555
C7 C5 1_555 1_555
C8 C7 1_555 1_555
H5 C8 1_555 1_555
H6 C8 1_555 1_555
C9 C8 1_555 1_555
H7 C9 1_555 1_555
H8 C9 1_555 1_555
H9 C9 1_555 1_555
Cl1B C1B 1_555 1_555
O1B H1B 1_555 1_555
N1B N1 1_555 1_555
C1B C2B 1_555 1_555
C2B H2B 1_555 1_555
C3B C2B 1_555 1_555
H3B C3B 1_555 1_555
C4B O1B 1_555 1_555
C5B C4B 1_555 1_555
C6B C1B 1_555 1_555
H4B C6B 1_555 1_555
C7B N1B 1_555 1_555
C8B C7B 1_555 1_555
H5B C8B 1_555 1_555
H6B C8B 1_555 1_555
C9B C8B 1_555 1_555
H7B C9B 1_555 1_555
H8B C9B 1_555 1_555
H9B C9B 1_555 1_555
C3 C4 1_555 1_555
C5 C6 1_555 1_555
C3B C4B 1_555 1_555
C5B C6B 1_555 1_555
C5B C7B 1_555 1_555

#END
