
#######################################################################
#
#                 Cambridge Crystallographic Data Centre
#                                CCDC 
#
#######################################################################
#
# If this CIF has been generated from an entry in the Cambridge 
# Structural Database, then it will include bibliographic, chemical, 
# crystal, experimental, refinement or atomic coordinate data resulting 
# from the CCDC's data processing and validation procedures.
#
#######################################################################

data_EFABEU
_chemical_formula_moiety         'C22 H16 Cl2 N2 O5'
_chemical_name_systematic        
'N-(2-Chlorophenyl)-1-(4-chlorophenyl)formamido 3-(2-nitrophenyl)propanoate'
_symmetry_cell_setting           triclinic
_symmetry_space_group_name_H-M   'P -1'
_symmetry_Int_Tables_number      2
_space_group_name_Hall           '-P 1'
loop_
_symmetry_equiv_pos_site_id
_symmetry_equiv_pos_as_xyz
1 x,y,z
2 -x,-y,-z
_cell_length_a                   9.1574(8)
_cell_length_b                   10.1976(6)
_cell_length_c                   12.1736(8)
_cell_angle_alpha                91.847(5)
_cell_angle_beta                 108.327(8)
_cell_angle_gamma                100.285(6)
_cell_volume                     1057.05
_exptl_crystal_colour            colorless
_exptl_crystal_description       block
_cell_formula_units_Z            2
loop_
_atom_site_label
_atom_site_type_symbol
_atom_site_fract_x
_atom_site_fract_y
_atom_site_fract_z
Cl1 Cl 0.30250(8) 0.14141(7) 0.49104(6)
Cl2 Cl 0.24622(12) -0.53403(8) 0.43213(9)
O1 O 0.03359(18) 0.18128(15) 0.24969(15)
O2 O -0.1073(2) -0.01016(18) 0.33664(18)
O3 O -0.1782(3) 0.0981(2) 0.09403(19)
N1 N 0.0768(2) 0.05360(18) 0.25036(18)
C1 C 0.3548(3) 0.1106(2) 0.3701(2)
C2 C 0.2407(3) 0.0716(2) 0.2637(2)
C3 C 0.0030(3) -0.0337(2) 0.3102(2)
C4 C 0.0626(3) -0.1603(2) 0.3349(2)
C5 C 0.1726(3) -0.3910(2) 0.3938(3)
C6 C -0.0991(3) 0.1893(3) 0.1623(2)
C7 C 0.2822(3) 0.0474(3) 0.1654(3)
H1 H 0.2058 0.0246 0.0927
C8 C 0.1748(3) -0.3425(2) 0.2910(3)
H2 H 0.2127 -0.3874 0.2414
C9 C -0.3174(3) 0.4808(3) 0.1221(2)
C10 C 0.0565(3) -0.2147(3) 0.4362(2)
H3 H 0.0148 -0.1728 0.4849
C11 C 0.1203(3) -0.2260(2) 0.2610(2)
H4 H 0.1223 -0.1919 0.1915
C12 C -0.2762(3) 0.6005(3) 0.0793(2)
C13 C -0.1275(3) 0.3281(2) 0.1738(2)
H5 H -0.0445 0.3904 0.1583
H6 H -0.1223 0.3501 0.2532
N2 N -0.1934(4) 0.6103(4) -0.0050(3)
C14 C 0.5514(4) 0.0928(3) 0.2855(4)
H7 H 0.6565 0.0978 0.2930
C15 C 0.4391(4) 0.0577(3) 0.1778(3)
H8 H 0.4689 0.0409 0.1132
C16 C 0.5115(3) 0.1204(3) 0.3813(3)
H9 H 0.5887 0.1455 0.4533
C17 C 0.1111(3) -0.3299(3) 0.4659(3)
H10 H 0.1064 -0.3660 0.5342
C18 C -0.2842(3) 0.3464(3) 0.0924(3)
H11 H -0.2836 0.3403 0.0129
H12 H -0.3667 0.2756 0.0986
C19 C -0.3816(4) 0.7203(4) 0.1959(3)
H13 H -0.4026 0.7998 0.2210
C20 C -0.3929(4) 0.4867(3) 0.2037(3)
H14 H -0.4229 0.4084 0.2350
C21 C -0.4252(4) 0.6038(4) 0.2402(3)
H15 H -0.4768 0.6038 0.2949
C22 C -0.3082(4) 0.7198(3) 0.1157(3)
H16 H -0.2790 0.7987 0.0850
O4 O -0.2146(9) 0.5291(11) -0.0774(8)
O5 O -0.0987(8) 0.7288(7) -0.0029(5)
O6? O -0.1345(10) 0.5136(9) -0.0205(7)
O7? O -0.2098(13) 0.6859(11) -0.0663(10)
loop_
_geom_bond_atom_site_label_1
_geom_bond_atom_site_label_2
_geom_bond_site_symmetry_1
_geom_bond_site_symmetry_2
Cl1 C1 1_555 1_555
Cl2 C5 1_555 1_555
O1 N1 1_555 1_555
O2 C3 1_555 1_555
O3 C6 1_555 1_555
N1 C2 1_555 1_555
C1 C2 1_555 1_555
C2 C7 1_555 1_555
C3 N1 1_555 1_555
C4 C3 1_555 1_555
C5 C8 1_555 1_555
C6 O1 1_555 1_555
C7 H1 1_555 1_555
C8 H2 1_555 1_555
C9 C12 1_555 1_555
C10 C4 1_555 1_555
H3 C10 1_555 1_555
C11 C4 1_555 1_555
H4 C11 1_555 1_555
C12 N2 1_555 1_555
C13 C6 1_555 1_555
H5 C13 1_555 1_555
H6 C13 1_555 1_555
N2 O4 1_555 1_555
C14 H7 1_555 1_555
C15 C7 1_555 1_555
H8 C15 1_555 1_555
C16 C1 1_555 1_555
H9 C16 1_555 1_555
C17 C5 1_555 1_555
H10 C17 1_555 1_555
C18 C9 1_555 1_555
H11 C18 1_555 1_555
H12 C18 1_555 1_555
C19 H13 1_555 1_555
C20 C9 1_555 1_555
H14 C20 1_555 1_555
C21 C19 1_555 1_555
H15 C21 1_555 1_555
C22 C12 1_555 1_555
H16 C22 1_555 1_555
O5 N2 1_555 1_555
C8 C11 1_555 1_555
C10 C17 1_555 1_555
C13 C18 1_555 1_555
C14 C15 1_555 1_555
C14 C16 1_555 1_555
C19 C22 1_555 1_555
C20 C21 1_555 1_555

#END
