
#######################################################################
#
#                 Cambridge Crystallographic Data Centre
#                                CCDC 
#
#######################################################################
#
# If this CIF has been generated from an entry in the Cambridge 
# Structural Database, then it will include bibliographic, chemical, 
# crystal, experimental, refinement or atomic coordinate data resulting 
# from the CCDC's data processing and validation procedures.
#
#######################################################################

data_EFABUJ
_chemical_formula_moiety         'C8 H8 N2 O4'
_chemical_name_systematic        '(R,R)-1,2-Dicyanoethane-1,2-diyl diacetate'
_symmetry_cell_setting           orthorhombic
_symmetry_space_group_name_H-M   'P 21 21 21'
_symmetry_Int_Tables_number      19
_space_group_name_Hall           'P 2ac 2ab'
loop_
_symmetry_equiv_pos_site_id
_symmetry_equiv_pos_as_xyz
1 x,y,z
2 1/2-x,-y,1/2+z
3 -x,1/2+y,1/2-z
4 1/2+x,1/2-y,-z
_cell_length_a                   8.6112(3)
_cell_length_b                   9.8185(3)
_cell_length_c                   11.7898(3)
_cell_angle_alpha                90
_cell_angle_beta                 90
_cell_angle_gamma                90
_cell_volume                     996.817
_exptl_crystal_colour            colorless
_exptl_crystal_description       cube
_cell_formula_units_Z            4
loop_
_atom_site_label
_atom_site_type_symbol
_atom_site_fract_x
_atom_site_fract_y
_atom_site_fract_z
N1 N -0.0675(3) 0.6798(3) 0.25884(18)
C1 C -0.0507(3) 0.5911(2) 0.19802(17)
C2 C -0.0346(2) 0.47826(19) 0.11753(15)
H1 H 0.0133 0.4001 0.1556
C3 C -0.1917(2) 0.4360(2) 0.06801(16)
H2 H -0.1777 0.3589 0.0163
C4 C -0.2644(2) 0.5505(3) 0.00702(17)
N2 N -0.3176(3) 0.6410(3) -0.0378(3)
O1 O 0.05725(14) 0.51668(14) 0.02206(11)
C5 C 0.2150(2) 0.5150(2) 0.03972(19)
O2 O 0.26812(19) 0.4952(2) 0.13107(14)
C6 C 0.3002(3) 0.5398(3) -0.0676(2)
H3 H 0.3414 0.6307 -0.0674
H4 H 0.2306 0.5293 -0.1306
H5 H 0.3838 0.4756 -0.0744
O3 O -0.28422(17) 0.39526(15) 0.16257(11)
C7 C -0.4056(2) 0.3105(2) 0.13934(18)
O4 O -0.4366(2) 0.28067(19) 0.04418(15)
C8 C -0.4855(3) 0.2673(3) 0.2438(2)
H6 H -0.5877 0.2352 0.2253
H7 H -0.4932 0.3431 0.2948
H8 H -0.4276 0.1954 0.2793
loop_
_geom_bond_atom_site_label_1
_geom_bond_atom_site_label_2
_geom_bond_site_symmetry_1
_geom_bond_site_symmetry_2
N1 C1 1_555 1_555
C1 C2 1_555 1_555
C2 H1 1_555 1_555
C3 C2 1_555 1_555
H2 C3 1_555 1_555
C4 C3 1_555 1_555
N2 C4 1_555 1_555
O1 C2 1_555 1_555
C5 O1 1_555 1_555
O2 C5 1_555 1_555
C6 C5 1_555 1_555
H3 C6 1_555 1_555
H4 C6 1_555 1_555
H5 C6 1_555 1_555
O3 C3 1_555 1_555
C7 O3 1_555 1_555
O4 C7 1_555 1_555
C8 C7 1_555 1_555
H6 C8 1_555 1_555
H7 C8 1_555 1_555
H8 C8 1_555 1_555

#END
