
#######################################################################
#
#                 Cambridge Crystallographic Data Centre
#                                CCDC 
#
#######################################################################
#
# If this CIF has been generated from an entry in the Cambridge 
# Structural Database, then it will include bibliographic, chemical, 
# crystal, experimental, refinement or atomic coordinate data resulting 
# from the CCDC's data processing and validation procedures.
#
#######################################################################

data_EFACAS
_chemical_formula_moiety         'C40 H48 O12,C18 H21 N1 O1'
_chemical_name_systematic        
'C-n-propylpyrogallo(4)arene N,N-dibenzylbut-2-en-1-amine N-oxide unknown solvate'
_symmetry_cell_setting           triclinic
_symmetry_space_group_name_H-M   'P -1'
_symmetry_Int_Tables_number      2
_space_group_name_Hall           '-P 1'
loop_
_symmetry_equiv_pos_site_id
_symmetry_equiv_pos_as_xyz
1 x,y,z
2 -x,-y,-z
_cell_length_a                   12.4557(3)
_cell_length_b                   15.7937(4)
_cell_length_c                   15.8516(4)
_cell_angle_alpha                74.969(2)
_cell_angle_beta                 70.023(2)
_cell_angle_gamma                82.963(2)
_cell_volume                     2828.47
_exptl_crystal_colour            colorless
_exptl_crystal_description       block
_cell_formula_units_Z            2
loop_
_atom_site_label
_atom_site_type_symbol
_atom_site_fract_x
_atom_site_fract_y
_atom_site_fract_z
O1 O 0.40442(11) 0.45034(8) 0.66175(8)
H1 H 0.444906 0.431313 0.615549
C1 C 0.45758(13) 0.31126(11) 0.75087(10)
O2 O 0.38650(11) 0.53129(8) 0.79760(8)
H2 H 0.423274 0.558820 0.744345
C2 C 0.42635(13) 0.40035(11) 0.73892(10)
O3 O 0.42026(11) 0.44002(8) 0.95662(8)
H3 H 0.417700 0.494462 0.935040
C3 C 0.41515(13) 0.44342(10) 0.80707(11)
O4 O 0.55022(11) 0.38678(8) 1.06750(8)
H4 H 0.499689 0.399320 1.041723
C4 C 0.43235(13) 0.39748(11) 0.88889(10)
O5 O 0.77199(11) 0.39121(9) 1.06061(9)
H5 H 0.715332 0.406662 1.101535
C5 C 0.46134(13) 0.30842(10) 0.90365(10)
O6 O 0.93424(11) 0.28039(10) 0.98039(10)
H6 H 0.937875 0.317666 1.008608
C6 C 0.47458(13) 0.26761(11) 0.83352(10)
H7 H 0.496272 0.206981 0.842177
O7 O 1.07658(13) 0.27410(11) 0.80927(11)
H8 H 1.029946 0.274286 0.862024
C7 C 0.47399(14) 0.26413(11) 0.67526(10)
H9 H 0.422174 0.294971 0.639734
O8 O 1.16027(15) 0.32669(12) 0.62803(12)
H10 H 1.165283 0.350151 0.668354
C8 C 0.43999(15) 0.16851(11) 0.71090(12)
H11 H 0.456908 0.141782 0.657521
H12 H 0.487568 0.136535 0.748812
O9 O 1.07683(14) 0.27722(11) 0.51582(10)
H13 H 1.026260 0.286719 0.490129
C9 C 0.31634(18) 0.15660(15) 0.76756(15)
H14 H 0.268216 0.189688 0.730598
H15 H 0.299542 0.181083 0.822436
O10 O 0.92216(13) 0.29385(16) 0.42160(11)
H16 H 0.922027 0.332692 0.374035
C10 C 0.2860(3) 0.0615(2) 0.7986(2)
H17 H 0.305169 0.036358 0.744576
H18 H 0.203897 0.056833 0.832206
H19 H 0.329132 0.029311 0.839172
O11 O 0.75403(13) 0.40851(13) 0.38579(10)
H20 H 0.698001 0.444045 0.385933
C11 C 0.60086(14) 0.26633(10) 0.99112(10)
O12 O 0.53524(11) 0.39822(8) 0.50927(8)
H21 H 0.521079 0.390982 0.463516
C12 C 0.62935(14) 0.32755(11) 1.02760(10)
C13 C 0.73972(15) 0.33168(11) 1.02610(11)
C14 C 0.82404(14) 0.27555(12) 0.98494(11)
C15 C 0.79900(14) 0.21407(11) 0.94681(10)
C16 C 0.68735(14) 0.21158(11) 0.95016(11)
H22 H 0.668994 0.170519 0.923200
C17 C 0.47911(13) 0.26032(10) 0.99424(10)
H23 H 0.429072 0.291331 1.042154
C18 C 0.44201(15) 0.16573(11) 1.02543(12)
H24 H 0.365176 0.164373 1.020462
H25 H 0.495658 0.131248 0.983498
C19 C 0.4383(2) 0.12301(14) 1.12353(14)
H26 H 0.514148 0.127027 1.129237
H27 H 0.381876 0.155839 1.165743
C20 C 0.4073(3) 0.02875(17) 1.15292(19)
H28 H 0.331490 0.024320 1.148969
H29 H 0.406419 0.004734 1.216699
H30 H 0.463835 -0.004504 1.112329
C21 C 0.93787(14) 0.18570(11) 0.79935(11)
C22 C 1.02559(15) 0.24302(13) 0.76026(13)
C23 C 1.07039(17) 0.27192(13) 0.66579(14)
C24 C 1.02650(16) 0.24595(13) 0.60836(13)
C25 C 0.93771(14) 0.18893(12) 0.64529(12)
C26 C 0.89508(14) 0.16128(12) 0.74041(12)
H31 H 0.832660 0.123227 0.766388
C27 C 0.89138(14) 0.15164(11) 0.90294(11)
H32 H 0.955986 0.150945 0.927068
C28 C 0.85083(15) 0.05801(12) 0.93297(12)
H33 H 0.818299 0.042429 1.001157
H34 H 0.788327 0.056426 0.908183
C29 C 0.94122(17) -0.01161(12) 0.90318(14)
H35 H 0.973943 0.002929 0.835002
H36 H 1.003726 -0.011322 0.928382
C30 C 0.8942(2) -0.10160(15) 0.9352(2)
H37 H 0.861559 -0.116286 1.002718
H38 H 0.955828 -0.144406 0.915725
H39 H 0.834634 -0.102956 0.908259
C31 C 0.79307(15) 0.22142(13) 0.56321(11)
C32 C 0.81376(16) 0.28664(17) 0.48349(13)
C33 C 0.72705(17) 0.34505(15) 0.46550(12)
C34 C 0.61829(15) 0.33766(12) 0.52798(11)
C35 C 0.59433(14) 0.27261(11) 0.60822(10)
C36 C 0.68333(15) 0.21611(12) 0.62459(11)
H40 H 0.667962 0.171960 0.680397
C37 C 0.88877(15) 0.15804(13) 0.58374(11)
H41 H 0.951439 0.160678 0.523545
C38 C 0.85177(16) 0.06372(13) 0.61989(13)
H42 H 0.817515 0.050170 0.577219
H43 H 0.791039 0.059026 0.680461
C39 C 0.9448(2) -0.00571(15) 0.63158(16)
H44 H 1.008525 0.001082 0.572493
H45 H 0.974700 0.003924 0.678585
C40 C 0.9039(3) -0.09735(18) 0.6602(2)
H46 H 0.843808 -0.105676 0.720424
H47 H 0.967892 -0.139147 0.664479
H48 H 0.873302 -0.107213 0.614323
N1 N 0.45598(13) 0.30062(10) 0.36977(10)
O13 O 0.51242(11) 0.37196(8) 0.36712(8)
C41 C 0.39991(18) 0.14801(13) 0.47267(13)
C42 C 0.2988(2) 0.13886(16) 0.54465(15)
H49 H 0.270014 0.185748 0.574554
C43 C 0.2382(2) 0.0639(2) 0.57449(19)
H50 H 0.168589 0.059198 0.624538
C44 C 0.2777(3) -0.0025(2) 0.5328(2)
H51 H 0.236425 -0.054942 0.554937
C45 C 0.3747(3) 0.00326(18) 0.4602(2)
H52 H 0.399897 -0.043387 0.429486
C46 C 0.4374(2) 0.07859(16) 0.43080(18)
H53 H 0.507210 0.082294 0.381016
C47 C 0.46624(18) 0.22794(13) 0.45041(13)
H54 H 0.547997 0.209620 0.438103
H55 H 0.442030 0.252405 0.505888
C48 C 0.51143(17) 0.27294(13) 0.28045(12)
H56 H 0.471051 0.222494 0.280938
H57 H 0.503713 0.321785 0.228928
C49 C 0.63447(19) 0.24780(15) 0.26432(14)
H58 H 0.680432 0.283926 0.276451
C50 C 0.6827(2) 0.17768(17) 0.23395(17)
H59 H 0.636574 0.139510 0.224742
C51 C 0.8085(3) 0.1564(2) 0.2135(2)
H60 H 0.842970 0.198451 0.231558
H61 H 0.844441 0.159878 0.147234
H62 H 0.820325 0.096915 0.248232
C52 C 0.33136(17) 0.32680(14) 0.38410(14)
H63 H 0.294413 0.280282 0.373462
H64 H 0.293797 0.330544 0.449121
C53 C 0.31191(17) 0.41234(15) 0.32246(14)
C54 C 0.3040(2) 0.48993(17) 0.34977(19)
H65 H 0.314824 0.488701 0.406569
C55 C 0.2805(2) 0.56933(18) 0.2956(2)
H66 H 0.274166 0.622040 0.315578
C56 C 0.2666(2) 0.5712(2) 0.2133(2)
H67 H 0.250960 0.625567 0.175711
C57 C 0.2750(3) 0.4961(2) 0.18484(19)
H68 H 0.266422 0.498063 0.127050
C58 C 0.2961(2) 0.4161(2) 0.24000(17)
H69 H 0.299550 0.363576 0.220444
loop_
_geom_bond_atom_site_label_1
_geom_bond_atom_site_label_2
_geom_bond_site_symmetry_1
_geom_bond_site_symmetry_2
O1 H1 1_555 1_555
C1 C2 1_555 1_555
O2 H2 1_555 1_555
C2 O1 1_555 1_555
O3 H3 1_555 1_555
C3 O2 1_555 1_555
O4 H4 1_555 1_555
C4 O3 1_555 1_555
O5 H5 1_555 1_555
C5 C4 1_555 1_555
O6 H6 1_555 1_555
C6 C1 1_555 1_555
H7 C6 1_555 1_555
O7 H8 1_555 1_555
C7 C1 1_555 1_555
H9 C7 1_555 1_555
O8 H10 1_555 1_555
C8 C7 1_555 1_555
H11 C8 1_555 1_555
H12 C8 1_555 1_555
O9 H13 1_555 1_555
C9 C8 1_555 1_555
H14 C9 1_555 1_555
H15 C9 1_555 1_555
O10 H16 1_555 1_555
C10 C9 1_555 1_555
H17 C10 1_555 1_555
H18 C10 1_555 1_555
H19 C10 1_555 1_555
O11 H20 1_555 1_555
C11 C12 1_555 1_555
O12 H21 1_555 1_555
C12 O4 1_555 1_555
C13 O5 1_555 1_555
C14 O6 1_555 1_555
C15 C14 1_555 1_555
C16 C11 1_555 1_555
H22 C16 1_555 1_555
C17 C5 1_555 1_555
H23 C17 1_555 1_555
C18 C17 1_555 1_555
H24 C18 1_555 1_555
H25 C18 1_555 1_555
C19 C18 1_555 1_555
H26 C19 1_555 1_555
H27 C19 1_555 1_555
C20 C19 1_555 1_555
H28 C20 1_555 1_555
H29 C20 1_555 1_555
H30 C20 1_555 1_555
C21 C22 1_555 1_555
C22 O7 1_555 1_555
C23 O8 1_555 1_555
C24 O9 1_555 1_555
C25 C24 1_555 1_555
C26 C21 1_555 1_555
H31 C26 1_555 1_555
C27 C15 1_555 1_555
H32 C27 1_555 1_555
C28 C27 1_555 1_555
H33 C28 1_555 1_555
H34 C28 1_555 1_555
C29 C28 1_555 1_555
H35 C29 1_555 1_555
H36 C29 1_555 1_555
C30 C29 1_555 1_555
H37 C30 1_555 1_555
H38 C30 1_555 1_555
H39 C30 1_555 1_555
C31 C32 1_555 1_555
C32 O10 1_555 1_555
C33 O11 1_555 1_555
C34 O12 1_555 1_555
C35 C7 1_555 1_555
C36 C31 1_555 1_555
H40 C36 1_555 1_555
C37 C25 1_555 1_555
H41 C37 1_555 1_555
C38 C37 1_555 1_555
H42 C38 1_555 1_555
H43 C38 1_555 1_555
C39 C38 1_555 1_555
H44 C39 1_555 1_555
H45 C39 1_555 1_555
C40 C39 1_555 1_555
H46 C40 1_555 1_555
H47 C40 1_555 1_555
H48 C40 1_555 1_555
N1 O13 1_555 1_555
C41 C42 1_555 1_555
C42 H49 1_555 1_555
C43 C42 1_555 1_555
H50 C43 1_555 1_555
C44 C43 1_555 1_555
H51 C44 1_555 1_555
C45 C44 1_555 1_555
H52 C45 1_555 1_555
C46 C41 1_555 1_555
H53 C46 1_555 1_555
C47 N1 1_555 1_555
H54 C47 1_555 1_555
H55 C47 1_555 1_555
C48 N1 1_555 1_555
H56 C48 1_555 1_555
H57 C48 1_555 1_555
C49 C48 1_555 1_555
H58 C49 1_555 1_555
C50 C49 1_555 1_555
H59 C50 1_555 1_555
C51 C50 1_555 1_555
H60 C51 1_555 1_555
H61 C51 1_555 1_555
H62 C51 1_555 1_555
C52 N1 1_555 1_555
H63 C52 1_555 1_555
H64 C52 1_555 1_555
C53 C52 1_555 1_555
C54 C53 1_555 1_555
H65 C54 1_555 1_555
C55 C54 1_555 1_555
H66 C55 1_555 1_555
C56 C55 1_555 1_555
H67 C56 1_555 1_555
C57 C56 1_555 1_555
H68 C57 1_555 1_555
C58 C53 1_555 1_555
H69 C58 1_555 1_555
C2 C3 1_555 1_555
C3 C4 1_555 1_555
C5 C6 1_555 1_555
C11 C17 1_555 1_555
C12 C13 1_555 1_555
C13 C14 1_555 1_555
C15 C16 1_555 1_555
C21 C27 1_555 1_555
C22 C23 1_555 1_555
C23 C24 1_555 1_555
C25 C26 1_555 1_555
C31 C37 1_555 1_555
C32 C33 1_555 1_555
C33 C34 1_555 1_555
C34 C35 1_555 1_555
C35 C36 1_555 1_555
C41 C47 1_555 1_555
C45 C46 1_555 1_555
C57 C58 1_555 1_555

#END
