
#######################################################################
#
#                 Cambridge Crystallographic Data Centre
#                                CCDC 
#
#######################################################################
#
# If this CIF has been generated from an entry in the Cambridge 
# Structural Database, then it will include bibliographic, chemical, 
# crystal, experimental, refinement or atomic coordinate data resulting 
# from the CCDC's data processing and validation procedures.
#
#######################################################################

data_EFACAS04
_chemical_formula_moiety         'C40 H48 O12,C18 H21 N1 O1'
_chemical_name_systematic        
'C-n-propylpyrogallo(4)arene N,N-dibenzylbut-2-en-1-amine N-oxide unknown solvate'
_symmetry_cell_setting           triclinic
_symmetry_space_group_name_H-M   'P -1'
_symmetry_Int_Tables_number      2
_space_group_name_Hall           '-P 1'
loop_
_symmetry_equiv_pos_site_id
_symmetry_equiv_pos_as_xyz
1 x,y,z
2 -x,-y,-z
_cell_length_a                   12.6358(7)
_cell_length_b                   15.6845(9)
_cell_length_c                   16.1021(9)
_cell_angle_alpha                74.940(5)
_cell_angle_beta                 69.525(5)
_cell_angle_gamma                82.580(5)
_cell_volume                     2884.35
_exptl_crystal_colour            colorless
_exptl_crystal_description       block
_cell_formula_units_Z            2
loop_
_atom_site_label
_atom_site_type_symbol
_atom_site_fract_x
_atom_site_fract_y
_atom_site_fract_z
O1 O 0.40793(19) 0.45254(12) 0.66160(11)
H1 H 0.447164 0.432627 0.616071
C1 C 0.4572(2) 0.31111(16) 0.75043(15)
O2 O 0.3921(2) 0.53401(11) 0.79600(11)
H2 H 0.431031 0.561482 0.744117
C2 C 0.4287(2) 0.40103(16) 0.73849(15)
O3 O 0.4235(2) 0.44124(12) 0.95373(11)
H3 H 0.435450 0.495035 0.930001
C3 C 0.4191(2) 0.44458(16) 0.80556(15)
O4 O 0.54330(19) 0.38390(12) 1.07009(12)
H4 H 0.496772 0.399883 1.041819
C4 C 0.4349(2) 0.39763(16) 0.88681(15)
O5 O 0.7645(2) 0.39085(15) 1.06316(14)
H5 H 0.709638 0.401404 1.107626
C5 C 0.4614(2) 0.30789(16) 0.90174(15)
O6 O 0.9285(2) 0.28387(16) 0.98093(16)
H6 H 0.929963 0.322346 1.008288
C6 C 0.4732(2) 0.26680(16) 0.83227(15)
H7 H 0.493158 0.205399 0.841000
O7 O 1.0683(2) 0.2831(2) 0.80539(18)
H8 H 1.021271 0.283387 0.857294
C7 C 0.4719(3) 0.26369(16) 0.67503(16)
H9 H 0.420696 0.295995 0.640754
O8 O 1.1471(3) 0.3385(2) 0.6256(2)
H10 H 1.119373 0.390400 0.621390
C8 C 0.4350(3) 0.16775(17) 0.71111(18)
H11 H 0.449880 0.140947 0.658597
H12 H 0.482131 0.134273 0.747641
O9 O 1.0666(3) 0.28495(19) 0.51485(15)
H13 H 1.016032 0.294451 0.489164
C9 C 0.3126(3) 0.1577(2) 0.7687(2)
H14 H 0.265162 0.192615 0.733082
H15 H 0.298041 0.182154 0.822652
O10 O 0.9175(2) 0.2935(2) 0.42073(16)
H16 H 0.914829 0.323697 0.370032
C10 C 0.2780(5) 0.0625(3) 0.8003(3)
H17 H 0.292336 0.037697 0.747262
H18 H 0.197251 0.060140 0.836024
H19 H 0.321920 0.028052 0.838221
O11 O 0.7509(2) 0.40568(18) 0.38360(14)
H20 H 0.697151 0.443390 0.384295
C11 C 0.5989(2) 0.26622(16) 0.98919(14)
O12 O 0.53107(18) 0.39650(12) 0.50845(11)
H21 H 0.514013 0.386073 0.466193
C12 C 0.6254(3) 0.32712(16) 1.02794(15)
C13 C 0.7343(3) 0.33170(17) 1.02692(16)
C14 C 0.8195(3) 0.27748(18) 0.98434(17)
C15 C 0.7972(3) 0.21586(18) 0.94442(16)
C16 C 0.6869(3) 0.21261(17) 0.94730(16)
H22 H 0.670726 0.171807 0.919304
C17 C 0.4786(2) 0.25915(16) 0.99172(15)
H23 H 0.427897 0.290330 1.038993
C18 C 0.4423(3) 0.16303(17) 1.02281(18)
H24 H 0.366859 0.161316 1.017533
H25 H 0.496426 0.127881 0.982010
C19 C 0.4372(4) 0.1213(2) 1.1208(2)
H26 H 0.511235 0.126763 1.126760
H27 H 0.379666 0.154566 1.161740
C20 C 0.4090(5) 0.0263(3) 1.1510(3)
H28 H 0.340096 0.019345 1.138996
H29 H 0.396748 0.005675 1.216477
H30 H 0.471568 -0.008685 1.117520
C21 C 0.9351(3) 0.18893(19) 0.79663(18)
C22 C 1.0201(3) 0.2495(2) 0.7567(2)
C23 C 1.0612(3) 0.2799(2) 0.6631(2)
C24 C 1.0184(3) 0.2519(2) 0.6074(2)
C25 C 0.9328(3) 0.19157(19) 0.64436(18)
C26 C 0.8927(3) 0.16261(19) 0.73918(17)
H31 H 0.832944 0.122661 0.765703
C27 C 0.8903(3) 0.15400(18) 0.89992(18)
H32 H 0.954361 0.154544 0.922643
C28 C 0.8526(3) 0.05840(18) 0.93050(19)
H33 H 0.820585 0.042946 0.997843
H34 H 0.791112 0.055384 0.906649
C29 C 0.9447(3) -0.0109(2) 0.9005(2)
H35 H 1.005326 -0.010275 0.926005
H36 H 0.978075 0.004133 0.833275
C30 C 0.8988(4) -0.1034(2) 0.9319(3)
H37 H 0.870869 -0.120303 0.998594
H38 H 0.959357 -0.145498 0.908468
H39 H 0.836853 -0.103741 0.908648
C31 C 0.7897(3) 0.2212(2) 0.56269(17)
C32 C 0.8103(3) 0.2854(2) 0.48234(19)
C33 C 0.7233(3) 0.3429(2) 0.46427(17)
C34 C 0.6155(3) 0.33634(18) 0.52630(16)
C35 C 0.5910(2) 0.27168(16) 0.60766(15)
C36 C 0.6800(3) 0.21591(18) 0.62434(17)
H40 H 0.665361 0.172464 0.680073
C37 C 0.8855(3) 0.1583(2) 0.58399(18)
H41 H 0.948032 0.160380 0.524678
C38 C 0.8489(3) 0.0629(2) 0.6205(2)
H42 H 0.815528 0.048775 0.578767
H43 H 0.788668 0.058537 0.680452
C39 C 0.9427(4) -0.0071(2) 0.6320(2)
H44 H 1.006111 -0.000023 0.573618
H45 H 0.971359 0.002995 0.678383
C40 C 0.9033(5) -0.1003(3) 0.6603(3)
H46 H 0.842883 -0.108619 0.719534
H47 H 0.966775 -0.142085 0.665120
H48 H 0.874627 -0.110730 0.614747
N1 N 0.4492(2) 0.29765(16) 0.37206(15)
O13 O 0.5068(2) 0.37035(13) 0.36780(12)
C41 C 0.3931(3) 0.1443(2) 0.4767(2)
C42 C 0.2912(4) 0.1372(3) 0.5481(2)
H49 H 0.261749 0.185455 0.576227
C43 C 0.2319(4) 0.0604(3) 0.5787(3)
H50 H 0.163384 0.055591 0.628747
C44 C 0.2716(5) -0.0081(3) 0.5371(3)
H51 H 0.230610 -0.060553 0.558498
C45 C 0.3690(5) -0.0020(3) 0.4656(3)
H52 H 0.395385 -0.049621 0.436181
C46 C 0.4305(4) 0.0742(2) 0.4353(3)
H53 H 0.499144 0.077876 0.385340
C47 C 0.4603(3) 0.22498(19) 0.45194(19)
H54 H 0.541152 0.205825 0.438528
H55 H 0.437994 0.250555 0.506050
C48 C 0.5022(3) 0.2688(2) 0.28375(19)
H56 H 0.463947 0.216356 0.286433
H57 H 0.491465 0.316724 0.233171
C49 C 0.6265(4) 0.2463(2) 0.2653(2)
H58 H 0.669266 0.285217 0.276299
C50 C 0.6803(4) 0.1777(3) 0.2356(3)
H59 H 0.637144 0.136553 0.228259
C51 C 0.8041(4) 0.1596(4) 0.2123(4)
H60 H 0.837925 0.206083 0.224135
H61 H 0.837216 0.158449 0.147684
H62 H 0.819065 0.102267 0.249635
C52 C 0.3250(3) 0.3242(2) 0.3882(2)
H63 H 0.288088 0.276965 0.379189
H64 H 0.288921 0.328657 0.452387
C53 C 0.3042(3) 0.4102(2) 0.3272(2)
C54 C 0.2969(4) 0.4886(3) 0.3541(3)
H65 H 0.308635 0.487495 0.409504
C55 C 0.2721(5) 0.5699(3) 0.3001(5)
H66 H 0.265053 0.623477 0.319057
C56 C 0.2585(5) 0.5693(4) 0.2187(4)
H67 H 0.242899 0.623405 0.180965
C57 C 0.2669(5) 0.4942(4) 0.1922(4)
H68 H 0.257394 0.495422 0.135893
C58 C 0.2893(4) 0.4146(3) 0.2463(3)
H69 H 0.294492 0.361647 0.226571
loop_
_geom_bond_atom_site_label_1
_geom_bond_atom_site_label_2
_geom_bond_site_symmetry_1
_geom_bond_site_symmetry_2
O1 H1 1_555 1_555
C1 C2 1_555 1_555
O2 H2 1_555 1_555
C2 O1 1_555 1_555
O3 H3 1_555 1_555
C3 O2 1_555 1_555
O4 H4 1_555 1_555
C4 O3 1_555 1_555
O5 H5 1_555 1_555
C5 C4 1_555 1_555
O6 H6 1_555 1_555
C6 C1 1_555 1_555
H7 C6 1_555 1_555
O7 H8 1_555 1_555
C7 C1 1_555 1_555
H9 C7 1_555 1_555
O8 H10 1_555 1_555
C8 C7 1_555 1_555
H11 C8 1_555 1_555
H12 C8 1_555 1_555
O9 H13 1_555 1_555
C9 C8 1_555 1_555
H14 C9 1_555 1_555
H15 C9 1_555 1_555
O10 H16 1_555 1_555
C10 C9 1_555 1_555
H17 C10 1_555 1_555
H18 C10 1_555 1_555
H19 C10 1_555 1_555
O11 H20 1_555 1_555
C11 C12 1_555 1_555
O12 H21 1_555 1_555
C12 O4 1_555 1_555
C13 O5 1_555 1_555
C14 O6 1_555 1_555
C15 C14 1_555 1_555
C16 C11 1_555 1_555
H22 C16 1_555 1_555
C17 C5 1_555 1_555
H23 C17 1_555 1_555
C18 C17 1_555 1_555
H24 C18 1_555 1_555
H25 C18 1_555 1_555
C19 C18 1_555 1_555
H26 C19 1_555 1_555
H27 C19 1_555 1_555
C20 C19 1_555 1_555
H28 C20 1_555 1_555
H29 C20 1_555 1_555
H30 C20 1_555 1_555
C21 C22 1_555 1_555
C22 O7 1_555 1_555
C23 O8 1_555 1_555
C24 O9 1_555 1_555
C25 C24 1_555 1_555
C26 C21 1_555 1_555
H31 C26 1_555 1_555
C27 C15 1_555 1_555
H32 C27 1_555 1_555
C28 C27 1_555 1_555
H33 C28 1_555 1_555
H34 C28 1_555 1_555
C29 C28 1_555 1_555
H35 C29 1_555 1_555
H36 C29 1_555 1_555
C30 C29 1_555 1_555
H37 C30 1_555 1_555
H38 C30 1_555 1_555
H39 C30 1_555 1_555
C31 C32 1_555 1_555
C32 O10 1_555 1_555
C33 O11 1_555 1_555
C34 O12 1_555 1_555
C35 C7 1_555 1_555
C36 C31 1_555 1_555
H40 C36 1_555 1_555
C37 C25 1_555 1_555
H41 C37 1_555 1_555
C38 C37 1_555 1_555
H42 C38 1_555 1_555
H43 C38 1_555 1_555
C39 C38 1_555 1_555
H44 C39 1_555 1_555
H45 C39 1_555 1_555
C40 C39 1_555 1_555
H46 C40 1_555 1_555
H47 C40 1_555 1_555
H48 C40 1_555 1_555
N1 O13 1_555 1_555
C41 C42 1_555 1_555
C42 H49 1_555 1_555
C43 C42 1_555 1_555
H50 C43 1_555 1_555
C44 C43 1_555 1_555
H51 C44 1_555 1_555
C45 C44 1_555 1_555
H52 C45 1_555 1_555
C46 C41 1_555 1_555
H53 C46 1_555 1_555
C47 N1 1_555 1_555
H54 C47 1_555 1_555
H55 C47 1_555 1_555
C48 N1 1_555 1_555
H56 C48 1_555 1_555
H57 C48 1_555 1_555
C49 C48 1_555 1_555
H58 C49 1_555 1_555
C50 C49 1_555 1_555
H59 C50 1_555 1_555
C51 C50 1_555 1_555
H60 C51 1_555 1_555
H61 C51 1_555 1_555
H62 C51 1_555 1_555
C52 N1 1_555 1_555
H63 C52 1_555 1_555
H64 C52 1_555 1_555
C53 C52 1_555 1_555
C54 C53 1_555 1_555
H65 C54 1_555 1_555
C55 C54 1_555 1_555
H66 C55 1_555 1_555
C56 C55 1_555 1_555
H67 C56 1_555 1_555
C57 C56 1_555 1_555
H68 C57 1_555 1_555
C58 C53 1_555 1_555
H69 C58 1_555 1_555
C2 C3 1_555 1_555
C3 C4 1_555 1_555
C5 C6 1_555 1_555
C11 C17 1_555 1_555
C12 C13 1_555 1_555
C13 C14 1_555 1_555
C15 C16 1_555 1_555
C21 C27 1_555 1_555
C22 C23 1_555 1_555
C23 C24 1_555 1_555
C25 C26 1_555 1_555
C31 C37 1_555 1_555
C32 C33 1_555 1_555
C33 C34 1_555 1_555
C34 C35 1_555 1_555
C35 C36 1_555 1_555
C41 C47 1_555 1_555
C45 C46 1_555 1_555
C57 C58 1_555 1_555

#END
