
#######################################################################
#
#                 Cambridge Crystallographic Data Centre
#                                CCDC 
#
#######################################################################
#
# If this CIF has been generated from an entry in the Cambridge 
# Structural Database, then it will include bibliographic, chemical, 
# crystal, experimental, refinement or atomic coordinate data resulting 
# from the CCDC's data processing and validation procedures.
#
#######################################################################

data_EFACAS03
_chemical_formula_moiety         'C40 H48 O12,C18 H21 N1 O1'
_chemical_name_systematic        
'C-n-propylpyrogallo(4)arene N,N-dibenzylbut-2-en-1-amine N-oxide unknown solvate'
_symmetry_cell_setting           triclinic
_symmetry_space_group_name_H-M   'P -1'
_symmetry_Int_Tables_number      2
_space_group_name_Hall           '-P 1'
loop_
_symmetry_equiv_pos_site_id
_symmetry_equiv_pos_as_xyz
1 x,y,z
2 -x,-y,-z
_cell_length_a                   12.5928(5)
_cell_length_b                   15.8214(5)
_cell_length_c                   15.9924(4)
_cell_angle_alpha                75.015(3)
_cell_angle_beta                 69.981(3)
_cell_angle_gamma                82.878(3)
_cell_volume                     2889.73
_exptl_crystal_colour            colorless
_exptl_crystal_description       block
_cell_formula_units_Z            2
loop_
_atom_site_label
_atom_site_type_symbol
_atom_site_fract_x
_atom_site_fract_y
_atom_site_fract_z
O1 O 0.40401(13) 0.44980(9) 0.66193(8)
H1 H 0.440711 0.428636 0.616762
C1 C 0.45721(14) 0.31052(11) 0.75102(11)
O2 O 0.38645(13) 0.53102(8) 0.79778(8)
H2 H 0.419850 0.558050 0.744034
C2 C 0.42634(15) 0.39984(11) 0.73896(11)
O3 O 0.42051(13) 0.43991(8) 0.95604(8)
H3 H 0.419287 0.494243 0.934343
C3 C 0.41480(15) 0.44291(11) 0.80715(11)
O4 O 0.54947(12) 0.38633(9) 1.06758(9)
H4 H 0.504205 0.403650 1.037850
C4 C 0.43251(15) 0.39695(11) 0.88845(11)
O5 O 0.77100(13) 0.39239(10) 1.06042(10)
H5 H 0.716983 0.403188 1.105196
C5 C 0.46151(14) 0.30815(11) 0.90314(11)
O6 O 0.93342(12) 0.28284(11) 0.97992(11)
H6 H 0.936256 0.319968 1.008258
C6 C 0.47473(15) 0.26696(11) 0.83299(11)
H7 H 0.496654 0.206509 0.841405
O7 O 1.07732(15) 0.27616(14) 0.80794(12)
H8 H 1.033678 0.271939 0.861889
C7 C 0.47357(15) 0.26339(11) 0.67525(11)
H9 H 0.422290 0.294456 0.640173
O8 O 1.16037(18) 0.32860(14) 0.62720(13)
H10 H 1.165901 0.351598 0.667285
C8 C 0.43906(17) 0.16778(12) 0.71078(13)
H11 H 0.455703 0.141260 0.657735
H12 H 0.486451 0.135702 0.748008
O9 O 1.07703(16) 0.27843(13) 0.51544(11)
H13 H 1.026461 0.287933 0.489750
C9 C 0.3164(2) 0.15490(17) 0.76762(17)
H14 H 0.268490 0.188072 0.731362
H15 H 0.299948 0.179145 0.822149
O10 O 0.92120(15) 0.29532(19) 0.42166(12)
H16 H 0.922430 0.338452 0.377796
C10 C 0.2857(3) 0.0597(2) 0.7985(2)
H17 H 0.299563 0.035719 0.744834
H18 H 0.205504 0.055184 0.835396
H19 H 0.331979 0.026582 0.835277
O11 O 0.75368(14) 0.40878(15) 0.38602(11)
H20 H 0.698571 0.444669 0.386273
C11 C 0.60088(15) 0.26639(11) 0.99028(11)
O12 O 0.53477(12) 0.39801(9) 0.50922(8)
H21 H 0.525383 0.393586 0.461016
C12 C 0.62902(16) 0.32792(11) 1.02719(11)
C13 C 0.73914(16) 0.33271(12) 1.02561(11)
C14 C 0.82297(16) 0.27702(12) 0.98452(12)
C15 C 0.79878(16) 0.21532(12) 0.94595(12)
C16 C 0.68733(16) 0.21231(11) 0.94924(11)
H22 H 0.669824 0.171342 0.922140
C17 C 0.47949(15) 0.25984(11) 0.99349(11)
H23 H 0.429849 0.290864 1.040972
C18 C 0.44230(17) 0.16472(12) 1.02472(13)
H24 H 0.366288 0.163481 1.019782
H25 H 0.495368 0.130094 0.983255
C19 C 0.4385(2) 0.12222(16) 1.12242(16)
H26 H 0.513560 0.126416 1.127906
H27 H 0.382776 0.155425 1.163963
C20 C 0.4079(3) 0.02802(19) 1.1530(2)
H28 H 0.334379 0.022946 1.146645
H29 H 0.403556 0.005774 1.217188
H30 H 0.465656 -0.006268 1.115145
C21 C 0.93752(16) 0.18750(12) 0.79897(13)
C22 C 1.02600(19) 0.24480(14) 0.75936(15)
C23 C 1.07033(19) 0.27354(15) 0.66515(16)
C24 C 1.02587(18) 0.24725(14) 0.60810(14)
C25 C 0.93710(17) 0.19043(13) 0.64479(13)
C26 C 0.89439(17) 0.16282(13) 0.74002(13)
H31 H 0.832449 0.125099 0.765872
C27 C 0.89137(16) 0.15350(13) 0.90195(13)
H32 H 0.955120 0.153178 0.925918
C28 C 0.85141(17) 0.05900(13) 0.93221(13)
H33 H 0.819342 0.043547 0.999795
H34 H 0.789635 0.057049 0.907731
C29 C 0.9419(2) -0.01034(14) 0.90244(16)
H35 H 0.973995 0.003880 0.834847
H36 H 1.003733 -0.009714 0.927230
C30 C 0.8949(3) -0.10073(17) 0.9351(3)
H37 H 0.863153 -0.115081 1.002024
H38 H 0.955603 -0.143633 0.915585
H39 H 0.835403 -0.102143 0.908937
C31 C 0.79246(17) 0.22245(14) 0.56297(12)
C32 C 0.81308(19) 0.28750(19) 0.48360(15)
C33 C 0.72671(19) 0.34551(17) 0.46540(13)
C34 C 0.61777(17) 0.33788(13) 0.52796(12)
C35 C 0.59368(16) 0.27239(12) 0.60821(11)
C36 C 0.68251(16) 0.21624(13) 0.62449(12)
H40 H 0.667614 0.172006 0.679618
C37 C 0.88793(17) 0.15916(15) 0.58371(13)
H41 H 0.949857 0.161532 0.524014
C38 C 0.8512(2) 0.06432(15) 0.62001(15)
H42 H 0.817415 0.050466 0.577856
H43 H 0.791273 0.059639 0.680139
C39 C 0.9448(2) -0.00483(17) 0.63138(18)
H44 H 1.007903 0.002044 0.572764
H45 H 0.974276 0.004913 0.678011
C40 C 0.9041(4) -0.0967(2) 0.6598(3)
H46 H 0.845742 -0.105313 0.720088
H47 H 0.967647 -0.138582 0.662687
H48 H 0.872252 -0.106014 0.614991
N1 N 0.45550(15) 0.29997(11) 0.37006(11)
O13 O 0.51235(13) 0.37154(9) 0.36695(9)
C41 C 0.3997(2) 0.14717(15) 0.47300(15)
C42 C 0.2992(2) 0.13750(19) 0.54460(18)
H49 H 0.270531 0.184463 0.574066
C43 C 0.2381(3) 0.0621(2) 0.5753(2)
H50 H 0.169936 0.057510 0.625632
C44 C 0.2762(3) -0.0050(2) 0.5333(2)
H51 H 0.235190 -0.057101 0.554660
C45 C 0.3736(3) 0.0022(2) 0.4603(2)
H52 H 0.398500 -0.043980 0.429241
C46 C 0.4366(3) 0.07735(18) 0.4311(2)
H53 H 0.505672 0.080706 0.381729
C47 C 0.4660(2) 0.22688(15) 0.45028(15)
H54 H 0.546857 0.208263 0.437623
H55 H 0.442778 0.251396 0.505215
C48 C 0.5105(2) 0.27211(15) 0.28091(14)
H56 H 0.471606 0.221018 0.281929
H57 H 0.501441 0.320415 0.230019
C49 C 0.6345(2) 0.24833(17) 0.26370(16)
H58 H 0.679098 0.285684 0.274878
C50 C 0.6840(3) 0.1791(2) 0.2342(2)
H59 H 0.639591 0.139777 0.225564
C51 C 0.8083(3) 0.1598(3) 0.2137(3)
H60 H 0.842446 0.206148 0.225317
H61 H 0.842691 0.157146 0.149348
H62 H 0.821400 0.103449 0.252900
C52 C 0.33171(19) 0.32561(16) 0.38452(16)
H63 H 0.295646 0.278937 0.373973
H64 H 0.294519 0.329241 0.449032
C53 C 0.3113(2) 0.41153(17) 0.32322(16)
C54 C 0.3037(3) 0.48874(19) 0.3508(2)
H65 H 0.315212 0.487422 0.406799
C55 C 0.2794(3) 0.5686(2) 0.2970(3)
H66 H 0.272369 0.621234 0.316911
C56 C 0.2658(3) 0.5702(2) 0.2149(3)
H67 H 0.250207 0.624371 0.177623
C57 C 0.2746(3) 0.4948(3) 0.1865(2)
H68 H 0.265974 0.496687 0.129279
C58 C 0.2958(3) 0.4156(2) 0.2406(2)
H69 H 0.299887 0.363223 0.220851
loop_
_geom_bond_atom_site_label_1
_geom_bond_atom_site_label_2
_geom_bond_site_symmetry_1
_geom_bond_site_symmetry_2
O1 H1 1_555 1_555
C1 C2 1_555 1_555
O2 H2 1_555 1_555
C2 O1 1_555 1_555
O3 H3 1_555 1_555
C3 O2 1_555 1_555
O4 H4 1_555 1_555
C4 O3 1_555 1_555
O5 H5 1_555 1_555
C5 C4 1_555 1_555
O6 H6 1_555 1_555
C6 C1 1_555 1_555
H7 C6 1_555 1_555
O7 H8 1_555 1_555
C7 C1 1_555 1_555
H9 C7 1_555 1_555
O8 H10 1_555 1_555
C8 C7 1_555 1_555
H11 C8 1_555 1_555
H12 C8 1_555 1_555
O9 H13 1_555 1_555
C9 C8 1_555 1_555
H14 C9 1_555 1_555
H15 C9 1_555 1_555
O10 H16 1_555 1_555
C10 C9 1_555 1_555
H17 C10 1_555 1_555
H18 C10 1_555 1_555
H19 C10 1_555 1_555
O11 H20 1_555 1_555
C11 C12 1_555 1_555
O12 H21 1_555 1_555
C12 O4 1_555 1_555
C13 O5 1_555 1_555
C14 O6 1_555 1_555
C15 C14 1_555 1_555
C16 C11 1_555 1_555
H22 C16 1_555 1_555
C17 C5 1_555 1_555
H23 C17 1_555 1_555
C18 C17 1_555 1_555
H24 C18 1_555 1_555
H25 C18 1_555 1_555
C19 C18 1_555 1_555
H26 C19 1_555 1_555
H27 C19 1_555 1_555
C20 C19 1_555 1_555
H28 C20 1_555 1_555
H29 C20 1_555 1_555
H30 C20 1_555 1_555
C21 C22 1_555 1_555
C22 O7 1_555 1_555
C23 O8 1_555 1_555
C24 O9 1_555 1_555
C25 C24 1_555 1_555
C26 C21 1_555 1_555
H31 C26 1_555 1_555
C27 C15 1_555 1_555
H32 C27 1_555 1_555
C28 C27 1_555 1_555
H33 C28 1_555 1_555
H34 C28 1_555 1_555
C29 C28 1_555 1_555
H35 C29 1_555 1_555
H36 C29 1_555 1_555
C30 C29 1_555 1_555
H37 C30 1_555 1_555
H38 C30 1_555 1_555
H39 C30 1_555 1_555
C31 C32 1_555 1_555
C32 O10 1_555 1_555
C33 O11 1_555 1_555
C34 O12 1_555 1_555
C35 C7 1_555 1_555
C36 C31 1_555 1_555
H40 C36 1_555 1_555
C37 C25 1_555 1_555
H41 C37 1_555 1_555
C38 C37 1_555 1_555
H42 C38 1_555 1_555
H43 C38 1_555 1_555
C39 C38 1_555 1_555
H44 C39 1_555 1_555
H45 C39 1_555 1_555
C40 C39 1_555 1_555
H46 C40 1_555 1_555
H47 C40 1_555 1_555
H48 C40 1_555 1_555
N1 O13 1_555 1_555
C41 C42 1_555 1_555
C42 H49 1_555 1_555
C43 C42 1_555 1_555
H50 C43 1_555 1_555
C44 C43 1_555 1_555
H51 C44 1_555 1_555
C45 C44 1_555 1_555
H52 C45 1_555 1_555
C46 C41 1_555 1_555
H53 C46 1_555 1_555
C47 N1 1_555 1_555
H54 C47 1_555 1_555
H55 C47 1_555 1_555
C48 N1 1_555 1_555
H56 C48 1_555 1_555
H57 C48 1_555 1_555
C49 C48 1_555 1_555
H58 C49 1_555 1_555
C50 C49 1_555 1_555
H59 C50 1_555 1_555
C51 C50 1_555 1_555
H60 C51 1_555 1_555
H61 C51 1_555 1_555
H62 C51 1_555 1_555
C52 N1 1_555 1_555
H63 C52 1_555 1_555
H64 C52 1_555 1_555
C53 C52 1_555 1_555
C54 C53 1_555 1_555
H65 C54 1_555 1_555
C55 C54 1_555 1_555
H66 C55 1_555 1_555
C56 C55 1_555 1_555
H67 C56 1_555 1_555
C57 C56 1_555 1_555
H68 C57 1_555 1_555
C58 C53 1_555 1_555
H69 C58 1_555 1_555
C2 C3 1_555 1_555
C3 C4 1_555 1_555
C5 C6 1_555 1_555
C11 C17 1_555 1_555
C12 C13 1_555 1_555
C13 C14 1_555 1_555
C15 C16 1_555 1_555
C21 C27 1_555 1_555
C22 C23 1_555 1_555
C23 C24 1_555 1_555
C25 C26 1_555 1_555
C31 C37 1_555 1_555
C32 C33 1_555 1_555
C33 C34 1_555 1_555
C34 C35 1_555 1_555
C35 C36 1_555 1_555
C41 C47 1_555 1_555
C45 C46 1_555 1_555
C57 C58 1_555 1_555

#END
