
#######################################################################
#
#                 Cambridge Crystallographic Data Centre
#                                CCDC 
#
#######################################################################
#
# If this CIF has been generated from an entry in the Cambridge 
# Structural Database, then it will include bibliographic, chemical, 
# crystal, experimental, refinement or atomic coordinate data resulting 
# from the CCDC's data processing and validation procedures.
#
#######################################################################

data_EFACAS05
_chemical_formula_moiety         'C40 H48 O12,C18 H21 N1 O1'
_chemical_name_systematic        
'C-n-propylpyrogallo(4)arene N,N-dibenzylbut-2-en-1-amine N-oxide unknown solvate'
_symmetry_cell_setting           triclinic
_symmetry_space_group_name_H-M   'P -1'
_symmetry_Int_Tables_number      2
_space_group_name_Hall           '-P 1'
loop_
_symmetry_equiv_pos_site_id
_symmetry_equiv_pos_as_xyz
1 x,y,z
2 -x,-y,-z
_cell_length_a                   12.6965(16)
_cell_length_b                   15.7676(13)
_cell_length_c                   16.0920(11)
_cell_angle_alpha                74.969(7)
_cell_angle_beta                 69.575(9)
_cell_angle_gamma                82.507(8)
_cell_volume                     2912.85
_exptl_crystal_colour            colorless
_exptl_crystal_description       block
_cell_formula_units_Z            2
loop_
_atom_site_label
_atom_site_type_symbol
_atom_site_fract_x
_atom_site_fract_y
_atom_site_fract_z
O1 O 0.4082(3) 0.45237(18) 0.66170(16)
H1 H 0.441159 0.429178 0.617338
C1 C 0.4574(4) 0.3115(2) 0.7504(2)
O2 O 0.3920(3) 0.53339(17) 0.79592(17)
H2 H 0.417282 0.559065 0.740664
C2 C 0.4286(4) 0.4009(2) 0.7388(2)
O3 O 0.4240(3) 0.44154(17) 0.95353(18)
H3 H 0.415640 0.495804 0.933247
C3 C 0.4183(4) 0.4446(2) 0.8056(2)
O4 O 0.5435(3) 0.38426(19) 1.06994(19)
H4 H 0.497206 0.400388 1.041630
C4 C 0.4341(4) 0.3977(2) 0.8871(2)
O5 O 0.7640(3) 0.3908(2) 1.0622(2)
H5 H 0.707816 0.406154 1.102806
C5 C 0.4606(4) 0.3087(2) 0.9021(2)
O6 O 0.9271(3) 0.2842(2) 0.9803(2)
H6 H 0.929646 0.326004 1.002779
C6 C 0.4734(4) 0.2674(2) 0.8327(2)
H7 H 0.493999 0.206401 0.841484
O7 O 1.0697(3) 0.2789(3) 0.8053(3)
H8 H 1.020387 0.291729 0.851495
C7 C 0.4723(4) 0.2641(2) 0.6756(3)
H9 H 0.421328 0.296032 0.641190
O8 O 1.1502(4) 0.3300(3) 0.6253(3)
H10 H 1.152478 0.355894 0.664113
C8 C 0.4366(4) 0.1691(3) 0.7111(3)
H11 H 0.452097 0.142534 0.658414
H12 H 0.483673 0.136017 0.747715
O9 O 1.0693(4) 0.2787(3) 0.5148(2)
H13 H 1.018693 0.288215 0.489159
C9 C 0.3149(6) 0.1580(4) 0.7685(4)
H14 H 0.267551 0.193069 0.733117
H15 H 0.300015 0.181574 0.823021
O10 O 0.9166(4) 0.2915(3) 0.4212(3)
H16 H 0.922084 0.340383 0.383771
C10 C 0.2809(7) 0.0635(4) 0.7988(5)
H17 H 0.299085 0.038592 0.745390
H18 H 0.199853 0.061235 0.831661
H19 H 0.321851 0.029468 0.839139
O11 O 0.7507(3) 0.4044(3) 0.3844(2)
H20 H 0.696578 0.441156 0.384132
C11 C 0.5989(4) 0.2668(2) 0.9891(2)
O12 O 0.5317(3) 0.39554(19) 0.50888(18)
H21 H 0.520785 0.389516 0.462202
C12 C 0.6250(4) 0.3270(2) 1.0278(2)
C13 C 0.7329(4) 0.3318(3) 1.0264(3)
C14 C 0.8184(5) 0.2773(3) 0.9842(3)
C15 C 0.7961(4) 0.2163(3) 0.9441(3)
C16 C 0.6858(4) 0.2129(3) 0.9481(2)
H22 H 0.669110 0.171426 0.921393
C17 C 0.4791(4) 0.2597(2) 0.9918(2)
H23 H 0.429073 0.290724 1.039237
C18 C 0.4417(5) 0.1649(3) 1.0226(3)
H24 H 0.366428 0.164246 1.017423
H25 H 0.494753 0.129809 0.981423
C19 C 0.4366(6) 0.1217(3) 1.1207(3)
H26 H 0.510098 0.127055 1.127090
H27 H 0.378981 0.154030 1.162239
C20 C 0.4099(7) 0.0282(4) 1.1493(4)
H28 H 0.344072 0.020898 1.133687
H29 H 0.393432 0.007904 1.215303
H30 H 0.474268 -0.006461 1.117927
C21 C 0.9337(4) 0.1884(3) 0.7970(3)
C22 C 1.0191(5) 0.2462(3) 0.7575(3)
C23 C 1.0619(5) 0.2747(3) 0.6632(4)
C24 C 1.0183(5) 0.2472(3) 0.6078(3)
C25 C 0.9316(4) 0.1906(3) 0.6446(3)
C26 C 0.8898(4) 0.1627(3) 0.7402(3)
H31 H 0.828890 0.124411 0.766919
C27 C 0.8892(4) 0.1539(3) 0.9002(3)
H32 H 0.952879 0.154301 0.923114
C28 C 0.8507(4) 0.0591(3) 0.9310(3)
H33 H 0.818803 0.043805 0.998308
H34 H 0.789863 0.056198 0.906776
C29 C 0.9439(5) -0.0096(3) 0.9006(3)
H35 H 0.976610 0.005142 0.833260
H36 H 1.004514 -0.008231 0.925638
C30 C 0.8989(6) -0.1019(4) 0.9327(5)
H37 H 0.873130 -0.118846 0.999446
H38 H 0.958870 -0.143599 0.908280
H39 H 0.835920 -0.102529 0.911034
C31 C 0.7895(4) 0.2208(3) 0.5637(3)
C32 C 0.8084(5) 0.2847(4) 0.4832(3)
C33 C 0.7229(5) 0.3423(3) 0.4655(3)
C34 C 0.6158(4) 0.3357(3) 0.5269(3)
C35 C 0.5896(4) 0.2715(3) 0.6088(2)
C36 C 0.6794(4) 0.2157(3) 0.6246(3)
H40 H 0.664652 0.171805 0.679887
C37 C 0.8845(4) 0.1572(3) 0.5849(3)
H41 H 0.946502 0.158711 0.525578
C38 C 0.8474(5) 0.0626(3) 0.6221(3)
H42 H 0.813446 0.048351 0.580821
H43 H 0.788046 0.058574 0.682263
C39 C 0.9415(5) -0.0068(4) 0.6330(4)
H44 H 1.004229 0.000050 0.574398
H45 H 0.970594 0.003175 0.679146
C40 C 0.9013(7) -0.1004(4) 0.6619(5)
H46 H 0.839475 -0.107675 0.720064
H47 H 0.963606 -0.142197 0.668898
H48 H 0.875021 -0.111387 0.615328
N1 N 0.4511(4) 0.2979(2) 0.3713(2)
O13 O 0.5087(3) 0.3694(2) 0.36793(19)
C41 C 0.3952(5) 0.1451(3) 0.4751(3)
C42 C 0.2936(6) 0.1360(4) 0.5458(4)
H49 H 0.264035 0.183545 0.574515
C43 C 0.2339(7) 0.0612(5) 0.5760(4)
H50 H 0.165338 0.056981 0.625678
C44 C 0.2734(7) -0.0071(5) 0.5344(5)
H51 H 0.232544 -0.059182 0.554928
C45 C 0.3716(7) -0.0003(4) 0.4632(5)
H52 H 0.398503 -0.047534 0.433511
C46 C 0.4329(6) 0.0752(4) 0.4335(4)
H53 H 0.501579 0.078760 0.383941
C47 C 0.4622(5) 0.2250(3) 0.4512(3)
H54 H 0.542618 0.205705 0.437741
H55 H 0.440007 0.250035 0.505568
C48 C 0.5039(5) 0.2686(3) 0.2841(3)
H56 H 0.492695 0.315910 0.233318
H57 H 0.466088 0.216248 0.287214
C49 C 0.6281(6) 0.2465(4) 0.2648(3)
H58 H 0.671426 0.285433 0.274705
C50 C 0.6795(6) 0.1783(4) 0.2359(4)
H59 H 0.636748 0.137785 0.227745
C51 C 0.8043(6) 0.1604(5) 0.2145(5)
H60 H 0.835240 0.203265 0.233250
H61 H 0.839981 0.165438 0.148780
H62 H 0.818900 0.100956 0.247388
C52 C 0.3283(5) 0.3243(3) 0.3870(3)
H63 H 0.292272 0.328619 0.451239
H64 H 0.291798 0.277372 0.377777
C53 C 0.3067(5) 0.4105(4) 0.3259(4)
C54 C 0.2995(6) 0.4884(4) 0.3542(5)
H65 H 0.310629 0.487026 0.409934
C55 C 0.2753(7) 0.5695(4) 0.2990(7)
H66 H 0.269131 0.623153 0.317123
C56 C 0.2610(8) 0.5679(6) 0.2185(6)
H67 H 0.244038 0.621492 0.181022
C57 C 0.2701(8) 0.4939(6) 0.1917(6)
H68 H 0.261827 0.495654 0.134887
C58 C 0.2917(6) 0.4136(5) 0.2456(4)
H69 H 0.295991 0.360859 0.226226
loop_
_geom_bond_atom_site_label_1
_geom_bond_atom_site_label_2
_geom_bond_site_symmetry_1
_geom_bond_site_symmetry_2
O1 H1 1_555 1_555
C1 C2 1_555 1_555
O2 H2 1_555 1_555
C2 O1 1_555 1_555
O3 H3 1_555 1_555
C3 O2 1_555 1_555
O4 H4 1_555 1_555
C4 O3 1_555 1_555
O5 H5 1_555 1_555
C5 C4 1_555 1_555
O6 H6 1_555 1_555
C6 C1 1_555 1_555
H7 C6 1_555 1_555
O7 H8 1_555 1_555
C7 C1 1_555 1_555
H9 C7 1_555 1_555
O8 H10 1_555 1_555
C8 C7 1_555 1_555
H11 C8 1_555 1_555
H12 C8 1_555 1_555
O9 H13 1_555 1_555
C9 C8 1_555 1_555
H14 C9 1_555 1_555
H15 C9 1_555 1_555
O10 H16 1_555 1_555
C10 C9 1_555 1_555
H17 C10 1_555 1_555
H18 C10 1_555 1_555
H19 C10 1_555 1_555
O11 H20 1_555 1_555
C11 C12 1_555 1_555
O12 H21 1_555 1_555
C12 O4 1_555 1_555
C13 O5 1_555 1_555
C14 O6 1_555 1_555
C15 C14 1_555 1_555
C16 C11 1_555 1_555
H22 C16 1_555 1_555
C17 C5 1_555 1_555
H23 C17 1_555 1_555
C18 C17 1_555 1_555
H24 C18 1_555 1_555
H25 C18 1_555 1_555
C19 C18 1_555 1_555
H26 C19 1_555 1_555
H27 C19 1_555 1_555
C20 C19 1_555 1_555
H28 C20 1_555 1_555
H29 C20 1_555 1_555
H30 C20 1_555 1_555
C21 C22 1_555 1_555
C22 O7 1_555 1_555
C23 O8 1_555 1_555
C24 O9 1_555 1_555
C25 C24 1_555 1_555
C26 C21 1_555 1_555
H31 C26 1_555 1_555
C27 C15 1_555 1_555
H32 C27 1_555 1_555
C28 C27 1_555 1_555
H33 C28 1_555 1_555
H34 C28 1_555 1_555
C29 C28 1_555 1_555
H35 C29 1_555 1_555
H36 C29 1_555 1_555
C30 C29 1_555 1_555
H37 C30 1_555 1_555
H38 C30 1_555 1_555
H39 C30 1_555 1_555
C31 C32 1_555 1_555
C32 O10 1_555 1_555
C33 O11 1_555 1_555
C34 O12 1_555 1_555
C35 C7 1_555 1_555
C36 C31 1_555 1_555
H40 C36 1_555 1_555
C37 C25 1_555 1_555
H41 C37 1_555 1_555
C38 C37 1_555 1_555
H42 C38 1_555 1_555
H43 C38 1_555 1_555
C39 C38 1_555 1_555
H44 C39 1_555 1_555
H45 C39 1_555 1_555
C40 C39 1_555 1_555
H46 C40 1_555 1_555
H47 C40 1_555 1_555
H48 C40 1_555 1_555
N1 O13 1_555 1_555
C41 C42 1_555 1_555
C42 H49 1_555 1_555
C43 C42 1_555 1_555
H50 C43 1_555 1_555
C44 C43 1_555 1_555
H51 C44 1_555 1_555
C45 C44 1_555 1_555
H52 C45 1_555 1_555
C46 C41 1_555 1_555
H53 C46 1_555 1_555
C47 N1 1_555 1_555
H54 C47 1_555 1_555
H55 C47 1_555 1_555
C48 N1 1_555 1_555
H56 C48 1_555 1_555
H57 C48 1_555 1_555
C49 C48 1_555 1_555
H58 C49 1_555 1_555
C50 C49 1_555 1_555
H59 C50 1_555 1_555
C51 C50 1_555 1_555
H60 C51 1_555 1_555
H61 C51 1_555 1_555
H62 C51 1_555 1_555
C52 N1 1_555 1_555
H63 C52 1_555 1_555
H64 C52 1_555 1_555
C53 C52 1_555 1_555
C54 C53 1_555 1_555
H65 C54 1_555 1_555
C55 C54 1_555 1_555
H66 C55 1_555 1_555
C56 C55 1_555 1_555
H67 C56 1_555 1_555
C57 C56 1_555 1_555
H68 C57 1_555 1_555
C58 C53 1_555 1_555
H69 C58 1_555 1_555
C2 C3 1_555 1_555
C3 C4 1_555 1_555
C5 C6 1_555 1_555
C11 C17 1_555 1_555
C12 C13 1_555 1_555
C13 C14 1_555 1_555
C15 C16 1_555 1_555
C21 C27 1_555 1_555
C22 C23 1_555 1_555
C23 C24 1_555 1_555
C25 C26 1_555 1_555
C31 C37 1_555 1_555
C32 C33 1_555 1_555
C33 C34 1_555 1_555
C34 C35 1_555 1_555
C35 C36 1_555 1_555
C41 C47 1_555 1_555
C45 C46 1_555 1_555
C57 C58 1_555 1_555

#END
