
#######################################################################
#
#                 Cambridge Crystallographic Data Centre
#                                CCDC 
#
#######################################################################
#
# If this CIF has been generated from an entry in the Cambridge 
# Structural Database, then it will include bibliographic, chemical, 
# crystal, experimental, refinement or atomic coordinate data resulting 
# from the CCDC's data processing and validation procedures.
#
#######################################################################

data_EFANAC01
_chemical_formula_moiety         'C14 H16 O4 S2'
_chemical_name_systematic        
'Diethyl 3,4-dimethylthieno[2,3-b]thiophene-2,5-dicarboxylate'
_symmetry_cell_setting           triclinic
_symmetry_space_group_name_H-M   'P -1'
_symmetry_Int_Tables_number      2
_space_group_name_Hall           '-P 1'
loop_
_symmetry_equiv_pos_site_id
_symmetry_equiv_pos_as_xyz
1 x,y,z
2 -x,-y,-z
_cell_length_a                   7.542(3)
_cell_length_b                   8.464(5)
_cell_length_c                   13.006(6)
_cell_angle_alpha                102.844(3)
_cell_angle_beta                 100.097(3)
_cell_angle_gamma                107.616(4)
_cell_volume                     744.758
_exptl_crystal_colour            colorless
_exptl_crystal_description       block
_cell_formula_units_Z            2
loop_
_atom_site_label
_atom_site_type_symbol
_atom_site_fract_x
_atom_site_fract_y
_atom_site_fract_z
S1 S 0.58092(13) 0.07064(11) 0.88862(7)
S2 S 0.80883(13) 0.33316(11) 1.11862(7)
O1 O 0.9905(4) 0.8363(3) 1.23499(19)
C1 C 0.7831(4) 0.5715(4) 1.0238(3)
C2 C 0.6887(4) 0.4066(4) 0.9415(2)
O2 O 0.3859(4) -0.1054(4) 0.6682(2)
O3 O 1.0184(4) 0.6257(3) 1.3070(2)
C3 C 0.8547(5) 0.5495(4) 1.1218(3)
C4 C 0.5888(4) 0.3461(4) 0.8275(3)
O4 O 0.3593(4) 0.1105(4) 0.6034(2)
C5 C 0.9624(5) 0.6731(4) 1.2301(3)
C6 C 0.6932(4) 0.2697(4) 0.9825(2)
C7 C 0.5243(5) 0.1703(4) 0.7894(3)
C8 C 0.7978(5) 0.7427(5) 1.0045(3)
H1 H 0.7373 0.7244 0.9293
H2 H 0.9310 0.8146 1.0214
H3 H 0.7344 0.7988 1.0504
C9 C 1.0950(6) 0.9643(5) 1.3399(3)
H4 H 1.2167 0.9514 1.3666
H5 H 1.0202 0.9497 1.3929
C10 C 0.5655(6) 0.4635(5) 0.7586(3)
H6 H 0.6223 0.5820 0.8033
H7 H 0.4310 0.4366 0.7274
H8 H 0.6285 0.4466 0.7012
C11 C 0.4157(5) 0.0597(5) 0.6777(3)
C12 C 0.2867(8) -0.2246(6) 0.5585(4)
H9 H 0.1528 -0.2341 0.5412
H10 H 0.3454 -0.1791 0.5055
C13 C 0.2967(8) -0.3873(6) 0.5519(4)
H11 H 0.2307 -0.4635 0.4795
H12 H 0.2373 -0.4328 0.6037
H13 H 0.4293 -0.3782 0.5678
C14 C 1.1291(7) 1.1382(5) 1.3232(4)
H14 H 1.1988 1.2264 1.3912
H15 H 1.0077 1.1496 1.2971
H16 H 1.2029 1.1509 1.2704
loop_
_geom_bond_atom_site_label_1
_geom_bond_atom_site_label_2
_geom_bond_site_symmetry_1
_geom_bond_site_symmetry_2
S1 C6 1_555 1_555
S2 C3 1_555 1_555
O1 C5 1_555 1_555
C1 C2 1_555 1_555
C2 C4 1_555 1_555
O2 C11 1_555 1_555
O3 C5 1_555 1_555
C3 C1 1_555 1_555
C4 C7 1_555 1_555
O4 C11 1_555 1_555
C5 C3 1_555 1_555
C6 S2 1_555 1_555
C7 S1 1_555 1_555
C8 C1 1_555 1_555
H1 C8 1_555 1_555
H2 C8 1_555 1_555
H3 C8 1_555 1_555
C9 O1 1_555 1_555
H4 C9 1_555 1_555
H5 C9 1_555 1_555
C10 C4 1_555 1_555
H6 C10 1_555 1_555
H7 C10 1_555 1_555
H8 C10 1_555 1_555
C11 C7 1_555 1_555
C12 O2 1_555 1_555
H9 C12 1_555 1_555
H10 C12 1_555 1_555
C13 C12 1_555 1_555
H11 C13 1_555 1_555
H12 C13 1_555 1_555
H13 C13 1_555 1_555
C14 C9 1_555 1_555
H14 C14 1_555 1_555
H15 C14 1_555 1_555
H16 C14 1_555 1_555
C2 C6 1_555 1_555

#END
