
#######################################################################
#
#                 Cambridge Crystallographic Data Centre
#                                CCDC 
#
#######################################################################
#
# If this CIF has been generated from an entry in the Cambridge 
# Structural Database, then it will include bibliographic, chemical, 
# crystal, experimental, refinement or atomic coordinate data resulting 
# from the CCDC's data processing and validation procedures.
#
#######################################################################

data_EFAPIM
_chemical_formula_moiety         'C16 H14 N2 O1'
_chemical_name_systematic        1-(1-Benzyl-1H-benzimidazol-2-yl)ethanone
_symmetry_cell_setting           triclinic
_symmetry_space_group_name_H-M   'P -1'
_symmetry_Int_Tables_number      2
_space_group_name_Hall           '-P 1'
loop_
_symmetry_equiv_pos_site_id
_symmetry_equiv_pos_as_xyz
1 x,y,z
2 -x,-y,-z
_cell_length_a                   6.1307(10)
_cell_length_b                   6.5226(12)
_cell_length_c                   34.739(6)
_cell_angle_alpha                90.021(3)
_cell_angle_beta                 92.749(3)
_cell_angle_gamma                110.674(3)
_cell_volume                     1297.97
_exptl_crystal_colour            colorless
_exptl_crystal_description       block
_cell_formula_units_Z            4
loop_
_atom_site_label
_atom_site_type_symbol
_atom_site_fract_x
_atom_site_fract_y
_atom_site_fract_z
N1 N 0.2590(4) 0.5385(4) 0.04941(6)
N2 N 0.3603(4) 0.6559(4) 0.11075(6)
C1 C 0.2089(5) 0.7550(4) 0.09724(8)
C2 C 0.1469(5) 0.6810(4) 0.05892(8)
O1 O 0.6433(4) 0.3837(4) 0.11196(7)
C3 C 0.3821(5) 0.5266(5) 0.08078(8)
C4 C 0.3396(5) 0.4803(5) 0.17452(8)
C5 C 0.1216(6) 0.9027(5) 0.11414(9)
H1 H 0.1639 0.9531 0.1394
C6 C 0.4598(6) 0.6760(5) 0.15034(8)
H2 H 0.4493 0.8061 0.1624
H3 H 0.6239 0.6952 0.1497
C7 C -0.0061(5) 0.7522(5) 0.03642(8)
H4 H -0.0477 0.7043 0.0110
C8 C 0.5329(5) 0.3922(5) 0.08265(9)
C9 C 0.5351(6) 0.2674(5) 0.04673(10)
H5 H 0.6700 0.2249 0.0478
H6 H 0.5401 0.3581 0.0248
H7 H 0.3965 0.1388 0.0445
C10 C -0.0931(6) 0.8958(5) 0.05327(9)
H8 H -0.1964 0.9448 0.0389
C11 C -0.0307(6) 0.9703(5) 0.09136(10)
H9 H -0.0933 1.0679 0.1017
C12 C 0.0981(6) 0.3821(5) 0.17316(9)
H10 H 0.0072 0.4360 0.1568
C13 C 0.4703(7) 0.3977(7) 0.19917(9)
H11 H 0.6322 0.4621 0.2005
C14 C 0.3631(8) 0.2209(8) 0.22184(11)
H12 H 0.4536 0.1660 0.2381
C15 C 0.1242(8) 0.1247(7) 0.22070(10)
H13 H 0.0527 0.0070 0.2364
C16 C -0.0081(7) 0.2042(6) 0.19608(10)
H14 H -0.1699 0.1382 0.1948
N3 N 0.2918(4) 0.1314(4) 0.38915(6)
N4 N 0.2276(4) 0.0279(4) 0.45054(6)
C17 C 0.1488(5) 0.2343(4) 0.40291(8)
C18 C 0.1103(5) 0.1685(4) 0.44105(7)
O2 O 0.5754(4) -0.1398(4) 0.38807(7)
C19 C 0.3329(5) 0.0094(4) 0.41922(8)
C20 C 0.2311(5) -0.0590(5) 0.32567(8)
C21 C -0.0289(5) 0.2441(5) 0.46367(8)
H15 H -0.0546 0.2018 0.4891
C22 C 0.3662(5) 0.1418(5) 0.34957(8)
H16 H 0.5306 0.1609 0.3502
H17 H 0.3482 0.2689 0.3374
C23 C 0.4815(5) -0.1260(5) 0.41743(9)
C24 C 0.0503(5) 0.3784(5) 0.38595(8)
H18 H 0.0760 0.4228 0.3606
C25 C 0.5069(6) -0.2427(5) 0.45347(10)
H19 H 0.3755 -0.3767 0.4548
H20 H 0.5136 -0.1511 0.4755
H21 H 0.6479 -0.2751 0.4533
C26 C 0.3418(7) -0.1542(6) 0.30162(9)
H22 H 0.5033 -0.0937 0.3005
C27 C -0.0115(6) -0.1540(6) 0.32685(9)
H23 H -0.0909 -0.0935 0.3429
C28 C -0.0862(6) 0.4507(5) 0.40859(9)
H24 H -0.1541 0.5471 0.3984
C29 C -0.1260(6) 0.3834(5) 0.44664(9)
H25 H -0.2214 0.4349 0.4609
C30 C -0.1339(7) -0.3367(6) 0.30447(11)
H26 H -0.2954 -0.3985 0.3055
C31 C 0.2199(8) -0.3370(7) 0.27911(10)
H27 H 0.2983 -0.3982 0.2630
C32 C -0.0193(8) -0.4277(7) 0.28074(11)
H28 H -0.1030 -0.5510 0.2657
loop_
_geom_bond_atom_site_label_1
_geom_bond_atom_site_label_2
_geom_bond_site_symmetry_1
_geom_bond_site_symmetry_2
N1 C2 1_555 1_555
N2 C1 1_555 1_555
C1 C2 1_555 1_555
C2 C7 1_555 1_555
O1 C8 1_555 1_555
C3 N1 1_555 1_555
C4 C6 1_555 1_555
C5 C1 1_555 1_555
H1 C5 1_555 1_555
C6 N2 1_555 1_555
H2 C6 1_555 1_555
H3 C6 1_555 1_555
C7 H4 1_555 1_555
C8 C3 1_555 1_555
C9 C8 1_555 1_555
H5 C9 1_555 1_555
H6 C9 1_555 1_555
H7 C9 1_555 1_555
C10 C7 1_555 1_555
H8 C10 1_555 1_555
C11 C5 1_555 1_555
H9 C11 1_555 1_555
C12 C4 1_555 1_555
H10 C12 1_555 1_555
C13 C4 1_555 1_555
H11 C13 1_555 1_555
C14 C13 1_555 1_555
H12 C14 1_555 1_555
C15 C14 1_555 1_555
H13 C15 1_555 1_555
C16 C12 1_555 1_555
H14 C16 1_555 1_555
N3 C17 1_555 1_555
N4 C18 1_555 1_555
C17 C18 1_555 1_555
C18 C21 1_555 1_555
O2 C23 1_555 1_555
C19 N3 1_555 1_555
C20 C22 1_555 1_555
C21 H15 1_555 1_555
C22 N3 1_555 1_555
H16 C22 1_555 1_555
H17 C22 1_555 1_555
C23 C19 1_555 1_555
C24 C17 1_555 1_555
H18 C24 1_555 1_555
C25 C23 1_555 1_555
H19 C25 1_555 1_555
H20 C25 1_555 1_555
H21 C25 1_555 1_555
C26 C20 1_555 1_555
H22 C26 1_555 1_555
C27 C20 1_555 1_555
H23 C27 1_555 1_555
C28 C24 1_555 1_555
H24 C28 1_555 1_555
C29 C21 1_555 1_555
H25 C29 1_555 1_555
C30 C27 1_555 1_555
H26 C30 1_555 1_555
C31 C26 1_555 1_555
H27 C31 1_555 1_555
C32 C30 1_555 1_555
H28 C32 1_555 1_555
N2 C3 1_555 1_555
C10 C11 1_555 1_555
C15 C16 1_555 1_555
N4 C19 1_555 1_555
C28 C29 1_555 1_555
C31 C32 1_555 1_555

#END
