
#######################################################################
#
#                 Cambridge Crystallographic Data Centre
#                                CCDC 
#
#######################################################################
#
# If this CIF has been generated from an entry in the Cambridge 
# Structural Database, then it will include bibliographic, chemical, 
# crystal, experimental, refinement or atomic coordinate data resulting 
# from the CCDC's data processing and validation procedures.
#
#######################################################################

data_EFAQOS
_chemical_formula_moiety         'C15 H20 N2 O2'
_chemical_name_systematic        
't-Butyl 4-(2-aminophenyl)-2,3-dihydro-1H-pyrrole-1-carboxylate'
_symmetry_cell_setting           monoclinic
_symmetry_space_group_name_H-M   'P 21/a'
_symmetry_Int_Tables_number      14
_space_group_name_Hall           '-P 2yab'
loop_
_symmetry_equiv_pos_site_id
_symmetry_equiv_pos_as_xyz
1 x,y,z
2 1/2-x,1/2+y,-z
3 -x,-y,-z
4 1/2+x,1/2-y,z
_cell_length_a                   9.331(2)
_cell_length_b                   16.104(3)
_cell_length_c                   10.041(2)
_cell_angle_alpha                90
_cell_angle_beta                 97.237(14)
_cell_angle_gamma                90
_cell_volume                     1496.81
_exptl_crystal_colour            colorless
_chemical_melting_point          '397-398 K'
_cell_formula_units_Z            4
loop_
_atom_site_label
_atom_site_type_symbol
_atom_site_fract_x
_atom_site_fract_y
_atom_site_fract_z
O1 O 0.4800(2) 0.91832(13) 0.7711(2)
O2 O 0.3047(2) 0.88248(15) 0.8983(2)
N1 N 0.2688(3) 0.97963(16) 0.7355(2)
N2 N -0.0949(5) 1.0809(2) 0.8992(5)
C1 C 0.7163(4) 0.8797(3) 0.7578(6)
H1 H 0.7103 0.9356 0.7242
H2 H 0.7103 0.8415 0.6839
H3 H 0.8066 0.8722 0.8139
C2 C 0.5440(5) 0.7743(2) 0.8235(5)
H4 H 0.4809 0.7680 0.7409
H5 H 0.4933 0.7592 0.8974
H6 H 0.6267 0.7389 0.8224
C3 C 0.6305(5) 0.8914(4) 0.9802(5)
H7 H 0.6603 0.8443 1.0356
H8 H 0.5476 0.9166 1.0112
H9 H 0.7078 0.9310 0.9852
C4 C 0.5929(3) 0.8638(2) 0.8389(3)
C5 C 0.3489(3) 0.92321(18) 0.8099(3)
C6 C 0.3176(4) 1.0330(2) 0.6303(4)
H10 H 0.3511 0.9998 0.5597
H11 H 0.3947 1.0698 0.6676
C7 C 0.1835(4) 1.0814(2) 0.5780(4)
H12 H 0.1460 1.0631 0.4883
H13 H 0.2048 1.1403 0.5752
C8 C 0.0755(3) 1.06444(18) 0.6750(3)
C9 C 0.1305(3) 1.00397(18) 0.7580(3)
H14 H 0.0814 0.9806 0.8239
C10 C -0.0643(3) 1.10523(17) 0.6657(3)
C11 C -0.1230(4) 1.1402(2) 0.5431(4)
H15 H -0.0703 1.1377 0.4706
C12 C -0.2559(5) 1.1778(2) 0.5267(5)
H16 H -0.2921 1.2001 0.4438
C13 C -0.3357(4) 1.1828(2) 0.6329(5)
H17 H -0.4271 1.2068 0.6214
C14 C -0.2792(4) 1.1518(2) 0.7557(4)
H18 H -0.3320 1.1567 0.8280
C15 C -0.1456(3) 1.11367(19) 0.7745(3)
H19 H -0.133(5) 1.090(2) 0.943(4)
H20 H -0.013(6) 1.093(2) 0.922(4)
loop_
_geom_bond_atom_site_label_1
_geom_bond_atom_site_label_2
_geom_bond_site_symmetry_1
_geom_bond_site_symmetry_2
O1 C4 1_555 1_555
O2 C5 1_555 1_555
N1 C5 1_555 1_555
N2 C15 1_555 1_555
C1 H1 1_555 1_555
H2 C1 1_555 1_555
H3 C1 1_555 1_555
C2 H4 1_555 1_555
H5 C2 1_555 1_555
H6 C2 1_555 1_555
C3 H7 1_555 1_555
H8 C3 1_555 1_555
H9 C3 1_555 1_555
C4 C1 1_555 1_555
C5 O1 1_555 1_555
C6 N1 1_555 1_555
H10 C6 1_555 1_555
H11 C6 1_555 1_555
C7 C6 1_555 1_555
H12 C7 1_555 1_555
H13 C7 1_555 1_555
C8 C7 1_555 1_555
C9 N1 1_555 1_555
H14 C9 1_555 1_555
C10 C8 1_555 1_555
C11 C10 1_555 1_555
H15 C11 1_555 1_555
C12 C11 1_555 1_555
H16 C12 1_555 1_555
C13 C12 1_555 1_555
H17 C13 1_555 1_555
C14 C13 1_555 1_555
H18 C14 1_555 1_555
C15 C10 1_555 1_555
H19 N2 1_555 1_555
H20 N2 1_555 1_555
C2 C4 1_555 1_555
C3 C4 1_555 1_555
C8 C9 1_555 1_555
C14 C15 1_555 1_555

#END
