
#######################################################################
#
#                 Cambridge Crystallographic Data Centre
#                                CCDC 
#
#######################################################################
#
# If this CIF has been generated from an entry in the Cambridge 
# Structural Database, then it will include bibliographic, chemical, 
# crystal, experimental, refinement or atomic coordinate data resulting 
# from the CCDC's data processing and validation procedures.
#
#######################################################################

data_EFAYEP
_chemical_formula_moiety         'C7 H4 Br1 N3 O2'
_chemical_name_systematic        2-amino-3-bromo-5-nitrobenzonitrile
_symmetry_cell_setting           monoclinic
_symmetry_space_group_name_H-M   'P 21/n'
_symmetry_Int_Tables_number      14
_space_group_name_Hall           '-P 2yn'
loop_
_symmetry_equiv_pos_site_id
_symmetry_equiv_pos_as_xyz
1 x,y,z
2 1/2+x,1/2-y,1/2+z
3 -x,-y,-z
4 1/2-x,1/2+y,1/2-z
_cell_length_a                   4.2494(2)
_cell_length_b                   14.9094(7)
_cell_length_c                   13.0958(7)
_cell_angle_alpha                90
_cell_angle_beta                 96.138(2)
_cell_angle_gamma                90
_cell_volume                     824.941
_exptl_crystal_colour            colorless
_exptl_crystal_description       needle
_cell_formula_units_Z            4
_exptl_crystal_recrystallization_method ethanol
loop_
_atom_site_label
_atom_site_type_symbol
_atom_site_fract_x
_atom_site_fract_y
_atom_site_fract_z
C1 C 0.6308(6) 0.3273(2) 0.3617(2)
N1 N 0.8557(6) 0.31971(18) 0.44131(19)
C2 C 0.5015(6) 0.2505(2) 0.3078(2)
Br1 Br 0.64966(7) 0.13636(2) 0.35302(2)
C3 C 0.2741(7) 0.2580(2) 0.2263(2)
C4 C 0.1656(7) 0.3424(2) 0.1945(2)
N2 N -0.0817(6) 0.35126(18) 0.1092(2)
O1 O -0.1809(5) 0.28113(16) 0.06679(17)
O2 O -0.1848(5) 0.42561(16) 0.08419(17)
C5 C 0.2842(7) 0.4196(2) 0.2432(2)
C6 C 0.5128(6) 0.4118(2) 0.3261(2)
C7 C 0.6425(6) 0.4918(2) 0.3756(2)
N3 N 0.7567(7) 0.55297(19) 0.4168(2)
H1 H 0.9343 0.3681 0.4730
H2 H 0.9247 0.2663 0.4618
H3 H 0.1907 0.2059 0.1916
H4 H 0.2097 0.4769 0.2201
loop_
_geom_bond_atom_site_label_1
_geom_bond_atom_site_label_2
_geom_bond_site_symmetry_1
_geom_bond_site_symmetry_2
C1 N1 1_555 1_555
N1 H1 1_555 1_555
C2 C1 1_555 1_555
Br1 C2 1_555 1_555
C3 C2 1_555 1_555
C4 C3 1_555 1_555
N2 C4 1_555 1_555
O1 N2 1_555 1_555
O2 N2 1_555 1_555
C5 C4 1_555 1_555
C6 C1 1_555 1_555
C7 C6 1_555 1_555
N3 C7 1_555 1_555
H2 N1 1_555 1_555
H3 C3 1_555 1_555
H4 C5 1_555 1_555
C5 C6 1_555 1_555

#END
