
#######################################################################
#
#                 Cambridge Crystallographic Data Centre
#                                CCDC 
#
#######################################################################
#
# If this CIF has been generated from an entry in the Cambridge 
# Structural Database, then it will include bibliographic, chemical, 
# crystal, experimental, refinement or atomic coordinate data resulting 
# from the CCDC's data processing and validation procedures.
#
#######################################################################

data_EFAYUF
_chemical_name_common            '(1R,3S)-camphoramic acid'
_chemical_formula_moiety         'C10 H17 N1 O3'
_chemical_name_systematic        
'3-aminocarbonyl-1,2,2-trimethylcyclopentane-1-carboxylic acid'
_symmetry_cell_setting           orthorhombic
_symmetry_space_group_name_H-M   'P 21 21 21'
_symmetry_Int_Tables_number      19
_space_group_name_Hall           'P 2ac 2ab'
loop_
_symmetry_equiv_pos_site_id
_symmetry_equiv_pos_as_xyz
1 x,y,z
2 1/2-x,-y,1/2+z
3 1/2+x,1/2-y,-z
4 -x,1/2+y,1/2-z
_cell_length_a                   7.2389(14)
_cell_length_b                   11.2125(14)
_cell_length_c                   12.7427(15)
_cell_angle_alpha                90
_cell_angle_beta                 90
_cell_angle_gamma                90
_cell_volume                     1034.28
_exptl_crystal_colour            colorless
_exptl_crystal_description       prism
_cell_formula_units_Z            4
_exptl_crystal_recrystallization_method water
loop_
_atom_site_label
_atom_site_type_symbol
_atom_site_fract_x
_atom_site_fract_y
_atom_site_fract_z
O1 O 0.7153(3) 0.3735(2) 0.3314(2)
O2 O 0.5549(3) 0.5188(2) 0.4053(2)
O3 O 0.1559(3) 0.17002(19) 0.08352(15)
N1 N -0.0873(3) 0.2863(2) 0.12091(19)
C1 C 0.3878(4) 0.3439(3) 0.3613(2)
C2 C 0.2788(4) 0.3705(2) 0.2576(2)
C3 C 0.1408(4) 0.2621(2) 0.2552(2)
C4 C 0.2409(4) 0.1582(3) 0.3096(2)
C5 C 0.4188(5) 0.2083(3) 0.3537(3)
C6 C 0.2757(5) 0.3726(4) 0.4585(3)
C7 C 0.5706(4) 0.4107(3) 0.3646(2)
C8 C 0.1753(5) 0.4893(3) 0.2575(3)
C9 C 0.4081(5) 0.3698(3) 0.1618(2)
C10 C 0.0711(4) 0.2342(2) 0.1460(2)
H1 H -0.1438 0.2770 0.0589
H2 H -0.1646 0.3223 0.1791
H3 H 0.6583 0.5584 0.3987
H4 H 0.0378 0.2818 0.3000
H5 H 0.2504 0.0915 0.2615
H6 H 0.1574 0.1230 0.3609
H7 H 0.4207 0.1750 0.4206
H8 H 0.5263 0.1866 0.3134
H9 H 0.1596 0.3306 0.4561
H10 H 0.2512 0.4572 0.4610
H11 H 0.3423 0.3495 0.5201
H12 H 0.0934 0.4921 0.3165
H13 H 0.1054 0.4963 0.1937
H14 H 0.2626 0.5535 0.2619
H15 H 0.4749 0.2959 0.1598
H16 H 0.4933 0.4350 0.1669
H17 H 0.3361 0.3779 0.0988
loop_
_geom_bond_atom_site_label_1
_geom_bond_atom_site_label_2
_geom_bond_site_symmetry_1
_geom_bond_site_symmetry_2
O1 C7 1_555 1_555
O2 C7 1_555 1_555
O3 C10 1_555 1_555
N1 C10 1_555 1_555
C1 C2 1_555 1_555
C2 C3 1_555 1_555
C3 C4 1_555 1_555
C4 C5 1_555 1_555
C5 C1 1_555 1_555
C6 C1 1_555 1_555
C7 C1 1_555 1_555
C8 C2 1_555 1_555
C9 C2 1_555 1_555
C10 C3 1_555 1_555
H1 N1 1_555 1_555
H2 N1 1_555 1_555
H3 O2 1_555 1_555
H4 C3 1_555 1_555
H5 C4 1_555 1_555
H6 C4 1_555 1_555
H7 C5 1_555 1_555
H8 C5 1_555 1_555
H9 C6 1_555 1_555
H10 C6 1_555 1_555
H11 C6 1_555 1_555
H12 C8 1_555 1_555
H13 C8 1_555 1_555
H14 C8 1_555 1_555
H15 C9 1_555 1_555
H16 C9 1_555 1_555
H17 C9 1_555 1_555

#END
