
#######################################################################
#
#                 Cambridge Crystallographic Data Centre
#                                CCDC 
#
#######################################################################
#
# If this CIF has been generated from an entry in the Cambridge 
# Structural Database, then it will include bibliographic, chemical, 
# crystal, experimental, refinement or atomic coordinate data resulting 
# from the CCDC's data processing and validation procedures.
#
#######################################################################

data_EFAZAP
_chemical_formula_moiety         'C25 H28 O5,0.5(C2 H3 N1)'
_chemical_name_systematic        
'(2E,5E)-2,5-bis(3-ethoxy-4-methoxybenzylidene)cyclopentanone acetonitrile solvate'
_symmetry_cell_setting           monoclinic
_symmetry_space_group_name_H-M   'C c'
_symmetry_Int_Tables_number      9
_space_group_name_Hall           'C -2yc'
loop_
_symmetry_equiv_pos_site_id
_symmetry_equiv_pos_as_xyz
1 x,y,z
2 x,-y,1/2+z
3 1/2+x,1/2+y,z
4 1/2+x,1/2-y,1/2+z
_cell_length_a                   7.8121(3)
_cell_length_b                   18.8257(10)
_cell_length_c                   30.3932(12)
_cell_angle_alpha                90
_cell_angle_beta                 90.273(4)
_cell_angle_gamma                90
_cell_volume                     4469.82
_exptl_crystal_colour            yellow
_exptl_crystal_description       block
_cell_formula_units_Z            8
_exptl_crystal_recrystallization_method dichloromethane/hexane
loop_
_atom_site_label
_atom_site_type_symbol
_atom_site_fract_x
_atom_site_fract_y
_atom_site_fract_z
O1 O 0.9837(3) 0.43574(14) 0.38891(7)
O2 O 0.9458(3) 0.51003(13) 0.31822(7)
O3 O 0.5538(3) 0.22060(13) 0.16760(8)
O4 O 0.1999(3) 0.44180(14) -0.05995(7)
O5 O 0.2295(3) 0.51281(13) 0.01216(7)
C1 C 0.9124(4) 0.4001(2) 0.35427(10)
C2 C 0.8606(4) 0.3302(2) 0.35440(11)
H1 H 0.8739 0.3026 0.3803
C3 C 0.7887(4) 0.2995(2) 0.31677(10)
H2 H 0.7540 0.2511 0.3173
C4 C 0.7674(4) 0.33921(18) 0.27833(10)
C5 C 0.8207(4) 0.41024(19) 0.27846(11)
H3 H 0.8083 0.4379 0.2525
C6 C 0.8911(4) 0.44069(18) 0.31577(11)
C7 C 0.6927(4) 0.30438(18) 0.23960(10)
H4 H 0.6738 0.2548 0.2427
C8 C 0.6469(4) 0.33142(18) 0.20051(11)
C9 C 0.5725(4) 0.28580(18) 0.16564(12)
C10 C 0.5220(4) 0.33156(19) 0.12786(11)
C11 C 0.5512(4) 0.40753(18) 0.14028(10)
H5 H 0.4406 0.4322 0.1446
H6 H 0.6154 0.4325 0.1169
C12 C 0.6559(4) 0.40657(18) 0.18372(10)
H7 H 0.7761 0.4205 0.1782
H8 H 0.6060 0.4399 0.2054
C13 C 0.4648(4) 0.30307(18) 0.08996(10)
H9 H 0.4653 0.2527 0.0885
C14 C 0.4019(4) 0.33974(19) 0.05059(11)
C15 C 0.3871(4) 0.30262(19) 0.01102(10)
H10 H 0.4227 0.2544 0.0097
C16 C 0.3207(4) 0.33526(19) -0.02659(11)
H11 H 0.3106 0.3090 -0.0532
C17 C 0.2699(4) 0.40507(19) -0.02540(10)
C18 C 0.2856(4) 0.44388(19) 0.01402(11)
C19 C 0.3500(4) 0.41131(19) 0.05095(10)
H12 H 0.3598 0.4378 0.0775
C20 C 1.0171(4) 0.3957(2) 0.42824(10)
H13 H 1.0741 0.4262 0.4500
H14 H 1.0912 0.3553 0.4213
H15 H 0.9088 0.3783 0.4403
C21 C 0.9253(4) 0.5530(2) 0.27953(11)
H16 H 0.8031 0.5551 0.2708
H17 H 0.9910 0.5325 0.2548
C22 C 0.9906(4) 0.62662(19) 0.29013(11)
H18 H 0.9754 0.6574 0.2644
H19 H 1.1123 0.6241 0.2979
H20 H 0.9263 0.6461 0.3150
C23 C 0.1654(4) 0.4019(2) -0.09962(11)
H21 H 0.1055 0.4323 -0.1209
H22 H 0.0936 0.3608 -0.0926
H23 H 0.2736 0.3856 -0.1123
C24 C 0.2388(4) 0.55290(19) 0.05255(11)
H24 H 0.3586 0.5556 0.0632
H25 H 0.1685 0.5300 0.0756
C25 C 0.1715(4) 0.6262(2) 0.04259(12)
H26 H 0.1765 0.6553 0.0693
H27 H 0.0526 0.6228 0.0324
H28 H 0.2416 0.6481 0.0196
O6 O 0.8677(2) 0.47830(12) 0.61785(7)
O7 O 0.8196(3) 0.54847(12) 0.54652(7)
O8 O 0.4074(3) 0.24535(13) 0.41006(7)
O9 O 0.1189(2) 0.39976(12) 0.15858(7)
O10 O 0.2718(3) 0.49087(12) 0.20853(7)
C26 C 0.7841(4) 0.44193(18) 0.58551(10)
C27 C 0.7268(4) 0.37247(19) 0.58862(10)
H29 H 0.7396 0.3471 0.6155
C28 C 0.6504(3) 0.33986(18) 0.55229(10)
H30 H 0.6113 0.2922 0.5548
C29 C 0.6299(4) 0.37559(19) 0.51230(11)
C30 C 0.6846(4) 0.44692(18) 0.51002(10)
H31 H 0.6688 0.4728 0.4835
C31 C 0.7610(4) 0.47997(17) 0.54584(10)
C32 C 0.5559(4) 0.33744(18) 0.47527(10)
H32 H 0.5372 0.2883 0.4805
C33 C 0.5094(4) 0.35973(19) 0.43489(10)
C34 C 0.4321(4) 0.30881(18) 0.40315(10)
C35 C 0.3886(4) 0.34799(18) 0.36232(10)
C36 C 0.4408(4) 0.42411(18) 0.36658(10)
H33 H 0.3406 0.4557 0.3627
H34 H 0.5273 0.4364 0.3441
C37 C 0.5183(4) 0.43225(18) 0.41426(10)
H35 H 0.6383 0.4489 0.4128
H36 H 0.4510 0.4669 0.4316
C38 C 0.3153(4) 0.31240(18) 0.32859(10)
H37 H 0.2912 0.2638 0.3344
C39 C 0.2670(4) 0.33670(19) 0.28459(10)
C40 C 0.1903(4) 0.2876(2) 0.25627(10)
H38 H 0.1717 0.2403 0.2662
C41 C 0.1402(4) 0.30661(19) 0.21349(11)
H39 H 0.0880 0.2725 0.1947
C42 C 0.1668(4) 0.3748(2) 0.19878(11)
C43 C 0.2470(4) 0.42452(19) 0.22682(10)
C44 C 0.2956(4) 0.40579(19) 0.26885(10)
H40 H 0.3490 0.4399 0.2874
C45 C 0.9111(4) 0.43949(19) 0.65710(10)
H41 H 0.9809 0.4695 0.6765
H42 H 0.9760 0.3968 0.6492
H43 H 0.8061 0.4257 0.6724
C46 C 0.7975(4) 0.58861(18) 0.50650(10)
H44 H 0.6753 0.5894 0.4977
H45 H 0.8645 0.5670 0.4824
C47 C 0.8601(4) 0.66326(18) 0.51568(11)
H46 H 0.8449 0.6925 0.4893
H47 H 0.9816 0.6619 0.5238
H48 H 0.7943 0.6837 0.5400
C48 C 0.0379(4) 0.3512(2) 0.12858(10)
H49 H 0.0018 0.3768 0.1020
H50 H -0.0623 0.3299 0.1427
H51 H 0.1191 0.3137 0.1206
C49 C 0.3647(4) 0.54240(19) 0.23473(11)
H52 H 0.4775 0.5232 0.2437
H53 H 0.2994 0.5548 0.2615
C50 C 0.3871(5) 0.6069(2) 0.20583(13)
H54 H 0.4518 0.6433 0.2219
H55 H 0.2744 0.6258 0.1977
H56 H 0.4495 0.5935 0.1792
N1 N 0.0236(4) 0.1231(2) 0.31766(10)
C51 C 0.0943(4) 0.1149(2) 0.35040(13)
C52 C 0.1846(4) 0.1048(2) 0.39214(11)
H57 H 0.1034 0.0892 0.4146
H58 H 0.2371 0.1498 0.4013
H59 H 0.2739 0.0687 0.3885
loop_
_geom_bond_atom_site_label_1
_geom_bond_atom_site_label_2
_geom_bond_site_symmetry_1
_geom_bond_site_symmetry_2
O1 C1 1_555 1_555
O2 C6 1_555 1_555
O3 C9 1_555 1_555
O4 C17 1_555 1_555
O5 C18 1_555 1_555
C1 C2 1_555 1_555
C2 H1 1_555 1_555
C3 C2 1_555 1_555
H2 C3 1_555 1_555
C4 C3 1_555 1_555
C5 C4 1_555 1_555
H3 C5 1_555 1_555
C6 C1 1_555 1_555
C7 C4 1_555 1_555
H4 C7 1_555 1_555
C8 C7 1_555 1_555
C9 C8 1_555 1_555
C10 C9 1_555 1_555
C11 C10 1_555 1_555
H5 C11 1_555 1_555
H6 C11 1_555 1_555
C12 C8 1_555 1_555
H7 C12 1_555 1_555
H8 C12 1_555 1_555
C13 C10 1_555 1_555
H9 C13 1_555 1_555
C14 C13 1_555 1_555
C15 C14 1_555 1_555
H10 C15 1_555 1_555
C16 C15 1_555 1_555
H11 C16 1_555 1_555
C17 C16 1_555 1_555
C18 C17 1_555 1_555
C19 C14 1_555 1_555
H12 C19 1_555 1_555
C20 O1 1_555 1_555
H13 C20 1_555 1_555
H14 C20 1_555 1_555
H15 C20 1_555 1_555
C21 O2 1_555 1_555
H16 C21 1_555 1_555
H17 C21 1_555 1_555
C22 C21 1_555 1_555
H18 C22 1_555 1_555
H19 C22 1_555 1_555
H20 C22 1_555 1_555
C23 O4 1_555 1_555
H21 C23 1_555 1_555
H22 C23 1_555 1_555
H23 C23 1_555 1_555
C24 O5 1_555 1_555
H24 C24 1_555 1_555
H25 C24 1_555 1_555
C25 C24 1_555 1_555
H26 C25 1_555 1_555
H27 C25 1_555 1_555
H28 C25 1_555 1_555
O6 C26 1_555 1_555
O7 C31 1_555 1_555
O8 C34 1_555 1_555
O9 C42 1_555 1_555
O10 C43 1_555 1_555
C26 C27 1_555 1_555
C27 H29 1_555 1_555
C28 C27 1_555 1_555
H30 C28 1_555 1_555
C29 C28 1_555 1_555
C30 C29 1_555 1_555
H31 C30 1_555 1_555
C31 C26 1_555 1_555
C32 C29 1_555 1_555
H32 C32 1_555 1_555
C33 C32 1_555 1_555
C34 C33 1_555 1_555
C35 C34 1_555 1_555
C36 C35 1_555 1_555
H33 C36 1_555 1_555
H34 C36 1_555 1_555
C37 C33 1_555 1_555
H35 C37 1_555 1_555
H36 C37 1_555 1_555
C38 C35 1_555 1_555
H37 C38 1_555 1_555
C39 C38 1_555 1_555
C40 C39 1_555 1_555
H38 C40 1_555 1_555
C41 C40 1_555 1_555
H39 C41 1_555 1_555
C42 C41 1_555 1_555
C43 C42 1_555 1_555
C44 C39 1_555 1_555
H40 C44 1_555 1_555
C45 O6 1_555 1_555
H41 C45 1_555 1_555
H42 C45 1_555 1_555
H43 C45 1_555 1_555
C46 O7 1_555 1_555
H44 C46 1_555 1_555
H45 C46 1_555 1_555
C47 C46 1_555 1_555
H46 C47 1_555 1_555
H47 C47 1_555 1_555
H48 C47 1_555 1_555
C48 O9 1_555 1_555
H49 C48 1_555 1_555
H50 C48 1_555 1_555
H51 C48 1_555 1_555
C49 O10 1_555 1_555
H52 C49 1_555 1_555
H53 C49 1_555 1_555
C50 C49 1_555 1_555
H54 C50 1_555 1_555
H55 C50 1_555 1_555
H56 C50 1_555 1_555
N1 C51 1_555 1_555
C51 C52 1_555 1_555
C52 H57 1_555 1_555
H58 C52 1_555 1_555
H59 C52 1_555 1_555
C5 C6 1_555 1_555
C11 C12 1_555 1_555
C18 C19 1_555 1_555
C30 C31 1_555 1_555
C36 C37 1_555 1_555
C43 C44 1_555 1_555

#END
