
#######################################################################
#
#                 Cambridge Crystallographic Data Centre
#                                CCDC 
#
#######################################################################
#
# If this CIF has been generated from an entry in the Cambridge 
# Structural Database, then it will include bibliographic, chemical, 
# crystal, experimental, refinement or atomic coordinate data resulting 
# from the CCDC's data processing and validation procedures.
#
#######################################################################

data_EFAZAO
_chemical_formula_moiety         'C16 H14 N4 O1'
_chemical_name_systematic        
1-((3,5-Dimethyl-1H-pyrazol-1-yl)carbonyl)-5-methylindolizine-3-carbonitrile
_symmetry_cell_setting           monoclinic
_symmetry_space_group_name_H-M   'P 21/c'
_symmetry_Int_Tables_number      14
_space_group_name_Hall           '-P 2ybc'
loop_
_symmetry_equiv_pos_site_id
_symmetry_equiv_pos_as_xyz
1 x,y,z
2 -x,1/2+y,1/2-z
3 -x,-y,-z
4 x,1/2-y,1/2+z
_cell_length_a                   8.5911(18)
_cell_length_b                   23.3760(15)
_cell_length_c                   7.5816(12)
_cell_angle_alpha                90
_cell_angle_beta                 114.775(3)
_cell_angle_gamma                90
_cell_volume                     1382.44
_exptl_crystal_colour            colorless
_exptl_crystal_description       block
_cell_formula_units_Z            4
loop_
_atom_site_label
_atom_site_type_symbol
_atom_site_fract_x
_atom_site_fract_y
_atom_site_fract_z
C1 C 0.4078(3) 0.16105(9) 0.6276(3)
C2 C 0.5673(3) 0.16955(11) 0.7688(3)
H1 H 0.6342 0.1380 0.8292
C3 C 0.6350(3) 0.22472(11) 0.8269(4)
H2 H 0.7458 0.2291 0.9227
C4 C 0.5393(3) 0.27142(10) 0.7437(3)
H3 H 0.5835 0.3079 0.7834
C5 C 0.3740(3) 0.26454(9) 0.5980(3)
C6 C 0.2428(2) 0.30329(9) 0.4823(3)
C7 C 0.1052(3) 0.27046(9) 0.3576(3)
H4 H 0.0023 0.2849 0.2655
C8 C 0.1454(2) 0.21350(7) 0.3920(3)
C9 C 0.0408(3) 0.16786(8) 0.2894(3)
C10 C 0.3329(3) 0.10310(10) 0.5630(4)
H5 H 0.4101 0.0746 0.6440
H6 H 0.3150 0.0971 0.4305
H7 H 0.2253 0.1003 0.5727
C11 C 0.2680(3) 0.36492(10) 0.5125(3)
C12 C 0.1506(3) 0.46295(9) 0.3983(3)
C13 C 0.0074(3) 0.48077(9) 0.2476(3)
H8 H -0.0256 0.5186 0.2140
C14 C -0.0831(3) 0.43187(9) 0.1502(3)
C15 C -0.2500(3) 0.42892(10) -0.0234(4)
H9 H -0.2309 0.4329 -0.1389
H10 H -0.3232 0.4592 -0.0178
H11 H -0.3035 0.3927 -0.0256
C16 C 0.2889(3) 0.49760(11) 0.5473(4)
H12 H 0.2630 0.5375 0.5222
H13 H 0.3963 0.4894 0.5418
H14 H 0.2966 0.4882 0.6740
N1 N 0.3117(2) 0.20945(7) 0.5412(2)
N2 N -0.0540(3) 0.13371(9) 0.1932(3)
N3 N 0.1439(2) 0.40334(7) 0.3880(3)
N4 N -0.0015(2) 0.38486(7) 0.2341(3)
O1 O 0.3936(2) 0.38496(7) 0.6446(3)
loop_
_geom_bond_atom_site_label_1
_geom_bond_atom_site_label_2
_geom_bond_site_symmetry_1
_geom_bond_site_symmetry_2
C1 C2 1_555 1_555
C2 H1 1_555 1_555
C3 C2 1_555 1_555
H2 C3 1_555 1_555
C4 C3 1_555 1_555
H3 C4 1_555 1_555
C5 C4 1_555 1_555
C6 C5 1_555 1_555
C7 C6 1_555 1_555
H4 C7 1_555 1_555
C8 C7 1_555 1_555
C9 C8 1_555 1_555
C10 C1 1_555 1_555
H5 C10 1_555 1_555
H6 C10 1_555 1_555
H7 C10 1_555 1_555
C11 C6 1_555 1_555
C12 C13 1_555 1_555
C13 H8 1_555 1_555
C14 C13 1_555 1_555
C15 C14 1_555 1_555
H9 C15 1_555 1_555
H10 C15 1_555 1_555
H11 C15 1_555 1_555
C16 C12 1_555 1_555
H12 C16 1_555 1_555
H13 C16 1_555 1_555
H14 C16 1_555 1_555
N1 C1 1_555 1_555
N2 C9 1_555 1_555
N3 C11 1_555 1_555
N4 C14 1_555 1_555
O1 C11 1_555 1_555
C5 N1 1_555 1_555
C8 N1 1_555 1_555
C12 N3 1_555 1_555
N3 N4 1_555 1_555

#END
