
#######################################################################
#
#                 Cambridge Crystallographic Data Centre
#                                CCDC 
#
#######################################################################
#
# If this CIF has been generated from an entry in the Cambridge 
# Structural Database, then it will include bibliographic, chemical, 
# crystal, experimental, refinement or atomic coordinate data resulting 
# from the CCDC's data processing and validation procedures.
#
#######################################################################

data_EFECID
_chemical_formula_moiety         'C40 H41 N7 O3,C2 H6 O1,2(H2 O1)'
_chemical_name_systematic        
"N-(7-((3',6'-bis(diethylamino)-3-oxospiro[isoindole-1,9'-xanthen]-2(3H)-yl)carbonoimidoyl)-5-methyl-1,8-naphthyridin-2-yl)acetamide ethanol solvate dihydrate"
_symmetry_cell_setting           monoclinic
_symmetry_space_group_name_H-M   'P 21/c'
_symmetry_Int_Tables_number      14
_space_group_name_Hall           '-P 2ybc'
loop_
_symmetry_equiv_pos_site_id
_symmetry_equiv_pos_as_xyz
1 x,y,z
2 -x,1/2+y,1/2-z
3 -x,-y,-z
4 x,1/2-y,1/2+z
_cell_length_a                   15.4110(15)
_cell_length_b                   12.1790(5)
_cell_length_c                   22.6756(14)
_cell_angle_alpha                90
_cell_angle_beta                 106.914(8)
_cell_angle_gamma                90
_cell_volume                     4071.89
_exptl_crystal_colour            pink
_exptl_crystal_description       block
_cell_formula_units_Z            4
_chemical_properties_physical    'Efflorescent, Photo-sensitive'
loop_
_atom_site_label
_atom_site_type_symbol
_atom_site_fract_x
_atom_site_fract_y
_atom_site_fract_z
C1 C 0.4384(4) -0.1247(4) 0.3907(2)
H1 H 0.4190 -0.1860 0.4077
C2 C 0.5048(5) -0.0565(5) 0.4257(2)
H2 H 0.5315 -0.0727 0.4670
C3 C 0.5321(4) 0.0347(5) 0.4006(2)
H3 H 0.5757 0.0804 0.4259
C4 C 0.4966(3) 0.0609(4) 0.3386(2)
H4 H 0.5167 0.1220 0.3217
C5 C 0.4300(3) -0.0079(4) 0.30309(18)
C6 C 0.4012(3) -0.0980(4) 0.3284(2)
C7 C 0.3801(3) 0.0035(3) 0.23442(17)
C8 C 0.3284(3) -0.1540(4) 0.2814(2)
C9 C 0.3330(3) 0.1138(3) 0.22111(17)
C10 C 0.2648(3) 0.1440(4) 0.24693(19)
H5 H 0.2468 0.0937 0.2719
C11 C 0.2230(3) 0.2442(4) 0.2373(2)
H6 H 0.1781 0.2606 0.2558
C12 C 0.2475(4) 0.3223(4) 0.1996(2)
C13 C 0.3173(4) 0.2944(4) 0.1745(2)
H7 H 0.3368 0.3450 0.1503
C14 C 0.3574(3) 0.1925(4) 0.18522(19)
C15 C 0.4631(3) 0.0714(4) 0.1604(2)
C16 C 0.4438(3) -0.0119(3) 0.19554(18)
C17 C 0.4901(3) -0.1098(4) 0.1945(2)
H8 H 0.4800 -0.1683 0.2181
C18 C 0.5496(4) -0.1242(4) 0.1606(2)
H9 H 0.5780 -0.1918 0.1614
C19 C 0.5683(3) -0.0397(4) 0.1250(2)
C20 C 0.5235(4) 0.0598(4) 0.1262(2)
H10 H 0.5346 0.1191 0.1036
C21 C 0.1303(5) 0.4551(5) 0.2130(3)
H11 H 0.0948 0.5125 0.1874
H12 H 0.0905 0.3934 0.2128
C22 C 0.1668(5) 0.4961(6) 0.2763(3)
H13 H 0.1978 0.4377 0.3025
H14 H 0.1180 0.5223 0.2909
H15 H 0.2085 0.5550 0.2770
C23 C 0.2778(7) 0.5532(9) 0.1704(5)
H16 H 0.2495 0.5997 0.1936
H17 H 0.3125 0.5973 0.1504
H18 H 0.3172 0.5020 0.1977
C24 C 0.2182(7) 0.5019(8) 0.1307(6)
H19 H 0.2410 0.4638 0.1008
H20 H 0.1654 0.5458 0.1106
C25 C 0.6277(7) 0.0432(9) 0.0321(5)
H21 H 0.6424 0.0116 -0.0031
H22 H 0.5738 0.0888 0.0192
C26 C 0.6950(7) 0.0886(10) 0.0716(4)
H23 H 0.6757 0.1161 0.1054
H24 H 0.7174 0.1481 0.0524
H25 H 0.7423 0.0354 0.0866
C27 C 0.6730(4) -0.1563(4) 0.0886(3)
H26 H 0.6905 -0.1889 0.1294
H27 H 0.7280 -0.1415 0.0775
C28 C 0.6169(5) -0.2380(5) 0.0438(3)
H28 H 0.5618 -0.2527 0.0541
H29 H 0.6505 -0.3050 0.0458
H30 H 0.6025 -0.2086 0.0028
C29 C 0.2392(3) -0.0676(4) 0.1269(2)
H31 H 0.2741 -0.0052 0.1271
C30 C 0.1694(3) -0.0995(4) 0.0700(2)
C31 C 0.1258(3) -0.2021(4) 0.0629(2)
H32 H 0.1403 -0.2524 0.0952
C32 C 0.0620(3) -0.2283(4) 0.0088(2)
C33 C 0.0418(3) -0.1491(4) -0.03873(19)
C34 C 0.0875(3) -0.0473(4) -0.0281(2)
C35 C 0.0093(3) 0.0188(4) -0.1229(2)
C36 C -0.0396(3) -0.0785(4) -0.1387(2)
H33 H -0.0822 -0.0863 -0.1771
C37 C -0.0238(3) -0.1612(4) -0.0972(2)
H34 H -0.0560 -0.2266 -0.1069
C38 C 0.0140(4) -0.3380(4) -0.0005(2)
H35 H 0.0316 -0.3789 0.0373
H36 H 0.0302 -0.3783 -0.0321
H37 H -0.0504 -0.3264 -0.0126
C39 C -0.0543(4) 0.1191(5) -0.2217(2)
C40 C -0.0590(4) 0.2338(4) -0.2479(2)
H38 H -0.0577 0.2301 -0.2899
H39 H -0.0081 0.2758 -0.2241
H40 H -0.1142 0.2685 -0.2463
N1 N 0.3160(3) -0.0914(3) 0.22769(15)
N2 N 0.2524(3) -0.1245(3) 0.17577(17)
N3 N 0.2035(4) 0.4203(4) 0.1869(3)
N4 N 0.6272(4) -0.0528(4) 0.0912(2)
N5 N 0.1524(2) -0.0236(3) 0.02576(16)
N6 N 0.0718(3) 0.0364(3) -0.06970(17)
N7 N -0.0050(3) 0.1113(3) -0.16116(17)
H41 H -0.0286 0.1623 -0.1416
O1 O 0.2862(3) -0.2358(3) 0.28587(15)
O2 O 0.4236(3) 0.1743(2) 0.15655(16)
O3 O -0.0924(3) 0.0418(3) -0.25200(15)
C41 C 0.7596(8) 0.0579(10) 0.5383(5)
H42 H 0.8018 0.0314 0.5177
H43 H 0.7315 0.1239 0.5186
H44 H 0.7140 0.0031 0.5362
C42 C 0.8012(7) 0.0778(12) 0.5940(4)
H45 H 0.7560 0.0899 0.6155
H46 H 0.8335 0.1465 0.5952
O4 O 0.8591(7) 0.0057(5) 0.6257(2)
H47 H 0.8830 0.0296 0.6605
O5 O 0.1088(3) 0.2914(3) 0.89355(18)
H48 H 0.1128 0.3590 0.9033
H49 H 0.1390 0.2654 0.9282
O6 O 0.2011(3) 0.2126(3) 0.02014(16)
H50 H 0.2279 0.2262 0.0578
H51 H 0.1868 0.1451 0.0199
H52? H 0.0508 0.1354 -0.1596
loop_
_geom_bond_atom_site_label_1
_geom_bond_atom_site_label_2
_geom_bond_site_symmetry_1
_geom_bond_site_symmetry_2
C1 H1 1_555 1_555
C2 C1 1_555 1_555
H2 C2 1_555 1_555
C3 C2 1_555 1_555
H3 C3 1_555 1_555
C4 C3 1_555 1_555
H4 C4 1_555 1_555
C5 C4 1_555 1_555
C6 C1 1_555 1_555
C7 C5 1_555 1_555
C8 C6 1_555 1_555
C9 C7 1_555 1_555
C10 C9 1_555 1_555
H5 C10 1_555 1_555
C11 C10 1_555 1_555
H6 C11 1_555 1_555
C12 C11 1_555 1_555
C13 C12 1_555 1_555
H7 C13 1_555 1_555
C14 C9 1_555 1_555
C15 C16 1_555 1_555
C16 C7 1_555 1_555
C17 C16 1_555 1_555
H8 C17 1_555 1_555
C18 C17 1_555 1_555
H9 C18 1_555 1_555
C19 C18 1_555 1_555
C20 C15 1_555 1_555
H10 C20 1_555 1_555
C21 H11 1_555 1_555
H12 C21 1_555 1_555
C22 C21 1_555 1_555
H13 C22 1_555 1_555
H14 C22 1_555 1_555
H15 C22 1_555 1_555
C23 H16 1_555 1_555
H17 C23 1_555 1_555
H18 C23 1_555 1_555
C24 C23 1_555 1_555
H19 C24 1_555 1_555
H20 C24 1_555 1_555
C25 H21 1_555 1_555
H22 C25 1_555 1_555
C26 C25 1_555 1_555
H23 C26 1_555 1_555
H24 C26 1_555 1_555
H25 C26 1_555 1_555
C27 H26 1_555 1_555
H27 C27 1_555 1_555
C28 C27 1_555 1_555
H28 C28 1_555 1_555
H29 C28 1_555 1_555
H30 C28 1_555 1_555
C29 H31 1_555 1_555
C30 C29 1_555 1_555
C31 C30 1_555 1_555
H32 C31 1_555 1_555
C32 C31 1_555 1_555
C33 C32 1_555 1_555
C34 C33 1_555 1_555
C35 C36 1_555 1_555
C36 H33 1_555 1_555
C37 C33 1_555 1_555
H34 C37 1_555 1_555
C38 C32 1_555 1_555
H35 C38 1_555 1_555
H36 C38 1_555 1_555
H37 C38 1_555 1_555
C39 C40 1_555 1_555
C40 H38 1_555 1_555
H39 C40 1_555 1_555
H40 C40 1_555 1_555
N1 C7 1_555 1_555
N2 C29 1_555 1_555
N3 C12 1_555 1_555
N4 C19 1_555 1_555
N5 C30 1_555 1_555
N6 C34 1_555 1_555
N7 C35 1_555 1_555
H41 N7 1_555 1_555
O1 C8 1_555 1_555
O2 C14 1_555 1_555
O3 C39 1_555 1_555
C41 H42 1_555 1_555
H43 C41 1_555 1_555
H44 C41 1_555 1_555
C42 C41 1_555 1_555
H45 C42 1_555 1_555
H46 C42 1_555 1_555
O4 C42 1_555 1_555
H47 O4 1_555 1_555
O5 H48 1_555 1_555
H49 O5 1_555 1_555
O6 H50 1_555 1_555
H51 O6 1_555 1_555
C5 C6 1_555 1_555
C8 N1 1_555 1_555
C13 C14 1_555 1_555
C15 O2 1_555 1_555
C19 C20 1_555 1_555
C21 N3 1_555 1_555
C24 N3 1_555 1_555
C25 N4 1_555 1_555
C27 N4 1_555 1_555
C34 N5 1_555 1_555
C35 N6 1_555 1_555
C36 C37 1_555 1_555
C39 N7 1_555 1_555
N1 N2 1_555 1_555

#END
