
#######################################################################
#
#                 Cambridge Crystallographic Data Centre
#                                CCDC 
#
#######################################################################
#
# If this CIF has been generated from an entry in the Cambridge 
# Structural Database, then it will include bibliographic, chemical, 
# crystal, experimental, refinement or atomic coordinate data resulting 
# from the CCDC's data processing and validation procedures.
#
#######################################################################

data_EFECOK
_chemical_name_common            'rabdosin J'
_chemical_formula_moiety         'C24 H36 O6'
_chemical_name_systematic        
9-butoxy-11,18-dihydroxy-7,7-dimethyl-17-methylene-3,10-dioxapentacyclo[14.2.1.0^1,13^.0^4,12^.0^8,12^]nonadecan-2-one
_symmetry_cell_setting           monoclinic
_symmetry_space_group_name_H-M   'P 21'
_symmetry_Int_Tables_number      4
_space_group_name_Hall           'P 2yb'
loop_
_symmetry_equiv_pos_site_id
_symmetry_equiv_pos_as_xyz
1 x,y,z
2 -x,1/2+y,-z
_cell_length_a                   9.22750(10)
_cell_length_b                   7.35240(10)
_cell_length_c                   16.5198(2)
_cell_angle_alpha                90
_cell_angle_beta                 103.77
_cell_angle_gamma                90
_cell_volume                     1088.56
_exptl_crystal_colour            colorless
_exptl_crystal_description       needles
_cell_formula_units_Z            2
loop_
_atom_site_label
_atom_site_type_symbol
_atom_site_fract_x
_atom_site_fract_y
_atom_site_fract_z
O1 O 0.43527(15) 0.7916(2) 0.58967(8)
O2 O 0.48287(17) 0.6377(2) 0.48613(8)
O3 O 0.73816(19) 0.3486(2) 0.61613(9)
H1 H 0.6831 0.2802 0.5811
O4 O 0.49997(18) 0.4361(2) 0.67806(10)
H2 H 0.5878 0.4095 0.6766
O5 O 0.57139(18) 0.5002(2) 0.81946(9)
O6 O 0.80886(16) 0.6095(2) 0.88431(9)
C1 C 0.4956(2) 0.8843(3) 0.66815(12)
H3 H 0.5650 0.9817 0.6581
C2 C 0.3658(2) 0.9742(3) 0.69344(13)
H4 H 0.2883 0.8825 0.6958
H5 H 0.3210 1.0678 0.6519
C3 C 0.4218(3) 1.0620(3) 0.77879(13)
H6 H 0.3384 1.1279 0.7938
H7 H 0.5002 1.1519 0.7758
C4 C 0.4854(2) 0.9230(3) 0.84705(12)
C5 C 0.6151(2) 0.8158(3) 0.82183(11)
H8 H 0.7058 0.8950 0.8333
C6 C 0.6543(2) 0.6390(3) 0.86982(12)
H9 H 0.6246 0.6464 0.9241
C7 C 0.5302(2) 0.6999(3) 0.55546(12)
C8 C 0.6932(2) 0.6870(3) 0.60127(11)
C9 C 0.7303(2) 0.7081(3) 0.69931(11)
H10 H 0.7711 0.5891 0.7240
C10 C 0.5855(2) 0.7484(3) 0.73017(11)
C11 C 0.8517(2) 0.8524(3) 0.72868(12)
H11 H 0.8875 0.8440 0.7900
H12 H 0.8068 0.9744 0.7154
C12 C 0.9864(2) 0.8345(3) 0.68924(13)
H13 H 1.0593 0.7487 0.7228
H14 H 1.0358 0.9544 0.6907
C13 C 0.9419(2) 0.7664(4) 0.59846(13)
H15 H 1.0117 0.8122 0.5652
C14 C 0.7808(2) 0.8286(3) 0.56130(12)
H16 H 0.7545 0.8203 0.4997
H17 H 0.7637 0.9543 0.5783
C15 C 0.7665(2) 0.5116(3) 0.57622(12)
H18 H 0.7310 0.4947 0.5146
C16 C 0.9305(2) 0.5613(4) 0.59571(13)
C17 C 1.0410(3) 0.4430(5) 0.61001(16)
H19 H 1.1414 0.4845 0.6239
H20 H 1.0203 0.3163 0.6064
C18 C 0.5535(3) 1.0277(4) 0.92793(14)
H21 H 0.6318 1.1094 0.9186
H22 H 0.5965 0.9412 0.9723
H23 H 0.4755 1.0991 0.9444
C19 C 0.3583(2) 0.8050(4) 0.86459(13)
H24 H 0.2862 0.8828 0.8831
H25 H 0.3996 0.7161 0.9082
H26 H 0.3082 0.7409 0.8136
C20 C 0.5023(2) 0.5679(3) 0.73701(12)
H27 H 0.3964 0.5990 0.7361
C21 C 0.8613(3) 0.4600(4) 0.93815(15)
H28 H 0.8153 0.3457 0.9126
H29 H 0.8337 0.4771 0.9920
C22 C 1.0290(3) 0.4494(4) 0.95220(15)
H30 H 1.0658 0.3470 0.9905
H31 H 1.0731 0.5626 0.9800
C23 C 1.0836(3) 0.4233(4) 0.87266(17)
H32 H 1.0543 0.5307 0.8363
H33 H 1.1939 0.4170 0.8875
C24 C 1.0226(4) 0.2542(5) 0.8246(2)
H34 H 1.0485 0.1474 0.8606
H35 H 1.0660 0.2417 0.7762
H36 H 0.9139 0.2637 0.8057
loop_
_geom_bond_atom_site_label_1
_geom_bond_atom_site_label_2
_geom_bond_site_symmetry_1
_geom_bond_site_symmetry_2
O1 C1 1_555 1_555
O2 C7 1_555 1_555
O3 H1 1_555 1_555
O4 H2 1_555 1_555
O5 C6 1_555 1_555
O6 C6 1_555 1_555
C1 H3 1_555 1_555
C2 C1 1_555 1_555
H4 C2 1_555 1_555
H5 C2 1_555 1_555
C3 C2 1_555 1_555
H6 C3 1_555 1_555
H7 C3 1_555 1_555
C4 C3 1_555 1_555
C5 C4 1_555 1_555
H8 C5 1_555 1_555
C6 C5 1_555 1_555
H9 C6 1_555 1_555
C7 O1 1_555 1_555
C8 C7 1_555 1_555
C9 C8 1_555 1_555
H10 C9 1_555 1_555
C10 C1 1_555 1_555
C11 C9 1_555 1_555
H11 C11 1_555 1_555
H12 C11 1_555 1_555
C12 C11 1_555 1_555
H13 C12 1_555 1_555
H14 C12 1_555 1_555
C13 C12 1_555 1_555
H15 C13 1_555 1_555
C14 C8 1_555 1_555
H16 C14 1_555 1_555
H17 C14 1_555 1_555
C15 O3 1_555 1_555
H18 C15 1_555 1_555
C16 C13 1_555 1_555
C17 C16 1_555 1_555
H19 C17 1_555 1_555
H20 C17 1_555 1_555
C18 C4 1_555 1_555
H21 C18 1_555 1_555
H22 C18 1_555 1_555
H23 C18 1_555 1_555
C19 C4 1_555 1_555
H24 C19 1_555 1_555
H25 C19 1_555 1_555
H26 C19 1_555 1_555
C20 O4 1_555 1_555
H27 C20 1_555 1_555
C21 O6 1_555 1_555
H28 C21 1_555 1_555
H29 C21 1_555 1_555
C22 C21 1_555 1_555
H30 C22 1_555 1_555
H31 C22 1_555 1_555
C23 C22 1_555 1_555
H32 C23 1_555 1_555
H33 C23 1_555 1_555
C24 C23 1_555 1_555
H34 C24 1_555 1_555
H35 C24 1_555 1_555
H36 C24 1_555 1_555
O5 C20 1_555 1_555
C5 C10 1_555 1_555
C8 C15 1_555 1_555
C9 C10 1_555 1_555
C10 C20 1_555 1_555
C13 C14 1_555 1_555
C15 C16 1_555 1_555

#END
