
#######################################################################
#
#                 Cambridge Crystallographic Data Centre
#                                CCDC 
#
#######################################################################
#
# If this CIF has been generated from an entry in the Cambridge 
# Structural Database, then it will include bibliographic, chemical, 
# crystal, experimental, refinement or atomic coordinate data resulting 
# from the CCDC's data processing and validation procedures.
#
#######################################################################

data_EFEDEY
_chemical_formula_moiety         'C20 H34 N6 O4 S6'
_chemical_name_systematic        
7,16-bis(5-Methylthio-1,3,4-thiadiazole-2-thione-3ylmethyl)-1,4,10,13-tetraoxa-7,16-diazacyclo-octadecane
_symmetry_cell_setting           monoclinic
_symmetry_space_group_name_H-M   'C 2/c'
_symmetry_Int_Tables_number      15
_space_group_name_Hall           '-C 2yn'
loop_
_symmetry_equiv_pos_site_id
_symmetry_equiv_pos_as_xyz
1 x,y,z
2 -x,y,1/2-z
3 1/2+x,1/2+y,z
4 1/2-x,1/2+y,1/2-z
5 -x,-y,-z
6 x,-y,1/2+z
7 1/2-x,1/2-y,-z
8 1/2+x,1/2-y,1/2+z
_cell_length_a                   26.825(2)
_cell_length_b                   9.7786(9)
_cell_length_c                   11.876(2)
_cell_angle_alpha                90
_cell_angle_beta                 110.634(8)
_cell_angle_gamma                90
_cell_volume                     2915.37
_exptl_crystal_colour            white
_chemical_melting_point          '110-112 deg.C'
_cell_formula_units_Z            4
loop_
_atom_site_label
_atom_site_type_symbol
_atom_site_fract_x
_atom_site_fract_y
_atom_site_fract_z
C1 C 0.2042(1) 0.5680(3) 0.0578(3)
S1 S 0.2181(1) 0.4017(1) 0.0758(1)
S2 S 0.2161(1) 0.6850(1) 0.1756(1)
C2 C 0.1902(1) 0.8143(3) 0.0711(3)
S3 S 0.1858(1) 0.9810(1) 0.1172(1)
C3 C 0.1507(2) 1.0600(4) -0.0257(4)
N1 N 0.1747(1) 0.7763(3) -0.0396(2)
N2 N 0.1829(1) 0.6372(3) -0.0456(2)
C4 C 0.1660(1) 0.5760(4) -0.1687(3)
N3 N 0.1111(1) 0.5781(3) -0.2328(3)
C5 C 0.0801(1) 0.4925(4) -0.1825(3)
C6 C 0.0798(2) 0.3436(4) -0.2125(3)
O1 O 0.0512(1) 0.3247(2) -0.3374(2)
C7 C 0.0515(2) 0.1864(4) -0.3725(4)
C8 C 0.0258(2) 0.1734(5) -0.5035(4)
O2 O -0.0302(2) 0.1831(3) -0.5402(3)
C9 C -0.0404(4) 0.3093(9) -0.5937(8)
C10 C 0.0889(2) 0.7119(5) -0.2867(4)
H1 H 0.1457(14) 1.1542(12) -0.0094(36)
H2 H 0.1705(13) 1.0548(37) -0.0791(28)
H3 H 0.1167(7) 1.0171(34) -0.0626(31)
H4 H 0.1838(1) 0.6248(4) -0.2150(3)
H5 H 0.1781(1) 0.4819(4) -0.1615(3)
H6 H 0.0437(1) 0.5254(4) -0.2110(3)
H7 H 0.0941(1) 0.5025(4) -0.0957(3)
H8 H 0.1160(2) 0.3110(4) -0.1924(3)
H9 H 0.0630(2) 0.2916(4) -0.1660(3)
H10 H 0.0326(2) 0.1307(4) -0.3328(4)
H11 H 0.0878(2) 0.1536(4) -0.3481(4)
H12 H 0.0389(2) 0.2448(5) -0.5425(4)
H13 H 0.0352(2) 0.0859(5) -0.5289(4)
C10D C -0.0889(2) 0.2881(5) -0.7133(4)
N3D N -0.1111(1) 0.4219(3) -0.7672(3)
C4D C -0.1660(1) 0.4240(4) -0.8313(3)
N2D N -0.1829(1) 0.3628(3) -0.9544(2)
C1D C -0.2042(1) 0.4320(3) -1.0578(3)
S1D S -0.2181(1) 0.5983(1) -1.0758(1)
S2D S -0.2161(1) 0.3150(1) -1.1756(1)
C2D C -0.1902(1) 0.1857(3) -1.0711(3)
S3D S -0.1858(1) 0.0190(1) -1.1172(1)
C3D C -0.1507(2) -0.0600(4) -0.9743(4)
H1D H -0.1457(14) -0.1542(12) -0.9906(36)
H2D H -0.1705(13) -0.0548(37) -0.9209(28)
H3D H -0.1167(7) -0.0171(34) -0.9374(31)
N1D N -0.1747(1) 0.2237(3) -0.9604(2)
H4D H -0.1838(1) 0.3752(4) -0.7850(3)
H5D H -0.1781(1) 0.5181(4) -0.8385(3)
C5D C -0.0801(1) 0.5075(4) -0.8175(3)
C6D C -0.0798(2) 0.6564(4) -0.7875(3)
O1D O -0.0512(1) 0.6753(2) -0.6626(2)
C7D C -0.0515(2) 0.8136(4) -0.6275(4)
C8D C -0.0258(2) 0.8266(5) -0.4965(4)
O2D O 0.0302(2) 0.8169(3) -0.4598(3)
C9D C 0.0404(4) 0.6907(9) -0.4063(8)
H12D H -0.0389(2) 0.7552(5) -0.4575(4)
H13D H -0.0352(2) 0.9141(5) -0.4711(4)
H10D H -0.0326(2) 0.8693(4) -0.6672(4)
H11D H -0.0878(2) 0.8464(4) -0.6519(4)
H8D H -0.1160(2) 0.6890(4) -0.8076(3)
H9D H -0.0630(2) 0.7084(4) -0.8340(3)
H6D H -0.0437(1) 0.4746(4) -0.7890(3)
H7D H -0.0941(1) 0.4975(4) -0.9043(3)
C11? C -0.0613(5) 0.3158(12) -0.5762(10)
H14? H -0.0773(2) 0.3801(5) -0.6660(4)
H15? H -0.0664(2) 0.2199(5) -0.6565(4)
loop_
_geom_bond_atom_site_label_1
_geom_bond_atom_site_label_2
_geom_bond_site_symmetry_1
_geom_bond_site_symmetry_2
C1 S1 1_555 1_555
S2 C1 1_555 1_555
C2 S2 1_555 1_555
S3 C2 1_555 1_555
C3 S3 1_555 1_555
N1 C2 1_555 1_555
N2 C1 1_555 1_555
C4 N2 1_555 1_555
N3 C4 1_555 1_555
C5 N3 1_555 1_555
C6 C5 1_555 1_555
O1 C6 1_555 1_555
C7 O1 1_555 1_555
C8 C7 1_555 1_555
O2 C8 1_555 1_555
C9 O2 1_555 1_555
C10 N3 1_555 1_555
H1 C3 1_555 1_555
H2 C3 1_555 1_555
H3 C3 1_555 1_555
H4 C4 1_555 1_555
H5 C4 1_555 1_555
H6 C5 1_555 1_555
H7 C5 1_555 1_555
H8 C6 1_555 1_555
H9 C6 1_555 1_555
H10 C7 1_555 1_555
H11 C7 1_555 1_555
H12 C8 1_555 1_555
H13 C8 1_555 1_555
C10D C9 1_555 1_555
N3D C10D 1_555 1_555
C4D N3D 1_555 1_555
N2D C4D 1_555 1_555
C1D N2D 1_555 1_555
S1D C1D 1_555 1_555
S2D C1D 1_555 1_555
C2D S2D 1_555 1_555
S3D C2D 1_555 1_555
C3D S3D 1_555 1_555
H1D C3D 1_555 1_555
H2D C3D 1_555 1_555
H3D C3D 1_555 1_555
N1D N2D 1_555 1_555
H4D C4D 1_555 1_555
H5D C4D 1_555 1_555
C5D N3D 1_555 1_555
C6D C5D 1_555 1_555
O1D C6D 1_555 1_555
C7D O1D 1_555 1_555
C8D C7D 1_555 1_555
O2D C8D 1_555 1_555
C9D C10 1_555 1_555
H12D C8D 1_555 1_555
H13D C8D 1_555 1_555
H10D C7D 1_555 1_555
H11D C7D 1_555 1_555
H8D C6D 1_555 1_555
H9D C6D 1_555 1_555
H6D C5D 1_555 1_555
H7D C5D 1_555 1_555
N1 N2 1_555 1_555
C2D N1D 1_555 1_555
O2D C9D 1_555 1_555

#END
