
#######################################################################
#
#                 Cambridge Crystallographic Data Centre
#                                CCDC 
#
#######################################################################
#
# If this CIF has been generated from an entry in the Cambridge 
# Structural Database, then it will include bibliographic, chemical, 
# crystal, experimental, refinement or atomic coordinate data resulting 
# from the CCDC's data processing and validation procedures.
#
#######################################################################

data_EFEDOI
_chemical_formula_moiety         'C28 H36 N4 O6 S2'
_chemical_name_systematic        
7,16-bis(Benzoxazole-2-thione-3ylmethyl)-1,4,10,13-tetraoxa-7,16-diazacyclo-octadecane
_symmetry_cell_setting           monoclinic
_symmetry_space_group_name_H-M   'P 21/n'
_symmetry_Int_Tables_number      14
_space_group_name_Hall           '-P 2yn'
loop_
_symmetry_equiv_pos_site_id
_symmetry_equiv_pos_as_xyz
1 x,y,z
2 1/2-x,1/2+y,1/2-z
3 -x,-y,-z
4 1/2+x,1/2-y,1/2+z
_cell_length_a                   9.3734(14)
_cell_length_b                   12.461(3)
_cell_length_c                   12.264(2)
_cell_angle_alpha                90
_cell_angle_beta                 99.422(14)
_cell_angle_gamma                90
_cell_volume                     1413.13
_exptl_crystal_colour            white
_chemical_melting_point          '153-155 deg.C'
_cell_formula_units_Z            2
loop_
_atom_site_label
_atom_site_type_symbol
_atom_site_fract_x
_atom_site_fract_y
_atom_site_fract_z
C1 C 0.0872(2) 0.4612(2) 0.2513(2)
S1 S 0.1832(1) 0.5152(1) 0.3619(1)
O1 O 0.1224(2) 0.3634(1) 0.2116(1)
C2 C 0.0206(2) 0.3406(2) 0.1191(2)
C3 C 0.0118(3) 0.2504(2) 0.0532(2)
C4 C -0.1023(3) 0.2474(2) -0.0332(2)
C5 C -0.2014(3) 0.3310(2) -0.0519(2)
C6 C -0.1923(2) 0.4218(2) 0.0155(2)
C7 C -0.0778(2) 0.4237(2) 0.1015(2)
N1 N -0.0331(2) 0.4977(1) 0.1858(1)
C8 C -0.1030(2) 0.6006(2) 0.1991(2)
N2 N -0.2494(2) 0.5832(1) 0.2201(1)
C9 C -0.3361(2) 0.6822(2) 0.2046(2)
C10 C -0.3592(3) 0.7266(2) 0.0886(2)
O2 O -0.4093(2) 0.6429(1) 0.0137(1)
C11 C -0.4643(3) 0.6796(2) -0.0945(2)
C12 C -0.4922(2) 0.5814(2) -0.1654(2)
O3 O -0.5787(2) 0.6104(1) -0.2673(1)
C13 C -0.6095(3) 0.5215(2) -0.3402(2)
C14 C -0.2505(2) 0.5353(2) 0.3294(2)
H1 H 0.0788(3) 0.1950(2) 0.0663(2)
H2 H -0.1133(3) 0.1881(2) -0.0799(2)
H3 H -0.2764(3) 0.3263(2) -0.1115(2)
H4 H -0.2592(2) 0.4774(2) 0.0031(2)
H5 H -0.0479(2) 0.6398(2) 0.2604(2)
H6 H -0.1054(2) 0.6433(2) 0.1327(2)
H7 H -0.2888(2) 0.7366(2) 0.2545(2)
H8 H -0.4298(2) 0.6681(2) 0.2254(2)
H9 H -0.4297(3) 0.7842(2) 0.0820(2)
H10 H -0.2691(3) 0.7553(2) 0.0718(2)
H11 H -0.3946(3) 0.7259(2) -0.1216(2)
H12 H -0.5531(3) 0.7196(2) -0.0947(2)
H13 H -0.4012(2) 0.5511(2) -0.1787(2)
H14 H -0.5418(2) 0.5278(2) -0.1282(2)
H15 H -0.5305(3) 0.4705(2) -0.3256(2)
H16 H -0.6147(3) 0.5465(2) -0.4157(2)
H17 H -0.2322(2) 0.5879(2) 0.3773(2)
H18 H -0.1682(2) 0.4838(2) 0.3377(2)
C14B C -0.7495(2) 0.4647(2) -0.3294(2)
N2B N -0.7506(2) 0.4168(1) -0.2201(1)
C8B C -0.8970(2) 0.3994(2) -0.1991(2)
N1B N -0.9669(2) 0.5023(1) -0.1858(1)
C1B C -1.0872(2) 0.5388(2) -0.2513(2)
S1B S -1.1832(1) 0.4848(1) -0.3619(1)
O1B O -1.1224(2) 0.6366(1) -0.2116(1)
C2B C -1.0206(2) 0.6594(2) -0.1191(2)
C3B C -1.0118(3) 0.7496(2) -0.0532(2)
C4B C -0.8977(3) 0.7526(2) 0.0332(2)
C5B C -0.7986(3) 0.6690(2) 0.0519(2)
C6B C -0.8077(2) 0.5782(2) -0.0155(2)
C7B C -0.9222(2) 0.5763(2) -0.1015(2)
H4B H -0.7408(2) 0.5226(2) -0.0031(2)
H3B H -0.7236(3) 0.6737(2) 0.1115(2)
H2B H -0.8867(3) 0.8119(2) 0.0799(2)
H1B H -1.0788(3) 0.8050(2) -0.0663(2)
H5B H -0.9521(2) 0.3602(2) -0.2604(2)
H6B H -0.8946(2) 0.3567(2) -0.1327(2)
C9B C -0.6639(2) 0.3178(2) -0.2046(2)
C10B C -0.6408(3) 0.2734(2) -0.0886(2)
O2B O -0.5907(2) 0.3571(1) -0.0137(1)
C11B C -0.5357(3) 0.3204(2) 0.0945(2)
C12B C -0.5078(2) 0.4186(2) 0.1654(2)
O3B O -0.4213(2) 0.3896(1) 0.2673(1)
C13B C -0.3905(3) 0.4785(2) 0.3402(2)
H15B H -0.4695(3) 0.5295(2) 0.3256(2)
H16B H -0.3853(3) 0.4535(2) 0.4157(2)
H13B H -0.5988(2) 0.4489(2) 0.1787(2)
H14B H -0.4582(2) 0.4722(2) 0.1282(2)
H11B H -0.6054(3) 0.2741(2) 0.1216(2)
H12B H -0.4469(3) 0.2804(2) 0.0947(2)
H9B H -0.5703(3) 0.2158(2) -0.0820(2)
H10B H -0.7309(3) 0.2447(2) -0.0718(2)
H7B H -0.7112(2) 0.2634(2) -0.2545(2)
H8B H -0.5702(2) 0.3319(2) -0.2254(2)
H17B H -0.7678(2) 0.4121(2) -0.3773(2)
H18B H -0.8318(2) 0.5162(2) -0.3377(2)
loop_
_geom_bond_atom_site_label_1
_geom_bond_atom_site_label_2
_geom_bond_site_symmetry_1
_geom_bond_site_symmetry_2
C1 S1 1_555 1_555
O1 C1 1_555 1_555
C2 O1 1_555 1_555
C3 C2 1_555 1_555
C4 C3 1_555 1_555
C5 C4 1_555 1_555
C6 C5 1_555 1_555
C7 C2 1_555 1_555
N1 C1 1_555 1_555
C8 N1 1_555 1_555
N2 C8 1_555 1_555
C9 N2 1_555 1_555
C10 C9 1_555 1_555
O2 C10 1_555 1_555
C11 O2 1_555 1_555
C12 C11 1_555 1_555
O3 C12 1_555 1_555
C13 O3 1_555 1_555
C14 N2 1_555 1_555
H1 C3 1_555 1_555
H2 C4 1_555 1_555
H3 C5 1_555 1_555
H4 C6 1_555 1_555
H5 C8 1_555 1_555
H6 C8 1_555 1_555
H7 C9 1_555 1_555
H8 C9 1_555 1_555
H9 C10 1_555 1_555
H10 C10 1_555 1_555
H11 C11 1_555 1_555
H12 C11 1_555 1_555
H13 C12 1_555 1_555
H14 C12 1_555 1_555
H15 C13 1_555 1_555
H16 C13 1_555 1_555
H17 C14 1_555 1_555
H18 C14 1_555 1_555
C14B C13 1_555 1_555
N2B C14B 1_555 1_555
C8B N2B 1_555 1_555
N1B C8B 1_555 1_555
C1B N1B 1_555 1_555
S1B C1B 1_555 1_555
O1B C1B 1_555 1_555
C2B O1B 1_555 1_555
C3B C2B 1_555 1_555
C4B C3B 1_555 1_555
C5B C4B 1_555 1_555
C6B C5B 1_555 1_555
C7B N1B 1_555 1_555
H4B C6B 1_555 1_555
H3B C5B 1_555 1_555
H2B C4B 1_555 1_555
H1B C3B 1_555 1_555
H5B C8B 1_555 1_555
H6B C8B 1_555 1_555
C9B N2B 1_555 1_555
C10B C9B 1_555 1_555
O2B C10B 1_555 1_555
C11B O2B 1_555 1_555
C12B C11B 1_555 1_555
O3B C12B 1_555 1_555
C13B C14 1_555 1_555
H15B C13B 1_555 1_555
H16B C13B 1_555 1_555
H13B C12B 1_555 1_555
H14B C12B 1_555 1_555
H11B C11B 1_555 1_555
H12B C11B 1_555 1_555
H9B C10B 1_555 1_555
H10B C10B 1_555 1_555
H7B C9B 1_555 1_555
H8B C9B 1_555 1_555
H17B C14B 1_555 1_555
H18B C14B 1_555 1_555
C6 C7 1_555 1_555
C7 N1 1_555 1_555
C2B C7B 1_555 1_555
C6B C7B 1_555 1_555
O3B C13B 1_555 1_555

#END
