
#######################################################################
#
#                 Cambridge Crystallographic Data Centre
#                                CCDC 
#
#######################################################################
#
# If this CIF has been generated from an entry in the Cambridge 
# Structural Database, then it will include bibliographic, chemical, 
# crystal, experimental, refinement or atomic coordinate data resulting 
# from the CCDC's data processing and validation procedures.
#
#######################################################################

data_EFEDAU
_chemical_formula_moiety         'C26 H38 N2 O6 S2'
_chemical_name_systematic        
7,16-bis(2-Hydroxyphenylthiomethyl)-1,4,10,13-tetraoxa-7,16-diazacyclo-octadecane
_symmetry_cell_setting           monoclinic
_symmetry_space_group_name_H-M   'P 21/c'
_symmetry_Int_Tables_number      14
_space_group_name_Hall           '-P 2ybc'
loop_
_symmetry_equiv_pos_site_id
_symmetry_equiv_pos_as_xyz
1 x,y,z
2 -x,1/2+y,1/2-z
3 -x,-y,-z
4 x,1/2-y,1/2+z
_cell_length_a                   9.637(2)
_cell_length_b                   17.867(4)
_cell_length_c                   8.5848(12)
_cell_angle_alpha                90
_cell_angle_beta                 110.23(2)
_cell_angle_gamma                90
_cell_volume                     1386.98
_exptl_crystal_colour            'light yellow'
_chemical_melting_point          '87-88 deg.C'
_cell_formula_units_Z            2
loop_
_atom_site_label
_atom_site_type_symbol
_atom_site_fract_x
_atom_site_fract_y
_atom_site_fract_z
C1 C 1.1641(6) 0.1178(3) 0.1969(6)
O1 O 1.0967(4) 0.0702(2) 0.2726(4)
C2 C 1.3134(7) 0.1147(3) 0.2258(7)
C3 C 1.3754(8) 0.1647(4) 0.1468(9)
C4 C 1.2910(9) 0.2177(4) 0.0384(8)
C5 C 1.1428(8) 0.2203(3) 0.0104(7)
C6 C 1.0762(6) 0.1703(3) 0.0878(5)
S1 S 0.8839(2) 0.1752(1) 0.0507(2)
C7 C 0.8178(6) 0.0879(3) -0.0719(5)
N1 N 0.7600(4) 0.0953(2) -0.2497(4)
C8 C 0.8742(6) 0.1171(3) -0.3172(5)
C9 C 0.8314(7) 0.1040(3) -0.4993(6)
O2 O 0.7858(4) 0.0288(2) -0.5363(4)
C10 C 0.7496(7) 0.0133(4) -0.7067(6)
C11 C 0.6927(9) -0.0581(5) -0.7489(9)
O3 O 0.5429(5) -0.0645(3) -0.7322(7)
C12 C 0.4834(9) -0.1325(6) -0.7671(11)
C13 C 0.6285(6) 0.1417(4) -0.3124(7)
H1 H 1.1589(4) 0.0375(2) 0.3447(4)
H2 H 1.3720(7) 0.0792(3) 0.2981(7)
H3 H 1.4766(8) 0.1627(4) 0.1670(9)
H4 H 1.3342(9) 0.2510(4) -0.0146(8)
H5 H 1.0850(8) 0.2562(3) -0.0617(7)
H6 H 0.8994(6) 0.0527(3) -0.0434(5)
H7 H 0.7413(6) 0.0660(3) -0.0368(5)
H8 H 0.9637(6) 0.0892(3) -0.2602(5)
H9 H 0.8963(6) 0.1698(3) -0.2947(5)
H10 H 0.7514(7) 0.1375(3) -0.5590(6)
H11 H 0.9150(7) 0.1143(3) -0.5344(6)
H12 H 0.6775(7) 0.0496(4) -0.7705(6)
H13 H 0.8376(7) 0.0188(4) -0.7362(6)
H14 H 0.7593(9) -0.0945(5) -0.6770(9)
H15 H 0.6846(9) -0.0691(5) -0.8624(9)
H16 H 0.6811(6) 0.1974(4) -0.3049(7)
H17 H 0.6009(6) 0.1637(4) -0.4241(7)
C13B C 0.3715(6) -0.1417(4) -0.6876(7)
N1B N 0.2400(4) -0.0953(2) -0.7503(4)
C7B C 0.1822(6) -0.0879(3) -0.9281(5)
S1B S 0.1161(2) -0.1752(1) -1.0507(2)
C6B C -0.0762(6) -0.1703(3) -1.0878(5)
C1B C -0.1641(6) -0.1178(3) -1.1969(6)
O1B O -0.0967(4) -0.0702(2) -1.2726(4)
H1B H -0.1589(4) -0.0375(2) -1.3447(4)
C2B C -0.3134(7) -0.1147(3) -1.2258(7)
C3B C -0.3754(8) -0.1647(4) -1.1468(9)
C4B C -0.2910(9) -0.2177(4) -1.0384(8)
C5B C -0.1428(8) -0.2203(3) -1.0104(7)
H5B H -0.0850(8) -0.2562(3) -0.9383(7)
H4B H -0.3342(9) -0.2510(4) -0.9854(8)
H3B H -0.4766(8) -0.1627(4) -1.1670(9)
H2B H -0.3720(7) -0.0792(3) -1.2981(7)
H6B H 0.1006(6) -0.0527(3) -0.9566(5)
H7B H 0.2587(6) -0.0660(3) -0.9632(5)
C8B C 0.1258(6) -0.1171(3) -0.6828(5)
C9B C 0.1686(7) -0.1040(3) -0.5007(6)
O2B O 0.2142(4) -0.0288(2) -0.4637(4)
C10B C 0.2504(7) -0.0133(4) -0.2933(6)
C11B C 0.3073(9) 0.0581(5) -0.2511(9)
O3B O 0.4571(5) 0.0645(3) -0.2678(7)
C12B C 0.5166(9) 0.1325(6) -0.2329(11)
H14B H 0.2407(9) 0.0945(5) -0.3230(9)
H15B H 0.3154(9) 0.0691(5) -0.1376(9)
H12B H 0.3225(7) -0.0496(4) -0.2295(6)
H13B H 0.1624(7) -0.0188(4) -0.2638(6)
H10B H 0.2486(7) -0.1375(3) -0.4410(6)
H11B H 0.0850(7) -0.1143(3) -0.4656(6)
H8B H 0.0363(6) -0.0892(3) -0.7398(5)
H9B H 0.1037(6) -0.1698(3) -0.7053(5)
H16B H 0.3189(6) -0.1974(4) -0.6951(7)
H17B H 0.3991(6) -0.1637(4) -0.5759(7)
C14? C 0.5140(26) -0.1020(17) -0.6149(28)
loop_
_geom_bond_atom_site_label_1
_geom_bond_atom_site_label_2
_geom_bond_site_symmetry_1
_geom_bond_site_symmetry_2
C1 O1 1_555 1_555
O1 H1 1_555 1_555
C2 C1 1_555 1_555
C3 C2 1_555 1_555
C4 C3 1_555 1_555
C5 C4 1_555 1_555
C6 C1 1_555 1_555
S1 C6 1_555 1_555
C7 S1 1_555 1_555
N1 C7 1_555 1_555
C8 N1 1_555 1_555
C9 C8 1_555 1_555
O2 C9 1_555 1_555
C10 O2 1_555 1_555
C11 C10 1_555 1_555
O3 C11 1_555 1_555
C12 O3 1_555 1_555
C13 N1 1_555 1_555
H2 C2 1_555 1_555
H3 C3 1_555 1_555
H4 C4 1_555 1_555
H5 C5 1_555 1_555
H6 C7 1_555 1_555
H7 C7 1_555 1_555
H8 C8 1_555 1_555
H9 C8 1_555 1_555
H10 C9 1_555 1_555
H11 C9 1_555 1_555
H12 C10 1_555 1_555
H13 C10 1_555 1_555
H14 C11 1_555 1_555
H15 C11 1_555 1_555
H16 C13 1_555 1_555
H17 C13 1_555 1_555
C13B C12 1_555 1_555
N1B C13B 1_555 1_555
C7B N1B 1_555 1_555
S1B C7B 1_555 1_555
C6B S1B 1_555 1_555
C1B C6B 1_555 1_555
O1B C1B 1_555 1_555
H1B O1B 1_555 1_555
C2B C1B 1_555 1_555
C3B C2B 1_555 1_555
C4B C3B 1_555 1_555
C5B C6B 1_555 1_555
H5B C5B 1_555 1_555
H4B C4B 1_555 1_555
H3B C3B 1_555 1_555
H2B C2B 1_555 1_555
H6B C7B 1_555 1_555
H7B C7B 1_555 1_555
C8B N1B 1_555 1_555
C9B C8B 1_555 1_555
O2B C9B 1_555 1_555
C10B O2B 1_555 1_555
C11B C10B 1_555 1_555
O3B C11B 1_555 1_555
C12B C13 1_555 1_555
H14B C11B 1_555 1_555
H15B C11B 1_555 1_555
H12B C10B 1_555 1_555
H13B C10B 1_555 1_555
H10B C9B 1_555 1_555
H11B C9B 1_555 1_555
H8B C8B 1_555 1_555
H9B C8B 1_555 1_555
H16B C13B 1_555 1_555
H17B C13B 1_555 1_555
C5 C6 1_555 1_555
C4B C5B 1_555 1_555
O3B C12B 1_555 1_555

#END
