
#######################################################################
#
#                 Cambridge Crystallographic Data Centre
#                                CCDC 
#
#######################################################################
#
# If this CIF has been generated from an entry in the Cambridge 
# Structural Database, then it will include bibliographic, chemical, 
# crystal, experimental, refinement or atomic coordinate data resulting 
# from the CCDC's data processing and validation procedures.
#
#######################################################################

data_EFEHAA
_chemical_name_common            nodulisporisteriod
_chemical_formula_moiety         'C22 H32 O4'
_chemical_name_systematic        
8-(1,2-dihydroxyvinyl)-1,5a,7a-trimethyl-1,4,5,5a,6,7,7a,8,9,10,10a,11,12,12a-tetradecahydro-3H-cyclopenta[5,6]naphtho[2,1-c]oxepin-3-one
_symmetry_cell_setting           monoclinic
_symmetry_space_group_name_H-M   'P 21'
_symmetry_Int_Tables_number      4
_space_group_name_Hall           'P 2yb'
loop_
_symmetry_equiv_pos_site_id
_symmetry_equiv_pos_as_xyz
1 x,y,z
2 -x,1/2+y,-z
_cell_length_a                   10.3470(2)
_cell_length_b                   21.9295(7)
_cell_length_c                   12.5583(4)
_cell_angle_alpha                90
_cell_angle_beta                 97.828(3)
_cell_angle_gamma                90
_cell_volume                     2822.98
_exptl_crystal_colour            'light colorless'
_exptl_crystal_description       plate
_cell_formula_units_Z            6
loop_
_atom_site_label
_atom_site_type_symbol
_atom_site_fract_x
_atom_site_fract_y
_atom_site_fract_z
O1 O -0.2151(3) -0.06398(18) -0.0777(3)
C1 C -0.1874(4) -0.0707(3) 0.4554(4)
H1 H -0.2826 -0.0696 0.4518
C2 C -0.1618(4) -0.1183(2) 0.2808(4)
O2 O -0.0194(4) -0.1481(2) 0.7708(3)
C3 C -0.1823(5) -0.1197(3) 0.6252(4)
H2 H -0.2767 -0.1255 0.6214
O3 O -0.3462(4) -0.1296(2) -0.1678(3)
C4 C -0.1600(4) -0.0676(2) 0.3399(4)
C5 C -0.1024(5) -0.0508(3) 0.0018(4)
H3 H -0.0335 -0.0807 -0.0046
C6 C -0.1265(5) -0.1189(3) 0.1661(4)
C7 C -0.2171(6) -0.1634(3) 0.0963(4)
H4 H -0.2074 -0.2033 0.1299
H5 H -0.3063 -0.1504 0.0986
C8 C -0.1859(6) -0.1805(3) 0.3284(4)
H6 H -0.1094 -0.2056 0.3247
H7 H -0.2582 -0.1996 0.2832
C9 C -0.1374(5) -0.0050(3) 0.2962(4)
H8 H -0.0814 0.0180 0.3501
H9 H -0.2201 0.0162 0.2821
O4 O -0.1007(5) -0.2622(2) 0.7915(4)
H10 H -0.0464 -0.2416 0.8293
C10 C -0.1442(5) -0.1309(3) 0.5105(4)
C11 C -0.0754(5) -0.0072(3) 0.1942(4)
H11 H 0.0163 -0.0175 0.2114
H12 H -0.0813 0.0327 0.1604
C12 C 0.0042(5) -0.1404(3) 0.5184(4)
H13 H 0.0303 -0.1371 0.4481
H14 H 0.0264 -0.1802 0.5471
H15 H 0.0484 -0.1100 0.5647
C13 C -0.1420(4) -0.0538(2) 0.1168(4)
H16 H -0.2354 -0.0444 0.1091
C14 C -0.0590(7) 0.0114(3) -0.0315(5)
H17 H -0.0437 0.0101 -0.1051
H18 H 0.0200 0.0228 0.0133
H19 H -0.1258 0.0409 -0.0237
C15 C -0.2163(6) -0.1815(3) 0.4455(4)
H20 H -0.3094 -0.1766 0.4458
H21 H -0.1907 -0.2205 0.4780
C16 C 0.0158(5) -0.1417(3) 0.1738(5)
H22 H 0.0729 -0.1128 0.2137
H23 H 0.0393 -0.1460 0.1028
H24 H 0.0235 -0.1805 0.2096
C17 C -0.1987(6) -0.1709(3) -0.0218(4)
H25 H -0.1060 -0.1728 -0.0266
H26 H -0.2367 -0.2095 -0.0476
C18 C -0.1172(5) -0.1616(3) 0.7080(4)
C19 C -0.1521(5) -0.0510(3) 0.6470(4)
H27 H -0.2232 -0.0316 0.6769
H28 H -0.0728 -0.0464 0.6972
C20 C -0.1698(7) -0.2255(3) 0.7141(5)
H29 H -0.2431 -0.2392 0.6694
C21 C -0.2579(5) -0.1212(3) -0.0940(4)
C22 C -0.1355(6) -0.0225(3) 0.5383(5)
H30 H -0.1852 0.0149 0.5269
H31 H -0.0444 -0.0137 0.5343
O5 O -0.3979(3) -0.39967(17) -0.0080(3)
O6 O -0.2583(4) -0.5174(2) 0.8441(3)
C23 C -0.3438(4) -0.4710(2) 0.2247(4)
C24 C -0.3641(4) -0.4646(2) 0.3435(4)
O7 O -0.5765(4) -0.4354(2) -0.1009(3)
C25 C -0.4514(5) -0.5113(3) 0.3866(4)
H32 H -0.4156 -0.5514 0.3762
H33 H -0.5363 -0.5094 0.3431
C26 C -0.2387(5) -0.5211(3) 0.2211(5)
H34 H -0.1573 -0.5074 0.2594
H35 H -0.2281 -0.5294 0.1477
H36 H -0.2657 -0.5577 0.2538
C27 C -0.3499(4) -0.4809(2) 0.5745(4)
C28 C -0.4721(5) -0.4923(2) 0.1575(4)
H37 H -0.4972 -0.5307 0.1871
H38 H -0.5394 -0.4628 0.1670
C29 C -0.2748(4) -0.4106(3) 0.0644(4)
H39 H -0.2405 -0.4508 0.0487
C30 C -0.3634(5) -0.4620(3) 0.6920(4)
H40 H -0.4498 -0.4437 0.6917
C31 C -0.2997(4) -0.4090(2) 0.1824(4)
H41 H -0.3718 -0.3804 0.1857
C32 C -0.2377(5) -0.5264(3) 0.5729(4)
H42 H -0.1627 -0.5123 0.6199
H43 H -0.2165 -0.5298 0.5011
H44 H -0.2637 -0.5656 0.5968
C33 C -0.3211(5) -0.4188(2) 0.5261(4)
H45 H -0.3986 -0.3936 0.5291
C34 C -0.2169(5) -0.3740(3) 0.3693(4)
H46 H -0.2608 -0.3350 0.3709
H47 H -0.1365 -0.3715 0.4187
C35 C -0.4717(5) -0.5057(3) 0.5045(4)
H48 H -0.4932 -0.5454 0.5312
H49 H -0.5447 -0.4787 0.5100
C36 C -0.3023(4) -0.4224(2) 0.4090(4)
O8 O -0.4280(5) -0.6078(2) 0.8414(4)
H50 H -0.3541 -0.6208 0.8388
C37 C -0.4709(5) -0.5012(3) 0.0360(4)
H51 H -0.3890 -0.5203 0.0253
H52 H -0.5405 -0.5292 0.0093
C38 C -0.2136(6) -0.3923(3) 0.6086(4)
H53 H -0.2081 -0.3484 0.6018
H54 H -0.1295 -0.4102 0.6017
C39 C -0.1831(5) -0.3840(3) 0.2574(4)
H55 H -0.1110 -0.4125 0.2605
H56 H -0.1556 -0.3457 0.2291
C40 C -0.2607(5) -0.4108(3) 0.7172(4)
H57 H -0.1877 -0.4253 0.7675
H58 H -0.2991 -0.3760 0.7488
C41 C -0.1852(5) -0.3617(3) 0.0305(4)
H59 H -0.1872 -0.3629 -0.0461
H60 H -0.0978 -0.3689 0.0646
H61 H -0.2140 -0.3224 0.0515
C42 C -0.4868(5) -0.4444(3) -0.0294(4)
C43 C -0.4557(6) -0.5607(3) 0.7656(5)
H62 H -0.5316 -0.5594 0.7166
C44 C -0.3510(5) -0.5124(3) 0.7711(4)
O9 O -0.8115(3) -0.23256(19) -0.0783(3)
O10 O -0.6202(4) -0.34584(19) -0.8721(3)
O11 O -0.4446(4) -0.2723(2) -0.9360(4)
H63 H -0.4759 -0.3044 -0.9611
O12 O -0.7798(4) -0.1384(2) -0.0244(3)
C45 C -0.6893(4) -0.2507(2) -0.4175(4)
C46 C -0.7837(4) -0.2814(3) -0.2506(4)
H64 H -0.8564 -0.2529 -0.2689
C47 C -0.7817(4) -0.2840(3) -0.4766(4)
C48 C -0.8704(6) -0.3258(3) -0.4270(5)
H65 H -0.8788 -0.3636 -0.4675
H66 H -0.9562 -0.3074 -0.4324
C49 C -0.7655(5) -0.2882(3) -0.1273(4)
H67 H -0.6727 -0.2940 -0.1013
C50 C -0.6647(4) -0.2529(2) -0.2951(4)
C51 C -0.5372(5) -0.2906(3) -0.2615(4)
H68 H -0.5533 -0.3328 -0.2788
H69 H -0.5108 -0.2865 -0.1855
H70 H -0.4692 -0.2756 -0.2995
C52 C -0.8427(6) -0.3389(3) -0.0846(5)
H71 H -0.8311 -0.3373 -0.0075
H72 H -0.8126 -0.3775 -0.1076
H73 H -0.9335 -0.3340 -0.1115
C53 C -0.8004(5) -0.2789(3) -0.5961(4)
H74 H -0.8373 -0.2379 -0.6079
C54 C -0.6734(5) -0.2738(3) -0.6424(4)
C55 C -0.5207(5) -0.2497(3) -0.8609(5)
H75 H -0.5096 -0.2112 -0.8301
C56 C -0.8233(6) -0.3404(3) -0.3095(5)
H76 H -0.8925 -0.3600 -0.2773
H77 H -0.7495 -0.3680 -0.3044
C57 C -0.6005(6) -0.2105(3) -0.4752(4)
H78 H -0.6159 -0.1684 -0.4567
H79 H -0.5109 -0.2200 -0.4466
C58 C -0.8455(6) -0.3138(4) -0.7789(5)
H80 H -0.9119 -0.2962 -0.8320
H81 H -0.8250 -0.3543 -0.8031
C59 C -0.7424(5) -0.1811(3) -0.0736(4)
C60 C -0.6438(5) -0.1874(2) -0.2516(4)
H82 H -0.7191 -0.1633 -0.2805
H83 H -0.5688 -0.1704 -0.2799
C61 C -0.6224(5) -0.1789(3) -0.1284(4)
H84 H -0.5629 -0.2104 -0.0975
H85 H -0.5799 -0.1399 -0.1124
C62 C -0.6222(5) -0.2945(3) -0.8352(4)
C63 C -0.7214(5) -0.2734(3) -0.7664(4)
H86 H -0.7473 -0.2317 -0.7876
C64 C -0.6133(9) -0.2149(4) -0.5974(5)
H87 H -0.6663 -0.1811 -0.6283
H88 H -0.5274 -0.2106 -0.6193
C65 C -0.625(3) -0.3450(18) -0.618(2)
H89 H -0.6231 -0.3537 -0.5432
H90 H -0.5393 -0.3502 -0.6381
H91 H -0.6847 -0.3723 -0.6597
C66 C -0.896(3) -0.318(2) -0.671(3)
H92 H -0.8953 -0.3598 -0.6459
H93 H -0.9838 -0.3020 -0.6755
H94? H -0.8568 -0.2441 -0.6191
H95? H -0.8374 -0.3480 -0.8266
H96? H -0.9226 -0.2904 -0.8060
C67? C -0.850(3) -0.336(2) -0.658(3)
H97? H -0.9384 -0.3465 -0.6455
H98? H -0.7935 -0.3709 -0.6392
C68? C -0.5727(17) -0.3230(9) -0.6114(10)
H99? H -0.5617 -0.3286 -0.5349
H100? H -0.4911 -0.3110 -0.6333
H101? H -0.6015 -0.3605 -0.6463
loop_
_geom_bond_atom_site_label_1
_geom_bond_atom_site_label_2
_geom_bond_site_symmetry_1
_geom_bond_site_symmetry_2
O1 C5 1_555 1_555
C1 H1 1_555 1_555
C2 C4 1_555 1_555
O2 C18 1_555 1_555
C3 H2 1_555 1_555
O3 C21 1_555 1_555
C4 C1 1_555 1_555
C5 H3 1_555 1_555
C6 C2 1_555 1_555
C7 C6 1_555 1_555
H4 C7 1_555 1_555
H5 C7 1_555 1_555
C8 C2 1_555 1_555
H6 C8 1_555 1_555
H7 C8 1_555 1_555
C9 C4 1_555 1_555
H8 C9 1_555 1_555
H9 C9 1_555 1_555
O4 H10 1_555 1_555
C10 C1 1_555 1_555
C11 C9 1_555 1_555
H11 C11 1_555 1_555
H12 C11 1_555 1_555
C12 C10 1_555 1_555
H13 C12 1_555 1_555
H14 C12 1_555 1_555
H15 C12 1_555 1_555
C13 C5 1_555 1_555
H16 C13 1_555 1_555
C14 C5 1_555 1_555
H17 C14 1_555 1_555
H18 C14 1_555 1_555
H19 C14 1_555 1_555
C15 C8 1_555 1_555
H20 C15 1_555 1_555
H21 C15 1_555 1_555
C16 C6 1_555 1_555
H22 C16 1_555 1_555
H23 C16 1_555 1_555
H24 C16 1_555 1_555
C17 C7 1_555 1_555
H25 C17 1_555 1_555
H26 C17 1_555 1_555
C18 C3 1_555 1_555
C19 C3 1_555 1_555
H27 C19 1_555 1_555
H28 C19 1_555 1_555
C20 O4 1_555 1_555
H29 C20 1_555 1_555
C21 O1 1_555 1_555
C22 C1 1_555 1_555
H30 C22 1_555 1_555
H31 C22 1_555 1_555
O5 C29 1_555 1_555
O6 C44 1_555 1_555
C23 C24 1_555 1_555
C24 C25 1_555 1_555
O7 C42 1_555 1_555
C25 H32 1_555 1_555
H33 C25 1_555 1_555
C26 C23 1_555 1_555
H34 C26 1_555 1_555
H35 C26 1_555 1_555
H36 C26 1_555 1_555
C27 C30 1_555 1_555
C28 C23 1_555 1_555
H37 C28 1_555 1_555
H38 C28 1_555 1_555
C29 H39 1_555 1_555
C30 H40 1_555 1_555
C31 C23 1_555 1_555
H41 C31 1_555 1_555
C32 C27 1_555 1_555
H42 C32 1_555 1_555
H43 C32 1_555 1_555
H44 C32 1_555 1_555
C33 C27 1_555 1_555
H45 C33 1_555 1_555
C34 H46 1_555 1_555
H47 C34 1_555 1_555
C35 C25 1_555 1_555
H48 C35 1_555 1_555
H49 C35 1_555 1_555
C36 C24 1_555 1_555
O8 H50 1_555 1_555
C37 C28 1_555 1_555
H51 C37 1_555 1_555
H52 C37 1_555 1_555
C38 C33 1_555 1_555
H53 C38 1_555 1_555
H54 C38 1_555 1_555
C39 C31 1_555 1_555
H55 C39 1_555 1_555
H56 C39 1_555 1_555
C40 C30 1_555 1_555
H57 C40 1_555 1_555
H58 C40 1_555 1_555
C41 C29 1_555 1_555
H59 C41 1_555 1_555
H60 C41 1_555 1_555
H61 C41 1_555 1_555
C42 O5 1_555 1_555
C43 O8 1_555 1_555
H62 C43 1_555 1_555
C44 C30 1_555 1_555
O9 C49 1_555 1_555
O10 C62 1_555 1_555
O11 H63 1_555 1_555
O12 C59 1_555 1_555
C45 C47 1_555 1_555
C46 H64 1_555 1_555
C47 C48 1_555 1_555
C48 H65 1_555 1_555
H66 C48 1_555 1_555
C49 C46 1_555 1_555
H67 C49 1_555 1_555
C50 C45 1_555 1_555
C51 C50 1_555 1_555
H68 C51 1_555 1_555
H69 C51 1_555 1_555
H70 C51 1_555 1_555
C52 C49 1_555 1_555
H71 C52 1_555 1_555
H72 C52 1_555 1_555
H73 C52 1_555 1_555
C53 C47 1_555 1_555
H74 C53 1_555 1_555
C54 C53 1_555 1_555
C55 O11 1_555 1_555
H75 C55 1_555 1_555
C56 C46 1_555 1_555
H76 C56 1_555 1_555
H77 C56 1_555 1_555
C57 C45 1_555 1_555
H78 C57 1_555 1_555
H79 C57 1_555 1_555
C58 H80 1_555 1_555
H81 C58 1_555 1_555
C59 O9 1_555 1_555
C60 C50 1_555 1_555
H82 C60 1_555 1_555
H83 C60 1_555 1_555
C61 C59 1_555 1_555
H84 C61 1_555 1_555
H85 C61 1_555 1_555
C62 C55 1_555 1_555
C63 C54 1_555 1_555
H86 C63 1_555 1_555
C64 C54 1_555 1_555
H87 C64 1_555 1_555
H88 C64 1_555 1_555
C65 C54 1_555 1_555
H89 C65 1_555 1_555
H90 C65 1_555 1_555
H91 C65 1_555 1_555
C66 C53 1_555 1_555
H92 C66 1_555 1_555
H93 C66 1_555 1_555
C3 C10 1_555 1_555
C6 C13 1_555 1_555
C10 C15 1_555 1_555
C11 C13 1_555 1_555
C17 C21 1_555 1_555
C18 C20 1_555 1_555
C19 C22 1_555 1_555
C27 C35 1_555 1_555
C29 C31 1_555 1_555
C33 C36 1_555 1_555
C34 C36 1_555 1_555
C34 C39 1_555 1_555
C37 C42 1_555 1_555
C38 C40 1_555 1_555
C43 C44 1_555 1_555
C46 C50 1_555 1_555
C48 C56 1_555 1_555
C57 C64 1_555 1_555
C58 C63 1_555 1_555
C58 C66 1_555 1_555
C60 C61 1_555 1_555
C62 C63 1_555 1_555

#END
