
#######################################################################
#
#                 Cambridge Crystallographic Data Centre
#                                CCDC 
#
#######################################################################
#
# If this CIF has been generated from an entry in the Cambridge 
# Structural Database, then it will include bibliographic, chemical, 
# crystal, experimental, refinement or atomic coordinate data resulting 
# from the CCDC's data processing and validation procedures.
#
#######################################################################

data_EFEJOQ
_chemical_formula_moiety         'C18 H17 N1 O3 S1'
_chemical_name_systematic        
1-((4-methylphenyl)sulfonyl)-2-phenyl-1,6-dihydropyridin-3(2H)-one
_symmetry_cell_setting           monoclinic
_symmetry_space_group_name_H-M   'P 21'
_symmetry_Int_Tables_number      4
_space_group_name_Hall           'P 2yb'
loop_
_symmetry_equiv_pos_site_id
_symmetry_equiv_pos_as_xyz
1 x,y,z
2 -x,1/2+y,-z
_cell_length_a                   9.9921(7)
_cell_length_b                   8.0950(6)
_cell_length_c                   10.5243(9)
_cell_angle_alpha                90
_cell_angle_beta                 107.490(2)
_cell_angle_gamma                90
_cell_volume                     811.914
_exptl_crystal_colour            orange
_exptl_crystal_description       block
_cell_formula_units_Z            2
loop_
_atom_site_label
_atom_site_type_symbol
_atom_site_fract_x
_atom_site_fract_y
_atom_site_fract_z
C1 C 0.62158(18) 0.5251(2) 0.59456(16)
C2 C 0.72819(17) 0.6669(2) 0.61692(15)
H1 H 0.6737 0.7722 0.6076
C3 C 0.88274(19) 0.5058(2) 0.81640(17)
H2 H 0.9018 0.5155 0.9140
H3 H 0.9731 0.4830 0.7992
C4 C 0.78690(19) 0.3634(2) 0.76789(18)
H4 H 0.8131 0.2595 0.8101
C5 C 0.6667(2) 0.3719(2) 0.66915(18)
H5 H 0.6090 0.2765 0.6467
C6 C 0.79875(17) 0.6665(2) 0.50733(15)
C7 C 0.74729(19) 0.7739(2) 0.39998(17)
H6 H 0.6738 0.8486 0.3995
C8 C 0.8030(2) 0.7722(2) 0.29367(18)
H7 H 0.7665 0.8445 0.2204
C9 C 0.91182(19) 0.6652(2) 0.29416(17)
H8 H 0.9497 0.6641 0.2215
C10 C 0.9648(2) 0.5599(2) 0.40177(18)
H9 H 1.0403 0.4878 0.4032
C11 C 0.9083(2) 0.5592(2) 0.50742(18)
H10 H 0.9444 0.4856 0.5799
C12 C 0.63073(17) 0.7919(2) 0.85981(15)
C13 C 0.52315(19) 0.8817(2) 0.77274(17)
H11 H 0.5431 0.9575 0.7120
C14 C 0.38597(19) 0.8594(2) 0.77532(17)
H12 H 0.3121 0.9203 0.7158
C15 C 0.3558(2) 0.7484(2) 0.86466(18)
C16 C 0.2067(2) 0.7273(3) 0.8681(2)
H13 H 0.2026 0.6367 0.9285
H14 H 0.1457 0.7019 0.7783
H15 H 0.1751 0.8298 0.8996
C17 C 0.4656(2) 0.6597(3) 0.95097(19)
H16 H 0.4461 0.5843 1.0123
C18 C 0.6032(2) 0.6798(2) 0.94888(18)
H17 H 0.6771 0.6179 1.0074
N1 N 0.82742(15) 0.66480(17) 0.75404(13)
O1 O 0.50659(15) 0.54093(16) 0.51266(13)
O2 O 0.80935(15) 0.96652(15) 0.78332(13)
O3 O 0.90062(13) 0.78478(15) 0.98087(12)
S1 S 0.80372(4) 0.81387(5) 0.85113(4)
loop_
_geom_bond_atom_site_label_1
_geom_bond_atom_site_label_2
_geom_bond_site_symmetry_1
_geom_bond_site_symmetry_2
C1 C2 1_555 1_555
C2 H1 1_555 1_555
C3 H2 1_555 1_555
H3 C3 1_555 1_555
C4 C3 1_555 1_555
H4 C4 1_555 1_555
C5 C1 1_555 1_555
H5 C5 1_555 1_555
C6 C2 1_555 1_555
C7 C6 1_555 1_555
H6 C7 1_555 1_555
C8 C7 1_555 1_555
H7 C8 1_555 1_555
C9 C8 1_555 1_555
H8 C9 1_555 1_555
C10 C9 1_555 1_555
H9 C10 1_555 1_555
C11 C6 1_555 1_555
H10 C11 1_555 1_555
C12 C13 1_555 1_555
C13 H11 1_555 1_555
C14 C13 1_555 1_555
H12 C14 1_555 1_555
C15 C14 1_555 1_555
C16 C15 1_555 1_555
H13 C16 1_555 1_555
H14 C16 1_555 1_555
H15 C16 1_555 1_555
C17 C15 1_555 1_555
H16 C17 1_555 1_555
C18 C12 1_555 1_555
H17 C18 1_555 1_555
N1 C2 1_555 1_555
O1 C1 1_555 1_555
O2 S1 1_555 1_555
O3 S1 1_555 1_555
S1 C12 1_555 1_555
C3 N1 1_555 1_555
C4 C5 1_555 1_555
C10 C11 1_555 1_555
C17 C18 1_555 1_555
N1 S1 1_555 1_555

#END
