
#######################################################################
#
#                 Cambridge Crystallographic Data Centre
#                                CCDC 
#
#######################################################################
#
# If this CIF has been generated from an entry in the Cambridge 
# Structural Database, then it will include bibliographic, chemical, 
# crystal, experimental, refinement or atomic coordinate data resulting 
# from the CCDC's data processing and validation procedures.
#
#######################################################################

data_EFEJUW
_chemical_compound_source        'Laggera alata, whole plant'
_chemical_name_common            '3-oxo-di-nor-eudesma-4-en-11-oic acid'
_chemical_formula_moiety         'C13 H18 O3'
_chemical_name_systematic        
'4a,8-dimethyl-7-oxo-1,2,3,4,4a,5,6,7-octahydronaphthalene-2-carboxylic acid'
_chemical_properties_biological  
'Evaluated for cytotoxic activities on human cancer cell lines, but inactive on the tested cell lines in the concentration of 100  g/mL'
_symmetry_cell_setting           monoclinic
_symmetry_space_group_name_H-M   'P 21'
_symmetry_Int_Tables_number      4
_space_group_name_Hall           'P 2yb'
loop_
_symmetry_equiv_pos_site_id
_symmetry_equiv_pos_as_xyz
1 x,y,z
2 -x,1/2+y,-z
_cell_length_a                   7.6924(4)
_cell_length_b                   17.6450(8)
_cell_length_c                   9.0224(4)
_cell_angle_alpha                90
_cell_angle_beta                 105.682(5)
_cell_angle_gamma                90
_cell_volume                     1179.05
_exptl_crystal_colour            'light colorless'
_exptl_crystal_description       block
_cell_formula_units_Z            4
loop_
_atom_site_label
_atom_site_type_symbol
_atom_site_fract_x
_atom_site_fract_y
_atom_site_fract_z
C1 C 0.5936(4) 0.0787(2) 1.1238(3)
H1 H 0.4846 0.0646 1.1515
H2 H 0.6153 0.1321 1.1466
C2 C 0.5647(4) 0.0663(2) 0.9532(3)
H3 H 0.5156 0.0160 0.9260
H4 H 0.4772 0.1028 0.8968
C3 C 0.7355(4) 0.07439(18) 0.9071(3)
C4 C 0.9119(4) 0.06875(17) 1.0226(3)
C5 C 0.9201(4) 0.04770(15) 1.1677(3)
C6 C 1.0979(4) 0.02940(19) 1.2832(3)
H5 H 1.1953 0.0510 1.2476
H6 H 1.1140 -0.0252 1.2881
C7 C 1.1107(4) 0.05923(19) 1.4445(3)
H7 H 1.1029 0.1146 1.4392
C8 C 0.9531(4) 0.0302(3) 1.4988(3)
H8 H 0.9540 -0.0248 1.5007
H9 H 0.9626 0.0483 1.6022
C9 C 0.7792(4) 0.0584(2) 1.3898(3)
H10 H 0.7781 0.1133 1.3935
H11 H 0.6785 0.0403 1.4255
C10 C 0.7511(4) 0.03327(19) 1.2214(3)
C11 C 1.2892(4) 0.0383(2) 1.5540(3)
C12 C 0.7101(5) -0.0518(2) 1.2081(4)
H12 H 0.6861 -0.0671 1.1024
H13 H 0.6064 -0.0623 1.2447
H14 H 0.8121 -0.0794 1.2689
C13 C 1.0747(4) 0.0809(2) 0.9627(3)
H15 H 1.1674 0.1061 1.0397
H16 H 1.0415 0.1115 0.8714
H17 H 1.1189 0.0328 0.9389
O1 O 0.7295(3) 0.08251(17) 0.7700(2)
O2 O 1.4140(3) 0.08833(18) 1.5583(3)
H18 H 1.5055 0.0768 1.6254
O3 O 1.3141(4) -0.01951(17) 1.6317(3)
C14 C 0.4718(4) 0.3323(2) 0.4794(4)
H19 H 0.5775 0.3344 0.4403
H20 H 0.4490 0.3832 0.5107
C15 C 0.5112(4) 0.2812(2) 0.6180(4)
H21 H 0.5521 0.2323 0.5911
H22 H 0.6075 0.3030 0.6993
C16 C 0.3479(4) 0.27020(18) 0.6753(3)
C17 C 0.1668(4) 0.27464(18) 0.5644(3)
C18 C 0.1491(4) 0.28786(16) 0.4135(3)
C19 C -0.0302(4) 0.2807(2) 0.2937(3)
H23 H -0.1253 0.2779 0.3455
H24 H -0.0314 0.2337 0.2378
C20 C -0.0717(4) 0.3465(2) 0.1780(4)
H25 H -0.0835 0.3925 0.2353
C21 C 0.0856(5) 0.3588(2) 0.1077(4)
H26 H 0.0983 0.3149 0.0467
H27 H 0.0615 0.4026 0.0403
C22 C 0.2596(4) 0.3711(2) 0.2338(4)
H28 H 0.2482 0.4174 0.2886
H29 H 0.3574 0.3783 0.1863
C23 C 0.3098(4) 0.30630(17) 0.3503(3)
C24 C -0.2432(5) 0.3379(2) 0.0509(4)
C25 C 0.3608(5) 0.2356(2) 0.2727(4)
H30 H 0.3971 0.1959 0.3476
H31 H 0.4587 0.2475 0.2295
H32 H 0.2584 0.2191 0.1924
C26 C 0.0123(4) 0.2591(2) 0.6326(4)
H33 H -0.0192 0.2064 0.6206
H34 H -0.0900 0.2893 0.5806
H35 H 0.0474 0.2719 0.7400
O4 O 0.3640(3) 0.25582(15) 0.8117(2)
O5 O -0.3241(4) 0.27371(19) 0.0419(3)
O6 O -0.2974(6) 0.3872(2) -0.0422(5)
loop_
_geom_bond_atom_site_label_1
_geom_bond_atom_site_label_2
_geom_bond_site_symmetry_1
_geom_bond_site_symmetry_2
C1 H1 1_555 1_555
H2 C1 1_555 1_555
C2 C1 1_555 1_555
H3 C2 1_555 1_555
H4 C2 1_555 1_555
C3 C2 1_555 1_555
C4 C3 1_555 1_555
C5 C4 1_555 1_555
C6 C5 1_555 1_555
H5 C6 1_555 1_555
H6 C6 1_555 1_555
C7 C6 1_555 1_555
H7 C7 1_555 1_555
C8 C7 1_555 1_555
H8 C8 1_555 1_555
H9 C8 1_555 1_555
C9 C8 1_555 1_555
H10 C9 1_555 1_555
H11 C9 1_555 1_555
C10 C1 1_555 1_555
C11 C7 1_555 1_555
C12 C10 1_555 1_555
H12 C12 1_555 1_555
H13 C12 1_555 1_555
H14 C12 1_555 1_555
C13 C4 1_555 1_555
H15 C13 1_555 1_555
H16 C13 1_555 1_555
H17 C13 1_555 1_555
O1 C3 1_555 1_555
O2 C11 1_555 1_555
H18 O2 1_555 1_555
O3 C11 1_555 1_555
C14 H19 1_555 1_555
H20 C14 1_555 1_555
C15 C14 1_555 1_555
H21 C15 1_555 1_555
H22 C15 1_555 1_555
C16 C15 1_555 1_555
C17 C16 1_555 1_555
C18 C17 1_555 1_555
C19 C18 1_555 1_555
H23 C19 1_555 1_555
H24 C19 1_555 1_555
C20 C19 1_555 1_555
H25 C20 1_555 1_555
C21 C20 1_555 1_555
H26 C21 1_555 1_555
H27 C21 1_555 1_555
C22 C21 1_555 1_555
H28 C22 1_555 1_555
H29 C22 1_555 1_555
C23 C14 1_555 1_555
C24 C20 1_555 1_555
C25 C23 1_555 1_555
H30 C25 1_555 1_555
H31 C25 1_555 1_555
H32 C25 1_555 1_555
C26 C17 1_555 1_555
H33 C26 1_555 1_555
H34 C26 1_555 1_555
H35 C26 1_555 1_555
O4 C16 1_555 1_555
O5 C24 1_555 1_555
O6 C24 1_555 1_555
C5 C10 1_555 1_555
C9 C10 1_555 1_555
C18 C23 1_555 1_555
C22 C23 1_555 1_555

#END
