
#######################################################################
#
#                 Cambridge Crystallographic Data Centre
#                                CCDC 
#
#######################################################################
#
# If this CIF has been generated from an entry in the Cambridge 
# Structural Database, then it will include bibliographic, chemical, 
# crystal, experimental, refinement or atomic coordinate data resulting 
# from the CCDC's data processing and validation procedures.
#
#######################################################################

data_EFEJIJ
_chemical_formula_moiety         'C16 H13 N1 O3'
_chemical_name_systematic        anti-5-Benzoyl-4-phenyloxazolidin-2-one
_symmetry_cell_setting           monoclinic
_symmetry_space_group_name_H-M   'P 21/c'
_symmetry_Int_Tables_number      14
_space_group_name_Hall           '-P 2ybc'
loop_
_symmetry_equiv_pos_site_id
_symmetry_equiv_pos_as_xyz
1 x,y,z
2 -x,1/2+y,1/2-z
3 -x,-y,-z
4 x,1/2-y,1/2+z
_cell_length_a                   7.8191(5)
_cell_length_b                   26.6567(13)
_cell_length_c                   6.3613(7)
_cell_angle_alpha                90
_cell_angle_beta                 98.6590(10)
_cell_angle_gamma                90
_cell_volume                     1310.78
_exptl_crystal_colour            colorless
_exptl_crystal_description       block
_cell_formula_units_Z            4
loop_
_atom_site_label
_atom_site_type_symbol
_atom_site_fract_x
_atom_site_fract_y
_atom_site_fract_z
C1 C 0.2604(3) 0.52364(7) 0.5940(3)
C2 C 0.3490(3) 0.48182(8) 0.6877(4)
H1 H 0.4004 0.4831 0.8293
C3 C 0.3607(3) 0.43863(9) 0.5713(5)
H2 H 0.4214 0.4111 0.6338
C4 C 0.2827(3) 0.43620(9) 0.3633(5)
H3 H 0.2900 0.4069 0.2858
C5 C 0.1937(3) 0.47695(9) 0.2685(4)
H4 H 0.1407 0.4750 0.1277
C6 C 0.1834(3) 0.52064(8) 0.3829(4)
H5 H 0.1245 0.5482 0.3181
C7 C 0.2566(3) 0.56952(8) 0.7237(3)
C8 C 0.1751(3) 0.61709(7) 0.6181(3)
H6 H 0.0553 0.6100 0.5554
C9 C 0.2941(3) 0.68299(8) 0.4584(3)
C10 C 0.1786(2) 0.66322(7) 0.7648(3)
H7 H 0.2686 0.6589 0.8884
C11 C 0.0063(2) 0.67273(7) 0.8380(3)
C12 C -0.1247(3) 0.69989(8) 0.7185(4)
H8 H -0.1057 0.7148 0.5919
C13 C -0.2838(3) 0.70494(9) 0.7868(4)
H9 H -0.3714 0.7230 0.7050
C14 C -0.3133(3) 0.68361(10) 0.9730(5)
H10 H -0.4206 0.6870 1.0177
C15 C -0.1846(4) 0.65725(11) 1.0929(4)
H11 H -0.2040 0.6430 1.2207
C16 C -0.0258(3) 0.65160(9) 1.0262(3)
H12 H 0.0607 0.6333 1.1090
N1 N 0.2311(2) 0.70162(6) 0.6253(3)
H13 H 0.264(3) 0.7308(5) 0.673(3)
O1 O 0.3124(3) 0.57043(7) 0.9115(3)
O2 O 0.27210(17) 0.63219(5) 0.4508(2)
O3 O 0.3597(2) 0.70477(5) 0.3231(3)
loop_
_geom_bond_atom_site_label_1
_geom_bond_atom_site_label_2
_geom_bond_site_symmetry_1
_geom_bond_site_symmetry_2
C1 C2 1_555 1_555
C2 H1 1_555 1_555
C3 C2 1_555 1_555
H2 C3 1_555 1_555
C4 C3 1_555 1_555
H3 C4 1_555 1_555
C5 C4 1_555 1_555
H4 C5 1_555 1_555
C6 C1 1_555 1_555
H5 C6 1_555 1_555
C7 C1 1_555 1_555
C8 C7 1_555 1_555
H6 C8 1_555 1_555
C9 N1 1_555 1_555
C10 C8 1_555 1_555
H7 C10 1_555 1_555
C11 C10 1_555 1_555
C12 C11 1_555 1_555
H8 C12 1_555 1_555
C13 C12 1_555 1_555
H9 C13 1_555 1_555
C14 C13 1_555 1_555
H10 C14 1_555 1_555
C15 C14 1_555 1_555
H11 C15 1_555 1_555
C16 C11 1_555 1_555
H12 C16 1_555 1_555
N1 C10 1_555 1_555
H13 N1 1_555 1_555
O1 C7 1_555 1_555
O2 C8 1_555 1_555
O3 C9 1_555 1_555
C5 C6 1_555 1_555
C9 O2 1_555 1_555
C15 C16 1_555 1_555

#END
