
#######################################################################
#
#                 Cambridge Crystallographic Data Centre
#                                CCDC 
#
#######################################################################
#
# If this CIF has been generated from an entry in the Cambridge 
# Structural Database, then it will include bibliographic, chemical, 
# crystal, experimental, refinement or atomic coordinate data resulting 
# from the CCDC's data processing and validation procedures.
#
#######################################################################

data_EFEKOR
_chemical_name_common            'Scapiformolactone B'
_chemical_formula_moiety         'C20 H30 O6'
_chemical_name_systematic        
'8-isopropyl-5-methyl-4,11-dioxo-10-oxabicyclo[7.2.1]dodec-1-en-7-yl 3-hydroxy-2-methylbutanoate'
_chemical_properties_biological  
'Exerted weak cytotoxicity in some human cancer cell lines'
_symmetry_cell_setting           monoclinic
_symmetry_space_group_name_H-M   'P 21'
_symmetry_Int_Tables_number      4
_space_group_name_Hall           'P 2yb'
loop_
_symmetry_equiv_pos_site_id
_symmetry_equiv_pos_as_xyz
1 x,y,z
2 -x,1/2+y,-z
_cell_length_a                   10.709(2)
_cell_length_b                   6.7036(14)
_cell_length_c                   14.532(3)
_cell_angle_alpha                90
_cell_angle_beta                 99.015(2)
_cell_angle_gamma                90
_cell_volume                     1030.35
_exptl_crystal_colour            colorless
_exptl_crystal_description       block
_cell_formula_units_Z            2
loop_
_atom_site_label
_atom_site_type_symbol
_atom_site_fract_x
_atom_site_fract_y
_atom_site_fract_z
C1 C 0.33165(17) 1.1838(3) 1.00422(12)
C2 C 0.20524(19) 1.1103(3) 1.02866(13)
H1 H 0.2122 1.1020 1.0959
H2 H 0.1405 1.2082 1.0071
C3 C 0.16367(17) 0.9122(3) 0.98793(13)
H3 H 0.2069 0.8005 1.0141
C4 C 0.07138(16) 0.8818(2) 0.91829(12)
C5 C -0.01595(15) 1.0198(3) 0.85851(13)
H4 H 0.0150 1.1560 0.8631
H5 H -0.1005 1.0158 0.8745
C6 C -0.01254(16) 0.9322(3) 0.76146(13)
H6 H -0.0958 0.9505 0.7234
C7 C 0.08898(16) 1.0134(3) 0.70739(12)
H7 H 0.0893 0.9240 0.6541
C8 C 0.22208(15) 0.9990(2) 0.76571(11)
H8 H 0.2245 0.8797 0.8049
C9 C 0.26398(15) 1.1768(2) 0.82884(11)
H9 H 0.1912 1.2279 0.8535
H10 H 0.2934 1.2816 0.7915
C10 C 0.36985(16) 1.1295(2) 0.91140(12)
H11 H 0.3833 0.9849 0.9116
C11 C 0.05284(18) 1.2224(3) 0.66605(13)
H12 H 0.0606 1.3178 0.7177
C12 C -0.0828(2) 1.2320(4) 0.61472(19)
H13 H -0.0964 1.3574 0.5828
H14 H -0.1405 1.2194 0.6587
H15 H -0.0968 1.1251 0.5703
C13 C 0.1419(3) 1.2891(4) 0.59979(19)
H16 H 0.1338 1.2005 0.5473
H17 H 0.2275 1.2863 0.6317
H18 H 0.1206 1.4222 0.5787
C14 C 0.49470(17) 1.2273(3) 0.89920(16)
H19 H 0.4841 1.3694 0.8958
H20 H 0.5206 1.1798 0.8428
H21 H 0.5581 1.1941 0.9513
C15 C 0.05633(16) 0.6854(3) 0.86976(14)
O1 O 0.39882(15) 1.2845(3) 1.06027(10)
O2 O 0.00797(12) 0.71765(18) 0.77979(10)
O3 O 0.08292(14) 0.52156(19) 0.89990(12)
C16 C 0.38255(16) 0.8057(3) 0.70960(13)
C17 C 0.47214(16) 0.7977(3) 0.63897(13)
H22 H 0.4840 0.9336 0.6170
C18 C 0.60012(17) 0.7177(3) 0.68513(14)
H23 H 0.5883 0.5878 0.7134
C19 C 0.6927(2) 0.6962(5) 0.61696(18)
H24 H 0.7049 0.8235 0.5895
H25 H 0.6598 0.6033 0.5690
H26 H 0.7721 0.6482 0.6492
C20 C 0.4104(2) 0.6732(5) 0.55678(17)
H27 H 0.4064 0.5364 0.5756
H28 H 0.4593 0.6829 0.5070
H29 H 0.3264 0.7217 0.5359
O4 O 0.31551(11) 0.97372(17) 0.70308(8)
O5 O 0.37194(18) 0.6764(3) 0.76438(14)
O6 O 0.65613(16) 0.8518(3) 0.75509(11)
H30 H 0.624(3) 0.813(5) 0.805(2)
loop_
_geom_bond_atom_site_label_1
_geom_bond_atom_site_label_2
_geom_bond_site_symmetry_1
_geom_bond_site_symmetry_2
C1 C2 1_555 1_555
C2 H1 1_555 1_555
H2 C2 1_555 1_555
C3 C2 1_555 1_555
H3 C3 1_555 1_555
C4 C3 1_555 1_555
C5 C4 1_555 1_555
H4 C5 1_555 1_555
H5 C5 1_555 1_555
C6 C5 1_555 1_555
H6 C6 1_555 1_555
C7 C6 1_555 1_555
H7 C7 1_555 1_555
C8 C7 1_555 1_555
H8 C8 1_555 1_555
C9 C8 1_555 1_555
H9 C9 1_555 1_555
H10 C9 1_555 1_555
C10 C1 1_555 1_555
H11 C10 1_555 1_555
C11 C7 1_555 1_555
H12 C11 1_555 1_555
C12 C11 1_555 1_555
H13 C12 1_555 1_555
H14 C12 1_555 1_555
H15 C12 1_555 1_555
C13 C11 1_555 1_555
H16 C13 1_555 1_555
H17 C13 1_555 1_555
H18 C13 1_555 1_555
C14 C10 1_555 1_555
H19 C14 1_555 1_555
H20 C14 1_555 1_555
H21 C14 1_555 1_555
C15 C4 1_555 1_555
O1 C1 1_555 1_555
O2 C6 1_555 1_555
O3 C15 1_555 1_555
C16 C17 1_555 1_555
C17 H22 1_555 1_555
C18 C17 1_555 1_555
H23 C18 1_555 1_555
C19 C18 1_555 1_555
H24 C19 1_555 1_555
H25 C19 1_555 1_555
H26 C19 1_555 1_555
C20 C17 1_555 1_555
H27 C20 1_555 1_555
H28 C20 1_555 1_555
H29 C20 1_555 1_555
O4 C8 1_555 1_555
O5 C16 1_555 1_555
O6 C18 1_555 1_555
H30 O6 1_555 1_555
C9 C10 1_555 1_555
C15 O2 1_555 1_555
C16 O4 1_555 1_555

#END
