
#######################################################################
#
#                 Cambridge Crystallographic Data Centre
#                                CCDC 
#
#######################################################################
#
# If this CIF has been generated from an entry in the Cambridge 
# Structural Database, then it will include bibliographic, chemical, 
# crystal, experimental, refinement or atomic coordinate data resulting 
# from the CCDC's data processing and validation procedures.
#
#######################################################################

data_EFEKAD
_chemical_compound_source        'Laggera alata, whole plant'
_chemical_name_common            'cuauhtemone A'
_chemical_formula_moiety         'C24 H36 O8'
_chemical_name_systematic        
'1-hydroxy-7-isopropylidene-1,4a-dimethyl-6-oxodecahydronaphthalen-2-yl 2,3-diacetoxy-2-methylbutanoate'
_chemical_properties_biological  
'Evaluated for cytotoxic activities on human cancer cell lines, but inactive on the tested cell lines in the concentration of 100  g/mL'
_symmetry_cell_setting           orthorhombic
_symmetry_space_group_name_H-M   'P 21 21 21'
_symmetry_Int_Tables_number      19
_space_group_name_Hall           'P 2ac 2ab'
loop_
_symmetry_equiv_pos_site_id
_symmetry_equiv_pos_as_xyz
1 x,y,z
2 1/2-x,-y,1/2+z
3 1/2+x,1/2-y,-z
4 -x,1/2+y,1/2-z
_cell_length_a                   8.24486(12)
_cell_length_b                   10.30986(18)
_cell_length_c                   28.5017(5)
_cell_angle_alpha                90
_cell_angle_beta                 90
_cell_angle_gamma                90
_cell_volume                     2422.74
_exptl_crystal_colour            'light colorless'
_exptl_crystal_description       block
_cell_formula_units_Z            4
loop_
_atom_site_label
_atom_site_type_symbol
_atom_site_fract_x
_atom_site_fract_y
_atom_site_fract_z
C1 C 0.1081(2) 0.49626(19) 0.21022(7)
H1 H 0.0246 0.4937 0.2342
H2 H 0.0919 0.4224 0.1897
C2 C 0.2736(3) 0.48522(19) 0.23348(7)
H3 H 0.2859 0.5546 0.2562
H4 H 0.2803 0.4034 0.2502
C3 C 0.4096(2) 0.49277(17) 0.19804(6)
H5 H 0.5142 0.4870 0.2142
C4 C 0.40482(19) 0.61586(17) 0.16787(6)
C5 C 0.23305(19) 0.63475(16) 0.14728(6)
H6 H 0.2193 0.5637 0.1248
C6 C 0.2208(2) 0.75848(18) 0.11806(7)
H7 H 0.2443 0.8321 0.1381
H8 H 0.3033 0.7559 0.0938
C7 C 0.0566(2) 0.78022(19) 0.09487(7)
C8 C -0.0871(2) 0.7234(2) 0.11836(8)
C9 C -0.0620(2) 0.61070(18) 0.15105(7)
H9 H -0.0550 0.5318 0.1326
H10 H -0.1561 0.6032 0.1713
C10 C 0.08980(19) 0.62129(16) 0.18169(6)
C11 C 0.0431(3) 0.8526(2) 0.05577(7)
C12 C -0.1123(4) 0.8818(3) 0.03013(10)
H11 H -0.1930 0.8188 0.0385
H12 H -0.0934 0.8784 -0.0031
H13 H -0.1496 0.9669 0.0386
C13 C 0.1881(4) 0.9167(3) 0.03378(9)
H14 H 0.2850 0.8875 0.0492
H15 H 0.1788 1.0091 0.0370
H16 H 0.1930 0.8945 0.0011
C14 C 0.0663(3) 0.73721(19) 0.21493(7)
H17 H 0.0666 0.8162 0.1971
H18 H 0.1530 0.7392 0.2374
H19 H -0.0354 0.7286 0.2310
C15 C 0.4695(2) 0.72912(19) 0.19704(8)
H20 H 0.4766 0.8052 0.1777
H21 H 0.5751 0.7078 0.2089
H22 H 0.3973 0.7454 0.2228
C16 C 0.5059(2) 0.29249(17) 0.16565(6)
C17 C 0.47602(19) 0.19235(16) 0.12695(6)
C18 C 0.5223(2) 0.25700(17) 0.08028(6)
H23 H 0.4359 0.3170 0.0709
C19 C 0.6814(2) 0.3285(2) 0.08131(8)
H24 H 0.7659 0.2705 0.0911
H25 H 0.6742 0.3997 0.1029
H26 H 0.7055 0.3609 0.0505
C20 C 0.5680(3) 0.06792(19) 0.13656(7)
H27 H 0.5470 0.0400 0.1681
H28 H 0.6821 0.0829 0.1327
H29 H 0.5331 0.0021 0.1150
C21 C 0.2176(2) 0.13458(19) 0.16044(8)
C22 C 0.0417(2) 0.1189(2) 0.14865(9)
H30 H 0.0227 0.1488 0.1172
H31 H -0.0225 0.1689 0.1702
H32 H 0.0122 0.0291 0.1510
C23 C 0.5202(3) 0.1856(2) 0.00084(7)
C24 C 0.5600(3) 0.0740(3) -0.02981(9)
H33 H 0.6720 0.0511 -0.0257
H34 H 0.5410 0.0972 -0.0620
H35 H 0.4928 0.0015 -0.0216
O1 O -0.22393(19) 0.7659(2) 0.11224(8)
O2 O 0.51081(15) 0.59448(14) 0.12895(5)
H36 H 0.5751 0.6549 0.1269
O3 O 0.39096(14) 0.38263(11) 0.16619(4)
O4 O 0.62472(16) 0.29183(15) 0.18983(5)
O5 O 0.30283(14) 0.16706(12) 0.12182(4)
O6 O 0.27575(19) 0.12260(17) 0.19850(6)
O7 O 0.53221(17) 0.15240(13) 0.04638(4)
O8 O 0.4824(3) 0.2914(2) -0.01223(6)
loop_
_geom_bond_atom_site_label_1
_geom_bond_atom_site_label_2
_geom_bond_site_symmetry_1
_geom_bond_site_symmetry_2
C1 H1 1_555 1_555
H2 C1 1_555 1_555
C2 C1 1_555 1_555
H3 C2 1_555 1_555
H4 C2 1_555 1_555
C3 C2 1_555 1_555
H5 C3 1_555 1_555
C4 C3 1_555 1_555
C5 C4 1_555 1_555
H6 C5 1_555 1_555
C6 C5 1_555 1_555
H7 C6 1_555 1_555
H8 C6 1_555 1_555
C7 C6 1_555 1_555
C8 C7 1_555 1_555
C9 C8 1_555 1_555
H9 C9 1_555 1_555
H10 C9 1_555 1_555
C10 C1 1_555 1_555
C11 C7 1_555 1_555
C12 C11 1_555 1_555
H11 C12 1_555 1_555
H12 C12 1_555 1_555
H13 C12 1_555 1_555
C13 C11 1_555 1_555
H14 C13 1_555 1_555
H15 C13 1_555 1_555
H16 C13 1_555 1_555
C14 C10 1_555 1_555
H17 C14 1_555 1_555
H18 C14 1_555 1_555
H19 C14 1_555 1_555
C15 C4 1_555 1_555
H20 C15 1_555 1_555
H21 C15 1_555 1_555
H22 C15 1_555 1_555
C16 C17 1_555 1_555
C17 C18 1_555 1_555
C18 H23 1_555 1_555
C19 C18 1_555 1_555
H24 C19 1_555 1_555
H25 C19 1_555 1_555
H26 C19 1_555 1_555
C20 C17 1_555 1_555
H27 C20 1_555 1_555
H28 C20 1_555 1_555
H29 C20 1_555 1_555
C21 C22 1_555 1_555
C22 H30 1_555 1_555
H31 C22 1_555 1_555
H32 C22 1_555 1_555
C23 C24 1_555 1_555
C24 H33 1_555 1_555
H34 C24 1_555 1_555
H35 C24 1_555 1_555
O1 C8 1_555 1_555
O2 C4 1_555 1_555
H36 O2 1_555 1_555
O3 C3 1_555 1_555
O4 C16 1_555 1_555
O5 C17 1_555 1_555
O6 C21 1_555 1_555
O7 C18 1_555 1_555
O8 C23 1_555 1_555
C5 C10 1_555 1_555
C9 C10 1_555 1_555
C16 O3 1_555 1_555
C21 O5 1_555 1_555
C23 O7 1_555 1_555

#END
