
#######################################################################
#
#                 Cambridge Crystallographic Data Centre
#                                CCDC 
#
#######################################################################
#
# If this CIF has been generated from an entry in the Cambridge 
# Structural Database, then it will include bibliographic, chemical, 
# crystal, experimental, refinement or atomic coordinate data resulting 
# from the CCDC's data processing and validation procedures.
#
#######################################################################

data_EFELEH
_chemical_formula_moiety         'C20 H25 B1 N2'
_chemical_name_systematic        
1-t-Butyl-N,N-diphenyl-1,2,3,4-tetrahydro-1,2-azaborinin-2-amine
_symmetry_cell_setting           triclinic
_symmetry_space_group_name_H-M   'P -1'
_symmetry_Int_Tables_number      2
_space_group_name_Hall           '-P 1'
loop_
_symmetry_equiv_pos_site_id
_symmetry_equiv_pos_as_xyz
1 x,y,z
2 -x,-y,-z
_cell_length_a                   10.1761(11)
_cell_length_b                   11.5744(12)
_cell_length_c                   15.4369(16)
_cell_angle_alpha                81.469(2)
_cell_angle_beta                 83.033(2)
_cell_angle_gamma                74.388(2)
_cell_volume                     1725.41
_exptl_crystal_colour            colorless
_exptl_crystal_description       block
_cell_formula_units_Z            4
_exptl_crystal_recrystallization_method pentane
loop_
_atom_site_label
_atom_site_type_symbol
_atom_site_fract_x
_atom_site_fract_y
_atom_site_fract_z
N1 N 0.12899(18) 1.03841(16) 0.14393(12)
N2 N 0.09420(19) 1.22293(16) 0.22463(12)
B1 B 0.1560(3) 1.1500(2) 0.15198(18)
C1 C 0.2255(2) 0.9619(2) 0.08786(15)
C2 C 0.3041(3) 1.0016(2) 0.02225(17)
C3 C 0.2938(3) 1.1338(2) 0.00040(18)
C4 C 0.2684(3) 1.1915(2) 0.08401(17)
C5 C 0.0137(2) 0.9858(2) 0.18895(15)
C6 C -0.0292(3) 0.9137(3) 0.12702(19)
C7 C 0.0589(3) 0.9023(3) 0.27231(18)
C8 C -0.1115(3) 1.0878(3) 0.2100(2)
C9 C 0.1187(2) 1.1707(2) 0.31270(15)
C10 C 0.2445(3) 1.0911(2) 0.32880(17)
C11 C 0.2705(3) 1.0332(2) 0.41278(19)
C12 C 0.1717(3) 1.0573(3) 0.48160(19)
C13 C 0.0471(3) 1.1374(2) 0.46662(18)
C14 C 0.0191(3) 1.1935(2) 0.38250(16)
C15 C 0.0247(2) 1.3462(2) 0.20660(15)
C16 C 0.0155(3) 1.4306(2) 0.26445(17)
C17 C -0.0572(3) 1.5492(2) 0.24532(19)
C18 C -0.1200(3) 1.5882(2) 0.16798(19)
C19 C -0.1072(3) 1.5062(2) 0.10937(19)
C20 C -0.0381(2) 1.3864(2) 0.12792(16)
H5 H 0.233(2) 0.878(2) 0.0991(14)
H6 H 0.368(2) 0.943(2) -0.0122(15)
H7 H 0.378(3) 1.143(2) -0.0332(18)
H8 H 0.205(3) 1.175(3) -0.0356(18)
H9 H 0.248(3) 1.280(2) 0.0745(16)
H10 H 0.365(3) 1.160(2) 0.1138(17)
H11 H 0.044(3) 0.841(3) 0.1135(18)
H12 H -0.112(3) 0.891(2) 0.1537(16)
H13 H -0.062(3) 0.965(2) 0.0716(17)
H14 H 0.145(3) 0.840(3) 0.2587(17)
H15 H 0.074(3) 0.947(2) 0.3198(18)
H16 H -0.015(3) 0.860(2) 0.2982(15)
H17 H -0.191(3) 1.055(2) 0.2251(17)
H18 H -0.134(3) 1.145(3) 0.158(2)
H19 H -0.100(3) 1.129(3) 0.2586(19)
H20 H 0.320(2) 1.072(2) 0.2831(16)
H21 H 0.358(3) 0.979(2) 0.4218(16)
H22 H 0.188(3) 1.019(2) 0.5388(17)
H23 H -0.022(3) 1.153(2) 0.5144(17)
H24 H -0.074(2) 1.246(2) 0.3734(15)
H25 H 0.064(3) 1.406(2) 0.3193(17)
H26 H -0.067(2) 1.607(2) 0.2872(16)
H27 H -0.173(3) 1.671(2) 0.1559(16)
H28 H -0.148(2) 1.529(2) 0.0545(16)
H29 H -0.031(2) 1.328(2) 0.0849(15)
N3 N 0.40372(19) 0.43908(16) 0.35221(12)
N4 N 0.4396(2) 0.63874(16) 0.27442(12)
B2 B 0.3888(3) 0.5655(3) 0.35011(19)
C21 C 0.3009(3) 0.3918(2) 0.40560(15)
C22 C 0.2018(3) 0.4535(2) 0.45564(18)
C23 C 0.1858(4) 0.5835(3) 0.4629(2)
H1 H 0.1093 0.6326 0.4286
H2 H 0.1608 0.5973 0.5252
C24 C 0.3064(4) 0.6242(3) 0.4322(2)
H3 H 0.3672 0.6059 0.4806
H4 H 0.2795 0.7131 0.4169
C25 C 0.5147(2) 0.3472(2) 0.30756(15)
C26 C 0.5622(3) 0.2361(3) 0.3742(2)
C27 C 0.4620(3) 0.3108(3) 0.23008(19)
C28 C 0.6390(3) 0.3966(3) 0.2765(2)
C29 C 0.4053(2) 0.63457(19) 0.18850(15)
C30 C 0.2797(3) 0.6149(2) 0.17711(17)
C31 C 0.2448(3) 0.6102(2) 0.09389(18)
C32 C 0.3318(3) 0.6278(2) 0.02047(19)
C33 C 0.4571(3) 0.6470(2) 0.03129(18)
C34 C 0.4949(3) 0.6488(2) 0.11384(16)
C35 C 0.5074(2) 0.7261(2) 0.28816(15)
C36 C 0.4997(3) 0.8343(2) 0.23289(17)
C37 C 0.5685(3) 0.9151(2) 0.25002(17)
C38 C 0.6419(3) 0.8933(2) 0.32249(18)
C39 C 0.6489(3) 0.7873(2) 0.37833(18)
C40 C 0.5839(3) 0.7037(2) 0.36052(17)
H30 H 0.306(2) 0.305(2) 0.3982(14)
H31 H 0.135(3) 0.419(2) 0.4873(17)
H32 H 0.588(3) 0.259(2) 0.4264(18)
H33 H 0.497(3) 0.186(3) 0.3900(18)
H34 H 0.642(3) 0.184(2) 0.3497(17)
H35 H 0.375(3) 0.281(3) 0.2498(18)
H36 H 0.436(2) 0.378(2) 0.1849(17)
H37 H 0.533(3) 0.246(3) 0.2066(18)
H38 H 0.620(3) 0.464(3) 0.229(2)
H39 H 0.677(3) 0.424(2) 0.3260(18)
H40 H 0.716(3) 0.334(2) 0.2525(16)
H41 H 0.216(3) 0.609(2) 0.2299(17)
H42 H 0.160(3) 0.596(2) 0.0888(15)
H43 H 0.307(3) 0.624(2) -0.0381(18)
H44 H 0.520(3) 0.657(2) -0.0209(17)
H45 H 0.585(2) 0.658(2) 0.1214(14)
H46 H 0.443(3) 0.850(2) 0.1833(17)
H47 H 0.561(3) 0.988(2) 0.2115(16)
H48 H 0.689(3) 0.951(2) 0.3365(16)
H49 H 0.699(3) 0.770(2) 0.4304(17)
H50 H 0.596(3) 0.629(2) 0.3981(17)
loop_
_geom_bond_atom_site_label_1
_geom_bond_atom_site_label_2
_geom_bond_site_symmetry_1
_geom_bond_site_symmetry_2
N1 B1 1_555 1_555
N2 B1 1_555 1_555
N3 B2 1_555 1_555
N4 B2 1_555 1_555
B1 C4 1_555 1_555
B2 C24 1_555 1_555
C1 N1 1_555 1_555
C2 C1 1_555 1_555
C3 C2 1_555 1_555
C4 C3 1_555 1_555
C5 N1 1_555 1_555
C6 C5 1_555 1_555
C7 C5 1_555 1_555
C8 C5 1_555 1_555
C9 N2 1_555 1_555
C10 C9 1_555 1_555
C11 C10 1_555 1_555
C12 C11 1_555 1_555
C13 C12 1_555 1_555
C14 C9 1_555 1_555
C15 N2 1_555 1_555
C16 C15 1_555 1_555
C17 C16 1_555 1_555
C18 C17 1_555 1_555
C19 C18 1_555 1_555
C20 C15 1_555 1_555
C21 N3 1_555 1_555
C22 C21 1_555 1_555
C23 C22 1_555 1_555
H1 C23 1_555 1_555
H2 C23 1_555 1_555
C24 C23 1_555 1_555
H3 C24 1_555 1_555
H4 C24 1_555 1_555
C25 N3 1_555 1_555
C26 C25 1_555 1_555
C27 C25 1_555 1_555
C28 C25 1_555 1_555
C29 N4 1_555 1_555
C30 C29 1_555 1_555
C31 C30 1_555 1_555
C32 C31 1_555 1_555
C33 C32 1_555 1_555
C34 C29 1_555 1_555
C35 N4 1_555 1_555
C36 C35 1_555 1_555
C37 C36 1_555 1_555
C38 C37 1_555 1_555
C39 C38 1_555 1_555
C40 C35 1_555 1_555
H5 C1 1_555 1_555
H6 C2 1_555 1_555
H7 C3 1_555 1_555
H8 C3 1_555 1_555
H9 C4 1_555 1_555
H10 C4 1_555 1_555
H11 C6 1_555 1_555
H12 C6 1_555 1_555
H13 C6 1_555 1_555
H14 C7 1_555 1_555
H15 C7 1_555 1_555
H16 C7 1_555 1_555
H17 C8 1_555 1_555
H18 C8 1_555 1_555
H19 C8 1_555 1_555
H20 C10 1_555 1_555
H21 C11 1_555 1_555
H22 C12 1_555 1_555
H23 C13 1_555 1_555
H24 C14 1_555 1_555
H25 C16 1_555 1_555
H26 C17 1_555 1_555
H27 C18 1_555 1_555
H28 C19 1_555 1_555
H29 C20 1_555 1_555
H30 C21 1_555 1_555
H31 C22 1_555 1_555
H32 C26 1_555 1_555
H33 C26 1_555 1_555
H34 C26 1_555 1_555
H35 C27 1_555 1_555
H36 C27 1_555 1_555
H37 C27 1_555 1_555
H38 C28 1_555 1_555
H39 C28 1_555 1_555
H40 C28 1_555 1_555
H41 C30 1_555 1_555
H42 C31 1_555 1_555
H43 C32 1_555 1_555
H44 C33 1_555 1_555
H45 C34 1_555 1_555
H46 C36 1_555 1_555
H47 C37 1_555 1_555
H48 C38 1_555 1_555
H49 C39 1_555 1_555
H50 C40 1_555 1_555
C13 C14 1_555 1_555
C19 C20 1_555 1_555
C33 C34 1_555 1_555
C39 C40 1_555 1_555

#END
