
#######################################################################
#
#                 Cambridge Crystallographic Data Centre
#                                CCDC 
#
#######################################################################
#
# If this CIF has been generated from an entry in the Cambridge 
# Structural Database, then it will include bibliographic, chemical, 
# crystal, experimental, refinement or atomic coordinate data resulting 
# from the CCDC's data processing and validation procedures.
#
#######################################################################

data_EFELUX
_chemical_formula_moiety         'C40 H24 B1 N3 O1,C1 H4 O1'
_chemical_name_systematic        
'Methoxy-(5,10,15-tris(4-ethynylphenyl)subporphyrinato)boron(iii) methanol solvate'
_symmetry_cell_setting           monoclinic
_symmetry_space_group_name_H-M   'P 21/a'
_symmetry_Int_Tables_number      14
_space_group_name_Hall           '-P 2yab'
loop_
_symmetry_equiv_pos_site_id
_symmetry_equiv_pos_as_xyz
1 x,y,z
2 1/2-x,1/2+y,-z
3 -x,-y,-z
4 1/2+x,1/2-y,z
_cell_length_a                   11.032(6)
_cell_length_b                   19.682(8)
_cell_length_c                   15.304(9)
_cell_angle_alpha                90
_cell_angle_beta                 96.020(18)
_cell_angle_gamma                90
_cell_volume                     3304.66
_exptl_crystal_colour            orange
_exptl_crystal_description       prism
_cell_formula_units_Z            4
_exptl_crystal_recrystallization_method dichloromethane/methanol
loop_
_atom_site_label
_atom_site_type_symbol
_atom_site_fract_x
_atom_site_fract_y
_atom_site_fract_z
C1 C 0.4660(5) 0.5498(2) 0.1365(3)
C2 C 0.4308(5) 0.4810(2) 0.1533(3)
H1 H 0.3583 0.4591 0.1289
C3 C 0.5202(5) 0.4527(3) 0.2107(4)
H2 H 0.5214 0.4074 0.2322
C4 C 0.6119(5) 0.5036(2) 0.2329(3)
C5 C 0.7103(5) 0.5095(2) 0.2989(3)
C6 C 0.7572(4) 0.5759(3) 0.3208(4)
C7 C 0.8198(5) 0.6056(2) 0.3981(4)
H3 H 0.8609 0.5817 0.4463
C8 C 0.8098(4) 0.6754(2) 0.3901(4)
H4 H 0.8436 0.7077 0.4319
C9 C 0.7402(5) 0.6905(2) 0.3086(3)
C10 C 0.6773(5) 0.7488(2) 0.2726(3)
C11 C 0.5786(5) 0.7406(2) 0.2071(3)
C12 C 0.4771(5) 0.7809(3) 0.1705(4)
H5 H 0.4666 0.8282 0.1798
C13 C 0.3987(5) 0.7399(3) 0.1202(4)
H6 H 0.3241 0.7539 0.0886
C14 C 0.4472(5) 0.6723(2) 0.1227(3)
C15 C 0.4010(5) 0.6069(2) 0.0987(3)
C16 C 0.7599(5) 0.4501(2) 0.3505(3)
C17 C 0.6857(5) 0.4070(3) 0.3931(4)
H7 H 0.6013 0.4167 0.3930
C18 C 0.7349(5) 0.3500(3) 0.4354(4)
H8 H 0.6836 0.3211 0.4650
C19 C 0.8576(5) 0.3336(3) 0.4361(4)
C20 C 0.9315(5) 0.3780(3) 0.3945(4)
H9 H 1.0161 0.3686 0.3953
C21 C 0.8838(5) 0.4349(3) 0.3523(4)
H10 H 0.9356 0.4644 0.3240
C22 C 0.9065(5) 0.2694(3) 0.4785(3)
C23 C 0.9404(5) 0.2235(4) 0.5119(5)
H11 H 0.9701 0.1833 0.5412
C24 C 0.7109(5) 0.8176(2) 0.3095(3)
C25 C 0.8330(5) 0.8383(2) 0.3172(3)
H12 H 0.8942 0.8072 0.3039
C26 C 0.8655(5) 0.9028(2) 0.3437(3)
H13 H 0.9484 0.9164 0.3471
C27 C 0.7762(5) 0.9490(2) 0.3660(3)
C28 C 0.6564(5) 0.9277(2) 0.3617(4)
H14 H 0.5957 0.9578 0.3785
C29 C 0.6240(5) 0.8627(2) 0.3330(4)
H15 H 0.5411 0.8490 0.3295
C30 C 0.8099(5) 1.0201(3) 0.3937(4)
C31 C 0.8255(6) 1.0725(4) 0.4066(5)
H16 H 0.8394 1.1195 0.4182
C32 C 0.2856(5) 0.5960(3) 0.0426(3)
C33 C 0.1787(6) 0.6283(3) 0.0565(4)
H17 H 0.1780 0.6597 0.1036
C34 C 0.0717(6) 0.6158(4) 0.0024(5)
H18 H -0.0015 0.6379 0.0140
C35 C 0.0704(5) 0.5720(3) -0.0677(4)
C36 C 0.1773(6) 0.5369(3) -0.0809(4)
H19 H 0.1773 0.5048 -0.1273
C37 C 0.2831(5) 0.5490(3) -0.0262(4)
H20 H 0.3553 0.5250 -0.0355
C38 C -0.0426(6) 0.5597(4) -0.1304(4)
C39 C -0.1157(8) 0.5536(4) -0.1771(6)
H21 H -0.1834 0.5480 -0.2203
C40 C 0.6908(6) 0.6305(3) 0.0273(4)
H22 H 0.6337 0.5934 0.0109
H23 H 0.7577 0.6292 -0.0100
H24 H 0.6480 0.6741 0.0193
N1 N 0.5777(4) 0.55852(19) 0.1817(3)
N2 N 0.7162(4) 0.62943(19) 0.2678(3)
N3 N 0.5586(4) 0.67742(19) 0.1716(3)
B1 B 0.6522(5) 0.6219(3) 0.1790(4)
O1 O 0.7370(3) 0.62346(16) 0.1142(2)
C41 C 0.167(3) 0.2421(12) 0.1833(18)
O3 O 0.293(3) 0.2548(10) 0.2011(14)
O2? O -0.073(3) 0.2414(10) 0.1977(15)
C42? C 0.055(3) 0.2429(10) 0.2037(16)
loop_
_geom_bond_atom_site_label_1
_geom_bond_atom_site_label_2
_geom_bond_site_symmetry_1
_geom_bond_site_symmetry_2
C1 C2 1_555 1_555
C2 H1 1_555 1_555
C3 C2 1_555 1_555
H2 C3 1_555 1_555
C4 C3 1_555 1_555
C5 C4 1_555 1_555
C6 C5 1_555 1_555
C7 C6 1_555 1_555
H3 C7 1_555 1_555
C8 C7 1_555 1_555
H4 C8 1_555 1_555
C9 C8 1_555 1_555
C10 C9 1_555 1_555
C11 C10 1_555 1_555
C12 C11 1_555 1_555
H5 C12 1_555 1_555
C13 C12 1_555 1_555
H6 C13 1_555 1_555
C14 C13 1_555 1_555
C15 C1 1_555 1_555
C16 C5 1_555 1_555
C17 C16 1_555 1_555
H7 C17 1_555 1_555
C18 C17 1_555 1_555
H8 C18 1_555 1_555
C19 C18 1_555 1_555
C20 C19 1_555 1_555
H9 C20 1_555 1_555
C21 C16 1_555 1_555
H10 C21 1_555 1_555
C22 C19 1_555 1_555
C23 C22 1_555 1_555
H11 C23 1_555 1_555
C24 C10 1_555 1_555
C25 C24 1_555 1_555
H12 C25 1_555 1_555
C26 C25 1_555 1_555
H13 C26 1_555 1_555
C27 C26 1_555 1_555
C28 C27 1_555 1_555
H14 C28 1_555 1_555
C29 C24 1_555 1_555
H15 C29 1_555 1_555
C30 C27 1_555 1_555
C31 C30 1_555 1_555
H16 C31 1_555 1_555
C32 C15 1_555 1_555
C33 C32 1_555 1_555
H17 C33 1_555 1_555
C34 C33 1_555 1_555
H18 C34 1_555 1_555
C35 C34 1_555 1_555
C36 C35 1_555 1_555
H19 C36 1_555 1_555
C37 C32 1_555 1_555
H20 C37 1_555 1_555
C38 C35 1_555 1_555
C39 C38 1_555 1_555
H21 C39 1_555 1_555
C40 H22 1_555 1_555
H23 C40 1_555 1_555
H24 C40 1_555 1_555
N1 C1 1_555 1_555
N2 C6 1_555 1_555
N3 C11 1_555 1_555
B1 N1 1_555 1_555
O1 C40 1_555 1_555
C41 O3 1_555 1_555
C4 N1 1_555 1_555
C9 N2 1_555 1_555
C14 C15 1_555 1_555
C14 N3 1_555 1_555
C20 C21 1_555 1_555
C28 C29 1_555 1_555
C36 C37 1_555 1_555
N2 B1 1_555 1_555
N3 B1 1_555 1_555
B1 O1 1_555 1_555

#END
