
#######################################################################
#
#                 Cambridge Crystallographic Data Centre
#                                CCDC 
#
#######################################################################
#
# If this CIF has been generated from an entry in the Cambridge 
# Structural Database, then it will include bibliographic, chemical, 
# crystal, experimental, refinement or atomic coordinate data resulting 
# from the CCDC's data processing and validation procedures.
#
#######################################################################

data_EFELIL
_chemical_formula_moiety         'C56 H106 O8 Si4'
_chemical_name_systematic        
3,12,16,17,24,26-Hexamethyl-14-methylene-17,19,22,23-tetrakis((triethylsilyl)oxy)oxacyclohexacosa-3,9,15-triene-2,8,21-trione
_symmetry_cell_setting           monoclinic
_symmetry_space_group_name_H-M   'P 21'
_symmetry_Int_Tables_number      4
_space_group_name_Hall           'P 2yb'
loop_
_symmetry_equiv_pos_site_id
_symmetry_equiv_pos_as_xyz
1 x,y,z
2 -x,1/2+y,-z
_cell_length_a                   11.506(3)
_cell_length_b                   22.806(5)
_cell_length_c                   12.710(3)
_cell_angle_alpha                90
_cell_angle_beta                 107.571(3)
_cell_angle_gamma                90
_cell_volume                     3179.57
_cell_formula_units_Z            2
loop_
_atom_site_label
_atom_site_type_symbol
_atom_site_fract_x
_atom_site_fract_y
_atom_site_fract_z
Si1 Si 0.09894(13) 0.67864(6) 0.77110(11)
Si2 Si 0.46364(13) 0.42710(7) 1.04820(11)
Si3 Si 0.05540(13) 0.43875(7) 0.43787(15)
Si4 Si 0.49915(14) 0.58527(6) 0.55921(13)
O1 O 0.1733(3) 0.62557(13) 0.8510(3)
O2 O 0.4339(3) 0.48327(14) 0.9651(3)
O3 O 0.2427(3) 0.42428(14) 0.7592(3)
O4 O 0.1780(3) 0.43640(14) 0.5404(3)
O5 O 0.4335(3) 0.53543(14) 0.6177(3)
O6 O 0.4715(3) 0.30444(15) 0.5792(3)
O7 O 0.6147(4) 0.2624(2) 0.7187(4)
O8 O 0.0779(5) 0.16122(18) 0.8318(4)
C1 C 0.2111(4) 0.60765(19) 0.9642(4)
C2 C 0.3292(4) 0.5729(2) 0.9826(4)
C3 C 0.3229(5) 0.5152(2) 0.9188(4)
C4 C 0.3048(5) 0.5242(2) 0.7985(4)
C5 C 0.2650(4) 0.4714(2) 0.7250(4)
C6 C 0.2477(4) 0.4812(2) 0.6029(4)
C7 C 0.3713(5) 0.4830(2) 0.5743(4)
C8 C 0.4475(4) 0.4271(2) 0.6123(4)
C9 C 0.4975(7) 0.4020(2) 0.5257(5)
C10 C 0.5580(6) 0.3422(2) 0.5513(5)
C11 C 0.5081(5) 0.2683(2) 0.6643(4)
C12 C 0.4047(4) 0.2359(2) 0.6857(4)
C13 C 0.4325(6) 0.1951(3) 0.7652(5)
C14 C 0.3508(7) 0.1562(3) 0.8035(6)
C15 C 0.3315(7) 0.1765(3) 0.9132(6)
C16 C 0.2445(7) 0.2286(3) 0.8942(6)
C17 C 0.1107(6) 0.2124(2) 0.8464(5)
C18 C 0.0201(8) 0.2585(3) 0.8199(6)
C19 C 0.0398(7) 0.3154(3) 0.8202(5)
C20 C -0.0544(8) 0.3625(3) 0.7969(6)
C21 C -0.0260(5) 0.4115(2) 0.8820(4)
C22 C -0.1205(5) 0.4616(2) 0.8467(5)
C23 C -0.0879(5) 0.5159(2) 0.9155(5)
C24 C 0.0187(5) 0.5500(2) 0.9078(5)
C25 C 0.1110(4) 0.5703(2) 0.9882(4)
C26 C 0.2398(6) 0.6624(2) 1.0381(5)
C27 C 0.5452(6) 0.4365(3) 0.7199(5)
C28 C 0.5910(10) 0.3153(4) 0.4552(8)
C29 C 0.2775(5) 0.2520(3) 0.6189(5)
C30 C -0.0215(8) 0.3891(3) 0.9945(6)
C31 C -0.1568(7) 0.5343(3) 0.9739(7)
C32 C 0.1283(6) 0.5580(3) 1.1084(5)
C33 C -0.0620(5) 0.6873(2) 0.7734(5)
H1 H -0.1048 0.7136 0.7121
H2 H -0.1023 0.6485 0.7583
C34 C -0.0800(6) 0.7109(3) 0.8780(5)
H3 H -0.1674 0.7134 0.8696
H4 H -0.0436 0.7501 0.8930
H5 H -0.0406 0.6847 0.9396
C35 C 0.1818(6) 0.7503(2) 0.7995(5)
H6 H 0.1350 0.7801 0.7468
H7 H 0.1865 0.7635 0.8749
C36 C 0.3098(6) 0.7465(3) 0.7896(6)
H8 H 0.3498 0.7848 0.8067
H9 H 0.3056 0.7351 0.7142
H10 H 0.3567 0.7172 0.8416
C37 C 0.0941(5) 0.6525(3) 0.6301(4)
H11 H 0.1781 0.6421 0.6314
H12 H 0.0449 0.6161 0.6142
C38 C 0.0429(6) 0.6949(3) 0.5369(5)
H13 H 0.0440 0.6768 0.4672
H14 H 0.0927 0.7306 0.5496
H15 H -0.0411 0.7048 0.5330
C39 C 0.3228(6) 0.3967(3) 1.0678(5)
H16 H 0.2797 0.4284 1.0940
H17 H 0.2689 0.3832 0.9955
C40 C 0.3439(7) 0.3449(3) 1.1506(6)
H18 H 0.2653 0.3313 1.1566
H19 H 0.3954 0.3579 1.2232
H20 H 0.3843 0.3127 1.1245
C41 C 0.5733(8) 0.4462(5) 1.1781(6)
H21 H 0.6046 0.4094 1.2181
H22 H 0.6429 0.4659 1.1625
C42 C 0.5311(9) 0.4831(5) 1.2502(7)
H23 H 0.5976 0.4900 1.3183
H24 H 0.4631 0.4639 1.2680
H25 H 0.5035 0.5206 1.2136
C43 C 0.5151(8) 0.3510(6) 0.9547(10)
H26 H 0.5048 0.3116 0.9836
H27 H 0.4797 0.3530 0.8735
C44 C 0.6210(14) 0.3722(6) 0.9918(10)
H28 H 0.6782 0.3485 0.9664
H29 H 0.6458 0.3721 1.0727
H30 H 0.6212 0.4125 0.9652
C45 C 0.0249(6) 0.5139(3) 0.3724(6)
H31 H 0.0216 0.5426 0.4299
H32 H 0.0944 0.5249 0.3457
C46 C -0.0901(6) 0.5189(4) 0.2783(6)
H33 H -0.0986 0.5590 0.2496
H34 H -0.1600 0.5092 0.3040
H35 H -0.0869 0.4916 0.2197
C47 C -0.0751(9) 0.4071(6) 0.4570(12)
H36 H -0.1376 0.4019 0.3846
H37 H -0.0546 0.3679 0.4912
C48 C -0.1223(16) 0.4425(6) 0.5251(10)
H38 H -0.1960 0.4242 0.5338
H39 H -0.1425 0.4813 0.4913
H40 H -0.0612 0.4466 0.5976
C49 C 0.0955(18) 0.3901(6) 0.3288(11)
H41 H 0.0177 0.3827 0.2704
H42 H 0.1452 0.4149 0.2949
C50 C 0.1490(11) 0.3417(6) 0.3486(11)
H43 H 0.1577 0.3253 0.2800
H44 H 0.1014 0.3147 0.3792
H45 H 0.2299 0.3472 0.4019
C51 C 0.4001(6) 0.6024(3) 0.4161(5)
H46 H 0.4471 0.6272 0.3796
H47 H 0.3809 0.5652 0.3742
C52 C 0.2822(6) 0.6331(3) 0.4090(6)
H48 H 0.2367 0.6400 0.3314
H49 H 0.2997 0.6707 0.4480
H50 H 0.2335 0.6086 0.4430
C53 C 0.5155(6) 0.6499(3) 0.6482(6)
H51 H 0.5552 0.6813 0.6175
H52 H 0.4329 0.6639 0.6444
C54 C 0.5869(7) 0.6420(3) 0.7682(6)
H53 H 0.5889 0.6791 0.8075
H54 H 0.6704 0.6299 0.7741
H55 H 0.5479 0.6118 0.8009
C55 C 0.6544(6) 0.5598(3) 0.5582(6)
H56 H 0.7037 0.5512 0.6351
H57 H 0.6448 0.5226 0.5162
C56 C 0.7245(6) 0.6029(3) 0.5089(6)
H58 H 0.8033 0.5858 0.5110
H59 H 0.7378 0.6393 0.5516
H60 H 0.6775 0.6112 0.4322
H61 H 0.398(4) 0.402(2) 0.632(4)
H62 H 0.272(4) 0.648(2) 1.120(4)
H63 H 0.547(4) 0.423(2) 0.504(4)
H64 H 0.354(4) 0.5635(18) 1.061(4)
H65 H 0.381(4) 0.534(2) 0.779(3)
H66 H 0.514(5) 0.445(2) 0.773(5)
H67 H 0.012(5) 0.549(3) 0.839(5)
H68 H 0.438(5) 0.396(2) 0.472(4)
H69 H 0.626(5) 0.344(2) 0.611(4)
H70 H 0.262(4) 0.548(2) 0.768(4)
H71 H 0.579(5) 0.399(3) 0.746(4)
H72 H 0.274(4) 0.4995(19) 0.931(4)
H73 H 0.058(5) 0.425(2) 0.885(4)
H74 H 0.314(5) 0.682(2) 1.028(4)
H75 H 0.161(6) 0.687(3) 1.028(5)
H76 H 0.197(4) 0.5176(19) 0.570(3)
H77 H -0.134(5) 0.471(3) 0.770(5)
H78 H 0.274(5) 0.154(2) 0.738(4)
H79 H 0.509(8) 0.290(4) 0.387(8)
H80 H -0.135(5) 0.348(2) 0.788(4)
H81 H -0.206(5) 0.441(2) 0.847(4)
H82 H 0.522(5) 0.186(2) 0.804(4)
H83 H 0.352(5) 0.486(2) 0.501(5)
H84 H 0.602(5) 0.464(2) 0.701(4)
H85 H 0.632(6) 0.286(3) 0.481(5)
H86 H -0.239(7) 0.517(3) 0.982(6)
H87 H -0.110(8) 0.565(4) 1.035(7)
H88 H 0.367(8) 0.113(4) 0.794(6)
H89 H 0.645(7) 0.339(4) 0.437(6)
H90 H 0.315(6) 0.134(3) 0.956(5)
H91 H 0.392(4) 0.595(2) 0.965(4)
H92 H 0.032(6) 0.365(3) 1.015(5)
H93 H -0.008(5) 0.430(3) 1.052(5)
H94 H -0.047(3) 0.2574(16) 0.810(3)
H95 H -0.081(6) 0.381(3) 1.012(5)
H96 H 0.082(7) 0.586(4) 1.150(6)
H97 H 0.077(6) 0.528(3) 1.124(5)
H98 H 0.254(5) 0.239(3) 0.961(5)
H99 H 0.095(7) 0.332(4) 0.800(6)
H100 H 0.295(7) 0.256(4) 0.837(6)
H101 H 0.429(5) 0.184(3) 0.987(4)
H102 H -0.046(6) 0.381(3) 0.713(6)
loop_
_geom_bond_atom_site_label_1
_geom_bond_atom_site_label_2
_geom_bond_site_symmetry_1
_geom_bond_site_symmetry_2
Si1 O1 1_555 1_555
Si2 O2 1_555 1_555
Si3 O4 1_555 1_555
Si4 O5 1_555 1_555
O1 C1 1_555 1_555
O2 C3 1_555 1_555
O3 C5 1_555 1_555
O4 C6 1_555 1_555
O5 C7 1_555 1_555
O6 C10 1_555 1_555
O7 C11 1_555 1_555
O8 C17 1_555 1_555
C1 C2 1_555 1_555
C2 C3 1_555 1_555
C3 C4 1_555 1_555
C4 C5 1_555 1_555
C5 C6 1_555 1_555
C6 C7 1_555 1_555
C7 C8 1_555 1_555
C8 C9 1_555 1_555
C9 C10 1_555 1_555
C10 C28 1_555 1_555
C11 O6 1_555 1_555
C12 C11 1_555 1_555
C13 C12 1_555 1_555
C14 C13 1_555 1_555
C15 C14 1_555 1_555
C16 C15 1_555 1_555
C17 C16 1_555 1_555
C18 C17 1_555 1_555
C19 C18 1_555 1_555
C20 C19 1_555 1_555
C21 C20 1_555 1_555
C22 C21 1_555 1_555
C23 C22 1_555 1_555
C24 C23 1_555 1_555
C25 C1 1_555 1_555
C26 C1 1_555 1_555
C27 C8 1_555 1_555
C28 H79 1_555 1_555
C29 C12 1_555 1_555
C30 C21 1_555 1_555
C31 C23 1_555 1_555
C32 C25 1_555 1_555
C33 Si1 1_555 1_555
H1 C33 1_555 1_555
H2 C33 1_555 1_555
C34 C33 1_555 1_555
H3 C34 1_555 1_555
H4 C34 1_555 1_555
H5 C34 1_555 1_555
C35 Si1 1_555 1_555
H6 C35 1_555 1_555
H7 C35 1_555 1_555
C36 C35 1_555 1_555
H8 C36 1_555 1_555
H9 C36 1_555 1_555
H10 C36 1_555 1_555
C37 Si1 1_555 1_555
H11 C37 1_555 1_555
H12 C37 1_555 1_555
C38 C37 1_555 1_555
H13 C38 1_555 1_555
H14 C38 1_555 1_555
H15 C38 1_555 1_555
C39 Si2 1_555 1_555
H16 C39 1_555 1_555
H17 C39 1_555 1_555
C40 C39 1_555 1_555
H18 C40 1_555 1_555
H19 C40 1_555 1_555
H20 C40 1_555 1_555
C41 Si2 1_555 1_555
H21 C41 1_555 1_555
H22 C41 1_555 1_555
C42 C41 1_555 1_555
H23 C42 1_555 1_555
H24 C42 1_555 1_555
H25 C42 1_555 1_555
C43 Si2 1_555 1_555
H26 C43 1_555 1_555
H27 C43 1_555 1_555
C44 C43 1_555 1_555
H28 C44 1_555 1_555
H29 C44 1_555 1_555
H30 C44 1_555 1_555
C45 Si3 1_555 1_555
H31 C45 1_555 1_555
H32 C45 1_555 1_555
C46 C45 1_555 1_555
H33 C46 1_555 1_555
H34 C46 1_555 1_555
H35 C46 1_555 1_555
C47 Si3 1_555 1_555
H36 C47 1_555 1_555
H37 C47 1_555 1_555
C48 C47 1_555 1_555
H38 C48 1_555 1_555
H39 C48 1_555 1_555
H40 C48 1_555 1_555
C49 Si3 1_555 1_555
H41 C49 1_555 1_555
H42 C49 1_555 1_555
C50 C49 1_555 1_555
H43 C50 1_555 1_555
H44 C50 1_555 1_555
H45 C50 1_555 1_555
C51 Si4 1_555 1_555
H46 C51 1_555 1_555
H47 C51 1_555 1_555
C52 C51 1_555 1_555
H48 C52 1_555 1_555
H49 C52 1_555 1_555
H50 C52 1_555 1_555
C53 Si4 1_555 1_555
H51 C53 1_555 1_555
H52 C53 1_555 1_555
C54 C53 1_555 1_555
H53 C54 1_555 1_555
H54 C54 1_555 1_555
H55 C54 1_555 1_555
C55 Si4 1_555 1_555
H56 C55 1_555 1_555
H57 C55 1_555 1_555
C56 C55 1_555 1_555
H58 C56 1_555 1_555
H59 C56 1_555 1_555
H60 C56 1_555 1_555
H61 C8 1_555 1_555
H62 C26 1_555 1_555
H63 C9 1_555 1_555
H64 C2 1_555 1_555
H65 C4 1_555 1_555
H66 C27 1_555 1_555
H67 C24 1_555 1_555
H68 C9 1_555 1_555
H69 C10 1_555 1_555
H70 C4 1_555 1_555
H71 C27 1_555 1_555
H72 C3 1_555 1_555
H73 C21 1_555 1_555
H74 C26 1_555 1_555
H75 C26 1_555 1_555
H76 C6 1_555 1_555
H77 C22 1_555 1_555
H78 C14 1_555 1_555
H80 C20 1_555 1_555
H81 C22 1_555 1_555
H82 C13 1_555 1_555
H83 C7 1_555 1_555
H84 C27 1_555 1_555
H85 C28 1_555 1_555
H86 C31 1_555 1_555
H87 C31 1_555 1_555
H88 C14 1_555 1_555
H89 C28 1_555 1_555
H90 C15 1_555 1_555
H91 C2 1_555 1_555
H92 C30 1_555 1_555
H93 C30 1_555 1_555
H94 C18 1_555 1_555
H95 C30 1_555 1_555
H96 C32 1_555 1_555
H97 C32 1_555 1_555
H98 C16 1_555 1_555
H99 C19 1_555 1_555
H100 C16 1_555 1_555
H101 C15 1_555 1_555
H102 C20 1_555 1_555
C24 C25 1_555 1_555

#END
