
#######################################################################
#
#                 Cambridge Crystallographic Data Centre
#                                CCDC 
#
#######################################################################
#
# If this CIF has been generated from an entry in the Cambridge 
# Structural Database, then it will include bibliographic, chemical, 
# crystal, experimental, refinement or atomic coordinate data resulting 
# from the CCDC's data processing and validation procedures.
#
#######################################################################

data_EFEMAE
_chemical_formula_moiety         'C58 H36 B1 N3 O1'
_chemical_name_systematic        
'Methoxy-(5,10,15-tris(4-(phenylethynyl)phenyl)subporphyrinato)boron(iii) unknown solvate'
_symmetry_cell_setting           orthorhombic
_symmetry_space_group_name_H-M   'P b c n'
_symmetry_Int_Tables_number      60
_space_group_name_Hall           '-P 2n 2ab'
loop_
_symmetry_equiv_pos_site_id
_symmetry_equiv_pos_as_xyz
1 x,y,z
2 1/2-x,1/2-y,1/2+z
3 1/2+x,1/2-y,-z
4 -x,y,1/2-z
5 -x,-y,-z
6 1/2+x,1/2+y,1/2-z
7 1/2-x,1/2+y,z
8 x,-y,1/2+z
_cell_length_a                   24.337(4)
_cell_length_b                   17.749(3)
_cell_length_c                   22.934(3)
_cell_angle_alpha                90
_cell_angle_beta                 90
_cell_angle_gamma                90
_cell_volume                     9906.51
_exptl_crystal_colour            orange
_exptl_crystal_description       prism
_cell_formula_units_Z            8
loop_
_atom_site_label
_atom_site_type_symbol
_atom_site_fract_x
_atom_site_fract_y
_atom_site_fract_z
O1 O 0.46023(13) 0.76636(17) 0.08024(13)
N1 N 0.40399(15) 0.6786(2) 0.02042(15)
N2 N 0.38178(15) 0.7030(2) 0.11962(15)
N3 N 0.36559(15) 0.7956(2) 0.04822(15)
C1 C 0.3832(2) 0.7806(3) -0.2160(2)
H1 H 0.4103 0.7715 -0.2449
C2 C 0.36869(18) 0.7620(3) -0.05265(19)
C3 C 0.4591(2) 0.4591(3) 0.0795(2)
H2 H 0.4858 0.4873 0.0587
C4 C 0.29890(19) 0.8598(3) 0.18705(19)
C5 C 0.3672(2) 0.6222(3) 0.19259(19)
H3 H 0.3682 0.5781 0.2161
C6 C 0.3822(2) 0.3759(3) 0.1412(2)
H4 H 0.3558 0.3477 0.1624
C7 C 0.38844(19) 0.6283(3) 0.13441(19)
C8 C 0.4283(2) 0.3397(3) 0.11795(19)
C9 C 0.40918(18) 0.6036(3) 0.03203(19)
C10 C 0.39283(18) 0.6196(3) -0.0643(2)
H5 H 0.3874 0.6105 -0.1047
C11 C 0.35535(19) 0.7771(2) -0.11439(18)
C12 C 0.3042(2) 0.8056(3) -0.1309(2)
H6 H 0.2766 0.8134 -0.1022
C13 C 0.3329(2) 0.8092(3) -0.2322(2)
C14 C 0.33541(18) 0.8376(3) 0.08723(19)
C15 C 0.4056(2) 0.5772(3) 0.0905(2)
C16 C 0.3039(2) 0.8348(3) -0.3396(2)
C17 C 0.4664(2) 0.3833(3) 0.0871(2)
H7 H 0.4980 0.3598 0.0710
C18 C 0.4367(2) 0.2589(3) 0.1251(2)
C19 C 0.39061(18) 0.6913(3) -0.03646(19)
C20 C 0.3194(2) 0.8250(3) -0.2923(2)
C21 C 0.40406(19) 0.5660(3) -0.0229(2)
H8 H 0.4078 0.5134 -0.0295
C22 C 0.3319(2) 0.8145(3) 0.14579(19)
C23 C 0.3948(2) 0.7648(3) -0.1579(2)
H9 H 0.4299 0.7455 -0.1476
C24 C 0.3531(2) 0.7422(3) 0.1607(2)
C25 C 0.4893(2) 0.8004(3) 0.0336(2)
H10 H 0.4968 0.7626 0.0035
H11 H 0.5240 0.8210 0.0481
H12 H 0.4670 0.8411 0.0169
C26 C 0.4129(2) 0.4957(3) 0.1018(2)
C27 C 0.2603(2) 0.8273(3) 0.2243(2)
H13 H 0.2548 0.7743 0.2236
C28 C 0.3175(2) 0.8782(3) -0.0054(2)
H14 H 0.3041 0.9059 -0.0379
C29 C 0.3051(2) 0.9387(3) 0.1889(2)
H15 H 0.3314 0.9620 0.1641
C30 C 0.3748(2) 0.4527(3) 0.1335(2)
H16 H 0.3435 0.4765 0.1499
C31 C 0.2932(2) 0.8228(3) -0.1890(2)
H17 H 0.2587 0.8438 -0.1995
C32 C 0.3067(2) 0.8925(3) 0.0520(2)
H18 H 0.2840 0.9319 0.0664
C33 C 0.2373(2) 0.9494(3) 0.2637(2)
C34 C 0.3531(2) 0.8135(3) -0.00766(19)
C35 C 0.1777(2) 1.0877(3) 0.4348(2)
H19 H 0.2104 1.0610 0.4440
C36 C 0.2741(2) 0.9828(3) 0.2258(2)
H20 H 0.2781 1.0361 0.2252
C37 C 0.1545(2) 1.0806(3) 0.3792(2)
C38 C 0.2053(2) 0.9949(3) 0.3052(2)
C39 C 0.4427(2) 0.1947(3) 0.1283(2)
C40 C 0.2298(2) 0.8714(3) 0.2621(2)
H21 H 0.2037 0.8484 0.2873
C41 C 0.2299(2) 0.9164(3) -0.4679(2)
H22 H 0.2060 0.9573 -0.4761
C42 C 0.2488(2) 0.9047(3) -0.4111(2)
H23 H 0.2367 0.9367 -0.3805
C43 C 0.1819(2) 1.0340(3) 0.3371(2)
C44 C 0.4460(3) 0.1128(3) 0.1297(3)
B1 B 0.4059(2) 0.7387(3) 0.0672(2)
C45 C 0.3456(2) 0.6896(3) 0.2086(2)
H24 H 0.3286 0.7005 0.2449
C46 C 0.2846(2) 0.8470(3) -0.3995(2)
C47 C 0.1537(2) 1.1326(3) 0.4762(2)
H25 H 0.1699 1.1379 0.5136
C48 C 0.1056(3) 1.1701(3) 0.4628(3)
H26 H 0.0886 1.2011 0.4914
C49 C 0.1073(3) 1.1181(4) 0.3677(3)
H27 H 0.0908 1.1135 0.3303
C50 C 0.4519(3) 0.0729(3) 0.1816(3)
H28 H 0.4537 0.0992 0.2177
C51 C 0.2459(3) 0.8695(4) -0.5110(3)
H29 H 0.2338 0.8780 -0.5498
C52 C 0.0825(3) 1.1630(4) 0.4096(3)
H30 H 0.0493 1.1888 0.4008
C53 C 0.4551(3) -0.0038(4) 0.1809(4)
H31 H 0.4607 -0.0307 0.2161
C54 C 0.2997(4) 0.7988(4) -0.4429(3)
H32 H 0.3239 0.7580 -0.4351
C55 C 0.4500(3) -0.0426(4) 0.1284(4)
H33 H 0.4532 -0.0959 0.1276
C56 C 0.4375(5) 0.0716(4) 0.0801(4)
H34 H 0.4290 0.0974 0.0450
C57 C 0.2790(4) 0.8104(5) -0.4992(3)
H35 H 0.2884 0.7762 -0.5294
C58 C 0.4408(4) -0.0044(5) 0.0791(4)
H36 H 0.4365 -0.0307 0.0434
loop_
_geom_bond_atom_site_label_1
_geom_bond_atom_site_label_2
_geom_bond_site_symmetry_1
_geom_bond_site_symmetry_2
O1 C25 1_555 1_555
N1 C9 1_555 1_555
N2 C7 1_555 1_555
N3 C14 1_555 1_555
C1 H1 1_555 1_555
C2 C11 1_555 1_555
C3 H2 1_555 1_555
C4 C22 1_555 1_555
C5 H3 1_555 1_555
C6 H4 1_555 1_555
C7 C5 1_555 1_555
C8 C6 1_555 1_555
C9 C15 1_555 1_555
C10 H5 1_555 1_555
C11 C12 1_555 1_555
C12 H6 1_555 1_555
C13 C1 1_555 1_555
C14 C22 1_555 1_555
C15 C7 1_555 1_555
C16 C20 1_555 1_555
C17 C3 1_555 1_555
H7 C17 1_555 1_555
C18 C8 1_555 1_555
C19 N1 1_555 1_555
C20 C13 1_555 1_555
C21 C9 1_555 1_555
H8 C21 1_555 1_555
C22 C24 1_555 1_555
C23 C1 1_555 1_555
H9 C23 1_555 1_555
C24 N2 1_555 1_555
C25 H10 1_555 1_555
H11 C25 1_555 1_555
H12 C25 1_555 1_555
C26 C3 1_555 1_555
C27 C4 1_555 1_555
H13 C27 1_555 1_555
C28 H14 1_555 1_555
C29 C4 1_555 1_555
H15 C29 1_555 1_555
C30 C6 1_555 1_555
H16 C30 1_555 1_555
C31 C12 1_555 1_555
H17 C31 1_555 1_555
C32 C14 1_555 1_555
H18 C32 1_555 1_555
C33 C36 1_555 1_555
C34 N3 1_555 1_555
C35 H19 1_555 1_555
C36 C29 1_555 1_555
H20 C36 1_555 1_555
C37 C35 1_555 1_555
C38 C33 1_555 1_555
C39 C18 1_555 1_555
C40 C27 1_555 1_555
H21 C40 1_555 1_555
C41 H22 1_555 1_555
C42 C41 1_555 1_555
H23 C42 1_555 1_555
C43 C37 1_555 1_555
C44 C39 1_555 1_555
B1 O1 1_555 1_555
C45 C5 1_555 1_555
H24 C45 1_555 1_555
C46 C16 1_555 1_555
C47 C35 1_555 1_555
H25 C47 1_555 1_555
C48 C47 1_555 1_555
H26 C48 1_555 1_555
C49 C37 1_555 1_555
H27 C49 1_555 1_555
C50 C44 1_555 1_555
H28 C50 1_555 1_555
C51 C41 1_555 1_555
H29 C51 1_555 1_555
C52 C48 1_555 1_555
H30 C52 1_555 1_555
C53 C50 1_555 1_555
H31 C53 1_555 1_555
C54 C46 1_555 1_555
H32 C54 1_555 1_555
C55 C53 1_555 1_555
H33 C55 1_555 1_555
C56 C44 1_555 1_555
H34 C56 1_555 1_555
C57 C51 1_555 1_555
H35 C57 1_555 1_555
C58 C55 1_555 1_555
H36 C58 1_555 1_555
N1 B1 1_555 1_555
N2 B1 1_555 1_555
N3 B1 1_555 1_555
C2 C19 1_555 1_555
C2 C34 1_555 1_555
C8 C17 1_555 1_555
C10 C19 1_555 1_555
C10 C21 1_555 1_555
C11 C23 1_555 1_555
C13 C31 1_555 1_555
C15 C26 1_555 1_555
C24 C45 1_555 1_555
C26 C30 1_555 1_555
C28 C32 1_555 1_555
C28 C34 1_555 1_555
C33 C40 1_555 1_555
C38 C43 1_555 1_555
C42 C46 1_555 1_555
C49 C52 1_555 1_555
C54 C57 1_555 1_555
C56 C58 1_555 1_555

#END
