
#######################################################################
#
#                 Cambridge Crystallographic Data Centre
#                                CCDC 
#
#######################################################################
#
# If this CIF has been generated from an entry in the Cambridge 
# Structural Database, then it will include bibliographic, chemical, 
# crystal, experimental, refinement or atomic coordinate data resulting 
# from the CCDC's data processing and validation procedures.
#
#######################################################################

data_EFEPEM
_chemical_compound_source        'Jatropha curcas, roots'
_chemical_name_common            'Curcusecon B'
_chemical_formula_moiety         'C20 H24 O3'
_chemical_name_systematic        
3,6-dimethyl-11-methylene-8-(prop-1-en-2-yl)-2,3,7a,8,9,10,11,11a-octahydrobenzo[d]cyclopenta[b]oxocine-1,5-dione
_chemical_properties_biological  
'Very weak cytotoxity against five human cancer cells'
_symmetry_cell_setting           monoclinic
_symmetry_space_group_name_H-M   'P 21'
_symmetry_Int_Tables_number      4
_space_group_name_Hall           'P 2yb'
loop_
_symmetry_equiv_pos_site_id
_symmetry_equiv_pos_as_xyz
1 x,y,z
2 -x,1/2+y,-z
_cell_length_a                   6.2583(10)
_cell_length_b                   8.1583(13)
_cell_length_c                   17.088(3)
_cell_angle_alpha                90
_cell_angle_beta                 94.533(2)
_cell_angle_gamma                90
_cell_volume                     869.734
_exptl_crystal_colour            colorless
_exptl_crystal_description       prism
_cell_formula_units_Z            2
loop_
_atom_site_label
_atom_site_type_symbol
_atom_site_fract_x
_atom_site_fract_y
_atom_site_fract_z
C1 C 0.8979(3) 1.0145(3) 0.46086(9)
H1 H 0.9450 0.9938 0.5142
H2 H 0.9685 1.0946 0.4319
C2 C 0.8812(3) 0.3199(2) 0.10598(12)
H3 H 1.0152 0.3804 0.1178
H4 H 0.8937 0.2512 0.0595
H5 H 0.8533 0.2504 0.1508
O1 O 0.61424(16) 0.45891(12) 0.22714(5)
O2 O 0.7094(2) 0.36204(14) 0.34496(7)
C3 C 0.8989(2) 0.73183(17) 0.30226(7)
H6 H 1.0182 0.8035 0.3104
C4 C 0.6158(3) 0.8034(2) 0.47016(9)
H7 H 0.6808 0.7943 0.5241
H8 H 0.6253 0.6976 0.4435
H9 H 0.4649 0.8351 0.4711
C5 C 0.4302(2) 1.02833(18) 0.33061(8)
H10 H 0.4212 1.1319 0.3604
H11 H 0.3314 0.9484 0.3522
C6 C 0.3596(2) 1.05998(18) 0.24344(9)
H12 H 0.2061 1.0906 0.2383
H13 H 0.4426 1.1530 0.2243
C7 C 0.2365(2) 0.84322(19) 0.14783(8)
H14 H 0.0961 0.8883 0.1454
H15 H 0.2648 0.7494 0.1174
O3 O 0.72963(17) 0.86899(14) 0.03760(6)
C8 C 1.1536(2) 0.4915(2) 0.31234(9)
H16 H 1.1913 0.4451 0.2623
H17 H 1.1501 0.4039 0.3515
H18 H 1.2608 0.5734 0.3305
C9 C 0.7329(3) 0.93136(18) 0.42685(8)
C10 C 0.6595(2) 0.96214(17) 0.34137(7)
H19 H 0.7563 1.0470 0.3211
C11 C 0.6788(2) 0.80662(16) 0.29138(7)
H20 H 0.5733 0.7243 0.3083
C12 C 0.6210(2) 0.84626(16) 0.20341(7)
H21 H 0.7171 0.9377 0.1893
C13 C 0.6598(2) 0.70664(17) 0.14966(7)
C14 C 0.6597(2) 0.54396(17) 0.16044(7)
C15 C 0.6972(3) 0.4406(2) 0.09016(8)
H22 H 0.5633 0.3783 0.0740
C16 C 0.7510(2) 0.45676(18) 0.29516(8)
C17 C 0.9365(2) 0.57128(17) 0.30117(7)
C18 C 0.3929(2) 0.91139(17) 0.19370(7)
C19 C 0.7098(2) 0.73516(19) 0.06754(7)
C20 C 0.7336(3) 0.5698(2) 0.02765(8)
H23 H 0.8786 0.5585 0.0090
H24 H 0.6262 0.5582 -0.0177
loop_
_geom_bond_atom_site_label_1
_geom_bond_atom_site_label_2
_geom_bond_site_symmetry_1
_geom_bond_site_symmetry_2
C1 H1 1_555 1_555
H2 C1 1_555 1_555
C2 H3 1_555 1_555
H4 C2 1_555 1_555
H5 C2 1_555 1_555
O1 C14 1_555 1_555
O2 C16 1_555 1_555
C3 H6 1_555 1_555
C4 H7 1_555 1_555
H8 C4 1_555 1_555
H9 C4 1_555 1_555
C5 H10 1_555 1_555
H11 C5 1_555 1_555
C6 C5 1_555 1_555
H12 C6 1_555 1_555
H13 C6 1_555 1_555
C7 H14 1_555 1_555
H15 C7 1_555 1_555
O3 C19 1_555 1_555
C8 H16 1_555 1_555
H17 C8 1_555 1_555
H18 C8 1_555 1_555
C9 C1 1_555 1_555
C10 C5 1_555 1_555
H19 C10 1_555 1_555
C11 C3 1_555 1_555
H20 C11 1_555 1_555
C12 C11 1_555 1_555
H21 C12 1_555 1_555
C13 C12 1_555 1_555
C14 C13 1_555 1_555
C15 C2 1_555 1_555
H22 C15 1_555 1_555
C16 O1 1_555 1_555
C17 C3 1_555 1_555
C18 C6 1_555 1_555
C19 C13 1_555 1_555
C20 C15 1_555 1_555
H23 C20 1_555 1_555
H24 C20 1_555 1_555
C4 C9 1_555 1_555
C7 C18 1_555 1_555
C8 C17 1_555 1_555
C9 C10 1_555 1_555
C10 C11 1_555 1_555
C12 C18 1_555 1_555
C14 C15 1_555 1_555
C16 C17 1_555 1_555
C19 C20 1_555 1_555

#END
