
#######################################################################
#
#                 Cambridge Crystallographic Data Centre
#                                CCDC 
#
#######################################################################
#
# If this CIF has been generated from an entry in the Cambridge 
# Structural Database, then it will include bibliographic, chemical, 
# crystal, experimental, refinement or atomic coordinate data resulting 
# from the CCDC's data processing and validation procedures.
#
#######################################################################

data_EFEPAI
_chemical_compound_source        'Inula wissmanniana, whole plant'
_chemical_name_common            11,13-dehydroisohyposantonin
_chemical_formula_moiety         'C15 H16 O2'
_chemical_name_systematic        
6,9-dimethyl-3-methylene-3a,4,5,9b-tetrahydronaphtho[1,2-b]furan-2(3H)-one
_chemical_properties_biological  
'Exhibited strong inhibition against lipopolysaccharide-induced nitric oxide production in RAW264.7 macrophages and weak cytotoxicity in HepG2, PC-3, and MGC-803 tumor cells'
_symmetry_cell_setting           orthorhombic
_symmetry_space_group_name_H-M   'P 21 21 21'
_symmetry_Int_Tables_number      19
_space_group_name_Hall           'P 2ac 2ab'
loop_
_symmetry_equiv_pos_site_id
_symmetry_equiv_pos_as_xyz
1 x,y,z
2 1/2+x,1/2-y,-z
3 -x,1/2+y,1/2-z
4 1/2-x,-y,1/2+z
_cell_length_a                   5.9667(2)
_cell_length_b                   7.4596(2)
_cell_length_c                   27.2161(7)
_cell_angle_alpha                90
_cell_angle_beta                 90
_cell_angle_gamma                90
_cell_volume                     1211.37
_exptl_crystal_colour            colorless
_exptl_crystal_description       plate
_cell_formula_units_Z            4
loop_
_atom_site_label
_atom_site_type_symbol
_atom_site_fract_x
_atom_site_fract_y
_atom_site_fract_z
O1 O 1.11384(19) -0.07622(14) 0.21734(4)
O2 O 0.99647(17) 0.15857(13) 0.17362(3)
C1 C 0.6388(3) 0.45090(18) 0.04021(5)
C2 C 0.7983(3) 0.58563(19) 0.03811(5)
H1 H 0.8014 0.6635 0.0105
C3 C 0.9531(3) 0.60905(19) 0.07536(5)
H2 H 1.0619 0.7015 0.0727
C4 C 0.9523(3) 0.49982(17) 0.11661(5)
C5 C 0.7933(3) 0.36168(18) 0.11908(4)
C6 C 0.7791(2) 0.24954(18) 0.16530(5)
H3 H 0.7506 0.3318 0.1936
C7 C 0.6056(3) 0.09971(19) 0.16694(5)
H4 H 0.4648 0.1427 0.1830
C8 C 0.5556(3) 0.02894(18) 0.11530(4)
H5 H 0.6927 -0.0254 0.1012
H6 H 0.4388 -0.0650 0.1171
C9 C 0.4760(3) 0.17999(18) 0.08250(4)
H7 H 0.4539 0.1334 0.0488
H8 H 0.3295 0.2239 0.0946
C10 C 0.6389(3) 0.33422(17) 0.08088(4)
C11 C 0.7201(3) -0.03769(19) 0.19871(4)
C12 C 0.9591(3) 0.00464(17) 0.19884(4)
C13 C 0.6369(3) -0.1789(2) 0.22175(5)
H9 H 0.7336 -0.2573 0.2393
H10 H 0.4803 -0.2019 0.2208
C14 C 0.4729(3) 0.4273(2) -0.00093(4)
H11 H 0.4946 0.5223 -0.0253
H12 H 0.3203 0.4341 0.0122
H13 H 0.4958 0.3103 -0.0165
C15 C 1.1211(3) 0.5344(2) 0.15693(5)
H14 H 1.2360 0.4406 0.1564
H15 H 1.0449 0.5337 0.1888
H16 H 1.1917 0.6515 0.1517
loop_
_geom_bond_atom_site_label_1
_geom_bond_atom_site_label_2
_geom_bond_site_symmetry_1
_geom_bond_site_symmetry_2
O1 C12 1_555 1_555
O2 C6 1_555 1_555
C1 C2 1_555 1_555
C2 H1 1_555 1_555
C3 C2 1_555 1_555
H2 C3 1_555 1_555
C4 C3 1_555 1_555
C5 C4 1_555 1_555
C6 C5 1_555 1_555
H3 C6 1_555 1_555
C7 C6 1_555 1_555
H4 C7 1_555 1_555
C8 C7 1_555 1_555
H5 C8 1_555 1_555
H6 C8 1_555 1_555
C9 C8 1_555 1_555
H7 C9 1_555 1_555
H8 C9 1_555 1_555
C10 C1 1_555 1_555
C11 C7 1_555 1_555
C12 O2 1_555 1_555
C13 C11 1_555 1_555
H9 C13 1_555 1_555
H10 C13 1_555 1_555
C14 C1 1_555 1_555
H11 C14 1_555 1_555
H12 C14 1_555 1_555
H13 C14 1_555 1_555
C15 C4 1_555 1_555
H14 C15 1_555 1_555
H15 C15 1_555 1_555
H16 C15 1_555 1_555
C5 C10 1_555 1_555
C9 C10 1_555 1_555
C11 C12 1_555 1_555

#END
