
#######################################################################
#
#                 Cambridge Crystallographic Data Centre
#                                CCDC 
#
#######################################################################
#
# If this CIF has been generated from an entry in the Cambridge 
# Structural Database, then it will include bibliographic, chemical, 
# crystal, experimental, refinement or atomic coordinate data resulting 
# from the CCDC's data processing and validation procedures.
#
#######################################################################

data_EFEQAJ
_chemical_compound_source        'Inula wissmanniana, whole plant'
_chemical_name_common            
(2R,4E,6R,7S,9S,10R)-2-acetoxy-9-angeloyloxygermacra-4,11(13)-dien-12,6-olide
_chemical_formula_moiety         'C22 H30 O6'
_chemical_name_systematic        
'8-acetoxy-6,10-dimethyl-3-methylene-2-oxo-2,3,3a,4,5,6,7,8,9,11a-decahydrocyclodeca[b]furan-5-yl 2-methylbut-2-enoate'
_chemical_properties_biological  
'Exhibited moderate inhibition against lipopolysaccharide-induced nitric oxide production in RAW264.7  macrophages (IC50 value 4.90  M) and strong cytotoxicity in HepG2, PC-3, and MGC-803 tumor cells'
_symmetry_cell_setting           orthorhombic
_symmetry_space_group_name_H-M   'P 21 21 21'
_symmetry_Int_Tables_number      19
_space_group_name_Hall           'P 2ac 2ab'
loop_
_symmetry_equiv_pos_site_id
_symmetry_equiv_pos_as_xyz
1 x,y,z
2 1/2+x,1/2-y,-z
3 -x,1/2+y,1/2-z
4 1/2-x,-y,1/2+z
_cell_length_a                   6.7751(3)
_cell_length_b                   8.9058(4)
_cell_length_c                   35.0890(14)
_cell_angle_alpha                90
_cell_angle_beta                 90
_cell_angle_gamma                90
_cell_volume                     2117.19
_exptl_crystal_colour            colorless
_exptl_crystal_description       block
_cell_formula_units_Z            4
loop_
_atom_site_label
_atom_site_type_symbol
_atom_site_fract_x
_atom_site_fract_y
_atom_site_fract_z
O1 O 0.10803(17) 0.44099(13) 0.94652(3)
O2 O 0.42929(16) 0.42817(12) 0.96248(3)
O3 O 1.38253(18) 1.01396(14) 0.86595(4)
O4 O 1.14049(16) 0.93782(13) 0.90481(3)
O5 O 0.67771(18) 0.55817(17) 0.77000(3)
O6 O 0.51431(15) 0.55688(12) 0.82575(3)
C1 C 0.4785(2) 0.58532(16) 0.90536(4)
H1 H 0.4755 0.6919 0.8973
H2 H 0.3591 0.5368 0.8947
C2 C 0.4618(2) 0.58121(16) 0.94902(4)
H3 H 0.3459 0.6438 0.9567
C3 C 0.6442(2) 0.63722(18) 0.97098(4)
H4 H 0.6085 0.6569 0.9979
H5 H 0.7485 0.5594 0.9706
C4 C 0.7201(2) 0.77944(17) 0.95280(4)
C5 C 0.8894(2) 0.77354(17) 0.93348(4)
H6 H 0.971(3) 0.685(2) 0.9354(5)
C6 C 0.9436(2) 0.87157(17) 0.90070(4)
H7 H 0.8429 0.9527 0.8975
C7 C 0.9572(2) 0.77695(17) 0.86389(4)
H8 H 1.0181 0.6785 0.8709
C8 C 0.7578(2) 0.74301(17) 0.84485(4)
H9 H 0.6541 0.8041 0.8573
H10 H 0.7644 0.7737 0.8178
C9 C 0.6987(2) 0.57708(17) 0.84692(4)
H11 H 0.8040 0.5160 0.8343
C10 C 0.6600(2) 0.51133(16) 0.88670(4)
H12 H 0.7770 0.5360 0.9029
C11 C 1.1089(2) 0.86392(17) 0.84164(4)
C12 C 1.2280(2) 0.94777(18) 0.87009(4)
C13 C 1.1449(3) 0.8678(2) 0.80463(5)
H13 H 1.2513 0.9262 0.7951
H14 H 1.0643 0.8121 0.7876
C14 C 0.6439(3) 0.33958(18) 0.88497(5)
H15 H 0.6187 0.3002 0.9106
H16 H 0.7676 0.2976 0.8752
H17 H 0.5351 0.3113 0.8680
C15 C 0.5867(2) 0.91441(17) 0.95527(4)
H18 H 0.6498 1.0000 0.9426
H19 H 0.5627 0.9390 0.9821
H20 H 0.4610 0.8920 0.9427
C16 C 0.2467(2) 0.37131(18) 0.95853(4)
C17 C 0.2398(3) 0.21064(19) 0.97085(5)
H21 H 0.1054 0.1719 0.9677
H22 H 0.2783 0.2033 0.9977
H23 H 0.3311 0.1515 0.9553
C18 C 0.5260(3) 0.54712(19) 0.78751(4)
C19 C 0.3273(3) 0.5234(3) 0.77029(6)
C20 C 0.2549(7) 0.5622(6) 0.73987(13)
H24 H 0.1333 0.5308 0.7334
C21 C 0.3665(9) 0.6592(7) 0.71376(16)
H25 H 0.2874 0.6787 0.6909
H26 H 0.4897 0.6091 0.7065
H27 H 0.3969 0.7544 0.7265
C22 C 0.1855(7) 0.4071(8) 0.79831(17)
H28 H 0.2603 0.3784 0.8211
H29 H 0.1505 0.3167 0.7839
H30 H 0.0648 0.4598 0.8059
C23? C 0.1859(8) 0.4563(6) 0.78053(15)
H31? H 0.0674 0.4653 0.7662
C24? C 0.1868(8) 0.3563(7) 0.81566(16)
H32? H 0.0547 0.3140 0.8195
H33? H 0.2241 0.4158 0.8380
H34? H 0.2820 0.2747 0.8121
C25? C 0.3248(9) 0.6224(7) 0.73017(17)
H35? H 0.4518 0.6735 0.7270
H36? H 0.2187 0.6971 0.7313
H37? H 0.3023 0.5550 0.7085
loop_
_geom_bond_atom_site_label_1
_geom_bond_atom_site_label_2
_geom_bond_site_symmetry_1
_geom_bond_site_symmetry_2
O1 C16 1_555 1_555
O2 C2 1_555 1_555
O3 C12 1_555 1_555
O4 C6 1_555 1_555
O5 C18 1_555 1_555
O6 C9 1_555 1_555
C1 H1 1_555 1_555
H2 C1 1_555 1_555
C2 C1 1_555 1_555
H3 C2 1_555 1_555
C3 C2 1_555 1_555
H4 C3 1_555 1_555
H5 C3 1_555 1_555
C4 C3 1_555 1_555
C5 C4 1_555 1_555
H6 C5 1_555 1_555
C6 C5 1_555 1_555
H7 C6 1_555 1_555
C7 C6 1_555 1_555
H8 C7 1_555 1_555
C8 C7 1_555 1_555
H9 C8 1_555 1_555
H10 C8 1_555 1_555
C9 C8 1_555 1_555
H11 C9 1_555 1_555
C10 C1 1_555 1_555
H12 C10 1_555 1_555
C11 C7 1_555 1_555
C12 O4 1_555 1_555
C13 C11 1_555 1_555
H13 C13 1_555 1_555
H14 C13 1_555 1_555
C14 C10 1_555 1_555
H15 C14 1_555 1_555
H16 C14 1_555 1_555
H17 C14 1_555 1_555
C15 C4 1_555 1_555
H18 C15 1_555 1_555
H19 C15 1_555 1_555
H20 C15 1_555 1_555
C16 O2 1_555 1_555
C17 C16 1_555 1_555
H21 C17 1_555 1_555
H22 C17 1_555 1_555
H23 C17 1_555 1_555
C18 O6 1_555 1_555
C19 C18 1_555 1_555
C20 C19 1_555 1_555
H24 C20 1_555 1_555
C21 C20 1_555 1_555
H25 C21 1_555 1_555
H26 C21 1_555 1_555
H27 C21 1_555 1_555
C22 C19 1_555 1_555
H28 C22 1_555 1_555
H29 C22 1_555 1_555
H30 C22 1_555 1_555
C9 C10 1_555 1_555
C11 C12 1_555 1_555

#END
