
#######################################################################
#
#                 Cambridge Crystallographic Data Centre
#                                CCDC 
#
#######################################################################
#
# If this CIF has been generated from an entry in the Cambridge 
# Structural Database, then it will include bibliographic, chemical, 
# crystal, experimental, refinement or atomic coordinate data resulting 
# from the CCDC's data processing and validation procedures.
#
#######################################################################

data_EFERAJ
_chemical_formula_moiety         'C38 H45 N5 O4,C1 H2 Cl2'
_chemical_name_systematic        
'5,10,10,15,20,20-Hexamethyl-5,15-((pyrrole-2,5-diyl)-bis(carbonyloxypropyl))calix(4)pyrrole dichloromethane solvate'
_symmetry_cell_setting           monoclinic
_symmetry_space_group_name_H-M   'P c'
_symmetry_Int_Tables_number      7
_space_group_name_Hall           'P -2yc'
loop_
_symmetry_equiv_pos_site_id
_symmetry_equiv_pos_as_xyz
1 x,y,z
2 x,-y,1/2+z
_cell_length_a                   17.7440(4)
_cell_length_b                   10.2674(2)
_cell_length_c                   20.2254(7)
_cell_angle_alpha                90
_cell_angle_beta                 102.404(1)
_cell_angle_gamma                90
_cell_volume                     3598.75
_exptl_crystal_colour            colorless
_exptl_crystal_description       prisms
_cell_formula_units_Z            4
_exptl_crystal_recrystallization_method dichloromethane
loop_
_atom_site_label
_atom_site_type_symbol
_atom_site_fract_x
_atom_site_fract_y
_atom_site_fract_z
O5 O 0.50702(10) 0.4275(2) 0.35382(11)
O6 O 0.62996(11) 0.5014(2) 0.38273(11)
O7 O 0.57005(12) 0.0221(2) 0.13610(12)
O8 O 0.46506(10) 0.08174(19) 0.17475(10)
N6 N 0.20370(12) -0.09239(19) 0.28880(10)
H46 H 0.1558 -0.0650 0.2754
N7 N 0.24431(12) 0.1691(2) 0.38486(11)
H47 H 0.2772 0.1423 0.3608
N8 N 0.19209(12) 0.37705(19) 0.24859(10)
H48 H 0.1473 0.3850 0.2602
N9 N 0.18215(12) 0.09466(19) 0.15772(10)
H49 H 0.2242 0.1220 0.1857
N10 N 0.54479(13) 0.2588(2) 0.26027(13)
H50 H 0.4970 0.2487 0.2651
C39 C 0.24997(15) -0.1341(2) 0.24652(13)
C40 C 0.31880(16) -0.1703(3) 0.28654(13)
H51 H 0.3619 -0.2046 0.2714
C41 C 0.31461(16) -0.1475(3) 0.35498(13)
H52 H 0.3548 -0.1630 0.3935
C42 C 0.24378(15) -0.0999(2) 0.35588(13)
C43 C 0.20794(15) -0.0583(3) 0.41373(12)
C44 C 0.19981(15) 0.0879(2) 0.41535(13)
C45 C 0.15705(16) 0.1671(3) 0.44793(13)
H53 H 0.1210 0.1390 0.4735
C46 C 0.17609(16) 0.2981(3) 0.43685(13)
H54 H 0.1551 0.3730 0.4538
C47 C 0.23001(15) 0.2982(3) 0.39739(12)
C48 C 0.26941(14) 0.4072(2) 0.36785(13)
C49 C 0.26255(14) 0.3845(2) 0.29260(13)
C50 C 0.31727(14) 0.3661(3) 0.25508(14)
H55 H 0.3715 0.3653 0.2721
C51 C 0.27952(14) 0.3484(3) 0.18673(13)
H56 H 0.3037 0.3343 0.1498
C52 C 0.20159(14) 0.3553(2) 0.18338(12)
C53 C 0.13529(14) 0.3223(2) 0.12495(12)
C54 C 0.12593(14) 0.1755(2) 0.12171(12)
C55 C 0.06969(14) 0.0961(2) 0.08514(12)
H57 H 0.0234 0.1240 0.0557
C56 C 0.09335(14) -0.0355(2) 0.09936(12)
H58 H 0.0654 -0.1109 0.0811
C57 C 0.16390(15) -0.0344(2) 0.14420(12)
C58 C 0.22066(15) -0.1418(2) 0.17003(13)
C59 C 0.26160(19) -0.1021(3) 0.48095(14)
H59 H 0.3109 -0.0556 0.4871
H60 H 0.2708 -0.1960 0.4795
H61 H 0.2371 -0.0822 0.5188
C60 C 0.12807(17) -0.1245(3) 0.40835(14)
H62 H 0.1061 -0.0977 0.4467
H63 H 0.1344 -0.2194 0.4089
H64 H 0.0933 -0.0982 0.3660
C61 C 0.05993(14) 0.3872(2) 0.13265(13)
H65 H 0.0196 0.3696 0.0923
H66 H 0.0678 0.4814 0.1379
H67 H 0.0442 0.3520 0.1727
C62 C 0.15469(16) 0.3708(3) 0.05815(13)
H68 H 0.2024 0.3293 0.0519
H69 H 0.1616 0.4655 0.0601
H70 H 0.1124 0.3483 0.0201
C63 C 0.23043(15) 0.5374(3) 0.37954(14)
H71 H 0.2536 0.6085 0.3584
H72 H 0.2378 0.5537 0.4283
H73 H 0.1751 0.5326 0.3594
C64 C 0.18093(18) -0.2753(3) 0.15202(15)
H74 H 0.1359 -0.2820 0.1727
H75 H 0.2174 -0.3453 0.1692
H76 H 0.1643 -0.2830 0.1027
C65 C 0.35615(15) 0.4119(3) 0.40298(14)
H77 H 0.3605 0.4070 0.4525
H78 H 0.3818 0.3338 0.3893
C66 C 0.39959(15) 0.5323(3) 0.38743(15)
H79 H 0.3818 0.5541 0.3389
H80 H 0.3861 0.6064 0.4140
C67 C 0.48605(16) 0.5176(3) 0.40272(16)
H81 H 0.5106 0.6033 0.3997
H82 H 0.5043 0.4835 0.4492
C68 C 0.58171(15) 0.4320(3) 0.34869(15)
C69 C 0.59765(15) 0.3437(3) 0.29646(15)
C70 C 0.66456(15) 0.3345(3) 0.27286(15)
H83 H 0.7105 0.3831 0.2884
C71 C 0.65229(16) 0.2406(3) 0.22192(15)
H84 H 0.6884 0.2140 0.1961
C72 C 0.57792(16) 0.1930(3) 0.21576(15)
C73 C 0.53901(16) 0.0907(3) 0.17131(16)
C74 C 0.42080(16) -0.0278(3) 0.13962(15)
H85 H 0.4435 -0.1118 0.1581
H86 H 0.4200 -0.0249 0.0906
C75 C 0.34041(14) -0.0119(2) 0.15201(12)
H87 H 0.3146 0.0610 0.1240
H88 H 0.3441 0.0114 0.2001
C76 C 0.29075(16) -0.1342(3) 0.13571(14)
H89 H 0.3238 -0.2114 0.1496
H90 H 0.2715 -0.1391 0.0861
O1 O 0.58551(10) 0.3041(2) 0.03714(10)
O2 O 0.46372(12) 0.2269(2) 0.00860(11)
O3 O 0.52240(13) 0.7157(2) 0.25049(13)
O4 O 0.62967(11) 0.65263(19) 0.21461(11)
N1 N 0.90370(12) 0.39089(19) 0.23392(11)
H1 H 0.8601 0.3654 0.2076
N2 N 0.89657(13) 0.1344(2) 0.13777(11)
H2 H 0.9381 0.1647 0.1258
N3 N 0.85746(12) 0.3271(2) 0.00677(11)
H3 H 0.8279 0.3544 0.0337
N4 N 0.89064(12) 0.59983(19) 0.10056(10)
H4 H 0.9413 0.5996 0.1133
N5 N 0.54669(13) 0.4793(2) 0.12521(12)
H5 H 0.5966 0.4756 0.1271
C1 C 0.92464(14) 0.5196(2) 0.24686(12)
C2 C 0.99643(15) 0.5161(2) 0.29020(12)
H6 H 1.0266 0.5895 0.3081
C3 C 1.01712(16) 0.3844(3) 0.30318(13)
H7 H 1.0633 0.3540 0.3319
C4 C 0.95961(15) 0.3083(2) 0.26744(12)
C5 C 0.95055(16) 0.1607(2) 0.26347(13)
C6 C 0.88852(15) 0.1214(2) 0.20366(13)
C7 C 0.81594(15) 0.0756(3) 0.20111(14)
H8 H 0.7933 0.0592 0.2388
C8 C 0.77996(16) 0.0564(3) 0.13135(15)
H9 H 0.7294 0.0236 0.1147
C9 C 0.83076(15) 0.0934(2) 0.09288(14)
C10 C 0.82268(16) 0.0899(3) 0.01702(14)
C11 C 0.86728(15) 0.1987(2) -0.00810(12)
C12 C 0.91846(16) 0.1981(3) -0.05087(13)
H10 H 0.9368 0.1233 -0.0701
C13 C 0.93864(15) 0.3293(3) -0.06081(12)
H11 H 0.9735 0.3577 -0.0875
C14 C 0.89932(14) 0.4075(2) -0.02546(12)
C15 C 0.89000(14) 0.5548(3) -0.02288(12)
C16 C 0.85062(14) 0.5873(2) 0.03473(12)
C17 C 0.77415(15) 0.5907(3) 0.03593(13)
H12 H 0.7324 0.5842 -0.0022
C18 C 0.76819(15) 0.6058(3) 0.10460(13)
H13 H 0.7216 0.6104 0.1204
C19 C 0.84120(15) 0.6127(2) 0.14384(12)
C20 C 0.87136(15) 0.6306(2) 0.21886(13)
C21 C 1.02821(16) 0.0977(3) 0.25932(14)
H14 H 1.0228 0.0027 0.2585
H15 H 1.0677 0.1235 0.2989
H16 H 1.0435 0.1269 0.2180
C22 C 0.9282(2) 0.1128(3) 0.32917(15)
H17 H 0.8791 0.1522 0.3330
H18 H 0.9685 0.1380 0.3683
H19 H 0.9231 0.0177 0.3279
C23 C 0.96835(16) 0.6228(3) -0.01500(14)
H20 H 0.9611 0.7174 -0.0143
H21 H 0.9917 0.5994 -0.0531
H22 H 1.0024 0.5951 0.0275
C24 C 0.83724(17) 0.5990(3) -0.08987(13)
H23 H 0.7885 0.5509 -0.0971
H24 H 0.8628 0.5817 -0.1274
H25 H 0.8270 0.6925 -0.0877
C25 C 0.8530(2) -0.0427(3) -0.00214(18)
H26 H 0.9070 -0.0534 0.0215
H27 H 0.8494 -0.0459 -0.0511
H28 H 0.8219 -0.1129 0.0111
C26 C 0.91744(16) 0.7594(2) 0.23210(14)
H29 H 0.9643 0.7526 0.2140
H30 H 0.9317 0.7758 0.2809
H31 H 0.8855 0.8314 0.2098
C27 C 0.73578(16) 0.1011(3) -0.01764(15)
H32 H 0.7310 0.0987 -0.0673
H33 H 0.7086 0.0238 -0.0051
C28 C 0.69489(15) 0.2234(3) 0.00004(14)
H34 H 0.7205 0.2534 0.0459
H35 H 0.6997 0.2935 -0.0324
C29 C 0.61074(16) 0.1993(3) -0.00190(16)
H36 H 0.5807 0.2004 -0.0492
H37 H 0.6036 0.1136 0.0184
C30 C 0.51017(15) 0.3020(3) 0.03988(15)
C31 C 0.49204(15) 0.4052(3) 0.08345(15)
C32 C 0.42100(16) 0.4420(3) 0.09426(16)
H38 H 0.3724 0.4081 0.0718
C33 C 0.43351(17) 0.5381(3) 0.14430(17)
H39 H 0.3948 0.5811 0.1620
C34 C 0.51186(16) 0.5596(3) 0.16350(16)
C35 C 0.55341(17) 0.6502(3) 0.21391(17)
C36 C 0.67623(17) 0.7400(3) 0.26512(16)
H40 H 0.6834 0.7015 0.3109
H41 H 0.6501 0.8252 0.2652
C37 C 0.75370(16) 0.7573(2) 0.24579(14)
H42 H 0.7824 0.8282 0.2735
H43 H 0.7449 0.7842 0.1977
C38 C 0.80335(15) 0.6333(2) 0.25567(13)
H44 H 0.7694 0.5580 0.2400
H45 H 0.8244 0.6216 0.3047
loop_
_geom_bond_atom_site_label_1
_geom_bond_atom_site_label_2
_geom_bond_site_symmetry_1
_geom_bond_site_symmetry_2
O1 C29 1_555 1_555
O2 C30 1_555 1_555
O3 C35 1_555 1_555
O4 C35 1_555 1_555
N1 H1 1_555 1_555
N2 H2 1_555 1_555
N3 H3 1_555 1_555
N4 H4 1_555 1_555
N5 H5 1_555 1_555
C1 N1 1_555 1_555
C2 C1 1_555 1_555
H6 C2 1_555 1_555
C3 C2 1_555 1_555
H7 C3 1_555 1_555
C4 N1 1_555 1_555
C5 C4 1_555 1_555
C6 N2 1_555 1_555
C7 C6 1_555 1_555
H8 C7 1_555 1_555
C8 C7 1_555 1_555
H9 C8 1_555 1_555
C9 N2 1_555 1_555
C10 C9 1_555 1_555
C11 N3 1_555 1_555
C12 C11 1_555 1_555
H10 C12 1_555 1_555
C13 C12 1_555 1_555
H11 C13 1_555 1_555
C14 N3 1_555 1_555
C15 C14 1_555 1_555
C16 N4 1_555 1_555
C17 C16 1_555 1_555
H12 C17 1_555 1_555
C18 C17 1_555 1_555
H13 C18 1_555 1_555
C19 N4 1_555 1_555
C20 C1 1_555 1_555
C21 C5 1_555 1_555
H14 C21 1_555 1_555
H15 C21 1_555 1_555
H16 C21 1_555 1_555
C22 C5 1_555 1_555
H17 C22 1_555 1_555
H18 C22 1_555 1_555
H19 C22 1_555 1_555
C23 C15 1_555 1_555
H20 C23 1_555 1_555
H21 C23 1_555 1_555
H22 C23 1_555 1_555
C24 C15 1_555 1_555
H23 C24 1_555 1_555
H24 C24 1_555 1_555
H25 C24 1_555 1_555
C25 C10 1_555 1_555
H26 C25 1_555 1_555
H27 C25 1_555 1_555
H28 C25 1_555 1_555
C26 C20 1_555 1_555
H29 C26 1_555 1_555
H30 C26 1_555 1_555
H31 C26 1_555 1_555
C27 C10 1_555 1_555
H32 C27 1_555 1_555
H33 C27 1_555 1_555
C28 C27 1_555 1_555
H34 C28 1_555 1_555
H35 C28 1_555 1_555
C29 C28 1_555 1_555
H36 C29 1_555 1_555
H37 C29 1_555 1_555
C30 O1 1_555 1_555
C31 N5 1_555 1_555
C32 C31 1_555 1_555
H38 C32 1_555 1_555
C33 C32 1_555 1_555
H39 C33 1_555 1_555
C34 N5 1_555 1_555
C35 C34 1_555 1_555
C36 O4 1_555 1_555
H40 C36 1_555 1_555
H41 C36 1_555 1_555
C37 C36 1_555 1_555
H42 C37 1_555 1_555
H43 C37 1_555 1_555
C38 C20 1_555 1_555
H44 C38 1_555 1_555
H45 C38 1_555 1_555
O5 C67 1_555 1_555
O6 C68 1_555 1_555
O7 C73 1_555 1_555
O8 C73 1_555 1_555
N6 H46 1_555 1_555
N7 H47 1_555 1_555
N8 H48 1_555 1_555
N9 H49 1_555 1_555
N10 H50 1_555 1_555
C39 N6 1_555 1_555
C40 C39 1_555 1_555
H51 C40 1_555 1_555
C41 C40 1_555 1_555
H52 C41 1_555 1_555
C42 N6 1_555 1_555
C43 C42 1_555 1_555
C44 N7 1_555 1_555
C45 C44 1_555 1_555
H53 C45 1_555 1_555
C46 C45 1_555 1_555
H54 C46 1_555 1_555
C47 N7 1_555 1_555
C48 C47 1_555 1_555
C49 N8 1_555 1_555
C50 C49 1_555 1_555
H55 C50 1_555 1_555
C51 C50 1_555 1_555
H56 C51 1_555 1_555
C52 N8 1_555 1_555
C53 C52 1_555 1_555
C54 N9 1_555 1_555
C55 C54 1_555 1_555
H57 C55 1_555 1_555
C56 C55 1_555 1_555
H58 C56 1_555 1_555
C57 N9 1_555 1_555
C58 C39 1_555 1_555
C59 C43 1_555 1_555
H59 C59 1_555 1_555
H60 C59 1_555 1_555
H61 C59 1_555 1_555
C60 C43 1_555 1_555
H62 C60 1_555 1_555
H63 C60 1_555 1_555
H64 C60 1_555 1_555
C61 C53 1_555 1_555
H65 C61 1_555 1_555
H66 C61 1_555 1_555
H67 C61 1_555 1_555
C62 C53 1_555 1_555
H68 C62 1_555 1_555
H69 C62 1_555 1_555
H70 C62 1_555 1_555
C63 C48 1_555 1_555
H71 C63 1_555 1_555
H72 C63 1_555 1_555
H73 C63 1_555 1_555
C64 C58 1_555 1_555
H74 C64 1_555 1_555
H75 C64 1_555 1_555
H76 C64 1_555 1_555
C65 C48 1_555 1_555
H77 C65 1_555 1_555
H78 C65 1_555 1_555
C66 C65 1_555 1_555
H79 C66 1_555 1_555
H80 C66 1_555 1_555
C67 C66 1_555 1_555
H81 C67 1_555 1_555
H82 C67 1_555 1_555
C68 O5 1_555 1_555
C69 N10 1_555 1_555
C70 C69 1_555 1_555
H83 C70 1_555 1_555
C71 C70 1_555 1_555
H84 C71 1_555 1_555
C72 N10 1_555 1_555
C73 C72 1_555 1_555
C74 O8 1_555 1_555
H85 C74 1_555 1_555
H86 C74 1_555 1_555
C75 C74 1_555 1_555
H87 C75 1_555 1_555
H88 C75 1_555 1_555
C76 C58 1_555 1_555
H89 C76 1_555 1_555
H90 C76 1_555 1_555
C3 C4 1_555 1_555
C5 C6 1_555 1_555
C8 C9 1_555 1_555
C10 C11 1_555 1_555
C13 C14 1_555 1_555
C15 C16 1_555 1_555
C18 C19 1_555 1_555
C19 C20 1_555 1_555
C30 C31 1_555 1_555
C33 C34 1_555 1_555
C37 C38 1_555 1_555
C41 C42 1_555 1_555
C43 C44 1_555 1_555
C46 C47 1_555 1_555
C48 C49 1_555 1_555
C51 C52 1_555 1_555
C53 C54 1_555 1_555
C56 C57 1_555 1_555
C57 C58 1_555 1_555
C68 C69 1_555 1_555
C71 C72 1_555 1_555
C75 C76 1_555 1_555

#END
