
#######################################################################
#
#                 Cambridge Crystallographic Data Centre
#                                CCDC 
#
#######################################################################
#
# If this CIF has been generated from an entry in the Cambridge 
# Structural Database, then it will include bibliographic, chemical, 
# crystal, experimental, refinement or atomic coordinate data resulting 
# from the CCDC's data processing and validation procedures.
#
#######################################################################

data_EFEROY
_chemical_formula_moiety         'C19 H17 N1 O3'
_chemical_name_systematic        
1-benzyl-3-(4-methoxybenzylidene)pyrrolidine-2,5-dione
_symmetry_cell_setting           triclinic
_symmetry_space_group_name_H-M   'P -1'
_symmetry_Int_Tables_number      2
_space_group_name_Hall           '-P 1'
loop_
_symmetry_equiv_pos_site_id
_symmetry_equiv_pos_as_xyz
1 x,y,z
2 -x,-y,-z
_cell_length_a                   6.7822(8)
_cell_length_b                   8.7754(10)
_cell_length_c                   13.8368(15)
_cell_angle_alpha                93.188(2)
_cell_angle_beta                 100.568(2)
_cell_angle_gamma                107.710(2)
_cell_volume                     765.707
_exptl_crystal_colour            colorless
_exptl_crystal_description       block
_cell_formula_units_Z            2
loop_
_atom_site_label
_atom_site_type_symbol
_atom_site_fract_x
_atom_site_fract_y
_atom_site_fract_z
N1 N 0.05382(18) 0.02999(13) 0.20432(8)
O1 O 0.56817(15) 0.54384(12) -0.28079(7)
O2 O 0.32883(17) -0.07235(13) 0.24401(8)
O3 O -0.17892(15) 0.15394(12) 0.12991(8)
C1 C 0.1842(2) 0.13460(17) 0.43445(11)
H1 H 0.2891 0.0889 0.4227
C2 C 0.2261(3) 0.24831(19) 0.51645(12)
H2 H 0.3607 0.2806 0.5603
C3 C 0.0751(3) 0.31389(18) 0.53427(11)
H3 H 0.1050 0.3910 0.5904
C4 C -0.1203(3) 0.26806(18) 0.47078(12)
H4 H -0.2250 0.3135 0.4833
C5 C -0.1647(3) 0.15549(17) 0.38833(11)
H5 H -0.2993 0.1243 0.3445
C6 C -0.0123(2) 0.08883(15) 0.37011(10)
C7 C -0.0618(2) -0.03498(16) 0.28062(10)
H6 H -0.0236 -0.1301 0.3018
H7 H -0.2158 -0.0708 0.2522
C8 C -0.0147(2) 0.12193(15) 0.13557(10)
C9 C 0.1455(2) 0.16925(15) 0.07319(10)
C10 C 0.3108(2) 0.09132(15) 0.10635(10)
H8 H 0.4527 0.1730 0.1278
H9 H 0.3147 0.0138 0.0525
C11 C 0.2408(2) 0.00551(16) 0.19269(10)
C12 C 0.1230(2) 0.26892(15) 0.00576(9)
H10 H 0.0013 0.3018 0.0032
C13 C 0.2523(2) 0.33687(15) -0.06518(9)
C14 C 0.1907(2) 0.44665(16) -0.12297(10)
H11 H 0.0710 0.4755 -0.1134
C15 C 0.2987(2) 0.51473(16) -0.19375(10)
H12 H 0.2535 0.5893 -0.2320
C16 C 0.4744(2) 0.47288(15) -0.20845(10)
C17 C 0.5416(2) 0.36527(15) -0.15077(10)
H13 H 0.6625 0.3378 -0.1601
C18 C 0.4317(2) 0.29804(15) -0.07961(10)
H14 H 0.4786 0.2252 -0.0404
C19 C 0.7476(2) 0.50453(18) -0.30007(11)
H15 H 0.8632 0.5415 -0.2415
H16 H 0.7934 0.5576 -0.3564
H17 H 0.7095 0.3876 -0.3157
loop_
_geom_bond_atom_site_label_1
_geom_bond_atom_site_label_2
_geom_bond_site_symmetry_1
_geom_bond_site_symmetry_2
N1 C7 1_555 1_555
O1 C16 1_555 1_555
O2 C11 1_555 1_555
O3 C8 1_555 1_555
C1 H1 1_555 1_555
C2 C1 1_555 1_555
H2 C2 1_555 1_555
C3 C2 1_555 1_555
H3 C3 1_555 1_555
C4 C3 1_555 1_555
H4 C4 1_555 1_555
C5 C4 1_555 1_555
H5 C5 1_555 1_555
C6 C1 1_555 1_555
C7 C6 1_555 1_555
H6 C7 1_555 1_555
H7 C7 1_555 1_555
C8 N1 1_555 1_555
C9 C8 1_555 1_555
C10 C9 1_555 1_555
H8 C10 1_555 1_555
H9 C10 1_555 1_555
C11 N1 1_555 1_555
C12 C9 1_555 1_555
H10 C12 1_555 1_555
C13 C12 1_555 1_555
C14 C13 1_555 1_555
H11 C14 1_555 1_555
C15 C14 1_555 1_555
H12 C15 1_555 1_555
C16 C15 1_555 1_555
C17 C16 1_555 1_555
H13 C17 1_555 1_555
C18 C13 1_555 1_555
H14 C18 1_555 1_555
C19 O1 1_555 1_555
H15 C19 1_555 1_555
H16 C19 1_555 1_555
H17 C19 1_555 1_555
C5 C6 1_555 1_555
C10 C11 1_555 1_555
C17 C18 1_555 1_555

#END
