
#######################################################################
#
#                 Cambridge Crystallographic Data Centre
#                                CCDC 
#
#######################################################################
#
# If this CIF has been generated from an entry in the Cambridge 
# Structural Database, then it will include bibliographic, chemical, 
# crystal, experimental, refinement or atomic coordinate data resulting 
# from the CCDC's data processing and validation procedures.
#
#######################################################################

data_EFERIS
_chemical_formula_moiety         'C39 H35 Cl2 N3 O2'
_chemical_name_systematic        
1-benzyl-5''-(4-chlorobenzylidene)-1'-(4-chlorophenyl)-1''-methyl-5',6',7',7a'-tetrahydro-1'H,4''H-dispiro[indole-3,3'-pyrrolizine-2',3''-piperidine]-2,4''(1H)-dione
_symmetry_cell_setting           monoclinic
_symmetry_space_group_name_H-M   'P 21/c'
_symmetry_Int_Tables_number      14
_space_group_name_Hall           '-P 2ybc'
loop_
_symmetry_equiv_pos_site_id
_symmetry_equiv_pos_as_xyz
1 x,y,z
2 -x,1/2+y,1/2-z
3 -x,-y,-z
4 x,1/2-y,1/2+z
_cell_length_a                   16.547(5)
_cell_length_b                   14.348(4)
_cell_length_c                   14.913(4)
_cell_angle_alpha                90
_cell_angle_beta                 112.265(6)
_cell_angle_gamma                90
_cell_volume                     3276.61
_exptl_crystal_colour            brown
_exptl_crystal_description       prismatic
_cell_formula_units_Z            4
loop_
_atom_site_label
_atom_site_type_symbol
_atom_site_fract_x
_atom_site_fract_y
_atom_site_fract_z
Cl1 Cl 0.16378(16) 0.32212(14) 1.12996(17)
Cl2 Cl 0.42606(16) 1.19920(15) 1.50012(15)
N1 N 0.3047(4) 0.9092(4) 0.9104(4)
N2 N 0.3230(4) 0.7979(4) 1.0993(4)
N3 N 0.1086(4) 0.8065(4) 0.8213(4)
O1 O 0.2930(3) 0.7531(3) 0.8816(3)
O2 O 0.0671(3) 0.8416(3) 1.0550(3)
C1 C 0.2640(5) 0.8261(6) 0.8995(5)
C2 C 0.1760(4) 0.8400(4) 0.9119(5)
C3 C 0.1766(5) 0.9441(5) 0.9297(4)
C4 C 0.2541(5) 0.9781(5) 0.9306(4)
C5 C 0.2781(5) 1.0710(5) 0.9501(5)
H1 H 0.3317 1.0930 0.9523
C6 C 0.2183(6) 1.1291(5) 0.9662(5)
H2 H 0.2315 1.1921 0.9780
C7 C 0.1404(6) 1.0967(5) 0.9652(5)
H3 H 0.1022 1.1368 0.9784
C8 C 0.1186(5) 1.0035(5) 0.9444(4)
H4 H 0.0645 0.9817 0.9406
C9 C 0.0200(5) 0.8466(5) 0.7892(5)
H5 H 0.0172 0.9071 0.7590
H6 H 0.0004 0.8524 0.8425
C10 C -0.0332(5) 0.7730(5) 0.7152(5)
H7 H -0.0938 0.7739 0.7086
H8 H -0.0306 0.7845 0.6523
C11 C 0.0089(5) 0.6796(5) 0.7558(5)
H9 H 0.0177 0.6423 0.7060
H10 H -0.0267 0.6448 0.7829
C12 C 0.0966(5) 0.7074(5) 0.8348(4)
H11 H 0.1443 0.6710 0.8285
C13 C 0.0985(4) 0.6996(5) 0.9397(4)
H12 H 0.0423 0.7227 0.9382
C14 C 0.1689(4) 0.7723(4) 0.9959(5)
C15 C 0.1438(5) 0.8311(5) 1.0661(5)
C16 C 0.2141(5) 0.8777(5) 1.1476(5)
C17 C 0.3052(5) 0.8409(5) 1.1781(4)
H13 H 0.3459 0.8917 1.2045
H14 H 0.3149 0.7953 1.2292
C18 C 0.2570(4) 0.7265(5) 1.0553(5)
H15 H 0.2508 0.6876 1.1056
H16 H 0.2753 0.6871 1.0136
C19 C 0.4109(4) 0.7597(5) 1.1335(5)
H17 H 0.4524 0.8086 1.1617
H18 H 0.4214 0.7327 1.0801
H19 H 0.4169 0.7127 1.1814
C20 C 0.3961(5) 0.9153(5) 0.9281(5)
H20 H 0.4218 0.8542 0.9474
H21 H 0.4231 0.9570 0.9825
C21 C 0.4195(5) 0.9487(5) 0.8449(5)
C22 C 0.4988(5) 0.9247(5) 0.8426(5)
H22 H 0.5351 0.8848 0.8899
C23 C 0.5263(6) 0.9576(6) 0.7729(6)
H23 H 0.5812 0.9417 0.7741
C24 C 0.4713(6) 1.0155(7) 0.6999(6)
H24 H 0.4893 1.0394 0.6526
C25 C 0.3921(6) 1.0362(7) 0.6993(6)
H25 H 0.3550 1.0734 0.6497
C26 C 0.3631(5) 1.0039(6) 0.7704(6)
H26 H 0.3076 1.0189 0.7681
C27 C 0.1117(5) 0.6032(5) 0.9844(5)
C28 C 0.1379(5) 0.5279(5) 0.9436(5)
H27 H 0.1458 0.5356 0.8855
C29 C 0.1526(5) 0.4415(5) 0.9883(6)
H28 H 0.1695 0.3914 0.9599
C30 C 0.1422(5) 0.4302(5) 1.0729(6)
C31 C 0.1155(5) 0.5021(6) 1.1150(5)
H29 H 0.1079 0.4933 1.1731
C32 C 0.0997(5) 0.5885(5) 1.0699(5)
H30 H 0.0807 0.6374 1.0979
C33 C 0.1912(5) 0.9517(5) 1.1855(5)
H31 H 0.1325 0.9681 1.1598
C34 C 0.2500(5) 1.0110(5) 1.2651(5)
C35 C 0.2423(5) 1.1072(5) 1.2585(5)
H32 H 0.1995 1.1337 1.2043
C36 C 0.2971(6) 1.1654(5) 1.3310(6)
H33 H 0.2920 1.2298 1.3253
C37 C 0.3581(5) 1.1250(5) 1.4104(5)
C38 C 0.3662(5) 1.0325(5) 1.4212(5)
H34 H 0.4075 1.0073 1.4773
C39 C 0.3131(5) 0.9738(5) 1.3487(5)
H35 H 0.3196 0.9096 1.3560
loop_
_geom_bond_atom_site_label_1
_geom_bond_atom_site_label_2
_geom_bond_site_symmetry_1
_geom_bond_site_symmetry_2
Cl1 C30 1_555 1_555
Cl2 C37 1_555 1_555
N1 C1 1_555 1_555
N2 C17 1_555 1_555
N3 C2 1_555 1_555
O1 C1 1_555 1_555
O2 C15 1_555 1_555
C1 C2 1_555 1_555
C2 C3 1_555 1_555
C3 C4 1_555 1_555
C4 N1 1_555 1_555
C5 C4 1_555 1_555
H1 C5 1_555 1_555
C6 C5 1_555 1_555
H2 C6 1_555 1_555
C7 C6 1_555 1_555
H3 C7 1_555 1_555
C8 C3 1_555 1_555
H4 C8 1_555 1_555
C9 N3 1_555 1_555
H5 C9 1_555 1_555
H6 C9 1_555 1_555
C10 C9 1_555 1_555
H7 C10 1_555 1_555
H8 C10 1_555 1_555
C11 C10 1_555 1_555
H9 C11 1_555 1_555
H10 C11 1_555 1_555
C12 N3 1_555 1_555
H11 C12 1_555 1_555
C13 C12 1_555 1_555
H12 C13 1_555 1_555
C14 C2 1_555 1_555
C15 C14 1_555 1_555
C16 C15 1_555 1_555
C17 C16 1_555 1_555
H13 C17 1_555 1_555
H14 C17 1_555 1_555
C18 N2 1_555 1_555
H15 C18 1_555 1_555
H16 C18 1_555 1_555
C19 N2 1_555 1_555
H17 C19 1_555 1_555
H18 C19 1_555 1_555
H19 C19 1_555 1_555
C20 N1 1_555 1_555
H20 C20 1_555 1_555
H21 C20 1_555 1_555
C21 C20 1_555 1_555
C22 C21 1_555 1_555
H22 C22 1_555 1_555
C23 C22 1_555 1_555
H23 C23 1_555 1_555
C24 C23 1_555 1_555
H24 C24 1_555 1_555
C25 C24 1_555 1_555
H25 C25 1_555 1_555
C26 C21 1_555 1_555
H26 C26 1_555 1_555
C27 C13 1_555 1_555
C28 C27 1_555 1_555
H27 C28 1_555 1_555
C29 C28 1_555 1_555
H28 C29 1_555 1_555
C30 C29 1_555 1_555
C31 C30 1_555 1_555
H29 C31 1_555 1_555
C32 C27 1_555 1_555
H30 C32 1_555 1_555
C33 C16 1_555 1_555
H31 C33 1_555 1_555
C34 C33 1_555 1_555
C35 C34 1_555 1_555
H32 C35 1_555 1_555
C36 C35 1_555 1_555
H33 C36 1_555 1_555
C37 C36 1_555 1_555
C38 C37 1_555 1_555
H34 C38 1_555 1_555
C39 C34 1_555 1_555
H35 C39 1_555 1_555
C7 C8 1_555 1_555
C11 C12 1_555 1_555
C13 C14 1_555 1_555
C14 C18 1_555 1_555
C25 C26 1_555 1_555
C31 C32 1_555 1_555
C38 C39 1_555 1_555

#END
