
#######################################################################
#
#                 Cambridge Crystallographic Data Centre
#                                CCDC 
#
#######################################################################
#
# If this CIF has been generated from an entry in the Cambridge 
# Structural Database, then it will include bibliographic, chemical, 
# crystal, experimental, refinement or atomic coordinate data resulting 
# from the CCDC's data processing and validation procedures.
#
#######################################################################

data_EFESAL
_chemical_formula_moiety         'C38 H35 N3 O4'
_chemical_name_systematic        
"ethyl 1,1''-dibenzyl-2,2''-dioxo-1,1'',2,2'',5',6',7',7a'-octahydro-1'H-dispiro[indole-3,2'-pyrrolizine-3',3''-indole]-1'-carboxylate"
_symmetry_cell_setting           monoclinic
_symmetry_space_group_name_H-M   'P 21/c'
_symmetry_Int_Tables_number      14
_space_group_name_Hall           '-P 2ybc'
loop_
_symmetry_equiv_pos_site_id
_symmetry_equiv_pos_as_xyz
1 x,y,z
2 -x,1/2+y,1/2-z
3 -x,-y,-z
4 x,1/2-y,1/2+z
_cell_length_a                   16.6985(9)
_cell_length_b                   20.6132(11)
_cell_length_c                   18.3152(10)
_cell_angle_alpha                90
_cell_angle_beta                 101.2310(10)
_cell_angle_gamma                90
_cell_volume                     6183.54
_exptl_crystal_colour            colorless
_exptl_crystal_description       prismatic
_cell_formula_units_Z            8
loop_
_atom_site_label
_atom_site_type_symbol
_atom_site_fract_x
_atom_site_fract_y
_atom_site_fract_z
N1 N -0.05547(10) 0.68854(8) 0.66635(9)
N2 N 0.16481(9) 0.56696(7) 0.78947(8)
N3 N -0.10975(9) 0.53963(8) 0.71316(8)
O1 O -0.08359(9) 0.60610(7) 0.58240(7)
O2 O 0.08008(8) 0.50566(6) 0.84601(7)
O3 O -0.00372(11) 0.41240(9) 0.58028(9)
O4 O 0.11342(9) 0.42075(8) 0.66081(9)
C1 C -0.04027(11) 0.58294(9) 0.71698(9)
C2 C -0.06133(11) 0.62514(10) 0.64547(10)
C3 C -0.03735(11) 0.69532(9) 0.74404(11)
C4 C -0.02995(14) 0.75210(10) 0.78391(13)
H1 H -0.0348 0.7922 0.7602
C5 C -0.01493(14) 0.74744(11) 0.86076(14)
H2 H -0.0094 0.7850 0.8894
C6 C -0.00807(14) 0.68816(11) 0.89526(12)
H3 H 0.0017 0.6861 0.9470
C7 C -0.01543(12) 0.63107(10) 0.85428(10)
H4 H -0.0109 0.5911 0.8782
C8 C -0.02963(11) 0.63440(9) 0.77737(10)
C9 C 0.03902(11) 0.53774(8) 0.71438(9)
C10 C -0.00114(11) 0.47060(9) 0.69339(10)
H5 H 0.0068 0.4449 0.7392
C11 C -0.09341(12) 0.48262(9) 0.66965(11)
H6 H -0.1078 0.4918 0.6162
C12 C -0.14815(14) 0.42908(12) 0.69098(15)
H7 H -0.1902 0.4172 0.6487
H8 H -0.1163 0.3908 0.7083
C13 C -0.18593(15) 0.45804(12) 0.75324(13)
H9 H -0.2408 0.4736 0.7341
H10 H -0.1877 0.4263 0.7920
C14 C -0.12928(13) 0.51371(10) 0.78254(11)
H11 H -0.1565 0.5458 0.8078
H12 H -0.0807 0.4985 0.8161
C15 C 0.09487(11) 0.53392(8) 0.79176(10)
C16 C 0.16872(11) 0.58431(9) 0.71602(10)
C17 C 0.23293(12) 0.61298(10) 0.69083(12)
H13 H 0.2794 0.6269 0.7237
C18 C 0.22547(13) 0.62022(11) 0.61481(13)
H14 H 0.2676 0.6395 0.5960
C19 C 0.15663(13) 0.59935(11) 0.56641(12)
H15 H 0.1536 0.6036 0.5154
C20 C 0.09155(12) 0.57199(10) 0.59258(10)
H16 H 0.0451 0.5583 0.5595
C21 C 0.09702(11) 0.56548(8) 0.66824(10)
C22 C 0.03453(13) 0.43210(10) 0.63770(11)
C23 C 0.1525(8) 0.3931(9) 0.6017(8)
H17 H 0.1398 0.3473 0.5949
H18 H 0.1335 0.4153 0.5548
C24 C 0.2413(8) 0.4027(8) 0.6270(8)
H19 H 0.2524 0.4479 0.6368
H20 H 0.2695 0.3881 0.5891
H21 H 0.2598 0.3782 0.6717
C25 C -0.07586(14) 0.74245(11) 0.61449(13)
H22 H -0.1149 0.7704 0.6320
H23 H -0.1018 0.7255 0.5663
C26 C -0.00286(14) 0.78213(10) 0.60553(11)
C27 C 0.06961(16) 0.75272(12) 0.59996(15)
H24 H 0.0746 0.7080 0.6055
C28 C 0.13463(19) 0.78814(15) 0.58632(17)
H25 H 0.1833 0.7674 0.5834
C29 C 0.1283(2) 0.85271(18) 0.57720(17)
H26 H 0.1720 0.8764 0.5665
C30 C 0.0574(2) 0.88375(13) 0.58358(15)
H27 H 0.0534 0.9285 0.5777
C31 C -0.00845(17) 0.84861(11) 0.59876(12)
H28 H -0.0560 0.8698 0.6043
C32 C 0.23241(12) 0.57191(10) 0.85237(11)
H29 H 0.2822 0.5596 0.8360
H30 H 0.2238 0.5409 0.8899
C33 C 0.24454(12) 0.63795(10) 0.88767(10)
C34 C 0.19289(14) 0.68925(11) 0.86587(13)
H31 H 0.1477 0.6839 0.8277
C35 C 0.20783(19) 0.74934(13) 0.90074(17)
H32 H 0.1724 0.7838 0.8862
C36 C 0.2746(2) 0.75750(18) 0.95631(18)
H33 H 0.2847 0.7977 0.9794
C37 C 0.3266(2) 0.70674(19) 0.97811(14)
H34 H 0.3722 0.7126 1.0157
C38 C 0.31159(15) 0.64747(14) 0.94482(12)
H35 H 0.3467 0.6131 0.9606
N4 N 0.45187(10) 0.59183(7) 0.68567(9)
N5 N 0.67596(10) 0.70884(8) 0.79772(9)
N6 N 0.39957(9) 0.74123(7) 0.73284(8)
O5 O 0.42239(8) 0.67433(7) 0.60157(7)
O6 O 0.59829(9) 0.76938(7) 0.86280(8)
O7 O 0.51010(12) 0.86812(8) 0.60180(10)
O8 O 0.62294(10) 0.86301(8) 0.68900(10)
C41 C 0.46899(11) 0.69765(8) 0.73577(10)
C42 C 0.44601(11) 0.65522(9) 0.66464(10)
C43 C 0.47086(12) 0.58564(9) 0.76326(11)
C44 C 0.47713(14) 0.52917(10) 0.80422(13)
H41 H 0.4706 0.4889 0.7810
C45 C 0.49335(15) 0.53418(11) 0.88070(14)
H42 H 0.4981 0.4967 0.9095
C46 C 0.50256(15) 0.59381(11) 0.91507(13)
H43 H 0.5132 0.5962 0.9668
C47 C 0.49607(13) 0.65054(10) 0.87324(11)
H44 H 0.5022 0.6907 0.8967
C48 C 0.48051(11) 0.64659(9) 0.79659(10)
C49 C 0.54783(11) 0.74293(8) 0.73119(10)
C50 C 0.50801(12) 0.81089(8) 0.71521(10)
H45 H 0.5168 0.8346 0.7624
C51 C 0.41597(12) 0.79915(9) 0.69133(11)
H46 H 0.4017 0.7911 0.6376
C52 C 0.36061(14) 0.85194(11) 0.71369(14)
H47 H 0.3925 0.8891 0.7349
H48 H 0.3205 0.8661 0.6710
C53 C 0.31931(14) 0.81962(11) 0.77132(13)
H49 H 0.3135 0.8498 0.8106
H50 H 0.2658 0.8032 0.7486
C54 C 0.37687(13) 0.76439(10) 0.80128(12)
H51 H 0.4240 0.7798 0.8366
H52 H 0.3493 0.7310 0.8244
C55 C 0.60805(12) 0.74317(9) 0.80617(11)
C56 C 0.67414(12) 0.69513(9) 0.72235(11)
C57 C 0.73443(13) 0.66682(11) 0.69083(15)
H53 H 0.7818 0.6504 0.7203
C58 C 0.72178(15) 0.66378(12) 0.61404(16)
H54 H 0.7613 0.6448 0.5915
C59 C 0.65204(14) 0.68817(11) 0.57046(14)
H55 H 0.6459 0.6870 0.5189
C60 C 0.59034(12) 0.71462(10) 0.60268(11)
H56 H 0.5427 0.7304 0.5730
C61 C 0.60106(11) 0.71703(8) 0.67943(10)
C62 C 0.54507(14) 0.85024(9) 0.66150(13)
C63 C 0.6666(7) 0.8852(5) 0.6272(6)
H57 H 0.6584 0.8546 0.5861
H58 H 0.6479 0.9278 0.6086
C64 C 0.7555(6) 0.8871(5) 0.6665(7)
H59 H 0.7611 0.9149 0.7092
H60 H 0.7884 0.9034 0.6331
H61 H 0.7731 0.8441 0.6822
C65 C 0.42838(14) 0.53817(10) 0.63434(13)
H62 H 0.3960 0.5551 0.5886
H63 H 0.3940 0.5087 0.6558
C66 C 0.49889(15) 0.50044(10) 0.61573(11)
C67 C 0.48613(19) 0.43786(12) 0.58894(15)
H64 H 0.4359 0.4179 0.5874
C68 C 0.5483(3) 0.40472(15) 0.56430(17)
H65 H 0.5392 0.3628 0.5456
C69 C 0.6222(2) 0.43302(17) 0.56734(16)
H66 H 0.6633 0.4107 0.5503
C70 C 0.63623(19) 0.49402(14) 0.59516(15)
H67 H 0.6873 0.5130 0.5980
C71 C 0.57482(16) 0.52774(12) 0.61921(14)
H68 H 0.5849 0.5695 0.6380
C72 C 0.74482(13) 0.69787(10) 0.85825(13)
H69 H 0.7416 0.7283 0.8979
H70 H 0.7948 0.7069 0.8406
C73 C 0.74982(12) 0.62995(10) 0.88990(11)
C74 C 0.69524(14) 0.58199(11) 0.86291(14)
H71 H 0.6529 0.5905 0.8229
C75 C 0.70281(17) 0.52083(11) 0.89487(16)
H72 H 0.6654 0.4885 0.8764
C76 C 0.7648(2) 0.50787(12) 0.95317(15)
H73 H 0.7695 0.4669 0.9748
C77 C 0.82014(19) 0.55501(13) 0.97987(13)
H74 H 0.8630 0.5459 1.0192
C78 C 0.81274(15) 0.61593(11) 0.94871(11)
H75 H 0.8504 0.6480 0.9674
C39? C 0.1600(10) 0.3829(9) 0.6178(10)
H36? H 0.1249 0.3684 0.5722
H37? H 0.1822 0.3449 0.6459
C40? C 0.2266(9) 0.4221(7) 0.5999(8)
H38? H 0.2044 0.4587 0.5702
H39? H 0.2586 0.3963 0.5727
H40? H 0.2606 0.4372 0.6452
C79? C 0.6734(8) 0.9027(6) 0.6528(8)
H76? H 0.6921 0.9405 0.6828
H77? H 0.6434 0.9172 0.6048
C80? C 0.7427(7) 0.8622(5) 0.6434(8)
H78? H 0.7691 0.8453 0.6908
H79? H 0.7809 0.8878 0.6227
H80? H 0.7237 0.8269 0.6104
loop_
_geom_bond_atom_site_label_1
_geom_bond_atom_site_label_2
_geom_bond_site_symmetry_1
_geom_bond_site_symmetry_2
N1 C2 1_555 1_555
N2 C15 1_555 1_555
N3 C1 1_555 1_555
O1 C2 1_555 1_555
O2 C15 1_555 1_555
O3 C22 1_555 1_555
O4 C22 1_555 1_555
C1 C2 1_555 1_555
C3 N1 1_555 1_555
C4 C3 1_555 1_555
H1 C4 1_555 1_555
C5 C4 1_555 1_555
H2 C5 1_555 1_555
C6 C5 1_555 1_555
H3 C6 1_555 1_555
C7 C6 1_555 1_555
H4 C7 1_555 1_555
C8 C1 1_555 1_555
C9 C1 1_555 1_555
C10 C9 1_555 1_555
H5 C10 1_555 1_555
C11 N3 1_555 1_555
H6 C11 1_555 1_555
C12 C11 1_555 1_555
H7 C12 1_555 1_555
H8 C12 1_555 1_555
C13 C12 1_555 1_555
H9 C13 1_555 1_555
H10 C13 1_555 1_555
C14 N3 1_555 1_555
H11 C14 1_555 1_555
H12 C14 1_555 1_555
C15 C9 1_555 1_555
C16 N2 1_555 1_555
C17 C16 1_555 1_555
H13 C17 1_555 1_555
C18 C17 1_555 1_555
H14 C18 1_555 1_555
C19 C18 1_555 1_555
H15 C19 1_555 1_555
C20 C19 1_555 1_555
H16 C20 1_555 1_555
C21 C9 1_555 1_555
C22 C10 1_555 1_555
C23 O4 1_555 1_555
H17 C23 1_555 1_555
H18 C23 1_555 1_555
C24 C23 1_555 1_555
H19 C24 1_555 1_555
H20 C24 1_555 1_555
H21 C24 1_555 1_555
C25 N1 1_555 1_555
H22 C25 1_555 1_555
H23 C25 1_555 1_555
C26 C25 1_555 1_555
C27 C26 1_555 1_555
H24 C27 1_555 1_555
C28 C27 1_555 1_555
H25 C28 1_555 1_555
C29 C28 1_555 1_555
H26 C29 1_555 1_555
C30 C29 1_555 1_555
H27 C30 1_555 1_555
C31 C26 1_555 1_555
H28 C31 1_555 1_555
C32 N2 1_555 1_555
H29 C32 1_555 1_555
H30 C32 1_555 1_555
C33 C32 1_555 1_555
C34 C33 1_555 1_555
H31 C34 1_555 1_555
C35 C34 1_555 1_555
H32 C35 1_555 1_555
C36 C35 1_555 1_555
H33 C36 1_555 1_555
C37 C36 1_555 1_555
H34 C37 1_555 1_555
C38 C33 1_555 1_555
H35 C38 1_555 1_555
N4 C42 1_555 1_555
N5 C55 1_555 1_555
N6 C41 1_555 1_555
O5 C42 1_555 1_555
O6 C55 1_555 1_555
O7 C62 1_555 1_555
O8 C62 1_555 1_555
C41 C42 1_555 1_555
C43 N4 1_555 1_555
C44 C43 1_555 1_555
H41 C44 1_555 1_555
C45 C44 1_555 1_555
H42 C45 1_555 1_555
C46 C45 1_555 1_555
H43 C46 1_555 1_555
C47 C46 1_555 1_555
H44 C47 1_555 1_555
C48 C41 1_555 1_555
C49 C41 1_555 1_555
C50 C49 1_555 1_555
H45 C50 1_555 1_555
C51 N6 1_555 1_555
H46 C51 1_555 1_555
C52 C51 1_555 1_555
H47 C52 1_555 1_555
H48 C52 1_555 1_555
C53 C52 1_555 1_555
H49 C53 1_555 1_555
H50 C53 1_555 1_555
C54 N6 1_555 1_555
H51 C54 1_555 1_555
H52 C54 1_555 1_555
C55 C49 1_555 1_555
C56 N5 1_555 1_555
C57 C56 1_555 1_555
H53 C57 1_555 1_555
C58 C57 1_555 1_555
H54 C58 1_555 1_555
C59 C58 1_555 1_555
H55 C59 1_555 1_555
C60 C59 1_555 1_555
H56 C60 1_555 1_555
C61 C49 1_555 1_555
C62 C50 1_555 1_555
C63 O8 1_555 1_555
H57 C63 1_555 1_555
H58 C63 1_555 1_555
C64 C63 1_555 1_555
H59 C64 1_555 1_555
H60 C64 1_555 1_555
H61 C64 1_555 1_555
C65 N4 1_555 1_555
H62 C65 1_555 1_555
H63 C65 1_555 1_555
C66 C65 1_555 1_555
C67 C66 1_555 1_555
H64 C67 1_555 1_555
C68 C67 1_555 1_555
H65 C68 1_555 1_555
C69 C68 1_555 1_555
H66 C69 1_555 1_555
C70 C69 1_555 1_555
H67 C70 1_555 1_555
C71 C66 1_555 1_555
H68 C71 1_555 1_555
C72 N5 1_555 1_555
H69 C72 1_555 1_555
H70 C72 1_555 1_555
C73 C72 1_555 1_555
C74 C73 1_555 1_555
H71 C74 1_555 1_555
C75 C74 1_555 1_555
H72 C75 1_555 1_555
C76 C75 1_555 1_555
H73 C76 1_555 1_555
C77 C76 1_555 1_555
H74 C77 1_555 1_555
C78 C73 1_555 1_555
H75 C78 1_555 1_555
C3 C8 1_555 1_555
C7 C8 1_555 1_555
C10 C11 1_555 1_555
C13 C14 1_555 1_555
C16 C21 1_555 1_555
C20 C21 1_555 1_555
C30 C31 1_555 1_555
C37 C38 1_555 1_555
C43 C48 1_555 1_555
C47 C48 1_555 1_555
C50 C51 1_555 1_555
C53 C54 1_555 1_555
C56 C61 1_555 1_555
C60 C61 1_555 1_555
C70 C71 1_555 1_555
C77 C78 1_555 1_555

#END
