
#######################################################################
#
#                 Cambridge Crystallographic Data Centre
#                                CCDC 
#
#######################################################################
#
# If this CIF has been generated from an entry in the Cambridge 
# Structural Database, then it will include bibliographic, chemical, 
# crystal, experimental, refinement or atomic coordinate data resulting 
# from the CCDC's data processing and validation procedures.
#
#######################################################################

data_EFIDUS03
_chemical_formula_moiety         'C10 H14 N4,0.5(H2 O1)'
_chemical_name_systematic        
"3,3',5,5'-tetramethyl-1H,1'H-4,4'-bipyrazole hydrate"
_symmetry_cell_setting           tetragonal
_symmetry_space_group_name_H-M   'I 41/a c d'
_symmetry_Int_Tables_number      142
_space_group_name_Hall           '-I 4bd 2c'
loop_
_symmetry_equiv_pos_site_id
_symmetry_equiv_pos_as_xyz
1 x,y,z
2 1/2-x,-y,1/2+z
3 1/4-y,3/4+x,1/4+z
4 1/4+y,1/4-x,3/4+z
5 1/2-x,y,-z
6 x,-y,1/2-z
7 1/4+y,3/4+x,3/4-z
8 1/4-y,1/4-x,1/4-z
9 1/2+x,1/2+y,1/2+z
10 -x,1/2-y,z
11 3/4-y,1/4+x,3/4+z
12 3/4+y,3/4-x,1/4+z
13 -x,1/2+y,1/2-z
14 1/2+x,1/2-y,-z
15 3/4+y,1/4+x,1/4-z
16 3/4-y,3/4-x,3/4-z
17 -x,-y,-z
18 1/2+x,y,1/2-z
19 3/4+y,1/4-x,3/4-z
20 3/4-y,3/4+x,1/4-z
21 1/2+x,-y,z
22 -x,y,1/2+z
23 3/4-y,1/4-x,1/4+z
24 3/4+y,3/4+x,3/4+z
25 1/2-x,1/2-y,1/2-z
26 x,1/2+y,-z
27 1/4+y,3/4-x,1/4-z
28 1/4-y,1/4+x,3/4-z
29 x,1/2-y,1/2+z
30 1/2-x,1/2+y,z
31 1/4-y,3/4-x,3/4+z
32 1/4+y,1/4+x,1/4+z
_cell_length_a                   24.8515(16)
_cell_length_b                   24.8515(16)
_cell_length_c                   14.9374(12)
_cell_angle_alpha                90
_cell_angle_beta                 90
_cell_angle_gamma                90
_cell_volume                     9225.29
_cell_formula_units_Z            32
loop_
_atom_site_label
_atom_site_type_symbol
_atom_site_fract_x
_atom_site_fract_y
_atom_site_fract_z
N1 N 0.05632(7) 0.24207(8) 0.71718(14)
N2 N 0.09501(8) 0.27426(8) 0.68247(14)
H1 H 0.0896 0.3048 0.6571
N3 N 0.22193(7) 0.10461(7) 0.84596(12)
H2 H 0.2337 0.0870 0.8915
N4 N 0.23970(7) 0.09705(7) 0.76102(12)
C1 C 0.08014(8) 0.19813(8) 0.75072(16)
C2 C 0.13589(8) 0.20188(8) 0.73724(14)
C3 C 0.14312(8) 0.25096(9) 0.69382(15)
C4 C 0.19369(10) 0.27779(10) 0.6636(2)
H3 H 0.1960 0.2761 0.5995
H4 H 0.2241 0.2598 0.6895
H5 H 0.1934 0.3147 0.6824
C5 C 0.04767(10) 0.15444(10) 0.79088(19)
H6 H 0.0396 0.1632 0.8520
H7 H 0.0676 0.1214 0.7887
H8 H 0.0147 0.1504 0.7580
C6 C 0.18425(9) 0.14252(8) 0.85058(14)
C7 C 0.17611(8) 0.16185(8) 0.76513(14)
C8 C 0.21182(8) 0.13193(8) 0.71127(15)
C9 C 0.22089(11) 0.13494(12) 0.61238(16)
H9 H 0.2405 0.1671 0.5984
H10 H 0.1868 0.1355 0.5821
H11 H 0.2411 0.1041 0.5932
C10 C 0.16039(12) 0.15771(12) 0.93794(18)
H12 H 0.1297 0.1354 0.9498
H13 H 0.1494 0.1947 0.9362
H14 H 0.1866 0.1528 0.9844
O1 O 0.2500 0.04540(8) 1.0000
H15 H 0.2803(7) 0.0268(9) 0.9957(17)
H15D H 0.2197(7) 0.0268(9) 1.0043(17)
loop_
_geom_bond_atom_site_label_1
_geom_bond_atom_site_label_2
_geom_bond_site_symmetry_1
_geom_bond_site_symmetry_2
N1 N2 1_555 1_555
N2 H1 1_555 1_555
N3 H2 1_555 1_555
N4 N3 1_555 1_555
C1 N1 1_555 1_555
C2 C1 1_555 1_555
C3 N2 1_555 1_555
C4 C3 1_555 1_555
H3 C4 1_555 1_555
H4 C4 1_555 1_555
H5 C4 1_555 1_555
C5 C1 1_555 1_555
H6 C5 1_555 1_555
H7 C5 1_555 1_555
H8 C5 1_555 1_555
C6 N3 1_555 1_555
C7 C2 1_555 1_555
C8 N4 1_555 1_555
C9 C8 1_555 1_555
H9 C9 1_555 1_555
H10 C9 1_555 1_555
H11 C9 1_555 1_555
C10 C6 1_555 1_555
H12 C10 1_555 1_555
H13 C10 1_555 1_555
H14 C10 1_555 1_555
O1 H15 1_555 1_555
H15D O1 1_555 1_555
C2 C3 1_555 1_555
C6 C7 1_555 1_555
C7 C8 1_555 1_555

#END
