
#######################################################################
#
#                 Cambridge Crystallographic Data Centre
#                                CCDC 
#
#######################################################################
#
# If this CIF has been generated from an entry in the Cambridge 
# Structural Database, then it will include bibliographic, chemical, 
# crystal, experimental, refinement or atomic coordinate data resulting 
# from the CCDC's data processing and validation procedures.
#
#######################################################################

data_EFIPAL
_chemical_formula_moiety         'C36 H46 I2 N2 O4'
_chemical_name_systematic        
'Di-n-octyl 2,5-bis(4-iodophenylamino)terephthalate'
_symmetry_cell_setting           triclinic
_symmetry_space_group_name_H-M   'P -1'
_symmetry_Int_Tables_number      2
_space_group_name_Hall           '-P 1'
loop_
_symmetry_equiv_pos_site_id
_symmetry_equiv_pos_as_xyz
1 x,y,z
2 -x,-y,-z
_cell_length_a                   4.500(3)
_cell_length_b                   11.144(8)
_cell_length_c                   17.238(12)
_cell_angle_alpha                88.56(6)
_cell_angle_beta                 88.63(5)
_cell_angle_gamma                89.05(5)
_cell_volume                     863.821
_exptl_crystal_colour            orange-red
_exptl_crystal_description       parallelepiped
_chemical_melting_point          143deg.C
_cell_formula_units_Z            1
loop_
_atom_site_label
_atom_site_type_symbol
_atom_site_fract_x
_atom_site_fract_y
_atom_site_fract_z
I1 I 0.07589(3) 0.471282(13) 0.298301(9)
O1 O 1.0737(3) 0.29389(13) -0.10820(9)
O2 O 1.3886(3) 0.15481(13) -0.15590(9)
N1 N 0.7113(4) 0.22627(16) 0.01265(11)
H1 H 0.761(6) 0.277(3) -0.0222(18)
C1 C 0.2825(5) 0.38673(19) 0.20304(13)
C2 C 0.2277(5) 0.42718(19) 0.12808(13)
H2 H 0.096(6) 0.488(2) 0.1162(16)
C3 C 0.3681(5) 0.37079(19) 0.06604(13)
H3 H 0.330(5) 0.398(2) 0.0151(15)
C4 C 0.5669(5) 0.27402(19) 0.07805(13)
C5 C 0.6224(5) 0.23591(19) 0.15444(13)
H4 H 0.764(6) 0.175(2) 0.1648(15)
C6 C 0.4788(5) 0.2914(2) 0.21639(13)
H5 H 0.524(5) 0.265(2) 0.2656(15)
C7 C 0.7793(5) 0.01792(19) 0.05548(13)
H6 H 0.616(5) 0.0248(19) 0.0921(13)
C8 C 0.8598(5) 0.11542(18) 0.00734(12)
C9 C 1.0849(4) 0.09547(18) -0.04973(12)
C10 C 1.1796(5) 0.19224(19) -0.10551(12)
C11 C 1.4822(5) 0.2395(2) -0.21752(13)
H7 H 1.601(6) 0.298(2) -0.1952(16)
H8 H 1.304(6) 0.272(2) -0.2429(15)
C12 C 1.6665(5) 0.1665(2) -0.27435(13)
H9 H 1.831(6) 0.131(2) -0.2443(17)
H10 H 1.760(6) 0.221(3) -0.3124(17)
C13 C 1.4866(5) 0.0729(2) -0.31562(14)
H11 H 1.380(5) 0.027(2) -0.2793(15)
H12 H 1.333(6) 0.113(2) -0.3472(16)
C14 C 1.6766(5) -0.0115(2) -0.36483(14)
H13 H 1.818(6) -0.055(2) -0.3328(17)
H14 H 1.803(5) 0.038(2) -0.4014(15)
C15 C 1.4948(5) -0.0997(2) -0.40984(13)
H15 H 1.374(5) -0.062(2) -0.4427(15)
H16 H 1.363(5) -0.146(2) -0.3767(16)
C16 C 1.6841(5) -0.1882(2) -0.45637(14)
H17 H 1.803(5) -0.143(2) -0.4929(16)
H18 H 1.812(6) -0.230(2) -0.4230(17)
C17 C 1.5030(5) -0.2803(2) -0.49763(14)
H19 H 1.357(6) -0.238(2) -0.5335(16)
H20 H 1.382(6) -0.326(3) -0.4599(18)
C18 C 1.6956(6) -0.3661(2) -0.54604(16)
H21 H 1.575(6) -0.423(3) -0.5730(17)
H22 H 1.839(7) -0.408(3) -0.515(2)
H23 H 1.807(6) -0.315(3) -0.5881(18)
I1A I 1.92411(3) -0.471282(13) -0.298301(9)
O1A O 0.9263(3) -0.29389(13) 0.10820(9)
O2A O 0.6114(3) -0.15481(13) 0.15590(9)
N1A N 1.2887(4) -0.22627(16) -0.01265(11)
H1A H 1.239(6) -0.277(3) 0.0222(18)
C1A C 1.7175(5) -0.38673(19) -0.20304(13)
C2A C 1.7723(5) -0.42718(19) -0.12808(13)
H2A H 1.904(6) -0.488(2) -0.1162(16)
C3A C 1.6319(5) -0.37079(19) -0.06604(13)
H3A H 1.670(5) -0.398(2) -0.0151(15)
C4A C 1.4331(5) -0.27402(19) -0.07805(13)
C5A C 1.3776(5) -0.23591(19) -0.15444(13)
H4A H 1.236(6) -0.175(2) -0.1648(15)
C6A C 1.5212(5) -0.2914(2) -0.21639(13)
H5A H 1.476(5) -0.265(2) -0.2656(15)
C7A C 1.2207(5) -0.01792(19) -0.05548(13)
H6A H 1.384(5) -0.0248(19) -0.0921(13)
C8A C 1.1402(5) -0.11542(18) -0.00734(12)
C9A C 0.9151(4) -0.09547(18) 0.04973(12)
C10A C 0.8204(5) -0.19224(19) 0.10551(12)
C11A C 0.5178(5) -0.2395(2) 0.21752(13)
H7A H 0.399(6) -0.298(2) 0.1952(16)
H8A H 0.696(6) -0.272(2) 0.2429(15)
C12A C 0.3335(5) -0.1665(2) 0.27435(13)
H9A H 0.169(6) -0.131(2) 0.2443(17)
H10A H 0.240(6) -0.221(3) 0.3124(17)
C13A C 0.5134(5) -0.0729(2) 0.31562(14)
H11A H 0.620(5) -0.027(2) 0.2793(15)
H12A H 0.667(6) -0.113(2) 0.3472(16)
C14A C 0.3234(5) 0.0115(2) 0.36483(14)
H13A H 0.182(6) 0.055(2) 0.3328(17)
H14A H 0.197(5) -0.038(2) 0.4014(15)
C15A C 0.5052(5) 0.0997(2) 0.40984(13)
H15A H 0.626(5) 0.062(2) 0.4427(15)
H16A H 0.637(5) 0.146(2) 0.3767(16)
C16A C 0.3159(5) 0.1882(2) 0.45637(14)
H17A H 0.197(5) 0.143(2) 0.4929(16)
H18A H 0.188(6) 0.230(2) 0.4230(17)
C17A C 0.4970(5) 0.2803(2) 0.49763(14)
H19A H 0.643(6) 0.238(2) 0.5335(16)
H20A H 0.618(6) 0.326(3) 0.4599(18)
C18A C 0.3044(6) 0.3661(2) 0.54604(16)
H21A H 0.425(6) 0.423(3) 0.5730(17)
H22A H 0.161(7) 0.408(3) 0.515(2)
H23A H 0.193(6) 0.315(3) 0.5881(18)
loop_
_geom_bond_atom_site_label_1
_geom_bond_atom_site_label_2
_geom_bond_site_symmetry_1
_geom_bond_site_symmetry_2
I1 C1 1_555 1_555
O1 C10 1_555 1_555
O2 C10 1_555 1_555
N1 H1 1_555 1_555
C1 C2 1_555 1_555
C2 H2 1_555 1_555
C3 C2 1_555 1_555
H3 C3 1_555 1_555
C4 N1 1_555 1_555
C5 C4 1_555 1_555
H4 C5 1_555 1_555
C6 C1 1_555 1_555
H5 C6 1_555 1_555
C7 H6 1_555 1_555
C8 N1 1_555 1_555
C9 C8 1_555 1_555
C10 C9 1_555 1_555
C11 O2 1_555 1_555
H7 C11 1_555 1_555
H8 C11 1_555 1_555
C12 C11 1_555 1_555
H9 C12 1_555 1_555
H10 C12 1_555 1_555
C13 C12 1_555 1_555
H11 C13 1_555 1_555
H12 C13 1_555 1_555
C14 C13 1_555 1_555
H13 C14 1_555 1_555
H14 C14 1_555 1_555
C15 C14 1_555 1_555
H15 C15 1_555 1_555
H16 C15 1_555 1_555
C16 C15 1_555 1_555
H17 C16 1_555 1_555
H18 C16 1_555 1_555
C17 C16 1_555 1_555
H19 C17 1_555 1_555
H20 C17 1_555 1_555
C18 C17 1_555 1_555
H21 C18 1_555 1_555
H22 C18 1_555 1_555
H23 C18 1_555 1_555
I1A C1A 1_555 1_555
O1A C10A 1_555 1_555
O2A C10A 1_555 1_555
N1A H1A 1_555 1_555
C1A C2A 1_555 1_555
C2A H2A 1_555 1_555
C3A C2A 1_555 1_555
H3A C3A 1_555 1_555
C4A N1A 1_555 1_555
C5A C4A 1_555 1_555
H4A C5A 1_555 1_555
C6A C1A 1_555 1_555
H5A C6A 1_555 1_555
C7A C9 1_555 1_555
H6A C7A 1_555 1_555
C8A N1A 1_555 1_555
C9A C7 1_555 1_555
C10A C9A 1_555 1_555
C11A O2A 1_555 1_555
H7A C11A 1_555 1_555
H8A C11A 1_555 1_555
C12A C11A 1_555 1_555
H9A C12A 1_555 1_555
H10A C12A 1_555 1_555
C13A C12A 1_555 1_555
H11A C13A 1_555 1_555
H12A C13A 1_555 1_555
C14A C13A 1_555 1_555
H13A C14A 1_555 1_555
H14A C14A 1_555 1_555
C15A C14A 1_555 1_555
H15A C15A 1_555 1_555
H16A C15A 1_555 1_555
C16A C15A 1_555 1_555
H17A C16A 1_555 1_555
H18A C16A 1_555 1_555
C17A C16A 1_555 1_555
H19A C17A 1_555 1_555
H20A C17A 1_555 1_555
C18A C17A 1_555 1_555
H21A C18A 1_555 1_555
H22A C18A 1_555 1_555
H23A C18A 1_555 1_555
C3 C4 1_555 1_555
C5 C6 1_555 1_555
C7 C8 1_555 1_555
C3A C4A 1_555 1_555
C5A C6A 1_555 1_555
C7A C8A 1_555 1_555
C8A C9A 1_555 1_555

#END
