
#######################################################################
#
#                 Cambridge Crystallographic Data Centre
#                                CCDC 
#
#######################################################################
#
# If this CIF has been generated from an entry in the Cambridge 
# Structural Database, then it will include bibliographic, chemical, 
# crystal, experimental, refinement or atomic coordinate data resulting 
# from the CCDC's data processing and validation procedures.
#
#######################################################################

data_EFIQIT
_chemical_formula_moiety         'C44 H28 Si2'
_chemical_name_systematic        
1,1,8,8-tetraphenyldibenzo-1,8-disilacyclotetradeca-2,6,9,13-tetrayne
_symmetry_cell_setting           triclinic
_symmetry_space_group_name_H-M   'P -1'
_symmetry_Int_Tables_number      2
_space_group_name_Hall           '-P 1'
loop_
_symmetry_equiv_pos_site_id
_symmetry_equiv_pos_as_xyz
1 x,y,z
2 -x,-y,-z
_cell_length_a                   7.4271(7)
_cell_length_b                   10.3527(9)
_cell_length_c                   12.4005(11)
_cell_angle_alpha                72.854(2)
_cell_angle_beta                 74.769(2)
_cell_angle_gamma                89.325(2)
_cell_volume                     876.87
_exptl_crystal_colour            colorless
_exptl_crystal_description       rod
_cell_formula_units_Z            1
loop_
_atom_site_label
_atom_site_type_symbol
_atom_site_fract_x
_atom_site_fract_y
_atom_site_fract_z
C1 C 1.3749(2) 0.03004(16) 0.85347(14)
C2 C 1.2679(2) 0.11538(17) 0.83007(15)
C3 C 1.0699(2) 0.23935(16) 0.64853(14)
C4 C 1.1592(3) 0.15449(19) 0.58601(17)
C5 C 1.1172(4) 0.1499(3) 0.4839(2)
C6 C 0.9865(4) 0.2300(3) 0.4443(2)
C7 C 0.8976(4) 0.3141(3) 0.5033(2)
C8 C 0.9377(3) 0.3189(2) 0.60492(19)
C9 C 1.2456(2) 0.41593(16) 0.75950(14)
C10 C 1.4254(3) 0.4475(2) 0.68406(18)
C11 C 1.5243(3) 0.5677(2) 0.6660(2)
C12 C 1.4458(3) 0.6585(2) 0.7228(2)
C13 C 1.2681(3) 0.6312(2) 0.7967(2)
C14 C 1.1687(3) 0.51070(18) 0.81448(17)
C15 C 1.1007(2) -0.23279(16) 1.10416(15)
C16 C 1.2576(2) -0.21686(16) 1.04114(14)
C17 C 1.4470(2) -0.19310(15) 0.96874(13)
C18 C 1.5764(3) -0.28916(19) 0.98896(17)
C19 C 1.7610(3) -0.2619(2) 0.92406(18)
C20 C 1.8191(3) -0.1401(2) 0.83916(18)
C21 C 1.6934(2) -0.04455(19) 0.81528(17)
C22 C 1.5057(2) -0.06979(15) 0.87883(14)
H1 H 1.250(3) 0.101(2) 0.6186(18)
H2 H 1.184(3) 0.085(3) 0.442(2)
H3 H 0.950(4) 0.225(3) 0.382(3)
H4 H 0.803(4) 0.362(3) 0.473(3)
H5 H 0.872(3) 0.379(2) 0.651(2)
H6 H 1.482(3) 0.384(2) 0.6390(19)
H7 H 1.646(3) 0.588(2) 0.610(2)
H8 H 1.507(3) 0.744(2) 0.713(2)
H9 H 1.206(3) 0.698(2) 0.8441(19)
H10 H 1.043(3) 0.4882(19) 0.8672(18)
H11 H 1.534(3) -0.3755(19) 1.0530(17)
H12 H 1.847(3) -0.336(2) 0.9430(18)
H13 H 1.947(3) -0.1165(19) 0.7937(18)
H14 H 1.731(3) 0.0479(19) 0.7509(17)
Si1 Si 1.12069(6) 0.25071(4) 0.78470(4)
C15A C 0.8993(2) 0.23279(16) 0.89584(15)
C16A C 0.7424(2) 0.21686(16) 0.95886(14)
C17A C 0.5530(2) 0.19310(15) 1.03126(13)
C18A C 0.4236(3) 0.28916(19) 1.01104(17)
C19A C 0.2390(3) 0.2619(2) 1.07594(18)
C20A C 0.1809(3) 0.1401(2) 1.16084(18)
C21A C 0.3066(2) 0.04455(19) 1.18472(17)
C22A C 0.4943(2) 0.06979(15) 1.12117(14)
C1A C 0.6251(2) -0.03004(16) 1.14653(14)
C2A C 0.7321(2) -0.11538(17) 1.16993(15)
Si1A Si 0.87931(6) -0.25071(4) 1.21530(4)
C3A C 0.9301(2) -0.23935(16) 1.35147(14)
C4A C 0.8408(3) -0.15449(19) 1.41399(17)
C5A C 0.8828(4) -0.1499(3) 1.5161(2)
C6A C 1.0135(4) -0.2300(3) 1.5557(2)
C7A C 1.1024(4) -0.3141(3) 1.4967(2)
C8A C 1.0623(3) -0.3189(2) 1.39508(19)
H5A H 1.128(3) -0.379(2) 1.349(2)
H4A H 1.197(4) -0.362(3) 1.527(3)
H3A H 1.050(4) -0.225(3) 1.618(3)
H2A H 0.816(3) -0.085(3) 1.558(2)
H1A H 0.750(3) -0.101(2) 1.3814(18)
C9A C 0.7544(2) -0.41593(16) 1.24050(14)
C10A C 0.5746(3) -0.4475(2) 1.31594(18)
C11A C 0.4757(3) -0.5677(2) 1.3340(2)
C12A C 0.5542(3) -0.6585(2) 1.2772(2)
C13A C 0.7319(3) -0.6312(2) 1.2033(2)
C14A C 0.8313(3) -0.51070(18) 1.18552(17)
H10A H 0.957(3) -0.4882(19) 1.1328(18)
H9A H 0.794(3) -0.698(2) 1.1559(19)
H8A H 0.493(3) -0.744(2) 1.287(2)
H7A H 0.354(3) -0.588(2) 1.390(2)
H6A H 0.518(3) -0.384(2) 1.3610(19)
H14A H 0.269(3) -0.0479(19) 1.2491(17)
H13A H 0.053(3) 0.1165(19) 1.2063(18)
H12A H 0.153(3) 0.336(2) 1.0570(18)
H11A H 0.466(3) 0.3755(19) 0.9470(17)
loop_
_geom_bond_atom_site_label_1
_geom_bond_atom_site_label_2
_geom_bond_site_symmetry_1
_geom_bond_site_symmetry_2
C1 C2 1_555 1_555
C2 Si1 1_555 1_555
C3 C4 1_555 1_555
C4 C5 1_555 1_555
C5 C6 1_555 1_555
C6 C7 1_555 1_555
C7 C8 1_555 1_555
C8 C3 1_555 1_555
C9 C10 1_555 1_555
C10 C11 1_555 1_555
C11 C12 1_555 1_555
C12 C13 1_555 1_555
C13 C14 1_555 1_555
C14 C9 1_555 1_555
C15 C16 1_555 1_555
C16 C17 1_555 1_555
C17 C18 1_555 1_555
C18 C19 1_555 1_555
C19 C20 1_555 1_555
C20 C21 1_555 1_555
C21 C22 1_555 1_555
C22 C1 1_555 1_555
H1 C4 1_555 1_555
H2 C5 1_555 1_555
H3 C6 1_555 1_555
H4 C7 1_555 1_555
H5 C8 1_555 1_555
H6 C10 1_555 1_555
H7 C11 1_555 1_555
H8 C12 1_555 1_555
H9 C13 1_555 1_555
H10 C14 1_555 1_555
H11 C18 1_555 1_555
H12 C19 1_555 1_555
H13 C20 1_555 1_555
H14 C21 1_555 1_555
Si1 C3 1_555 1_555
C15A Si1 1_555 1_555
C16A C15A 1_555 1_555
C17A C16A 1_555 1_555
C18A C17A 1_555 1_555
C19A C18A 1_555 1_555
C20A C19A 1_555 1_555
C21A C20A 1_555 1_555
C22A C17A 1_555 1_555
C1A C22A 1_555 1_555
C2A C1A 1_555 1_555
Si1A C15 1_555 1_555
C3A Si1A 1_555 1_555
C4A C3A 1_555 1_555
C5A C4A 1_555 1_555
C6A C5A 1_555 1_555
C7A C6A 1_555 1_555
C8A C3A 1_555 1_555
H5A C8A 1_555 1_555
H4A C7A 1_555 1_555
H3A C6A 1_555 1_555
H2A C5A 1_555 1_555
H1A C4A 1_555 1_555
C9A Si1A 1_555 1_555
C10A C9A 1_555 1_555
C11A C10A 1_555 1_555
C12A C11A 1_555 1_555
C13A C12A 1_555 1_555
C14A C9A 1_555 1_555
H10A C14A 1_555 1_555
H9A C13A 1_555 1_555
H8A C12A 1_555 1_555
H7A C11A 1_555 1_555
H6A C10A 1_555 1_555
H14A C21A 1_555 1_555
H13A C20A 1_555 1_555
H12A C19A 1_555 1_555
H11A C18A 1_555 1_555
C9 Si1 1_555 1_555
C17 C22 1_555 1_555
C21A C22A 1_555 1_555
C2A Si1A 1_555 1_555
C7A C8A 1_555 1_555
C13A C14A 1_555 1_555

#END
