
#######################################################################
#
#                 Cambridge Crystallographic Data Centre
#                                CCDC 
#
#######################################################################
#
# If this CIF has been generated from an entry in the Cambridge 
# Structural Database, then it will include bibliographic, chemical, 
# crystal, experimental, refinement or atomic coordinate data resulting 
# from the CCDC's data processing and validation procedures.
#
#######################################################################

data_EFIQUF
_chemical_name_common            permethylbenzotrisoxadisilole
_chemical_formula_moiety         'C18 H36 O3 Si6'
_chemical_name_systematic        
1,1,3,3,4,4,6,6,7,7,9,9-dodecamethyl-1,3,4,6,7,9-hexahydrobis[1,2,5]oxadisilolo[3,4-e:3',4'-g][2,1,3]benzoxadisilole
_symmetry_cell_setting           monoclinic
_symmetry_space_group_name_H-M   'C 2/c'
_symmetry_Int_Tables_number      15
_space_group_name_Hall           '-C 2yn'
loop_
_symmetry_equiv_pos_site_id
_symmetry_equiv_pos_as_xyz
1 x,y,z
2 1/2+x,1/2+y,z
3 x,-y,1/2+z
4 1/2+x,1/2-y,1/2+z
5 -x,-y,-z
6 1/2-x,1/2-y,-z
7 -x,y,1/2-z
8 1/2-x,1/2+y,1/2-z
_cell_length_a                   19.2436(13)
_cell_length_b                   11.4234(8)
_cell_length_c                   12.1533(8)
_cell_angle_alpha                90
_cell_angle_beta                 98.1390(10)
_cell_angle_gamma                90
_cell_volume                     2644.72
_exptl_crystal_colour            colorless
_exptl_crystal_description       block
_cell_formula_units_Z            4
loop_
_atom_site_label
_atom_site_type_symbol
_atom_site_fract_x
_atom_site_fract_y
_atom_site_fract_z
C1 C 0.09069(16) 0.0832(2) 0.5914(2)
C2 C 0.14398(11) 0.08332(17) 0.8390(2)
C3 C 0.20223(13) 0.3420(3) 0.6074(3)
C4 C 0.22503(12) 0.3763(3) 0.8570(3)
C5 C 0.09799(14) 0.74474(18) 0.7983(2)
C6 C 0.05964(17) 0.6690(3) 0.5597(2)
C7 C 0.03590(6) 0.27620(10) 0.74280(10)
C8 C 0.07147(6) 0.38319(10) 0.73455(10)
C9 C 0.03523(6) 0.49052(10) 0.73998(10)
H1 H 0.0938(17) 0.016(3) 0.588(2)
H2 H 0.135(2) 0.110(2) 0.581(3)
H3 H 0.065(2) 0.115(3) 0.544(3)
H4 H 0.1445(13) -0.001(3) 0.850(2)
H5 H 0.1831(19) 0.111(2) 0.826(3)
H6 H 0.1409(17) 0.118(2) 0.904(3)
H7 H 0.1691(16) 0.366(2) 0.546(2)
H8 H 0.207(2) 0.258(4) 0.621(3)
H9 H 0.2447(16) 0.376(2) 0.595(2)
H10 H 0.2354(17) 0.295(3) 0.853(3)
H11 H 0.263(2) 0.413(3) 0.856(3)
H12 H 0.213(3) 0.365(4) 0.923(4)
H13 H 0.1015(15) 0.711(3) 0.874(3)
H14 H 0.134(2) 0.757(3) 0.807(3)
H15 H 0.0556(16) 0.794(3) 0.802(3)
H16 H 0.085(2) 0.729(3) 0.543(3)
H17 H 0.016(2) 0.696(3) 0.553(3)
H18 H 0.068(3) 0.607(4) 0.519(4)
O1 O 0.0000 0.04846(12) 0.7500
O2 O 0.16575(5) 0.55258(11) 0.70898(11)
Si1 Si 0.070348(19) 0.12284(3) 0.73083(3)
Si2 Si 0.167454(18) 0.40998(4) 0.72540(4)
Si3 Si 0.08914(2) 0.61821(3) 0.70355(4)
C7F C -0.03590(6) 0.27620(10) 0.75720(10)
C8F C -0.07147(6) 0.38319(10) 0.76545(10)
C9F C -0.03523(6) 0.49052(10) 0.76002(10)
Si3F Si -0.08914(2) 0.61821(3) 0.79645(4)
C5F C -0.09799(14) 0.74474(18) 0.7017(2)
H13F H -0.1015(15) 0.711(3) 0.626(3)
H14F H -0.134(2) 0.757(3) 0.693(3)
H15F H -0.0556(16) 0.794(3) 0.698(3)
C6F C -0.05964(17) 0.6690(3) 0.9403(2)
H16F H -0.085(2) 0.729(3) 0.957(3)
H17F H -0.016(2) 0.696(3) 0.947(3)
H18F H -0.068(3) 0.607(4) 0.981(4)
O2F O -0.16575(5) 0.55258(11) 0.79102(11)
Si2F Si -0.167454(18) 0.40998(4) 0.77460(4)
C3F C -0.20223(13) 0.3420(3) 0.8926(3)
H7F H -0.1691(16) 0.366(2) 0.954(2)
H8F H -0.207(2) 0.258(4) 0.879(3)
H9F H -0.2447(16) 0.376(2) 0.905(2)
C4F C -0.22503(12) 0.3763(3) 0.6430(3)
H10F H -0.2354(17) 0.295(3) 0.647(3)
H11F H -0.263(2) 0.413(3) 0.644(3)
H12F H -0.213(3) 0.365(4) 0.577(4)
Si1F Si -0.070348(19) 0.12284(3) 0.76917(3)
C1F C -0.09069(16) 0.0832(2) 0.9086(2)
H1F H -0.0938(17) 0.016(3) 0.912(2)
H2F H -0.135(2) 0.110(2) 0.919(3)
H3F H -0.065(2) 0.115(3) 0.956(3)
C2F C -0.14398(11) 0.08332(17) 0.6610(2)
H4F H -0.1445(13) -0.001(3) 0.650(2)
H5F H -0.1831(19) 0.111(2) 0.674(3)
H6F H -0.1409(17) 0.118(2) 0.596(3)
loop_
_geom_bond_atom_site_label_1
_geom_bond_atom_site_label_2
_geom_bond_site_symmetry_1
_geom_bond_site_symmetry_2
C1 H1 1_555 1_555
C2 H4 1_555 1_555
C3 H7 1_555 1_555
C4 H10 1_555 1_555
C5 H13 1_555 1_555
C6 H16 1_555 1_555
C7 C8 1_555 1_555
C8 C9 1_555 1_555
C9 Si3 1_555 1_555
H2 C1 1_555 1_555
H3 C1 1_555 1_555
H5 C2 1_555 1_555
H6 C2 1_555 1_555
H8 C3 1_555 1_555
H9 C3 1_555 1_555
H11 C4 1_555 1_555
H12 C4 1_555 1_555
H14 C5 1_555 1_555
H15 C5 1_555 1_555
H17 C6 1_555 1_555
H18 C6 1_555 1_555
O1 Si1 1_555 1_555
O2 Si2 1_555 1_555
Si1 C1 1_555 1_555
Si2 C3 1_555 1_555
Si3 C5 1_555 1_555
C7F C7 1_555 1_555
C8F C7F 1_555 1_555
C9F C9 1_555 1_555
Si3F C9F 1_555 1_555
C5F Si3F 1_555 1_555
H13F C5F 1_555 1_555
H14F C5F 1_555 1_555
H15F C5F 1_555 1_555
C6F Si3F 1_555 1_555
H16F C6F 1_555 1_555
H17F C6F 1_555 1_555
H18F C6F 1_555 1_555
O2F Si3F 1_555 1_555
Si2F C8F 1_555 1_555
C3F Si2F 1_555 1_555
H7F C3F 1_555 1_555
H8F C3F 1_555 1_555
H9F C3F 1_555 1_555
C4F Si2F 1_555 1_555
H10F C4F 1_555 1_555
H11F C4F 1_555 1_555
H12F C4F 1_555 1_555
Si1F O1 1_555 1_555
C1F Si1F 1_555 1_555
H1F C1F 1_555 1_555
H2F C1F 1_555 1_555
H3F C1F 1_555 1_555
C2F Si1F 1_555 1_555
H4F C2F 1_555 1_555
H5F C2F 1_555 1_555
H6F C2F 1_555 1_555
C2 Si1 1_555 1_555
C4 Si2 1_555 1_555
C6 Si3 1_555 1_555
C7 Si1 1_555 1_555
C8 Si2 1_555 1_555
O2 Si3 1_555 1_555
C7F Si1F 1_555 1_555
C8F C9F 1_555 1_555
O2F Si2F 1_555 1_555

#END
