
#######################################################################
#
#                 Cambridge Crystallographic Data Centre
#                                CCDC 
#
#######################################################################
#
# If this CIF has been generated from an entry in the Cambridge 
# Structural Database, then it will include bibliographic, chemical, 
# crystal, experimental, refinement or atomic coordinate data resulting 
# from the CCDC's data processing and validation procedures.
#
#######################################################################

data_EFIREQ
_chemical_formula_moiety         'C20 H28 O2 Si4'
_chemical_name_systematic        
1,1,3,3,6,6,8,8-octamethyl-1,3,6,8-tetrahydro[1,2,5]oxadisilolo[3',4':6,7]biphenyleno[2,3-c][1,2,5]oxadisilole
_symmetry_cell_setting           monoclinic
_symmetry_space_group_name_H-M   'P 21/c'
_symmetry_Int_Tables_number      14
_space_group_name_Hall           '-P 2ybc'
loop_
_symmetry_equiv_pos_site_id
_symmetry_equiv_pos_as_xyz
1 x,y,z
2 x,1/2-y,1/2+z
3 -x,-y,-z
4 -x,1/2+y,1/2-z
_cell_length_a                   12.861(12)
_cell_length_b                   8.918(8)
_cell_length_c                   10.364(10)
_cell_angle_alpha                90
_cell_angle_beta                 102.577(17)
_cell_angle_gamma                90
_cell_volume                     1160.17
_exptl_crystal_colour            colorless
_exptl_crystal_description       block
_cell_formula_units_Z            2
loop_
_atom_site_label
_atom_site_type_symbol
_atom_site_fract_x
_atom_site_fract_y
_atom_site_fract_z
C1 C 0.2778(4) 1.2674(4) 0.4703(4)
H1 H 0.2359 1.3327 0.5123
H2 H 0.2770 1.3035 0.3828
H3 H 0.3498 1.2652 0.5209
C2 C 0.1423(4) 1.0532(6) 0.5856(4)
C3 C 0.4456(2) 0.9432(6) 0.2797(4)
H4 H 0.4789 0.8644 0.2402
H5 H 0.4962 0.9855 0.3525
H6 H 0.4208 1.0197 0.2151
C4 C 0.3472(4) 0.6632(5) 0.3651(4)
C5 C 0.14860(18) 1.0318(3) 0.2885(2)
C6 C 0.0521(2) 1.0977(3) 0.2183(3)
C7 C 0.01522(18) 1.0497(3) 0.0925(2)
C8 C 0.06807(18) 0.9380(3) 0.0348(2)
C9 C 0.1599(2) 0.8718(3) 0.0997(3)
C10 C 0.20145(18) 0.9225(3) 0.2308(2)
H7 H 0.190(4) 1.066(7) 0.653(5)
H8 H 0.088(3) 1.129(5) 0.556(4)
H9 H 0.111(4) 0.967(6) 0.582(4)
H10 H 0.383(4) 0.648(6) 0.419(5)
H11 H 0.363(3) 0.616(5) 0.269(4)
H12 H 0.294(3) 0.624(5) 0.408(4)
H13 H 0.020(2) 1.177(3) 0.259(3)
H14 H 0.192(2) 0.808(3) 0.068(3)
O1 O 0.31825(15) 0.9526(3) 0.47584(18)
Si1 Si 0.22184(6) 1.07823(10) 0.46024(7)
Si2 Si 0.33109(5) 0.86573(10) 0.34021(7)
C7B C -0.01522(18) 0.9503(3) -0.0925(2)
C6B C -0.0521(2) 0.9023(3) -0.2183(3)
C5B C -0.14860(18) 0.9682(3) -0.2885(2)
C10B C -0.20145(18) 1.0775(3) -0.2308(2)
C9B C -0.1599(2) 1.1282(3) -0.0997(3)
C8B C -0.06807(18) 1.0620(3) -0.0348(2)
H14B H -0.192(2) 1.192(3) -0.068(3)
Si2B Si -0.33109(5) 1.13427(10) -0.34021(7)
C3B C -0.4456(2) 1.0568(6) -0.2797(4)
H4B H -0.4789 1.1356 -0.2402
H5B H -0.4962 1.0145 -0.3525
H6B H -0.4208 0.9803 -0.2151
C4B C -0.3472(4) 1.3368(5) -0.3651(4)
H10B H -0.383(4) 1.352(6) -0.419(5)
H11B H -0.363(3) 1.384(5) -0.269(4)
H12B H -0.294(3) 1.376(5) -0.408(4)
O1B O -0.31825(15) 1.0474(3) -0.47584(18)
Si1B Si -0.22184(6) 0.92177(10) -0.46024(7)
C1B C -0.2778(4) 0.7326(4) -0.4703(4)
H1B H -0.2359 0.6673 -0.5123
H2B H -0.2770 0.6965 -0.3828
H3B H -0.3498 0.7348 -0.5209
C2B C -0.1423(4) 0.9468(6) -0.5856(4)
H7B H -0.190(4) 0.934(7) -0.653(5)
H8B H -0.088(3) 0.871(5) -0.556(4)
H9B H -0.111(4) 1.033(6) -0.582(4)
H13B H -0.020(2) 0.823(3) -0.259(3)
loop_
_geom_bond_atom_site_label_1
_geom_bond_atom_site_label_2
_geom_bond_site_symmetry_1
_geom_bond_site_symmetry_2
C1 H1 1_555 1_555
H2 C1 1_555 1_555
H3 C1 1_555 1_555
C2 H7 1_555 1_555
C3 H4 1_555 1_555
H5 C3 1_555 1_555
H6 C3 1_555 1_555
C4 H10 1_555 1_555
C5 C6 1_555 1_555
C6 C7 1_555 1_555
C7 C8 1_555 1_555
C8 C9 1_555 1_555
C9 C10 1_555 1_555
C10 C5 1_555 1_555
H8 C2 1_555 1_555
H9 C2 1_555 1_555
H11 C4 1_555 1_555
H12 C4 1_555 1_555
H13 C6 1_555 1_555
H14 C9 1_555 1_555
O1 Si1 1_555 1_555
Si1 C1 1_555 1_555
Si2 C3 1_555 1_555
C7B C8 1_555 1_555
C6B C7B 1_555 1_555
C5B C6B 1_555 1_555
C10B C5B 1_555 1_555
C9B C10B 1_555 1_555
C8B C7 1_555 1_555
H14B C9B 1_555 1_555
Si2B C10B 1_555 1_555
C3B Si2B 1_555 1_555
H4B C3B 1_555 1_555
H5B C3B 1_555 1_555
H6B C3B 1_555 1_555
C4B Si2B 1_555 1_555
H10B C4B 1_555 1_555
H11B C4B 1_555 1_555
H12B C4B 1_555 1_555
O1B Si2B 1_555 1_555
Si1B C5B 1_555 1_555
C1B Si1B 1_555 1_555
H1B C1B 1_555 1_555
H2B C1B 1_555 1_555
H3B C1B 1_555 1_555
C2B Si1B 1_555 1_555
H7B C2B 1_555 1_555
H8B C2B 1_555 1_555
H9B C2B 1_555 1_555
H13B C6B 1_555 1_555
C2 Si1 1_555 1_555
C4 Si2 1_555 1_555
C5 Si1 1_555 1_555
C10 Si2 1_555 1_555
O1 Si2 1_555 1_555
C7B C8B 1_555 1_555
C9B C8B 1_555 1_555
O1B Si1B 1_555 1_555

#END
