
#######################################################################
#
#                 Cambridge Crystallographic Data Centre
#                                CCDC 
#
#######################################################################
#
# If this CIF has been generated from an entry in the Cambridge 
# Structural Database, then it will include bibliographic, chemical, 
# crystal, experimental, refinement or atomic coordinate data resulting 
# from the CCDC's data processing and validation procedures.
#
#######################################################################

data_EFIRAM
_chemical_formula_moiety         'C14 H18 O2 Si2'
_chemical_name_systematic        
1,1,3,3-tetramethyl-1,3,5,8-tetrahydro-5,8-epoxynaphtho[2,3-c][1,2,5]oxadisilole
_symmetry_cell_setting           orthorhombic
_symmetry_space_group_name_H-M   'P b c a'
_symmetry_Int_Tables_number      61
_space_group_name_Hall           '-P 2ac 2ab'
loop_
_symmetry_equiv_pos_site_id
_symmetry_equiv_pos_as_xyz
1 x,y,z
2 1/2+x,y,1/2-z
3 x,1/2-y,1/2+z
4 1/2-x,1/2+y,z
5 -x,-y,-z
6 1/2-x,-y,1/2+z
7 -x,1/2+y,1/2-z
8 1/2+x,1/2-y,-z
_cell_length_a                   9.0501(9)
_cell_length_b                   10.5460(11)
_cell_length_c                   31.943(3)
_cell_angle_alpha                90
_cell_angle_beta                 90
_cell_angle_gamma                90
_cell_volume                     3048.72
_exptl_crystal_colour            colorless
_exptl_crystal_description       block
_cell_formula_units_Z            8
loop_
_atom_site_label
_atom_site_type_symbol
_atom_site_fract_x
_atom_site_fract_y
_atom_site_fract_z
C1 C 0.9116(2) 0.5465(2) 0.19816(7)
C2 C 1.0193(2) 0.49830(18) 0.22084(7)
C3 C 0.96949(19) 0.36484(18) 0.23246(5)
C4 C 0.97201(15) 0.28618(15) 0.19232(5)
C5 C 0.85741(16) 0.33777(15) 0.16783(5)
C6 C 0.79440(19) 0.44363(19) 0.19549(6)
C7 C 1.05600(16) 0.18722(15) 0.17828(5)
C8 C 1.02686(16) 0.13749(15) 0.13807(5)
C9 C 0.91326(17) 0.19041(15) 0.11330(5)
C10 C 0.82780(17) 0.29197(15) 0.12875(5)
C11 C 1.0984(3) -0.1478(2) 0.14500(11)
C12 C 1.3101(3) 0.0183(3) 0.09654(12)
C13 C 0.9724(5) 0.2115(3) 0.01883(8)
C14 C 0.7095(4) 0.0578(3) 0.04785(12)
H1 H 0.905(2) 0.617(2) 0.1845(8)
H2 H 1.117(2) 0.531(2) 0.2271(8)
H3 H 1.013(2) 0.3275(18) 0.2582(6)
H4 H 0.688(3) 0.466(2) 0.1915(7)
H5 H 1.1361(19) 0.1529(17) 0.1962(6)
H6 H 0.752(2) 0.3258(18) 0.1130(6)
H7 H 1.141(4) -0.200(3) 0.1282(12)
H8 H 1.153(5) -0.127(4) 0.1720(14)
H9 H 0.998(4) -0.175(3) 0.1485(11)
H10 H 1.314(3) 0.091(3) 0.0777(9)
H11 H 1.341(4) -0.045(4) 0.0814(12)
H12 H 1.370(4) 0.033(3) 0.1184(12)
H13 H 1.080(4) 0.233(4) 0.0270(13)
H14 H 0.964(3) 0.171(3) -0.0075(11)
H15 H 0.927(4) 0.281(4) 0.0163(12)
H16 H 0.654(4) 0.125(4) 0.0441(12)
H17 H 0.685(5) 0.001(4) 0.0639(14)
H18 H 0.723(5) 0.028(4) 0.0181(15)
O1 O 0.81101(13) 0.38487(13) 0.23618(4)
O2 O 1.00893(19) -0.01060(12) 0.07008(5)
Si1 Si 1.11479(5) -0.00297(5) 0.112192(18)
Si2 Si 0.89778(6) 0.11118(5) 0.061048(15)
loop_
_geom_bond_atom_site_label_1
_geom_bond_atom_site_label_2
_geom_bond_site_symmetry_1
_geom_bond_site_symmetry_2
C1 C2 1_555 1_555
C2 C3 1_555 1_555
C3 C4 1_555 1_555
C4 C5 1_555 1_555
C5 C6 1_555 1_555
C6 C1 1_555 1_555
C7 C4 1_555 1_555
C8 C7 1_555 1_555
C9 C8 1_555 1_555
C10 C5 1_555 1_555
C11 H7 1_555 1_555
C12 H10 1_555 1_555
C13 H13 1_555 1_555
C14 H16 1_555 1_555
H1 C1 1_555 1_555
H2 C2 1_555 1_555
H3 C3 1_555 1_555
H4 C6 1_555 1_555
H5 C7 1_555 1_555
H6 C10 1_555 1_555
H8 C11 1_555 1_555
H9 C11 1_555 1_555
H11 C12 1_555 1_555
H12 C12 1_555 1_555
H14 C13 1_555 1_555
H15 C13 1_555 1_555
H17 C14 1_555 1_555
H18 C14 1_555 1_555
O1 C3 1_555 1_555
O2 Si1 1_555 1_555
Si1 C8 1_555 1_555
Si2 C9 1_555 1_555
C6 O1 1_555 1_555
C9 C10 1_555 1_555
C11 Si1 1_555 1_555
C12 Si1 1_555 1_555
C13 Si2 1_555 1_555
C14 Si2 1_555 1_555
O2 Si2 1_555 1_555

#END
