
#######################################################################
#
#                 Cambridge Crystallographic Data Centre
#                                CCDC 
#
#######################################################################
#
# If this CIF has been generated from an entry in the Cambridge 
# Structural Database, then it will include bibliographic, chemical, 
# crystal, experimental, refinement or atomic coordinate data resulting 
# from the CCDC's data processing and validation procedures.
#
#######################################################################

data_EFIROB
_chemical_formula_moiety         'C10 H16 O2 Si2'
_chemical_name_systematic        
2,2,3,3-Tetramethyl-2,3-disila-1,4-benzodioxane
_symmetry_cell_setting           orthorhombic
_symmetry_space_group_name_H-M   'P b c a'
_symmetry_Int_Tables_number      61
_space_group_name_Hall           '-P 2ac 2ab'
loop_
_symmetry_equiv_pos_site_id
_symmetry_equiv_pos_as_xyz
1 x,y,z
2 1/2-x,-y,1/2+z
3 -x,1/2+y,1/2-z
4 1/2+x,1/2-y,-z
5 -x,-y,-z
6 1/2+x,y,1/2-z
7 x,1/2-y,1/2+z
8 1/2-x,1/2+y,z
_cell_length_a                   7.1274(6)
_cell_length_b                   12.8608(10)
_cell_length_c                   27.091(2)
_cell_angle_alpha                90
_cell_angle_beta                 90
_cell_angle_gamma                90
_cell_volume                     2483.27
_exptl_crystal_colour            colorless
_exptl_crystal_description       prism
_cell_formula_units_Z            8
_exptl_crystal_recrystallization_method sublimation
loop_
_atom_site_label
_atom_site_type_symbol
_atom_site_fract_x
_atom_site_fract_y
_atom_site_fract_z
Si1 Si 0.19723(6) 0.26956(3) 0.089784(15)
Si2 Si 0.21278(6) 0.22765(3) 0.173523(16)
O1 O -0.01432(16) 0.21685(8) 0.07716(4)
O2 O 0.00631(18) 0.16499(9) 0.17912(4)
C1 C -0.0639(2) 0.11995(11) 0.09433(6)
C2 C -0.0543(2) 0.09446(12) 0.14437(6)
C3 C -0.1140(2) -0.00312(13) 0.15997(7)
H1 H -0.1085 -0.0204 0.1940
C4 C -0.1812(2) -0.07536(13) 0.12650(8)
H2 H -0.2217 -0.1418 0.1375
C5 C -0.1891(2) -0.05046(14) 0.07702(8)
H3 H -0.2343 -0.1000 0.0539
C6 C -0.1311(2) 0.04672(12) 0.06101(6)
H4 H -0.1373 0.0634 0.0269
C7 C 0.3791(3) 0.20733(13) 0.05045(6)
H5 H 0.3894 0.1335 0.0590
H6 H 0.5002 0.2415 0.0560
H7 H 0.3437 0.2141 0.0156
C8 C 0.1712(2) 0.40951(12) 0.07555(7)
H8 H 0.0754 0.4399 0.0971
H9 H 0.1332 0.4179 0.0410
H10 H 0.2912 0.4449 0.0810
C9 C 0.4090(3) 0.13991(15) 0.19032(7)
H11 H 0.4170 0.0832 0.1662
H12 H 0.3869 0.1110 0.2233
H13 H 0.5269 0.1791 0.1903
C10 C 0.1926(3) 0.33786(14) 0.21745(7)
H14 H 0.0878 0.3826 0.2076
H15 H 0.3093 0.3782 0.2172
H16 H 0.1701 0.3109 0.2508
loop_
_geom_bond_atom_site_label_1
_geom_bond_atom_site_label_2
_geom_bond_site_symmetry_1
_geom_bond_site_symmetry_2
Si1 Si2 1_555 1_555
Si2 O2 1_555 1_555
O1 Si1 1_555 1_555
O2 C2 1_555 1_555
C1 O1 1_555 1_555
C2 C1 1_555 1_555
C3 C2 1_555 1_555
H1 C3 1_555 1_555
C4 C3 1_555 1_555
H2 C4 1_555 1_555
C5 C4 1_555 1_555
H3 C5 1_555 1_555
C6 C1 1_555 1_555
H4 C6 1_555 1_555
C7 Si1 1_555 1_555
H5 C7 1_555 1_555
H6 C7 1_555 1_555
H7 C7 1_555 1_555
C8 Si1 1_555 1_555
H8 C8 1_555 1_555
H9 C8 1_555 1_555
H10 C8 1_555 1_555
C9 Si2 1_555 1_555
H11 C9 1_555 1_555
H12 C9 1_555 1_555
H13 C9 1_555 1_555
C10 Si2 1_555 1_555
H14 C10 1_555 1_555
H15 C10 1_555 1_555
H16 C10 1_555 1_555
C5 C6 1_555 1_555

#END
