
#######################################################################
#
#                 Cambridge Crystallographic Data Centre
#                                CCDC 
#
#######################################################################
#
# If this CIF has been generated from an entry in the Cambridge 
# Structural Database, then it will include bibliographic, chemical, 
# crystal, experimental, refinement or atomic coordinate data resulting 
# from the CCDC's data processing and validation procedures.
#
#######################################################################

data_EFODOU
_chemical_formula_moiety         'C29 H26 N6'
_chemical_name_systematic        
3-methyl-4-(3-methyl-5-(4-methylphenyl)-1-phenyl-1,6-dihydropyrrolo[2,3-c]pyrazol-4-yl)-1-phenyl-1H-pyrazol-5-amine
_symmetry_cell_setting           monoclinic
_symmetry_space_group_name_H-M   'P 21/n'
_symmetry_Int_Tables_number      14
_space_group_name_Hall           '-P 2yn'
loop_
_symmetry_equiv_pos_site_id
_symmetry_equiv_pos_as_xyz
1 x,y,z
2 1/2-x,1/2+y,1/2-z
3 -x,-y,-z
4 1/2+x,1/2-y,1/2+z
_cell_length_a                   9.5645(9)
_cell_length_b                   15.6682(17)
_cell_length_c                   17.0313(18)
_cell_angle_alpha                90
_cell_angle_beta                 95.2300(10)
_cell_angle_gamma                90
_cell_volume                     2541.66
_cell_formula_units_Z            4
loop_
_atom_site_label
_atom_site_type_symbol
_atom_site_fract_x
_atom_site_fract_y
_atom_site_fract_z
N1 N 0.7780(3) 0.44420(17) 0.53059(15)
N2 N 0.7127(3) 0.50793(17) 0.48328(15)
N3 N 0.7990(3) 0.43256(16) 0.68042(14)
H1 H 0.8498 0.3883 0.6923
N4 N 0.4686(3) 0.73885(16) 0.73863(15)
N5 N 0.5951(3) 0.76131(16) 0.77902(16)
N6 N 0.3666(3) 0.62362(18) 0.66233(18)
H2 H 0.2867 0.6491 0.6569
H3 H 0.3761 0.5743 0.6413
C1 C 0.7560(3) 0.46089(19) 0.60689(18)
C2 C 0.6773(3) 0.53386(19) 0.61009(18)
C3 C 0.6530(3) 0.5610(2) 0.53103(19)
C4 C 0.5759(4) 0.6385(2) 0.4987(2)
H4 H 0.5576 0.6331 0.4426
H5 H 0.6320 0.6884 0.5108
H6 H 0.4886 0.6437 0.5220
C5 C 0.4779(3) 0.66124(19) 0.70420(18)
C6 C 0.6129(3) 0.63191(18) 0.72181(18)
C7 C 0.6804(3) 0.6970(2) 0.76750(19)
C8 C 0.8301(4) 0.7006(2) 0.8022(2)
H7 H 0.8589 0.7591 0.8085
H8 H 0.8890 0.6721 0.7678
H9 H 0.8383 0.6729 0.8527
C9 C 0.6717(3) 0.55358(18) 0.69174(18)
C10 C 0.7444(3) 0.48947(18) 0.73320(17)
C11 C 0.7675(3) 0.4727(2) 0.81814(18)
C12 C 0.6773(4) 0.5036(2) 0.8708(2)
H10 H 0.6014 0.5374 0.8522
C13 C 0.6982(5) 0.4852(3) 0.9504(2)
H11 H 0.6359 0.5076 0.9839
C14 C 0.8068(5) 0.4355(3) 0.9817(2)
C15 C 0.8980(5) 0.4061(3) 0.9302(3)
H12 H 0.9744 0.3732 0.9495
C16 C 0.8795(4) 0.4241(3) 0.8503(2)
H13 H 0.9439 0.4031 0.8174
C17 C 0.8256(6) 0.4134(3) 1.0686(2)
H14 H 0.7667 0.4496 1.0969
H15 H 0.9220 0.4219 1.0882
H16 H 0.8002 0.3549 1.0758
C18 C 0.8677(3) 0.3852(2) 0.4987(2)
C19 C 0.8862(4) 0.3060(3) 0.5316(2)
H17 H 0.8366 0.2902 0.5739
C20 C 0.9800(5) 0.2488(3) 0.5015(3)
H18 H 0.9943 0.1951 0.5241
C21 C 1.0499(5) 0.2719(4) 0.4393(4)
H19 H 1.1126 0.2339 0.4194
C22 C 1.0293(5) 0.3498(4) 0.4057(3)
H20 H 1.0762 0.3642 0.3621
C23 C 0.9393(4) 0.4083(3) 0.4354(2)
H21 H 0.9274 0.4622 0.4131
C24 C 0.3529(3) 0.79628(19) 0.73768(19)
C25 C 0.2719(4) 0.8131(2) 0.6683(2)
H22 H 0.2898 0.7857 0.6219
C26 C 0.1636(5) 0.8714(3) 0.6689(3)
H23 H 0.1071 0.8826 0.6227
C27 C 0.1394(5) 0.9124(3) 0.7367(3)
H24 H 0.0652 0.9507 0.7371
C28 C 0.2234(5) 0.8975(3) 0.8038(3)
H25 H 0.2089 0.9275 0.8495
C29 C 0.3296(4) 0.8383(2) 0.8050(2)
H26 H 0.3851 0.8272 0.8516
loop_
_geom_bond_atom_site_label_1
_geom_bond_atom_site_label_2
_geom_bond_site_symmetry_1
_geom_bond_site_symmetry_2
N1 N2 1_555 1_555
N2 C3 1_555 1_555
N3 H1 1_555 1_555
N4 N5 1_555 1_555
N5 C7 1_555 1_555
N6 H2 1_555 1_555
H3 N6 1_555 1_555
C1 N1 1_555 1_555
C2 C1 1_555 1_555
C3 C2 1_555 1_555
C4 C3 1_555 1_555
H4 C4 1_555 1_555
H5 C4 1_555 1_555
H6 C4 1_555 1_555
C5 N4 1_555 1_555
C6 C5 1_555 1_555
C7 C6 1_555 1_555
C8 C7 1_555 1_555
H7 C8 1_555 1_555
H8 C8 1_555 1_555
H9 C8 1_555 1_555
C9 C2 1_555 1_555
C10 N3 1_555 1_555
C11 C10 1_555 1_555
C12 C11 1_555 1_555
H10 C12 1_555 1_555
C13 C12 1_555 1_555
H11 C13 1_555 1_555
C14 C13 1_555 1_555
C15 C14 1_555 1_555
H12 C15 1_555 1_555
C16 C11 1_555 1_555
H13 C16 1_555 1_555
C17 C14 1_555 1_555
H14 C17 1_555 1_555
H15 C17 1_555 1_555
H16 C17 1_555 1_555
C18 N1 1_555 1_555
C19 C18 1_555 1_555
H17 C19 1_555 1_555
C20 C19 1_555 1_555
H18 C20 1_555 1_555
C21 C20 1_555 1_555
H19 C21 1_555 1_555
C22 C21 1_555 1_555
H20 C22 1_555 1_555
C23 C18 1_555 1_555
H21 C23 1_555 1_555
C24 N4 1_555 1_555
C25 C24 1_555 1_555
H22 C25 1_555 1_555
C26 C25 1_555 1_555
H23 C26 1_555 1_555
C27 C26 1_555 1_555
H24 C27 1_555 1_555
C28 C27 1_555 1_555
H25 C28 1_555 1_555
C29 C24 1_555 1_555
H26 C29 1_555 1_555
N3 C1 1_555 1_555
N6 C5 1_555 1_555
C6 C9 1_555 1_555
C9 C10 1_555 1_555
C15 C16 1_555 1_555
C22 C23 1_555 1_555
C28 C29 1_555 1_555

#END
