
#######################################################################
#
#                 Cambridge Crystallographic Data Centre
#                                CCDC 
#
#######################################################################
#
# If this CIF has been generated from an entry in the Cambridge 
# Structural Database, then it will include bibliographic, chemical, 
# crystal, experimental, refinement or atomic coordinate data resulting 
# from the CCDC's data processing and validation procedures.
#
#######################################################################

data_EFOFAI
_chemical_formula_moiety         'C26 H20 Cl2 N6'
_chemical_name_systematic        
5,10-bis(4-chlorophenyl)-1,3,7,9-tetramethyl-3,7-dihydrodipyrazolo[3,4-b:4',3'-f][1,7]naphthyridine
_symmetry_cell_setting           monoclinic
_symmetry_space_group_name_H-M   'P 21/n'
_symmetry_Int_Tables_number      14
_space_group_name_Hall           '-P 2yn'
loop_
_symmetry_equiv_pos_site_id
_symmetry_equiv_pos_as_xyz
1 x,y,z
2 1/2-x,1/2+y,1/2-z
3 -x,-y,-z
4 1/2+x,1/2-y,1/2+z
_cell_length_a                   9.5850(6)
_cell_length_b                   12.7985(7)
_cell_length_c                   18.4861(12)
_cell_angle_alpha                90
_cell_angle_beta                 91.2990(10)
_cell_angle_gamma                90
_cell_volume                     2267.17
_cell_formula_units_Z            4
loop_
_atom_site_label
_atom_site_type_symbol
_atom_site_fract_x
_atom_site_fract_y
_atom_site_fract_z
Cl1 Cl 0.25444(10) -0.05684(6) 0.64170(5)
Cl2 Cl 0.19386(10) 1.04599(7) 0.33074(6)
N1 N 0.1636(2) 0.61195(18) 0.52352(13)
N2 N 0.4074(2) 0.55915(18) 0.38270(13)
N3 N 0.0243(2) 0.60670(19) 0.62931(14)
N4 N -0.0092(3) 0.5351(2) 0.68135(14)
N5 N 0.5157(2) 0.39862(19) 0.35435(13)
N6 N 0.5148(2) 0.29718(19) 0.37443(14)
C1 C 0.1090(3) 0.5630(2) 0.57902(16)
C2 C 0.1273(3) 0.4579(2) 0.59878(15)
C3 C 0.2124(3) 0.3952(2) 0.55704(15)
C4 C 0.2774(3) 0.4412(2) 0.49729(15)
C5 C 0.2516(3) 0.5515(2) 0.48383(15)
C6 C 0.3189(3) 0.6060(2) 0.42513(15)
C7 C 0.4291(3) 0.4563(2) 0.39558(16)
C8 C 0.3714(3) 0.3912(2) 0.44691(16)
C9 C 0.0501(3) 0.4460(2) 0.66402(16)
C10 C 0.0377(3) 0.3530(2) 0.71243(17)
H1 H -0.0212 0.3700 0.7521
H2 H 0.1285 0.3336 0.7308
H3 H -0.0023 0.2958 0.6855
C11 C -0.0185(4) 0.7145(2) 0.6356(2)
H4 H -0.1164 0.7202 0.6242
H5 H 0.0331 0.7565 0.6025
H6 H -0.0006 0.7383 0.6841
C12 C 0.4286(3) 0.2900(2) 0.43037(16)
C13 C 0.4088(3) 0.1817(2) 0.45858(18)
H7 H 0.4550 0.1328 0.4278
H8 H 0.3109 0.1658 0.4593
H9 H 0.4477 0.1769 0.5068
C14 C 0.5938(3) 0.4317(2) 0.29215(17)
H10 H 0.6864 0.4034 0.2954
H11 H 0.5986 0.5066 0.2912
H12 H 0.5480 0.4071 0.2487
C15 C 0.2252(3) 0.2822(2) 0.57845(15)
C16 C 0.1193(3) 0.2130(2) 0.55973(17)
H13 H 0.0419 0.2369 0.5333
C17 C 0.1270(3) 0.1089(2) 0.57970(17)
H14 H 0.0565 0.0625 0.5661
C18 C 0.2405(3) 0.0754(2) 0.61989(17)
C19 C 0.3444(3) 0.1429(2) 0.64264(17)
H15 H 0.4184 0.1193 0.6716
C20 C 0.3366(3) 0.2467(2) 0.62150(16)
H16 H 0.4064 0.2931 0.6362
C21 C 0.2883(3) 0.7172(2) 0.40632(16)
C22 C 0.2838(3) 0.7432(2) 0.33266(17)
H17 H 0.2998 0.6915 0.2984
C23 C 0.2562(3) 0.8436(3) 0.30996(18)
H18 H 0.2509 0.8589 0.2608
C24 C 0.2366(3) 0.9208(2) 0.35967(18)
C25 C 0.2463(3) 0.8994(2) 0.43263(17)
H19 H 0.2363 0.9529 0.4662
C26 C 0.2710(3) 0.7980(2) 0.45591(16)
H20 H 0.2761 0.7837 0.5052
loop_
_geom_bond_atom_site_label_1
_geom_bond_atom_site_label_2
_geom_bond_site_symmetry_1
_geom_bond_site_symmetry_2
Cl1 C18 1_555 1_555
Cl2 C24 1_555 1_555
N1 C1 1_555 1_555
N2 C6 1_555 1_555
N3 N4 1_555 1_555
N4 C9 1_555 1_555
N5 N6 1_555 1_555
N6 C12 1_555 1_555
C1 N3 1_555 1_555
C2 C1 1_555 1_555
C3 C2 1_555 1_555
C4 C3 1_555 1_555
C5 N1 1_555 1_555
C6 C5 1_555 1_555
C7 N2 1_555 1_555
C8 C4 1_555 1_555
C9 C2 1_555 1_555
C10 C9 1_555 1_555
H1 C10 1_555 1_555
H2 C10 1_555 1_555
H3 C10 1_555 1_555
C11 N3 1_555 1_555
H4 C11 1_555 1_555
H5 C11 1_555 1_555
H6 C11 1_555 1_555
C12 C8 1_555 1_555
C13 C12 1_555 1_555
H7 C13 1_555 1_555
H8 C13 1_555 1_555
H9 C13 1_555 1_555
C14 N5 1_555 1_555
H10 C14 1_555 1_555
H11 C14 1_555 1_555
H12 C14 1_555 1_555
C15 C3 1_555 1_555
C16 C15 1_555 1_555
H13 C16 1_555 1_555
C17 C16 1_555 1_555
H14 C17 1_555 1_555
C18 C17 1_555 1_555
C19 C18 1_555 1_555
H15 C19 1_555 1_555
C20 C15 1_555 1_555
H16 C20 1_555 1_555
C21 C6 1_555 1_555
C22 C21 1_555 1_555
H17 C22 1_555 1_555
C23 C22 1_555 1_555
H18 C23 1_555 1_555
C24 C23 1_555 1_555
C25 C24 1_555 1_555
H19 C25 1_555 1_555
C26 C21 1_555 1_555
H20 C26 1_555 1_555
N5 C7 1_555 1_555
C4 C5 1_555 1_555
C7 C8 1_555 1_555
C19 C20 1_555 1_555
C25 C26 1_555 1_555

#END
