
#######################################################################
#
#                 Cambridge Crystallographic Data Centre
#                                CCDC 
#
#######################################################################
#
# If this CIF has been generated from an entry in the Cambridge 
# Structural Database, then it will include bibliographic, chemical, 
# crystal, experimental, refinement or atomic coordinate data resulting 
# from the CCDC's data processing and validation procedures.
#
#######################################################################

data_EFOGIR
_chemical_formula_moiety         'C32 H20 S3'
_chemical_name_systematic        
2,5-bis(biphenyl-4-yl)bisthieno[2,3-b:3',2'-d]thiophene
_symmetry_cell_setting           orthorhombic
_symmetry_space_group_name_H-M   'P n m a'
_symmetry_Int_Tables_number      62
_space_group_name_Hall           '-P 2ac 2n'
loop_
_symmetry_equiv_pos_site_id
_symmetry_equiv_pos_as_xyz
1 x,y,z
2 1/2-x,-y,1/2+z
3 -x,1/2+y,-z
4 1/2+x,1/2-y,1/2-z
5 -x,-y,-z
6 1/2+x,y,1/2-z
7 x,1/2-y,z
8 1/2-x,1/2+y,1/2+z
_cell_length_a                   6.6006(5)
_cell_length_b                   48.196(4)
_cell_length_c                   7.3292(6)
_cell_angle_alpha                90
_cell_angle_beta                 90
_cell_angle_gamma                90
_cell_volume                     2331.58
_cell_formula_units_Z            4
loop_
_atom_site_label
_atom_site_type_symbol
_atom_site_fract_x
_atom_site_fract_y
_atom_site_fract_z
S1 S 0.0434(2) 0.18988(3) 0.06368(18)
S2 S 0.2188(3) 0.2500 0.0862(2)
C1 C -0.2858(8) 0.21317(10) -0.0557(6)
H1 H -0.4163 0.2159 -0.0999
C2 C -0.4968(9) 0.15625(12) -0.0818(6)
H2 H -0.5634 0.1711 -0.1367
C3 C -0.2094(8) 0.18773(9) -0.0095(6)
C4 C -0.3058(7) 0.16038(9) -0.0077(6)
C5 C -0.5906(9) 0.13046(12) -0.0759(6)
H3 H -0.7201 0.1286 -0.1244
C6 C 0.0441(8) 0.22494(11) 0.0326(7)
C7 C -0.3028(9) 0.11158(12) 0.0703(6)
H4 H -0.2336 0.0967 0.1213
C8 C -0.4966(7) 0.10719(9) 0.0005(6)
C9 C -0.5922(7) 0.07938(10) 0.0017(6)
C10 C -0.1437(8) 0.23512(10) -0.0286(6)
C11 C -0.5076(9) 0.05780(12) 0.1017(7)
H5 H -0.3924 0.0611 0.1715
C12 C -0.7667(10) 0.07342(13) -0.0957(7)
H6 H -0.8289 0.0876 -0.1612
C13 C -0.7627(9) 0.02612(13) -0.0020(8)
H7 H -0.8180 0.0084 -0.0051
C14 C -0.2095(9) 0.13733(12) 0.0667(6)
H8 H -0.0799 0.1392 0.1149
C15 C -0.5934(9) 0.03116(13) 0.0991(7)
H9 H -0.5346 0.0169 0.1664
C16 C -0.8521(11) 0.04723(13) -0.0993(8)
H10 H -0.9688 0.0439 -0.1669
S1F S 0.0434(2) 0.31012(3) 0.06368(18)
C1F C -0.2858(8) 0.28683(10) -0.0557(6)
H1F H -0.4163 0.2841 -0.0999
C2F C -0.4968(9) 0.34375(12) -0.0818(6)
H2F H -0.5634 0.3289 -0.1367
C3F C -0.2094(8) 0.31227(9) -0.0095(6)
C4F C -0.3058(7) 0.33962(9) -0.0077(6)
C5F C -0.5906(9) 0.36954(12) -0.0759(6)
H3F H -0.7201 0.3714 -0.1244
C6F C 0.0441(8) 0.27506(11) 0.0326(7)
C7F C -0.3028(9) 0.38842(12) 0.0703(6)
H4F H -0.2336 0.4033 0.1213
C8F C -0.4966(7) 0.39281(9) 0.0005(6)
C9F C -0.5922(7) 0.42062(10) 0.0017(6)
C10F C -0.1437(8) 0.26488(10) -0.0286(6)
C11F C -0.5076(9) 0.44220(12) 0.1017(7)
H5F H -0.3924 0.4389 0.1715
C12F C -0.7667(10) 0.42658(13) -0.0957(7)
H6F H -0.8289 0.4124 -0.1612
C13F C -0.7627(9) 0.47388(13) -0.0020(8)
H7F H -0.8180 0.4916 -0.0051
C14F C -0.2095(9) 0.36267(12) 0.0667(6)
H8F H -0.0799 0.3608 0.1149
C15F C -0.5934(9) 0.46884(13) 0.0991(7)
H9F H -0.5346 0.4831 0.1664
C16F C -0.8521(11) 0.45277(13) -0.0993(8)
H10F H -0.9688 0.4561 -0.1669
loop_
_geom_bond_atom_site_label_1
_geom_bond_atom_site_label_2
_geom_bond_site_symmetry_1
_geom_bond_site_symmetry_2
S1 C3 1_555 1_555
S2 C6 1_555 1_555
C1 H1 1_555 1_555
C2 H2 1_555 1_555
C3 C1 1_555 1_555
C4 C2 1_555 1_555
C5 C2 1_555 1_555
H3 C5 1_555 1_555
C6 S1 1_555 1_555
C7 H4 1_555 1_555
C8 C5 1_555 1_555
C9 C8 1_555 1_555
C10 C1 1_555 1_555
C11 C9 1_555 1_555
H5 C11 1_555 1_555
C12 C9 1_555 1_555
H6 C12 1_555 1_555
C13 H7 1_555 1_555
C14 C4 1_555 1_555
H8 C14 1_555 1_555
C15 C11 1_555 1_555
H9 C15 1_555 1_555
C16 C12 1_555 1_555
H10 C16 1_555 1_555
S1F C3F 1_555 1_555
C1F H1F 1_555 1_555
C2F H2F 1_555 1_555
C3F C1F 1_555 1_555
C4F C2F 1_555 1_555
C5F C2F 1_555 1_555
H3F C5F 1_555 1_555
C6F S2 1_555 1_555
C7F H4F 1_555 1_555
C8F C5F 1_555 1_555
C9F C8F 1_555 1_555
C10F C10 1_555 1_555
C11F C9F 1_555 1_555
H5F C11F 1_555 1_555
C12F C9F 1_555 1_555
H6F C12F 1_555 1_555
C13F H7F 1_555 1_555
C14F C4F 1_555 1_555
H8F C14F 1_555 1_555
C15F C11F 1_555 1_555
H9F C15F 1_555 1_555
C16F C12F 1_555 1_555
H10F C16F 1_555 1_555
C3 C4 1_555 1_555
C6 C10 1_555 1_555
C7 C8 1_555 1_555
C7 C14 1_555 1_555
C13 C15 1_555 1_555
C13 C16 1_555 1_555
S1F C6F 1_555 1_555
C1F C10F 1_555 1_555
C3F C4F 1_555 1_555
C6F C10F 1_555 1_555
C7F C8F 1_555 1_555
C7F C14F 1_555 1_555
C13F C15F 1_555 1_555
C13F C16F 1_555 1_555

#END
