
#######################################################################
#
#                 Cambridge Crystallographic Data Centre
#                                CCDC 
#
#######################################################################
#
# If this CIF has been generated from an entry in the Cambridge 
# Structural Database, then it will include bibliographic, chemical, 
# crystal, experimental, refinement or atomic coordinate data resulting 
# from the CCDC's data processing and validation procedures.
#
#######################################################################

data_EFOHAK
_chemical_formula_moiety         'C24 H16 Cl2 N4,2(H2 O1)'
_chemical_name_systematic        
"2,2'-(1,4-phenylene)bis(4-(4-chlorophenyl)-1H-imidazole) dihydrate"
_symmetry_cell_setting           monoclinic
_symmetry_space_group_name_H-M   'C 2/c'
_symmetry_Int_Tables_number      15
_space_group_name_Hall           '-C 2yn'
loop_
_symmetry_equiv_pos_site_id
_symmetry_equiv_pos_as_xyz
1 x,y,z
2 -x,y,1/2-z
3 1/2+x,1/2+y,z
4 1/2-x,1/2+y,1/2-z
5 -x,-y,-z
6 x,-y,1/2+z
7 1/2-x,1/2-y,-z
8 1/2+x,1/2-y,1/2+z
_cell_length_a                   42.130(8)
_cell_length_b                   3.9070(8)
_cell_length_c                   13.615(3)
_cell_angle_alpha                90
_cell_angle_beta                 103.27(3)
_cell_angle_gamma                90
_cell_volume                     2181.22
_exptl_crystal_colour            colorless
_exptl_crystal_description       prism
_cell_formula_units_Z            4
loop_
_atom_site_label
_atom_site_type_symbol
_atom_site_fract_x
_atom_site_fract_y
_atom_site_fract_z
C1 C 0.46637(12) 0.4237(14) 0.4810(3)
C2 C 0.48144(13) 0.5370(15) 0.4044(3)
H1 H 0.4691 0.5592 0.3387
C3 C 0.48623(14) 0.3856(15) 0.5749(4)
H2 H 0.4773 0.3036 0.6268
C4 C 0.43186(11) 0.3370(14) 0.4589(3)
C5 C 0.38277(12) 0.1920(15) 0.3746(3)
H3 H 0.3654 0.1263 0.3225
C6 C 0.38161(13) 0.2435(15) 0.4727(3)
C7 C 0.35420(13) 0.2166(15) 0.5220(3)
C8 C 0.35647(13) 0.3246(14) 0.6196(4)
H4 H 0.3756 0.4260 0.6555
C9 C 0.33005(13) 0.2827(15) 0.6652(4)
H5 H 0.3313 0.3553 0.7310
C10 C 0.30240(14) 0.1322(16) 0.6101(4)
C11 C 0.30004(14) 0.0201(16) 0.5160(4)
H6 H 0.2811 -0.0887 0.4816
C12 C 0.32545(14) 0.0652(16) 0.4704(4)
H7 H 0.3234 -0.0064 0.4041
Cl1 Cl 0.27036(4) 0.0699(5) 0.67156(11)
N1 N 0.41389(10) 0.2541(12) 0.3668(3)
H8 H 0.4209 0.2424 0.3124
N2 N 0.41272(10) 0.3389(11) 0.5268(3)
C1D C 0.53363(12) 0.5763(14) 0.5190(3)
C2D C 0.51856(13) 0.4630(15) 0.5956(3)
H1D H 0.5309 0.4408 0.6613
C3D C 0.51377(14) 0.6144(15) 0.4251(4)
H2D H 0.5227 0.6964 0.3732
C4D C 0.56814(11) 0.6630(14) 0.5411(3)
C5D C 0.61723(12) 0.8080(15) 0.6254(3)
H3D H 0.6346 0.8737 0.6775
C6D C 0.61839(13) 0.7565(15) 0.5273(3)
C7D C 0.64580(13) 0.7834(15) 0.4780(3)
C8D C 0.64353(13) 0.6754(14) 0.3804(4)
H4D H 0.6244 0.5740 0.3445
C9D C 0.66995(13) 0.7173(15) 0.3348(4)
H5D H 0.6687 0.6447 0.2690
C10D C 0.69760(14) 0.8678(16) 0.3899(4)
C11D C 0.69996(14) 0.9799(16) 0.4840(4)
H6D H 0.7189 1.0887 0.5184
C12D C 0.67455(14) 0.9348(16) 0.5296(4)
H7D H 0.6766 1.0064 0.5959
Cl1D Cl 0.72964(4) 0.9301(5) 0.32844(11)
N1D N 0.58611(10) 0.7459(12) 0.6332(3)
H8D H 0.5791 0.7576 0.6876
N2D N 0.58728(10) 0.6611(11) 0.4732(3)
O1 O 0.43173(11) 0.8304(14) 0.6858(3)
H9 H 0.4233(11) 1.011(15) 0.656(4)
H10 H 0.4359(15) 0.630(18) 0.646(5)
loop_
_geom_bond_atom_site_label_1
_geom_bond_atom_site_label_2
_geom_bond_site_symmetry_1
_geom_bond_site_symmetry_2
C1 C2 1_555 1_555
C2 H1 1_555 1_555
C3 C1 1_555 1_555
H2 C3 1_555 1_555
C4 C1 1_555 1_555
C5 H3 1_555 1_555
C6 C5 1_555 1_555
C7 C6 1_555 1_555
C8 C7 1_555 1_555
H4 C8 1_555 1_555
C9 C8 1_555 1_555
H5 C9 1_555 1_555
C10 C9 1_555 1_555
C11 C10 1_555 1_555
H6 C11 1_555 1_555
C12 C7 1_555 1_555
H7 C12 1_555 1_555
Cl1 C10 1_555 1_555
N1 C4 1_555 1_555
H8 N1 1_555 1_555
N2 C4 1_555 1_555
O1 H9 1_555 1_555
H10 O1 1_555 1_555
C1D C2D 1_555 1_555
C2D C3 1_555 1_555
H1D C2D 1_555 1_555
C3D C2 1_555 1_555
H2D C3D 1_555 1_555
C4D C1D 1_555 1_555
C5D H3D 1_555 1_555
C6D C5D 1_555 1_555
C7D C6D 1_555 1_555
C8D C7D 1_555 1_555
H4D C8D 1_555 1_555
C9D C8D 1_555 1_555
H5D C9D 1_555 1_555
C10D C9D 1_555 1_555
C11D C10D 1_555 1_555
H6D C11D 1_555 1_555
C12D C7D 1_555 1_555
H7D C12D 1_555 1_555
Cl1D C10D 1_555 1_555
N1D C4D 1_555 1_555
H8D N1D 1_555 1_555
N2D C4D 1_555 1_555
C5 N1 1_555 1_555
C6 N2 1_555 1_555
C11 C12 1_555 1_555
C1D C3D 1_555 1_555
C5D N1D 1_555 1_555
C6D N2D 1_555 1_555
C11D C12D 1_555 1_555

#END
