
#######################################################################
#
#                 Cambridge Crystallographic Data Centre
#                                CCDC 
#
#######################################################################
#
# If this CIF has been generated from an entry in the Cambridge 
# Structural Database, then it will include bibliographic, chemical, 
# crystal, experimental, refinement or atomic coordinate data resulting 
# from the CCDC's data processing and validation procedures.
#
#######################################################################

data_EFOVEC
_chemical_formula_moiety         'C43 H28 N4 O3'
_chemical_name_systematic        
'2,7,12,17-tetraphenyl-4-oxa-21,22,23,24-tetraazapentacyclo[16.2.1.1^3,6^.1^8,11^.1^13,16^]tetracosa-1(20),2,6(24),7,9,11,13(22),14,16,18-decaen-5-one 22-oxide'
_symmetry_cell_setting           triclinic
_symmetry_space_group_name_H-M   'P -1'
_symmetry_Int_Tables_number      2
_space_group_name_Hall           '-P 1'
loop_
_symmetry_equiv_pos_site_id
_symmetry_equiv_pos_as_xyz
1 x,y,z
2 -x,-y,-z
_cell_length_a                   6.3512(12)
_cell_length_b                   10.405(2)
_cell_length_c                   12.464(2)
_cell_angle_alpha                95.548(3)
_cell_angle_beta                 99.348(3)
_cell_angle_gamma                100.200(3)
_cell_volume                     793.189
_exptl_crystal_colour            black
_exptl_crystal_description       block
_cell_formula_units_Z            1
loop_
_atom_site_label
_atom_site_type_symbol
_atom_site_fract_x
_atom_site_fract_y
_atom_site_fract_z
C1 C -0.3131(3) 0.4285(2) 0.66082(19)
N1 N -0.132(2) 0.5132(16) 0.6439(7)
C2 C -0.160(2) 0.5349(17) 0.8218(11)
N2 N -0.132(2) 0.5132(16) 0.6439(7)
C3 C -0.2990(17) 0.4309(11) 0.7796(9)
H1 H -0.3930 0.3750 0.8151
H2 H -0.0847 0.5530 0.9064
C4 C -0.0261(3) 0.5819(2) 0.74314(18)
C5 C 0.1760(3) 0.6717(2) 0.76366(19)
C6 C 0.3127(3) 0.6980(2) 0.68682(19)
N3 N 0.2750(5) 0.6423(3) 0.5795(3)
H3 H 0.1601 0.5825 0.5475
C7 C 0.5221(9) 0.7860(6) 0.7068(4)
H4 H 0.5910 0.8389 0.7740
H5 H 0.7417 0.8238 0.6026
N4 N 0.2750(5) 0.6423(3) 0.5795(3)
N5 N 0.2750(5) 0.6423(3) 0.5795(3)
C8 C 0.605(4) 0.766(4) 0.6199(18)
C9 C 0.4418(3) 0.6931(2) 0.52916(18)
C10 C 0.4587(3) 0.6664(2) 0.41797(19)
C11 C 0.2558(4) 0.7396(2) 0.87888(19)
C12 C 0.1378(4) 0.8249(3) 0.9251(2)
H6 H 0.0059 0.8387 0.8840
C13 C 0.2131(5) 0.8894(3) 1.0309(2)
H7 H 0.1313 0.9464 1.0620
C14 C 0.4048(5) 0.8716(3) 1.0910(2)
H8 H 0.4563 0.9171 1.1629
C15 C 0.5222(5) 0.7875(3) 1.0464(2)
H9 H 0.6549 0.7753 1.0878
C16 C 0.4476(4) 0.7206(3) 0.9414(2)
H10 H 0.5281 0.6615 0.9121
C17 C 0.6396(3) 0.7525(2) 0.37954(18)
C18 C 0.6600(4) 0.8896(2) 0.39499(19)
H11 H 0.5591 0.9274 0.4300
C19 C 0.8262(4) 0.9711(2) 0.3597(2)
H12 H 0.8390 1.0640 0.3710
C20 C 0.9736(4) 0.9164(2) 0.3079(2)
H13 H 1.0875 0.9719 0.2839
C21 C 0.9545(4) 0.7808(2) 0.2912(2)
H14 H 1.0546 0.7435 0.2552
C22 C 0.7888(4) 0.6994(2) 0.3272(2)
H15 H 0.7772 0.6066 0.3160
C1A C 0.3131(3) 0.5715(2) 0.33918(19)
N1A N 0.132(2) 0.4868(16) 0.3561(7)
C2A C 0.160(2) 0.4651(17) 0.1782(11)
N1A_2 N 0.132(2) 0.4868(16) 0.3561(7)
C3A C 0.2990(17) 0.5691(11) 0.2204(9)
H1A H 0.3930 0.6250 0.1849
H2A H 0.0847 0.4470 0.0936
C4A C 0.0261(3) 0.4181(2) 0.25686(18)
C5A C -0.1760(3) 0.3283(2) 0.23634(19)
C6A C -0.3127(3) 0.3020(2) 0.31318(19)
N3A N -0.2750(5) 0.3577(3) 0.4205(3)
H3A H -0.1601 0.4175 0.4525
C7A C -0.5221(9) 0.2140(6) 0.2932(4)
H4A H -0.5910 0.1611 0.2260
H5A H -0.7417 0.1762 0.3974
N3A_2 N -0.2750(5) 0.3577(3) 0.4205(3)
N3A_3 N -0.2750(5) 0.3577(3) 0.4205(3)
C8A C -0.605(4) 0.234(4) 0.3801(18)
C9A C -0.4418(3) 0.3069(2) 0.47084(18)
C10A C -0.4587(3) 0.3336(2) 0.58203(19)
C11A C -0.2558(4) 0.2604(2) 0.12112(19)
C12A C -0.1378(4) 0.1751(3) 0.0749(2)
H6A H -0.0059 0.1613 0.1160
C13A C -0.2131(5) 0.1106(3) -0.0309(2)
H7A H -0.1313 0.0536 -0.0620
C14A C -0.4048(5) 0.1284(3) -0.0910(2)
H8A H -0.4563 0.0829 -0.1629
C15A C -0.5222(5) 0.2125(3) -0.0464(2)
H9A H -0.6549 0.2247 -0.0878
C16A C -0.4476(4) 0.2794(3) 0.0586(2)
H10A H -0.5281 0.3385 0.0879
C17A C -0.6396(3) 0.2475(2) 0.62046(18)
C18A C -0.6600(4) 0.1104(2) 0.60501(19)
H11A H -0.5591 0.0726 0.5700
C19A C -0.8262(4) 0.0289(2) 0.6403(2)
H12A H -0.8390 -0.0640 0.6290
C20A C -0.9736(4) 0.0836(2) 0.6921(2)
H13A H -1.0875 0.0281 0.7161
C21A C -0.9545(4) 0.2192(2) 0.7088(2)
H14A H -1.0546 0.2565 0.7448
C22A C -0.7888(4) 0.3006(2) 0.6728(2)
H15A H -0.7772 0.3934 0.6840
N6? N -0.132(2) 0.5132(16) 0.6439(7)
H16? H -0.0917 0.5218 0.5803
C23? C -0.314(2) 0.4428(17) 0.7792(9)
H17? H -0.4192 0.3959 0.8146
C24? C -0.137(3) 0.535(2) 0.8287(9)
H18? H -0.0944 0.5635 0.9052
N7? N 0.254(3) 0.673(2) 0.574(2)
O1? O 0.0475(14) 0.6399(9) 0.5187(8)
C25? C 0.541(2) 0.759(2) 0.7114(11)
H19? H 0.6258 0.7881 0.7826
C26? C 0.613(3) 0.769(4) 0.6156(14)
H20? H 0.7497 0.8157 0.6064
O2? O -0.3357(16) 0.4401(12) 0.7628(7)
O3? O -0.156(4) 0.574(2) 0.8167(17)
C27? C -0.336(3) 0.475(2) 0.7706(17)
O4? O -0.468(5) 0.441(3) 0.821(2)
N8? N -0.149(5) 0.524(3) 0.6446(12)
O5? O -0.1322(7) 0.5743(4) 0.5521(3)
O6? O 0.589(4) 0.786(3) 0.5993(18)
O7? O 0.517(4) 0.771(3) 0.7143(17)
C28? C -0.129(2) 0.5267(14) 0.8297(8)
C29? C 0.6032(11) 0.7794(10) 0.6122(5)
C30? C 0.517(4) 0.790(2) 0.6983(17)
O8? O -0.1305(10) 0.5544(7) 0.9180(5)
O9? O 0.630(2) 0.8609(12) 0.7705(11)
O10? O 0.786(6) 0.815(4) 0.619(4)
loop_
_geom_bond_atom_site_label_1
_geom_bond_atom_site_label_2
_geom_bond_site_symmetry_1
_geom_bond_site_symmetry_2
C1 N1 1_555 1_555
N1 C4 1_555 1_555
C2 C3 1_555 1_555
N2 C1 1_555 1_555
C3 C1 1_555 1_555
H1 C3 1_555 1_555
H2 C2 1_555 1_555
C4 C2 1_555 1_555
C5 C4 1_555 1_555
C6 C5 1_555 1_555
N3 C6 1_555 1_555
H3 N3 1_555 1_555
C7 C6 1_555 1_555
H4 C7 1_555 1_555
H5 C8 1_555 1_555
N4 C6 1_555 1_555
N5 C6 1_555 1_555
C8 C7 1_555 1_555
C9 N3 1_555 1_555
C10 C9 1_555 1_555
C11 C5 1_555 1_555
C12 C11 1_555 1_555
H6 C12 1_555 1_555
C13 C12 1_555 1_555
H7 C13 1_555 1_555
C14 C13 1_555 1_555
H8 C14 1_555 1_555
C15 C14 1_555 1_555
H9 C15 1_555 1_555
C16 C11 1_555 1_555
H10 C16 1_555 1_555
C17 C10 1_555 1_555
C18 C17 1_555 1_555
H11 C18 1_555 1_555
C19 C18 1_555 1_555
H12 C19 1_555 1_555
C20 C19 1_555 1_555
H13 C20 1_555 1_555
C21 C20 1_555 1_555
H14 C21 1_555 1_555
C22 C17 1_555 1_555
H15 C22 1_555 1_555
C1A C10 1_555 1_555
N1A C1A 1_555 1_555
C2A C3A 1_555 1_555
N1A_2 C1A 1_555 1_555
C3A C1A 1_555 1_555
H1A C3A 1_555 1_555
H2A C2A 1_555 1_555
C4A N1A 1_555 1_555
C5A C4A 1_555 1_555
C6A C5A 1_555 1_555
N3A C6A 1_555 1_555
H3A N3A 1_555 1_555
C7A C6A 1_555 1_555
H4A C7A 1_555 1_555
H5A C8A 1_555 1_555
N3A_2 C6A 1_555 1_555
N3A_3 C6A 1_555 1_555
C8A C7A 1_555 1_555
C9A N3A 1_555 1_555
C10A C1 1_555 1_555
C11A C5A 1_555 1_555
C12A C11A 1_555 1_555
H6A C12A 1_555 1_555
C13A C12A 1_555 1_555
H7A C13A 1_555 1_555
C14A C13A 1_555 1_555
H8A C14A 1_555 1_555
C15A C14A 1_555 1_555
H9A C15A 1_555 1_555
C16A C11A 1_555 1_555
H10A C16A 1_555 1_555
C17A C10A 1_555 1_555
C18A C17A 1_555 1_555
H11A C18A 1_555 1_555
C19A C18A 1_555 1_555
H12A C19A 1_555 1_555
C20A C19A 1_555 1_555
H13A C20A 1_555 1_555
C21A C20A 1_555 1_555
H14A C21A 1_555 1_555
C22A C17A 1_555 1_555
H15A C22A 1_555 1_555
N2 C4 1_555 1_555
H3 N4 1_555 1_555
H3 N5 1_555 1_555
N4 C9 1_555 1_555
N5 C9 1_555 1_555
C8 C9 1_555 1_555
C15 C16 1_555 1_555
C21 C22 1_555 1_555
C2A C4A 1_555 1_555
N1A_2 C4A 1_555 1_555
H3A N3A_2 1_555 1_555
H3A N3A_3 1_555 1_555
N3A_2 C9A 1_555 1_555
N3A_3 C9A 1_555 1_555
C8A C9A 1_555 1_555
C9A C10A 1_555 1_555
C15A C16A 1_555 1_555
C21A C22A 1_555 1_555

#END
