
#######################################################################
#
#                 Cambridge Crystallographic Data Centre
#                                CCDC 
#
#######################################################################
#
# If this CIF has been generated from an entry in the Cambridge 
# Structural Database, then it will include bibliographic, chemical, 
# crystal, experimental, refinement or atomic coordinate data resulting 
# from the CCDC's data processing and validation procedures.
#
#######################################################################

data_EFOZAB03
_chemical_name_common            'barbituric acid urea'
_chemical_formula_moiety         'C4 H4 N2 O3,C1 H4 N2 O1'
_chemical_name_systematic        '2,4,6(1H,3H,5H)-Pyrimidinetrione urea'
_symmetry_cell_setting           monoclinic
_symmetry_space_group_name_H-M   'P 21/c'
_symmetry_Int_Tables_number      14
_space_group_name_Hall           '-P 2ybc'
loop_
_symmetry_equiv_pos_site_id
_symmetry_equiv_pos_as_xyz
1 x,y,z
2 -x,1/2+y,1/2-z
3 -x,-y,-z
4 x,1/2-y,1/2+z
_cell_length_a                   7.81230(10)
_cell_length_b                   6.93840(10)
_cell_length_c                   14.1179(3)
_cell_angle_alpha                90
_cell_angle_beta                 96.7270(10)
_cell_angle_gamma                90
_cell_volume                     759.99
_exptl_crystal_colour            'pale yellow'
_exptl_crystal_description       plate
_cell_formula_units_Z            4
_exptl_crystal_recrystallization_method methanol
loop_
_atom_site_label
_atom_site_type_symbol
_atom_site_fract_x
_atom_site_fract_y
_atom_site_fract_z
O1 O 0.12430(3) -0.26341(4) 0.58557(2)
O2 O 0.48066(4) 0.08484(5) 0.79397(3)
O3 O -0.07456(5) 0.31444(5) 0.67347(3)
N1 N 0.02955(4) 0.03185(4) 0.62473(2)
N2 N 0.30929(4) -0.07636(4) 0.68093(2)
C1 C 0.15181(5) -0.11043(5) 0.62796(3)
C2 C 0.04467(4) 0.20053(5) 0.67655(2)
C3 C 0.21388(5) 0.23512(6) 0.73637(3)
C4 C 0.34490(4) 0.07729(5) 0.74016(2)
H1 H 0.27128 0.365152 0.710028
H2 H 0.187412 0.26475 0.809216
H3 H -0.08065 0.01112 0.581024
H4 H 0.404729 -0.172295 0.675519
O4 O 0.29486(3) 0.08165(3) 0.456716(18)
N3 N 0.49881(4) 0.26216(5) 0.54367(3)
N4 N 0.22515(4) 0.38318(5) 0.50054(3)
C5 C 0.33815(5) 0.23719(6) 0.49898(3)
H5 H 0.58414 0.152843 0.544491
H6 H 0.528515 0.382294 0.58242
H7 H 0.104336 0.362376 0.468322
H8 H 0.259089 0.511527 0.530696
loop_
_geom_bond_atom_site_label_1
_geom_bond_atom_site_label_2
_geom_bond_site_symmetry_1
_geom_bond_site_symmetry_2
O1 C1 1_555 1_555
O2 C4 1_555 1_555
O3 C2 1_555 1_555
O4 C5 1_555 1_555
N1 C1 1_555 1_555
N2 C1 1_555 1_555
N3 C5 1_555 1_555
N4 C5 1_555 1_555
C2 N1 1_555 1_555
C3 C2 1_555 1_555
C4 N2 1_555 1_555
H1 C3 1_555 1_555
H2 C3 1_555 1_555
H3 N1 1_555 1_555
H4 N2 1_555 1_555
H5 N3 1_555 1_555
H6 N3 1_555 1_555
H7 N4 1_555 1_555
H8 N4 1_555 1_555
C3 C4 1_555 1_555

#END
