
#######################################################################
#
#                 Cambridge Crystallographic Data Centre
#                                CCDC 
#
#######################################################################
#
# If this CIF has been generated from an entry in the Cambridge 
# Structural Database, then it will include bibliographic, chemical, 
# crystal, experimental, refinement or atomic coordinate data resulting 
# from the CCDC's data processing and validation procedures.
#
#######################################################################

data_EFUCAL
_chemical_formula_moiety         'C10 H10 N1 1+,C7 H5 O3 1-'
_chemical_name_systematic        '2-methylquinolinium 2-hydroxybenzoate'
_symmetry_cell_setting           monoclinic
_symmetry_space_group_name_H-M   'P 21/c'
_symmetry_Int_Tables_number      14
_space_group_name_Hall           '-P 2ybc'
loop_
_symmetry_equiv_pos_site_id
_symmetry_equiv_pos_as_xyz
1 x,y,z
2 -x,1/2+y,1/2-z
3 -x,-y,-z
4 x,1/2-y,1/2+z
_cell_length_a                   7.2424(4)
_cell_length_b                   9.6898(8)
_cell_length_c                   20.482(2)
_cell_angle_alpha                90
_cell_angle_beta                 92.6220(10)
_cell_angle_gamma                90
_cell_volume                     1435.87
_exptl_crystal_colour            colorless
_exptl_crystal_description       block
_cell_formula_units_Z            4
loop_
_atom_site_label
_atom_site_type_symbol
_atom_site_fract_x
_atom_site_fract_y
_atom_site_fract_z
N1 N 0.7043(4) 0.8146(3) 0.51435(13)
H1 H 0.6722 0.7648 0.5467
C1 C 0.7295(5) 0.7530(4) 0.45838(18)
C2 C 0.7787(6) 0.8333(5) 0.40495(18)
H2 H 0.7950 0.7916 0.3647
C3 C 0.8024(5) 0.9707(5) 0.4117(2)
H3 H 0.8362 1.0229 0.3761
C4 C 0.7767(5) 1.0364(4) 0.47204(19)
C5 C 0.7261(4) 0.9533(3) 0.52436(17)
C6 C 0.6979(5) 1.0108(4) 0.58544(18)
H4 H 0.6639 0.9550 0.6198
C7 C 0.7203(6) 1.1494(4) 0.5946(2)
H5 H 0.7000 1.1884 0.6351
C8 C 0.7736(6) 1.2324(4) 0.5434(3)
H6 H 0.7906 1.3265 0.5503
C9 C 0.8011(5) 1.1790(4) 0.4837(2)
H7 H 0.8364 1.2365 0.4502
C10 C 0.7063(6) 0.6011(4) 0.45454(19)
H8 H 0.6634 0.5672 0.4952
H9 H 0.8227 0.5589 0.4461
H10 H 0.6176 0.5787 0.4199
O1 O 0.3726(4) 0.3418(2) 0.38716(11)
O2 O 0.0715(4) 0.3840(2) 0.38611(12)
O3 O -0.0760(4) 0.5544(3) 0.30748(13)
H11 H -0.0707 0.4937 0.3354
C11 C 0.2298(6) 0.4043(3) 0.36539(16)
C12 C 0.2496(5) 0.5108(3) 0.31359(14)
C13 C 0.0950(6) 0.5808(3) 0.28764(16)
C14 C 0.1149(7) 0.6821(4) 0.24063(18)
H12 H 0.0115 0.7285 0.2233
C15 C 0.2854(8) 0.7135(4) 0.22002(18)
H13 H 0.2978 0.7819 0.1887
C16 C 0.4404(7) 0.6455(4) 0.24476(18)
H14 H 0.5565 0.6675 0.2302
C17 C 0.4211(5) 0.5447(3) 0.29133(15)
H15 H 0.5254 0.4985 0.3081
loop_
_geom_bond_atom_site_label_1
_geom_bond_atom_site_label_2
_geom_bond_site_symmetry_1
_geom_bond_site_symmetry_2
N1 H1 1_555 1_555
C1 N1 1_555 1_555
C2 C1 1_555 1_555
H2 C2 1_555 1_555
C3 C2 1_555 1_555
H3 C3 1_555 1_555
C4 C3 1_555 1_555
C5 N1 1_555 1_555
C6 C5 1_555 1_555
H4 C6 1_555 1_555
C7 C6 1_555 1_555
H5 C7 1_555 1_555
C8 C7 1_555 1_555
H6 C8 1_555 1_555
C9 C4 1_555 1_555
H7 C9 1_555 1_555
C10 C1 1_555 1_555
H8 C10 1_555 1_555
H9 C10 1_555 1_555
H10 C10 1_555 1_555
O1 C11 1_555 1_555
O2 C11 1_555 1_555
O3 H11 1_555 1_555
C11 C12 1_555 1_555
C12 C13 1_555 1_555
C13 O3 1_555 1_555
C14 C13 1_555 1_555
H12 C14 1_555 1_555
C15 C14 1_555 1_555
H13 C15 1_555 1_555
C16 C15 1_555 1_555
H14 C16 1_555 1_555
C17 C12 1_555 1_555
H15 C17 1_555 1_555
C4 C5 1_555 1_555
C8 C9 1_555 1_555
C16 C17 1_555 1_555

#END
