
#######################################################################
#
#                 Cambridge Crystallographic Data Centre
#                                CCDC 
#
#######################################################################
#
# If this CIF has been generated from an entry in the Cambridge 
# Structural Database, then it will include bibliographic, chemical, 
# crystal, experimental, refinement or atomic coordinate data resulting 
# from the CCDC's data processing and validation procedures.
#
#######################################################################

data_EFUPUR
_chemical_formula_moiety         'C21 H24 N2 O4'
_chemical_name_systematic        
'7a-Cyano-octahydro-4-methyl-1-(prop-1-en-2-yl)-1H-inden-4-yl 4-nitrobenzoate'
_symmetry_cell_setting           triclinic
_symmetry_space_group_name_H-M   'P -1'
_symmetry_Int_Tables_number      2
_space_group_name_Hall           '-P 1'
loop_
_symmetry_equiv_pos_site_id
_symmetry_equiv_pos_as_xyz
1 x,y,z
2 -x,-y,-z
_cell_length_a                   6.8918(2)
_cell_length_b                   8.2201(2)
_cell_length_c                   17.5912(4)
_cell_angle_alpha                89.321(2)
_cell_angle_beta                 80.179(2)
_cell_angle_gamma                80.818(2)
_cell_volume                     969.257
_exptl_crystal_colour            colorless
_exptl_crystal_description       plate
_chemical_melting_point          '460-461 K'
_cell_formula_units_Z            2
loop_
_atom_site_label
_atom_site_type_symbol
_atom_site_fract_x
_atom_site_fract_y
_atom_site_fract_z
O1 O 0.3787(2) 0.2730(2) 0.80241(9)
O2 O 0.5578(3) 0.1187(3) 0.88128(10)
C1 C 0.5397(3) 0.2599(3) 0.73384(12)
C2 C 0.6075(3) 0.0791(3) 0.71053(12)
H1 H 0.6989 0.0302 0.7446
C3 C 0.7162(3) 0.0489(3) 0.62631(12)
C4 C 0.4313(4) 0.3555(3) 0.67458(13)
H2 H 0.4038 0.4716 0.6888
H3 H 0.3047 0.3179 0.6750
C5 C 0.9205(4) 0.0866(3) 0.61362(13)
C6 C 0.2171(4) 0.2302(3) 0.92723(13)
N1 N 1.0776(3) 0.1193(3) 0.60127(13)
C7 C 0.6018(3) 0.1533(3) 0.56986(13)
H4 H 0.6815 0.1423 0.5186
H5 H 0.4787 0.1118 0.5678
C8 C 0.5536(4) 0.3337(3) 0.59349(14)
H6 H 0.4791 0.3946 0.5573
H7 H 0.6766 0.3779 0.5920
N2 N -0.2980(4) 0.3230(3) 1.09676(16)
C9 C -0.1193(4) 0.2864(3) 1.03702(14)
C10 C 0.4056(4) 0.1990(3) 0.86909(14)
C11 C 0.4389(4) -0.0249(3) 0.71530(14)
H8 H 0.4058 -0.0649 0.7672
H9 H 0.3203 0.0405 0.7015
C12 C 0.8938(4) -0.2552(3) 0.63088(16)
O3 O -0.2782(4) 0.3009(3) 1.16433(13)
C13 C -0.1282(4) 0.3438(4) 0.96434(15)
H10 H -0.2466 0.4006 0.9522
C14 C 0.0519(5) 0.1999(4) 1.05645(16)
H11 H 0.0538 0.1617 1.1063
C15 C 0.0426(4) 0.3156(4) 0.90926(14)
H12 H 0.0396 0.3546 0.8596
O4 O -0.4530(4) 0.3820(4) 1.07823(14)
C16 C 0.7168(4) -0.1393(3) 0.61112(13)
H13 H 0.7117 -0.1551 0.5564
C17 C 0.5160(4) -0.1683(3) 0.65885(16)
H14 H 0.4205 -0.1760 0.6249
H15 H 0.5342 -0.2706 0.6867
C18 C 0.2213(4) 0.1703(4) 1.00079(15)
H16 H 0.3381 0.1102 1.0128
C19 C 0.7061(4) 0.3440(3) 0.75351(15)
H17 H 0.6500 0.4482 0.7786
H18 H 0.7953 0.3615 0.7070
H19 H 0.7781 0.2756 0.7874
C20 C 0.9344(5) -0.2613(4) 0.71205(17)
H20 H 1.0367 -0.3530 0.7169
H21 H 0.8147 -0.2740 0.7470
H22 H 0.9777 -0.1609 0.7243
C21 C 1.0088(5) -0.3521(4) 0.57668(18)
H23 H 1.1165 -0.4254 0.5885
H24 H 0.9823 -0.3473 0.5265
loop_
_geom_bond_atom_site_label_1
_geom_bond_atom_site_label_2
_geom_bond_site_symmetry_1
_geom_bond_site_symmetry_2
O1 C1 1_555 1_555
O2 C10 1_555 1_555
C1 C2 1_555 1_555
C2 H1 1_555 1_555
C3 C2 1_555 1_555
C4 C1 1_555 1_555
H2 C4 1_555 1_555
H3 C4 1_555 1_555
C5 C3 1_555 1_555
C6 C10 1_555 1_555
N1 C5 1_555 1_555
C7 C3 1_555 1_555
H4 C7 1_555 1_555
H5 C7 1_555 1_555
C8 C4 1_555 1_555
H6 C8 1_555 1_555
H7 C8 1_555 1_555
N2 C9 1_555 1_555
C9 C13 1_555 1_555
C10 O1 1_555 1_555
C11 C2 1_555 1_555
H8 C11 1_555 1_555
H9 C11 1_555 1_555
C12 C16 1_555 1_555
O3 N2 1_555 1_555
C13 H10 1_555 1_555
C14 C9 1_555 1_555
H11 C14 1_555 1_555
C15 C6 1_555 1_555
H12 C15 1_555 1_555
O4 N2 1_555 1_555
C16 C3 1_555 1_555
H13 C16 1_555 1_555
C17 C11 1_555 1_555
H14 C17 1_555 1_555
H15 C17 1_555 1_555
C18 C6 1_555 1_555
H16 C18 1_555 1_555
C19 C1 1_555 1_555
H17 C19 1_555 1_555
H18 C19 1_555 1_555
H19 C19 1_555 1_555
C20 C12 1_555 1_555
H20 C20 1_555 1_555
H21 C20 1_555 1_555
H22 C20 1_555 1_555
C21 C12 1_555 1_555
H23 C21 1_555 1_555
H24 C21 1_555 1_555
C7 C8 1_555 1_555
C13 C15 1_555 1_555
C14 C18 1_555 1_555
C16 C17 1_555 1_555

#END
