
#######################################################################
#
#                 Cambridge Crystallographic Data Centre
#                                CCDC 
#
#######################################################################
#
# If this CIF has been generated from an entry in the Cambridge 
# Structural Database, then it will include bibliographic, chemical, 
# crystal, experimental, refinement or atomic coordinate data resulting 
# from the CCDC's data processing and validation procedures.
#
#######################################################################

data_EFUTUW
_chemical_formula_moiety         'C15 H28 N1 1+,Cl1 1-'
_chemical_name_systematic        
'2,3,4,5-tetraethyl-N,N-dimethylcyclopenta-2,4-dien-1-aminium chloride'
_symmetry_cell_setting           monoclinic
_symmetry_space_group_name_H-M   'P 21/c'
_symmetry_Int_Tables_number      14
_space_group_name_Hall           '-P 2ybc'
loop_
_symmetry_equiv_pos_site_id
_symmetry_equiv_pos_as_xyz
1 x,y,z
2 -x,1/2+y,1/2-z
3 -x,-y,-z
4 x,1/2-y,1/2+z
_cell_length_a                   16.2781(6)
_cell_length_b                   10.0780(3)
_cell_length_c                   9.4919(4)
_cell_angle_alpha                90
_cell_angle_beta                 92.669(3)
_cell_angle_gamma                90
_cell_volume                     1555.46
_exptl_crystal_colour            colorless
_exptl_crystal_description       block
_cell_formula_units_Z            4
loop_
_atom_site_label
_atom_site_type_symbol
_atom_site_fract_x
_atom_site_fract_y
_atom_site_fract_z
C1 C 0.20458(9) 0.51423(15) 0.69280(17)
H1 H 0.1971 0.5223 0.5901
C2 C 0.29215(10) 0.55211(17) 0.73679(17)
C3 C 0.33167(10) 0.44346(18) 0.78436(18)
C4 C 0.27362(11) 0.32911(17) 0.78201(18)
C5 C 0.19929(10) 0.36898(16) 0.73309(17)
C6 C 0.32550(11) 0.68794(19) 0.71013(19)
H2 H 0.3777 0.6982 0.7625
H3 H 0.2878 0.7536 0.7447
C7 C 0.33790(15) 0.7136(2) 0.5549(2)
H4 H 0.2873 0.6975 0.5016
H5 H 0.3798 0.6554 0.5227
H6 H 0.3544 0.8041 0.5423
C8 C 0.42148(12) 0.4338(2) 0.8273(2)
H7 H 0.4292 0.3641 0.8971
H8 H 0.4391 0.5167 0.8709
C9 C 0.47454(14) 0.4050(3) 0.7055(4)
H9 H 0.4554 0.3258 0.6583
H10 H 0.5304 0.3928 0.7398
H11 H 0.4717 0.4781 0.6405
C10 C 0.29748(13) 0.18980(18) 0.8241(2)
H12 H 0.2515 0.1480 0.8680
H13 H 0.3431 0.1934 0.8936
C11 C 0.32200(18) 0.1056(2) 0.7011(3)
H14 H 0.2807 0.1123 0.6259
H15 H 0.3272 0.0148 0.7306
H16 H 0.3737 0.1363 0.6687
C12 C 0.12405(11) 0.28535(17) 0.70627(18)
H17 H 0.0787 0.3239 0.7550
H18 H 0.1342 0.1974 0.7447
C13 C 0.09971(12) 0.27350(18) 0.54941(19)
H19 H 0.1430 0.2302 0.5016
H20 H 0.0907 0.3604 0.5103
H21 H 0.0501 0.2224 0.5377
C14 C 0.13781(13) 0.57655(18) 0.91570(19)
H22 H 0.1087 0.4951 0.9299
H23 H 0.1092 0.6484 0.9584
H24 H 0.1924 0.5698 0.9580
C15 C 0.05964(11) 0.60024(18) 0.6867(2)
H25 H 0.0658 0.6077 0.5869
H26 H 0.0276 0.6734 0.7185
H27 H 0.0323 0.5185 0.7067
N1 N 0.14260(8) 0.60199(13) 0.76154(16)
H28 H 0.1616 0.6864 0.7537
Cl1 Cl 0.13741(3) 0.90072(4) 0.80166(5)
loop_
_geom_bond_atom_site_label_1
_geom_bond_atom_site_label_2
_geom_bond_site_symmetry_1
_geom_bond_site_symmetry_2
C1 H1 1_555 1_555
C2 C1 1_555 1_555
C3 C2 1_555 1_555
C4 C3 1_555 1_555
C5 C1 1_555 1_555
C6 C2 1_555 1_555
H2 C6 1_555 1_555
H3 C6 1_555 1_555
C7 C6 1_555 1_555
H4 C7 1_555 1_555
H5 C7 1_555 1_555
H6 C7 1_555 1_555
C8 C3 1_555 1_555
H7 C8 1_555 1_555
H8 C8 1_555 1_555
C9 C8 1_555 1_555
H9 C9 1_555 1_555
H10 C9 1_555 1_555
H11 C9 1_555 1_555
C10 C4 1_555 1_555
H12 C10 1_555 1_555
H13 C10 1_555 1_555
C11 C10 1_555 1_555
H14 C11 1_555 1_555
H15 C11 1_555 1_555
H16 C11 1_555 1_555
C12 C5 1_555 1_555
H17 C12 1_555 1_555
H18 C12 1_555 1_555
C13 C12 1_555 1_555
H19 C13 1_555 1_555
H20 C13 1_555 1_555
H21 C13 1_555 1_555
C14 H22 1_555 1_555
H23 C14 1_555 1_555
H24 C14 1_555 1_555
C15 H25 1_555 1_555
H26 C15 1_555 1_555
H27 C15 1_555 1_555
N1 C1 1_555 1_555
H28 N1 1_555 1_555
C4 C5 1_555 1_555
C14 N1 1_555 1_555
C15 N1 1_555 1_555

#END
