
#######################################################################
#
#                 Cambridge Crystallographic Data Centre
#                                CCDC 
#
#######################################################################
#
# If this CIF has been generated from an entry in the Cambridge 
# Structural Database, then it will include bibliographic, chemical, 
# crystal, experimental, refinement or atomic coordinate data resulting 
# from the CCDC's data processing and validation procedures.
#
#######################################################################

data_EFUVUY
_chemical_formula_moiety         'C14 H15 N1 O3'
_chemical_name_systematic        N-t-butyl-2-oxo-2H-chromene-3-carboxamide
_symmetry_cell_setting           monoclinic
_symmetry_space_group_name_H-M   'C 2/c'
_symmetry_Int_Tables_number      15
_space_group_name_Hall           '-C 2yn'
loop_
_symmetry_equiv_pos_site_id
_symmetry_equiv_pos_as_xyz
1 x,y,z
2 -x,y,1/2-z
3 1/2+x,1/2+y,z
4 1/2-x,1/2+y,1/2-z
5 -x,-y,-z
6 x,-y,1/2+z
7 1/2-x,1/2-y,-z
8 1/2+x,1/2-y,1/2+z
_cell_length_a                   21.9525(19)
_cell_length_b                   8.8693(9)
_cell_length_c                   13.4195(17)
_cell_angle_alpha                90
_cell_angle_beta                 103.775(11)
_cell_angle_gamma                90
_cell_volume                     2537.67
_exptl_crystal_colour            colorless
_exptl_crystal_description       block
_cell_formula_units_Z            8
loop_
_atom_site_label
_atom_site_type_symbol
_atom_site_fract_x
_atom_site_fract_y
_atom_site_fract_z
O1 O 0.65602(12) 0.1870(3) 0.2223(2)
O2 O 0.48871(12) 0.4340(3) 0.1129(3)
O3 O 0.43453(10) 0.2251(3) 0.0834(2)
N1 N 0.61605(16) 0.4207(4) 0.1811(3)
H1 H 0.577(2) 0.465(5) 0.151(3)
C1 C 0.42936(17) 0.0703(4) 0.0825(3)
C2 C 0.37024(18) 0.0109(5) 0.0467(3)
H2 H 0.3357 0.0733 0.0243
C3 C 0.36376(19) -0.1433(5) 0.0451(3)
H3 H 0.3242 -0.1854 0.0215
C4 C 0.41506(19) -0.2370(5) 0.0778(3)
H4 H 0.4098 -0.3410 0.0754
C5 C 0.47338(18) -0.1768(5) 0.1134(3)
H5 H 0.5076 -0.2402 0.1361
C6 C 0.48205(16) -0.0192(4) 0.1161(3)
C7 C 0.54089(16) 0.0542(5) 0.1524(3)
H6 H 0.5766 -0.0042 0.1763
C8 C 0.54643(15) 0.2050(5) 0.1531(3)
C9 C 0.49110(17) 0.2973(5) 0.1177(3)
C10 C 0.61193(17) 0.2715(5) 0.1895(3)
C11 C 0.67482(17) 0.5085(5) 0.2084(3)
C12 C 0.71833(19) 0.4620(5) 0.1403(4)
H7 H 0.7282 0.3568 0.1499
H8 H 0.7563 0.5200 0.1583
H9 H 0.6979 0.4801 0.0697
C13 C 0.7065(2) 0.4894(5) 0.3219(3)
H10 H 0.6782 0.5205 0.3627
H11 H 0.7437 0.5503 0.3388
H12 H 0.7176 0.3855 0.3358
C14 C 0.6545(2) 0.6730(5) 0.1858(4)
H13 H 0.6346 0.6837 0.1143
H14 H 0.6907 0.7373 0.2028
H15 H 0.6256 0.7009 0.2263
loop_
_geom_bond_atom_site_label_1
_geom_bond_atom_site_label_2
_geom_bond_site_symmetry_1
_geom_bond_site_symmetry_2
O1 C10 1_555 1_555
O2 C9 1_555 1_555
O3 C1 1_555 1_555
N1 H1 1_555 1_555
C1 C2 1_555 1_555
C2 H2 1_555 1_555
C3 C2 1_555 1_555
H3 C3 1_555 1_555
C4 C3 1_555 1_555
H4 C4 1_555 1_555
C5 C4 1_555 1_555
H5 C5 1_555 1_555
C6 C1 1_555 1_555
C7 C6 1_555 1_555
H6 C7 1_555 1_555
C8 C7 1_555 1_555
C9 O3 1_555 1_555
C10 N1 1_555 1_555
C11 N1 1_555 1_555
C12 C11 1_555 1_555
H7 C12 1_555 1_555
H8 C12 1_555 1_555
H9 C12 1_555 1_555
C13 C11 1_555 1_555
H10 C13 1_555 1_555
H11 C13 1_555 1_555
H12 C13 1_555 1_555
C14 C11 1_555 1_555
H13 C14 1_555 1_555
H14 C14 1_555 1_555
H15 C14 1_555 1_555
C5 C6 1_555 1_555
C8 C9 1_555 1_555
C8 C10 1_555 1_555

#END
