
#######################################################################
#
#                 Cambridge Crystallographic Data Centre
#                                CCDC 
#
#######################################################################
#
# If this CIF has been generated from an entry in the Cambridge 
# Structural Database, then it will include bibliographic, chemical, 
# crystal, experimental, refinement or atomic coordinate data resulting 
# from the CCDC's data processing and validation procedures.
#
#######################################################################

data_EFUVAE
_chemical_formula_moiety         'C36 H72 Li2 Mg1 N4'
_chemical_name_systematic        
bis(\m-4,5-diethylocta-3,5-diene-3,6-diyl)-bis(N,N,N',N'-tetramethylethane-1,2-diamine)-di-lithium-magnesium
_symmetry_cell_setting           tetragonal
_symmetry_space_group_name_H-M   'P 41 21 2'
_symmetry_Int_Tables_number      92
_space_group_name_Hall           'P 4abw 2nw'
loop_
_symmetry_equiv_pos_site_id
_symmetry_equiv_pos_as_xyz
1 x,y,z
2 1/2-y,1/2+x,1/4+z
3 -x,-y,1/2+z
4 1/2+y,1/2-x,3/4+z
5 1/2+x,1/2-y,3/4-z
6 1/2-x,1/2+y,1/4-z
7 y,x,-z
8 -y,-x,1/2-z
_cell_length_a                   11.1307(16)
_cell_length_b                   11.1307(16)
_cell_length_c                   31.696(6)
_cell_angle_alpha                90
_cell_angle_beta                 90
_cell_angle_gamma                90
_cell_volume                     3926.9
_exptl_crystal_colour            yellow
_exptl_crystal_description       block
_cell_formula_units_Z            4
loop_
_atom_site_label
_atom_site_type_symbol
_atom_site_fract_x
_atom_site_fract_y
_atom_site_fract_z
Mg1 Mg 0.52015(7) 0.47985(7) 0.7500
Li1 Li 0.3733(4) 0.2796(4) 0.74650(14)
N1 N 0.2352(2) 0.1427(2) 0.75017(7)
N2 N 0.4044(2) 0.2091(2) 0.68362(7)
C1 C 0.3201(2) 0.4613(3) 0.75820(8)
C2 C 0.3097(3) 0.4221(3) 0.79890(8)
C3 C 0.4102(3) 0.3456(3) 0.81741(8)
C4 C 0.5128(3) 0.3305(3) 0.79592(8)
C5 C 0.2204(3) 0.5369(3) 0.73957(8)
H1 H 0.1428 0.5099 0.7515
H2 H 0.2326 0.6216 0.7481
C6 C 0.2135(3) 0.5306(4) 0.69227(9)
H3 H 0.2928 0.5475 0.6802
H4 H 0.1556 0.5902 0.6820
H5 H 0.1875 0.4501 0.6837
C7 C 0.2039(3) 0.4513(3) 0.82717(9)
H6 H 0.2026 0.3939 0.8510
H7 H 0.1286 0.4407 0.8110
C8 C 0.2085(3) 0.5790(3) 0.84453(11)
H8 H 0.2043 0.6364 0.8211
H9 H 0.2837 0.5907 0.8600
H10 H 0.1403 0.5919 0.8636
C9 C 0.3894(3) 0.2878(4) 0.86082(9)
H11 H 0.3034 0.2665 0.8636
H12 H 0.4365 0.2125 0.8626
C10 C 0.4249(4) 0.3698(4) 0.89728(9)
H13 H 0.5108 0.3881 0.8955
H14 H 0.4080 0.3293 0.9241
H15 H 0.3786 0.4445 0.8957
C11 C 0.6107(3) 0.2496(3) 0.81347(10)
H16 H 0.6894 0.2796 0.8035
H17 H 0.6102 0.2560 0.8446
C12 C 0.6000(5) 0.1206(4) 0.80182(17)
H18 H 0.6095 0.1119 0.7712
H19 H 0.5209 0.0906 0.8103
H20 H 0.6627 0.0745 0.8163
C13 C 0.1200(3) 0.2056(3) 0.74784(11)
H21 H 0.1064 0.2499 0.7741
H22 H 0.0553 0.1471 0.7437
H23 H 0.1213 0.2620 0.7241
C14 C 0.2356(3) 0.0672(3) 0.78791(9)
H24 H 0.3136 0.0269 0.7905
H25 H 0.1719 0.0067 0.7857
H26 H 0.2217 0.1172 0.8129
C15 C 0.2543(3) 0.0681(3) 0.71273(8)
H27 H 0.1789 0.0255 0.7057
H28 H 0.3165 0.0070 0.7189
C16 C 0.2935(3) 0.1431(3) 0.67528(9)
H29 H 0.3057 0.0898 0.6506
H30 H 0.2289 0.2008 0.6681
C17 C 0.5070(3) 0.1276(3) 0.68412(11)
H31 H 0.5810 0.1738 0.6883
H32 H 0.5113 0.0844 0.6572
H33 H 0.4977 0.0698 0.7072
C18 C 0.4245(3) 0.2986(3) 0.65056(8)
H34 H 0.3561 0.3539 0.6495
H35 H 0.4330 0.2580 0.6233
H36 H 0.4980 0.3438 0.6568
Li1G Li 0.7204(4) 0.6267(4) 0.75350(14)
N1G N 0.8573(2) 0.7648(2) 0.74983(7)
N2G N 0.7909(2) 0.5956(2) 0.81638(7)
C1G C 0.5387(3) 0.6799(2) 0.74180(8)
C2G C 0.5779(3) 0.6903(3) 0.70110(8)
C3G C 0.6544(3) 0.5898(3) 0.68259(8)
C4G C 0.6695(3) 0.4872(3) 0.70408(8)
C5G C 0.4631(3) 0.7796(3) 0.76043(8)
H1G H 0.4901 0.8572 0.7485
H2G H 0.3784 0.7674 0.7519
C6G C 0.4694(4) 0.7865(3) 0.80773(9)
H3G H 0.4525 0.7072 0.8198
H4G H 0.4098 0.8444 0.8180
H5G H 0.5499 0.8125 0.8163
C7G C 0.5487(3) 0.7961(3) 0.67283(9)
H6G H 0.6061 0.7974 0.6490
H7G H 0.5593 0.8714 0.6890
C8G C 0.4210(3) 0.7915(3) 0.65547(11)
H8G H 0.3636 0.7957 0.6789
H9G H 0.4093 0.7163 0.6400
H10G H 0.4081 0.8597 0.6364
C9G C 0.7122(4) 0.6106(3) 0.63918(9)
H11G H 0.7335 0.6966 0.6364
H12G H 0.7875 0.5635 0.6374
C10G C 0.6302(4) 0.5751(4) 0.60272(9)
H13G H 0.6119 0.4892 0.6045
H14G H 0.6707 0.5920 0.5759
H15G H 0.5555 0.6214 0.6043
C11G C 0.7504(3) 0.3893(3) 0.68653(10)
H16G H 0.7204 0.3106 0.6965
H17G H 0.7440 0.3898 0.6554
C12G C 0.8794(4) 0.4000(5) 0.69818(17)
H18G H 0.8881 0.3905 0.7288
H19G H 0.9094 0.4791 0.6897
H20G H 0.9255 0.3373 0.6837
C13G C 0.7944(3) 0.8800(3) 0.75216(11)
H21G H 0.7501 0.8936 0.7259
H22G H 0.8529 0.9447 0.7563
H23G H 0.7380 0.8787 0.7759
C14G C 0.9328(3) 0.7644(3) 0.71209(9)
H24G H 0.9731 0.6864 0.7095
H25G H 0.9933 0.8281 0.7143
H26G H 0.8828 0.7783 0.6871
C15G C 0.9319(3) 0.7457(3) 0.78727(8)
H27G H 0.9745 0.8211 0.7943
H28G H 0.9930 0.6835 0.7811
C16G C 0.8569(3) 0.7065(3) 0.82472(9)
H29G H 0.9102 0.6943 0.8494
H30G H 0.7992 0.7711 0.8319
C17G C 0.8724(3) 0.4930(3) 0.81588(11)
H31G H 0.8262 0.4190 0.8117
H32G H 0.9156 0.4887 0.8428
H33G H 0.9302 0.5023 0.7928
C18G C 0.7014(3) 0.5755(3) 0.84944(8)
H34G H 0.6461 0.6439 0.8505
H35G H 0.7420 0.5670 0.8767
H36G H 0.6562 0.5020 0.8432
loop_
_geom_bond_atom_site_label_1
_geom_bond_atom_site_label_2
_geom_bond_site_symmetry_1
_geom_bond_site_symmetry_2
Mg1 C1 1_555 1_555
Li1 N1 1_555 1_555
N1 C13 1_555 1_555
N2 Li1 1_555 1_555
C1 Li1 1_555 1_555
C2 C1 1_555 1_555
C3 Li1 1_555 1_555
C4 Mg1 1_555 1_555
C5 C1 1_555 1_555
H1 C5 1_555 1_555
H2 C5 1_555 1_555
C6 C5 1_555 1_555
H3 C6 1_555 1_555
H4 C6 1_555 1_555
H5 C6 1_555 1_555
C7 C2 1_555 1_555
H6 C7 1_555 1_555
H7 C7 1_555 1_555
C8 C7 1_555 1_555
H8 C8 1_555 1_555
H9 C8 1_555 1_555
H10 C8 1_555 1_555
C9 C3 1_555 1_555
H11 C9 1_555 1_555
H12 C9 1_555 1_555
C10 C9 1_555 1_555
H13 C10 1_555 1_555
H14 C10 1_555 1_555
H15 C10 1_555 1_555
C11 C4 1_555 1_555
H16 C11 1_555 1_555
H17 C11 1_555 1_555
C12 C11 1_555 1_555
H18 C12 1_555 1_555
H19 C12 1_555 1_555
H20 C12 1_555 1_555
C13 H21 1_555 1_555
H22 C13 1_555 1_555
H23 C13 1_555 1_555
C14 N1 1_555 1_555
H24 C14 1_555 1_555
H25 C14 1_555 1_555
H26 C14 1_555 1_555
C15 N1 1_555 1_555
H27 C15 1_555 1_555
H28 C15 1_555 1_555
C16 N2 1_555 1_555
H29 C16 1_555 1_555
H30 C16 1_555 1_555
C17 N2 1_555 1_555
H31 C17 1_555 1_555
H32 C17 1_555 1_555
H33 C17 1_555 1_555
C18 N2 1_555 1_555
H34 C18 1_555 1_555
H35 C18 1_555 1_555
H36 C18 1_555 1_555
Li1G N1G 1_555 1_555
N1G C13G 1_555 1_555
N2G Li1G 1_555 1_555
C1G Mg1 1_555 1_555
C2G C1G 1_555 1_555
C3G Li1G 1_555 1_555
C4G Mg1 1_555 1_555
C5G C1G 1_555 1_555
H1G C5G 1_555 1_555
H2G C5G 1_555 1_555
C6G C5G 1_555 1_555
H3G C6G 1_555 1_555
H4G C6G 1_555 1_555
H5G C6G 1_555 1_555
C7G C2G 1_555 1_555
H6G C7G 1_555 1_555
H7G C7G 1_555 1_555
C8G C7G 1_555 1_555
H8G C8G 1_555 1_555
H9G C8G 1_555 1_555
H10G C8G 1_555 1_555
C9G C3G 1_555 1_555
H11G C9G 1_555 1_555
H12G C9G 1_555 1_555
C10G C9G 1_555 1_555
H13G C10G 1_555 1_555
H14G C10G 1_555 1_555
H15G C10G 1_555 1_555
C11G C4G 1_555 1_555
H16G C11G 1_555 1_555
H17G C11G 1_555 1_555
C12G C11G 1_555 1_555
H18G C12G 1_555 1_555
H19G C12G 1_555 1_555
H20G C12G 1_555 1_555
C13G H21G 1_555 1_555
H22G C13G 1_555 1_555
H23G C13G 1_555 1_555
C14G N1G 1_555 1_555
H24G C14G 1_555 1_555
H25G C14G 1_555 1_555
H26G C14G 1_555 1_555
C15G N1G 1_555 1_555
H27G C15G 1_555 1_555
H28G C15G 1_555 1_555
C16G N2G 1_555 1_555
H29G C16G 1_555 1_555
H30G C16G 1_555 1_555
C17G N2G 1_555 1_555
H31G C17G 1_555 1_555
H32G C17G 1_555 1_555
H33G C17G 1_555 1_555
C18G N2G 1_555 1_555
H34G C18G 1_555 1_555
H35G C18G 1_555 1_555
H36G C18G 1_555 1_555
Li1 C4 1_555 1_555
C2 C3 1_555 1_555
C3 C4 1_555 1_555
C15 C16 1_555 1_555
Li1G C1G 1_555 1_555
Li1G C4G 1_555 1_555
C2G C3G 1_555 1_555
C3G C4G 1_555 1_555
C15G C16G 1_555 1_555

#END
