
#######################################################################
#
#                 Cambridge Crystallographic Data Centre
#                                CCDC 
#
#######################################################################
#
# If this CIF has been generated from an entry in the Cambridge 
# Structural Database, then it will include bibliographic, chemical, 
# crystal, experimental, refinement or atomic coordinate data resulting 
# from the CCDC's data processing and validation procedures.
#
#######################################################################

data_EFUXIN
_chemical_formula_moiety         'C6 H4 I1 N2 1+,C7 H7 O3 S1 1-'
_chemical_name_systematic        'p-Iodobenzenediazonium p-tosylate'
_symmetry_cell_setting           triclinic
_symmetry_space_group_name_H-M   'P -1'
_symmetry_Int_Tables_number      2
_space_group_name_Hall           '-P 1'
loop_
_symmetry_equiv_pos_site_id
_symmetry_equiv_pos_as_xyz
1 x,y,z
2 -x,-y,-z
_cell_length_a                   7.6780(15)
_cell_length_b                   10.149(2)
_cell_length_c                   18.657(4)
_cell_angle_alpha                77.15(3)
_cell_angle_beta                 88.73(3)
_cell_angle_gamma                77.04(3)
_cell_volume                     1380.72
_exptl_crystal_colour            colorless
_exptl_crystal_description       block
_chemical_melting_point          124-126deg.C
_cell_formula_units_Z            4
_exptl_crystal_recrystallization_method 'acetic acid/diethyl ether'
loop_
_atom_site_label
_atom_site_type_symbol
_atom_site_fract_x
_atom_site_fract_y
_atom_site_fract_z
I1 I 0.89096(8) 0.41768(4) 0.11180(2)
N1 N 0.7234(9) 1.0237(6) 0.1471(3)
N2 N 0.6941(10) 1.1338(6) 0.1515(3)
C1 C 0.8245(11) 0.6234(7) 0.1233(4)
C2 C 0.8728(11) 0.7255(7) 0.0670(4)
H1 H 0.9278 0.7013 0.0241
C3 C 0.8390(11) 0.8624(7) 0.0748(4)
H2 H 0.8687 0.9342 0.0378
C4 C 0.7597(10) 0.8885(7) 0.1396(3)
C5 C 0.7118(11) 0.7875(7) 0.1961(3)
H3 H 0.6579 0.8111 0.2392
C6 C 0.7448(12) 0.6553(7) 0.1873(3)
H4 H 0.7138 0.5844 0.2245
I2 I 0.04383(7) 0.58614(4) 0.38868(2)
N3 N 0.2683(9) -0.0233(6) 0.3549(3)
N4 N 0.3054(9) -0.1301(6) 0.3478(3)
C7 C 0.1224(10) 0.3779(6) 0.3789(3)
C8 C 0.2223(11) 0.2800(7) 0.4350(3)
H5 H 0.2564 0.3055 0.4777
C9 C 0.2722(11) 0.1430(7) 0.4277(3)
H6 H 0.3400 0.0723 0.4653
C10 C 0.2181(11) 0.1135(7) 0.3627(3)
C11 C 0.1144(10) 0.2102(6) 0.3065(3)
H7 H 0.0790 0.1850 0.2639
C12 C 0.0648(10) 0.3457(6) 0.3156(3)
H8 H -0.0076 0.4159 0.2791
S1 S 0.2565(3) 1.04661(17) 0.12787(9)
O4 O 0.3734(8) 1.1022(5) 0.0730(2)
O5 O 0.0667(9) 1.1104(5) 0.1105(3)
O6 O 0.3112(9) 1.0444(5) 0.2025(3)
C13 C 0.2806(11) 0.8695(7) 0.1245(4)
C14 C 0.2203(10) 0.7792(7) 0.1817(3)
H9 H 0.1616 0.8129 0.2216
C15 C 0.2449(10) 0.6425(7) 0.1809(3)
H10 H 0.2031 0.5824 0.2207
C16 C 0.3309(12) 0.5870(7) 0.1227(4)
C17 C 0.3900(11) 0.6812(7) 0.0652(4)
H11 H 0.4468 0.6486 0.0247
C18 C 0.3672(11) 0.8208(7) 0.0663(3)
H12 H 0.4105 0.8821 0.0275
C19 C 0.3671(13) 0.4358(7) 0.1223(5)
H13 H 0.3185 0.3859 0.1664
H14 H 0.4964 0.3989 0.1217
H15 H 0.3101 0.4238 0.0784
S2 S 0.7973(3) -0.04562(17) 0.36703(9)
O1 O 0.8450(13) -0.0398(6) 0.2906(3)
O2 O 0.6454(10) -0.1052(5) 0.3886(4)
O3 O 0.9503(8) -0.1105(5) 0.4172(3)
C20 C 0.7270(11) 0.1293(7) 0.3751(3)
C21 C 0.7822(11) 0.1707(7) 0.4353(3)
H16 H 0.8579 0.1053 0.4726
C22 C 0.7260(11) 0.3096(7) 0.4410(4)
H17 H 0.7628 0.3372 0.4826
C23 C 0.6167(12) 0.4075(7) 0.3862(4)
C24 C 0.5667(11) 0.3629(7) 0.3242(3)
H18 H 0.4956 0.4283 0.2854
C25 C 0.6199(11) 0.2262(7) 0.3194(3)
H19 H 0.5835 0.1978 0.2780
C26 C 0.5554(13) 0.5575(9) 0.3907(5)
H20 H 0.4800 0.6091 0.3474
H21 H 0.6597 0.5974 0.3925
H22 H 0.4865 0.5632 0.4352
loop_
_geom_bond_atom_site_label_1
_geom_bond_atom_site_label_2
_geom_bond_site_symmetry_1
_geom_bond_site_symmetry_2
I1 C1 1_555 1_555
I2 C7 1_555 1_555
S1 O4 1_555 1_555
S2 O1 1_555 1_555
O2 S2 1_555 1_555
O3 S2 1_555 1_555
O5 S1 1_555 1_555
O6 S1 1_555 1_555
N1 N2 1_555 1_555
N3 N4 1_555 1_555
C1 C2 1_555 1_555
C2 H1 1_555 1_555
C3 C2 1_555 1_555
H2 C3 1_555 1_555
C4 N1 1_555 1_555
C5 C4 1_555 1_555
H3 C5 1_555 1_555
C6 C1 1_555 1_555
H4 C6 1_555 1_555
C7 C8 1_555 1_555
C8 H5 1_555 1_555
C9 C8 1_555 1_555
H6 C9 1_555 1_555
C10 N3 1_555 1_555
C11 C10 1_555 1_555
H7 C11 1_555 1_555
C12 C7 1_555 1_555
H8 C12 1_555 1_555
C13 S1 1_555 1_555
C14 C13 1_555 1_555
H9 C14 1_555 1_555
C15 C14 1_555 1_555
H10 C15 1_555 1_555
C16 C15 1_555 1_555
C17 C16 1_555 1_555
H11 C17 1_555 1_555
C18 C13 1_555 1_555
H12 C18 1_555 1_555
C19 C16 1_555 1_555
H13 C19 1_555 1_555
H14 C19 1_555 1_555
H15 C19 1_555 1_555
C20 S2 1_555 1_555
C21 C20 1_555 1_555
H16 C21 1_555 1_555
C22 C21 1_555 1_555
H17 C22 1_555 1_555
C23 C22 1_555 1_555
C24 C23 1_555 1_555
H18 C24 1_555 1_555
C25 C20 1_555 1_555
H19 C25 1_555 1_555
C26 C23 1_555 1_555
H20 C26 1_555 1_555
H21 C26 1_555 1_555
H22 C26 1_555 1_555
C3 C4 1_555 1_555
C5 C6 1_555 1_555
C9 C10 1_555 1_555
C11 C12 1_555 1_555
C17 C18 1_555 1_555
C24 C25 1_555 1_555

#END
