
#######################################################################
#
#                 Cambridge Crystallographic Data Centre
#                                CCDC 
#
#######################################################################
#
# If this CIF has been generated from an entry in the Cambridge 
# Structural Database, then it will include bibliographic, chemical, 
# crystal, experimental, refinement or atomic coordinate data resulting 
# from the CCDC's data processing and validation procedures.
#
#######################################################################

data_EFUXIO
_chemical_formula_moiety         'C22 H19 F9 N2 O2 S1'
_chemical_name_systematic        
1,1,2,2,3,3,4,4,4-nonafluoro-N-(phenyl(2-(pyrrolidin-1-ylcarbonyl)phenyl)methyl)butane-1-sulfinamide
_symmetry_cell_setting           orthorhombic
_symmetry_space_group_name_H-M   'P 21 21 21'
_symmetry_Int_Tables_number      19
_space_group_name_Hall           'P 2ac 2ab'
loop_
_symmetry_equiv_pos_site_id
_symmetry_equiv_pos_as_xyz
1 x,y,z
2 1/2-x,-y,1/2+z
3 -x,1/2+y,1/2-z
4 1/2+x,1/2-y,-z
_cell_length_a                   6.26620(10)
_cell_length_b                   17.4708(3)
_cell_length_c                   21.4640(15)
_cell_angle_alpha                90
_cell_angle_beta                 90
_cell_angle_gamma                90
_cell_volume                     2349.78
_exptl_crystal_colour            colorless
_exptl_crystal_description       plate
_cell_formula_units_Z            4
loop_
_atom_site_label
_atom_site_type_symbol
_atom_site_fract_x
_atom_site_fract_y
_atom_site_fract_z
C1 C 0.7513(5) 0.80116(18) 0.33037(14)
H1 H 0.8948 0.8133 0.3125
N1 N 0.5889(5) 0.84421(16) 0.29415(12)
H2 H 0.471(7) 0.855(2) 0.314(2)
S1 S 0.64944(13) 0.90517(4) 0.24043(3)
O1 O 0.8483(4) 0.94655(12) 0.25350(10)
C2 C 0.7365(6) 0.83633(19) 0.17812(15)
F1 F 0.8802(3) 0.78487(11) 0.19935(8)
F2 F 0.5618(3) 0.79721(12) 0.15915(9)
C3 C 0.8344(5) 0.87781(18) 0.12148(15)
F3 F 1.0378(3) 0.89701(12) 0.13461(9)
F4 F 0.7228(3) 0.94325(11) 0.11201(9)
C4 C 0.8339(6) 0.83243(19) 0.05983(15)
F5 F 0.6360(3) 0.83202(12) 0.03625(9)
F6 F 0.8947(4) 0.75993(10) 0.07070(9)
C5 C 0.9828(6) 0.8649(2) 0.00879(17)
F7 F 1.1854(3) 0.85132(14) 0.02171(10)
F8 F 0.9379(4) 0.83087(13) -0.04531(9)
F9 F 0.9550(4) 0.93970(13) 0.00191(10)
C6 C 0.7501(5) 0.82706(18) 0.39858(14)
C7 C 0.5907(5) 0.80082(18) 0.43867(15)
H3 H 0.4831 0.7676 0.4232
C8 C 0.5869(6) 0.82251(19) 0.50077(15)
H4 H 0.4765 0.8045 0.5273
C9 C 0.7439(6) 0.8703(2) 0.52418(16)
H5 H 0.7429 0.8844 0.5669
C10 C 0.9028(5) 0.89770(19) 0.48497(14)
H6 H 1.0098 0.9310 0.5008
C11 C 0.9057(5) 0.87637(18) 0.42212(14)
C12 C 1.0834(5) 0.90573(19) 0.38163(14)
O2 O 1.2077(4) 0.86041(13) 0.35569(11)
N2 N 1.1013(4) 0.98156(15) 0.37574(12)
C13 C 0.9369(6) 1.03830(19) 0.39248(17)
H7 H 0.9605 1.0585 0.4350
H8 H 0.7922 1.0158 0.3901
C14 C 0.9663(6) 1.1007(2) 0.34380(17)
H9 H 0.9172 1.1509 0.3596
H10 H 0.8883 1.0883 0.3050
C15 C 1.2072(6) 1.1002(2) 0.33328(16)
H11 H 1.2825 1.1277 0.3671
H12 H 1.2444 1.1239 0.2928
C16 C 1.2628(6) 1.0148(2) 0.33373(16)
H13 H 1.2520 0.9926 0.2914
H14 H 1.4088 1.0062 0.3499
C17 C 0.7190(5) 0.71518(18) 0.32631(14)
C18 C 0.8903(6) 0.66815(19) 0.34047(14)
H15 H 1.0254 0.6904 0.3491
C19 C 0.8678(6) 0.58918(19) 0.34226(15)
H16 H 0.9867 0.5576 0.3519
C20 C 0.6708(6) 0.5568(2) 0.32995(15)
H17 H 0.6535 0.5028 0.3321
C21 C 0.4984(6) 0.6029(2) 0.31449(15)
H18 H 0.3640 0.5804 0.3052
C22 C 0.5229(5) 0.68202(19) 0.31255(15)
H19 H 0.4050 0.7135 0.3018
loop_
_geom_bond_atom_site_label_1
_geom_bond_atom_site_label_2
_geom_bond_site_symmetry_1
_geom_bond_site_symmetry_2
C1 H1 1_555 1_555
N1 C1 1_555 1_555
H2 N1 1_555 1_555
S1 N1 1_555 1_555
O1 S1 1_555 1_555
C2 S1 1_555 1_555
F1 C2 1_555 1_555
F2 C2 1_555 1_555
C3 C2 1_555 1_555
F3 C3 1_555 1_555
F4 C3 1_555 1_555
C4 C3 1_555 1_555
F5 C4 1_555 1_555
F6 C4 1_555 1_555
C5 C4 1_555 1_555
F7 C5 1_555 1_555
F8 C5 1_555 1_555
F9 C5 1_555 1_555
C6 C1 1_555 1_555
C7 C6 1_555 1_555
H3 C7 1_555 1_555
C8 C7 1_555 1_555
H4 C8 1_555 1_555
C9 C8 1_555 1_555
H5 C9 1_555 1_555
C10 C9 1_555 1_555
H6 C10 1_555 1_555
C11 C6 1_555 1_555
C12 C11 1_555 1_555
O2 C12 1_555 1_555
N2 C12 1_555 1_555
C13 N2 1_555 1_555
H7 C13 1_555 1_555
H8 C13 1_555 1_555
C14 C13 1_555 1_555
H9 C14 1_555 1_555
H10 C14 1_555 1_555
C15 C14 1_555 1_555
H11 C15 1_555 1_555
H12 C15 1_555 1_555
C16 N2 1_555 1_555
H13 C16 1_555 1_555
H14 C16 1_555 1_555
C17 C1 1_555 1_555
C18 C17 1_555 1_555
H15 C18 1_555 1_555
C19 C18 1_555 1_555
H16 C19 1_555 1_555
C20 C19 1_555 1_555
H17 C20 1_555 1_555
C21 C20 1_555 1_555
H18 C21 1_555 1_555
C22 C17 1_555 1_555
H19 C22 1_555 1_555
C10 C11 1_555 1_555
C15 C16 1_555 1_555
C21 C22 1_555 1_555

#END
