
#######################################################################
#
#                 Cambridge Crystallographic Data Centre
#                                CCDC 
#
#######################################################################
#
# If this CIF has been generated from an entry in the Cambridge 
# Structural Database, then it will include bibliographic, chemical, 
# crystal, experimental, refinement or atomic coordinate data resulting 
# from the CCDC's data processing and validation procedures.
#
#######################################################################

data_EFUYOU
_chemical_formula_moiety         'C14 H27 N1 O2 Si1'
_chemical_name_systematic        
(5S)-6-Allyl-5-(t-butyl(dimethyl)siloxy)-2-piperidinone
_symmetry_cell_setting           monoclinic
_symmetry_space_group_name_H-M   'P 21/a'
_symmetry_Int_Tables_number      14
_space_group_name_Hall           '-P 2yab'
loop_
_symmetry_equiv_pos_site_id
_symmetry_equiv_pos_as_xyz
1 x,y,z
2 1/2-x,1/2+y,-z
3 -x,-y,-z
4 1/2+x,1/2-y,z
_cell_length_a                   12.1045(17)
_cell_length_b                   7.8326(8)
_cell_length_c                   17.606(2)
_cell_angle_alpha                90
_cell_angle_beta                 102.182(9)
_cell_angle_gamma                90
_cell_volume                     1631.63
_exptl_crystal_colour            colorless
_exptl_crystal_description       'thick platelet'
_chemical_melting_point          80.0deg.C
_cell_formula_units_Z            4
loop_
_atom_site_label
_atom_site_type_symbol
_atom_site_fract_x
_atom_site_fract_y
_atom_site_fract_z
Si1 Si 0.15908(4) 0.08863(7) 0.18153(3)
O1 O 0.52534(11) 0.2018(2) 0.45331(8)
O2 O 0.22976(10) 0.07118(17) 0.27199(7)
N1 N 0.36304(13) 0.0542(2) 0.43661(9)
H1 H 0.4001 -0.0267 0.4650
C1 C 0.42349(17) 0.1883(3) 0.42333(11)
C2 C 0.36491(18) 0.3237(3) 0.36920(13)
H2 H 0.3872 0.3115 0.3191
H3 H 0.3909 0.4358 0.3904
C3 C 0.23668(17) 0.3183(3) 0.35555(13)
H4 H 0.2123 0.3617 0.4016
H5 H 0.2041 0.3917 0.3114
C4 C 0.19504(16) 0.1378(3) 0.33919(11)
H6 H 0.1115 0.1372 0.3297
C5 C 0.24146(15) 0.0263(3) 0.40916(11)
H7 H 0.2039 0.0619 0.4514
C6 C 0.21898(16) -0.1633(3) 0.39555(12)
H8 H 0.2456 -0.1981 0.3490
H9 H 0.2626 -0.2270 0.4397
C7 C 0.09705(18) -0.2097(3) 0.38545(13)
H10 H 0.0590 -0.1707 0.4235
C8 C 0.0388(2) -0.2996(3) 0.32846(15)
H11 H 0.0735 -0.3412 0.2892
H12 H -0.0379 -0.3229 0.3267
C9 C 0.00907(17) 0.0252(3) 0.17352(13)
H13 H 0.0057 -0.0923 0.1903
H14 H -0.0312 0.0358 0.1199
H15 H -0.0256 0.0989 0.2061
C10 C 0.1616(2) 0.3119(3) 0.14590(14)
H16 H 0.1171 0.3841 0.1728
H17 H 0.1300 0.3152 0.0905
H18 H 0.2390 0.3528 0.1559
C11 C 0.23382(17) -0.0572(3) 0.12442(11)
C12 C 0.2337(2) -0.2398(3) 0.15513(15)
H19 H 0.2718 -0.3144 0.1249
H20 H 0.1564 -0.2780 0.1508
H21 H 0.2728 -0.2429 0.2092
C13 C 0.35622(19) 0.0007(4) 0.13111(15)
H22 H 0.3946 0.0017 0.1854
H23 H 0.3571 0.1147 0.1097
H24 H 0.3945 -0.0775 0.1026
C14 C 0.1731(2) -0.0552(4) 0.03844(13)
H25 H 0.1705 0.0608 0.0188
H26 H 0.0968 -0.0981 0.0335
H27 H 0.2138 -0.1270 0.0087
loop_
_geom_bond_atom_site_label_1
_geom_bond_atom_site_label_2
_geom_bond_site_symmetry_1
_geom_bond_site_symmetry_2
Si1 O2 1_555 1_555
O1 C1 1_555 1_555
O2 C4 1_555 1_555
N1 H1 1_555 1_555
C1 N1 1_555 1_555
C2 C1 1_555 1_555
H2 C2 1_555 1_555
H3 C2 1_555 1_555
C3 C2 1_555 1_555
H4 C3 1_555 1_555
H5 C3 1_555 1_555
C4 C3 1_555 1_555
H6 C4 1_555 1_555
C5 N1 1_555 1_555
H7 C5 1_555 1_555
C6 C5 1_555 1_555
H8 C6 1_555 1_555
H9 C6 1_555 1_555
C7 C6 1_555 1_555
H10 C7 1_555 1_555
C8 C7 1_555 1_555
H11 C8 1_555 1_555
H12 C8 1_555 1_555
C9 Si1 1_555 1_555
H13 C9 1_555 1_555
H14 C9 1_555 1_555
H15 C9 1_555 1_555
C10 Si1 1_555 1_555
H16 C10 1_555 1_555
H17 C10 1_555 1_555
H18 C10 1_555 1_555
C11 Si1 1_555 1_555
C12 C11 1_555 1_555
H19 C12 1_555 1_555
H20 C12 1_555 1_555
H21 C12 1_555 1_555
C13 C11 1_555 1_555
H22 C13 1_555 1_555
H23 C13 1_555 1_555
H24 C13 1_555 1_555
C14 C11 1_555 1_555
H25 C14 1_555 1_555
H26 C14 1_555 1_555
H27 C14 1_555 1_555
C4 C5 1_555 1_555

#END
