
#######################################################################
#
#                 Cambridge Crystallographic Data Centre
#                                CCDC 
#
#######################################################################
#
# If this CIF has been generated from an entry in the Cambridge 
# Structural Database, then it will include bibliographic, chemical, 
# crystal, experimental, refinement or atomic coordinate data resulting 
# from the CCDC's data processing and validation procedures.
#
#######################################################################

data_EFUYAH
_chemical_formula_moiety         'C20 H21 Br1 O1'
_chemical_name_systematic        7-bromo-3,3-diphenyloctahydro-1-benzofuran
_symmetry_cell_setting           orthorhombic
_symmetry_space_group_name_H-M   'P 21 21 21'
_symmetry_Int_Tables_number      19
_space_group_name_Hall           'P 2ac 2ab'
loop_
_symmetry_equiv_pos_site_id
_symmetry_equiv_pos_as_xyz
1 x,y,z
2 1/2-x,-y,1/2+z
3 -x,1/2+y,1/2-z
4 1/2+x,1/2-y,-z
_cell_length_a                   5.9922(13)
_cell_length_b                   12.346(3)
_cell_length_c                   21.978(5)
_cell_angle_alpha                90
_cell_angle_beta                 90
_cell_angle_gamma                90
_cell_volume                     1625.93
_exptl_crystal_colour            colorless
_exptl_crystal_description       block
_cell_formula_units_Z            4
loop_
_atom_site_label
_atom_site_type_symbol
_atom_site_fract_x
_atom_site_fract_y
_atom_site_fract_z
Br1 Br 0.79246(4) 0.83562(2) 0.290102(12)
O1 O 0.3166(2) 0.61616(11) 0.34125(6)
C1 C 0.5389(3) 0.66235(19) 0.33905(9)
H1 H 0.5614 0.7106 0.3751
C2 C 0.5456(3) 0.73060(17) 0.28072(10)
H2 H 0.4024 0.7718 0.2775
C3 C 0.5749(4) 0.6642(2) 0.22345(9)
H3 H 0.4350 0.6245 0.2148
H4 H 0.6047 0.7133 0.1888
C4 C 0.7647(4) 0.58429(17) 0.22938(9)
H5 H 0.9061 0.6241 0.2359
H6 H 0.7789 0.5425 0.1911
C5 C 0.7260(4) 0.50637(16) 0.28240(9)
H7 H 0.8542 0.4561 0.2854
H8 H 0.5907 0.4628 0.2742
C6 C 0.6975(4) 0.56555(14) 0.34340(8)
H9 H 0.8461 0.5896 0.3591
C7 C 0.5723(3) 0.49817(16) 0.39321(9)
C8 C 0.3320(3) 0.51027(15) 0.36850(9)
H10 H 0.3007 0.4535 0.3378
H11 H 0.2226 0.5032 0.4020
C9 C 0.5988(3) 0.55300(16) 0.45599(9)
C10 C 0.7962(4) 0.54054(15) 0.48820(9)
H12 H 0.9140 0.4996 0.4706
C11 C 0.8268(4) 0.58622(16) 0.54556(10)
H13 H 0.9631 0.5758 0.5668
C12 C 0.6568(3) 0.64706(16) 0.57137(9)
H14 H 0.6748 0.6775 0.6108
C13 C 0.4611(3) 0.6632(2) 0.53936(9)
H15 H 0.3460 0.7064 0.5564
C14 C 0.4314(4) 0.61661(16) 0.48244(10)
H16 H 0.2955 0.6281 0.4611
C15 C 0.6302(3) 0.37815(15) 0.40091(9)
C16 C 0.8325(3) 0.33213(16) 0.38488(8)
H17 H 0.9435 0.3756 0.3660
C17 C 0.8756(4) 0.22291(17) 0.39608(10)
H18 H 1.0153 0.1929 0.3845
C18 C 0.7188(4) 0.15810(17) 0.42359(8)
H19 H 0.7490 0.0837 0.4310
C19 C 0.5164(4) 0.20273(18) 0.44034(10)
H20 H 0.4062 0.1589 0.4593
C20 C 0.4742(4) 0.31155(17) 0.42951(9)
H21 H 0.3354 0.3415 0.4419
loop_
_geom_bond_atom_site_label_1
_geom_bond_atom_site_label_2
_geom_bond_site_symmetry_1
_geom_bond_site_symmetry_2
Br1 C2 1_555 1_555
O1 C1 1_555 1_555
C1 H1 1_555 1_555
C2 C1 1_555 1_555
H2 C2 1_555 1_555
C3 C2 1_555 1_555
H3 C3 1_555 1_555
H4 C3 1_555 1_555
C4 C3 1_555 1_555
H5 C4 1_555 1_555
H6 C4 1_555 1_555
C5 C4 1_555 1_555
H7 C5 1_555 1_555
H8 C5 1_555 1_555
C6 C1 1_555 1_555
H9 C6 1_555 1_555
C7 C6 1_555 1_555
C8 O1 1_555 1_555
H10 C8 1_555 1_555
H11 C8 1_555 1_555
C9 C7 1_555 1_555
C10 C9 1_555 1_555
H12 C10 1_555 1_555
C11 C10 1_555 1_555
H13 C11 1_555 1_555
C12 C11 1_555 1_555
H14 C12 1_555 1_555
C13 C12 1_555 1_555
H15 C13 1_555 1_555
C14 C9 1_555 1_555
H16 C14 1_555 1_555
C15 C7 1_555 1_555
C16 C15 1_555 1_555
H17 C16 1_555 1_555
C17 C16 1_555 1_555
H18 C17 1_555 1_555
C18 C17 1_555 1_555
H19 C18 1_555 1_555
C19 C18 1_555 1_555
H20 C19 1_555 1_555
C20 C15 1_555 1_555
H21 C20 1_555 1_555
C5 C6 1_555 1_555
C7 C8 1_555 1_555
C13 C14 1_555 1_555
C19 C20 1_555 1_555

#END
