
#######################################################################
#
#                 Cambridge Crystallographic Data Centre
#                                CCDC 
#
#######################################################################
#
# If this CIF has been generated from an entry in the Cambridge 
# Structural Database, then it will include bibliographic, chemical, 
# crystal, experimental, refinement or atomic coordinate data resulting 
# from the CCDC's data processing and validation procedures.
#
#######################################################################

data_EFUZIQ
_chemical_formula_moiety         'C10 H16 O4 2-,2(C10 H10 N1 1+)'
_chemical_name_systematic        'bis(2-methylquinolinium) sebacate'
_symmetry_cell_setting           monoclinic
_symmetry_space_group_name_H-M   'C 2/c'
_symmetry_Int_Tables_number      15
_space_group_name_Hall           '-C 2yn'
loop_
_symmetry_equiv_pos_site_id
_symmetry_equiv_pos_as_xyz
1 x,y,z
2 -x,y,1/2-z
3 1/2+x,1/2+y,z
4 1/2-x,1/2+y,1/2-z
5 -x,-y,-z
6 x,-y,1/2+z
7 1/2-x,1/2-y,-z
8 1/2+x,1/2-y,1/2+z
_cell_length_a                   10.9540(9)
_cell_length_b                   17.7841(16)
_cell_length_c                   15.1689(13)
_cell_angle_alpha                90
_cell_angle_beta                 111.165(2)
_cell_angle_gamma                90
_cell_volume                     2755.68
_exptl_crystal_colour            colorless
_exptl_crystal_description       block
_cell_formula_units_Z            4
loop_
_atom_site_label
_atom_site_type_symbol
_atom_site_fract_x
_atom_site_fract_y
_atom_site_fract_z
N1 N 0.3727(3) 0.27931(17) 0.3053(2)
H1 H 0.4162 0.3194 0.3287
C1 C 0.2533(4) 0.2842(2) 0.2402(3)
C2 C 0.1834(4) 0.2193(3) 0.2010(3)
H2 H 0.1002 0.2236 0.1550
C3 C 0.2340(4) 0.1507(3) 0.2285(3)
H3 H 0.1861 0.1081 0.2014
C4 C 0.3587(4) 0.1436(2) 0.2980(3)
C5 C 0.4259(4) 0.2104(2) 0.3349(3)
C6 C 0.5526(4) 0.2058(2) 0.4050(3)
H4 H 0.5992 0.2495 0.4296
C7 C 0.6057(4) 0.1380(3) 0.4364(3)
H5 H 0.6887 0.1356 0.4830
C8 C 0.5389(5) 0.0708(3) 0.4003(3)
H6 H 0.5773 0.0246 0.4226
C9 C 0.4173(5) 0.0744(2) 0.3324(3)
H7 H 0.3724 0.0301 0.3084
C10 C 0.1964(4) 0.3608(2) 0.2118(3)
H8 H 0.2598 0.3981 0.2446
H9 H 0.1197 0.3663 0.2277
H10 H 0.1733 0.3670 0.1449
O1 O 0.4129(3) 0.48382(17) 0.3370(3)
O2 O 0.5499(3) 0.38954(15) 0.3843(2)
C11 C 0.5204(4) 0.4614(2) 0.3797(3)
C12 C 0.6341(4) 0.5106(2) 0.4343(3)
H11 H 0.7060 0.5004 0.4130
H12 H 0.6626 0.4970 0.5006
C13 C 0.6054(3) 0.5941(2) 0.4249(3)
H13 H 0.5298 0.6042 0.4421
H14 H 0.5833 0.6087 0.3594
C14 C 0.7195(4) 0.6417(2) 0.4863(3)
H15 H 0.7969 0.6287 0.4728
H16 H 0.7369 0.6302 0.5523
C15 C 0.6936(3) 0.7256(2) 0.4704(3)
H17 H 0.6746 0.7367 0.4042
H18 H 0.6166 0.7384 0.4846
O1F O 1.0871(3) 1.01618(17) 0.6630(3)
O2F O 0.9501(3) 1.11046(15) 0.6157(2)
C11F C 0.9796(4) 1.0386(2) 0.6203(3)
C12F C 0.8659(4) 0.9894(2) 0.5657(3)
H11F H 0.7940 0.9996 0.5870
H12F H 0.8374 1.0030 0.4994
C13F C 0.8946(3) 0.9059(2) 0.5751(3)
H13F H 0.9702 0.8958 0.5579
H14F H 0.9167 0.8913 0.6406
C14F C 0.7805(4) 0.8583(2) 0.5137(3)
H15F H 0.7031 0.8713 0.5272
H16F H 0.7631 0.8698 0.4477
C15F C 0.8064(3) 0.7744(2) 0.5296(3)
H17F H 0.8254 0.7633 0.5958
H18F H 0.8834 0.7616 0.5154
loop_
_geom_bond_atom_site_label_1
_geom_bond_atom_site_label_2
_geom_bond_site_symmetry_1
_geom_bond_site_symmetry_2
N1 H1 1_555 1_555
C1 N1 1_555 1_555
C2 C1 1_555 1_555
H2 C2 1_555 1_555
C3 C2 1_555 1_555
H3 C3 1_555 1_555
C4 C3 1_555 1_555
C5 N1 1_555 1_555
C6 C5 1_555 1_555
H4 C6 1_555 1_555
C7 C6 1_555 1_555
H5 C7 1_555 1_555
C8 C7 1_555 1_555
H6 C8 1_555 1_555
C9 C4 1_555 1_555
H7 C9 1_555 1_555
C10 C1 1_555 1_555
H8 C10 1_555 1_555
H9 C10 1_555 1_555
H10 C10 1_555 1_555
O1 C11 1_555 1_555
O2 C11 1_555 1_555
C11 C12 1_555 1_555
C12 H11 1_555 1_555
H12 C12 1_555 1_555
C13 C12 1_555 1_555
H13 C13 1_555 1_555
H14 C13 1_555 1_555
C14 C13 1_555 1_555
H15 C14 1_555 1_555
H16 C14 1_555 1_555
C15 C14 1_555 1_555
H17 C15 1_555 1_555
H18 C15 1_555 1_555
O1F C11F 1_555 1_555
O2F C11F 1_555 1_555
C11F C12F 1_555 1_555
C12F H11F 1_555 1_555
H12F C12F 1_555 1_555
C13F C12F 1_555 1_555
H13F C13F 1_555 1_555
H14F C13F 1_555 1_555
C14F C13F 1_555 1_555
H15F C14F 1_555 1_555
H16F C14F 1_555 1_555
C15F C15 1_555 1_555
H17F C15F 1_555 1_555
H18F C15F 1_555 1_555
C4 C5 1_555 1_555
C8 C9 1_555 1_555
C14F C15F 1_555 1_555

#END
