
#######################################################################
#
#                 Cambridge Crystallographic Data Centre
#                                CCDC 
#
#######################################################################
#
# If this CIF has been generated from an entry in the Cambridge 
# Structural Database, then it will include bibliographic, chemical, 
# crystal, experimental, refinement or atomic coordinate data resulting 
# from the CCDC's data processing and validation procedures.
#
#######################################################################

data_EFUZUC
_chemical_formula_moiety         'C10 H6 O6 S2 2-,2(C10 H10 N1 1+),2(H2 O1)'
_chemical_name_systematic        
'2-methylquinolinium naphthalene-1,5-disulfonate dihydrate'
_symmetry_cell_setting           monoclinic
_symmetry_space_group_name_H-M   'P 21/n'
_symmetry_Int_Tables_number      14
_space_group_name_Hall           '-P 2yn'
loop_
_symmetry_equiv_pos_site_id
_symmetry_equiv_pos_as_xyz
1 x,y,z
2 1/2-x,1/2+y,1/2-z
3 -x,-y,-z
4 1/2+x,1/2-y,1/2+z
_cell_length_a                   11.6239(11)
_cell_length_b                   7.0582(5)
_cell_length_c                   17.3136(16)
_cell_angle_alpha                90
_cell_angle_beta                 91.1360(10)
_cell_angle_gamma                90
_cell_volume                     1420.19
_exptl_crystal_colour            colorless
_exptl_crystal_description       block
_cell_formula_units_Z            2
loop_
_atom_site_label
_atom_site_type_symbol
_atom_site_fract_x
_atom_site_fract_y
_atom_site_fract_z
N1 N 0.45984(18) 0.8005(3) 0.12070(12)
H1 H 0.4118 0.8148 0.1574
C1 C 0.5712(2) 0.8130(4) 0.13826(16)
C2 C 0.6500(2) 0.7919(4) 0.07883(18)
H2 H 0.7285 0.7992 0.0898
C3 C 0.6125(2) 0.7607(4) 0.00532(18)
H3 H 0.6658 0.7488 -0.0337
C4 C 0.4947(2) 0.7462(4) -0.01293(15)
C5 C 0.4160(2) 0.7660(4) 0.04723(15)
C6 C 0.2976(2) 0.7531(4) 0.03360(16)
H4 H 0.2466 0.7655 0.0740
C7 C 0.2581(3) 0.7219(5) -0.04012(17)
H5 H 0.1792 0.7148 -0.0500
C8 C 0.3345(3) 0.7005(5) -0.10097(17)
H6 H 0.3060 0.6779 -0.1507
C9 C 0.4494(3) 0.7123(4) -0.08817(16)
H7 H 0.4992 0.6980 -0.1292
C10 C 0.6075(3) 0.8485(5) 0.21953(16)
H8 H 0.5550 0.9358 0.2427
H9 H 0.6836 0.9012 0.2209
H10 H 0.6073 0.7313 0.2477
O1 O 0.57303(16) 0.5415(3) 0.75306(10)
O2 O 0.57955(17) 0.8168(3) 0.67159(11)
O3 O 0.39661(16) 0.6720(3) 0.69997(11)
S1 S 0.51752(6) 0.64391(11) 0.68978(4)
C11 C 0.4444(2) 0.7435(4) 0.51948(14)
H11 H 0.4358 0.8255 0.5610
C12 C 0.49306(19) 0.5624(4) 0.53198(13)
C13 C 0.5312(2) 0.4971(4) 0.60681(13)
C14 C 0.5789(2) 0.3219(4) 0.61607(15)
H12 H 0.6041 0.2826 0.6648
C15 C 0.5902(2) 0.2008(4) 0.55243(15)
H13 H 0.6218 0.0808 0.5595
O1B O 0.42697(16) 0.4585(3) 0.24694(10)
O2B O 0.42045(17) 0.1832(3) 0.32841(11)
O3B O 0.60339(16) 0.3280(3) 0.30003(11)
S1B S 0.48248(6) 0.35609(11) 0.31022(4)
C11B C 0.5556(2) 0.2565(4) 0.48052(14)
H11B H 0.5642 0.1745 0.4390
C12B C 0.50694(19) 0.4376(4) 0.46802(13)
C13B C 0.4688(2) 0.5029(4) 0.39319(13)
C14B C 0.4211(2) 0.6781(4) 0.38393(15)
H12B H 0.3959 0.7174 0.3352
C15B C 0.4098(2) 0.7992(4) 0.44757(15)
H13B H 0.3782 0.9192 0.4405
O4 O 0.81459(16) 0.5602(3) 0.72644(11)
H14 H 0.7426 0.5550 0.7339
H15 H 0.8480 0.4846 0.7578
loop_
_geom_bond_atom_site_label_1
_geom_bond_atom_site_label_2
_geom_bond_site_symmetry_1
_geom_bond_site_symmetry_2
N1 H1 1_555 1_555
C1 N1 1_555 1_555
C2 C1 1_555 1_555
H2 C2 1_555 1_555
C3 C2 1_555 1_555
H3 C3 1_555 1_555
C4 C3 1_555 1_555
C5 N1 1_555 1_555
C6 C5 1_555 1_555
H4 C6 1_555 1_555
C7 C6 1_555 1_555
H5 C7 1_555 1_555
C8 C7 1_555 1_555
H6 C8 1_555 1_555
C9 C4 1_555 1_555
H7 C9 1_555 1_555
C10 C1 1_555 1_555
H8 C10 1_555 1_555
H9 C10 1_555 1_555
H10 C10 1_555 1_555
O1 S1 1_555 1_555
O2 S1 1_555 1_555
O3 S1 1_555 1_555
S1 C13 1_555 1_555
C11 H11 1_555 1_555
C12 C11 1_555 1_555
C13 C12 1_555 1_555
C14 C13 1_555 1_555
H12 C14 1_555 1_555
C15 C14 1_555 1_555
H13 C15 1_555 1_555
O4 H14 1_555 1_555
H15 O4 1_555 1_555
O1B S1B 1_555 1_555
O2B S1B 1_555 1_555
O3B S1B 1_555 1_555
S1B C13B 1_555 1_555
C11B C15 1_555 1_555
H11B C11B 1_555 1_555
C12B C12 1_555 1_555
C13B C12B 1_555 1_555
C14B C13B 1_555 1_555
H12B C14B 1_555 1_555
C15B C11 1_555 1_555
H13B C15B 1_555 1_555
C4 C5 1_555 1_555
C8 C9 1_555 1_555
C11B C12B 1_555 1_555
C14B C15B 1_555 1_555

#END
