
#######################################################################
#
#                 Cambridge Crystallographic Data Centre
#                                CCDC 
#
#######################################################################
#
# If this CIF has been generated from an entry in the Cambridge 
# Structural Database, then it will include bibliographic, chemical, 
# crystal, experimental, refinement or atomic coordinate data resulting 
# from the CCDC's data processing and validation procedures.
#
#######################################################################

data_EFUZEL
_chemical_formula_moiety         'C21 H19 F1 O2'
_chemical_name_systematic        
5'-Fluoro-3'-hydroxy-3'-methyl-2-propyl-1,2'-spirobi[inden]-1'(3'H)-one
_symmetry_cell_setting           triclinic
_symmetry_space_group_name_H-M   'P -1'
_symmetry_Int_Tables_number      2
_space_group_name_Hall           '-P 1'
loop_
_symmetry_equiv_pos_site_id
_symmetry_equiv_pos_as_xyz
1 x,y,z
2 -x,-y,-z
_cell_length_a                   6.7127(4)
_cell_length_b                   8.2313(5)
_cell_length_c                   15.3438(9)
_cell_angle_alpha                88.073(2)
_cell_angle_beta                 88.545(2)
_cell_angle_gamma                79.245(2)
_cell_volume                     832.289
_exptl_crystal_colour            colorless
_exptl_crystal_description       Acicular
_cell_formula_units_Z            2
loop_
_atom_site_label
_atom_site_type_symbol
_atom_site_fract_x
_atom_site_fract_y
_atom_site_fract_z
C1 C 0.8291(2) 0.3585(2) 0.17114(11)
C2 C 0.7140(2) 0.3255(2) 0.09537(12)
C3 C 0.7589(3) 0.3420(2) 0.00713(13)
H1 H 0.8752 0.3802 -0.0116
C4 C 0.6274(3) 0.3004(3) -0.05203(13)
H2 H 0.6527 0.3103 -0.1117
C5 C 0.4579(3) 0.2439(3) -0.02107(14)
C6 C 0.4086(3) 0.2255(2) 0.06506(13)
H3 H 0.2924 0.1862 0.0830
C7 C 0.5412(2) 0.2685(2) 0.12464(11)
C8 C 0.5149(2) 0.2750(2) 0.22278(11)
C9 C 0.7344(2) 0.2843(2) 0.25211(11)
C10 C 0.8633(2) 0.1112(2) 0.26601(12)
C11 C 0.9024(3) -0.0213(2) 0.21184(13)
H4 H 0.8495 -0.0133 0.1561
C12 C 1.0232(3) -0.1678(2) 0.24235(15)
H5 H 1.0484 -0.2594 0.2071
C13 C 1.1048(3) -0.1780(2) 0.32360(15)
H6 H 1.1860 -0.2763 0.3426
C14 C 1.0683(3) -0.0444(2) 0.37796(13)
H7 H 1.1251 -0.0519 0.4330
C15 C 0.9455(2) 0.1009(2) 0.34880(11)
C16 C 0.8812(2) 0.2584(2) 0.38940(12)
H8 H 0.9190 0.2821 0.4448
C17 C 0.7606(2) 0.3659(2) 0.33755(11)
C18 C 0.4265(3) 0.1350(2) 0.26508(13)
H9 H 0.4331 0.1398 0.3273
H10 H 0.5025 0.0311 0.2462
H11 H 0.2876 0.1451 0.2486
C19 C 0.6709(3) 0.5414(2) 0.35593(12)
H12 H 0.5243 0.5536 0.3561
H13 H 0.7092 0.6110 0.3085
C20 C 0.7312(3) 0.6042(2) 0.44032(13)
H14 H 0.8767 0.5994 0.4391
H15 H 0.6995 0.5320 0.4879
C21 C 0.6262(3) 0.7793(2) 0.45764(15)
H16 H 0.6536 0.8511 0.4100
H17 H 0.6758 0.8148 0.5106
H18 H 0.4827 0.7834 0.4634
F1 F 0.3282(2) 0.20749(18) -0.08079(9)
O1 O 0.97764(17) 0.42369(15) 0.16964(8)
O2 O 0.38683(16) 0.43038(15) 0.24206(8)
H19 H 0.2707 0.4289 0.2273
loop_
_geom_bond_atom_site_label_1
_geom_bond_atom_site_label_2
_geom_bond_site_symmetry_1
_geom_bond_site_symmetry_2
C1 C2 1_555 1_555
C2 C3 1_555 1_555
C3 H1 1_555 1_555
C4 C3 1_555 1_555
H2 C4 1_555 1_555
C5 C4 1_555 1_555
C6 C5 1_555 1_555
H3 C6 1_555 1_555
C7 C2 1_555 1_555
C8 C7 1_555 1_555
C9 C1 1_555 1_555
C10 C9 1_555 1_555
C11 C10 1_555 1_555
H4 C11 1_555 1_555
C12 C11 1_555 1_555
H5 C12 1_555 1_555
C13 C12 1_555 1_555
H6 C13 1_555 1_555
C14 C13 1_555 1_555
H7 C14 1_555 1_555
C15 C10 1_555 1_555
C16 C15 1_555 1_555
H8 C16 1_555 1_555
C17 C9 1_555 1_555
C18 C8 1_555 1_555
H9 C18 1_555 1_555
H10 C18 1_555 1_555
H11 C18 1_555 1_555
C19 C17 1_555 1_555
H12 C19 1_555 1_555
H13 C19 1_555 1_555
C20 C19 1_555 1_555
H14 C20 1_555 1_555
H15 C20 1_555 1_555
C21 C20 1_555 1_555
H16 C21 1_555 1_555
H17 C21 1_555 1_555
H18 C21 1_555 1_555
F1 C5 1_555 1_555
O1 C1 1_555 1_555
O2 C8 1_555 1_555
H19 O2 1_555 1_555
C6 C7 1_555 1_555
C8 C9 1_555 1_555
C14 C15 1_555 1_555
C16 C17 1_555 1_555

#END
