
#######################################################################
#
#                 Cambridge Crystallographic Data Centre
#                                CCDC 
#
#######################################################################
#
# If this CIF has been generated from an entry in the Cambridge 
# Structural Database, then it will include bibliographic, chemical, 
# crystal, experimental, refinement or atomic coordinate data resulting 
# from the CCDC's data processing and validation procedures.
#
#######################################################################

data_EGABEV
_chemical_formula_moiety         'C10 H10 N1 1+,C7 H4 Cl1 O3 1-'
_chemical_name_systematic        
'2-methylquinolinium 5-chloro-2-hydroxybenzoate'
_symmetry_cell_setting           triclinic
_symmetry_space_group_name_H-M   'P -1'
_symmetry_Int_Tables_number      2
_space_group_name_Hall           '-P 1'
loop_
_symmetry_equiv_pos_site_id
_symmetry_equiv_pos_as_xyz
1 x,y,z
2 -x,-y,-z
_cell_length_a                   8.9391(8)
_cell_length_b                   9.3978(9)
_cell_length_c                   10.6494(13)
_cell_angle_alpha                106.979(2)
_cell_angle_beta                 91.0550(10)
_cell_angle_gamma                118.390(2)
_cell_volume                     739.467
_exptl_crystal_colour            colorless
_exptl_crystal_description       block
_cell_formula_units_Z            2
loop_
_atom_site_label
_atom_site_type_symbol
_atom_site_fract_x
_atom_site_fract_y
_atom_site_fract_z
Cl1 Cl 0.50121(13) 0.71563(16) 0.04883(11)
O1 O 0.0099(3) 0.6070(3) 0.3380(2)
O2 O -0.1781(3) 0.6575(4) 0.2501(2)
O3 O -0.1150(3) 0.7842(4) 0.0655(3)
H1 H -0.1689 0.7464 0.1206
C1 C -0.0430(4) 0.6491(4) 0.2522(3)
C2 C 0.0666(4) 0.6974(4) 0.1507(3)
C3 C 0.0269(4) 0.7681(4) 0.0653(3)
C4 C 0.1375(5) 0.8266(5) -0.0187(3)
H2 H 0.1146 0.8789 -0.0725
C5 C 0.2813(5) 0.8091(5) -0.0245(3)
H3 H 0.3546 0.8480 -0.0825
C6 C 0.3167(4) 0.7335(4) 0.0563(3)
C7 C 0.2112(4) 0.6789(4) 0.1435(3)
H4 H 0.2366 0.6292 0.1982
N1 N 0.1806(3) 0.4278(3) 0.4799(2)
H5 H 0.1111 0.4144 0.5359
C8 C 0.1468(4) 0.2930(4) 0.3749(3)
C9 C 0.2595(5) 0.3135(5) 0.2832(3)
H6 H 0.2361 0.2199 0.2081
C10 C 0.4022(4) 0.4687(4) 0.3031(3)
H7 H 0.4773 0.4805 0.2425
C11 C 0.4370(4) 0.6116(4) 0.4151(3)
C12 C 0.3203(4) 0.5872(4) 0.5038(3)
C13 C 0.3470(5) 0.7242(5) 0.6174(3)
H8 H 0.2696 0.7073 0.6762
C14 C 0.4867(5) 0.8811(5) 0.6400(4)
H9 H 0.5046 0.9725 0.7150
C15 C 0.6052(5) 0.9093(5) 0.5531(4)
H10 H 0.7003 1.0187 0.5707
C16 C 0.5818(4) 0.7780(5) 0.4436(3)
H11 H 0.6616 0.7974 0.3867
C17 C -0.0077(5) 0.1242(5) 0.3622(4)
H12 H -0.0396 0.1270 0.4481
H13 H 0.0196 0.0343 0.3294
H14 H -0.1023 0.1026 0.3010
loop_
_geom_bond_atom_site_label_1
_geom_bond_atom_site_label_2
_geom_bond_site_symmetry_1
_geom_bond_site_symmetry_2
Cl1 C6 1_555 1_555
O1 C1 1_555 1_555
O2 C1 1_555 1_555
O3 H1 1_555 1_555
C1 C2 1_555 1_555
C2 C3 1_555 1_555
C3 O3 1_555 1_555
C4 C3 1_555 1_555
H2 C4 1_555 1_555
C5 C4 1_555 1_555
H3 C5 1_555 1_555
C6 C5 1_555 1_555
C7 C2 1_555 1_555
H4 C7 1_555 1_555
N1 H5 1_555 1_555
C8 N1 1_555 1_555
C9 C8 1_555 1_555
H6 C9 1_555 1_555
C10 C9 1_555 1_555
H7 C10 1_555 1_555
C11 C10 1_555 1_555
C12 N1 1_555 1_555
C13 C12 1_555 1_555
H8 C13 1_555 1_555
C14 C13 1_555 1_555
H9 C14 1_555 1_555
C15 C14 1_555 1_555
H10 C15 1_555 1_555
C16 C11 1_555 1_555
H11 C16 1_555 1_555
C17 C8 1_555 1_555
H12 C17 1_555 1_555
H13 C17 1_555 1_555
H14 C17 1_555 1_555
C6 C7 1_555 1_555
C11 C12 1_555 1_555
C15 C16 1_555 1_555

#END
