
#######################################################################
#
#                 Cambridge Crystallographic Data Centre
#                                CCDC 
#
#######################################################################
#
# If this CIF has been generated from an entry in the Cambridge 
# Structural Database, then it will include bibliographic, chemical, 
# crystal, experimental, refinement or atomic coordinate data resulting 
# from the CCDC's data processing and validation procedures.
#
#######################################################################

data_EGAGUP01
_chemical_name_common            
3,5-Dimethyl-4,4-difluoro-8-(4-aminophenyl)-4-bora-3a,4a-diaza-s-indacene
_chemical_formula_moiety         'C17 H16 B1 F2 N3'
_chemical_name_systematic        
4-(5,5-Difluoro-3,7-dimethyl-5H-4\l^5^,5\l^5^-dipyrrolo[1,2-c:2',1'-f][1,3,2]diazaborinin-10-yl)aniline
_symmetry_cell_setting           monoclinic
_symmetry_space_group_name_H-M   'P 21/n'
_symmetry_Int_Tables_number      14
_space_group_name_Hall           '-P 2yn'
loop_
_symmetry_equiv_pos_site_id
_symmetry_equiv_pos_as_xyz
1 x,y,z
2 1/2-x,1/2+y,1/2-z
3 -x,-y,-z
4 1/2+x,1/2-y,1/2+z
_cell_length_a                   9.935(5)
_cell_length_b                   23.900(5)
_cell_length_c                   13.513(5)
_cell_angle_alpha                90
_cell_angle_beta                 103.184(5)
_cell_angle_gamma                90
_cell_volume                     3124.04
_exptl_crystal_colour            'black green'
_exptl_crystal_description       block
_cell_formula_units_Z            8
loop_
_atom_site_label
_atom_site_type_symbol
_atom_site_fract_x
_atom_site_fract_y
_atom_site_fract_z
N1 N 0.23970(14) 0.36326(5) 1.08000(11)
F1 F 0.32103(12) 0.44495(4) 1.00758(9)
F2 F 0.10564(13) 0.44762(5) 1.03631(9)
N2 N 0.14370(14) 0.38956(5) 0.89970(11)
C1 C 0.19943(17) 0.23341(6) 0.91414(12)
C2 C 0.24258(16) 0.30745(6) 1.04980(12)
C3 C 0.14227(17) 0.33280(7) 0.87438(13)
C4 C 0.19441(19) 0.12389(7) 0.83656(14)
C5 C 0.19475(16) 0.29194(6) 0.94755(13)
C6 C 0.25070(19) 0.22139(7) 0.82823(13)
B1 B 0.2020(2) 0.41341(8) 1.00708(17)
C7 C 0.2494(2) 0.16811(7) 0.79088(14)
C8 C 0.30356(19) 0.27593(8) 1.13573(14)
C9 C 0.29609(19) 0.36575(7) 1.18161(14)
C10 C 0.08551(19) 0.41855(7) 0.81460(15)
C11 C 0.15106(19) 0.18861(7) 0.96280(14)
C12 C 0.0782(2) 0.32808(8) 0.77049(15)
C13 C 0.1480(2) 0.13489(7) 0.92447(15)
C14 C 0.0440(2) 0.38087(8) 0.73357(17)
C15 C 0.3353(2) 0.31201(8) 1.21729(16)
C16 C 0.3125(3) 0.41920(11) 1.2399(2)
C17 C 0.0708(3) 0.48061(9) 0.8125(2)
N3 N 0.1923(2) 0.07085(7) 0.79595(18)
H1 H 0.291(2) 0.1610(7) 0.7348(15)
H2 H 0.3168(17) 0.2356(7) 1.1353(12)
H3 H 0.1109(19) 0.1956(7) 1.0221(15)
H4 H 0.0610(19) 0.2928(8) 0.7334(14)
H5 H 0.109(2) 0.1064(8) 0.9582(14)
H6 H 0.2887(19) 0.2516(8) 0.7942(14)
H7 H -0.002(2) 0.3910(9) 0.6619(17)
H8 H 0.141(2) 0.0442(10) 0.8217(17)
H9 H 0.354(3) 0.4116(11) 1.310(2)
H10 H 0.379(2) 0.3028(8) 1.2871(16)
H11 H 0.194(3) 0.0677(10) 0.729(2)
H12 H 0.040(3) 0.4940(12) 0.747(2)
H13 H 0.225(3) 0.4363(11) 1.233(2)
H14 H 0.377(4) 0.4459(13) 1.215(2)
H15 H 0.015(4) 0.4945(15) 0.860(3)
H16 H 0.155(4) 0.4975(13) 0.842(2)
C18 C 1.02099(18) 0.22413(7) 0.21064(13)
H17 H 0.698(3) 0.4534(10) 0.0106(19)
H18 H 0.550(3) 0.4377(10) 0.013(2)
H19 H 0.5572(17) 0.2505(7) 0.0522(12)
H20 H 0.672(3) -0.0087(11) 0.036(2)
H21 H 0.607(3) -0.0058(11) -0.079(2)
H22 H 1.256(3) 0.0916(9) 0.3186(18)
C19 C 1.1732(3) 0.08359(10) 0.2671(2)
N4 N 0.97371(14) 0.13502(5) 0.15866(10)
F3 F 0.85632(14) 0.05076(5) 0.18632(9)
F4 F 0.97499(13) 0.05036(5) 0.06293(10)
N5 N 0.76363(15) 0.10333(5) 0.03444(10)
C20 C 0.80590(17) 0.20295(6) 0.06916(12)
C21 C 0.92685(17) 0.19004(6) 0.14257(12)
C22 C 0.76186(17) 0.26178(6) 0.05051(12)
C23 C 0.62467(18) 0.27814(7) 0.04465(13)
C24 C 0.58500(19) 0.33326(7) 0.03401(14)
C25 C 0.85607(19) 0.30408(7) 0.04137(13)
B2 B 0.8938(2) 0.08269(8) 0.11123(16)
C26 C 0.72609(18) 0.15934(7) 0.01492(13)
C27 C 1.09252(19) 0.13538(7) 0.23201(13)
C28 C 0.68046(19) 0.37516(7) 0.02814(13)
N6 N 0.6413(3) 0.43075(7) 0.02751(16)
C29 C 0.6690(2) 0.07116(7) -0.02851(14)
C30 C 1.1227(2) 0.19030(8) 0.26486(14)
C31 C 0.81659(19) 0.35947(7) 0.02976(14)
C32 C 0.6052(2) 0.16009(8) -0.06308(15)
C33 C 0.5695(2) 0.10561(8) -0.08870(17)
C34 C 0.6790(3) 0.00879(9) -0.0300(2)
H23 H 1.0131(16) 0.2649(7) 0.2153(12)
H24 H 0.490(2) 0.3434(7) 0.0331(13)
H25 H 0.9485(19) 0.2943(7) 0.0403(13)
H26 H 0.5599(19) 0.1925(8) -0.0926(14)
H27 H 1.202(2) 0.2019(7) 0.3179(14)
H28 H 0.885(2) 0.3883(8) 0.0255(13)
H29 H 0.492(2) 0.0925(8) -0.1391(16)
H30 H 1.195(3) 0.0638(11) 0.213(2)
H31 H 1.118(3) 0.0584(12) 0.299(2)
H32 H 0.766(3) -0.0049(12) -0.042(2)
loop_
_geom_bond_atom_site_label_1
_geom_bond_atom_site_label_2
_geom_bond_site_symmetry_1
_geom_bond_site_symmetry_2
N1 C2 1_555 1_555
F1 B1 1_555 1_555
F2 B1 1_555 1_555
N2 C3 1_555 1_555
C1 C5 1_555 1_555
C2 C5 1_555 1_555
C3 C5 1_555 1_555
C4 C7 1_555 1_555
C6 C1 1_555 1_555
B1 N1 1_555 1_555
C7 C6 1_555 1_555
C8 C2 1_555 1_555
C9 N1 1_555 1_555
C10 N2 1_555 1_555
C11 C1 1_555 1_555
C12 C3 1_555 1_555
C13 C4 1_555 1_555
C14 C10 1_555 1_555
C15 C8 1_555 1_555
C16 C9 1_555 1_555
C17 C10 1_555 1_555
N3 C4 1_555 1_555
H1 C7 1_555 1_555
H2 C8 1_555 1_555
H3 C11 1_555 1_555
H4 C12 1_555 1_555
H5 C13 1_555 1_555
H6 C6 1_555 1_555
H7 C14 1_555 1_555
H8 N3 1_555 1_555
H9 C16 1_555 1_555
H10 C15 1_555 1_555
H11 N3 1_555 1_555
H12 C17 1_555 1_555
H13 C16 1_555 1_555
H14 C16 1_555 1_555
H15 C17 1_555 1_555
H16 C17 1_555 1_555
C18 C21 1_555 1_555
H17 N6 1_555 1_555
H18 N6 1_555 1_555
H19 C23 1_555 1_555
H20 C34 1_555 1_555
H21 C34 1_555 1_555
H22 C19 1_555 1_555
C19 C27 1_555 1_555
N4 C21 1_555 1_555
F3 B2 1_555 1_555
F4 B2 1_555 1_555
N5 B2 1_555 1_555
C20 C21 1_555 1_555
C22 C20 1_555 1_555
C23 C22 1_555 1_555
C24 C23 1_555 1_555
C25 C22 1_555 1_555
B2 N4 1_555 1_555
C26 N5 1_555 1_555
C27 N4 1_555 1_555
C28 C24 1_555 1_555
N6 C28 1_555 1_555
C29 N5 1_555 1_555
C30 C18 1_555 1_555
C31 C25 1_555 1_555
C32 C26 1_555 1_555
C33 C29 1_555 1_555
C34 C29 1_555 1_555
H23 C18 1_555 1_555
H24 C24 1_555 1_555
H25 C25 1_555 1_555
H26 C32 1_555 1_555
H27 C30 1_555 1_555
H28 C31 1_555 1_555
H29 C33 1_555 1_555
H30 C19 1_555 1_555
H31 C19 1_555 1_555
H32 C34 1_555 1_555
N2 B1 1_555 1_555
C9 C15 1_555 1_555
C11 C13 1_555 1_555
C12 C14 1_555 1_555
C20 C26 1_555 1_555
C27 C30 1_555 1_555
C28 C31 1_555 1_555
C32 C33 1_555 1_555

#END
