
#######################################################################
#
#                 Cambridge Crystallographic Data Centre
#                                CCDC 
#
#######################################################################
#
# If this CIF has been generated from an entry in the Cambridge 
# Structural Database, then it will include bibliographic, chemical, 
# crystal, experimental, refinement or atomic coordinate data resulting 
# from the CCDC's data processing and validation procedures.
#
#######################################################################

data_EGALAA
_chemical_formula_moiety         'C52 H34 S2'
_chemical_name_systematic        
5-((2',3',4',5'-Tetraphenyl)phenyl)-5'-(9-anthracenyl)-2,2'-bithiophene
_symmetry_cell_setting           triclinic
_symmetry_space_group_name_H-M   'P -1'
_symmetry_Int_Tables_number      2
_space_group_name_Hall           '-P 1'
loop_
_symmetry_equiv_pos_site_id
_symmetry_equiv_pos_as_xyz
1 x,y,z
2 -x,-y,-z
_cell_length_a                   10.1667(5)
_cell_length_b                   11.0179(6)
_cell_length_c                   18.5125(14)
_cell_angle_alpha                90.360(2)
_cell_angle_beta                 96.885(2)
_cell_angle_gamma                111.722(3)
_cell_volume                     1909.66
_exptl_crystal_colour            yellow
_exptl_crystal_description       prism
_cell_formula_units_Z            2
_exptl_crystal_recrystallization_method methanol/thf
_exptl_crystal_preparation       photoluminescent
loop_
_atom_site_label
_atom_site_type_symbol
_atom_site_fract_x
_atom_site_fract_y
_atom_site_fract_z
S1 S 0.45742(4) 0.37354(3) 0.761463(16)
S2 S 0.52668(3) 0.34756(3) 0.536887(16)
C1 C 0.49665(13) 0.53634(12) 0.78570(6)
C2 C 0.51102(16) 0.60810(13) 0.72564(7)
H1 H 0.5322 0.6997 0.7276
C3 C 0.49142(16) 0.53347(13) 0.65986(7)
H2 H 0.4980 0.5699 0.6134
C4 C 0.46210(13) 0.40406(12) 0.66989(6)
C5 C 0.44577(13) 0.30258(12) 0.61472(6)
C6 C 0.37603(13) 0.17030(12) 0.61319(7)
H3 H 0.3265 0.1262 0.6515
C7 C 0.38464(13) 0.10477(12) 0.54867(7)
H4 H 0.3399 0.0128 0.5392
C8 C 0.46341(13) 0.18698(11) 0.50158(6)
C9 C 0.52709(13) 0.58621(12) 0.86294(6)
C10 C 0.41613(13) 0.57847(12) 0.90367(6)
C11 C 0.26885(14) 0.51875(13) 0.87500(7)
H5 H 0.2427 0.4771 0.8275
C12 C 0.16495(15) 0.52062(14) 0.91477(8)
H6 H 0.0675 0.4817 0.8942
C13 C 0.20030(15) 0.57984(15) 0.98643(8)
H7 H 0.1268 0.5812 1.0133
C14 C 0.33875(15) 0.63447(14) 1.01657(7)
H8 H 0.3613 0.6718 1.0650
C15 C 0.45126(14) 0.63682(12) 0.97658(7)
C16 C 0.59355(14) 0.69707(12) 1.00631(7)
H9 H 0.6159 0.7337 1.0549
C17 C 0.70440(14) 0.70518(12) 0.96661(7)
C18 C 0.85032(15) 0.76932(14) 0.99667(7)
H10 H 0.8730 0.8074 1.0450
C19 C 0.95733(15) 0.77687(15) 0.95748(8)
H11 H 1.0540 0.8204 0.9784
C20 C 0.92549(15) 0.71989(15) 0.88532(8)
H12 H 1.0011 0.7250 0.8584
C21 C 0.78770(14) 0.65805(13) 0.85442(7)
H13 H 0.7685 0.6203 0.8062
C22 C 0.67119(13) 0.64878(12) 0.89332(6)
C23 C 0.50439(13) 0.16104(12) 0.43097(6)
C24 C 0.40769(13) 0.07120(11) 0.37673(6)
C25 C 0.45447(13) 0.05374(11) 0.31039(6)
C26 C 0.59724(13) 0.12037(12) 0.29805(6)
C27 C 0.69340(13) 0.20915(12) 0.35280(6)
C28 C 0.64466(13) 0.22840(12) 0.41753(6)
H14 H 0.7094 0.2897 0.4539
C29 C 0.25776(13) -0.00881(12) 0.38887(6)
C30 C 0.15788(14) 0.04846(14) 0.39466(7)
H15 H 0.1847 0.1403 0.3913
C31 C 0.01918(15) -0.02835(15) 0.40537(8)
H16 H -0.0483 0.0114 0.4097
C32 C -0.02148(15) -0.16250(15) 0.40982(8)
H17 H -0.1166 -0.2146 0.4170
C33 C 0.07698(15) -0.22054(14) 0.40382(7)
H18 H 0.0494 -0.3125 0.4066
C34 C 0.21617(14) -0.14372(13) 0.39369(7)
H19 H 0.2836 -0.1836 0.3900
C35 C 0.34731(13) -0.03507(12) 0.25140(6)
C36 C 0.24858(14) 0.00699(13) 0.21167(7)
H20 H 0.2481 0.0911 0.2228
C37 C 0.15067(16) -0.07331(15) 0.15583(8)
H21 H 0.0855 -0.0430 0.1279
C38 C 0.14815(15) -0.19745(15) 0.14087(8)
H22 H 0.0804 -0.2528 0.1031
C39 C 0.24447(15) -0.24091(13) 0.18098(7)
H23 H 0.2420 -0.3265 0.1712
C40 C 0.34457(14) -0.15952(12) 0.23545(7)
H24 H 0.4118 -0.1891 0.2621
C41 C 0.64352(13) 0.09240(12) 0.22800(7)
C42 C 0.57917(15) 0.11422(13) 0.16098(7)
H25 H 0.5100 0.1534 0.1597
C43 C 0.61550(17) 0.07902(14) 0.09606(8)
H26 H 0.5718 0.0950 0.0508
C44 C 0.71478(18) 0.02097(14) 0.09731(8)
H27 H 0.7369 -0.0058 0.0530
C45 C 0.78208(17) 0.00178(14) 0.16328(9)
H28 H 0.8516 -0.0370 0.1641
C46 C 0.74836(15) 0.03914(13) 0.22855(8)
H29 H 0.7971 0.0282 0.2736
C47 C 0.84478(13) 0.29006(12) 0.34433(7)
C48 C 0.87786(15) 0.36496(13) 0.28400(7)
H30 H 0.8043 0.3592 0.2457
C49 C 1.01737(16) 0.44802(15) 0.27934(8)
H31 H 1.0384 0.4996 0.2382
C50 C 1.12602(15) 0.45631(15) 0.33414(8)
H32 H 1.2214 0.5131 0.3307
C51 C 1.09495(15) 0.38141(15) 0.39401(8)
H33 H 1.1693 0.3862 0.4316
C52 C 0.95485(15) 0.29894(14) 0.39943(8)
H34 H 0.9341 0.2484 0.4409
loop_
_geom_bond_atom_site_label_1
_geom_bond_atom_site_label_2
_geom_bond_site_symmetry_1
_geom_bond_site_symmetry_2
S1 C1 1_555 1_555
S2 C5 1_555 1_555
C1 C2 1_555 1_555
C2 H1 1_555 1_555
C3 C2 1_555 1_555
H2 C3 1_555 1_555
C4 S1 1_555 1_555
C5 C4 1_555 1_555
C6 C5 1_555 1_555
H3 C6 1_555 1_555
C7 C6 1_555 1_555
H4 C7 1_555 1_555
C8 S2 1_555 1_555
C9 C1 1_555 1_555
C10 C9 1_555 1_555
C11 C10 1_555 1_555
H5 C11 1_555 1_555
C12 C11 1_555 1_555
H6 C12 1_555 1_555
C13 C12 1_555 1_555
H7 C13 1_555 1_555
C14 C13 1_555 1_555
H8 C14 1_555 1_555
C15 C10 1_555 1_555
C16 C15 1_555 1_555
H9 C16 1_555 1_555
C17 C16 1_555 1_555
C18 C17 1_555 1_555
H10 C18 1_555 1_555
C19 C18 1_555 1_555
H11 C19 1_555 1_555
C20 C19 1_555 1_555
H12 C20 1_555 1_555
C21 C20 1_555 1_555
H13 C21 1_555 1_555
C22 C9 1_555 1_555
C23 C8 1_555 1_555
C24 C23 1_555 1_555
C25 C24 1_555 1_555
C26 C25 1_555 1_555
C27 C26 1_555 1_555
C28 C23 1_555 1_555
H14 C28 1_555 1_555
C29 C24 1_555 1_555
C30 C29 1_555 1_555
H15 C30 1_555 1_555
C31 C30 1_555 1_555
H16 C31 1_555 1_555
C32 C31 1_555 1_555
H17 C32 1_555 1_555
C33 C32 1_555 1_555
H18 C33 1_555 1_555
C34 C29 1_555 1_555
H19 C34 1_555 1_555
C35 C25 1_555 1_555
C36 C35 1_555 1_555
H20 C36 1_555 1_555
C37 C36 1_555 1_555
H21 C37 1_555 1_555
C38 C37 1_555 1_555
H22 C38 1_555 1_555
C39 C38 1_555 1_555
H23 C39 1_555 1_555
C40 C35 1_555 1_555
H24 C40 1_555 1_555
C41 C26 1_555 1_555
C42 C41 1_555 1_555
H25 C42 1_555 1_555
C43 C42 1_555 1_555
H26 C43 1_555 1_555
C44 C43 1_555 1_555
H27 C44 1_555 1_555
C45 C44 1_555 1_555
H28 C45 1_555 1_555
C46 C41 1_555 1_555
H29 C46 1_555 1_555
C47 C27 1_555 1_555
C48 C47 1_555 1_555
H30 C48 1_555 1_555
C49 C48 1_555 1_555
H31 C49 1_555 1_555
C50 C49 1_555 1_555
H32 C50 1_555 1_555
C51 C50 1_555 1_555
H33 C51 1_555 1_555
C52 C47 1_555 1_555
H34 C52 1_555 1_555
C3 C4 1_555 1_555
C7 C8 1_555 1_555
C14 C15 1_555 1_555
C17 C22 1_555 1_555
C21 C22 1_555 1_555
C27 C28 1_555 1_555
C33 C34 1_555 1_555
C39 C40 1_555 1_555
C45 C46 1_555 1_555
C51 C52 1_555 1_555

#END
