
#######################################################################
#
#                 Cambridge Crystallographic Data Centre
#                                CCDC 
#
#######################################################################
#
# If this CIF has been generated from an entry in the Cambridge 
# Structural Database, then it will include bibliographic, chemical, 
# crystal, experimental, refinement or atomic coordinate data resulting 
# from the CCDC's data processing and validation procedures.
#
#######################################################################

data_EGAXAL01
_chemical_formula_moiety         'C16 H28 N3 O3'
_chemical_name_systematic        
N-(2,2,5,5-Tetramethyl-1-oxo-3-pyrroline-3-carbonyl)-N,N'-diisopropylurea
_symmetry_cell_setting           triclinic
_symmetry_space_group_name_H-M   'P -1'
_symmetry_Int_Tables_number      2
_space_group_name_Hall           '-P 1'
loop_
_symmetry_equiv_pos_site_id
_symmetry_equiv_pos_as_xyz
1 x,y,z
2 -x,-y,-z
_cell_length_a                   11.078(2)
_cell_length_b                   11.970(2)
_cell_length_c                   15.746(3)
_cell_angle_alpha                105.41(3)
_cell_angle_beta                 103.47(3)
_cell_angle_gamma                106.52(3)
_cell_volume                     1819.15
_cell_formula_units_Z            4
loop_
_atom_site_label
_atom_site_type_symbol
_atom_site_fract_x
_atom_site_fract_y
_atom_site_fract_z
O1 O 0.2698(1) 0.3240(1) 0.3126(1)
O2 O 0.5789(2) 0.1857(2) 0.1156(1)
O3 O 0.0380(1) 0.2810(2) 0.0277(1)
N1 N 0.4690(2) 0.1903(2) 0.1225(1)
N2 N 0.1500(2) 0.3514(2) 0.1871(1)
N3 N 0.2219(2) 0.4570(2) 0.0934(1)
C1 C 0.4629(2) 0.2898(2) 0.1990(1)
C2 C 0.3124(2) 0.2533(2) 0.1714(1)
C3 C 0.2489(2) 0.1518(2) 0.0957(1)
C4 C 0.3386(2) 0.0954(2) 0.0581(1)
C5 C 0.3221(3) -0.0306(2) 0.0687(2)
C6 C 0.3262(3) 0.0867(3) -0.0419(2)
C7 C 0.5308(2) 0.2845(2) 0.2924(2)
C8 C 0.5322(2) 0.4160(2) 0.1939(2)
C9 C 0.2450(2) 0.3149(2) 0.2303(1)
C10 C 0.0586(2) 0.3888(2) 0.2351(2)
C11 C 0.0554(3) 0.5139(2) 0.2314(2)
C12 C -0.0793(3) 0.2907(3) 0.1931(2)
C13 C 0.1313(2) 0.3575(2) 0.0943(1)
C14 C 0.2141(2) 0.4882(2) 0.0090(1)
C15 C 0.2631(3) 0.4107(3) -0.0562(2)
C16 C 0.2864(4) 0.6256(3) 0.0357(2)
O4 O 0.5888(1) 0.3434(2) 0.7288(1)
O5 O 0.3859(1) 0.0571(1) 0.3668(1)
O6 O -0.0122(2) 0.0070(2) 0.3980(1)
N4 N 0.4923(2) 0.2614(2) 0.6587(1)
N5 N 0.1766(1) 0.0483(1) 0.3557(1)
N6 N 0.1128(2) 0.2075(2) 0.4263(1)
C17 C 0.4903(2) 0.2455(2) 0.5618(1)
C18 C 0.3550(2) 0.1411(2) 0.5090(1)
C19 C 0.2963(2) 0.1027(2) 0.5659(1)
C20 C 0.3769(2) 0.1712(2) 0.6675(1)
C21 C 0.6076(2) 0.2096(2) 0.5474(2)
C22 C 0.4953(2) 0.3655(2) 0.5441(2)
C23 C 0.4226(3) 0.0885(2) 0.7157(2)
C24 C 0.3074(2) 0.2410(2) 0.7216(2)
C25 C 0.3082(2) 0.0818(2) 0.4054(1)
C26 C 0.1264(2) -0.0395(2) 0.2573(1)
C27 C 0.0109(2) -0.0223(2) 0.1978(2)
C28 C 0.0939(3) -0.1725(2) 0.2539(2)
C29 C 0.0837(2) 0.0844(2) 0.3955(1)
C30 C 0.0432(2) 0.2645(2) 0.4825(2)
C31 C -0.0930(3) 0.2497(3) 0.4239(3)
C32 C 0.1314(3) 0.4002(3) 0.5375(3)
loop_
_geom_bond_atom_site_label_1
_geom_bond_atom_site_label_2
_geom_bond_site_symmetry_1
_geom_bond_site_symmetry_2
O1 C9 1_555 1_555
O2 N1 1_555 1_555
O3 C13 1_555 1_555
N1 C1 1_555 1_555
N2 C9 1_555 1_555
N3 C13 1_555 1_555
C1 C2 1_555 1_555
C2 C3 1_555 1_555
C3 C4 1_555 1_555
C4 N1 1_555 1_555
C5 C4 1_555 1_555
C6 C4 1_555 1_555
C7 C1 1_555 1_555
C8 C1 1_555 1_555
C9 C2 1_555 1_555
C10 N2 1_555 1_555
C11 C10 1_555 1_555
C12 C10 1_555 1_555
C13 N2 1_555 1_555
C14 N3 1_555 1_555
C15 C14 1_555 1_555
C16 C14 1_555 1_555
O4 N4 1_555 1_555
O5 C25 1_555 1_555
O6 C29 1_555 1_555
N4 C17 1_555 1_555
N5 C25 1_555 1_555
N6 C29 1_555 1_555
C17 C18 1_555 1_555
C18 C19 1_555 1_555
C19 C20 1_555 1_555
C20 N4 1_555 1_555
C21 C17 1_555 1_555
C22 C17 1_555 1_555
C23 C20 1_555 1_555
C24 C20 1_555 1_555
C25 C18 1_555 1_555
C26 N5 1_555 1_555
C27 C26 1_555 1_555
C28 C26 1_555 1_555
C29 N5 1_555 1_555
C30 N6 1_555 1_555
C31 C30 1_555 1_555
C32 C30 1_555 1_555

#END
