
#######################################################################
#
#                 Cambridge Crystallographic Data Centre
#                                CCDC 
#
#######################################################################
#
# If this CIF has been generated from an entry in the Cambridge 
# Structural Database, then it will include bibliographic, chemical, 
# crystal, experimental, refinement or atomic coordinate data resulting 
# from the CCDC's data processing and validation procedures.
#
#######################################################################

data_EGAXAL
_chemical_formula_moiety         'C16 H28 N3 O3'
_chemical_name_systematic        
N-(2,2,5,5-Tetramethyl-1-oxo-3-pyrroline-3-carbonyl)-N,N'-diisopropylurea
_symmetry_cell_setting           triclinic
_symmetry_space_group_name_H-M   'P -1'
_symmetry_Int_Tables_number      2
_space_group_name_Hall           '-P 1'
loop_
_symmetry_equiv_pos_site_id
_symmetry_equiv_pos_as_xyz
1 x,y,z
2 -x,-y,-z
_cell_length_a                   11.078(2)
_cell_length_b                   11.970(2)
_cell_length_c                   15.746(3)
_cell_angle_alpha                105.41(3)
_cell_angle_beta                 103.47(3)
_cell_angle_gamma                106.52(3)
_cell_volume                     1819.15
_exptl_crystal_colour            yellow
_exptl_crystal_description       prism
_cell_formula_units_Z            4
_exptl_crystal_recrystallization_method 'ethyl acetate/hexane'
loop_
_atom_site_label
_atom_site_type_symbol
_atom_site_fract_x
_atom_site_fract_y
_atom_site_fract_z
O1 O 0.26976(13) 0.32402(13) 0.31259(9)
O2 O 0.5789(2) 0.1857(2) 0.11562(13)
O3 O 0.03803(14) 0.2810(2) 0.02768(10)
N1 N 0.4690(2) 0.1903(2) 0.12250(12)
N2 N 0.15001(15) 0.35139(15) 0.18711(10)
N3 N 0.2219(2) 0.45704(15) 0.09340(10)
H1 H 0.2872(2) 0.50472(15) 0.14403(10)
C1 C 0.4629(2) 0.2898(2) 0.19899(13)
C2 C 0.3124(2) 0.2533(2) 0.17144(12)
C3 C 0.2489(2) 0.1518(2) 0.09570(14)
H2 H 0.1565(2) 0.1183(2) 0.06816(14)
C4 C 0.3386(2) 0.0954(2) 0.05810(14)
C5 C 0.3221(3) -0.0306(2) 0.0687(2)
H3 H 0.3811(3) -0.0636(2) 0.0439(2)
H4 H 0.2314(3) -0.0872(2) 0.0353(2)
H5 H 0.3432(3) -0.0203(2) 0.1337(2)
C6 C 0.3262(3) 0.0867(3) -0.0419(2)
H6 H 0.3861(3) 0.0499(3) -0.0616(2)
H7 H 0.3484(3) 0.1687(3) -0.0451(2)
H8 H 0.2361(3) 0.0360(3) -0.0821(2)
C7 C 0.5308(2) 0.2845(2) 0.2924(2)
H9 H 0.6251(2) 0.3090(2) 0.3037(2)
H10 H 0.4954(2) 0.2010(2) 0.2917(2)
H11 H 0.5148(2) 0.3403(2) 0.3411(2)
C8 C 0.5322(2) 0.4160(2) 0.1939(2)
H12 H 0.4887(2) 0.4187(2) 0.1345(2)
H13 H 0.6240(2) 0.4285(2) 0.2009(2)
H14 H 0.5277(2) 0.4806(2) 0.2431(2)
C9 C 0.2450(2) 0.3149(2) 0.23029(12)
C10 C 0.0586(2) 0.3888(2) 0.23509(15)
H15 H 0.0934(2) 0.3983(2) 0.30083(15)
C11 C 0.0554(3) 0.5139(2) 0.2314(2)
H16 H 0.1444(3) 0.5754(2) 0.2585(2)
H17 H 0.0006(3) 0.5390(2) 0.2657(2)
H18 H 0.0190(3) 0.5061(2) 0.1675(2)
C12 C -0.0793(3) 0.2907(3) 0.1931(2)
H19 H -0.0751(3) 0.2127(3) 0.1961(2)
H20 H -0.1163(3) 0.2817(3) 0.1291(2)
H21 H -0.1347(3) 0.3147(3) 0.2273(2)
C13 C 0.1313(2) 0.3575(2) 0.09429(12)
C14 C 0.2141(2) 0.4882(2) 0.00899(14)
H22 H 0.1197(2) 0.4690(2) -0.02371(14)
C15 C 0.2631(3) 0.4107(3) -0.0562(2)
H23 H 0.2138(3) 0.3239(3) -0.0710(2)
H24 H 0.3563(3) 0.4293(3) -0.0267(2)
H25 H 0.2507(3) 0.4294(3) -0.1125(2)
C16 C 0.2864(4) 0.6256(3) 0.0357(2)
H26 H 0.2513(4) 0.6707(3) 0.0773(2)
H27 H 0.2743(4) 0.6471(3) -0.0194(2)
H28 H 0.3799(4) 0.6470(3) 0.0664(2)
O4 O 0.58878(14) 0.34338(15) 0.72880(10)
O5 O 0.38587(13) 0.05708(14) 0.36680(9)
O6 O -0.01215(15) 0.00702(15) 0.39803(11)
N4 N 0.49228(15) 0.26139(15) 0.65874(10)
N5 N 0.17660(14) 0.04828(13) 0.35574(10)
N6 N 0.1128(2) 0.20748(15) 0.42634(11)
H29 H 0.1742(2) 0.25451(15) 0.41275(11)
C17 C 0.4903(2) 0.2455(2) 0.56177(12)
C18 C 0.3550(2) 0.1411(2) 0.50903(12)
C19 C 0.2963(2) 0.1027(2) 0.56594(13)
H30 H 0.2129(2) 0.0392(2) 0.54484(13)
C20 C 0.3769(2) 0.1712(2) 0.66752(13)
C21 C 0.6076(2) 0.2096(2) 0.5474(2)
H31 H 0.6895(2) 0.2797(2) 0.5827(2)
H32 H 0.5981(2) 0.1850(2) 0.4823(2)
H33 H 0.6088(2) 0.1414(2) 0.5683(2)
C22 C 0.4953(2) 0.3655(2) 0.5441(2)
H34 H 0.5824(2) 0.4288(2) 0.5787(2)
H35 H 0.4294(2) 0.3927(2) 0.5638(2)
H36 H 0.4773(2) 0.3507(2) 0.4786(2)
C23 C 0.4226(3) 0.0885(2) 0.7157(2)
H37 H 0.4735(3) 0.1371(2) 0.7803(2)
H38 H 0.4771(3) 0.0546(2) 0.6859(2)
H39 H 0.3460(3) 0.0218(2) 0.7114(2)
C24 C 0.3074(2) 0.2410(2) 0.7216(2)
H40 H 0.3635(2) 0.2829(2) 0.7859(2)
H41 H 0.2243(2) 0.1830(2) 0.7177(2)
H42 H 0.2907(2) 0.3012(2) 0.6955(2)
C25 C 0.3082(2) 0.0818(2) 0.40535(12)
C26 C 0.1264(2) -0.0395(2) 0.25727(13)
H43 H 0.1992(2) -0.0202(2) 0.23173(13)
C27 C 0.0109(2) -0.0223(2) 0.1978(2)
H44 H 0.0360(2) 0.0632(2) 0.2020(2)
H45 H -0.0638(2) -0.0439(2) 0.2193(2)
H46 H -0.0133(2) -0.0751(2) 0.1340(2)
C28 C 0.0939(3) -0.1725(2) 0.2539(2)
H47 H 0.1703(3) -0.1792(2) 0.2928(2)
H48 H 0.0705(3) -0.2270(2) 0.1907(2)
H49 H 0.0201(3) -0.1958(2) 0.2760(2)
C29 C 0.0837(2) 0.0844(2) 0.39548(12)
C30 C 0.0432(2) 0.2645(2) 0.4825(2)
H50 H 0.0313(2) 0.2225(2) 0.5273(2)
C31 C -0.0930(3) 0.2497(3) 0.4239(3)
H51 H -0.1454(3) 0.1627(3) 0.3904(3)
H52 H -0.0837(3) 0.2917(3) 0.3803(3)
H53 H -0.1365(3) 0.2852(3) 0.4637(3)
C32 C 0.1314(3) 0.4002(3) 0.5375(3)
H54 H 0.2169(3) 0.4055(3) 0.5737(3)
H55 H 0.0901(3) 0.4373(3) 0.5784(3)
H56 H 0.1430(3) 0.4438(3) 0.4950(3)
loop_
_geom_bond_atom_site_label_1
_geom_bond_atom_site_label_2
_geom_bond_site_symmetry_1
_geom_bond_site_symmetry_2
O1 C9 1_555 1_555
O2 N1 1_555 1_555
O3 C13 1_555 1_555
N1 C1 1_555 1_555
N2 C9 1_555 1_555
N3 H1 1_555 1_555
C1 C2 1_555 1_555
C2 C3 1_555 1_555
C3 H2 1_555 1_555
C4 N1 1_555 1_555
C5 C4 1_555 1_555
H3 C5 1_555 1_555
H4 C5 1_555 1_555
H5 C5 1_555 1_555
C6 C4 1_555 1_555
H6 C6 1_555 1_555
H7 C6 1_555 1_555
H8 C6 1_555 1_555
C7 C1 1_555 1_555
H9 C7 1_555 1_555
H10 C7 1_555 1_555
H11 C7 1_555 1_555
C8 C1 1_555 1_555
H12 C8 1_555 1_555
H13 C8 1_555 1_555
H14 C8 1_555 1_555
C9 C2 1_555 1_555
C10 N2 1_555 1_555
H15 C10 1_555 1_555
C11 C10 1_555 1_555
H16 C11 1_555 1_555
H17 C11 1_555 1_555
H18 C11 1_555 1_555
C12 C10 1_555 1_555
H19 C12 1_555 1_555
H20 C12 1_555 1_555
H21 C12 1_555 1_555
C13 N2 1_555 1_555
C14 N3 1_555 1_555
H22 C14 1_555 1_555
C15 C14 1_555 1_555
H23 C15 1_555 1_555
H24 C15 1_555 1_555
H25 C15 1_555 1_555
C16 C14 1_555 1_555
H26 C16 1_555 1_555
H27 C16 1_555 1_555
H28 C16 1_555 1_555
O4 N4 1_555 1_555
O5 C25 1_555 1_555
O6 C29 1_555 1_555
N4 C17 1_555 1_555
N5 C25 1_555 1_555
N6 H29 1_555 1_555
C17 C18 1_555 1_555
C18 C19 1_555 1_555
C19 H30 1_555 1_555
C20 N4 1_555 1_555
C21 C17 1_555 1_555
H31 C21 1_555 1_555
H32 C21 1_555 1_555
H33 C21 1_555 1_555
C22 C17 1_555 1_555
H34 C22 1_555 1_555
H35 C22 1_555 1_555
H36 C22 1_555 1_555
C23 C20 1_555 1_555
H37 C23 1_555 1_555
H38 C23 1_555 1_555
H39 C23 1_555 1_555
C24 C20 1_555 1_555
H40 C24 1_555 1_555
H41 C24 1_555 1_555
H42 C24 1_555 1_555
C25 C18 1_555 1_555
C26 N5 1_555 1_555
H43 C26 1_555 1_555
C27 C26 1_555 1_555
H44 C27 1_555 1_555
H45 C27 1_555 1_555
H46 C27 1_555 1_555
C28 C26 1_555 1_555
H47 C28 1_555 1_555
H48 C28 1_555 1_555
H49 C28 1_555 1_555
C29 N5 1_555 1_555
C30 N6 1_555 1_555
H50 C30 1_555 1_555
C31 C30 1_555 1_555
H51 C31 1_555 1_555
H52 C31 1_555 1_555
H53 C31 1_555 1_555
C32 C30 1_555 1_555
H54 C32 1_555 1_555
H55 C32 1_555 1_555
H56 C32 1_555 1_555
N3 C13 1_555 1_555
C3 C4 1_555 1_555
N6 C29 1_555 1_555
C19 C20 1_555 1_555

#END
