
#######################################################################
#
#                 Cambridge Crystallographic Data Centre
#                                CCDC 
#
#######################################################################
#
# If this CIF has been generated from an entry in the Cambridge 
# Structural Database, then it will include bibliographic, chemical, 
# crystal, experimental, refinement or atomic coordinate data resulting 
# from the CCDC's data processing and validation procedures.
#
#######################################################################

data_EGAZAN
_chemical_formula_moiety         '2(C20 H30 O6),0.5(H2 O1)'
_chemical_name_systematic        
'bis(1\a,5\a,6\a,7\b,14\b-Pentahydroxyvouacapane) hemihydrate'
_chemical_properties_biological  
'reduced activity against the para3 virus compared to the parent furanoditerpenoid'
_symmetry_cell_setting           tetragonal
_symmetry_space_group_name_H-M   'P 42'
_symmetry_Int_Tables_number      77
_space_group_name_Hall           'P 4c'
loop_
_symmetry_equiv_pos_site_id
_symmetry_equiv_pos_as_xyz
1 x,y,z
2 -x,-y,z
3 -y,x,1/2+z
4 y,-x,1/2+z
_cell_length_a                   16.764(2)
_cell_length_b                   16.764(2)
_cell_length_c                   13.267(3)
_cell_angle_alpha                90
_cell_angle_beta                 90
_cell_angle_gamma                90
_cell_volume                     3728.45
_exptl_crystal_colour            colorless
_exptl_crystal_description       block
_chemical_melting_point          224-226deg.C
_cell_formula_units_Z            4
loop_
_atom_site_label
_atom_site_type_symbol
_atom_site_fract_x
_atom_site_fract_y
_atom_site_fract_z
O1 O 0.5000 0.0000 0.1906(4)
H1 H 0.489(4) 0.043(4) 0.172(5)
H1A H 0.511(4) -0.043(4) 0.172(5)
O2 O 0.91530(12) 0.00710(16) 0.77768(18)
H2 H 0.9620 -0.0012 0.7627
O3 O 0.76339(10) -0.02668(11) 0.71142(15)
H3 H 0.8039 -0.0429 0.6834
O4 O 0.61493(11) 0.02862(13) 0.64870(16)
H4 H 0.5917 0.0581 0.6091
O5 O 0.56158(14) 0.08574(16) 0.83621(18)
H5 H 0.5565 0.0994 0.8952
O6 O 0.59281(12) 0.09574(13) 1.03428(15)
H6 H 0.6018 0.1407 1.0558
O7 O 0.84666(12) 0.11733(12) 1.14575(17)
C1 C 0.89451(19) 0.0880(2) 0.7518(2)
H7 H 0.9247 0.1235 0.7965
C2 C 0.9189(2) 0.1071(2) 0.6442(3)
H8 H 0.9120 0.1638 0.6321
H9 H 0.9748 0.0944 0.6351
C3 C 0.8697(2) 0.0606(2) 0.5691(3)
H10 H 0.8812 0.0043 0.5776
H11 H 0.8865 0.0755 0.5017
C4 C 0.77969(19) 0.07246(19) 0.5770(2)
C5 C 0.75324(17) 0.05692(16) 0.6906(2)
C6 C 0.66508(17) 0.07488(16) 0.7123(2)
H12 H 0.6550 0.1316 0.6995
C7 C 0.64167(17) 0.05563(18) 0.8203(2)
H13 H 0.6400 -0.0025 0.8272
C8 C 0.69514(17) 0.08834(17) 0.9034(2)
H14 H 0.6884 0.1464 0.9038
C9 C 0.78305(17) 0.07156(18) 0.8792(2)
H15 H 0.7901 0.0135 0.8791
C10 C 0.80544(18) 0.10243(17) 0.7721(2)
C11 C 0.8395(2) 0.1061(2) 0.9609(2)
H16 H 0.8897 0.0773 0.9600
H17 H 0.8505 0.1617 0.9463
C12 C 0.80293(18) 0.09926(17) 1.0608(2)
C13 C 0.72845(18) 0.07848(17) 1.0861(2)
C14 C 0.66753(18) 0.05703(17) 1.0087(2)
C15 C 0.7241(2) 0.08181(19) 1.1937(3)
H18 H 0.6802 0.0697 1.2336
C16 C 0.7960(2) 0.1058(2) 1.2256(3)
H19 H 0.8097 0.1136 1.2928
C17 C 0.6511(2) -0.03229(19) 1.0128(2)
H20 H 0.6345 -0.0468 1.0796
H21 H 0.6987 -0.0610 0.9956
H22 H 0.6096 -0.0454 0.9657
C18 C 0.7409(2) 0.0123(2) 0.5043(2)
H23 H 0.7581 0.0233 0.4367
H24 H 0.6839 0.0169 0.5083
H25 H 0.7566 -0.0408 0.5227
C19 C 0.7567(2) 0.1549(2) 0.5375(3)
H26 H 0.7743 0.1603 0.4690
H27 H 0.7815 0.1951 0.5782
H28 H 0.6998 0.1610 0.5404
C20 C 0.79115(11) 0.19414(11) 0.76841(16)
H29 H 0.8236 0.2198 0.8185
H30 H 0.7359 0.2052 0.7816
H31 H 0.8052 0.2140 0.7029
O8 O 0.24922(11) 0.33550(11) 0.56681(16)
H32 H 0.2130 0.3667 0.5800
O9 O 0.31419(12) 0.19461(12) 0.63167(17)
H33 H 0.2773 0.2255 0.6204
O10 O 0.44979(16) 0.11351(13) 0.69773(18)
H34 H 0.4851 0.1156 0.7404
O11 O 0.52962(15) 0.11011(17) 0.50926(19)
H35 H 0.5563 0.1101 0.5611
O12 O 0.51513(13) 0.14066(15) 0.31058(18)
H36 H 0.5291 0.1068 0.3515
O13 O 0.36283(16) 0.34356(14) 0.20014(19)
C21 C 0.32429(19) 0.37045(19) 0.5946(2)
H37 H 0.3338 0.4164 0.5506
C22 C 0.3225(2) 0.3998(2) 0.7025(3)
H38 H 0.3716 0.4283 0.7170
H39 H 0.2785 0.4368 0.7109
C23 C 0.3133(2) 0.3318(2) 0.7763(2)
H40 H 0.2618 0.3069 0.7653
H41 H 0.3135 0.3534 0.8441
C24 C 0.37841(18) 0.26759(18) 0.7686(2)
C25 C 0.38466(16) 0.23900(17) 0.6552(2)
C26 C 0.45435(17) 0.18223(17) 0.6345(2)
H42 H 0.5044 0.2103 0.6486
C27 C 0.45622(18) 0.15197(18) 0.5266(2)
H43 H 0.4127 0.1134 0.5192
C28 C 0.44751(16) 0.21300(16) 0.4422(2)
H44 H 0.4974 0.2434 0.4396
C29 C 0.38034(17) 0.27281(17) 0.4668(2)
H45 H 0.3304 0.2424 0.4673
C30 C 0.39023(16) 0.30923(16) 0.5754(2)
C31 C 0.3711(2) 0.3377(2) 0.3859(3)
H46 H 0.3183 0.3612 0.3900
H47 H 0.4101 0.3796 0.3968
C32 C 0.38302(19) 0.30132(19) 0.2851(2)
C33 C 0.41217(17) 0.23010(19) 0.2605(2)
C34 C 0.43794(17) 0.17090(18) 0.3381(2)
C35 C 0.4101(2) 0.2256(2) 0.1530(3)
H48 H 0.4260 0.1826 0.1134
C36 C 0.3811(3) 0.2944(2) 0.1205(3)
H49 H 0.3740 0.3077 0.0530
C37 C 0.37877(19) 0.10158(19) 0.3409(2)
H50 H 0.3752 0.0779 0.2751
H51 H 0.3272 0.1210 0.3608
H52 H 0.3967 0.0623 0.3884
C38 C 0.3516(2) 0.2003(2) 0.8391(3)
H53 H 0.3486 0.2201 0.9069
H54 H 0.3893 0.1573 0.8361
H55 H 0.3000 0.1814 0.8186
C39 C 0.4578(2) 0.2983(2) 0.8139(3)
H56 H 0.4493 0.3145 0.8824
H57 H 0.4765 0.3430 0.7753
H58 H 0.4969 0.2564 0.8119
C40 C 0.47047(19) 0.35506(19) 0.5802(3)
H59 H 0.4706 0.3967 0.5305
H60 H 0.5136 0.3189 0.5671
H61 H 0.4769 0.3780 0.6460
loop_
_geom_bond_atom_site_label_1
_geom_bond_atom_site_label_2
_geom_bond_site_symmetry_1
_geom_bond_site_symmetry_2
O1 H1 1_555 1_555
O2 H2 1_555 1_555
O3 H3 1_555 1_555
O4 H4 1_555 1_555
O5 H5 1_555 1_555
O6 H6 1_555 1_555
O7 C12 1_555 1_555
C1 O2 1_555 1_555
H7 C1 1_555 1_555
C2 C1 1_555 1_555
H8 C2 1_555 1_555
H9 C2 1_555 1_555
C3 C2 1_555 1_555
H10 C3 1_555 1_555
H11 C3 1_555 1_555
C4 C3 1_555 1_555
C5 O3 1_555 1_555
C6 O4 1_555 1_555
H12 C6 1_555 1_555
C7 O5 1_555 1_555
H13 C7 1_555 1_555
C8 C7 1_555 1_555
H14 C8 1_555 1_555
C9 C8 1_555 1_555
H15 C9 1_555 1_555
C10 C1 1_555 1_555
C11 C9 1_555 1_555
H16 C11 1_555 1_555
H17 C11 1_555 1_555
C12 C11 1_555 1_555
C13 C12 1_555 1_555
C14 O6 1_555 1_555
C15 C13 1_555 1_555
H18 C15 1_555 1_555
C16 O7 1_555 1_555
H19 C16 1_555 1_555
C17 C14 1_555 1_555
H20 C17 1_555 1_555
H21 C17 1_555 1_555
H22 C17 1_555 1_555
C18 C4 1_555 1_555
H23 C18 1_555 1_555
H24 C18 1_555 1_555
H25 C18 1_555 1_555
C19 C4 1_555 1_555
H26 C19 1_555 1_555
H27 C19 1_555 1_555
H28 C19 1_555 1_555
C20 C10 1_555 1_555
H29 C20 1_555 1_555
H30 C20 1_555 1_555
H31 C20 1_555 1_555
O8 H32 1_555 1_555
O9 H33 1_555 1_555
O10 H34 1_555 1_555
O11 H35 1_555 1_555
O12 H36 1_555 1_555
O13 C32 1_555 1_555
C21 O8 1_555 1_555
H37 C21 1_555 1_555
C22 C21 1_555 1_555
H38 C22 1_555 1_555
H39 C22 1_555 1_555
C23 C22 1_555 1_555
H40 C23 1_555 1_555
H41 C23 1_555 1_555
C24 C23 1_555 1_555
C25 O9 1_555 1_555
C26 O10 1_555 1_555
H42 C26 1_555 1_555
C27 O11 1_555 1_555
H43 C27 1_555 1_555
C28 C27 1_555 1_555
H44 C28 1_555 1_555
C29 C28 1_555 1_555
H45 C29 1_555 1_555
C30 C21 1_555 1_555
C31 C29 1_555 1_555
H46 C31 1_555 1_555
H47 C31 1_555 1_555
C32 C31 1_555 1_555
C33 C32 1_555 1_555
C34 O12 1_555 1_555
C35 C33 1_555 1_555
H48 C35 1_555 1_555
C36 O13 1_555 1_555
H49 C36 1_555 1_555
C37 C34 1_555 1_555
H50 C37 1_555 1_555
H51 C37 1_555 1_555
H52 C37 1_555 1_555
C38 C24 1_555 1_555
H53 C38 1_555 1_555
H54 C38 1_555 1_555
H55 C38 1_555 1_555
C39 C24 1_555 1_555
H56 C39 1_555 1_555
H57 C39 1_555 1_555
H58 C39 1_555 1_555
C40 C30 1_555 1_555
H59 C40 1_555 1_555
H60 C40 1_555 1_555
H61 C40 1_555 1_555
H1A O1 1_555 1_555
C4 C5 1_555 1_555
C5 C6 1_555 1_555
C5 C10 1_555 1_555
C6 C7 1_555 1_555
C8 C14 1_555 1_555
C9 C10 1_555 1_555
C13 C14 1_555 1_555
C15 C16 1_555 1_555
C24 C25 1_555 1_555
C25 C26 1_555 1_555
C25 C30 1_555 1_555
C26 C27 1_555 1_555
C28 C34 1_555 1_555
C29 C30 1_555 1_555
C33 C34 1_555 1_555
C35 C36 1_555 1_555

#END
