
#######################################################################
#
#                 Cambridge Crystallographic Data Centre
#                                CCDC 
#
#######################################################################
#
# If this CIF has been generated from an entry in the Cambridge 
# Structural Database, then it will include bibliographic, chemical, 
# crystal, experimental, refinement or atomic coordinate data resulting 
# from the CCDC's data processing and validation procedures.
#
#######################################################################

data_EGAZER
_chemical_formula_moiety         'C25 H36 O8'
_chemical_name_systematic        
1\a,5\a-Dihydroxy-14\b-methoxy-6\a,7\b-diacetoxyvouacapane
_chemical_properties_biological  
'reduced activity against the para3 virus compared to the parent furanoditerpenoid but also reduced toxicity'
_symmetry_cell_setting           orthorhombic
_symmetry_space_group_name_H-M   'P 21 21 21'
_symmetry_Int_Tables_number      19
_space_group_name_Hall           'P 2ac 2ab'
loop_
_symmetry_equiv_pos_site_id
_symmetry_equiv_pos_as_xyz
1 x,y,z
2 1/2-x,-y,1/2+z
3 -x,1/2+y,1/2-z
4 1/2+x,1/2-y,-z
_cell_length_a                   6.9582(8)
_cell_length_b                   16.4921(19)
_cell_length_c                   20.840(2)
_cell_angle_alpha                90
_cell_angle_beta                 90
_cell_angle_gamma                90
_cell_volume                     2391.5
_exptl_crystal_colour            colorless
_exptl_crystal_description       block
_chemical_melting_point          248-250deg.C
_cell_formula_units_Z            4
loop_
_atom_site_label
_atom_site_type_symbol
_atom_site_fract_x
_atom_site_fract_y
_atom_site_fract_z
O1 O 0.4661(3) 0.57365(12) 0.29105(9)
H1 H 0.5077 0.6090 0.3150
O2 O 0.2033(2) 0.46711(11) 0.24330(8)
H2 H 0.2392 0.5080 0.2622
O3 O 0.1448(2) 0.31005(9) 0.18898(7)
O4 O 0.2907(3) 0.19466(11) 0.15886(10)
O5 O 0.2606(2) 0.35513(10) 0.06817(7)
O6 O -0.0532(3) 0.38558(16) 0.05774(10)
O7 O 0.3716(3) 0.48503(12) -0.00910(8)
O8 O 0.8102(3) 0.66317(11) 0.07224(9)
C1 C 0.6060(4) 0.50948(16) 0.28530(12)
H3 H 0.7326 0.5337 0.2777
C2 C 0.6139(5) 0.4606(2) 0.34661(13)
H4 H 0.7152 0.4204 0.3432
H5 H 0.6452 0.4963 0.3821
C3 C 0.4256(4) 0.41845(19) 0.36038(12)
H6 H 0.3276 0.4593 0.3676
H7 H 0.4389 0.3875 0.3997
C4 C 0.3568(4) 0.36109(17) 0.30674(11)
C5 C 0.3578(3) 0.40941(15) 0.24092(10)
C6 C 0.3189(3) 0.35740(14) 0.18078(10)
H8 H 0.4280 0.3212 0.1730
C7 C 0.2846(4) 0.41002(15) 0.12240(10)
H9 H 0.1668 0.4416 0.1284
C8 C 0.4515(4) 0.46727(15) 0.10593(11)
H10 H 0.5590 0.4336 0.0912
C9 C 0.5198(4) 0.51338(15) 0.16686(11)
H11 H 0.4181 0.5518 0.1784
C10 C 0.5510(4) 0.45631(15) 0.22614(11)
C11 C 0.7034(4) 0.56344(17) 0.15322(13)
H12 H 0.7203 0.6044 0.1862
H13 H 0.8151 0.5282 0.1536
C12 C 0.6840(4) 0.60230(15) 0.09006(13)
C13 C 0.5587(4) 0.58760(16) 0.04375(12)
C14 C 0.3993(4) 0.52690(16) 0.04994(12)
C15 C 0.6049(5) 0.64161(18) -0.00779(14)
H14 H 0.5417 0.6460 -0.0470
C16 C 0.7572(5) 0.68451(18) 0.01162(15)
H15 H 0.8188 0.7237 -0.0130
C17 C 0.2078(4) 0.57085(19) 0.05955(15)
H16 H 0.1847 0.6064 0.0239
H17 H 0.2126 0.6020 0.0984
H18 H 0.1059 0.5318 0.0624
C18 C 0.1514(5) 0.3359(2) 0.32579(12)
H19 H 0.1550 0.3072 0.3658
H20 H 0.0984 0.3015 0.2931
H21 H 0.0729 0.3834 0.3303
C19 C 0.4792(5) 0.28348(17) 0.30828(13)
H22 H 0.4697 0.2588 0.3499
H23 H 0.6110 0.2969 0.2996
H24 H 0.4335 0.2463 0.2763
C20 C 0.7229(4) 0.39975(16) 0.21331(12)
H25 H 0.8354 0.4317 0.2047
H26 H 0.6954 0.3660 0.1769
H27 H 0.7451 0.3663 0.2503
C21 C 0.1501(5) 0.23076(16) 0.17619(12)
C22 C -0.0427(5) 0.19260(18) 0.18748(17)
H28 H -0.0362 0.1358 0.1775
H29 H -0.1367 0.2181 0.1605
H30 H -0.0785 0.1994 0.2316
C23 C 0.0882(5) 0.35335(19) 0.03799(13)
C24 C 0.1018(5) 0.3058(2) -0.02326(14)
H31 H -0.0213 0.3052 -0.0441
H32 H 0.1406 0.2513 -0.0138
H33 H 0.1947 0.3306 -0.0511
C25 C 0.5370(5) 0.4443(2) -0.03374(15)
H34 H 0.5046 0.4179 -0.0733
H35 H 0.5801 0.4047 -0.0032
H36 H 0.6376 0.4830 -0.0413
loop_
_geom_bond_atom_site_label_1
_geom_bond_atom_site_label_2
_geom_bond_site_symmetry_1
_geom_bond_site_symmetry_2
O1 H1 1_555 1_555
O2 H2 1_555 1_555
O3 C6 1_555 1_555
O4 C21 1_555 1_555
O5 C7 1_555 1_555
O6 C23 1_555 1_555
O7 C14 1_555 1_555
O8 C12 1_555 1_555
C1 O1 1_555 1_555
H3 C1 1_555 1_555
C2 C1 1_555 1_555
H4 C2 1_555 1_555
H5 C2 1_555 1_555
C3 C2 1_555 1_555
H6 C3 1_555 1_555
H7 C3 1_555 1_555
C4 C3 1_555 1_555
C5 O2 1_555 1_555
C6 C5 1_555 1_555
H8 C6 1_555 1_555
C7 C6 1_555 1_555
H9 C7 1_555 1_555
C8 C7 1_555 1_555
H10 C8 1_555 1_555
C9 C8 1_555 1_555
H11 C9 1_555 1_555
C10 C1 1_555 1_555
C11 C9 1_555 1_555
H12 C11 1_555 1_555
H13 C11 1_555 1_555
C12 C11 1_555 1_555
C13 C12 1_555 1_555
C14 C8 1_555 1_555
C15 C13 1_555 1_555
H14 C15 1_555 1_555
C16 O8 1_555 1_555
H15 C16 1_555 1_555
C17 C14 1_555 1_555
H16 C17 1_555 1_555
H17 C17 1_555 1_555
H18 C17 1_555 1_555
C18 C4 1_555 1_555
H19 C18 1_555 1_555
H20 C18 1_555 1_555
H21 C18 1_555 1_555
C19 C4 1_555 1_555
H22 C19 1_555 1_555
H23 C19 1_555 1_555
H24 C19 1_555 1_555
C20 C10 1_555 1_555
H25 C20 1_555 1_555
H26 C20 1_555 1_555
H27 C20 1_555 1_555
C21 O3 1_555 1_555
C22 C21 1_555 1_555
H28 C22 1_555 1_555
H29 C22 1_555 1_555
H30 C22 1_555 1_555
C23 O5 1_555 1_555
C24 C23 1_555 1_555
H31 C24 1_555 1_555
H32 C24 1_555 1_555
H33 C24 1_555 1_555
C25 O7 1_555 1_555
H34 C25 1_555 1_555
H35 C25 1_555 1_555
H36 C25 1_555 1_555
C4 C5 1_555 1_555
C5 C10 1_555 1_555
C9 C10 1_555 1_555
C13 C14 1_555 1_555
C15 C16 1_555 1_555

#END
