
#######################################################################
#
#                 Cambridge Crystallographic Data Centre
#                                CCDC 
#
#######################################################################
#
# If this CIF has been generated from an entry in the Cambridge 
# Structural Database, then it will include bibliographic, chemical, 
# crystal, experimental, refinement or atomic coordinate data resulting 
# from the CCDC's data processing and validation procedures.
#
#######################################################################

data_EGENOV
_chemical_formula_moiety         'C7 H8 Cl1 N3 O4 S2,1.5(C10 H8 N2),H2 O1'
_chemical_name_systematic        
"6-Chloro-3,4-dihydro-2H-1,2,4-benzothiadiazine-7-sulfonamide 1,1-dioxide sesquikis(4,4'-bipyridine) monohydrate"
_symmetry_cell_setting           monoclinic
_symmetry_space_group_name_H-M   'P 21/n'
_symmetry_Int_Tables_number      14
_space_group_name_Hall           '-P 2yn'
loop_
_symmetry_equiv_pos_site_id
_symmetry_equiv_pos_as_xyz
1 x,y,z
2 1/2-x,1/2+y,1/2-z
3 -x,-y,-z
4 1/2+x,1/2-y,1/2+z
_cell_length_a                   7.5201(11)
_cell_length_b                   18.295(3)
_cell_length_c                   17.782(3)
_cell_angle_alpha                90
_cell_angle_beta                 93.534(9)
_cell_angle_gamma                90
_cell_volume                     2441.8
_exptl_crystal_colour            colorless
_exptl_crystal_description       block
_cell_formula_units_Z            4
loop_
_atom_site_label
_atom_site_type_symbol
_atom_site_fract_x
_atom_site_fract_y
_atom_site_fract_z
Cl1 Cl 0.54551(11) 0.23266(5) -0.11323(5)
S1 S 0.11879(11) 0.22760(4) -0.15842(5)
S2 S 0.01646(10) 0.35774(4) 0.11026(4)
O1 O -0.1439(3) 0.31573(11) 0.10655(11)
O2 O 0.0033(3) 0.43479(11) 0.10088(11)
O3 O 0.1836(3) 0.15500(11) -0.16311(13)
O4 O -0.0688(3) 0.23913(13) -0.15733(12)
N1 N 0.4110(3) 0.34013(13) 0.13776(15)
H1 H 0.5227 0.3339 0.1492
N2 N 0.1835(4) 0.27115(16) -0.22832(16)
H2 H 0.282(5) 0.2710(19) -0.241(2)
H3 H 0.144(5) 0.3135(18) -0.231(2)
N3 N 0.1242(3) 0.34219(16) 0.19026(14)
C1 C 0.3039(4) 0.37262(17) 0.19324(19)
H4 H 0.2969 0.4250 0.1848
H5 H 0.3607 0.3646 0.2430
C2 C 0.3454(4) 0.31867(15) 0.06825(17)
C3 C 0.4590(4) 0.28980(16) 0.0158(2)
H6 H 0.5810 0.2878 0.0280
C4 C 0.3939(4) 0.26461(16) -0.05265(18)
C5 C 0.2113(4) 0.26655(14) -0.07376(17)
C6 C 0.1614(3) 0.32313(14) 0.04660(16)
C7 C 0.0986(4) 0.29661(14) -0.02278(16)
H7 H -0.0229 0.2989 -0.0358
H8 H 0.114(4) 0.2965(16) 0.2032(16)
O5 O 0.0432(3) 0.19390(13) 0.21309(15)
H9 H 0.076(5) 0.163(2) 0.246(2)
H10 H -0.003(5) 0.1651(17) 0.1823(17)
N4 N 0.4125(5) 0.58677(15) 0.17292(16)
C8 C 0.5712(6) 0.5613(2) 0.1581(2)
H11 H 0.6627 0.5672 0.1952
C9 C 0.6129(5) 0.52742(19) 0.0933(2)
H12 H 0.7282 0.5109 0.0875
C10 C 0.4813(4) 0.51791(14) 0.03611(16)
C11 C 0.3160(4) 0.54371(18) 0.05126(19)
H13 H 0.2216 0.5383 0.0154
C12 C 0.2875(5) 0.57734(19) 0.1182(2)
H14 H 0.1735 0.5945 0.1257
N4B N 0.5875(5) 0.41323(15) -0.17292(16)
C8B C 0.4288(6) 0.4387(2) -0.1581(2)
H11B H 0.3373 0.4328 -0.1952
C9B C 0.3871(5) 0.47258(19) -0.0933(2)
H12B H 0.2718 0.4891 -0.0875
C10B C 0.5187(4) 0.48209(14) -0.03611(16)
C11B C 0.6840(4) 0.45629(18) -0.05126(19)
H13B H 0.7784 0.4617 -0.0154
C12B C 0.7125(5) 0.42266(19) -0.1182(2)
H14B H 0.8265 0.4055 -0.1257
N5 N 0.1052(4) -0.09923(17) -0.09869(17)
N6 N 0.4981(4) 0.09778(16) 0.21307(16)
C13 C 0.1556(4) -0.0303(2) -0.10396(18)
H15 H 0.1394 -0.0078 -0.1508
C14 C 0.2303(4) 0.01070(17) -0.04514(18)
H16 H 0.2664 0.0585 -0.0532
C15 C 0.2510(4) -0.01988(15) 0.02559(17)
C16 C 0.3330(4) 0.02100(15) 0.09114(17)
C17 C 0.3581(4) 0.09536(17) 0.0894(2)
H17 H 0.3203 0.1220 0.0469
C18 C 0.4392(5) 0.13017(18) 0.1509(2)
H18 H 0.4534 0.1806 0.1480
C19 C 0.1247(5) -0.12788(19) -0.0306(2)
H19 H 0.0898 -0.1762 -0.0247
C20 C 0.1934(4) -0.09092(17) 0.03246(19)
H20 H 0.2007 -0.1139 0.0792
C21 C 0.4724(5) 0.0266(2) 0.2152(2)
H21 H 0.5103 0.0018 0.2589
C22 C 0.3931(5) -0.01318(18) 0.15693(19)
H22 H 0.3800 -0.0635 0.1619
loop_
_geom_bond_atom_site_label_1
_geom_bond_atom_site_label_2
_geom_bond_site_symmetry_1
_geom_bond_site_symmetry_2
Cl1 C4 1_555 1_555
S1 O3 1_555 1_555
S2 O1 1_555 1_555
O2 S2 1_555 1_555
O4 S1 1_555 1_555
N1 H1 1_555 1_555
N2 S1 1_555 1_555
H2 N2 1_555 1_555
H3 N2 1_555 1_555
N3 S2 1_555 1_555
C1 N1 1_555 1_555
H4 C1 1_555 1_555
H5 C1 1_555 1_555
C2 N1 1_555 1_555
C3 C2 1_555 1_555
H6 C3 1_555 1_555
C4 C3 1_555 1_555
C5 S1 1_555 1_555
C6 S2 1_555 1_555
C7 C5 1_555 1_555
H7 C7 1_555 1_555
H8 N3 1_555 1_555
O5 H9 1_555 1_555
H10 O5 1_555 1_555
N4 C8 1_555 1_555
C8 H11 1_555 1_555
C9 C8 1_555 1_555
H12 C9 1_555 1_555
C10 C9 1_555 1_555
C11 C10 1_555 1_555
H13 C11 1_555 1_555
C12 N4 1_555 1_555
H14 C12 1_555 1_555
N5 C13 1_555 1_555
N6 C18 1_555 1_555
C13 H15 1_555 1_555
C14 C13 1_555 1_555
H16 C14 1_555 1_555
C15 C14 1_555 1_555
C16 C15 1_555 1_555
C17 C16 1_555 1_555
H17 C17 1_555 1_555
C18 C17 1_555 1_555
H18 C18 1_555 1_555
C19 N5 1_555 1_555
H19 C19 1_555 1_555
C20 C15 1_555 1_555
H20 C20 1_555 1_555
C21 N6 1_555 1_555
H21 C21 1_555 1_555
C22 C16 1_555 1_555
H22 C22 1_555 1_555
N4B C8B 1_555 1_555
C8B H11B 1_555 1_555
C9B C8B 1_555 1_555
H12B C9B 1_555 1_555
C10B C10 1_555 1_555
C11B C10B 1_555 1_555
H13B C11B 1_555 1_555
C12B N4B 1_555 1_555
H14B C12B 1_555 1_555
N3 C1 1_555 1_555
C2 C6 1_555 1_555
C4 C5 1_555 1_555
C6 C7 1_555 1_555
C11 C12 1_555 1_555
C19 C20 1_555 1_555
C21 C22 1_555 1_555
C9B C10B 1_555 1_555
C11B C12B 1_555 1_555

#END
