
#######################################################################
#
#                 Cambridge Crystallographic Data Centre
#                                CCDC 
#
#######################################################################
#
# If this CIF has been generated from an entry in the Cambridge 
# Structural Database, then it will include bibliographic, chemical, 
# crystal, experimental, refinement or atomic coordinate data resulting 
# from the CCDC's data processing and validation procedures.
#
#######################################################################

data_EGEQIR
_chemical_formula_moiety         'C54 H72 Cl2 N4 Si2'
_chemical_name_systematic        
dichloro-bis(1,3-bis(2,6-diisopropylphenyl)imidazol-2-ylidene)-di-silicon
_symmetry_cell_setting           monoclinic
_symmetry_space_group_name_H-M   'P 21/c'
_symmetry_Int_Tables_number      14
_space_group_name_Hall           '-P 2ybc'
loop_
_symmetry_equiv_pos_site_id
_symmetry_equiv_pos_as_xyz
1 x,y,z
2 -x,1/2+y,1/2-z
3 -x,-y,-z
4 x,1/2-y,1/2+z
_cell_length_a                   21.848(3)
_cell_length_b                   12.5830(15)
_cell_length_c                   20.250(2)
_cell_angle_alpha                90
_cell_angle_beta                 103.723(2)
_cell_angle_gamma                90
_cell_volume                     5408.08
_exptl_crystal_colour            red
_exptl_crystal_description       plate
_cell_formula_units_Z            4
loop_
_atom_site_label
_atom_site_type_symbol
_atom_site_fract_x
_atom_site_fract_y
_atom_site_fract_z
Si1 Si 0.26157(9) 0.49140(15) 0.23660(10)
Si2 Si 0.24160(9) 0.50121(16) 0.34761(10)
Cl1 Cl 0.24399(9) 0.64557(16) 0.18885(11)
Cl2 Cl 0.28700(10) 0.64327(18) 0.39677(11)
N1 N 0.3850(3) 0.4034(4) 0.2929(3)
N2 N 0.3981(2) 0.5501(4) 0.2436(3)
N3 N 0.1061(3) 0.4830(4) 0.2899(3)
N4 N 0.1249(3) 0.6325(5) 0.3427(3)
C1 C 0.3529(3) 0.4895(5) 0.2624(3)
C2 C 0.4479(3) 0.4087(6) 0.2915(4)
H1 H 0.4784 0.3576 0.3081
C3 C 0.4566(3) 0.4995(6) 0.2623(4)
H2 H 0.4946 0.5249 0.2555
C4 C 0.3913(3) 0.6469(6) 0.2049(4)
C5 C 0.3915(4) 0.7452(6) 0.2392(5)
C6 C 0.3857(5) 0.8360(8) 0.1982(8)
H3 H 0.3866 0.9030 0.2178
C7 C 0.3788(6) 0.8268(13) 0.1306(10)
H4 H 0.3725 0.8877 0.1038
C8 C 0.3808(6) 0.7351(12) 0.1019(7)
H5 H 0.3776 0.7333 0.0553
C9 C 0.3875(4) 0.6407(9) 0.1368(5)
C13 C 0.3896(10) 0.5325(13) 0.1028(9)
H13 H 0.3977 0.4787 0.1388
C14 C 0.4420(8) 0.5238(17) 0.0649(9)
H14 H 0.4399 0.4556 0.0433
H15 H 0.4821 0.5316 0.0965
H16 H 0.4369 0.5787 0.0312
C15 C 0.3242(9) 0.5071(19) 0.0547(12)
H17 H 0.3262 0.4401 0.0327
H18 H 0.3132 0.5620 0.0211
H19 H 0.2928 0.5036 0.0808
C16 C 0.3999(5) 0.7515(7) 0.3147(6)
H20 H 0.3760 0.6928 0.3283
C17 C 0.3770(7) 0.8532(9) 0.3403(8)
H21 H 0.3838 0.8501 0.3889
H22 H 0.3328 0.8618 0.3203
H23 H 0.3998 0.9123 0.3280
C18 C 0.4684(8) 0.7401(12) 0.3544(7)
H24 H 0.4706 0.7440 0.4023
H25 H 0.4931 0.7964 0.3419
H26 H 0.4846 0.6728 0.3441
C19 C 0.3590(3) 0.3110(5) 0.3198(4)
C20 C 0.3664(4) 0.3030(6) 0.3891(4)
C21 C 0.3444(5) 0.2108(8) 0.4127(6)
H27 H 0.3491 0.2018 0.4592
C22 C 0.3161(6) 0.1333(9) 0.3695(7)
H28 H 0.3014 0.0725 0.3869
C23 C 0.3090(5) 0.1430(7) 0.3025(6)
H29 H 0.2888 0.0891 0.2741
C24 C 0.3312(4) 0.2328(5) 0.2737(4)
C25 C 0.3290(4) 0.2353(7) 0.2012(4)
H30 H 0.3368 0.3090 0.1898
C26 C 0.2664(6) 0.2020(11) 0.1537(6)
H31 H 0.2695 0.2079 0.1073
H32 H 0.2334 0.2475 0.1609
H33 H 0.2572 0.1298 0.1631
C27 C 0.3836(6) 0.1678(10) 0.1864(6)
H34 H 0.3823 0.1706 0.1387
H35 H 0.3791 0.0954 0.1995
H36 H 0.4231 0.1954 0.2117
C28 C 0.4026(5) 0.3861(7) 0.4383(4)
H37 H 0.4021 0.4530 0.4135
C29 C 0.3695(6) 0.4051(10) 0.4973(5)
H38 H 0.3923 0.4579 0.5277
H39 H 0.3686 0.3399 0.5217
H40 H 0.3272 0.4292 0.4790
C30 C 0.4713(5) 0.3535(10) 0.4660(6)
H41 H 0.4928 0.4074 0.4963
H42 H 0.4913 0.3450 0.4289
H43 H 0.4729 0.2875 0.4901
C31 C 0.1550(3) 0.5477(5) 0.3222(3)
C32 C 0.0485(4) 0.5276(6) 0.2905(5)
H44 H 0.0092 0.4984 0.2714
C33 C 0.0593(4) 0.6182(7) 0.3226(5)
H45 H 0.0289 0.6649 0.3307
C34 C 0.1493(3) 0.7268(7) 0.3821(4)
C35 C 0.1552(5) 0.7225(9) 0.4517(5)
C36 C 0.1743(6) 0.8185(12) 0.4875(6)
H46 H 0.1801 0.8207 0.5345
C37 C 0.1839(6) 0.9061(12) 0.4535(7)
H47 H 0.1945 0.9689 0.4776
C38 C 0.1788(5) 0.9067(8) 0.3867(7)
H48 H 0.1880 0.9689 0.3662
C39 C 0.1601(4) 0.8165(6) 0.3461(5)
C40 C 0.1554(4) 0.8159(6) 0.2729(5)
H49 H 0.1625 0.7430 0.2593
C41 C 0.2011(5) 0.8878(8) 0.2491(6)
H50 H 0.1949 0.8817 0.2007
H51 H 0.2435 0.8676 0.2708
H52 H 0.1941 0.9601 0.2607
C42 C 0.0885(5) 0.8482(11) 0.2366(7)
H53 H 0.0845 0.8474 0.1884
H54 H 0.0800 0.9184 0.2507
H55 H 0.0590 0.7990 0.2480
C46 C 0.1415(12) 0.6241(17) 0.4862(11)
H63 H 0.1300 0.5683 0.4518
C47 C 0.1979(11) 0.584(3) 0.5418(14)
H64 H 0.1885 0.5143 0.5565
H65 H 0.2055 0.6317 0.5797
H66 H 0.2347 0.5801 0.5237
C48 C 0.0858(11) 0.6434(18) 0.5162(14)
H67 H 0.0708 0.5768 0.5294
H68 H 0.0528 0.6771 0.4830
H69 H 0.0981 0.6885 0.5553
C49 C 0.1103(3) 0.3766(5) 0.2634(4)
C50 C 0.1197(4) 0.2931(6) 0.3114(5)
C51 C 0.1187(5) 0.1912(7) 0.2826(7)
H70 H 0.1247 0.1327 0.3115
C52 C 0.1091(5) 0.1738(7) 0.2134(7)
H71 H 0.1090 0.1051 0.1965
C53 C 0.0997(4) 0.2583(7) 0.1707(5)
H72 H 0.0928 0.2463 0.1242
C54 C 0.1002(3) 0.3618(6) 0.1939(4)
C55 C 0.0856(4) 0.4540(7) 0.1445(4)
H73 H 0.0997 0.5196 0.1696
C56 C 0.1194(5) 0.4451(9) 0.0855(5)
H74 H 0.1085 0.5052 0.0558
H75 H 0.1064 0.3809 0.0605
H76 H 0.1641 0.4436 0.1037
C57 C 0.0142(5) 0.4630(10) 0.1138(6)
H77 H 0.0061 0.5220 0.0829
H78 H -0.0072 0.4739 0.1495
H79 H -0.0008 0.3987 0.0898
C58 C 0.1249(4) 0.3077(7) 0.3855(5)
H80 H 0.1357 0.3825 0.3957
C59 C 0.1767(6) 0.2417(9) 0.4306(6)
H81 H 0.1779 0.2561 0.4774
H82 H 0.2165 0.2596 0.4213
H83 H 0.1682 0.1676 0.4215
C60 C 0.0615(6) 0.2887(12) 0.4018(6)
H84 H 0.0652 0.2997 0.4495
H85 H 0.0481 0.2171 0.3901
H86 H 0.0311 0.3373 0.3763
C10? C 0.391(9) 0.541(5) 0.097(6)
H6? H 0.4232 0.4975 0.1267
C11? C 0.423(5) 0.578(11) 0.040(7)
H7? H 0.4345 0.5173 0.0174
H8? H 0.4598 0.6189 0.0599
H9? H 0.3939 0.6213 0.0081
C12? C 0.336(7) 0.463(14) 0.067(9)
H10? H 0.3533 0.3958 0.0577
H11? H 0.3107 0.4917 0.0256
H12? H 0.3110 0.4533 0.0994
C43? C 0.151(6) 0.627(9) 0.495(7)
H56? H 0.1504 0.5714 0.4608
C44? C 0.215(5) 0.607(11) 0.541(4)
H57? H 0.2137 0.5449 0.5684
H58? H 0.2282 0.6670 0.5699
H59? H 0.2453 0.5948 0.5138
C45? C 0.100(5) 0.584(10) 0.526(7)
H60? H 0.1113 0.5138 0.5436
H61? H 0.0607 0.5803 0.4922
H62? H 0.0948 0.6295 0.5624
loop_
_geom_bond_atom_site_label_1
_geom_bond_atom_site_label_2
_geom_bond_site_symmetry_1
_geom_bond_site_symmetry_2
Si1 Si2 1_555 1_555
Si2 Cl2 1_555 1_555
Cl1 Si1 1_555 1_555
N1 C1 1_555 1_555
N2 C1 1_555 1_555
N3 C31 1_555 1_555
N4 C31 1_555 1_555
C1 Si1 1_555 1_555
C2 N1 1_555 1_555
H1 C2 1_555 1_555
C3 N2 1_555 1_555
H2 C3 1_555 1_555
C4 N2 1_555 1_555
C5 C4 1_555 1_555
C6 C5 1_555 1_555
H3 C6 1_555 1_555
C7 C6 1_555 1_555
H4 C7 1_555 1_555
C8 C7 1_555 1_555
H5 C8 1_555 1_555
C9 C4 1_555 1_555
C13 C9 1_555 1_555
H13 C13 1_555 1_555
C14 C13 1_555 1_555
H14 C14 1_555 1_555
H15 C14 1_555 1_555
H16 C14 1_555 1_555
C15 C13 1_555 1_555
H17 C15 1_555 1_555
H18 C15 1_555 1_555
H19 C15 1_555 1_555
C16 C5 1_555 1_555
H20 C16 1_555 1_555
C17 C16 1_555 1_555
H21 C17 1_555 1_555
H22 C17 1_555 1_555
H23 C17 1_555 1_555
C18 C16 1_555 1_555
H24 C18 1_555 1_555
H25 C18 1_555 1_555
H26 C18 1_555 1_555
C19 N1 1_555 1_555
C20 C19 1_555 1_555
C21 C20 1_555 1_555
H27 C21 1_555 1_555
C22 C21 1_555 1_555
H28 C22 1_555 1_555
C23 C22 1_555 1_555
H29 C23 1_555 1_555
C24 C19 1_555 1_555
C25 C24 1_555 1_555
H30 C25 1_555 1_555
C26 C25 1_555 1_555
H31 C26 1_555 1_555
H32 C26 1_555 1_555
H33 C26 1_555 1_555
C27 C25 1_555 1_555
H34 C27 1_555 1_555
H35 C27 1_555 1_555
H36 C27 1_555 1_555
C28 C20 1_555 1_555
H37 C28 1_555 1_555
C29 C28 1_555 1_555
H38 C29 1_555 1_555
H39 C29 1_555 1_555
H40 C29 1_555 1_555
C30 C28 1_555 1_555
H41 C30 1_555 1_555
H42 C30 1_555 1_555
H43 C30 1_555 1_555
C31 Si2 1_555 1_555
C32 N3 1_555 1_555
H44 C32 1_555 1_555
C33 N4 1_555 1_555
H45 C33 1_555 1_555
C34 N4 1_555 1_555
C35 C34 1_555 1_555
C36 C35 1_555 1_555
H46 C36 1_555 1_555
C37 C36 1_555 1_555
H47 C37 1_555 1_555
C38 C37 1_555 1_555
H48 C38 1_555 1_555
C39 C34 1_555 1_555
C40 C39 1_555 1_555
H49 C40 1_555 1_555
C41 C40 1_555 1_555
H50 C41 1_555 1_555
H51 C41 1_555 1_555
H52 C41 1_555 1_555
C42 C40 1_555 1_555
H53 C42 1_555 1_555
H54 C42 1_555 1_555
H55 C42 1_555 1_555
C46 C35 1_555 1_555
H63 C46 1_555 1_555
C47 C46 1_555 1_555
H64 C47 1_555 1_555
H65 C47 1_555 1_555
H66 C47 1_555 1_555
C48 C46 1_555 1_555
H67 C48 1_555 1_555
H68 C48 1_555 1_555
H69 C48 1_555 1_555
C49 N3 1_555 1_555
C50 C49 1_555 1_555
C51 C50 1_555 1_555
H70 C51 1_555 1_555
C52 C51 1_555 1_555
H71 C52 1_555 1_555
C53 C52 1_555 1_555
H72 C53 1_555 1_555
C54 C49 1_555 1_555
C55 C54 1_555 1_555
H73 C55 1_555 1_555
C56 C55 1_555 1_555
H74 C56 1_555 1_555
H75 C56 1_555 1_555
H76 C56 1_555 1_555
C57 C55 1_555 1_555
H77 C57 1_555 1_555
H78 C57 1_555 1_555
H79 C57 1_555 1_555
C58 C50 1_555 1_555
H80 C58 1_555 1_555
C59 C58 1_555 1_555
H81 C59 1_555 1_555
H82 C59 1_555 1_555
H83 C59 1_555 1_555
C60 C58 1_555 1_555
H84 C60 1_555 1_555
H85 C60 1_555 1_555
H86 C60 1_555 1_555
C2 C3 1_555 1_555
C8 C9 1_555 1_555
C23 C24 1_555 1_555
C32 C33 1_555 1_555
C38 C39 1_555 1_555
C53 C54 1_555 1_555

#END
