
#######################################################################
#
#                 Cambridge Crystallographic Data Centre
#                                CCDC 
#
#######################################################################
#
# If this CIF has been generated from an entry in the Cambridge 
# Structural Database, then it will include bibliographic, chemical, 
# crystal, experimental, refinement or atomic coordinate data resulting 
# from the CCDC's data processing and validation procedures.
#
#######################################################################

data_EGEQUC
_chemical_formula_moiety         'C18 H17 N3 O5'
_chemical_name_systematic        
2-(4-Nitrophenyl)-1-(3,4,5-trimethoxyphenyl)imidazole
_symmetry_cell_setting           triclinic
_symmetry_space_group_name_H-M   'P -1'
_symmetry_Int_Tables_number      2
_space_group_name_Hall           '-P 1'
loop_
_symmetry_equiv_pos_site_id
_symmetry_equiv_pos_as_xyz
1 x,y,z
2 -x,-y,-z
_cell_length_a                   9.364(3)
_cell_length_b                   11.047(4)
_cell_length_c                   8.688(3)
_cell_angle_alpha                92.13(3)
_cell_angle_beta                 99.55(3)
_cell_angle_gamma                78.00(3)
_cell_volume                     866.897
_exptl_crystal_colour            yellow
_cell_formula_units_Z            2
loop_
_atom_site_label
_atom_site_type_symbol
_atom_site_fract_x
_atom_site_fract_y
_atom_site_fract_z
O1 O 0.1346(2) 0.9266(2) 0.4139(3)
O2 O 0.2233(2) 1.1125(2) 0.2875(3)
O3 O 0.4909(2) 1.0802(2) 0.2092(3)
O4 O 0.1212(3) 0.3135(3) -0.1403(3)
O5 O 0.0309(3) 0.5088(3) -0.1827(3)
N1 N 0.1233(3) 0.4235(4) -0.1157(3)
N2 N 0.6086(3) 0.6555(2) 0.3896(3)
N3 N 0.6987(3) 0.4535(2) 0.3943(3)
C1 C 0.2413(3) 0.4566(3) -0.0007(4)
C2 C 0.2665(3) 0.5744(3) 0.0030(3)
C3 C 0.3782(3) 0.6048(3) 0.1114(3)
C4 C 0.4630(3) 0.5174(3) 0.2203(3)
C5 C 0.4343(3) 0.3991(3) 0.2127(3)
C6 C 0.3249(4) 0.3671(3) 0.1029(4)
C7 C 0.5861(3) 0.5420(3) 0.3344(3)
C8 C 0.5093(3) 0.7745(3) 0.3646(3)
C9 C 0.3701(3) 0.7878(3) 0.4061(3)
C10 C 0.2732(3) 0.9021(3) 0.3763(3)
C11 C 0.3170(4) 0.9973(3) 0.3107(4)
C12 C 0.4581(4) 0.9817(3) 0.2734(3)
C13 C 0.5559(3) 0.8681(3) 0.3007(3)
C14 C 0.7419(3) 0.6371(3) 0.4878(3)
C15 C 0.7945(3) 0.5127(3) 0.4880(3)
C16 C 0.0738(4) 0.8264(3) 0.4509(5)
C17 C 0.1017(4) 1.1173(3) 0.1639(5)
C18 C 0.6350(4) 1.0699(3) 0.1724(4)
H1 H 0.2073 0.6347 -0.0688
H2 H 0.3980 0.6858 0.1124
H3 H 0.4917 0.3386 0.2852
H4 H 0.3072 0.2853 0.0983
H5 H 0.3418 0.7219 0.4528
H6 H 0.6528 0.8558 0.2755
H7 H 0.7877 0.6982 0.5437
H8 H 0.8860 0.4724 0.5459
H9 H -0.0231 0.8570 0.4736
H10 H 0.0693 0.7713 0.3644
H11 H 0.1343 0.7840 0.5391
H12 H 0.0437 1.1989 0.1557
H13 H 0.1377 1.0946 0.0688
H14 H 0.0428 1.0614 0.1852
H15 H 0.7060 1.0522 0.2646
H16 H 0.6530 1.0052 0.0987
H17 H 0.6425 1.1458 0.1293
loop_
_geom_bond_atom_site_label_1
_geom_bond_atom_site_label_2
_geom_bond_site_symmetry_1
_geom_bond_site_symmetry_2
O1 C10 1_555 1_555
O2 C11 1_555 1_555
O3 C12 1_555 1_555
O4 N1 1_555 1_555
O5 N1 1_555 1_555
N1 C1 1_555 1_555
N2 C7 1_555 1_555
N3 C7 1_555 1_555
C1 C2 1_555 1_555
C2 C3 1_555 1_555
C3 C4 1_555 1_555
C4 C5 1_555 1_555
C5 C6 1_555 1_555
C6 C1 1_555 1_555
C7 C4 1_555 1_555
C8 N2 1_555 1_555
C9 C8 1_555 1_555
C10 C9 1_555 1_555
C11 C10 1_555 1_555
C12 C11 1_555 1_555
C13 C8 1_555 1_555
C14 N2 1_555 1_555
C15 N3 1_555 1_555
C16 O1 1_555 1_555
C17 O2 1_555 1_555
C18 O3 1_555 1_555
H1 C2 1_555 1_555
H2 C3 1_555 1_555
H3 C5 1_555 1_555
H4 C6 1_555 1_555
H5 C9 1_555 1_555
H6 C13 1_555 1_555
H7 C14 1_555 1_555
H8 C15 1_555 1_555
H9 C16 1_555 1_555
H10 C16 1_555 1_555
H11 C16 1_555 1_555
H12 C17 1_555 1_555
H13 C17 1_555 1_555
H14 C17 1_555 1_555
H15 C18 1_555 1_555
H16 C18 1_555 1_555
H17 C18 1_555 1_555
C12 C13 1_555 1_555
C14 C15 1_555 1_555

#END
