
#######################################################################
#
#                 Cambridge Crystallographic Data Centre
#                                CCDC 
#
#######################################################################
#
# If this CIF has been generated from an entry in the Cambridge 
# Structural Database, then it will include bibliographic, chemical, 
# crystal, experimental, refinement or atomic coordinate data resulting 
# from the CCDC's data processing and validation procedures.
#
#######################################################################

data_EGEREN
_chemical_formula_moiety         'C22 H25 N1 O2'
_chemical_name_systematic        
1'-Benzyl-3,7'-dimethyl-5'-oxo-spiro(cyclohexane-1,2'-pyrano(4,3-b)pyridine)
_symmetry_cell_setting           monoclinic
_symmetry_space_group_name_H-M   'P 21'
_symmetry_Int_Tables_number      4
_space_group_name_Hall           'P 2yb'
loop_
_symmetry_equiv_pos_site_id
_symmetry_equiv_pos_as_xyz
1 x,y,z
2 -x,1/2+y,-z
_cell_length_a                   8.8887(2)
_cell_length_b                   10.264(3)
_cell_length_c                   10.856(3)
_cell_angle_alpha                90
_cell_angle_beta                 112.363(5)
_cell_angle_gamma                90
_cell_volume                     915.944
_exptl_crystal_colour            'pale yellow'
_exptl_crystal_description       plate
_cell_formula_units_Z            2
loop_
_atom_site_label
_atom_site_type_symbol
_atom_site_fract_x
_atom_site_fract_y
_atom_site_fract_z
O1 O -0.0082(1) -0.4177(1) -0.1381(1)
O2 O 0.0355(2) -0.5475(2) -0.2832(1)
N1 N -0.4587(2) -0.5853(1) -0.2114(1)
C1 C -0.0607(2) -0.5161(2) -0.2335(2)
C2 C -0.2192(2) -0.5691(2) -0.2614(2)
C3 C -0.3126(2) -0.5292(2) -0.1904(2)
C4 C -0.2457(2) -0.4320(2) -0.0894(2)
C5 C -0.0993(2) -0.3802(2) -0.0677(2)
C6 C -0.0178(3) -0.2782(2) 0.0308(2)
C7 C -0.2736(2) -0.6784(2) -0.3501(2)
C8 C -0.4218(2) -0.7293(2) -0.3776(2)
C9 C -0.5452(2) -0.6702(2) -0.3300(2)
C10 C -0.6672(2) -0.5856(2) -0.4397(2)
C11 C -0.7812(2) -0.6628(2) -0.5593(2)
C12 C -0.8688(2) -0.7657(2) -0.5126(2)
C13 C -0.7487(3) -0.8561(2) -0.4111(2)
C14 C -0.6362(2) -0.7802(2) -0.2903(2)
C15 C -0.8984(3) -0.5705(3) -0.6612(2)
C16 C -0.5533(2) -0.5400(2) -0.1344(2)
C17 C -0.5042(2) -0.5981(2) 0.0031(2)
C18 C -0.5973(3) -0.5672(2) 0.0764(2)
C19 C -0.5523(4) -0.6115(3) 0.2056(3)
C20 C -0.4156(4) -0.6880(3) 0.2634(2)
C21 C -0.3234(3) -0.7212(3) 0.1913(2)
C22 C -0.3678(2) -0.6764(2) 0.0611(2)
H1 H -0.3053 -0.4041 -0.0378
H2 H -0.0844 -0.2572 0.0823
H3 H -0.0039 -0.1999 -0.0155
H4 H 0.0889 -0.3097 0.0910
H5 H -0.2042 -0.7148 -0.3894
H6 H -0.4504 -0.8065 -0.4298
H7 H -0.7336 -0.5356 -0.4007
H8 H -0.6059 -0.5221 -0.4713
H9 H -0.7137 -0.7076 -0.6023
H10 H -0.9398 -0.8173 -0.5899
H11 H -0.9386 -0.7231 -0.4719
H12 H -0.6828 -0.9022 -0.4533
H13 H -0.8092 -0.9222 -0.3819
H14 H -0.5559 -0.8408 -0.2286
H15 H -0.7011 -0.7422 -0.2426
H16 H -0.9682 -0.6203 -0.7389
H17 H -0.8363 -0.5060 -0.6891
H18 H -0.9660 -0.5257 -0.6210
H19 H -0.6695 -0.5602 -0.1853
H20 H -0.5430 -0.4440 -0.1256
H21 H -0.6924 -0.5155 0.0377
H22 H -0.6163 -0.5890 0.2554
H23 H -0.3855 -0.7175 0.3526
H24 H -0.2298 -0.7746 0.2300
H25 H -0.3041 -0.6996 0.0114
loop_
_geom_bond_atom_site_label_1
_geom_bond_atom_site_label_2
_geom_bond_site_symmetry_1
_geom_bond_site_symmetry_2
O1 C1 1_555 1_555
O2 C1 1_555 1_555
N1 C3 1_555 1_555
C1 C2 1_555 1_555
C2 C3 1_555 1_555
C3 C4 1_555 1_555
C4 C5 1_555 1_555
C5 O1 1_555 1_555
C6 C5 1_555 1_555
C7 C2 1_555 1_555
C8 C7 1_555 1_555
C9 N1 1_555 1_555
C10 C9 1_555 1_555
C11 C10 1_555 1_555
C12 C11 1_555 1_555
C13 C12 1_555 1_555
C14 C9 1_555 1_555
C15 C11 1_555 1_555
C16 N1 1_555 1_555
C17 C16 1_555 1_555
C18 C17 1_555 1_555
C19 C18 1_555 1_555
C20 C19 1_555 1_555
C21 C20 1_555 1_555
C22 C17 1_555 1_555
H1 C4 1_555 1_555
H2 C6 1_555 1_555
H3 C6 1_555 1_555
H4 C6 1_555 1_555
H5 C7 1_555 1_555
H6 C8 1_555 1_555
H7 C10 1_555 1_555
H8 C10 1_555 1_555
H9 C11 1_555 1_555
H10 C12 1_555 1_555
H11 C12 1_555 1_555
H12 C13 1_555 1_555
H13 C13 1_555 1_555
H14 C14 1_555 1_555
H15 C14 1_555 1_555
H16 C15 1_555 1_555
H17 C15 1_555 1_555
H18 C15 1_555 1_555
H19 C16 1_555 1_555
H20 C16 1_555 1_555
H21 C18 1_555 1_555
H22 C19 1_555 1_555
H23 C20 1_555 1_555
H24 C21 1_555 1_555
H25 C22 1_555 1_555
C8 C9 1_555 1_555
C13 C14 1_555 1_555
C21 C22 1_555 1_555

#END
