
#######################################################################
#
#                 Cambridge Crystallographic Data Centre
#                                CCDC 
#
#######################################################################
#
# If this CIF has been generated from an entry in the Cambridge 
# Structural Database, then it will include bibliographic, chemical, 
# crystal, experimental, refinement or atomic coordinate data resulting 
# from the CCDC's data processing and validation procedures.
#
#######################################################################

data_EGESUG
_chemical_formula_moiety         'C14 H9 N3'
_chemical_name_systematic        Benzimidazo[1,2-a]quinazoline
_symmetry_cell_setting           orthorhombic
_symmetry_space_group_name_H-M   'F d d 2'
_symmetry_Int_Tables_number      43
_space_group_name_Hall           'F 2 -2d'
loop_
_symmetry_equiv_pos_site_id
_symmetry_equiv_pos_as_xyz
1 x,y,z
2 -x,-y,z
3 1/4-x,1/4+y,1/4+z
4 3/4+x,3/4-y,1/4+z
5 x,1/2+y,1/2+z
6 -x,1/2-y,1/2+z
7 1/4-x,3/4+y,3/4+z
8 3/4+x,1/4-y,3/4+z
9 1/2+x,y,1/2+z
10 1/2-x,-y,1/2+z
11 3/4-x,1/4+y,3/4+z
12 1/4+x,3/4-y,3/4+z
13 1/2+x,1/2+y,z
14 1/2-x,1/2-y,z
15 3/4-x,3/4+y,1/4+z
16 1/4+x,1/4-y,1/4+z
_cell_length_a                   10.7584(3)
_cell_length_b                   41.2284(11)
_cell_length_c                   9.1427(2)
_cell_angle_alpha                90
_cell_angle_beta                 90
_cell_angle_gamma                90
_cell_volume                     4055.26
_exptl_crystal_colour            yellow
_exptl_crystal_description       block
_cell_formula_units_Z            16
loop_
_atom_site_label
_atom_site_type_symbol
_atom_site_fract_x
_atom_site_fract_y
_atom_site_fract_z
C1 C 0.28666(13) 0.07557(3) 0.09274(15)
C2 C 0.36722(13) 0.06773(3) -0.02117(16)
H1 H 0.4094 0.0837 -0.0732
C3 C 0.38163(15) 0.03540(3) -0.05323(17)
H2 H 0.4351 0.0294 -0.1284
C4 C 0.31819(16) 0.01119(4) 0.02395(19)
H3 H 0.3278 -0.0104 -0.0031
C5 C 0.24242(15) 0.01892(4) 0.13840(19)
H4 H 0.2019 0.0027 0.1908
C6 C 0.22660(13) 0.05146(4) 0.17557(16)
C7 C 0.17553(14) 0.09632(4) 0.27590(16)
C8 C 0.15014(15) 0.14900(4) 0.33686(17)
H5 H 0.1188 0.1647 0.4001
C9 C 0.22043(12) 0.16011(4) 0.21450(16)
C10 C 0.23729(15) 0.19331(4) 0.18310(19)
H6 H 0.2046 0.2089 0.2459
C11 C 0.30116(15) 0.20282(4) 0.0615(2)
H7 H 0.3130 0.2247 0.0420
C12 C 0.34816(14) 0.17957(4) -0.0326(2)
H8 H 0.3894 0.1862 -0.1169
C13 C 0.33557(12) 0.14704(3) -0.00515(16)
H9 H 0.3691 0.1318 -0.0690
C14 C 0.27200(11) 0.13712(3) 0.11952(15)
N1 N 0.12626(12) 0.11915(4) 0.36751(16)
N2 N 0.15853(12) 0.06484(3) 0.28884(15)
N3 N 0.25146(11) 0.10475(3) 0.15701(11)
loop_
_geom_bond_atom_site_label_1
_geom_bond_atom_site_label_2
_geom_bond_site_symmetry_1
_geom_bond_site_symmetry_2
C1 C2 1_555 1_555
C2 H1 1_555 1_555
C3 C2 1_555 1_555
H2 C3 1_555 1_555
C4 C3 1_555 1_555
H3 C4 1_555 1_555
C5 C4 1_555 1_555
H4 C5 1_555 1_555
C6 C1 1_555 1_555
C7 N1 1_555 1_555
C8 H5 1_555 1_555
C9 C8 1_555 1_555
C10 C9 1_555 1_555
H6 C10 1_555 1_555
C11 C10 1_555 1_555
H7 C11 1_555 1_555
C12 C11 1_555 1_555
H8 C12 1_555 1_555
C13 C12 1_555 1_555
H9 C13 1_555 1_555
C14 C9 1_555 1_555
N1 C8 1_555 1_555
N2 C6 1_555 1_555
N3 C1 1_555 1_555
C5 C6 1_555 1_555
C7 N2 1_555 1_555
C7 N3 1_555 1_555
C13 C14 1_555 1_555
C14 N3 1_555 1_555

#END
