
#######################################################################
#
#                 Cambridge Crystallographic Data Centre
#                                CCDC 
#
#######################################################################
#
# If this CIF has been generated from an entry in the Cambridge 
# Structural Database, then it will include bibliographic, chemical, 
# crystal, experimental, refinement or atomic coordinate data resulting 
# from the CCDC's data processing and validation procedures.
#
#######################################################################

data_EGEXEV
_chemical_formula_moiety         'C36 H24 O3'
_chemical_name_systematic        
2,2',2''-(Benzene-1,3,5-triyltriethene-2,1-diyl)tris(1-benzofuran)
_symmetry_cell_setting           orthorhombic
_symmetry_space_group_name_H-M   'P 21 21 21'
_symmetry_Int_Tables_number      19
_space_group_name_Hall           'P 2ac 2ab'
loop_
_symmetry_equiv_pos_site_id
_symmetry_equiv_pos_as_xyz
1 x,y,z
2 1/2-x,-y,1/2+z
3 1/2+x,1/2-y,-z
4 -x,1/2+y,1/2-z
_cell_length_a                   4.30313(16)
_cell_length_b                   23.6764(9)
_cell_length_c                   25.1955(9)
_cell_angle_alpha                90
_cell_angle_beta                 90
_cell_angle_gamma                90
_cell_volume                     2566.98
_cell_formula_units_Z            4
loop_
_atom_site_label
_atom_site_type_symbol
_atom_site_fract_x
_atom_site_fract_y
_atom_site_fract_z
C1 C -0.0573(18) -0.0393(3) -0.1737(3)
H1 H -0.1904 -0.0709 -0.1787
C2 C 0.1499(16) -0.0215(3) -0.3177(2)
C3 C 0.0847(15) -0.0175(3) -0.2217(3)
O1 O -0.3531(13) -0.09508(19) -0.08900(17)
C4 C 1.2357(16) 0.2383(2) -0.2449(3)
C5 C 0.0246(16) -0.0407(2) -0.2705(3)
H2 H -0.1126 -0.0721 -0.2719
C6 C -0.030(2) -0.0221(3) -0.1242(3)
H3 H 0.1007 0.0096 -0.1181
O2 O 1.0456(12) 0.18942(18) -0.2420(2)
C7 C 0.9292(19) 0.1807(3) -0.2924(3)
C8 C 0.3522(16) 0.0259(3) -0.3140(3)
H4 H 0.4433 0.0406 -0.3455
C9 C 0.6360(18) 0.0990(3) -0.2605(3)
H5 H 0.7133 0.1067 -0.2259
C10 C 0.0852(18) -0.0470(2) -0.3688(3)
H6 H 0.1922 -0.0318 -0.3985
C11 C 1.2197(19) 0.2564(3) -0.2970(3)
C12 C -0.3689(19) -0.0740(4) -0.0005(3)
C13 C -0.1595(19) -0.1133(3) -0.4297(3)
C14 C -0.1776(19) -0.0462(3) -0.0791(3)
C15 C 0.4191(15) 0.0511(3) -0.2658(3)
C16 C -0.108(3) -0.1200(3) -0.5165(3)
C17 C 0.2934(15) 0.0304(3) -0.2198(3)
H7 H 0.3431 0.0473 -0.1867
C18 C -0.466(2) -0.1110(3) -0.0411(3)
O3 O -0.023(2) -0.08995(19) -0.47235(19)
C19 C 1.3983(19) 0.2646(3) -0.2059(3)
H8 H 1.4042 0.2503 -0.1707
C20 C -0.649(3) -0.1574(3) -0.0310(3)
H9 H -0.7105 -0.1825 -0.0584
C21 C -0.1084(18) -0.0895(3) -0.3784(3)
H10 H -0.2198 -0.1050 -0.3492
C22 C 1.020(2) 0.2193(3) -0.3262(3)
H11 H 0.9642 0.2221 -0.3626
C23 C 1.5541(18) 0.3131(4) -0.2199(4)
H12 H 1.6721 0.3327 -0.1940
C24 C -0.179(2) -0.0340(3) -0.0270(3)
H13 H -0.0711 -0.0037 -0.0107
C25 C 1.542(2) 0.3336(3) -0.2713(5)
H14 H 1.6528 0.3671 -0.2799
C26 C -0.739(3) -0.1659(5) 0.0213(4)
H15 H -0.8681 -0.1971 0.0298
C27 C 0.7319(19) 0.1318(3) -0.2988(3)
H16 H 0.6665 0.1228 -0.3338
C28 C -0.299(2) -0.1653(5) -0.5016(4)
C29 C -0.459(3) -0.0837(4) 0.0514(3)
H17 H -0.3953 -0.0593 0.0793
C30 C -0.128(5) -0.1475(4) -0.6053(4)
H18 H -0.0675 -0.1419 -0.6412
C31 C 1.374(2) 0.3071(3) -0.3103(4)
H19 H 1.3612 0.3223 -0.3451
C32 C -0.645(3) -0.1302(5) 0.0612(3)
H20 H -0.7106 -0.1376 0.0965
C33 C -0.322(3) -0.1593(5) -0.4449(4)
H21 H -0.4340 -0.1838 -0.4219
C34 C -0.025(5) -0.1108(4) -0.5673(3)
H22 H 0.1014 -0.0795 -0.5766
C35 C -0.315(3) -0.1919(6) -0.5925(4)
H23 H -0.3881 -0.2160 -0.6200
C36 C -0.402(4) -0.2028(7) -0.5407(5)
H24 H -0.5265 -0.2346 -0.5320
loop_
_geom_bond_atom_site_label_1
_geom_bond_atom_site_label_2
_geom_bond_site_symmetry_1
_geom_bond_site_symmetry_2
C1 H1 1_555 1_555
C2 C5 1_555 1_555
C3 C1 1_555 1_555
O1 C14 1_555 1_555
C4 O2 1_555 1_555
C5 C3 1_555 1_555
H2 C5 1_555 1_555
C6 C1 1_555 1_555
H3 C6 1_555 1_555
O2 C7 1_555 1_555
C7 C22 1_555 1_555
C8 C2 1_555 1_555
H4 C8 1_555 1_555
C9 H5 1_555 1_555
C10 C2 1_555 1_555
H6 C10 1_555 1_555
C11 C4 1_555 1_555
C12 C18 1_555 1_555
C13 O3 1_555 1_555
C14 C6 1_555 1_555
C15 C8 1_555 1_555
C16 O3 1_555 1_555
C17 C3 1_555 1_555
H7 C17 1_555 1_555
C18 O1 1_555 1_555
C19 C4 1_555 1_555
H8 C19 1_555 1_555
C20 C18 1_555 1_555
H9 C20 1_555 1_555
C21 C10 1_555 1_555
H10 C21 1_555 1_555
C22 C11 1_555 1_555
H11 C22 1_555 1_555
C23 C19 1_555 1_555
H12 C23 1_555 1_555
C24 C12 1_555 1_555
H13 C24 1_555 1_555
C25 C23 1_555 1_555
H14 C25 1_555 1_555
C26 C20 1_555 1_555
H15 C26 1_555 1_555
C27 C7 1_555 1_555
H16 C27 1_555 1_555
C28 C16 1_555 1_555
C29 C12 1_555 1_555
H17 C29 1_555 1_555
C30 H18 1_555 1_555
C31 C11 1_555 1_555
H19 C31 1_555 1_555
C32 C26 1_555 1_555
H20 C32 1_555 1_555
C33 C13 1_555 1_555
H21 C33 1_555 1_555
C34 C16 1_555 1_555
H22 C34 1_555 1_555
C35 C30 1_555 1_555
H23 C35 1_555 1_555
C36 C28 1_555 1_555
H24 C36 1_555 1_555
C9 C15 1_555 1_555
C9 C27 1_555 1_555
C13 C21 1_555 1_555
C14 C24 1_555 1_555
C15 C17 1_555 1_555
C25 C31 1_555 1_555
C28 C33 1_555 1_555
C29 C32 1_555 1_555
C30 C34 1_555 1_555
C35 C36 1_555 1_555

#END
