
#######################################################################
#
#                 Cambridge Crystallographic Data Centre
#                                CCDC 
#
#######################################################################
#
# If this CIF has been generated from an entry in the Cambridge 
# Structural Database, then it will include bibliographic, chemical, 
# crystal, experimental, refinement or atomic coordinate data resulting 
# from the CCDC's data processing and validation procedures.
#
#######################################################################

data_EGEXAR
_chemical_formula_moiety         'C26 H18 O2'
_chemical_name_systematic        
2,2'-(1,4-Phenylenediethene-2,1-diyl)bis(1-benzofuran)
_symmetry_cell_setting           monoclinic
_symmetry_space_group_name_H-M   'P 21/c'
_symmetry_Int_Tables_number      14
_space_group_name_Hall           '-P 2ybc'
loop_
_symmetry_equiv_pos_site_id
_symmetry_equiv_pos_as_xyz
1 x,y,z
2 -x,1/2+y,1/2-z
3 -x,-y,-z
4 x,1/2-y,1/2+z
_cell_length_a                   23.0227(11)
_cell_length_b                   7.5756(3)
_cell_length_c                   16.2346(6)
_cell_angle_alpha                90
_cell_angle_beta                 97.316(5)
_cell_angle_gamma                90
_cell_volume                     2808.44
_cell_formula_units_Z            6
loop_
_atom_site_label
_atom_site_type_symbol
_atom_site_fract_x
_atom_site_fract_y
_atom_site_fract_z
O1 O 0.75142(5) 0.53263(16) 0.49299(7)
C1 C 0.93901(8) 0.5088(2) 0.50562(10)
C2 C 0.78310(8) 0.4514(2) 0.56163(11)
C3 C 0.69404(8) 0.5288(2) 0.50713(11)
C4 C 0.68889(8) 0.4471(2) 0.58279(11)
C5 C 0.96319(8) 0.5846(2) 0.43953(11)
H1 H 0.9386 0.6424 0.3982
C6 C 0.97787(8) 0.4232(2) 0.56646(11)
H2 H 0.9635 0.3710 0.6116
C7 C 0.87608(8) 0.5175(2) 0.50765(11)
H3 H 0.8548 0.5833 0.4658
C8 C 0.84530(8) 0.4422(2) 0.56245(11)
H4 H 0.8662 0.3777 0.6051
C9 C 0.74700(9) 0.3981(2) 0.61603(11)
H5 H 0.7580 0.3400 0.6661
C10 C 0.64742(9) 0.5964(3) 0.45504(13)
H6 H 0.6524 0.6497 0.4048
C11 C 0.63318(10) 0.4325(3) 0.60750(13)
H7 H 0.6279 0.3781 0.6574
C12 C 0.58608(10) 0.5006(3) 0.55609(16)
H8 H 0.5488 0.4924 0.5720
C13 C 0.59321(10) 0.5808(3) 0.48131(15)
H9 H 0.5606 0.6251 0.4481
O1B O 1.24858(5) 0.46737(16) 0.50701(7)
C1B C 1.06099(8) 0.4912(2) 0.49438(10)
C2B C 1.21690(8) 0.5486(2) 0.43837(11)
C3B C 1.30596(8) 0.4712(2) 0.49287(11)
C4B C 1.31111(8) 0.5529(2) 0.41721(11)
C5B C 1.03681(8) 0.4154(2) 0.56047(11)
H1B H 1.0614 0.3576 0.6018
C6B C 1.02213(8) 0.5768(2) 0.43354(11)
H2B H 1.0365 0.6290 0.3884
C7B C 1.12392(8) 0.4825(2) 0.49235(11)
H3B H 1.1452 0.4167 0.5342
C8B C 1.15470(8) 0.5578(2) 0.43755(11)
H4B H 1.1338 0.6223 0.3949
C9B C 1.25300(9) 0.6019(2) 0.38397(11)
H5B H 1.2420 0.6600 0.3339
C10B C 1.35258(9) 0.4036(3) 0.54496(13)
H6B H 1.3476 0.3503 0.5952
C11B C 1.36682(10) 0.5675(3) 0.39250(13)
H7B H 1.3721 0.6219 0.3426
C12B C 1.41392(10) 0.4994(3) 0.44391(16)
H8B H 1.4512 0.5076 0.4280
C13B C 1.40679(10) 0.4192(3) 0.51869(15)
H9B H 1.4394 0.3749 0.5519
O2 O -0.15064(6) 0.54294(16) 0.14694(8)
O3 O 0.34681(6) 0.44078(17) 0.18174(8)
C14 C 0.03755(8) 0.5045(2) 0.15798(11)
C15 C -0.11938(9) 0.4696(2) 0.21674(11)
C16 C 0.15995(8) 0.4764(2) 0.15294(11)
C17 C -0.20874(9) 0.5450(2) 0.16448(12)
C18 C 0.13385(9) 0.4153(2) 0.22038(11)
H10 H 0.1573 0.3633 0.2647
C19 C -0.21044(9) 0.4749(2) 0.24378(12)
C20 C 0.07496(9) 0.4294(2) 0.22355(11)
H11 H 0.0594 0.3884 0.2701
C21 C 0.41562(9) 0.5498(3) 0.10781(12)
C22 C 0.40570(9) 0.4476(2) 0.17532(12)
C23 C 0.31963(9) 0.5388(2) 0.11508(12)
C24 C 0.06319(9) 0.5642(2) 0.08997(12)
H12 H 0.0396 0.6153 0.0455
C25 C -0.02568(9) 0.5183(2) 0.15839(12)
H13 H -0.0466 0.5770 0.1138
C26 C 0.12251(9) 0.5498(2) 0.08667(12)
H14 H 0.1380 0.5892 0.0398
C27 C -0.15230(9) 0.4260(3) 0.27465(13)
H15 H -0.1398 0.3736 0.3256
C28 C 0.22338(9) 0.4661(2) 0.15617(12)
H16 H 0.2427 0.3946 0.1974
C29 C -0.05612(9) 0.4563(3) 0.21523(13)
H17 H -0.0350 0.3973 0.2596
C30 C 0.25669(9) 0.5472(3) 0.10693(12)
H18 H 0.2379 0.6149 0.0637
C31 C 0.35932(9) 0.6071(3) 0.07038(13)
H19 H 0.3516 0.6784 0.0237
C32 C -0.25586(10) 0.6032(3) 0.11358(14)
H20 H -0.2526 0.6477 0.0610
C33 C -0.26574(10) 0.4663(3) 0.27320(13)
H21 H -0.2696 0.4213 0.3255
C34 C -0.31370(10) 0.5274(3) 0.22121(15)
H22 H -0.3505 0.5241 0.2391
C35 C 0.47313(11) 0.5685(3) 0.09053(14)
H23 H 0.4817 0.6382 0.0465
C36 C -0.30830(11) 0.5933(3) 0.14330(15)
H24 H -0.3417 0.6323 0.1100
C37 C 0.44887(10) 0.3629(3) 0.22677(14)
H25 H 0.4406 0.2970 0.2722
C38 C 0.51686(11) 0.4812(4) 0.14034(17)
H26 H 0.5552 0.4900 0.1286
C39 C 0.50508(11) 0.3810(4) 0.20738(16)
H27 H 0.5357 0.3247 0.2400
loop_
_geom_bond_atom_site_label_1
_geom_bond_atom_site_label_2
_geom_bond_site_symmetry_1
_geom_bond_site_symmetry_2
O1 C2 1_555 1_555
C1 C5 1_555 1_555
C2 C8 1_555 1_555
C3 O1 1_555 1_555
C4 C3 1_555 1_555
C5 H1 1_555 1_555
C6 C1 1_555 1_555
H2 C6 1_555 1_555
C7 C1 1_555 1_555
H3 C7 1_555 1_555
C8 C7 1_555 1_555
H4 C8 1_555 1_555
C9 C2 1_555 1_555
H5 C9 1_555 1_555
C10 C3 1_555 1_555
H6 C10 1_555 1_555
C11 C4 1_555 1_555
H7 C11 1_555 1_555
C12 C11 1_555 1_555
H8 C12 1_555 1_555
C13 C10 1_555 1_555
H9 C13 1_555 1_555
O2 C15 1_555 1_555
O3 C22 1_555 1_555
C14 C20 1_555 1_555
C15 C27 1_555 1_555
C16 C18 1_555 1_555
C17 O2 1_555 1_555
C18 H10 1_555 1_555
C19 C17 1_555 1_555
C20 C18 1_555 1_555
H11 C20 1_555 1_555
C21 C22 1_555 1_555
C22 C37 1_555 1_555
C23 O3 1_555 1_555
C24 C14 1_555 1_555
H12 C24 1_555 1_555
C25 C14 1_555 1_555
H13 C25 1_555 1_555
C26 C16 1_555 1_555
H14 C26 1_555 1_555
C27 C19 1_555 1_555
H15 C27 1_555 1_555
C28 C16 1_555 1_555
H16 C28 1_555 1_555
C29 C15 1_555 1_555
H17 C29 1_555 1_555
C30 C23 1_555 1_555
H18 C30 1_555 1_555
C31 C21 1_555 1_555
H19 C31 1_555 1_555
C32 C17 1_555 1_555
H20 C32 1_555 1_555
C33 C19 1_555 1_555
H21 C33 1_555 1_555
C34 C33 1_555 1_555
H22 C34 1_555 1_555
C35 C21 1_555 1_555
H23 C35 1_555 1_555
C36 C32 1_555 1_555
H24 C36 1_555 1_555
C37 H25 1_555 1_555
C38 C35 1_555 1_555
H26 C38 1_555 1_555
C39 C37 1_555 1_555
H27 C39 1_555 1_555
O1B C2B 1_555 1_555
C1B C5B 1_555 1_555
C2B C8B 1_555 1_555
C3B O1B 1_555 1_555
C4B C3B 1_555 1_555
C5B C6 1_555 1_555
H1B C5B 1_555 1_555
C6B C5 1_555 1_555
H2B C6B 1_555 1_555
C7B C1B 1_555 1_555
H3B C7B 1_555 1_555
C8B C7B 1_555 1_555
H4B C8B 1_555 1_555
C9B C2B 1_555 1_555
H5B C9B 1_555 1_555
C10B C3B 1_555 1_555
H6B C10B 1_555 1_555
C11B C4B 1_555 1_555
H7B C11B 1_555 1_555
C12B C11B 1_555 1_555
H8B C12B 1_555 1_555
C13B C10B 1_555 1_555
H9B C13B 1_555 1_555
C4 C9 1_555 1_555
C12 C13 1_555 1_555
C23 C31 1_555 1_555
C24 C26 1_555 1_555
C25 C29 1_555 1_555
C28 C30 1_555 1_555
C34 C36 1_555 1_555
C38 C39 1_555 1_555
C1B C6B 1_555 1_555
C4B C9B 1_555 1_555
C12B C13B 1_555 1_555

#END
