
#######################################################################
#
#                 Cambridge Crystallographic Data Centre
#                                CCDC 
#
#######################################################################
#
# If this CIF has been generated from an entry in the Cambridge 
# Structural Database, then it will include bibliographic, chemical, 
# crystal, experimental, refinement or atomic coordinate data resulting 
# from the CCDC's data processing and validation procedures.
#
#######################################################################

data_EGEZOH
_chemical_formula_moiety         'C35 H34 N4 O5,0.5(H2 O1)'
_chemical_name_systematic        
"methyl 3-((3',6'-bis(ethylamino)-2',7'-dimethyl-3-oxospiro[isoindole-1,9'-xanthen]-2(3H)-yl)carbonoimidoyl)-2-hydroxybenzoate hemihydrate"
_symmetry_cell_setting           monoclinic
_symmetry_space_group_name_H-M   'P 21/c'
_symmetry_Int_Tables_number      14
_space_group_name_Hall           '-P 2ybc'
loop_
_symmetry_equiv_pos_site_id
_symmetry_equiv_pos_as_xyz
1 x,y,z
2 -x,1/2+y,1/2-z
3 -x,-y,-z
4 x,1/2-y,1/2+z
_cell_length_a                   9.147(5)
_cell_length_b                   20.630(10)
_cell_length_c                   17.619(9)
_cell_angle_alpha                90
_cell_angle_beta                 94.467(7)
_cell_angle_gamma                90
_cell_volume                     3314.65
_cell_formula_units_Z            4
loop_
_atom_site_label
_atom_site_type_symbol
_atom_site_fract_x
_atom_site_fract_y
_atom_site_fract_z
O1 O 0.15614(19) 0.31199(9) 0.24398(10)
O2 O 0.0166(3) 0.02417(10) 0.13138(12)
O3 O -0.1616(2) -0.04060(9) 0.32821(11)
H1 H -0.2262 -0.0653 0.3401
O4 O -0.2879(3) -0.10376(11) 0.43329(13)
O5 O -0.3021(3) -0.05711(11) 0.54671(12)
N1 N -0.3262(3) 0.38608(11) 0.17736(15)
H2 H -0.4115 0.3791 0.1548
N2 N 0.6383(3) 0.25064(16) 0.33401(15)
H3 H 0.7072 0.2221 0.3362
N3 N 0.0558(2) 0.12608(10) 0.18189(11)
N4 N 0.0200(2) 0.12120(10) 0.25587(11)
C1 C -0.2202(3) 0.33849(13) 0.17426(15)
C2 C -0.2541(3) 0.28141(13) 0.13265(15)
C3 C -0.1457(3) 0.23501(13) 0.13013(14)
H4 H -0.1672 0.1971 0.1030
C4 C -0.0054(3) 0.24229(12) 0.16632(13)
C5 C 0.0224(3) 0.29868(13) 0.20609(14)
C6 C -0.0815(3) 0.34623(13) 0.21040(15)
H5 H -0.0586 0.3839 0.2378
C7 C 0.1095(3) 0.19115(12) 0.15849(14)
C8 C 0.2484(3) 0.20875(13) 0.20360(14)
C9 C 0.3698(3) 0.16632(14) 0.20667(16)
H6 H 0.3611 0.1279 0.1791
C10 C 0.4991(3) 0.17860(15) 0.24791(18)
C11 C 0.5105(3) 0.23759(16) 0.28923(16)
C12 C 0.3941(3) 0.28134(16) 0.28548(15)
H7 H 0.4031 0.3207 0.3112
C13 C 0.2649(3) 0.26577(14) 0.24325(14)
C14 C -0.4027(3) 0.27258(16) 0.08991(18)
H8 H -0.4081 0.2304 0.0670
H9 H -0.4164 0.3051 0.0510
H10 H -0.4780 0.2767 0.1246
C15 C 0.6263(3) 0.13306(17) 0.2495(2)
H11 H 0.6553 0.1213 0.3012
H12 H 0.7068 0.1538 0.2274
H13 H 0.5986 0.0948 0.2209
C16 C -0.3008(4) 0.44654(16) 0.2164(2)
H14 H -0.2279 0.4715 0.1919
H15 H -0.2641 0.4386 0.2687
C17 C -0.4406(4) 0.4833(2) 0.2146(3)
H16 H -0.4724 0.4939 0.1629
H17 H -0.4258 0.5225 0.2436
H18 H -0.5139 0.4573 0.2362
C18 C 0.6612(4) 0.3083(2) 0.3761(2)
H19 H 0.5874 0.3120 0.4125
H20 H 0.6513 0.3452 0.3420
C19 C 0.8095(4) 0.3086(3) 0.4171(2)
H21 H 0.8212 0.2708 0.4486
H22 H 0.8205 0.3467 0.4483
H23 H 0.8826 0.3086 0.3808
C20 C 0.1343(3) 0.17653(13) 0.07633(14)
C21 C 0.1829(3) 0.21926(15) 0.02313(16)
H24 H 0.2051 0.2622 0.0355
C22 C 0.1971(4) 0.19519(17) -0.04976(17)
H25 H 0.2298 0.2227 -0.0867
C23 C 0.1642(4) 0.13190(19) -0.06861(19)
H26 H 0.1742 0.1173 -0.1179
C24 C 0.1166(4) 0.09018(17) -0.01493(17)
H27 H 0.0952 0.0472 -0.0271
C25 C 0.1010(3) 0.11367(15) 0.05772(16)
C26 C 0.0531(3) 0.08053(14) 0.12484(16)
C27 C -0.0302(3) 0.06829(13) 0.27957(15)
H28 H -0.0392 0.0325 0.2475
C28 C -0.0740(3) 0.06370(12) 0.35743(14)
C29 C -0.0563(3) 0.11409(14) 0.40917(16)
H29 H -0.0105 0.1519 0.3948
C30 C -0.1038(4) 0.11020(15) 0.48065(17)
H30 H -0.0902 0.1449 0.5141
C31 C -0.1726(4) 0.05411(15) 0.50295(17)
H31 H -0.2047 0.0510 0.5516
C32 C -0.1934(3) 0.00279(14) 0.45266(16)
C33 C -0.1439(3) 0.00787(13) 0.38054(16)
C34 C -0.2649(4) -0.05749(16) 0.47545(18)
C35 C -0.3653(5) -0.11664(18) 0.5738(2)
H32 H -0.3261 -0.1530 0.5482
H33 H -0.4699 -0.1155 0.5636
H34 H -0.3417 -0.1207 0.6277
O6 O 0.4454(12) 0.9717(5) 0.0320(7)
H35 H 0.4810 0.9648 -0.0104
H36 H 0.4865 0.9957 0.0666
loop_
_geom_bond_atom_site_label_1
_geom_bond_atom_site_label_2
_geom_bond_site_symmetry_1
_geom_bond_site_symmetry_2
O1 C5 1_555 1_555
O2 C26 1_555 1_555
O3 H1 1_555 1_555
O4 C34 1_555 1_555
O5 C34 1_555 1_555
N1 H2 1_555 1_555
N2 H3 1_555 1_555
N3 N4 1_555 1_555
N4 C27 1_555 1_555
C1 N1 1_555 1_555
C2 C1 1_555 1_555
C3 C2 1_555 1_555
H4 C3 1_555 1_555
C4 C3 1_555 1_555
C5 C4 1_555 1_555
C6 C1 1_555 1_555
H5 C6 1_555 1_555
C7 N3 1_555 1_555
C8 C7 1_555 1_555
C9 C8 1_555 1_555
H6 C9 1_555 1_555
C10 C9 1_555 1_555
C11 N2 1_555 1_555
C12 C11 1_555 1_555
H7 C12 1_555 1_555
C13 O1 1_555 1_555
C14 C2 1_555 1_555
H8 C14 1_555 1_555
H9 C14 1_555 1_555
H10 C14 1_555 1_555
C15 C10 1_555 1_555
H11 C15 1_555 1_555
H12 C15 1_555 1_555
H13 C15 1_555 1_555
C16 N1 1_555 1_555
H14 C16 1_555 1_555
H15 C16 1_555 1_555
C17 C16 1_555 1_555
H16 C17 1_555 1_555
H17 C17 1_555 1_555
H18 C17 1_555 1_555
C18 N2 1_555 1_555
H19 C18 1_555 1_555
H20 C18 1_555 1_555
C19 C18 1_555 1_555
H21 C19 1_555 1_555
H22 C19 1_555 1_555
H23 C19 1_555 1_555
C20 C7 1_555 1_555
C21 C20 1_555 1_555
H24 C21 1_555 1_555
C22 C21 1_555 1_555
H25 C22 1_555 1_555
C23 C22 1_555 1_555
H26 C23 1_555 1_555
C24 C23 1_555 1_555
H27 C24 1_555 1_555
C25 C20 1_555 1_555
C26 N3 1_555 1_555
C27 H28 1_555 1_555
C28 C27 1_555 1_555
C29 C28 1_555 1_555
H29 C29 1_555 1_555
C30 C29 1_555 1_555
H30 C30 1_555 1_555
C31 C30 1_555 1_555
H31 C31 1_555 1_555
C32 C31 1_555 1_555
C33 O3 1_555 1_555
C34 C32 1_555 1_555
C35 O5 1_555 1_555
H32 C35 1_555 1_555
H33 C35 1_555 1_555
H34 C35 1_555 1_555
O6 H35 1_555 1_555
H36 O6 1_555 1_555
C4 C7 1_555 1_555
C5 C6 1_555 1_555
C8 C13 1_555 1_555
C10 C11 1_555 1_555
C12 C13 1_555 1_555
C24 C25 1_555 1_555
C25 C26 1_555 1_555
C28 C33 1_555 1_555
C32 C33 1_555 1_555

#END
