
#######################################################################
#
#                 Cambridge Crystallographic Data Centre
#                                CCDC 
#
#######################################################################
#
# If this CIF has been generated from an entry in the Cambridge 
# Structural Database, then it will include bibliographic, chemical, 
# crystal, experimental, refinement or atomic coordinate data resulting 
# from the CCDC's data processing and validation procedures.
#
#######################################################################

data_EGIGEI
_chemical_formula_moiety         'C22 H18 O6 S1'
_chemical_name_systematic        
'Methyl 9-(2-(methoxycarbonyl)phenyl)-1,3-dihydronaphtho[2,3-c]thiophene-5-carboxylate 2,2-dioxide'
_symmetry_cell_setting           triclinic
_symmetry_space_group_name_H-M   'P -1'
_symmetry_Int_Tables_number      2
_space_group_name_Hall           '-P 1'
loop_
_symmetry_equiv_pos_site_id
_symmetry_equiv_pos_as_xyz
1 x,y,z
2 -x,-y,-z
_cell_length_a                   8.8819(17)
_cell_length_b                   13.355(3)
_cell_length_c                   16.688(3)
_cell_angle_alpha                102.679(5)
_cell_angle_beta                 97.844(6)
_cell_angle_gamma                90.512(5)
_cell_volume                     1911.6
_cell_formula_units_Z            4
loop_
_atom_site_label
_atom_site_type_symbol
_atom_site_fract_x
_atom_site_fract_y
_atom_site_fract_z
C1 C 0.6015(3) 0.55855(17) 0.11821(13)
C2 C 0.4702(2) 0.80804(17) 0.24979(13)
C3 C 0.4049(3) 0.98984(17) 0.32072(14)
C4 C 0.5507(3) 0.95570(17) 0.20239(13)
C5 C 0.4797(3) 0.91693(17) 0.25753(13)
C6 C 0.4825(3) 1.04698(17) 0.39620(14)
C7 C 0.6473(3) 1.03448(19) 0.42109(14)
C8 C 0.4034(3) 1.11794(19) 0.44771(16)
H1 H 0.4543 1.1556 0.4978
C9 C 0.1756(3) 1.0784(2) 0.35194(18)
H2 H 0.0734 1.0890 0.3367
C10 C 0.2520(3) 1.0070(2) 0.30000(16)
H3 H 0.1995 0.9697 0.2502
C11 C 0.2519(3) 1.1334(2) 0.42598(18)
H4 H 0.2012 1.1809 0.4612
C12 C 0.5734(3) 1.06792(19) 0.20378(17)
H5 H 0.5993 1.1079 0.2602
H6 H 0.4827 1.0945 0.1777
O1 O 0.5899(2) 0.46244(13) 0.12721(11)
O2 O 0.7038(2) 1.10685(14) 0.48774(11)
O3 O 0.7234(2) 0.96892(18) 0.38823(13)
O4 O 0.6636(3) 0.57862(15) 0.06398(13)
C13 C 0.6628(4) 0.3862(2) 0.07104(18)
H7 H 0.6472 0.3198 0.0826
H8 H 0.7698 0.4030 0.0784
H9 H 0.6197 0.3851 0.0149
C14 C 0.8641(3) 1.1061(3) 0.5163(2)
H10 H 0.8911 1.1610 0.5643
H11 H 0.9205 1.1153 0.4731
H12 H 0.8876 1.0416 0.5306
S1 S 0.72697(11) 1.07041(5) 0.14612(6)
C15 C 0.5357(2) 0.74122(16) 0.18526(12)
C16 C 0.5287(2) 0.63258(16) 0.18150(13)
C17 C 0.6071(3) 0.78549(17) 0.12969(13)
H13 H 0.6501 0.7434 0.0873
C18 C 0.6132(3) 0.88929(17) 0.13787(13)
C19 C 0.3984(3) 0.76506(18) 0.30587(14)
H14 H 0.3551 0.8082 0.3476
C20 C 0.4581(3) 0.59567(18) 0.23816(14)
H15 H 0.4544 0.5254 0.2355
C21 C 0.3914(3) 0.66166(19) 0.29989(14)
H16 H 0.3424 0.6348 0.3368
C22 C 0.6883(4) 0.94455(19) 0.08345(17)
H17 H 0.6208 0.9458 0.0329
H18 H 0.7814 0.9123 0.0691
O5 O 0.7118(5) 1.14576(19) 0.0986(2)
O6 O 0.8708(3) 1.0702(2) 0.2017(2)
C23 C 0.8822(3) 0.73280(19) 0.30679(14)
H19 H 0.8333 0.7776 0.3449
C24 C 0.9696(2) 0.56251(17) 0.25447(12)
C25 C 0.9428(3) 0.76817(18) 0.24437(14)
H20 H 0.9343 0.8368 0.2419
C26 C 0.8952(3) 0.63258(18) 0.31157(13)
H21 H 0.8543 0.6097 0.3531
C27 C 1.1086(2) 0.52737(17) 0.13498(13)
H22 H 1.1494 0.5489 0.0928
C28 C 1.0721(3) 0.74495(18) 0.11989(15)
C29 C 1.0146(2) 0.70363(17) 0.18674(13)
C30 C 1.0313(2) 0.59764(16) 0.19039(12)
C31 C 1.0604(3) 0.39278(17) 0.20567(13)
C32 C 1.1234(2) 0.42851(17) 0.14321(13)
C33 C 0.9103(3) 0.41556(17) 0.32257(13)
C34 C 0.9851(2) 0.45799(17) 0.26105(12)
C35 C 0.9870(3) 0.39814(16) 0.39729(13)
C36 C 0.9069(3) 0.35345(19) 0.44803(14)
H23 H 0.9575 0.3420 0.4976
C37 C 1.1526(3) 0.42519(18) 0.42284(14)
C38 C 0.7564(3) 0.3867(2) 0.30153(15)
H24 H 0.7042 0.3975 0.2521
C39 C 0.7550(3) 0.3262(2) 0.42604(16)
H25 H 0.7034 0.2971 0.4608
C40 C 0.6791(3) 0.3421(2) 0.35260(16)
H26 H 0.5765 0.3230 0.3372
O7 O 1.20832(19) 0.38535(14) 0.48777(11)
O8 O 1.2290(2) 0.47494(18) 0.39168(12)
O9 O 1.0651(3) 0.84470(15) 0.13066(13)
O10 O 1.1121(5) 0.69650(19) 0.05910(17)
O11 O 1.2356(3) 0.15300(14) 0.09975(12)
O12 O 1.3826(2) 0.28745(17) 0.20666(13)
C41 C 1.3687(3) 0.4025(2) 0.51665(19)
H27 H 1.3957 0.3709 0.5627
H28 H 1.3924 0.4750 0.5339
H29 H 1.4250 0.3731 0.4726
C42 C 1.1244(5) 0.8917(2) 0.0702(2)
H30 H 1.1126 0.9645 0.0844
H31 H 1.0697 0.8637 0.0161
H32 H 1.2303 0.8779 0.0702
C43 C 1.2056(3) 0.34832(18) 0.08898(14)
H33 H 1.2985 0.3772 0.0771
H34 H 1.1417 0.3185 0.0371
C44 C 1.0863(3) 0.28147(18) 0.20459(16)
H35 H 0.9982 0.2385 0.1758
H36 H 1.1092 0.2705 0.2605
S2 S 1.24564(7) 0.25561(5) 0.14992(4)
loop_
_geom_bond_atom_site_label_1
_geom_bond_atom_site_label_2
_geom_bond_site_symmetry_1
_geom_bond_site_symmetry_2
C1 O1 1_555 1_555
C2 C5 1_555 1_555
C3 C5 1_555 1_555
C4 C5 1_555 1_555
C6 C3 1_555 1_555
C7 C6 1_555 1_555
C8 C6 1_555 1_555
H1 C8 1_555 1_555
C9 H2 1_555 1_555
C10 C3 1_555 1_555
H3 C10 1_555 1_555
C11 C8 1_555 1_555
H4 C11 1_555 1_555
C12 C4 1_555 1_555
H5 C12 1_555 1_555
H6 C12 1_555 1_555
O1 C13 1_555 1_555
O2 C7 1_555 1_555
O3 C7 1_555 1_555
O4 C1 1_555 1_555
C13 H7 1_555 1_555
H8 C13 1_555 1_555
H9 C13 1_555 1_555
C14 O2 1_555 1_555
H10 C14 1_555 1_555
H11 C14 1_555 1_555
H12 C14 1_555 1_555
S1 C12 1_555 1_555
C15 C2 1_555 1_555
C16 C1 1_555 1_555
C17 C15 1_555 1_555
H13 C17 1_555 1_555
C18 C4 1_555 1_555
C19 C2 1_555 1_555
H14 C19 1_555 1_555
C20 C16 1_555 1_555
H15 C20 1_555 1_555
C21 C19 1_555 1_555
H16 C21 1_555 1_555
C22 S1 1_555 1_555
H17 C22 1_555 1_555
H18 C22 1_555 1_555
O5 S1 1_555 1_555
O6 S1 1_555 1_555
C23 H19 1_555 1_555
C24 C26 1_555 1_555
C25 C23 1_555 1_555
H20 C25 1_555 1_555
C26 C23 1_555 1_555
H21 C26 1_555 1_555
C27 H22 1_555 1_555
C28 C29 1_555 1_555
C29 C25 1_555 1_555
C30 C24 1_555 1_555
C31 C32 1_555 1_555
C32 C27 1_555 1_555
C33 C34 1_555 1_555
C34 C24 1_555 1_555
C35 C33 1_555 1_555
C36 C35 1_555 1_555
H23 C36 1_555 1_555
C37 C35 1_555 1_555
C38 C33 1_555 1_555
H24 C38 1_555 1_555
C39 C36 1_555 1_555
H25 C39 1_555 1_555
C40 C38 1_555 1_555
H26 C40 1_555 1_555
O7 C37 1_555 1_555
O8 C37 1_555 1_555
O9 C28 1_555 1_555
O10 C28 1_555 1_555
O11 S2 1_555 1_555
O12 S2 1_555 1_555
C41 O7 1_555 1_555
H27 C41 1_555 1_555
H28 C41 1_555 1_555
H29 C41 1_555 1_555
C42 O9 1_555 1_555
H30 C42 1_555 1_555
H31 C42 1_555 1_555
H32 C42 1_555 1_555
C43 C32 1_555 1_555
H33 C43 1_555 1_555
H34 C43 1_555 1_555
C44 C31 1_555 1_555
H35 C44 1_555 1_555
H36 C44 1_555 1_555
S2 C43 1_555 1_555
C9 C10 1_555 1_555
C9 C11 1_555 1_555
C15 C16 1_555 1_555
C17 C18 1_555 1_555
C18 C22 1_555 1_555
C20 C21 1_555 1_555
C27 C30 1_555 1_555
C29 C30 1_555 1_555
C31 C34 1_555 1_555
C39 C40 1_555 1_555
C44 S2 1_555 1_555

#END
