
#######################################################################
#
#                 Cambridge Crystallographic Data Centre
#                                CCDC 
#
#######################################################################
#
# If this CIF has been generated from an entry in the Cambridge 
# Structural Database, then it will include bibliographic, chemical, 
# crystal, experimental, refinement or atomic coordinate data resulting 
# from the CCDC's data processing and validation procedures.
#
#######################################################################

data_EGIHOS
_chemical_formula_moiety         'C66 H26 F18 N6'
_chemical_name_systematic        
meso-5,10,15,20,25,30-hexakis(2,4,6-Trifluorophenyl)-(26)hexaphyrin(1.1.1.1.1.1)
_symmetry_cell_setting           monoclinic
_symmetry_space_group_name_H-M   'P 21/c'
_symmetry_Int_Tables_number      14
_space_group_name_Hall           '-P 2ybc'
loop_
_symmetry_equiv_pos_site_id
_symmetry_equiv_pos_as_xyz
1 x,y,z
2 -x,1/2+y,1/2-z
3 -x,-y,-z
4 x,1/2-y,1/2+z
_cell_length_a                   13.070(2)
_cell_length_b                   20.164(4)
_cell_length_c                   20.938(4)
_cell_angle_alpha                90
_cell_angle_beta                 106.521(7)
_cell_angle_gamma                90
_cell_volume                     5290.26
_exptl_crystal_colour            violet
_exptl_crystal_description       block
_cell_formula_units_Z            4
_exptl_crystal_recrystallization_method chloroform/methanol
loop_
_atom_site_label
_atom_site_type_symbol
_atom_site_fract_x
_atom_site_fract_y
_atom_site_fract_z
F1 F 0.79914(11) 0.05131(7) 0.89584(7)
F2 F 1.13425(13) 0.15136(10) 0.95522(9)
F3 F 0.90695(12) 0.18217(8) 0.74070(7)
F4 F 0.91619(12) -0.08810(9) 0.89272(7)
F5 F 1.25940(13) -0.10733(13) 0.87036(12)
F6 F 0.96547(13) -0.15221(8) 0.68787(8)
F7 F 0.67069(11) -0.36561(7) 0.83395(7)
F8 F 0.66371(13) -0.59351(7) 0.79290(8)
F9 F 0.58208(13) -0.44492(7) 0.61475(7)
F10 F 0.15792(12) -0.19871(9) 0.62354(7)
F11 F -0.11035(15) -0.22199(15) 0.42320(11)
F12 F 0.24535(15) -0.20069(13) 0.42209(8)
F13 F 0.10808(12) 0.08178(8) 0.51515(8)
F14 F -0.10372(13) -0.01528(11) 0.31814(9)
F15 F 0.26519(12) -0.04511(8) 0.38167(7)
F16 F 0.31864(13) 0.29553(8) 0.63893(9)
F17 F 0.36922(13) 0.49727(7) 0.54263(8)
F18 F 0.58347(13) 0.31471(7) 0.53110(8)
N1 N 0.59475(14) 0.14990(9) 0.67469(9)
H1 H 0.5692 0.1141 0.6538
N2 N 0.80012(14) -0.01288(9) 0.76819(9)
N3 N 0.68415(15) -0.21942(9) 0.71555(10)
N4 N 0.48012(15) -0.24978(9) 0.63492(9)
H2 H 0.5230 -0.2165 0.6439
N5 N 0.29265(15) -0.08098(9) 0.52541(9)
N6 N 0.42032(14) 0.11909(9) 0.55605(9)
C1 C 0.55734(18) 0.21267(11) 0.65611(11)
C2 C 0.61797(19) 0.25694(12) 0.70598(11)
H3 H 0.6085 0.3026 0.7074
C3 C 0.69142(19) 0.22062(12) 0.75069(12)
H4 H 0.7418 0.2374 0.7879
C4 C 0.67956(17) 0.15265(11) 0.73186(11)
C5 C 0.74315(17) 0.09987(11) 0.76384(11)
C6 C 0.72076(17) 0.03181(11) 0.75185(11)
C7 C 0.61768(18) -0.00105(11) 0.72623(11)
H5 H 0.5513 0.0193 0.7113
C8 C 0.63766(17) -0.06641(11) 0.72854(11)
H6 H 0.5877 -0.1004 0.7172
C9 C 0.75342(17) -0.07355(11) 0.75243(11)
C10 C 0.81728(18) -0.13017(12) 0.75976(11)
C11 C 0.78432(18) -0.19656(12) 0.74500(12)
C12 C 0.85711(19) -0.25191(12) 0.76700(13)
H7 H 0.9303 -0.2491 0.7868
C13 C 0.79937(19) -0.30743(12) 0.75350(13)
H8 H 0.8239 -0.3507 0.7628
C14 C 0.69075(18) -0.28672(11) 0.72141(12)
C15 C 0.60526(18) -0.33114(11) 0.69936(11)
C16 C 0.50482(19) -0.31277(11) 0.65855(12)
C17 C 0.41252(18) -0.35257(12) 0.63200(12)
H9 H 0.4060 -0.3976 0.6397
C18 C 0.33578(19) -0.31291(11) 0.59340(12)
H10 H 0.2674 -0.3263 0.5698
C19 C 0.37697(18) -0.24754(11) 0.59486(11)
C20 C 0.32247(18) -0.19238(11) 0.56120(11)
C21 C 0.36247(17) -0.12876(11) 0.55694(10)
C22 C 0.47038(18) -0.10156(11) 0.58001(11)
H11 H 0.5323 -0.1245 0.6016
C23 C 0.46233(18) -0.03683(11) 0.56382(11)
H12 H 0.5172 -0.0058 0.5731
C24 C 0.35060(17) -0.02502(11) 0.52889(10)
C25 C 0.29941(17) 0.03204(11) 0.49614(11)
C26 C 0.33742(18) 0.09716(12) 0.50495(11)
C27 C 0.28619(19) 0.15227(12) 0.46244(12)
H13 H 0.2300 0.1496 0.4236
C28 C 0.33593(19) 0.20717(12) 0.49048(12)
H14 H 0.3213 0.2504 0.4751
C29 C 0.41787(18) 0.18598(11) 0.55020(11)
C30 C 0.47910(18) 0.23012(11) 0.59811(11)
C31 C 0.84566(18) 0.11589(11) 0.81451(11)
C32 C 0.87216(19) 0.08878(12) 0.87851(12)
C33 C 0.9673(2) 0.09967(14) 0.92661(13)
H15 H 0.9815 0.0809 0.9688
C34 C 1.0400(2) 0.13939(15) 0.90928(13)
C35 C 1.0214(2) 0.16845(14) 0.84794(13)
H16 H 1.0719 0.1957 0.8375
C36 C 0.9247(2) 0.15545(12) 0.80243(12)
C37 C 0.93434(18) -0.12000(12) 0.78852(12)
C38 C 0.98044(19) -0.10056(14) 0.85354(13)
C39 C 1.0888(2) -0.09527(17) 0.88209(15)
H17 H 1.1173 -0.0820 0.9261
C40 C 1.1524(2) -0.11049(17) 0.84243(18)
C41 C 1.1147(2) -0.12872(16) 0.77725(17)
H18 H 1.1601 -0.1376 0.7513
C42 C 1.0054(2) -0.13318(13) 0.75210(14)
C43 C 0.62192(18) -0.40082(11) 0.72290(11)
C44 C 0.65326(18) -0.41603(12) 0.79048(12)
C45 C 0.66885(18) -0.47968(12) 0.81582(12)
H19 H 0.6909 -0.4877 0.8614
C46 C 0.65025(19) -0.53011(12) 0.77050(13)
C47 C 0.6192(2) -0.52051(12) 0.70286(13)
H20 H 0.6068 -0.5559 0.6732
C48 C 0.6074(2) -0.45572(12) 0.68103(12)
C49 C 0.20746(19) -0.20237(11) 0.52517(12)
C50 C 0.1285(2) -0.20491(12) 0.55647(12)
C51 C 0.0215(2) -0.21255(14) 0.52449(16)
H21 H -0.0294 -0.2149 0.5477
C52 C -0.0054(2) -0.21646(19) 0.45620(17)
C53 C 0.0672(3) -0.2118(2) 0.42089(17)
H22 H 0.0462 -0.2128 0.3746
C54 C 0.1723(2) -0.20541(17) 0.45627(14)
C55 C 0.19148(18) 0.02051(11) 0.44905(11)
C56 C 0.0989(2) 0.04583(12) 0.45920(13)
C57 C -0.0017(2) 0.03453(14) 0.41638(15)
H23 H -0.0627 0.0519 0.4246
C58 C -0.0069(2) -0.00344(15) 0.36144(14)
C59 C 0.0805(2) -0.03106(15) 0.34796(13)
H24 H 0.0743 -0.0570 0.3103
C60 C 0.17764(19) -0.01842(13) 0.39285(12)
C61 C 0.45429(18) 0.30207(11) 0.58660(11)
C62 C 0.37255(19) 0.33273(12) 0.60581(13)
C63 C 0.34241(19) 0.39759(12) 0.59234(13)
H25 H 0.2873 0.4163 0.6062
C64 C 0.3977(2) 0.43330(11) 0.55737(12)
C65 C 0.4797(2) 0.40774(12) 0.53675(12)
H26 H 0.5165 0.4332 0.5135
C66 C 0.50515(18) 0.34222(12) 0.55208(12)
loop_
_geom_bond_atom_site_label_1
_geom_bond_atom_site_label_2
_geom_bond_site_symmetry_1
_geom_bond_site_symmetry_2
F1 C32 1_555 1_555
F2 C34 1_555 1_555
F3 C36 1_555 1_555
F4 C38 1_555 1_555
F5 C40 1_555 1_555
F6 C42 1_555 1_555
F7 C44 1_555 1_555
F8 C46 1_555 1_555
F9 C48 1_555 1_555
F10 C50 1_555 1_555
F11 C52 1_555 1_555
F12 C54 1_555 1_555
F13 C56 1_555 1_555
F14 C58 1_555 1_555
F15 C60 1_555 1_555
F16 C62 1_555 1_555
F17 C64 1_555 1_555
F18 C66 1_555 1_555
N1 H1 1_555 1_555
N2 C6 1_555 1_555
N3 C11 1_555 1_555
N4 H2 1_555 1_555
N5 C21 1_555 1_555
N6 C26 1_555 1_555
C1 N1 1_555 1_555
C2 C1 1_555 1_555
H3 C2 1_555 1_555
C3 C2 1_555 1_555
H4 C3 1_555 1_555
C4 N1 1_555 1_555
C5 C4 1_555 1_555
C6 C5 1_555 1_555
C7 C6 1_555 1_555
H5 C7 1_555 1_555
C8 C7 1_555 1_555
H6 C8 1_555 1_555
C9 N2 1_555 1_555
C10 C9 1_555 1_555
C11 C10 1_555 1_555
C12 C11 1_555 1_555
H7 C12 1_555 1_555
C13 C12 1_555 1_555
H8 C13 1_555 1_555
C14 N3 1_555 1_555
C15 C14 1_555 1_555
C16 N4 1_555 1_555
C17 C16 1_555 1_555
H9 C17 1_555 1_555
C18 C17 1_555 1_555
H10 C18 1_555 1_555
C19 N4 1_555 1_555
C20 C19 1_555 1_555
C21 C20 1_555 1_555
C22 C21 1_555 1_555
H11 C22 1_555 1_555
C23 C22 1_555 1_555
H12 C23 1_555 1_555
C24 N5 1_555 1_555
C25 C24 1_555 1_555
C26 C25 1_555 1_555
C27 C26 1_555 1_555
H13 C27 1_555 1_555
C28 C27 1_555 1_555
H14 C28 1_555 1_555
C29 N6 1_555 1_555
C30 C1 1_555 1_555
C31 C5 1_555 1_555
C32 C31 1_555 1_555
C33 C32 1_555 1_555
H15 C33 1_555 1_555
C34 C33 1_555 1_555
C35 C34 1_555 1_555
H16 C35 1_555 1_555
C36 C31 1_555 1_555
C37 C10 1_555 1_555
C38 C37 1_555 1_555
C39 C38 1_555 1_555
H17 C39 1_555 1_555
C40 C39 1_555 1_555
C41 C40 1_555 1_555
H18 C41 1_555 1_555
C42 C37 1_555 1_555
C43 C15 1_555 1_555
C44 C43 1_555 1_555
C45 C44 1_555 1_555
H19 C45 1_555 1_555
C46 C45 1_555 1_555
C47 C46 1_555 1_555
H20 C47 1_555 1_555
C48 C43 1_555 1_555
C49 C20 1_555 1_555
C50 C49 1_555 1_555
C51 C50 1_555 1_555
H21 C51 1_555 1_555
C52 C51 1_555 1_555
C53 C52 1_555 1_555
H22 C53 1_555 1_555
C54 C49 1_555 1_555
C55 C25 1_555 1_555
C56 C55 1_555 1_555
C57 C56 1_555 1_555
H23 C57 1_555 1_555
C58 C57 1_555 1_555
C59 C58 1_555 1_555
H24 C59 1_555 1_555
C60 C55 1_555 1_555
C61 C30 1_555 1_555
C62 C61 1_555 1_555
C63 C62 1_555 1_555
H25 C63 1_555 1_555
C64 C63 1_555 1_555
C65 C64 1_555 1_555
H26 C65 1_555 1_555
C66 C61 1_555 1_555
C3 C4 1_555 1_555
C8 C9 1_555 1_555
C13 C14 1_555 1_555
C15 C16 1_555 1_555
C18 C19 1_555 1_555
C23 C24 1_555 1_555
C28 C29 1_555 1_555
C29 C30 1_555 1_555
C35 C36 1_555 1_555
C41 C42 1_555 1_555
C47 C48 1_555 1_555
C53 C54 1_555 1_555
C59 C60 1_555 1_555
C65 C66 1_555 1_555

#END
