
#######################################################################
#
#                 Cambridge Crystallographic Data Centre
#                                CCDC 
#
#######################################################################
#
# If this CIF has been generated from an entry in the Cambridge 
# Structural Database, then it will include bibliographic, chemical, 
# crystal, experimental, refinement or atomic coordinate data resulting 
# from the CCDC's data processing and validation procedures.
#
#######################################################################

data_EGIHUY
_chemical_formula_moiety         'C66 H32 Cl12 N6,5(C4 H8 O1)'
_chemical_name_systematic        
'meso-5,10,15,20,25,30-hexakis(2,6-Dichlorophenyl)-(26)hexaphyrin(1.1.1.1.1.1) tetrahydrofuran solvate'
_symmetry_cell_setting           monoclinic
_symmetry_space_group_name_H-M   'C 2/c'
_symmetry_Int_Tables_number      15
_space_group_name_Hall           '-C 2yn'
loop_
_symmetry_equiv_pos_site_id
_symmetry_equiv_pos_as_xyz
1 x,y,z
2 1/2+x,1/2+y,z
3 -x,y,1/2-z
4 1/2-x,1/2+y,1/2-z
5 -x,-y,-z
6 1/2-x,1/2-y,-z
7 x,-y,1/2+z
8 1/2+x,1/2-y,1/2+z
_cell_length_a                   29.855(9)
_cell_length_b                   13.058(5)
_cell_length_c                   21.941(6)
_cell_angle_alpha                90
_cell_angle_beta                 110.284(8)
_cell_angle_gamma                90
_cell_volume                     8023.18
_exptl_crystal_colour            green
_exptl_crystal_description       prism
_cell_formula_units_Z            4
_exptl_crystal_recrystallization_method THF/methanol
loop_
_atom_site_label
_atom_site_type_symbol
_atom_site_fract_x
_atom_site_fract_y
_atom_site_fract_z
Cl1 Cl 0.38407(4) 0.14223(9) 0.78726(5)
Cl2 Cl 0.34775(4) -0.13461(8) 0.59265(5)
Cl3 Cl 0.19229(4) 0.11122(8) 0.75097(5)
Cl4 Cl 0.20624(4) -0.12981(7) 0.55763(5)
Cl5 Cl 0.47145(4) 0.09229(15) 0.44106(8)
Cl6 Cl 0.52335(4) 0.38476(10) 0.62555(8)
N1 N 0.39309(10) 0.1813(2) 0.57750(14)
H1 H 0.3675 0.2132 0.5519
N2 N 0.27511(10) 0.0671(2) 0.63745(14)
N3 N 0.12934(10) 0.1835(2) 0.53459(15)
C1 C 0.43801(12) 0.1895(3) 0.57410(18)
C2 C 0.46885(13) 0.1281(3) 0.62513(19)
H2 H 0.5023 0.1202 0.6351
C3 C 0.44259(13) 0.0830(3) 0.65700(19)
H3 H 0.4542 0.0376 0.6929
C4 C 0.39402(12) 0.1158(3) 0.62682(17)
C5 C 0.35593(12) 0.0833(3) 0.64530(17)
C6 C 0.30868(12) 0.1203(3) 0.62226(16)
C7 C 0.28795(12) 0.2107(3) 0.58374(17)
H4 H 0.3043 0.2612 0.5683
C8 C 0.24054(12) 0.2083(3) 0.57435(17)
H5 H 0.2170 0.2565 0.5510
C9 C 0.23322(12) 0.1165(3) 0.60749(17)
C10 C 0.19144(12) 0.0762(3) 0.61328(17)
C11 C 0.14433(12) 0.1119(3) 0.58301(18)
C12 C 0.10439(13) 0.0740(3) 0.60021(19)
H6 H 0.1056 0.0233 0.6318
C13 C 0.06544(13) 0.1249(3) 0.5626(2)
H7 H 0.0339 0.1188 0.5633
C14 C 0.08107(13) 0.1911(3) 0.52060(19)
C15 C 0.44987(12) 0.2467(3) 0.52793(18)
C16 C 0.36498(12) -0.0022(3) 0.69309(17)
C17 C 0.37612(14) 0.0167(3) 0.75894(19)
C18 C 0.38113(14) -0.0609(4) 0.8039(2)
H8 H 0.3881 -0.0453 0.8485
C19 C 0.37578(15) -0.1614(4) 0.7829(2)
H9 H 0.3787 -0.2153 0.8131
C20 C 0.36625(14) -0.1834(3) 0.7183(2)
H10 H 0.3634 -0.2526 0.7040
C21 C 0.36078(13) -0.1047(3) 0.67424(19)
C22 C 0.19865(12) -0.0154(3) 0.65691(18)
C23 C 0.19972(13) -0.0089(3) 0.72068(18)
C24 C 0.20741(14) -0.0921(3) 0.76220(19)
H11 H 0.2074 -0.0843 0.8052
C25 C 0.21515(14) -0.1872(3) 0.7394(2)
H12 H 0.2202 -0.2455 0.7668
C26 C 0.21549(13) -0.1972(3) 0.67713(19)
H13 H 0.2217 -0.2620 0.6621
C27 C 0.20672(13) -0.1130(3) 0.63650(18)
C28 C 0.50067(13) 0.2406(3) 0.53151(19)
C29 C 0.51419(14) 0.1727(4) 0.4919(2)
C30 C 0.56042(16) 0.1674(4) 0.4918(2)
H14 H 0.5684 0.1203 0.4641
C31 C 0.59465(15) 0.2309(4) 0.5319(3)
H15 H 0.6264 0.2286 0.5315
C32 C 0.58320(14) 0.2975(4) 0.5726(3)
H16 H 0.6070 0.3407 0.6008
C33 C 0.53672(14) 0.3017(3) 0.5723(2)
Cl1E Cl 0.11593(4) 0.35777(9) 0.21274(5)
Cl2E Cl 0.15225(4) 0.63461(8) 0.40735(5)
Cl3E Cl 0.30771(4) 0.38878(8) 0.24903(5)
Cl4E Cl 0.29376(4) 0.62981(7) 0.44237(5)
Cl5E Cl 0.02855(4) 0.40771(15) 0.55894(8)
Cl6E Cl -0.02335(4) 0.11524(10) 0.37445(8)
N1E N 0.10691(10) 0.3187(2) 0.42250(14)
H1E H 0.1325 0.2868 0.4481
N2E N 0.22489(10) 0.4329(2) 0.36255(14)
N3E N 0.37066(10) 0.3165(2) 0.46541(15)
C1E C 0.06199(12) 0.3105(3) 0.42590(18)
C2E C 0.03115(13) 0.3719(3) 0.37487(19)
H2E H -0.0023 0.3798 0.3649
C3E C 0.05741(13) 0.4170(3) 0.34300(19)
H3E H 0.0458 0.4624 0.3071
C4E C 0.10598(12) 0.3842(3) 0.37318(17)
C5E C 0.14407(12) 0.4167(3) 0.35470(17)
C6E C 0.19132(12) 0.3797(3) 0.37774(16)
C7E C 0.21205(12) 0.2893(3) 0.41626(17)
H4E H 0.1957 0.2388 0.4317
C8E C 0.25946(12) 0.2917(3) 0.42565(17)
H5E H 0.2830 0.2435 0.4490
C9E C 0.26678(12) 0.3835(3) 0.39251(17)
C10E C 0.30856(12) 0.4238(3) 0.38672(17)
C11E C 0.35567(12) 0.3881(3) 0.41699(18)
C12E C 0.39561(13) 0.4260(3) 0.39979(19)
H6E H 0.3944 0.4767 0.3682
C13E C 0.43456(13) 0.3751(3) 0.4374(2)
H7E H 0.4661 0.3812 0.4367
C14E C 0.41893(13) 0.3089(3) 0.47940(19)
C15E C 0.05013(12) 0.2533(3) 0.47207(18)
C16E C 0.13502(12) 0.5022(3) 0.30691(17)
C17E C 0.12388(14) 0.4833(3) 0.24106(19)
C18E C 0.11887(14) 0.5609(4) 0.1961(2)
H8E H 0.1119 0.5453 0.1515
C19E C 0.12422(15) 0.6614(4) 0.2171(2)
H9E H 0.1213 0.7153 0.1869
C20E C 0.13375(14) 0.6834(3) 0.2817(2)
H10E H 0.1366 0.7526 0.2960
C21E C 0.13922(13) 0.6047(3) 0.32576(19)
C22E C 0.30135(12) 0.5154(3) 0.34309(18)
C23E C 0.30028(13) 0.5089(3) 0.27932(18)
C24E C 0.29259(14) 0.5921(3) 0.23780(19)
H11E H 0.2926 0.5843 0.1948
C25E C 0.28485(14) 0.6872(3) 0.2606(2)
H12E H 0.2798 0.7455 0.2332
C26E C 0.28451(13) 0.6972(3) 0.32287(19)
H13E H 0.2783 0.7620 0.3379
C27E C 0.29328(13) 0.6130(3) 0.36350(18)
C28E C -0.00067(13) 0.2594(3) 0.46849(19)
C29E C -0.01419(14) 0.3273(4) 0.5081(2)
C30E C -0.06042(16) 0.3326(4) 0.5082(2)
H14E H -0.0684 0.3797 0.5359
C31E C -0.09465(15) 0.2691(4) 0.4681(3)
H15E H -0.1264 0.2714 0.4685
C32E C -0.08320(14) 0.2025(4) 0.4274(3)
H16E H -0.1070 0.1593 0.3992
C33E C -0.03672(14) 0.1983(3) 0.4277(2)
O1 O 0.14757(19) 0.0818(5) 0.3667(3)
C34 C 0.1399(3) 0.0068(6) 0.4069(3)
H17 H 0.1617 -0.0515 0.4095
H18 H 0.1475 0.0349 0.4512
C35 C 0.0947(4) -0.0269(10) 0.3853(5)
H19 H 0.0752 0.0076 0.4077
H20 H 0.0930 -0.1020 0.3904
C36 C 0.0781(4) 0.0059(11) 0.3091(6)
H21 H 0.0883 -0.0445 0.2828
H22 H 0.0432 0.0170 0.2898
C37 C 0.1033(3) 0.0960(6) 0.3171(4)
H23 H 0.0854 0.1519 0.3289
H24 H 0.1081 0.1149 0.2761
O2 O 0.18536(9) 0.4221(2) 0.51967(13)
C38 C 0.23000(14) 0.4759(3) 0.53745(19)
H25 H 0.2370 0.4963 0.4982
H26 H 0.2564 0.4322 0.5649
C39 C 0.22410(15) 0.5693(3) 0.5747(2)
H27 H 0.2099 0.6270 0.5451
H28 H 0.2551 0.5913 0.6068
C40 C 0.19020(15) 0.5308(3) 0.6085(2)
H29 H 0.2082 0.5077 0.6533
H30 H 0.1676 0.5852 0.6102
C41 C 0.1645(2) 0.4436(4) 0.5675(3)
H31 H 0.1666 0.3824 0.5949
H32 H 0.1304 0.4612 0.5461
O3 O 0.0000 0.6143(5) 0.2500
C42 C 0.0066(2) 0.6779(6) 0.3020(4)
H33 H 0.0406 0.6755 0.3304
H34 H -0.0127 0.6525 0.3276
C43 C -0.0067(3) 0.7850(6) 0.2831(4)
H35 H 0.0129 0.8343 0.3158
H36 H -0.0410 0.7982 0.2742
C42B C -0.0066(2) 0.6779(6) 0.1980(4)
H33B H -0.0406 0.6755 0.1696
H34B H 0.0127 0.6525 0.1724
C43B C 0.0067(3) 0.7850(6) 0.2169(4)
H35B H -0.0129 0.8343 0.1842
H36B H 0.0410 0.7982 0.2258
loop_
_geom_bond_atom_site_label_1
_geom_bond_atom_site_label_2
_geom_bond_site_symmetry_1
_geom_bond_site_symmetry_2
Cl1 C17 1_555 1_555
Cl2 C21 1_555 1_555
Cl3 C23 1_555 1_555
Cl4 C27 1_555 1_555
Cl5 C29 1_555 1_555
Cl6 C33 1_555 1_555
O1 C34 1_555 1_555
O2 C38 1_555 1_555
O3 C42 1_555 1_555
N1 H1 1_555 1_555
N2 C6 1_555 1_555
N3 C11 1_555 1_555
C1 N1 1_555 1_555
C2 C1 1_555 1_555
H2 C2 1_555 1_555
C3 C2 1_555 1_555
H3 C3 1_555 1_555
C4 N1 1_555 1_555
C5 C4 1_555 1_555
C6 C5 1_555 1_555
C7 C6 1_555 1_555
H4 C7 1_555 1_555
C8 C7 1_555 1_555
H5 C8 1_555 1_555
C9 N2 1_555 1_555
C10 C9 1_555 1_555
C11 C10 1_555 1_555
C12 C11 1_555 1_555
H6 C12 1_555 1_555
C13 C12 1_555 1_555
H7 C13 1_555 1_555
C14 N3 1_555 1_555
C15 C1 1_555 1_555
C16 C5 1_555 1_555
C17 C16 1_555 1_555
C18 C17 1_555 1_555
H8 C18 1_555 1_555
C19 C18 1_555 1_555
H9 C19 1_555 1_555
C20 C19 1_555 1_555
H10 C20 1_555 1_555
C21 C16 1_555 1_555
C22 C10 1_555 1_555
C23 C22 1_555 1_555
C24 C23 1_555 1_555
H11 C24 1_555 1_555
C25 C24 1_555 1_555
H12 C25 1_555 1_555
C26 C25 1_555 1_555
H13 C26 1_555 1_555
C27 C22 1_555 1_555
C28 C15 1_555 1_555
C29 C28 1_555 1_555
C30 C29 1_555 1_555
H14 C30 1_555 1_555
C31 C30 1_555 1_555
H15 C31 1_555 1_555
C32 C31 1_555 1_555
H16 C32 1_555 1_555
C33 C28 1_555 1_555
C34 H17 1_555 1_555
H18 C34 1_555 1_555
C35 C34 1_555 1_555
H19 C35 1_555 1_555
H20 C35 1_555 1_555
C36 C35 1_555 1_555
H21 C36 1_555 1_555
H22 C36 1_555 1_555
C37 O1 1_555 1_555
H23 C37 1_555 1_555
H24 C37 1_555 1_555
C38 H25 1_555 1_555
H26 C38 1_555 1_555
C39 C38 1_555 1_555
H27 C39 1_555 1_555
H28 C39 1_555 1_555
C40 C39 1_555 1_555
H29 C40 1_555 1_555
H30 C40 1_555 1_555
C41 O2 1_555 1_555
H31 C41 1_555 1_555
H32 C41 1_555 1_555
C42 H33 1_555 1_555
H34 C42 1_555 1_555
C43 C42 1_555 1_555
H35 C43 1_555 1_555
H36 C43 1_555 1_555
Cl1E C17E 1_555 1_555
Cl2E C21E 1_555 1_555
Cl3E C23E 1_555 1_555
Cl4E C27E 1_555 1_555
Cl5E C29E 1_555 1_555
Cl6E C33E 1_555 1_555
N1E H1E 1_555 1_555
N2E C6E 1_555 1_555
N3E C11E 1_555 1_555
C1E N1E 1_555 1_555
C2E C1E 1_555 1_555
H2E C2E 1_555 1_555
C3E C2E 1_555 1_555
H3E C3E 1_555 1_555
C4E N1E 1_555 1_555
C5E C4E 1_555 1_555
C6E C5E 1_555 1_555
C7E C6E 1_555 1_555
H4E C7E 1_555 1_555
C8E C7E 1_555 1_555
H5E C8E 1_555 1_555
C9E N2E 1_555 1_555
C10E C9E 1_555 1_555
C11E C10E 1_555 1_555
C12E C11E 1_555 1_555
H6E C12E 1_555 1_555
C13E C12E 1_555 1_555
H7E C13E 1_555 1_555
C14E C15 1_555 1_555
C15E C14 1_555 1_555
C16E C5E 1_555 1_555
C17E C16E 1_555 1_555
C18E C17E 1_555 1_555
H8E C18E 1_555 1_555
C19E C18E 1_555 1_555
H9E C19E 1_555 1_555
C20E C19E 1_555 1_555
H10E C20E 1_555 1_555
C21E C16E 1_555 1_555
C22E C10E 1_555 1_555
C23E C22E 1_555 1_555
C24E C23E 1_555 1_555
H11E C24E 1_555 1_555
C25E C24E 1_555 1_555
H12E C25E 1_555 1_555
C26E C25E 1_555 1_555
H13E C26E 1_555 1_555
C27E C22E 1_555 1_555
C28E C15E 1_555 1_555
C29E C28E 1_555 1_555
C30E C29E 1_555 1_555
H14E C30E 1_555 1_555
C31E C30E 1_555 1_555
H15E C31E 1_555 1_555
C32E C31E 1_555 1_555
H16E C32E 1_555 1_555
C33E C28E 1_555 1_555
C42B O3 1_555 1_555
H33B C42B 1_555 1_555
H34B C42B 1_555 1_555
C43B C43 1_555 1_555
H35B C43B 1_555 1_555
H36B C43B 1_555 1_555
C3 C4 1_555 1_555
C8 C9 1_555 1_555
C13 C14 1_555 1_555
C20 C21 1_555 1_555
C26 C27 1_555 1_555
C32 C33 1_555 1_555
C36 C37 1_555 1_555
C40 C41 1_555 1_555
N3E C14E 1_555 1_555
C1E C15E 1_555 1_555
C3E C4E 1_555 1_555
C8E C9E 1_555 1_555
C13E C14E 1_555 1_555
C20E C21E 1_555 1_555
C26E C27E 1_555 1_555
C32E C33E 1_555 1_555
C42B C43B 1_555 1_555

#END
