
#######################################################################
#
#                 Cambridge Crystallographic Data Centre
#                                CCDC 
#
#######################################################################
#
# If this CIF has been generated from an entry in the Cambridge 
# Structural Database, then it will include bibliographic, chemical, 
# crystal, experimental, refinement or atomic coordinate data resulting 
# from the CCDC's data processing and validation procedures.
#
#######################################################################

data_EGIJIO
_chemical_formula_moiety         'C66 H34 F12 N6,0.33(C2 H4 Cl2),1.35(C2 H6 O1)'
_chemical_name_systematic        
'meso-5,10,15,20,25,30-hexakis(2,6-Difluorophenyl)-(28)hexaphyrin(1.1.1.1.1.1) 1,2-dichloroethane ethanol solvate'
_symmetry_cell_setting           triclinic
_symmetry_space_group_name_H-M   'P -1'
_symmetry_Int_Tables_number      2
_space_group_name_Hall           '-P 1'
loop_
_symmetry_equiv_pos_site_id
_symmetry_equiv_pos_as_xyz
1 x,y,z
2 -x,-y,-z
_cell_length_a                   13.8770(14)
_cell_length_b                   14.6082(14)
_cell_length_c                   16.7087(17)
_cell_angle_alpha                102.042(2)
_cell_angle_beta                 113.657(2)
_cell_angle_gamma                105.822(2)
_cell_volume                     2783.81
_exptl_crystal_colour            violet
_exptl_crystal_description       prism
_cell_formula_units_Z            2
_exptl_crystal_recrystallization_method 1,2-dichloroethane/ethanol
loop_
_atom_site_label
_atom_site_type_symbol
_atom_site_fract_x
_atom_site_fract_y
_atom_site_fract_z
C1 C 0.6821(2) -0.35695(19) 0.17441(18)
C2 C 0.6704(2) -0.4437(2) 0.10907(18)
H1 H 0.6197 -0.5120 0.0911
C3 C 0.7437(2) -0.4129(2) 0.07655(19)
H2 H 0.7532 -0.4560 0.0318
C4 C 0.8042(2) -0.3050(2) 0.12073(18)
C5 C 0.8916(2) -0.2398(2) 0.11432(19)
C6 C 0.9402(2) -0.1336(2) 0.1606(2)
C7 C 0.8975(3) -0.0683(2) 0.1951(3)
H3 H 0.8228 -0.0878 0.1887
C8 C 0.9804(3) 0.0277(2) 0.2394(2)
H4 H 0.9736 0.0869 0.2689
C9 C 1.0777(2) 0.0245(2) 0.23422(19)
C10 C 1.1904(2) 0.0983(2) 0.28132(18)
C11 C 1.2202(2) 0.2024(2) 0.32097(19)
C12 C 1.3317(2) 0.2786(2) 0.3815(2)
H5 H 1.4003 0.2672 0.4058
C13 C 1.3249(2) 0.3704(2) 0.3992(2)
H6 H 1.3877 0.4345 0.4372
C14 C 1.2082(2) 0.3548(2) 0.35135(19)
C15 C 1.1603(2) 0.4262(2) 0.34273(19)
C16 C 1.0418(2) 0.4006(2) 0.29487(18)
C17 C 0.9883(2) 0.4691(2) 0.27084(19)
H7 H 1.0255 0.5406 0.2878
C18 C 0.8758(2) 0.4126(2) 0.21988(19)
H8 H 0.8173 0.4358 0.1918
C19 C 0.8602(2) 0.3106(2) 0.21572(17)
C20 C 0.7553(2) 0.2286(2) 0.17384(18)
C21 C 0.7369(2) 0.1403(2) 0.19572(18)
C22 C 0.6436(2) 0.0451(2) 0.14277(19)
H9 H 0.5836 0.0264 0.0809
C23 C 0.6531(2) -0.0155(2) 0.19452(18)
H10 H 0.6024 -0.0842 0.1749
C24 C 0.7520(2) 0.0419(2) 0.28279(18)
C25 C 0.7835(2) 0.0176(2) 0.36357(19)
C26 C 0.7405(3) -0.0832(2) 0.35700(19)
C27 C 0.7145(3) -0.1215(2) 0.4217(2)
H11 H 0.7327 -0.0823 0.4827
C28 C 0.6597(3) -0.2232(2) 0.3793(2)
H12 H 0.6269 -0.2696 0.4027
C29 C 0.6601(2) -0.2482(2) 0.29176(19)
C30 C 0.6332(2) -0.3457(2) 0.23151(18)
C31 C 0.9423(2) -0.2847(2) 0.0627(2)
C32 C 0.9220(3) -0.2818(2) -0.0239(2)
C33 C 0.9680(3) -0.3243(3) -0.0735(2)
H13 H 0.9513 -0.3213 -0.1336
C34 C 1.0374(3) -0.3702(3) -0.0345(3)
H14 H 1.0679 -0.4013 -0.0686
C35 C 1.0642(3) -0.3725(3) 0.0527(3)
H15 H 1.1159 -0.4018 0.0810
C36 C 1.0149(3) -0.3314(2) 0.0983(2)
C37 C 1.2840(2) 0.06365(19) 0.29640(19)
C38 C 1.3633(2) 0.0933(2) 0.2669(2)
C39 C 1.4493(3) 0.0598(2) 0.2807(3)
H16 H 1.5020 0.0831 0.2593
C40 C 1.4582(3) -0.0081(2) 0.3259(3)
H17 H 1.5167 -0.0331 0.3352
C41 C 1.3833(3) -0.0399(2) 0.3576(2)
H18 H 1.3900 -0.0860 0.3902
C42 C 1.2988(2) -0.0045(2) 0.34168(19)
C43 C 1.2394(2) 0.5347(2) 0.3840(2)
C44 C 1.2584(2) 0.5906(2) 0.3310(2)
C45 C 1.3337(3) 0.6901(2) 0.3678(2)
H19 H 1.3458 0.7248 0.3283
C46 C 1.3912(3) 0.7383(2) 0.4628(2)
H20 H 1.4438 0.8076 0.4899
C47 C 1.3739(3) 0.6878(2) 0.5196(2)
H21 H 1.4120 0.7217 0.5856
C48 C 1.3006(2) 0.5878(2) 0.4789(2)
C49 C 0.6529(2) 0.2364(2) 0.10683(19)
C50 C 0.6413(3) 0.2565(2) 0.0272(2)
C51 C 0.5473(3) 0.2672(2) -0.0331(2)
H22 H 0.5438 0.2822 -0.0866
C52 C 0.4583(3) 0.2557(2) -0.0145(2)
H23 H 0.3920 0.2624 -0.0560
C53 C 0.4627(3) 0.2350(2) 0.0624(2)
H24 H 0.4007 0.2270 0.0752
C54 C 0.5595(3) 0.2260(2) 0.1206(2)
C55 C 0.8641(2) 0.1050(2) 0.45717(15)
C56 C 0.9819(2) 0.1434(3) 0.49125(18)
C57 C 1.05457(18) 0.2224(3) 0.57758(19)
H25 H 1.1351 0.2486 0.6009
C58 C 1.0094(2) 0.2629(2) 0.62984(16)
H26 H 1.0590 0.3169 0.6888
C59 C 0.8916(2) 0.2245(2) 0.59576(19)
H27 H 0.8607 0.2522 0.6315
C60 C 0.81890(18) 0.1456(2) 0.50943(19)
C61 C 0.5564(3) -0.4365(2) 0.23263(19)
C62 C 0.4427(3) -0.4566(2) 0.2029(2)
C63 C 0.3662(3) -0.5414(2) 0.1991(2)
H28 H 0.2878 -0.5521 0.1761
C64 C 0.4060(3) -0.6106(2) 0.2295(2)
H29 H 0.3550 -0.6703 0.2280
C65 C 0.5199(3) -0.5936(2) 0.2623(2)
H30 H 0.5485 -0.6404 0.2848
C66 C 0.5907(3) -0.5089(2) 0.2619(2)
F1 F 0.85422(19) -0.23525(17) -0.06083(13)
F2 F 1.03953(18) -0.33496(15) 0.18343(14)
F3 F 1.35449(16) 0.15830(13) 0.22116(14)
F4 F 1.22460(16) -0.03646(13) 0.37234(12)
F5 F 1.19940(15) 0.54413(13) 0.23725(12)
F6 F 1.28563(16) 0.53722(13) 0.53400(12)
F7 F 0.72729(16) 0.26477(16) 0.00758(13)
F8 F 0.56594(16) 0.20933(15) 0.19818(13)
F9 F 1.0231(2) 0.1072(3) 0.4422(2)
F10 F 0.70979(19) 0.10947(19) 0.47658(17)
F11 F 0.40216(16) -0.38930(15) 0.17228(16)
F12 F 0.70110(16) -0.49396(14) 0.29208(13)
N1 N 0.76237(18) -0.27615(16) 0.17762(15)
H34 H 0.7845 -0.2125 0.2126
N2 N 1.04886(19) -0.07371(16) 0.18328(15)
H35 H 1.0939 -0.0957 0.1672
N3 N 1.14787(19) 0.25199(16) 0.30648(16)
H36 H 1.0727 0.2218 0.2728
N4 N 0.96286(19) 0.30450(16) 0.26160(15)
N5 N 0.80147(19) 0.13362(17) 0.27896(15)
H37 H 0.8667 0.1824 0.3243
N6 N 0.70723(19) -0.16248(17) 0.27930(15)
O1 O 0.1835(2) 0.88632(17) 0.09531(16)
H38 H 0.2280 0.8559 0.1028
C73 C 0.1845(2) 0.93371(17) 0.02878(16)
H39 H 0.2641 0.9814 0.0518
H40 H 0.1602 0.8805 -0.0311
C74 C 0.1169(6) 0.9847(5) 0.0125(4)
H41 H 0.0365 0.9365 -0.0206
H42 H 0.1304 1.0233 -0.0261
H43 H 0.1338 1.0319 0.0721
C75 C 1.0075(7) 0.4586(6) 0.5022(4)
H44 H 1.0428 0.4627 0.5681
H45 H 1.0594 0.4495 0.4772
Cl1 Cl 0.86843(14) 0.35107(9) 0.43288(10)
C75A C 0.9925(7) 0.5414(6) 0.4978(4)
H44A H 0.9572 0.5373 0.4319
H45A H 0.9406 0.5505 0.5228
Cl1A Cl 1.13157(14) 0.64893(9) 0.56712(10)
C67? C 0.8460(9) 0.0898(8) 0.4546(5)
C68? C 0.9459(9) 0.0847(8) 0.5164(6)
C69? C 1.0119(8) 0.1555(9) 0.6075(6)
H31? H 1.0802 0.1519 0.6497
C70? C 0.9782(10) 0.2315(8) 0.6368(6)
H32? H 1.0233 0.2799 0.6990
C71? C 0.8784(10) 0.2366(8) 0.5750(8)
H33? H 0.8553 0.2886 0.5950
C72? C 0.8123(8) 0.1658(9) 0.4839(7)
F13? F 0.9741(8) 0.0164(7) 0.4891(7)
F14? F 0.7169(7) 0.1688(7) 0.4309(6)
O2? O 1.0200(14) 0.2475(12) 0.4213(11)
H46? H 1.0184 0.2692 0.3782
C76? C 1.100(3) 0.329(2) 0.512(2)
H47? H 1.1770 0.3578 0.5170
H48? H 1.1075 0.3038 0.5634
C77? C 1.046(3) 0.415(2) 0.514(2)
H49? H 0.9728 0.3909 0.4568
H50? H 1.0993 0.4788 0.5197
H51? H 1.0331 0.4271 0.5686
loop_
_geom_bond_atom_site_label_1
_geom_bond_atom_site_label_2
_geom_bond_site_symmetry_1
_geom_bond_site_symmetry_2
C1 C2 1_555 1_555
C2 H1 1_555 1_555
C3 C2 1_555 1_555
H2 C3 1_555 1_555
C4 C3 1_555 1_555
C5 C4 1_555 1_555
C6 C5 1_555 1_555
C7 C6 1_555 1_555
H3 C7 1_555 1_555
C8 C7 1_555 1_555
H4 C8 1_555 1_555
C9 C8 1_555 1_555
C10 C9 1_555 1_555
C11 C10 1_555 1_555
C12 C11 1_555 1_555
H5 C12 1_555 1_555
C13 C12 1_555 1_555
H6 C13 1_555 1_555
C14 C13 1_555 1_555
C15 C14 1_555 1_555
C16 C15 1_555 1_555
C17 C16 1_555 1_555
H7 C17 1_555 1_555
C18 C17 1_555 1_555
H8 C18 1_555 1_555
C19 C18 1_555 1_555
C20 C19 1_555 1_555
C21 C20 1_555 1_555
C22 C21 1_555 1_555
H9 C22 1_555 1_555
C23 C22 1_555 1_555
H10 C23 1_555 1_555
C24 C23 1_555 1_555
C25 C24 1_555 1_555
C26 C25 1_555 1_555
C27 C26 1_555 1_555
H11 C27 1_555 1_555
C28 C27 1_555 1_555
H12 C28 1_555 1_555
C29 C28 1_555 1_555
C30 C1 1_555 1_555
C31 C5 1_555 1_555
C32 C31 1_555 1_555
C33 C32 1_555 1_555
H13 C33 1_555 1_555
C34 C33 1_555 1_555
H14 C34 1_555 1_555
C35 C34 1_555 1_555
H15 C35 1_555 1_555
C36 C31 1_555 1_555
C37 C10 1_555 1_555
C38 C37 1_555 1_555
C39 C38 1_555 1_555
H16 C39 1_555 1_555
C40 C39 1_555 1_555
H17 C40 1_555 1_555
C41 C40 1_555 1_555
H18 C41 1_555 1_555
C42 C37 1_555 1_555
C43 C15 1_555 1_555
C44 C43 1_555 1_555
C45 C44 1_555 1_555
H19 C45 1_555 1_555
C46 C45 1_555 1_555
H20 C46 1_555 1_555
C47 C46 1_555 1_555
H21 C47 1_555 1_555
C48 C43 1_555 1_555
C49 C20 1_555 1_555
C50 C49 1_555 1_555
C51 C50 1_555 1_555
H22 C51 1_555 1_555
C52 C51 1_555 1_555
H23 C52 1_555 1_555
C53 C52 1_555 1_555
H24 C53 1_555 1_555
C54 C49 1_555 1_555
C55 C25 1_555 1_555
C56 C55 1_555 1_555
C57 C56 1_555 1_555
H25 C57 1_555 1_555
C58 C57 1_555 1_555
H26 C58 1_555 1_555
C59 C58 1_555 1_555
H27 C59 1_555 1_555
C60 C55 1_555 1_555
C61 C30 1_555 1_555
C62 C61 1_555 1_555
C63 C62 1_555 1_555
H28 C63 1_555 1_555
C64 C63 1_555 1_555
H29 C64 1_555 1_555
C65 C64 1_555 1_555
H30 C65 1_555 1_555
C66 C61 1_555 1_555
F1 C32 1_555 1_555
F2 C36 1_555 1_555
F3 C38 1_555 1_555
F4 C42 1_555 1_555
F5 C44 1_555 1_555
F6 C48 1_555 1_555
F7 C50 1_555 1_555
F8 C54 1_555 1_555
F9 C56 1_555 1_555
F10 C60 1_555 1_555
F11 C62 1_555 1_555
F12 C66 1_555 1_555
N1 C1 1_555 1_555
H34 N1 1_555 1_555
N2 C6 1_555 1_555
H35 N2 1_555 1_555
N3 C11 1_555 1_555
H36 N3 1_555 1_555
N4 C16 1_555 1_555
N5 C21 1_555 1_555
H37 N5 1_555 1_555
N6 C26 1_555 1_555
O1 H38 1_555 1_555
C73 O1 1_555 1_555
H39 C73 1_555 1_555
H40 C73 1_555 1_555
C74 C73 1_555 1_555
H41 C74 1_555 1_555
H42 C74 1_555 1_555
H43 C74 1_555 1_555
C75 H44 1_555 1_555
H45 C75 1_555 1_555
Cl1 C75 1_555 1_555
C75A C75 1_555 1_555
H44A C75A 1_555 1_555
H45A C75A 1_555 1_555
Cl1A C75A 1_555 1_555
C4 N1 1_555 1_555
C9 N2 1_555 1_555
C14 N3 1_555 1_555
C19 N4 1_555 1_555
C24 N5 1_555 1_555
C29 C30 1_555 1_555
C29 N6 1_555 1_555
C35 C36 1_555 1_555
C41 C42 1_555 1_555
C47 C48 1_555 1_555
C53 C54 1_555 1_555
C59 C60 1_555 1_555
C65 C66 1_555 1_555

#END
