
#######################################################################
#
#                 Cambridge Crystallographic Data Centre
#                                CCDC 
#
#######################################################################
#
# If this CIF has been generated from an entry in the Cambridge 
# Structural Database, then it will include bibliographic, chemical, 
# crystal, experimental, refinement or atomic coordinate data resulting 
# from the CCDC's data processing and validation procedures.
#
#######################################################################

data_EGIJUA
_chemical_formula_moiety         'C66 H34 Cl12 N6,4(C1 H2 Cl2)'
_chemical_name_systematic        
'meso-5,10,15,20,25,30-hexakis(2,6-Dichlorophenyl)-(28)hexaphyrin(1.1.1.1.1.1) dichloromethane solvate'
_symmetry_cell_setting           monoclinic
_symmetry_space_group_name_H-M   'P 21/c'
_symmetry_Int_Tables_number      14
_space_group_name_Hall           '-P 2ybc'
loop_
_symmetry_equiv_pos_site_id
_symmetry_equiv_pos_as_xyz
1 x,y,z
2 -x,1/2+y,1/2-z
3 -x,-y,-z
4 x,1/2-y,1/2+z
_cell_length_a                   16.445(3)
_cell_length_b                   15.460(3)
_cell_length_c                   14.672(3)
_cell_angle_alpha                90
_cell_angle_beta                 98.883(3)
_cell_angle_gamma                90
_cell_volume                     3685.46
_exptl_crystal_colour            violet
_exptl_crystal_description       prism
_cell_formula_units_Z            2
_exptl_crystal_recrystallization_method n-heptane/dichloromethane
loop_
_atom_site_label
_atom_site_type_symbol
_atom_site_fract_x
_atom_site_fract_y
_atom_site_fract_z
C1 C 0.1762(3) 0.5815(3) -0.0561(4)
C2 C 0.1298(3) 0.6267(4) 0.0046(4)
H1 H 0.0734 0.6425 -0.0096
C3 C 0.1793(3) 0.6427(4) 0.0848(4)
H2 H 0.1634 0.6718 0.1363
C4 C 0.2602(3) 0.6087(3) 0.0800(3)
C5 C 0.3271(3) 0.6142(3) 0.1471(3)
C6 C 0.4091(3) 0.5802(3) 0.1438(3)
C7 C 0.4403(3) 0.5179(3) 0.0902(4)
H3 H 0.4097 0.4867 0.0406
C8 C 0.5263(3) 0.5088(3) 0.1225(3)
H4 H 0.5631 0.4705 0.0989
C9 C 0.5461(3) 0.5672(3) 0.1954(3)
C10 C 0.6214(3) 0.5862(3) 0.2569(3)
C11 C 0.6991(3) 0.5584(3) 0.2500(3)
C12 C 0.7722(3) 0.5744(4) 0.3188(4)
H5 H 0.7742 0.6071 0.3740
C13 C 0.8351(3) 0.5345(4) 0.2897(4)
H6 H 0.8902 0.5321 0.3207
C14 C 0.8027(3) 0.4948(3) 0.1999(3)
C15 C 0.1480(3) 0.5519(3) -0.1444(4)
C16 C 0.3187(3) 0.6584(3) 0.2370(3)
C17 C 0.3119(3) 0.6088(3) 0.3161(4)
C18 C 0.3071(3) 0.6466(4) 0.4004(4)
H7 H 0.3007 0.6115 0.4520
C19 C 0.3119(3) 0.7364(4) 0.4096(4)
H8 H 0.3104 0.7624 0.4680
C20 C 0.3189(3) 0.7878(3) 0.3335(4)
H9 H 0.3217 0.8490 0.3392
C21 C 0.3219(3) 0.7483(3) 0.2491(3)
C22 C 0.6076(3) 0.6452(3) 0.3353(3)
C23 C 0.5837(3) 0.6123(4) 0.4153(4)
C24 C 0.5598(4) 0.6660(4) 0.4846(4)
H10 H 0.5445 0.6422 0.5392
C25 C 0.5595(4) 0.7548(5) 0.4697(5)
H11 H 0.5428 0.7923 0.5146
C26 C 0.5825(4) 0.7891(4) 0.3930(5)
H12 H 0.5814 0.8500 0.3845
C27 C 0.6081(4) 0.7348(4) 0.3255(4)
C28 C 0.0596(3) 0.5695(4) -0.1810(3)
C29 C -0.0019(3) 0.5076(4) -0.1835(4)
C30 C -0.0850(3) 0.5247(4) -0.2132(4)
H13 H -0.1252 0.4806 -0.2128
C31 C -0.1077(3) 0.6077(5) -0.2435(4)
H14 H -0.1639 0.6202 -0.2650
C32 C -0.0490(4) 0.6729(5) -0.2428(5)
H15 H -0.0649 0.7299 -0.2623
C33 C 0.0336(3) 0.6528(4) -0.2129(4)
Cl1 Cl 0.31028(9) 0.49641(8) 0.30762(9)
Cl2 Cl 0.33197(11) 0.81514(9) 0.15557(10)
Cl3 Cl 0.58175(10) 0.50048(10) 0.43078(11)
Cl4 Cl 0.63702(13) 0.77974(10) 0.22694(11)
Cl5 Cl 0.02521(8) 0.40295(9) -0.14354(11)
Cl6 Cl 0.10557(9) 0.73575(11) -0.21241(13)
N1 N 0.2550(2) 0.5723(3) -0.0082(3)
H16 H 0.2961 0.5473 -0.0301
N2 N 0.4738(3) 0.6086(3) 0.2064(3)
H17 H 0.4699 0.6484 0.2484
N3 N 0.7212(3) 0.5097(3) 0.1768(3)
C1B C 0.8238(3) 0.4185(3) 0.0561(4)
C2B C 0.8702(3) 0.3733(4) -0.0046(4)
H1B H 0.9266 0.3575 0.0096
C3B C 0.8207(3) 0.3573(4) -0.0848(4)
H2B H 0.8366 0.3282 -0.1363
C4B C 0.7398(3) 0.3913(3) -0.0800(3)
C5B C 0.6729(3) 0.3858(3) -0.1471(3)
C6B C 0.5909(3) 0.4198(3) -0.1438(3)
C7B C 0.5597(3) 0.4821(3) -0.0902(4)
H3B H 0.5903 0.5133 -0.0406
C8B C 0.4737(3) 0.4912(3) -0.1225(3)
H4B H 0.4369 0.5295 -0.0989
C9B C 0.4539(3) 0.4328(3) -0.1954(3)
C10B C 0.3786(3) 0.4138(3) -0.2569(3)
C11B C 0.3009(3) 0.4416(3) -0.2500(3)
C12B C 0.2278(3) 0.4256(4) -0.3188(4)
H5B H 0.2258 0.3929 -0.3740
C13B C 0.1649(3) 0.4655(4) -0.2897(4)
H6B H 0.1098 0.4679 -0.3207
C14B C 0.1973(3) 0.5052(3) -0.1999(3)
C15B C 0.8520(3) 0.4481(3) 0.1444(4)
C16B C 0.6813(3) 0.3416(3) -0.2370(3)
C17B C 0.6881(3) 0.3912(3) -0.3161(4)
C18B C 0.6929(3) 0.3534(4) -0.4004(4)
H7B H 0.6993 0.3885 -0.4520
C19B C 0.6881(3) 0.2636(4) -0.4096(4)
H8B H 0.6896 0.2376 -0.4680
C20B C 0.6811(3) 0.2122(3) -0.3335(4)
H9B H 0.6783 0.1510 -0.3392
C21B C 0.6781(3) 0.2517(3) -0.2491(3)
C22B C 0.3924(3) 0.3548(3) -0.3353(3)
C23B C 0.4163(3) 0.3877(4) -0.4153(4)
C24B C 0.4402(4) 0.3340(4) -0.4846(4)
H10B H 0.4555 0.3578 -0.5392
C25B C 0.4405(4) 0.2452(5) -0.4697(5)
H11B H 0.4572 0.2077 -0.5146
C26B C 0.4175(4) 0.2109(4) -0.3930(5)
H12B H 0.4186 0.1500 -0.3845
C27B C 0.3919(4) 0.2652(4) -0.3255(4)
C28B C 0.9404(3) 0.4305(4) 0.1810(3)
C29B C 1.0019(3) 0.4924(4) 0.1835(4)
C30B C 1.0850(3) 0.4753(4) 0.2132(4)
H13B H 1.1252 0.5194 0.2128
C31B C 1.1077(3) 0.3923(5) 0.2435(4)
H14B H 1.1639 0.3798 0.2650
C32B C 1.0490(4) 0.3271(5) 0.2428(5)
H15B H 1.0649 0.2701 0.2623
C33B C 0.9664(3) 0.3472(4) 0.2129(4)
Cl1B Cl 0.68972(9) 0.50359(8) -0.30762(9)
Cl2B Cl 0.66803(11) 0.18486(9) -0.15557(10)
Cl3B Cl 0.41825(10) 0.49952(10) -0.43078(11)
Cl4B Cl 0.36298(13) 0.22026(10) -0.22694(11)
Cl5B Cl 0.97479(8) 0.59705(9) 0.14354(11)
Cl6B Cl 0.89443(9) 0.26425(11) 0.21241(13)
N1B N 0.7450(2) 0.4277(3) 0.0082(3)
H16B H 0.7039 0.4527 0.0301
N2B N 0.5262(3) 0.3914(3) -0.2064(3)
H17B H 0.5301 0.3516 -0.2484
N3B N 0.2788(3) 0.4903(3) -0.1768(3)
C34 C 0.2302(4) 0.1842(5) 0.4455(5)
H18 H 0.1914 0.1602 0.3933
H19 H 0.2866 0.1673 0.4371
Cl7 Cl 0.20789(15) 0.14036(14) 0.54962(16)
Cl8 Cl 0.22224(12) 0.29831(12) 0.44496(12)
C35 C 0.0932(9) 0.6327(6) 0.5162(7)
H20 H 0.1337 0.6775 0.5055
H21 H 0.1076 0.6124 0.5806
Cl9 Cl 0.10016(19) 0.54618(17) 0.44159(19)
Cl10 Cl -0.0064(2) 0.6797(2) 0.5017(3)
loop_
_geom_bond_atom_site_label_1
_geom_bond_atom_site_label_2
_geom_bond_site_symmetry_1
_geom_bond_site_symmetry_2
C1 C2 1_555 1_555
C2 H1 1_555 1_555
C3 C2 1_555 1_555
H2 C3 1_555 1_555
C4 C3 1_555 1_555
C5 C4 1_555 1_555
C6 C5 1_555 1_555
C7 C6 1_555 1_555
H3 C7 1_555 1_555
C8 C7 1_555 1_555
H4 C8 1_555 1_555
C9 C8 1_555 1_555
C10 C9 1_555 1_555
C11 C10 1_555 1_555
C12 C11 1_555 1_555
H5 C12 1_555 1_555
C13 C12 1_555 1_555
H6 C13 1_555 1_555
C14 C13 1_555 1_555
C15 C1 1_555 1_555
C16 C5 1_555 1_555
C17 C16 1_555 1_555
C18 C17 1_555 1_555
H7 C18 1_555 1_555
C19 C18 1_555 1_555
H8 C19 1_555 1_555
C20 C19 1_555 1_555
H9 C20 1_555 1_555
C21 C16 1_555 1_555
C22 C10 1_555 1_555
C23 C22 1_555 1_555
C24 C23 1_555 1_555
H10 C24 1_555 1_555
C25 C24 1_555 1_555
H11 C25 1_555 1_555
C26 C25 1_555 1_555
H12 C26 1_555 1_555
C27 C22 1_555 1_555
C28 C15 1_555 1_555
C29 C28 1_555 1_555
C30 C29 1_555 1_555
H13 C30 1_555 1_555
C31 C30 1_555 1_555
H14 C31 1_555 1_555
C32 C31 1_555 1_555
H15 C32 1_555 1_555
C33 C28 1_555 1_555
Cl1 C17 1_555 1_555
Cl2 C21 1_555 1_555
Cl3 C23 1_555 1_555
Cl4 C27 1_555 1_555
Cl5 C29 1_555 1_555
Cl6 C33 1_555 1_555
N1 C1 1_555 1_555
H16 N1 1_555 1_555
N2 C6 1_555 1_555
H17 N2 1_555 1_555
N3 C11 1_555 1_555
C34 H18 1_555 1_555
H19 C34 1_555 1_555
Cl7 C34 1_555 1_555
Cl8 C34 1_555 1_555
C35 H20 1_555 1_555
H21 C35 1_555 1_555
Cl9 C35 1_555 1_555
Cl10 C35 1_555 1_555
C1B C2B 1_555 1_555
C2B H1B 1_555 1_555
C3B C2B 1_555 1_555
H2B C3B 1_555 1_555
C4B C3B 1_555 1_555
C5B C4B 1_555 1_555
C6B C5B 1_555 1_555
C7B C6B 1_555 1_555
H3B C7B 1_555 1_555
C8B C7B 1_555 1_555
H4B C8B 1_555 1_555
C9B C8B 1_555 1_555
C10B C9B 1_555 1_555
C11B C10B 1_555 1_555
C12B C11B 1_555 1_555
H5B C12B 1_555 1_555
C13B C12B 1_555 1_555
H6B C13B 1_555 1_555
C14B C15 1_555 1_555
C15B C14 1_555 1_555
C16B C5B 1_555 1_555
C17B C16B 1_555 1_555
C18B C17B 1_555 1_555
H7B C18B 1_555 1_555
C19B C18B 1_555 1_555
H8B C19B 1_555 1_555
C20B C19B 1_555 1_555
H9B C20B 1_555 1_555
C21B C16B 1_555 1_555
C22B C10B 1_555 1_555
C23B C22B 1_555 1_555
C24B C23B 1_555 1_555
H10B C24B 1_555 1_555
C25B C24B 1_555 1_555
H11B C25B 1_555 1_555
C26B C25B 1_555 1_555
H12B C26B 1_555 1_555
C27B C22B 1_555 1_555
C28B C15B 1_555 1_555
C29B C28B 1_555 1_555
C30B C29B 1_555 1_555
H13B C30B 1_555 1_555
C31B C30B 1_555 1_555
H14B C31B 1_555 1_555
C32B C31B 1_555 1_555
H15B C32B 1_555 1_555
C33B C28B 1_555 1_555
Cl1B C17B 1_555 1_555
Cl2B C21B 1_555 1_555
Cl3B C23B 1_555 1_555
Cl4B C27B 1_555 1_555
Cl5B C29B 1_555 1_555
Cl6B C33B 1_555 1_555
N1B C1B 1_555 1_555
H16B N1B 1_555 1_555
N2B C6B 1_555 1_555
H17B N2B 1_555 1_555
N3B C11B 1_555 1_555
C4 N1 1_555 1_555
C9 N2 1_555 1_555
C14 N3 1_555 1_555
C20 C21 1_555 1_555
C26 C27 1_555 1_555
C32 C33 1_555 1_555
C1B C15B 1_555 1_555
C4B N1B 1_555 1_555
C9B N2B 1_555 1_555
C13B C14B 1_555 1_555
C14B N3B 1_555 1_555
C20B C21B 1_555 1_555
C26B C27B 1_555 1_555
C32B C33B 1_555 1_555

#END
