
#######################################################################
#
#                 Cambridge Crystallographic Data Centre
#                                CCDC 
#
#######################################################################
#
# If this CIF has been generated from an entry in the Cambridge 
# Structural Database, then it will include bibliographic, chemical, 
# crystal, experimental, refinement or atomic coordinate data resulting 
# from the CCDC's data processing and validation procedures.
#
#######################################################################

data_EGIJEK
_chemical_formula_moiety         'C66 H34 F12 N6,2(C1 H1 Cl3)'
_chemical_name_systematic        
'meso-5,10,15,20,25,30-hexakis(2,6-Difluorophenyl)-(28)hexaphyrin(1.1.1.1.1.1) chloroform solvate'
_symmetry_cell_setting           monoclinic
_symmetry_space_group_name_H-M   'P 21/c'
_symmetry_Int_Tables_number      14
_space_group_name_Hall           '-P 2ybc'
loop_
_symmetry_equiv_pos_site_id
_symmetry_equiv_pos_as_xyz
1 x,y,z
2 -x,1/2+y,1/2-z
3 -x,-y,-z
4 x,1/2-y,1/2+z
_cell_length_a                   16.316(12)
_cell_length_b                   14.472(10)
_cell_length_c                   12.961(10)
_cell_angle_alpha                90
_cell_angle_beta                 106.751(12)
_cell_angle_gamma                90
_cell_volume                     2930.55
_exptl_crystal_colour            violet
_exptl_crystal_description       prism
_cell_formula_units_Z            2
_exptl_crystal_recrystallization_method chloroform/n-heptane
loop_
_atom_site_label
_atom_site_type_symbol
_atom_site_fract_x
_atom_site_fract_y
_atom_site_fract_z
C1 C 0.2477(2) 0.8111(2) 0.2242(3)
C2 C 0.2463(2) 0.7671(2) 0.1243(3)
H1 H 0.2008 0.7302 0.0820
C3 C 0.3182(2) 0.7856(2) 0.1000(3)
H2 H 0.3321 0.7646 0.0377
C4 C 0.3716(2) 0.8426(2) 0.1832(3)
C5 C 0.4505(2) 0.8741(2) 0.1859(3)
C6 C 0.5039(2) 0.9319(2) 0.2700(3)
C7 C 0.4871(2) 0.9894(2) 0.3473(3)
H3 H 0.4324 1.0008 0.3569
C8 C 0.56403(19) 1.0274(2) 0.4081(3)
H4 H 0.5711 1.0696 0.4662
C9 C 0.6286(2) 0.9932(2) 0.3694(3)
C10 C 0.7190(2) 1.0050(2) 0.3983(3)
C11 C 0.7693(2) 1.0523(2) 0.4855(3)
C12 C 0.8607(2) 1.0654(2) 0.5051(3)
H5 H 0.8950 1.0417 0.4631
C13 C 0.8871(2) 1.1173(2) 0.5936(3)
H6 H 0.9438 1.1381 0.6268
C14 C 0.8121(2) 1.1358(2) 0.6291(3)
C15 C 0.1843(2) 0.8138(2) 0.2742(3)
C16 C 0.4834(2) 0.8458(3) 0.0939(3)
C17 C 0.4563(3) 0.8870(3) -0.0058(4)
C18 C 0.4793(4) 0.8592(4) -0.0936(4)
H7 H 0.4575 0.8895 -0.1610
C19 C 0.5346(4) 0.7862(5) -0.0826(5)
H8 H 0.5509 0.7655 -0.1433
C20 C 0.5669(4) 0.7422(4) 0.0151(4)
H9 H 0.6058 0.6920 0.0234
C21 C 0.5403(3) 0.7743(3) 0.1001(4)
C22 C 0.7621(2) 0.9609(2) 0.3243(3)
C23 C 0.7692(2) 1.0047(3) 0.2329(4)
C24 C 0.8072(3) 0.9672(4) 0.1599(5)
H10 H 0.8093 1.0000 0.0971
C25 C 0.8420(3) 0.8798(5) 0.1825(6)
H11 H 0.8696 0.8520 0.1351
C26 C 0.8374(3) 0.8333(4) 0.2716(6)
H12 H 0.8616 0.7733 0.2861
C27 C 0.7975(2) 0.8732(3) 0.3409(4)
C28 C 0.1062(2) 0.7589(2) 0.2245(3)
C29 C 0.0831(2) 0.6846(2) 0.2754(3)
C30 C 0.0142(2) 0.6282(3) 0.2326(3)
H13 H 0.0018 0.5772 0.2717
C31 C -0.0364(2) 0.6491(3) 0.1301(4)
H14 H -0.0846 0.6114 0.0977
C32 C -0.0184(2) 0.7228(3) 0.0739(3)
H15 H -0.0532 0.7363 0.0031
C33 C 0.0510(2) 0.7765(3) 0.1225(3)
F1 F 0.4013(2) 0.9581(2) -0.0173(2)
F2 F 0.5712(2) 0.7315(2) 0.1969(2)
F3 F 0.73535(16) 1.09088(15) 0.2131(2)
F4 F 0.79048(15) 0.82675(16) 0.4282(2)
F5 F 0.13237(13) 0.66559(14) 0.37725(18)
F6 F 0.06750(13) 0.85081(16) 0.06854(19)
N1 N 0.32557(16) 0.85682(18) 0.2575(2)
H17 H 0.3434 0.8899 0.3167
N2 N 0.58924(16) 0.93617(18) 0.2843(2)
H18 H 0.6162 0.9064 0.2445
N3 N 0.74177(16) 1.09643(18) 0.5647(2)
C1B C 0.7523(2) 1.1889(2) 0.7758(3)
C2B C 0.7537(2) 1.2329(2) 0.8757(3)
H1B H 0.7992 1.2698 0.9180
C3B C 0.6818(2) 1.2144(2) 0.9000(3)
H2B H 0.6679 1.2354 0.9623
C4B C 0.6284(2) 1.1574(2) 0.8168(3)
C5B C 0.5495(2) 1.1259(2) 0.8141(3)
C6B C 0.4961(2) 1.0681(2) 0.7300(3)
C7B C 0.5129(2) 1.0106(2) 0.6527(3)
H3B H 0.5676 0.9992 0.6431
C8B C 0.43597(19) 0.9726(2) 0.5919(3)
H4B H 0.4289 0.9304 0.5338
C9B C 0.3714(2) 1.0068(2) 0.6306(3)
C10B C 0.2810(2) 0.9950(2) 0.6017(3)
C11B C 0.2307(2) 0.9477(2) 0.5145(3)
C12B C 0.1393(2) 0.9346(2) 0.4949(3)
H5B H 0.1050 0.9583 0.5369
C13B C 0.1129(2) 0.8827(2) 0.4064(3)
H6B H 0.0562 0.8619 0.3732
C14B C 0.1879(2) 0.8642(2) 0.3709(3)
C15B C 0.8157(2) 1.1862(2) 0.7258(3)
C16B C 0.5166(2) 1.1542(3) 0.9061(3)
C17B C 0.5437(3) 1.1130(3) 1.0058(4)
C18B C 0.5207(4) 1.1408(4) 1.0936(4)
H7B H 0.5425 1.1105 1.1610
C19B C 0.4654(4) 1.2138(5) 1.0826(5)
H8B H 0.4491 1.2345 1.1433
C20B C 0.4331(4) 1.2578(4) 0.9849(4)
H9B H 0.3942 1.3080 0.9766
C21B C 0.4597(3) 1.2257(3) 0.8999(4)
C22B C 0.2379(2) 1.0391(2) 0.6757(3)
C23B C 0.2308(2) 0.9953(3) 0.7671(4)
C24B C 0.1928(3) 1.0328(4) 0.8401(5)
H10B H 0.1907 1.0000 0.9029
C25B C 0.1580(3) 1.1202(5) 0.8175(6)
H11B H 0.1304 1.1480 0.8649
C26B C 0.1626(3) 1.1667(4) 0.7284(6)
H12B H 0.1384 1.2267 0.7139
C27B C 0.2025(2) 1.1268(3) 0.6591(4)
C28B C 0.8938(2) 1.2411(2) 0.7755(3)
C29B C 0.9169(2) 1.3154(2) 0.7246(3)
C30B C 0.9858(2) 1.3718(3) 0.7674(3)
H13B H 0.9982 1.4228 0.7283
C31B C 1.0364(2) 1.3509(3) 0.8699(4)
H14B H 1.0846 1.3886 0.9023
C32B C 1.0184(2) 1.2772(3) 0.9261(3)
H15B H 1.0532 1.2637 0.9969
C33B C 0.9490(2) 1.2235(3) 0.8775(3)
F1B F 0.5987(2) 1.0419(2) 1.0173(2)
F2B F 0.4288(2) 1.2685(2) 0.8031(2)
F3B F 0.26465(16) 0.90912(15) 0.7869(2)
F4B F 0.20952(15) 1.17325(16) 0.5718(2)
F5B F 0.86763(13) 1.33441(14) 0.62275(18)
F6B F 0.93250(13) 1.14919(16) 0.93146(19)
N1B N 0.67443(16) 1.14318(18) 0.7425(2)
H17B H 0.6566 1.1101 0.6833
N2B N 0.41076(16) 1.06383(18) 0.7157(2)
H18B H 0.3838 1.0936 0.7555
N3B N 0.25823(16) 0.90357(18) 0.4353(2)
C34 C 0.7826(4) 0.5516(3) 0.3252(6)
H16 H 0.7775 0.4832 0.3153
Cl1 Cl 0.70316(9) 0.58842(9) 0.38119(12)
Cl2 Cl 0.76798(13) 0.60198(15) 0.19911(15)
Cl3 Cl 0.88502(10) 0.57622(9) 0.41254(15)
loop_
_geom_bond_atom_site_label_1
_geom_bond_atom_site_label_2
_geom_bond_site_symmetry_1
_geom_bond_site_symmetry_2
C1 C2 1_555 1_555
C2 H1 1_555 1_555
C3 C2 1_555 1_555
H2 C3 1_555 1_555
C4 C3 1_555 1_555
C5 C4 1_555 1_555
C6 C5 1_555 1_555
C7 C6 1_555 1_555
H3 C7 1_555 1_555
C8 C7 1_555 1_555
H4 C8 1_555 1_555
C9 C8 1_555 1_555
C10 C9 1_555 1_555
C11 C10 1_555 1_555
C12 C11 1_555 1_555
H5 C12 1_555 1_555
C13 C12 1_555 1_555
H6 C13 1_555 1_555
C14 C13 1_555 1_555
C15 C1 1_555 1_555
C16 C5 1_555 1_555
C17 C16 1_555 1_555
C18 C17 1_555 1_555
H7 C18 1_555 1_555
C19 C18 1_555 1_555
H8 C19 1_555 1_555
C20 C19 1_555 1_555
H9 C20 1_555 1_555
C21 C16 1_555 1_555
C22 C10 1_555 1_555
C23 C22 1_555 1_555
C24 C23 1_555 1_555
H10 C24 1_555 1_555
C25 C24 1_555 1_555
H11 C25 1_555 1_555
C26 C25 1_555 1_555
H12 C26 1_555 1_555
C27 C22 1_555 1_555
C28 C15 1_555 1_555
C29 C28 1_555 1_555
C30 C29 1_555 1_555
H13 C30 1_555 1_555
C31 C30 1_555 1_555
H14 C31 1_555 1_555
C32 C31 1_555 1_555
H15 C32 1_555 1_555
C33 C28 1_555 1_555
C34 H16 1_555 1_555
Cl1 C34 1_555 1_555
Cl2 C34 1_555 1_555
Cl3 C34 1_555 1_555
F1 C17 1_555 1_555
F2 C21 1_555 1_555
F3 C23 1_555 1_555
F4 C27 1_555 1_555
F5 C29 1_555 1_555
F6 C33 1_555 1_555
N1 C1 1_555 1_555
H17 N1 1_555 1_555
N2 C6 1_555 1_555
H18 N2 1_555 1_555
N3 C11 1_555 1_555
C1B C2B 1_555 1_555
C2B H1B 1_555 1_555
C3B C2B 1_555 1_555
H2B C3B 1_555 1_555
C4B C3B 1_555 1_555
C5B C4B 1_555 1_555
C6B C5B 1_555 1_555
C7B C6B 1_555 1_555
H3B C7B 1_555 1_555
C8B C7B 1_555 1_555
H4B C8B 1_555 1_555
C9B C8B 1_555 1_555
C10B C9B 1_555 1_555
C11B C10B 1_555 1_555
C12B C11B 1_555 1_555
H5B C12B 1_555 1_555
C13B C12B 1_555 1_555
H6B C13B 1_555 1_555
C14B C15 1_555 1_555
C15B C14 1_555 1_555
C16B C5B 1_555 1_555
C17B C16B 1_555 1_555
C18B C17B 1_555 1_555
H7B C18B 1_555 1_555
C19B C18B 1_555 1_555
H8B C19B 1_555 1_555
C20B C19B 1_555 1_555
H9B C20B 1_555 1_555
C21B C16B 1_555 1_555
C22B C10B 1_555 1_555
C23B C22B 1_555 1_555
C24B C23B 1_555 1_555
H10B C24B 1_555 1_555
C25B C24B 1_555 1_555
H11B C25B 1_555 1_555
C26B C25B 1_555 1_555
H12B C26B 1_555 1_555
C27B C22B 1_555 1_555
C28B C15B 1_555 1_555
C29B C28B 1_555 1_555
C30B C29B 1_555 1_555
H13B C30B 1_555 1_555
C31B C30B 1_555 1_555
H14B C31B 1_555 1_555
C32B C31B 1_555 1_555
H15B C32B 1_555 1_555
C33B C28B 1_555 1_555
F1B C17B 1_555 1_555
F2B C21B 1_555 1_555
F3B C23B 1_555 1_555
F4B C27B 1_555 1_555
F5B C29B 1_555 1_555
F6B C33B 1_555 1_555
N1B C1B 1_555 1_555
H17B N1B 1_555 1_555
N2B C6B 1_555 1_555
H18B N2B 1_555 1_555
N3B C11B 1_555 1_555
C4 N1 1_555 1_555
C9 N2 1_555 1_555
C14 N3 1_555 1_555
C20 C21 1_555 1_555
C26 C27 1_555 1_555
C32 C33 1_555 1_555
C1B C15B 1_555 1_555
C4B N1B 1_555 1_555
C9B N2B 1_555 1_555
C13B C14B 1_555 1_555
C14B N3B 1_555 1_555
C20B C21B 1_555 1_555
C26B C27B 1_555 1_555
C32B C33B 1_555 1_555

#END
