
#######################################################################
#
#                 Cambridge Crystallographic Data Centre
#                                CCDC 
#
#######################################################################
#
# If this CIF has been generated from an entry in the Cambridge 
# Structural Database, then it will include bibliographic, chemical, 
# crystal, experimental, refinement or atomic coordinate data resulting 
# from the CCDC's data processing and validation procedures.
#
#######################################################################

data_EGIKAH
_chemical_formula_moiety         'C66 H25 Cl6 F15 N6,2.5(C4 H8 O1)'
_chemical_name_systematic        
'meso-5,15,25-tris(2,6-Dichlorophenyl)-10,20,30-tris(pentafluorophenyl)-(28)hexaphyrin(1.1.1.1.1.1) tetrahydrofuran solvate'
_symmetry_cell_setting           triclinic
_symmetry_space_group_name_H-M   'P -1'
_symmetry_Int_Tables_number      2
_space_group_name_Hall           '-P 1'
loop_
_symmetry_equiv_pos_site_id
_symmetry_equiv_pos_as_xyz
1 x,y,z
2 -x,-y,-z
_cell_length_a                   13.431(6)
_cell_length_b                   14.864(7)
_cell_length_c                   18.625(9)
_cell_angle_alpha                93.198(8)
_cell_angle_beta                 99.842(9)
_cell_angle_gamma                99.058(8)
_cell_volume                     3604.77
_exptl_crystal_colour            violet
_exptl_crystal_description       prism
_cell_formula_units_Z            2
_exptl_crystal_recrystallization_method n-heptane/THF
loop_
_atom_site_label
_atom_site_type_symbol
_atom_site_fract_x
_atom_site_fract_y
_atom_site_fract_z
C1 C 0.1020(4) 0.0955(4) 0.1524(3)
C2 C 0.1228(4) 0.0275(4) 0.1039(3)
H1 H 0.0826 -0.0314 0.0904
C3 C 0.2099(4) 0.0606(4) 0.0799(3)
H2 H 0.2417 0.0286 0.0471
C4 C 0.2457(4) 0.1516(4) 0.1121(3)
C5 C 0.3325(4) 0.2125(4) 0.1070(3)
C6 C 0.3564(4) 0.3017(4) 0.1425(3)
C7 C 0.2973(5) 0.3619(4) 0.1671(4)
H3 H 0.2249 0.3502 0.1630
C8 C 0.3607(5) 0.4403(4) 0.1980(4)
H4 H 0.3398 0.4923 0.2190
C9 C 0.4620(4) 0.4312(4) 0.1938(3)
C10 C 0.5571(4) 0.4864(4) 0.2230(3)
C11 C 0.5721(4) 0.5760(4) 0.2498(3)
C12 C 0.6692(5) 0.6314(4) 0.2829(4)
H5 H 0.7334 0.6111 0.2922
C13 C 0.6526(5) 0.7158(4) 0.2980(4)
H6 H 0.7030 0.7664 0.3201
C14 C 0.5447(4) 0.7171(4) 0.2748(3)
C15 C 0.4961(4) 0.7915(4) 0.2726(3)
C16 C 0.3912(4) 0.7863(4) 0.2428(3)
C17 C 0.3393(5) 0.8615(4) 0.2254(3)
H7 H 0.3661 0.9246 0.2372
C18 C 0.2454(5) 0.8249(4) 0.1891(3)
H8 H 0.1943 0.8578 0.1677
C19 C 0.2358(4) 0.7268(4) 0.1882(3)
C20 C 0.1507(4) 0.6639(4) 0.1582(3)
C21 C 0.1316(4) 0.5709(4) 0.1744(3)
C22 C 0.0711(4) 0.4967(4) 0.1296(3)
H9 H 0.0427 0.4977 0.0793
C23 C 0.0592(4) 0.4239(4) 0.1687(3)
H10 H 0.0235 0.3644 0.1507
C24 C 0.1088(4) 0.4511(4) 0.2409(3)
C25 C 0.0996(4) 0.4025(4) 0.3034(3)
C26 C 0.0655(4) 0.3088(4) 0.2962(3)
C27 C 0.0061(5) 0.2560(4) 0.3410(3)
H11 H -0.0097 0.2765 0.3863
C28 C -0.0231(4) 0.1712(4) 0.3064(3)
H12 H -0.0672 0.1219 0.3209
C29 C 0.0256(4) 0.1701(4) 0.2433(3)
C30 C 0.0277(4) 0.0935(4) 0.1957(3)
C31 C 0.4085(4) 0.1851(4) 0.0646(3)
C32 C 0.4256(5) 0.2267(4) 0.0029(3)
C33 C 0.4994(5) 0.2067(5) -0.0361(3)
C34 C 0.5538(5) 0.1416(5) -0.0141(3)
C35 C 0.5400(5) 0.0997(5) 0.0468(3)
C36 C 0.4668(4) 0.1203(4) 0.0847(3)
Cl1 Cl 0.67702(16) 0.52781(18) 0.09907(13)
Cl2 Cl 0.6024(4) 0.3565(3) 0.3359(3)
C37 C 0.6491(9) 0.4411(9) 0.2187(4)
C38 C 0.7081(6) 0.4536(6) 0.1649(4)
C39 C 0.7885(6) 0.4098(6) 0.1606(4)
H13 H 0.8286 0.4221 0.1238
C40 C 0.8108(6) 0.3481(6) 0.2096(5)
H14 H 0.8676 0.3178 0.2074
C41 C 0.7517(14) 0.3290(12) 0.2627(9)
H15 H 0.7647 0.2836 0.2954
C42 C 0.6740(16) 0.3773(18) 0.2669(12)
C49 C 0.5572(4) 0.8826(4) 0.2992(3)
C50 C 0.5877(5) 0.9461(4) 0.2521(3)
C51 C 0.6455(5) 1.0292(4) 0.2756(4)
C52 C 0.6744(5) 1.0538(4) 0.3478(4)
C53 C 0.6429(7) 0.9947(5) 0.3961(4)
C54 C 0.5869(6) 0.9109(4) 0.3718(4)
Cl5 Cl 0.19104(14) 0.71520(17) 0.00720(10)
Cl6 Cl -0.0530(3) 0.6551(3) 0.2084(3)
C55 C 0.0653(4) 0.6924(5) 0.1064(3)
C56 C 0.0804(3) 0.7200(6) 0.0384(4)
C57 C 0.0001(4) 0.7451(5) -0.0094(3)
H19 H 0.0104 0.7639 -0.0559
C58 C -0.0952(3) 0.7428(4) 0.0107(3)
H20 H -0.1500 0.7600 -0.0220
C59 C -0.1102(4) 0.7153(4) 0.0788(3)
H21 H -0.1753 0.7137 0.0926
C60 C -0.0299(5) 0.6901(4) 0.1266(2)
C67 C 0.1140(4) 0.4499(4) 0.3765(3)
C68 C 0.0641(5) 0.5200(4) 0.3925(3)
C69 C 0.0794(6) 0.5648(5) 0.4615(4)
C70 C 0.1435(7) 0.5345(6) 0.5173(4)
C71 C 0.1925(6) 0.4667(7) 0.5045(4)
C72 C 0.1785(5) 0.4248(5) 0.4342(3)
C73 C -0.0510(4) 0.0117(4) 0.1930(3)
C74 C -0.1445(5) 0.0026(4) 0.1446(4)
C75 C -0.2219(5) -0.0719(5) 0.1416(4)
H25 H -0.2845 -0.0759 0.1080
C76 C -0.2085(6) -0.1386(5) 0.1864(5)
H26 H -0.2607 -0.1905 0.1836
C77 C -0.1187(7) -0.1312(5) 0.2363(5)
H27 H -0.1105 -0.1766 0.2698
C78 C -0.0414(5) -0.0590(5) 0.2381(4)
Cl9 Cl -0.16452(11) 0.08891(11) 0.08849(8)
Cl10 Cl 0.07199(16) -0.05182(14) 0.29892(12)
F1 F 0.3721(3) 0.2907(3) -0.02050(19)
F2 F 0.5144(4) 0.2504(3) -0.0949(2)
F3 F 0.6225(3) 0.1184(3) -0.0523(2)
F4 F 0.5941(3) 0.0340(3) 0.0679(2)
F5 F 0.4540(3) 0.0764(3) 0.14372(19)
F6 F 0.5613(3) 0.9238(2) 0.18037(19)
F7 F 0.6747(3) 1.0883(3) 0.2280(2)
F8 F 0.7307(3) 1.1359(3) 0.3727(2)
F9 F 0.6700(4) 1.0183(3) 0.4683(2)
F10 F 0.5592(4) 0.8544(3) 0.4214(2)
F11 F -0.0020(3) 0.5487(2) 0.3401(2)
F12 F 0.0293(4) 0.6333(3) 0.4737(2)
F13 F 0.1540(4) 0.5771(4) 0.5839(2)
F14 F 0.2538(4) 0.4391(4) 0.5587(2)
F15 F 0.2306(3) 0.3585(3) 0.4245(2)
N1 N 0.1767(3) 0.1692(3) 0.1548(2)
H28 H 0.1803 0.2215 0.1805
N2 N 0.4551(3) 0.3475(3) 0.1586(2)
H29 H 0.5080 0.3253 0.1474
N3 N 0.5004(4) 0.6319(3) 0.2482(3)
H30 H 0.4343 0.6144 0.2319
N4 N 0.3274(3) 0.7057(3) 0.2210(2)
N5 N 0.1563(3) 0.5402(3) 0.2417(2)
H31 H 0.1964 0.5725 0.2798
N6 N 0.0773(3) 0.2535(3) 0.2383(2)
C79 C 0.1733(7) 0.7512(5) 0.3637(4)
H32 H 0.0999 0.7353 0.3670
H33 H 0.1781 0.7788 0.3170
C80 C 0.2260(9) 0.8156(7) 0.4244(6)
H34 H 0.1819 0.8215 0.4612
H35 H 0.2465 0.8766 0.4074
C81 C 0.3170(8) 0.7764(7) 0.4550(6)
H36 H 0.3805 0.8190 0.4523
H37 H 0.3166 0.7654 0.5069
C82 C 0.3129(8) 0.6912(7) 0.4124(5)
H38 H 0.3689 0.6968 0.3838
H39 H 0.3211 0.6416 0.4451
O1 O 0.2187(4) 0.6717(3) 0.3659(2)
O3 O 0.4239(13) 0.0713(12) 0.3259(11)
C87 C 0.3652(11) 0.1278(9) 0.2850(7)
H48 H 0.2992 0.0916 0.2594
H49 H 0.4026 0.1555 0.2480
C88 C 0.3472(13) 0.1993(11) 0.3365(7)
H50 H 0.2855 0.2255 0.3177
H51 H 0.4073 0.2488 0.3505
C89 C 0.3301(14) 0.1339(12) 0.4044(9)
H52 H 0.3413 0.1699 0.4523
H53 H 0.2619 0.0943 0.3953
C90 C 0.4103(12) 0.0841(11) 0.3979(7)
H54 H 0.4749 0.1173 0.4281
H55 H 0.3946 0.0237 0.4171
Cl3? Cl 0.7092(7) 0.5816(7) 0.1496(6)
Cl4? Cl 0.5878(18) 0.3247(12) 0.3238(12)
C43? C 0.650(5) 0.448(5) 0.239(3)
C44? C 0.718(3) 0.487(3) 0.198(2)
C45? C 0.812(2) 0.451(3) 0.195(2)
H16? H 0.8619 0.4770 0.1685
C46? C 0.824(3) 0.374(3) 0.235(2)
H17? H 0.8818 0.3450 0.2323
C47? C 0.761(6) 0.342(6) 0.273(4)
H18? H 0.7773 0.2955 0.3032
C48? C 0.664(8) 0.372(9) 0.273(6)
Cl7? Cl 0.1880(13) 0.7766(15) 0.0346(10)
Cl8? Cl -0.052(2) 0.634(2) 0.2092(19)
C61? C 0.054(4) 0.678(5) 0.105(4)
C62? C 0.063(3) 0.727(6) 0.044(4)
C63? C -0.022(4) 0.755(5) 0.004(3)
H22? H -0.0158 0.7881 -0.0370
C64? C -0.117(3) 0.734(4) 0.025(3)
H23? H -0.1757 0.7527 -0.0019
C65? C -0.127(3) 0.685(4) 0.086(3)
H24? H -0.1917 0.6704 0.1001
C66? C -0.041(5) 0.657(4) 0.126(3)
C83? C 0.4295(13) 0.5029(13) 0.3948(11)
H40? H 0.4107 0.4561 0.4282
H41? H 0.4444 0.4717 0.3504
C84? C 0.5089(15) 0.5610(15) 0.4268(12)
H42? H 0.5493 0.5855 0.3903
H43? H 0.5533 0.5311 0.4626
C85? C 0.4699(13) 0.6384(13) 0.4656(11)
H44? H 0.4562 0.6241 0.5147
H45? H 0.5166 0.6978 0.4691
C86? C 0.3723(14) 0.6344(14) 0.4099(11)
H46? H 0.3161 0.6478 0.4348
H47? H 0.3830 0.6807 0.3745
O2? O 0.3478(8) 0.5529(8) 0.3756(7)
O4? O 0.413(3) 0.065(2) 0.331(2)
C91? C 0.452(2) 0.1596(17) 0.3360(14)
H56? H 0.4326 0.1875 0.2897
H57? H 0.5274 0.1734 0.3525
C92? C 0.390(2) 0.188(2) 0.3982(15)
H58? H 0.3988 0.1515 0.4413
H59? H 0.4038 0.2540 0.4135
C93? C 0.290(2) 0.156(2) 0.3455(16)
H60? H 0.2300 0.1546 0.3701
H61? H 0.2824 0.1949 0.3038
C94? C 0.307(2) 0.0624(19) 0.3225(16)
H62? H 0.2770 0.0171 0.3533
H63? H 0.2744 0.0447 0.2708
O5? O 0.0096(14) 0.0484(11) 0.4949(10)
C95? C 0.1196(17) 0.0714(16) 0.5309(14)
H64? H 0.1263 0.0570 0.5826
H65? H 0.1600 0.0333 0.5062
C96? C 0.1600(19) 0.1659(15) 0.5282(14)
H66? H 0.2322 0.1787 0.5540
H67? H 0.1591 0.1789 0.4765
C97? C 0.1084(16) 0.2189(14) 0.5576(12)
H68? H 0.1032 0.2766 0.5342
H69? H 0.1266 0.2293 0.6115
C98? C 0.015(2) 0.1357(17) 0.5273(17)
H70? H -0.0197 0.1255 0.5697
H71? H -0.0324 0.1636 0.4920
loop_
_geom_bond_atom_site_label_1
_geom_bond_atom_site_label_2
_geom_bond_site_symmetry_1
_geom_bond_site_symmetry_2
C1 C2 1_555 1_555
C2 H1 1_555 1_555
C3 C2 1_555 1_555
H2 C3 1_555 1_555
C4 C3 1_555 1_555
C5 C4 1_555 1_555
C6 C5 1_555 1_555
C7 C6 1_555 1_555
H3 C7 1_555 1_555
C8 C7 1_555 1_555
H4 C8 1_555 1_555
C9 C8 1_555 1_555
C10 C9 1_555 1_555
C11 C10 1_555 1_555
C12 C11 1_555 1_555
H5 C12 1_555 1_555
C13 C12 1_555 1_555
H6 C13 1_555 1_555
C14 C13 1_555 1_555
C15 C14 1_555 1_555
C16 C15 1_555 1_555
C17 C16 1_555 1_555
H7 C17 1_555 1_555
C18 C17 1_555 1_555
H8 C18 1_555 1_555
C19 C18 1_555 1_555
C20 C19 1_555 1_555
C21 C20 1_555 1_555
C22 C21 1_555 1_555
H9 C22 1_555 1_555
C23 C22 1_555 1_555
H10 C23 1_555 1_555
C24 C23 1_555 1_555
C25 C24 1_555 1_555
C26 C25 1_555 1_555
C27 C26 1_555 1_555
H11 C27 1_555 1_555
C28 C27 1_555 1_555
H12 C28 1_555 1_555
C29 C28 1_555 1_555
C30 C1 1_555 1_555
C31 C5 1_555 1_555
C32 C31 1_555 1_555
C33 C32 1_555 1_555
C34 C33 1_555 1_555
C35 C34 1_555 1_555
C36 C31 1_555 1_555
Cl1 C38 1_555 1_555
Cl2 C42 1_555 1_555
C37 C10 1_555 1_555
C38 C37 1_555 1_555
C39 C38 1_555 1_555
H13 C39 1_555 1_555
C40 C39 1_555 1_555
H14 C40 1_555 1_555
C41 C40 1_555 1_555
H15 C41 1_555 1_555
C42 C37 1_555 1_555
C49 C15 1_555 1_555
C50 C49 1_555 1_555
C51 C50 1_555 1_555
C52 C51 1_555 1_555
C53 C52 1_555 1_555
C54 C49 1_555 1_555
Cl5 C56 1_555 1_555
Cl6 C60 1_555 1_555
C55 C20 1_555 1_555
C56 C55 1_555 1_555
C57 C56 1_555 1_555
H19 C57 1_555 1_555
C58 C57 1_555 1_555
H20 C58 1_555 1_555
C59 C58 1_555 1_555
H21 C59 1_555 1_555
C60 C55 1_555 1_555
C67 C25 1_555 1_555
C68 C67 1_555 1_555
C69 C68 1_555 1_555
C70 C69 1_555 1_555
C71 C70 1_555 1_555
C72 C67 1_555 1_555
C73 C30 1_555 1_555
C74 C73 1_555 1_555
C75 C74 1_555 1_555
H25 C75 1_555 1_555
C76 C75 1_555 1_555
H26 C76 1_555 1_555
C77 C76 1_555 1_555
H27 C77 1_555 1_555
C78 C73 1_555 1_555
Cl9 C74 1_555 1_555
Cl10 C78 1_555 1_555
F1 C32 1_555 1_555
F2 C33 1_555 1_555
F3 C34 1_555 1_555
F4 C35 1_555 1_555
F5 C36 1_555 1_555
F6 C50 1_555 1_555
F7 C51 1_555 1_555
F8 C52 1_555 1_555
F9 C53 1_555 1_555
F10 C54 1_555 1_555
F11 C68 1_555 1_555
F12 C69 1_555 1_555
F13 C70 1_555 1_555
F14 C71 1_555 1_555
F15 C72 1_555 1_555
N1 C1 1_555 1_555
H28 N1 1_555 1_555
N2 C6 1_555 1_555
H29 N2 1_555 1_555
N3 C11 1_555 1_555
H30 N3 1_555 1_555
N4 C16 1_555 1_555
N5 C21 1_555 1_555
H31 N5 1_555 1_555
N6 C26 1_555 1_555
C79 H32 1_555 1_555
H33 C79 1_555 1_555
C80 C79 1_555 1_555
H34 C80 1_555 1_555
H35 C80 1_555 1_555
C81 C80 1_555 1_555
H36 C81 1_555 1_555
H37 C81 1_555 1_555
C82 C81 1_555 1_555
H38 C82 1_555 1_555
H39 C82 1_555 1_555
O1 C79 1_555 1_555
O3 C87 1_555 1_555
C87 H48 1_555 1_555
H49 C87 1_555 1_555
C88 C87 1_555 1_555
H50 C88 1_555 1_555
H51 C88 1_555 1_555
C89 C88 1_555 1_555
H52 C89 1_555 1_555
H53 C89 1_555 1_555
C90 O3 1_555 1_555
H54 C90 1_555 1_555
H55 C90 1_555 1_555
C4 N1 1_555 1_555
C9 N2 1_555 1_555
C14 N3 1_555 1_555
C19 N4 1_555 1_555
C24 N5 1_555 1_555
C29 C30 1_555 1_555
C29 N6 1_555 1_555
C35 C36 1_555 1_555
C41 C42 1_555 1_555
C53 C54 1_555 1_555
C59 C60 1_555 1_555
C71 C72 1_555 1_555
C77 C78 1_555 1_555
C82 O1 1_555 1_555
C89 C90 1_555 1_555

#END
