
#######################################################################
#
#                 Cambridge Crystallographic Data Centre
#                                CCDC 
#
#######################################################################
#
# If this CIF has been generated from an entry in the Cambridge 
# Structural Database, then it will include bibliographic, chemical, 
# crystal, experimental, refinement or atomic coordinate data resulting 
# from the CCDC's data processing and validation procedures.
#
#######################################################################

data_EGIROB
_chemical_formula_moiety         
'C30 H54 N8 O3 6+,C2 O4 2-,4(Cl1 O4 1-),8.25(H2 O1)'
_chemical_name_systematic        
'1,4,11,14,17,24,29,36-Octaaza-39,40,41-trioxapentacyclo(12.12.12.1^6.9^.1^19.22^.1^31.34^)untetraconta-6,8,19,21,31,33-hexaene oxalate clathrate tetraperchlorate hydrate'
_symmetry_cell_setting           triclinic
_symmetry_space_group_name_H-M   'P -1'
_symmetry_Int_Tables_number      2
_space_group_name_Hall           '-P 1'
loop_
_symmetry_equiv_pos_site_id
_symmetry_equiv_pos_as_xyz
1 x,y,z
2 -x,-y,-z
_cell_length_a                   10.4712(12)
_cell_length_b                   19.570(2)
_cell_length_c                   26.936(3)
_cell_angle_alpha                71.810(2)
_cell_angle_beta                 89.512(2)
_cell_angle_gamma                81.701(2)
_cell_volume                     5185.09
_exptl_crystal_colour            colorless
_exptl_crystal_description       plate
_cell_formula_units_Z            4
loop_
_atom_site_label
_atom_site_type_symbol
_atom_site_fract_x
_atom_site_fract_y
_atom_site_fract_z
N1 N 0.7042(6) 0.7282(3) 0.6281(2)
C1 C 0.7108(7) 0.6495(4) 0.6532(3)
H1 H 0.6842 0.6406 0.6898
H2 H 0.8017 0.6264 0.6543
C2 C 0.6278(7) 0.6134(4) 0.6265(3)
H3 H 0.6157 0.5656 0.6512
H4 H 0.5417 0.6435 0.6177
N2 N 0.6832(6) 0.6022(3) 0.5773(2)
H5 H 0.7697 0.5840 0.5830
H6 H 0.6745 0.6459 0.5509
C3 C 0.6131(7) 0.5496(4) 0.5615(3)
H7 H 0.6205 0.5037 0.5910
H8 H 0.5204 0.5701 0.5556
C4 C 0.6597(7) 0.5322(3) 0.5141(3)
C5 C 0.7470(7) 0.4771(4) 0.5078(3)
H9 H 0.8013 0.4411 0.5342
C6 C 0.7403(7) 0.4844(4) 0.4535(3)
H10 H 0.7895 0.4540 0.4366
C7 C 0.6514(6) 0.5423(4) 0.4308(3)
O1 O 0.5997(4) 0.5729(2) 0.46742(17)
C8 C 0.5955(8) 0.5749(4) 0.3767(3)
H11 H 0.5106 0.6041 0.3778
H12 H 0.5804 0.5353 0.3630
N3 N 0.6779(5) 0.6225(3) 0.3397(2)
H13 H 0.6980 0.6574 0.3533
H14 H 0.7537 0.5949 0.3356
C9 C 0.6091(7) 0.6585(4) 0.2876(3)
H15 H 0.5223 0.6825 0.2926
H16 H 0.5977 0.6211 0.2710
C10 C 0.6825(7) 0.7141(4) 0.2520(3)
H17 H 0.7736 0.6918 0.2520
H18 H 0.6456 0.7279 0.2159
C11 C 0.5807(7) 0.7686(4) 0.6391(3)
H19 H 0.5907 0.7782 0.6727
H20 H 0.5114 0.7381 0.6426
C12 C 0.5420(7) 0.8403(4) 0.5958(3)
H21 H 0.4615 0.8665 0.6047
H22 H 0.6106 0.8712 0.5925
N4 N 0.5214(5) 0.8272(3) 0.5448(2)
H23 H 0.5245 0.8697 0.5180
H24 H 0.5878 0.7932 0.5409
C13 C 0.3962(6) 0.8014(4) 0.5402(3)
H25 H 0.3251 0.8425 0.5352
H26 H 0.3827 0.7634 0.5732
C14 C 0.3910(6) 0.7711(4) 0.4958(3)
C15 C 0.3636(6) 0.7087(4) 0.4923(3)
H27 H 0.3467 0.6680 0.5205
C16 C 0.3645(6) 0.7142(4) 0.4383(3)
H28 H 0.3492 0.6779 0.4235
C17 C 0.3909(6) 0.7807(4) 0.4125(3)
O2 O 0.4075(4) 0.8192(2) 0.44673(17)
C18 C 0.3963(7) 0.8218(4) 0.3565(3)
H29 H 0.3303 0.8658 0.3478
H30 H 0.3747 0.7913 0.3354
N5 N 0.5256(5) 0.8439(3) 0.3419(2)
H31 H 0.5875 0.8033 0.3520
H32 H 0.5432 0.8746 0.3600
C19 C 0.5345(7) 0.8818(4) 0.2839(3)
H33 H 0.6069 0.9104 0.2782
H34 H 0.4539 0.9160 0.2707
C20 C 0.5554(7) 0.8280(4) 0.2527(3)
H35 H 0.4847 0.7982 0.2591
H36 H 0.5530 0.8553 0.2149
C21 C 0.8123(7) 0.7551(4) 0.6465(3)
H37 H 0.8238 0.7332 0.6849
H38 H 0.7917 0.8085 0.6385
C22 C 0.9363(7) 0.7373(5) 0.6215(3)
H39 H 1.0065 0.7558 0.6355
H40 H 0.9589 0.6838 0.6309
N6 N 0.9269(5) 0.7693(3) 0.5638(2)
H41 H 0.8992 0.8185 0.5550
H42 H 0.8665 0.7491 0.5506
C23 C 1.0538(7) 0.7566(4) 0.5396(3)
H43 H 1.1219 0.7701 0.5584
H44 H 1.0758 0.7041 0.5437
C24 C 1.0521(6) 0.7992(4) 0.4829(3)
C25 C 1.0725(7) 0.8681(4) 0.4566(3)
H45 H 1.0868 0.9046 0.4714
C26 C 1.0681(6) 0.8748(4) 0.4027(3)
H46 H 1.0794 0.9166 0.3744
C27 C 1.0448(6) 0.8104(4) 0.3993(3)
O3 O 1.0341(4) 0.7624(3) 0.44859(17)
C28 C 1.0362(6) 0.7816(4) 0.3550(3)
H47 H 1.0489 0.7278 0.3686
H48 H 1.1066 0.7963 0.3311
N7 N 0.9090(5) 0.8080(3) 0.32487(19)
H49 H 0.8446 0.7882 0.3454
H50 H 0.8908 0.8577 0.3165
C29 C 0.9115(7) 0.7872(4) 0.2757(3)
H51 H 0.9251 0.7336 0.2849
H52 H 0.9848 0.8055 0.2549
C30 C 0.7868(7) 0.8181(4) 0.2431(2)
H53 H 0.7654 0.8705 0.2390
H54 H 0.7990 0.8130 0.2078
N8 N 0.6791(5) 0.7804(3) 0.2674(2)
N9 N 0.7892(6) 0.2680(3) 0.8648(2)
C31 C 0.6857(7) 0.2311(4) 0.8527(3)
H55 H 0.7131 0.1778 0.8659
H56 H 0.6719 0.2453 0.8143
C32 C 0.5598(7) 0.2502(4) 0.8769(2)
H57 H 0.5328 0.3035 0.8639
H58 H 0.4919 0.2270 0.8660
N10 N 0.5721(5) 0.2260(3) 0.9349(2)
H59 H 0.6300 0.2508 0.9450
H60 H 0.6047 0.1773 0.9468
C33 C 0.4452(7) 0.2385(4) 0.9601(3)
H61 H 0.4209 0.2912 0.9545
H62 H 0.3774 0.2225 0.9428
C34 C 0.4502(6) 0.1990(4) 1.0168(3)
C35 C 0.4335(6) 0.1307(4) 1.0454(3)
H63 H 0.4199 0.0925 1.0322
C36 C 0.4402(7) 0.1268(4) 1.0988(3)
H64 H 0.4308 0.0858 1.1281
C37 C 0.4625(6) 0.1926(4) 1.0998(3)
O4 O 0.4693(4) 0.2389(2) 1.04957(17)
C38 C 0.4701(6) 0.2247(4) 1.1425(3)
H65 H 0.3995 0.2112 1.1666
H66 H 0.4574 0.2784 1.1275
N11 N 0.5977(5) 0.1994(3) 1.17270(19)
H67 H 0.6622 0.2176 1.1515
H68 H 0.6150 0.1494 1.1826
C39 C 0.5974(7) 0.2237(4) 1.2207(3)
H69 H 0.5825 0.2775 1.2100
H70 H 0.5259 0.2057 1.2430
C40 C 0.7236(6) 0.1955(4) 1.2518(2)
H71 H 0.7152 0.2053 1.2857
H72 H 0.7427 0.1422 1.2592
C41 C 0.9173(7) 0.2275(4) 0.8602(3)
H73 H 0.9835 0.2598 0.8571
H74 H 0.9165 0.2137 0.8279
C42 C 0.9538(7) 0.1600(4) 0.9062(3)
H75 H 1.0353 0.1325 0.8992
H76 H 0.8857 0.1287 0.9104
N12 N 0.9714(5) 0.1774(3) 0.9563(2)
H77 H 0.9053 0.2129 0.9582
H78 H 0.9658 0.1365 0.9842
C43 C 1.0981(6) 0.2029(4) 0.9608(3)
H79 H 1.1688 0.1620 0.9642
H80 H 1.1101 0.2420 0.9281
C44 C 1.1078(6) 0.2302(4) 1.0054(2)
C45 C 1.1367(6) 0.2933(4) 1.0088(3)
H81 H 1.1502 0.3348 0.9805
C46 C 1.1432(6) 0.2859(4) 1.0637(3)
H82 H 1.1606 0.3217 1.0787
C47 C 1.1198(6) 0.2187(4) 1.0893(3)
O5 O 1.0980(4) 0.1815(2) 1.05461(16)
C48 C 1.1221(6) 0.1765(4) 1.1459(3)
H83 H 1.1433 0.2073 1.1668
H84 H 1.1906 0.1337 1.1534
N13 N 0.9942(5) 0.1514(3) 1.1620(2)
H85 H 0.9290 0.1898 1.1487
H86 H 0.9826 0.1157 1.1476
C49 C 0.9842(7) 0.1222(4) 1.2203(3)
H87 H 1.0660 0.0909 1.2359
H88 H 0.9140 0.0919 1.2286
C50 C 0.9566(6) 0.1841(4) 1.2441(2)
H89 H 0.9557 0.1635 1.2826
H90 H 1.0262 0.2147 1.2354
C51 C 0.7736(8) 0.3435(4) 0.8288(3)
H91 H 0.6811 0.3646 0.8260
H92 H 0.7999 0.3426 0.7936
C52 C 0.8515(8) 0.3921(4) 0.8459(3)
H93 H 0.9426 0.3684 0.8528
H94 H 0.8495 0.4386 0.8173
N14 N 0.8019(6) 0.4074(3) 0.8937(2)
H95 H 0.7941 0.3643 0.9192
H96 H 0.7212 0.4348 0.8862
C53 C 0.8894(7) 0.4471(4) 0.9134(3)
H97 H 0.9736 0.4155 0.9241
H98 H 0.9045 0.4907 0.8845
C54 C 0.8404(7) 0.4701(4) 0.9575(3)
C55 C 0.7529(7) 0.5270(4) 0.9611(3)
H99 H 0.7038 0.5634 0.9332
C56 C 0.7504(7) 0.5210(4) 1.0146(3)
H100 H 0.6971 0.5526 1.0294
C57 C 0.8359(7) 0.4631(4) 1.0413(3)
O6 O 0.8934(5) 0.4302(3) 1.0068(2)
C58 C 0.8882(7) 0.4352(4) 1.0953(3)
H101 H 0.8879 0.4772 1.1084
H102 H 0.9796 0.4137 1.0947
N15 N 0.8223(5) 0.3796(3) 1.1345(2)
H103 H 0.7394 0.3998 1.1384
H104 H 0.8177 0.3408 1.1225
C59 C 0.8949(7) 0.3535(4) 1.1862(3)
H105 H 0.9816 0.3285 1.1821
H106 H 0.9069 0.3961 1.1970
C60 C 0.8295(7) 0.3026(4) 1.2287(3)
H107 H 0.8714 0.2977 1.2627
H108 H 0.7384 0.3247 1.2291
N16 N 0.8317(5) 0.2292(3) 1.2242(2)
C61 C 0.7337(6) 0.7609(4) 0.4608(3)
O7 O 0.7147(4) 0.7371(2) 0.50981(16)
O8 O 0.7283(5) 0.8253(2) 0.43416(17)
C62 C 0.7724(6) 0.7026(4) 0.4338(3)
O9 O 0.8398(5) 0.6449(3) 0.45871(18)
O10 O 0.7334(5) 0.7218(2) 0.38582(16)
C63 C 0.7681(7) 0.2390(4) 1.0634(3)
O11 O 0.7739(5) 0.1748(2) 1.06483(18)
O12 O 0.7918(5) 0.2593(3) 1.10412(17)
C64 C 0.7275(7) 0.2992(4) 1.0127(3)
O13 O 0.7722(5) 0.2841(3) 0.97247(19)
O14 O 0.6544(5) 0.3546(3) 1.0139(2)
Cl1 Cl 0.76140(16) 0.36910(10) 0.68282(6)
O15 O 0.8880(5) 0.3676(4) 0.7017(2)
O16 O 0.7225(6) 0.2993(3) 0.7059(3)
O17 O 0.7634(7) 0.3838(3) 0.6273(2)
O18 O 0.6721(5) 0.4232(3) 0.6951(2)
Cl2 Cl 0.25939(16) 0.37916(10) 0.19407(6)
O19 O 0.3250(6) 0.4419(3) 0.1683(3)
O20 O 0.1533(5) 0.4070(4) 0.2193(3)
O21 O 0.2142(6) 0.3527(4) 0.1560(2)
O22 O 0.3493(6) 0.3275(3) 0.2299(2)
Cl3 Cl 0.23522(19) 0.39804(10) 0.84613(7)
O23 O 0.2799(7) 0.4025(3) 0.8963(2)
O24 O 0.1859(6) 0.3329(3) 0.8547(3)
O25 O 0.1382(6) 0.4597(3) 0.8229(2)
O26 O 0.3440(5) 0.3985(3) 0.8146(2)
Cl4 Cl 0.36947(18) 0.07606(9) 0.90691(6)
O27 O 0.2905(7) 0.0446(3) 0.9494(3)
O28 O 0.4928(6) 0.0790(4) 0.9285(3)
O29 O 0.3907(7) 0.0359(4) 0.8711(3)
O30 O 0.3089(5) 0.1491(3) 0.88105(19)
Cl5 Cl 0.36768(19) 0.08170(10) 1.27474(7)
O31 O 0.4656(6) 0.0918(3) 1.3078(2)
O32 O 0.4250(7) 0.0706(4) 1.2288(2)
O33 O 0.2730(6) 0.1453(3) 1.2605(3)
O34 O 0.3128(6) 0.0183(3) 1.3027(2)
Cl6 Cl 0.70699(18) 0.39237(10) 0.33025(7)
O35 O 0.6590(9) 0.3325(5) 0.3233(4)
O36 O 0.6263(8) 0.4571(5) 0.3035(4)
O37 O 0.8338(6) 0.3965(3) 0.3109(3)
O38 O 0.7056(8) 0.3872(5) 0.3833(3)
Cl7 Cl 0.8600(2) 0.07245(10) 0.77729(7)
O39 O 0.9241(7) 0.0629(4) 0.7325(2)
O40 O 0.7587(8) 0.1313(3) 0.7616(3)
O41 O 0.9490(8) 0.0895(3) 0.8106(2)
O42 O 0.8144(6) 0.0058(3) 0.8064(2)
Cl8 Cl 0.88214(18) 0.08083(10) 0.40329(7)
O43 O 0.8023(8) 0.0452(4) 0.4421(4)
O44 O 1.0005(6) 0.0848(4) 0.4278(3)
O45 O 0.9158(7) 0.0462(4) 0.3644(3)
O46 O 0.8179(6) 0.1535(3) 0.3791(2)
O47 O 0.7621(5) 0.8980(3) 0.50584(19)
O48 O 0.2462(5) 0.0166(4) 0.4080(2)
O49 O 0.0297(6) 0.4382(4) 0.5986(2)
O50 O 0.7436(5) 0.0155(3) 0.9099(2)
O51 O 0.5398(6) 0.4448(4) 0.9157(3)
O52 O 0.9195(6) 0.0422(3) 0.1254(3)
O53 O 0.5537(5) 0.3900(3) 0.0996(2)
O54 O 0.1250(6) 0.4482(3) 0.7044(3)
O55 O 0.7089(5) 0.0435(3) 0.1991(2)
O56 O 0.0560(5) 0.4115(3) 0.4377(2)
O57 O 0.5310(5) 0.0376(3) 0.53220(19)
O58 O 0.0297(6) 0.0398(3) 0.0313(2)
O59 O 0.6078(6) 0.4486(3) 0.1832(2)
O60 O 0.4177(5) 0.0398(3) 0.6251(2)
O61 O 0.1989(5) 0.0393(3) 0.6931(2)
O62 O 0.7373(5) 0.1038(3) 0.99428(18)
O63 O 0.865(4) 0.509(2) 0.7115(15)
loop_
_geom_bond_atom_site_label_1
_geom_bond_atom_site_label_2
_geom_bond_site_symmetry_1
_geom_bond_site_symmetry_2
N1 C1 1_555 1_555
C1 H1 1_555 1_555
H2 C1 1_555 1_555
C2 C1 1_555 1_555
H3 C2 1_555 1_555
H4 C2 1_555 1_555
N2 C2 1_555 1_555
H5 N2 1_555 1_555
H6 N2 1_555 1_555
C3 N2 1_555 1_555
H7 C3 1_555 1_555
H8 C3 1_555 1_555
C4 C3 1_555 1_555
C5 C4 1_555 1_555
H9 C5 1_555 1_555
C6 C5 1_555 1_555
H10 C6 1_555 1_555
C7 C6 1_555 1_555
O1 C4 1_555 1_555
C8 C7 1_555 1_555
H11 C8 1_555 1_555
H12 C8 1_555 1_555
N3 C8 1_555 1_555
H13 N3 1_555 1_555
H14 N3 1_555 1_555
C9 N3 1_555 1_555
H15 C9 1_555 1_555
H16 C9 1_555 1_555
C10 C9 1_555 1_555
H17 C10 1_555 1_555
H18 C10 1_555 1_555
C11 N1 1_555 1_555
H19 C11 1_555 1_555
H20 C11 1_555 1_555
C12 C11 1_555 1_555
H21 C12 1_555 1_555
H22 C12 1_555 1_555
N4 C12 1_555 1_555
H23 N4 1_555 1_555
H24 N4 1_555 1_555
C13 N4 1_555 1_555
H25 C13 1_555 1_555
H26 C13 1_555 1_555
C14 C13 1_555 1_555
C15 C14 1_555 1_555
H27 C15 1_555 1_555
C16 C15 1_555 1_555
H28 C16 1_555 1_555
C17 C16 1_555 1_555
O2 C14 1_555 1_555
C18 C17 1_555 1_555
H29 C18 1_555 1_555
H30 C18 1_555 1_555
N5 C18 1_555 1_555
H31 N5 1_555 1_555
H32 N5 1_555 1_555
C19 N5 1_555 1_555
H33 C19 1_555 1_555
H34 C19 1_555 1_555
C20 C19 1_555 1_555
H35 C20 1_555 1_555
H36 C20 1_555 1_555
C21 N1 1_555 1_555
H37 C21 1_555 1_555
H38 C21 1_555 1_555
C22 C21 1_555 1_555
H39 C22 1_555 1_555
H40 C22 1_555 1_555
N6 C22 1_555 1_555
H41 N6 1_555 1_555
H42 N6 1_555 1_555
C23 N6 1_555 1_555
H43 C23 1_555 1_555
H44 C23 1_555 1_555
C24 C23 1_555 1_555
C25 C24 1_555 1_555
H45 C25 1_555 1_555
C26 C25 1_555 1_555
H46 C26 1_555 1_555
C27 C26 1_555 1_555
O3 C24 1_555 1_555
C28 C27 1_555 1_555
H47 C28 1_555 1_555
H48 C28 1_555 1_555
N7 C28 1_555 1_555
H49 N7 1_555 1_555
H50 N7 1_555 1_555
C29 N7 1_555 1_555
H51 C29 1_555 1_555
H52 C29 1_555 1_555
C30 C29 1_555 1_555
H53 C30 1_555 1_555
H54 C30 1_555 1_555
N8 C10 1_555 1_555
N9 C31 1_555 1_555
C31 H55 1_555 1_555
H56 C31 1_555 1_555
C32 C31 1_555 1_555
H57 C32 1_555 1_555
H58 C32 1_555 1_555
N10 C32 1_555 1_555
H59 N10 1_555 1_555
H60 N10 1_555 1_555
C33 N10 1_555 1_555
H61 C33 1_555 1_555
H62 C33 1_555 1_555
C34 C33 1_555 1_555
C35 C34 1_555 1_555
H63 C35 1_555 1_555
C36 C35 1_555 1_555
H64 C36 1_555 1_555
C37 C36 1_555 1_555
O4 C34 1_555 1_555
C38 C37 1_555 1_555
H65 C38 1_555 1_555
H66 C38 1_555 1_555
N11 C38 1_555 1_555
H67 N11 1_555 1_555
H68 N11 1_555 1_555
C39 N11 1_555 1_555
H69 C39 1_555 1_555
H70 C39 1_555 1_555
C40 C39 1_555 1_555
H71 C40 1_555 1_555
H72 C40 1_555 1_555
C41 N9 1_555 1_555
H73 C41 1_555 1_555
H74 C41 1_555 1_555
C42 C41 1_555 1_555
H75 C42 1_555 1_555
H76 C42 1_555 1_555
N12 C42 1_555 1_555
H77 N12 1_555 1_555
H78 N12 1_555 1_555
C43 N12 1_555 1_555
H79 C43 1_555 1_555
H80 C43 1_555 1_555
C44 C43 1_555 1_555
C45 C44 1_555 1_555
H81 C45 1_555 1_555
C46 C45 1_555 1_555
H82 C46 1_555 1_555
C47 C46 1_555 1_555
O5 C44 1_555 1_555
C48 C47 1_555 1_555
H83 C48 1_555 1_555
H84 C48 1_555 1_555
N13 C48 1_555 1_555
H85 N13 1_555 1_555
H86 N13 1_555 1_555
C49 N13 1_555 1_555
H87 C49 1_555 1_555
H88 C49 1_555 1_555
C50 C49 1_555 1_555
H89 C50 1_555 1_555
H90 C50 1_555 1_555
C51 N9 1_555 1_555
H91 C51 1_555 1_555
H92 C51 1_555 1_555
C52 C51 1_555 1_555
H93 C52 1_555 1_555
H94 C52 1_555 1_555
N14 C52 1_555 1_555
H95 N14 1_555 1_555
H96 N14 1_555 1_555
C53 N14 1_555 1_555
H97 C53 1_555 1_555
H98 C53 1_555 1_555
C54 C53 1_555 1_555
C55 C54 1_555 1_555
H99 C55 1_555 1_555
C56 C55 1_555 1_555
H100 C56 1_555 1_555
C57 C56 1_555 1_555
O6 C54 1_555 1_555
C58 C57 1_555 1_555
H101 C58 1_555 1_555
H102 C58 1_555 1_555
N15 C58 1_555 1_555
H103 N15 1_555 1_555
H104 N15 1_555 1_555
C59 N15 1_555 1_555
H105 C59 1_555 1_555
H106 C59 1_555 1_555
C60 C59 1_555 1_555
H107 C60 1_555 1_555
H108 C60 1_555 1_555
N16 C40 1_555 1_555
C61 O7 1_555 1_555
O8 C61 1_555 1_555
C62 C61 1_555 1_555
O9 C62 1_555 1_555
O10 C62 1_555 1_555
C63 O11 1_555 1_555
O12 C63 1_555 1_555
C64 C63 1_555 1_555
O13 C64 1_555 1_555
O14 C64 1_555 1_555
Cl1 O15 1_555 1_555
O16 Cl1 1_555 1_555
O17 Cl1 1_555 1_555
O18 Cl1 1_555 1_555
Cl2 O19 1_555 1_555
O20 Cl2 1_555 1_555
O21 Cl2 1_555 1_555
O22 Cl2 1_555 1_555
Cl3 O23 1_555 1_555
O24 Cl3 1_555 1_555
O25 Cl3 1_555 1_555
O26 Cl3 1_555 1_555
Cl4 O27 1_555 1_555
O28 Cl4 1_555 1_555
O29 Cl4 1_555 1_555
O30 Cl4 1_555 1_555
Cl5 O31 1_555 1_555
O32 Cl5 1_555 1_555
O33 Cl5 1_555 1_555
O34 Cl5 1_555 1_555
Cl6 O35 1_555 1_555
O36 Cl6 1_555 1_555
O37 Cl6 1_555 1_555
O38 Cl6 1_555 1_555
Cl7 O39 1_555 1_555
O40 Cl7 1_555 1_555
O41 Cl7 1_555 1_555
O42 Cl7 1_555 1_555
Cl8 O43 1_555 1_555
O44 Cl8 1_555 1_555
O45 Cl8 1_555 1_555
O46 Cl8 1_555 1_555
C7 O1 1_555 1_555
C17 O2 1_555 1_555
C20 N8 1_555 1_555
C27 O3 1_555 1_555
C30 N8 1_555 1_555
C37 O4 1_555 1_555
C47 O5 1_555 1_555
C50 N16 1_555 1_555
C57 O6 1_555 1_555
C60 N16 1_555 1_555

#END
