
#######################################################################
#
#                 Cambridge Crystallographic Data Centre
#                                CCDC 
#
#######################################################################
#
# If this CIF has been generated from an entry in the Cambridge 
# Structural Database, then it will include bibliographic, chemical, 
# crystal, experimental, refinement or atomic coordinate data resulting 
# from the CCDC's data processing and validation procedures.
#
#######################################################################

data_EGIVOF
_chemical_formula_moiety         'C21 H29 N1 O5 S1'
_chemical_name_systematic        
'Ethyl 2-ethylthio-1,1a-dimethyl-7,8-dimethoxy-6,11-dihydro-5H-pyrrolidino(2,1-a)isoquinoline-1-carboxylate'
_symmetry_cell_setting           monoclinic
_symmetry_space_group_name_H-M   'P 21/c'
_symmetry_Int_Tables_number      14
_space_group_name_Hall           '-P 2ybc'
loop_
_symmetry_equiv_pos_site_id
_symmetry_equiv_pos_as_xyz
1 x,y,z
2 x,1/2-y,1/2+z
3 -x,-y,-z
4 -x,1/2+y,1/2-z
_cell_length_a                   10.3363(4)
_cell_length_b                   19.0887(11)
_cell_length_c                   10.7842(6)
_cell_angle_alpha                90.00
_cell_angle_beta                 94.137(4)
_cell_angle_gamma                90.00
_cell_volume                     2122.25
_cell_formula_units_Z            4
loop_
_atom_site_label
_atom_site_type_symbol
_atom_site_fract_x
_atom_site_fract_y
_atom_site_fract_z
S1 S 0.19125(7) 0.03706(4) 0.64219(7)
N1 N 0.4878(2) 0.11083(11) 0.5806(2)
O1 O 0.3247(2) 0.14084(13) 0.4357(2)
O2 O 0.4005(2) 0.05586(11) 0.9517(2)
O3 O 0.2221(2) 0.11890(10) 0.9046(2)
O4 O 0.9574(2) 0.23108(10) 0.9383(2)
O5 O 0.8214(2) 0.15022(10) 1.0716(2)
C1 C -0.0532(4) 0.0078(2) 0.7060(4)
H1 H -0.1388(4) 0.0248(2) 0.7181(4)
H2 H -0.0155(4) -0.0114(2) 0.7825(4)
H3 H -0.0581(4) -0.0278(2) 0.6431(4)
C2 C 0.0288(3) 0.0668(2) 0.6660(3)
H4 H 0.0326(3) 0.1031(2) 0.7290(3)
H5 H -0.0100(3) 0.0867(2) 0.5894(3)
C3 C 0.2826(3) 0.11852(13) 0.6526(2)
H6 H 0.2218(3) 0.15789(13) 0.6523(2)
C4 C 0.3847(2) 0.12683(12) 0.7644(2)
C5 C 0.5111(2) 0.09356(12) 0.7142(2)
C6 C 0.3640(3) 0.12521(14) 0.5414(2)
C7 C 0.4037(3) 0.20605(13) 0.7888(3)
H7 H 0.4321(3) 0.22819(13) 0.7156(3)
H8 H 0.4677(3) 0.21280(13) 0.8568(3)
H9 H 0.3230(3) 0.22640(13) 0.8092(3)
C8 C 0.3399(2) 0.09485(13) 0.8829(2)
C9 C 0.1709(3) 0.0974(2) 1.0213(3)
H10 H 0.1958(3) 0.0493(2) 1.0395(3)
H11 H 0.0770(3) 0.0998(2) 1.0134(3)
C10 C 0.2214(5) 0.1433(2) 1.1243(3)
H12 H 0.1869(5) 0.1285(2) 1.2003(3)
H13 H 0.1958(5) 0.1908(2) 1.1066(3)
H14 H 0.3144(5) 0.1404(2) 1.1327(3)
C11 C 0.5223(3) 0.01377(13) 0.7279(2)
H15 H 0.4433(3) -0.00779(13) 0.6947(2)
H16 H 0.5373(3) 0.00189(13) 0.8142(2)
H17 H 0.5934(3) -0.00275(13) 0.6832(2)
C12 C 0.6358(2) 0.12914(12) 0.7664(2)
C13 C 0.7118(3) 0.16999(13) 0.6938(2)
C14 C 0.6789(3) 0.1793(2) 0.5556(2)
H18 H 0.6325(3) 0.2231(2) 0.5411(2)
H19 H 0.7583(3) 0.1816(2) 0.5130(2)
C15 C 0.5966(3) 0.1195(2) 0.5039(2)
H20 H 0.5654(3) 0.1294(2) 0.4187(2)
H21 H 0.6475(3) 0.0768(2) 0.5046(2)
C16 C 0.8208(3) 0.20404(13) 0.7500(2)
H22 H 0.8714(3) 0.23169(13) 0.7015(2)
C17 C 0.8548(2) 0.19757(13) 0.8752(2)
C18 C 0.7803(3) 0.15441(13) 0.9473(2)
C19 C 0.6737(2) 0.12019(12) 0.8932(2)
H23 H 0.6259(2) 0.09071(12) 0.9412(2)
C20 C 1.0335(3) 0.2757(2) 0.8671(3)
H24 H 1.1018(3) 0.2962(2) 0.9203(3)
H25 H 0.9797(3) 0.3122(2) 0.8300(3)
H26 H 1.0703(3) 0.2490(2) 0.8031(3)
C21 C 0.7351(4) 0.1175(2) 1.1502(3)
H27 H 0.7730(4) 0.1174(2) 1.2342(3)
H28 H 0.7194(4) 0.0701(2) 1.1232(3)
H29 H 0.6547(4) 0.1428(2) 1.1465(3)
loop_
_geom_bond_atom_site_label_1
_geom_bond_atom_site_label_2
_geom_bond_site_symmetry_1
_geom_bond_site_symmetry_2
S1 C2 1_555 1_555
N1 C5 1_555 1_555
O1 C6 1_555 1_555
O2 C8 1_555 1_555
O3 C8 1_555 1_555
O4 C17 1_555 1_555
O5 C18 1_555 1_555
C1 H1 1_555 1_555
H2 C1 1_555 1_555
H3 C1 1_555 1_555
C2 C1 1_555 1_555
H4 C2 1_555 1_555
H5 C2 1_555 1_555
C3 S1 1_555 1_555
H6 C3 1_555 1_555
C4 C3 1_555 1_555
C5 C4 1_555 1_555
C6 N1 1_555 1_555
C7 C4 1_555 1_555
H7 C7 1_555 1_555
H8 C7 1_555 1_555
H9 C7 1_555 1_555
C8 C4 1_555 1_555
C9 O3 1_555 1_555
H10 C9 1_555 1_555
H11 C9 1_555 1_555
C10 C9 1_555 1_555
H12 C10 1_555 1_555
H13 C10 1_555 1_555
H14 C10 1_555 1_555
C11 C5 1_555 1_555
H15 C11 1_555 1_555
H16 C11 1_555 1_555
H17 C11 1_555 1_555
C12 C5 1_555 1_555
C13 C12 1_555 1_555
C14 C13 1_555 1_555
H18 C14 1_555 1_555
H19 C14 1_555 1_555
C15 N1 1_555 1_555
H20 C15 1_555 1_555
H21 C15 1_555 1_555
C16 C13 1_555 1_555
H22 C16 1_555 1_555
C17 C16 1_555 1_555
C18 C17 1_555 1_555
C19 C12 1_555 1_555
H23 C19 1_555 1_555
C20 O4 1_555 1_555
H24 C20 1_555 1_555
H25 C20 1_555 1_555
H26 C20 1_555 1_555
C21 O5 1_555 1_555
H27 C21 1_555 1_555
H28 C21 1_555 1_555
H29 C21 1_555 1_555
C3 C6 1_555 1_555
C14 C15 1_555 1_555
C18 C19 1_555 1_555

#END
