
#######################################################################
#
#                 Cambridge Crystallographic Data Centre
#                                CCDC 
#
#######################################################################
#
# If this CIF has been generated from an entry in the Cambridge 
# Structural Database, then it will include bibliographic, chemical, 
# crystal, experimental, refinement or atomic coordinate data resulting 
# from the CCDC's data processing and validation procedures.
#
#######################################################################

data_EGIVUL
_chemical_formula_moiety         'C27 H33 N1 O6 S2,0.25(C1 H2 Cl2)'
_chemical_name_systematic        
'Methyl 3-ethylsulfenyl-7a-methyl-6-(p-toluenesulfonato)-2-oxooctahydroindole-3a-carboxylate dichloromethane solvate'
_symmetry_cell_setting           monoclinic
_symmetry_space_group_name_H-M   'P 21/n'
_symmetry_Int_Tables_number      14
_space_group_name_Hall           '-P 2yn'
loop_
_symmetry_equiv_pos_site_id
_symmetry_equiv_pos_as_xyz
1 x,y,z
2 1/2+x,1/2-y,1/2+z
3 -x,-y,-z
4 1/2-x,1/2+y,1/2-z
_cell_length_a                   10.351
_cell_length_b                   22.2520(10)
_cell_length_c                   13.3570(10)
_cell_angle_alpha                90.00
_cell_angle_beta                 111.34
_cell_angle_gamma                90.00
_cell_volume                     2865.59
_cell_formula_units_Z            4
loop_
_atom_site_label
_atom_site_type_symbol
_atom_site_fract_x
_atom_site_fract_y
_atom_site_fract_z
C1 C 0.5740(6) 0.2248(2) 0.6035(4)
C2 C 0.4399(6) 0.1942(2) 0.5363(5)
H1 H 0.4091 0.2132 0.4653
C3 C 0.4847(5) 0.1295(2) 0.5215(4)
C4 C 0.3891(6) 0.0974(3) 0.4220(5)
H2 H 0.2951 0.0994 0.4212
H3 H 0.4153 0.0553 0.4267
C5 C 0.3903(6) 0.1226(3) 0.3161(5)
H4 H 0.3302 0.0987 0.2566
H5 H 0.3559 0.1636 0.3067
C6 C 0.5354(6) 0.1213(2) 0.3174(4)
H6 H 0.5709 0.0801 0.3236
C7 C 0.6279(5) 0.1606(2) 0.4070(4)
H7 H 0.5945 0.2017 0.3942
H8 H 0.7210 0.1599 0.4056
C8 C 0.6344(5) 0.1409(2) 0.5205(4)
C9 C 0.7306(6) 0.0874(3) 0.5609(5)
H9 H 0.8200 0.0968 0.5585
H10 H 0.6926 0.0531 0.5163
H11 H 0.7402 0.0786 0.6336
C10 C 0.4934(6) 0.0922(2) 0.6193(5)
C11 C 0.5521(11) 0.0913(4) 0.8089(6)
H12 H 0.5909 0.1177 0.8693
H13 H 0.6099 0.0564 0.8184
H14 H 0.4607 0.0793 0.8034
C12 C 0.8176(6) 0.2185(3) 0.6252(4)
H15 H 0.8111 0.2618 0.6302
H16 H 0.8548 0.2102 0.5696
C13 C 0.9187(6) 0.1951(2) 0.7312(4)
C14 C 1.0596(6) 0.1908(3) 0.7487(5)
H17 H 1.0910 0.2002 0.6935
C15 C 1.1533(7) 0.1726(3) 0.8478(7)
H18 H 1.2470 0.1700 0.8584
C16 C 1.1114(9) 0.1589(3) 0.9282(6)
H19 H 1.1755 0.1469 0.9944
C17 C 0.9735(9) 0.1623(3) 0.9130(5)
H20 H 0.9433 0.1527 0.9687
C18 C 0.8782(7) 0.1805(3) 0.8133(5)
H21 H 0.7846 0.1826 0.8033
C19 C 0.6821(6) 0.0846(2) 0.1344(4)
C20 C 0.6962(7) 0.0251(3) 0.1138(6)
H22 H 0.6206 -0.0008 0.0963
C21 C 0.8229(9) 0.0043(3) 0.1193(8)
H23 H 0.8316 -0.0359 0.1032
C22 C 0.9379(7) 0.0408(3) 0.1478(6)
C23 C 0.9207(7) 0.1003(3) 0.1656(5)
H24 H 0.9965 0.1261 0.1829
C24 C 0.7957(7) 0.1227(3) 0.1587(5)
H25 H 0.7861 0.1634 0.1703
C25 C 1.0786(8) 0.0157(4) 0.1571(9)
H26 H 1.1466 0.0472 0.1785
H27 H 1.0731 -0.0001 0.0889
H28 H 1.1048 -0.0157 0.2100
N1 N 0.6805(4) 0.19361(17) 0.5927(3)
O1 O 0.5858(5) 0.27126(16) 0.6558(3)
O2 O 0.4592(6) 0.04021(18) 0.6144(4)
O3 O 0.5443(5) 0.12235(17) 0.7115(3)
O4 O 0.5368(4) 0.15088(16) 0.2179(3)
O5 O 0.4259(4) 0.0628(2) 0.1106(3)
O6 O 0.4783(5) 0.1550(2) 0.0308(3)
S1 S 0.3005(2) 0.20156(9) 0.5839(2)
S2 S 0.51575(16) 0.11213(7) 0.11558(11)
C26 C 0.0590(19) 0.2099(8) 0.4077(10)
H29 H 0.0036 0.2369 0.3528
H30 H 0.0061 0.1961 0.4492
H31 H 0.0858 0.1761 0.3749
C27 C 0.1673(12) 0.2372(6) 0.4691(17)
H32 H 0.1352 0.2720 0.4970
H33 H 0.2141 0.2524 0.4232
C28? C 0.9936(15) 0.0418(6) 0.4242(10)
Cl1? Cl 1.0871(13) 0.0300(9) 0.5608(16)
loop_
_geom_bond_atom_site_label_1
_geom_bond_atom_site_label_2
_geom_bond_site_symmetry_1
_geom_bond_site_symmetry_2
C1 C2 1_555 1_555
C2 H1 1_555 1_555
C3 C2 1_555 1_555
C4 C3 1_555 1_555
H2 C4 1_555 1_555
H3 C4 1_555 1_555
C5 C4 1_555 1_555
H4 C5 1_555 1_555
H5 C5 1_555 1_555
C6 C5 1_555 1_555
H6 C6 1_555 1_555
C7 C6 1_555 1_555
H7 C7 1_555 1_555
H8 C7 1_555 1_555
C8 C3 1_555 1_555
C9 C8 1_555 1_555
H9 C9 1_555 1_555
H10 C9 1_555 1_555
H11 C9 1_555 1_555
C10 C3 1_555 1_555
C11 H12 1_555 1_555
H13 C11 1_555 1_555
H14 C11 1_555 1_555
C12 H15 1_555 1_555
H16 C12 1_555 1_555
C13 C12 1_555 1_555
C14 C13 1_555 1_555
H17 C14 1_555 1_555
C15 C14 1_555 1_555
H18 C15 1_555 1_555
C16 C15 1_555 1_555
H19 C16 1_555 1_555
C17 C16 1_555 1_555
H20 C17 1_555 1_555
C18 C13 1_555 1_555
H21 C18 1_555 1_555
C19 C20 1_555 1_555
C20 H22 1_555 1_555
C21 C20 1_555 1_555
H23 C21 1_555 1_555
C22 C21 1_555 1_555
C23 C22 1_555 1_555
H24 C23 1_555 1_555
C24 C19 1_555 1_555
H25 C24 1_555 1_555
C25 C22 1_555 1_555
H26 C25 1_555 1_555
H27 C25 1_555 1_555
H28 C25 1_555 1_555
N1 C1 1_555 1_555
O1 C1 1_555 1_555
O2 C10 1_555 1_555
O3 C10 1_555 1_555
O4 C6 1_555 1_555
O5 S2 1_555 1_555
O6 S2 1_555 1_555
S1 C2 1_555 1_555
S2 C19 1_555 1_555
C26 H29 1_555 1_555
H30 C26 1_555 1_555
H31 C26 1_555 1_555
C27 S1 1_555 1_555
H32 C27 1_555 1_555
H33 C27 1_555 1_555
C7 C8 1_555 1_555
C8 N1 1_555 1_555
C11 O3 1_555 1_555
C12 N1 1_555 1_555
C17 C18 1_555 1_555
C23 C24 1_555 1_555
O4 S2 1_555 1_555
C26 C27 1_555 1_555

#END
