
#######################################################################
#
#                 Cambridge Crystallographic Data Centre
#                                CCDC 
#
#######################################################################
#
# If this CIF has been generated from an entry in the Cambridge 
# Structural Database, then it will include bibliographic, chemical, 
# crystal, experimental, refinement or atomic coordinate data resulting 
# from the CCDC's data processing and validation procedures.
#
#######################################################################

data_EGIVIZ
_chemical_formula_moiety         'C24 H25 N1 O5 S1'
_chemical_name_systematic        
"Methyl 3-ethylthio-15,17-dioxa-2-oxo-1-benzylspiro(pyrrolidine-5,6'-tricyclo(7.3.0.0^3,7^)dodecane)a-6(7),8(12),13-triene-10-carboxylate"
_symmetry_cell_setting           monoclinic
_symmetry_space_group_name_H-M   'P 21/c'
_symmetry_Int_Tables_number      14
_space_group_name_Hall           '-P 2ybc'
loop_
_symmetry_equiv_pos_site_id
_symmetry_equiv_pos_as_xyz
1 x,y,z
2 x,1/2-y,1/2+z
3 -x,-y,-z
4 -x,1/2+y,1/2-z
_cell_length_a                   9.7313(5)
_cell_length_b                   23.0580(15)
_cell_length_c                   9.9799(6)
_cell_angle_alpha                90
_cell_angle_beta                 102.902(5)
_cell_angle_gamma                90
_cell_volume                     2182.8
_exptl_crystal_colour            colorless
_exptl_crystal_description       'jagged block'
_chemical_melting_point          '90-91 deg.C'
_cell_formula_units_Z            4
loop_
_atom_site_label
_atom_site_type_symbol
_atom_site_fract_x
_atom_site_fract_y
_atom_site_fract_z
S1 S 0.47987(11) 0.53500(5) 0.21316(12)
N1 N 0.2413(3) 0.59797(12) 0.4259(3)
O1 O 0.3009(3) 0.50246(11) 0.4184(3)
O2 O 0.5402(4) 0.73552(15) 0.6472(5)
O3 O 0.5074(3) 0.64101(12) 0.6408(3)
O4 O -0.1204(3) 0.79372(13) 0.0532(3)
O5 O -0.1245(3) 0.69670(13) -0.0082(3)
C1 C 0.7333(5) 0.5898(3) 0.2615(7)
H1 H 0.7971(5) 0.6138(3) 0.2253(7)
H2 H 0.7778(5) 0.5534(3) 0.2908(7)
H3 H 0.7088(5) 0.6089(3) 0.3384(7)
C2 C 0.6038(5) 0.5795(2) 0.1531(6)
H4 H 0.6292(5) 0.5608(2) 0.0749(6)
H5 H 0.5602(5) 0.6164(2) 0.1225(6)
C3 C 0.4450(4) 0.5788(2) 0.3545(4)
H6 H 0.5285(4) 0.5787(2) 0.4305(4)
C4 C 0.4025(4) 0.6414(2) 0.3155(4)
H7 H 0.3684(4) 0.6450(2) 0.2168(4)
H8 H 0.4821(4) 0.6673(2) 0.3447(4)
C5 C 0.2844(3) 0.65593(14) 0.3907(4)
C6 C 0.3225(4) 0.5536(2) 0.4029(4)
C7 C 0.3239(4) 0.6985(2) 0.5188(4)
H9 H 0.2584(4) 0.6902(2) 0.5780(4)
C8 C 0.2865(4) 0.7590(2) 0.4572(4)
H10 H 0.2538(4) 0.7841(2) 0.5217(4)
H11 H 0.3671(4) 0.7769(2) 0.4316(4)
C9 C 0.4683(4) 0.6945(2) 0.6062(4)
C10 C 0.6425(4) 0.6306(2) 0.7283(5)
H12 H 0.6554(4) 0.5897(2) 0.7441(5)
H13 H 0.6486(4) 0.6501(2) 0.8145(5)
H14 H 0.7146(4) 0.6451(2) 0.6853(5)
C11 C 0.1710(4) 0.74721(15) 0.3329(4)
C12 C 0.0762(4) 0.7869(2) 0.2570(4)
H15 H 0.0755(4) 0.8258(2) 0.2812(4)
C13 C -0.0156(4) 0.7646(2) 0.1447(4)
C14 C -0.0183(4) 0.7070(2) 0.1072(4)
C15 C 0.0728(4) 0.6673(2) 0.1805(4)
H16 H 0.0712(4) 0.6283(2) 0.1561(4)
C16 C 0.1685(3) 0.68946(15) 0.2947(4)
C17 C -0.1870(5) 0.7518(2) -0.0447(5)
H17 H -0.2870(5) 0.7501(2) -0.0463(5)
H18 H -0.1760(5) 0.7626(2) -0.1357(5)
C18 C 0.1116(4) 0.5873(2) 0.4672(4)
H19 H 0.0255(4) 0.5882(2) 0.4039(4)
C19 C 0.1198(4) 0.57417(14) 0.6210(4)
C20 C 0.2413(4) 0.5741(2) 0.7220(4)
H20 H 0.3266(4) 0.5814(2) 0.6979(4)
C21 C 0.2412(5) 0.5635(2) 0.8616(5)
H21 H 0.3256(5) 0.5648(2) 0.9273(5)
C22 C 0.1199(5) 0.5514(2) 0.9003(5)
H22 H 0.1192(5) 0.5438(2) 0.9917(5)
C23 C -0.0024(5) 0.5507(2) 0.8002(5)
H23 H -0.0875(5) 0.5426(2) 0.8240(5)
C24 C -0.0007(4) 0.5621(2) 0.6626(4)
H24 H -0.0854(4) 0.5614(2) 0.5973(4)
loop_
_geom_bond_atom_site_label_1
_geom_bond_atom_site_label_2
_geom_bond_site_symmetry_1
_geom_bond_site_symmetry_2
S1 C2 1_555 1_555
N1 C5 1_555 1_555
O1 C6 1_555 1_555
O2 C9 1_555 1_555
O3 C9 1_555 1_555
O4 C13 1_555 1_555
O5 C14 1_555 1_555
C1 H1 1_555 1_555
H2 C1 1_555 1_555
H3 C1 1_555 1_555
C2 C1 1_555 1_555
H4 C2 1_555 1_555
H5 C2 1_555 1_555
C3 S1 1_555 1_555
H6 C3 1_555 1_555
C4 C3 1_555 1_555
H7 C4 1_555 1_555
H8 C4 1_555 1_555
C5 C4 1_555 1_555
C6 N1 1_555 1_555
C7 C5 1_555 1_555
H9 C7 1_555 1_555
C8 C7 1_555 1_555
H10 C8 1_555 1_555
H11 C8 1_555 1_555
C9 C7 1_555 1_555
C10 O3 1_555 1_555
H12 C10 1_555 1_555
H13 C10 1_555 1_555
H14 C10 1_555 1_555
C11 C8 1_555 1_555
C12 C11 1_555 1_555
H15 C12 1_555 1_555
C13 C12 1_555 1_555
C14 C13 1_555 1_555
C15 C14 1_555 1_555
H16 C15 1_555 1_555
C16 C5 1_555 1_555
C17 O4 1_555 1_555
H17 C17 1_555 1_555
H18 C17 1_555 1_555
C18 N1 1_555 1_555
H19 C18 1_555 1_555
C19 C18 1_555 1_555
C20 C19 1_555 1_555
H20 C20 1_555 1_555
C21 C20 1_555 1_555
H21 C21 1_555 1_555
C22 C21 1_555 1_555
H22 C22 1_555 1_555
C23 C22 1_555 1_555
H23 C23 1_555 1_555
C24 C19 1_555 1_555
H24 C24 1_555 1_555
O5 C17 1_555 1_555
C3 C6 1_555 1_555
C11 C16 1_555 1_555
C15 C16 1_555 1_555
C23 C24 1_555 1_555

#END
