
#######################################################################
#
#                 Cambridge Crystallographic Data Centre
#                                CCDC 
#
#######################################################################
#
# If this CIF has been generated from an entry in the Cambridge 
# Structural Database, then it will include bibliographic, chemical, 
# crystal, experimental, refinement or atomic coordinate data resulting 
# from the CCDC's data processing and validation procedures.
#
#######################################################################

data_EGODUB
_chemical_name_common            
5,10-bis(trimethylsilylethynyl)dithieno[2,3-d:2',3'-d']benzo[1,2-b:4,5-b']di-thiophene
_chemical_formula_moiety         'C24 H22 S4 Si2'
_chemical_name_systematic        
(thieno[3,2-b]thieno[2',3':4,5]thieno[2,3-f][1]benzothiene-5,10-diyldiethyne-2,1-diyl)bis(trimethylsilane)
_symmetry_cell_setting           monoclinic
_symmetry_space_group_name_H-M   'P 21/c'
_symmetry_Int_Tables_number      14
_space_group_name_Hall           '-P 2ybc'
loop_
_symmetry_equiv_pos_site_id
_symmetry_equiv_pos_as_xyz
1 x,y,z
2 -x,1/2+y,1/2-z
3 -x,-y,-z
4 x,1/2-y,1/2+z
_cell_length_a                   6.330(4)
_cell_length_b                   21.410(14)
_cell_length_c                   9.618(7)
_cell_angle_alpha                90
_cell_angle_beta                 103.021(7)
_cell_angle_gamma                90
_cell_volume                     1269.97
_exptl_crystal_colour            yellow
_exptl_crystal_description       block
_chemical_melting_point          '559-561 K'
_cell_formula_units_Z            2
loop_
_atom_site_label
_atom_site_type_symbol
_atom_site_fract_x
_atom_site_fract_y
_atom_site_fract_z
S1 S 0.4251(2) 0.61167(7) 0.94169(16)
S2 S 0.6694(2) 0.47502(7) 0.71178(15)
Si1 Si 1.2756(3) 0.31287(7) 0.62691(18)
C1 C 0.5939(8) 0.5566(2) 0.8934(5)
C2 C 0.8646(8) 0.4865(2) 0.8699(5)
C3 C 1.0576(8) 0.4536(2) 0.9078(5)
C4 C 0.8008(8) 0.5321(2) 0.9581(5)
C5 C 0.5014(9) 0.5314(2) 0.7630(6)
C6 C 1.1200(8) 0.4079(2) 0.8169(5)
C7 C 1.1749(9) 0.3696(2) 0.7399(6)
C8 C 0.2957(9) 0.5550(3) 0.7009(6)
H1 H 0.2117 0.5425 0.6130
C9 C 0.2363(9) 0.5984(3) 0.7866(6)
H2 H 0.1042 0.6193 0.7634
C10 C 1.5362(11) 0.2825(3) 0.7307(8)
H3 H 1.6422 0.3153 0.7460
H4 H 1.5845 0.2490 0.6790
H5 H 1.5177 0.2672 0.8211
C11 C 1.3170(13) 0.3551(3) 0.4672(7)
H6 H 1.2060 0.3862 0.4400
H7 H 1.3098 0.3261 0.3902
H8 H 1.4565 0.3750 0.4887
C12 C 1.0713(11) 0.2502(3) 0.5779(9)
H9 H 1.0454 0.2312 0.6629
H10 H 1.1238 0.2192 0.5219
H11 H 0.9385 0.2676 0.5233
S1B S 1.5749(2) 0.38833(7) 1.05831(16)
S2B S 1.3306(2) 0.52498(7) 1.28822(15)
Si1B Si 0.7244(3) 0.68713(7) 1.37309(18)
C1B C 1.4061(8) 0.4434(2) 1.1066(5)
C2B C 1.1354(8) 0.5135(2) 1.1301(5)
C3B C 0.9424(8) 0.5464(2) 1.0922(5)
C4B C 1.1992(8) 0.4679(2) 1.0419(5)
C5B C 1.4986(9) 0.4686(2) 1.2370(6)
C6B C 0.8800(8) 0.5921(2) 1.1831(5)
C7B C 0.8251(9) 0.6304(2) 1.2601(6)
C8B C 1.7043(9) 0.4450(3) 1.2991(6)
H1B H 1.7883 0.4575 1.3870
C9B C 1.7637(9) 0.4016(3) 1.2134(6)
H2B H 1.8958 0.3807 1.2366
C10B C 0.4638(11) 0.7175(3) 1.2693(8)
H3B H 0.3578 0.6847 1.2540
H4B H 0.4155 0.7510 1.3210
H5B H 0.4823 0.7328 1.1789
C11B C 0.6830(13) 0.6449(3) 1.5328(7)
H6B H 0.7940 0.6138 1.5600
H7B H 0.6902 0.6739 1.6098
H8B H 0.5435 0.6250 1.5113
C12B C 0.9287(11) 0.7498(3) 1.4221(9)
H9B H 0.9546 0.7688 1.3371
H10B H 0.8762 0.7808 1.4781
H11B H 1.0615 0.7324 1.4767
loop_
_geom_bond_atom_site_label_1
_geom_bond_atom_site_label_2
_geom_bond_site_symmetry_1
_geom_bond_site_symmetry_2
S1 C1 1_555 1_555
S2 C2 1_555 1_555
Si1 C7 1_555 1_555
C1 C4 1_555 1_555
C2 C3 1_555 1_555
C3 C6 1_555 1_555
C4 C2 1_555 1_555
C5 S2 1_555 1_555
C6 C7 1_555 1_555
C8 C5 1_555 1_555
H1 C8 1_555 1_555
C9 S1 1_555 1_555
H2 C9 1_555 1_555
C10 Si1 1_555 1_555
H3 C10 1_555 1_555
H4 C10 1_555 1_555
H5 C10 1_555 1_555
C11 Si1 1_555 1_555
H6 C11 1_555 1_555
H7 C11 1_555 1_555
H8 C11 1_555 1_555
C12 Si1 1_555 1_555
H9 C12 1_555 1_555
H10 C12 1_555 1_555
H11 C12 1_555 1_555
S1B C1B 1_555 1_555
S2B C2B 1_555 1_555
Si1B C7B 1_555 1_555
C1B C4B 1_555 1_555
C2B C3B 1_555 1_555
C3B C4 1_555 1_555
C4B C3 1_555 1_555
C5B S2B 1_555 1_555
C6B C3B 1_555 1_555
C7B C6B 1_555 1_555
C8B C5B 1_555 1_555
H1B C8B 1_555 1_555
C9B S1B 1_555 1_555
H2B C9B 1_555 1_555
C10B Si1B 1_555 1_555
H3B C10B 1_555 1_555
H4B C10B 1_555 1_555
H5B C10B 1_555 1_555
C11B Si1B 1_555 1_555
H6B C11B 1_555 1_555
H7B C11B 1_555 1_555
H8B C11B 1_555 1_555
C12B Si1B 1_555 1_555
H9B C12B 1_555 1_555
H10B C12B 1_555 1_555
H11B C12B 1_555 1_555
C1 C5 1_555 1_555
C8 C9 1_555 1_555
C1B C5B 1_555 1_555
C2B C4B 1_555 1_555
C8B C9B 1_555 1_555

#END
