
#######################################################################
#
#                 Cambridge Crystallographic Data Centre
#                                CCDC 
#
#######################################################################
#
# If this CIF has been generated from an entry in the Cambridge 
# Structural Database, then it will include bibliographic, chemical, 
# crystal, experimental, refinement or atomic coordinate data resulting 
# from the CCDC's data processing and validation procedures.
#
#######################################################################

data_EGOFAJ
_chemical_formula_moiety         'C30 H38 O2 S4'
_chemical_name_systematic        
5,10-bis(octyloxy)thieno[3,2-b]thieno[2',3':4,5]thieno[2,3-f][1]benzothiophene
_symmetry_cell_setting           monoclinic
_symmetry_space_group_name_H-M   'P 21/n'
_symmetry_Int_Tables_number      14
_space_group_name_Hall           '-P 2yn'
loop_
_symmetry_equiv_pos_site_id
_symmetry_equiv_pos_as_xyz
1 x,y,z
2 1/2-x,1/2+y,1/2-z
3 -x,-y,-z
4 1/2+x,1/2-y,1/2+z
_cell_length_a                   8.568(10)
_cell_length_b                   17.79(2)
_cell_length_c                   9.479(11)
_cell_angle_alpha                90
_cell_angle_beta                 99.479(12)
_cell_angle_gamma                90
_cell_volume                     1425.11
_exptl_crystal_colour            yellow
_exptl_crystal_description       block
_chemical_melting_point          '362-364 K'
_cell_formula_units_Z            2
loop_
_atom_site_label
_atom_site_type_symbol
_atom_site_fract_x
_atom_site_fract_y
_atom_site_fract_z
C1 C 0.1513(4) 0.15517(16) 0.0917(3)
H1 H 0.0884 0.1752 0.0111
C2 C 0.2099(3) 0.19627(15) 0.2073(3)
H2 H 0.1933 0.2476 0.2162
C3 C 0.3004(3) 0.15109(13) 0.3138(3)
C4 C 0.3102(3) 0.07733(13) 0.2752(2)
C5 C 0.4038(3) 0.03145(12) 0.3811(2)
C6 C 0.4610(3) 0.07500(12) 0.5045(2)
C7 C 0.5557(3) 0.04431(12) 0.6236(2)
C8 C 0.4966(3) 0.10715(16) 0.8290(3)
H3 H 0.4465 0.0621 0.8582
H4 H 0.4155 0.1377 0.7727
C9 C 0.5701(4) 0.15003(16) 0.9587(3)
H5 H 0.6279 0.1922 0.9278
H6 H 0.4858 0.1705 1.0041
C10 C 0.6796(4) 0.10705(16) 1.0683(3)
H7 H 0.7728 0.0935 1.0281
H8 H 0.6278 0.0608 1.0889
C11 C 0.7324(4) 0.14887(16) 1.2084(3)
H9 H 0.7931 0.1927 1.1894
H10 H 0.6393 0.1664 1.2446
C12 C 0.8305(4) 0.10221(16) 1.3214(3)
H11 H 0.9236 0.0850 1.2848
H12 H 0.7699 0.0581 1.3386
C13 C 0.8838(4) 0.14119(16) 1.4626(3)
H13 H 0.9445 0.1853 1.4455
H14 H 0.7908 0.1583 1.4993
C14 C 0.9817(4) 0.09446(19) 1.5751(3)
H15 H 0.9237 0.0489 1.5883
H16 H 1.0778 0.0798 1.5407
C15 C 1.0262(4) 0.1317(2) 1.7167(3)
H17 H 1.0869 0.1761 1.7060
H18 H 1.0883 0.0978 1.7820
H19 H 0.9322 0.1453 1.7535
O1 O 0.61392(19) 0.08650(9) 0.74279(17)
S1 S 0.40341(8) 0.16962(3) 0.48432(7)
S2 S 0.20390(8) 0.06153(4) 0.10728(7)
C1B C 0.8487(4) -0.15517(16) 0.9083(3)
H1B H 0.9116 -0.1752 0.9889
C2B C 0.7901(3) -0.19627(15) 0.7927(3)
H2B H 0.8067 -0.2476 0.7838
C3B C 0.6996(3) -0.15109(13) 0.6862(3)
C4B C 0.6898(3) -0.07733(13) 0.7248(2)
C5B C 0.5962(3) -0.03145(12) 0.6189(2)
C6B C 0.5390(3) -0.07500(12) 0.4955(2)
C7B C 0.4443(3) -0.04431(12) 0.3764(2)
C8B C 0.5034(3) -0.10715(16) 0.1710(3)
H3B H 0.5535 -0.0621 0.1418
H4B H 0.5845 -0.1377 0.2273
C9B C 0.4299(4) -0.15003(16) 0.0413(3)
H5B H 0.3721 -0.1922 0.0722
H6B H 0.5142 -0.1705 -0.0041
C10B C 0.3204(4) -0.10705(16) -0.0683(3)
H7B H 0.2272 -0.0935 -0.0281
H8B H 0.3722 -0.0608 -0.0889
C11B C 0.2676(4) -0.14887(16) -0.2084(3)
H9B H 0.2069 -0.1927 -0.1894
H10B H 0.3607 -0.1664 -0.2446
C12B C 0.1695(4) -0.10221(16) -0.3214(3)
H11B H 0.0764 -0.0850 -0.2848
H12B H 0.2301 -0.0581 -0.3386
C13B C 0.1162(4) -0.14119(16) -0.4626(3)
H13B H 0.0555 -0.1853 -0.4455
H14B H 0.2092 -0.1583 -0.4993
C14B C 0.0183(4) -0.09446(19) -0.5751(3)
H15B H 0.0763 -0.0489 -0.5883
H16B H -0.0778 -0.0798 -0.5407
C15B C -0.0262(4) -0.1317(2) -0.7167(3)
H17B H -0.0869 -0.1761 -0.7060
H18B H -0.0883 -0.0978 -0.7820
H19B H 0.0678 -0.1453 -0.7535
O1B O 0.38608(19) -0.08650(9) 0.25721(17)
S1B S 0.59659(8) -0.16962(3) 0.51568(7)
S2B S 0.79610(8) -0.06153(4) 0.89272(7)
loop_
_geom_bond_atom_site_label_1
_geom_bond_atom_site_label_2
_geom_bond_site_symmetry_1
_geom_bond_site_symmetry_2
C1 H1 1_555 1_555
C2 C1 1_555 1_555
H2 C2 1_555 1_555
C3 C2 1_555 1_555
C4 C3 1_555 1_555
C5 C4 1_555 1_555
C6 C5 1_555 1_555
C7 C6 1_555 1_555
C8 H3 1_555 1_555
H4 C8 1_555 1_555
C9 C8 1_555 1_555
H5 C9 1_555 1_555
H6 C9 1_555 1_555
C10 C9 1_555 1_555
H7 C10 1_555 1_555
H8 C10 1_555 1_555
C11 C10 1_555 1_555
H9 C11 1_555 1_555
H10 C11 1_555 1_555
C12 C11 1_555 1_555
H11 C12 1_555 1_555
H12 C12 1_555 1_555
C13 C12 1_555 1_555
H13 C13 1_555 1_555
H14 C13 1_555 1_555
C14 C13 1_555 1_555
H15 C14 1_555 1_555
H16 C14 1_555 1_555
C15 C14 1_555 1_555
H17 C15 1_555 1_555
H18 C15 1_555 1_555
H19 C15 1_555 1_555
O1 C7 1_555 1_555
S1 C3 1_555 1_555
S2 C1 1_555 1_555
C1B H1B 1_555 1_555
C2B C1B 1_555 1_555
H2B C2B 1_555 1_555
C3B C2B 1_555 1_555
C4B C3B 1_555 1_555
C5B C7 1_555 1_555
C6B C5B 1_555 1_555
C7B C5 1_555 1_555
C8B H3B 1_555 1_555
H4B C8B 1_555 1_555
C9B C8B 1_555 1_555
H5B C9B 1_555 1_555
H6B C9B 1_555 1_555
C10B C9B 1_555 1_555
H7B C10B 1_555 1_555
H8B C10B 1_555 1_555
C11B C10B 1_555 1_555
H9B C11B 1_555 1_555
H10B C11B 1_555 1_555
C12B C11B 1_555 1_555
H11B C12B 1_555 1_555
H12B C12B 1_555 1_555
C13B C12B 1_555 1_555
H13B C13B 1_555 1_555
H14B C13B 1_555 1_555
C14B C13B 1_555 1_555
H15B C14B 1_555 1_555
H16B C14B 1_555 1_555
C15B C14B 1_555 1_555
H17B C15B 1_555 1_555
H18B C15B 1_555 1_555
H19B C15B 1_555 1_555
O1B C7B 1_555 1_555
S1B C3B 1_555 1_555
S2B C1B 1_555 1_555
C4 S2 1_555 1_555
C6 S1 1_555 1_555
C8 O1 1_555 1_555
C4B C5B 1_555 1_555
C4B S2B 1_555 1_555
C6B C7B 1_555 1_555
C6B S1B 1_555 1_555
C8B O1B 1_555 1_555

#END
