
#######################################################################
#
#                 Cambridge Crystallographic Data Centre
#                                CCDC 
#
#######################################################################
#
# If this CIF has been generated from an entry in the Cambridge 
# Structural Database, then it will include bibliographic, chemical, 
# crystal, experimental, refinement or atomic coordinate data resulting 
# from the CCDC's data processing and validation procedures.
#
#######################################################################

data_EGOFEN
_chemical_name_common            
5,10-bis(butoxy)dithieno[2,3-d:2',3'-d']benzo[1,2-b:4,5-b']dithiophene
_chemical_formula_moiety         'C22 H20 O2 S4'
_chemical_name_systematic        
1-((10-(butan-2-id-1-yloxy)thieno[3,2-b]thieno[2',3':4,5]thieno[2,3-f][1]benzothiophene-4,9-diium-5-yl)oxy)butan-2-ide
_symmetry_cell_setting           monoclinic
_symmetry_space_group_name_H-M   'P 21/n'
_symmetry_Int_Tables_number      14
_space_group_name_Hall           '-P 2yn'
loop_
_symmetry_equiv_pos_site_id
_symmetry_equiv_pos_as_xyz
1 x,y,z
2 1/2-x,1/2+y,1/2-z
3 -x,-y,-z
4 1/2+x,1/2-y,1/2+z
_cell_length_a                   8.451(6)
_cell_length_b                   9.412(7)
_cell_length_c                   13.827(10)
_cell_angle_alpha                90
_cell_angle_beta                 106.097(6)
_cell_angle_gamma                90
_cell_volume                     1056.69
_exptl_crystal_colour            yellow
_exptl_crystal_description       block
_chemical_melting_point          '452-454 K'
_cell_formula_units_Z            2
loop_
_atom_site_label
_atom_site_type_symbol
_atom_site_fract_x
_atom_site_fract_y
_atom_site_fract_z
C1 C 0.6419(5) 0.1158(4) 0.7613(3)
H1 H 0.6624 0.0597 0.7107
C2 C 0.6519(4) 0.0667(4) 0.8546(3)
H2 H 0.6793 -0.0261 0.8760
C3 C 0.6151(4) 0.1755(3) 0.9154(2)
C4 C 0.5783(4) 0.3038(3) 0.8670(2)
C5 C 0.5369(3) 0.4137(3) 0.9275(2)
C6 C 0.5471(3) 0.3614(3) 1.0249(2)
C7 C 0.4903(3) 0.5542(3) 0.9029(2)
C8 C 0.3291(4) 0.6079(5) 0.7376(2)
H3 H 0.2616 0.6805 0.7564
H4 H 0.2748 0.5169 0.7369
C9 C 0.3484(5) 0.6393(5) 0.6358(3)
H5 H 0.3147 0.5745 0.5833
C10 C 0.4213(6) 0.7739(5) 0.6217(3)
H6 H 0.5301 0.7802 0.6688
H7 H 0.3549 0.8500 0.6373
C11 C 0.4360(7) 0.7954(6) 0.5162(4)
H8 H 0.5044 0.7222 0.5008
H9 H 0.4844 0.8866 0.5117
H10 H 0.3286 0.7911 0.4691
O1 O 0.4883(2) 0.6047(2) 0.80916(14)
S1 S 0.60452(11) 0.18218(9) 1.03947(6)
S2 S 0.58753(11) 0.29267(9) 0.74503(6)
C1B C 0.3581(5) 0.8842(4) 1.2387(3)
H1B H 0.3376 0.9403 1.2893
C2B C 0.3481(4) 0.9333(4) 1.1454(3)
H2B H 0.3207 1.0261 1.1240
C3B C 0.3849(4) 0.8245(3) 1.0846(2)
C4B C 0.4217(4) 0.6962(3) 1.1330(2)
C5B C 0.4631(3) 0.5863(3) 1.0725(2)
C6B C 0.4529(3) 0.6386(3) 0.9751(2)
C7B C 0.5097(3) 0.4458(3) 1.0971(2)
C8B C 0.6709(4) 0.3921(5) 1.2624(2)
H3B H 0.7384 0.3195 1.2436
H4B H 0.7252 0.4831 1.2631
C9B C 0.6516(5) 0.3607(5) 1.3642(3)
H5B H 0.6853 0.4255 1.4167
C10B C 0.5787(6) 0.2261(5) 1.3783(3)
H6B H 0.4699 0.2198 1.3312
H7B H 0.6451 0.1500 1.3627
C11B C 0.5640(7) 0.2046(6) 1.4838(4)
H8B H 0.4956 0.2778 1.4992
H9B H 0.5156 0.1134 1.4883
H10B H 0.6714 0.2089 1.5309
O1B O 0.5117(2) 0.3953(2) 1.19084(14)
S1B S 0.39548(11) 0.81782(9) 0.96053(6)
S2B S 0.41247(11) 0.70733(9) 1.25497(6)
loop_
_geom_bond_atom_site_label_1
_geom_bond_atom_site_label_2
_geom_bond_site_symmetry_1
_geom_bond_site_symmetry_2
C1 H1 1_555 1_555
C2 C1 1_555 1_555
H2 C2 1_555 1_555
C3 C2 1_555 1_555
C4 C3 1_555 1_555
C5 C4 1_555 1_555
C6 C5 1_555 1_555
C7 C5 1_555 1_555
C8 H3 1_555 1_555
H4 C8 1_555 1_555
C9 C8 1_555 1_555
H5 C9 1_555 1_555
C10 C9 1_555 1_555
H6 C10 1_555 1_555
H7 C10 1_555 1_555
C11 C10 1_555 1_555
H8 C11 1_555 1_555
H9 C11 1_555 1_555
H10 C11 1_555 1_555
O1 C7 1_555 1_555
S1 C3 1_555 1_555
S2 C1 1_555 1_555
C1B H1B 1_555 1_555
C2B C1B 1_555 1_555
H2B C2B 1_555 1_555
C3B C2B 1_555 1_555
C4B C3B 1_555 1_555
C5B C4B 1_555 1_555
C6B C7 1_555 1_555
C7B C6 1_555 1_555
C8B H3B 1_555 1_555
H4B C8B 1_555 1_555
C9B C8B 1_555 1_555
H5B C9B 1_555 1_555
C10B C9B 1_555 1_555
H6B C10B 1_555 1_555
H7B C10B 1_555 1_555
C11B C10B 1_555 1_555
H8B C11B 1_555 1_555
H9B C11B 1_555 1_555
H10B C11B 1_555 1_555
O1B C7B 1_555 1_555
S1B C3B 1_555 1_555
S2B C1B 1_555 1_555
C4 S2 1_555 1_555
C6 S1 1_555 1_555
C8 O1 1_555 1_555
C4B S2B 1_555 1_555
C5B C6B 1_555 1_555
C5B C7B 1_555 1_555
C6B S1B 1_555 1_555
C8B O1B 1_555 1_555

#END
