
#######################################################################
#
#                 Cambridge Crystallographic Data Centre
#                                CCDC 
#
#######################################################################
#
# If this CIF has been generated from an entry in the Cambridge 
# Structural Database, then it will include bibliographic, chemical, 
# crystal, experimental, refinement or atomic coordinate data resulting 
# from the CCDC's data processing and validation procedures.
#
#######################################################################

data_EGOKIW
_chemical_name_common            
5,10-bis(dodecyloxy)dithieno[2,3-d:2',3'-d']benzo[1,2-b:4,5-b']dithiophene
_chemical_formula_moiety         'C38 H54 O2 S4'
_chemical_name_systematic        
5,10-bis(dodecyloxy)thieno[3,2-b]thieno[2',3':4,5]thieno[2,3-f][1]benzothiophene
_symmetry_cell_setting           triclinic
_symmetry_space_group_name_H-M   'P -1'
_symmetry_Int_Tables_number      2
_space_group_name_Hall           '-P 1'
loop_
_symmetry_equiv_pos_site_id
_symmetry_equiv_pos_as_xyz
1 x,y,z
2 -x,-y,-z
_cell_length_a                   7.507(4)
_cell_length_b                   9.506(5)
_cell_length_c                   13.155(7)
_cell_angle_alpha                81.790(6)
_cell_angle_beta                 76.147(6)
_cell_angle_gamma                89.255(6)
_cell_volume                     901.895
_exptl_crystal_colour            yellow
_exptl_crystal_description       block
_chemical_melting_point          '345-346 K'
_cell_formula_units_Z            1
loop_
_atom_site_label
_atom_site_type_symbol
_atom_site_fract_x
_atom_site_fract_y
_atom_site_fract_z
S1 S 0.31752(16) 0.62669(12) 0.48683(10)
S2 S -0.10795(16) 0.79236(12) 0.35720(10)
O1 O 0.2859(4) 0.8939(3) 0.5874(3)
C1 C 0.0835(5) 0.8734(4) 0.4827(3)
C2 C 0.3747(6) 0.9606(4) 0.6528(3)
H1 H 0.2863 0.9795 0.7161
H2 H 0.4318 1.0501 0.6151
C3 C 0.1459(5) 0.9546(4) 0.5492(3)
C4 C 1.1052(6) 0.8143(5) 0.9667(4)
H3 H 1.1690 0.9031 0.9330
H4 H 1.0174 0.8331 1.0303
C5 C 0.7596(6) 0.8144(5) 0.7860(4)
H5 H 0.8480 0.7979 0.7220
H6 H 0.6988 0.7241 0.8189
C6 C 0.0644(6) 0.6842(4) 0.3884(3)
C7 C -0.0608(5) 0.9176(4) 0.4351(3)
C8 C 0.2655(6) 0.5075(5) 0.4107(4)
H7 H 0.3257 0.4222 0.4029
C9 C 1.0014(6) 0.7634(5) 0.8921(4)
H8 H 1.0894 0.7454 0.8284
H9 H 0.9391 0.6739 0.9256
C10 C 0.1521(5) 0.7388(4) 0.4550(3)
C11 C 1.3495(6) 0.7574(5) 1.0721(3)
H10 H 1.4143 0.8461 1.0391
H11 H 1.2637 0.7753 1.1367
C12 C 1.2427(6) 0.7097(5) 0.9978(4)
H12 H 1.3295 0.6906 0.9340
H13 H 1.1783 0.6210 1.0313
C13 C 0.1296(6) 0.5494(5) 0.3637(4)
H14 H 0.0841 0.4969 0.3206
C14 C 0.6183(5) 0.9163(4) 0.7560(3)
H15 H 0.6789 1.0063 0.7223
H16 H 0.5299 0.9335 0.8198
C15 C 1.4855(6) 0.6497(5) 1.0998(4)
H17 H 1.5681 0.6303 1.0346
H18 H 1.4192 0.5619 1.1335
C16 C 0.5168(5) 0.8614(4) 0.6816(3)
H19 H 0.6052 0.8456 0.6174
H20 H 0.4581 0.7706 0.7150
C17 C 0.8618(6) 0.8660(5) 0.8611(4)
H21 H 0.9238 0.9556 0.8278
H22 H 0.7732 0.8836 0.9246
C18 C 1.7291(8) 0.5774(6) 1.1976(5)
H23 H 1.6602 0.4922 1.2321
H24 H 1.7971 0.6086 1.2438
H25 H 1.8125 0.5584 1.1336
C19 C 1.5991(6) 0.6920(5) 1.1714(4)
H26 H 1.5178 0.7128 1.2366
H27 H 1.6694 0.7780 1.1374
S1A S -0.31752(16) 1.37331(12) 0.51317(10)
S2A S 0.10795(16) 1.20764(12) 0.64280(10)
O1A O -0.2859(4) 1.1061(3) 0.4126(3)
C1A C -0.0835(5) 1.1266(4) 0.5173(3)
C2A C -0.3747(6) 1.0394(4) 0.3472(3)
H1A H -0.2863 1.0205 0.2839
H2A H -0.4318 0.9499 0.3849
C3A C -0.1459(5) 1.0454(4) 0.4508(3)
C4A C -1.1052(6) 1.1857(5) 0.0333(4)
H3A H -1.1690 1.0969 0.0670
H4A H -1.0174 1.1669 -0.0303
C5A C -0.7596(6) 1.1856(5) 0.2140(4)
H5A H -0.8480 1.2021 0.2780
H6A H -0.6988 1.2759 0.1811
C6A C -0.0644(6) 1.3158(4) 0.6116(3)
C7A C 0.0608(5) 1.0824(4) 0.5649(3)
C8A C -0.2655(6) 1.4925(5) 0.5893(4)
H7A H -0.3257 1.5778 0.5971
C9A C -1.0014(6) 1.2366(5) 0.1079(4)
H8A H -1.0894 1.2546 0.1716
H9A H -0.9391 1.3261 0.0744
C10A C -0.1521(5) 1.2612(4) 0.5450(3)
C11A C -1.3495(6) 1.2426(5) -0.0721(3)
H10A H -1.4143 1.1539 -0.0391
H11A H -1.2637 1.2247 -0.1367
C12A C -1.2427(6) 1.2903(5) 0.0022(4)
H12A H -1.3295 1.3094 0.0660
H13A H -1.1783 1.3790 -0.0313
C13A C -0.1296(6) 1.4506(5) 0.6363(4)
H14A H -0.0841 1.5031 0.6794
C14A C -0.6183(5) 1.0837(4) 0.2440(3)
H15A H -0.6789 0.9937 0.2777
H16A H -0.5299 1.0665 0.1802
C15A C -1.4855(6) 1.3503(5) -0.0998(4)
H17A H -1.5681 1.3697 -0.0346
H18A H -1.4192 1.4381 -0.1335
C16A C -0.5168(5) 1.1386(4) 0.3184(3)
H19A H -0.6052 1.1544 0.3826
H20A H -0.4581 1.2294 0.2850
C17A C -0.8618(6) 1.1340(5) 0.1389(4)
H21A H -0.9238 1.0444 0.1722
H22A H -0.7732 1.1164 0.0754
C18A C -1.7291(8) 1.4226(6) -0.1976(5)
H23A H -1.6602 1.5078 -0.2321
H24A H -1.7971 1.3914 -0.2438
H25A H -1.8125 1.4416 -0.1336
C19A C -1.5991(6) 1.3080(5) -0.1714(4)
H26A H -1.5178 1.2872 -0.2366
H27A H -1.6694 1.2220 -0.1374
loop_
_geom_bond_atom_site_label_1
_geom_bond_atom_site_label_2
_geom_bond_site_symmetry_1
_geom_bond_site_symmetry_2
S1 C8 1_555 1_555
S2 C6 1_555 1_555
O1 C2 1_555 1_555
C1 C3 1_555 1_555
C2 H1 1_555 1_555
H2 C2 1_555 1_555
C3 O1 1_555 1_555
C4 H3 1_555 1_555
H4 C4 1_555 1_555
C5 H5 1_555 1_555
H6 C5 1_555 1_555
C6 C10 1_555 1_555
C7 S2 1_555 1_555
C8 H7 1_555 1_555
C9 C4 1_555 1_555
H8 C9 1_555 1_555
H9 C9 1_555 1_555
C10 S1 1_555 1_555
C11 H10 1_555 1_555
H11 C11 1_555 1_555
C12 C4 1_555 1_555
H12 C12 1_555 1_555
H13 C12 1_555 1_555
C13 C6 1_555 1_555
H14 C13 1_555 1_555
C14 C5 1_555 1_555
H15 C14 1_555 1_555
H16 C14 1_555 1_555
C15 C11 1_555 1_555
H17 C15 1_555 1_555
H18 C15 1_555 1_555
C16 C2 1_555 1_555
H19 C16 1_555 1_555
H20 C16 1_555 1_555
C17 C5 1_555 1_555
H21 C17 1_555 1_555
H22 C17 1_555 1_555
C18 H23 1_555 1_555
H24 C18 1_555 1_555
H25 C18 1_555 1_555
C19 C15 1_555 1_555
H26 C19 1_555 1_555
H27 C19 1_555 1_555
S1A C8A 1_555 1_555
S2A C6A 1_555 1_555
O1A C2A 1_555 1_555
C1A C3A 1_555 1_555
C2A H1A 1_555 1_555
H2A C2A 1_555 1_555
C3A C7 1_555 1_555
C4A H3A 1_555 1_555
H4A C4A 1_555 1_555
C5A H5A 1_555 1_555
H6A C5A 1_555 1_555
C6A C10A 1_555 1_555
C7A C3 1_555 1_555
C8A H7A 1_555 1_555
C9A C4A 1_555 1_555
H8A C9A 1_555 1_555
H9A C9A 1_555 1_555
C10A S1A 1_555 1_555
C11A H10A 1_555 1_555
H11A C11A 1_555 1_555
C12A C4A 1_555 1_555
H12A C12A 1_555 1_555
H13A C12A 1_555 1_555
C13A C6A 1_555 1_555
H14A C13A 1_555 1_555
C14A C5A 1_555 1_555
H15A C14A 1_555 1_555
H16A C14A 1_555 1_555
C15A C11A 1_555 1_555
H17A C15A 1_555 1_555
H18A C15A 1_555 1_555
C16A C2A 1_555 1_555
H19A C16A 1_555 1_555
H20A C16A 1_555 1_555
C17A C5A 1_555 1_555
H21A C17A 1_555 1_555
H22A C17A 1_555 1_555
C18A H23A 1_555 1_555
H24A C18A 1_555 1_555
H25A C18A 1_555 1_555
C19A C15A 1_555 1_555
H26A C19A 1_555 1_555
H27A C19A 1_555 1_555
C1 C7 1_555 1_555
C1 C10 1_555 1_555
C8 C13 1_555 1_555
C9 C17 1_555 1_555
C11 C12 1_555 1_555
C14 C16 1_555 1_555
C18 C19 1_555 1_555
S2A C7A 1_555 1_555
O1A C3A 1_555 1_555
C1A C7A 1_555 1_555
C1A C10A 1_555 1_555
C8A C13A 1_555 1_555
C9A C17A 1_555 1_555
C11A C12A 1_555 1_555
C14A C16A 1_555 1_555
C18A C19A 1_555 1_555

#END
