
#######################################################################
#
#                 Cambridge Crystallographic Data Centre
#                                CCDC 
#
#######################################################################
#
# If this CIF has been generated from an entry in the Cambridge 
# Structural Database, then it will include bibliographic, chemical, 
# crystal, experimental, refinement or atomic coordinate data resulting 
# from the CCDC's data processing and validation procedures.
#
#######################################################################

data_EGOLIW
_chemical_formula_moiety         'C42 H40 Si1'
_chemical_name_systematic        
13-(4-Methylphenylethynyl)-6-(tri-isopropylsilylethynyl)pentacene
_symmetry_cell_setting           triclinic
_symmetry_space_group_name_H-M   'P -1'
_symmetry_Int_Tables_number      2
_space_group_name_Hall           '-P 1'
loop_
_symmetry_equiv_pos_site_id
_symmetry_equiv_pos_as_xyz
1 x,y,z
2 -x,-y,-z
_cell_length_a                   12.0801(14)
_cell_length_b                   13.1806(15)
_cell_length_c                   13.6258(16)
_cell_angle_alpha                95.3146(18)
_cell_angle_beta                 115.2970(16)
_cell_angle_gamma                116.2079(16)
_cell_volume                     1650.61
_exptl_crystal_colour            'dark blue'
_exptl_crystal_description       prism
_cell_formula_units_Z            2
_exptl_crystal_recrystallization_method dichloromethane/acetone
_exptl_crystal_preparation       luminescent
loop_
_atom_site_label
_atom_site_type_symbol
_atom_site_fract_x
_atom_site_fract_y
_atom_site_fract_z
Si1 Si -0.12628(5) -0.26355(5) -0.17055(4)
C1 C 0.34371(19) 0.02004(17) 0.01186(16)
C2 C 0.4560(2) 0.02210(17) 0.10844(16)
C3 C 0.4308(2) -0.07645(18) 0.14741(17)
H1 H 0.3361 -0.1468 0.1070
C4 C 0.5398(2) -0.07443(18) 0.24291(17)
C5 C 0.5147(3) -0.1742(2) 0.28286(19)
H2 H 0.4207 -0.2455 0.2426
C6 C 0.6235(3) -0.1686(2) 0.3778(2)
H3 H 0.6050 -0.2359 0.4030
C7 C 0.7640(3) -0.0631(2) 0.4391(2)
H4 H 0.8387 -0.0603 0.5056
C8 C 0.7942(3) 0.0337(2) 0.40488(19)
H5 H 0.8895 0.1034 0.4474
C9 C 0.6833(2) 0.03242(19) 0.30466(17)
C10 C 0.7096(2) 0.12970(19) 0.26769(17)
H6 H 0.8047 0.1997 0.3092
C11 C 0.6003(2) 0.12924(17) 0.17020(16)
C12 C 0.6274(2) 0.23058(17) 0.13383(16)
C13 C 0.51579(19) 0.22637(17) 0.03393(16)
C14 C 0.5387(2) 0.32452(17) -0.00520(17)
H7 H 0.6328 0.3956 0.0354
C15 C 0.4290(2) 0.32157(18) -0.10096(17)
C16 C 0.4494(2) 0.4221(2) -0.13948(19)
H8 H 0.5423 0.4945 -0.0990
C17 C 0.3395(3) 0.4166(2) -0.2322(2)
H9 H 0.3563 0.4848 -0.2559
C18 C 0.1988(3) 0.3093(2) -0.29469(19)
H10 H 0.1224 0.3064 -0.3598
C19 C 0.1735(2) 0.2117(2) -0.26175(18)
H11 H 0.0791 0.1408 -0.3042
C20 C 0.2862(2) 0.21320(18) -0.16419(16)
C21 C 0.2622(2) 0.11598(17) -0.12659(16)
H12 H 0.1681 0.0447 -0.1685
C22 C 0.37217(19) 0.11868(17) -0.02813(15)
C23 C 0.1973(2) -0.07984(17) -0.04384(16)
C24 C 0.0707(2) -0.15681(18) -0.09106(17)
C25 C -0.2103(2) -0.17274(19) -0.16674(19)
H13 H -0.1723 -0.1362 -0.0830
C26 C -0.1677(3) -0.0672(2) -0.2091(3)
H14 H -0.0619 -0.0175 -0.1704
H15 H -0.2033 -0.0185 -0.1914
H16 H -0.2103 -0.0975 -0.2930
C27 C -0.3742(2) -0.2529(2) -0.2238(2)
H17 H -0.3976 -0.3198 -0.1944
H18 H -0.4192 -0.2849 -0.3078
H19 H -0.4110 -0.2054 -0.2058
C28 C -0.1710(2) -0.3716(2) -0.0935(2)
H20 H -0.2775 -0.4323 -0.1428
C29 C -0.0960(4) -0.4412(3) -0.0804(4)
H21 H -0.1134 -0.4771 -0.1558
H22 H -0.1347 -0.5052 -0.0512
H23 H 0.0084 -0.3862 -0.0258
C30 C -0.1413(3) -0.3115(3) 0.0235(2)
H24 H -0.1895 -0.2665 0.0138
H25 H -0.0367 -0.2560 0.0768
H26 H -0.1787 -0.3732 0.0552
C31 C -0.1889(5) -0.3657(5) -0.3127(4)
H27 H -0.1164 -0.3891 -0.2973
C32 C -0.1841(7) -0.2971(6) -0.3982(6)
H28 H -0.0873 -0.2242 -0.3621
H29 H -0.2561 -0.2746 -0.4183
H30 H -0.2057 -0.3490 -0.4685
C33 C -0.3333(5) -0.4803(4) -0.3711(4)
H31 H -0.3356 -0.5260 -0.3185
H32 H -0.3501 -0.5283 -0.4412
H33 H -0.4089 -0.4620 -0.3921
C37 C 0.7674(2) 0.33925(18) 0.20074(17)
C38 C 0.8839(2) 0.43083(19) 0.26067(18)
C39 C 1.0232(2) 0.54005(17) 0.33382(17)
C40 C 1.1158(2) 0.55434(18) 0.44633(17)
H41 H 1.0866 0.4909 0.4755
C41 C 1.2495(2) 0.65944(18) 0.51599(17)
H42 H 1.3102 0.6675 0.5930
C42 C 1.2977(2) 0.75350(18) 0.47685(18)
C43 C 1.2055(3) 0.7389(2) 0.3645(2)
H43 H 1.2357 0.8023 0.3355
C44 C 1.0707(2) 0.6345(2) 0.2938(2)
H44 H 1.0098 0.6271 0.2171
C45 C 1.4448(2) 0.8671(2) 0.5522(2)
H45 H 1.5095 0.8681 0.5265
H46 H 1.4845 0.8701 0.6327
H47 H 1.4362 0.9372 0.5466
C34? C -0.1644(5) -0.3296(4) -0.3190(4)
H34? H -0.1088 -0.3700 -0.3071
C35? C -0.1129(6) -0.2416(5) -0.3757(5)
H35? H -0.0108 -0.1784 -0.3214
H36? H -0.1710 -0.2051 -0.3975
H37? H -0.1233 -0.2841 -0.4450
C36? C -0.3232(6) -0.4298(5) -0.4030(5)
H38? H -0.3549 -0.4872 -0.3657
H39? H -0.3334 -0.4716 -0.4726
H40? H -0.3829 -0.3946 -0.4246
loop_
_geom_bond_atom_site_label_1
_geom_bond_atom_site_label_2
_geom_bond_site_symmetry_1
_geom_bond_site_symmetry_2
Si1 C24 1_555 1_555
C1 C2 1_555 1_555
C2 C3 1_555 1_555
C3 H1 1_555 1_555
C4 C3 1_555 1_555
C5 C4 1_555 1_555
H2 C5 1_555 1_555
C6 C5 1_555 1_555
H3 C6 1_555 1_555
C7 C6 1_555 1_555
H4 C7 1_555 1_555
C8 C7 1_555 1_555
H5 C8 1_555 1_555
C9 C4 1_555 1_555
C10 C9 1_555 1_555
H6 C10 1_555 1_555
C11 C2 1_555 1_555
C12 C11 1_555 1_555
C13 C12 1_555 1_555
C14 C13 1_555 1_555
H7 C14 1_555 1_555
C15 C14 1_555 1_555
C16 C15 1_555 1_555
H8 C16 1_555 1_555
C17 C16 1_555 1_555
H9 C17 1_555 1_555
C18 C17 1_555 1_555
H10 C18 1_555 1_555
C19 C18 1_555 1_555
H11 C19 1_555 1_555
C20 C15 1_555 1_555
C21 C20 1_555 1_555
H12 C21 1_555 1_555
C22 C1 1_555 1_555
C23 C1 1_555 1_555
C24 C23 1_555 1_555
C25 Si1 1_555 1_555
H13 C25 1_555 1_555
C26 C25 1_555 1_555
H14 C26 1_555 1_555
H15 C26 1_555 1_555
H16 C26 1_555 1_555
C27 C25 1_555 1_555
H17 C27 1_555 1_555
H18 C27 1_555 1_555
H19 C27 1_555 1_555
C28 Si1 1_555 1_555
H20 C28 1_555 1_555
C29 C28 1_555 1_555
H21 C29 1_555 1_555
H22 C29 1_555 1_555
H23 C29 1_555 1_555
C30 C28 1_555 1_555
H24 C30 1_555 1_555
H25 C30 1_555 1_555
H26 C30 1_555 1_555
C31 Si1 1_555 1_555
H27 C31 1_555 1_555
C32 C31 1_555 1_555
H28 C32 1_555 1_555
H29 C32 1_555 1_555
H30 C32 1_555 1_555
C33 C31 1_555 1_555
H31 C33 1_555 1_555
H32 C33 1_555 1_555
H33 C33 1_555 1_555
C37 C12 1_555 1_555
C38 C37 1_555 1_555
C39 C38 1_555 1_555
C40 C39 1_555 1_555
H41 C40 1_555 1_555
C41 C40 1_555 1_555
H42 C41 1_555 1_555
C42 C41 1_555 1_555
C43 C42 1_555 1_555
H43 C43 1_555 1_555
C44 C39 1_555 1_555
H44 C44 1_555 1_555
C45 C42 1_555 1_555
H45 C45 1_555 1_555
H46 C45 1_555 1_555
H47 C45 1_555 1_555
C8 C9 1_555 1_555
C10 C11 1_555 1_555
C13 C22 1_555 1_555
C19 C20 1_555 1_555
C21 C22 1_555 1_555
C43 C44 1_555 1_555

#END
