
#######################################################################
#
#                 Cambridge Crystallographic Data Centre
#                                CCDC 
#
#######################################################################
#
# If this CIF has been generated from an entry in the Cambridge 
# Structural Database, then it will include bibliographic, chemical, 
# crystal, experimental, refinement or atomic coordinate data resulting 
# from the CCDC's data processing and validation procedures.
#
#######################################################################

data_EGOMOD
_chemical_formula_moiety         'C21 H19 N1 O3'
_chemical_name_systematic        
N-(4-(2-Methoxyphenoxy)phenyl)-N-phenylacetamide
_symmetry_cell_setting           triclinic
_symmetry_space_group_name_H-M   'P -1'
_symmetry_Int_Tables_number      2
_space_group_name_Hall           '-P 1'
loop_
_symmetry_equiv_pos_site_id
_symmetry_equiv_pos_as_xyz
1 x,y,z
2 -x,-y,-z
_cell_length_a                   6.152(4)
_cell_length_b                   11.728(4)
_cell_length_c                   12.367(4)
_cell_angle_alpha                91.34(3)
_cell_angle_beta                 93.22(4)
_cell_angle_gamma                102.61(3)
_cell_volume                     868.807
_exptl_crystal_colour            colorless
_exptl_crystal_description       block
_chemical_melting_point          127-128deg.C
_cell_formula_units_Z            2
loop_
_atom_site_label
_atom_site_type_symbol
_atom_site_fract_x
_atom_site_fract_y
_atom_site_fract_z
O1 O 0.2092(2) 0.94363(12) 0.60762(10)
O2 O 0.51220(18) 0.67553(10) 0.98620(8)
O3 O 0.6857(2) 0.89678(11) 1.05383(11)
N1 N 0.3602(2) 0.79389(11) 0.55811(9)
C1 C 0.5944(3) 0.74862(16) 0.41648(14)
H1 H 0.6867 0.8226 0.4276
C2 C 0.6413(4) 0.67157(18) 0.33951(15)
H2 H 0.7645 0.6944 0.2985
C3 C 0.5093(4) 0.56273(18) 0.32315(16)
H3 H 0.5422 0.5111 0.2715
C4 C 0.3291(4) 0.53010(19) 0.3828(2)
H4 H 0.2384 0.4556 0.3721
C5 C 0.2788(3) 0.60654(17) 0.45956(17)
H5 H 0.1545 0.5836 0.4999
C6 C 0.4123(3) 0.71600(13) 0.47610(11)
C7 C 0.2566(3) 0.88298(14) 0.53476(13)
C8 C 0.2087(3) 0.90418(16) 0.41781(13)
H6 H 0.1126 0.9585 0.4122
H7 H 0.1368 0.8317 0.3809
H8 H 0.3461 0.9360 0.3854
C9 C 0.4033(3) 0.76746(13) 0.66932(11)
C10 C 0.2291(3) 0.72175(14) 0.73242(13)
H9 H 0.0829 0.7098 0.7033
C11 C 0.2702(3) 0.69366(14) 0.83828(12)
H10 H 0.1520 0.6636 0.8805
C12 C 0.4871(3) 0.71038(12) 0.88111(11)
C13 C 0.6629(3) 0.75621(14) 0.81921(12)
H11 H 0.8090 0.7676 0.8483
C14 C 0.6198(3) 0.78512(14) 0.71315(12)
H12 H 0.7378 0.8166 0.6713
C15 C 0.7233(3) 0.70371(14) 1.03905(11)
C16 C 0.8323(3) 0.61555(16) 1.05966(13)
H13 H 0.7684 0.5394 1.0352
C17 C 1.0369(3) 0.6402(2) 1.11669(14)
H14 H 1.1104 0.5806 1.1318
C18 C 1.1315(3) 0.7526(2) 1.15096(14)
H15 H 1.2719 0.7694 1.1873
C19 C 1.0205(3) 0.84167(19) 1.13212(14)
H16 H 1.0856 0.9177 1.1566
C20 C 0.8132(3) 0.81773(15) 1.07697(12)
C21 C 0.7379(5) 1.00575(18) 1.11185(18)
H17 H 0.7384 0.9929 1.1882
H18 H 0.6282 1.0499 1.0923
H19 H 0.8826 1.0484 1.0944
loop_
_geom_bond_atom_site_label_1
_geom_bond_atom_site_label_2
_geom_bond_site_symmetry_1
_geom_bond_site_symmetry_2
O1 C7 1_555 1_555
O2 C12 1_555 1_555
O3 C20 1_555 1_555
N1 C6 1_555 1_555
C1 H1 1_555 1_555
C2 C1 1_555 1_555
H2 C2 1_555 1_555
C3 C2 1_555 1_555
H3 C3 1_555 1_555
C4 C3 1_555 1_555
H4 C4 1_555 1_555
C5 C4 1_555 1_555
H5 C5 1_555 1_555
C6 C1 1_555 1_555
C7 N1 1_555 1_555
C8 C7 1_555 1_555
H6 C8 1_555 1_555
H7 C8 1_555 1_555
H8 C8 1_555 1_555
C9 N1 1_555 1_555
C10 C9 1_555 1_555
H9 C10 1_555 1_555
C11 C10 1_555 1_555
H10 C11 1_555 1_555
C12 C11 1_555 1_555
C13 C12 1_555 1_555
H11 C13 1_555 1_555
C14 C9 1_555 1_555
H12 C14 1_555 1_555
C15 O2 1_555 1_555
C16 C15 1_555 1_555
H13 C16 1_555 1_555
C17 C16 1_555 1_555
H14 C17 1_555 1_555
C18 C17 1_555 1_555
H15 C18 1_555 1_555
C19 C18 1_555 1_555
H16 C19 1_555 1_555
C20 C15 1_555 1_555
C21 O3 1_555 1_555
H17 C21 1_555 1_555
H18 C21 1_555 1_555
H19 C21 1_555 1_555
C5 C6 1_555 1_555
C13 C14 1_555 1_555
C19 C20 1_555 1_555

#END
