
#######################################################################
#
#                 Cambridge Crystallographic Data Centre
#                                CCDC 
#
#######################################################################
#
# If this CIF has been generated from an entry in the Cambridge 
# Structural Database, then it will include bibliographic, chemical, 
# crystal, experimental, refinement or atomic coordinate data resulting 
# from the CCDC's data processing and validation procedures.
#
#######################################################################

data_EGOMUJ
_chemical_formula_moiety         'C24 H27 N5 O9'
_chemical_name_systematic        
'Diethyl (6-((2-(2,4-dinitrophenyl)hydrazinylidene)methyl)-2-phenyl-1,2-oxazinan-3-yl)propanedioate'
_symmetry_cell_setting           triclinic
_symmetry_space_group_name_H-M   'P 1'
_symmetry_Int_Tables_number      1
_space_group_name_Hall           'P 1'
loop_
_symmetry_equiv_pos_site_id
_symmetry_equiv_pos_as_xyz
1 x,y,z
_cell_length_a                   10.8521(4)
_cell_length_b                   11.1482(4)
_cell_length_c                   21.2318(7)
_cell_angle_alpha                82.573(2)
_cell_angle_beta                 86.637(2)
_cell_angle_gamma                82.618(2)
_cell_volume                     2523.68
_exptl_crystal_colour            yellow
_exptl_crystal_description       block
_cell_formula_units_Z            4
loop_
_atom_site_label
_atom_site_type_symbol
_atom_site_fract_x
_atom_site_fract_y
_atom_site_fract_z
C1 C 0.4367(4) 1.1109(4) 1.0444(2)
H1 H 0.4636 1.0572 1.0808
C2 C 0.4647(5) 1.2302(4) 1.0359(2)
H2 H 0.5113 1.2573 1.0667
C3 C 0.4262(5) 1.3100(4) 0.9837(2)
H3 H 0.4470 1.3910 0.9781
C4 C 0.3570(5) 1.2710(4) 0.9398(2)
H4 H 0.3278 1.3261 0.9043
C5 C 0.3297(4) 1.1512(4) 0.9469(2)
H5 H 0.2838 1.1243 0.9158
C6 C 0.3695(4) 1.0705(3) 0.99962(19)
C7 C 0.3416(4) 0.8711(3) 0.9604(2)
H6 H 0.3128 0.9194 0.9198
C8 C 0.4790(4) 0.8180(4) 0.9493(2)
H7 H 0.5224 0.8145 0.9899
C9 C 0.5491(5) 0.8995(4) 0.8958(3)
C10 C 0.7422(7) 0.9178(7) 0.8442(4)
H8 H 0.7140 1.0064 0.8385
H9 H 0.8307 0.9062 0.8552
C11 C 0.7309(7) 0.8693(8) 0.7859(3)
H10 H 0.7492 0.7803 0.7927
H11 H 0.7898 0.9026 0.7536
H12 H 0.6460 0.8918 0.7714
C12 C 0.4923(4) 0.6928(4) 0.9305(2)
C15 C 0.4934(14) 0.5665(7) 0.8508(5)
H18 H 0.4243 0.5206 0.8685
H19 H 0.5730 0.5206 0.8654
C16 C 0.4933(11) 0.5871(8) 0.7791(4)
H20 H 0.5594 0.6364 0.7627
H21 H 0.4127 0.6299 0.7657
H22 H 0.5077 0.5084 0.7623
C17 C 0.2497(4) 0.7777(3) 0.98142(19)
H23 H 0.1638 0.8185 0.9759
H24 H 0.2635 0.7122 0.9535
C18 C 0.2624(4) 0.7206(3) 1.0505(2)
H25 H 0.1870 0.6816 1.0649
H26 H 0.3346 0.6564 1.0531
C19 C 0.2797(3) 0.8144(3) 1.09421(19)
H27 H 0.3087 0.7692 1.1355
C20 C 0.1692(3) 0.9031(3) 1.10857(18)
H28 H 0.1812 0.9848 1.1121
C21 C -0.1486(3) 0.9458(3) 1.14450(17)
C22 C -0.1819(3) 0.8264(3) 1.14613(18)
H29 H -0.1208 0.7627 1.1350
C23 C -0.3012(4) 0.8008(3) 1.16355(18)
H30 H -0.3220 0.7202 1.1652
C24 C -0.3907(3) 0.8952(3) 1.17870(18)
C25 C -0.3650(3) 1.0123(3) 1.17550(17)
H31 H -0.4281 1.0752 1.1854
C26 C -0.2450(4) 1.0387(3) 1.15748(17)
N1 N 0.3280(3) 0.9535(3) 1.00974(16)
N2 N 0.0602(3) 0.8729(3) 1.11623(15)
N3 N -0.0291(3) 0.9661(3) 1.13143(15)
H130 H -0.0078 1.0393 1.1326
N4 N -0.2253(3) 1.1648(3) 1.15234(16)
N5 N -0.5156(3) 0.8673(3) 1.20023(16)
O3 O 0.4999(5) 0.9830(4) 0.8642(2)
O4 O 0.6684(4) 0.8587(4) 0.8965(2)
O5 O 0.4767(4) 0.6925(3) 0.87080(17)
O6 O 0.5143(4) 0.6020(3) 0.96865(19)
O7 O 0.3766(2) 0.8852(2) 1.06703(13)
O8 O -0.1193(3) 1.1933(2) 1.14035(15)
O9 O -0.3154(3) 1.2426(3) 1.15965(19)
O10 O -0.5969(3) 0.9536(3) 1.20775(16)
O11 O -0.5331(3) 0.7601(3) 1.21093(15)
C27 C 0.7805(5) 0.2428(4) 0.9757(2)
H32 H 0.7094 0.3023 0.9746
C28 C 0.7661(6) 0.1217(5) 0.9738(3)
H33 H 0.6853 0.0990 0.9712
C29 C 0.8681(8) 0.0338(4) 0.9756(3)
H34 H 0.8581 -0.0494 0.9748
C30 C 0.9826(8) 0.0682(5) 0.9785(3)
H35 H 1.0531 0.0082 0.9783
C31 C 1.0001(6) 0.1874(4) 0.9817(3)
H36 H 1.0812 0.2084 0.9856
C32 C 0.8966(4) 0.2774(3) 0.97909(19)
C33 C 1.0150(4) 0.4581(4) 0.9484(2)
H37 H 1.0936 0.4002 0.9502
C34 C 0.9839(5) 0.4954(5) 0.8776(2)
H38 H 0.8987 0.5415 0.8746
C35 C 0.9903(6) 0.3789(6) 0.8455(3)
C36 C 0.8728(15) 0.2560(9) 0.7960(7)
H39 H 0.9027 0.1821 0.8246
H40 H 0.9209 0.2565 0.7549
C37 C 0.7345(16) 0.2648(14) 0.7870(10)
H41 H 0.6894 0.2706 0.8280
H42 H 0.7161 0.1921 0.7696
H43 H 0.7085 0.3375 0.7574
C40 C 1.0792(6) 0.5724(6) 0.8434(3)
C41 C 1.0896(18) 0.7689(13) 0.7751(6)
H49 H 1.0317 0.8175 0.7446
H50 H 1.1595 0.7262 0.7513
C42 C 1.136(2) 0.848(2) 0.8188(6)
H51 H 1.0689 0.8721 0.8492
H52 H 1.1630 0.9206 0.7937
H53 H 1.2062 0.8020 0.8419
C45 C 1.0334(5) 0.5667(5) 0.9831(2)
H59 H 1.0723 0.5359 1.0241
H60 H 1.0909 0.6172 0.9571
C46 C 0.9119(5) 0.6453(4) 0.9957(2)
H61 H 0.8844 0.6942 0.9556
H62 H 0.9248 0.7023 1.0262
C47 C 0.8115(4) 0.5671(3) 1.0228(2)
H63 H 0.7304 0.6207 1.0246
C48 C 0.8335(4) 0.4998(3) 1.08750(19)
H64 H 0.7896 0.4323 1.1018
C49 C 1.0051(3) 0.4761(3) 1.22261(18)
C50 C 1.0796(3) 0.5740(3) 1.20799(18)
H65 H 1.0710 0.6239 1.1683
C51 C 1.1619(3) 0.5978(3) 1.2489(2)
H66 H 1.2087 0.6645 1.2383
C52 C 1.1777(4) 0.5229(3) 1.3073(2)
C53 C 1.1130(4) 0.4254(3) 1.3227(2)
H67 H 1.1268 0.3737 1.3615
C54 C 1.0269(4) 0.4021(3) 1.28140(19)
N6 N 0.9166(3) 0.3976(3) 0.98538(16)
N7 N 0.9101(3) 0.5309(3) 1.12408(16)
N8 N 0.9209(3) 0.4583(3) 1.18215(15)
H131 H 0.8725 0.4006 1.1924
N9 N 0.9573(3) 0.3008(3) 1.30270(16)
N10 N 1.2640(4) 0.5503(4) 1.35172(19)
O12 O 1.0780(5) 0.3073(6) 0.8409(3)
O13 O 0.8796(5) 0.3691(4) 0.8254(2)
O14 O 1.1892(4) 0.5408(6) 0.8401(3)
O15 O 1.0243(4) 0.6807(4) 0.8200(2)
O16 O 0.8017(3) 0.4780(2) 0.98045(14)
O17 O 1.3076(3) 0.6465(3) 1.34088(18)
O18 O 1.2868(5) 0.4755(4) 1.3982(2)
O19 O 0.9809(3) 0.2400(3) 1.35393(15)
O20 O 0.8752(3) 0.2794(2) 1.26895(14)
C55 C -0.0301(4) 0.7310(4) 0.4677(2)
H68 H 0.0456 0.6807 0.4606
C56 C -0.1418(5) 0.6812(4) 0.4770(3)
H69 H -0.1413 0.5958 0.4775
C57 C -0.2524(5) 0.7528(5) 0.4853(3)
H70 H -0.3280 0.7174 0.4913
C58 C -0.2532(5) 0.8774(5) 0.4849(3)
H71 H -0.3298 0.9274 0.4906
C59 C -0.1435(4) 0.9292(4) 0.4762(2)
H72 H -0.1449 1.0148 0.4752
C60 C -0.0307(4) 0.8557(3) 0.46900(19)
C61 C 0.1139(4) 0.9602(3) 0.51996(18)
H73 H 0.0430 1.0195 0.5331
C62 C 0.1370(4) 0.8556(3) 0.5765(2)
H74 H 0.1798 0.7809 0.5594
C63 C 0.0144(5) 0.8260(4) 0.6100(2)
C64 C -0.0971(6) 0.6648(5) 0.6560(3)
H75 H -0.1676 0.6959 0.6284
H76 H -0.1151 0.6965 0.6974
C65 C -0.0826(8) 0.5312(6) 0.6653(4)
H77 H -0.0692 0.5004 0.6240
H78 H -0.1579 0.5030 0.6869
H79 H -0.0109 0.5009 0.6914
C66 C 0.2174(4) 0.8912(4) 0.6246(2)
C67 C 0.4242(5) 0.8722(5) 0.6600(3)
H80 H 0.4067 0.8391 0.7047
H81 H 0.4193 0.9620 0.6573
C68 C 0.5494(5) 0.8200(5) 0.6377(3)
H82 H 0.5535 0.7311 0.6413
H83 H 0.6125 0.8419 0.6639
H84 H 0.5650 0.8525 0.5933
C69 C 0.2255(4) 1.0318(3) 0.4992(2)
H85 H 0.1972 1.1051 0.4697
H86 H 0.2573 1.0592 0.5370
C70 C 0.3303(4) 0.9554(4) 0.4666(2)
H87 H 0.3730 0.8940 0.4986
H88 H 0.3918 1.0085 0.4465
C71 C 0.2805(4) 0.8913(4) 0.4162(2)
H89 H 0.3491 0.8298 0.4028
C72 C 0.2385(4) 0.9728(4) 0.35727(19)
H90 H 0.1737 0.9530 0.3338
C73 C 0.3174(3) 1.2212(3) 0.25374(19)
C74 C 0.4160(4) 1.2539(3) 0.2857(2)
H91 H 0.4340 1.2134 0.3269
C75 C 0.4870(4) 1.3425(3) 0.2591(2)
H92 H 0.5546 1.3612 0.2811
C76 C 0.4584(4) 1.4043(3) 0.19987(19)
C77 C 0.3641(4) 1.3782(3) 0.16638(19)
H93 H 0.3470 1.4210 0.1256
C78 C 0.2932(3) 1.2877(3) 0.19315(19)
N11 N 0.0799(3) 0.9143(3) 0.46187(16)
N12 N 0.2900(3) 1.0683(3) 0.33904(16)
N13 N 0.2515(3) 1.1327(3) 0.28176(16)
H132 H 0.1853 1.1161 0.2641
N14 N 0.1979(3) 1.2602(3) 0.15419(18)
N15 N 0.5380(3) 1.4945(3) 0.17086(18)
O21 O -0.0711(3) 0.8994(3) 0.62270(18)
O22 O 0.0179(3) 0.7063(3) 0.62635(16)
O23 O 0.1821(4) 0.9573(3) 0.66434(17)
O24 O 0.3336(3) 0.8382(3) 0.61829(16)
O25 O 0.1803(3) 0.8261(2) 0.44361(14)
O26 O 0.1399(3) 1.1720(3) 0.17405(16)
O27 O 0.1741(3) 1.3254(3) 0.10429(16)
O28 O 0.5140(3) 1.5488(3) 0.11904(19)
O29 O 0.6283(3) 1.5095(3) 0.19977(16)
C79 C 0.9122(5) 0.3426(4) 0.4963(3)
H94 H 0.8772 0.3844 0.4584
C80 C 1.0322(6) 0.3593(5) 0.5111(3)
H95 H 1.0782 0.4132 0.4837
C81 C 1.0838(6) 0.2967(6) 0.5660(4)
H96 H 1.1645 0.3093 0.5769
C82 C 1.0172(6) 0.2157(5) 0.6049(3)
H97 H 1.0547 0.1703 0.6414
C83 C 0.8995(5) 0.2000(4) 0.5922(3)
H98 H 0.8550 0.1455 0.6201
C84 C 0.8432(5) 0.2645(4) 0.5373(2)
C85 C 0.6353(5) 0.2002(4) 0.5696(2)
H99 H 0.6775 0.1222 0.5914
C86 C 0.6042(5) 0.2844(4) 0.6225(2)
H100 H 0.6863 0.2935 0.6392
C87 C 0.5427(6) 0.4141(4) 0.6046(2)
C88 C 0.3584(10) 0.5378(8) 0.5701(5)
H101 H 0.3635 0.5865 0.6054
H102 H 0.2700 0.5289 0.5651
C89 C 0.4154(9) 0.6010(7) 0.5072(4)
H103 H 0.3691 0.6818 0.4965
H104 H 0.4102 0.5514 0.4728
H105 H 0.5027 0.6094 0.5130
C92 C 0.5347(6) 0.2184(4) 0.6776(2)
O2 O 0.4543(9) 0.2938(5) 0.7094(3)
C95 C 0.3789(12) 0.2416(9) 0.7623(4)
H116 H 0.3501 0.3043 0.7907
H117 H 0.4298 0.1738 0.7872
C96 C 0.2684(12) 0.1952(11) 0.7385(6)
H118 H 0.2301 0.2559 0.7055
H119 H 0.2077 0.1808 0.7738
H120 H 0.2954 0.1188 0.7207
C97 C 0.5249(5) 0.1637(4) 0.5365(2)
H121 H 0.5490 0.0811 0.5239
H122 H 0.4539 0.1588 0.5678
C98 C 0.4805(4) 0.2501(3) 0.4770(2)
H123 H 0.4388 0.2044 0.4492
H124 H 0.4192 0.3168 0.4902
C99 C 0.5894(4) 0.3043(3) 0.43967(19)
H125 H 0.5534 0.3764 0.4106
C100 C 0.6725(4) 0.2247(3) 0.39984(19)
H126 H 0.7540 0.2447 0.3884
C101 C 0.7183(3) -0.0472(3) 0.33336(17)
C102 C 0.6008(3) -0.0918(3) 0.34488(19)
H127 H 0.5296 -0.0374 0.3548
C103 C 0.5886(3) -0.2120(3) 0.34193(18)
H128 H 0.5094 -0.2403 0.3490
C104 C 0.6931(4) -0.2921(3) 0.32844(19)
C105 C 0.8074(4) -0.2523(3) 0.31395(18)
H129 H 0.8776 -0.3079 0.3040
C106 C 0.8186(3) -0.1297(3) 0.31404(19)
N16 N 0.7246(4) 0.2419(3) 0.52043(17)
N17 N 0.6392(3) 0.1305(3) 0.38033(15)
N18 N 0.7292(3) 0.0693(3) 0.34270(16)
H133 H 0.7923 0.1055 0.3252
N19 N 0.9395(3) -0.0928(3) 0.29562(17)
N20 N 0.6819(3) -0.4211(3) 0.33195(17)
O30 O 0.5925(5) 0.5009(3) 0.6125(3)
O31 O 0.4308(4) 0.4186(3) 0.58283(17)
O32 O 0.5486(4) 0.1110(3) 0.69131(17)
O33 O 0.6657(3) 0.3487(2) 0.48261(14)
O34 O 0.5777(3) -0.4518(3) 0.33882(16)
O35 O 0.7769(3) -0.4928(3) 0.3288(2)
O36 O 1.0270(3) -0.1711(3) 0.28764(19)
O37 O 0.9510(3) 0.0171(2) 0.28779(16)
C13? C 0.508(3) 0.5804(17) 0.8379(13)
H13? H 0.4354 0.5699 0.8141
H14? H 0.5217 0.5090 0.8708
C14? C 0.622(3) 0.5789(19) 0.7921(10)
H15? H 0.6074 0.6450 0.7571
H16? H 0.6363 0.5005 0.7749
H17? H 0.6949 0.5902 0.8147
C38? C 0.870(6) 0.2388(13) 0.818(3)
H44? H 0.8365 0.1978 0.8586
H45? H 0.9540 0.1967 0.8092
C39? C 0.786(6) 0.229(5) 0.765(2)
H46? H 0.7010 0.2218 0.7821
H47? H 0.8168 0.1570 0.7438
H48? H 0.7851 0.3023 0.7336
C43? C 1.1249(18) 0.7610(18) 0.8004(14)
H54? H 1.1524 0.7531 0.7556
H55? H 1.1973 0.7333 0.8271
C44? C 1.081(3) 0.894(2) 0.8068(17)
H56? H 1.0058 0.9200 0.7825
H57? H 1.1461 0.9438 0.7904
H58? H 1.0612 0.9031 0.8517
C90? C 0.409(3) 0.5443(17) 0.5531(19)
H106? H 0.4648 0.5605 0.5151
H107? H 0.4160 0.6038 0.5832
C91? C 0.276(2) 0.540(2) 0.5364(15)
H108? H 0.2407 0.6199 0.5164
H109? H 0.2263 0.5166 0.5752
H110? H 0.2741 0.4792 0.5069
O1? O 0.503(4) 0.309(2) 0.7133(12)
C93? C 0.448(6) 0.246(4) 0.7700(14)
H111? H 0.4381 0.2992 0.8044
H112? H 0.5031 0.1712 0.7845
C94? C 0.321(5) 0.213(6) 0.755(3)
H113? H 0.2572 0.2827 0.7605
H114? H 0.3010 0.1425 0.7846
H115? H 0.3231 0.1943 0.7115
loop_
_geom_bond_atom_site_label_1
_geom_bond_atom_site_label_2
_geom_bond_site_symmetry_1
_geom_bond_site_symmetry_2
C1 H1 1_555 1_555
C2 C1 1_555 1_555
H2 C2 1_555 1_555
C3 C2 1_555 1_555
H3 C3 1_555 1_555
C4 C3 1_555 1_555
H4 C4 1_555 1_555
C5 C4 1_555 1_555
H5 C5 1_555 1_555
C6 C1 1_555 1_555
C7 H6 1_555 1_555
C8 C7 1_555 1_555
H7 C8 1_555 1_555
C9 C8 1_555 1_555
C10 H8 1_555 1_555
H9 C10 1_555 1_555
C11 C10 1_555 1_555
H10 C11 1_555 1_555
H11 C11 1_555 1_555
H12 C11 1_555 1_555
C12 C8 1_555 1_555
C15 H18 1_555 1_555
H19 C15 1_555 1_555
C16 C15 1_555 1_555
H20 C16 1_555 1_555
H21 C16 1_555 1_555
H22 C16 1_555 1_555
C17 C7 1_555 1_555
H23 C17 1_555 1_555
H24 C17 1_555 1_555
C18 C17 1_555 1_555
H25 C18 1_555 1_555
H26 C18 1_555 1_555
C19 C18 1_555 1_555
H27 C19 1_555 1_555
C20 C19 1_555 1_555
H28 C20 1_555 1_555
C21 C22 1_555 1_555
C22 H29 1_555 1_555
C23 C22 1_555 1_555
H30 C23 1_555 1_555
C24 C23 1_555 1_555
C25 C24 1_555 1_555
H31 C25 1_555 1_555
C26 C21 1_555 1_555
C27 H32 1_555 1_555
C28 C27 1_555 1_555
H33 C28 1_555 1_555
C29 C28 1_555 1_555
H34 C29 1_555 1_555
C30 C29 1_555 1_555
H35 C30 1_555 1_555
C31 C30 1_555 1_555
H36 C31 1_555 1_555
C32 C27 1_555 1_555
C33 H37 1_555 1_555
C34 C33 1_555 1_555
H38 C34 1_555 1_555
C35 C34 1_555 1_555
C36 H39 1_555 1_555
H40 C36 1_555 1_555
C37 C36 1_555 1_555
H41 C37 1_555 1_555
H42 C37 1_555 1_555
H43 C37 1_555 1_555
C40 C34 1_555 1_555
C41 H49 1_555 1_555
H50 C41 1_555 1_555
C42 C41 1_555 1_555
H51 C42 1_555 1_555
H52 C42 1_555 1_555
H53 C42 1_555 1_555
C45 C33 1_555 1_555
H59 C45 1_555 1_555
H60 C45 1_555 1_555
C46 C45 1_555 1_555
H61 C46 1_555 1_555
H62 C46 1_555 1_555
C47 C46 1_555 1_555
H63 C47 1_555 1_555
C48 C47 1_555 1_555
H64 C48 1_555 1_555
C49 C50 1_555 1_555
C50 H65 1_555 1_555
C51 C50 1_555 1_555
H66 C51 1_555 1_555
C52 C51 1_555 1_555
C53 C52 1_555 1_555
H67 C53 1_555 1_555
C54 C49 1_555 1_555
C55 H68 1_555 1_555
C56 C55 1_555 1_555
H69 C56 1_555 1_555
C57 C56 1_555 1_555
H70 C57 1_555 1_555
C58 C57 1_555 1_555
H71 C58 1_555 1_555
C59 C58 1_555 1_555
H72 C59 1_555 1_555
C60 C55 1_555 1_555
C61 H73 1_555 1_555
C62 C61 1_555 1_555
H74 C62 1_555 1_555
C63 C62 1_555 1_555
C64 H75 1_555 1_555
H76 C64 1_555 1_555
C65 C64 1_555 1_555
H77 C65 1_555 1_555
H78 C65 1_555 1_555
H79 C65 1_555 1_555
C66 C62 1_555 1_555
C67 H80 1_555 1_555
H81 C67 1_555 1_555
C68 C67 1_555 1_555
H82 C68 1_555 1_555
H83 C68 1_555 1_555
H84 C68 1_555 1_555
C69 C61 1_555 1_555
H85 C69 1_555 1_555
H86 C69 1_555 1_555
C70 C69 1_555 1_555
H87 C70 1_555 1_555
H88 C70 1_555 1_555
C71 C70 1_555 1_555
H89 C71 1_555 1_555
C72 C71 1_555 1_555
H90 C72 1_555 1_555
C73 C74 1_555 1_555
C74 H91 1_555 1_555
C75 C74 1_555 1_555
H92 C75 1_555 1_555
C76 C75 1_555 1_555
C77 C76 1_555 1_555
H93 C77 1_555 1_555
C78 C73 1_555 1_555
C79 H94 1_555 1_555
C80 C79 1_555 1_555
H95 C80 1_555 1_555
C81 C80 1_555 1_555
H96 C81 1_555 1_555
C82 C81 1_555 1_555
H97 C82 1_555 1_555
C83 C82 1_555 1_555
H98 C83 1_555 1_555
C84 C79 1_555 1_555
C85 H99 1_555 1_555
C86 C85 1_555 1_555
H100 C86 1_555 1_555
C87 C86 1_555 1_555
C88 H101 1_555 1_555
H102 C88 1_555 1_555
C89 C88 1_555 1_555
H103 C89 1_555 1_555
H104 C89 1_555 1_555
H105 C89 1_555 1_555
C92 C86 1_555 1_555
O2 C92 1_555 1_555
C95 O2 1_555 1_555
H116 C95 1_555 1_555
H117 C95 1_555 1_555
C96 C95 1_555 1_555
H118 C96 1_555 1_555
H119 C96 1_555 1_555
H120 C96 1_555 1_555
C97 C85 1_555 1_555
H121 C97 1_555 1_555
H122 C97 1_555 1_555
C98 C97 1_555 1_555
H123 C98 1_555 1_555
H124 C98 1_555 1_555
C99 C98 1_555 1_555
H125 C99 1_555 1_555
C100 C99 1_555 1_555
H126 C100 1_555 1_555
C101 C102 1_555 1_555
C102 H127 1_555 1_555
C103 C102 1_555 1_555
H128 C103 1_555 1_555
C104 C103 1_555 1_555
C105 C104 1_555 1_555
H129 C105 1_555 1_555
C106 C101 1_555 1_555
N1 C6 1_555 1_555
N2 C20 1_555 1_555
N3 C21 1_555 1_555
H130 N3 1_555 1_555
N4 C26 1_555 1_555
N5 C24 1_555 1_555
N6 C32 1_555 1_555
N7 C48 1_555 1_555
N8 C49 1_555 1_555
H131 N8 1_555 1_555
N9 C54 1_555 1_555
N10 C52 1_555 1_555
N11 C60 1_555 1_555
N12 C72 1_555 1_555
N13 C73 1_555 1_555
H132 N13 1_555 1_555
N14 C78 1_555 1_555
N15 C76 1_555 1_555
N16 C84 1_555 1_555
N17 C100 1_555 1_555
N18 C101 1_555 1_555
H133 N18 1_555 1_555
N19 C106 1_555 1_555
N20 C104 1_555 1_555
O3 C9 1_555 1_555
O4 C9 1_555 1_555
O5 C12 1_555 1_555
O6 C12 1_555 1_555
O7 C19 1_555 1_555
O8 N4 1_555 1_555
O9 N4 1_555 1_555
O10 N5 1_555 1_555
O11 N5 1_555 1_555
O12 C35 1_555 1_555
O13 C35 1_555 1_555
O14 C40 1_555 1_555
O15 C40 1_555 1_555
O16 C47 1_555 1_555
O17 N10 1_555 1_555
O18 N10 1_555 1_555
O19 N9 1_555 1_555
O20 N9 1_555 1_555
O21 C63 1_555 1_555
O22 C63 1_555 1_555
O23 C66 1_555 1_555
O24 C66 1_555 1_555
O25 C71 1_555 1_555
O26 N14 1_555 1_555
O27 N14 1_555 1_555
O28 N15 1_555 1_555
O29 N15 1_555 1_555
O30 C87 1_555 1_555
O31 C87 1_555 1_555
O32 C92 1_555 1_555
O33 C99 1_555 1_555
O34 N20 1_555 1_555
O35 N20 1_555 1_555
O36 N19 1_555 1_555
O37 N19 1_555 1_555
C5 C6 1_555 1_555
C7 N1 1_555 1_555
C10 O4 1_555 1_555
C15 O5 1_555 1_555
C25 C26 1_555 1_555
C31 C32 1_555 1_555
C33 N6 1_555 1_555
C36 O13 1_555 1_555
C41 O15 1_555 1_555
C53 C54 1_555 1_555
C59 C60 1_555 1_555
C61 N11 1_555 1_555
C64 O22 1_555 1_555
C67 O24 1_555 1_555
C77 C78 1_555 1_555
C83 C84 1_555 1_555
C85 N16 1_555 1_555
C88 O31 1_555 1_555
C105 C106 1_555 1_555
N1 O7 1_555 1_555
N2 N3 1_555 1_555
N6 O16 1_555 1_555
N7 N8 1_555 1_555
N11 O25 1_555 1_555
N12 N13 1_555 1_555
N16 O33 1_555 1_555
N17 N18 1_555 1_555

#END
