
#######################################################################
#
#                 Cambridge Crystallographic Data Centre
#                                CCDC 
#
#######################################################################
#
# If this CIF has been generated from an entry in the Cambridge 
# Structural Database, then it will include bibliographic, chemical, 
# crystal, experimental, refinement or atomic coordinate data resulting 
# from the CCDC's data processing and validation procedures.
#
#######################################################################

data_EGOPAR
_chemical_formula_moiety         'C18 H26 N2 O5'
_chemical_name_systematic        
'Methyl butoxycarbonyl-(\a-aminoisobutyrato)-3-aminophenylacetate'
_symmetry_cell_setting           orthorhombic
_symmetry_space_group_name_H-M   'P b c a'
_symmetry_Int_Tables_number      61
_space_group_name_Hall           '-P 2ac 2ab'
loop_
_symmetry_equiv_pos_site_id
_symmetry_equiv_pos_as_xyz
1 x,y,z
2 1/2+x,y,1/2-z
3 x,1/2-y,1/2+z
4 1/2-x,1/2+y,z
5 -x,-y,-z
6 1/2-x,-y,1/2+z
7 -x,1/2+y,1/2-z
8 1/2+x,1/2-y,-z
_cell_length_a                   14.6620(3)
_cell_length_b                   9.5430(2)
_cell_length_c                   27.75410(10)
_cell_angle_alpha                90
_cell_angle_beta                 90
_cell_angle_gamma                90
_cell_volume                     3883.34
_cell_formula_units_Z            8
_exptl_crystal_recrystallization_method dichloromethane/n-hexane
loop_
_atom_site_label
_atom_site_type_symbol
_atom_site_fract_x
_atom_site_fract_y
_atom_site_fract_z
O1 O 0.34130(8) 0.94710(11) 0.36996(4)
O2 O 0.31260(8) 0.74776(11) 0.32771(4)
O3 O 0.18420(9) 0.68862(11) 0.22909(4)
O4 O 0.15724(11) 0.74415(18) 0.04255(6)
O5 O 0.20973(10) 0.58023(15) -0.00666(5)
N1 N 0.23043(9) 0.94574(12) 0.31580(4)
H1 H 0.2287 1.0348 0.3204
N2 N 0.27047(9) 0.88353(13) 0.21763(4)
H2 H 0.2878 0.9591 0.2318
C1 C 0.42347(12) 0.89138(18) 0.39491(6)
C2 C 0.40070(16) 0.7606(2) 0.42289(8)
H3 H 0.3522 0.7804 0.4451
H4 H 0.4536 0.7300 0.4403
H5 H 0.3817 0.6883 0.4010
C3 C 0.44510(16) 1.0095(2) 0.42994(7)
H6 H 0.3956 1.0202 0.4523
H7 H 0.4534 1.0952 0.4124
H8 H 0.4999 0.9876 0.4473
C4 C 0.49908(15) 0.8700(3) 0.35900(8)
H9 H 0.5106 0.9563 0.3423
H10 H 0.4815 0.7993 0.3362
H11 H 0.5534 0.8409 0.3755
C5 C 0.29647(10) 0.86959(15) 0.33720(5)
C6 C 0.16146(10) 0.88013(15) 0.28474(5)
C7 C 0.10081(12) 0.99711(18) 0.26473(6)
H12 H 0.1376 1.0628 0.2472
H13 H 0.0710 1.0444 0.2909
H14 H 0.0558 0.9575 0.2436
C8 C 0.10369(12) 0.77485(17) 0.31279(6)
H15 H 0.1422 0.7020 0.3252
H16 H 0.0587 0.7348 0.2918
H17 H 0.0738 0.8217 0.3390
C9 C 0.20797(11) 0.80644(15) 0.24144(5)
C10 C 0.31131(10) 0.85654(15) 0.17235(5)
C11 C 0.28457(11) 0.74720(16) 0.14229(6)
H18 H 0.2400 0.6846 0.1525
C12 C 0.32412(11) 0.73090(16) 0.09700(6)
C13 C 0.39006(11) 0.82397(18) 0.08181(6)
H19 H 0.4163 0.8138 0.0515
C14 C 0.41740(11) 0.93288(18) 0.11171(6)
H20 H 0.4620 0.9954 0.1014
C15 C 0.37856(10) 0.94870(16) 0.15683(6)
H21 H 0.3975 1.0213 0.1768
C16 C 0.29203(12) 0.61467(19) 0.06410(6)
H22 H 0.3421 0.5865 0.0434
H23 H 0.2749 0.5343 0.0835
C17 C 0.21236(12) 0.65682(19) 0.03333(6)
C18 C 0.1363(2) 0.6085(3) -0.03974(10)
H24 H 0.1413 0.5474 -0.0671
H25 H 0.1397 0.7042 -0.0503
H26 H 0.0790 0.5927 -0.0239
loop_
_geom_bond_atom_site_label_1
_geom_bond_atom_site_label_2
_geom_bond_site_symmetry_1
_geom_bond_site_symmetry_2
O1 C1 1_555 1_555
O2 C5 1_555 1_555
O3 C9 1_555 1_555
O4 C17 1_555 1_555
O5 C17 1_555 1_555
N1 H1 1_555 1_555
N2 H2 1_555 1_555
C1 C2 1_555 1_555
C2 H3 1_555 1_555
H4 C2 1_555 1_555
H5 C2 1_555 1_555
C3 C1 1_555 1_555
H6 C3 1_555 1_555
H7 C3 1_555 1_555
H8 C3 1_555 1_555
C4 C1 1_555 1_555
H9 C4 1_555 1_555
H10 C4 1_555 1_555
H11 C4 1_555 1_555
C5 O1 1_555 1_555
C6 N1 1_555 1_555
C7 C6 1_555 1_555
H12 C7 1_555 1_555
H13 C7 1_555 1_555
H14 C7 1_555 1_555
C8 C6 1_555 1_555
H15 C8 1_555 1_555
H16 C8 1_555 1_555
H17 C8 1_555 1_555
C9 N2 1_555 1_555
C10 N2 1_555 1_555
C11 C10 1_555 1_555
H18 C11 1_555 1_555
C12 C11 1_555 1_555
C13 C12 1_555 1_555
H19 C13 1_555 1_555
C14 C13 1_555 1_555
H20 C14 1_555 1_555
C15 C10 1_555 1_555
H21 C15 1_555 1_555
C16 C12 1_555 1_555
H22 C16 1_555 1_555
H23 C16 1_555 1_555
C17 C16 1_555 1_555
C18 O5 1_555 1_555
H24 C18 1_555 1_555
H25 C18 1_555 1_555
H26 C18 1_555 1_555
N1 C5 1_555 1_555
C6 C9 1_555 1_555
C14 C15 1_555 1_555

#END
