
#######################################################################
#
#                 Cambridge Crystallographic Data Centre
#                                CCDC 
#
#######################################################################
#
# If this CIF has been generated from an entry in the Cambridge 
# Structural Database, then it will include bibliographic, chemical, 
# crystal, experimental, refinement or atomic coordinate data resulting 
# from the CCDC's data processing and validation procedures.
#
#######################################################################

data_EGOTOL
_chemical_formula_moiety         'C20 H30 O4,H2 O1'
_chemical_name_systematic        
'3,14,15-trihydroxyatis-16-en-7-one monohydrate'
_symmetry_cell_setting           orthorhombic
_symmetry_space_group_name_H-M   'P 21 21 21'
_symmetry_Int_Tables_number      19
_space_group_name_Hall           'P 2ac 2ab'
loop_
_symmetry_equiv_pos_site_id
_symmetry_equiv_pos_as_xyz
1 x,y,z
2 1/2+x,1/2-y,-z
3 -x,1/2+y,1/2-z
4 1/2-x,-y,1/2+z
_cell_length_a                   7.19610(10)
_cell_length_b                   11.6805(2)
_cell_length_c                   21.1935(3)
_cell_angle_alpha                90
_cell_angle_beta                 90
_cell_angle_gamma                90
_cell_volume                     1781.4
_exptl_crystal_colour            colorless
_exptl_crystal_description       prism
_cell_formula_units_Z            4
loop_
_atom_site_label
_atom_site_type_symbol
_atom_site_fract_x
_atom_site_fract_y
_atom_site_fract_z
O1 O 0.22519(16) 0.22263(9) 0.88243(5)
H1 H 0.140(2) 0.2085(18) 0.9082(8)
H2 H 0.3174(19) 0.1957(17) 0.8998(9)
O2 O 0.33757(16) 0.54833(9) 0.36006(5)
H3 H 0.3148 0.6180 0.3662
O3 O 0.07982(15) 0.58123(9) -0.03172(4)
H4 H 0.1130 0.5408 -0.0625
O4 O 0.43823(15) 0.31050(8) 0.03396(4)
H5 H 0.4543 0.2560 0.0087
O5 O 0.04459(15) 0.37010(8) 0.05417(5)
C1 C 0.3741(2) 0.52960(12) 0.29442(6)
H6 H 0.4337 0.4525 0.2908
C2 C 0.1923(2) 0.52474(12) 0.25578(7)
C3 C 0.2484(2) 0.50703(12) 0.18511(6)
H7 H 0.3095 0.4302 0.1837
C4 C 0.3929(2) 0.59073(12) 0.15680(6)
C5 C 0.4578(2) 0.53454(12) 0.09350(6)
H8 H 0.5178 0.4610 0.1065
C6 C 0.3033(2) 0.49853(11) 0.04560(6)
C7 C 0.3912(2) 0.41244(12) -0.00073(6)
H9 H 0.2987 0.3928 -0.0342
C8 C 0.5606(2) 0.46754(12) -0.03118(6)
C9 C 0.6773(2) 0.41138(12) -0.06811(7)
H10 H 0.7821 0.4496 -0.0854
H11 H 0.6564 0.3328 -0.0773
C10 C 0.0722(2) 0.63119(13) 0.26703(7)
H12 H -0.0308 0.6321 0.2368
H13 H 0.1481 0.7001 0.2614
H14 H 0.0226 0.6295 0.3101
C11 C 0.3229(2) 0.71499(12) 0.14903(7)
H15 H 0.3393 0.7565 0.1888
H16 H 0.1909 0.7142 0.1376
H17 H 0.3941 0.7531 0.1157
C12 C 0.5640(2) 0.59214(13) 0.20071(6)
H18 H 0.6278 0.5172 0.1980
H19 H 0.6519 0.6515 0.1858
C13 C 0.5140(2) 0.61621(13) 0.26997(7)
H20 H 0.6279 0.6129 0.2961
H21 H 0.4613 0.6942 0.2736
C14 C 0.2360(2) 0.60530(12) 0.00681(6)
H22 H 0.1963 0.6647 0.0380
C15 C 0.4019(2) 0.65556(12) -0.03004(7)
H23 H 0.3778 0.6492 -0.0759
H24 H 0.4156 0.7377 -0.0196
C16 C 0.5818(2) 0.59229(12) -0.01377(6)
H25 H 0.6892 0.6269 -0.0369
C17 C 0.6120(2) 0.60076(12) 0.05807(6)
H26 H 0.6102 0.6821 0.0711
H27 H 0.7350 0.5685 0.0691
C18 C 0.1348(2) 0.44726(12) 0.07786(6)
C19 C 0.0795(2) 0.49694(12) 0.14092(7)
H28 H -0.0156 0.4473 0.1607
H29 H 0.0241 0.5736 0.1345
C20 C 0.0819(3) 0.41986(13) 0.27832(7)
H30 H 0.0663 0.4235 0.3242
H31 H 0.1495 0.3499 0.2671
H32 H -0.0404 0.4193 0.2580
loop_
_geom_bond_atom_site_label_1
_geom_bond_atom_site_label_2
_geom_bond_site_symmetry_1
_geom_bond_site_symmetry_2
O1 H1 1_555 1_555
H2 O1 1_555 1_555
O2 H3 1_555 1_555
O3 H4 1_555 1_555
O4 H5 1_555 1_555
O5 C18 1_555 1_555
C1 O2 1_555 1_555
H6 C1 1_555 1_555
C2 C1 1_555 1_555
C3 C2 1_555 1_555
H7 C3 1_555 1_555
C4 C3 1_555 1_555
C5 C4 1_555 1_555
H8 C5 1_555 1_555
C6 C5 1_555 1_555
C7 O4 1_555 1_555
H9 C7 1_555 1_555
C8 C7 1_555 1_555
C9 C8 1_555 1_555
H10 C9 1_555 1_555
H11 C9 1_555 1_555
C10 C2 1_555 1_555
H12 C10 1_555 1_555
H13 C10 1_555 1_555
H14 C10 1_555 1_555
C11 C4 1_555 1_555
H15 C11 1_555 1_555
H16 C11 1_555 1_555
H17 C11 1_555 1_555
C12 C4 1_555 1_555
H18 C12 1_555 1_555
H19 C12 1_555 1_555
C13 C1 1_555 1_555
H20 C13 1_555 1_555
H21 C13 1_555 1_555
C14 O3 1_555 1_555
H22 C14 1_555 1_555
C15 C14 1_555 1_555
H23 C15 1_555 1_555
H24 C15 1_555 1_555
C16 C8 1_555 1_555
H25 C16 1_555 1_555
C17 C5 1_555 1_555
H26 C17 1_555 1_555
H27 C17 1_555 1_555
C18 C6 1_555 1_555
C19 C3 1_555 1_555
H28 C19 1_555 1_555
H29 C19 1_555 1_555
C20 C2 1_555 1_555
H30 C20 1_555 1_555
H31 C20 1_555 1_555
H32 C20 1_555 1_555
C6 C7 1_555 1_555
C6 C14 1_555 1_555
C12 C13 1_555 1_555
C15 C16 1_555 1_555
C16 C17 1_555 1_555
C18 C19 1_555 1_555

#END
