
#######################################################################
#
#                 Cambridge Crystallographic Data Centre
#                                CCDC 
#
#######################################################################
#
# If this CIF has been generated from an entry in the Cambridge 
# Structural Database, then it will include bibliographic, chemical, 
# crystal, experimental, refinement or atomic coordinate data resulting 
# from the CCDC's data processing and validation procedures.
#
#######################################################################

data_EGOTEB
_chemical_formula_moiety         'C20 H26 O5'
_chemical_name_systematic        
'8-hydroxy-8a-methyl-3,5-bis(methylene)-2-oxododecahydronaphtho[2,3-b]furan-4-yl 2-methylbut-2-enoate'
_symmetry_cell_setting           monoclinic
_symmetry_space_group_name_H-M   'P 21'
_symmetry_Int_Tables_number      4
_space_group_name_Hall           'P 2yb'
loop_
_symmetry_equiv_pos_site_id
_symmetry_equiv_pos_as_xyz
1 x,y,z
2 -x,1/2+y,-z
_cell_length_a                   6.8508(9)
_cell_length_b                   11.7242(15)
_cell_length_c                   11.5995(15)
_cell_angle_alpha                90
_cell_angle_beta                 103.111(2)
_cell_angle_gamma                90
_cell_volume                     907.387
_exptl_crystal_colour            colorless
_exptl_crystal_description       block
_cell_formula_units_Z            2
loop_
_atom_site_label
_atom_site_type_symbol
_atom_site_fract_x
_atom_site_fract_y
_atom_site_fract_z
O1 O 1.0461(3) 0.80456(14) 0.05300(13)
O2 O 1.0090(2) 0.99902(14) 0.53684(13)
H1 H 1.1299 1.0048 0.5723
O3 O 1.4272(2) 0.65197(13) 0.41239(13)
O4 O 1.5944(3) 0.51482(15) 0.34070(16)
C1 C 0.6459(4) 0.7402(3) -0.2798(3)
H2 H 0.6506 0.6818 -0.2188
H3 H 0.6279 0.7036 -0.3575
H4 H 0.5336 0.7921 -0.2801
C2 C 0.8349(4) 0.8052(2) -0.2543(2)
H5 H 0.8628 0.8466 -0.3192
C3 C 0.9708(4) 0.8140(2) -0.1539(2)
C4 C 0.9366(4) 0.7531(2) -0.0427(2)
C5 C 1.0290(3) 0.76958(17) 0.17039(16)
H6 H 0.9243 0.7095 0.1672
C6 C 0.9779(3) 0.87984(16) 0.22954(16)
H7 H 1.0769 0.9380 0.2157
C7 C 1.0059(3) 0.87277(16) 0.36738(16)
C8 C 0.9941(3) 0.99684(18) 0.41163(18)
H8 H 1.1096 1.0407 0.3946
C9 C 0.8021(4) 1.05783(18) 0.3530(2)
H9 H 0.8122 1.1389 0.3775
H10 H 0.6888 1.0235 0.3807
C10 C 0.7746(3) 0.93001(17) 0.17765(18)
C11 C 0.6211(3) 0.8747(2) 0.11057(19)
H11 H 0.6347 0.7967 0.0917
H12 H 0.4976 0.9130 0.0814
C12 C 0.7583(4) 1.0514(2) 0.2176(2)
H13 H 0.6217 1.0806 0.1839
H14 H 0.8548 1.0999 0.1881
O5 O 0.8315(3) 0.67239(19) -0.03782(16)
C13 C 1.1609(4) 0.8849(3) -0.1377(2)
H15 H 1.1717 0.9165 -0.2142
H16 H 1.2776 0.8366 -0.1062
H17 H 1.1561 0.9473 -0.0822
C14 C 1.2339(3) 0.72925(17) 0.23585(17)
H18 H 1.3314 0.7915 0.2308
C15 C 1.3262(3) 0.61914(19) 0.20920(19)
C16 C 1.3109(5) 0.5578(2) 0.1125(2)
H19 H 1.3884 0.4903 0.1143
H20 H 1.2225 0.5810 0.0409
C17 C 1.4632(3) 0.58608(18) 0.32393(19)
C18 C 1.2361(3) 0.71194(16) 0.36629(16)
H21 H 1.1226 0.6608 0.3733
C19 C 1.2152(3) 0.82366(17) 0.42601(17)
H22 H 1.3218 0.8771 0.4158
H23 H 1.2264 0.8118 0.5118
C20 C 0.8415(3) 0.79873(18) 0.40160(17)
H24 H 0.8729 0.7873 0.4875
H25 H 0.8354 0.7246 0.3619
H26 H 0.7117 0.8372 0.3771
loop_
_geom_bond_atom_site_label_1
_geom_bond_atom_site_label_2
_geom_bond_site_symmetry_1
_geom_bond_site_symmetry_2
O1 C4 1_555 1_555
O2 H1 1_555 1_555
O3 C17 1_555 1_555
O4 C17 1_555 1_555
C1 H2 1_555 1_555
H3 C1 1_555 1_555
H4 C1 1_555 1_555
C2 C1 1_555 1_555
H5 C2 1_555 1_555
C3 C2 1_555 1_555
C4 C3 1_555 1_555
C5 O1 1_555 1_555
H6 C5 1_555 1_555
C6 C5 1_555 1_555
H7 C6 1_555 1_555
C7 C6 1_555 1_555
C8 O2 1_555 1_555
H8 C8 1_555 1_555
C9 C8 1_555 1_555
H9 C9 1_555 1_555
H10 C9 1_555 1_555
C10 C6 1_555 1_555
C11 C10 1_555 1_555
H11 C11 1_555 1_555
H12 C11 1_555 1_555
C12 C9 1_555 1_555
H13 C12 1_555 1_555
H14 C12 1_555 1_555
O5 C4 1_555 1_555
C13 C3 1_555 1_555
H15 C13 1_555 1_555
H16 C13 1_555 1_555
H17 C13 1_555 1_555
C14 C5 1_555 1_555
H18 C14 1_555 1_555
C15 C14 1_555 1_555
C16 C15 1_555 1_555
H19 C16 1_555 1_555
H20 C16 1_555 1_555
C17 C15 1_555 1_555
C18 O3 1_555 1_555
H21 C18 1_555 1_555
C19 C7 1_555 1_555
H22 C19 1_555 1_555
H23 C19 1_555 1_555
C20 C7 1_555 1_555
H24 C20 1_555 1_555
H25 C20 1_555 1_555
H26 C20 1_555 1_555
C7 C8 1_555 1_555
C10 C12 1_555 1_555
C14 C18 1_555 1_555
C18 C19 1_555 1_555

#END
