
#######################################################################
#
#                 Cambridge Crystallographic Data Centre
#                                CCDC 
#
#######################################################################
#
# If this CIF has been generated from an entry in the Cambridge 
# Structural Database, then it will include bibliographic, chemical, 
# crystal, experimental, refinement or atomic coordinate data resulting 
# from the CCDC's data processing and validation procedures.
#
#######################################################################

data_EGOVOM
_chemical_formula_moiety         'C17 H14 I1 P1'
_chemical_name_systematic        ((8-Iodo-1-naphthyl)methyl)(phenyl)phosphine
_symmetry_cell_setting           monoclinic
_symmetry_space_group_name_H-M   'P 21/n'
_symmetry_Int_Tables_number      14
_space_group_name_Hall           '-P 2yn'
loop_
_symmetry_equiv_pos_site_id
_symmetry_equiv_pos_as_xyz
1 x,y,z
2 1/2-x,1/2+y,1/2-z
3 -x,-y,-z
4 1/2+x,1/2-y,1/2+z
_cell_length_a                   13.569(3)
_cell_length_b                   7.0005(17)
_cell_length_c                   15.273(4)
_cell_angle_alpha                90
_cell_angle_beta                 90.503(4)
_cell_angle_gamma                90
_cell_volume                     1450.72
_exptl_crystal_colour            colorless
_exptl_crystal_description       blade
_cell_formula_units_Z            4
_exptl_crystal_recrystallization_method tetrahydrofuran
loop_
_atom_site_label
_atom_site_type_symbol
_atom_site_fract_x
_atom_site_fract_y
_atom_site_fract_z
I1 I 0.388864(16) 0.53759(3) 0.892234(16)
P1 P 0.58538(7) 0.21665(12) 0.90997(7)
C1 C 0.4708(2) 0.0945(4) 0.8702(2)
H1 H 0.4735 -0.0405 0.8893
H2 H 0.4137 0.1543 0.8993
C2 C 0.4529(2) 0.0985(4) 0.7742(2)
C3 C 0.4825(2) -0.0606(5) 0.7274(2)
H3 H 0.5152 -0.1604 0.7582
C4 C 0.4671(3) -0.0824(5) 0.6377(3)
H4 H 0.4890 -0.1946 0.6088
C5 C 0.4208(2) 0.0567(5) 0.5923(3)
H5 H 0.4094 0.0413 0.5312
C6 C 0.3889(2) 0.2264(5) 0.6347(2)
C7 C 0.3402(2) 0.3662(5) 0.5840(3)
H6 H 0.3301 0.3457 0.5231
C8 C 0.3076(2) 0.5300(5) 0.6216(3)
H7 H 0.2741 0.6232 0.5872
C9 C 0.3235(2) 0.5606(5) 0.7104(3)
H8 H 0.3005 0.6760 0.7359
C10 C 0.3707(2) 0.4321(4) 0.7621(2)
C11 C 0.4053(2) 0.2531(4) 0.7265(2)
C12 C 0.6821(2) 0.0482(5) 0.8806(2)
C13 C 0.7676(2) 0.1087(5) 0.8399(2)
H9 H 0.7717 0.2365 0.8192
C14 C 0.8469(3) -0.0125(5) 0.8287(3)
H10 H 0.9054 0.0329 0.8019
C15 C 0.8409(3) -0.2003(5) 0.8566(2)
H11 H 0.8950 -0.2842 0.8484
C16 C 0.7566(2) -0.2660(5) 0.8962(2)
H12 H 0.7524 -0.3951 0.9150
C17 C 0.6778(2) -0.1430(5) 0.9087(2)
H13 H 0.6201 -0.1886 0.9365
H14 H 0.600(2) 0.347(5) 0.841(3)
loop_
_geom_bond_atom_site_label_1
_geom_bond_atom_site_label_2
_geom_bond_site_symmetry_1
_geom_bond_site_symmetry_2
I1 C10 1_555 1_555
P1 C1 1_555 1_555
C1 H1 1_555 1_555
H2 C1 1_555 1_555
C2 C1 1_555 1_555
C3 C2 1_555 1_555
H3 C3 1_555 1_555
C4 C3 1_555 1_555
H4 C4 1_555 1_555
C5 C4 1_555 1_555
H5 C5 1_555 1_555
C6 C5 1_555 1_555
C7 C6 1_555 1_555
H6 C7 1_555 1_555
C8 C7 1_555 1_555
H7 C8 1_555 1_555
C9 C8 1_555 1_555
H8 C9 1_555 1_555
C10 C9 1_555 1_555
C11 C2 1_555 1_555
C12 P1 1_555 1_555
C13 C12 1_555 1_555
H9 C13 1_555 1_555
C14 C13 1_555 1_555
H10 C14 1_555 1_555
C15 C14 1_555 1_555
H11 C15 1_555 1_555
C16 C15 1_555 1_555
H12 C16 1_555 1_555
C17 C12 1_555 1_555
H13 C17 1_555 1_555
H14 P1 1_555 1_555
C6 C11 1_555 1_555
C10 C11 1_555 1_555
C16 C17 1_555 1_555

#END
