
#######################################################################
#
#                 Cambridge Crystallographic Data Centre
#                                CCDC 
#
#######################################################################
#
# If this CIF has been generated from an entry in the Cambridge 
# Structural Database, then it will include bibliographic, chemical, 
# crystal, experimental, refinement or atomic coordinate data resulting 
# from the CCDC's data processing and validation procedures.
#
#######################################################################

data_EGOVIG
_chemical_formula_moiety         'C17 H17 B1 I1 P1'
_chemical_name_systematic        
((8-iodo-1-naphthylmethyl)phenylphosphine)-borane
_symmetry_cell_setting           orthorhombic
_symmetry_space_group_name_H-M   'P n a 21'
_symmetry_Int_Tables_number      33
_space_group_name_Hall           'P 2c -2n'
loop_
_symmetry_equiv_pos_site_id
_symmetry_equiv_pos_as_xyz
1 x,y,z
2 1/2-x,1/2+y,1/2+z
3 1/2+x,1/2-y,z
4 -x,-y,1/2+z
_cell_length_a                   17.355(3)
_cell_length_b                   5.8125(9)
_cell_length_c                   16.063(3)
_cell_angle_alpha                90
_cell_angle_beta                 90
_cell_angle_gamma                90
_cell_volume                     1620.37
_exptl_crystal_colour            'light yellow'
_exptl_crystal_description       block
_cell_formula_units_Z            4
_exptl_crystal_recrystallization_method 'ethyl acetate/petroleum ether'
loop_
_atom_site_label
_atom_site_type_symbol
_atom_site_fract_x
_atom_site_fract_y
_atom_site_fract_z
C1 C 0.7095(2) 0.6849(7) 0.8132(2)
H1 H 0.7349 0.6461 0.8659
H2 H 0.7062 0.5436 0.7802
C2 C 0.7593(2) 0.8546(8) 0.7672(3)
C3 C 0.7610(2) 0.8240(9) 0.6830(3)
H3 H 0.7343 0.6983 0.6602
C4 C 0.8012(3) 0.9727(9) 0.6285(3)
H4 H 0.8015 0.9460 0.5708
C5 C 0.8386(2) 1.1522(9) 0.6611(3)
H5 H 0.8643 1.2542 0.6252
C6 C 0.8409(2) 1.1938(7) 0.7470(3)
C7 C 0.8839(3) 1.3843(7) 0.7767(3)
H6 H 0.9097 1.4799 0.7386
C8 C 0.8884(3) 1.4305(8) 0.8592(4)
H7 H 0.9164 1.5587 0.8782
C9 C 0.8513(2) 1.2871(8) 0.9156(3)
H8 H 0.8550 1.3190 0.9728
C10 C 0.8098(2) 1.1016(6) 0.8900(3)
C11 C 0.8011(2) 1.0430(6) 0.8040(2)
C12 C 0.5704(2) 0.8481(7) 0.7363(2)
C13 C 0.5843(3) 1.0563(7) 0.6957(3)
H9 H 0.6142 1.1697 0.7221
C14 C 0.5549(3) 1.0976(7) 0.6177(3)
H10 H 0.5646 1.2390 0.5913
C15 C 0.5110(3) 0.9308(8) 0.5778(3)
H11 H 0.4908 0.9592 0.5245
C16 C 0.4970(3) 0.7228(8) 0.6169(3)
H12 H 0.4680 0.6087 0.5896
C17 C 0.5255(2) 0.6826(8) 0.6958(3)
H13 H 0.5147 0.5424 0.7226
B1 B 0.5584(3) 0.5666(8) 0.9045(4)
H14 H 0.5091 0.6302 0.9212
H15 H 0.5891 0.5340 0.9536
H16 H 0.5502 0.4256 0.8735
I1 I 0.766791(17) 0.91108(4) 0.99205(3)
P1 P 0.61151(5) 0.78356(15) 0.83605(5)
H17 H 0.614(3) 1.018(8) 0.858(3)
loop_
_geom_bond_atom_site_label_1
_geom_bond_atom_site_label_2
_geom_bond_site_symmetry_1
_geom_bond_site_symmetry_2
C1 H1 1_555 1_555
H2 C1 1_555 1_555
C2 C1 1_555 1_555
C3 C2 1_555 1_555
H3 C3 1_555 1_555
C4 C3 1_555 1_555
H4 C4 1_555 1_555
C5 C4 1_555 1_555
H5 C5 1_555 1_555
C6 C5 1_555 1_555
C7 C6 1_555 1_555
H6 C7 1_555 1_555
C8 C7 1_555 1_555
H7 C8 1_555 1_555
C9 C8 1_555 1_555
H8 C9 1_555 1_555
C10 C9 1_555 1_555
C11 C2 1_555 1_555
C12 C13 1_555 1_555
C13 H9 1_555 1_555
C14 C13 1_555 1_555
H10 C14 1_555 1_555
C15 C14 1_555 1_555
H11 C15 1_555 1_555
C16 C15 1_555 1_555
H12 C16 1_555 1_555
C17 C12 1_555 1_555
H13 C17 1_555 1_555
B1 H14 1_555 1_555
H15 B1 1_555 1_555
H16 B1 1_555 1_555
I1 C10 1_555 1_555
P1 C1 1_555 1_555
H17 P1 1_555 1_555
C6 C11 1_555 1_555
C10 C11 1_555 1_555
C12 P1 1_555 1_555
C16 C17 1_555 1_555
B1 P1 1_555 1_555

#END
