
#######################################################################
#
#                 Cambridge Crystallographic Data Centre
#                                CCDC 
#
#######################################################################
#
# If this CIF has been generated from an entry in the Cambridge 
# Structural Database, then it will include bibliographic, chemical, 
# crystal, experimental, refinement or atomic coordinate data resulting 
# from the CCDC's data processing and validation procedures.
#
#######################################################################

data_EGOVON
_chemical_formula_moiety         'C15 H18 O5'
_chemical_name_systematic        
3a,5,9a-Trihydroxy-4a,5-dimethyl-3-methylene-2,3,3a,4a,5,9a-hexahydronaphtho[2,3-b]furan-6(4H)-one
_symmetry_cell_setting           orthorhombic
_symmetry_space_group_name_H-M   'P 21 21 21'
_symmetry_Int_Tables_number      19
_space_group_name_Hall           'P 2ac 2ab'
loop_
_symmetry_equiv_pos_site_id
_symmetry_equiv_pos_as_xyz
1 x,y,z
2 1/2+x,1/2-y,-z
3 -x,1/2+y,1/2-z
4 1/2-x,-y,1/2+z
_cell_length_a                   7.16160(10)
_cell_length_b                   9.9854(2)
_cell_length_c                   18.4990(4)
_cell_angle_alpha                90
_cell_angle_beta                 90
_cell_angle_gamma                90
_cell_volume                     1322.89
_exptl_crystal_colour            colorless
_exptl_crystal_description       prism
_cell_formula_units_Z            4
loop_
_atom_site_label
_atom_site_type_symbol
_atom_site_fract_x
_atom_site_fract_y
_atom_site_fract_z
O1 O 0.2164(2) 1.16409(15) -0.04003(8)
O2 O 0.5318(2) 0.88155(15) 0.28525(8)
O3 O 0.5129(2) 0.64087(14) 0.14032(8)
H1 H 0.5140 0.5769 0.1698
O4 O 0.4768(2) 1.14879(15) 0.09541(7)
H2 H 0.5427 1.2066 0.0745
O5 O 0.3514(2) 0.68759(15) 0.27197(7)
H3 H 0.4173 0.6694 0.3082
C1 C 0.2277(3) 1.1030(2) 0.01766(11)
C2 C 0.4178(3) 1.0491(2) 0.04383(11)
C3 C 0.3906(3) 0.9155(2) 0.08579(11)
C4 C 0.5768(3) 0.8720(2) 0.11955(11)
H4 H 0.6355 0.9512 0.1424
H5 H 0.6608 0.8414 0.0804
C5 C 0.5621(3) 0.7602(2) 0.17633(12)
C6 C 0.7445(3) 0.7523(2) 0.21768(11)
C7 C 0.7277(3) 0.8456(2) 0.28081(12)
H6 H 0.7687 0.8009 0.3258
H7 H 0.8055 0.9264 0.2732
C8 C 0.0695(3) 1.0909(2) 0.06674(12)
H8 H -0.0439 1.1359 0.0559
C9 C 0.0824(3) 1.0168(2) 0.12718(12)
H9 H -0.0206 1.0160 0.1596
C10 C 0.2465(3) 0.9376(2) 0.14545(11)
C11 C 0.2621(3) 0.88453(19) 0.21114(11)
H10 H 0.1630 0.9002 0.2442
C12 C 0.4238(3) 0.8017(2) 0.23714(11)
C13 C 0.5570(3) 1.0384(2) -0.01847(11)
H11 H 0.5695 1.1258 -0.0421
H12 H 0.5121 0.9724 -0.0536
H13 H 0.6788 1.0102 0.0003
C14 C 0.3125(3) 0.8101(2) 0.03273(11)
H14 H 0.2652 0.7331 0.0600
H15 H 0.4120 0.7807 0.0000
H16 H 0.2106 0.8497 0.0045
C15 C 0.8857(3) 0.6735(2) 0.20070(12)
H17 H 0.9941 0.6716 0.2303
H18 H 0.8791 0.6185 0.1588
loop_
_geom_bond_atom_site_label_1
_geom_bond_atom_site_label_2
_geom_bond_site_symmetry_1
_geom_bond_site_symmetry_2
O1 C1 1_555 1_555
O2 C7 1_555 1_555
O3 H1 1_555 1_555
O4 H2 1_555 1_555
O5 H3 1_555 1_555
C1 C2 1_555 1_555
C2 O4 1_555 1_555
C3 C2 1_555 1_555
C4 C3 1_555 1_555
H4 C4 1_555 1_555
H5 C4 1_555 1_555
C5 O3 1_555 1_555
C6 C5 1_555 1_555
C7 C6 1_555 1_555
H6 C7 1_555 1_555
H7 C7 1_555 1_555
C8 C1 1_555 1_555
H8 C8 1_555 1_555
C9 C8 1_555 1_555
H9 C9 1_555 1_555
C10 C3 1_555 1_555
C11 C10 1_555 1_555
H10 C11 1_555 1_555
C12 O2 1_555 1_555
C13 C2 1_555 1_555
H11 C13 1_555 1_555
H12 C13 1_555 1_555
H13 C13 1_555 1_555
C14 C3 1_555 1_555
H14 C14 1_555 1_555
H15 C14 1_555 1_555
H16 C14 1_555 1_555
C15 C6 1_555 1_555
H17 C15 1_555 1_555
H18 C15 1_555 1_555
O5 C12 1_555 1_555
C4 C5 1_555 1_555
C5 C12 1_555 1_555
C9 C10 1_555 1_555
C11 C12 1_555 1_555

#END
