
#######################################################################
#
#                 Cambridge Crystallographic Data Centre
#                                CCDC 
#
#######################################################################
#
# If this CIF has been generated from an entry in the Cambridge 
# Structural Database, then it will include bibliographic, chemical, 
# crystal, experimental, refinement or atomic coordinate data resulting 
# from the CCDC's data processing and validation procedures.
#
#######################################################################

data_EGOVAZ
_chemical_formula_moiety         'C18 H16 N2 O3'
_chemical_name_systematic        
5-Methyl-2,3-diphenyldihydro-2H-pyrrolo[3,4-d][1,2]oxazole-4,6(3H,5H)-dione
_symmetry_cell_setting           orthorhombic
_symmetry_space_group_name_H-M   'P 21 21 21'
_symmetry_Int_Tables_number      19
_space_group_name_Hall           'P 2ac 2ab'
loop_
_symmetry_equiv_pos_site_id
_symmetry_equiv_pos_as_xyz
1 x,y,z
2 1/2-x,-y,1/2+z
3 -x,1/2+y,1/2-z
4 1/2+x,1/2-y,-z
_cell_length_a                   5.2734(15)
_cell_length_b                   14.976(4)
_cell_length_c                   18.606(5)
_cell_angle_alpha                90
_cell_angle_beta                 90
_cell_angle_gamma                90
_cell_volume                     1469.4
_exptl_crystal_colour            colorless
_exptl_crystal_description       needle
_cell_formula_units_Z            4
loop_
_atom_site_label
_atom_site_type_symbol
_atom_site_fract_x
_atom_site_fract_y
_atom_site_fract_z
O1 O 0.1080(4) 0.52209(13) 0.47779(10)
O2 O -0.1174(4) 0.70280(14) 0.47315(11)
O3 O 0.5176(4) 0.69704(14) 0.30673(10)
N1 N 0.0311(4) 0.49765(15) 0.40436(11)
N2 N 0.1817(5) 0.71884(16) 0.38385(13)
C1 C -0.1020(5) 0.41569(19) 0.40846(14)
C2 C -0.1062(6) 0.3558(2) 0.35043(15)
H1 H 0.0010 0.3654 0.3101
C3 C -0.2655(6) 0.2831(2) 0.35198(16)
H2 H -0.2696 0.2436 0.3121
C4 C -0.4206(6) 0.2665(2) 0.41083(15)
H3 H -0.5325 0.2168 0.4110
C5 C -0.4095(6) 0.3237(2) 0.46942(16)
H4 H -0.5101 0.3116 0.5106
C6 C -0.2544(6) 0.3979(2) 0.46866(16)
H5 H -0.2507 0.4369 0.5089
C7 C 0.2706(5) 0.50293(19) 0.36213(15)
H6 H 0.3730 0.4476 0.3703
C8 C 0.2186(6) 0.51368(19) 0.28236(15)
C9 C 0.3871(6) 0.4751(2) 0.23319(15)
H7 H 0.5252 0.4402 0.2501
C10 C 0.3536(6) 0.4877(2) 0.15981(16)
H8 H 0.4693 0.4616 0.1268
C11 C 0.1528(6) 0.5379(2) 0.13481(15)
H9 H 0.1307 0.5465 0.0846
C12 C -0.0180(6) 0.5761(2) 0.18326(16)
H10 H -0.1568 0.6104 0.1660
C13 C 0.0153(6) 0.5638(2) 0.25675(16)
H11 H -0.1012 0.5897 0.2896
C14 C 0.4080(6) 0.58466(19) 0.39753(15)
H12 H 0.5882 0.5707 0.4100
C15 C 0.2468(6) 0.60064(19) 0.46459(15)
H13 H 0.3555 0.6164 0.5068
C16 C 0.0758(6) 0.6782(2) 0.44391(14)
C17 C 0.3853(6) 0.6712(2) 0.35617(15)
C18 C 0.0893(7) 0.8028(2) 0.35398(17)
H14 H 0.1152 0.8508 0.3890
H15 H -0.0919 0.7974 0.3431
H16 H 0.1826 0.8165 0.3098
loop_
_geom_bond_atom_site_label_1
_geom_bond_atom_site_label_2
_geom_bond_site_symmetry_1
_geom_bond_site_symmetry_2
O1 N1 1_555 1_555
O2 C16 1_555 1_555
O3 C17 1_555 1_555
N1 C1 1_555 1_555
N2 C16 1_555 1_555
C1 C2 1_555 1_555
C2 H1 1_555 1_555
C3 C2 1_555 1_555
H2 C3 1_555 1_555
C4 C3 1_555 1_555
H3 C4 1_555 1_555
C5 C4 1_555 1_555
H4 C5 1_555 1_555
C6 C1 1_555 1_555
H5 C6 1_555 1_555
C7 N1 1_555 1_555
H6 C7 1_555 1_555
C8 C7 1_555 1_555
C9 C8 1_555 1_555
H7 C9 1_555 1_555
C10 C9 1_555 1_555
H8 C10 1_555 1_555
C11 C10 1_555 1_555
H9 C11 1_555 1_555
C12 C11 1_555 1_555
H10 C12 1_555 1_555
C13 C8 1_555 1_555
H11 C13 1_555 1_555
C14 C7 1_555 1_555
H12 C14 1_555 1_555
C15 O1 1_555 1_555
H13 C15 1_555 1_555
C16 C15 1_555 1_555
C17 N2 1_555 1_555
C18 N2 1_555 1_555
H14 C18 1_555 1_555
H15 C18 1_555 1_555
H16 C18 1_555 1_555
C5 C6 1_555 1_555
C12 C13 1_555 1_555
C14 C15 1_555 1_555
C14 C17 1_555 1_555

#END
