
#######################################################################
#
#                 Cambridge Crystallographic Data Centre
#                                CCDC 
#
#######################################################################
#
# If this CIF has been generated from an entry in the Cambridge 
# Structural Database, then it will include bibliographic, chemical, 
# crystal, experimental, refinement or atomic coordinate data resulting 
# from the CCDC's data processing and validation procedures.
#
#######################################################################

data_EGOWIH
_chemical_formula_moiety         'C28 H20 P2'
_chemical_name_systematic        
1,1'-(1,2-Phenylene)bis(1-phospha-1,2-dihydro-acenaphthylene)
_symmetry_cell_setting           monoclinic
_symmetry_space_group_name_H-M   'P 21'
_symmetry_Int_Tables_number      4
_space_group_name_Hall           'P 2yb'
loop_
_symmetry_equiv_pos_site_id
_symmetry_equiv_pos_as_xyz
1 x,y,z
2 -x,1/2+y,-z
_cell_length_a                   8.0128(9)
_cell_length_b                   21.296(3)
_cell_length_c                   12.4433(15)
_cell_angle_alpha                90
_cell_angle_beta                 91.725(2)
_cell_angle_gamma                90
_cell_volume                     2122.37
_exptl_crystal_colour            colorless
_exptl_crystal_description       block
_cell_formula_units_Z            4
_exptl_crystal_recrystallization_method 'ether/petroleum ether'
loop_
_atom_site_label
_atom_site_type_symbol
_atom_site_fract_x
_atom_site_fract_y
_atom_site_fract_z
P1 P -0.38042(9) -0.45889(3) -0.90761(5)
P2 P -0.56235(8) -0.32936(3) -0.91846(5)
C1 C -0.1588(4) -0.43860(11) -0.8588(2)
H1 H -0.0973 -0.4178 -0.9167
H2 H -0.1614 -0.4099 -0.7962
C2 C -0.0759(3) -0.49938(12) -0.82760(19)
C3 C 0.0873(3) -0.50702(14) -0.79046(19)
H3 H 0.1589 -0.4717 -0.7814
C4 C 0.1450(4) -0.56729(13) -0.7665(2)
H4 H 0.2571 -0.5724 -0.7410
C5 C 0.0433(4) -0.62087(13) -0.7786(2)
H5 H 0.0860 -0.6612 -0.7605
C6 C -0.1200(4) -0.61407(11) -0.81733(19)
C7 C -0.2361(4) -0.66440(12) -0.83576(19)
H6 H -0.2025 -0.7063 -0.8205
C8 C -0.3900(4) -0.65340(12) -0.8738(2)
H7 H -0.4635 -0.6879 -0.8850
C9 C -0.4499(4) -0.59089(13) -0.8989(2)
H8 H -0.5597 -0.5843 -0.9277
C10 C -0.3440(3) -0.54168(11) -0.8799(2)
C11 C -0.1793(3) -0.55315(10) -0.84195(17)
C12 C -0.4938(3) -0.43346(11) -0.78792(18)
C13 C -0.4965(3) -0.46841(12) -0.69351(18)
H9 H -0.4413 -0.5079 -0.6900
C14 C -0.5781(3) -0.44657(13) -0.60476(19)
H10 H -0.5778 -0.4708 -0.5406
C15 C -0.6604(3) -0.38954(12) -0.60922(19)
H11 H -0.7175 -0.3747 -0.5484
C16 C -0.6596(3) -0.35387(12) -0.70285(18)
H12 H -0.7162 -0.3147 -0.7056
C17 C -0.5760(3) -0.37533(10) -0.79314(18)
C18 C -0.7560(3) -0.35809(11) -0.99145(18)
H13 H -0.7308 -0.3692 -1.0665
H14 H -0.7998 -0.3959 -0.9555
C19 C -0.8827(3) -0.30596(10) -0.98989(17)
C20 C -1.0392(3) -0.30525(12) -1.03687(19)
H15 H -1.0789 -0.3409 -1.0758
C21 C -1.1422(4) -0.25175(13) -1.0277(2)
H16 H -1.2515 -0.2523 -1.0594
C22 C -1.0874(3) -0.19927(12) -0.97408(19)
H17 H -1.1580 -0.1636 -0.9703
C23 C -0.9267(3) -0.19772(11) -0.92430(18)
C24 C -0.8568(4) -0.14669(11) -0.8662(2)
H18 H -0.9188 -0.1089 -0.8603
C25 C -0.7008(4) -0.15085(12) -0.8182(2)
H19 H -0.6584 -0.1163 -0.7777
C26 C -0.6027(4) -0.20485(12) -0.8275(2)
H20 H -0.4942 -0.2065 -0.7948
C27 C -0.6648(3) -0.25582(11) -0.88476(19)
C28 C -0.8262(3) -0.25231(10) -0.93239(17)
P3 P -0.30098(8) -0.07971(3) -0.58765(5)
P4 P -0.46210(8) -0.17370(3) -0.42252(5)
C29 C -0.1009(3) -0.05986(11) -0.51155(19)
H21 H -0.1230 -0.0292 -0.4539
H22 H -0.0523 -0.0982 -0.4781
C30 C 0.0183(3) -0.03235(10) -0.59012(19)
C31 C 0.1790(4) -0.01229(12) -0.5700(2)
H23 H 0.2277 -0.0158 -0.4997
C32 C 0.2713(4) 0.01351(13) -0.6538(3)
H24 H 0.3832 0.0264 -0.6394
C33 C 0.2036(4) 0.02050(11) -0.7559(2)
H25 H 0.2687 0.0381 -0.8109
C34 C 0.0380(3) 0.00159(10) -0.7792(2)
C35 C -0.0444(4) 0.00680(11) -0.8805(2)
H26 H 0.0124 0.0246 -0.9391
C36 C -0.2051(4) -0.01352(11) -0.8952(2)
H27 H -0.2584 -0.0091 -0.9641
C37 C -0.2948(4) -0.04094(11) -0.8107(2)
H28 H -0.4065 -0.0548 -0.8228
C38 C -0.2180(3) -0.04717(10) -0.71150(19)
C39 C -0.0532(3) -0.02528(10) -0.69489(18)
C40 C -0.2757(3) -0.16505(10) -0.61027(17)
C41 C -0.1837(3) -0.18942(11) -0.69413(18)
H29 H -0.1274 -0.1616 -0.7405
C42 C -0.1733(3) -0.25367(11) -0.71080(18)
H30 H -0.1096 -0.2696 -0.7679
C43 C -0.2555(3) -0.29424(11) -0.64456(18)
H31 H -0.2506 -0.3382 -0.6571
C44 C -0.3454(3) -0.27131(11) -0.55950(18)
H32 H -0.4004 -0.2998 -0.5137
C45 C -0.3564(3) -0.20640(10) -0.54015(17)
C46 C -0.6870(3) -0.17498(11) -0.4690(2)
H33 H -0.7475 -0.1391 -0.4380
H34 H -0.6957 -0.1719 -0.5484
C47 C -0.7615(3) -0.23641(10) -0.43194(18)
C48 C -0.9188(3) -0.25851(12) -0.4522(2)
H35 H -0.9948 -0.2355 -0.4971
C49 C -0.9683(4) -0.31637(12) -0.4057(2)
H36 H -1.0781 -0.3316 -0.4202
C50 C -0.8624(4) -0.35067(12) -0.3408(2)
H37 H -0.8994 -0.3890 -0.3106
C51 C -0.6978(3) -0.32938(11) -0.31828(18)
C52 C -0.5765(4) -0.36076(11) -0.25220(18)
H38 H -0.6026 -0.4001 -0.2208
C53 C -0.4233(4) -0.33483(12) -0.23364(19)
H39 H -0.3449 -0.3562 -0.1880
C54 C -0.3771(3) -0.27722(12) -0.28001(19)
H40 H -0.2693 -0.2601 -0.2656
C55 C -0.4895(3) -0.24618(10) -0.34624(17)
C56 C -0.6503(3) -0.27143(10) -0.36495(17)
loop_
_geom_bond_atom_site_label_1
_geom_bond_atom_site_label_2
_geom_bond_site_symmetry_1
_geom_bond_site_symmetry_2
P1 C1 1_555 1_555
P2 C17 1_555 1_555
P3 C29 1_555 1_555
P4 C45 1_555 1_555
C1 H1 1_555 1_555
H2 C1 1_555 1_555
C2 C1 1_555 1_555
C3 C2 1_555 1_555
H3 C3 1_555 1_555
C4 C3 1_555 1_555
H4 C4 1_555 1_555
C5 C4 1_555 1_555
H5 C5 1_555 1_555
C6 C5 1_555 1_555
C7 C6 1_555 1_555
H6 C7 1_555 1_555
C8 C7 1_555 1_555
H7 C8 1_555 1_555
C9 C8 1_555 1_555
H8 C9 1_555 1_555
C10 P1 1_555 1_555
C11 C2 1_555 1_555
C12 P1 1_555 1_555
C13 C12 1_555 1_555
H9 C13 1_555 1_555
C14 C13 1_555 1_555
H10 C14 1_555 1_555
C15 C14 1_555 1_555
H11 C15 1_555 1_555
C16 C15 1_555 1_555
H12 C16 1_555 1_555
C17 C12 1_555 1_555
C18 P2 1_555 1_555
H13 C18 1_555 1_555
H14 C18 1_555 1_555
C19 C18 1_555 1_555
C20 C19 1_555 1_555
H15 C20 1_555 1_555
C21 C20 1_555 1_555
H16 C21 1_555 1_555
C22 C21 1_555 1_555
H17 C22 1_555 1_555
C23 C22 1_555 1_555
C24 C23 1_555 1_555
H18 C24 1_555 1_555
C25 C24 1_555 1_555
H19 C25 1_555 1_555
C26 C25 1_555 1_555
H20 C26 1_555 1_555
C27 P2 1_555 1_555
C28 C19 1_555 1_555
C29 H21 1_555 1_555
H22 C29 1_555 1_555
C30 C29 1_555 1_555
C31 C30 1_555 1_555
H23 C31 1_555 1_555
C32 C31 1_555 1_555
H24 C32 1_555 1_555
C33 C32 1_555 1_555
H25 C33 1_555 1_555
C34 C33 1_555 1_555
C35 C34 1_555 1_555
H26 C35 1_555 1_555
C36 C35 1_555 1_555
H27 C36 1_555 1_555
C37 C36 1_555 1_555
H28 C37 1_555 1_555
C38 P3 1_555 1_555
C39 C30 1_555 1_555
C40 P3 1_555 1_555
C41 C40 1_555 1_555
H29 C41 1_555 1_555
C42 C41 1_555 1_555
H30 C42 1_555 1_555
C43 C42 1_555 1_555
H31 C43 1_555 1_555
C44 C43 1_555 1_555
H32 C44 1_555 1_555
C45 C40 1_555 1_555
C46 P4 1_555 1_555
H33 C46 1_555 1_555
H34 C46 1_555 1_555
C47 C46 1_555 1_555
C48 C47 1_555 1_555
H35 C48 1_555 1_555
C49 C48 1_555 1_555
H36 C49 1_555 1_555
C50 C49 1_555 1_555
H37 C50 1_555 1_555
C51 C50 1_555 1_555
C52 C51 1_555 1_555
H38 C52 1_555 1_555
C53 C52 1_555 1_555
H39 C53 1_555 1_555
C54 C53 1_555 1_555
H40 C54 1_555 1_555
C55 P4 1_555 1_555
C56 C47 1_555 1_555
C6 C11 1_555 1_555
C9 C10 1_555 1_555
C10 C11 1_555 1_555
C16 C17 1_555 1_555
C23 C28 1_555 1_555
C26 C27 1_555 1_555
C27 C28 1_555 1_555
C34 C39 1_555 1_555
C37 C38 1_555 1_555
C38 C39 1_555 1_555
C44 C45 1_555 1_555
C51 C56 1_555 1_555
C54 C55 1_555 1_555
C55 C56 1_555 1_555

#END
