
#######################################################################
#
#                 Cambridge Crystallographic Data Centre
#                                CCDC 
#
#######################################################################
#
# If this CIF has been generated from an entry in the Cambridge 
# Structural Database, then it will include bibliographic, chemical, 
# crystal, experimental, refinement or atomic coordinate data resulting 
# from the CCDC's data processing and validation procedures.
#
#######################################################################

data_EGOZEG
_chemical_compound_source        'root of Aglaia silvestris'
_chemical_name_common            'Silvaglin A'
_chemical_formula_moiety         'C30 H48 O4'
_chemical_name_systematic        
(20S,24R)-20,24-epoxy-25-hydroxy-2-oxo-1(2-3)abeo-1\a(H)-dammaran-3-one
_symmetry_cell_setting           orthorhombic
_symmetry_space_group_name_H-M   'P 21 21 21'
_symmetry_Int_Tables_number      19
_space_group_name_Hall           'P 2ac 2ab'
loop_
_symmetry_equiv_pos_site_id
_symmetry_equiv_pos_as_xyz
1 x,y,z
2 1/2-x,-y,1/2+z
3 -x,1/2+y,1/2-z
4 1/2+x,1/2-y,-z
_cell_length_a                   8.4747(6)
_cell_length_b                   9.4801(7)
_cell_length_c                   32.633(2)
_cell_angle_alpha                90
_cell_angle_beta                 90
_cell_angle_gamma                90
_cell_volume                     2621.77
_exptl_crystal_colour            colorless
_exptl_crystal_description       plate
_chemical_melting_point          '175-178 deg.C'
_cell_formula_units_Z            4
_exptl_crystal_recrystallization_method ethanol
loop_
_atom_site_label
_atom_site_type_symbol
_atom_site_fract_x
_atom_site_fract_y
_atom_site_fract_z
O1 O 0.6464(3) 0.1740(3) 0.19458(9)
O2 O 0.3773(2) 0.14356(16) 0.25360(5)
O3 O 0.66794(15) 1.08093(13) 0.03831(4)
O4 O 1.01575(16) 1.31354(16) 0.03780(4)
H1 H 1.0144 1.3498 0.0143
C1 C 0.4655(2) 0.3522(2) 0.21563(6)
H2 H 0.4825 0.4321 0.2351
C2 C 0.6231(3) 0.2852(3) 0.20797(8)
H3 H 0.7134 0.3398 0.2148
C3 C 0.3459(2) 0.25106(19) 0.23542(6)
C4 C 0.1795(2) 0.3084(2) 0.22929(6)
C5 C 0.2108(2) 0.43946(18) 0.20246(5)
H4 H 0.2369 0.5167 0.2222
C6 C 0.0822(2) 0.4990(2) 0.17533(6)
H5 H -0.0160 0.5121 0.1913
H6 H 0.0600 0.4334 0.1524
C7 C 0.1395(2) 0.6415(2) 0.15856(6)
H7 H 0.1506 0.7084 0.1817
H8 H 0.0582 0.6797 0.1398
C8 C 0.29861(19) 0.63343(17) 0.13536(5)
C9 C 0.42433(19) 0.55395(16) 0.16201(5)
H9 H 0.4390 0.6143 0.1869
C10 C 0.3667(2) 0.41060(17) 0.17861(5)
C11 C 0.5873(2) 0.54941(19) 0.14143(6)
H10 H 0.5817 0.4868 0.1172
H11 H 0.6641 0.5078 0.1608
C12 C 0.6482(2) 0.69486(19) 0.12776(6)
H12 H 0.6768 0.7514 0.1522
H13 H 0.7441 0.6829 0.1108
C13 C 0.52205(19) 0.77267(16) 0.10303(5)
H14 H 0.4985 0.7130 0.0785
C14 C 0.3661(2) 0.78583(17) 0.12755(5)
C15 C 0.2673(2) 0.8832(2) 0.09956(6)
H15 H 0.2044 0.8266 0.0800
H16 H 0.1946 0.9418 0.1161
C16 C 0.3862(2) 0.97691(19) 0.07654(5)
H17 H 0.3744 1.0765 0.0851
H18 H 0.3679 0.9710 0.0466
C17 C 0.55432(19) 0.92246(17) 0.08720(5)
H19 H 0.5954 0.9799 0.1106
C18 C 0.2672(3) 0.5577(2) 0.09411(5)
H20 H 0.1867 0.4847 0.0980
H21 H 0.3650 0.5141 0.0843
H22 H 0.2300 0.6264 0.0739
C19 C 0.3557(3) 0.29307(19) 0.14643(6)
H23 H 0.3518 0.2013 0.1602
H24 H 0.4484 0.2969 0.1285
H25 H 0.2600 0.3060 0.1300
C20 C 0.6727(2) 0.93407(17) 0.05175(5)
C21 C 0.6348(3) 0.8402(2) 0.01505(6)
H26 H 0.5286 0.8619 0.0050
H27 H 0.6397 0.7410 0.0234
H28 H 0.7119 0.8573 -0.0068
C22 C 0.8452(2) 0.9135(2) 0.06537(6)
H29 H 0.8598 0.9424 0.0943
H30 H 0.8781 0.8138 0.0623
C23 C 0.9388(2) 1.0095(2) 0.03643(7)
H31 H 0.9697 0.9584 0.0112
H32 H 1.0350 1.0460 0.0500
C24 C 0.8231(2) 1.12964(18) 0.02665(5)
H33 H 0.8241 1.1467 -0.0036
C25 C 0.8594(2) 1.26976(19) 0.04873(5)
C26 C 0.8613(3) 1.2531(2) 0.09518(5)
H34 H 0.9472 1.1895 0.1031
H35 H 0.7603 1.2137 0.1043
H36 H 0.8775 1.3455 0.1080
C27 C 0.7392(2) 1.3810(2) 0.03613(6)
H37 H 0.7690 1.4723 0.0479
H38 H 0.6346 1.3539 0.0462
H39 H 0.7367 1.3884 0.0062
C28 C 0.1150(3) 0.3479(2) 0.27173(7)
H40 H 0.0078 0.3855 0.2689
H41 H 0.1832 0.4196 0.2842
H42 H 0.1129 0.2639 0.2892
C29 C 0.0728(3) 0.1946(2) 0.21022(8)
H43 H 0.1101 0.1726 0.1825
H44 H -0.0359 0.2296 0.2088
H45 H 0.0763 0.1093 0.2271
C30 C 0.3936(3) 0.86888(18) 0.16775(5)
H46 H 0.4645 0.8152 0.1856
H47 H 0.2925 0.8835 0.1817
H48 H 0.4413 0.9605 0.1614
O5? O 0.7108(16) 0.2379(14) 0.2265(4)
loop_
_geom_bond_atom_site_label_1
_geom_bond_atom_site_label_2
_geom_bond_site_symmetry_1
_geom_bond_site_symmetry_2
O1 C2 1_555 1_555
O2 C3 1_555 1_555
O3 C20 1_555 1_555
O4 H1 1_555 1_555
C1 H2 1_555 1_555
C2 C1 1_555 1_555
H3 C2 1_555 1_555
C3 C1 1_555 1_555
C4 C3 1_555 1_555
C5 C4 1_555 1_555
H4 C5 1_555 1_555
C6 C5 1_555 1_555
H5 C6 1_555 1_555
H6 C6 1_555 1_555
C7 C6 1_555 1_555
H7 C7 1_555 1_555
H8 C7 1_555 1_555
C8 C7 1_555 1_555
C9 C8 1_555 1_555
H9 C9 1_555 1_555
C10 C1 1_555 1_555
C11 C9 1_555 1_555
H10 C11 1_555 1_555
H11 C11 1_555 1_555
C12 C11 1_555 1_555
H12 C12 1_555 1_555
H13 C12 1_555 1_555
C13 C12 1_555 1_555
H14 C13 1_555 1_555
C14 C8 1_555 1_555
C15 C14 1_555 1_555
H15 C15 1_555 1_555
H16 C15 1_555 1_555
C16 C15 1_555 1_555
H17 C16 1_555 1_555
H18 C16 1_555 1_555
C17 C13 1_555 1_555
H19 C17 1_555 1_555
C18 C8 1_555 1_555
H20 C18 1_555 1_555
H21 C18 1_555 1_555
H22 C18 1_555 1_555
C19 C10 1_555 1_555
H23 C19 1_555 1_555
H24 C19 1_555 1_555
H25 C19 1_555 1_555
C20 C17 1_555 1_555
C21 C20 1_555 1_555
H26 C21 1_555 1_555
H27 C21 1_555 1_555
H28 C21 1_555 1_555
C22 C20 1_555 1_555
H29 C22 1_555 1_555
H30 C22 1_555 1_555
C23 C22 1_555 1_555
H31 C23 1_555 1_555
H32 C23 1_555 1_555
C24 O3 1_555 1_555
H33 C24 1_555 1_555
C25 O4 1_555 1_555
C26 C25 1_555 1_555
H34 C26 1_555 1_555
H35 C26 1_555 1_555
H36 C26 1_555 1_555
C27 C25 1_555 1_555
H37 C27 1_555 1_555
H38 C27 1_555 1_555
H39 C27 1_555 1_555
C28 C4 1_555 1_555
H40 C28 1_555 1_555
H41 C28 1_555 1_555
H42 C28 1_555 1_555
C29 C4 1_555 1_555
H43 C29 1_555 1_555
H44 C29 1_555 1_555
H45 C29 1_555 1_555
C30 C14 1_555 1_555
H46 C30 1_555 1_555
H47 C30 1_555 1_555
H48 C30 1_555 1_555
C5 C10 1_555 1_555
C9 C10 1_555 1_555
C13 C14 1_555 1_555
C16 C17 1_555 1_555
C23 C24 1_555 1_555
C24 C25 1_555 1_555

#END
