
#######################################################################
#
#                 Cambridge Crystallographic Data Centre
#                                CCDC 
#
#######################################################################
#
# If this CIF has been generated from an entry in the Cambridge 
# Structural Database, then it will include bibliographic, chemical, 
# crystal, experimental, refinement or atomic coordinate data resulting 
# from the CCDC's data processing and validation procedures.
#
#######################################################################

data_EGUBEP
_chemical_formula_moiety         'C26 H27 N3 O2 S2'
_chemical_name_systematic        
'benzyl 2-((9-(2-(2-methoxyethoxy)ethyl)-9H-carbazol-3-yl)methylene)hydrazinecarbodithioate'
_symmetry_cell_setting           monoclinic
_symmetry_space_group_name_H-M   'P 21/n'
_symmetry_Int_Tables_number      14
_space_group_name_Hall           '-P 2yn'
loop_
_symmetry_equiv_pos_site_id
_symmetry_equiv_pos_as_xyz
1 x,y,z
2 1/2-x,1/2+y,1/2-z
3 -x,-y,-z
4 1/2+x,1/2-y,1/2+z
_cell_length_a                   19.463(5)
_cell_length_b                   5.647(5)
_cell_length_c                   22.145(5)
_cell_angle_alpha                90
_cell_angle_beta                 96.598(5)
_cell_angle_gamma                90
_cell_volume                     2417.78
_exptl_crystal_colour            yellow
_exptl_crystal_description       rectangular
_cell_formula_units_Z            4
loop_
_atom_site_label
_atom_site_type_symbol
_atom_site_fract_x
_atom_site_fract_y
_atom_site_fract_z
S1 S 0.61570(3) 0.02596(12) 0.85503(3)
S2 S 0.49159(4) -0.16508(14) 0.91042(3)
N1 N 0.82650(10) 1.2122(4) 1.04119(9)
N2 N 0.57126(11) 0.1864(4) 0.95246(9)
H1 H 0.5448 0.1958 0.9809
C1 C 0.78389(13) 1.0230(4) 1.02328(10)
N3 N 0.62561(11) 0.3423(4) 0.95251(9)
C2 C 0.55834(13) 0.0215(4) 0.90972(10)
C3 C 0.73014(13) 1.0102(4) 1.06131(10)
C4 C 0.80183(13) 1.3209(4) 1.09089(11)
C5 C 0.78710(14) 0.8617(4) 0.97584(11)
H2 H 0.8225 0.8693 0.9511
C6 C 0.62436(13) -0.2287(4) 0.75283(10)
C7 C 0.61880(14) -0.0489(5) 0.70992(11)
H3 H 0.5901 0.0800 0.7144
C8 C 0.62986(14) 0.4935(4) 0.99541(11)
H4 H 0.5970 0.4875 1.0227
C9 C 0.70874(14) 1.2758(5) 1.15385(12)
H5 H 0.6697 1.1970 1.1639
C10 C 0.74297(13) 1.1997(4) 1.10504(11)
C11 C 0.68040(13) 0.8356(4) 1.05173(11)
H6 H 0.6454 0.8250 1.0768
C12 C 0.68302(14) 0.6751(4) 1.00416(10)
C13 C 0.82701(15) 1.5194(5) 1.12325(12)
H7 H 0.8655 1.6011 1.1130
C14 C 0.88940(14) 1.2802(5) 1.01593(12)
H8 H 0.8885 1.4494 1.0083
H9 H 0.8909 1.2002 0.9773
C15 C 0.70432(15) -0.4280(5) 0.69578(14)
H10 H 0.7331 -0.5566 0.6911
C16 C 0.73450(16) 1.4714(5) 1.18686(13)
H11 H 0.7129 1.5238 1.2197
C17 C 0.69845(14) -0.2493(5) 0.65345(12)
H12 H 0.7233 -0.2562 0.6201
C18 C 0.73709(14) 0.6934(4) 0.96691(11)
H13 H 0.7385 0.5864 0.9352
O1 O 0.95763(12) 0.9775(4) 1.06819(11)
O2 O 0.97798(14) 1.1630(5) 1.20788(14)
C19 C 0.66765(14) -0.4162(5) 0.74506(12)
H14 H 0.6721 -0.5372 0.7737
C20 C 0.65595(16) -0.0614(5) 0.66055(12)
H15 H 0.6520 0.0594 0.6318
C21 C 0.79261(16) 1.5900(5) 1.17103(13)
H16 H 0.8087 1.7216 1.1936
C22 C 0.58404(15) -0.2200(5) 0.80696(12)
H17 H 0.5899 -0.3672 0.8296
H18 H 0.5352 -0.1991 0.7935
C23 C 0.95469(16) 1.2182(6) 1.05856(18)
H19 H 0.9954 1.2695 1.0406
H20 H 0.9540 1.2998 1.0970
C24 C 0.9576(2) 0.9580(7) 1.17778(17)
H21 H 0.9085 0.9668 1.1641
H22 H 0.9650 0.8255 1.2057
C25 C 0.9963(2) 0.9147(8) 1.12419(18)
H23 H 1.0389 1.0056 1.1291
H24 H 1.0086 0.7484 1.1230
C26 C 0.9435(2) 1.2103(9) 1.2578(2)
H25 H 0.8981 1.2699 1.2444
H26 H 0.9688 1.3265 1.2830
H27 H 0.9397 1.0674 1.2807
loop_
_geom_bond_atom_site_label_1
_geom_bond_atom_site_label_2
_geom_bond_site_symmetry_1
_geom_bond_site_symmetry_2
S1 C2 1_555 1_555
S2 C2 1_555 1_555
N1 C1 1_555 1_555
N2 H1 1_555 1_555
C1 C3 1_555 1_555
N3 N2 1_555 1_555
C2 N2 1_555 1_555
C3 C10 1_555 1_555
C4 N1 1_555 1_555
C5 C1 1_555 1_555
H2 C5 1_555 1_555
C6 C7 1_555 1_555
C7 H3 1_555 1_555
C8 N3 1_555 1_555
H4 C8 1_555 1_555
C9 H5 1_555 1_555
C10 C4 1_555 1_555
C11 C3 1_555 1_555
H6 C11 1_555 1_555
C12 C8 1_555 1_555
C13 C4 1_555 1_555
H7 C13 1_555 1_555
C14 N1 1_555 1_555
H8 C14 1_555 1_555
H9 C14 1_555 1_555
C15 H10 1_555 1_555
C16 C9 1_555 1_555
H11 C16 1_555 1_555
C17 C15 1_555 1_555
H12 C17 1_555 1_555
C18 C5 1_555 1_555
H13 C18 1_555 1_555
O1 C23 1_555 1_555
O2 C24 1_555 1_555
C19 C6 1_555 1_555
H14 C19 1_555 1_555
C20 C7 1_555 1_555
H15 C20 1_555 1_555
C21 C13 1_555 1_555
H16 C21 1_555 1_555
C22 S1 1_555 1_555
H17 C22 1_555 1_555
H18 C22 1_555 1_555
C23 C14 1_555 1_555
H19 C23 1_555 1_555
H20 C23 1_555 1_555
C24 H21 1_555 1_555
H22 C24 1_555 1_555
C25 O1 1_555 1_555
H23 C25 1_555 1_555
H24 C25 1_555 1_555
C26 O2 1_555 1_555
H25 C26 1_555 1_555
H26 C26 1_555 1_555
H27 C26 1_555 1_555
C6 C22 1_555 1_555
C9 C10 1_555 1_555
C11 C12 1_555 1_555
C12 C18 1_555 1_555
C15 C19 1_555 1_555
C16 C21 1_555 1_555
C17 C20 1_555 1_555
C24 C25 1_555 1_555

#END
