
#######################################################################
#
#                 Cambridge Crystallographic Data Centre
#                                CCDC 
#
#######################################################################
#
# If this CIF has been generated from an entry in the Cambridge 
# Structural Database, then it will include bibliographic, chemical, 
# crystal, experimental, refinement or atomic coordinate data resulting 
# from the CCDC's data processing and validation procedures.
#
#######################################################################

data_EGUFIX
_chemical_formula_moiety         'C30 H46 O5'
_chemical_name_systematic        
8-hydroxy-4-(hydroxymethyl)-4,6,12,16-tetramethyl-15-(6-methyl-4-oxoheptan-2-yl)-2-oxapentacyclo[9.7.0.0^1,6^.0^5,9^.0^12,16^]octadec-10-en-3-one
_symmetry_cell_setting           monoclinic
_symmetry_space_group_name_H-M   'P 21'
_symmetry_Int_Tables_number      4
_space_group_name_Hall           'P 2yb'
loop_
_symmetry_equiv_pos_site_id
_symmetry_equiv_pos_as_xyz
1 x,y,z
2 -x,1/2+y,-z
_cell_length_a                   11.0255(2)
_cell_length_b                   8.6948(2)
_cell_length_c                   13.8930(3)
_cell_angle_alpha                90
_cell_angle_beta                 91.2420(10)
_cell_angle_gamma                90
_cell_volume                     1331.53
_exptl_crystal_colour            colorless
_exptl_crystal_description       block
_cell_formula_units_Z            2
loop_
_atom_site_label
_atom_site_type_symbol
_atom_site_fract_x
_atom_site_fract_y
_atom_site_fract_z
O1 O -0.28949(10) 0.27931(13) 0.96765(8)
H1 H -0.3071 0.1943 0.9422
O2 O -0.23598(9) 0.83008(13) 0.76303(6)
O3 O -0.29576(11) 1.02905(14) 0.84447(8)
O4 O 0.44308(13) 0.44964(18) 0.47480(11)
O5 O -0.52078(10) 0.80677(16) 0.90414(8)
H2 H -0.5878 0.8097 0.9318
C1 C -0.27317(13) 0.39698(18) 0.80673(10)
H3 H -0.2177 0.3698 0.7542
H4 H -0.3482 0.3352 0.7988
C2 C -0.21179(12) 0.36349(18) 0.90566(10)
H5 H -0.1333 0.3078 0.8974
C3 C -0.27842(12) 0.89078(19) 0.84405(11)
C4 C -0.30290(12) 0.79113(18) 0.93225(9)
C5 C -0.30199(12) 0.61546(17) 0.91096(9)
H6 H -0.3749 0.5689 0.9411
C6 C -0.18932(12) 0.52497(18) 0.94621(9)
H7 H -0.1807 0.5248 1.0180
C7 C -0.07742(12) 0.58436(18) 0.89877(9)
H8 H -0.0019 0.5778 0.9328
C8 C -0.07978(12) 0.64570(17) 0.81105(9)
C9 C -0.20157(12) 0.66485(17) 0.75694(9)
C10 C -0.30370(12) 0.57041(18) 0.80290(9)
C11 C -0.19331(12) 0.63860(18) 0.64772(9)
H9 H -0.2623 0.6924 0.6157
H10 H -0.2037 0.5273 0.6350
C12 C -0.07562(12) 0.69167(17) 0.60015(9)
H11 H -0.0735 0.6512 0.5336
H12 H -0.0745 0.8054 0.5967
C13 C 0.03694(12) 0.63575(17) 0.65674(9)
C14 C 0.03191(12) 0.70420(17) 0.76111(9)
C15 C 0.15589(12) 0.6535(2) 0.80311(10)
H13 H 0.1541 0.5445 0.8236
H14 H 0.1805 0.7182 0.8588
C16 C 0.24229(12) 0.6767(2) 0.71812(10)
H15 H 0.2979 0.5878 0.7132
H16 H 0.2916 0.7707 0.7283
C17 C 0.16302(12) 0.69200(17) 0.62377(10)
H17 H 0.1561 0.8038 0.6077
C18 C 0.03710(12) 0.45848(18) 0.66022(10)
H18 H -0.0281 0.4229 0.7015
H19 H 0.1153 0.4222 0.6863
H20 H 0.0242 0.4176 0.5951
C19 C -0.42604(12) 0.5951(2) 0.74998(10)
H21 H -0.4416 0.7055 0.7431
H22 H -0.4909 0.5479 0.7870
H23 H -0.4236 0.5475 0.6861
C20 C 0.22246(12) 0.61061(18) 0.53865(10)
H24 H 0.2348 0.5000 0.5560
C21 C 0.14742(14) 0.6181(2) 0.44472(10)
H25 H 0.0721 0.5599 0.4520
H26 H 0.1941 0.5736 0.3923
H27 H 0.1281 0.7255 0.4297
C22 C 0.34706(13) 0.6825(2) 0.51993(11)
H28 H 0.3352 0.7843 0.4891
H29 H 0.3904 0.6989 0.5822
C23 C 0.42445(13) 0.5830(2) 0.45598(11)
C24 C 0.47454(14) 0.6573(2) 0.36658(10)
H30 H 0.4927 0.7665 0.3811
H31 H 0.4108 0.6553 0.3153
C25 C 0.58837(13) 0.5826(2) 0.32798(10)
H32 H 0.5746 0.4691 0.3236
C26 C 0.69601(14) 0.6118(2) 0.39644(12)
H33 H 0.7070 0.7228 0.4051
H34 H 0.7695 0.5675 0.3693
H35 H 0.6806 0.5638 0.4588
C27 C 0.61384(17) 0.6436(2) 0.22729(11)
H36 H 0.5449 0.6201 0.1841
H37 H 0.6872 0.5946 0.2030
H38 H 0.6258 0.7552 0.2302
C28 C -0.20912(14) 0.8411(2) 1.01076(10)
H39 H -0.1271 0.8169 0.9895
H40 H -0.2249 0.7859 1.0707
H41 H -0.2160 0.9520 1.0218
C29 C -0.42658(14) 0.8398(2) 0.97132(11)
H42 H -0.4415 0.7846 1.0322
H43 H -0.4257 0.9515 0.9852
C30 C 0.03064(13) 0.88272(19) 0.76345(10)
H44 H -0.0383 0.9208 0.7246
H45 H 0.1063 0.9221 0.7371
H46 H 0.0231 0.9180 0.8301
loop_
_geom_bond_atom_site_label_1
_geom_bond_atom_site_label_2
_geom_bond_site_symmetry_1
_geom_bond_site_symmetry_2
O1 H1 1_555 1_555
O2 C3 1_555 1_555
O3 C3 1_555 1_555
O4 C23 1_555 1_555
O5 H2 1_555 1_555
C1 H3 1_555 1_555
H4 C1 1_555 1_555
C2 O1 1_555 1_555
H5 C2 1_555 1_555
C3 C4 1_555 1_555
C4 C5 1_555 1_555
C5 H6 1_555 1_555
C6 C2 1_555 1_555
H7 C6 1_555 1_555
C7 C6 1_555 1_555
H8 C7 1_555 1_555
C8 C7 1_555 1_555
C9 O2 1_555 1_555
C10 C1 1_555 1_555
C11 C9 1_555 1_555
H9 C11 1_555 1_555
H10 C11 1_555 1_555
C12 C11 1_555 1_555
H11 C12 1_555 1_555
H12 C12 1_555 1_555
C13 C12 1_555 1_555
C14 C8 1_555 1_555
C15 C14 1_555 1_555
H13 C15 1_555 1_555
H14 C15 1_555 1_555
C16 C15 1_555 1_555
H15 C16 1_555 1_555
H16 C16 1_555 1_555
C17 C13 1_555 1_555
H17 C17 1_555 1_555
C18 C13 1_555 1_555
H18 C18 1_555 1_555
H19 C18 1_555 1_555
H20 C18 1_555 1_555
C19 C10 1_555 1_555
H21 C19 1_555 1_555
H22 C19 1_555 1_555
H23 C19 1_555 1_555
C20 C17 1_555 1_555
H24 C20 1_555 1_555
C21 C20 1_555 1_555
H25 C21 1_555 1_555
H26 C21 1_555 1_555
H27 C21 1_555 1_555
C22 C20 1_555 1_555
H28 C22 1_555 1_555
H29 C22 1_555 1_555
C23 C22 1_555 1_555
C24 C23 1_555 1_555
H30 C24 1_555 1_555
H31 C24 1_555 1_555
C25 C24 1_555 1_555
H32 C25 1_555 1_555
C26 C25 1_555 1_555
H33 C26 1_555 1_555
H34 C26 1_555 1_555
H35 C26 1_555 1_555
C27 C25 1_555 1_555
H36 C27 1_555 1_555
H37 C27 1_555 1_555
H38 C27 1_555 1_555
C28 C4 1_555 1_555
H39 C28 1_555 1_555
H40 C28 1_555 1_555
H41 C28 1_555 1_555
C29 O5 1_555 1_555
H42 C29 1_555 1_555
H43 C29 1_555 1_555
C30 C14 1_555 1_555
H44 C30 1_555 1_555
H45 C30 1_555 1_555
H46 C30 1_555 1_555
C1 C2 1_555 1_555
C4 C29 1_555 1_555
C5 C6 1_555 1_555
C5 C10 1_555 1_555
C8 C9 1_555 1_555
C9 C10 1_555 1_555
C13 C14 1_555 1_555
C16 C17 1_555 1_555

#END
