
#######################################################################
#
#                 Cambridge Crystallographic Data Centre
#                                CCDC 
#
#######################################################################
#
# If this CIF has been generated from an entry in the Cambridge 
# Structural Database, then it will include bibliographic, chemical, 
# crystal, experimental, refinement or atomic coordinate data resulting 
# from the CCDC's data processing and validation procedures.
#
#######################################################################

data_EGUJEV01
_chemical_formula_moiety         'C4 H12 N2 2+,O4 S1 2-,H2 O1'
_chemical_name_systematic        'Piperazinium sulfate monohydrate'
_symmetry_cell_setting           monoclinic
_symmetry_space_group_name_H-M   'P 21/n'
_symmetry_Int_Tables_number      14
_space_group_name_Hall           '-P 2yn'
loop_
_symmetry_equiv_pos_site_id
_symmetry_equiv_pos_as_xyz
1 x,y,z
2 1/2-x,1/2+y,1/2-z
3 -x,-y,-z
4 1/2+x,1/2-y,1/2+z
_cell_length_a                   6.3860(13)
_cell_length_b                   11.695(2)
_cell_length_c                   11.680(2)
_cell_angle_alpha                90
_cell_angle_beta                 101.06(3)
_cell_angle_gamma                90
_cell_volume                     856.111
_exptl_crystal_colour            colorless
_exptl_crystal_description       prismatic
_cell_formula_units_Z            4
loop_
_atom_site_label
_atom_site_type_symbol
_atom_site_fract_x
_atom_site_fract_y
_atom_site_fract_z
S1 S 0.36055(10) 0.64146(5) 0.26908(5)
O1 O 0.2183(4) 0.54188(17) 0.27469(17)
O2 O 0.5301(3) 0.6105(2) 0.20737(19)
O3 O 0.4525(3) 0.67428(16) 0.39162(15)
O4 O 0.2364(3) 0.73794(18) 0.21134(18)
O5 O 0.6499(5) 0.2829(3) 0.2148(3)
H1 H 0.720(8) 0.225(4) 0.235(4)
H2 H 0.535(7) 0.273(4) 0.246(4)
N1 N 0.0372(4) 0.4115(2) 0.0857(2)
H3 H 0.032(7) 0.330(4) 0.107(3)
H4 H 0.106(6) 0.448(3) 0.154(3)
C1 C 0.1669(5) 0.4181(3) -0.0078(3)
H5 H 0.099(6) 0.364(3) -0.065(3)
C2 C -0.1799(5) 0.4599(3) 0.0473(2)
H6 H -0.258(5) 0.411(3) -0.017(3)
H7 H 0.312(6) 0.383(3) 0.021(3)
H8 H -0.257(6) 0.456(3) 0.109(3)
C2B C 0.1799(5) 0.5401(3) -0.0473(2)
N1B N -0.0372(4) 0.5885(2) -0.0857(2)
H3B H -0.032(7) 0.670(4) -0.107(3)
H4B H -0.106(6) 0.552(3) -0.154(3)
C1B C -0.1669(5) 0.5819(3) 0.0078(3)
H5B H -0.099(6) 0.636(3) 0.065(3)
H7B H -0.312(6) 0.617(3) -0.021(3)
H6B H 0.258(5) 0.589(3) 0.017(3)
H8B H 0.257(6) 0.544(3) -0.109(3)
N2 N 0.8022(4) 0.5540(2) 0.5091(2)
H9 H 0.690(6) 0.605(3) 0.479(3)
C3 C 0.8088(5) 0.4584(3) 0.4252(2)
H10 H 0.818(5) 0.491(3) 0.352(3)
C4 C 1.0056(5) 0.6203(2) 0.5319(3)
H11 H 1.016(6) 0.656(3) 0.459(3)
H12 H 0.987(5) 0.681(3) 0.587(3)
H13 H 0.667(6) 0.416(3) 0.413(3)
H14 H 0.780(6) 0.530(3) 0.575(3)
C4B C 0.9944(5) 0.3797(2) 0.4681(3)
N2B N 1.1978(4) 0.4460(2) 0.4909(2)
H9B H 1.310(6) 0.395(3) 0.521(3)
C3B C 1.1912(5) 0.5416(3) 0.5748(2)
H10B H 1.182(5) 0.509(3) 0.648(3)
H13B H 1.333(6) 0.584(3) 0.587(3)
H14B H 1.220(6) 0.470(3) 0.425(3)
H11B H 0.984(6) 0.344(3) 0.541(3)
H12B H 1.013(5) 0.319(3) 0.413(3)
loop_
_geom_bond_atom_site_label_1
_geom_bond_atom_site_label_2
_geom_bond_site_symmetry_1
_geom_bond_site_symmetry_2
S1 O1 1_555 1_555
O2 S1 1_555 1_555
O3 S1 1_555 1_555
O4 S1 1_555 1_555
O5 H1 1_555 1_555
H2 O5 1_555 1_555
N1 H3 1_555 1_555
H4 N1 1_555 1_555
C1 N1 1_555 1_555
H5 C1 1_555 1_555
C2 N1 1_555 1_555
H6 C2 1_555 1_555
H7 C1 1_555 1_555
H8 C2 1_555 1_555
N2 H9 1_555 1_555
C3 N2 1_555 1_555
H10 C3 1_555 1_555
C4 N2 1_555 1_555
H11 C4 1_555 1_555
H12 C4 1_555 1_555
H13 C3 1_555 1_555
H14 N2 1_555 1_555
C2B C1 1_555 1_555
N1B C2B 1_555 1_555
H3B N1B 1_555 1_555
H4B N1B 1_555 1_555
C1B C2 1_555 1_555
H5B C1B 1_555 1_555
H7B C1B 1_555 1_555
H6B C2B 1_555 1_555
H8B C2B 1_555 1_555
C4B C3 1_555 1_555
N2B C4B 1_555 1_555
H9B N2B 1_555 1_555
C3B C4 1_555 1_555
H10B C3B 1_555 1_555
H13B C3B 1_555 1_555
H14B N2B 1_555 1_555
H11B C4B 1_555 1_555
H12B C4B 1_555 1_555
N1B C1B 1_555 1_555
N2B C3B 1_555 1_555

#END
