
#######################################################################
#
#                 Cambridge Crystallographic Data Centre
#                                CCDC 
#
#######################################################################
#
# If this CIF has been generated from an entry in the Cambridge 
# Structural Database, then it will include bibliographic, chemical, 
# crystal, experimental, refinement or atomic coordinate data resulting 
# from the CCDC's data processing and validation procedures.
#
#######################################################################

data_EGUJOH
_chemical_formula_moiety         'C38 H26 N2'
_chemical_name_systematic        
1-(9,9-diphenyl-9H-fluoren-2-yl)-2-phenyl-1H-benzimidazole
_symmetry_cell_setting           monoclinic
_symmetry_space_group_name_H-M   'C 2/c'
_symmetry_Int_Tables_number      15
_space_group_name_Hall           '-C 2yn'
loop_
_symmetry_equiv_pos_site_id
_symmetry_equiv_pos_as_xyz
1 x,y,z
2 -x,y,1/2-z
3 1/2+x,1/2+y,z
4 1/2-x,1/2+y,1/2-z
5 -x,-y,-z
6 x,-y,1/2+z
7 1/2-x,1/2-y,-z
8 1/2+x,1/2-y,1/2+z
_cell_length_a                   36.320(7)
_cell_length_b                   16.622(3)
_cell_length_c                   25.685(5)
_cell_angle_alpha                90
_cell_angle_beta                 134.99(3)
_cell_angle_gamma                90
_cell_volume                     10966.5
_cell_formula_units_Z            16
loop_
_atom_site_label
_atom_site_type_symbol
_atom_site_fract_x
_atom_site_fract_y
_atom_site_fract_z
N1 N 0.43853(13) 0.58932(19) 0.45080(18)
N2 N 0.39389(12) 0.47326(19) 0.40982(18)
C1 C 0.38317(18) 0.4936(3) 0.2806(3)
H1 H 0.3529 0.4748 0.2660
C2 C 0.3880(2) 0.4913(3) 0.2325(3)
H2 H 0.3609 0.4706 0.1855
C3 C 0.4325(3) 0.5192(3) 0.2527(4)
H3 H 0.4359 0.5161 0.2201
C4 C 0.4720(2) 0.5518(3) 0.3223(3)
H4 H 0.5017 0.5723 0.3362
C5 C 0.46731(18) 0.5540(3) 0.3712(3)
H5 H 0.4940 0.5759 0.4178
C6 C 0.42336(18) 0.5239(2) 0.3515(2)
C7 C 0.41904(15) 0.5293(2) 0.4043(2)
C8 C 0.42549(16) 0.5717(3) 0.4891(2)
C9 C 0.43579(17) 0.6148(3) 0.5449(2)
H6 H 0.4538 0.6632 0.5621
C10 C 0.41835(19) 0.5830(3) 0.5734(2)
H7 H 0.4251 0.6103 0.6110
C11 C 0.39089(18) 0.5114(3) 0.5480(3)
H8 H 0.3795 0.4922 0.5687
C12 C 0.38002(16) 0.4678(3) 0.4928(2)
H9 H 0.3620 0.4193 0.4759
C13 C 0.39745(15) 0.5003(2) 0.4639(2)
C14 C 0.37172(15) 0.3971(2) 0.3720(2)
C15 C 0.31808(15) 0.3884(2) 0.3188(2)
H10 H 0.2972 0.4295 0.3110
C16 C 0.29569(14) 0.3190(2) 0.2776(2)
H11 H 0.2597 0.3131 0.2415
C17 C 0.32745(14) 0.2581(2) 0.29048(19)
C18 C 0.31384(14) 0.1823(2) 0.25164(19)
C19 C 0.26586(14) 0.1518(2) 0.1887(2)
H12 H 0.2355 0.1804 0.1652
C20 C 0.26365(17) 0.0787(3) 0.1612(2)
H13 H 0.2316 0.0575 0.1193
C21 C 0.30884(19) 0.0367(3) 0.1957(2)
H14 H 0.3069 -0.0127 0.1770
C22 C 0.35703(16) 0.0675(2) 0.2581(2)
H15 H 0.3874 0.0394 0.2808
C23 C 0.35924(14) 0.1405(2) 0.28603(19)
C24 C 0.40718(13) 0.1879(2) 0.35276(19)
C25 C 0.38152(13) 0.2645(2) 0.34727(18)
C26 C 0.40374(14) 0.3354(2) 0.38763(19)
H16 H 0.4397 0.3412 0.4247
C27 C 0.43561(14) 0.1461(2) 0.4263(2)
C28 C 0.41576(15) 0.0803(2) 0.4318(2)
H17 H 0.3837 0.0600 0.3892
C29 C 0.44166(17) 0.0429(3) 0.4981(2)
H18 H 0.4272 -0.0018 0.4999
C30 C 0.48872(18) 0.0723(3) 0.5612(2)
H19 H 0.5065 0.0478 0.6063
C31 C 0.50954(15) 0.1387(3) 0.5573(2)
H20 H 0.5416 0.1589 0.6000
C32 C 0.48322(15) 0.1752(2) 0.4905(2)
H21 H 0.4977 0.2200 0.4887
C33 C 0.44415(13) 0.2026(2) 0.34380(18)
C34 C 0.48385(14) 0.1488(2) 0.3725(2)
H22 H 0.4885 0.1042 0.3984
C35 C 0.51653(14) 0.1598(3) 0.3635(2)
H23 H 0.5429 0.1230 0.3832
C36 C 0.51012(16) 0.2254(3) 0.3253(2)
H24 H 0.5327 0.2336 0.3200
C37 C 0.47064(16) 0.2787(2) 0.2950(2)
H25 H 0.4657 0.3222 0.2678
C38 C 0.43794(14) 0.2684(2) 0.30471(19)
H26 H 0.4117 0.3056 0.2850
N3 N 0.23727(15) 0.33981(19) 0.4257(2)
N4 N 0.23424(13) 0.22256(19) 0.37825(18)
C39 C 0.35249(18) 0.2434(2) 0.4857(3)
H27 H 0.3367 0.2241 0.4398
C40 C 0.4058(2) 0.2413(3) 0.5434(3)
H28 H 0.4259 0.2209 0.5365
C41 C 0.4293(2) 0.2693(3) 0.6111(3)
H29 H 0.4654 0.2671 0.6503
C42 C 0.3999(2) 0.3009(3) 0.6217(3)
H30 H 0.4160 0.3204 0.6677
C43 C 0.3463(2) 0.3032(3) 0.5637(3)
H31 H 0.3264 0.3246 0.5707
C44 C 0.32199(17) 0.2738(2) 0.4952(3)
C45 C 0.26461(17) 0.2798(3) 0.4340(2)
C46 C 0.18635(18) 0.3216(3) 0.3616(3)
C47 C 0.1410(2) 0.3642(3) 0.3271(3)
H32 H 0.1418 0.4120 0.3467
C48 C 0.0950(2) 0.3327(3) 0.2631(3)
H33 H 0.0643 0.3608 0.2384
C49 C 0.09286(18) 0.2600(3) 0.2338(2)
H34 H 0.0609 0.2399 0.1909
C50 C 0.13767(19) 0.2176(3) 0.2678(3)
H35 H 0.1368 0.1692 0.2488
C51 C 0.18352(18) 0.2503(3) 0.3308(3)
C52 C 0.24997(14) 0.1470(2) 0.3720(2)
C53 C 0.24929(15) 0.1384(2) 0.3176(2)
H36 H 0.2363 0.1796 0.2838
C54 C 0.26793(14) 0.0685(2) 0.3137(2)
H37 H 0.2676 0.0623 0.2774
C55 C 0.28701(13) 0.0080(2) 0.36420(19)
C56 C 0.31241(13) -0.0684(2) 0.3764(2)
C57 C 0.32792(14) -0.0976(2) 0.3434(2)
H38 H 0.3218 -0.0683 0.3070
C58 C 0.35270(15) -0.1716(3) 0.3664(2)
H39 H 0.3624 -0.1932 0.3441
C59 C 0.36309(14) -0.2130(3) 0.4216(2)
H40 H 0.3800 -0.2624 0.4364
C60 C 0.34899(14) -0.1831(2) 0.4563(2)
H41 H 0.3567 -0.2115 0.4943
C61 C 0.32318(13) -0.1101(2) 0.43273(19)
C62 C 0.30427(13) -0.0623(2) 0.46141(18)
C63 C 0.28444(12) 0.0149(2) 0.41563(18)
C64 C 0.26601(13) 0.0847(2) 0.41965(19)
H42 H 0.2644 0.0897 0.4541
C65 C 0.25951(13) -0.1038(2) 0.44528(18)
C66 C 0.23370(15) -0.1700(2) 0.3989(2)
H43 H 0.2438 -0.1902 0.3768
C67 C 0.19336(16) -0.2063(3) 0.3852(2)
H44 H 0.1769 -0.2510 0.3544
C68 C 0.17737(16) -0.1778(3) 0.4159(2)
H45 H 0.1500 -0.2024 0.4062
C69 C 0.20235(16) -0.1116(3) 0.4620(2)
H46 H 0.1918 -0.0916 0.4836
C70 C 0.24270(15) -0.0754(2) 0.47605(19)
H47 H 0.2590 -0.0308 0.5070
C71 C 0.35069(13) -0.0469(2) 0.54490(19)
C72 C 0.36120(14) -0.1013(2) 0.5952(2)
H48 H 0.3395 -0.1455 0.5783
C73 C 0.40354(14) -0.0903(3) 0.6700(2)
H49 H 0.4105 -0.1278 0.7029
C74 C 0.43528(15) -0.0251(3) 0.6960(2)
H50 H 0.4631 -0.0170 0.7464
C75 C 0.42552(14) 0.0289(3) 0.6463(2)
H51 H 0.4475 0.0728 0.6635
C76 C 0.38334(14) 0.0180(2) 0.5715(2)
H52 H 0.3770 0.0549 0.5387
loop_
_geom_bond_atom_site_label_1
_geom_bond_atom_site_label_2
_geom_bond_site_symmetry_1
_geom_bond_site_symmetry_2
N1 C7 1_555 1_555
N2 C7 1_555 1_555
C1 H1 1_555 1_555
C2 C1 1_555 1_555
H2 C2 1_555 1_555
C3 C2 1_555 1_555
H3 C3 1_555 1_555
C4 C3 1_555 1_555
H4 C4 1_555 1_555
C5 C4 1_555 1_555
H5 C5 1_555 1_555
C6 C1 1_555 1_555
C7 C6 1_555 1_555
C8 N1 1_555 1_555
C9 C8 1_555 1_555
H6 C9 1_555 1_555
C10 C9 1_555 1_555
H7 C10 1_555 1_555
C11 C10 1_555 1_555
H8 C11 1_555 1_555
C12 C11 1_555 1_555
H9 C12 1_555 1_555
C13 N2 1_555 1_555
C14 N2 1_555 1_555
C15 C14 1_555 1_555
H10 C15 1_555 1_555
C16 C15 1_555 1_555
H11 C16 1_555 1_555
C17 C16 1_555 1_555
C18 C17 1_555 1_555
C19 C18 1_555 1_555
H12 C19 1_555 1_555
C20 C19 1_555 1_555
H13 C20 1_555 1_555
C21 C20 1_555 1_555
H14 C21 1_555 1_555
C22 C21 1_555 1_555
H15 C22 1_555 1_555
C23 C18 1_555 1_555
C24 C23 1_555 1_555
C25 C17 1_555 1_555
C26 C14 1_555 1_555
H16 C26 1_555 1_555
C27 C24 1_555 1_555
C28 C27 1_555 1_555
H17 C28 1_555 1_555
C29 C28 1_555 1_555
H18 C29 1_555 1_555
C30 C29 1_555 1_555
H19 C30 1_555 1_555
C31 C30 1_555 1_555
H20 C31 1_555 1_555
C32 C27 1_555 1_555
H21 C32 1_555 1_555
C33 C24 1_555 1_555
C34 C33 1_555 1_555
H22 C34 1_555 1_555
C35 C34 1_555 1_555
H23 C35 1_555 1_555
C36 C35 1_555 1_555
H24 C36 1_555 1_555
C37 C36 1_555 1_555
H25 C37 1_555 1_555
C38 C33 1_555 1_555
H26 C38 1_555 1_555
N3 C45 1_555 1_555
N4 C45 1_555 1_555
C39 H27 1_555 1_555
C40 C39 1_555 1_555
H28 C40 1_555 1_555
C41 C40 1_555 1_555
H29 C41 1_555 1_555
C42 C41 1_555 1_555
H30 C42 1_555 1_555
C43 C42 1_555 1_555
H31 C43 1_555 1_555
C44 C39 1_555 1_555
C45 C44 1_555 1_555
C46 N3 1_555 1_555
C47 C46 1_555 1_555
H32 C47 1_555 1_555
C48 C47 1_555 1_555
H33 C48 1_555 1_555
C49 C48 1_555 1_555
H34 C49 1_555 1_555
C50 C49 1_555 1_555
H35 C50 1_555 1_555
C51 N4 1_555 1_555
C52 N4 1_555 1_555
C53 C52 1_555 1_555
H36 C53 1_555 1_555
C54 C53 1_555 1_555
H37 C54 1_555 1_555
C55 C54 1_555 1_555
C56 C55 1_555 1_555
C57 C56 1_555 1_555
H38 C57 1_555 1_555
C58 C57 1_555 1_555
H39 C58 1_555 1_555
C59 C58 1_555 1_555
H40 C59 1_555 1_555
C60 C59 1_555 1_555
H41 C60 1_555 1_555
C61 C56 1_555 1_555
C62 C61 1_555 1_555
C63 C55 1_555 1_555
C64 C52 1_555 1_555
H42 C64 1_555 1_555
C65 C62 1_555 1_555
C66 C65 1_555 1_555
H43 C66 1_555 1_555
C67 C66 1_555 1_555
H44 C67 1_555 1_555
C68 C67 1_555 1_555
H45 C68 1_555 1_555
C69 C68 1_555 1_555
H46 C69 1_555 1_555
C70 C65 1_555 1_555
H47 C70 1_555 1_555
C71 C62 1_555 1_555
C72 C71 1_555 1_555
H48 C72 1_555 1_555
C73 C72 1_555 1_555
H49 C73 1_555 1_555
C74 C73 1_555 1_555
H50 C74 1_555 1_555
C75 C74 1_555 1_555
H51 C75 1_555 1_555
C76 C71 1_555 1_555
H52 C76 1_555 1_555
C5 C6 1_555 1_555
C8 C13 1_555 1_555
C12 C13 1_555 1_555
C22 C23 1_555 1_555
C24 C25 1_555 1_555
C25 C26 1_555 1_555
C31 C32 1_555 1_555
C37 C38 1_555 1_555
C43 C44 1_555 1_555
C46 C51 1_555 1_555
C50 C51 1_555 1_555
C60 C61 1_555 1_555
C62 C63 1_555 1_555
C63 C64 1_555 1_555
C69 C70 1_555 1_555
C75 C76 1_555 1_555

#END
