
#######################################################################
#
#                 Cambridge Crystallographic Data Centre
#                                CCDC 
#
#######################################################################
#
# If this CIF has been generated from an entry in the Cambridge 
# Structural Database, then it will include bibliographic, chemical, 
# crystal, experimental, refinement or atomic coordinate data resulting 
# from the CCDC's data processing and validation procedures.
#
#######################################################################

data_EGUSEF
_chemical_formula_moiety         'C14 H10 Br1 N3 O3'
_chemical_name_systematic        
(E)-4-Bromo-N'-(2-nitrobenzylidene)benzohydrazide
_symmetry_cell_setting           triclinic
_symmetry_space_group_name_H-M   'P 1'
_symmetry_Int_Tables_number      1
_space_group_name_Hall           'P 1'
loop_
_symmetry_equiv_pos_site_id
_symmetry_equiv_pos_as_xyz
1 x,y,z
_cell_length_a                   4.8718(17)
_cell_length_b                   6.842(2)
_cell_length_c                   10.709(4)
_cell_angle_alpha                98.014(5)
_cell_angle_beta                 93.258(6)
_cell_angle_gamma                97.413(5)
_cell_volume                     349.502
_exptl_crystal_colour            colorless
_exptl_crystal_description       Block
_cell_formula_units_Z            1
_exptl_crystal_recrystallization_method 'absolute methanol'
loop_
_atom_site_label
_atom_site_type_symbol
_atom_site_fract_x
_atom_site_fract_y
_atom_site_fract_z
Br1 Br 0.28524(6) -0.18204(5) -0.03061(4)
O1 O 0.9938(4) 0.7003(4) 0.2644(2)
O2 O 0.1064(8) 1.2188(6) 0.7780(3)
O3 O 0.2286(10) 0.9674(5) 0.6631(3)
N1 N 0.5685(5) 0.7559(4) 0.3185(2)
H1 H 0.394(9) 0.725(7) 0.293(4)
N2 N 0.6709(5) 0.9301(4) 0.3980(2)
N3 N 0.2485(7) 1.1447(5) 0.6997(3)
C1 C 0.6174(7) 0.4513(5) 0.1848(3)
C2 C 0.7401(7) 0.3754(5) 0.0775(3)
H2 H 0.8910 0.4505 0.0495
C3 C 0.6386(8) 0.1890(6) 0.0126(3)
H3 H 0.7180 0.1400 -0.0602
C4 C 0.4217(8) 0.0767(5) 0.0555(3)
C5 C 0.2932(7) 0.1486(5) 0.1614(3)
H4 H 0.1429 0.0722 0.1889
C6 C 0.3932(6) 0.3357(5) 0.2250(3)
H5 H 0.3090 0.3855 0.2962
C7 C 0.7440(6) 0.6473(4) 0.2577(3)
C8 C 0.4917(6) 1.0171(4) 0.4562(3)
H6 H 0.3061 0.9609 0.4479
C9 C 0.5831(6) 1.2100(4) 0.5376(3)
C10 C 0.4633(7) 1.2766(5) 0.6481(3)
C11 C 0.5462(8) 1.4635(6) 0.7158(3)
H7 H 0.4634 1.5029 0.7896
C12 C 0.7486(9) 1.5906(6) 0.6752(4)
H8 H 0.8015 1.7178 0.7199
C13 C 0.8755(8) 1.5290(5) 0.5668(3)
H9 H 1.0172 1.6139 0.5397
C14 C 0.7919(8) 1.3419(6) 0.4990(3)
H10 H 0.8772 1.3031 0.4258
loop_
_geom_bond_atom_site_label_1
_geom_bond_atom_site_label_2
_geom_bond_site_symmetry_1
_geom_bond_site_symmetry_2
Br1 C4 1_555 1_555
O1 C7 1_555 1_555
O2 N3 1_555 1_555
O3 N3 1_555 1_555
N1 H1 1_555 1_555
N2 N1 1_555 1_555
N3 C10 1_555 1_555
C1 C2 1_555 1_555
C2 H2 1_555 1_555
C3 C2 1_555 1_555
H3 C3 1_555 1_555
C4 C3 1_555 1_555
C5 C4 1_555 1_555
H4 C5 1_555 1_555
C6 C1 1_555 1_555
H5 C6 1_555 1_555
C7 N1 1_555 1_555
C8 N2 1_555 1_555
H6 C8 1_555 1_555
C9 C8 1_555 1_555
C10 C9 1_555 1_555
C11 C10 1_555 1_555
H7 C11 1_555 1_555
C12 C11 1_555 1_555
H8 C12 1_555 1_555
C13 C12 1_555 1_555
H9 C13 1_555 1_555
C14 C9 1_555 1_555
H10 C14 1_555 1_555
C1 C7 1_555 1_555
C5 C6 1_555 1_555
C13 C14 1_555 1_555

#END
