
#######################################################################
#
#                 Cambridge Crystallographic Data Centre
#                                CCDC 
#
#######################################################################
#
# If this CIF has been generated from an entry in the Cambridge 
# Structural Database, then it will include bibliographic, chemical, 
# crystal, experimental, refinement or atomic coordinate data resulting 
# from the CCDC's data processing and validation procedures.
#
#######################################################################

data_EGUTAC
_chemical_formula_moiety         'C13 H9 Cl2 N1 O1'
_chemical_name_systematic        
4-Chloro-2-((E)-(2-chlorophenyl)iminomethyl)phenol
_symmetry_cell_setting           orthorhombic
_symmetry_space_group_name_H-M   'P b c a'
_symmetry_Int_Tables_number      61
_space_group_name_Hall           '-P 2ac 2ab'
loop_
_symmetry_equiv_pos_site_id
_symmetry_equiv_pos_as_xyz
1 x,y,z
2 1/2-x,-y,1/2+z
3 -x,1/2+y,1/2-z
4 1/2+x,1/2-y,-z
5 -x,-y,-z
6 1/2+x,y,1/2-z
7 x,1/2-y,1/2+z
8 1/2-x,1/2+y,z
_cell_length_a                   7.2693(13)
_cell_length_b                   13.0037(19)
_cell_length_c                   25.2711(16)
_cell_angle_alpha                90
_cell_angle_beta                 90
_cell_angle_gamma                90
_cell_volume                     2388.82
_exptl_crystal_colour            yellow
_exptl_crystal_description       block
_cell_formula_units_Z            8
_exptl_crystal_recrystallization_method methanol
loop_
_atom_site_label
_atom_site_type_symbol
_atom_site_fract_x
_atom_site_fract_y
_atom_site_fract_z
Cl1 Cl 0.07629(12) 1.13163(6) 1.12839(3)
Cl2 Cl 0.41980(14) 0.79479(6) 0.83555(3)
N1 N 0.3625(3) 0.96742(15) 0.90783(8)
O1 O 0.2932(4) 0.81908(14) 0.97404(8)
H1 H 0.3252 0.8457 0.9461
C1 C 0.3120(3) 1.03135(19) 0.94334(9)
H2 H 0.3132 1.1013 0.9357
C2 C 0.2530(3) 0.99774(18) 0.99498(9)
C3 C 0.2445(4) 0.89294(19) 1.00872(10)
C4 C 0.1860(4) 0.8649(2) 1.05868(11)
H3 H 0.1806 0.7956 1.0677
C5 C 0.1357(4) 0.9376(2) 1.09521(11)
H4 H 0.0972 0.9178 1.1288
C6 C 0.1427(4) 1.04066(19) 1.08177(10)
C7 C 0.1990(4) 1.07049(19) 1.03254(10)
H5 H 0.2014 1.1400 1.0239
C8 C 0.4229(3) 0.99867(19) 0.85743(9)
C9 C 0.4587(4) 0.9228(2) 0.82003(11)
C10 C 0.5255(4) 0.9469(2) 0.77026(11)
H6 H 0.5487 0.8949 0.7459
C11 C 0.5574(4) 1.0476(3) 0.75699(12)
H7 H 0.6026 1.0641 0.7236
C12 C 0.5224(5) 1.1235(2) 0.79298(12)
H8 H 0.5439 1.1918 0.7839
C13 C 0.4556(4) 1.1001(2) 0.84244(11)
H9 H 0.4319 1.1529 0.8663
loop_
_geom_bond_atom_site_label_1
_geom_bond_atom_site_label_2
_geom_bond_site_symmetry_1
_geom_bond_site_symmetry_2
Cl1 C6 1_555 1_555
Cl2 C9 1_555 1_555
N1 C1 1_555 1_555
O1 H1 1_555 1_555
C1 H2 1_555 1_555
C2 C1 1_555 1_555
C3 O1 1_555 1_555
C4 C3 1_555 1_555
H3 C4 1_555 1_555
C5 C4 1_555 1_555
H4 C5 1_555 1_555
C6 C5 1_555 1_555
C7 C2 1_555 1_555
H5 C7 1_555 1_555
C8 N1 1_555 1_555
C9 C8 1_555 1_555
C10 C9 1_555 1_555
H6 C10 1_555 1_555
C11 C10 1_555 1_555
H7 C11 1_555 1_555
C12 C11 1_555 1_555
H8 C12 1_555 1_555
C13 C8 1_555 1_555
H9 C13 1_555 1_555
C2 C3 1_555 1_555
C6 C7 1_555 1_555
C12 C13 1_555 1_555

#END
