
#######################################################################
#
#                 Cambridge Crystallographic Data Centre
#                                CCDC 
#
#######################################################################
#
# If this CIF has been generated from an entry in the Cambridge 
# Structural Database, then it will include bibliographic, chemical, 
# crystal, experimental, refinement or atomic coordinate data resulting 
# from the CCDC's data processing and validation procedures.
#
#######################################################################

data_EGUTEG
_chemical_formula_moiety         'C14 H11 Br1 Cl1 N1 O1'
_chemical_name_systematic        
2-Bromo-4-chloro-6-((E)-p-tolyliminomethyl)phenol
_symmetry_cell_setting           triclinic
_symmetry_space_group_name_H-M   'P -1'
_symmetry_Int_Tables_number      2
_space_group_name_Hall           '-P 1'
loop_
_symmetry_equiv_pos_site_id
_symmetry_equiv_pos_as_xyz
1 x,y,z
2 -x,-y,-z
_cell_length_a                   8.1354(14)
_cell_length_b                   8.6844(17)
_cell_length_c                   11.3740(18)
_cell_angle_alpha                76.040(2)
_cell_angle_beta                 73.652(12)
_cell_angle_gamma                62.458(12)
_cell_volume                     677.856
_exptl_crystal_colour            yellow
_exptl_crystal_description       block-shaped
_cell_formula_units_Z            2
_exptl_crystal_recrystallization_method methanol
loop_
_atom_site_label
_atom_site_type_symbol
_atom_site_fract_x
_atom_site_fract_y
_atom_site_fract_z
Br1 Br 0.62666(9) 0.48664(8) 0.11313(5)
Cl1 Cl 0.2620(2) 1.09756(16) 0.31821(13)
O1 O 0.7924(4) 0.3591(4) 0.3427(3)
H1 H 0.8367 0.3272 0.4054
N1 N 0.8449(5) 0.3835(5) 0.5491(3)
C1 C 0.7224(6) 0.5406(6) 0.5417(4)
H2 H 0.6902 0.6050 0.6058
C2 C 0.6298(6) 0.6243(6) 0.4356(4)
C3 C 0.6708(6) 0.5270(6) 0.3398(4)
C4 C 0.5770(6) 0.6130(6) 0.2422(4)
C5 C 0.4522(6) 0.7843(6) 0.2351(4)
H3 H 0.3916 0.8380 0.1683
C6 C 0.4168(6) 0.8776(6) 0.3294(4)
C7 C 0.5034(6) 0.7974(6) 0.4289(4)
H4 H 0.4763 0.8608 0.4925
C8 C 0.9370(6) 0.3016(6) 0.6518(4)
C9 C 0.9271(7) 0.3898(7) 0.7423(4)
H5 H 0.8552 0.5102 0.7394
C10 C 1.0267(7) 0.2956(8) 0.8377(4)
H6 H 1.0201 0.3549 0.8981
C11 C 1.1339(7) 0.1177(7) 0.8446(4)
C12 C 1.1407(7) 0.0343(7) 0.7539(4)
H7 H 1.2122 -0.0862 0.7571
C13 C 1.0454(6) 0.1229(6) 0.6584(4)
H8 H 1.0540 0.0623 0.5981
C14 C 1.2405(8) 0.0205(8) 0.9481(4)
H9 H 1.2169 0.1011 1.0021
H10 H 1.3735 -0.0336 0.9144
H11 H 1.1990 -0.0679 0.9938
loop_
_geom_bond_atom_site_label_1
_geom_bond_atom_site_label_2
_geom_bond_site_symmetry_1
_geom_bond_site_symmetry_2
Br1 C4 1_555 1_555
Cl1 C6 1_555 1_555
O1 H1 1_555 1_555
N1 C1 1_555 1_555
C1 H2 1_555 1_555
C2 C1 1_555 1_555
C3 O1 1_555 1_555
C4 C3 1_555 1_555
C5 C4 1_555 1_555
H3 C5 1_555 1_555
C6 C5 1_555 1_555
C7 C2 1_555 1_555
H4 C7 1_555 1_555
C8 N1 1_555 1_555
C9 C8 1_555 1_555
H5 C9 1_555 1_555
C10 C9 1_555 1_555
H6 C10 1_555 1_555
C11 C10 1_555 1_555
C12 C11 1_555 1_555
H7 C12 1_555 1_555
C13 C8 1_555 1_555
H8 C13 1_555 1_555
C14 C11 1_555 1_555
H9 C14 1_555 1_555
H10 C14 1_555 1_555
H11 C14 1_555 1_555
C2 C3 1_555 1_555
C6 C7 1_555 1_555
C12 C13 1_555 1_555

#END
