
#######################################################################
#
#                 Cambridge Crystallographic Data Centre
#                                CCDC 
#
#######################################################################
#
# If this CIF has been generated from an entry in the Cambridge 
# Structural Database, then it will include bibliographic, chemical, 
# crystal, experimental, refinement or atomic coordinate data resulting 
# from the CCDC's data processing and validation procedures.
#
#######################################################################

data_EGUZUC
_chemical_formula_moiety         'C8 H18 N4 O2 2+,2(Cl1 1-)'
_chemical_name_systematic        
"(Z)-4-((Z)-Ethoxyimino)-N'-methoxypyrrolidin-1-ium-3-carboximidamidium dichloride"
_symmetry_cell_setting           orthorhombic
_symmetry_space_group_name_H-M   'P b c n'
_symmetry_Int_Tables_number      60
_space_group_name_Hall           '-P 2n 2ab'
loop_
_symmetry_equiv_pos_site_id
_symmetry_equiv_pos_as_xyz
1 x,y,z
2 1/2-x,1/2-y,1/2+z
3 -x,y,1/2-z
4 1/2+x,1/2-y,-z
5 -x,-y,-z
6 1/2+x,1/2+y,1/2-z
7 x,-y,1/2+z
8 1/2-x,1/2+y,z
_cell_length_a                   12.7355(14)
_cell_length_b                   8.8506(12)
_cell_length_c                   26.334(2)
_cell_angle_alpha                90
_cell_angle_beta                 90
_cell_angle_gamma                90
_cell_volume                     2968.28
_exptl_crystal_colour            colorless
_exptl_crystal_description       block
_chemical_melting_point          '375-376 K'
_cell_formula_units_Z            8
_exptl_crystal_recrystallization_method 'methanol/ethyl acetate'
loop_
_atom_site_label
_atom_site_type_symbol
_atom_site_fract_x
_atom_site_fract_y
_atom_site_fract_z
Cl1 Cl 0.67028(9) 0.08761(14) 0.52171(5)
Cl2 Cl 0.18814(10) 0.22720(17) 0.63480(6)
N1 N 0.3711(3) 0.1103(5) 0.57222(17)
H1 H 0.3640 0.0382 0.5484
H2 H 0.3090 0.1220 0.5881
N2 N 0.5131(3) 0.5960(4) 0.59228(17)
H3 H 0.4590 0.6173 0.6105
N3 N 0.6142(3) 0.4217(5) 0.55190(18)
H4 H 0.6593 0.4897 0.5437
H5 H 0.6239 0.3293 0.5429
N4 N 0.559(2) 0.2442(19) 0.6611(11)
O1 O 0.5835(3) 0.7083(4) 0.57752(15)
O2 O 0.5905(4) 0.1079(6) 0.6834(2)
C1 C 0.4045(4) 0.2533(6) 0.5489(2)
H6 H 0.3451 0.3066 0.5343
H7 H 0.4564 0.2359 0.5226
C2 C 0.4513(4) 0.3417(5) 0.59299(19)
H8 H 0.3944 0.3920 0.6115
C3 C 0.4953(4) 0.2171(5) 0.62580(18)
C4 C 0.4533(4) 0.0679(6) 0.6089(2)
H9 H 0.5075 0.0076 0.5929
H10 H 0.4240 0.0119 0.6372
C5 C 0.5316(4) 0.4584(5) 0.57781(19)
C6 C 0.6473(6) 0.7496(7) 0.6196(3)
H11 H 0.6036 0.7852 0.6468
H12 H 0.6949 0.8283 0.6096
H13 H 0.6866 0.6633 0.6309
C7 C 0.6511(8) 0.1432(11) 0.7286(3)
H14 H 0.6104 0.2054 0.7517
H15 H 0.7149 0.1970 0.7197
C8 C 0.6770(12) -0.0062(15) 0.7528(5)
H16 H 0.6131 -0.0580 0.7613
H17 H 0.7174 0.0105 0.7830
H18 H 0.7169 -0.0665 0.7294
N5? N 0.570(12) 0.212(14) 0.657(6)
O3? O 0.581(2) 0.352(3) 0.6806(10)
C9? C 0.648(4) 0.337(6) 0.7247(18)
H19? H 0.6934 0.2488 0.7214
H20? H 0.6072 0.3274 0.7555
C10? C 0.713(6) 0.482(7) 0.725(2)
H21? H 0.7592 0.4822 0.7541
H22? H 0.6673 0.5680 0.7270
H23? H 0.7545 0.4884 0.6947
loop_
_geom_bond_atom_site_label_1
_geom_bond_atom_site_label_2
_geom_bond_site_symmetry_1
_geom_bond_site_symmetry_2
N1 H1 1_555 1_555
H2 N1 1_555 1_555
N2 H3 1_555 1_555
N3 H4 1_555 1_555
H5 N3 1_555 1_555
N4 O2 1_555 1_555
O1 N2 1_555 1_555
O2 C7 1_555 1_555
C1 N1 1_555 1_555
H6 C1 1_555 1_555
H7 C1 1_555 1_555
C2 C1 1_555 1_555
H8 C2 1_555 1_555
C3 N4 1_555 1_555
C4 N1 1_555 1_555
H9 C4 1_555 1_555
H10 C4 1_555 1_555
C5 N2 1_555 1_555
C6 O1 1_555 1_555
H11 C6 1_555 1_555
H12 C6 1_555 1_555
H13 C6 1_555 1_555
C7 H14 1_555 1_555
H15 C7 1_555 1_555
C8 C7 1_555 1_555
H16 C8 1_555 1_555
H17 C8 1_555 1_555
H18 C8 1_555 1_555
N3 C5 1_555 1_555
C2 C3 1_555 1_555
C2 C5 1_555 1_555
C3 C4 1_555 1_555

#END
