
#######################################################################
#
#                 Cambridge Crystallographic Data Centre
#                                CCDC 
#
#######################################################################
#
# If this CIF has been generated from an entry in the Cambridge 
# Structural Database, then it will include bibliographic, chemical, 
# crystal, experimental, refinement or atomic coordinate data resulting 
# from the CCDC's data processing and validation procedures.
#
#######################################################################

data_EHABOF
_chemical_formula_moiety         'C20 H18 O6'
_chemical_name_systematic        
'2-(4-Methoxyphenoxy)-6-methyl-3-oxo-3,6-dihydro-2H-pyran-4-yl benzoate'
_symmetry_cell_setting           orthorhombic
_symmetry_space_group_name_H-M   'P 21 21 21'
_symmetry_Int_Tables_number      19
_space_group_name_Hall           'P 2ac 2ab'
loop_
_symmetry_equiv_pos_site_id
_symmetry_equiv_pos_as_xyz
1 x,y,z
2 1/2-x,-y,1/2+z
3 -x,1/2+y,1/2-z
4 1/2+x,1/2-y,-z
_cell_length_a                   8.5906(17)
_cell_length_b                   11.594(2)
_cell_length_c                   17.404(4)
_cell_angle_alpha                90
_cell_angle_beta                 90
_cell_angle_gamma                90
_cell_volume                     1733.43
_exptl_crystal_colour            colorless
_exptl_crystal_description       block
_cell_formula_units_Z            4
_exptl_crystal_recrystallization_method 'petroleum ether/ethyl acetate'
loop_
_atom_site_label
_atom_site_type_symbol
_atom_site_fract_x
_atom_site_fract_y
_atom_site_fract_z
O1 O 1.17184(15) 0.59200(11) 0.94630(8)
O2 O 0.93224(17) 0.89681(11) 0.91264(8)
O3 O 1.04268(19) 0.94639(12) 1.02536(9)
O4 O 1.21198(18) 0.84659(12) 0.84053(9)
O5 O 1.13746(15) 0.59345(11) 0.81269(7)
O6 O 1.36640(18) 0.16881(11) 0.72242(9)
C1 C 1.0087(2) 0.58644(17) 0.96426(13)
H1 H 0.9575 0.5302 0.9288
C2 C 0.9327(3) 0.70107(17) 0.95530(12)
H2 H 0.8318 0.7123 0.9763
C3 C 1.0009(3) 0.78794(17) 0.91900(12)
C4 C 1.1459(2) 0.77091(16) 0.87611(12)
C5 C 1.2071(2) 0.64760(16) 0.87719(11)
H3 H 1.3226 0.6488 0.8701
C6 C 0.9976(3) 0.5411(2) 1.04592(14)
H4 H 1.0486 0.4657 1.0491
H5 H 0.8878 0.5333 1.0604
H6 H 1.0491 0.5952 1.0810
C7 C 0.9639(2) 0.97192(17) 0.97094(13)
C8 C 0.8888(2) 1.08488(16) 0.95760(12)
C9 C 0.8571(3) 1.15548(17) 1.02010(13)
H7 H 0.8852 1.1316 1.0705
C10 C 0.7844(3) 1.26088(18) 1.00880(15)
H8 H 0.7621 1.3092 1.0515
C11 C 0.7445(3) 1.29565(18) 0.93534(14)
H9 H 0.6946 1.3679 0.9277
C12 C 0.7767(3) 1.22605(17) 0.87332(14)
H10 H 0.7498 1.2507 0.8230
C13 C 0.8478(2) 1.12062(16) 0.88406(12)
H11 H 0.8687 1.0724 0.8412
C14 C 1.1981(2) 0.48407(16) 0.79498(10)
C15 C 1.3486(2) 0.47295(16) 0.76804(11)
H12 H 1.4147 0.5385 0.7652
C16 C 1.4024(2) 0.36583(16) 0.74524(12)
H13 H 1.5060 0.3573 0.7271
C17 C 1.3043(2) 0.27089(16) 0.74899(12)
C18 C 1.1540(3) 0.28231(17) 0.77601(12)
H14 H 1.0869 0.2173 0.7784
C19 C 1.1018(2) 0.39045(16) 0.79972(11)
H15 H 0.9992 0.3991 0.8192
C20 C 1.2665(3) 0.07108(16) 0.72123(15)
H16 H 1.3233 0.0044 0.7010
H17 H 1.1765 0.0871 0.6883
H18 H 1.2307 0.0544 0.7735
loop_
_geom_bond_atom_site_label_1
_geom_bond_atom_site_label_2
_geom_bond_site_symmetry_1
_geom_bond_site_symmetry_2
O1 C1 1_555 1_555
O2 C3 1_555 1_555
O3 C7 1_555 1_555
O4 C4 1_555 1_555
O5 C5 1_555 1_555
O6 C17 1_555 1_555
C1 H1 1_555 1_555
C2 C1 1_555 1_555
H2 C2 1_555 1_555
C3 C2 1_555 1_555
C4 C3 1_555 1_555
C5 O1 1_555 1_555
H3 C5 1_555 1_555
C6 C1 1_555 1_555
H4 C6 1_555 1_555
H5 C6 1_555 1_555
H6 C6 1_555 1_555
C7 O2 1_555 1_555
C8 C7 1_555 1_555
C9 C8 1_555 1_555
H7 C9 1_555 1_555
C10 C9 1_555 1_555
H8 C10 1_555 1_555
C11 C10 1_555 1_555
H9 C11 1_555 1_555
C12 C11 1_555 1_555
H10 C12 1_555 1_555
C13 C8 1_555 1_555
H11 C13 1_555 1_555
C14 O5 1_555 1_555
C15 C14 1_555 1_555
H12 C15 1_555 1_555
C16 C15 1_555 1_555
H13 C16 1_555 1_555
C17 C16 1_555 1_555
C18 C17 1_555 1_555
H14 C18 1_555 1_555
C19 C14 1_555 1_555
H15 C19 1_555 1_555
C20 O6 1_555 1_555
H16 C20 1_555 1_555
H17 C20 1_555 1_555
H18 C20 1_555 1_555
C4 C5 1_555 1_555
C12 C13 1_555 1_555
C18 C19 1_555 1_555

#END
