
#######################################################################
#
#                 Cambridge Crystallographic Data Centre
#                                CCDC 
#
#######################################################################
#
# If this CIF has been generated from an entry in the Cambridge 
# Structural Database, then it will include bibliographic, chemical, 
# crystal, experimental, refinement or atomic coordinate data resulting 
# from the CCDC's data processing and validation procedures.
#
#######################################################################

data_EHABUL
_chemical_formula_moiety         'C24 H41 N1 O1'
_chemical_name_systematic        
(5R,8R,9S,10S,13S,14S,17S)-N-t-Butyl-5\a-androstane-17\b-carboxamide
_symmetry_cell_setting           orthorhombic
_symmetry_space_group_name_H-M   'P 21 21 21'
_symmetry_Int_Tables_number      19
_space_group_name_Hall           'P 2ac 2ab'
loop_
_symmetry_equiv_pos_site_id
_symmetry_equiv_pos_as_xyz
1 x,y,z
2 1/2-x,-y,1/2+z
3 -x,1/2+y,1/2-z
4 1/2+x,1/2-y,-z
_cell_length_a                   6.373(2)
_cell_length_b                   12.802(4)
_cell_length_c                   26.775(9)
_cell_angle_alpha                90
_cell_angle_beta                 90
_cell_angle_gamma                90
_cell_volume                     2184.5
_exptl_crystal_colour            colorless
_exptl_crystal_description       parallelepiped
_chemical_melting_point          '451.5 K'
_cell_formula_units_Z            4
_exptl_crystal_recrystallization_method acetone
loop_
_atom_site_label
_atom_site_type_symbol
_atom_site_fract_x
_atom_site_fract_y
_atom_site_fract_z
N1 N 0.8035(3) 0.65842(13) 0.56653(6)
H1 H 0.9247 0.6820 0.5751
O1 O 0.4554(3) 0.67334(13) 0.58044(5)
C1 C 1.1936(4) 0.62769(17) 0.84810(7)
H2 H 1.2184 0.5667 0.8274
H3 H 1.2916 0.6815 0.8377
C2 C 1.2381(4) 0.59935(18) 0.90230(7)
H4 H 1.1548 0.5388 0.9114
H5 H 1.3849 0.5806 0.9057
C3 C 1.1892(4) 0.6872(2) 0.93761(8)
H6 H 1.2928 0.7420 0.9334
H7 H 1.1993 0.6618 0.9717
C4 C 0.9727(4) 0.73240(19) 0.92929(7)
H8 H 0.9568 0.7949 0.9494
H9 H 0.8681 0.6822 0.9402
C5 C 0.9344(4) 0.75945(17) 0.87460(7)
H10 H 1.0430 0.8106 0.8660
C6 C 0.7298(4) 0.81485(17) 0.86688(7)
H11 H 0.7239 0.8752 0.8887
H12 H 0.6157 0.7685 0.8760
C7 C 0.7000(4) 0.85044(16) 0.81299(7)
H13 H 0.5601 0.8792 0.8091
H14 H 0.8002 0.9053 0.8055
C8 C 0.7295(3) 0.76086(15) 0.77615(7)
H15 H 0.6196 0.7091 0.7826
C9 C 0.9436(3) 0.70738(15) 0.78447(6)
H16 H 1.0496 0.7621 0.7802
C10 C 0.9693(3) 0.66681(15) 0.83881(7)
C11 C 0.9900(4) 0.62511(16) 0.74440(7)
H17 H 0.9022 0.5646 0.7505
H18 H 1.1350 0.6031 0.7477
C12 C 0.9537(3) 0.66238(17) 0.69070(7)
H19 H 1.0565 0.7154 0.6823
H20 H 0.9722 0.6042 0.6679
C13 C 0.7344(3) 0.70711(14) 0.68449(7)
C14 C 0.7092(3) 0.79588(15) 0.72231(7)
H21 H 0.8250 0.8446 0.7162
C15 C 0.5092(4) 0.85175(17) 0.70618(7)
H22 H 0.5117 0.9245 0.7163
H23 H 0.3863 0.8185 0.7205
C16 C 0.5093(4) 0.84178(16) 0.64878(7)
H24 H 0.5323 0.9095 0.6334
H25 H 0.3760 0.8145 0.6372
C17 C 0.6889(4) 0.76619(14) 0.63516(6)
H26 H 0.8130 0.8077 0.6266
C18 C 0.5691(4) 0.62057(15) 0.69106(7)
H27 H 0.5990 0.5642 0.6685
H28 H 0.4323 0.6483 0.6840
H29 H 0.5730 0.5952 0.7248
C19 C 0.8159(4) 0.57727(15) 0.84878(8)
H30 H 0.8546 0.5178 0.8290
H31 H 0.6764 0.5989 0.8401
H32 H 0.8204 0.5589 0.8835
C20 C 0.6366(4) 0.69668(16) 0.59120(8)
C21 C 0.7988(4) 0.58025(17) 0.52642(8)
C22 C 0.6959(5) 0.48089(17) 0.54580(9)
H33 H 0.7737 0.4550 0.5739
H34 H 0.6947 0.4292 0.5198
H35 H 0.5545 0.4959 0.5559
C23 C 1.0254(5) 0.5606(2) 0.51203(10)
H36 H 1.0853 0.6236 0.4988
H37 H 1.0314 0.5066 0.4872
H38 H 1.1031 0.5392 0.5410
C24 C 0.6785(5) 0.6221(2) 0.48153(8)
H39 H 0.5353 0.6348 0.4908
H40 H 0.6828 0.5717 0.4550
H41 H 0.7415 0.6861 0.4705
loop_
_geom_bond_atom_site_label_1
_geom_bond_atom_site_label_2
_geom_bond_site_symmetry_1
_geom_bond_site_symmetry_2
N1 H1 1_555 1_555
O1 C20 1_555 1_555
C1 H2 1_555 1_555
H3 C1 1_555 1_555
C2 C1 1_555 1_555
H4 C2 1_555 1_555
H5 C2 1_555 1_555
C3 C2 1_555 1_555
H6 C3 1_555 1_555
H7 C3 1_555 1_555
C4 C3 1_555 1_555
H8 C4 1_555 1_555
H9 C4 1_555 1_555
C5 C4 1_555 1_555
H10 C5 1_555 1_555
C6 C5 1_555 1_555
H11 C6 1_555 1_555
H12 C6 1_555 1_555
C7 C6 1_555 1_555
H13 C7 1_555 1_555
H14 C7 1_555 1_555
C8 C7 1_555 1_555
H15 C8 1_555 1_555
C9 C8 1_555 1_555
H16 C9 1_555 1_555
C10 C1 1_555 1_555
C11 C9 1_555 1_555
H17 C11 1_555 1_555
H18 C11 1_555 1_555
C12 C11 1_555 1_555
H19 C12 1_555 1_555
H20 C12 1_555 1_555
C13 C12 1_555 1_555
C14 C8 1_555 1_555
H21 C14 1_555 1_555
C15 C14 1_555 1_555
H22 C15 1_555 1_555
H23 C15 1_555 1_555
C16 C15 1_555 1_555
H24 C16 1_555 1_555
H25 C16 1_555 1_555
C17 C13 1_555 1_555
H26 C17 1_555 1_555
C18 C13 1_555 1_555
H27 C18 1_555 1_555
H28 C18 1_555 1_555
H29 C18 1_555 1_555
C19 C10 1_555 1_555
H30 C19 1_555 1_555
H31 C19 1_555 1_555
H32 C19 1_555 1_555
C20 N1 1_555 1_555
C21 N1 1_555 1_555
C22 C21 1_555 1_555
H33 C22 1_555 1_555
H34 C22 1_555 1_555
H35 C22 1_555 1_555
C23 C21 1_555 1_555
H36 C23 1_555 1_555
H37 C23 1_555 1_555
H38 C23 1_555 1_555
C24 C21 1_555 1_555
H39 C24 1_555 1_555
H40 C24 1_555 1_555
H41 C24 1_555 1_555
C5 C10 1_555 1_555
C9 C10 1_555 1_555
C13 C14 1_555 1_555
C16 C17 1_555 1_555
C17 C20 1_555 1_555

#END
