
#######################################################################
#
#                 Cambridge Crystallographic Data Centre
#                                CCDC 
#
#######################################################################
#
# If this CIF has been generated from an entry in the Cambridge 
# Structural Database, then it will include bibliographic, chemical, 
# crystal, experimental, refinement or atomic coordinate data resulting 
# from the CCDC's data processing and validation procedures.
#
#######################################################################

data_EHARUB
_chemical_compound_source        
'octocoral Sarcophyton ehrenbergi (Alcyoniidae)'
_chemical_name_common            (+)-12-Carboxy-(11Z)-sarcophytoxide
_chemical_formula_moiety         'C20 H28 O4'
_chemical_name_systematic        
'(+)-(1aS,10aS,14aS)-1a,8,12-Trimethyl-1a,2,3,6,7,9,10a,13,14,14a-decahydrooxireno[9,10]cyclotetradeca[1,2-b]furan-5-carboxylic acid'
_chemical_properties_biological  
'Tested for cytotoxic, antiviral and antibacterial activity'
_symmetry_cell_setting           orthorhombic
_symmetry_space_group_name_H-M   'P 21 21 21'
_symmetry_Int_Tables_number      19
_space_group_name_Hall           'P 2ac 2ab'
loop_
_symmetry_equiv_pos_site_id
_symmetry_equiv_pos_as_xyz
1 x,y,z
2 1/2-x,-y,1/2+z
3 -x,1/2+y,1/2-z
4 1/2+x,1/2-y,-z
_cell_length_a                   6.3119(13)
_cell_length_b                   8.0445(16)
_cell_length_c                   38.236(8)
_cell_angle_alpha                90
_cell_angle_beta                 90
_cell_angle_gamma                90
_cell_volume                     1941.47
_exptl_crystal_colour            colorless
_exptl_crystal_description       prism
_chemical_melting_point          '192-193 deg.C'
_cell_formula_units_Z            4
_exptl_crystal_recrystallization_method dichloromethane/methanol
loop_
_atom_site_label
_atom_site_type_symbol
_atom_site_fract_x
_atom_site_fract_y
_atom_site_fract_z
O1 O 0.3450(3) 1.0064(3) 0.06221(4)
O2 O 0.0110(4) 0.6900(2) 0.23817(4)
O3 O -0.3203(4) 0.3288(3) 0.04701(4)
O4 O -0.3788(5) 0.1927(3) 0.09517(5)
H1 H -0.494(6) 0.120(4) 0.0808(8)
C1 C 0.0550(4) 0.8293(3) 0.06369(5)
C2 C 0.2520(4) 0.8766(3) 0.08362(5)
H2 H 0.3484 0.7813 0.0851
C3 C 0.2086(4) 0.9455(3) 0.11978(5)
H3 H 0.0823 1.0034 0.1226
C4 C 0.3302(4) 0.9323(3) 0.14760(5)
C5 C 0.2746(5) 1.0201(3) 0.18131(5)
H4 H 0.1414 1.0782 0.1781
H5 H 0.3824 1.1030 0.1860
C6 C 0.2545(4) 0.9068(3) 0.21344(5)
H6 H 0.3902 0.8546 0.2181
H7 H 0.2169 0.9734 0.2337
C7 C 0.0915(4) 0.7763(3) 0.20804(6)
H8 H -0.0185 0.8077 0.1912
C8 C 0.1207(4) 0.5957(3) 0.21139(6)
C9 C -0.0190(4) 0.4845(3) 0.18995(6)
H9 H -0.1578 0.5352 0.1877
H10 H -0.0364 0.3792 0.2020
C10 C 0.0716(4) 0.4529(3) 0.15365(6)
H11 H 0.1120 0.5581 0.1432
H12 H 0.1982 0.3852 0.1557
C11 C -0.0828(4) 0.3672(3) 0.13022(6)
H13 H -0.1681 0.2863 0.1404
C12 C -0.1108(4) 0.3946(3) 0.09629(5)
C13 C 0.0141(4) 0.5209(3) 0.07580(5)
H14 H 0.0227 0.4856 0.0516
H15 H 0.1572 0.5261 0.0850
C14 C -0.0846(4) 0.6936(3) 0.07737(6)
H16 H -0.2152 0.6928 0.0640
H17 H -0.1207 0.7183 0.1015
C15 C 0.0337(4) 0.9232(3) 0.03546(5)
C16 C 0.2131(5) 1.0421(3) 0.03265(6)
H18 H 0.2902 1.0254 0.0110
H19 H 0.1626 1.1559 0.0335
C17 C -0.1389(5) 0.9233(4) 0.00859(7)
H20 H -0.2012 1.0320 0.0073
H21 H -0.2454 0.8438 0.0150
H22 H -0.0809 0.8942 -0.0138
C18 C 0.5340(5) 0.8384(5) 0.14799(7)
H23 H 0.5507 0.7801 0.1263
H24 H 0.5329 0.7601 0.1669
H25 H 0.6496 0.9146 0.1510
C19 C 0.3237(6) 0.5223(4) 0.22303(8)
H26 H 0.3921 0.5967 0.2391
H27 H 0.4137 0.5046 0.2031
H28 H 0.2971 0.4181 0.2344
C20 C -0.2799(5) 0.3051(3) 0.07692(6)
loop_
_geom_bond_atom_site_label_1
_geom_bond_atom_site_label_2
_geom_bond_site_symmetry_1
_geom_bond_site_symmetry_2
O1 C2 1_555 1_555
O2 C7 1_555 1_555
O3 C20 1_555 1_555
O4 H1 1_555 1_555
C1 C2 1_555 1_555
C2 H2 1_555 1_555
C3 C2 1_555 1_555
H3 C3 1_555 1_555
C4 C3 1_555 1_555
C5 C4 1_555 1_555
H4 C5 1_555 1_555
H5 C5 1_555 1_555
C6 C5 1_555 1_555
H6 C6 1_555 1_555
H7 C6 1_555 1_555
C7 C6 1_555 1_555
H8 C7 1_555 1_555
C8 O2 1_555 1_555
C9 C8 1_555 1_555
H9 C9 1_555 1_555
H10 C9 1_555 1_555
C10 C9 1_555 1_555
H11 C10 1_555 1_555
H12 C10 1_555 1_555
C11 C10 1_555 1_555
H13 C11 1_555 1_555
C12 C11 1_555 1_555
C13 C12 1_555 1_555
H14 C13 1_555 1_555
H15 C13 1_555 1_555
C14 C1 1_555 1_555
H16 C14 1_555 1_555
H17 C14 1_555 1_555
C15 C1 1_555 1_555
C16 O1 1_555 1_555
H18 C16 1_555 1_555
H19 C16 1_555 1_555
C17 C15 1_555 1_555
H20 C17 1_555 1_555
H21 C17 1_555 1_555
H22 C17 1_555 1_555
C18 C4 1_555 1_555
H23 C18 1_555 1_555
H24 C18 1_555 1_555
H25 C18 1_555 1_555
C19 C8 1_555 1_555
H26 C19 1_555 1_555
H27 C19 1_555 1_555
H28 C19 1_555 1_555
C20 O4 1_555 1_555
C7 C8 1_555 1_555
C12 C20 1_555 1_555
C13 C14 1_555 1_555
C15 C16 1_555 1_555

#END
