
#######################################################################
#
#                 Cambridge Crystallographic Data Centre
#                                CCDC 
#
#######################################################################
#
# If this CIF has been generated from an entry in the Cambridge 
# Structural Database, then it will include bibliographic, chemical, 
# crystal, experimental, refinement or atomic coordinate data resulting 
# from the CCDC's data processing and validation procedures.
#
#######################################################################

data_EHASUC
_chemical_compound_source        
'above ground parts of Siegesbeckia pubescens Makino (Compositae)'
_chemical_formula_moiety         'C22 H34 O5,H2 O1'
_chemical_name_systematic        
'ent-18-Acetoxy-17-hydroxy-16\bH-kauran-19-oic acid monohydrate'
_symmetry_cell_setting           orthorhombic
_symmetry_space_group_name_H-M   'P 21 21 21'
_symmetry_Int_Tables_number      19
_space_group_name_Hall           'P 2ac 2ab'
loop_
_symmetry_equiv_pos_site_id
_symmetry_equiv_pos_as_xyz
1 x,y,z
2 1/2-x,-y,1/2+z
3 -x,1/2+y,1/2-z
4 1/2+x,1/2-y,-z
_cell_length_a                   7.4147(8)
_cell_length_b                   10.7871(13)
_cell_length_c                   27.001(3)
_cell_angle_alpha                90
_cell_angle_beta                 90
_cell_angle_gamma                90
_cell_volume                     2159.62
_exptl_crystal_colour            colorless
_exptl_crystal_description       needle
_chemical_melting_point          '180-182 deg.C'
_cell_formula_units_Z            4
_exptl_crystal_recrystallization_method acetone/chloroform
loop_
_atom_site_label
_atom_site_type_symbol
_atom_site_fract_x
_atom_site_fract_y
_atom_site_fract_z
C1 C 0.5259(2) 0.50705(15) 0.83158(6)
H1 H 0.5616 0.4214 0.8267
H2 H 0.6195 0.5592 0.8176
C2 C 0.5131(2) 0.53246(18) 0.88703(7)
H3 H 0.6265 0.5106 0.9027
H4 H 0.4927 0.6203 0.8923
C3 C 0.3625(2) 0.45959(17) 0.91073(7)
H5 H 0.3547 0.4824 0.9454
H6 H 0.3919 0.3721 0.9091
C4 C 0.1779(2) 0.48001(14) 0.88655(6)
C5 C 0.1945(2) 0.45746(13) 0.82957(5)
H7 H 0.2317 0.3705 0.8269
C6 C 0.0194(2) 0.46404(16) 0.79967(6)
H8 H -0.0769 0.4231 0.8177
H9 H -0.0147 0.5500 0.7947
C7 C 0.0465(2) 0.40151(17) 0.75019(6)
H10 H -0.0655 0.4055 0.7317
H11 H 0.0740 0.3147 0.7558
C8 C 0.1961(2) 0.45834(14) 0.71907(5)
C9 C 0.36954(19) 0.47286(13) 0.75040(6)
H12 H 0.4085 0.3875 0.7567
C10 C 0.34874(19) 0.53056(13) 0.80331(6)
C11 C 0.5233(2) 0.52870(17) 0.71838(7)
H13 H 0.6114 0.5660 0.7404
H14 H 0.5829 0.4616 0.7010
C12 C 0.4654(3) 0.62609(19) 0.68036(7)
H15 H 0.4483 0.7049 0.6970
H16 H 0.5609 0.6365 0.6562
C13 C 0.2916(3) 0.59099(15) 0.65360(6)
H17 H 0.2598 0.6522 0.6282
C14 C 0.1427(3) 0.57807(15) 0.69237(7)
H18 H 0.0250 0.5705 0.6770
H19 H 0.1418 0.6481 0.7149
C15 C 0.2348(2) 0.37477(15) 0.67380(6)
H20 H 0.3254 0.3133 0.6821
H21 H 0.1258 0.3321 0.6637
C16 C 0.3032(2) 0.45898(15) 0.63164(6)
H22 H 0.4295 0.4391 0.6245
C17 C 0.1928(3) 0.44351(16) 0.58520(7)
H23 H 0.0688 0.4665 0.5920
H24 H 0.2386 0.4988 0.5598
C18 C 0.0443(3) 0.38360(16) 0.90677(6)
H25 H -0.0699 0.3896 0.8894
H26 H 0.0918 0.3006 0.9022
C19 C 0.1024(2) 0.60639(15) 0.90120(6)
C20 C 0.3117(2) 0.67022(13) 0.80266(7)
H27 H 0.3948 0.7101 0.7805
H28 H 0.3267 0.7032 0.8354
H29 H 0.1906 0.6849 0.7916
C21 C -0.1196(3) 0.35148(19) 0.98001(8)
C22 C -0.1396(4) 0.3908(3) 1.03231(8)
H30 H -0.0510 0.3493 1.0523
H31 H -0.2581 0.3697 1.0439
H32 H -0.1226 0.4788 1.0347
O1 O 0.18160(17) 0.68145(13) 0.92624(5)
O2 O -0.06288(16) 0.62459(11) 0.88631(5)
H33 H -0.1049 0.6853 0.9005
O3 O 0.0194(2) 0.40876(12) 0.95851(5)
O4 O -0.2118(3) 0.2790(2) 0.95891(7)
O5 O 0.19792(18) 0.31864(12) 0.56725(4)
H34 H 0.2976 0.3043 0.5554
H35 H 0.616(3) 0.246(3) 0.5395(11)
H36 H 0.502(4) 0.280(3) 0.4905(4)
O6 O 0.5152(2) 0.27919(18) 0.52442(6)
loop_
_geom_bond_atom_site_label_1
_geom_bond_atom_site_label_2
_geom_bond_site_symmetry_1
_geom_bond_site_symmetry_2
C1 H1 1_555 1_555
H2 C1 1_555 1_555
C2 C1 1_555 1_555
H3 C2 1_555 1_555
H4 C2 1_555 1_555
C3 C2 1_555 1_555
H5 C3 1_555 1_555
H6 C3 1_555 1_555
C4 C3 1_555 1_555
C5 C4 1_555 1_555
H7 C5 1_555 1_555
C6 C5 1_555 1_555
H8 C6 1_555 1_555
H9 C6 1_555 1_555
C7 C6 1_555 1_555
H10 C7 1_555 1_555
H11 C7 1_555 1_555
C8 C7 1_555 1_555
C9 C8 1_555 1_555
H12 C9 1_555 1_555
C10 C1 1_555 1_555
C11 C9 1_555 1_555
H13 C11 1_555 1_555
H14 C11 1_555 1_555
C12 C11 1_555 1_555
H15 C12 1_555 1_555
H16 C12 1_555 1_555
C13 C12 1_555 1_555
H17 C13 1_555 1_555
C14 C8 1_555 1_555
H18 C14 1_555 1_555
H19 C14 1_555 1_555
C15 C8 1_555 1_555
H20 C15 1_555 1_555
H21 C15 1_555 1_555
C16 C13 1_555 1_555
H22 C16 1_555 1_555
C17 C16 1_555 1_555
H23 C17 1_555 1_555
H24 C17 1_555 1_555
C18 C4 1_555 1_555
H25 C18 1_555 1_555
H26 C18 1_555 1_555
C19 C4 1_555 1_555
C20 C10 1_555 1_555
H27 C20 1_555 1_555
H28 C20 1_555 1_555
H29 C20 1_555 1_555
C21 C22 1_555 1_555
C22 H30 1_555 1_555
H31 C22 1_555 1_555
H32 C22 1_555 1_555
O1 C19 1_555 1_555
O2 C19 1_555 1_555
H33 O2 1_555 1_555
O3 C18 1_555 1_555
O4 C21 1_555 1_555
O5 C17 1_555 1_555
H34 O5 1_555 1_555
H35 O6 1_555 1_555
H36 O6 1_555 1_555
C5 C10 1_555 1_555
C9 C10 1_555 1_555
C13 C14 1_555 1_555
C15 C16 1_555 1_555
C21 O3 1_555 1_555

#END
