
#######################################################################
#
#                 Cambridge Crystallographic Data Centre
#                                CCDC 
#
#######################################################################
#
# If this CIF has been generated from an entry in the Cambridge 
# Structural Database, then it will include bibliographic, chemical, 
# crystal, experimental, refinement or atomic coordinate data resulting 
# from the CCDC's data processing and validation procedures.
#
#######################################################################

data_EHASAI
_chemical_compound_source        'Melodinus henryi Craib. (Apocyniceae)'
_chemical_name_common            'Melodinine D monohydrate'
_chemical_formula_moiety         'C20 H22 N2 O3,H2 O1'
_chemical_name_systematic        
"(1S,11S,17R)-Methyl 3'-methylspiro[8,14-diazapentacyclo[9.5.2.0^1,9^.0^2,7^.0^14,17^]octadeca-2,4,6,9-tetraene-18,2'-oxirane]-10-carboxylate monohydrate"
_chemical_properties_biological  
'Tested for cytotoxic activity against five human cancer cell lines'
_symmetry_cell_setting           orthorhombic
_symmetry_space_group_name_H-M   'P 21 21 21'
_symmetry_Int_Tables_number      19
_space_group_name_Hall           'P 2ac 2ab'
loop_
_symmetry_equiv_pos_site_id
_symmetry_equiv_pos_as_xyz
1 x,y,z
2 1/2-x,-y,1/2+z
3 1/2+x,1/2-y,-z
4 -x,1/2+y,1/2-z
_cell_length_a                   6.9521(9)
_cell_length_b                   14.5835(19)
_cell_length_c                   17.382(2)
_cell_angle_alpha                90
_cell_angle_beta                 90
_cell_angle_gamma                90
_cell_volume                     1762.29
_exptl_crystal_colour            colorless
_exptl_crystal_description       needle
_chemical_melting_point          '172-173 deg.C'
_cell_formula_units_Z            4
loop_
_atom_site_label
_atom_site_type_symbol
_atom_site_fract_x
_atom_site_fract_y
_atom_site_fract_z
N1 N 0.6619(3) 0.68260(15) 0.32709(11)
N2 N 0.2130(3) 0.83173(14) 0.18603(12)
O1 O 0.5608(3) 0.92116(12) 0.09435(10)
O2 O 0.8043(3) 0.55977(12) 0.22208(11)
O3 O 0.7948(3) 0.60256(13) 0.09917(10)
C1 C 0.5789(3) 0.71456(14) 0.26063(13)
C2 C 0.2090(4) 0.7452(2) 0.14143(18)
H3 H 0.0864 0.7406 0.1151
H4 H 0.2179 0.6940 0.1769
C3 C 0.1089(4) 0.81840(19) 0.25900(16)
H5 H -0.0093 0.7845 0.2505
H6 H 0.0775 0.8770 0.2822
C4 C 0.2456(3) 0.76405(17) 0.31061(15)
H7 H 0.2288 0.6986 0.3032
H8 H 0.2244 0.7786 0.3644
C5 C 0.4517(3) 0.79554(14) 0.28398(13)
C6 C 0.5619(3) 0.82874(15) 0.35393(13)
C7 C 0.5556(4) 0.90929(17) 0.39632(14)
H9 H 0.4796 0.9581 0.3802
C8 C 0.6635(4) 0.91609(19) 0.46277(16)
H10 H 0.6608 0.9701 0.4912
C9 C 0.7752(4) 0.8437(2) 0.48740(14)
H11 H 0.8475 0.8500 0.5321
C10 C 0.7823(4) 0.76158(19) 0.44693(14)
H12 H 0.8558 0.7125 0.4643
C11 C 0.6758(3) 0.75551(16) 0.37988(13)
C12 C 0.3690(4) 0.7369(2) 0.08261(16)
H13 H 0.3493 0.7813 0.0418
H14 H 0.3675 0.6761 0.0600
C13 C 0.5643(4) 0.75421(16) 0.12144(13)
H15 H 0.6652 0.7513 0.0821
C14 C 0.6180(3) 0.68989(15) 0.18681(13)
C15 C 0.7527(5) 0.99479(19) 0.2010(2)
H16 H 0.6307 1.0191 0.2169
H17 H 0.8238 1.0414 0.1743
H18 H 0.8239 0.9753 0.2454
C16 C 0.7207(4) 0.91359(16) 0.14784(15)
H19 H 0.8382 0.8868 0.1262
C17 C 0.5566(4) 0.85072(15) 0.15299(13)
C18 C 0.4071(3) 0.85926(16) 0.21444(13)
H20 H 0.4022 0.9230 0.2322
C19 C 0.7454(3) 0.61143(15) 0.17313(14)
C20 C 0.9315(5) 0.5310(2) 0.08258(17)
H21 H 0.8720 0.4723 0.0903
H22 H 1.0402 0.5368 0.1163
H23 H 0.9735 0.5362 0.0301
H24 H 0.757(6) 0.641(2) 0.3293(18)
O4 O 0.1671(4) 0.0076(2) 0.09747(15)
H1 H 0.2299 0.0369 0.1347
H2 H 0.1874 0.0360 0.0529
loop_
_geom_bond_atom_site_label_1
_geom_bond_atom_site_label_2
_geom_bond_site_symmetry_1
_geom_bond_site_symmetry_2
N1 C1 1_555 1_555
N2 C2 1_555 1_555
O1 C16 1_555 1_555
O2 C19 1_555 1_555
O3 C19 1_555 1_555
O4 H1 1_555 1_555
H2 O4 1_555 1_555
C1 C5 1_555 1_555
C2 H3 1_555 1_555
H4 C2 1_555 1_555
C3 N2 1_555 1_555
H5 C3 1_555 1_555
H6 C3 1_555 1_555
C4 C3 1_555 1_555
H7 C4 1_555 1_555
H8 C4 1_555 1_555
C5 C4 1_555 1_555
C6 C5 1_555 1_555
C7 C6 1_555 1_555
H9 C7 1_555 1_555
C8 C7 1_555 1_555
H10 C8 1_555 1_555
C9 C8 1_555 1_555
H11 C9 1_555 1_555
C10 C9 1_555 1_555
H12 C10 1_555 1_555
C11 N1 1_555 1_555
C12 C2 1_555 1_555
H13 C12 1_555 1_555
H14 C12 1_555 1_555
C13 C12 1_555 1_555
H15 C13 1_555 1_555
C14 C1 1_555 1_555
C15 H16 1_555 1_555
H17 C15 1_555 1_555
H18 C15 1_555 1_555
C16 C15 1_555 1_555
H19 C16 1_555 1_555
C17 O1 1_555 1_555
C18 N2 1_555 1_555
H20 C18 1_555 1_555
C19 C14 1_555 1_555
C20 O3 1_555 1_555
H21 C20 1_555 1_555
H22 C20 1_555 1_555
H23 C20 1_555 1_555
H24 N1 1_555 1_555
C5 C18 1_555 1_555
C6 C11 1_555 1_555
C10 C11 1_555 1_555
C13 C14 1_555 1_555
C13 C17 1_555 1_555
C16 C17 1_555 1_555
C17 C18 1_555 1_555

#END
