
#######################################################################
#
#                 Cambridge Crystallographic Data Centre
#                                CCDC 
#
#######################################################################
#
# If this CIF has been generated from an entry in the Cambridge 
# Structural Database, then it will include bibliographic, chemical, 
# crystal, experimental, refinement or atomic coordinate data resulting 
# from the CCDC's data processing and validation procedures.
#
#######################################################################

data_EHASOW
_chemical_compound_source        
'above ground parts of Siegesbeckia pubescens Makino (Compositae)'
_chemical_formula_moiety         'C26 H40 O6'
_chemical_name_systematic        
'ent-18-Acetoxy-17-isobutyryloxy-16\bH-kauran-19-oic acid'
_chemical_properties_biological  
'Tested for cytotoxicity against three cancer cell lines'
_symmetry_cell_setting           orthorhombic
_symmetry_space_group_name_H-M   'P 21 21 2'
_symmetry_Int_Tables_number      18
_space_group_name_Hall           'P 2 2ab'
loop_
_symmetry_equiv_pos_site_id
_symmetry_equiv_pos_as_xyz
1 x,y,z
2 -x,-y,z
3 1/2-x,1/2+y,-z
4 1/2+x,1/2-y,-z
_cell_length_a                   21.962(3)
_cell_length_b                   7.6252(11)
_cell_length_c                   15.114(2)
_cell_angle_alpha                90
_cell_angle_beta                 90
_cell_angle_gamma                90
_cell_volume                     2531.06
_exptl_crystal_colour            colorless
_exptl_crystal_description       block
_chemical_melting_point          '238-240 deg.C'
_cell_formula_units_Z            4
_exptl_crystal_recrystallization_method acetone/chloroform
loop_
_atom_site_label
_atom_site_type_symbol
_atom_site_fract_x
_atom_site_fract_y
_atom_site_fract_z
O1 O 0.92513(11) 1.0443(3) 0.87750(18)
C1 C 0.92477(15) 0.8776(5) 0.8794(2)
C2 C 0.88711(14) 0.7182(4) 0.6837(2)
O2 O 0.97017(11) 0.7909(3) 0.90271(17)
O3 O 0.82959(11) 0.8320(5) 1.00055(17)
C3 C 0.84907(14) 0.8238(4) 0.7530(2)
H1 H 0.8080 0.7750 0.7472
C4 C 0.84149(16) 1.0146(4) 0.7258(2)
H2 H 0.8812 1.0691 0.7200
H3 H 0.8190 1.0772 0.7711
C5 C 0.90769(17) 0.9414(6) 0.4397(3)
H4 H 0.9361 1.0095 0.4034
C6 C 0.84024(15) 0.9330(5) 0.5635(2)
C7 C 0.86557(14) 0.7905(4) 0.8517(2)
O4 O 0.87124(14) 1.0982(5) 0.2693(2)
C8 C 0.80033(17) 0.9284(6) 0.4788(2)
H5 H 0.7765 0.8213 0.4771
H6 H 0.7726 1.0275 0.4781
C9 C 0.86677(17) 0.5918(5) 0.8699(3)
H7 H 0.8842 0.5725 0.9280
H8 H 0.8252 0.5492 0.8713
C10 C 0.90200(19) 0.4850(5) 0.8037(3)
H9 H 0.8958 0.3614 0.8160
H10 H 0.9451 0.5099 0.8104
C11 C 0.81556(16) 0.8729(6) 0.9091(2)
H11 H 0.8146 0.9989 0.9004
H12 H 0.7761 0.8253 0.8931
C12 C 0.80754(16) 1.0269(5) 0.6381(2)
H13 H 0.7673 0.9766 0.6451
H14 H 0.8026 1.1495 0.6224
C13 C 0.85688(15) 0.7448(4) 0.5911(2)
H15 H 0.8174 0.6859 0.5966
C14 C 0.88318(18) 0.5225(5) 0.7085(3)
H16 H 0.8417 0.4825 0.6997
H17 H 0.9092 0.4560 0.6689
C15 C 0.95469(14) 0.7722(5) 0.6850(2)
H18 H 0.9735 0.7290 0.7380
H19 H 0.9577 0.8977 0.6834
H20 H 0.9750 0.7234 0.6344
C16 C 0.7851(2) 0.8035(6) 1.0555(3)
C17 C 0.89547(16) 1.0319(5) 0.5282(2)
H21 H 0.9300 1.0205 0.5678
H22 H 0.8864 1.1553 0.5199
C18 C 0.8295(2) 1.0944(7) 0.3442(3)
H23 H 0.7878 1.0891 0.3235
H24 H 0.8344 1.1996 0.3796
C19 C 0.84380(17) 0.9368(6) 0.3982(2)
H25 H 0.8392 0.8309 0.3621
O5 O 0.73381(18) 0.8008(8) 1.0324(3)
C20 C 0.8883(2) 0.6482(5) 0.5133(3)
H26 H 0.9102 0.5482 0.5368
H27 H 0.8570 0.6035 0.4740
O6 O 0.8319(3) 1.3444(8) 0.2276(4)
C21 C 0.9326(2) 0.7595(6) 0.4590(3)
H28 H 0.9706 0.7704 0.4911
H29 H 0.9411 0.7004 0.4036
C22 C 0.8051(2) 0.7643(7) 1.1461(3)
H30 H 0.7701 0.7454 1.1830
H31 H 0.8283 0.8611 1.1686
H32 H 0.8299 0.6606 1.1458
C23 C 0.9196(3) 1.2269(11) 0.1463(5)
H33 H 0.9193 1.1070 0.1229
C24 C 0.8703(3) 1.2312(10) 0.2179(4)
C25 C 0.9071(4) 1.3371(13) 0.0730(4)
H34 H 0.8712 1.2963 0.0432
H35 H 0.9409 1.3347 0.0328
H36 H 0.9007 1.4549 0.0933
C26 C 0.9811(3) 1.2496(16) 0.1914(7)
H37 H 1.0130 1.2217 0.1503
H38 H 0.9836 1.1725 0.2415
H39 H 0.9855 1.3688 0.2108
H40 H 0.963(3) 1.086(10) 0.880(4)
loop_
_geom_bond_atom_site_label_1
_geom_bond_atom_site_label_2
_geom_bond_site_symmetry_1
_geom_bond_site_symmetry_2
O1 C1 1_555 1_555
C1 O2 1_555 1_555
C2 C3 1_555 1_555
O3 C11 1_555 1_555
C3 H1 1_555 1_555
C4 C3 1_555 1_555
H2 C4 1_555 1_555
H3 C4 1_555 1_555
C5 H4 1_555 1_555
C6 C8 1_555 1_555
C7 C1 1_555 1_555
O4 C18 1_555 1_555
C8 H5 1_555 1_555
H6 C8 1_555 1_555
C9 C7 1_555 1_555
H7 C9 1_555 1_555
H8 C9 1_555 1_555
C10 C9 1_555 1_555
H9 C10 1_555 1_555
H10 C10 1_555 1_555
C11 C7 1_555 1_555
H11 C11 1_555 1_555
H12 C11 1_555 1_555
C12 C4 1_555 1_555
H13 C12 1_555 1_555
H14 C12 1_555 1_555
C13 C2 1_555 1_555
H15 C13 1_555 1_555
C14 C2 1_555 1_555
H16 C14 1_555 1_555
H17 C14 1_555 1_555
C15 C2 1_555 1_555
H18 C15 1_555 1_555
H19 C15 1_555 1_555
H20 C15 1_555 1_555
C16 O3 1_555 1_555
C17 C5 1_555 1_555
H21 C17 1_555 1_555
H22 C17 1_555 1_555
C18 H23 1_555 1_555
H24 C18 1_555 1_555
C19 C5 1_555 1_555
H25 C19 1_555 1_555
O5 C16 1_555 1_555
C20 C13 1_555 1_555
H26 C20 1_555 1_555
H27 C20 1_555 1_555
O6 C24 1_555 1_555
C21 C5 1_555 1_555
H28 C21 1_555 1_555
H29 C21 1_555 1_555
C22 C16 1_555 1_555
H30 C22 1_555 1_555
H31 C22 1_555 1_555
H32 C22 1_555 1_555
C23 H33 1_555 1_555
C24 O4 1_555 1_555
C25 C23 1_555 1_555
H34 C25 1_555 1_555
H35 C25 1_555 1_555
H36 C25 1_555 1_555
C26 C23 1_555 1_555
H37 C26 1_555 1_555
H38 C26 1_555 1_555
H39 C26 1_555 1_555
H40 O1 1_555 1_555
C3 C7 1_555 1_555
C6 C12 1_555 1_555
C6 C13 1_555 1_555
C6 C17 1_555 1_555
C8 C19 1_555 1_555
C10 C14 1_555 1_555
C18 C19 1_555 1_555
C20 C21 1_555 1_555
C23 C24 1_555 1_555

#END
