
#######################################################################
#
#                 Cambridge Crystallographic Data Centre
#                                CCDC 
#
#######################################################################
#
# If this CIF has been generated from an entry in the Cambridge 
# Structural Database, then it will include bibliographic, chemical, 
# crystal, experimental, refinement or atomic coordinate data resulting 
# from the CCDC's data processing and validation procedures.
#
#######################################################################

data_EHATEN
_chemical_compound_source        
'stem bark and wood of Trigonostemon chinensis Merr. (Euphorbiaceae)'
_chemical_name_common            'Trigonostemon F'
_chemical_formula_moiety         'C20 H16 N2 O3'
_chemical_name_systematic        
(Z)-3-(1-(1H-Indol-3-yl)-2-oxopropylidene)-6-methoxy-1,3-dihydro-2H-indol-2-one
_symmetry_cell_setting           orthorhombic
_symmetry_space_group_name_H-M   'P 21 21 21'
_symmetry_Int_Tables_number      19
_space_group_name_Hall           'P 2ac 2ab'
loop_
_symmetry_equiv_pos_site_id
_symmetry_equiv_pos_as_xyz
1 x,y,z
2 1/2-x,-y,1/2+z
3 -x,1/2+y,1/2-z
4 1/2+x,1/2-y,-z
_cell_length_a                   9.2940(14)
_cell_length_b                   11.4297(18)
_cell_length_c                   15.266(2)
_cell_angle_alpha                90
_cell_angle_beta                 90
_cell_angle_gamma                90
_cell_volume                     1621.67
_exptl_crystal_colour            yellow
_exptl_crystal_description       prismatic
_chemical_melting_point          '239.5-243.0 deg.C'
_cell_formula_units_Z            4
loop_
_atom_site_label
_atom_site_type_symbol
_atom_site_fract_x
_atom_site_fract_y
_atom_site_fract_z
O1 O 0.9791(2) 1.03480(19) 0.25367(15)
O2 O 0.8027(2) 1.25584(19) 0.21319(15)
O3 O 0.7232(3) 0.5357(2) 0.02547(14)
N1 N 0.9495(3) 0.8558(2) 0.18804(18)
N2 N 0.2846(3) 1.0655(3) 0.2022(2)
C1 C 0.9053(3) 0.9640(3) 0.2126(2)
C2 C 0.7539(3) 0.9778(3) 0.18146(18)
C3 C 0.7207(3) 0.8686(3) 0.13566(18)
C4 C 0.8414(3) 0.7965(3) 0.14220(19)
C5 C 0.8500(3) 0.6857(3) 0.10756(18)
H1 H 0.9319 0.6400 0.1147
C6 C 0.7313(4) 0.6445(3) 0.0615(2)
C7 C 0.6119(3) 0.7159(3) 0.05050(18)
H2 H 0.5346 0.6888 0.0176
C8 C 0.6049(3) 0.8268(3) 0.08746(17)
H3 H 0.5232 0.8728 0.0800
C9 C 0.6773(3) 1.0744(3) 0.2004(2)
C10 C 0.5216(3) 1.0896(3) 0.18693(19)
C11 C 0.4163(3) 1.0176(3) 0.2195(2)
H4 H 0.4321 0.9473 0.2487
C12 C 0.3005(3) 1.1693(3) 0.1589(2)
C13 C 0.4489(3) 1.1883(3) 0.14842(19)
C14 C 0.4939(3) 1.2865(3) 0.1023(2)
H5 H 0.5913 1.3017 0.0946
C15 C 0.3920(4) 1.3606(3) 0.0684(2)
H6 H 0.4213 1.4261 0.0370
C16 C 0.2449(4) 1.3396(4) 0.0800(3)
H7 H 0.1784 1.3919 0.0567
C17 C 0.1972(3) 1.2440(3) 0.1248(2)
H8 H 0.0995 1.2295 0.1323
C18 C 0.7451(3) 1.1745(3) 0.2495(2)
C19 C 0.7261(3) 1.1708(3) 0.3466(2)
H9 H 0.7612 1.2423 0.3718
H10 H 0.7790 1.1059 0.3702
H11 H 0.6259 1.1619 0.3603
C20 C 0.8367(4) 0.4560(3) 0.0450(2)
H12 H 0.9241 0.4829 0.0183
H13 H 0.8129 0.3800 0.0226
H14 H 0.8494 0.4515 0.1073
H15 H 0.205(2) 1.036(3) 0.218(2)
H16 H 1.028(2) 0.829(2) 0.2055(17)
loop_
_geom_bond_atom_site_label_1
_geom_bond_atom_site_label_2
_geom_bond_site_symmetry_1
_geom_bond_site_symmetry_2
O1 C1 1_555 1_555
O2 C18 1_555 1_555
O3 C6 1_555 1_555
N1 C1 1_555 1_555
N2 C11 1_555 1_555
C1 C2 1_555 1_555
C2 C3 1_555 1_555
C3 C4 1_555 1_555
C4 N1 1_555 1_555
C5 C4 1_555 1_555
H1 C5 1_555 1_555
C6 C5 1_555 1_555
C7 C6 1_555 1_555
H2 C7 1_555 1_555
C8 C3 1_555 1_555
H3 C8 1_555 1_555
C9 C2 1_555 1_555
C10 C9 1_555 1_555
C11 C10 1_555 1_555
H4 C11 1_555 1_555
C12 N2 1_555 1_555
C13 C10 1_555 1_555
C14 C13 1_555 1_555
H5 C14 1_555 1_555
C15 C14 1_555 1_555
H6 C15 1_555 1_555
C16 C15 1_555 1_555
H7 C16 1_555 1_555
C17 C12 1_555 1_555
H8 C17 1_555 1_555
C18 C9 1_555 1_555
C19 C18 1_555 1_555
H9 C19 1_555 1_555
H10 C19 1_555 1_555
H11 C19 1_555 1_555
C20 O3 1_555 1_555
H12 C20 1_555 1_555
H13 C20 1_555 1_555
H14 C20 1_555 1_555
H15 N2 1_555 1_555
H16 N1 1_555 1_555
C7 C8 1_555 1_555
C12 C13 1_555 1_555
C16 C17 1_555 1_555

#END
