
#######################################################################
#
#                 Cambridge Crystallographic Data Centre
#                                CCDC 
#
#######################################################################
#
# If this CIF has been generated from an entry in the Cambridge 
# Structural Database, then it will include bibliographic, chemical, 
# crystal, experimental, refinement or atomic coordinate data resulting 
# from the CCDC's data processing and validation procedures.
#
#######################################################################

data_EHATOX
_chemical_compound_source        
'stem bark and wood of Trigonostemon chinensis Merr. (Euphorbiaceae)'
_chemical_name_common            'Trigonostemon D monohydrate'
_chemical_formula_moiety         'C19 H22 O4,H2 O1'
_chemical_name_systematic        
'(11aR)-7,11a-Dihydroxy-4-methoxy-1,1,8-trimethyl-1,10,11,11a-tetrahydro-2H-dibenzo[a,d][7]annulen-2-one monohydrate'
_symmetry_cell_setting           orthorhombic
_symmetry_space_group_name_H-M   'P 21 21 2'
_symmetry_Int_Tables_number      18
_space_group_name_Hall           'P 2 2ab'
loop_
_symmetry_equiv_pos_site_id
_symmetry_equiv_pos_as_xyz
1 x,y,z
2 -x,-y,z
3 1/2-x,1/2+y,-z
4 1/2+x,1/2-y,-z
_cell_length_a                   20.0062(1)
_cell_length_b                   9.3180(1)
_cell_length_c                   9.3486(1)
_cell_angle_alpha                90
_cell_angle_beta                 90
_cell_angle_gamma                90
_cell_volume                     1742.75
_exptl_crystal_colour            colorless
_exptl_crystal_description       plank
_cell_formula_units_Z            4
loop_
_atom_site_label
_atom_site_type_symbol
_atom_site_fract_x
_atom_site_fract_y
_atom_site_fract_z
O1 O 0.42248(5) 0.54398(13) 1.44167(13)
O2 O 0.25666(6) 0.89871(15) 1.49832(14)
O3 O 0.29681(5) 0.70503(12) 1.16676(13)
O4 O 0.68240(5) 0.71703(13) 0.98206(12)
C1 C 0.38717(7) 0.66011(17) 1.40106(16)
C2 C 0.34003(7) 0.72381(18) 1.48245(17)
H1 H 0.3301 0.6858 1.5743
C3 C 0.30442(7) 0.84890(17) 1.43215(16)
C4 C 0.32975(8) 0.92284(16) 1.29558(16)
C5 C 0.35168(7) 0.80366(15) 1.18718(16)
C6 C 0.36989(7) 0.87028(17) 1.04259(15)
H2 H 0.4021 0.9491 1.0591
H3 H 0.3291 0.9129 1.0003
C7 C 0.40021(7) 0.76526(17) 0.93430(17)
H4 H 0.3805 0.6689 0.9489
H5 H 0.3889 0.7970 0.8362
C8 C 0.47511(7) 0.75569(16) 0.94893(16)
C9 C 0.50377(7) 0.70825(16) 1.07808(15)
C10 C 0.40561(7) 0.71165(16) 1.25685(16)
C11 C 0.57330(7) 0.69103(16) 1.08569(16)
H6 H 0.5927 0.6517 1.1698
C12 C 0.61422(7) 0.73038(15) 0.97271(16)
C13 C 0.58714(8) 0.78958(16) 0.84825(15)
C14 C 0.51760(8) 0.79681(16) 0.83867(15)
H7 H 0.4983 0.8316 0.7525
C15 C 0.63154(8) 0.84796(18) 0.73209(17)
H8 H 0.6571 0.9296 0.7692
H9 H 0.6040 0.8795 0.6513
H10 H 0.6624 0.7728 0.7001
C16 C 0.41058(9) 0.4886(2) 1.5832(2)
H11 H 0.4215 0.5623 1.6541
H12 H 0.4387 0.4039 1.5991
H13 H 0.3634 0.4617 1.5926
C17 C 0.27490(9) 1.02028(19) 1.23533(19)
H14 H 0.2364 0.9618 1.2068
H15 H 0.2921 1.0721 1.1519
H16 H 0.2611 1.0893 1.3087
C18 C 0.38974(9) 1.01701(18) 1.34089(19)
H17 H 0.3744 1.0917 1.4071
H18 H 0.4095 1.0620 1.2560
H19 H 0.4234 0.9571 1.3883
C19 C 0.46701(7) 0.67607(15) 1.20865(16)
H20 H 0.4914 0.6177 1.2736
H21 H 0.2639(13) 0.747(3) 1.124(3)
H22 H 0.6923(10) 0.673(3) 1.057(3)
O5 O 0.72272(6) 0.58312(14) 1.21290(15)
H23 H 0.7293(12) 0.601(3) 1.295(3)
H24 H 0.7129(13) 0.488(4) 1.207(3)
loop_
_geom_bond_atom_site_label_1
_geom_bond_atom_site_label_2
_geom_bond_site_symmetry_1
_geom_bond_site_symmetry_2
O1 C1 1_555 1_555
O2 C3 1_555 1_555
O3 C5 1_555 1_555
O4 C12 1_555 1_555
C1 C2 1_555 1_555
C2 H1 1_555 1_555
C3 C2 1_555 1_555
C4 C3 1_555 1_555
C5 C4 1_555 1_555
C6 C5 1_555 1_555
H2 C6 1_555 1_555
H3 C6 1_555 1_555
C7 C6 1_555 1_555
H4 C7 1_555 1_555
H5 C7 1_555 1_555
C8 C7 1_555 1_555
C9 C8 1_555 1_555
C10 C1 1_555 1_555
C11 C9 1_555 1_555
H6 C11 1_555 1_555
C12 C11 1_555 1_555
C13 C12 1_555 1_555
C14 C8 1_555 1_555
H7 C14 1_555 1_555
C15 C13 1_555 1_555
H8 C15 1_555 1_555
H9 C15 1_555 1_555
H10 C15 1_555 1_555
C16 O1 1_555 1_555
H11 C16 1_555 1_555
H12 C16 1_555 1_555
H13 C16 1_555 1_555
C17 C4 1_555 1_555
H14 C17 1_555 1_555
H15 C17 1_555 1_555
H16 C17 1_555 1_555
C18 C4 1_555 1_555
H17 C18 1_555 1_555
H18 C18 1_555 1_555
H19 C18 1_555 1_555
C19 C9 1_555 1_555
H20 C19 1_555 1_555
H21 O3 1_555 1_555
H22 O4 1_555 1_555
O5 H23 1_555 1_555
H24 O5 1_555 1_555
C5 C10 1_555 1_555
C10 C19 1_555 1_555
C13 C14 1_555 1_555

#END
