
#######################################################################
#
#                 Cambridge Crystallographic Data Centre
#                                CCDC 
#
#######################################################################
#
# If this CIF has been generated from an entry in the Cambridge 
# Structural Database, then it will include bibliographic, chemical, 
# crystal, experimental, refinement or atomic coordinate data resulting 
# from the CCDC's data processing and validation procedures.
#
#######################################################################

data_EHATIR
_chemical_compound_source        
'stem bark and wood of Trigonostemon chinensis Merr. (Euphorbiaceae)'
_chemical_name_common            'Trigonostemon A'
_chemical_formula_moiety         'C18 H22 O2'
_chemical_name_systematic        
(11aS)-7-Hydroxy-1,1,8-trimethyl-1,3,4,10,11,11a-hexahydro-2H-dibenzo[a,d][7]annulen-2-one
_symmetry_cell_setting           orthorhombic
_symmetry_space_group_name_H-M   'P 21 21 21'
_symmetry_Int_Tables_number      19
_space_group_name_Hall           'P 2ac 2ab'
loop_
_symmetry_equiv_pos_site_id
_symmetry_equiv_pos_as_xyz
1 x,y,z
2 1/2-x,-y,1/2+z
3 -x,1/2+y,1/2-z
4 1/2+x,1/2-y,-z
_cell_length_a                   6.164
_cell_length_b                   10.0724(1)
_cell_length_c                   22.8500(1)
_cell_angle_alpha                90
_cell_angle_beta                 90
_cell_angle_gamma                90
_cell_volume                     1418.67
_exptl_crystal_colour            colorless
_exptl_crystal_description       'irregular block'
_chemical_melting_point          '195.5-198.5 deg.C'
_cell_formula_units_Z            4
loop_
_atom_site_label
_atom_site_type_symbol
_atom_site_fract_x
_atom_site_fract_y
_atom_site_fract_z
O1 O 0.74964(16) 0.72445(9) 0.22157(4)
O2 O 0.68420(17) 1.12155(11) 0.61403(4)
H1 H 0.736(4) 1.172(2) 0.6381(9)
C1 C 0.7443(2) 0.66552(12) 0.37497(5)
H2 H 0.6415 0.6331 0.4050
H3 H 0.8518 0.5945 0.3675
C2 C 0.6205(2) 0.69625(13) 0.31836(5)
H4 H 0.5579 0.6130 0.3027
H5 H 0.4993 0.7575 0.3272
C3 C 0.7641(2) 0.75812(11) 0.27263(5)
C4 C 0.9162(2) 0.86980(11) 0.29204(5)
C5 C 1.02235(19) 0.84119(12) 0.35354(5)
H6 H 1.1282 0.7675 0.3468
C6 C 1.1579(2) 0.95979(12) 0.37393(5)
H7 H 1.0659 1.0404 0.3734
H8 H 1.2783 0.9738 0.3459
C7 C 1.2527(2) 0.94222(12) 0.43547(5)
H9 H 1.2813 0.8469 0.4425
H10 H 1.3926 0.9901 0.4380
C8 C 1.10134(19) 0.99380(12) 0.48197(5)
C9 C 0.89222(19) 0.93973(11) 0.48790(5)
C10 C 0.85933(18) 0.78764(11) 0.39750(5)
C11 C 0.7596(2) 0.98554(12) 0.53338(5)
H11 H 0.6200 0.9474 0.5387
C12 C 0.8281(2) 1.08544(13) 0.57091(5)
C13 C 1.0323(2) 1.14304(12) 0.56438(5)
C14 C 1.1641(2) 1.09502(12) 0.51959(5)
H12 H 1.3037 1.1334 0.5146
C15 C 1.1126(2) 1.24981(14) 0.60518(6)
H13 H 1.1336 1.2123 0.6443
H14 H 1.0056 1.3217 0.6071
H15 H 1.2508 1.2849 0.5907
C16 C 0.7703(2) 0.99380(12) 0.29471(6)
H16 H 0.8608 1.0732 0.2988
H17 H 0.6724 0.9869 0.3284
H18 H 0.6848 1.0001 0.2587
C17 C 1.0938(2) 0.88928(14) 0.24590(5)
H19 H 1.1862 0.8102 0.2445
H20 H 1.1819 0.9668 0.2562
H21 H 1.0268 0.9033 0.2075
C18 C 0.80755(19) 0.83169(12) 0.45116(5)
H22 H 0.6930 0.7833 0.4690
loop_
_geom_bond_atom_site_label_1
_geom_bond_atom_site_label_2
_geom_bond_site_symmetry_1
_geom_bond_site_symmetry_2
O1 C3 1_555 1_555
O2 H1 1_555 1_555
C1 H2 1_555 1_555
H3 C1 1_555 1_555
C2 C1 1_555 1_555
H4 C2 1_555 1_555
H5 C2 1_555 1_555
C3 C2 1_555 1_555
C4 C3 1_555 1_555
C5 C4 1_555 1_555
H6 C5 1_555 1_555
C6 C5 1_555 1_555
H7 C6 1_555 1_555
H8 C6 1_555 1_555
C7 C6 1_555 1_555
H9 C7 1_555 1_555
H10 C7 1_555 1_555
C8 C7 1_555 1_555
C9 C8 1_555 1_555
C10 C1 1_555 1_555
C11 C9 1_555 1_555
H11 C11 1_555 1_555
C12 O2 1_555 1_555
C13 C12 1_555 1_555
C14 C8 1_555 1_555
H12 C14 1_555 1_555
C15 C13 1_555 1_555
H13 C15 1_555 1_555
H14 C15 1_555 1_555
H15 C15 1_555 1_555
C16 C4 1_555 1_555
H16 C16 1_555 1_555
H17 C16 1_555 1_555
H18 C16 1_555 1_555
C17 C4 1_555 1_555
H19 C17 1_555 1_555
H20 C17 1_555 1_555
H21 C17 1_555 1_555
C18 C9 1_555 1_555
H22 C18 1_555 1_555
C5 C10 1_555 1_555
C10 C18 1_555 1_555
C11 C12 1_555 1_555
C13 C14 1_555 1_555

#END
