
#######################################################################
#
#                 Cambridge Crystallographic Data Centre
#                                CCDC 
#
#######################################################################
#
# If this CIF has been generated from an entry in the Cambridge 
# Structural Database, then it will include bibliographic, chemical, 
# crystal, experimental, refinement or atomic coordinate data resulting 
# from the CCDC's data processing and validation procedures.
#
#######################################################################

data_EHAXOC
_chemical_formula_moiety         'C18 H19 N1 O5'
_chemical_name_systematic        
'benzyl 5-hydroxy-3-(2-methoxyphenyl)-1,2-oxazolidine-2-carboxylate'
_symmetry_cell_setting           monoclinic
_symmetry_space_group_name_H-M   'P 21/c'
_symmetry_Int_Tables_number      14
_space_group_name_Hall           '-P 2ybc'
loop_
_symmetry_equiv_pos_site_id
_symmetry_equiv_pos_as_xyz
1 x,y,z
2 -x,1/2+y,1/2-z
3 -x,-y,-z
4 x,1/2-y,1/2+z
_cell_length_a                   10.0113(3)
_cell_length_b                   10.5080(3)
_cell_length_c                   15.8303(5)
_cell_angle_alpha                90
_cell_angle_beta                 108.104(4)
_cell_angle_gamma                90
_cell_volume                     1582.88
_exptl_crystal_colour            colorless
_exptl_crystal_description       block
_cell_formula_units_Z            4
loop_
_atom_site_label
_atom_site_type_symbol
_atom_site_fract_x
_atom_site_fract_y
_atom_site_fract_z
O1 O 0.78365(13) -0.03474(11) -0.00120(8)
O2 O 0.48083(12) 0.34012(12) -0.01745(7)
H1 H 0.4195 0.3932 -0.0204
O3 O 0.66645(12) 0.38481(11) 0.11144(7)
O4 O 0.75968(12) 0.53908(11) 0.00961(8)
O5 O 0.85014(12) 0.37034(11) -0.04275(7)
N1 N 0.76731(14) 0.34091(13) 0.07142(8)
C1 C 0.88488(17) 0.00131(16) 0.07460(10)
C2 C 0.99866(18) -0.07403(18) 0.12146(12)
H2 H 1.0107 -0.1544 0.1004
C3 C 1.09324(19) -0.02923(19) 0.19905(12)
H3 H 1.1689 -0.0798 0.2299
C4 C 1.07689(19) 0.08984(19) 0.23147(11)
H4 H 1.1397 0.1188 0.2845
C5 C 0.96481(18) 0.16624(18) 0.18355(10)
H5 H 0.9543 0.2469 0.2048
C6 C 0.86928(17) 0.12436(16) 0.10529(10)
C7 C 0.74585(17) 0.20311(16) 0.05219(10)
H6 H 0.7300 0.1886 -0.0113
C8 C 0.60850(18) 0.17612(17) 0.07408(12)
H7 H 0.5472 0.1198 0.0304
H8 H 0.6279 0.1385 0.1326
C9 C 0.54464(18) 0.30629(17) 0.07067(11)
H9 H 0.4777 0.3091 0.1046
C10 C 0.78633(16) 0.42648(16) 0.01104(10)
C11 C 0.86817(19) 0.45288(19) -0.11198(12)
H10 H 0.9285 0.4108 -0.1409
H11 H 0.9148 0.5305 -0.0850
C12 C 0.73132(18) 0.48681(17) -0.18097(11)
C13 C 0.60582(19) 0.42611(19) -0.18765(11)
H12 H 0.6046 0.3590 -0.1496
C14 C 0.4824(2) 0.4640(2) -0.25022(12)
H13 H 0.3985 0.4234 -0.2533
C15 C 0.4828(2) 0.5616(2) -0.30797(12)
H14 H 0.3994 0.5872 -0.3498
C16 C 0.6074(2) 0.62147(19) -0.30359(13)
H15 H 0.6083 0.6864 -0.3433
C17 C 0.7311(2) 0.58493(18) -0.24015(12)
H16 H 0.8147 0.6262 -0.2370
C18 C 0.7958(2) -0.15840(17) -0.03555(13)
H17 H 0.7205 -0.1714 -0.0898
H18 H 0.7910 -0.2217 0.0071
H19 H 0.8842 -0.1652 -0.0471
loop_
_geom_bond_atom_site_label_1
_geom_bond_atom_site_label_2
_geom_bond_site_symmetry_1
_geom_bond_site_symmetry_2
O1 C1 1_555 1_555
O2 H1 1_555 1_555
O3 N1 1_555 1_555
O4 C10 1_555 1_555
O5 C10 1_555 1_555
N1 C7 1_555 1_555
C1 C2 1_555 1_555
C2 H2 1_555 1_555
C3 C2 1_555 1_555
H3 C3 1_555 1_555
C4 C3 1_555 1_555
H4 C4 1_555 1_555
C5 C4 1_555 1_555
H5 C5 1_555 1_555
C6 C1 1_555 1_555
C7 C6 1_555 1_555
H6 C7 1_555 1_555
C8 C7 1_555 1_555
H7 C8 1_555 1_555
H8 C8 1_555 1_555
C9 O2 1_555 1_555
H9 C9 1_555 1_555
C10 N1 1_555 1_555
C11 O5 1_555 1_555
H10 C11 1_555 1_555
H11 C11 1_555 1_555
C12 C11 1_555 1_555
C13 C12 1_555 1_555
H12 C13 1_555 1_555
C14 C13 1_555 1_555
H13 C14 1_555 1_555
C15 C14 1_555 1_555
H14 C15 1_555 1_555
C16 C15 1_555 1_555
H15 C16 1_555 1_555
C17 C12 1_555 1_555
H16 C17 1_555 1_555
C18 O1 1_555 1_555
H17 C18 1_555 1_555
H18 C18 1_555 1_555
H19 C18 1_555 1_555
O3 C9 1_555 1_555
C5 C6 1_555 1_555
C8 C9 1_555 1_555
C16 C17 1_555 1_555

#END
