
#######################################################################
#
#                 Cambridge Crystallographic Data Centre
#                                CCDC 
#
#######################################################################
#
# If this CIF has been generated from an entry in the Cambridge 
# Structural Database, then it will include bibliographic, chemical, 
# crystal, experimental, refinement or atomic coordinate data resulting 
# from the CCDC's data processing and validation procedures.
#
#######################################################################

data_EHAZIW
_chemical_compound_source        'dried roots of Brachystemma calycinum'
_chemical_formula_moiety         'C14 H16 N2 O5'
_chemical_name_systematic        'Brachystemidine D'
_chemical_properties_biological  
'source plant used in Chinese folk medicine for treatment of rheumatism, limb numbness, impotence and edema of the feet'
_symmetry_cell_setting           monoclinic
_symmetry_space_group_name_H-M   'P 21/c'
_symmetry_Int_Tables_number      14
_space_group_name_Hall           '-P 2ybc'
loop_
_symmetry_equiv_pos_site_id
_symmetry_equiv_pos_as_xyz
1 x,y,z
2 -x,1/2+y,1/2-z
3 -x,-y,-z
4 x,1/2-y,1/2+z
_cell_length_a                   6.5770(2)
_cell_length_b                   10.3520(5)
_cell_length_c                   20.5690(9)
_cell_angle_alpha                90
_cell_angle_beta                 88.773(3)
_cell_angle_gamma                90
_cell_volume                     1400.12
_exptl_crystal_colour            colorless
_exptl_crystal_description       block
_chemical_melting_point          '420.5-422 K'
_cell_formula_units_Z            4
_exptl_crystal_recrystallization_method chloroform
loop_
_atom_site_label
_atom_site_type_symbol
_atom_site_fract_x
_atom_site_fract_y
_atom_site_fract_z
O1 O 0.8124(3) 0.2032(3) 0.1823(2)
O2 O 0.1856(3) 0.0826(2) 0.1607(1)
O3 O 0.3556(3) 0.4378(2) 0.1792(1)
O4 O 0.4742(3) 0.2253(2) 0.3507(1)
O5 O 0.3797(3) 0.0740(3) 0.4242(1)
N1 N 0.4707(3) 0.2235(2) 0.1672(1)
N2 N 0.7492(4) 0.1230(3) 0.4908(2)
C1 C 0.6572(4) 0.1722(3) 0.1543(2)
C2 C 0.6364(4) 0.0716(3) 0.1017(2)
C3 C 0.4322(5) 0.1035(3) 0.0716(1)
C4 C 0.3102(4) 0.1712(3) 0.1260(2)
C5 C 0.4346(4) 0.3289(3) 0.2130(1)
C6 C 0.1522(4) 0.4670(3) 0.2023(2)
C7 C 0.1164(4) 0.3762(3) 0.2574(3)
C8 C 0.2733(4) 0.2979(3) 0.2643(1)
C9 C 0.2962(4) 0.1924(3) 0.3127(2)
C10 C 0.5005(4) 0.1544(3) 0.4050(2)
C11 C 0.6882(4) 0.1897(3) 0.4365(2)
C12 C 0.8309(5) 0.2842(3) 0.4230(2)
C13 C 0.9822(5) 0.2745(3) 0.4707(2)
C14 C 0.9268(5) 0.1739(3) 0.5111(2)
H1 H 0.051 0.130 0.172
H2 H 0.663 0.053 0.514
H3 H 0.760 0.079 0.066
H4 H 0.636 -0.025 0.122
H5 H 0.452 0.166 0.030
H6 H 0.355 0.016 0.056
H7 H 0.221 0.250 0.106
H8 H 0.575 0.355 0.237
H9 H 0.138 0.567 0.217
H10 H 0.042 0.450 0.164
H11 H -0.021 0.373 0.288
H12 H 0.318 0.100 0.288
H13 H 0.160 0.185 0.344
H14 H 0.825 0.354 0.383
H15 H 1.118 0.335 0.475
H16 H 1.014 0.139 0.552
loop_
_geom_bond_atom_site_label_1
_geom_bond_atom_site_label_2
_geom_bond_site_symmetry_1
_geom_bond_site_symmetry_2
O1 C1 1_555 1_555
O2 C4 1_555 1_555
O3 C5 1_555 1_555
O4 C9 1_555 1_555
O5 C10 1_555 1_555
N1 C1 1_555 1_555
N2 C11 1_555 1_555
C1 C2 1_555 1_555
C2 C3 1_555 1_555
C3 C4 1_555 1_555
C4 N1 1_555 1_555
C5 N1 1_555 1_555
C6 O3 1_555 1_555
C7 C6 1_555 1_555
C8 C5 1_555 1_555
C9 C8 1_555 1_555
C10 O4 1_555 1_555
C11 C10 1_555 1_555
C12 C11 1_555 1_555
C13 C12 1_555 1_555
C14 N2 1_555 1_555
H1 O2 1_555 1_555
H2 N2 1_555 1_555
H3 C2 1_555 1_555
H4 C2 1_555 1_555
H5 C3 1_555 1_555
H6 C3 1_555 1_555
H7 C4 1_555 1_555
H8 C5 1_555 1_555
H9 C6 1_555 1_555
H10 C6 1_555 1_555
H11 C7 1_555 1_555
H12 C9 1_555 1_555
H13 C9 1_555 1_555
H14 C12 1_555 1_555
H15 C13 1_555 1_555
H16 C14 1_555 1_555
C7 C8 1_555 1_555
C13 C14 1_555 1_555

#END
