
#######################################################################
#
#                 Cambridge Crystallographic Data Centre
#                                CCDC 
#
#######################################################################
#
# If this CIF has been generated from an entry in the Cambridge 
# Structural Database, then it will include bibliographic, chemical, 
# crystal, experimental, refinement or atomic coordinate data resulting 
# from the CCDC's data processing and validation procedures.
#
#######################################################################

data_EHEHIJ
_chemical_formula_moiety         'C13 H19 N1 O2'
_chemical_name_systematic        2-(4-Methoxyphenyl)-6-methylpiperidin-4-ol
_symmetry_cell_setting           monoclinic
_symmetry_space_group_name_H-M   'P n'
_symmetry_Int_Tables_number      7
_space_group_name_Hall           'P -2yac'
loop_
_symmetry_equiv_pos_site_id
_symmetry_equiv_pos_as_xyz
1 x,y,z
2 1/2+x,-y,1/2+z
_cell_length_a                   6.6816(3)
_cell_length_b                   10.5130(5)
_cell_length_c                   8.8205(4)
_cell_angle_alpha                90
_cell_angle_beta                 101.057(3)
_cell_angle_gamma                90
_cell_volume                     608.083
_exptl_crystal_colour            colorless
_exptl_crystal_description       plate
_cell_formula_units_Z            2
loop_
_atom_site_label
_atom_site_type_symbol
_atom_site_fract_x
_atom_site_fract_y
_atom_site_fract_z
C1 C 0.2386(5) 0.4907(3) 1.0175(4)
H1 H 0.316(7) 0.492(3) 1.124(5)
C2 C 0.2930(5) 0.6091(3) 0.9351(4)
H2 H 0.2596 0.6843 0.9890
H3 H 0.2135 0.6112 0.8308
C3 C 0.5196(4) 0.6103(3) 0.9291(3)
H4 H 0.596(6) 0.609(3) 1.036(4)
C4 C 0.5243(5) 0.3763(3) 0.9320(4)
H5 H 0.602(6) 0.379(4) 1.038(5)
C5 C 0.2983(5) 0.3735(3) 0.9370(4)
H6 H 0.2196 0.3698 0.8326
H7 H 0.2679 0.2980 0.9915
C6 C 0.5939(8) 0.2610(4) 0.8513(5)
H8 H 0.5198 0.2573 0.7467
H9 H 0.5687 0.1850 0.9050
H10 H 0.7371 0.2680 0.8512
C7 C 0.5907(4) 0.7249(3) 0.8503(3)
C8 C 0.7929(5) 0.7608(3) 0.8895(4)
H11 H 0.8791 0.7145 0.9650
C9 C 0.8729(5) 0.8626(3) 0.8216(4)
H12 H 1.0103 0.8834 0.8497
C10 C 0.7440(5) 0.9331(3) 0.7106(4)
C11 C 0.5410(6) 0.8999(3) 0.6710(4)
H13 H 0.4541 0.9473 0.5971
C12 C 0.4657(5) 0.7976(4) 0.7393(4)
H14 H 0.3283 0.7767 0.7107
C13 C 1.0108(7) 1.0717(5) 0.6745(7)
H15 H 1.0442 1.0913 0.7827
H16 H 1.0337 1.1453 0.6157
H17 H 1.0952 1.0030 0.6520
H18 H 0.692(8) 0.494(4) 0.865(5)
H19 H -0.001(9) 0.494(4) 1.112(7)
N1 N 0.5705(5) 0.4932(2) 0.8513(3)
O1 O 0.0261(3) 0.4891(2) 1.0225(3)
O2 O 0.8044(5) 1.0357(3) 0.6351(4)
loop_
_geom_bond_atom_site_label_1
_geom_bond_atom_site_label_2
_geom_bond_site_symmetry_1
_geom_bond_site_symmetry_2
C1 H1 1_555 1_555
C2 C1 1_555 1_555
H2 C2 1_555 1_555
H3 C2 1_555 1_555
C3 C2 1_555 1_555
H4 C3 1_555 1_555
C4 H5 1_555 1_555
C5 C1 1_555 1_555
H6 C5 1_555 1_555
H7 C5 1_555 1_555
C6 C4 1_555 1_555
H8 C6 1_555 1_555
H9 C6 1_555 1_555
H10 C6 1_555 1_555
C7 C3 1_555 1_555
C8 C7 1_555 1_555
H11 C8 1_555 1_555
C9 C8 1_555 1_555
H12 C9 1_555 1_555
C10 C9 1_555 1_555
C11 C10 1_555 1_555
H13 C11 1_555 1_555
C12 C7 1_555 1_555
H14 C12 1_555 1_555
C13 H15 1_555 1_555
H16 C13 1_555 1_555
H17 C13 1_555 1_555
H18 N1 1_555 1_555
H19 O1 1_555 1_555
N1 C3 1_555 1_555
O1 C1 1_555 1_555
O2 C10 1_555 1_555
C4 C5 1_555 1_555
C4 N1 1_555 1_555
C11 C12 1_555 1_555
C13 O2 1_555 1_555

#END
