
#######################################################################
#
#                 Cambridge Crystallographic Data Centre
#                                CCDC 
#
#######################################################################
#
# If this CIF has been generated from an entry in the Cambridge 
# Structural Database, then it will include bibliographic, chemical, 
# crystal, experimental, refinement or atomic coordinate data resulting 
# from the CCDC's data processing and validation procedures.
#
#######################################################################

data_EHEKIM
_chemical_formula_moiety         'C24 H30 O12,2(C10 H8 N2),2(C3 H7 N1 O1)'
_chemical_name_systematic        
"3,3'-bis(2-Carboxyprop-1-en-1-yl)-2,2',4,4'-tetramethyl-1,1'-bi(cyclobutyl)-2,2',4,4'-tetracarboxylic acid bis(2,2'-bipyridine) dimethylformamide solvate"
_symmetry_cell_setting           triclinic
_symmetry_space_group_name_H-M   'P -1'
_symmetry_Int_Tables_number      2
_space_group_name_Hall           '-P 1'
loop_
_symmetry_equiv_pos_site_id
_symmetry_equiv_pos_as_xyz
1 x,y,z
2 -x,-y,-z
_cell_length_a                   8.1654(9)
_cell_length_b                   11.7147(13)
_cell_length_c                   13.1518(14)
_cell_angle_alpha                86.292(5)
_cell_angle_beta                 77.546(5)
_cell_angle_gamma                78.982(5)
_cell_volume                     1205.43
_exptl_crystal_colour            colorless
_exptl_crystal_description       plate
_cell_formula_units_Z            1
loop_
_atom_site_label
_atom_site_type_symbol
_atom_site_fract_x
_atom_site_fract_y
_atom_site_fract_z
C1 C 0.2277(2) 1.05236(15) 0.82153(13)
C2 C 0.1166(2) 1.12583(14) 0.91028(13)
C3 C 0.00016(19) 1.06485(13) 1.00137(12)
C4 C -0.1625(2) 1.15173(14) 0.98036(12)
C5 C -0.0498(2) 1.19996(14) 0.88028(12)
C6 C -0.0548(2) 1.32759(15) 0.86404(13)
C7 C -0.0047(2) 1.38727(15) 0.77590(14)
C8 C 0.0611(3) 1.32752(17) 0.67495(14)
C9 C -0.2295(2) 1.24410(14) 1.06276(13)
C10 C 0.2224(2) 1.19837(16) 0.95228(14)
C11 C -0.3069(2) 1.10080(15) 0.95451(14)
C12 C -0.0084(3) 1.51602(17) 0.77452(16)
H1 H 0.3144 1.1467 0.9785
H2 H 0.1494 1.2462 1.009
H3 H 0.2715 1.2489 0.8963
H4 H -0.3712 1.0692 1.0183
H5 H -0.2591 1.0385 0.9045
H6 H -0.3832 1.162 0.9242
H7 H -0.0628 1.5465 0.8437
H8 H -0.0734 1.5544 0.7233
H9 H 0.1084 1.5312 0.7556
H15 H 0.2104 0.9473 0.7339
H26 H 0.0235 1.0828 1.0696
H27 H -0.4136 1.3555 1.1004
H28 H -0.071 1.1673 0.8169
H29 H -0.0996 1.3729 0.9245
H30 H 0.1159 1.36 0.5388
O1 O 0.14380(16) 0.98614(11) 0.78255(10)
O2 O 0.37799(16) 1.05449(13) 0.78900(11)
O3 O -0.14947(17) 1.26727(11) 1.12337(10)
O4 O -0.38420(16) 1.30211(12) 1.05690(10)
O5 O 0.0977(2) 1.22246(13) 0.66619(12)
O6 O 0.0840(2) 1.39874(12) 0.59343(11)
C1A C -0.2277(2) 0.94764(15) 1.17847(13)
C2A C -0.1166(2) 0.87417(14) 1.08972(13)
C3A C -0.00016(19) 0.93515(13) 0.99863(12)
C4A C 0.1625(2) 0.84827(14) 1.01964(12)
C5A C 0.0498(2) 0.80004(14) 1.11972(12)
C6A C 0.0548(2) 0.67241(15) 1.13596(13)
C7A C 0.0047(2) 0.61273(15) 1.22410(14)
C8A C -0.0611(3) 0.67248(17) 1.32505(14)
C9A C 0.2295(2) 0.75590(14) 0.93724(13)
C10A C -0.2224(2) 0.80163(16) 1.04772(14)
C11A C 0.3069(2) 0.89920(15) 1.04549(14)
C12A C 0.0084(3) 0.48398(17) 1.22548(16)
H1A H -0.3144 0.8533 1.0215
H2A H -0.1494 0.7538 0.991
H3A H -0.2715 0.7511 1.1037
H4A H 0.3712 0.9308 0.9817
H5A H 0.2591 0.9615 1.0955
H6A H 0.3832 0.838 1.0758
H7A H 0.0628 0.4535 1.1563
H8A H 0.0734 0.4456 1.2767
H9A H -0.1084 0.4688 1.2444
H15A H -0.2104 1.0527 1.2661
H26A H -0.0235 0.9172 0.9304
H27A H 0.4136 0.6445 0.8996
H28A H 0.071 0.8327 1.1831
H29A H 0.0996 0.6271 1.0755
H30A H -0.1159 0.64 1.4612
O1A O -0.14380(16) 1.01386(11) 1.21745(10)
O2A O -0.37799(16) 0.94551(13) 1.21100(11)
O3A O 0.14947(17) 0.73273(11) 0.87663(10)
O4A O 0.38420(16) 0.69789(12) 0.94310(10)
O5A O -0.0977(2) 0.77754(13) 1.33381(12)
O6A O -0.0840(2) 0.60126(12) 1.40657(11)
C13 C 0.2153(2) 0.75568(17) 0.62478(14)
C14 C 0.2492(2) 0.68315(16) 0.54112(14)
C15 C 0.3790(2) 0.69835(15) 0.45613(13)
C16 C 0.4705(2) 0.78608(16) 0.46085(14)
C17 C 0.4264(2) 0.85460(16) 0.54799(15)
C18 C 0.4200(2) 0.62065(15) 0.36545(13)
C19 C 0.4004(2) 0.50543(16) 0.37854(15)
C20 C 0.4451(3) 0.43464(16) 0.29358(15)
C21 C 0.5165(3) 0.58383(17) 0.18338(15)
C22 C 0.4794(3) 0.66023(17) 0.26442(15)
H10 H 0.1268 0.7442 0.6824
H11 H 0.1847 0.6236 0.5416
H12 H 0.5616 0.7987 0.4053
H13 H 0.4892 0.9144 0.5503
H14 H 0.3564 0.4754 0.4456
H16 H 0.4342 0.3552 0.3046
H17 H 0.5536 0.6125 0.1147
H18 H 0.4941 0.7387 0.2515
N1 N 0.3011(2) 0.84138(14) 0.62856(12)
N2 N 0.5028(2) 0.47146(13) 0.19670(12)
C23 C 0.8296(2) 0.82251(17) 0.57580(15)
C24 C 0.7540(3) 0.84181(19) 0.76313(16)
C25 C 0.8157(3) 1.01091(19) 0.64852(19)
H19 H 0.8589 0.858 0.509
H20 H 0.7505 0.7589 0.7603
H21 H 0.6416 0.8834 0.7973
H22 H 0.8391 0.8514 0.8027
H23 H 0.8405 1.0342 0.5747
H24 H 0.9088 1.0221 0.6809
H25 H 0.7088 1.0585 0.6836
N3 N 0.7996(2) 0.88882(14) 0.65804(12)
O7 O 0.82214(18) 0.71752(12) 0.57972(10)
loop_
_geom_bond_atom_site_label_1
_geom_bond_atom_site_label_2
_geom_bond_site_symmetry_1
_geom_bond_site_symmetry_2
C1 C2 1_555 1_555
C2 C3 1_555 1_555
C3 C4 1_555 1_555
C4 C5 1_555 1_555
C5 C2 1_555 1_555
C6 C5 1_555 1_555
C7 C6 1_555 1_555
C8 C7 1_555 1_555
C9 C4 1_555 1_555
C10 C2 1_555 1_555
C11 C4 1_555 1_555
C12 C7 1_555 1_555
C13 C14 1_555 1_555
C14 C15 1_555 1_555
C15 C16 1_555 1_555
C16 C17 1_555 1_555
C17 H13 1_555 1_555
C18 C15 1_555 1_555
C19 C18 1_555 1_555
C20 C19 1_555 1_555
C21 C22 1_555 1_555
C22 C18 1_555 1_555
C23 H19 1_555 1_555
C24 H20 1_555 1_555
C25 H23 1_555 1_555
H1 C10 1_555 1_555
H2 C10 1_555 1_555
H3 C10 1_555 1_555
H4 C11 1_555 1_555
H5 C11 1_555 1_555
H6 C11 1_555 1_555
H7 C12 1_555 1_555
H8 C12 1_555 1_555
H9 C12 1_555 1_555
H10 C13 1_555 1_555
H11 C14 1_555 1_555
H12 C16 1_555 1_555
H14 C19 1_555 1_555
H15 O1 1_555 1_555
H16 C20 1_555 1_555
H17 C21 1_555 1_555
H18 C22 1_555 1_555
H21 C24 1_555 1_555
H22 C24 1_555 1_555
H24 C25 1_555 1_555
H25 C25 1_555 1_555
H26 C3 1_555 1_555
H27 O4 1_555 1_555
H28 C5 1_555 1_555
H29 C6 1_555 1_555
H30 O6 1_555 1_555
N1 C13 1_555 1_555
N2 C20 1_555 1_555
N3 C23 1_555 1_555
O1 C1 1_555 1_555
O2 C1 1_555 1_555
O3 C9 1_555 1_555
O4 C9 1_555 1_555
O5 C8 1_555 1_555
O6 C8 1_555 1_555
O7 C23 1_555 1_555
C1A C2A 1_555 1_555
C2A C3A 1_555 1_555
C3A C3 1_555 1_555
C4A C3A 1_555 1_555
C5A C2A 1_555 1_555
C6A C5A 1_555 1_555
C7A C6A 1_555 1_555
C8A C7A 1_555 1_555
C9A C4A 1_555 1_555
C10A C2A 1_555 1_555
C11A C4A 1_555 1_555
C12A C7A 1_555 1_555
H1A C10A 1_555 1_555
H2A C10A 1_555 1_555
H3A C10A 1_555 1_555
H4A C11A 1_555 1_555
H5A C11A 1_555 1_555
H6A C11A 1_555 1_555
H7A C12A 1_555 1_555
H8A C12A 1_555 1_555
H9A C12A 1_555 1_555
H15A O1A 1_555 1_555
H26A C3A 1_555 1_555
H27A O4A 1_555 1_555
H28A C5A 1_555 1_555
H29A C6A 1_555 1_555
H30A O6A 1_555 1_555
O1A C1A 1_555 1_555
O2A C1A 1_555 1_555
O3A C9A 1_555 1_555
O4A C9A 1_555 1_555
O5A C8A 1_555 1_555
O6A C8A 1_555 1_555
C17 N1 1_555 1_555
C21 N2 1_555 1_555
C24 N3 1_555 1_555
C25 N3 1_555 1_555
C4A C5A 1_555 1_555

#END
