
#######################################################################
#
#                 Cambridge Crystallographic Data Centre
#                                CCDC 
#
#######################################################################
#
# If this CIF has been generated from an entry in the Cambridge 
# Structural Database, then it will include bibliographic, chemical, 
# crystal, experimental, refinement or atomic coordinate data resulting 
# from the CCDC's data processing and validation procedures.
#
#######################################################################

data_EHELOT
_chemical_formula_moiety         'C16 H18 N6 O2'
_chemical_name_systematic        
3,5,13,15,21,22-Hexa-azatricyclo[15.3.1.1^7,11^]docosa-1(21),7(22),8,10,17,19-hexaene-4,14-dione
_symmetry_cell_setting           monoclinic
_symmetry_space_group_name_H-M   'P 21/c'
_symmetry_Int_Tables_number      14
_space_group_name_Hall           '-P 2ybc'
loop_
_symmetry_equiv_pos_site_id
_symmetry_equiv_pos_as_xyz
1 x,y,z
2 -x,1/2+y,1/2-z
3 -x,-y,-z
4 x,1/2-y,1/2+z
_cell_length_a                   9.5207(5)
_cell_length_b                   4.6948(3)
_cell_length_c                   16.3045(9)
_cell_angle_alpha                90
_cell_angle_beta                 90.2010(10)
_cell_angle_gamma                90
_cell_volume                     728.771
_exptl_crystal_colour            colorless
_exptl_crystal_description       block
_cell_formula_units_Z            2
loop_
_atom_site_label
_atom_site_type_symbol
_atom_site_fract_x
_atom_site_fract_y
_atom_site_fract_z
C1 C 0.37600(14) 0.7876(3) 0.40923(8)
C2 C 0.16253(14) 0.6850(3) 0.48732(8)
H1 H 0.1583 0.5210 0.4492
H2 H 0.0714 0.7861 0.4841
C3 C 0.18345(14) 0.5754(3) 0.57381(8)
C4 C 0.10596(15) 0.6794(3) 0.63882(9)
H3 H 0.0345 0.8173 0.6299
C5 C 0.13423(15) 0.5791(3) 0.71734(9)
H4 H 0.0825 0.6476 0.7630
C6 C 0.23854(14) 0.3788(3) 0.72793(8)
H5 H 0.2599 0.3071 0.7810
C7 C 0.31230(14) 0.2831(3) 0.65935(8)
C8 C 0.42455(14) 0.0598(3) 0.67133(8)
H6 H 0.4805 0.1110 0.7204
H7 H 0.3781 -0.1246 0.6827
N1 N 0.48034(12) 0.9791(2) 0.39683(7)
H8 H 0.4627(16) 1.153(4) 0.4082(9)
N2 N 0.27305(12) 0.8758(2) 0.46122(7)
H9 H 0.2906(16) 1.024(3) 0.4913(9)
N3 N 0.28442(12) 0.3764(2) 0.58336(7)
O1 O 0.37363(10) 0.55342(19) 0.37437(6)
C1B C 0.62400(14) 0.2124(3) 0.59077(8)
C2B C 0.83747(14) 0.3150(3) 0.51268(8)
H1B H 0.8417 0.4790 0.5508
H2B H 0.9286 0.2139 0.5159
C3B C 0.81655(14) 0.4246(3) 0.42619(8)
C4B C 0.89404(15) 0.3206(3) 0.36118(9)
H3B H 0.9655 0.1827 0.3701
C5B C 0.86577(15) 0.4209(3) 0.28266(9)
H4B H 0.9175 0.3524 0.2370
C6B C 0.76146(14) 0.6212(3) 0.27207(8)
H5B H 0.7401 0.6929 0.2190
C7B C 0.68770(14) 0.7169(3) 0.34065(8)
C8B C 0.57545(14) 0.9402(3) 0.32867(8)
H6B H 0.5195 0.8890 0.2796
H7B H 0.6219 1.1246 0.3173
N1B N 0.51966(12) 0.0209(2) 0.60317(7)
H8B H 0.5373(16) -0.153(4) 0.5918(9)
N2B N 0.72695(12) 0.1242(2) 0.53878(7)
H9B H 0.7094(16) -0.024(3) 0.5087(9)
N3B N 0.71558(12) 0.6236(2) 0.41664(7)
O1B O 0.62637(10) 0.44658(19) 0.62563(6)
loop_
_geom_bond_atom_site_label_1
_geom_bond_atom_site_label_2
_geom_bond_site_symmetry_1
_geom_bond_site_symmetry_2
C1 N1 1_555 1_555
C2 H1 1_555 1_555
H2 C2 1_555 1_555
C3 C2 1_555 1_555
C4 C3 1_555 1_555
H3 C4 1_555 1_555
C5 C4 1_555 1_555
H4 C5 1_555 1_555
C6 C5 1_555 1_555
H5 C6 1_555 1_555
C7 C6 1_555 1_555
C8 C7 1_555 1_555
H6 C8 1_555 1_555
H7 C8 1_555 1_555
N1 H8 1_555 1_555
N2 C1 1_555 1_555
H9 N2 1_555 1_555
N3 C3 1_555 1_555
O1 C1 1_555 1_555
C1B N1B 1_555 1_555
C2B H1B 1_555 1_555
H2B C2B 1_555 1_555
C3B C2B 1_555 1_555
C4B C3B 1_555 1_555
H3B C4B 1_555 1_555
C5B C4B 1_555 1_555
H4B C5B 1_555 1_555
C6B C5B 1_555 1_555
H5B C6B 1_555 1_555
C7B C6B 1_555 1_555
C8B N1 1_555 1_555
H6B C8B 1_555 1_555
H7B C8B 1_555 1_555
N1B C8 1_555 1_555
H8B N1B 1_555 1_555
N2B C1B 1_555 1_555
H9B N2B 1_555 1_555
N3B C3B 1_555 1_555
O1B C1B 1_555 1_555
C2 N2 1_555 1_555
C7 N3 1_555 1_555
C2B N2B 1_555 1_555
C7B C8B 1_555 1_555
C7B N3B 1_555 1_555

#END
