
#######################################################################
#
#                 Cambridge Crystallographic Data Centre
#                                CCDC 
#
#######################################################################
#
# If this CIF has been generated from an entry in the Cambridge 
# Structural Database, then it will include bibliographic, chemical, 
# crystal, experimental, refinement or atomic coordinate data resulting 
# from the CCDC's data processing and validation procedures.
#
#######################################################################

data_EHEMIO
_chemical_formula_moiety         'C28 H36'
_chemical_name_systematic        
2-Isopropyl-1-(2,4,6-tri-isopropylphenyl)naphthalene
_symmetry_cell_setting           monoclinic
_symmetry_space_group_name_H-M   'P 21/n'
_symmetry_Int_Tables_number      14
_space_group_name_Hall           '-P 2yn'
loop_
_symmetry_equiv_pos_site_id
_symmetry_equiv_pos_as_xyz
1 x,y,z
2 1/2-x,1/2+y,1/2-z
3 -x,-y,-z
4 1/2+x,1/2-y,1/2+z
_cell_length_a                   16.297(4)
_cell_length_b                   9.649(2)
_cell_length_c                   29.806(7)
_cell_angle_alpha                90
_cell_angle_beta                 95.118(4)
_cell_angle_gamma                90
_cell_volume                     4668.3
_exptl_crystal_colour            colorless
_exptl_crystal_description       plate
_cell_formula_units_Z            8
loop_
_atom_site_label
_atom_site_type_symbol
_atom_site_fract_x
_atom_site_fract_y
_atom_site_fract_z
C1 C -0.10869(19) 0.0354(3) 0.80378(10)
C2 C -0.0752(2) -0.0653(3) 0.83299(10)
C3 C -0.1290(2) -0.1553(3) 0.85446(11)
H1 H -0.1060 -0.2236 0.8748
C4 C -0.2121(2) -0.1460(3) 0.84666(12)
H2 H -0.2461 -0.2075 0.8616
C5 C -0.2488(2) -0.0457(3) 0.81648(11)
C6 C -0.1958(2) 0.0474(3) 0.79524(10)
C7 C -0.2342(2) 0.1496(3) 0.76587(11)
H3 H -0.2007 0.2140 0.7517
C8 C -0.3180(2) 0.1574(4) 0.75761(12)
H4 H -0.3418 0.2268 0.7379
C9 C -0.3693(2) 0.0632(4) 0.77803(13)
H5 H -0.4274 0.0683 0.7717
C10 C -0.3353(2) -0.0353(4) 0.80686(13)
H6 H -0.3702 -0.0980 0.8207
C11 C 0.0169(2) -0.0853(3) 0.84319(11)
H7 H 0.0451 -0.0094 0.8277
C12 C 0.0450(3) -0.2228(4) 0.82435(15)
H8 H 0.0275 -0.2278 0.7921
H9 H 0.0203 -0.2996 0.8400
H10 H 0.1051 -0.2293 0.8289
C13 C 0.0435(2) -0.0744(5) 0.89359(13)
H11 H 0.0252 0.0145 0.9050
H12 H 0.1037 -0.0804 0.8984
H13 H 0.0188 -0.1503 0.9096
C14 C -0.05330(19) 0.1328(3) 0.78086(10)
C15 C -0.0272(2) 0.1008(3) 0.73826(10)
C16 C 0.0288(2) 0.1894(3) 0.71982(11)
H14 H 0.0456 0.1683 0.6909
C17 C 0.0610(2) 0.3067(3) 0.74193(11)
C18 C 0.0320(2) 0.3394(3) 0.78302(11)
H15 H 0.0515 0.4211 0.7982
C19 C -0.02480(19) 0.2563(3) 0.80265(10)
C20 C -0.0593(2) -0.0259(3) 0.71169(12)
H16 H -0.0866 -0.0875 0.7329
C21 C -0.1245(3) 0.0158(5) 0.67399(15)
H17 H -0.1445 -0.0671 0.6574
H18 H -0.1002 0.0798 0.6533
H19 H -0.1706 0.0613 0.6870
C22 C 0.0086(3) -0.1098(4) 0.69244(15)
H20 H 0.0505 -0.1347 0.7167
H21 H 0.0339 -0.0544 0.6698
H22 H -0.0150 -0.1944 0.6784
C23 C 0.1277(2) 0.3905(3) 0.72141(12)
H23 H 0.1165 0.3844 0.6879
C24 C 0.1286(3) 0.5420(4) 0.73367(15)
H24 H 0.1729 0.5888 0.7194
H25 H 0.1378 0.5518 0.7665
H26 H 0.0756 0.5839 0.7231
C25 C 0.2112(3) 0.3249(6) 0.7337(2)
H27 H 0.2538 0.3789 0.7203
H28 H 0.2112 0.2298 0.7221
H29 H 0.2227 0.3236 0.7665
C26 C -0.0566(2) 0.3015(3) 0.84698(11)
H30 H -0.0824 0.2187 0.8602
C27 C 0.0110(2) 0.3538(4) 0.88156(12)
H31 H 0.0537 0.2827 0.8867
H32 H -0.0126 0.3740 0.9099
H33 H 0.0353 0.4384 0.8703
C28 C -0.1235(2) 0.4124(4) 0.83896(12)
H34 H -0.1667 0.3787 0.8166
H35 H -0.0993 0.4972 0.8278
H36 H -0.1474 0.4321 0.8673
C29 C 0.72366(19) -0.1597(3) -0.00875(10)
C30 C 0.6573(2) -0.2352(3) -0.02791(11)
C31 C 0.6724(2) -0.3618(3) -0.05003(11)
H37 H 0.6269 -0.4136 -0.0632
C32 C 0.7490(2) -0.4110(3) -0.05302(11)
H38 H 0.7563 -0.4957 -0.0684
C33 C 0.8187(2) -0.3387(3) -0.03371(10)
C34 C 0.80603(19) -0.2104(3) -0.01126(10)
C35 C 0.8766(2) -0.1385(3) 0.00768(11)
H39 H 0.8698 -0.0531 0.0227
C36 C 0.9543(2) -0.1893(4) 0.00481(12)
H40 H 1.0006 -0.1385 0.0175
C37 C 0.9658(2) -0.3164(4) -0.01690(12)
H41 H 1.0198 -0.3519 -0.0186
C38 C 0.8998(2) -0.3881(4) -0.03542(12)
H42 H 0.9084 -0.4739 -0.0499
C39 C 0.5686(2) -0.1864(4) -0.02705(13)
H43 H 0.5689 -0.0985 -0.0093
C40 C 0.5169(2) -0.2931(4) -0.00412(15)
H44 H 0.5423 -0.3117 0.0263
H45 H 0.5142 -0.3792 -0.0216
H46 H 0.4611 -0.2568 -0.0024
C41 C 0.5302(2) -0.1555(4) -0.07506(16)
H47 H 0.5641 -0.0871 -0.0892
H48 H 0.4744 -0.1186 -0.0737
H49 H 0.5276 -0.2411 -0.0928
C42 C 0.71436(18) -0.0226(3) 0.01464(11)
C43 C 0.71810(19) 0.1020(3) -0.01041(11)
C44 C 0.71971(15) 0.2274(2) 0.01296(9)
H50 H 0.7225 0.3112 -0.0036
C45 C 0.71092(15) 0.1123(2) 0.08284(9)
H51 H 0.7076 0.1159 0.1145
C46 C 0.70924(19) -0.0166(3) 0.06132(11)
C47 C 0.7222(2) 0.1014(3) -0.06116(11)
H52 H 0.7133 0.0038 -0.0718
C48 C 0.8076(2) 0.1464(4) -0.07333(13)
H53 H 0.8498 0.0879 -0.0573
H54 H 0.8171 0.2434 -0.0646
H55 H 0.8105 0.1368 -0.1059
C49 C 0.6547(3) 0.1909(4) -0.08572(13)
H56 H 0.6007 0.1606 -0.0774
H57 H 0.6567 0.1811 -0.1183
H58 H 0.6635 0.2882 -0.0772
C50 C 0.7174(2) 0.2351(3) 0.05919(13)
C51 C 0.7235(3) 0.3753(4) 0.08293(18)
H59 H 0.7342 0.3437 0.1149
C52 C 0.6517(5) 0.4477(10) 0.0860(5)
H60 H 0.6639 0.5351 0.1020
H61 H 0.6139 0.3924 0.1025
H62 H 0.6261 0.4673 0.0556
C53 C 0.8022(3) 0.4483(4) 0.07752(15)
H63 H 0.8026 0.5373 0.0934
H64 H 0.8074 0.4646 0.0454
H65 H 0.8484 0.3914 0.0901
C54 C 0.7019(2) -0.1463(3) 0.08969(11)
H66 H 0.7058 -0.2281 0.0694
C55 C 0.7715(3) -0.1591(4) 0.12777(14)
H67 H 0.8249 -0.1542 0.1151
H68 H 0.7667 -0.2479 0.1432
H69 H 0.7673 -0.0831 0.1493
C56 C 0.6181(2) -0.1537(4) 0.10946(14)
H70 H 0.5738 -0.1449 0.0851
H71 H 0.6140 -0.0780 0.1311
H72 H 0.6131 -0.2427 0.1248
C57? C 0.7174(2) 0.2351(3) 0.05919(13)
C58? C 0.7235(3) 0.3753(4) 0.08293(18)
C59? C 0.6799(8) 0.3965(10) 0.1198(4)
H73? H 0.6874 0.4294 0.0604
H74? H 0.6901 0.4906 0.1314
H75? H 0.6975 0.3292 0.1434
H76? H 0.6209 0.3848 0.1110
loop_
_geom_bond_atom_site_label_1
_geom_bond_atom_site_label_2
_geom_bond_site_symmetry_1
_geom_bond_site_symmetry_2
C1 C2 1_555 1_555
C2 C3 1_555 1_555
C3 H1 1_555 1_555
C4 C3 1_555 1_555
H2 C4 1_555 1_555
C5 C4 1_555 1_555
C6 C1 1_555 1_555
C7 C6 1_555 1_555
H3 C7 1_555 1_555
C8 C7 1_555 1_555
H4 C8 1_555 1_555
C9 C8 1_555 1_555
H5 C9 1_555 1_555
C10 C5 1_555 1_555
H6 C10 1_555 1_555
C11 C2 1_555 1_555
H7 C11 1_555 1_555
C12 C11 1_555 1_555
H8 C12 1_555 1_555
H9 C12 1_555 1_555
H10 C12 1_555 1_555
C13 C11 1_555 1_555
H11 C13 1_555 1_555
H12 C13 1_555 1_555
H13 C13 1_555 1_555
C14 C1 1_555 1_555
C15 C14 1_555 1_555
C16 C15 1_555 1_555
H14 C16 1_555 1_555
C17 C16 1_555 1_555
C18 C17 1_555 1_555
H15 C18 1_555 1_555
C19 C14 1_555 1_555
C20 C15 1_555 1_555
H16 C20 1_555 1_555
C21 C20 1_555 1_555
H17 C21 1_555 1_555
H18 C21 1_555 1_555
H19 C21 1_555 1_555
C22 C20 1_555 1_555
H20 C22 1_555 1_555
H21 C22 1_555 1_555
H22 C22 1_555 1_555
C23 C17 1_555 1_555
H23 C23 1_555 1_555
C24 C23 1_555 1_555
H24 C24 1_555 1_555
H25 C24 1_555 1_555
H26 C24 1_555 1_555
C25 C23 1_555 1_555
H27 C25 1_555 1_555
H28 C25 1_555 1_555
H29 C25 1_555 1_555
C26 C19 1_555 1_555
H30 C26 1_555 1_555
C27 C26 1_555 1_555
H31 C27 1_555 1_555
H32 C27 1_555 1_555
H33 C27 1_555 1_555
C28 C26 1_555 1_555
H34 C28 1_555 1_555
H35 C28 1_555 1_555
H36 C28 1_555 1_555
C29 C30 1_555 1_555
C30 C31 1_555 1_555
C31 H37 1_555 1_555
C32 C31 1_555 1_555
H38 C32 1_555 1_555
C33 C32 1_555 1_555
C34 C29 1_555 1_555
C35 C34 1_555 1_555
H39 C35 1_555 1_555
C36 C35 1_555 1_555
H40 C36 1_555 1_555
C37 C36 1_555 1_555
H41 C37 1_555 1_555
C38 C33 1_555 1_555
H42 C38 1_555 1_555
C39 C30 1_555 1_555
H43 C39 1_555 1_555
C40 C39 1_555 1_555
H44 C40 1_555 1_555
H45 C40 1_555 1_555
H46 C40 1_555 1_555
C41 C39 1_555 1_555
H47 C41 1_555 1_555
H48 C41 1_555 1_555
H49 C41 1_555 1_555
C42 C29 1_555 1_555
C43 C42 1_555 1_555
C44 C43 1_555 1_555
H50 C44 1_555 1_555
C45 H51 1_555 1_555
C46 C42 1_555 1_555
C47 C43 1_555 1_555
H52 C47 1_555 1_555
C48 C47 1_555 1_555
H53 C48 1_555 1_555
H54 C48 1_555 1_555
H55 C48 1_555 1_555
C49 C47 1_555 1_555
H56 C49 1_555 1_555
H57 C49 1_555 1_555
H58 C49 1_555 1_555
C50 C44 1_555 1_555
C51 C50 1_555 1_555
H59 C51 1_555 1_555
C52 C51 1_555 1_555
H60 C52 1_555 1_555
H61 C52 1_555 1_555
H62 C52 1_555 1_555
C53 C51 1_555 1_555
H63 C53 1_555 1_555
H64 C53 1_555 1_555
H65 C53 1_555 1_555
C54 C46 1_555 1_555
H66 C54 1_555 1_555
C55 C54 1_555 1_555
H67 C55 1_555 1_555
H68 C55 1_555 1_555
H69 C55 1_555 1_555
C56 C54 1_555 1_555
H70 C56 1_555 1_555
H71 C56 1_555 1_555
H72 C56 1_555 1_555
C5 C6 1_555 1_555
C9 C10 1_555 1_555
C18 C19 1_555 1_555
C33 C34 1_555 1_555
C37 C38 1_555 1_555
C45 C46 1_555 1_555
C45 C50 1_555 1_555

#END
