
#######################################################################
#
#                 Cambridge Crystallographic Data Centre
#                                CCDC 
#
#######################################################################
#
# If this CIF has been generated from an entry in the Cambridge 
# Structural Database, then it will include bibliographic, chemical, 
# crystal, experimental, refinement or atomic coordinate data resulting 
# from the CCDC's data processing and validation procedures.
#
#######################################################################

data_EHESAM
_chemical_formula_moiety         'C28 H22 B1 F10 1-,C12 H28 P1 1+,C5 H12'
_chemical_name_systematic        
'tri-t-butylphosphonium bis(perfluorophenyl)-((1R,2S,3S,4S)-4,7,7-trimethyl-3-phenylbicyclo[2.2.1]heptan-2-yl)hydroborate n-pentane solvate'
_symmetry_cell_setting           orthorhombic
_symmetry_space_group_name_H-M   'P 21 21 21'
_symmetry_Int_Tables_number      19
_space_group_name_Hall           'P 2ac 2ab'
loop_
_symmetry_equiv_pos_site_id
_symmetry_equiv_pos_as_xyz
1 x,y,z
2 1/2-x,-y,1/2+z
3 -x,1/2+y,1/2-z
4 1/2+x,1/2-y,-z
_cell_length_a                   11.9847(10)
_cell_length_b                   12.9455(11)
_cell_length_c                   27.997(2)
_cell_angle_alpha                90
_cell_angle_beta                 90
_cell_angle_gamma                90
_cell_volume                     4343.68
_exptl_crystal_colour            colorless
_exptl_crystal_description       plate
_cell_formula_units_Z            4
loop_
_atom_site_label
_atom_site_type_symbol
_atom_site_fract_x
_atom_site_fract_y
_atom_site_fract_z
B1 B 0.1430(4) 0.7507(3) 0.82933(15)
H1 H 0.0527 0.7679 0.8306
C1 C 0.1852(3) 0.7702(3) 0.77418(13)
C2 C 0.2841(4) 0.8148(3) 0.75883(14)
C3 C 0.3098(4) 0.8352(3) 0.71147(15)
C4 C 0.2350(4) 0.8107(3) 0.67627(14)
C5 C 0.1347(4) 0.7635(4) 0.68906(14)
C6 C 0.1150(3) 0.7452(3) 0.73663(15)
C7 C 0.1585(3) 0.6274(3) 0.84256(13)
C8 C 0.2609(4) 0.5787(3) 0.84313(13)
C9 C 0.2804(4) 0.4824(3) 0.86191(15)
C10 C 0.1939(4) 0.4283(3) 0.88114(16)
C11 C 0.0893(4) 0.4708(3) 0.88068(17)
C12 C 0.0740(4) 0.5672(3) 0.86130(16)
C13 C 0.2025(3) 0.8165(3) 0.87171(13)
H2 H 0.2814 0.7923 0.8747
C14 C 0.2032(4) 0.9367(3) 0.86945(14)
H3 H 0.2533 0.9654 0.8442
C15 C 0.2355(4) 0.9694(3) 0.92071(14)
C16 C 0.3502(4) 0.9322(3) 0.93730(15)
H4 H 0.3637 0.9560 0.9700
H5 H 0.4078 0.9602 0.9161
H6 H 0.3526 0.8566 0.9364
C17 C 0.1370(4) 0.9108(3) 0.94379(14)
C18 C 0.0363(4) 0.9612(3) 0.91779(15)
H7 H -0.0299 0.9154 0.9184
H8 H 0.0165 1.0285 0.9323
C19 C 0.0814(4) 0.9752(3) 0.86606(15)
H9 H 0.0380 0.9333 0.8430
H10 H 0.0786 1.0486 0.8562
C20 C 0.2343(4) 1.0874(3) 0.92795(16)
H11 H 0.1623 1.1152 0.9175
H12 H 0.2943 1.1188 0.9092
H13 H 0.2454 1.1032 0.9618
C21 C 0.1297(4) 0.9146(3) 0.99812(14)
H14 H 0.1955 0.8811 1.0120
H15 H 0.0622 0.8784 1.0087
H16 H 0.1266 0.9867 1.0087
C22 C 0.1426(3) 0.7987(3) 0.92105(14)
H17 H 0.0636 0.7815 0.9126
C23 C 0.1821(3) 0.7087(3) 0.95182(13)
C24 C 0.1023(4) 0.6602(3) 0.98088(15)
H18 H 0.0287 0.6873 0.9821
C25 C 0.1285(4) 0.5731(3) 1.00810(15)
H19 H 0.0732 0.5416 1.0276
C26 C 0.2352(4) 0.5331(3) 1.00658(14)
H20 H 0.2538 0.4736 1.0248
C27 C 0.3148(4) 0.5803(3) 0.97826(15)
H21 H 0.3883 0.5530 0.9771
C28 C 0.2881(3) 0.6672(3) 0.95156(14)
H22 H 0.3442 0.6989 0.9326
F1 F 0.3638(2) 0.8434(2) 0.79068(8)
F2 F 0.4068(2) 0.8817(2) 0.69986(9)
F3 F 0.2548(3) 0.8347(2) 0.63041(9)
F4 F 0.0622(2) 0.7361(2) 0.65529(9)
F5 F 0.0167(2) 0.6971(2) 0.74591(9)
F6 F 0.3521(2) 0.62988(19) 0.82565(9)
F7 F 0.3848(2) 0.4414(2) 0.86184(10)
F8 F 0.2108(3) 0.3334(2) 0.89988(10)
F9 F 0.0022(3) 0.4176(2) 0.89976(12)
F10 F -0.0324(2) 0.6036(2) 0.86317(11)
C29 C 0.7118(4) 0.6844(3) 0.75382(15)
C30 C 0.5842(4) 0.6712(4) 0.75208(17)
H23 H 0.5578 0.6438 0.7827
H24 H 0.5645 0.6231 0.7264
H25 H 0.5491 0.7384 0.7460
C31 C 0.7701(4) 0.5799(3) 0.76045(16)
H26 H 0.7484 0.5500 0.7913
H27 H 0.8511 0.5897 0.7597
H28 H 0.7479 0.5330 0.7346
C32 C 0.7502(4) 0.7279(3) 0.70538(13)
H29 H 0.7151 0.7952 0.7000
H30 H 0.7285 0.6802 0.6798
H31 H 0.8315 0.7359 0.7055
C33 C 0.7529(4) 0.9099(3) 0.79084(14)
C34 C 0.7723(4) 0.9752(3) 0.83613(16)
H32 H 0.8430 0.9549 0.8510
H33 H 0.7110 0.9637 0.8587
H34 H 0.7753 1.0485 0.8275
C35 C 0.6414(4) 0.9429(4) 0.76798(17)
H35 H 0.6278 0.9016 0.7392
H36 H 0.6448 1.0162 0.7594
H37 H 0.5805 0.9318 0.7908
C36 C 0.8516(4) 0.9326(3) 0.75711(16)
H38 H 0.9214 0.9113 0.7724
H39 H 0.8544 1.0068 0.7502
H40 H 0.8418 0.8942 0.7272
C37 C 0.6914(3) 0.7326(3) 0.86316(14)
C38 C 0.6799(4) 0.6144(3) 0.86880(16)
H41 H 0.7532 0.5819 0.8647
H42 H 0.6283 0.5878 0.8446
H43 H 0.6511 0.5984 0.9007
C39 C 0.7720(4) 0.7689(3) 0.90272(13)
H44 H 0.8454 0.7372 0.8978
H45 H 0.7426 0.7482 0.9340
H46 H 0.7792 0.8442 0.9015
C40 C 0.5768(4) 0.7818(4) 0.86985(16)
H47 H 0.5267 0.7585 0.8443
H48 H 0.5838 0.8571 0.8686
H49 H 0.5461 0.7612 0.9009
P1 P 0.75564(9) 0.76858(8) 0.80468(3)
H62 H 0.8487 0.7502 0.8096
C41 C -0.0560(4) 0.8442(3) 0.38413(16)
H50 H -0.0419 0.8286 0.3504
H51 H -0.0181 0.9086 0.3928
H52 H -0.1365 0.8519 0.3893
C42 C -0.0124(6) 0.7573(5) 0.41476(17)
H53 H 0.0660 0.7432 0.4057
H54 H -0.0563 0.6942 0.4079
C43 C -0.0170(6) 0.7787(5) 0.46876(19)
H55 H 0.0037 0.8512 0.4758
H56 H -0.0925 0.7651 0.4816
C44 C 0.0688(7) 0.7032(6) 0.4899(2)
H57 H 0.0383 0.6321 0.4887
H58 H 0.1376 0.7048 0.4704
C45 C 0.0969(8) 0.7307(7) 0.5410(3)
H59 H 0.1594 0.6879 0.5520
H60 H 0.0318 0.7182 0.5614
H61 H 0.1179 0.8037 0.5429
loop_
_geom_bond_atom_site_label_1
_geom_bond_atom_site_label_2
_geom_bond_site_symmetry_1
_geom_bond_site_symmetry_2
B1 H1 1_555 1_555
C1 B1 1_555 1_555
C2 C1 1_555 1_555
C3 C2 1_555 1_555
C4 C3 1_555 1_555
C5 C4 1_555 1_555
C6 C1 1_555 1_555
C7 B1 1_555 1_555
C8 C7 1_555 1_555
C9 C8 1_555 1_555
C10 C9 1_555 1_555
C11 C10 1_555 1_555
C12 C7 1_555 1_555
C13 B1 1_555 1_555
H2 C13 1_555 1_555
C14 C13 1_555 1_555
H3 C14 1_555 1_555
C15 C14 1_555 1_555
C16 C15 1_555 1_555
H4 C16 1_555 1_555
H5 C16 1_555 1_555
H6 C16 1_555 1_555
C17 C15 1_555 1_555
C18 C17 1_555 1_555
H7 C18 1_555 1_555
H8 C18 1_555 1_555
C19 C14 1_555 1_555
H9 C19 1_555 1_555
H10 C19 1_555 1_555
C20 C15 1_555 1_555
H11 C20 1_555 1_555
H12 C20 1_555 1_555
H13 C20 1_555 1_555
C21 C17 1_555 1_555
H14 C21 1_555 1_555
H15 C21 1_555 1_555
H16 C21 1_555 1_555
C22 C13 1_555 1_555
H17 C22 1_555 1_555
C23 C22 1_555 1_555
C24 C23 1_555 1_555
H18 C24 1_555 1_555
C25 C24 1_555 1_555
H19 C25 1_555 1_555
C26 C25 1_555 1_555
H20 C26 1_555 1_555
C27 C26 1_555 1_555
H21 C27 1_555 1_555
C28 C23 1_555 1_555
H22 C28 1_555 1_555
C29 C30 1_555 1_555
C30 H23 1_555 1_555
H24 C30 1_555 1_555
H25 C30 1_555 1_555
C31 C29 1_555 1_555
H26 C31 1_555 1_555
H27 C31 1_555 1_555
H28 C31 1_555 1_555
C32 C29 1_555 1_555
H29 C32 1_555 1_555
H30 C32 1_555 1_555
H31 C32 1_555 1_555
C33 C34 1_555 1_555
C34 H32 1_555 1_555
H33 C34 1_555 1_555
H34 C34 1_555 1_555
C35 C33 1_555 1_555
H35 C35 1_555 1_555
H36 C35 1_555 1_555
H37 C35 1_555 1_555
C36 C33 1_555 1_555
H38 C36 1_555 1_555
H39 C36 1_555 1_555
H40 C36 1_555 1_555
C37 C38 1_555 1_555
C38 H41 1_555 1_555
H42 C38 1_555 1_555
H43 C38 1_555 1_555
C39 C37 1_555 1_555
H44 C39 1_555 1_555
H45 C39 1_555 1_555
H46 C39 1_555 1_555
C40 C37 1_555 1_555
H47 C40 1_555 1_555
H48 C40 1_555 1_555
H49 C40 1_555 1_555
C41 H50 1_555 1_555
H51 C41 1_555 1_555
H52 C41 1_555 1_555
C42 C41 1_555 1_555
H53 C42 1_555 1_555
H54 C42 1_555 1_555
C43 C42 1_555 1_555
H55 C43 1_555 1_555
H56 C43 1_555 1_555
C44 C43 1_555 1_555
H57 C44 1_555 1_555
H58 C44 1_555 1_555
C45 C44 1_555 1_555
H59 C45 1_555 1_555
H60 C45 1_555 1_555
H61 C45 1_555 1_555
F1 C2 1_555 1_555
F2 C3 1_555 1_555
F3 C4 1_555 1_555
F4 C5 1_555 1_555
F5 C6 1_555 1_555
F6 C8 1_555 1_555
F7 C9 1_555 1_555
F8 C10 1_555 1_555
F9 C11 1_555 1_555
F10 C12 1_555 1_555
P1 C29 1_555 1_555
H62 P1 1_555 1_555
C5 C6 1_555 1_555
C11 C12 1_555 1_555
C17 C22 1_555 1_555
C18 C19 1_555 1_555
C27 C28 1_555 1_555
C33 P1 1_555 1_555
C37 P1 1_555 1_555

#END
