
#######################################################################
#
#                 Cambridge Crystallographic Data Centre
#                                CCDC 
#
#######################################################################
#
# If this CIF has been generated from an entry in the Cambridge 
# Structural Database, then it will include bibliographic, chemical, 
# crystal, experimental, refinement or atomic coordinate data resulting 
# from the CCDC's data processing and validation procedures.
#
#######################################################################

data_EHEVOE
_chemical_formula_moiety         'C19 H16 F6 N2 O1'
_chemical_name_systematic        
2,6'-bis(Trifluoromethyl)-9'H-spiro[cycloheptane-1,3'-pyrrolo[2,1-b]quinazolin]-9'-one
_symmetry_cell_setting           monoclinic
_symmetry_space_group_name_H-M   'P 21/n'
_symmetry_Int_Tables_number      14
_space_group_name_Hall           '-P 2yn'
loop_
_symmetry_equiv_pos_site_id
_symmetry_equiv_pos_as_xyz
1 x,y,z
2 1/2-x,1/2+y,1/2-z
3 -x,-y,-z
4 1/2+x,1/2-y,1/2+z
_cell_length_a                   12.645(1)
_cell_length_b                   14.851(1)
_cell_length_c                   20.103(1)
_cell_angle_alpha                90
_cell_angle_beta                 105.161(1)
_cell_angle_gamma                90
_cell_volume                     3643.76
_exptl_crystal_colour            colorless
_exptl_crystal_description       block
_cell_formula_units_Z            8
loop_
_atom_site_label
_atom_site_type_symbol
_atom_site_fract_x
_atom_site_fract_y
_atom_site_fract_z
N1 N 0.2216(3) 0.2148(2) 0.12651(17)
C1 C 0.1193(4) 0.1927(3) 0.1101(2)
C2 C 0.2470(4) 0.2971(3) 0.1004(2)
N2 N 0.0362(3) 0.2422(2) 0.06918(17)
O1 O -0.0236(3) 0.3665(2) 0.00375(16)
C3 C 0.0735(4) 0.1062(3) 0.1304(2)
C4 C 0.1314(4) 0.0844(3) 0.2068(2)
F1 F 0.0978(3) 0.2340(2) 0.23961(14)
C5 C 0.3571(4) 0.3216(3) 0.1136(2)
H1 H 0.4115 0.2830 0.1380
C6 C 0.1664(4) 0.3541(3) 0.0611(2)
C7 C 0.1009(4) 0.0310(3) 0.0838(2)
H2 H 0.0484 -0.0174 0.0812
H3 H 0.0894 0.0553 0.0377
C8 C 0.0526(4) 0.3254(3) 0.0415(2)
C9 C 0.3850(4) 0.4029(3) 0.0905(2)
C10 C -0.0687(4) 0.1951(3) 0.0538(2)
H4 H -0.1315 0.2061 0.0185
C11 C 0.5005(5) 0.4272(4) 0.1045(3)
C12 C 0.1963(4) 0.4372(3) 0.0396(2)
H5 H 0.1427 0.4762 0.0150
F2 F 0.1686(3) 0.1391(2) 0.31938(15)
C13 C 0.0973(6) 0.1457(4) 0.2564(3)
F3 F 0.5210(3) 0.5119(3) 0.1165(2)
C14 C 0.2236(4) -0.0921(3) 0.1523(3)
H6 H 0.1687 -0.1356 0.1298
H7 H 0.2948 -0.1198 0.1575
C15 C 0.2154(4) -0.0100(3) 0.1046(2)
H8 H 0.2671 0.0355 0.1278
H9 H 0.2361 -0.0281 0.0634
C16 C -0.0499(4) 0.1240(3) 0.1096(2)
H10 H -0.1026 0.0967 0.1275
F4 F 0.5656(3) 0.3874(4) 0.1548(3)
C17 C 0.3047(5) 0.4617(3) 0.0545(2)
H11 H 0.3244 0.5175 0.0405
F5 F 0.5427(3) 0.4135(3) 0.0536(2)
C18 C 0.1125(4) -0.0150(3) 0.2268(2)
H12 H 0.1028 -0.0164 0.2731
H13 H 0.0464 -0.0383 0.1955
C19 C 0.2092(4) -0.0738(3) 0.2236(2)
H14 H 0.2755 -0.0455 0.2510
H15 H 0.2017 -0.1311 0.2451
F6 F -0.0011(3) 0.1319(2) 0.26739(16)
N3 N 0.2502(3) 0.3547(2) 0.86182(17)
C20 C 0.2992(4) 0.2821(3) 0.9018(2)
C21 C 0.1455(4) 0.3560(3) 0.8454(2)
N4 N 0.0783(3) 0.2923(3) 0.86351(18)
C22 C 0.0742(4) 0.4290(3) 0.8032(2)
O2 O 0.0582(3) 0.1652(2) 0.92143(18)
C23 C 0.2378(4) 0.2146(3) 0.9237(2)
C24 C 0.1295(4) 0.4632(3) 0.7475(2)
C25 C 0.4131(4) 0.2760(3) 0.9195(2)
H16 H 0.4543 0.3202 0.9052
C26 C 0.1190(5) 0.2190(3) 0.9047(2)
C27 C 0.4650(5) 0.2040(4) 0.9585(2)
C28 C 0.2919(5) 0.1429(3) 0.9630(2)
H17 H 0.2518 0.0981 0.9776
F7 F 0.0184(3) 0.3981(2) 0.64247(15)
C29 C 0.1652(4) 0.5695(3) 0.8744(2)
H18 H 0.1727 0.5899 0.9213
H19 H 0.2311 0.5364 0.8738
C30 C 0.0674(4) 0.5064(3) 0.8537(2)
H20 H 0.0031 0.5423 0.8330
H21 H 0.0559 0.4798 0.8953
F8 F 0.1350(3) 0.3122(2) 0.70855(17)
C31 C -0.0390(4) 0.3826(3) 0.7819(3)
H22 H -0.0962 0.3955 0.7434
F9 F 0.6321(3) 0.2224(3) 1.0397(2)
C32 C -0.0382(4) 0.3115(4) 0.8366(2)
H23 H -0.0972 0.2866 0.8496
C33 C 0.5853(6) 0.2003(5) 0.9745(3)
C34 C 0.0878(5) 0.5573(3) 0.7172(2)
H24 H 0.0852 0.5587 0.6686
H25 H 0.0141 0.5670 0.7217
C35 C 0.4045(5) 0.1381(3) 0.9801(2)
H26 H 0.4400 0.0902 1.0065
F10 F 0.1888(3) 0.4181(3) 0.65245(17)
C36 C 0.1560(5) 0.6508(3) 0.8278(3)
H27 H 0.2144 0.6924 0.8487
H28 H 0.0871 0.6807 0.8259
C37 C 0.1616(5) 0.6317(3) 0.7540(3)
H29 H 0.1431 0.6866 0.7273
H30 H 0.2366 0.6165 0.7550
F11 F 0.6225(4) 0.1152(3) 0.9793(3)
F12 F 0.6329(3) 0.2411(4) 0.9384(3)
C38 C 0.1168(6) 0.3983(5) 0.6891(3)
loop_
_geom_bond_atom_site_label_1
_geom_bond_atom_site_label_2
_geom_bond_site_symmetry_1
_geom_bond_site_symmetry_2
N1 C1 1_555 1_555
C1 N2 1_555 1_555
C2 N1 1_555 1_555
N2 C8 1_555 1_555
O1 C8 1_555 1_555
C3 C1 1_555 1_555
C4 C3 1_555 1_555
F1 C13 1_555 1_555
C5 C2 1_555 1_555
H1 C5 1_555 1_555
C6 C2 1_555 1_555
C7 C3 1_555 1_555
H2 C7 1_555 1_555
H3 C7 1_555 1_555
C8 C6 1_555 1_555
C9 C5 1_555 1_555
C10 N2 1_555 1_555
H4 C10 1_555 1_555
C11 C9 1_555 1_555
C12 C6 1_555 1_555
H5 C12 1_555 1_555
F2 C13 1_555 1_555
C13 C4 1_555 1_555
F3 C11 1_555 1_555
C14 H6 1_555 1_555
H7 C14 1_555 1_555
C15 C7 1_555 1_555
H8 C15 1_555 1_555
H9 C15 1_555 1_555
C16 C3 1_555 1_555
H10 C16 1_555 1_555
F4 C11 1_555 1_555
C17 C9 1_555 1_555
H11 C17 1_555 1_555
F5 C11 1_555 1_555
C18 C4 1_555 1_555
H12 C18 1_555 1_555
H13 C18 1_555 1_555
C19 C14 1_555 1_555
H14 C19 1_555 1_555
H15 C19 1_555 1_555
F6 C13 1_555 1_555
N3 C20 1_555 1_555
C20 C23 1_555 1_555
C21 N3 1_555 1_555
N4 C21 1_555 1_555
C22 C21 1_555 1_555
O2 C26 1_555 1_555
C23 C26 1_555 1_555
C24 C22 1_555 1_555
C25 C20 1_555 1_555
H16 C25 1_555 1_555
C26 N4 1_555 1_555
C27 C25 1_555 1_555
C28 C23 1_555 1_555
H17 C28 1_555 1_555
F7 C38 1_555 1_555
C29 H18 1_555 1_555
H19 C29 1_555 1_555
C30 C22 1_555 1_555
H20 C30 1_555 1_555
H21 C30 1_555 1_555
F8 C38 1_555 1_555
C31 C22 1_555 1_555
H22 C31 1_555 1_555
F9 C33 1_555 1_555
C32 N4 1_555 1_555
H23 C32 1_555 1_555
C33 C27 1_555 1_555
C34 C24 1_555 1_555
H24 C34 1_555 1_555
H25 C34 1_555 1_555
C35 C27 1_555 1_555
H26 C35 1_555 1_555
F10 C38 1_555 1_555
C36 C29 1_555 1_555
H27 C36 1_555 1_555
H28 C36 1_555 1_555
C37 C34 1_555 1_555
H29 C37 1_555 1_555
H30 C37 1_555 1_555
F11 C33 1_555 1_555
F12 C33 1_555 1_555
C38 C24 1_555 1_555
C10 C16 1_555 1_555
C12 C17 1_555 1_555
C14 C15 1_555 1_555
C18 C19 1_555 1_555
C28 C35 1_555 1_555
C29 C30 1_555 1_555
C31 C32 1_555 1_555
C36 C37 1_555 1_555

#END
