
#######################################################################
#
#                 Cambridge Crystallographic Data Centre
#                                CCDC 
#
#######################################################################
#
# If this CIF has been generated from an entry in the Cambridge 
# Structural Database, then it will include bibliographic, chemical, 
# crystal, experimental, refinement or atomic coordinate data resulting 
# from the CCDC's data processing and validation procedures.
#
#######################################################################

data_EHIGAF
_chemical_formula_moiety         'C27 H30 Cl1 N1 O4'
_chemical_name_systematic        
't-Butyl 2-((2-chlorobenzyl)amino)-5-oxo-4-phenyl-3,4,5,6,7,8-hexahydro-2H-chromene-2-carboxylate'
_symmetry_cell_setting           monoclinic
_symmetry_space_group_name_H-M   'P 21'
_symmetry_Int_Tables_number      4
_space_group_name_Hall           'P 2yb'
loop_
_symmetry_equiv_pos_site_id
_symmetry_equiv_pos_as_xyz
1 x,y,z
2 -x,1/2+y,-z
_cell_length_a                   5.9526(17)
_cell_length_b                   16.922(5)
_cell_length_c                   12.321(4)
_cell_angle_alpha                90
_cell_angle_beta                 98.990(4)
_cell_angle_gamma                90
_cell_volume                     1225.85
_exptl_crystal_colour            colorless
_exptl_crystal_description       Prism
_cell_formula_units_Z            2
loop_
_atom_site_label
_atom_site_type_symbol
_atom_site_fract_x
_atom_site_fract_y
_atom_site_fract_z
Cl1 Cl 0.9840(2) 0.67139(6) 0.83060(9)
O1 O 0.2928(4) 0.55808(16) 0.6531(2)
O2 O 0.7639(6) 0.6145(2) 0.3879(3)
O3 O 0.0651(5) 0.4462(3) 0.7259(3)
O4 O 0.3724(4) 0.39232(15) 0.8250(2)
N1 N 0.6209(5) 0.51879(18) 0.7798(2)
H1 H 0.7015 0.4797 0.8084
C1 C 0.4372(6) 0.4930(2) 0.7009(3)
C2 C 0.5193(5) 0.4459(2) 0.6087(3)
H2 H 0.3893 0.4216 0.5637
H3 H 0.6194 0.4040 0.6407
C3 C 0.6466(6) 0.4977(2) 0.5354(3)
H4 H 0.8002 0.5075 0.5748
C4 C 0.5277(6) 0.5763(2) 0.5146(3)
C5 C 0.6056(8) 0.6316(3) 0.4367(3)
C6 C 0.4945(10) 0.7118(3) 0.4236(5)
H5 H 0.5815 0.7483 0.4746
H6 H 0.4995 0.7309 0.3498
C7 C 0.2534(10) 0.7121(3) 0.4433(4)
H7 H 0.1603 0.6820 0.3862
H8 H 0.1966 0.7659 0.4405
C8 C 0.2365(8) 0.6765(3) 0.5542(3)
H9 H 0.2979 0.7134 0.6115
H10 H 0.0778 0.6675 0.5598
C9 C 0.3635(6) 0.5998(2) 0.5712(3)
C10 C 0.5667(6) 0.5729(2) 0.8643(3)
H11 H 0.4316 0.5545 0.8916
H12 H 0.5351 0.6250 0.8327
C11 C 0.7620(6) 0.5778(2) 0.9581(3)
C12 C 0.9607(7) 0.6190(2) 0.9504(3)
C13 C 1.1433(7) 0.6210(2) 1.0353(4)
H13 H 1.2760 0.6477 1.0269
C14 C 1.1253(8) 0.5825(3) 1.1327(4)
H14 H 1.2464 0.5833 1.1904
C15 C 0.9278(8) 0.5430(3) 1.1442(3)
H15 H 0.9139 0.5185 1.2104
C16 C 0.7511(7) 0.5401(2) 1.0577(3)
H16 H 0.6204 0.5120 1.0660
C17 C 0.2668(6) 0.4421(2) 0.7529(3)
C18 C 0.2430(6) 0.3361(2) 0.8846(3)
C19 C 0.0960(12) 0.2824(3) 0.8055(5)
H17 H -0.0255 0.3125 0.7646
H18 H 0.0336 0.2415 0.8458
H19 H 0.1862 0.2591 0.7559
C20 C 0.4333(10) 0.2933(4) 0.9562(6)
H20 H 0.5191 0.2632 0.9109
H21 H 0.3706 0.2584 1.0052
H22 H 0.5311 0.3310 0.9983
C21 C 0.1021(8) 0.3822(3) 0.9551(3)
H23 H 0.1966 0.4204 0.9980
H24 H 0.0396 0.3466 1.0032
H25 H -0.0193 0.4088 0.9087
C22 C 0.6673(6) 0.4508(2) 0.4326(3)
C23 C 0.8681(6) 0.4120(2) 0.4226(3)
H26 H 0.9939 0.4183 0.4771
C24 C 0.8848(7) 0.3640(3) 0.3327(4)
H27 H 1.0210 0.3383 0.3277
C25 C 0.7008(8) 0.3542(3) 0.2511(3)
H28 H 0.7115 0.3220 0.1910
C26 C 0.5001(8) 0.3929(3) 0.2596(3)
H29 H 0.3753 0.3869 0.2045
C27 C 0.4828(6) 0.4409(3) 0.3497(3)
H30 H 0.3464 0.4665 0.3545
loop_
_geom_bond_atom_site_label_1
_geom_bond_atom_site_label_2
_geom_bond_site_symmetry_1
_geom_bond_site_symmetry_2
Cl1 C12 1_555 1_555
O1 C1 1_555 1_555
O2 C5 1_555 1_555
O3 C17 1_555 1_555
O4 C17 1_555 1_555
N1 H1 1_555 1_555
C1 N1 1_555 1_555
C2 C1 1_555 1_555
H2 C2 1_555 1_555
H3 C2 1_555 1_555
C3 C2 1_555 1_555
H4 C3 1_555 1_555
C4 C3 1_555 1_555
C5 C4 1_555 1_555
C6 C5 1_555 1_555
H5 C6 1_555 1_555
H6 C6 1_555 1_555
C7 C6 1_555 1_555
H7 C7 1_555 1_555
H8 C7 1_555 1_555
C8 C7 1_555 1_555
H9 C8 1_555 1_555
H10 C8 1_555 1_555
C9 O1 1_555 1_555
C10 N1 1_555 1_555
H11 C10 1_555 1_555
H12 C10 1_555 1_555
C11 C10 1_555 1_555
C12 C11 1_555 1_555
C13 C12 1_555 1_555
H13 C13 1_555 1_555
C14 C13 1_555 1_555
H14 C14 1_555 1_555
C15 C14 1_555 1_555
H15 C15 1_555 1_555
C16 C11 1_555 1_555
H16 C16 1_555 1_555
C17 C1 1_555 1_555
C18 O4 1_555 1_555
C19 C18 1_555 1_555
H17 C19 1_555 1_555
H18 C19 1_555 1_555
H19 C19 1_555 1_555
C20 C18 1_555 1_555
H20 C20 1_555 1_555
H21 C20 1_555 1_555
H22 C20 1_555 1_555
C21 C18 1_555 1_555
H23 C21 1_555 1_555
H24 C21 1_555 1_555
H25 C21 1_555 1_555
C22 C3 1_555 1_555
C23 C22 1_555 1_555
H26 C23 1_555 1_555
C24 C23 1_555 1_555
H27 C24 1_555 1_555
C25 C24 1_555 1_555
H28 C25 1_555 1_555
C26 C25 1_555 1_555
H29 C26 1_555 1_555
C27 C22 1_555 1_555
H30 C27 1_555 1_555
C4 C9 1_555 1_555
C8 C9 1_555 1_555
C15 C16 1_555 1_555
C26 C27 1_555 1_555

#END
