
#######################################################################
#
#                 Cambridge Crystallographic Data Centre
#                                CCDC 
#
#######################################################################
#
# If this CIF has been generated from an entry in the Cambridge 
# Structural Database, then it will include bibliographic, chemical, 
# crystal, experimental, refinement or atomic coordinate data resulting 
# from the CCDC's data processing and validation procedures.
#
#######################################################################

data_EHIGOT
_chemical_formula_moiety         'C23 H31 N1 O3,C1 H2 Cl2,C1 H1 Cl3'
_chemical_name_systematic        
't-Butyl 7,7-dimethyl-4-(4-methylphenyl)-5-oxo-1,2,3,4,5,6,7,8-octahydroquinoline-2-carboxylate dichloromethane chloroform solvate'
_symmetry_cell_setting           orthorhombic
_symmetry_space_group_name_H-M   'P 21 21 21'
_symmetry_Int_Tables_number      19
_space_group_name_Hall           'P 2ac 2ab'
loop_
_symmetry_equiv_pos_site_id
_symmetry_equiv_pos_as_xyz
1 x,y,z
2 1/2-x,-y,1/2+z
3 -x,1/2+y,1/2-z
4 1/2+x,1/2-y,-z
_cell_length_a                   8.109(2)
_cell_length_b                   14.081(4)
_cell_length_c                   25.682(8)
_cell_angle_alpha                90
_cell_angle_beta                 90
_cell_angle_gamma                90
_cell_volume                     2932.44
_exptl_crystal_colour            colorless
_exptl_crystal_description       plate
_cell_formula_units_Z            4
loop_
_atom_site_label
_atom_site_type_symbol
_atom_site_fract_x
_atom_site_fract_y
_atom_site_fract_z
Cl1 Cl 0.6058(3) 0.33444(18) 0.63082(10)
Cl2 Cl 0.7299(2) 0.14529(13) 0.64537(8)
Cl3 Cl 0.6230(3) 0.25836(12) 0.73325(7)
C1 C 0.7177(8) 0.2598(5) 0.6724(3)
H1 H 0.8296 0.2852 0.6762
Cl4 Cl 0.0058(3) 0.73354(19) 0.36387(12)
Cl5 Cl 0.2227(4) 0.5882(2) 0.40671(12)
C2 C 0.2071(10) 0.6910(6) 0.3699(3)
H2 H 0.2508 0.6787 0.3354
H3 H 0.2748 0.7399 0.3857
O1 O -0.0755(6) 0.7538(2) 0.73085(15)
O2 O 0.0286(5) 0.3503(3) 0.63047(16)
O3 O 0.2502(5) 0.4137(3) 0.59034(14)
N1 N 0.1101(6) 0.4372(3) 0.72354(17)
H6 H 0.1019 0.3815 0.7371
C3 C 0.2181(8) 0.4490(4) 0.6793(2)
H7 H 0.3208 0.4159 0.6880
C4 C 0.2634(7) 0.5538(4) 0.6716(2)
H8 H 0.3418 0.5724 0.6983
H9 H 0.3163 0.5614 0.6380
C5 C 0.1132(7) 0.6191(3) 0.67440(19)
H10 H 0.1542 0.6844 0.6774
C6 C 0.0180(7) 0.5974(3) 0.7236(2)
C7 C 0.0221(7) 0.5073(3) 0.74476(19)
C8 C 0.1489(7) 0.3999(3) 0.6306(2)
C9 C 0.2229(8) 0.3679(4) 0.5383(2)
C10 C 0.0604(9) 0.4027(6) 0.5161(3)
H11 H -0.0291 0.3759 0.5357
H12 H 0.0514 0.3833 0.4803
H13 H 0.0559 0.4707 0.5182
C11 C 0.3650(10) 0.4044(6) 0.5073(3)
H14 H 0.3613 0.4725 0.5063
H15 H 0.3589 0.3799 0.4724
H16 H 0.4663 0.3842 0.5231
C12 C 0.2271(12) 0.2604(5) 0.5450(3)
H17 H 0.3252 0.2427 0.5636
H18 H 0.2269 0.2305 0.5115
H19 H 0.1319 0.2404 0.5644
C13 C 0.0055(7) 0.6146(4) 0.6257(2)
C14 C -0.1419(8) 0.5659(4) 0.6228(2)
H20 H -0.1785 0.5327 0.6519
C15 C -0.2377(9) 0.5650(4) 0.5778(2)
H21 H -0.3373 0.5322 0.5777
C16 C -0.1868(10) 0.6123(4) 0.5331(2)
C17 C -0.0388(11) 0.6610(5) 0.5358(2)
H22 H -0.0025 0.6939 0.5066
C18 C 0.0568(9) 0.6625(5) 0.5801(2)
H23 H 0.1562 0.6955 0.5801
C19 C -0.2884(13) 0.6090(6) 0.4840(3)
H24 H -0.2992 0.5443 0.4726
H25 H -0.2351 0.6456 0.4573
H26 H -0.3958 0.6349 0.4907
C20 C -0.0730(7) 0.6717(3) 0.7488(2)
C21 C -0.1620(8) 0.6504(4) 0.7991(2)
H27 H -0.2591 0.6905 0.8011
H28 H -0.0905 0.6676 0.8279
C22 C -0.2158(7) 0.5469(4) 0.8062(2)
C23 C -0.0666(8) 0.4833(4) 0.7942(2)
H29 H 0.0107 0.4878 0.8229
H30 H -0.1038 0.4179 0.7922
C24 C -0.3593(8) 0.5235(4) 0.7694(3)
H31 H -0.4517 0.5635 0.7776
H32 H -0.3902 0.4582 0.7737
H33 H -0.3258 0.5343 0.7341
C25 C -0.2708(9) 0.5305(4) 0.8622(2)
H34 H -0.1824 0.5467 0.8855
H35 H -0.2997 0.4650 0.8669
H36 H -0.3649 0.5696 0.8697
H4? H 0.3002 0.7284 0.3579
H5? H 0.1145 0.7334 0.3754
Cl6? Cl 0.255(5) 0.6362(18) 0.4251(12)
Cl7? Cl 0.154(2) 0.6030(16) 0.3219(8)
loop_
_geom_bond_atom_site_label_1
_geom_bond_atom_site_label_2
_geom_bond_site_symmetry_1
_geom_bond_site_symmetry_2
Cl1 C1 1_555 1_555
Cl2 C1 1_555 1_555
Cl3 C1 1_555 1_555
C1 H1 1_555 1_555
Cl4 C2 1_555 1_555
Cl5 C2 1_555 1_555
C2 H2 1_555 1_555
H3 C2 1_555 1_555
O1 C20 1_555 1_555
O2 C8 1_555 1_555
O3 C8 1_555 1_555
N1 H6 1_555 1_555
C3 N1 1_555 1_555
H7 C3 1_555 1_555
C4 C3 1_555 1_555
H8 C4 1_555 1_555
H9 C4 1_555 1_555
C5 C4 1_555 1_555
H10 C5 1_555 1_555
C6 C5 1_555 1_555
C7 N1 1_555 1_555
C8 C3 1_555 1_555
C9 O3 1_555 1_555
C10 C9 1_555 1_555
H11 C10 1_555 1_555
H12 C10 1_555 1_555
H13 C10 1_555 1_555
C11 C9 1_555 1_555
H14 C11 1_555 1_555
H15 C11 1_555 1_555
H16 C11 1_555 1_555
C12 C9 1_555 1_555
H17 C12 1_555 1_555
H18 C12 1_555 1_555
H19 C12 1_555 1_555
C13 C5 1_555 1_555
C14 C13 1_555 1_555
H20 C14 1_555 1_555
C15 C14 1_555 1_555
H21 C15 1_555 1_555
C16 C15 1_555 1_555
C17 C16 1_555 1_555
H22 C17 1_555 1_555
C18 C13 1_555 1_555
H23 C18 1_555 1_555
C19 C16 1_555 1_555
H24 C19 1_555 1_555
H25 C19 1_555 1_555
H26 C19 1_555 1_555
C20 C6 1_555 1_555
C21 C20 1_555 1_555
H27 C21 1_555 1_555
H28 C21 1_555 1_555
C22 C21 1_555 1_555
C23 C7 1_555 1_555
H29 C23 1_555 1_555
H30 C23 1_555 1_555
C24 C22 1_555 1_555
H31 C24 1_555 1_555
H32 C24 1_555 1_555
H33 C24 1_555 1_555
C25 C22 1_555 1_555
H34 C25 1_555 1_555
H35 C25 1_555 1_555
H36 C25 1_555 1_555
C6 C7 1_555 1_555
C17 C18 1_555 1_555
C22 C23 1_555 1_555

#END
