
#######################################################################
#
#                 Cambridge Crystallographic Data Centre
#                                CCDC 
#
#######################################################################
#
# If this CIF has been generated from an entry in the Cambridge 
# Structural Database, then it will include bibliographic, chemical, 
# crystal, experimental, refinement or atomic coordinate data resulting 
# from the CCDC's data processing and validation procedures.
#
#######################################################################

data_EHIKOX
_chemical_formula_moiety         'C14 H13 F3 N2 O1'
_chemical_name_systematic        
6-(2,2,2-Trifluoroethyl)-6,7,8,9-tetrahydro-11H-pyrido[2,1-b]quinazolin-11-one
_symmetry_cell_setting           monoclinic
_symmetry_space_group_name_H-M   'P 21/c'
_symmetry_Int_Tables_number      14
_space_group_name_Hall           '-P 2ybc'
loop_
_symmetry_equiv_pos_site_id
_symmetry_equiv_pos_as_xyz
1 x,y,z
2 -x,1/2+y,1/2-z
3 -x,-y,-z
4 x,1/2-y,1/2+z
_cell_length_a                   11.641(4)
_cell_length_b                   8.145(3)
_cell_length_c                   13.856(5)
_cell_angle_alpha                90
_cell_angle_beta                 105.087(7)
_cell_angle_gamma                90
_cell_volume                     1268.49
_exptl_crystal_colour            colorless
_exptl_crystal_description       plate
_cell_formula_units_Z            4
loop_
_atom_site_label
_atom_site_type_symbol
_atom_site_fract_x
_atom_site_fract_y
_atom_site_fract_z
N1 N 0.1063(2) 0.2284(3) 0.56305(19)
O1 O -0.0850(2) -0.0294(4) 0.7194(2)
N2 N 0.0916(2) 0.0635(3) 0.69888(18)
F1 F 0.5192(2) 0.3079(5) 0.5733(2)
C1 C 0.1541(3) 0.1508(4) 0.6448(2)
C2 C -0.0168(2) 0.2247(4) 0.5287(2)
C3 C -0.0317(3) 0.0504(4) 0.6695(2)
C4 C 0.2874(3) 0.1500(4) 0.6884(2)
H1 H 0.3182 0.0419 0.6843
C5 C -0.0875(3) 0.1383(4) 0.5786(2)
C6 C -0.0712(3) 0.3119(4) 0.4413(2)
H2 H -0.0247 0.3687 0.4071
F2 F 0.5413(2) 0.2501(7) 0.7229(3)
C7 C -0.2120(3) 0.1417(5) 0.5411(3)
H3 H -0.2597 0.0848 0.5741
C8 C 0.1584(3) -0.0164(4) 0.7922(2)
H4 H 0.2021 -0.1097 0.7764
H5 H 0.1034 -0.0563 0.8287
C9 C -0.1929(3) 0.3133(5) 0.4062(3)
H6 H -0.2286 0.3714 0.3484
C10 C 0.3473(3) 0.2471(5) 0.6227(3)
H7 H 0.3081 0.2206 0.5537
H8 H 0.3332 0.3626 0.6320
F3 F 0.4979(3) 0.0705(5) 0.6193(4)
C11 C 0.2436(3) 0.1031(5) 0.8559(3)
H9 H 0.2970 0.0438 0.9102
H10 H 0.1991 0.1807 0.8851
C12 C -0.2630(3) 0.2280(5) 0.4567(3)
H11 H -0.3454 0.2300 0.4326
C13 C 0.3168(3) 0.1968(5) 0.7983(3)
H12 H 0.4006 0.1760 0.8283
H13 H 0.3031 0.3135 0.8037
C14 C 0.4729(3) 0.2251(6) 0.6366(4)
loop_
_geom_bond_atom_site_label_1
_geom_bond_atom_site_label_2
_geom_bond_site_symmetry_1
_geom_bond_site_symmetry_2
N1 C1 1_555 1_555
O1 C3 1_555 1_555
N2 C1 1_555 1_555
F1 C14 1_555 1_555
C1 C4 1_555 1_555
C2 N1 1_555 1_555
C3 N2 1_555 1_555
C4 H1 1_555 1_555
C5 C2 1_555 1_555
C6 C2 1_555 1_555
H2 C6 1_555 1_555
F2 C14 1_555 1_555
C7 C5 1_555 1_555
H3 C7 1_555 1_555
C8 N2 1_555 1_555
H4 C8 1_555 1_555
H5 C8 1_555 1_555
C9 C6 1_555 1_555
H6 C9 1_555 1_555
C10 C4 1_555 1_555
H7 C10 1_555 1_555
H8 C10 1_555 1_555
F3 C14 1_555 1_555
C11 C8 1_555 1_555
H9 C11 1_555 1_555
H10 C11 1_555 1_555
C12 C7 1_555 1_555
H11 C12 1_555 1_555
C13 C4 1_555 1_555
H12 C13 1_555 1_555
H13 C13 1_555 1_555
C14 C10 1_555 1_555
C3 C5 1_555 1_555
C9 C12 1_555 1_555
C11 C13 1_555 1_555

#END
