
#######################################################################
#
#                 Cambridge Crystallographic Data Centre
#                                CCDC 
#
#######################################################################
#
# If this CIF has been generated from an entry in the Cambridge 
# Structural Database, then it will include bibliographic, chemical, 
# crystal, experimental, refinement or atomic coordinate data resulting 
# from the CCDC's data processing and validation procedures.
#
#######################################################################

data_EHINEQ
_chemical_formula_moiety         'C22 H18 Br1 N3 O1'
_chemical_name_systematic        
5-Bromo-1',5'-dimethyl-3'-(1H-pyrrol-2-yl)-1',3'-dihydro-1H,2'H-3,3'-biindol-2'-one
_symmetry_cell_setting           orthorhombic
_symmetry_space_group_name_H-M   'P 21 21 21'
_symmetry_Int_Tables_number      19
_space_group_name_Hall           'P 2ac 2ab'
loop_
_symmetry_equiv_pos_site_id
_symmetry_equiv_pos_as_xyz
1 x,y,z
2 1/2-x,-y,1/2+z
3 -x,1/2+y,1/2-z
4 1/2+x,1/2-y,-z
_cell_length_a                   9.2609(19)
_cell_length_b                   10.182(2)
_cell_length_c                   20.922(4)
_cell_angle_alpha                90
_cell_angle_beta                 90
_cell_angle_gamma                90
_cell_volume                     1972.83
_exptl_crystal_colour            colorless
_exptl_crystal_description       block
_cell_formula_units_Z            4
loop_
_atom_site_label
_atom_site_type_symbol
_atom_site_fract_x
_atom_site_fract_y
_atom_site_fract_z
Br1 Br 0.21494(14) 0.90862(11) 0.88079(5)
O1 O 0.1212(7) 1.0896(5) 0.6315(2)
N1 N 0.1402(7) 1.2591(6) 0.5616(3)
N2 N 0.0438(8) 1.4380(6) 0.7836(3)
H1 H -0.0083 1.5009 0.7984
N3 N 0.5007(8) 1.2591(7) 0.7176(3)
H2 H 0.4891 1.3292 0.7400
C1 C 0.1677(8) 1.1967(7) 0.6167(3)
C2 C 0.2694(8) 1.2859(6) 0.6578(3)
C3 C 0.2909(8) 1.4005(6) 0.6125(3)
C4 C 0.2108(9) 1.3805(6) 0.5577(3)
C5 C 0.2081(10) 1.4723(8) 0.5088(3)
H3 H 0.1531 1.4589 0.4722
C6 C 0.2895(10) 1.5837(8) 0.5165(4)
H4 H 0.2896 1.6460 0.4839
C7 C 0.3712(9) 1.6073(7) 0.5704(4)
C8 C 0.3729(8) 1.5134(7) 0.6191(3)
H5 H 0.4284 1.5267 0.6556
C9 C 0.0375(12) 1.2118(9) 0.5136(4)
H6 H 0.0305 1.1178 0.5162
H7 H 0.0703 1.2364 0.4718
H8 H -0.0556 1.2500 0.5214
C10 C 0.1864(8) 1.3243(6) 0.7174(3)
C11 C 0.1624(8) 1.2453(6) 0.7738(3)
C12 C 0.0706(9) 1.3209(7) 0.8138(3)
C13 C 0.1133(8) 1.4383(7) 0.7262(3)
H9 H 0.1109 1.5073 0.6971
C14 C 0.0224(9) 1.2749(8) 0.8723(3)
H10 H -0.0388 1.3250 0.8977
C15 C 0.0681(10) 1.1521(9) 0.8917(3)
H11 H 0.0368 1.1185 0.9306
C16 C 0.1612(9) 1.0774(8) 0.8532(3)
C17 C 0.2077(9) 1.1214(6) 0.7947(3)
H12 H 0.2681 1.0700 0.7695
C18 C 0.4070(10) 1.2117(8) 0.6722(4)
C19 C 0.4605(11) 1.0957(10) 0.6490(4)
H13 H 0.4184 1.0400 0.6191
C20 C 0.5921(13) 1.0800(11) 0.6803(5)
H14 H 0.6543 1.0100 0.6728
C21 C 0.6191(14) 1.1728(11) 0.7209(5)
H15 H 0.7000 1.1807 0.7470
C22 C 0.4612(13) 1.7293(9) 0.5785(5)
H16 H 0.5240 1.7392 0.5424
H17 H 0.5179 1.7221 0.6168
H18 H 0.3990 1.8045 0.5816
loop_
_geom_bond_atom_site_label_1
_geom_bond_atom_site_label_2
_geom_bond_site_symmetry_1
_geom_bond_site_symmetry_2
Br1 C16 1_555 1_555
O1 C1 1_555 1_555
N1 C1 1_555 1_555
N2 H1 1_555 1_555
N3 H2 1_555 1_555
C1 C2 1_555 1_555
C2 C3 1_555 1_555
C3 C4 1_555 1_555
C4 N1 1_555 1_555
C5 C4 1_555 1_555
H3 C5 1_555 1_555
C6 C5 1_555 1_555
H4 C6 1_555 1_555
C7 C6 1_555 1_555
C8 C3 1_555 1_555
H5 C8 1_555 1_555
C9 N1 1_555 1_555
H6 C9 1_555 1_555
H7 C9 1_555 1_555
H8 C9 1_555 1_555
C10 C2 1_555 1_555
C11 C10 1_555 1_555
C12 N2 1_555 1_555
C13 N2 1_555 1_555
H9 C13 1_555 1_555
C14 C12 1_555 1_555
H10 C14 1_555 1_555
C15 C14 1_555 1_555
H11 C15 1_555 1_555
C16 C15 1_555 1_555
C17 C11 1_555 1_555
H12 C17 1_555 1_555
C18 N3 1_555 1_555
C19 C18 1_555 1_555
H13 C19 1_555 1_555
C20 C19 1_555 1_555
H14 C20 1_555 1_555
C21 N3 1_555 1_555
H15 C21 1_555 1_555
C22 C7 1_555 1_555
H16 C22 1_555 1_555
H17 C22 1_555 1_555
H18 C22 1_555 1_555
C2 C18 1_555 1_555
C7 C8 1_555 1_555
C10 C13 1_555 1_555
C11 C12 1_555 1_555
C16 C17 1_555 1_555
C20 C21 1_555 1_555

#END
