
#######################################################################
#
#                 Cambridge Crystallographic Data Centre
#                                CCDC 
#
#######################################################################
#
# If this CIF has been generated from an entry in the Cambridge 
# Structural Database, then it will include bibliographic, chemical, 
# crystal, experimental, refinement or atomic coordinate data resulting 
# from the CCDC's data processing and validation procedures.
#
#######################################################################

data_EHIRAQ
_chemical_formula_moiety         'C28 H33 B1 O2 Si1'
_chemical_name_systematic        
Triphenyl(4-(4,4,5,5-tetramethyl-1,3,2-dioxaborolan-2-yl)but-2-en-2-yl)silane
_symmetry_cell_setting           monoclinic
_symmetry_space_group_name_H-M   'P 21/c'
_symmetry_Int_Tables_number      14
_space_group_name_Hall           '-P 2ybc'
loop_
_symmetry_equiv_pos_site_id
_symmetry_equiv_pos_as_xyz
1 x,y,z
2 -x,1/2+y,1/2-z
3 -x,-y,-z
4 x,1/2-y,1/2+z
_cell_length_a                   11.1944(3)
_cell_length_b                   19.1263(5)
_cell_length_c                   12.3819(3)
_cell_angle_alpha                90
_cell_angle_beta                 93.3150(10)
_cell_angle_gamma                90
_cell_volume                     2646.62
_exptl_crystal_colour            colorless
_exptl_crystal_description       block
_cell_formula_units_Z            4
loop_
_atom_site_label
_atom_site_type_symbol
_atom_site_fract_x
_atom_site_fract_y
_atom_site_fract_z
Si1 Si 0.12037(7) 0.13613(4) 0.72677(6)
O1 O 0.3040(3) -0.1176(2) 0.6884(3)
O2 O 0.3091(4) -0.0830(2) 0.5221(3)
B1 B 0.2527(4) -0.0769(2) 0.6128(3)
C1 C 0.2594(2) 0.12217(15) 0.8166(2)
C2 C 0.3502(3) 0.0784(2) 0.7880(3)
H1 H 0.3431 0.0550 0.7221
C3 C 0.4508(4) 0.0686(3) 0.8552(4)
H2 H 0.5105 0.0385 0.8342
C4 C 0.4646(3) 0.1025(2) 0.9527(4)
H3 H 0.5330 0.0957 0.9978
C5 C 0.3769(3) 0.1459(2) 0.9819(3)
H4 H 0.3851 0.1695 1.0476
C6 C 0.2753(3) 0.15552(17) 0.9152(3)
H5 H 0.2159 0.1854 0.9372
C7 C 0.0922(3) 0.23248(15) 0.7193(2)
C8 C 0.1852(3) 0.28022(16) 0.7109(3)
H6 H 0.2637 0.2641 0.7155
C9 C 0.1641(3) 0.35078(17) 0.6961(3)
H7 H 0.2282 0.3813 0.6907
C10 C 0.0502(3) 0.37596(17) 0.6893(3)
H8 H 0.0361 0.4234 0.6781
C11 C -0.0435(3) 0.33089(19) 0.6990(3)
H9 H -0.1215 0.3479 0.6956
C12 C -0.0229(3) 0.26026(17) 0.7138(3)
H10 H -0.0877 0.2304 0.7203
C13 C -0.0128(2) 0.09411(14) 0.7852(2)
C14 C -0.0221(3) 0.08472(19) 0.8952(3)
H11 H 0.0419 0.0972 0.9426
C15 C -0.1240(3) 0.0572(2) 0.9364(3)
H12 H -0.1278 0.0515 1.0107
C16 C -0.2193(3) 0.0383(2) 0.8691(3)
H13 H -0.2877 0.0197 0.8973
C17 C -0.2134(3) 0.0470(2) 0.7593(3)
H14 H -0.2781 0.0344 0.7128
C18 C -0.1112(3) 0.07452(17) 0.7180(3)
H15 H -0.1082 0.0801 0.6436
C19 C 0.1468(3) -0.02559(16) 0.6285(3)
H16 H 0.0721 -0.0505 0.6140
H17 H 0.1497 -0.0106 0.7034
C20 C 0.1473(3) 0.03766(16) 0.5575(3)
H18 H 0.1539 0.0290 0.4842
C21 C 0.1396(3) 0.10454(16) 0.5852(2)
C22 C 0.1444(4) 0.1597(2) 0.4976(3)
H19 H 0.1546 0.1375 0.4293
H20 H 0.2104 0.1906 0.5143
H21 H 0.0712 0.1859 0.4938
C23 C 0.3956(7) -0.1580(4) 0.6389(5)
C24 C 0.3953(6) -0.1398(3) 0.5382(5)
C25 C 0.4398(7) -0.2130(4) 0.7062(5)
H22 H 0.3806 -0.2492 0.7083
H23 H 0.4576 -0.1955 0.7780
H24 H 0.5113 -0.2317 0.6781
C26 C 0.4675(7) -0.1465(4) 0.4478(5)
H25 H 0.5236 -0.1085 0.4477
H26 H 0.4174 -0.1455 0.3822
H27 H 0.5102 -0.1901 0.4524
C27 C 0.5280(5) -0.0939(4) 0.6479(9)
H28 H 0.5958 -0.1150 0.6168
H29 H 0.5479 -0.0827 0.7224
H30 H 0.5064 -0.0519 0.6090
C28 C 0.2968(8) -0.2205(5) 0.5193(9)
H31 H 0.3451 -0.2618 0.5287
H32 H 0.2586 -0.2202 0.4478
H33 H 0.2370 -0.2201 0.5718
loop_
_geom_bond_atom_site_label_1
_geom_bond_atom_site_label_2
_geom_bond_site_symmetry_1
_geom_bond_site_symmetry_2
Si1 C1 1_555 1_555
O1 B1 1_555 1_555
O2 B1 1_555 1_555
B1 C19 1_555 1_555
C1 C2 1_555 1_555
C2 H1 1_555 1_555
C3 C2 1_555 1_555
H2 C3 1_555 1_555
C4 C3 1_555 1_555
H3 C4 1_555 1_555
C5 C4 1_555 1_555
H4 C5 1_555 1_555
C6 C1 1_555 1_555
H5 C6 1_555 1_555
C7 Si1 1_555 1_555
C8 C7 1_555 1_555
H6 C8 1_555 1_555
C9 C8 1_555 1_555
H7 C9 1_555 1_555
C10 C9 1_555 1_555
H8 C10 1_555 1_555
C11 C10 1_555 1_555
H9 C11 1_555 1_555
C12 C7 1_555 1_555
H10 C12 1_555 1_555
C13 Si1 1_555 1_555
C14 C13 1_555 1_555
H11 C14 1_555 1_555
C15 C14 1_555 1_555
H12 C15 1_555 1_555
C16 C15 1_555 1_555
H13 C16 1_555 1_555
C17 C16 1_555 1_555
H14 C17 1_555 1_555
C18 C13 1_555 1_555
H15 C18 1_555 1_555
C19 H16 1_555 1_555
H17 C19 1_555 1_555
C20 C19 1_555 1_555
H18 C20 1_555 1_555
C21 Si1 1_555 1_555
C22 C21 1_555 1_555
H19 C22 1_555 1_555
H20 C22 1_555 1_555
H21 C22 1_555 1_555
C23 O1 1_555 1_555
C24 O2 1_555 1_555
C25 C23 1_555 1_555
H22 C25 1_555 1_555
H23 C25 1_555 1_555
H24 C25 1_555 1_555
C26 C24 1_555 1_555
H25 C26 1_555 1_555
H26 C26 1_555 1_555
H27 C26 1_555 1_555
C27 C23 1_555 1_555
H28 C27 1_555 1_555
H29 C27 1_555 1_555
H30 C27 1_555 1_555
C28 C24 1_555 1_555
H31 C28 1_555 1_555
H32 C28 1_555 1_555
H33 C28 1_555 1_555
C5 C6 1_555 1_555
C11 C12 1_555 1_555
C17 C18 1_555 1_555
C20 C21 1_555 1_555
C23 C24 1_555 1_555

#END
