
#######################################################################
#
#                 Cambridge Crystallographic Data Centre
#                                CCDC 
#
#######################################################################
#
# If this CIF has been generated from an entry in the Cambridge 
# Structural Database, then it will include bibliographic, chemical, 
# crystal, experimental, refinement or atomic coordinate data resulting 
# from the CCDC's data processing and validation procedures.
#
#######################################################################

data_EHIVIC
_chemical_formula_moiety         'C16 H12 Cl1 N3'
_chemical_name_systematic        
9-(4-Chlorophenyl)-3-methyl-9H-imidazo[1,2-a]benzimidazole
_symmetry_cell_setting           monoclinic
_symmetry_space_group_name_H-M   'P 21/c'
_symmetry_Int_Tables_number      14
_space_group_name_Hall           '-P 2ybc'
loop_
_symmetry_equiv_pos_site_id
_symmetry_equiv_pos_as_xyz
1 x,y,z
2 -x,1/2+y,1/2-z
3 -x,-y,-z
4 x,1/2-y,1/2+z
_cell_length_a                   3.83720(10)
_cell_length_b                   25.1610(8)
_cell_length_c                   14.1067(5)
_cell_angle_alpha                90
_cell_angle_beta                 96.802(2)
_cell_angle_gamma                90
_cell_volume                     1352.38
_exptl_crystal_colour            white
_exptl_crystal_description       prism
_chemical_melting_point          '409-411 K'
_cell_formula_units_Z            4
_exptl_crystal_recrystallization_method 
'dichloromethane/ethyl acetate/petroleum ether'
loop_
_atom_site_label
_atom_site_type_symbol
_atom_site_fract_x
_atom_site_fract_y
_atom_site_fract_z
Cl1 Cl 0.0957(7) 0.67698(8) 0.16091(18)
C1 C 0.254(4) 0.3286(6) 0.3807(11)
C2 C 0.130(2) 0.3531(5) 0.4590(7)
C3 C 0.067(2) 0.4038(3) 0.4846(5)
C4 C 0.1060(17) 0.4481(3) 0.4228(5)
C5 C 0.2187(18) 0.4252(3) 0.3424(6)
C6 C 0.269(2) 0.3716(4) 0.3308(10)
C7 C 0.506(3) 0.3193(5) 0.1509(7)
C8 C 0.3895(18) 0.4096(3) 0.1951(7)
C9 C 0.5510(19) 0.3562(3) 0.0857(6)
C10 C 0.516(5) 0.2679(8) 0.1660(13)
C11 C 0.2570(14) 0.5041(2) 0.2338(4)
C12 C 0.0930(16) 0.5186(3) 0.1433(4)
C13 C 0.0462(17) 0.5721(3) 0.1205(5)
C14 C 0.1671(16) 0.6100(3) 0.1893(5)
C15 C 0.3361(17) 0.5954(3) 0.2779(5)
C16 C 0.3847(16) 0.5427(3) 0.2998(5)
N1 N 0.2948(14) 0.4500(2) 0.2568(4)
N2 N 0.4825(18) 0.4099(3) 0.1062(5)
N3 N 0.383(2) 0.3628(3) 0.2360(8)
loop_
_geom_bond_atom_site_label_1
_geom_bond_atom_site_label_2
_geom_bond_site_symmetry_1
_geom_bond_site_symmetry_2
Cl1 C14 1_555 1_555
C1 C2 1_555 1_555
C2 C3 1_555 1_555
C3 C4 1_555 1_555
C4 C5 1_555 1_555
C5 C6 1_555 1_555
C6 C1 1_555 1_555
C7 C9 1_555 1_555
C8 N1 1_555 1_555
C9 N2 1_555 1_555
C10 C7 1_555 1_555
C11 C12 1_555 1_555
C12 C13 1_555 1_555
C13 C14 1_555 1_555
C14 C15 1_555 1_555
C15 C16 1_555 1_555
C16 C11 1_555 1_555
N1 C5 1_555 1_555
N2 C8 1_555 1_555
N3 C6 1_555 1_555
C7 N3 1_555 1_555
C8 N3 1_555 1_555
C11 N1 1_555 1_555

#END
