
#######################################################################
#
#                 Cambridge Crystallographic Data Centre
#                                CCDC 
#
#######################################################################
#
# If this CIF has been generated from an entry in the Cambridge 
# Structural Database, then it will include bibliographic, chemical, 
# crystal, experimental, refinement or atomic coordinate data resulting 
# from the CCDC's data processing and validation procedures.
#
#######################################################################

data_EHIYUR
_chemical_formula_moiety         'C24 H12 F8 Mg1 N4 O1,0.5(C6 H14)'
_chemical_name_systematic        
'(2,3,7,8,12,13,17,18-Octafluoroporphyrinato)-tetrahydrofuran-magnesium n-hexane solvate'
_symmetry_cell_setting           triclinic
_symmetry_space_group_name_H-M   'P -1'
_symmetry_Int_Tables_number      2
_space_group_name_Hall           '-P 1'
loop_
_symmetry_equiv_pos_site_id
_symmetry_equiv_pos_as_xyz
1 x,y,z
2 -x,-y,-z
_cell_length_a                   9.9453(8)
_cell_length_b                   11.0103(9)
_cell_length_c                   13.1591(9)
_cell_angle_alpha                65.871(7)
_cell_angle_beta                 80.045(6)
_cell_angle_gamma                68.594(7)
_cell_volume                     1223.84
_exptl_crystal_description       parallelepiped
_cell_formula_units_Z            2
loop_
_atom_site_label
_atom_site_type_symbol
_atom_site_fract_x
_atom_site_fract_y
_atom_site_fract_z
Mg1 Mg 0.03704(10) 0.66344(10) 0.34954(7)
F1 F -0.3621(2) 0.7601(2) 0.05822(16)
F2 F -0.4997(2) 0.9707(2) 0.16437(17)
F3 F -0.3553(2) 1.0731(2) 0.48897(18)
F4 F -0.1037(2) 0.9401(2) 0.63980(16)
F5 F 0.38906(19) 0.5061(2) 0.69414(15)
F6 F 0.52454(18) 0.29350(19) 0.58898(15)
F7 F 0.3784(2) 0.19114(19) 0.26434(16)
F8 F 0.1279(2) 0.3257(2) 0.11320(15)
O1 O 0.1348(2) 0.7987(2) 0.23182(17)
N1 N -0.1513(2) 0.7350(2) 0.26386(19)
N2 N -0.0730(2) 0.7898(2) 0.43930(19)
N3 N 0.1901(2) 0.5499(2) 0.47231(19)
N4 N 0.1155(2) 0.4985(2) 0.29393(19)
C1 C -0.1701(3) 0.6892(3) 0.1863(2)
C2 C -0.3083(3) 0.7755(3) 0.1366(2)
C3 C -0.3711(3) 0.8707(3) 0.1849(2)
C4 C -0.2726(3) 0.8454(3) 0.2652(2)
C5 C -0.2978(3) 0.9195(3) 0.3346(2)
H1 H -0.3861 0.9953 0.3261
C6 C -0.2058(3) 0.8930(3) 0.4150(2)
C7 C -0.2340(3) 0.9666(3) 0.4888(3)
C8 C -0.1213(3) 0.9077(3) 0.5560(2)
C9 C -0.0195(3) 0.7951(3) 0.5257(2)
C10 C 0.1105(3) 0.7052(3) 0.5777(2)
H2 H 0.1361 0.7233 0.6351
C11 C 0.2067(3) 0.5912(3) 0.5533(2)
C12 C 0.3389(3) 0.4966(3) 0.6099(2)
C13 C 0.4008(3) 0.4005(3) 0.5627(2)
C14 C 0.3076(3) 0.4339(3) 0.4754(2)
C15 C 0.3332(3) 0.3591(3) 0.4064(2)
H3 H 0.4199 0.2813 0.4166
C16 C 0.2423(3) 0.3889(3) 0.3237(2)
C17 C 0.2646(3) 0.3079(3) 0.2566(2)
C18 C 0.1529(3) 0.3676(3) 0.1882(2)
C19 C 0.0576(3) 0.4886(3) 0.2118(2)
C20 C -0.0733(3) 0.5772(3) 0.1602(2)
H4 H -0.0985 0.5594 0.1024
C21 C 0.0542(3) 0.9467(3) 0.1754(3)
H5 H 0.0158 0.9933 0.2296
H6 H -0.0276 0.9573 0.1355
C22 C 0.1601(4) 1.0103(3) 0.0942(3)
H7 H 0.2097 1.0468 0.1286
H8 H 0.1116 1.0874 0.0264
C23 C 0.2649(4) 0.8858(4) 0.0679(3)
H9 H 0.2258 0.8697 0.0120
H10 H 0.3595 0.8995 0.0403
C24 C 0.2775(3) 0.7660(3) 0.1797(3)
H11 H 0.3048 0.6750 0.1706
H12 H 0.3508 0.7608 0.2249
C25 C 0.5334(4) 0.4353(4) 0.0492(3)
H13 H 0.5201 0.3539 0.0428
H14 H 0.4801 0.4463 0.1174
C26 C 0.6909(5) 0.4016(4) 0.0633(4)
H15 H 0.7044 0.4826 0.0703
H16 H 0.7443 0.3909 -0.0050
C27 C 0.7567(5) 0.2712(4) 0.1617(4)
H17 H 0.8594 0.2574 0.1642
H18 H 0.7467 0.1896 0.1549
H19 H 0.7071 0.2816 0.2303
C25A C 0.4666(4) 0.5647(4) -0.0492(3)
H13A H 0.4799 0.6461 -0.0428
H14A H 0.5199 0.5537 -0.1174
C26A C 0.3091(5) 0.5984(4) -0.0633(4)
H15A H 0.2956 0.5174 -0.0703
H16A H 0.2557 0.6091 0.0050
C27A C 0.2433(5) 0.7288(4) -0.1617(4)
H17A H 0.1406 0.7426 -0.1642
H18A H 0.2533 0.8104 -0.1549
H19A H 0.2929 0.7184 -0.2303
loop_
_geom_bond_atom_site_label_1
_geom_bond_atom_site_label_2
_geom_bond_site_symmetry_1
_geom_bond_site_symmetry_2
Mg1 O1 1_555 1_555
F1 C2 1_555 1_555
F2 C3 1_555 1_555
F3 C7 1_555 1_555
F4 C8 1_555 1_555
F5 C12 1_555 1_555
F6 C13 1_555 1_555
F7 C17 1_555 1_555
F8 C18 1_555 1_555
O1 C21 1_555 1_555
N1 Mg1 1_555 1_555
N2 Mg1 1_555 1_555
N3 Mg1 1_555 1_555
N4 Mg1 1_555 1_555
C1 N1 1_555 1_555
C2 C1 1_555 1_555
C3 C2 1_555 1_555
C4 N1 1_555 1_555
C5 C4 1_555 1_555
H1 C5 1_555 1_555
C6 N2 1_555 1_555
C7 C6 1_555 1_555
C8 C7 1_555 1_555
C9 N2 1_555 1_555
C10 C9 1_555 1_555
H2 C10 1_555 1_555
C11 N3 1_555 1_555
C12 C11 1_555 1_555
C13 C12 1_555 1_555
C14 N3 1_555 1_555
C15 C14 1_555 1_555
H3 C15 1_555 1_555
C16 N4 1_555 1_555
C17 C16 1_555 1_555
C18 C17 1_555 1_555
C19 N4 1_555 1_555
C20 C1 1_555 1_555
H4 C20 1_555 1_555
C21 H5 1_555 1_555
H6 C21 1_555 1_555
C22 C21 1_555 1_555
H7 C22 1_555 1_555
H8 C22 1_555 1_555
C23 C22 1_555 1_555
H9 C23 1_555 1_555
H10 C23 1_555 1_555
C24 O1 1_555 1_555
H11 C24 1_555 1_555
H12 C24 1_555 1_555
C25 H13 1_555 1_555
H14 C25 1_555 1_555
C26 C25 1_555 1_555
H15 C26 1_555 1_555
H16 C26 1_555 1_555
C27 C26 1_555 1_555
H17 C27 1_555 1_555
H18 C27 1_555 1_555
H19 C27 1_555 1_555
C25A C25 1_555 1_555
H13A C25A 1_555 1_555
H14A C25A 1_555 1_555
C26A C25A 1_555 1_555
H15A C26A 1_555 1_555
H16A C26A 1_555 1_555
C27A C26A 1_555 1_555
H17A C27A 1_555 1_555
H18A C27A 1_555 1_555
H19A C27A 1_555 1_555
C3 C4 1_555 1_555
C5 C6 1_555 1_555
C8 C9 1_555 1_555
C10 C11 1_555 1_555
C13 C14 1_555 1_555
C15 C16 1_555 1_555
C18 C19 1_555 1_555
C19 C20 1_555 1_555
C23 C24 1_555 1_555

#END
