
#######################################################################
#
#                 Cambridge Crystallographic Data Centre
#                                CCDC 
#
#######################################################################
#
# If this CIF has been generated from an entry in the Cambridge 
# Structural Database, then it will include bibliographic, chemical, 
# crystal, experimental, refinement or atomic coordinate data resulting 
# from the CCDC's data processing and validation procedures.
#
#######################################################################

data_EHMVCT
_chemical_formula_moiety         'C19 H24 O6'
_chemical_name_systematic        
(4R,8S,11R,13S,14R)-8,11-Epoxy-14-hydroxy-11-methyl-4-(1-methylvinyl)-6,9-dioxocyclotetradec-1-ene-1,13-carbolactone
_symmetry_cell_setting           monoclinic
_symmetry_space_group_name_H-M   'P 21'
_symmetry_Int_Tables_number      4
_space_group_name_Hall           'P 2yb'
loop_
_symmetry_equiv_pos_site_id
_symmetry_equiv_pos_as_xyz
1 x,y,z
2 -x,1/2+y,-z
_cell_length_a                   12.552(5)
_cell_length_b                   6.098(3)
_cell_length_c                   11.680(4)
_cell_angle_alpha                90
_cell_angle_beta                 98.587(17)
_cell_angle_gamma                90
_cell_volume                     883.99
_cell_formula_units_Z            2
loop_
_atom_site_label
_atom_site_type_symbol
_atom_site_fract_x
_atom_site_fract_y
_atom_site_fract_z
C1 C 0.69830 0.80940 0.40360
C2 C 0.59650 0.73430 0.37860
C3 C 0.49600 0.86110 0.35510
C4 C 0.42010 0.80000 0.24420
C5 C 0.48260 0.71620 0.14870
C6 C 0.56700 0.86690 0.11690
C7 C 0.65730 0.75730 0.06470
C8 C 0.75820 0.88240 0.08400
C9 C 0.85170 0.79080 0.03120
C10 C 0.95140 0.81130 0.11700
C11 C 0.91380 0.93180 0.22080
C12 C 0.95910 0.83530 0.33670
C13 C 0.88790 0.83770 0.43290
C14 C 0.79680 0.67590 0.42380
C15 C 0.93420 1.17530 0.21580
C16 C 0.73010 1.04040 0.42150
C17 C 0.33380 0.63990 0.26310
C18 C 0.36430 0.41830 0.30460
C19 C 0.23060 0.70180 0.24470
O1 O 0.80790 0.55900 0.53210
O2 O 0.67790 1.20280 0.42540
O3 O 0.83800 1.05300 0.44020
O4 O 0.84430 0.70990 -0.06310
O5 O 0.79850 0.89380 0.20220
O6 O 0.56270 1.06160 0.12760
loop_
_geom_bond_atom_site_label_1
_geom_bond_atom_site_label_2
_geom_bond_site_symmetry_1
_geom_bond_site_symmetry_2
C1 C2 1_555 1_555
C2 C3 1_555 1_555
C3 C4 1_555 1_555
C4 C5 1_555 1_555
C5 C6 1_555 1_555
C6 C7 1_555 1_555
C7 C8 1_555 1_555
C8 C9 1_555 1_555
C9 C10 1_555 1_555
C10 C11 1_555 1_555
C11 C12 1_555 1_555
C12 C13 1_555 1_555
C13 C14 1_555 1_555
C14 C1 1_555 1_555
C15 C11 1_555 1_555
C16 C1 1_555 1_555
C17 C4 1_555 1_555
C18 C17 1_555 1_555
C19 C17 1_555 1_555
O1 C14 1_555 1_555
O2 C16 1_555 1_555
O3 C13 1_555 1_555
O4 C9 1_555 1_555
O5 C8 1_555 1_555
O6 C6 1_555 1_555
C11 O5 1_555 1_555
C16 O3 1_555 1_555

#END
