
#######################################################################
#
#                 Cambridge Crystallographic Data Centre
#                                CCDC 
#
#######################################################################
#
# If this CIF has been generated from an entry in the Cambridge 
# Structural Database, then it will include bibliographic, chemical, 
# crystal, experimental, refinement or atomic coordinate data resulting 
# from the CCDC's data processing and validation procedures.
#
#######################################################################

data_EHOFOW
_chemical_compound_source        'aerial part of Piper kadsura'
_chemical_formula_moiety         'C23 H28 O6'
_chemical_name_systematic        'Kadsurenin H'
_chemical_properties_biological  
'Platelet Activating Factor antagonistic activity'
_symmetry_cell_setting           orthorhombic
_symmetry_space_group_name_H-M   'P 21 21 21'
_symmetry_Int_Tables_number      19
_space_group_name_Hall           'P 2ac 2ab'
loop_
_symmetry_equiv_pos_site_id
_symmetry_equiv_pos_as_xyz
1 x,y,z
2 1/2-x,-y,1/2+z
3 -x,1/2+y,1/2-z
4 1/2+x,1/2-y,-z
_cell_length_a                   7.5981(19)
_cell_length_b                   9.8280(11)
_cell_length_c                   28.958(3)
_cell_angle_alpha                90
_cell_angle_beta                 90
_cell_angle_gamma                90
_cell_volume                     2162.41
_exptl_crystal_colour            colorless
_exptl_crystal_description       block
_cell_formula_units_Z            4
loop_
_atom_site_label
_atom_site_type_symbol
_atom_site_fract_x
_atom_site_fract_y
_atom_site_fract_z
O1 O 0.0646(3) -0.1623(2) 0.46832(7)
O2 O 0.3222(3) -0.1348(2) 0.40554(7)
O3 O 0.1793(3) 0.3213(2) 0.37613(7)
O4 O 0.4094(3) 0.3862(3) 0.41809(10)
O5 O 0.3893(3) -0.1183(2) 0.21054(8)
O6 O 0.2622(3) 0.0617(2) 0.15451(7)
C1 C 0.0962(4) 0.0646(3) 0.29155(9)
C2 C 0.2167(4) -0.0301(3) 0.27449(9)
H1 H 0.2613 -0.0961 0.2943
C3 C 0.2712(4) -0.0288(3) 0.22946(10)
C4 C 0.2037(4) 0.0699(3) 0.19927(10)
C5 C 0.0868(4) 0.1638(3) 0.21589(10)
H2 H 0.0423 0.2302 0.1962
C6 C 0.0334(4) 0.1612(3) 0.26190(10)
H3 H -0.0459 0.2260 0.2726
C7 C 0.0446(3) 0.0528(3) 0.34216(9)
H4 H 0.0042 -0.0409 0.3467
C8 C -0.1022(4) 0.1459(3) 0.36113(9)
H5 H -0.0976 0.2313 0.3437
C9 C -0.2883(4) 0.0897(4) 0.35658(12)
H6 H -0.3140 0.0732 0.3246
H7 H -0.3707 0.1546 0.3687
H8 H -0.2975 0.0061 0.3735
C10 C -0.0676(6) -0.1670(4) 0.50372(13)
H9 H -0.0558 -0.2500 0.5209
H10 H -0.1822 -0.1635 0.4898
H11 H -0.0532 -0.0907 0.5241
C11 C 0.4864(6) -0.2023(4) 0.24094(13)
H12 H 0.5633 -0.2600 0.2234
H13 H 0.4068 -0.2573 0.2587
H14 H 0.5548 -0.1465 0.2614
C12 C 0.2228(7) 0.1694(4) 0.12386(12)
H15 H 0.2714 0.1497 0.0940
H16 H 0.2728 0.2524 0.1354
H17 H 0.0975 0.1792 0.1214
C13 C 0.3073(5) 0.4091(3) 0.38788(12)
C14 C 0.2999(5) 0.5339(3) 0.35929(13)
H18 H 0.3935 0.5941 0.3681
H19 H 0.1888 0.5785 0.3639
H20 H 0.3125 0.5101 0.3273
C15 C -0.0412(4) 0.1775(3) 0.41123(9)
C16 C 0.1544(4) 0.2006(3) 0.40371(10)
H21 H 0.2186 0.2058 0.4330
C17 C 0.2048(4) 0.0743(3) 0.37619(9)
H22 H 0.3159 0.0867 0.3595
C18 C 0.2114(4) -0.0454(3) 0.40818(9)
C19 C 0.0637(4) -0.0488(3) 0.44127(10)
C20 C -0.0533(4) 0.0525(3) 0.44197(10)
H23 H -0.1474 0.0463 0.4624
C21 C -0.1388(4) 0.2984(3) 0.43276(10)
H24 H -0.1302 0.3756 0.4120
H25 H -0.2624 0.2752 0.4357
C22 C -0.0709(5) 0.3395(4) 0.47891(11)
H26 H -0.0661 0.2719 0.5013
C23 C -0.0183(6) 0.4580(4) 0.49097(14)
H27 H -0.0204 0.5292 0.4698
H28 H 0.0219 0.4729 0.5209
loop_
_geom_bond_atom_site_label_1
_geom_bond_atom_site_label_2
_geom_bond_site_symmetry_1
_geom_bond_site_symmetry_2
O1 C10 1_555 1_555
O2 C18 1_555 1_555
O3 C13 1_555 1_555
O4 C13 1_555 1_555
O5 C3 1_555 1_555
O6 C4 1_555 1_555
C1 C2 1_555 1_555
C2 H1 1_555 1_555
C3 C2 1_555 1_555
C4 C3 1_555 1_555
C5 C4 1_555 1_555
H2 C5 1_555 1_555
C6 C1 1_555 1_555
H3 C6 1_555 1_555
C7 C1 1_555 1_555
H4 C7 1_555 1_555
C8 C7 1_555 1_555
H5 C8 1_555 1_555
C9 C8 1_555 1_555
H6 C9 1_555 1_555
H7 C9 1_555 1_555
H8 C9 1_555 1_555
C10 H9 1_555 1_555
H10 C10 1_555 1_555
H11 C10 1_555 1_555
C11 O5 1_555 1_555
H12 C11 1_555 1_555
H13 C11 1_555 1_555
H14 C11 1_555 1_555
C12 O6 1_555 1_555
H15 C12 1_555 1_555
H16 C12 1_555 1_555
H17 C12 1_555 1_555
C13 C14 1_555 1_555
C14 H18 1_555 1_555
H19 C14 1_555 1_555
H20 C14 1_555 1_555
C15 C8 1_555 1_555
C16 O3 1_555 1_555
H21 C16 1_555 1_555
C17 C7 1_555 1_555
H22 C17 1_555 1_555
C18 C17 1_555 1_555
C19 O1 1_555 1_555
C20 C15 1_555 1_555
H23 C20 1_555 1_555
C21 C15 1_555 1_555
H24 C21 1_555 1_555
H25 C21 1_555 1_555
C22 C21 1_555 1_555
H26 C22 1_555 1_555
C23 C22 1_555 1_555
H27 C23 1_555 1_555
H28 C23 1_555 1_555
C5 C6 1_555 1_555
C15 C16 1_555 1_555
C16 C17 1_555 1_555
C18 C19 1_555 1_555
C19 C20 1_555 1_555

#END
