
#######################################################################
#
#                 Cambridge Crystallographic Data Centre
#                                CCDC 
#
#######################################################################
#
# If this CIF has been generated from an entry in the Cambridge 
# Structural Database, then it will include bibliographic, chemical, 
# crystal, experimental, refinement or atomic coordinate data resulting 
# from the CCDC's data processing and validation procedures.
#
#######################################################################

data_EHOFIQ
_chemical_compound_source        'aerial part of Piper kadsura'
_chemical_formula_moiety         'C21 H26 O5'
_chemical_name_systematic        "(7R*,8R*,3'S*,4'R*,5'R*)-Kadsurenin C"
_chemical_properties_biological  
'Platelet Activating Factor antagonistic activity'
_symmetry_cell_setting           orthorhombic
_symmetry_space_group_name_H-M   'P 21 21 21'
_symmetry_Int_Tables_number      19
_space_group_name_Hall           'P 2ac 2ab'
loop_
_symmetry_equiv_pos_site_id
_symmetry_equiv_pos_as_xyz
1 x,y,z
2 1/2-x,-y,1/2+z
3 -x,1/2+y,1/2-z
4 1/2+x,1/2-y,-z
_cell_length_a                   8.8191(11)
_cell_length_b                   13.791(3)
_cell_length_c                   15.947(3)
_cell_angle_alpha                90
_cell_angle_beta                 90
_cell_angle_gamma                90
_cell_volume                     1939.54
_exptl_crystal_colour            colorless
_exptl_crystal_description       block
_cell_formula_units_Z            4
loop_
_atom_site_label
_atom_site_type_symbol
_atom_site_fract_x
_atom_site_fract_y
_atom_site_fract_z
O1 O -0.0212(3) 0.3814(2) 0.53790(16)
O2 O -0.3113(3) 0.3999(2) 0.51632(18)
O3 O 0.3499(3) 0.2588(2) 0.34076(16)
H1 H 0.3694 0.2046 0.3588
O4 O 0.1787(4) 0.4087(2) 0.09988(19)
O5 O 0.3548(4) 0.07486(19) 0.25097(17)
C1 C -0.0481(4) 0.2950(3) 0.3182(2)
C2 C 0.0140(5) 0.3206(3) 0.3954(2)
H2 H 0.1178 0.3137 0.4039
C3 C -0.0754(4) 0.3560(3) 0.4596(2)
C4 C -0.2316(4) 0.3661(3) 0.4478(3)
C5 C -0.2937(4) 0.3415(3) 0.3711(3)
H3 H -0.3974 0.3484 0.3622
C6 C -0.2017(5) 0.3068(3) 0.3077(3)
H4 H -0.2450 0.2909 0.2564
C7 C 0.0503(4) 0.2569(3) 0.2488(2)
H5 H -0.0123 0.2555 0.1980
C8 C 0.1108(5) 0.1520(2) 0.2624(2)
H6 H 0.1241 0.1423 0.3229
C9 C 0.0083(6) 0.0712(3) 0.2299(3)
H7 H 0.0533 0.0095 0.2423
H8 H -0.0038 0.0778 0.1703
H9 H -0.0890 0.0755 0.2566
C10 C 0.5097(6) 0.0720(4) 0.2241(3)
H10 H 0.5574 0.0147 0.2459
H11 H 0.5619 0.1283 0.2445
H12 H 0.5136 0.0710 0.1640
C11 C 0.1352(5) 0.4028(3) 0.5447(3)
H13 H 0.1589 0.4189 0.6018
H14 H 0.1594 0.4567 0.5091
H15 H 0.1933 0.3472 0.5278
C12 C -0.4704(5) 0.4150(4) 0.5055(3)
H16 H -0.5133 0.4385 0.5569
H17 H -0.5180 0.3548 0.4905
H18 H -0.4869 0.4617 0.4618
C13 C 0.2288(5) 0.2414(3) 0.0848(2)
C14 C 0.2009(5) 0.3321(3) 0.1342(3)
C15 C 0.1951(4) 0.3177(2) 0.2275(2)
H19 H 0.1960 0.3797 0.2575
C16 C 0.3279(5) 0.2541(3) 0.2528(2)
H20 H 0.4203 0.2728 0.2228
C17 C 0.2693(5) 0.1563(3) 0.2223(2)
C18 C 0.2600(5) 0.1604(3) 0.1275(2)
H21 H 0.2767 0.1036 0.0975
C19 C 0.2128(7) 0.2492(4) -0.0096(3)
H22 H 0.2212 0.3122 -0.0377
C20 C 0.245(2) 0.1599(8) -0.0545(6)
C22 C 0.142(2) 0.1107(13) -0.0943(13)
C21? C 0.127(3) 0.168(3) -0.0492(12)
C23? C 0.221(7) 0.096(4) -0.101(3)
loop_
_geom_bond_atom_site_label_1
_geom_bond_atom_site_label_2
_geom_bond_site_symmetry_1
_geom_bond_site_symmetry_2
O1 C3 1_555 1_555
O2 C4 1_555 1_555
O3 H1 1_555 1_555
O4 C14 1_555 1_555
O5 C10 1_555 1_555
C1 C2 1_555 1_555
C2 H2 1_555 1_555
C3 C2 1_555 1_555
C4 C3 1_555 1_555
C5 C4 1_555 1_555
H3 C5 1_555 1_555
C6 C1 1_555 1_555
H4 C6 1_555 1_555
C7 C1 1_555 1_555
H5 C7 1_555 1_555
C8 C7 1_555 1_555
H6 C8 1_555 1_555
C9 C8 1_555 1_555
H7 C9 1_555 1_555
H8 C9 1_555 1_555
H9 C9 1_555 1_555
C10 H10 1_555 1_555
H11 C10 1_555 1_555
H12 C10 1_555 1_555
C11 O1 1_555 1_555
H13 C11 1_555 1_555
H14 C11 1_555 1_555
H15 C11 1_555 1_555
C12 O2 1_555 1_555
H16 C12 1_555 1_555
H17 C12 1_555 1_555
H18 C12 1_555 1_555
C13 C14 1_555 1_555
C14 C15 1_555 1_555
C15 C7 1_555 1_555
H19 C15 1_555 1_555
C16 O3 1_555 1_555
H20 C16 1_555 1_555
C17 O5 1_555 1_555
C18 C13 1_555 1_555
H21 C18 1_555 1_555
C19 C13 1_555 1_555
H22 C19 1_555 1_555
C20 C19 1_555 1_555
C22 C20 1_555 1_555
C5 C6 1_555 1_555
C8 C17 1_555 1_555
C15 C16 1_555 1_555
C16 C17 1_555 1_555
C17 C18 1_555 1_555

#END
