
#######################################################################
#
#                 Cambridge Crystallographic Data Centre
#                                CCDC 
#
#######################################################################
#
# If this CIF has been generated from an entry in the Cambridge 
# Structural Database, then it will include bibliographic, chemical, 
# crystal, experimental, refinement or atomic coordinate data resulting 
# from the CCDC's data processing and validation procedures.
#
#######################################################################

data_EHOGIR01
_chemical_formula_moiety         'C16 H36 N1 1+,C2 I4,Br1 1-'
_chemical_name_systematic        
'N,N,N-tributylbutan-1-aminium bromide tetraiodoethene'
_symmetry_cell_setting           triclinic
_symmetry_space_group_name_H-M   'P -1'
_symmetry_Int_Tables_number      2
_space_group_name_Hall           '-P 1'
loop_
_symmetry_equiv_pos_site_id
_symmetry_equiv_pos_as_xyz
1 x,y,z
2 -x,-y,-z
_cell_length_a                   13.4297(11)
_cell_length_b                   14.0614(12)
_cell_length_c                   15.1348(13)
_cell_angle_alpha                98.1200(10)
_cell_angle_beta                 101.3600(10)
_cell_angle_gamma                106.2410(10)
_cell_volume                     2631.08
_cell_formula_units_Z            4
loop_
_atom_site_label
_atom_site_type_symbol
_atom_site_fract_x
_atom_site_fract_y
_atom_site_fract_z
Br1 Br 0.71806(5) 0.36242(4) 0.89060(4)
Br2 Br 0.13500(5) 0.80166(5) 0.63316(4)
C1 C 0.5988(4) 0.7989(4) 0.1806(4)
H1 H 0.5966 0.7278 0.1800
H2 H 0.5285 0.7972 0.1436
C2 C 0.6836(5) 0.8459(4) 0.1331(4)
H3 H 0.7544 0.8458 0.1674
H4 H 0.6870 0.9170 0.1325
C3 C 0.6578(5) 0.7866(5) 0.0347(4)
H5 H 0.6547 0.7157 0.0362
H6 H 0.5861 0.7857 0.0015
C4 C 0.7385(5) 0.8298(5) -0.0178(4)
H7 H 0.7424 0.9002 -0.0192
H8 H 0.7164 0.7899 -0.0809
H9 H 0.8089 0.8274 0.0127
C5 C 0.7153(4) 0.8509(4) 0.3412(4)
H10 H 0.7233 0.8910 0.4030
H11 H 0.7754 0.8868 0.3170
C6 C 0.7269(5) 0.7489(4) 0.3529(4)
H12 H 0.7080 0.7032 0.2918
H13 H 0.6778 0.7175 0.3892
C7 C 0.8420(5) 0.7637(5) 0.4023(4)
H14 H 0.8893 0.7867 0.3617
H15 H 0.8636 0.8176 0.4585
C8 C 0.8580(5) 0.6681(5) 0.4292(5)
H16 H 0.8097 0.6436 0.4677
H17 H 0.9323 0.6829 0.4637
H18 H 0.8423 0.6160 0.3735
C9 C 0.5157(4) 0.7899(5) 0.3083(4)
H19 H 0.4501 0.7862 0.2627
H20 H 0.5183 0.7199 0.3056
C10 C 0.5053(5) 0.8294(5) 0.4027(4)
H21 H 0.4927 0.8957 0.4049
H22 H 0.5721 0.8387 0.4494
C11 C 0.4097(6) 0.7516(7) 0.4232(5)
H23 H 0.3447 0.7379 0.3730
H24 H 0.4253 0.6871 0.4254
C12 C 0.3894(7) 0.7901(8) 0.5124(6)
H25 H 0.4523 0.8003 0.5625
H26 H 0.3272 0.7407 0.5226
H27 H 0.3753 0.8546 0.5107
C13 C 0.6167(5) 0.9594(4) 0.2851(4)
H28 H 0.6819 0.9959 0.2675
H29 H 0.6240 0.9898 0.3501
C14 C 0.5205(5) 0.9766(4) 0.2254(4)
H30 H 0.5151 0.9516 0.1595
H31 H 0.4540 0.9387 0.2403
C15 C 0.5333(7) 1.0878(6) 0.2426(6)
H32 H 0.5996 1.1240 0.2263
H33 H 0.5432 1.1121 0.3094
C16 C 0.4422(6) 1.1165(6) 0.1909(6)
H34 H 0.4300 1.0914 0.1246
H35 H 0.4599 1.1904 0.2037
H36 H 0.3772 1.0864 0.2105
N1 N 0.6119(4) 0.8503(3) 0.2789(3)
C17 C 0.1573(4) 0.3347(4) 0.1956(4)
H37 H 0.1639 0.2792 0.1513
H38 H 0.2137 0.3974 0.1951
C18 C 0.1803(4) 0.3117(4) 0.2906(4)
H39 H 0.1143 0.2666 0.3009
H40 H 0.2049 0.3752 0.3378
C19 C 0.2670(5) 0.2601(5) 0.2987(4)
H41 H 0.2392 0.1943 0.2543
H42 H 0.3296 0.3027 0.2817
C20 C 0.3030(5) 0.2422(5) 0.3945(4)
H43 H 0.3294 0.3069 0.4391
H44 H 0.3605 0.2118 0.3961
H45 H 0.2425 0.1964 0.4103
C21 C 0.0248(5) 0.4184(4) 0.2335(4)
H46 H 0.0176 0.3850 0.2863
H47 H -0.0452 0.4267 0.2078
C22 C 0.1074(5) 0.5229(4) 0.2692(4)
H48 H 0.1068 0.5619 0.2197
H49 H 0.1796 0.5161 0.2875
C23 C 0.0832(5) 0.5798(4) 0.3521(4)
H50 H 0.1262 0.6522 0.3643
H51 H 0.0067 0.5754 0.3366
C24 C 0.1066(6) 0.5400(6) 0.4384(4)
H52 H 0.0645 0.4683 0.4271
H53 H 0.0876 0.5784 0.4881
H54 H 0.1830 0.5474 0.4563
C25 C -0.0356(4) 0.2444(4) 0.1394(4)
H55 H -0.0123 0.1962 0.1005
H56 H -0.0378 0.2217 0.1982
C26 C -0.1484(4) 0.2381(4) 0.0913(4)
H57 H -0.1723 0.2879 0.1274
H58 H -0.1496 0.2540 0.0295
C27 C -0.2232(5) 0.1318(4) 0.0820(4)
H59 H -0.1960 0.0826 0.0489
H60 H -0.2226 0.1177 0.1443
C28 C -0.3367(5) 0.1164(5) 0.0315(5)
H61 H -0.3662 0.1613 0.0663
H62 H -0.3801 0.0458 0.0249
H63 H -0.3378 0.1321 -0.0297
C29 C 0.0511(4) 0.3938(4) 0.0753(4)
H64 H -0.0208 0.3987 0.0506
H65 H 0.1018 0.4637 0.0945
C30 C 0.0824(5) 0.3373(4) -0.0019(4)
H66 H 0.1564 0.3360 0.0202
H67 H 0.0340 0.2665 -0.0206
C31 C 0.0758(5) 0.3876(4) -0.0837(4)
H68 H 0.1210 0.4595 -0.0638
H69 H 0.0010 0.3858 -0.1074
C32 C 0.1127(5) 0.3355(5) -0.1615(4)
H70 H 0.1879 0.3399 -0.1392
H71 H 0.1054 0.3691 -0.2138
H72 H 0.0685 0.2642 -0.1812
N2 N 0.0487(4) 0.3483(3) 0.1602(3)
C33 C 0.4244(6) 0.5567(5) 0.8044(5)
C34 C 0.3849(6) 0.5713(5) 0.7212(6)
I1 I 0.54919(3) 0.49258(3) 0.83266(3)
I2 I 0.44089(3) 0.53181(3) 0.60463(3)
I3 I 0.26833(3) 0.64608(3) 0.69478(3)
I4 I 0.36190(3) 0.59110(3) 0.91823(3)
C39 C 0.1159(8) 0.9258(7) 0.2346(8)
C40 C 0.0935(8) 0.9506(7) 0.3116(8)
I5 I 0.14142(3) 0.89299(3) 0.43094(3)
I6 I 0.20021(3) 0.81677(3) 0.21039(3)
I7 I 0.07045(3) 0.98078(3) 0.11585(3)
I8 I -0.00235(3) 1.04767(3) 0.32536(3)
C35? C 0.434(3) 0.549(2) 0.742(2)
C36? C 0.370(2) 0.585(2) 0.777(2)
C37? C 0.1357(11) 0.9045(10) 0.2922(9)
C38? C 0.0817(11) 0.9629(11) 0.2521(10)
loop_
_geom_bond_atom_site_label_1
_geom_bond_atom_site_label_2
_geom_bond_site_symmetry_1
_geom_bond_site_symmetry_2
C1 H1 1_555 1_555
H2 C1 1_555 1_555
C2 C1 1_555 1_555
H3 C2 1_555 1_555
H4 C2 1_555 1_555
C3 C2 1_555 1_555
H5 C3 1_555 1_555
H6 C3 1_555 1_555
C4 C3 1_555 1_555
H7 C4 1_555 1_555
H8 C4 1_555 1_555
H9 C4 1_555 1_555
C5 H10 1_555 1_555
H11 C5 1_555 1_555
C6 C5 1_555 1_555
H12 C6 1_555 1_555
H13 C6 1_555 1_555
C7 C6 1_555 1_555
H14 C7 1_555 1_555
H15 C7 1_555 1_555
C8 C7 1_555 1_555
H16 C8 1_555 1_555
H17 C8 1_555 1_555
H18 C8 1_555 1_555
C9 H19 1_555 1_555
H20 C9 1_555 1_555
C10 C9 1_555 1_555
H21 C10 1_555 1_555
H22 C10 1_555 1_555
C11 C10 1_555 1_555
H23 C11 1_555 1_555
H24 C11 1_555 1_555
C12 C11 1_555 1_555
H25 C12 1_555 1_555
H26 C12 1_555 1_555
H27 C12 1_555 1_555
C13 H28 1_555 1_555
H29 C13 1_555 1_555
C14 C13 1_555 1_555
H30 C14 1_555 1_555
H31 C14 1_555 1_555
C15 C14 1_555 1_555
H32 C15 1_555 1_555
H33 C15 1_555 1_555
C16 C15 1_555 1_555
H34 C16 1_555 1_555
H35 C16 1_555 1_555
H36 C16 1_555 1_555
N1 C1 1_555 1_555
C17 H37 1_555 1_555
H38 C17 1_555 1_555
C18 C17 1_555 1_555
H39 C18 1_555 1_555
H40 C18 1_555 1_555
C19 C18 1_555 1_555
H41 C19 1_555 1_555
H42 C19 1_555 1_555
C20 C19 1_555 1_555
H43 C20 1_555 1_555
H44 C20 1_555 1_555
H45 C20 1_555 1_555
C21 H46 1_555 1_555
H47 C21 1_555 1_555
C22 C21 1_555 1_555
H48 C22 1_555 1_555
H49 C22 1_555 1_555
C23 C22 1_555 1_555
H50 C23 1_555 1_555
H51 C23 1_555 1_555
C24 C23 1_555 1_555
H52 C24 1_555 1_555
H53 C24 1_555 1_555
H54 C24 1_555 1_555
C25 H55 1_555 1_555
H56 C25 1_555 1_555
C26 C25 1_555 1_555
H57 C26 1_555 1_555
H58 C26 1_555 1_555
C27 C26 1_555 1_555
H59 C27 1_555 1_555
H60 C27 1_555 1_555
C28 C27 1_555 1_555
H61 C28 1_555 1_555
H62 C28 1_555 1_555
H63 C28 1_555 1_555
C29 H64 1_555 1_555
H65 C29 1_555 1_555
C30 C29 1_555 1_555
H66 C30 1_555 1_555
H67 C30 1_555 1_555
C31 C30 1_555 1_555
H68 C31 1_555 1_555
H69 C31 1_555 1_555
C32 C31 1_555 1_555
H70 C32 1_555 1_555
H71 C32 1_555 1_555
H72 C32 1_555 1_555
N2 C17 1_555 1_555
C33 C34 1_555 1_555
C34 I2 1_555 1_555
I1 C33 1_555 1_555
I3 C34 1_555 1_555
I4 C33 1_555 1_555
C39 C40 1_555 1_555
C40 I5 1_555 1_555
I6 C39 1_555 1_555
I7 C39 1_555 1_555
I8 C40 1_555 1_555
C5 N1 1_555 1_555
C9 N1 1_555 1_555
C13 N1 1_555 1_555
C21 N2 1_555 1_555
C25 N2 1_555 1_555
C29 N2 1_555 1_555

#END
