
#######################################################################
#
#                 Cambridge Crystallographic Data Centre
#                                CCDC 
#
#######################################################################
#
# If this CIF has been generated from an entry in the Cambridge 
# Structural Database, then it will include bibliographic, chemical, 
# crystal, experimental, refinement or atomic coordinate data resulting 
# from the CCDC's data processing and validation procedures.
#
#######################################################################

data_EHOHEP
_chemical_name_common            
2-((bis(4-fluorophenyl)methyl)sulfinyl)acetamide
_chemical_formula_moiety         'C15 H13 F2 N1 O2 S1'
_chemical_name_systematic        
2-(bis(4-fluorophenyl)methylsulfonyl)acetamide
_symmetry_cell_setting           monoclinic
_symmetry_space_group_name_H-M   'C 2/c'
_symmetry_Int_Tables_number      15
_space_group_name_Hall           '-C 2yn'
loop_
_symmetry_equiv_pos_site_id
_symmetry_equiv_pos_as_xyz
1 x,y,z
2 -x,y,1/2-z
3 1/2+x,1/2+y,z
4 1/2-x,1/2+y,1/2-z
5 -x,-y,-z
6 x,-y,1/2+z
7 1/2-x,1/2-y,-z
8 1/2+x,1/2-y,1/2+z
_cell_length_a                   23.832(8)
_cell_length_b                   9.763(2)
_cell_length_c                   14.443(4)
_cell_angle_alpha                90
_cell_angle_beta                 120.24(3)
_cell_angle_gamma                90
_cell_volume                     2903.2
_exptl_crystal_colour            colorless
_exptl_crystal_description       prism
_cell_formula_units_Z            8
loop_
_atom_site_label
_atom_site_type_symbol
_atom_site_fract_x
_atom_site_fract_y
_atom_site_fract_z
S1 S 0.16533(4) 0.22616(9) 0.21637(7)
N1 N 0.26554(15) 0.3870(3) 0.1006(3)
H1 H 0.2820 0.3634 0.0620
H2 H 0.2783 0.4609 0.1381
C1 C 0.03856(18) 0.4062(4) 0.1708(3)
H3 H 0.0262 0.3148 0.1554
F1 F -0.0322(2) 0.7354(4) 0.0819(4)
O1 O 0.19951(16) 0.2035(3) 0.0522(3)
F2 F 0.08277(16) 0.0252(3) 0.5663(3)
C2 C -0.0060(2) 0.5060(6) 0.1156(4)
H4 H -0.0483 0.4843 0.0632
O2 O 0.22097(12) 0.1353(2) 0.2832(2)
C3 C 0.0135(3) 0.6372(6) 0.1396(5)
C4 C 0.0740(3) 0.6758(4) 0.2162(5)
H5 H 0.0851 0.7676 0.2319
C5 C 0.1187(2) 0.5716(4) 0.2704(4)
H6 H 0.1610 0.5940 0.3223
C6 C 0.10126(16) 0.4368(3) 0.2486(3)
C7 C 0.15162(16) 0.3285(3) 0.3093(3)
H7 H 0.1924 0.3748 0.3587
C8 C 0.13390(15) 0.2356(3) 0.3749(3)
C9 C 0.15806(18) 0.2702(5) 0.4812(3)
H8 H 0.1866 0.3437 0.5097
C10 C 0.1417(2) 0.2009(6) 0.5452(3)
H9 H 0.1581 0.2270 0.6162
C11 C 0.1010(2) 0.0932(6) 0.5039(4)
C12 C 0.0779(2) 0.0534(5) 0.4025(5)
H10 H 0.0506 -0.0222 0.3760
C13 C 0.0945(2) 0.1239(4) 0.3369(4)
H11 H 0.0788 0.0951 0.2667
C14 C 0.1959(2) 0.3648(3) 0.1731(3)
H12 H 0.1616 0.4309 0.1335
H13 H 0.2308 0.4106 0.2349
C15 C 0.22084(17) 0.3102(4) 0.1026(3)
loop_
_geom_bond_atom_site_label_1
_geom_bond_atom_site_label_2
_geom_bond_site_symmetry_1
_geom_bond_site_symmetry_2
S1 O2 1_555 1_555
N1 H1 1_555 1_555
H2 N1 1_555 1_555
C1 H3 1_555 1_555
F1 C3 1_555 1_555
O1 C15 1_555 1_555
F2 C11 1_555 1_555
C2 C1 1_555 1_555
H4 C2 1_555 1_555
C3 C2 1_555 1_555
C4 C3 1_555 1_555
H5 C4 1_555 1_555
C5 C4 1_555 1_555
H6 C5 1_555 1_555
C6 C1 1_555 1_555
C7 S1 1_555 1_555
H7 C7 1_555 1_555
C8 C7 1_555 1_555
C9 C8 1_555 1_555
H8 C9 1_555 1_555
C10 C9 1_555 1_555
H9 C10 1_555 1_555
C11 C10 1_555 1_555
C12 C11 1_555 1_555
H10 C12 1_555 1_555
C13 C8 1_555 1_555
H11 C13 1_555 1_555
C14 S1 1_555 1_555
H12 C14 1_555 1_555
H13 C14 1_555 1_555
C15 N1 1_555 1_555
C5 C6 1_555 1_555
C6 C7 1_555 1_555
C12 C13 1_555 1_555
C14 C15 1_555 1_555

#END
