
#######################################################################
#
#                 Cambridge Crystallographic Data Centre
#                                CCDC 
#
#######################################################################
#
# If this CIF has been generated from an entry in the Cambridge 
# Structural Database, then it will include bibliographic, chemical, 
# crystal, experimental, refinement or atomic coordinate data resulting 
# from the CCDC's data processing and validation procedures.
#
#######################################################################

data_EHOMIY
_chemical_name_common            
N,N'-(Butane-1,4-diylbis(oxy))bis(1-(2-nitrophenyl)methanimine)
_chemical_formula_moiety         'C18 H18 N4 O6'
_chemical_name_systematic        
2,2'-dinitro-2,2'-[(1,4-butylene)dioxybis(nitrilomethylidyne)]dibenzene
_symmetry_cell_setting           monoclinic
_symmetry_space_group_name_H-M   'P 21/c'
_symmetry_Int_Tables_number      14
_space_group_name_Hall           '-P 2ybc'
loop_
_symmetry_equiv_pos_site_id
_symmetry_equiv_pos_as_xyz
1 x,y,z
2 -x,1/2+y,1/2-z
3 -x,-y,-z
4 x,1/2-y,1/2+z
_cell_length_a                   4.668(4)
_cell_length_b                   15.112(13)
_cell_length_c                   12.756(11)
_cell_angle_alpha                90
_cell_angle_beta                 95.459(10)
_cell_angle_gamma                90
_cell_volume                     895.763
_exptl_crystal_colour            colorless
_exptl_crystal_description       prism
_cell_formula_units_Z            2
loop_
_atom_site_label
_atom_site_type_symbol
_atom_site_fract_x
_atom_site_fract_y
_atom_site_fract_z
O1 O -0.3506(3) 0.23138(7) 0.33471(7)
O2 O -0.5600(2) 0.19776(6) 0.47354(8)
O3 O -0.0096(2) 0.45771(6) 0.19376(7)
N1 N -0.3737(3) 0.23670(8) 0.42948(9)
N2 N 0.1045(3) 0.42424(8) 0.29079(8)
C1 C -0.1642(3) 0.29040(9) 0.49400(11)
C2 C -0.0229(3) 0.36007(9) 0.44858(10)
C3 C 0.1861(3) 0.40437(9) 0.51424(11)
H1 H 0.2852 0.4514 0.4877
C4 C 0.2486(4) 0.37930(10) 0.61873(11)
H2 H 0.3918 0.4089 0.6607
C5 C 0.1010(4) 0.31107(11) 0.66092(11)
H3 H 0.1418 0.2955 0.7313
C6 C -0.1076(3) 0.26598(10) 0.59837(11)
H4 H -0.2087 0.2198 0.6260
C7 C -0.0964(3) 0.39168(8) 0.34017(10)
H5 H -0.2839 0.3880 0.3085
C8 C 0.2231(3) 0.48554(10) 0.13530(10)
H6 H 0.3364 0.4348 0.1176
H7 H 0.3477 0.5263 0.1769
C9 C 0.0929(3) 0.53037(9) 0.03637(9)
H8 H 0.2468 0.5538 -0.0016
H9 H -0.0230 0.5799 0.0558
O1B O 0.3506(3) 0.76862(7) -0.33471(7)
O2B O 0.5600(2) 0.80224(6) -0.47354(8)
O3B O 0.0096(2) 0.54229(6) -0.19376(7)
N1B N 0.3737(3) 0.76330(8) -0.42948(9)
N2B N -0.1045(3) 0.57576(8) -0.29079(8)
C1B C 0.1642(3) 0.70960(9) -0.49400(11)
C2B C 0.0229(3) 0.63993(9) -0.44858(10)
C3B C -0.1861(3) 0.59563(9) -0.51424(11)
H1B H -0.2852 0.5486 -0.4877
C4B C -0.2486(4) 0.62070(10) -0.61873(11)
H2B H -0.3918 0.5911 -0.6607
C5B C -0.1010(4) 0.68893(11) -0.66092(11)
H3B H -0.1418 0.7045 -0.7313
C6B C 0.1076(3) 0.73402(10) -0.59837(11)
H4B H 0.2087 0.7802 -0.6260
C7B C 0.0964(3) 0.60832(8) -0.34017(10)
H5B H 0.2839 0.6120 -0.3085
C8B C -0.2231(3) 0.51446(10) -0.13530(10)
H6B H -0.3364 0.5652 -0.1176
H7B H -0.3477 0.4737 -0.1769
C9B C -0.0929(3) 0.46963(9) -0.03637(9)
H8B H -0.2468 0.4462 0.0016
H9B H 0.0230 0.4201 -0.0558
loop_
_geom_bond_atom_site_label_1
_geom_bond_atom_site_label_2
_geom_bond_site_symmetry_1
_geom_bond_site_symmetry_2
O1 N1 1_555 1_555
O2 N1 1_555 1_555
O3 N2 1_555 1_555
N1 C1 1_555 1_555
N2 C7 1_555 1_555
C1 C2 1_555 1_555
C2 C3 1_555 1_555
C3 H1 1_555 1_555
C4 C3 1_555 1_555
H2 C4 1_555 1_555
C5 C4 1_555 1_555
H3 C5 1_555 1_555
C6 C1 1_555 1_555
H4 C6 1_555 1_555
C7 C2 1_555 1_555
H5 C7 1_555 1_555
C8 O3 1_555 1_555
H6 C8 1_555 1_555
H7 C8 1_555 1_555
C9 C8 1_555 1_555
H8 C9 1_555 1_555
H9 C9 1_555 1_555
O1B N1B 1_555 1_555
O2B N1B 1_555 1_555
O3B N2B 1_555 1_555
N1B C1B 1_555 1_555
N2B C7B 1_555 1_555
C1B C2B 1_555 1_555
C2B C3B 1_555 1_555
C3B H1B 1_555 1_555
C4B C3B 1_555 1_555
H2B C4B 1_555 1_555
C5B C4B 1_555 1_555
H3B C5B 1_555 1_555
C6B C1B 1_555 1_555
H4B C6B 1_555 1_555
C7B C2B 1_555 1_555
H5B C7B 1_555 1_555
C8B O3B 1_555 1_555
H6B C8B 1_555 1_555
H7B C8B 1_555 1_555
C9B C9 1_555 1_555
H8B C9B 1_555 1_555
H9B C9B 1_555 1_555
C5 C6 1_555 1_555
C5B C6B 1_555 1_555
C8B C9B 1_555 1_555

#END
