
#######################################################################
#
#                 Cambridge Crystallographic Data Centre
#                                CCDC 
#
#######################################################################
#
# If this CIF has been generated from an entry in the Cambridge 
# Structural Database, then it will include bibliographic, chemical, 
# crystal, experimental, refinement or atomic coordinate data resulting 
# from the CCDC's data processing and validation procedures.
#
#######################################################################

data_EHOMET
_chemical_name_common            
(2S,4S)-cis-gamma-(4-Bromophenyl)-alpha,gamma-dimethyl-gamma-butyrolactone
_chemical_formula_moiety         'C12 H13 Br1 O2'
_chemical_name_systematic        
(3S,5S)-cis-5-(4-Bromophenyl)-3,5-dimethyltetrahydrofuran-2-one
_symmetry_cell_setting           orthorhombic
_symmetry_space_group_name_H-M   'P 21 21 21'
_symmetry_Int_Tables_number      19
_space_group_name_Hall           'P 2ac 2ab'
loop_
_symmetry_equiv_pos_site_id
_symmetry_equiv_pos_as_xyz
1 x,y,z
2 1/2-x,-y,1/2+z
3 -x,1/2+y,1/2-z
4 1/2+x,1/2-y,-z
_cell_length_a                   5.7771(6)
_cell_length_b                   7.9179(8)
_cell_length_c                   25.879(3)
_cell_angle_alpha                90
_cell_angle_beta                 90
_cell_angle_gamma                90
_cell_volume                     1183.77
_exptl_crystal_colour            colorless
_cell_formula_units_Z            4
loop_
_atom_site_label
_atom_site_type_symbol
_atom_site_fract_x
_atom_site_fract_y
_atom_site_fract_z
Br1 Br 0.63261(10) 0.22639(8) 0.139878(18)
O1 O 0.5677(5) 0.2673(5) 0.40070(12)
O2 O 0.4177(6) 0.4047(7) 0.46751(14)
C1 C 0.5835(8) 0.3715(6) 0.44214(17)
C2 C 0.8283(8) 0.4297(7) 0.44864(19)
C3 C 0.9279(8) 0.4007(7) 0.39501(19)
C4 C 0.7946(6) 0.2489(6) 0.37561(16)
C5 C 0.7537(6) 0.2466(6) 0.31821(17)
C6 C 0.5567(8) 0.1720(7) 0.2972(2)
C7 C 0.5214(9) 0.1676(7) 0.2446(2)
C8 C 0.6859(7) 0.2330(6) 0.21220(16)
C9 C 0.8846(8) 0.3033(7) 0.23126(19)
C10 C 0.9190(7) 0.3101(6) 0.2838(2)
C11 C 0.8508(14) 0.6051(9) 0.4702(3)
C12 C 0.9013(15) 0.0823(8) 0.3931(2)
H1 H 0.897(9) 0.355(7) 0.469(2)
H2 H 0.898(7) 0.504(6) 0.3764(16)
H3 H 1.084(9) 0.372(7) 0.3941(19)
H4 H 0.446(11) 0.141(9) 0.326(3)
H5 H 0.414(9) 0.100(7) 0.2312(19)
H6 H 0.992(7) 0.365(5) 0.2112(16)
H7 H 1.041(10) 0.377(7) 0.2961(19)
H8 H 1.012(15) 0.664(12) 0.479(3)
H9 H 0.775(13) 0.616(11) 0.5049(17)
H10 H 0.748(12) 0.698(9) 0.449(3)
H11 H 0.807(8) -0.014(7) 0.379(2)
H12 H 1.040(11) 0.067(8) 0.378(2)
H13 H 0.925(9) 0.085(6) 0.428(2)
loop_
_geom_bond_atom_site_label_1
_geom_bond_atom_site_label_2
_geom_bond_site_symmetry_1
_geom_bond_site_symmetry_2
Br1 C8 1_555 1_555
O1 C1 1_555 1_555
O2 C1 1_555 1_555
C1 C2 1_555 1_555
C2 C3 1_555 1_555
C3 C4 1_555 1_555
C4 O1 1_555 1_555
C5 C4 1_555 1_555
C6 C5 1_555 1_555
C7 C6 1_555 1_555
C8 C7 1_555 1_555
C9 C8 1_555 1_555
C10 C5 1_555 1_555
C11 C2 1_555 1_555
C12 C4 1_555 1_555
H1 C2 1_555 1_555
H2 C3 1_555 1_555
H3 C3 1_555 1_555
H4 C6 1_555 1_555
H5 C7 1_555 1_555
H6 C9 1_555 1_555
H7 C10 1_555 1_555
H8 C11 1_555 1_555
H9 C11 1_555 1_555
H10 C11 1_555 1_555
H11 C12 1_555 1_555
H12 C12 1_555 1_555
H13 C12 1_555 1_555
C9 C10 1_555 1_555

#END
