
#######################################################################
#
#                 Cambridge Crystallographic Data Centre
#                                CCDC 
#
#######################################################################
#
# If this CIF has been generated from an entry in the Cambridge 
# Structural Database, then it will include bibliographic, chemical, 
# crystal, experimental, refinement or atomic coordinate data resulting 
# from the CCDC's data processing and validation procedures.
#
#######################################################################

data_EHOWAA
_chemical_formula_moiety         'C11 H11 N2 1+,H2 O1,Cl1 1-'
_chemical_name_systematic        
'1-Methyl-4-(pyridin-4-yl)pyridinium chloride monohydrate'
_symmetry_cell_setting           orthorhombic
_symmetry_space_group_name_H-M   'P 21 21 21'
_symmetry_Int_Tables_number      19
_space_group_name_Hall           'P 2ac 2ab'
loop_
_symmetry_equiv_pos_site_id
_symmetry_equiv_pos_as_xyz
1 x,y,z
2 1/2-x,-y,1/2+z
3 -x,1/2+y,1/2-z
4 1/2+x,1/2-y,-z
_cell_length_a                   11.381(5)
_cell_length_b                   13.172(6)
_cell_length_c                   30.092(13)
_cell_angle_alpha                90
_cell_angle_beta                 90
_cell_angle_gamma                90
_cell_volume                     4511.11
_cell_formula_units_Z            16
loop_
_atom_site_label
_atom_site_type_symbol
_atom_site_fract_x
_atom_site_fract_y
_atom_site_fract_z
Cl1 Cl 0.92549(14) 0.11688(13) 0.27156(5)
Cl2 Cl 0.45980(13) 0.82808(13) 0.27180(4)
Cl3 Cl 0.91698(13) 0.85177(12) 0.10979(6)
Cl4 Cl 0.13033(13) 0.87586(13) 0.60316(5)
O1 O 0.4265(4) 0.6205(3) 0.32670(13)
O2 O 1.1269(4) 0.8219(3) 0.17637(13)
O3 O 0.6677(4) 0.8205(4) 0.34125(18)
O4 O 1.1277(4) 0.1424(4) 0.34277(18)
N1 N 0.4723(4) 0.9017(3) 0.64118(12)
N2 N 0.8950(4) 0.8450(4) 0.47162(14)
C1 C 0.6694(4) 0.8779(4) 0.61971(14)
H1 H 0.7476 0.8699 0.6279
C2 C 0.5864(4) 0.8923(4) 0.65156(16)
H2 H 0.6092 0.8958 0.6812
C3 C 0.4398(4) 0.8982(4) 0.59850(16)
H3 H 0.3608 0.9054 0.5913
C4 C 0.5199(4) 0.8842(4) 0.56536(15)
H4 H 0.4949 0.8809 0.5360
C5 C 0.6385(4) 0.8749(3) 0.57529(14)
C6 C 0.7271(4) 0.8618(3) 0.53996(14)
C7 C 0.8456(4) 0.8784(4) 0.54692(16)
H5 H 0.8718 0.8952 0.5753
C8 C 0.9252(5) 0.8707(4) 0.51303(16)
H6 H 1.0039 0.8839 0.5191
C9 C 0.7821(5) 0.8280(5) 0.46449(17)
H7 H 0.7593 0.8096 0.4359
C10 C 0.6955(5) 0.8358(4) 0.49652(14)
H8 H 0.6172 0.8239 0.4893
C41 C 0.3829(5) 0.9184(5) 0.67642(17)
H33 H 0.4207 0.9188 0.7050
H34 H 0.3258 0.8649 0.6755
H35 H 0.3447 0.9825 0.6716
N3 N 0.5720(3) 0.8732(3) 0.14497(12)
N4 N 0.1490(4) 0.8456(4) -0.02562(14)
C11 C 0.5264(4) 0.8716(4) 0.06870(14)
H9 H 0.5515 0.8734 0.0393
C12 C 0.6073(4) 0.8792(4) 0.10215(15)
H10 H 0.6864 0.8885 0.0955
C13 C 0.4575(4) 0.8606(4) 0.15522(15)
H11 H 0.4347 0.8558 0.1848
C14 C 0.3754(4) 0.8550(4) 0.12264(15)
H12 H 0.2967 0.8470 0.1301
C15 C 0.4083(4) 0.8612(3) 0.07781(13)
C16 C 0.3188(4) 0.8555(4) 0.04223(14)
C17 C 0.3488(5) 0.8381(4) -0.00174(14)
H13 H 0.4272 0.8294 -0.0096
C18 C 0.2634(5) 0.8335(4) -0.03366(16)
H14 H 0.2865 0.8213 -0.0628
C19 C 0.1201(5) 0.8621(4) 0.01619(17)
H15 H 0.0408 0.8699 0.0229
C20 C 0.1998(4) 0.8685(4) 0.05060(16)
H16 H 0.1739 0.8816 0.0794
C42 C 0.6613(5) 0.8825(5) 0.18104(16)
H36 H 0.6234 0.8759 0.2094
H37 H 0.6988 0.9476 0.1792
H38 H 0.7191 0.8299 0.1778
N5 N -0.0272(4) 0.8624(3) 0.29248(13)
N6 N 0.3911(4) 0.8884(4) 0.46445(14)
C21 C 0.0152(4) 0.8736(4) 0.36862(15)
H17 H -0.0112 0.8749 0.3979
C22 C -0.0637(4) 0.8668(4) 0.33470(16)
H18 H -0.1437 0.8653 0.3410
C23 C 0.0885(5) 0.8664(4) 0.28308(16)
H19 H 0.1131 0.8638 0.2536
C24 C 0.1691(4) 0.8741(4) 0.31575(14)
H20 H 0.2486 0.8765 0.3086
C25 C 0.1349(4) 0.8786(4) 0.35982(14)
C26 C 0.2223(4) 0.8849(4) 0.39641(14)
C27 C 0.1915(5) 0.9064(4) 0.43951(16)
H21 H 0.1138 0.9205 0.4469
C28 C 0.2779(5) 0.9067(4) 0.47184(17)
H22 H 0.2551 0.9207 0.5009
C29 C 0.4198(5) 0.8673(4) 0.42314(15)
H23 H 0.4985 0.8542 0.4170
C30 C 0.3411(4) 0.8633(4) 0.38824(16)
H24 H 0.3665 0.8466 0.3598
C43 C -0.1143(5) 0.8545(5) 0.25614(17)
H39 H -0.1920 0.8519 0.2685
H40 H -0.0998 0.7940 0.2393
H41 H -0.1077 0.9127 0.2371
N7 N 0.4346(4) 1.0928(3) 0.29395(12)
N8 N 0.8466(4) 1.1016(3) 0.46803(14)
C31 C 0.4764(4) 1.1013(4) 0.37016(15)
H25 H 0.4492 1.1079 0.3992
C32 C 0.3964(5) 1.1025(4) 0.33541(17)
H26 H 0.3166 1.1101 0.3411
C33 C 0.5488(5) 1.0834(5) 0.28504(15)
H27 H 0.5735 1.0775 0.2557
C34 C 0.6297(4) 1.0824(4) 0.31834(15)
H28 H 0.7089 1.0762 0.3113
C35 C 0.5966(4) 1.0904(4) 0.36264(14)
C36 C 0.6823(4) 1.0927(4) 0.39855(14)
C37 C 0.6488(5) 1.0871(4) 0.44283(15)
H29 H 0.5698 1.0799 0.4502
C38 C 0.7325(5) 1.0920(4) 0.47606(16)
H30 H 0.7077 1.0885 0.5055
C39 C 0.8785(5) 1.1053(5) 0.42583(18)
H31 H 0.9582 1.1113 0.4196
C40 C 0.8019(4) 1.1009(4) 0.39057(16)
H32 H 0.8301 1.1034 0.3616
C44 C 0.3486(5) 1.0933(5) 0.25669(17)
H42 H 0.2706 1.1012 0.2684
H43 H 0.3538 1.0304 0.2407
H44 H 0.3659 1.1487 0.2370
loop_
_geom_bond_atom_site_label_1
_geom_bond_atom_site_label_2
_geom_bond_site_symmetry_1
_geom_bond_site_symmetry_2
N1 C2 1_555 1_555
N2 C8 1_555 1_555
N3 C12 1_555 1_555
N4 C18 1_555 1_555
N5 C22 1_555 1_555
N6 C28 1_555 1_555
N7 C32 1_555 1_555
N8 C38 1_555 1_555
C1 H1 1_555 1_555
C2 C1 1_555 1_555
H2 C2 1_555 1_555
C3 N1 1_555 1_555
H3 C3 1_555 1_555
C4 C3 1_555 1_555
H4 C4 1_555 1_555
C5 C1 1_555 1_555
C6 C5 1_555 1_555
C7 C6 1_555 1_555
H5 C7 1_555 1_555
C8 C7 1_555 1_555
H6 C8 1_555 1_555
C9 N2 1_555 1_555
H7 C9 1_555 1_555
C10 C6 1_555 1_555
H8 C10 1_555 1_555
C11 H9 1_555 1_555
C12 C11 1_555 1_555
H10 C12 1_555 1_555
C13 N3 1_555 1_555
H11 C13 1_555 1_555
C14 C13 1_555 1_555
H12 C14 1_555 1_555
C15 C11 1_555 1_555
C16 C15 1_555 1_555
C17 C16 1_555 1_555
H13 C17 1_555 1_555
C18 C17 1_555 1_555
H14 C18 1_555 1_555
C19 N4 1_555 1_555
H15 C19 1_555 1_555
C20 C16 1_555 1_555
H16 C20 1_555 1_555
C21 H17 1_555 1_555
C22 C21 1_555 1_555
H18 C22 1_555 1_555
C23 N5 1_555 1_555
H19 C23 1_555 1_555
C24 C23 1_555 1_555
H20 C24 1_555 1_555
C25 C21 1_555 1_555
C26 C25 1_555 1_555
C27 C26 1_555 1_555
H21 C27 1_555 1_555
C28 C27 1_555 1_555
H22 C28 1_555 1_555
C29 N6 1_555 1_555
H23 C29 1_555 1_555
C30 C26 1_555 1_555
H24 C30 1_555 1_555
C31 H25 1_555 1_555
C32 C31 1_555 1_555
H26 C32 1_555 1_555
C33 N7 1_555 1_555
H27 C33 1_555 1_555
C34 C33 1_555 1_555
H28 C34 1_555 1_555
C35 C31 1_555 1_555
C36 C35 1_555 1_555
C37 C36 1_555 1_555
H29 C37 1_555 1_555
C38 C37 1_555 1_555
H30 C38 1_555 1_555
C39 N8 1_555 1_555
H31 C39 1_555 1_555
C40 C36 1_555 1_555
H32 C40 1_555 1_555
C41 N1 1_555 1_555
H33 C41 1_555 1_555
H34 C41 1_555 1_555
H35 C41 1_555 1_555
C42 N3 1_555 1_555
H36 C42 1_555 1_555
H37 C42 1_555 1_555
H38 C42 1_555 1_555
C43 N5 1_555 1_555
H39 C43 1_555 1_555
H40 C43 1_555 1_555
H41 C43 1_555 1_555
C44 N7 1_555 1_555
H42 C44 1_555 1_555
H43 C44 1_555 1_555
H44 C44 1_555 1_555
C4 C5 1_555 1_555
C9 C10 1_555 1_555
C14 C15 1_555 1_555
C19 C20 1_555 1_555
C24 C25 1_555 1_555
C29 C30 1_555 1_555
C34 C35 1_555 1_555
C39 C40 1_555 1_555

#END
