
#######################################################################
#
#                 Cambridge Crystallographic Data Centre
#                                CCDC 
#
#######################################################################
#
# If this CIF has been generated from an entry in the Cambridge 
# Structural Database, then it will include bibliographic, chemical, 
# crystal, experimental, refinement or atomic coordinate data resulting 
# from the CCDC's data processing and validation procedures.
#
#######################################################################

data_EHOXEG
_chemical_formula_moiety         'C25 H32 O3'
_chemical_name_systematic        
1-(4-((t-butyl(dimethyl)silyl)oxy)-5-(hydroxymethyl)-3-methoxytetrahydrofuran-2-yl)pyrimidine-2,4(1H,3H)-dione
_symmetry_cell_setting           monoclinic
_symmetry_space_group_name_H-M   'P 21/n'
_symmetry_Int_Tables_number      14
_space_group_name_Hall           '-P 2yn'
loop_
_symmetry_equiv_pos_site_id
_symmetry_equiv_pos_as_xyz
1 x,y,z
2 1/2-x,1/2+y,1/2-z
3 -x,-y,-z
4 1/2+x,1/2-y,1/2+z
_cell_length_a                   12.4475(11)
_cell_length_b                   10.8201(9)
_cell_length_c                   17.2007(12)
_cell_angle_alpha                90
_cell_angle_beta                 97.504(9)
_cell_angle_gamma                90
_cell_volume                     2296.8
_exptl_crystal_colour            colorless
_exptl_crystal_description       block
_chemical_melting_point          '410 K'
_cell_formula_units_Z            4
_exptl_crystal_recrystallization_method 'petroleum ether / ethyl acetate'
loop_
_atom_site_label
_atom_site_type_symbol
_atom_site_fract_x
_atom_site_fract_y
_atom_site_fract_z
O1 O 0.9557(2) 0.5449(3) 0.68762(16)
O2 O 0.56182(17) 0.4302(2) 0.41885(11)
O3 O 0.64351(16) 0.46986(19) 0.31328(10)
C1 C 0.72517(19) 0.6222(2) 0.50274(14)
C2 C 0.7096(2) 0.5257(2) 0.55936(14)
H1 H 0.6450 0.4814 0.5526
C3 C 0.7833(2) 0.4975(3) 0.62050(14)
C4 C 0.8872(2) 0.5664(3) 0.63139(17)
C5 C 0.9077(2) 0.6631(2) 0.57383(15)
C6 C 0.82968(19) 0.6870(2) 0.51411(14)
H2 H 0.8425 0.7476 0.4781
C7 C 0.62390(19) 0.6934(2) 0.46735(13)
H3 H 0.5561 0.6622 0.4831
C8 C 0.62642(19) 0.8301(2) 0.45625(14)
C9 C 0.6005(2) 0.8841(3) 0.38353(16)
H4 H 0.5825 0.8347 0.3395
C10 C 0.6014(3) 1.0108(3) 0.3760(2)
H5 H 0.5840 1.0464 0.3267
C11 C 0.6275(3) 1.0848(3) 0.4403(2)
H6 H 0.6287 1.1702 0.4348
C12 C 0.6516(3) 1.0321(3) 0.5124(2)
H7 H 0.6685 1.0818 0.5564
C13 C 0.6512(3) 0.9057(3) 0.52035(18)
H8 H 0.6680 0.8708 0.5698
C14 C 0.6758(2) 0.6083(2) 0.41519(14)
H9 H 0.7168 0.6498 0.3779
C15 C 0.6205(2) 0.4937(3) 0.38536(15)
C16 C 0.5922(3) 0.3611(4) 0.2746(2)
H10 H 0.5958 0.2930 0.3115
H11 H 0.5164 0.3786 0.2572
C17 C 0.6435(4) 0.3278(5) 0.2107(3)
H12 H 0.6313 0.3905 0.1710
H13 H 0.6147 0.2505 0.1899
H14 H 0.7199 0.3194 0.2270
C18 C 0.7625(2) 0.3984(3) 0.67961(15)
C19 C 0.6533(2) 0.3366(3) 0.65828(17)
H15 H 0.5967 0.3965 0.6596
H16 H 0.6449 0.2719 0.6952
H17 H 0.6492 0.3021 0.6065
C20 C 0.8490(3) 0.2984(4) 0.6826(3)
H18 H 0.8446 0.2582 0.6326
H19 H 0.8377 0.2387 0.7221
H20 H 0.9194 0.3352 0.6952
C21 C 0.7608(4) 0.4563(4) 0.76126(18)
H21 H 0.8315 0.4874 0.7804
H22 H 0.7403 0.3947 0.7967
H23 H 0.7093 0.5228 0.7576
C22 C 1.01715(19) 0.7302(3) 0.58366(15)
C23 C 1.0221(3) 0.8255(4) 0.5198(2)
H24 H 1.0127 0.7854 0.4695
H25 H 1.0912 0.8662 0.5275
H26 H 0.9656 0.8853 0.5218
C24 C 1.1089(2) 0.6385(4) 0.5785(3)
H27 H 1.1107 0.5794 0.6203
H28 H 1.1767 0.6820 0.5829
H29 H 1.0973 0.5963 0.5290
C25 C 1.0341(3) 0.7994(4) 0.6617(2)
H30 H 0.9768 0.8583 0.6634
H31 H 1.1024 0.8418 0.6668
H32 H 1.0338 0.7416 0.7041
loop_
_geom_bond_atom_site_label_1
_geom_bond_atom_site_label_2
_geom_bond_site_symmetry_1
_geom_bond_site_symmetry_2
O1 C4 1_555 1_555
O2 C15 1_555 1_555
O3 C15 1_555 1_555
C1 C2 1_555 1_555
C2 H1 1_555 1_555
C3 C2 1_555 1_555
C4 C3 1_555 1_555
C5 C4 1_555 1_555
C6 C1 1_555 1_555
H2 C6 1_555 1_555
C7 C1 1_555 1_555
H3 C7 1_555 1_555
C8 C7 1_555 1_555
C9 C8 1_555 1_555
H4 C9 1_555 1_555
C10 C9 1_555 1_555
H5 C10 1_555 1_555
C11 C10 1_555 1_555
H6 C11 1_555 1_555
C12 C11 1_555 1_555
H7 C12 1_555 1_555
C13 C8 1_555 1_555
H8 C13 1_555 1_555
C14 C1 1_555 1_555
H9 C14 1_555 1_555
C15 C14 1_555 1_555
C16 O3 1_555 1_555
H10 C16 1_555 1_555
H11 C16 1_555 1_555
C17 C16 1_555 1_555
H12 C17 1_555 1_555
H13 C17 1_555 1_555
H14 C17 1_555 1_555
C18 C3 1_555 1_555
C19 C18 1_555 1_555
H15 C19 1_555 1_555
H16 C19 1_555 1_555
H17 C19 1_555 1_555
C20 C18 1_555 1_555
H18 C20 1_555 1_555
H19 C20 1_555 1_555
H20 C20 1_555 1_555
C21 C18 1_555 1_555
H21 C21 1_555 1_555
H22 C21 1_555 1_555
H23 C21 1_555 1_555
C22 C5 1_555 1_555
C23 C22 1_555 1_555
H24 C23 1_555 1_555
H25 C23 1_555 1_555
H26 C23 1_555 1_555
C24 C22 1_555 1_555
H27 C24 1_555 1_555
H28 C24 1_555 1_555
H29 C24 1_555 1_555
C25 C22 1_555 1_555
H30 C25 1_555 1_555
H31 C25 1_555 1_555
H32 C25 1_555 1_555
C5 C6 1_555 1_555
C7 C14 1_555 1_555
C12 C13 1_555 1_555

#END
