
#######################################################################
#
#                 Cambridge Crystallographic Data Centre
#                                CCDC 
#
#######################################################################
#
# If this CIF has been generated from an entry in the Cambridge 
# Structural Database, then it will include bibliographic, chemical, 
# crystal, experimental, refinement or atomic coordinate data resulting 
# from the CCDC's data processing and validation procedures.
#
#######################################################################

data_EHOXOQ
_chemical_formula_moiety         'C26 H36 O4'
_chemical_name_systematic        
'ethyl 2-(3,5-di-t-butyl-4-hydroxyphenyl)-3-methoxy-3-phenylpropanoate'
_symmetry_cell_setting           monoclinic
_symmetry_space_group_name_H-M   'P 21/c'
_symmetry_Int_Tables_number      14
_space_group_name_Hall           '-P 2ybc'
loop_
_symmetry_equiv_pos_site_id
_symmetry_equiv_pos_as_xyz
1 x,y,z
2 -x,1/2+y,1/2-z
3 -x,-y,-z
4 x,1/2-y,1/2+z
_cell_length_a                   10.2390(4)
_cell_length_b                   19.3276(7)
_cell_length_c                   12.6233(6)
_cell_angle_alpha                90
_cell_angle_beta                 99.987(4)
_cell_angle_gamma                90
_cell_volume                     2460.24
_exptl_crystal_colour            colorless
_exptl_crystal_description       needle
_chemical_melting_point          '375 K'
_cell_formula_units_Z            4
_exptl_crystal_recrystallization_method 'petroleum ether / ethyl acetate'
loop_
_atom_site_label
_atom_site_type_symbol
_atom_site_fract_x
_atom_site_fract_y
_atom_site_fract_z
O1 O 0.41578(19) 0.53486(10) 0.2540(2)
H1 H 0.4882 0.5530 0.2543
O2 O 0.69714(18) 0.21658(10) 0.34224(16)
O3 O 0.60187(19) 0.21260(11) 0.16932(16)
O4 O 0.46054(17) 0.14172(8) 0.39378(15)
C1 C 0.4528(2) 0.32198(13) 0.28479(19)
C2 C 0.3332(2) 0.35292(13) 0.2409(2)
H2 H 0.2604 0.3249 0.2167
C3 C 0.3184(2) 0.42400(14) 0.2319(2)
C4 C 0.4316(2) 0.46439(13) 0.2658(2)
C5 C 0.5540(2) 0.43539(13) 0.3123(2)
C6 C 0.5600(2) 0.36424(13) 0.3207(2)
H3 H 0.6398 0.3439 0.3519
C7 C 0.4645(2) 0.24393(13) 0.29162(19)
H4 H 0.3988 0.2242 0.2337
C8 C 0.4373(2) 0.21469(12) 0.3983(2)
H5 H 0.5003 0.2348 0.4576
C9 C 0.2969(2) 0.22951(13) 0.4154(2)
C10 C 0.1408(4) 0.29745(19) 0.4907(3)
H6 H 0.1240 0.3336 0.5351
C11 C 0.2701(3) 0.28192(16) 0.4811(3)
H7 H 0.3395 0.3074 0.5198
C12 C 0.0376(4) 0.2603(2) 0.4356(3)
H8 H -0.0493 0.2711 0.4418
C13 C 0.0634(3) 0.2073(2) 0.3716(3)
H9 H -0.0062 0.1812 0.3345
C14 C 0.1920(3) 0.19186(17) 0.3610(3)
H10 H 0.2081 0.1556 0.3167
C15 C 0.6789(3) 0.47988(15) 0.3500(3)
C16 C 0.6532(4) 0.5335(2) 0.4335(5)
H11 H 0.5866 0.5656 0.4007
H12 H 0.7338 0.5581 0.4599
H13 H 0.6231 0.5105 0.4923
C17 C 0.7237(3) 0.5134(2) 0.2528(4)
H14 H 0.7434 0.4781 0.2045
H15 H 0.8017 0.5407 0.2764
H16 H 0.6543 0.5426 0.2164
C18 C 0.7970(3) 0.43596(16) 0.4028(3)
H17 H 0.7752 0.4130 0.4649
H18 H 0.8727 0.4652 0.4241
H19 H 0.8170 0.4021 0.3523
C19 C 0.1827(3) 0.45616(16) 0.1850(3)
C20 C 0.1920(4) 0.4980(2) 0.0833(4)
H20 H 0.2555 0.5345 0.1008
H21 H 0.1068 0.5174 0.0550
H22 H 0.2194 0.4682 0.0305
C21 C 0.1368(3) 0.5027(2) 0.2702(4)
H23 H 0.1272 0.4754 0.3319
H24 H 0.0531 0.5234 0.2408
H25 H 0.2013 0.5384 0.2911
C22 C 0.0762(3) 0.40057(18) 0.1552(3)
H26 H 0.1012 0.3704 0.1018
H27 H -0.0070 0.4222 0.1271
H28 H 0.0674 0.3743 0.2181
C23 C 0.6001(3) 0.22173(13) 0.2737(2)
C24 C 0.7325(4) 0.2012(3) 0.1395(3)
H29 H 0.7210 0.1798 0.0690
H30 H 0.7831 0.1697 0.1906
C25 C 0.8070(4) 0.2663(3) 0.1374(4)
H31 H 0.7574 0.2976 0.0866
H32 H 0.8911 0.2568 0.1166
H33 H 0.8211 0.2869 0.2077
C26 C 0.4920(4) 0.11053(17) 0.4960(3)
H34 H 0.5072 0.0620 0.4876
H35 H 0.4198 0.1169 0.5344
H36 H 0.5706 0.1315 0.5355
loop_
_geom_bond_atom_site_label_1
_geom_bond_atom_site_label_2
_geom_bond_site_symmetry_1
_geom_bond_site_symmetry_2
O1 H1 1_555 1_555
O2 C23 1_555 1_555
O3 C23 1_555 1_555
O4 C8 1_555 1_555
C1 C2 1_555 1_555
C2 H2 1_555 1_555
C3 C2 1_555 1_555
C4 O1 1_555 1_555
C5 C4 1_555 1_555
C6 C1 1_555 1_555
H3 C6 1_555 1_555
C7 C1 1_555 1_555
H4 C7 1_555 1_555
C8 C7 1_555 1_555
H5 C8 1_555 1_555
C9 C8 1_555 1_555
C10 H6 1_555 1_555
C11 C9 1_555 1_555
H7 C11 1_555 1_555
C12 C10 1_555 1_555
H8 C12 1_555 1_555
C13 C12 1_555 1_555
H9 C13 1_555 1_555
C14 C9 1_555 1_555
H10 C14 1_555 1_555
C15 C5 1_555 1_555
C16 C15 1_555 1_555
H11 C16 1_555 1_555
H12 C16 1_555 1_555
H13 C16 1_555 1_555
C17 C15 1_555 1_555
H14 C17 1_555 1_555
H15 C17 1_555 1_555
H16 C17 1_555 1_555
C18 C15 1_555 1_555
H17 C18 1_555 1_555
H18 C18 1_555 1_555
H19 C18 1_555 1_555
C19 C3 1_555 1_555
C20 C19 1_555 1_555
H20 C20 1_555 1_555
H21 C20 1_555 1_555
H22 C20 1_555 1_555
C21 C19 1_555 1_555
H23 C21 1_555 1_555
H24 C21 1_555 1_555
H25 C21 1_555 1_555
C22 C19 1_555 1_555
H26 C22 1_555 1_555
H27 C22 1_555 1_555
H28 C22 1_555 1_555
C23 C7 1_555 1_555
C24 O3 1_555 1_555
H29 C24 1_555 1_555
H30 C24 1_555 1_555
C25 C24 1_555 1_555
H31 C25 1_555 1_555
H32 C25 1_555 1_555
H33 C25 1_555 1_555
C26 O4 1_555 1_555
H34 C26 1_555 1_555
H35 C26 1_555 1_555
H36 C26 1_555 1_555
C3 C4 1_555 1_555
C5 C6 1_555 1_555
C10 C11 1_555 1_555
C13 C14 1_555 1_555

#END
