
#######################################################################
#
#                 Cambridge Crystallographic Data Centre
#                                CCDC 
#
#######################################################################
#
# If this CIF has been generated from an entry in the Cambridge 
# Structural Database, then it will include bibliographic, chemical, 
# crystal, experimental, refinement or atomic coordinate data resulting 
# from the CCDC's data processing and validation procedures.
#
#######################################################################

data_EHOXUW
_chemical_formula_moiety         'C25 H34 O4'
_chemical_name_systematic        
'ethyl 2-(3,5-di-t-butyl-4-hydroxyphenyl)-3-hydroxy-3-phenylpropanoate'
_symmetry_cell_setting           monoclinic
_symmetry_space_group_name_H-M   'P 21/c'
_symmetry_Int_Tables_number      14
_space_group_name_Hall           '-P 2ybc'
loop_
_symmetry_equiv_pos_site_id
_symmetry_equiv_pos_as_xyz
1 x,y,z
2 -x,1/2+y,1/2-z
3 -x,-y,-z
4 x,1/2-y,1/2+z
_cell_length_a                   10.4772(12)
_cell_length_b                   37.395(5)
_cell_length_c                   6.0408(7)
_cell_angle_alpha                90
_cell_angle_beta                 97.275(10)
_cell_angle_gamma                90
_cell_volume                     2347.7
_exptl_crystal_colour            colorless
_exptl_crystal_description       needle
_chemical_melting_point          '418 K'
_cell_formula_units_Z            4
_exptl_crystal_recrystallization_method 'petroleum ether / ethyl acetate'
loop_
_atom_site_label
_atom_site_type_symbol
_atom_site_fract_x
_atom_site_fract_y
_atom_site_fract_z
O1 O 0.4642(3) 0.53698(8) 0.0863(6)
O2 O 0.2804(3) 0.73437(8) 0.2427(6)
H1 H 0.2735 0.7487 0.1390
O3 O 0.1426(3) 0.67708(11) 0.5986(5)
O4 O 0.0662(3) 0.67534(9) 0.2373(5)
C1 C 0.3341(4) 0.63529(10) 0.2841(6)
C2 C 0.4548(4) 0.62297(10) 0.3673(6)
H2 H 0.5067 0.6370 0.4693
C3 C 0.5014(4) 0.59019(10) 0.3031(6)
C4 C 0.4190(4) 0.56985(11) 0.1522(6)
C5 C 0.2960(4) 0.58089(10) 0.0645(6)
C6 C 0.2568(4) 0.61423(10) 0.1335(6)
H3 H 0.1757 0.6226 0.0764
C7 C 0.2952(4) 0.67304(10) 0.3456(6)
H4 H 0.3473 0.6796 0.4861
C8 C 0.3238(4) 0.70042(10) 0.1671(7)
H5 H 0.2749 0.6942 0.0231
C9 C 0.4655(4) 0.70097(10) 0.1455(6)
C10 C 0.5131(5) 0.68312(12) -0.0268(7)
H6 H 0.4567 0.6719 -0.1367
C11 C 0.6443(5) 0.68177(14) -0.0368(8)
H7 H 0.6752 0.6700 -0.1547
C12 C 0.7285(5) 0.69756(14) 0.1243(8)
H8 H 0.8167 0.6958 0.1194
C13 C 0.6825(5) 0.71609(13) 0.2942(8)
H9 H 0.7394 0.7277 0.4015
C14 C 0.5527(4) 0.71749(12) 0.3052(7)
H10 H 0.5225 0.7298 0.4220
C15 C 0.6381(4) 0.57786(11) 0.3926(7)
C16 C 0.6354(5) 0.54259(13) 0.5249(8)
H11 H 0.5877 0.5461 0.6487
H12 H 0.7218 0.5355 0.5791
H13 H 0.5951 0.5243 0.4290
C17 C 0.7075(5) 0.60527(13) 0.5538(8)
H14 H 0.7123 0.6277 0.4785
H15 H 0.7928 0.5969 0.6047
H16 H 0.6608 0.6083 0.6793
C18 C 0.7207(5) 0.57360(15) 0.2011(8)
H17 H 0.6823 0.5561 0.0970
H18 H 0.8057 0.5659 0.2604
H19 H 0.7259 0.5961 0.1263
C19 C 0.2047(4) 0.55811(11) -0.0987(7)
C20 C 0.2628(6) 0.55170(15) -0.3164(8)
H20 H 0.2784 0.5743 -0.3839
H21 H 0.2040 0.5379 -0.4171
H22 H 0.3425 0.5389 -0.2843
C21 C 0.1757(5) 0.52254(14) 0.0104(9)
H23 H 0.2548 0.5100 0.0543
H24 H 0.1209 0.5083 -0.0942
H25 H 0.1334 0.5271 0.1395
C22 C 0.0740(5) 0.57621(16) -0.1647(10)
H26 H 0.0344 0.5811 -0.0330
H27 H 0.0196 0.5607 -0.2616
H28 H 0.0864 0.5982 -0.2407
C23 C 0.1560(4) 0.67541(11) 0.3818(7)
C24 C 0.0080(5) 0.67817(17) 0.6638(9)
H29 H -0.0544 0.6692 0.5444
H30 H 0.0024 0.6642 0.7976
C25 C -0.0123(6) 0.71576(17) 0.7029(11)
H31 H -0.0014 0.7291 0.5708
H32 H 0.0489 0.7238 0.8243
H33 H -0.0979 0.7193 0.7395
H34 H 0.423(6) 0.5233(16) -0.008(15)
loop_
_geom_bond_atom_site_label_1
_geom_bond_atom_site_label_2
_geom_bond_site_symmetry_1
_geom_bond_site_symmetry_2
O1 C4 1_555 1_555
O2 H1 1_555 1_555
O3 C23 1_555 1_555
O4 C23 1_555 1_555
C1 C2 1_555 1_555
C2 H2 1_555 1_555
C3 C2 1_555 1_555
C4 C3 1_555 1_555
C5 C4 1_555 1_555
C6 C1 1_555 1_555
H3 C6 1_555 1_555
C7 C1 1_555 1_555
H4 C7 1_555 1_555
C8 O2 1_555 1_555
H5 C8 1_555 1_555
C9 C8 1_555 1_555
C10 C9 1_555 1_555
H6 C10 1_555 1_555
C11 C10 1_555 1_555
H7 C11 1_555 1_555
C12 C11 1_555 1_555
H8 C12 1_555 1_555
C13 C12 1_555 1_555
H9 C13 1_555 1_555
C14 C9 1_555 1_555
H10 C14 1_555 1_555
C15 C3 1_555 1_555
C16 C15 1_555 1_555
H11 C16 1_555 1_555
H12 C16 1_555 1_555
H13 C16 1_555 1_555
C17 C15 1_555 1_555
H14 C17 1_555 1_555
H15 C17 1_555 1_555
H16 C17 1_555 1_555
C18 C15 1_555 1_555
H17 C18 1_555 1_555
H18 C18 1_555 1_555
H19 C18 1_555 1_555
C19 C5 1_555 1_555
C20 C19 1_555 1_555
H20 C20 1_555 1_555
H21 C20 1_555 1_555
H22 C20 1_555 1_555
C21 C19 1_555 1_555
H23 C21 1_555 1_555
H24 C21 1_555 1_555
H25 C21 1_555 1_555
C22 C19 1_555 1_555
H26 C22 1_555 1_555
H27 C22 1_555 1_555
H28 C22 1_555 1_555
C23 C7 1_555 1_555
C24 O3 1_555 1_555
H29 C24 1_555 1_555
H30 C24 1_555 1_555
C25 C24 1_555 1_555
H31 C25 1_555 1_555
H32 C25 1_555 1_555
H33 C25 1_555 1_555
H34 O1 1_555 1_555
C5 C6 1_555 1_555
C7 C8 1_555 1_555
C13 C14 1_555 1_555

#END
