
#######################################################################
#
#                 Cambridge Crystallographic Data Centre
#                                CCDC 
#
#######################################################################
#
# If this CIF has been generated from an entry in the Cambridge 
# Structural Database, then it will include bibliographic, chemical, 
# crystal, experimental, refinement or atomic coordinate data resulting 
# from the CCDC's data processing and validation procedures.
#
#######################################################################

data_EHOXIK
_chemical_formula_moiety         'C21 H18 O3'
_chemical_name_systematic        
"ethyl 4'-oxo-3-phenyl-4'H-spiro[cyclopropane-1,1'-naphthalene]-2-carboxylate"
_symmetry_cell_setting           triclinic
_symmetry_space_group_name_H-M   'P -1'
_symmetry_Int_Tables_number      2
_space_group_name_Hall           '-P 1'
loop_
_symmetry_equiv_pos_site_id
_symmetry_equiv_pos_as_xyz
1 x,y,z
2 -x,-y,-z
_cell_length_a                   9.0267(9)
_cell_length_b                   11.7280(13)
_cell_length_c                   17.0697(19)
_cell_angle_alpha                94.502(9)
_cell_angle_beta                 93.203(8)
_cell_angle_gamma                109.533(10)
_cell_volume                     1691.33
_exptl_crystal_colour            colorless
_exptl_crystal_description       block
_chemical_melting_point          '363 K'
_cell_formula_units_Z            4
_exptl_crystal_recrystallization_method 'petroleum ether / ethyl acetate'
loop_
_atom_site_label
_atom_site_type_symbol
_atom_site_fract_x
_atom_site_fract_y
_atom_site_fract_z
O1 O 0.3356(2) 0.04526(16) 0.31838(12)
O2 O 0.7819(2) -0.16100(19) 0.24786(13)
C1 C 0.5949(2) -0.09798(17) 0.40626(11)
O3 O 0.8877(2) -0.21316(19) 0.35587(14)
C2 C 0.2969(3) -0.1628(2) 0.31377(14)
H1 H 0.1965 -0.1844 0.2879
C3 C 0.3566(2) -0.24894(19) 0.32757(13)
H2 H 0.2962 -0.3291 0.3102
C4 C 0.3849(3) -0.0350(2) 0.33822(13)
C5 C 0.5121(2) -0.22493(18) 0.36865(12)
C6 C 0.7289(2) -0.0667(2) 0.45897(13)
H3 H 0.7681 -0.1269 0.4730
C7 C 0.5512(2) -0.33240(18) 0.39796(13)
H4 H 0.6344 -0.3089 0.4415
C8 C 0.5346(2) -0.00663(18) 0.38831(12)
C9 C 0.6134(3) 0.1133(2) 0.42047(15)
H5 H 0.5743 0.1741 0.4077
C10 C 0.4230(3) -0.5560(2) 0.35784(15)
H6 H 0.4974 -0.5515 0.3216
C11 C 0.6086(3) -0.29188(19) 0.32140(14)
H7 H 0.5506 -0.3453 0.2746
C12 C 0.4261(3) -0.45193(18) 0.40343(13)
C13 C 0.7476(3) 0.1425(2) 0.47054(15)
H8 H 0.8000 0.2229 0.4909
C14 C 0.8048(3) 0.0526(2) 0.49081(14)
H9 H 0.8944 0.0720 0.5258
C15 C 0.1999(3) -0.5726(2) 0.46517(17)
H10 H 0.1252 -0.5775 0.5013
C16 C 0.3083(4) -0.6675(2) 0.36635(16)
H11 H 0.3072 -0.7372 0.3360
C17 C 0.3146(3) -0.4622(2) 0.45732(15)
H12 H 0.3168 -0.3933 0.4890
C18 C 0.7763(3) -0.2195(2) 0.31189(17)
C19 C 0.1972(3) -0.6753(2) 0.41900(16)
H13 H 0.1201 -0.7498 0.4236
C20 C 0.9332(4) -0.0725(3) 0.2334(3)
H14 H 1.0186 -0.0955 0.2562
H15 H 0.9419 -0.0718 0.1770
C21 C 0.9458(5) 0.0465(4) 0.2675(3)
H16 H 0.8583 0.0673 0.2467
H17 H 1.0427 0.1047 0.2549
H18 H 0.9450 0.0470 0.3237
C22 C 1.4544(2) 0.26893(18) 0.12719(12)
O4 O 1.8159(2) 0.2537(2) 0.18391(14)
O5 O 1.7097(2) 0.32805(18) 0.28105(11)
C23 C 1.4940(2) 0.15676(18) 0.09628(12)
H19 H 1.5843 0.1750 0.0643
O6 O 1.2763(3) 0.54868(19) 0.15721(15)
C24 C 1.2309(3) 0.3397(2) 0.15119(13)
H20 H 1.1257 0.3215 0.1611
C25 C 1.5484(2) 0.39284(18) 0.10686(12)
C26 C 1.6968(3) 0.4189(2) 0.07887(15)
H21 H 1.7382 0.3568 0.0698
C27 C 1.4860(3) 0.48676(19) 0.11734(12)
C28 C 1.5360(3) 0.20143(19) 0.18121(13)
H22 H 1.4677 0.1515 0.2173
C29 C 1.3542(4) -0.0641(2) 0.10984(16)
H23 H 1.4237 -0.0581 0.1535
C30 C 1.7835(3) 0.5358(2) 0.06435(18)
H24 H 1.8833 0.5520 0.0465
C31 C 1.2919(3) 0.2509(2) 0.14471(13)
H25 H 1.2271 0.1726 0.1518
C32 C 1.3658(3) 0.03684(19) 0.07042(13)
C33 C 1.5761(4) 0.6043(2) 0.10153(15)
H26 H 1.5351 0.6670 0.1085
C34 C 1.3267(3) 0.4650(2) 0.14295(14)
C35 C 1.7028(3) 0.2621(2) 0.21316(14)
C36 C 1.1466(3) -0.0856(3) -0.0201(2)
H27 H 1.0773 -0.0921 -0.0640
C37 C 1.1343(3) -0.1839(3) 0.0191(2)
H28 H 1.0556 -0.2578 0.0022
C38 C 1.2626(3) 0.0247(2) 0.00548(17)
H29 H 1.2709 0.0919 -0.0218
C39 C 1.7229(4) 0.6280(2) 0.07616(18)
H30 H 1.7820 0.7066 0.0668
C40 C 1.8652(4) 0.3910(3) 0.3212(2)
H31 H 1.8577 0.3977 0.3777
H32 H 1.9339 0.3445 0.3099
C41 C 1.2364(4) -0.1756(2) 0.08313(19)
H33 H 1.2279 -0.2440 0.1091
C42 C 1.9311(5) 0.5096(4) 0.2962(3)
H34 H 1.9564 0.5027 0.2426
H35 H 2.0252 0.5548 0.3294
H36 H 1.8559 0.5510 0.2999
loop_
_geom_bond_atom_site_label_1
_geom_bond_atom_site_label_2
_geom_bond_site_symmetry_1
_geom_bond_site_symmetry_2
O1 C4 1_555 1_555
O2 C18 1_555 1_555
C1 C5 1_555 1_555
O3 C18 1_555 1_555
C2 H1 1_555 1_555
C3 C2 1_555 1_555
H2 C3 1_555 1_555
C4 C2 1_555 1_555
C5 C3 1_555 1_555
C6 C1 1_555 1_555
H3 C6 1_555 1_555
C7 C5 1_555 1_555
H4 C7 1_555 1_555
C8 C1 1_555 1_555
C9 C8 1_555 1_555
H5 C9 1_555 1_555
C10 H6 1_555 1_555
C11 C5 1_555 1_555
H7 C11 1_555 1_555
C12 C7 1_555 1_555
C13 C9 1_555 1_555
H8 C13 1_555 1_555
C14 C6 1_555 1_555
H9 C14 1_555 1_555
C15 H10 1_555 1_555
C16 C10 1_555 1_555
H11 C16 1_555 1_555
C17 C12 1_555 1_555
H12 C17 1_555 1_555
C18 C11 1_555 1_555
C19 C15 1_555 1_555
H13 C19 1_555 1_555
C20 O2 1_555 1_555
H14 C20 1_555 1_555
H15 C20 1_555 1_555
C21 C20 1_555 1_555
H16 C21 1_555 1_555
H17 C21 1_555 1_555
H18 C21 1_555 1_555
C22 C23 1_555 1_555
O4 C35 1_555 1_555
O5 C35 1_555 1_555
C23 H19 1_555 1_555
O6 C34 1_555 1_555
C24 H20 1_555 1_555
C25 C22 1_555 1_555
C26 C25 1_555 1_555
H21 C26 1_555 1_555
C27 C25 1_555 1_555
C28 C22 1_555 1_555
H22 C28 1_555 1_555
C29 H23 1_555 1_555
C30 C26 1_555 1_555
H24 C30 1_555 1_555
C31 C22 1_555 1_555
H25 C31 1_555 1_555
C32 C23 1_555 1_555
C33 C27 1_555 1_555
H26 C33 1_555 1_555
C34 C24 1_555 1_555
C35 C28 1_555 1_555
C36 H27 1_555 1_555
C37 C36 1_555 1_555
H28 C37 1_555 1_555
C38 C32 1_555 1_555
H29 C38 1_555 1_555
C39 C30 1_555 1_555
H30 C39 1_555 1_555
C40 O5 1_555 1_555
H31 C40 1_555 1_555
H32 C40 1_555 1_555
C41 C29 1_555 1_555
H33 C41 1_555 1_555
C42 C40 1_555 1_555
H34 C42 1_555 1_555
H35 C42 1_555 1_555
H36 C42 1_555 1_555
C4 C8 1_555 1_555
C7 C11 1_555 1_555
C10 C12 1_555 1_555
C13 C14 1_555 1_555
C15 C17 1_555 1_555
C16 C19 1_555 1_555
C23 C28 1_555 1_555
C24 C31 1_555 1_555
C27 C34 1_555 1_555
C29 C32 1_555 1_555
C33 C39 1_555 1_555
C36 C38 1_555 1_555
C37 C41 1_555 1_555

#END
