
#######################################################################
#
#                 Cambridge Crystallographic Data Centre
#                                CCDC 
#
#######################################################################
#
# If this CIF has been generated from an entry in the Cambridge 
# Structural Database, then it will include bibliographic, chemical, 
# crystal, experimental, refinement or atomic coordinate data resulting 
# from the CCDC's data processing and validation procedures.
#
#######################################################################

data_EHUBUG
_chemical_formula_moiety         'C14 H16 O4'
_chemical_name_systematic        
4,8-dimethyl-11,14-dioxatetracyclo[6.5.1.0^1,10^.0^3,7^]tetradec-3-ene-5,12-dione
_symmetry_cell_setting           orthorhombic
_symmetry_space_group_name_H-M   'P 21 21 21'
_symmetry_Int_Tables_number      19
_space_group_name_Hall           'P 2ac 2ab'
loop_
_symmetry_equiv_pos_site_id
_symmetry_equiv_pos_as_xyz
1 x,y,z
2 1/2-x,-y,1/2+z
3 -x,1/2+y,1/2-z
4 1/2+x,1/2-y,-z
_cell_length_a                   5.5435(6)
_cell_length_b                   7.7426(9)
_cell_length_c                   27.879(3)
_cell_angle_alpha                90
_cell_angle_beta                 90
_cell_angle_gamma                90
_cell_volume                     1196.6
_exptl_crystal_colour            colorless
_exptl_crystal_description       prismatic
_cell_formula_units_Z            4
loop_
_atom_site_label
_atom_site_type_symbol
_atom_site_fract_x
_atom_site_fract_y
_atom_site_fract_z
O1 O 0.2655(4) 0.1160(3) 0.69891(6)
O2 O 0.4625(3) 0.1375(3) 0.76749(6)
O3 O 0.0534(3) 0.11015(19) 0.83748(5)
O4 O 0.6738(4) -0.0420(3) 0.99784(7)
C1 C 0.1400(4) -0.0565(3) 0.76757(8)
H1 H 0.1804 -0.1739 0.7584
H2 H -0.0312 -0.0381 0.7624
C2 C 0.2863(5) 0.0710(4) 0.73977(9)
C3 C 0.4524(4) 0.0683(3) 0.81591(8)
H3 H 0.5860 -0.0114 0.8223
C4 C 0.4407(5) 0.2113(3) 0.85285(9)
H4 H 0.4585 0.3235 0.8378
H5 H 0.5662 0.1974 0.8768
C5 C 0.1895(4) 0.1923(3) 0.87555(8)
C6 C 0.1912(4) 0.0629(3) 0.91737(8)
H6 H 0.0243 0.0425 0.9275
C7 C 0.2978(4) -0.1061(3) 0.90100(8)
C8 C 0.2126(5) -0.1745(3) 0.85384(8)
H7 H 0.0528 -0.2242 0.8571
H8 H 0.3215 -0.2633 0.8423
C9 C 0.2073(4) -0.0225(3) 0.81908(8)
C10 C 0.3397(5) 0.1110(4) 0.96145(9)
H9 H 0.4226 0.2199 0.9565
H10 H 0.2372 0.1211 0.9895
C11 C 0.5183(5) -0.0346(4) 0.96754(8)
C12 C 0.4764(5) -0.1621(3) 0.92915(8)
C13 C 0.6239(5) -0.3214(3) 0.92581(10)
H11 H 0.6202 -0.3641 0.8935
H12 H 0.5596 -0.4074 0.9471
H13 H 0.7874 -0.2959 0.9347
C14 C 0.0688(5) 0.3600(3) 0.88820(10)
H14 H -0.0831 0.3370 0.9034
H15 H 0.0424 0.4261 0.8595
H16 H 0.1701 0.4242 0.9097
loop_
_geom_bond_atom_site_label_1
_geom_bond_atom_site_label_2
_geom_bond_site_symmetry_1
_geom_bond_site_symmetry_2
O1 C2 1_555 1_555
O2 C2 1_555 1_555
O3 C5 1_555 1_555
O4 C11 1_555 1_555
C1 H1 1_555 1_555
H2 C1 1_555 1_555
C2 C1 1_555 1_555
C3 O2 1_555 1_555
H3 C3 1_555 1_555
C4 C3 1_555 1_555
H4 C4 1_555 1_555
H5 C4 1_555 1_555
C5 C4 1_555 1_555
C6 C5 1_555 1_555
H6 C6 1_555 1_555
C7 C6 1_555 1_555
C8 C7 1_555 1_555
H7 C8 1_555 1_555
H8 C8 1_555 1_555
C9 O3 1_555 1_555
C10 C6 1_555 1_555
H9 C10 1_555 1_555
H10 C10 1_555 1_555
C11 C10 1_555 1_555
C12 C7 1_555 1_555
C13 C12 1_555 1_555
H11 C13 1_555 1_555
H12 C13 1_555 1_555
H13 C13 1_555 1_555
C14 C5 1_555 1_555
H14 C14 1_555 1_555
H15 C14 1_555 1_555
H16 C14 1_555 1_555
C1 C9 1_555 1_555
C3 C9 1_555 1_555
C8 C9 1_555 1_555
C11 C12 1_555 1_555

#END
