
#######################################################################
#
#                 Cambridge Crystallographic Data Centre
#                                CCDC 
#
#######################################################################
#
# If this CIF has been generated from an entry in the Cambridge 
# Structural Database, then it will include bibliographic, chemical, 
# crystal, experimental, refinement or atomic coordinate data resulting 
# from the CCDC's data processing and validation procedures.
#
#######################################################################

data_EHUDUI
_chemical_formula_moiety         'C18 H27 N1 O4 S1'
_chemical_name_systematic        
4-(2-((4-methylphenyl)sulfonyl)-2-(tetrahydro-2H-pyran-2-yl)ethyl)morpholine
_symmetry_cell_setting           monoclinic
_symmetry_space_group_name_H-M   'C 2/c'
_symmetry_Int_Tables_number      15
_space_group_name_Hall           '-C 2yn'
loop_
_symmetry_equiv_pos_site_id
_symmetry_equiv_pos_as_xyz
1 x,y,z
2 -x,y,1/2-z
3 1/2+x,1/2+y,z
4 1/2-x,1/2+y,1/2-z
5 -x,-y,-z
6 x,-y,1/2+z
7 1/2-x,1/2-y,-z
8 1/2+x,1/2-y,1/2+z
_cell_length_a                   23.169(4)
_cell_length_b                   7.2093(16)
_cell_length_c                   21.235(4)
_cell_angle_alpha                90
_cell_angle_beta                 92.196(4)
_cell_angle_gamma                90
_cell_volume                     3544.33
_exptl_crystal_colour            colorless
_exptl_crystal_description       prism
_chemical_melting_point          '361 K'
_cell_formula_units_Z            8
loop_
_atom_site_label
_atom_site_type_symbol
_atom_site_fract_x
_atom_site_fract_y
_atom_site_fract_z
S1 S 0.09132(2) 0.45289(5) 0.03984(2)
O1 O 0.02793(5) 0.10107(16) 0.10152(6)
O2 O 0.18334(6) 0.80430(19) 0.26396(6)
O3 O 0.10975(5) 0.64423(16) 0.03858(6)
O4 O 0.05997(5) 0.38142(17) -0.01510(5)
N1 N 0.12464(6) 0.54445(19) 0.18197(7)
C1 C -0.01207(7) -0.0444(2) 0.08425(9)
C2 C -0.06081(8) -0.0541(3) 0.12984(9)
C3 C -0.09220(8) 0.1325(3) 0.12975(9)
C4 C -0.04925(8) 0.2903(3) 0.14258(8)
C5 C -0.00030(7) 0.2777(2) 0.09671(8)
C6 C 0.04613(7) 0.4266(2) 0.10775(8)
C7 C 0.08253(8) 0.3977(3) 0.16880(8)
C8 C 0.21056(8) 0.6372(3) 0.24463(9)
C9 C 0.16640(8) 0.4849(3) 0.23128(8)
C10 C 0.14254(9) 0.8640(3) 0.21598(9)
C11 C 0.09710(8) 0.7168(3) 0.20188(9)
C12 C 0.15271(7) 0.3106(2) 0.05353(8)
C13 C 0.20366(7) 0.3879(3) 0.07743(8)
C14 C 0.25164(7) 0.2735(3) 0.08856(8)
C15 C 0.24857(7) 0.0839(3) 0.07615(8)
C16 C 0.19638(7) 0.0098(3) 0.05190(8)
C17 C 0.14871(8) 0.1211(2) 0.04027(8)
C18 C 0.29962(8) -0.0403(3) 0.08929(9)
H1 H 0.00856 -0.16465 0.08414
H2 H -0.02828 -0.02158 0.04113
H3 H -0.04508 -0.08232 0.17277
H4 H -0.08812 -0.15393 0.11694
H5 H -0.11243 0.15203 0.08836
H6 H -0.12145 0.13213 0.16253
H7 H -0.06917 0.41112 0.1375
H8 H -0.03334 0.28171 0.18642
H9 H -0.01706 0.29183 0.05287
H10 H 0.02527 0.54689 0.11253
H11 H 0.05635 0.38937 0.20447
H12 H 0.10321 0.27792 0.16613
H13 H 0.23846 0.59565 0.27819
H14 H 0.23222 0.66138 0.20619
H15 H 0.18627 0.37109 0.21763
H16 H 0.14601 0.45595 0.27021
H17 H 0.16305 0.89229 0.17708
H18 H 0.12348 0.97914 0.22982
H19 H 0.07492 0.69331 0.24001
H20 H 0.06986 0.76099 0.16808
H21 H 0.20596 0.51697 0.08616
H22 H 0.28681 0.3257 0.10478
H23 H 0.19378 -0.11936 0.04332
H24 H 0.11365 0.06961 0.02348
H25 H 0.33337 0.03519 0.1016
H26 H 0.30774 -0.11133 0.05129
H27 H 0.29108 -0.12587 0.12357
loop_
_geom_bond_atom_site_label_1
_geom_bond_atom_site_label_2
_geom_bond_site_symmetry_1
_geom_bond_site_symmetry_2
S1 O3 1_555 1_555
O1 C1 1_555 1_555
O2 C8 1_555 1_555
O4 S1 1_555 1_555
N1 C7 1_555 1_555
C1 C2 1_555 1_555
C2 C3 1_555 1_555
C3 C4 1_555 1_555
C4 C5 1_555 1_555
C5 O1 1_555 1_555
C6 S1 1_555 1_555
C7 C6 1_555 1_555
C8 C9 1_555 1_555
C9 N1 1_555 1_555
C10 O2 1_555 1_555
C11 N1 1_555 1_555
C12 S1 1_555 1_555
C13 C12 1_555 1_555
C14 C13 1_555 1_555
C15 C14 1_555 1_555
C16 C15 1_555 1_555
C17 C12 1_555 1_555
C18 C15 1_555 1_555
H1 C1 1_555 1_555
H2 C1 1_555 1_555
H3 C2 1_555 1_555
H4 C2 1_555 1_555
H5 C3 1_555 1_555
H6 C3 1_555 1_555
H7 C4 1_555 1_555
H8 C4 1_555 1_555
H9 C5 1_555 1_555
H10 C6 1_555 1_555
H11 C7 1_555 1_555
H12 C7 1_555 1_555
H13 C8 1_555 1_555
H14 C8 1_555 1_555
H15 C9 1_555 1_555
H16 C9 1_555 1_555
H17 C10 1_555 1_555
H18 C10 1_555 1_555
H19 C11 1_555 1_555
H20 C11 1_555 1_555
H21 C13 1_555 1_555
H22 C14 1_555 1_555
H23 C16 1_555 1_555
H24 C17 1_555 1_555
H25 C18 1_555 1_555
H26 C18 1_555 1_555
H27 C18 1_555 1_555
C5 C6 1_555 1_555
C10 C11 1_555 1_555
C16 C17 1_555 1_555

#END
