
#######################################################################
#
#                 Cambridge Crystallographic Data Centre
#                                CCDC 
#
#######################################################################
#
# If this CIF has been generated from an entry in the Cambridge 
# Structural Database, then it will include bibliographic, chemical, 
# crystal, experimental, refinement or atomic coordinate data resulting 
# from the CCDC's data processing and validation procedures.
#
#######################################################################

data_EHUDOC
_chemical_formula_moiety         'C18 H28 O3 S1'
_chemical_name_systematic        
2-(3,3-dimethyl-1-((4-methylphenyl)sulfonyl)butyl)tetrahydro-2H-pyran
_symmetry_cell_setting           monoclinic
_symmetry_space_group_name_H-M   'P 21/c'
_symmetry_Int_Tables_number      14
_space_group_name_Hall           '-P 2ybc'
loop_
_symmetry_equiv_pos_site_id
_symmetry_equiv_pos_as_xyz
1 x,y,z
2 -x,1/2+y,1/2-z
3 -x,-y,-z
4 x,1/2-y,1/2+z
_cell_length_a                   12.593(11)
_cell_length_b                   12.991(7)
_cell_length_c                   10.908(8)
_cell_angle_alpha                90
_cell_angle_beta                 98.50(3)
_cell_angle_gamma                90
_cell_volume                     1764.9
_exptl_crystal_colour            colorless
_exptl_crystal_description       prism
_chemical_melting_point          '362 K'
_cell_formula_units_Z            4
loop_
_atom_site_label
_atom_site_type_symbol
_atom_site_fract_x
_atom_site_fract_y
_atom_site_fract_z
S1 S 0.84933(9) 0.22579(9) 0.45822(10)
O1 O 0.5975(3) 0.1973(3) 0.3934(3)
O2 O 0.9434(3) 0.2866(3) 0.5000(3)
O3 O 0.8209(3) 0.2095(3) 0.3264(3)
C1 C 0.5136(4) 0.1208(5) 0.3833(5)
C2 C 0.4234(4) 0.1536(5) 0.4510(5)
C3 C 0.4668(4) 0.1789(4) 0.5857(5)
C4 C 0.5596(4) 0.2542(4) 0.5941(5)
C5 C 0.6434(4) 0.2135(4) 0.5174(4)
C6 C 0.7392(4) 0.2870(4) 0.5191(5)
C7 C 0.7123(4) 0.3894(4) 0.4517(4)
C8 C 0.7345(4) 0.4894(4) 0.5276(5)
C9 C 0.7076(4) 0.5803(4) 0.4386(5)
C10 C 0.6635(4) 0.4981(4) 0.6306(5)
C11 C 0.8516(4) 0.4969(4) 0.5869(5)
C12 C 0.8648(4) 0.1039(4) 0.5295(4)
C13 C 0.8954(4) 0.0964(4) 0.6575(4)
C14 C 0.9052(4) -0.0008(4) 0.7119(5)
C15 C 0.8846(4) -0.0898(4) 0.6422(4)
C16 C 0.8573(4) -0.0803(4) 0.5133(5)
C17 C 0.8455(4) 0.0154(4) 0.4569(4)
C18 C 0.8921(4) -0.1941(4) 0.7031(5)
H1 H 0.54381 0.05485 0.41811
H2 H 0.48525 0.10946 0.29472
H3 H 0.36977 0.09754 0.44804
H4 H 0.38727 0.2149 0.41013
H5 H 0.40874 0.20898 0.62637
H6 H 0.49129 0.1148 0.63027
H7 H 0.59271 0.26257 0.6817
H8 H 0.5332 0.32232 0.56221
H9 H 0.67086 0.146 0.5532
H10 H 0.76527 0.3038 0.60792
H11 H 0.63518 0.38836 0.41674
H12 H 0.75332 0.39269 0.38102
H13 H 0.75873 0.58222 0.37908
H14 H 0.71225 0.64469 0.48593
H15 H 0.63463 0.57207 0.394
H16 H 0.68243 0.5608 0.67897
H17 H 0.67513 0.43797 0.68511
H18 H 0.58789 0.50124 0.59327
H19 H 0.86651 0.44458 0.65187
H20 H 0.86539 0.56544 0.6233
H21 H 0.89809 0.48552 0.52366
H22 H 0.90926 0.15655 0.70672
H23 H 0.92662 -0.00622 0.79894
H24 H 0.84688 -0.1406 0.46367
H25 H 0.82436 0.02085 0.36988
H26 H 0.94085 -0.19047 0.78181
H27 H 0.91961 -0.24419 0.64841
H28 H 0.8207 -0.21557 0.71875
loop_
_geom_bond_atom_site_label_1
_geom_bond_atom_site_label_2
_geom_bond_site_symmetry_1
_geom_bond_site_symmetry_2
S1 O2 1_555 1_555
O1 C1 1_555 1_555
O3 S1 1_555 1_555
C1 C2 1_555 1_555
C2 C3 1_555 1_555
C3 C4 1_555 1_555
C4 C5 1_555 1_555
C5 O1 1_555 1_555
C6 S1 1_555 1_555
C7 C6 1_555 1_555
C8 C7 1_555 1_555
C9 C8 1_555 1_555
C10 C8 1_555 1_555
C11 C8 1_555 1_555
C12 S1 1_555 1_555
C13 C12 1_555 1_555
C14 C13 1_555 1_555
C15 C14 1_555 1_555
C16 C15 1_555 1_555
C17 C12 1_555 1_555
C18 C15 1_555 1_555
H1 C1 1_555 1_555
H2 C1 1_555 1_555
H3 C2 1_555 1_555
H4 C2 1_555 1_555
H5 C3 1_555 1_555
H6 C3 1_555 1_555
H7 C4 1_555 1_555
H8 C4 1_555 1_555
H9 C5 1_555 1_555
H10 C6 1_555 1_555
H11 C7 1_555 1_555
H12 C7 1_555 1_555
H13 C9 1_555 1_555
H14 C9 1_555 1_555
H15 C9 1_555 1_555
H16 C10 1_555 1_555
H17 C10 1_555 1_555
H18 C10 1_555 1_555
H19 C11 1_555 1_555
H20 C11 1_555 1_555
H21 C11 1_555 1_555
H22 C13 1_555 1_555
H23 C14 1_555 1_555
H24 C16 1_555 1_555
H25 C17 1_555 1_555
H26 C18 1_555 1_555
H27 C18 1_555 1_555
H28 C18 1_555 1_555
C5 C6 1_555 1_555
C16 C17 1_555 1_555

#END
