
#######################################################################
#
#                 Cambridge Crystallographic Data Centre
#                                CCDC 
#
#######################################################################
#
# If this CIF has been generated from an entry in the Cambridge 
# Structural Database, then it will include bibliographic, chemical, 
# crystal, experimental, refinement or atomic coordinate data resulting 
# from the CCDC's data processing and validation procedures.
#
#######################################################################

data_EHUGEU
_chemical_formula_moiety         'C33 H42 N4 O6'
_chemical_name_systematic        
tris(2-((3-ethoxysalicylidene)amino)ethyl)amine
_symmetry_cell_setting           monoclinic
_symmetry_space_group_name_H-M   'P 21/n'
_symmetry_Int_Tables_number      14
_space_group_name_Hall           '-P 2yn'
loop_
_symmetry_equiv_pos_site_id
_symmetry_equiv_pos_as_xyz
1 x,y,z
2 1/2-x,1/2+y,1/2-z
3 -x,-y,-z
4 1/2+x,1/2-y,1/2+z
_cell_length_a                   15.5746(12)
_cell_length_b                   11.9097(9)
_cell_length_c                   17.4485(13)
_cell_angle_alpha                90
_cell_angle_beta                 94.692(2)
_cell_angle_gamma                90
_cell_volume                     3225.66
_exptl_crystal_colour            yellow
_exptl_crystal_description       block
_cell_formula_units_Z            4
loop_
_atom_site_label
_atom_site_type_symbol
_atom_site_fract_x
_atom_site_fract_y
_atom_site_fract_z
O1 O 0.38662(10) -0.02967(12) 0.05875(9)
H1 H 0.4486(18) -0.032(2) 0.0796(16)
O2 O 0.22619(9) 0.01695(12) 0.01063(9)
O3 O 0.64059(9) 0.35149(14) 0.25112(10)
H2 H 0.6578(19) 0.284(3) 0.2817(18)
O4 O 0.57444(10) 0.53334(13) 0.18256(9)
O5 O 0.38312(10) 0.02667(14) 0.45519(9)
H3 H 0.411(2) -0.032(3) 0.4194(18)
O6 O 0.28175(9) 0.17777(13) 0.51053(9)
N1 N 0.53311(11) 0.03447(17) 0.12257(11)
N2 N 0.62635(12) 0.18732(15) 0.34536(11)
N3 N 0.43436(11) -0.08104(15) 0.33805(11)
N4 N 0.61286(11) -0.05049(14) 0.28031(11)
C1 C 0.41056(14) 0.15597(17) 0.11069(12)
C2 C 0.35772(13) 0.07516(17) 0.07239(12)
C3 C 0.27224(14) 0.10210(18) 0.04691(13)
C4 C 0.24137(17) 0.2087(2) 0.05996(14)
H4 H 0.1843(15) 0.2256(17) 0.0388(13)
C5 C 0.29415(18) 0.2890(2) 0.09764(15)
H5 H 0.2725(15) 0.365(2) 0.1076(14)
C6 C 0.37725(17) 0.2634(2) 0.12329(14)
H6 H 0.4151(14) 0.3193(19) 0.1487(13)
C7 C 0.49967(15) 0.1295(2) 0.13671(13)
H7 H 0.5364(13) 0.1895(18) 0.1658(12)
C8 C 0.62426(15) 0.0143(3) 0.14684(16)
H8 H 0.6529(16) -0.0015(19) 0.0995(16)
H9 H 0.6515(14) 0.0839(19) 0.1710(13)
C9 C 0.63386(16) -0.0824(2) 0.20294(15)
H10 H 0.5901(14) -0.1430(18) 0.1829(12)
H11 H 0.6950(17) -0.1190(19) 0.2057(14)
C10 C 0.14033(17) 0.0409(2) -0.02101(19)
H12 H 0.1465(16) 0.105(2) -0.0554(15)
H13 H 0.1066(17) 0.067(2) 0.0223(16)
C11 C 0.1072(2) -0.0621(3) -0.0627(2)
H14 H 0.151(2) -0.085(2) -0.1053(17)
H15 H 0.0511(17) -0.047(2) -0.0843(15)
H16 H 0.1058(16) -0.124(2) -0.0294(15)
C12 C 0.33320(13) 0.07074(17) 0.32479(12)
C13 C 0.33217(13) 0.08740(17) 0.40378(13)
C14 C 0.27796(13) 0.16891(17) 0.43234(13)
C15 C 0.22770(14) 0.23527(19) 0.38102(14)
H17 H 0.1921(15) 0.2964(19) 0.4028(13)
C16 C 0.22981(14) 0.21965(19) 0.30230(14)
H18 H 0.1947(13) 0.2660(17) 0.2652(12)
C17 C 0.28093(14) 0.13820(19) 0.27422(14)
H19 H 0.2840(13) 0.1273(16) 0.2206(13)
C18 C 0.38703(14) -0.01618(18) 0.29463(15)
H20 H 0.3844(13) -0.0213(16) 0.2379(13)
C19 C 0.48544(15) -0.1664(2) 0.30317(18)
H21 H 0.4712(14) -0.240(2) 0.3240(13)
H22 H 0.4690(15) -0.1715(19) 0.2469(15)
C20 C 0.58119(15) -0.1463(2) 0.32246(17)
H23 H 0.6144(14) -0.2151(19) 0.3123(12)
H24 H 0.5887(14) -0.1311(17) 0.3791(14)
C21 C 0.21478(16) 0.2408(2) 0.54335(17)
H25 H 0.2358(15) 0.2483(19) 0.5993(15)
H26 H 0.2109(15) 0.313(2) 0.5204(14)
C22 C 0.1310(2) 0.1785(3) 0.5361(2)
H27 H 0.114(2) 0.156(3) 0.484(2)
H28 H 0.085(2) 0.224(3) 0.5518(19)
H29 H 0.131(2) 0.106(3) 0.564(2)
C23 C 0.51426(13) 0.32234(17) 0.31918(13)
C24 C 0.56095(13) 0.38349(17) 0.26816(13)
C25 C 0.52431(14) 0.47973(17) 0.23269(14)
C26 C 0.44271(15) 0.5135(2) 0.24844(16)
H30 H 0.4171(15) 0.581(2) 0.2224(13)
C27 C 0.39727(16) 0.4536(2) 0.30034(16)
H31 H 0.3399(16) 0.4778(19) 0.3130(14)
C28 C 0.43202(15) 0.3591(2) 0.33475(16)
H32 H 0.3987(15) 0.3196(18) 0.3731(13)
C29 C 0.55028(15) 0.22057(19) 0.35528(14)
H33 H 0.5139(15) 0.1782(18) 0.3921(13)
C30 C 0.65918(17) 0.0843(2) 0.38232(15)
H34 H 0.7100(14) 0.1053(17) 0.4189(13)
H35 H 0.6136(14) 0.0513(18) 0.4154(13)
C31 C 0.68706(15) 0.0021(2) 0.32355(16)
H36 H 0.7216(14) 0.0429(17) 0.2856(12)
H37 H 0.7252(15) -0.0555(19) 0.3485(13)
C32 C 0.5336(2) 0.6153(3) 0.1329(2)
H38 H 0.482(2) 0.579(2) 0.1053(17)
H39 H 0.5112(19) 0.676(2) 0.1669(17)
C33 C 0.5982(3) 0.6564(3) 0.0806(2)
H40 H 0.6205(19) 0.597(3) 0.0461(17)
H41 H 0.653(2) 0.685(3) 0.1109(19)
H42 H 0.572(2) 0.716(3) 0.049(2)
loop_
_geom_bond_atom_site_label_1
_geom_bond_atom_site_label_2
_geom_bond_site_symmetry_1
_geom_bond_site_symmetry_2
O1 H1 1_555 1_555
O2 C3 1_555 1_555
O3 H2 1_555 1_555
O4 C25 1_555 1_555
O5 H3 1_555 1_555
O6 C14 1_555 1_555
N1 C7 1_555 1_555
N2 C29 1_555 1_555
N3 C18 1_555 1_555
N4 C9 1_555 1_555
C1 C2 1_555 1_555
C2 O1 1_555 1_555
C3 C2 1_555 1_555
C4 C3 1_555 1_555
H4 C4 1_555 1_555
C5 C4 1_555 1_555
H5 C5 1_555 1_555
C6 C1 1_555 1_555
H6 C6 1_555 1_555
C7 C1 1_555 1_555
H7 C7 1_555 1_555
C8 N1 1_555 1_555
H8 C8 1_555 1_555
H9 C8 1_555 1_555
C9 C8 1_555 1_555
H10 C9 1_555 1_555
H11 C9 1_555 1_555
C10 O2 1_555 1_555
H12 C10 1_555 1_555
H13 C10 1_555 1_555
C11 C10 1_555 1_555
H14 C11 1_555 1_555
H15 C11 1_555 1_555
H16 C11 1_555 1_555
C12 C13 1_555 1_555
C13 O5 1_555 1_555
C14 C13 1_555 1_555
C15 C14 1_555 1_555
H17 C15 1_555 1_555
C16 C15 1_555 1_555
H18 C16 1_555 1_555
C17 C12 1_555 1_555
H19 C17 1_555 1_555
C18 C12 1_555 1_555
H20 C18 1_555 1_555
C19 N3 1_555 1_555
H21 C19 1_555 1_555
H22 C19 1_555 1_555
C20 N4 1_555 1_555
H23 C20 1_555 1_555
H24 C20 1_555 1_555
C21 O6 1_555 1_555
H25 C21 1_555 1_555
H26 C21 1_555 1_555
C22 C21 1_555 1_555
H27 C22 1_555 1_555
H28 C22 1_555 1_555
H29 C22 1_555 1_555
C23 C24 1_555 1_555
C24 O3 1_555 1_555
C25 C24 1_555 1_555
C26 C25 1_555 1_555
H30 C26 1_555 1_555
C27 C26 1_555 1_555
H31 C27 1_555 1_555
C28 C23 1_555 1_555
H32 C28 1_555 1_555
C29 C23 1_555 1_555
H33 C29 1_555 1_555
C30 N2 1_555 1_555
H34 C30 1_555 1_555
H35 C30 1_555 1_555
C31 N4 1_555 1_555
H36 C31 1_555 1_555
H37 C31 1_555 1_555
C32 O4 1_555 1_555
H38 C32 1_555 1_555
H39 C32 1_555 1_555
C33 C32 1_555 1_555
H40 C33 1_555 1_555
H41 C33 1_555 1_555
H42 C33 1_555 1_555
C5 C6 1_555 1_555
C16 C17 1_555 1_555
C19 C20 1_555 1_555
C27 C28 1_555 1_555
C30 C31 1_555 1_555

#END
