
#######################################################################
#
#                 Cambridge Crystallographic Data Centre
#                                CCDC 
#
#######################################################################
#
# If this CIF has been generated from an entry in the Cambridge 
# Structural Database, then it will include bibliographic, chemical, 
# crystal, experimental, refinement or atomic coordinate data resulting 
# from the CCDC's data processing and validation procedures.
#
#######################################################################

data_EHUGOE
_chemical_formula_moiety         'C10 H10 N2 2+,2(C7 H5 O5 1-),2(H2 O1)'
_chemical_name_systematic        
"4,4'-bipyridinediium bis(3,4,5-trihydroxybenzoate) dihydrate"
_symmetry_cell_setting           triclinic
_symmetry_space_group_name_H-M   'P -1'
_symmetry_Int_Tables_number      2
_space_group_name_Hall           '-P 1'
loop_
_symmetry_equiv_pos_site_id
_symmetry_equiv_pos_as_xyz
1 x,y,z
2 -x,-y,-z
_cell_length_a                   7.6571(11)
_cell_length_b                   8.7820(11)
_cell_length_c                   8.8620(11)
_cell_angle_alpha                82.2950(10)
_cell_angle_beta                 73.0490(10)
_cell_angle_gamma                82.3850(10)
_cell_volume                     562.135
_exptl_crystal_colour            yellow
_exptl_crystal_description       block
_cell_formula_units_Z            1
loop_
_atom_site_label
_atom_site_type_symbol
_atom_site_fract_x
_atom_site_fract_y
_atom_site_fract_z
O1 O 0.14215(14) 0.68271(13) 0.38358(11)
O2 O 0.32595(17) 0.86857(12) 0.30880(11)
C1 C 0.31598(18) 0.71337(14) 0.11232(14)
C2 C 0.41812(18) 0.63989(15) -0.19864(15)
O3 O 0.62082(16) 0.83147(13) -0.28003(12)
H1 H 0.6142 0.9225 -0.2654
O4 O 0.21206(16) 0.44364(13) -0.12118(13)
O5 O 0.45656(15) 0.60164(13) -0.34957(12)
H2 H 0.5331 0.6558 -0.4088
C3 C 0.28960(18) 0.55833(15) -0.08221(16)
C4 C 0.44587(19) 0.79335(15) -0.00326(15)
H3 H 0.4996 0.8708 0.0238
C5 C 0.49547(18) 0.75788(15) -0.15863(15)
C6 C 0.23833(18) 0.59492(15) 0.07289(15)
H4 H 0.1524 0.5406 0.1505
C7 C 0.25676(18) 0.75550(15) 0.27909(15)
H5 H 0.239(4) 0.444(4) -0.223(4)
N1 N 0.17789(18) 0.91827(15) 0.60555(14)
C8 C -0.0146(2) 0.85861(18) 0.86281(17)
H6 H -0.0975 0.7953 0.9322
C9 C 0.03737(19) 0.98258(15) 0.91612(14)
C10 C 0.1640(2) 1.07210(18) 0.80762(17)
H7 H 0.2025 1.1555 0.8394
C11 C 0.2320(3) 1.03696(19) 0.65310(17)
H8 H 0.3168 1.0969 0.5811
C12 C 0.0574(2) 0.83009(19) 0.70626(18)
H9 H 0.0212 0.7479 0.6705
H10 H 0.234(3) 0.899(3) 0.489(3)
N1A N -0.17789(18) 1.08173(15) 1.39445(14)
C8A C 0.0146(2) 1.14139(18) 1.13719(17)
H6A H 0.0975 1.2047 1.0678
C9A C -0.03737(19) 1.01742(15) 1.08388(14)
C10A C -0.1640(2) 0.92790(18) 1.19238(17)
H7A H -0.2025 0.8445 1.1606
C11A C -0.2320(3) 0.96304(19) 1.34690(17)
H8A H -0.3168 0.9031 1.4189
C12A C -0.0574(2) 1.16991(19) 1.29374(18)
H9A H -0.0212 1.2521 1.3295
H10A H -0.234(3) 1.101(3) 1.511(3)
O6 O 0.79608(16) 0.59077(15) -0.57240(14)
H11 H 0.900(3) 0.623(2) -0.583(3)
H12 H 0.806(3) 0.506(3) -0.519(3)
loop_
_geom_bond_atom_site_label_1
_geom_bond_atom_site_label_2
_geom_bond_site_symmetry_1
_geom_bond_site_symmetry_2
O1 C7 1_555 1_555
O2 C7 1_555 1_555
C1 C4 1_555 1_555
C2 O5 1_555 1_555
O3 H1 1_555 1_555
O4 C3 1_555 1_555
O5 H2 1_555 1_555
C3 C2 1_555 1_555
C4 H3 1_555 1_555
C5 C2 1_555 1_555
C6 C1 1_555 1_555
H4 C6 1_555 1_555
C7 C1 1_555 1_555
H5 O4 1_555 1_555
N1 C11 1_555 1_555
C8 H6 1_555 1_555
C9 C8 1_555 1_555
C10 C9 1_555 1_555
H7 C10 1_555 1_555
C11 C10 1_555 1_555
H8 C11 1_555 1_555
C12 N1 1_555 1_555
H9 C12 1_555 1_555
H10 N1 1_555 1_555
O6 H11 1_555 1_555
H12 O6 1_555 1_555
N1A C11A 1_555 1_555
C8A H6A 1_555 1_555
C9A C9 1_555 1_555
C10A C9A 1_555 1_555
H7A C10A 1_555 1_555
C11A C10A 1_555 1_555
H8A C11A 1_555 1_555
C12A N1A 1_555 1_555
H9A C12A 1_555 1_555
H10A N1A 1_555 1_555
O3 C5 1_555 1_555
C3 C6 1_555 1_555
C4 C5 1_555 1_555
C8 C12 1_555 1_555
C8A C9A 1_555 1_555
C8A C12A 1_555 1_555

#END
