
#######################################################################
#
#                 Cambridge Crystallographic Data Centre
#                                CCDC 
#
#######################################################################
#
# If this CIF has been generated from an entry in the Cambridge 
# Structural Database, then it will include bibliographic, chemical, 
# crystal, experimental, refinement or atomic coordinate data resulting 
# from the CCDC's data processing and validation procedures.
#
#######################################################################

data_EHULOK
_chemical_formula_moiety         'C25 H25 N1 O1'
_chemical_name_systematic        
1,4-bis(4-methylphenyl)-3-((4-methylphenyl)amino)but-2-en-1-one
_symmetry_cell_setting           monoclinic
_symmetry_space_group_name_H-M   'P 21/c'
_symmetry_Int_Tables_number      14
_space_group_name_Hall           '-P 2ybc'
loop_
_symmetry_equiv_pos_site_id
_symmetry_equiv_pos_as_xyz
1 x,y,z
2 -x,1/2+y,1/2-z
3 -x,-y,-z
4 x,1/2-y,1/2+z
_cell_length_a                   11.1357(9)
_cell_length_b                   10.6585(8)
_cell_length_c                   17.1362(15)
_cell_angle_alpha                90
_cell_angle_beta                 90.6080(10)
_cell_angle_gamma                90
_cell_volume                     2033.78
_exptl_crystal_colour            yellow
_exptl_crystal_description       block
_cell_formula_units_Z            4
loop_
_atom_site_label
_atom_site_type_symbol
_atom_site_fract_x
_atom_site_fract_y
_atom_site_fract_z
N1 N 0.5735(2) 0.6541(2) 0.13120(13)
H1 H 0.5564 0.6619 0.0824
O1 O 0.45419(17) 0.76350(19) 0.01716(11)
C1 C 0.4021(3) 0.8252(3) 0.0685(2)
C2 C 0.4248(3) 0.8086(3) 0.14950(18)
H2 H 0.3807 0.8563 0.1845
C3 C 0.5081(3) 0.7261(3) 0.17912(19)
C4 C 0.5269(2) 0.7157(3) 0.26595(16)
H3 H 0.5598 0.6333 0.2773
H4 H 0.4492 0.7208 0.2908
C5 C 0.6088(2) 0.8133(3) 0.3027(2)
C6 C 0.6497(3) 0.9172(3) 0.26401(17)
H5 H 0.6263 0.9294 0.2123
C7 C 0.7245(3) 1.0044(3) 0.2991(2)
H6 H 0.7513 1.0731 0.2707
C8 C 0.7591(3) 0.9903(3) 0.3751(2)
C9 C 0.7165(3) 0.8882(4) 0.41455(18)
H7 H 0.7383 0.8777 0.4667
C10 C 0.6417(3) 0.7995(3) 0.3793(2)
H8 H 0.6142 0.7311 0.4077
C11 C 0.8425(3) 1.0833(3) 0.41497(17)
H9 H 0.8031 1.1192 0.4592
H10 H 0.8630 1.1486 0.3789
H11 H 0.9142 1.0410 0.4320
C12 C 0.3128(3) 0.9227(3) 0.0436(2)
C13 C 0.2271(3) 0.9681(3) 0.09193(19)
H12 H 0.2235 0.9394 0.1431
C14 C 0.1445(3) 1.0572(4) 0.0656(2)
H13 H 0.0854 1.0849 0.0995
C15 C 0.1472(4) 1.1050(3) -0.0080(3)
C16 C 0.2324(4) 1.0593(4) -0.0549(2)
H14 H 0.2360 1.0888 -0.1058
C17 C 0.3158(3) 0.9694(4) -0.0306(2)
H15 H 0.3737 0.9412 -0.0651
C18 C 0.0578(3) 1.2035(3) -0.03603(18)
H16 H 0.0869 1.2855 -0.0223
H17 H -0.0183 1.1895 -0.0117
H18 H 0.0484 1.1978 -0.0917
C19 C 0.6670(3) 0.5668(3) 0.14900(18)
C20 C 0.7645(3) 0.5990(3) 0.19548(17)
H19 H 0.7690 0.6789 0.2172
C21 C 0.8546(3) 0.5138(4) 0.20979(16)
H20 H 0.9185 0.5365 0.2422
C22 C 0.8526(3) 0.3957(4) 0.1775(2)
C23 C 0.7554(4) 0.3666(3) 0.13035(19)
H21 H 0.7515 0.2872 0.1080
C24 C 0.6644(3) 0.4499(4) 0.11513(16)
H22 H 0.6013 0.4275 0.0820
C25 C 0.9511(3) 0.3006(3) 0.19403(16)
H23 H 1.0260 0.3318 0.1749
H24 H 0.9318 0.2229 0.1684
H25 H 0.9576 0.2869 0.2493
loop_
_geom_bond_atom_site_label_1
_geom_bond_atom_site_label_2
_geom_bond_site_symmetry_1
_geom_bond_site_symmetry_2
N1 H1 1_555 1_555
O1 C1 1_555 1_555
C1 C2 1_555 1_555
C2 H2 1_555 1_555
C3 N1 1_555 1_555
C4 C3 1_555 1_555
H3 C4 1_555 1_555
H4 C4 1_555 1_555
C5 C4 1_555 1_555
C6 C5 1_555 1_555
H5 C6 1_555 1_555
C7 C6 1_555 1_555
H6 C7 1_555 1_555
C8 C7 1_555 1_555
C9 C8 1_555 1_555
H7 C9 1_555 1_555
C10 C5 1_555 1_555
H8 C10 1_555 1_555
C11 C8 1_555 1_555
H9 C11 1_555 1_555
H10 C11 1_555 1_555
H11 C11 1_555 1_555
C12 C1 1_555 1_555
C13 C12 1_555 1_555
H12 C13 1_555 1_555
C14 C13 1_555 1_555
H13 C14 1_555 1_555
C15 C14 1_555 1_555
C16 C15 1_555 1_555
H14 C16 1_555 1_555
C17 C12 1_555 1_555
H15 C17 1_555 1_555
C18 C15 1_555 1_555
H16 C18 1_555 1_555
H17 C18 1_555 1_555
H18 C18 1_555 1_555
C19 N1 1_555 1_555
C20 C19 1_555 1_555
H19 C20 1_555 1_555
C21 C20 1_555 1_555
H20 C21 1_555 1_555
C22 C21 1_555 1_555
C23 C22 1_555 1_555
H21 C23 1_555 1_555
C24 C19 1_555 1_555
H22 C24 1_555 1_555
C25 C22 1_555 1_555
H23 C25 1_555 1_555
H24 C25 1_555 1_555
H25 C25 1_555 1_555
C2 C3 1_555 1_555
C9 C10 1_555 1_555
C16 C17 1_555 1_555
C23 C24 1_555 1_555

#END
