
#######################################################################
#
#                 Cambridge Crystallographic Data Centre
#                                CCDC 
#
#######################################################################
#
# If this CIF has been generated from an entry in the Cambridge 
# Structural Database, then it will include bibliographic, chemical, 
# crystal, experimental, refinement or atomic coordinate data resulting 
# from the CCDC's data processing and validation procedures.
#
#######################################################################

data_EHULIE
_chemical_formula_moiety         'C26 H21 Cl1 O1'
_chemical_name_systematic        
1-(4-chlorophenyl)-3-(4-methylbenzylidene)-5-(4-methylphenyl)pent-4-yn-1-one
_symmetry_cell_setting           monoclinic
_symmetry_space_group_name_H-M   'P 21'
_symmetry_Int_Tables_number      4
_space_group_name_Hall           'P 2yb'
loop_
_symmetry_equiv_pos_site_id
_symmetry_equiv_pos_as_xyz
1 x,y,z
2 -x,1/2+y,-z
_cell_length_a                   13.2144(12)
_cell_length_b                   5.6194(5)
_cell_length_c                   14.8801(13)
_cell_angle_alpha                90
_cell_angle_beta                 111.914(2)
_cell_angle_gamma                90
_cell_volume                     1025.11
_exptl_crystal_colour            'pale yellow'
_exptl_crystal_description       block
_cell_formula_units_Z            2
loop_
_atom_site_label
_atom_site_type_symbol
_atom_site_fract_x
_atom_site_fract_y
_atom_site_fract_z
Cl1 Cl 0.42127(16) 0.8054(5) 0.04228(13)
O1 O 0.5703(3) 0.8492(9) 0.5211(3)
C1 C 0.6757(4) 1.1888(11) 0.5169(4)
H1 H 0.6541 1.2714 0.5641
H2 H 0.6767 1.3027 0.4682
C2 C 0.5947(5) 0.9889(13) 0.4694(5)
C3 C 0.5507(4) 0.9568(13) 0.3619(4)
C4 C 0.5684(5) 1.1165(13) 0.2986(5)
H3 H 0.6075 1.2553 0.3226
C5 C 0.5286(5) 1.0726(14) 0.1999(5)
H4 H 0.5425 1.1787 0.1580
C6 C 0.4681(5) 0.8703(16) 0.1645(4)
C7 C 0.4517(5) 0.7046(14) 0.2258(5)
H5 H 0.4138 0.5649 0.2010
C8 C 0.4917(4) 0.7468(13) 0.3240(4)
H6 H 0.4797 0.6364 0.3656
C9 C 0.8602(5) 1.1301(11) 0.6565(4)
H7 H 0.9266 1.0506 0.6765
C10 C 0.7902(5) 1.0790(12) 0.5670(4)
C11 C 0.8144(4) 0.9002(13) 0.5082(4)
C12 C 0.8211(4) 0.7588(13) 0.4523(4)
C13 C 0.8460(4) 1.2938(14) 0.7268(4)
C14 C 0.7888(5) 1.5082(13) 0.7040(4)
H8 H 0.7588 1.5571 0.6397
C15 C 0.7759(5) 1.6500(12) 0.7752(5)
H9 H 0.7364 1.7909 0.7579
C16 C 0.8209(5) 1.5848(13) 0.8719(5)
C17 C 0.8821(5) 1.3807(13) 0.8956(4)
H10 H 0.9152 1.3385 0.9605
C18 C 0.8963(5) 1.2349(12) 0.8257(4)
H11 H 0.9390 1.0986 0.8442
C19 C 0.8049(5) 1.7365(13) 0.9494(4)
H12 H 0.7361 1.8176 0.9228
H13 H 0.8627 1.8511 0.9726
H14 H 0.8056 1.6370 1.0021
C20 C 0.8287(4) 0.5910(12) 0.3814(4)
C21 C 0.7707(5) 0.6335(12) 0.2834(4)
H15 H 0.7247 0.7647 0.2647
C22 C 0.7805(5) 0.4845(13) 0.2137(4)
H16 H 0.7411 0.5175 0.1487
C23 C 0.8479(5) 0.2864(15) 0.2382(4)
C24 C 0.9035(5) 0.2420(12) 0.3354(5)
H17 H 0.9467 0.1064 0.3540
C25 C 0.8964(5) 0.3954(13) 0.4063(4)
H18 H 0.9378 0.3655 0.4712
C26 C 0.8601(5) 0.1267(12) 0.1600(4)
H19 H 0.9107 0.1975 0.1355
H20 H 0.7905 0.1086 0.1081
H21 H 0.8867 -0.0265 0.1871
loop_
_geom_bond_atom_site_label_1
_geom_bond_atom_site_label_2
_geom_bond_site_symmetry_1
_geom_bond_site_symmetry_2
Cl1 C6 1_555 1_555
O1 C2 1_555 1_555
C1 H1 1_555 1_555
H2 C1 1_555 1_555
C2 C1 1_555 1_555
C3 C2 1_555 1_555
C4 C3 1_555 1_555
H3 C4 1_555 1_555
C5 C4 1_555 1_555
H4 C5 1_555 1_555
C6 C5 1_555 1_555
C7 C6 1_555 1_555
H5 C7 1_555 1_555
C8 C3 1_555 1_555
H6 C8 1_555 1_555
C9 H7 1_555 1_555
C10 C1 1_555 1_555
C11 C10 1_555 1_555
C12 C11 1_555 1_555
C13 C9 1_555 1_555
C14 C13 1_555 1_555
H8 C14 1_555 1_555
C15 C14 1_555 1_555
H9 C15 1_555 1_555
C16 C15 1_555 1_555
C17 C16 1_555 1_555
H10 C17 1_555 1_555
C18 C13 1_555 1_555
H11 C18 1_555 1_555
C19 C16 1_555 1_555
H12 C19 1_555 1_555
H13 C19 1_555 1_555
H14 C19 1_555 1_555
C20 C12 1_555 1_555
C21 C20 1_555 1_555
H15 C21 1_555 1_555
C22 C21 1_555 1_555
H16 C22 1_555 1_555
C23 C22 1_555 1_555
C24 C23 1_555 1_555
H17 C24 1_555 1_555
C25 C20 1_555 1_555
H18 C25 1_555 1_555
C26 C23 1_555 1_555
H19 C26 1_555 1_555
H20 C26 1_555 1_555
H21 C26 1_555 1_555
C7 C8 1_555 1_555
C9 C10 1_555 1_555
C17 C18 1_555 1_555
C24 C25 1_555 1_555

#END
