
#######################################################################
#
#                 Cambridge Crystallographic Data Centre
#                                CCDC 
#
#######################################################################
#
# If this CIF has been generated from an entry in the Cambridge 
# Structural Database, then it will include bibliographic, chemical, 
# crystal, experimental, refinement or atomic coordinate data resulting 
# from the CCDC's data processing and validation procedures.
#
#######################################################################

data_EHUMIF
_chemical_formula_moiety         'C25 H22 Cl1 N1 O2'
_chemical_name_systematic        
3-(1-(4-chlorophenyl)prop-2-en-1-yl)-3-hydroxy-1-(4-methylbenzyl)-1,3-dihydro-2H-indol-2-one
_symmetry_cell_setting           monoclinic
_symmetry_space_group_name_H-M   'P 21'
_symmetry_Int_Tables_number      4
_space_group_name_Hall           'P 2yb'
loop_
_symmetry_equiv_pos_site_id
_symmetry_equiv_pos_as_xyz
1 x,y,z
2 -x,1/2+y,-z
_cell_length_a                   10.8203(2)
_cell_length_b                   8.05010(10)
_cell_length_c                   11.8593(2)
_cell_angle_alpha                90
_cell_angle_beta                 90.3984(10)
_cell_angle_gamma                90
_cell_volume                     1032.97
_exptl_crystal_colour            colorless
_exptl_crystal_description       block
_cell_formula_units_Z            2
loop_
_atom_site_label
_atom_site_type_symbol
_atom_site_fract_x
_atom_site_fract_y
_atom_site_fract_z
Cl1 Cl 0.69244(6) 0.74435(12) 0.73502(6)
O1 O 0.17793(16) 0.3544(2) 0.51828(15)
O2 O -0.01196(16) 0.6020(2) 0.50463(14)
H1 H -0.0589 0.6847 0.5098
N1 N 0.14724(18) 0.4238(2) 0.70387(16)
C1 C 0.1476(2) 0.4534(3) 0.5907(2)
C2 C 0.0972(2) 0.6302(3) 0.56990(18)
C3 C 0.0699(2) 0.6880(3) 0.68780(18)
C4 C 0.10135(19) 0.5619(3) 0.76293(18)
C5 C 0.0863(2) 0.5789(3) 0.87814(19)
H2 H 0.1091 0.4929 0.9290
C6 C 0.0363(2) 0.7273(3) 0.9158(2)
H3 H 0.0257 0.7437 0.9945
C7 C 0.0015(2) 0.8518(3) 0.8424(2)
H4 H -0.0347 0.9507 0.8708
C8 C 0.0190(2) 0.8335(3) 0.72664(19)
H5 H -0.0038 0.9196 0.6758
C9 C 0.1904(2) 0.7419(3) 0.50584(17)
H6 H 0.1589 0.8584 0.5113
C10 C 0.1931(2) 0.6986(4) 0.3823(2)
H7 H 0.2158 0.5889 0.3614
C11 C 0.3178(2) 0.7397(3) 0.56212(18)
C12 C 0.3413(2) 0.8407(3) 0.6545(2)
H8 H 0.2776 0.9109 0.6818
C13 C 0.4558(2) 0.8419(4) 0.7082(2)
H9 H 0.4697 0.9113 0.7718
C14 C 0.5480(2) 0.7426(4) 0.6689(2)
C15 C 0.5285(3) 0.6402(4) 0.5772(2)
H10 H 0.5929 0.5708 0.5503
C16 C 0.4135(2) 0.6400(3) 0.5248(2)
H11 H 0.4000 0.5695 0.4617
C17 C 0.1696(2) 0.2602(3) 0.7528(2)
H12 H 0.1676 0.1763 0.6918
H13 H 0.1018 0.2339 0.8055
C18 C 0.2914(2) 0.2468(3) 0.81512(19)
C19 C 0.2981(3) 0.1682(4) 0.9180(2)
H14 H 0.2247 0.1284 0.9523
C20 C 0.4111(3) 0.1466(4) 0.9721(2)
H15 H 0.4137 0.0922 1.0432
C21 C 0.5189(3) 0.2019(4) 0.9253(2)
C22 C 0.5114(2) 0.2830(4) 0.8229(2)
H16 H 0.5846 0.3252 0.7896
C23 C 0.3996(2) 0.3040(4) 0.7677(2)
H17 H 0.3972 0.3583 0.6966
C24 C 0.6418(3) 0.1727(5) 0.9837(3)
H18 H 0.6598 0.0534 0.9851
H19 H 0.6381 0.2148 1.0612
H20 H 0.7072 0.2309 0.9428
C25 C 0.1657(3) 0.8044(5) 0.3025(2)
H21 H 0.1426 0.9148 0.3211
H22 H 0.1688 0.7709 0.2257
loop_
_geom_bond_atom_site_label_1
_geom_bond_atom_site_label_2
_geom_bond_site_symmetry_1
_geom_bond_site_symmetry_2
Cl1 C14 1_555 1_555
O1 C1 1_555 1_555
O2 H1 1_555 1_555
N1 C1 1_555 1_555
C1 C2 1_555 1_555
C2 O2 1_555 1_555
C3 C2 1_555 1_555
C4 N1 1_555 1_555
C5 C4 1_555 1_555
H2 C5 1_555 1_555
C6 C5 1_555 1_555
H3 C6 1_555 1_555
C7 C6 1_555 1_555
H4 C7 1_555 1_555
C8 C3 1_555 1_555
H5 C8 1_555 1_555
C9 C2 1_555 1_555
H6 C9 1_555 1_555
C10 C9 1_555 1_555
H7 C10 1_555 1_555
C11 C9 1_555 1_555
C12 C11 1_555 1_555
H8 C12 1_555 1_555
C13 C12 1_555 1_555
H9 C13 1_555 1_555
C14 C13 1_555 1_555
C15 C14 1_555 1_555
H10 C15 1_555 1_555
C16 C11 1_555 1_555
H11 C16 1_555 1_555
C17 N1 1_555 1_555
H12 C17 1_555 1_555
H13 C17 1_555 1_555
C18 C17 1_555 1_555
C19 C18 1_555 1_555
H14 C19 1_555 1_555
C20 C19 1_555 1_555
H15 C20 1_555 1_555
C21 C20 1_555 1_555
C22 C21 1_555 1_555
H16 C22 1_555 1_555
C23 C18 1_555 1_555
H17 C23 1_555 1_555
C24 C21 1_555 1_555
H18 C24 1_555 1_555
H19 C24 1_555 1_555
H20 C24 1_555 1_555
C25 C10 1_555 1_555
H21 C25 1_555 1_555
H22 C25 1_555 1_555
C3 C4 1_555 1_555
C7 C8 1_555 1_555
C15 C16 1_555 1_555
C22 C23 1_555 1_555

#END
