
#######################################################################
#
#                 Cambridge Crystallographic Data Centre
#                                CCDC 
#
#######################################################################
#
# If this CIF has been generated from an entry in the Cambridge 
# Structural Database, then it will include bibliographic, chemical, 
# crystal, experimental, refinement or atomic coordinate data resulting 
# from the CCDC's data processing and validation procedures.
#
#######################################################################

data_EHUNUR
_chemical_formula_moiety         'C25 H20 Cl1 N3 O4 S1'
_chemical_name_systematic        
1-(2-(1-((4-Chlorophenyl)sulfonyl)-6-methyl-1H-indol-3-yl)-5-phenyl-1,3,4-oxadiazol-3(2H)-yl)ethanone
_symmetry_cell_setting           triclinic
_symmetry_space_group_name_H-M   'P -1'
_symmetry_Int_Tables_number      2
_space_group_name_Hall           '-P 1'
loop_
_symmetry_equiv_pos_site_id
_symmetry_equiv_pos_as_xyz
1 x,y,z
2 -x,-y,-z
_cell_length_a                   9.9446(13)
_cell_length_b                   11.2132(15)
_cell_length_c                   11.4658(14)
_cell_angle_alpha                87.963(2)
_cell_angle_beta                 77.799(2)
_cell_angle_gamma                68.664(2)
_cell_volume                     1162.83
_cell_formula_units_Z            2
loop_
_atom_site_label
_atom_site_type_symbol
_atom_site_fract_x
_atom_site_fract_y
_atom_site_fract_z
C1 C 0.4646(3) 0.0177(3) 0.2502(3)
C2 C 0.5357(3) -0.0568(3) 0.3327(3)
H1 H 0.5760 -0.0219 0.3824
C3 C 0.5474(4) -0.1831(3) 0.3422(3)
H2 H 0.5952 -0.2333 0.3982
C4 C 0.4882(4) -0.2343(3) 0.2685(4)
H3 H 0.4959 -0.3194 0.2748
C5 C 0.4181(4) -0.1614(3) 0.1860(3)
H4 H 0.3782 -0.1969 0.1364
C6 C 0.4063(4) -0.0357(3) 0.1759(3)
H5 H 0.3591 0.0136 0.1191
C7 C 0.9365(4) 0.2037(4) 0.6401(3)
H6 H 0.8841 0.2015 0.7171
C8 C 1.0578(4) 0.1010(3) 0.5922(3)
C9 C 1.1372(4) 0.1015(4) 0.4793(3)
H7 H 1.2202 0.0304 0.4476
C10 C 1.0931(4) 0.2082(4) 0.4131(3)
H8 H 1.1466 0.2098 0.3363
C11 C 0.9693(3) 0.3127(3) 0.4611(3)
C12 C 0.8907(4) 0.3115(3) 0.5748(3)
H9 H 0.8078 0.3824 0.6074
C13 C 0.7464(3) 0.2876(3) 0.1776(2)
C14 C 0.8612(3) 0.3264(3) 0.1918(3)
C15 C 0.9958(3) 0.2874(3) 0.1122(3)
H10 H 1.0707 0.3136 0.1242
C16 C 1.0178(4) 0.2087(3) 0.0144(3)
C17 C 0.9033(4) 0.1704(3) 0.0001(3)
H11 H 0.9186 0.1168 -0.0654
C18 C 0.7692(3) 0.2087(3) 0.0788(3)
H12 H 0.6947 0.1823 0.0663
C19 C 0.6636(3) 0.4145(3) 0.3440(3)
H13 H 0.6048 0.4599 0.4143
C20 C 0.6231(3) 0.3458(3) 0.2755(3)
C21 C 0.4509(3) 0.1514(3) 0.2417(3)
C22 C 0.3573(3) 0.4564(3) 0.1418(3)
C23 C 0.4770(3) 0.3312(3) 0.2991(3)
H14 H 0.4078 0.3913 0.3638
C24 C 1.1616(4) 0.1679(4) -0.0766(3)
H15 H 1.1498 0.2201 -0.1446
H16 H 1.1898 0.0797 -0.1013
H17 H 1.2369 0.1777 -0.0418
C25 C 0.2954(4) 0.4560(3) 0.0344(3)
H18 H 0.1982 0.5207 0.0456
H19 H 0.2901 0.3736 0.0230
H20 H 0.3581 0.4735 -0.0345
Cl1 Cl 1.11502(12) -0.03325(9) 0.67475(10)
N1 N 0.4028(3) 0.2280(2) 0.1620(2)
N2 N 0.4119(3) 0.3436(2) 0.1936(2)
N3 N 0.8072(3) 0.4086(2) 0.2951(2)
O1 O 0.4933(2) 0.20092(19) 0.32820(18)
O2 O 1.0308(2) 0.4585(2) 0.2929(2)
O3 O 0.3646(2) 0.5522(2) 0.1842(2)
O4 O 0.8055(2) 0.5509(2) 0.45386(19)
S1 S 0.90859(10) 0.44651(8) 0.37619(8)
loop_
_geom_bond_atom_site_label_1
_geom_bond_atom_site_label_2
_geom_bond_site_symmetry_1
_geom_bond_site_symmetry_2
C1 C2 1_555 1_555
C2 H1 1_555 1_555
C3 C2 1_555 1_555
H2 C3 1_555 1_555
C4 C3 1_555 1_555
H3 C4 1_555 1_555
C5 C4 1_555 1_555
H4 C5 1_555 1_555
C6 C1 1_555 1_555
H5 C6 1_555 1_555
C7 H6 1_555 1_555
C8 C7 1_555 1_555
C9 C8 1_555 1_555
H7 C9 1_555 1_555
C10 C9 1_555 1_555
H8 C10 1_555 1_555
C11 C10 1_555 1_555
C12 C7 1_555 1_555
H9 C12 1_555 1_555
C13 C14 1_555 1_555
C14 C15 1_555 1_555
C15 H10 1_555 1_555
C16 C15 1_555 1_555
C17 C16 1_555 1_555
H11 C17 1_555 1_555
C18 C13 1_555 1_555
H12 C18 1_555 1_555
C19 H13 1_555 1_555
C20 C13 1_555 1_555
C21 C1 1_555 1_555
C22 C25 1_555 1_555
C23 C20 1_555 1_555
H14 C23 1_555 1_555
C24 C16 1_555 1_555
H15 C24 1_555 1_555
H16 C24 1_555 1_555
H17 C24 1_555 1_555
C25 H18 1_555 1_555
H19 C25 1_555 1_555
H20 C25 1_555 1_555
Cl1 C8 1_555 1_555
N1 C21 1_555 1_555
N2 C22 1_555 1_555
N3 C14 1_555 1_555
O1 C21 1_555 1_555
O2 S1 1_555 1_555
O3 C22 1_555 1_555
O4 S1 1_555 1_555
S1 C11 1_555 1_555
C5 C6 1_555 1_555
C11 C12 1_555 1_555
C17 C18 1_555 1_555
C19 C20 1_555 1_555
C19 N3 1_555 1_555
C23 N2 1_555 1_555
C23 O1 1_555 1_555
N1 N2 1_555 1_555
N3 S1 1_555 1_555

#END
