
#######################################################################
#
#                 Cambridge Crystallographic Data Centre
#                                CCDC 
#
#######################################################################
#
# If this CIF has been generated from an entry in the Cambridge 
# Structural Database, then it will include bibliographic, chemical, 
# crystal, experimental, refinement or atomic coordinate data resulting 
# from the CCDC's data processing and validation procedures.
#
#######################################################################

data_EHUNUS
_chemical_formula_moiety         'C45 H51 B3 F6 N6'
_chemical_name_systematic        
5,5,11,11,17,17-hexafluoro-6,12,18-trihexyl-5H,11H,17H-4b,6,10b,12,16b,18-hexaaza-5,11,17-triboratribenzo[fgh,pqr,za~1~b~1~]trinaphthylene
_symmetry_cell_setting           monoclinic
_symmetry_space_group_name_H-M   'P 21/n'
_symmetry_Int_Tables_number      14
_space_group_name_Hall           '-P 2yn'
loop_
_symmetry_equiv_pos_site_id
_symmetry_equiv_pos_as_xyz
1 x,y,z
2 1/2-x,1/2+y,1/2-z
3 -x,-y,-z
4 1/2+x,1/2-y,1/2+z
_cell_length_a                   16.672(4)
_cell_length_b                   6.7638(15)
_cell_length_c                   37.518(8)
_cell_angle_alpha                90
_cell_angle_beta                 99.692(7)
_cell_angle_gamma                90
_cell_volume                     4170.37
_exptl_crystal_colour            yellow
_exptl_crystal_description       needle
_cell_formula_units_Z            4
loop_
_atom_site_label
_atom_site_type_symbol
_atom_site_fract_x
_atom_site_fract_y
_atom_site_fract_z
F1 F 0.39165(18) 0.4184(5) 0.24832(10)
F2 F 0.4784(2) 0.6517(5) 0.27767(8)
F3 F 0.5296(2) 1.1085(5) 0.07953(9)
F4 F 0.41830(19) 0.9141(5) 0.06137(8)
F5 F 0.77945(17) 0.4931(4) 0.17265(7)
F6 F 0.80829(17) 0.1723(5) 0.16303(7)
N1 N 0.6716(2) 0.2614(6) 0.17410(10)
C1 C 0.6666(3) 0.1112(7) 0.19922(12)
C2 C 0.7115(3) -0.0638(8) 0.19896(13)
H1 H 0.7481 -0.0778 0.1823
C3 C 0.7034(3) -0.2155(7) 0.22244(13)
H2 H 0.7359 -0.3309 0.2226
C4 C 0.6479(3) -0.2001(7) 0.24588(13)
H3 H 0.6415 -0.3063 0.2617
C5 C 0.6020(3) -0.0316(7) 0.24633(13)
H4 H 0.5627 -0.0243 0.2619
C6 C 0.6126(3) 0.1307(7) 0.22390(12)
C7 C 0.5666(3) 0.3124(7) 0.22454(13)
N2 N 0.5338(2) 0.3723(6) 0.25262(10)
B1 B 0.4639(4) 0.5219(9) 0.24835(16)
N3 N 0.4571(2) 0.6387(6) 0.21223(11)
C8 C 0.3973(3) 0.7854(7) 0.20625(15)
C9 C 0.3450(3) 0.8163(9) 0.23171(17)
H5 H 0.3553 0.7487 0.2542
C10 C 0.2801(4) 0.9413(10) 0.22461(18)
H6 H 0.2462 0.9604 0.2423
C11 C 0.2631(4) 1.0402(11) 0.19200(18)
H7 H 0.2163 1.1218 0.1867
C12 C 0.3151(3) 1.0195(9) 0.16709(17)
H8 H 0.3034 1.0862 0.1445
C13 C 0.3858(3) 0.8993(8) 0.17494(14)
C14 C 0.4440(3) 0.8816(7) 0.15005(13)
N4 N 0.4490(2) 1.0082(6) 0.12311(11)
B2 B 0.4837(4) 0.9534(8) 0.08928(15)
N5 N 0.5379(2) 0.7639(6) 0.09613(11)
C15 C 0.5706(3) 0.6893(8) 0.06667(13)
C16 C 0.5549(3) 0.7812(9) 0.03280(14)
H9 H 0.5291 0.9068 0.0305
C17 C 0.5763(4) 0.6922(10) 0.00287(15)
H10 H 0.5655 0.7571 -0.0199
C18 C 0.6138(4) 0.5070(10) 0.00561(14)
H11 H 0.6244 0.4407 -0.0154
C19 C 0.6350(3) 0.4222(8) 0.03907(14)
H12 H 0.6608 0.2966 0.0411
C20 C 0.6192(3) 0.5184(8) 0.07076(13)
C21 C 0.6506(3) 0.4508(7) 0.10706(13)
N6 N 0.7185(2) 0.3474(6) 0.11687(11)
B3 B 0.7476(3) 0.3148(9) 0.15728(15)
C22 C 0.6115(3) 0.3989(7) 0.16772(12)
C23 C 0.5569(3) 0.4314(7) 0.19243(12)
C24 C 0.5023(3) 0.5971(7) 0.18614(13)
C25 C 0.4975(3) 0.7133(7) 0.15459(12)
C26 C 0.5475(3) 0.6637(7) 0.12808(13)
C27 C 0.6045(3) 0.5096(7) 0.13469(12)
C28 C 0.5598(3) 0.3022(8) 0.29022(13)
H13 H 0.5782 0.4176 0.3057
H14 H 0.6071 0.2132 0.2907
C29 C 0.4946(4) 0.1929(9) 0.30662(15)
H15 H 0.4806 0.0656 0.2941
H16 H 0.4447 0.2739 0.3051
C30 C 0.5355(6) 0.1578(18) 0.3475(3)
H17 H 0.5835 0.0708 0.3482
H18 H 0.5545 0.2859 0.3585
C31 C 0.4764(8) 0.0637(18) 0.3694(3)
H19 H 0.4306 0.1558 0.3701
H20 H 0.5046 0.0436 0.3945
C32 C 0.4425(14) -0.135(3) 0.3539(7)
H21 H 0.3845 -0.1403 0.3566
H22 H 0.4440 -0.1337 0.3277
C33 C 0.4810(14) -0.324(3) 0.3688(6)
H23 H 0.4520 -0.4363 0.3560
H24 H 0.5381 -0.3269 0.3655
H25 H 0.4781 -0.3335 0.3946
C34 C 0.4199(3) 1.2149(7) 0.12296(15)
H26 H 0.4660 1.3027 0.1201
H27 H 0.4054 1.2431 0.1470
C35 C 0.3472(3) 1.2718(8) 0.09408(15)
H28 H 0.3636 1.2670 0.0699
H29 H 0.3028 1.1750 0.0943
C36 C 0.3168(4) 1.4759(8) 0.10062(17)
H30 H 0.3617 1.5713 0.1003
H31 H 0.3019 1.4798 0.1251
C37 C 0.2440(4) 1.5427(10) 0.0734(2)
H32 H 0.1986 1.4489 0.0738
H33 H 0.2585 1.5398 0.0489
C38 C 0.2159(5) 1.7507(11) 0.0812(3)
H34 H 0.2025 1.7538 0.1059
H35 H 0.2612 1.8444 0.0805
C39 C 0.1434(8) 1.8173(19) 0.0550(4)
H36 H 0.0972 1.7301 0.0567
H37 H 0.1559 1.8125 0.0304
H38 H 0.1295 1.9532 0.0607
C40 C 0.7756(3) 0.2865(8) 0.09278(14)
H39 H 0.8320 0.3091 0.1052
H40 H 0.7664 0.3694 0.0707
C41 C 0.7654(4) 0.0696(9) 0.08197(15)
H41 H 0.7780 -0.0141 0.1038
H42 H 0.7082 0.0448 0.0708
C42 C 0.8211(5) 0.0131(11) 0.0554(2)
H43 H 0.8019 0.0798 0.0321
H44 H 0.8767 0.0618 0.0648
C43 C 0.8248(6) -0.2051(11) 0.0490(2)
H45 H 0.7692 -0.2549 0.0400
H46 H 0.8452 -0.2723 0.0722
C44 C 0.8811(11) -0.2572(16) 0.0212(4)
H47 H 0.8563 -0.2067 -0.0029
H48 H 0.9342 -0.1904 0.0283
C45 C 0.8945(11) -0.474(2) 0.0188(5)
H49 H 0.9302 -0.5001 0.0011
H50 H 0.9201 -0.5241 0.0425
H51 H 0.8422 -0.5404 0.0113
H52? H 0.4570 0.2934 0.3136
H53? H 0.4629 0.1118 0.2872
C46? C 0.5197(8) 0.060(2) 0.3388(4)
H54? H 0.5509 0.1371 0.3589
H55? H 0.5553 -0.0467 0.3323
C47? C 0.4424(12) -0.033(4) 0.3513(7)
H56? H 0.4115 0.0661 0.3629
H57? H 0.4059 -0.0964 0.3309
C48? C 0.4826(14) -0.185(4) 0.3783(7)
H58? H 0.5216 -0.2674 0.3677
H59? H 0.5115 -0.1198 0.4004
C49? C 0.4151(13) -0.300(3) 0.3858(6)
H60? H 0.4349 -0.4036 0.4033
H61? H 0.3771 -0.2140 0.3959
H62? H 0.3871 -0.3604 0.3634
H63? H 0.9030 -0.3884 0.0295
H64? H 0.8420 -0.2836 -0.0012
C50? C 0.952(4) -0.161(11) 0.007(3)
H65? H 0.9702 -0.2471 -0.0108
H66? H 0.9347 -0.0333 -0.0039
H67? H 0.9969 -0.1400 0.0274
loop_
_geom_bond_atom_site_label_1
_geom_bond_atom_site_label_2
_geom_bond_site_symmetry_1
_geom_bond_site_symmetry_2
F1 B1 1_555 1_555
F2 B1 1_555 1_555
F3 B2 1_555 1_555
F4 B2 1_555 1_555
F5 B3 1_555 1_555
F6 B3 1_555 1_555
N1 C1 1_555 1_555
C1 C2 1_555 1_555
C2 H1 1_555 1_555
C3 C2 1_555 1_555
H2 C3 1_555 1_555
C4 C3 1_555 1_555
H3 C4 1_555 1_555
C5 C4 1_555 1_555
H4 C5 1_555 1_555
C6 C1 1_555 1_555
C7 C6 1_555 1_555
N2 C7 1_555 1_555
B1 N2 1_555 1_555
N3 B1 1_555 1_555
C8 N3 1_555 1_555
C9 C8 1_555 1_555
H5 C9 1_555 1_555
C10 C9 1_555 1_555
H6 C10 1_555 1_555
C11 C10 1_555 1_555
H7 C11 1_555 1_555
C12 C11 1_555 1_555
H8 C12 1_555 1_555
C13 C8 1_555 1_555
C14 C13 1_555 1_555
N4 C14 1_555 1_555
B2 N4 1_555 1_555
N5 B2 1_555 1_555
C15 N5 1_555 1_555
C16 C15 1_555 1_555
H9 C16 1_555 1_555
C17 C16 1_555 1_555
H10 C17 1_555 1_555
C18 C17 1_555 1_555
H11 C18 1_555 1_555
C19 C18 1_555 1_555
H12 C19 1_555 1_555
C20 C15 1_555 1_555
C21 C20 1_555 1_555
N6 C21 1_555 1_555
B3 N1 1_555 1_555
C22 N1 1_555 1_555
C23 C7 1_555 1_555
C24 N3 1_555 1_555
C25 C14 1_555 1_555
C26 N5 1_555 1_555
C27 C21 1_555 1_555
C28 N2 1_555 1_555
H13 C28 1_555 1_555
H14 C28 1_555 1_555
C29 C28 1_555 1_555
H15 C29 1_555 1_555
H16 C29 1_555 1_555
C30 C29 1_555 1_555
H17 C30 1_555 1_555
H18 C30 1_555 1_555
C31 C30 1_555 1_555
H19 C31 1_555 1_555
H20 C31 1_555 1_555
C32 C31 1_555 1_555
H21 C32 1_555 1_555
H22 C32 1_555 1_555
C33 C32 1_555 1_555
H23 C33 1_555 1_555
H24 C33 1_555 1_555
H25 C33 1_555 1_555
C34 N4 1_555 1_555
H26 C34 1_555 1_555
H27 C34 1_555 1_555
C35 C34 1_555 1_555
H28 C35 1_555 1_555
H29 C35 1_555 1_555
C36 C35 1_555 1_555
H30 C36 1_555 1_555
H31 C36 1_555 1_555
C37 C36 1_555 1_555
H32 C37 1_555 1_555
H33 C37 1_555 1_555
C38 C37 1_555 1_555
H34 C38 1_555 1_555
H35 C38 1_555 1_555
C39 C38 1_555 1_555
H36 C39 1_555 1_555
H37 C39 1_555 1_555
H38 C39 1_555 1_555
C40 N6 1_555 1_555
H39 C40 1_555 1_555
H40 C40 1_555 1_555
C41 C40 1_555 1_555
H41 C41 1_555 1_555
H42 C41 1_555 1_555
C42 C41 1_555 1_555
H43 C42 1_555 1_555
H44 C42 1_555 1_555
C43 C42 1_555 1_555
H45 C43 1_555 1_555
H46 C43 1_555 1_555
C44 C43 1_555 1_555
H47 C44 1_555 1_555
H48 C44 1_555 1_555
C45 C44 1_555 1_555
H49 C45 1_555 1_555
H50 C45 1_555 1_555
H51 C45 1_555 1_555
C5 C6 1_555 1_555
C12 C13 1_555 1_555
C19 C20 1_555 1_555
N6 B3 1_555 1_555
C22 C23 1_555 1_555
C22 C27 1_555 1_555
C23 C24 1_555 1_555
C24 C25 1_555 1_555
C25 C26 1_555 1_555
C26 C27 1_555 1_555

#END
