
#######################################################################
#
#                 Cambridge Crystallographic Data Centre
#                                CCDC 
#
#######################################################################
#
# If this CIF has been generated from an entry in the Cambridge 
# Structural Database, then it will include bibliographic, chemical, 
# crystal, experimental, refinement or atomic coordinate data resulting 
# from the CCDC's data processing and validation procedures.
#
#######################################################################

data_EHUSIL
_chemical_formula_moiety         'C26 H33 N2 O7 1+,I1 1-,2(C6 H6)'
_chemical_name_systematic        
'15-(t-Butoxycarbonyl)-13-(ethoxycarbonyl)-9,10-dihydroxy-11-oxa-15-aza-6-azoniahexacyclo[12.7.0.0^2,6^.0^3,10^.0^9,13^.0^16,21^]henicosa-1(14),16,18,20-tetraene iodide benzene solvate'
_symmetry_cell_setting           monoclinic
_symmetry_space_group_name_H-M   'P 21/n'
_symmetry_Int_Tables_number      14
_space_group_name_Hall           '-P 2yn'
loop_
_symmetry_equiv_pos_site_id
_symmetry_equiv_pos_as_xyz
1 x,y,z
2 1/2-x,1/2+y,1/2-z
3 -x,-y,-z
4 1/2+x,1/2-y,1/2+z
_cell_length_a                   18.3255(6)
_cell_length_b                   9.8329(3)
_cell_length_c                   21.8331(7)
_cell_angle_alpha                90
_cell_angle_beta                 113.534(2)
_cell_angle_gamma                90
_cell_volume                     3606.94
_exptl_crystal_colour            colorless
_exptl_crystal_description       platelet
_cell_formula_units_Z            4
loop_
_atom_site_label
_atom_site_type_symbol
_atom_site_fract_x
_atom_site_fract_y
_atom_site_fract_z
I1 I 0.59278(2) 0.21183(2) 0.58126(2)
O1 O 0.52782(15) 0.3894(3) 0.18361(13)
O2 O 0.65198(16) 0.4504(3) 0.25490(15)
O3 O 0.35500(14) 0.1573(3) 0.21956(12)
O4 O 0.24509(16) 0.1934(3) 0.24518(15)
H1 H 0.2217 0.2497 0.2147
O5 O 0.28500(14) 0.4311(3) 0.22662(12)
H2 H 0.2842 0.5128 0.2377
O6 O 0.47961(16) 0.5801(3) 0.27979(13)
O7 O 0.38711(15) 0.5620(3) 0.17459(13)
N1 N 0.57122(18) 0.3281(3) 0.29130(16)
N2 N 0.44886(19) 0.2580(3) 0.42690(16)
H3 H 0.491(3) 0.259(4) 0.463(2)
C1 C 0.5934(2) 0.1796(4) 0.37642(18)
C2 C 0.6382(2) 0.0951(4) 0.42915(19)
H4 H 0.6135 0.0446 0.4528
C3 C 0.7198(2) 0.0861(4) 0.4466(2)
H5 H 0.7515 0.0299 0.4829
C4 C 0.7555(2) 0.1592(5) 0.4109(2)
H6 H 0.8112 0.1504 0.4233
C5 C 0.7126(2) 0.2436(4) 0.3583(2)
H7 H 0.7373 0.2922 0.3342
C6 C 0.6305(2) 0.2540(4) 0.34229(19)
C7 C 0.5888(2) 0.3975(4) 0.2425(2)
C8 C 0.5350(3) 0.4446(4) 0.1222(2)
C9 C 0.6030(3) 0.3728(5) 0.1122(3)
H8 H 0.6539 0.4037 0.1462
H9 H 0.6009 0.3941 0.0677
H10 H 0.5979 0.2743 0.1163
C10 C 0.5450(3) 0.5979(5) 0.1275(2)
H11 H 0.5005 0.6383 0.1352
H12 H 0.5458 0.6339 0.0860
H13 H 0.5951 0.6204 0.1649
C11 C 0.4549(3) 0.4049(5) 0.0682(2)
H14 H 0.4498 0.3056 0.0664
H15 H 0.4512 0.4389 0.0248
H16 H 0.4121 0.4446 0.0785
C12 C 0.4972(2) 0.3018(4) 0.29498(19)
C13 C 0.5093(2) 0.2114(4) 0.34547(19)
C14 C 0.4530(2) 0.1590(4) 0.37447(17)
H17 H 0.4771 0.0733 0.3989
C15 C 0.3652(2) 0.1261(4) 0.33125(18)
H18 H 0.3621 0.0286 0.3175
C16 C 0.3284(2) 0.2115(4) 0.26789(19)
C17 C 0.3807(2) 0.2658(4) 0.18897(18)
H19 H 0.3351 0.3083 0.1523
H20 H 0.4196 0.2332 0.1712
C18 C 0.4198(2) 0.3661(4) 0.24745(17)
C19 C 0.3521(2) 0.3646(4) 0.27529(18)
C20 C 0.3672(2) 0.4328(4) 0.34252(18)
H21 H 0.3666 0.5321 0.3350
H22 H 0.3206 0.4122 0.3529
C21 C 0.4405(2) 0.4032(4) 0.40541(18)
H23 H 0.4883 0.4300 0.3978
H24 H 0.4387 0.4603 0.4421
C22 C 0.3823(2) 0.2042(4) 0.4435(2)
H25 H 0.3569 0.2790 0.4583
H26 H 0.4025 0.1358 0.4797
C23 C 0.3228(2) 0.1397(4) 0.37978(19)
H27 H 0.2749 0.1977 0.3598
H28 H 0.3063 0.0492 0.3895
C24 C 0.4268(2) 0.5118(4) 0.22778(19)
C25 C 0.4851(3) 0.7270(4) 0.2710(2)
H29 H 0.4389 0.7742 0.2739
H30 H 0.4860 0.7467 0.2268
C26 C 0.5614(3) 0.7741(5) 0.3262(3)
H31 H 0.5605 0.7510 0.3696
H32 H 0.5666 0.8728 0.3232
H33 H 0.6067 0.7289 0.3218
C27 C 0.2997(3) 0.7916(5) 0.0393(3)
H34 H 0.3280 0.7086 0.0532
C28 C 0.2570(3) 0.8181(5) -0.0283(3)
H35 H 0.2568 0.7536 -0.0607
C29 C 0.2150(3) 0.9377(5) -0.0482(2)
H36 H 0.1853 0.9552 -0.0943
C30 C 0.2160(3) 1.0322(5) -0.0011(2)
H37 H 0.1875 1.1151 -0.0147
C31 C 0.2590(3) 1.0053(5) 0.0662(2)
H38 H 0.2595 1.0696 0.0988
C32 C 0.3007(3) 0.8857(6) 0.0857(2)
H39 H 0.3304 0.8683 0.1318
C33 C 0.9043(4) 0.4657(6) 0.4060(3)
H40 H 0.8947 0.4427 0.4444
C34 C 0.9811(4) 0.4590(6) 0.4086(3)
H41 H 1.0243 0.4321 0.4484
C35 C 0.9935(3) 0.4928(5) 0.3514(3)
H42 H 1.0457 0.4909 0.3521
C36 C 0.9302(4) 0.5286(5) 0.2943(3)
H43 H 0.9382 0.5491 0.2550
C37 C 0.8551(3) 0.5350(5) 0.2938(3)
H44 H 0.8114 0.5608 0.2541
C38 C 0.8435(3) 0.5046(5) 0.3496(3)
H45 H 0.7915 0.5109 0.3489
loop_
_geom_bond_atom_site_label_1
_geom_bond_atom_site_label_2
_geom_bond_site_symmetry_1
_geom_bond_site_symmetry_2
O1 C7 1_555 1_555
O2 C7 1_555 1_555
O3 C16 1_555 1_555
O4 H1 1_555 1_555
O5 H2 1_555 1_555
O6 C24 1_555 1_555
O7 C24 1_555 1_555
N1 C6 1_555 1_555
N2 H3 1_555 1_555
C1 C2 1_555 1_555
C2 H4 1_555 1_555
C3 C2 1_555 1_555
H5 C3 1_555 1_555
C4 C3 1_555 1_555
H6 C4 1_555 1_555
C5 C4 1_555 1_555
H7 C5 1_555 1_555
C6 C1 1_555 1_555
C7 N1 1_555 1_555
C8 O1 1_555 1_555
C9 C8 1_555 1_555
H8 C9 1_555 1_555
H9 C9 1_555 1_555
H10 C9 1_555 1_555
C10 C8 1_555 1_555
H11 C10 1_555 1_555
H12 C10 1_555 1_555
H13 C10 1_555 1_555
C11 C8 1_555 1_555
H14 C11 1_555 1_555
H15 C11 1_555 1_555
H16 C11 1_555 1_555
C12 N1 1_555 1_555
C13 C1 1_555 1_555
C14 N2 1_555 1_555
H17 C14 1_555 1_555
C15 C14 1_555 1_555
H18 C15 1_555 1_555
C16 O4 1_555 1_555
C17 O3 1_555 1_555
H19 C17 1_555 1_555
H20 C17 1_555 1_555
C18 C12 1_555 1_555
C19 O5 1_555 1_555
C20 C19 1_555 1_555
H21 C20 1_555 1_555
H22 C20 1_555 1_555
C21 N2 1_555 1_555
H23 C21 1_555 1_555
H24 C21 1_555 1_555
C22 N2 1_555 1_555
H25 C22 1_555 1_555
H26 C22 1_555 1_555
C23 C15 1_555 1_555
H27 C23 1_555 1_555
H28 C23 1_555 1_555
C24 C18 1_555 1_555
C25 O6 1_555 1_555
H29 C25 1_555 1_555
H30 C25 1_555 1_555
C26 C25 1_555 1_555
H31 C26 1_555 1_555
H32 C26 1_555 1_555
H33 C26 1_555 1_555
C27 H34 1_555 1_555
C28 C27 1_555 1_555
H35 C28 1_555 1_555
C29 C28 1_555 1_555
H36 C29 1_555 1_555
C30 C29 1_555 1_555
H37 C30 1_555 1_555
C31 C30 1_555 1_555
H38 C31 1_555 1_555
C32 C27 1_555 1_555
H39 C32 1_555 1_555
C33 H40 1_555 1_555
C34 C33 1_555 1_555
H41 C34 1_555 1_555
C35 C34 1_555 1_555
H42 C35 1_555 1_555
C36 C35 1_555 1_555
H43 C36 1_555 1_555
C37 C36 1_555 1_555
H44 C37 1_555 1_555
C38 C33 1_555 1_555
H45 C38 1_555 1_555
C5 C6 1_555 1_555
C12 C13 1_555 1_555
C13 C14 1_555 1_555
C15 C16 1_555 1_555
C16 C19 1_555 1_555
C17 C18 1_555 1_555
C18 C19 1_555 1_555
C20 C21 1_555 1_555
C22 C23 1_555 1_555
C31 C32 1_555 1_555
C37 C38 1_555 1_555

#END
