
#######################################################################
#
#                 Cambridge Crystallographic Data Centre
#                                CCDC 
#
#######################################################################
#
# If this CIF has been generated from an entry in the Cambridge 
# Structural Database, then it will include bibliographic, chemical, 
# crystal, experimental, refinement or atomic coordinate data resulting 
# from the CCDC's data processing and validation procedures.
#
#######################################################################

data_EHUSOR
_chemical_formula_moiety         'C26 H30 N2 O7'
_chemical_name_systematic        
'10-t-Butyl 12-ethyl 15,21-dioxo-14-oxa-1,10-diazapentacyclo[10.6.3.0^2,16^.0^3,11^.0^4,9^]henicosa-3(11),4,6,8-tetraene-10,12-dicarboxylate'
_symmetry_cell_setting           triclinic
_symmetry_space_group_name_H-M   'P -1'
_symmetry_Int_Tables_number      2
_space_group_name_Hall           '-P 1'
loop_
_symmetry_equiv_pos_site_id
_symmetry_equiv_pos_as_xyz
1 x,y,z
2 -x,-y,-z
_cell_length_a                   9.1811(2)
_cell_length_b                   11.1546(2)
_cell_length_c                   11.7517(2)
_cell_angle_alpha                94.3941(8)
_cell_angle_beta                 97.2458(8)
_cell_angle_gamma                92.0699(8)
_cell_volume                     1189.11
_exptl_crystal_colour            colorless
_exptl_crystal_description       block
_cell_formula_units_Z            2
loop_
_atom_site_label
_atom_site_type_symbol
_atom_site_fract_x
_atom_site_fract_y
_atom_site_fract_z
O1 O 0.80039(12) -0.01453(9) 0.16474(9)
O2 O 0.40766(11) 0.30390(10) 0.12991(9)
O3 O 0.53866(10) 0.13682(8) 0.11465(8)
O4 O 0.64900(10) 0.28888(8) 0.46789(8)
O5 O 0.78177(10) 0.46225(8) 0.52909(8)
O6 O 0.92739(11) 0.18041(9) 0.43119(8)
O7 O 0.73358(11) 0.04819(9) 0.42212(8)
N1 N 0.79417(13) 0.18782(10) 0.01274(10)
N2 N 0.76986(12) 0.39331(9) 0.34416(9)
C1 C 0.73457(15) 0.30530(12) 0.02842(11)
H1 H 0.7795 0.3610 -0.0216
C2 C 0.56831(16) 0.28123(13) -0.01767(12)
H2 H 0.5252 0.3546 -0.0495
C3 C 0.56933(17) 0.17872(13) -0.11407(12)
H3 H 0.4892 0.1177 -0.1109
H4 H 0.5561 0.2110 -0.1907
C4 C 0.71989(17) 0.12290(13) -0.09216(12)
H5 H 0.7080 0.0360 -0.0818
H6 H 0.7766 0.1329 -0.1574
C5 C 0.95306(16) 0.17876(13) 0.03967(12)
H7 H 1.0042 0.2568 0.0321
H8 H 0.9888 0.1169 -0.0138
C6 C 0.98337(15) 0.14360(13) 0.16409(12)
H9 H 1.0603 0.0837 0.1711
H10 H 1.0156 0.2151 0.2177
C7 C 0.83759(16) 0.09028(12) 0.18924(12)
C8 C 0.74158(15) 0.16986(12) 0.26549(11)
C9 C 0.57893(15) 0.12626(13) 0.23608(12)
H11 H 0.5659 0.0415 0.2539
H12 H 0.5165 0.1764 0.2815
C10 C 0.49238(15) 0.24501(13) 0.08204(12)
C11 C 0.75968(14) 0.35908(12) 0.15120(11)
C12 C 0.75773(14) 0.30341(12) 0.25061(11)
C13 C 0.78213(14) 0.50714(12) 0.30045(11)
C14 C 0.77416(14) 0.48719(12) 0.18083(11)
C15 C 0.77904(15) 0.58477(12) 0.11279(12)
H13 H 0.7743 0.5720 0.0315
C16 C 0.79081(15) 0.69967(13) 0.16649(12)
H14 H 0.7935 0.7669 0.1217
C17 C 0.79875(16) 0.71818(12) 0.28596(12)
H15 H 0.8065 0.7983 0.3208
C18 C 0.79570(15) 0.62328(12) 0.35553(12)
H16 H 0.8025 0.6367 0.4369
C19 C 0.72664(14) 0.37413(12) 0.45259(11)
C20 C 0.74738(15) 0.46519(13) 0.65026(11)
C21 C 0.58324(16) 0.47465(15) 0.65254(13)
H17 H 0.5490 0.5434 0.6112
H18 H 0.5631 0.4859 0.7325
H19 H 0.5316 0.4006 0.6154
C22 C 0.83089(16) 0.57968(14) 0.70341(12)
H20 H 0.9355 0.5735 0.6959
H21 H 0.8184 0.5913 0.7851
H22 H 0.7928 0.6484 0.6637
C23 C 0.80783(17) 0.35548(14) 0.70470(13)
H23 H 0.7489 0.2835 0.6710
H24 H 0.8036 0.3647 0.7878
H25 H 0.9101 0.3473 0.6905
C24 C 0.81075(15) 0.13727(12) 0.38444(12)
C25 C 0.79374(18) 0.00717(15) 0.53242(14)
H26 H 0.8162 0.0765 0.5906
H27 H 0.8855 -0.0349 0.5248
C26 C 0.6809(2) -0.0763(2) 0.56802(18)
H28 H 0.5944 -0.0317 0.5830
H29 H 0.7216 -0.1120 0.6381
H30 H 0.6525 -0.1402 0.5064
loop_
_geom_bond_atom_site_label_1
_geom_bond_atom_site_label_2
_geom_bond_site_symmetry_1
_geom_bond_site_symmetry_2
O1 C7 1_555 1_555
O2 C10 1_555 1_555
O3 C9 1_555 1_555
O4 C19 1_555 1_555
O5 C19 1_555 1_555
O6 C24 1_555 1_555
O7 C24 1_555 1_555
N1 C1 1_555 1_555
N2 C12 1_555 1_555
C1 H1 1_555 1_555
C2 C1 1_555 1_555
H2 C2 1_555 1_555
C3 C2 1_555 1_555
H3 C3 1_555 1_555
H4 C3 1_555 1_555
C4 N1 1_555 1_555
H5 C4 1_555 1_555
H6 C4 1_555 1_555
C5 N1 1_555 1_555
H7 C5 1_555 1_555
H8 C5 1_555 1_555
C6 C5 1_555 1_555
H9 C6 1_555 1_555
H10 C6 1_555 1_555
C7 C6 1_555 1_555
C8 C7 1_555 1_555
C9 C8 1_555 1_555
H11 C9 1_555 1_555
H12 C9 1_555 1_555
C10 O3 1_555 1_555
C11 C1 1_555 1_555
C12 C8 1_555 1_555
C13 N2 1_555 1_555
C14 C11 1_555 1_555
C15 C14 1_555 1_555
H13 C15 1_555 1_555
C16 C15 1_555 1_555
H14 C16 1_555 1_555
C17 C16 1_555 1_555
H15 C17 1_555 1_555
C18 C13 1_555 1_555
H16 C18 1_555 1_555
C19 N2 1_555 1_555
C20 O5 1_555 1_555
C21 C20 1_555 1_555
H17 C21 1_555 1_555
H18 C21 1_555 1_555
H19 C21 1_555 1_555
C22 C20 1_555 1_555
H20 C22 1_555 1_555
H21 C22 1_555 1_555
H22 C22 1_555 1_555
C23 C20 1_555 1_555
H23 C23 1_555 1_555
H24 C23 1_555 1_555
H25 C23 1_555 1_555
C24 C8 1_555 1_555
C25 O7 1_555 1_555
H26 C25 1_555 1_555
H27 C25 1_555 1_555
C26 C25 1_555 1_555
H28 C26 1_555 1_555
H29 C26 1_555 1_555
H30 C26 1_555 1_555
C2 C10 1_555 1_555
C3 C4 1_555 1_555
C11 C12 1_555 1_555
C13 C14 1_555 1_555
C17 C18 1_555 1_555

#END
