
#######################################################################
#
#                 Cambridge Crystallographic Data Centre
#                                CCDC 
#
#######################################################################
#
# If this CIF has been generated from an entry in the Cambridge 
# Structural Database, then it will include bibliographic, chemical, 
# crystal, experimental, refinement or atomic coordinate data resulting 
# from the CCDC's data processing and validation procedures.
#
#######################################################################

data_EHUTOS
_chemical_formula_moiety         'C29 H26 F1 N3 O5,C4 H8 O2'
_chemical_name_systematic        
'ethyl (1-benzyl-3-(2-ethoxy-4-(4-fluorophenyl)-1,3-oxazol-5-yl)-2-oxo-2,3-dihydro-1H-indol-4-yl)carbamate ethyl acetate solvate'
_symmetry_cell_setting           triclinic
_symmetry_space_group_name_H-M   'P -1'
_symmetry_Int_Tables_number      2
_space_group_name_Hall           '-P 1'
loop_
_symmetry_equiv_pos_site_id
_symmetry_equiv_pos_as_xyz
1 x,y,z
2 -x,-y,-z
_cell_length_a                   8.201(4)
_cell_length_b                   11.187(5)
_cell_length_c                   17.705(7)
_cell_angle_alpha                91.352(4)
_cell_angle_beta                 103.004(7)
_cell_angle_gamma                105.472(6)
_cell_volume                     1519.27
_exptl_crystal_colour            colorless
_exptl_crystal_description       Prism
_cell_formula_units_Z            2
loop_
_atom_site_label
_atom_site_type_symbol
_atom_site_fract_x
_atom_site_fract_y
_atom_site_fract_z
F1 F 0.5797(2) 1.39129(11) 0.44878(7)
O1 O 0.44918(16) 0.96241(11) 0.11792(7)
O2 O -0.02086(17) 1.07869(11) 0.21574(7)
O3 O -0.18273(17) 0.98092(12) 0.29671(7)
O4 O 0.13994(19) 0.59396(12) 0.30119(8)
O5 O 0.13908(17) 0.74244(11) 0.21898(7)
N1 N 0.18932(19) 0.88068(13) 0.02569(8)
N2 N 0.2750(2) 0.80730(15) 0.34396(9)
N3 N -0.2093(2) 0.88102(15) 0.18270(9)
C1 C 0.2902(2) 0.92802(16) 0.09862(10)
C2 C 0.1668(2) 0.93342(16) 0.15124(10)
H1 H 0.1805 1.0231 0.1657
C3 C -0.0115(2) 0.88032(15) 0.09748(10)
C4 C -0.1785(2) 0.85784(16) 0.10890(10)
C5 C -0.3199(2) 0.80443(16) 0.04655(10)
H2 H -0.4349 0.7855 0.0540
C6 C -0.2948(2) 0.77864(16) -0.02612(11)
H3 H -0.3933 0.7435 -0.0679
C7 C -0.1276(2) 0.80307(16) -0.03962(10)
H4 H -0.1104 0.7864 -0.0897
C8 C 0.0109(2) 0.85260(16) 0.02343(10)
C9 C 0.2579(2) 0.86581(16) -0.04184(10)
H5 H 0.3837 0.9105 -0.0291
H6 H 0.1992 0.9055 -0.0852
C10 C 0.2349(2) 0.73183(16) -0.06914(10)
C11 C 0.2386(3) 0.70456(18) -0.14563(11)
H7 H 0.2487 0.7688 -0.1798
C12 C 0.2277(3) 0.58426(18) -0.17265(12)
H8 H 0.2318 0.5670 -0.2249
C13 C 0.2108(3) 0.49013(19) -0.12361(12)
H9 H 0.2036 0.4079 -0.1419
C14 C 0.2046(3) 0.51576(18) -0.04791(12)
H10 H 0.1918 0.4508 -0.0142
C15 C 0.2168(3) 0.63604(18) -0.02070(11)
H11 H 0.2128 0.6528 0.0316
C16 C 0.2039(2) 0.87290(16) 0.22455(10)
C17 C 0.2857(2) 0.91139(17) 0.29935(10)
C18 C 0.1892(3) 0.71562(19) 0.29301(11)
C19 C 0.2011(3) 0.56195(18) 0.37973(12)
H12 H 0.1652 0.6096 0.4178
H13 H 0.3298 0.5812 0.3936
C20 C 0.1193(3) 0.42417(19) 0.37999(13)
H14 H -0.0076 0.4073 0.3697
H15 H 0.1634 0.3970 0.4309
H16 H 0.1491 0.3787 0.3395
C21 C 0.3682(2) 1.03777(17) 0.33737(11)
C22 C 0.3723(3) 1.06047(19) 0.41592(11)
H17 H 0.3243 0.9937 0.4437
C23 C 0.4454(3) 1.1791(2) 0.45387(12)
H18 H 0.4499 1.1942 0.5074
C24 C 0.5105(3) 1.2733(2) 0.41213(13)
C25 C 0.5122(3) 1.2560(2) 0.33509(13)
H19 H 0.5600 1.3238 0.3080
C26 C 0.4419(3) 1.13633(18) 0.29821(11)
H20 H 0.4443 1.1216 0.2455
C27 C -0.1268(3) 0.98867(18) 0.22951(11)
C28 C -0.1058(3) 1.09187(19) 0.35055(11)
H21 H -0.1456 1.1627 0.3287
H22 H 0.0230 1.1144 0.3612
C29 C -0.1656(3) 1.0605(2) 0.42413(11)
H23 H -0.2931 1.0383 0.4126
H24 H -0.1167 1.1328 0.4628
H25 H -0.1257 0.9900 0.4448
H26 H -0.3105(17) 0.8333(16) 0.1900(11)
O6 O 0.5319(2) 0.56849(13) 0.28824(9)
O7 O 0.47622(18) 0.68494(13) 0.18947(8)
C30 C 0.3112(3) 0.47043(19) 0.17750(12)
H27 H 0.2508 0.4881 0.1265
H28 H 0.2268 0.4421 0.2092
H29 H 0.3676 0.4053 0.1707
C31 C 0.4456(3) 0.5858(2) 0.21725(13)
C32 C 0.6844(6) 0.6801(4) 0.3200(2)
H30 H 0.6447 0.7556 0.3243
H31 H 0.7665 0.6943 0.2856
C33 C 0.7706(5) 0.6509(3) 0.3989(2)
H32 H 0.8695 0.7221 0.4234
H33 H 0.8121 0.5775 0.3934
H34 H 0.6863 0.6340 0.4315
C34? C 0.6353(9) 0.6682(7) 0.3490(4)
H35? H 0.6154 0.6469 0.4008
H36? H 0.6090 0.7482 0.3374
C35? C 0.8221(7) 0.6735(6) 0.3446(4)
H37? H 0.9051 0.7391 0.3827
H38? H 0.8364 0.6917 0.2922
H39? H 0.8441 0.5932 0.3561
loop_
_geom_bond_atom_site_label_1
_geom_bond_atom_site_label_2
_geom_bond_site_symmetry_1
_geom_bond_site_symmetry_2
F1 C24 1_555 1_555
O1 C1 1_555 1_555
O2 C27 1_555 1_555
O3 C27 1_555 1_555
O4 C18 1_555 1_555
O5 C16 1_555 1_555
N1 C1 1_555 1_555
N2 C17 1_555 1_555
N3 C4 1_555 1_555
C1 C2 1_555 1_555
C2 H1 1_555 1_555
C3 C2 1_555 1_555
C4 C3 1_555 1_555
C5 C4 1_555 1_555
H2 C5 1_555 1_555
C6 C5 1_555 1_555
H3 C6 1_555 1_555
C7 C6 1_555 1_555
H4 C7 1_555 1_555
C8 N1 1_555 1_555
C9 N1 1_555 1_555
H5 C9 1_555 1_555
H6 C9 1_555 1_555
C10 C9 1_555 1_555
C11 C10 1_555 1_555
H7 C11 1_555 1_555
C12 C11 1_555 1_555
H8 C12 1_555 1_555
C13 C12 1_555 1_555
H9 C13 1_555 1_555
C14 C13 1_555 1_555
H10 C14 1_555 1_555
C15 C10 1_555 1_555
H11 C15 1_555 1_555
C16 C2 1_555 1_555
C17 C16 1_555 1_555
C18 O5 1_555 1_555
C19 O4 1_555 1_555
H12 C19 1_555 1_555
H13 C19 1_555 1_555
C20 C19 1_555 1_555
H14 C20 1_555 1_555
H15 C20 1_555 1_555
H16 C20 1_555 1_555
C21 C17 1_555 1_555
C22 C21 1_555 1_555
H17 C22 1_555 1_555
C23 C22 1_555 1_555
H18 C23 1_555 1_555
C24 C23 1_555 1_555
C25 C24 1_555 1_555
H19 C25 1_555 1_555
C26 C21 1_555 1_555
H20 C26 1_555 1_555
C27 N3 1_555 1_555
C28 O3 1_555 1_555
H21 C28 1_555 1_555
H22 C28 1_555 1_555
C29 C28 1_555 1_555
H23 C29 1_555 1_555
H24 C29 1_555 1_555
H25 C29 1_555 1_555
H26 N3 1_555 1_555
O6 C31 1_555 1_555
O7 C31 1_555 1_555
C30 H27 1_555 1_555
H28 C30 1_555 1_555
H29 C30 1_555 1_555
C31 C30 1_555 1_555
C32 O6 1_555 1_555
H30 C32 1_555 1_555
H31 C32 1_555 1_555
C33 C32 1_555 1_555
H32 C33 1_555 1_555
H33 C33 1_555 1_555
H34 C33 1_555 1_555
N2 C18 1_555 1_555
C3 C8 1_555 1_555
C7 C8 1_555 1_555
C14 C15 1_555 1_555
C25 C26 1_555 1_555

#END
