
#######################################################################
#
#                 Cambridge Crystallographic Data Centre
#                                CCDC 
#
#######################################################################
#
# If this CIF has been generated from an entry in the Cambridge 
# Structural Database, then it will include bibliographic, chemical, 
# crystal, experimental, refinement or atomic coordinate data resulting 
# from the CCDC's data processing and validation procedures.
#
#######################################################################

data_EHUTEI
_chemical_formula_moiety         'C23 H16 N2 O1'
_chemical_name_systematic        
1-benzyl-4-phenylpyrrolo[4,3,2-de]quinolin-2(1H)-one
_symmetry_cell_setting           monoclinic
_symmetry_space_group_name_H-M   'C c'
_symmetry_Int_Tables_number      9
_space_group_name_Hall           'C -2yc'
loop_
_symmetry_equiv_pos_site_id
_symmetry_equiv_pos_as_xyz
1 x,y,z
2 x,-y,1/2+z
3 1/2+x,1/2+y,z
4 1/2+x,1/2-y,1/2+z
_cell_length_a                   5.5058(11)
_cell_length_b                   26.046(7)
_cell_length_c                   11.867(2)
_cell_angle_alpha                90
_cell_angle_beta                 97.83(3)
_cell_angle_gamma                90
_cell_volume                     1685.91
_exptl_crystal_description       prism
_cell_formula_units_Z            4
loop_
_atom_site_label
_atom_site_type_symbol
_atom_site_fract_x
_atom_site_fract_y
_atom_site_fract_z
O1 O 0.1407(2) 0.03873(5) -0.06086(12)
N1 N 0.9258(3) 0.15040(5) 0.07338(13)
N2 N 0.3512(3) 0.02687(5) 0.11943(13)
C1 C 1.0917(3) 0.22004(7) -0.07767(19)
H1 H 1.2046 0.2078 -0.0183
C2 C 1.1500(4) 0.26188(8) -0.1412(2)
H2 H 1.3025 0.2775 -0.1245
C3 C 0.9840(5) 0.28031(8) -0.2288(2)
H3 H 1.0238 0.3086 -0.2706
C4 C 0.7609(4) 0.25727(8) -0.25462(19)
H4 H 0.6488 0.2699 -0.3139
C5 C 0.7007(4) 0.21497(7) -0.19246(17)
H5 H 0.5494 0.1991 -0.2114
C6 C 0.8637(3) 0.19632(7) -0.10283(16)
C7 C 0.7919(3) 0.15404(6) -0.02838(15)
C8 C 0.5825(3) 0.12257(6) -0.06564(16)
H6 H 0.4972 0.1256 -0.1386
C9 C 0.5139(3) 0.08800(6) 0.01023(15)
C10 C 0.3107(3) 0.04982(6) 0.01195(16)
C11 C 0.5606(3) 0.04809(6) 0.18512(15)
C12 C 0.6776(4) 0.04008(7) 0.29191(17)
H7 H 0.6225 0.0157 0.3397
C13 C 0.8874(4) 0.07056(7) 0.32750(18)
H8 H 0.9687 0.0657 0.4007
C14 C 0.9777(4) 0.10676(8) 0.26049(17)
H9 H 1.1159 0.1258 0.2882
C15 C 0.8584(3) 0.11488(6) 0.14861(16)
C16 C 0.6527(3) 0.08487(6) 0.11616(14)
C17 C 0.1890(3) -0.01159(7) 0.15740(18)
H10 H 0.0217 -0.0033 0.1261
H11 H 0.2004 -0.0097 0.2396
C18 C 0.2419(3) -0.06583(7) 0.12468(14)
C19 C 0.4242(3) -0.07903(7) 0.06033(17)
H12 H 0.5283 -0.0537 0.0395
C20 C 0.4546(4) -0.12909(8) 0.0264(2)
H13 H 0.5782 -0.1372 -0.0168
C21 C 0.3030(4) -0.16665(8) 0.0564(2)
H14 H 0.3209 -0.2003 0.0324
C22 C 0.1244(4) -0.15479(8) 0.1220(2)
H15 H 0.0227 -0.1805 0.1433
C23 C 0.0947(4) -0.10478(7) 0.15654(18)
H16 H -0.0259 -0.0972 0.2018
loop_
_geom_bond_atom_site_label_1
_geom_bond_atom_site_label_2
_geom_bond_site_symmetry_1
_geom_bond_site_symmetry_2
O1 C10 1_555 1_555
N1 C7 1_555 1_555
N2 C10 1_555 1_555
C1 H1 1_555 1_555
C2 C1 1_555 1_555
H2 C2 1_555 1_555
C3 C2 1_555 1_555
H3 C3 1_555 1_555
C4 C3 1_555 1_555
H4 C4 1_555 1_555
C5 C4 1_555 1_555
H5 C5 1_555 1_555
C6 C1 1_555 1_555
C7 C6 1_555 1_555
C8 C7 1_555 1_555
H6 C8 1_555 1_555
C9 C8 1_555 1_555
C10 C9 1_555 1_555
C11 N2 1_555 1_555
C12 C11 1_555 1_555
H7 C12 1_555 1_555
C13 C12 1_555 1_555
H8 C13 1_555 1_555
C14 C13 1_555 1_555
H9 C14 1_555 1_555
C15 N1 1_555 1_555
C16 C9 1_555 1_555
C17 N2 1_555 1_555
H10 C17 1_555 1_555
H11 C17 1_555 1_555
C18 C17 1_555 1_555
C19 C18 1_555 1_555
H12 C19 1_555 1_555
C20 C19 1_555 1_555
H13 C20 1_555 1_555
C21 C20 1_555 1_555
H14 C21 1_555 1_555
C22 C21 1_555 1_555
H15 C22 1_555 1_555
C23 C18 1_555 1_555
H16 C23 1_555 1_555
C5 C6 1_555 1_555
C11 C16 1_555 1_555
C14 C15 1_555 1_555
C15 C16 1_555 1_555
C22 C23 1_555 1_555

#END
