
#######################################################################
#
#                 Cambridge Crystallographic Data Centre
#                                CCDC 
#
#######################################################################
#
# If this CIF has been generated from an entry in the Cambridge 
# Structural Database, then it will include bibliographic, chemical, 
# crystal, experimental, refinement or atomic coordinate data resulting 
# from the CCDC's data processing and validation procedures.
#
#######################################################################

data_EHUZIR
_chemical_name_common            'trijugin A monohydrate'
_chemical_formula_moiety         'C22 H34 O6,H2 O1'
_chemical_name_systematic        
'2-Acetoxy-4-hydroxy-3-isopropyl-6,10-dimethyl-11-oxabicyclo[8.1.0]undec-6-en-5-yl 2-methylbut-2-enoate monohydrate'
_symmetry_cell_setting           monoclinic
_symmetry_space_group_name_H-M   'P 21'
_symmetry_Int_Tables_number      4
_space_group_name_Hall           'P 2yb'
loop_
_symmetry_equiv_pos_site_id
_symmetry_equiv_pos_as_xyz
1 x,y,z
2 -x,1/2+y,-z
_cell_length_a                   8.9800(18)
_cell_length_b                   27.932(6)
_cell_length_c                   9.2638(19)
_cell_angle_alpha                90
_cell_angle_beta                 90.00
_cell_angle_gamma                90
_cell_volume                     2323.63
_exptl_crystal_colour            colorless
_exptl_crystal_description       block
_cell_formula_units_Z            4
loop_
_atom_site_label
_atom_site_type_symbol
_atom_site_fract_x
_atom_site_fract_y
_atom_site_fract_z
O1 O 0.5054(7) 0.31605(19) 0.3284(5)
O2 O 0.3748(6) 0.31064(16) 0.6678(4)
O3 O 0.1892(8) 0.2907(2) 0.5229(7)
O4 O 0.5390(6) 0.36485(17) 0.9226(4)
H1 H 0.5292 0.3363 0.9409
O5 O 0.8455(6) 0.37329(16) 0.8750(5)
O6 O 0.9677(6) 0.4404(2) 0.9276(6)
C1 C 0.7713(10) 0.3428(4) 0.3159(9)
H2 H 0.7850 0.3462 0.2126
H3 H 0.7908 0.3096 0.3410
C2 C 0.8827(10) 0.3751(4) 0.3951(9)
H4 H 0.9832 0.3635 0.3791
H5 H 0.8762 0.4075 0.3574
C3 C 0.8484(8) 0.3754(3) 0.5571(8)
H6 H 0.8603 0.3463 0.6047
C4 C 0.8045(8) 0.4114(3) 0.6370(8)
C5 C 0.7411(8) 0.4010(2) 0.7858(7)
H7 H 0.7181 0.4312 0.8344
C6 C 0.6020(8) 0.3703(2) 0.7798(6)
H8 H 0.6320 0.3385 0.7466
C7 C 0.4809(7) 0.3893(2) 0.6722(6)
H9 H 0.5321 0.4126 0.6104
C8 C 0.4267(8) 0.3491(2) 0.5696(6)
H10 H 0.3445 0.3606 0.5091
C9 C 0.5493(9) 0.3285(2) 0.4773(7)
H11 H 0.6158 0.3057 0.5254
C10 C 0.6145(10) 0.3549(3) 0.3540(7)
C11 C 0.3526(8) 0.4167(3) 0.7414(7)
H12 H 0.3004 0.3948 0.8069
C12 C 0.2394(10) 0.4359(3) 0.6327(9)
H13 H 0.1636 0.4535 0.6827
H14 H 0.1948 0.4096 0.5817
H15 H 0.2889 0.4566 0.5652
C13 C 0.4099(9) 0.4594(3) 0.8309(9)
H16 H 0.4613 0.4478 0.9147
H17 H 0.3273 0.4789 0.8604
H18 H 0.4769 0.4782 0.7733
C14 C 0.5536(12) 0.4023(3) 0.3043(8)
H19 H 0.5544 0.4035 0.2007
H20 H 0.6142 0.4278 0.3420
H21 H 0.4533 0.4060 0.3385
C15 C 0.8001(10) 0.4634(3) 0.5941(9)
H22 H 0.8420 0.4670 0.4994
H23 H 0.8568 0.4819 0.6619
H24 H 0.6988 0.4743 0.5937
C16 C 0.2591(11) 0.2847(3) 0.6326(8)
C17 C 0.2258(11) 0.2472(3) 0.7412(10)
H25 H 0.1293 0.2529 0.7823
H26 H 0.2997 0.2480 0.8160
H27 H 0.2268 0.2163 0.6955
C18 C 0.9530(8) 0.3977(3) 0.9388(7)
C19 C 1.0533(8) 0.3676(3) 1.0300(7)
C20 C 1.0307(9) 0.3214(3) 1.0384(7)
H28 H 0.9530 0.3084 0.9848
C21 C 1.1240(14) 0.2875(4) 1.1308(10)
H29 H 1.1847 0.2679 1.0694
H30 H 1.0593 0.2675 1.1872
H31 H 1.1866 0.3059 1.1941
C22 C 1.1735(9) 0.3926(3) 1.1095(8)
H32 H 1.1952 0.3756 1.1970
H33 H 1.1418 0.4246 1.1324
H34 H 1.2613 0.3940 1.0505
O7 O 0.9943(7) 0.66419(19) -0.1707(5)
O8 O 1.1234(5) 0.66939(16) 0.1680(5)
O9 O 1.3118(9) 0.6887(2) 0.0233(7)
O10 O 0.9593(6) 0.61606(17) 0.4215(4)
H35 H 0.9768 0.5897 0.4566
O11 O 0.6554(6) 0.60700(17) 0.3739(5)
O12 O 0.5316(6) 0.5393(2) 0.4270(6)
C23 C 0.7273(12) 0.6362(4) -0.1809(9)
H36 H 0.7074 0.6694 -0.1567
H37 H 0.7122 0.6325 -0.2840
C24 C 0.6169(11) 0.6051(4) -0.1029(9)
H38 H 0.6217 0.5726 -0.1400
H39 H 0.5168 0.6171 -0.1182
C25 C 0.6533(8) 0.6052(3) 0.0578(8)
H40 H 0.6427 0.6345 0.1048
C26 C 0.6981(8) 0.5689(3) 0.1386(8)
C27 C 0.7593(8) 0.5788(3) 0.2880(7)
H41 H 0.7820 0.5487 0.3373
C28 C 0.9007(8) 0.6102(2) 0.2781(6)
H42 H 0.8703 0.6419 0.2434
C29 C 1.0188(7) 0.5905(2) 0.1715(6)
H43 H 0.9668 0.5676 0.1092
C30 C 1.0736(8) 0.6312(2) 0.0723(6)
H44 H 1.1572 0.6200 0.0133
C31 C 0.9535(9) 0.6510(2) -0.0231(7)
H45 H 0.8858 0.6735 0.0247
C32 C 0.8880(10) 0.6253(3) -0.1464(7)
C33 C 1.1484(8) 0.5631(2) 0.2407(8)
H46 H 1.2003 0.5850 0.3062
C34 C 1.2610(10) 0.5450(4) 0.1297(10)
H47 H 1.2090 0.5331 0.0465
H48 H 1.3193 0.5197 0.1714
H49 H 1.3253 0.5708 0.1015
C35 C 1.0939(9) 0.5206(3) 0.3289(9)
H50 H 1.0365 0.5319 0.4094
H51 H 1.1778 0.5027 0.3635
H52 H 1.0329 0.5004 0.2694
C36 C 1.2409(11) 0.6952(3) 0.1325(8)
C37 C 1.2719(11) 0.7326(3) 0.2416(10)
H53 H 1.3733 0.7431 0.2323
H54 H 1.2564 0.7198 0.3365
H55 H 1.2062 0.7593 0.2266
C38 C 0.9484(11) 0.5775(3) -0.1957(8)
H56 H 0.9431 0.5755 -0.2990
H57 H 0.8904 0.5522 -0.1538
H58 H 1.0503 0.5744 -0.1654
C39 C 0.6970(10) 0.5168(3) 0.0930(8)
H59 H 0.6553 0.5141 -0.0021
H60 H 0.6380 0.4985 0.1596
H61 H 0.7970 0.5047 0.0925
C40 C 0.5451(8) 0.5817(3) 0.4401(7)
C41 C 0.4461(8) 0.6122(3) 0.5284(7)
C42 C 0.4695(9) 0.6582(3) 0.5376(7)
H62 H 0.5463 0.6709 0.4822
C43 C 0.3812(12) 0.6927(3) 0.6318(9)
H63 H 0.2776 0.6908 0.6069
H64 H 0.4164 0.7247 0.6165
H65 H 0.3939 0.6842 0.7315
C44 C 0.3236(8) 0.5858(3) 0.6089(8)
H66 H 0.2552 0.6085 0.6494
H67 H 0.3667 0.5670 0.6850
H68 H 0.2715 0.5651 0.5433
O13 O 0.9895(9) 0.7083(2) 0.5489(6)
H69 H 0.9288 0.6833 0.5583
H70 H 0.9363 0.7352 0.5480
O14 O 0.5124(9) 0.2729(2) 0.0489(6)
H71 H 0.4876 0.2450 0.0093
H72 H 0.6111 0.2751 0.0540
loop_
_geom_bond_atom_site_label_1
_geom_bond_atom_site_label_2
_geom_bond_site_symmetry_1
_geom_bond_site_symmetry_2
O1 C9 1_555 1_555
O2 C8 1_555 1_555
O3 C16 1_555 1_555
O4 H1 1_555 1_555
O5 C5 1_555 1_555
O6 C18 1_555 1_555
C1 H2 1_555 1_555
H3 C1 1_555 1_555
C2 C1 1_555 1_555
H4 C2 1_555 1_555
H5 C2 1_555 1_555
C3 C2 1_555 1_555
H6 C3 1_555 1_555
C4 C3 1_555 1_555
C5 C4 1_555 1_555
H7 C5 1_555 1_555
C6 O4 1_555 1_555
H8 C6 1_555 1_555
C7 C6 1_555 1_555
H9 C7 1_555 1_555
C8 C7 1_555 1_555
H10 C8 1_555 1_555
C9 C8 1_555 1_555
H11 C9 1_555 1_555
C10 O1 1_555 1_555
C11 C7 1_555 1_555
H12 C11 1_555 1_555
C12 C11 1_555 1_555
H13 C12 1_555 1_555
H14 C12 1_555 1_555
H15 C12 1_555 1_555
C13 C11 1_555 1_555
H16 C13 1_555 1_555
H17 C13 1_555 1_555
H18 C13 1_555 1_555
C14 C10 1_555 1_555
H19 C14 1_555 1_555
H20 C14 1_555 1_555
H21 C14 1_555 1_555
C15 C4 1_555 1_555
H22 C15 1_555 1_555
H23 C15 1_555 1_555
H24 C15 1_555 1_555
C16 O2 1_555 1_555
C17 C16 1_555 1_555
H25 C17 1_555 1_555
H26 C17 1_555 1_555
H27 C17 1_555 1_555
C18 O5 1_555 1_555
C19 C18 1_555 1_555
C20 C19 1_555 1_555
H28 C20 1_555 1_555
C21 C20 1_555 1_555
H29 C21 1_555 1_555
H30 C21 1_555 1_555
H31 C21 1_555 1_555
C22 C19 1_555 1_555
H32 C22 1_555 1_555
H33 C22 1_555 1_555
H34 C22 1_555 1_555
O7 C31 1_555 1_555
O8 C30 1_555 1_555
O9 C36 1_555 1_555
O10 H35 1_555 1_555
O11 C27 1_555 1_555
O12 C40 1_555 1_555
C23 H36 1_555 1_555
H37 C23 1_555 1_555
C24 C23 1_555 1_555
H38 C24 1_555 1_555
H39 C24 1_555 1_555
C25 C24 1_555 1_555
H40 C25 1_555 1_555
C26 C25 1_555 1_555
C27 C26 1_555 1_555
H41 C27 1_555 1_555
C28 O10 1_555 1_555
H42 C28 1_555 1_555
C29 C28 1_555 1_555
H43 C29 1_555 1_555
C30 C29 1_555 1_555
H44 C30 1_555 1_555
C31 C30 1_555 1_555
H45 C31 1_555 1_555
C32 O7 1_555 1_555
C33 C29 1_555 1_555
H46 C33 1_555 1_555
C34 C33 1_555 1_555
H47 C34 1_555 1_555
H48 C34 1_555 1_555
H49 C34 1_555 1_555
C35 C33 1_555 1_555
H50 C35 1_555 1_555
H51 C35 1_555 1_555
H52 C35 1_555 1_555
C36 O8 1_555 1_555
C37 C36 1_555 1_555
H53 C37 1_555 1_555
H54 C37 1_555 1_555
H55 C37 1_555 1_555
C38 C32 1_555 1_555
H56 C38 1_555 1_555
H57 C38 1_555 1_555
H58 C38 1_555 1_555
C39 C26 1_555 1_555
H59 C39 1_555 1_555
H60 C39 1_555 1_555
H61 C39 1_555 1_555
C40 O11 1_555 1_555
C41 C40 1_555 1_555
C42 C41 1_555 1_555
H62 C42 1_555 1_555
C43 C42 1_555 1_555
H63 C43 1_555 1_555
H64 C43 1_555 1_555
H65 C43 1_555 1_555
C44 C41 1_555 1_555
H66 C44 1_555 1_555
H67 C44 1_555 1_555
H68 C44 1_555 1_555
O13 H69 1_555 1_555
H70 O13 1_555 1_555
O14 H71 1_555 1_555
H72 O14 1_555 1_555
C1 C10 1_555 1_555
C5 C6 1_555 1_555
C9 C10 1_555 1_555
C23 C32 1_555 1_555
C27 C28 1_555 1_555
C31 C32 1_555 1_555

#END
