
#######################################################################
#
#                 Cambridge Crystallographic Data Centre
#                                CCDC 
#
#######################################################################
#
# If this CIF has been generated from an entry in the Cambridge 
# Structural Database, then it will include bibliographic, chemical, 
# crystal, experimental, refinement or atomic coordinate data resulting 
# from the CCDC's data processing and validation procedures.
#
#######################################################################

data_EIPREA
_chemical_formula_moiety         'C25 H35 I1 O3'
_chemical_name_systematic        
'14\a,17\a-Ethano-16\a-iodopregn-5-ene-3\b-ol-20-one acetate'
_symmetry_cell_setting           monoclinic
_symmetry_space_group_name_H-M   'P 21'
_symmetry_Int_Tables_number      4
_space_group_name_Hall           'P 2yb'
loop_
_symmetry_equiv_pos_site_id
_symmetry_equiv_pos_as_xyz
1 x,y,z
2 -x,1/2+y,-z
_cell_length_a                   14.132(6)
_cell_length_b                   12.432(3)
_cell_length_c                   14.429(4)
_cell_angle_alpha                90
_cell_angle_beta                 111.88(3)
_cell_angle_gamma                90
_cell_volume                     2352.41
_cell_formula_units_Z            4
loop_
_atom_site_label
_atom_site_type_symbol
_atom_site_fract_x
_atom_site_fract_y
_atom_site_fract_z
C1 C 0.38770 0.13170 -0.28720
C2 C 0.28300 0.17010 -0.28890
C3 C 0.27860 0.33520 -0.40540
C4 C 0.27660 0.46350 -0.41160
C5 C 0.17930 0.49980 -0.39780
C6 C 0.18630 0.47200 -0.28700
C7 C 0.27700 0.53150 -0.21690
C8 C 0.27680 0.64520 -0.27710
C9 C 0.17870 0.62890 -0.37060
C10 C 0.07810 0.47350 -0.48220
C11 C 0.20260 0.12250 -0.38420
C12 C 0.40800 0.01200 -0.26920
C13 C 0.16890 0.70200 -0.45890
C14 C 0.25870 0.75800 -0.46830
C15 C 0.40420 -0.00510 -0.16390
C16 C 0.09260 0.51930 -0.28760
C17 C 0.08250 0.62940 -0.34500
C18 C 0.29870 0.01960 -0.17330
C19 C 0.46840 -0.15730 -0.05560
C20 C 0.49310 -0.27230 -0.04510
C21 C 0.26930 0.13460 -0.19920
C22 C 0.23970 0.19930 -0.14450
C23 C 0.20890 0.32190 -0.16990
C24 C 0.19180 0.34350 -0.27170
C25 C 0.28460 0.29910 -0.29930
I1 I 0.07260 0.77180 -0.25880
O1 O 0.07770 0.72150 -0.52120
O2 O 0.49320 -0.09690 0.01540
O3 O 0.42180 -0.12040 -0.14580
C26 C -0.22570 -0.32710 -0.31590
C27 C -0.25500 -0.37940 -0.23500
C28 C -0.12980 -0.53440 -0.22650
C29 C -0.11430 -0.65570 -0.22840
C30 C -0.14280 -0.70820 -0.14310
C31 C -0.25680 -0.68520 -0.16530
C32 C -0.31340 -0.74710 -0.27110
C33 C -0.24600 -0.84710 -0.25720
C34 C -0.16260 -0.83780 -0.15330
C35 C -0.06390 -0.68050 -0.04370
C36 C -0.18660 -0.33340 -0.13180
C37 C -0.25980 -0.20680 -0.33650
C38 C -0.06260 -0.90350 -0.14240
C39 C -0.03260 -0.92600 -0.21770
C40 C -0.36940 -0.20450 -0.36240
C41 C -0.27330 -0.75450 -0.08540
C42 C -0.20100 -0.84960 -0.07320
C43 C -0.39930 -0.24100 -0.27610
C44 C -0.47920 -0.06320 -0.46220
C45 C -0.48820 0.05350 -0.48050
C46 C -0.36360 -0.35810 -0.25020
C47 C -0.42820 -0.43050 -0.23640
C48 C -0.39640 -0.54520 -0.20230
C49 C -0.28070 -0.56690 -0.17200
C50 C -0.23950 -0.50350 -0.24380
I2 I -0.28170 -1.00000 -0.07700
O4 O -0.01620 -0.92990 -0.05960
O5 O -0.53250 -0.12970 -0.50940
O6 O -0.39820 -0.08920 -0.38210
loop_
_geom_bond_atom_site_label_1
_geom_bond_atom_site_label_2
_geom_bond_site_symmetry_1
_geom_bond_site_symmetry_2
C1 C2 1_555 1_555
C2 C11 1_555 1_555
C3 C4 1_555 1_555
C4 C5 1_555 1_555
C5 C6 1_555 1_555
C6 C7 1_555 1_555
C7 C8 1_555 1_555
C8 C9 1_555 1_555
C9 C5 1_555 1_555
C10 C5 1_555 1_555
C12 C1 1_555 1_555
C13 C9 1_555 1_555
C14 C13 1_555 1_555
C15 C12 1_555 1_555
C16 C6 1_555 1_555
C17 C9 1_555 1_555
C18 C15 1_555 1_555
C19 C20 1_555 1_555
C21 C2 1_555 1_555
C22 C21 1_555 1_555
C23 C22 1_555 1_555
C24 C6 1_555 1_555
C25 C2 1_555 1_555
I1 C17 1_555 1_555
O1 C13 1_555 1_555
O2 C19 1_555 1_555
O3 C15 1_555 1_555
C26 C27 1_555 1_555
C27 C36 1_555 1_555
C28 C29 1_555 1_555
C29 C30 1_555 1_555
C30 C31 1_555 1_555
C31 C32 1_555 1_555
C32 C33 1_555 1_555
C33 C34 1_555 1_555
C34 C30 1_555 1_555
C35 C30 1_555 1_555
C37 C26 1_555 1_555
C38 C34 1_555 1_555
C39 C38 1_555 1_555
C40 C37 1_555 1_555
C41 C31 1_555 1_555
C42 C34 1_555 1_555
C43 C40 1_555 1_555
C44 C45 1_555 1_555
C46 C27 1_555 1_555
C47 C46 1_555 1_555
C48 C47 1_555 1_555
C49 C31 1_555 1_555
C50 C27 1_555 1_555
I2 C42 1_555 1_555
O4 C38 1_555 1_555
O5 C44 1_555 1_555
O6 C40 1_555 1_555
C3 C25 1_555 1_555
C16 C17 1_555 1_555
C18 C21 1_555 1_555
C19 O3 1_555 1_555
C23 C24 1_555 1_555
C24 C25 1_555 1_555
C28 C50 1_555 1_555
C41 C42 1_555 1_555
C43 C46 1_555 1_555
C44 O6 1_555 1_555
C48 C49 1_555 1_555
C49 C50 1_555 1_555

#END
