
#######################################################################
#
#                 Cambridge Crystallographic Data Centre
#                                CCDC 
#
#######################################################################
#
# If this CIF has been generated from an entry in the Cambridge 
# Structural Database, then it will include bibliographic, chemical, 
# crystal, experimental, refinement or atomic coordinate data resulting 
# from the CCDC's data processing and validation procedures.
#
#######################################################################

data_EJABUN
_chemical_formula_moiety         'C15 H22 O3'
_chemical_name_systematic        
2-(4a,5-Dihydroxy-8,8a-dimethyldecahydronaphthalen-2-yl)cycloprop-2-en-1-one
_symmetry_cell_setting           monoclinic
_symmetry_space_group_name_H-M   'P 21'
_symmetry_Int_Tables_number      4
_space_group_name_Hall           'P 2yb'
loop_
_symmetry_equiv_pos_site_id
_symmetry_equiv_pos_as_xyz
1 x,y,z
2 -x,1/2+y,-z
_cell_length_a                   7.6657(9)
_cell_length_b                   10.1466(12)
_cell_length_c                   9.1327(11)
_cell_angle_alpha                90
_cell_angle_beta                 111.211(2)
_cell_angle_gamma                90
_cell_volume                     662.226
_exptl_crystal_colour            colorless
_exptl_crystal_description       prismatic
_cell_formula_units_Z            2
loop_
_atom_site_label
_atom_site_type_symbol
_atom_site_fract_x
_atom_site_fract_y
_atom_site_fract_z
O1 O 0.5863(2) 0.22696(15) 0.60045(17)
O2 O 0.4673(2) 0.56330(13) 0.68022(17)
O3 O -0.1300(2) 0.15533(17) 0.87225(18)
C1 C 0.5649(3) 0.3663(2) 0.5884(2)
H1 H 0.6898 0.4059 0.6325
C2 C 0.4825(3) 0.4019(2) 0.4155(2)
H2 H 0.5475 0.3527 0.3598
H3 H 0.5035 0.4949 0.4037
C3 C 0.2741(3) 0.3735(2) 0.3412(2)
H4 H 0.2558 0.2789 0.3332
H5 H 0.2278 0.4091 0.2354
C4 C 0.1589(3) 0.4307(2) 0.4314(2)
H6 H 0.1734 0.5267 0.4323
C5 C 0.2345(2) 0.38380(18) 0.6053(2)
C6 C 0.1317(3) 0.45616(19) 0.6984(2)
H7 H 0.0012 0.4298 0.6576
H8 H 0.1364 0.5501 0.6807
C7 C 0.2117(3) 0.4302(2) 0.8765(2)
H9 H 0.1564 0.4971 0.9239
C8 C 0.4232(3) 0.4524(2) 0.9461(2)
H10 H 0.4481 0.5463 0.9495
H11 H 0.4710 0.4197 1.0531
C9 C 0.5267(3) 0.3846(2) 0.8529(2)
H12 H 0.5185 0.2899 0.8630
H13 H 0.6578 0.4090 0.8962
C10 C 0.4461(2) 0.42207(19) 0.6790(2)
C11 C 0.1567(3) 0.3009(2) 0.9219(2)
C12 C 0.0268(3) 0.2031(2) 0.9211(2)
C13 C 0.2116(3) 0.2000(2) 1.0239(2)
H14 H 0.3059 0.1582 1.1052
C14 C 0.2021(3) 0.23481(19) 0.6113(2)
H15 H 0.2726 0.2022 0.7145
H16 H 0.2421 0.1909 0.5357
H17 H 0.0714 0.2182 0.5873
C15 C -0.0486(3) 0.4006(3) 0.3432(3)
H18 H -0.0880 0.4386 0.2401
H19 H -0.1211 0.4372 0.3997
H20 H -0.0667 0.3068 0.3346
H21 H 0.666(3) 0.216(3) 0.689(2)
H22 H 0.436(3) 0.591(3) 0.591(2)
loop_
_geom_bond_atom_site_label_1
_geom_bond_atom_site_label_2
_geom_bond_site_symmetry_1
_geom_bond_site_symmetry_2
O1 C1 1_555 1_555
O2 C10 1_555 1_555
O3 C12 1_555 1_555
C1 H1 1_555 1_555
C2 C1 1_555 1_555
H2 C2 1_555 1_555
H3 C2 1_555 1_555
C3 C2 1_555 1_555
H4 C3 1_555 1_555
H5 C3 1_555 1_555
C4 C3 1_555 1_555
H6 C4 1_555 1_555
C5 C4 1_555 1_555
C6 C5 1_555 1_555
H7 C6 1_555 1_555
H8 C6 1_555 1_555
C7 C6 1_555 1_555
H9 C7 1_555 1_555
C8 C7 1_555 1_555
H10 C8 1_555 1_555
H11 C8 1_555 1_555
C9 C8 1_555 1_555
H12 C9 1_555 1_555
H13 C9 1_555 1_555
C10 C1 1_555 1_555
C11 C7 1_555 1_555
C12 C11 1_555 1_555
C13 C11 1_555 1_555
H14 C13 1_555 1_555
C14 C5 1_555 1_555
H15 C14 1_555 1_555
H16 C14 1_555 1_555
H17 C14 1_555 1_555
C15 C4 1_555 1_555
H18 C15 1_555 1_555
H19 C15 1_555 1_555
H20 C15 1_555 1_555
H21 O1 1_555 1_555
H22 O2 1_555 1_555
C5 C10 1_555 1_555
C9 C10 1_555 1_555
C12 C13 1_555 1_555

#END
