
#######################################################################
#
#                 Cambridge Crystallographic Data Centre
#                                CCDC 
#
#######################################################################
#
# If this CIF has been generated from an entry in the Cambridge 
# Structural Database, then it will include bibliographic, chemical, 
# crystal, experimental, refinement or atomic coordinate data resulting 
# from the CCDC's data processing and validation procedures.
#
#######################################################################

data_EJACEY
_chemical_formula_moiety         'C29 H40 O10,C1 H4 O1,2(H2 O1)'
_chemical_name_systematic        
'2,15-Dihydroxy-17-(1-hydroxy-1-(4-methyl-5-oxotetrahydrofuran-2-yl)propan-2-yl)-9,9,18-trimethyl-4,8,21-trioxahexacyclo[13.5.1.0^1,13^.0^3,7^.0^3,10^.0^16,18^]henicosane-5,14-dione methanol solvate dihydrate'
_symmetry_cell_setting           orthorhombic
_symmetry_space_group_name_H-M   'P 21 21 21'
_symmetry_Int_Tables_number      19
_space_group_name_Hall           'P 2ac 2ab'
loop_
_symmetry_equiv_pos_site_id
_symmetry_equiv_pos_as_xyz
1 x,y,z
2 1/2-x,-y,1/2+z
3 -x,1/2+y,1/2-z
4 1/2+x,1/2-y,-z
_cell_length_a                   9.1827(5)
_cell_length_b                   18.1165(13)
_cell_length_c                   18.6612(8)
_cell_angle_alpha                90
_cell_angle_beta                 90
_cell_angle_gamma                90
_cell_volume                     3104.45
_cell_formula_units_Z            4
loop_
_atom_site_label
_atom_site_type_symbol
_atom_site_fract_x
_atom_site_fract_y
_atom_site_fract_z
O1 O 0.8304(4) 0.0248(2) 1.20365(15)
O2 O 0.6871(3) -0.02243(18) 1.06273(15)
O3 O 0.5414(3) 0.04464(16) 0.95626(12)
O4 O 0.2863(4) -0.1347(2) 1.0467(2)
O5 O 0.6541(5) -0.1413(2) 1.0822(3)
O6 O 0.5656(4) 0.1623(2) 1.11454(16)
H1 H 0.4922 0.1673 1.1391
O7 O 0.6361(5) 0.1770(3) 0.82942(18)
O8 O 0.6480(3) 0.0158(2) 0.85068(15)
H2 H 0.6322 0.0126 0.8075
O9 O 0.0732(3) -0.04608(19) 0.96453(18)
H3 H -0.0118 -0.0573 0.9566
O10 O 0.2653(5) -0.0937(4) 1.1586(2)
C1 C 0.6841(5) 0.0257(3) 1.1801(2)
H4 H 0.6238 0.0595 1.2084
C2 C 0.6236(6) -0.0522(3) 1.1799(3)
H5 H 0.6718 -0.0826 1.2155
H6 H 0.5197 -0.0522 1.1892
C3 C 0.6554(6) -0.0792(3) 1.1056(3)
C4 C 0.9063(5) 0.0857(3) 1.1681(2)
C5 C 0.8444(5) 0.0812(2) 1.09081(19)
H7 H 0.9025 0.0441 1.0656
C6 C 0.8592(5) 0.1522(3) 1.0483(2)
H8 H 0.9602 0.1679 1.0491
H9 H 0.8015 0.1904 1.0711
C7 C 0.8097(5) 0.1440(3) 0.9700(2)
H10 H 0.8280 0.0938 0.9543
H11 H 0.8670 0.1767 0.9401
C8 C 0.6466(5) 0.1618(3) 0.9596(2)
H12 H 0.6267 0.2140 0.9691
C9 C 0.5364(5) 0.1126(2) 0.99652(19)
C10 C 0.6907(5) 0.0483(3) 1.09926(19)
C11 C 0.3815(5) 0.1485(3) 0.9878(2)
H13 H 0.3552 0.1726 1.0324
H14 H 0.3863 0.1861 0.9509
C12 C 0.2639(4) 0.0935(3) 0.9684(2)
H15 H 0.1704 0.1128 0.9836
H16 H 0.2811 0.0480 0.9944
C13 C 0.2571(4) 0.0764(3) 0.8884(2)
C14 C 0.6119(5) 0.1420(3) 0.8824(2)
C15 C 0.5445(4) 0.0634(3) 0.88226(19)
C16 C 0.3964(4) 0.0592(3) 0.84799(18)
H17 H 0.3955 0.0773 0.7985
C17 C 0.2845(4) -0.0002(3) 0.86183(19)
H18 H 0.2271 -0.0127 0.8193
C18 C 0.1470(6) 0.1231(3) 0.8484(3)
H19 H 0.1477 0.1099 0.7986
H20 H 0.1720 0.1743 0.8533
H21 H 0.0517 0.1148 0.8679
C19 C 0.5580(5) 0.0938(3) 1.07673(18)
H22 H 0.4708 0.0676 1.0932
C20 C 0.3099(5) -0.0656(2) 0.9110(2)
H23 H 0.3636 -0.0486 0.9533
C21 C 0.4021(6) -0.1242(3) 0.8722(3)
H24 H 0.4927 -0.1026 0.8574
H25 H 0.3502 -0.1418 0.8310
H26 H 0.4209 -0.1646 0.9042
C22 C 0.1662(5) -0.1007(3) 0.9359(2)
H27 H 0.1181 -0.1220 0.8938
C23 C 0.1915(6) -0.1623(3) 0.9895(2)
H28 H 0.2393 -0.2039 0.9654
C24 C 0.0571(6) -0.1902(3) 1.0290(2)
H29 H -0.0304 -0.1816 1.0010
H30 H 0.0650 -0.2425 1.0392
C25 C 0.0550(5) -0.1452(3) 1.0979(2)
H31 H -0.0043 -0.1011 1.0894
C26 C 0.2087(6) -0.1212(3) 1.1067(3)
C27 C -0.0043(8) -0.1837(4) 1.1642(3)
H32 H -0.0014 -0.1503 1.2041
H33 H 0.0542 -0.2262 1.1746
H34 H -0.1030 -0.1987 1.1556
C28 C 1.0683(5) 0.0681(3) 1.1702(3)
H35 H 1.1027 0.0714 1.2187
H36 H 1.1202 0.1028 1.1409
H37 H 1.0842 0.0191 1.1524
C29 C 0.8721(6) 0.1579(3) 1.2064(3)
H38 H 0.9134 0.1569 1.2536
H39 H 0.7684 0.1639 1.2098
H40 H 0.9128 0.1984 1.1799
O11 O -0.2097(5) -0.0996(4) 0.9275(3)
H41 H -0.3073 -0.0967 0.9241
H42 H -0.2259 -0.1161 0.9724
O12 O 0.3496(7) 0.2032(3) 1.2021(3)
H43 H 0.3765 0.2344 1.2370
H44 H 0.2595 0.1920 1.2071
C30 C 0.5445(18) -0.2495(7) 1.1752(6)
H45 H 0.5809 -0.2289 1.1313
H46 H 0.6011 -0.2921 1.1879
H47 H 0.5513 -0.2133 1.2126
O13 O 0.4098(17) -0.2686(9) 1.1667(11)
H48 H 0.4055 -0.3054 1.1413
loop_
_geom_bond_atom_site_label_1
_geom_bond_atom_site_label_2
_geom_bond_site_symmetry_1
_geom_bond_site_symmetry_2
O1 C1 1_555 1_555
O2 C3 1_555 1_555
O3 C9 1_555 1_555
O4 C23 1_555 1_555
O5 C3 1_555 1_555
O6 H1 1_555 1_555
O7 C14 1_555 1_555
O8 H2 1_555 1_555
O9 H3 1_555 1_555
O10 C26 1_555 1_555
C1 H4 1_555 1_555
C2 C1 1_555 1_555
H5 C2 1_555 1_555
H6 C2 1_555 1_555
C3 C2 1_555 1_555
C4 O1 1_555 1_555
C5 C4 1_555 1_555
H7 C5 1_555 1_555
C6 C5 1_555 1_555
H8 C6 1_555 1_555
H9 C6 1_555 1_555
C7 C6 1_555 1_555
H10 C7 1_555 1_555
H11 C7 1_555 1_555
C8 C7 1_555 1_555
H12 C8 1_555 1_555
C9 C8 1_555 1_555
C10 O2 1_555 1_555
C11 C9 1_555 1_555
H13 C11 1_555 1_555
H14 C11 1_555 1_555
C12 C11 1_555 1_555
H15 C12 1_555 1_555
H16 C12 1_555 1_555
C13 C12 1_555 1_555
C14 C8 1_555 1_555
C15 O3 1_555 1_555
C16 C13 1_555 1_555
H17 C16 1_555 1_555
C17 C13 1_555 1_555
H18 C17 1_555 1_555
C18 C13 1_555 1_555
H19 C18 1_555 1_555
H20 C18 1_555 1_555
H21 C18 1_555 1_555
C19 O6 1_555 1_555
H22 C19 1_555 1_555
C20 C17 1_555 1_555
H23 C20 1_555 1_555
C21 C20 1_555 1_555
H24 C21 1_555 1_555
H25 C21 1_555 1_555
H26 C21 1_555 1_555
C22 O9 1_555 1_555
H27 C22 1_555 1_555
C23 C22 1_555 1_555
H28 C23 1_555 1_555
C24 C23 1_555 1_555
H29 C24 1_555 1_555
H30 C24 1_555 1_555
C25 C24 1_555 1_555
H31 C25 1_555 1_555
C26 O4 1_555 1_555
C27 C25 1_555 1_555
H32 C27 1_555 1_555
H33 C27 1_555 1_555
H34 C27 1_555 1_555
C28 C4 1_555 1_555
H35 C28 1_555 1_555
H36 C28 1_555 1_555
H37 C28 1_555 1_555
C29 C4 1_555 1_555
H38 C29 1_555 1_555
H39 C29 1_555 1_555
H40 C29 1_555 1_555
O11 H41 1_555 1_555
H42 O11 1_555 1_555
O12 H43 1_555 1_555
H44 O12 1_555 1_555
C30 H45 1_555 1_555
H46 C30 1_555 1_555
H47 C30 1_555 1_555
O13 C30 1_555 1_555
H48 O13 1_555 1_555
O8 C15 1_555 1_555
C1 C10 1_555 1_555
C5 C10 1_555 1_555
C9 C19 1_555 1_555
C10 C19 1_555 1_555
C14 C15 1_555 1_555
C15 C16 1_555 1_555
C16 C17 1_555 1_555
C20 C22 1_555 1_555
C25 C26 1_555 1_555

#END
