
#######################################################################
#
#                 Cambridge Crystallographic Data Centre
#                                CCDC 
#
#######################################################################
#
# If this CIF has been generated from an entry in the Cambridge 
# Structural Database, then it will include bibliographic, chemical, 
# crystal, experimental, refinement or atomic coordinate data resulting 
# from the CCDC's data processing and validation procedures.
#
#######################################################################

data_EJADOJ
_chemical_formula_moiety         'C19 H20 N2 O5 S2'
_chemical_name_systematic        
5,15,19-Trihydroxy-11-(methylsulfanyl)-21-thia-3,13-diazahexacyclo[16.2.1.0^1,13^.0^3,11^.0^4,9^.0^14,19^]henicosa-6,8,16-triene-2,12-dione
_symmetry_cell_setting           monoclinic
_symmetry_space_group_name_H-M   'P 21'
_symmetry_Int_Tables_number      4
_space_group_name_Hall           'P 2yb'
loop_
_symmetry_equiv_pos_site_id
_symmetry_equiv_pos_as_xyz
1 x,y,z
2 -x,1/2+y,-z
_cell_length_a                   10.823(2)
_cell_length_b                   8.2414(16)
_cell_length_c                   11.223(2)
_cell_angle_alpha                90
_cell_angle_beta                 115.69(3)
_cell_angle_gamma                90
_cell_volume                     902.103
_exptl_crystal_colour            colorless
_exptl_crystal_description       rod
_cell_formula_units_Z            2
loop_
_atom_site_label
_atom_site_type_symbol
_atom_site_fract_x
_atom_site_fract_y
_atom_site_fract_z
S1 S 0.73622(5) 0.51764(7) 0.74691(5)
S2 S 0.57069(6) 0.32989(7) 0.31313(5)
O1 O 1.07047(16) 0.2638(2) 0.97276(15)
H1 H 1.0801 0.3270 1.0349
O2 O 0.87798(17) 0.74851(19) 0.60143(15)
O3 O 0.63425(18) 0.8964(2) 0.38505(17)
H2 H 0.7041 0.9560 0.4129
O4 O 0.85380(17) 0.13175(18) 0.48234(16)
O5 O 0.91370(18) -0.07160(18) 0.81044(15)
H3 H 0.9222 -0.1390 0.7583
N1 N 0.77076(18) 0.5601(2) 0.44439(18)
N2 N 0.85038(18) 0.3150(2) 0.63060(17)
C1 C 0.8400(2) 0.3834(3) 0.8869(2)
H4 H 0.8732 0.4463 0.9713
C2 C 0.9643(2) 0.3321(3) 0.86135(19)
C3 C 0.9972(2) 0.4825(3) 0.7987(2)
H5 H 1.0120 0.5813 0.8534
H6 H 1.0760 0.4650 0.7775
C4 C 0.8598(2) 0.4838(2) 0.6758(2)
C5 C 0.8384(2) 0.6084(3) 0.5714(2)
C6 C 0.7554(2) 0.6730(3) 0.3368(2)
H7 H 0.8396 0.7417 0.3656
C7 C 0.6298(2) 0.7823(3) 0.2898(2)
H8 H 0.5485 0.7110 0.2702
C8 C 0.6114(2) 0.8592(3) 0.1605(2)
H9 H 0.5779 0.9672 0.1408
C9 C 0.6417(3) 0.7770(3) 0.0738(2)
H10 H 0.6283 0.8262 -0.0074
C10 C 0.6954(2) 0.6111(3) 0.1036(2)
H11 H 0.6920 0.5416 0.0348
C11 C 0.7488(2) 0.5591(3) 0.2279(2)
C12 C 0.8006(2) 0.3962(3) 0.2879(2)
H12 H 0.9018 0.3898 0.3248
H13 H 0.7595 0.3078 0.2228
C13 C 0.7514(2) 0.3901(3) 0.3981(2)
C14 C 0.8261(2) 0.2683(3) 0.5073(2)
C15 C 0.9201(2) 0.2089(2) 0.7474(2)
H14 H 1.0042 0.1627 0.7445
C16 C 0.8295(2) 0.0679(3) 0.7527(2)
H15 H 0.7620 0.0405 0.6605
C17 C 0.7525(2) 0.1026(3) 0.8339(2)
H16 H 0.6968 0.0186 0.8426
C18 C 0.7570(2) 0.2414(3) 0.8939(2)
H17 H 0.7055 0.2519 0.9438
C19 C 0.5121(3) 0.3431(4) 0.4392(2)
H18 H 0.4142 0.3165 0.4015
H19 H 0.5264 0.4535 0.4749
H20 H 0.5635 0.2663 0.5102
loop_
_geom_bond_atom_site_label_1
_geom_bond_atom_site_label_2
_geom_bond_site_symmetry_1
_geom_bond_site_symmetry_2
S1 C1 1_555 1_555
S2 C13 1_555 1_555
O1 H1 1_555 1_555
O2 C5 1_555 1_555
O3 H2 1_555 1_555
O4 C14 1_555 1_555
O5 H3 1_555 1_555
N1 C5 1_555 1_555
N2 C4 1_555 1_555
C1 H4 1_555 1_555
C2 O1 1_555 1_555
C3 C2 1_555 1_555
H5 C3 1_555 1_555
H6 C3 1_555 1_555
C4 S1 1_555 1_555
C5 C4 1_555 1_555
C6 N1 1_555 1_555
H7 C6 1_555 1_555
C7 O3 1_555 1_555
H8 C7 1_555 1_555
C8 C7 1_555 1_555
H9 C8 1_555 1_555
C9 C8 1_555 1_555
H10 C9 1_555 1_555
C10 C9 1_555 1_555
H11 C10 1_555 1_555
C11 C6 1_555 1_555
C12 C11 1_555 1_555
H12 C12 1_555 1_555
H13 C12 1_555 1_555
C13 N1 1_555 1_555
C14 N2 1_555 1_555
C15 N2 1_555 1_555
H14 C15 1_555 1_555
C16 O5 1_555 1_555
H15 C16 1_555 1_555
C17 C16 1_555 1_555
H16 C17 1_555 1_555
C18 C1 1_555 1_555
H17 C18 1_555 1_555
C19 S2 1_555 1_555
H18 C19 1_555 1_555
H19 C19 1_555 1_555
H20 C19 1_555 1_555
C1 C2 1_555 1_555
C2 C15 1_555 1_555
C3 C4 1_555 1_555
C6 C7 1_555 1_555
C10 C11 1_555 1_555
C12 C13 1_555 1_555
C13 C14 1_555 1_555
C15 C16 1_555 1_555
C17 C18 1_555 1_555

#END
