
#######################################################################
#
#                 Cambridge Crystallographic Data Centre
#                                CCDC 
#
#######################################################################
#
# If this CIF has been generated from an entry in the Cambridge 
# Structural Database, then it will include bibliographic, chemical, 
# crystal, experimental, refinement or atomic coordinate data resulting 
# from the CCDC's data processing and validation procedures.
#
#######################################################################

data_EJADIE
_chemical_formula_moiety         'C27 H19 N3 O1'
_chemical_name_systematic        
N-(2-(4-phenylquinazolin-2-yl)phenyl)benzamide
_symmetry_cell_setting           monoclinic
_symmetry_space_group_name_H-M   'P 21/c'
_symmetry_Int_Tables_number      14
_space_group_name_Hall           '-P 2ybc'
loop_
_symmetry_equiv_pos_site_id
_symmetry_equiv_pos_as_xyz
1 x,y,z
2 -x,1/2+y,1/2-z
3 -x,-y,-z
4 x,1/2-y,1/2+z
_cell_length_a                   4.8320(7)
_cell_length_b                   30.042(5)
_cell_length_c                   13.790(2)
_cell_angle_alpha                90
_cell_angle_beta                 90.810(4)
_cell_angle_gamma                90
_cell_volume                     2001.6
_exptl_crystal_colour            colorless
_exptl_crystal_description       prismatic
_cell_formula_units_Z            4
loop_
_atom_site_label
_atom_site_type_symbol
_atom_site_fract_x
_atom_site_fract_y
_atom_site_fract_z
N1 N 1.3077(5) 0.68329(7) 0.44084(16)
N2 N 1.1055(4) 0.55597(6) 0.32015(14)
N3 N 1.0255(4) 0.63385(6) 0.32002(14)
O1 O 1.3570(5) 0.73156(6) 0.56750(13)
C1 C 1.4339(5) 0.64455(8) 0.47497(17)
C2 C 1.6354(6) 0.64582(10) 0.54774(19)
H1 H 1.6826 0.6729 0.5762
C3 C 1.7651(6) 0.60772(10) 0.5781(2)
H2 H 1.9002 0.6092 0.6267
C4 C 1.6981(6) 0.56717(10) 0.5375(2)
H3 H 1.7861 0.5414 0.5587
C5 C 1.5002(5) 0.56532(9) 0.46537(18)
H4 H 1.4558 0.5379 0.4381
C6 C 1.3634(5) 0.60325(8) 0.43156(16)
C7 C 1.1534(5) 0.59840(8) 0.35338(16)
C8 C 0.9188(5) 0.55062(8) 0.25100(17)
C9 C 0.7647(5) 0.58676(8) 0.21144(16)
C10 C 0.8285(5) 0.62888(8) 0.24951(16)
C11 C 0.6880(5) 0.66678(9) 0.21516(18)
H5 H 0.7327 0.6947 0.2398
C12 C 0.4873(6) 0.66264(9) 0.14612(18)
H6 H 0.3935 0.6878 0.1240
C13 C 0.4207(6) 0.62099(10) 0.10811(18)
H7 H 0.2819 0.6186 0.0610
C14 C 0.5566(5) 0.58366(9) 0.13918(17)
H8 H 0.5116 0.5561 0.1125
C15 C 1.2745(6) 0.72317(8) 0.48559(18)
C16 C 1.1196(5) 0.75604(8) 0.42533(18)
C17 C 1.1499(6) 0.75856(10) 0.32569(19)
H9 H 1.2731 0.7397 0.2949
C18 C 0.9987(7) 0.78889(10) 0.2721(2)
H10 H 1.0218 0.7906 0.2053
C19 C 0.8159(7) 0.81643(10) 0.3161(2)
H11 H 0.7113 0.8365 0.2795
C20 C 0.7864(7) 0.81454(10) 0.4146(2)
H12 H 0.6623 0.8335 0.4447
C21 C 0.9374(6) 0.78502(9) 0.4692(2)
H13 H 0.9176 0.7844 0.5362
C22 C 0.8768(4) 0.50114(6) 0.22389(15)
C23 C 0.6153(4) 0.48234(7) 0.23207(18)
H14 H 0.4717 0.4988 0.2585
C24 C 0.5684(4) 0.43898(7) 0.2007(2)
H15 H 0.3934 0.4264 0.2062
C25 C 0.7829(5) 0.41442(5) 0.16123(19)
H16 H 0.7516 0.3854 0.1403
C26 C 1.0444(4) 0.43322(7) 0.15305(19)
H17 H 1.1880 0.4168 0.1266
C27 C 1.0913(3) 0.47658(7) 0.18438(18)
H18 H 1.2663 0.4892 0.1789
H19 H 1.196(6) 0.6761(9) 0.384(2)
C28? C 0.8732(4) 0.50796(5) 0.20808(16)
C29? C 0.8000(5) 0.47384(7) 0.27080(12)
H20? H 0.7744 0.4798 0.3362
C30? C 0.7652(5) 0.43080(6) 0.23572(16)
H21? H 0.7162 0.4080 0.2777
C31? C 0.8035(5) 0.42188(5) 0.13791(17)
H22? H 0.7801 0.3931 0.1144
C32? C 0.8766(6) 0.45599(8) 0.07519(12)
H23? H 0.9023 0.4500 0.0098
C33? C 0.9115(5) 0.49903(7) 0.11027(15)
H24? H 0.9605 0.5219 0.0683
loop_
_geom_bond_atom_site_label_1
_geom_bond_atom_site_label_2
_geom_bond_site_symmetry_1
_geom_bond_site_symmetry_2
N1 C1 1_555 1_555
N2 C7 1_555 1_555
N3 C7 1_555 1_555
O1 C15 1_555 1_555
C1 C2 1_555 1_555
C2 H1 1_555 1_555
C3 C2 1_555 1_555
H2 C3 1_555 1_555
C4 C3 1_555 1_555
H3 C4 1_555 1_555
C5 C4 1_555 1_555
H4 C5 1_555 1_555
C6 C1 1_555 1_555
C7 C6 1_555 1_555
C8 N2 1_555 1_555
C9 C8 1_555 1_555
C10 N3 1_555 1_555
C11 C10 1_555 1_555
H5 C11 1_555 1_555
C12 C11 1_555 1_555
H6 C12 1_555 1_555
C13 C12 1_555 1_555
H7 C13 1_555 1_555
C14 C9 1_555 1_555
H8 C14 1_555 1_555
C15 N1 1_555 1_555
C16 C15 1_555 1_555
C17 C16 1_555 1_555
H9 C17 1_555 1_555
C18 C17 1_555 1_555
H10 C18 1_555 1_555
C19 C18 1_555 1_555
H11 C19 1_555 1_555
C20 C19 1_555 1_555
H12 C20 1_555 1_555
C21 C16 1_555 1_555
H13 C21 1_555 1_555
C22 C8 1_555 1_555
C23 C22 1_555 1_555
H14 C23 1_555 1_555
C24 C23 1_555 1_555
H15 C24 1_555 1_555
C25 C24 1_555 1_555
H16 C25 1_555 1_555
C26 C25 1_555 1_555
H17 C26 1_555 1_555
C27 C22 1_555 1_555
H18 C27 1_555 1_555
H19 N1 1_555 1_555
C5 C6 1_555 1_555
C9 C10 1_555 1_555
C13 C14 1_555 1_555
C20 C21 1_555 1_555
C26 C27 1_555 1_555

#END
