
#######################################################################
#
#                 Cambridge Crystallographic Data Centre
#                                CCDC 
#
#######################################################################
#
# If this CIF has been generated from an entry in the Cambridge 
# Structural Database, then it will include bibliographic, chemical, 
# crystal, experimental, refinement or atomic coordinate data resulting 
# from the CCDC's data processing and validation procedures.
#
#######################################################################

data_EJAFAX
_chemical_formula_moiety         'C18 H18 N2 O7 S3,H2 O1'
_chemical_name_systematic        
'5,6,15-Trihydroxy-21,22,23-trithia-3,13-diazaheptacyclo[14.4.2.1^7,11^.0^1,13^.0^3,11^.0^4,9^.0^14,19^]tricosane-2,8,12,18-tetrone monohydrate'
_symmetry_cell_setting           monoclinic
_symmetry_space_group_name_H-M   'P 21'
_symmetry_Int_Tables_number      4
_space_group_name_Hall           'P 2yb'
loop_
_symmetry_equiv_pos_site_id
_symmetry_equiv_pos_as_xyz
1 x,y,z
2 -x,1/2+y,-z
_cell_length_a                   6.5869(13)
_cell_length_b                   8.1866(16)
_cell_length_c                   17.513(4)
_cell_angle_alpha                90
_cell_angle_beta                 95.20(3)
_cell_angle_gamma                90
_cell_volume                     940.49
_exptl_crystal_colour            colorless
_exptl_crystal_description       block
_cell_formula_units_Z            2
loop_
_atom_site_label
_atom_site_type_symbol
_atom_site_fract_x
_atom_site_fract_y
_atom_site_fract_z
S1 S 0.61223(9) 0.11067(7) 0.11575(3)
S2 S 0.42489(9) 0.02765(9) 0.31127(4)
S3 S 0.55779(10) 0.23991(8) 0.34705(4)
O1 O 0.8006(3) 0.2794(2) -0.05034(10)
O2 O 0.9414(3) -0.1285(2) 0.20567(10)
O3 O 0.7758(3) -0.3185(2) 0.41716(10)
H1 H 0.8472 -0.3807 0.3933
O4 O 0.7714(3) 0.1056(3) 0.54758(11)
O5 O 0.9288(3) 0.4825(2) 0.30182(10)
O6 O 0.8001(3) 0.6429(2) 0.05925(10)
H2 H 0.8929 0.7099 0.0698
O7 O 0.4417(3) 0.4181(2) 0.16190(10)
H3 H 0.4118 0.5083 0.1794
N1 N 0.8677(3) 0.0472(2) 0.29910(11)
N2 N 0.8837(3) 0.3093(2) 0.20127(11)
C1 C 0.5937(4) 0.2959(3) 0.05609(13)
H6 H 0.4793 0.2802 0.0152
C2 C 0.7907(4) 0.3020(3) 0.01792(13)
C3 C 0.9790(3) 0.3225(3) 0.07397(13)
H7 H 1.0966 0.3666 0.0480
C4 C 1.0289(4) 0.1542(3) 0.11043(13)
H8 H 1.0118 0.0651 0.0722
H9 H 1.1686 0.1506 0.1365
C5 C 0.8665(3) 0.1467(3) 0.16789(13)
C6 C 0.8955(3) 0.0091(3) 0.22599(13)
C7 C 0.8961(4) -0.0738(3) 0.36203(13)
H10 H 1.0257 -0.1350 0.3572
C8 C 0.7201(4) -0.1961(3) 0.36093(14)
H11 H 0.6967 -0.2474 0.3091
C9 C 0.5228(4) -0.1218(3) 0.38360(14)
H12 H 0.4206 -0.2123 0.3830
C10 C 0.5508(4) -0.0566(3) 0.46584(14)
H13 H 0.4352 0.0169 0.4738
H14 H 0.5440 -0.1498 0.5015
C11 C 0.7466(4) 0.0348(3) 0.48672(13)
C12 C 0.9218(4) 0.0325(3) 0.43522(13)
H15 H 1.0479 -0.0038 0.4667
C13 C 0.9586(4) 0.2067(3) 0.40571(14)
H16 H 0.9086 0.2901 0.4404
H17 H 1.1051 0.2259 0.4006
C14 C 0.8350(4) 0.2091(3) 0.32763(13)
C15 C 0.8880(4) 0.3449(3) 0.27563(14)
C16 C 0.9324(3) 0.4298(3) 0.14288(13)
H18 H 1.0569 0.4928 0.1618
C17 C 0.7547(3) 0.5470(3) 0.12363(13)
H19 H 0.7363 0.6193 0.1685
C18 C 0.5546(4) 0.4566(3) 0.09886(14)
H20 H 0.4688 0.5292 0.0631
O8 O 0.2882(3) 0.6668(3) 0.24876(14)
H4 H 0.2584 0.6135 0.2872
H5 H 0.1997 0.7396 0.2391
loop_
_geom_bond_atom_site_label_1
_geom_bond_atom_site_label_2
_geom_bond_site_symmetry_1
_geom_bond_site_symmetry_2
S1 C1 1_555 1_555
S2 S3 1_555 1_555
S3 C14 1_555 1_555
O1 C2 1_555 1_555
O2 C6 1_555 1_555
O3 H1 1_555 1_555
O4 C11 1_555 1_555
O5 C15 1_555 1_555
O6 H2 1_555 1_555
O7 H3 1_555 1_555
O8 H4 1_555 1_555
H5 O8 1_555 1_555
N1 C6 1_555 1_555
N2 C5 1_555 1_555
C1 H6 1_555 1_555
C2 C1 1_555 1_555
C3 C2 1_555 1_555
H7 C3 1_555 1_555
C4 C3 1_555 1_555
H8 C4 1_555 1_555
H9 C4 1_555 1_555
C5 S1 1_555 1_555
C6 C5 1_555 1_555
C7 N1 1_555 1_555
H10 C7 1_555 1_555
C8 O3 1_555 1_555
H11 C8 1_555 1_555
C9 S2 1_555 1_555
H12 C9 1_555 1_555
C10 C9 1_555 1_555
H13 C10 1_555 1_555
H14 C10 1_555 1_555
C11 C10 1_555 1_555
C12 C7 1_555 1_555
H15 C12 1_555 1_555
C13 C12 1_555 1_555
H16 C13 1_555 1_555
H17 C13 1_555 1_555
C14 N1 1_555 1_555
C15 N2 1_555 1_555
C16 N2 1_555 1_555
H18 C16 1_555 1_555
C17 O6 1_555 1_555
H19 C17 1_555 1_555
C18 O7 1_555 1_555
H20 C18 1_555 1_555
C1 C18 1_555 1_555
C3 C16 1_555 1_555
C4 C5 1_555 1_555
C7 C8 1_555 1_555
C8 C9 1_555 1_555
C11 C12 1_555 1_555
C13 C14 1_555 1_555
C14 C15 1_555 1_555
C16 C17 1_555 1_555
C17 C18 1_555 1_555

#END
