
#######################################################################
#
#                 Cambridge Crystallographic Data Centre
#                                CCDC 
#
#######################################################################
#
# If this CIF has been generated from an entry in the Cambridge 
# Structural Database, then it will include bibliographic, chemical, 
# crystal, experimental, refinement or atomic coordinate data resulting 
# from the CCDC's data processing and validation procedures.
#
#######################################################################

data_EJAGED
_chemical_formula_moiety         'C30 H29 N3 O5'
_chemical_name_systematic        
"ethyl 1-benzyl-3'-ethoxy-5'-(2-methylbenzoyl)-2-oxo-1,2-dihydrospiro[indole-3,4'-pyrazole]-1'(5'H)-carboxylate"
_symmetry_cell_setting           triclinic
_symmetry_space_group_name_H-M   'P -1'
_symmetry_Int_Tables_number      2
_space_group_name_Hall           '-P 1'
loop_
_symmetry_equiv_pos_site_id
_symmetry_equiv_pos_as_xyz
1 x,y,z
2 -x,-y,-z
_cell_length_a                   10.4850(2)
_cell_length_b                   10.4852(2)
_cell_length_c                   13.3060(3)
_cell_angle_alpha                79.14(3)
_cell_angle_beta                 67.26(3)
_cell_angle_gamma                76.51(3)
_cell_volume                     1304
_exptl_crystal_description       prism
_cell_formula_units_Z            2
loop_
_atom_site_label
_atom_site_type_symbol
_atom_site_fract_x
_atom_site_fract_y
_atom_site_fract_z
O1 O 1.12596(8) 0.30842(8) 0.33318(6)
O2 O 1.28194(8) 0.49207(8) 0.08212(6)
O3 O 1.27656(8) 0.67981(7) 0.14758(6)
O4 O 0.77647(8) 0.72111(8) 0.39114(6)
O5 O 0.77538(9) 0.60665(9) 0.15805(7)
N1 N 1.09997(10) 0.56381(9) 0.22958(8)
N2 N 1.01369(10) 0.67084(9) 0.28769(7)
N3 N 0.66544(10) 0.46132(9) 0.30120(8)
C1 C 1.06329(14) 0.05277(12) 0.36715(10)
H1 H 1.0460 -0.0381 0.3888
H2 H 0.9824 0.1126 0.4109
H3 H 1.1475 0.0597 0.3797
C2 C 1.08486(11) 0.08980(11) 0.24747(9)
C3 C 1.09779(12) -0.00811(11) 0.18506(9)
H4 H 1.0937 -0.0961 0.2189
C4 C 1.11653(12) 0.01916(12) 0.07476(10)
H5 H 1.1250 -0.0496 0.0340
C5 C 1.12290(13) 0.14671(12) 0.02397(10)
H6 H 1.1361 0.1656 -0.0517
C6 C 1.10998(12) 0.24660(11) 0.08377(9)
H7 H 1.1141 0.3341 0.0488
C7 C 1.09088(11) 0.22011(10) 0.19547(9)
C8 C 1.08500(11) 0.32805(11) 0.25637(9)
C9 C 1.02056(11) 0.46886(11) 0.22391(9)
H8 H 1.0199 0.4766 0.1480
C10 C 0.86874(11) 0.51639(11) 0.30546(9)
C11 C 0.88922(12) 0.64444(11) 0.32808(9)
C12 C 0.80544(13) 0.83858(11) 0.41590(10)
H9 H 0.8593 0.8883 0.3475
H10 H 0.8613 0.8136 0.4642
C13 C 0.66686(13) 0.92148(12) 0.47222(10)
H11 H 0.6116 0.9437 0.4244
H12 H 0.6825 1.0028 0.4883
H13 H 0.6157 0.8722 0.5408
C14 C 0.80106(11) 0.42815(10) 0.40772(9)
C15 C 0.83279(12) 0.38399(11) 0.50158(9)
H14 H 0.9121 0.4053 0.5084
C16 C 0.74573(13) 0.30734(12) 0.58616(9)
H15 H 0.7665 0.2752 0.6508
C17 C 0.62900(13) 0.27802(12) 0.57616(10)
H16 H 0.5715 0.2251 0.6342
C18 C 0.59410(13) 0.32396(12) 0.48345(10)
H17 H 0.5135 0.3045 0.4773
C19 C 0.68174(12) 0.39928(11) 0.40052(9)
C20 C 0.76507(12) 0.53770(11) 0.24405(10)
C21 C 0.56059(13) 0.44261(12) 0.26117(11)
H18 H 0.5677 0.5015 0.1924
H19 H 0.4659 0.4688 0.3158
C22 C 0.57623(12) 0.30249(12) 0.23977(9)
C23 C 0.45852(13) 0.25946(13) 0.24350(10)
H20 H 0.3703 0.3173 0.2621
C24 C 0.46804(14) 0.13337(14) 0.22051(10)
H21 H 0.3870 0.1059 0.2223
C25 C 0.59571(14) 0.04725(14) 0.19488(10)
H22 H 0.6024 -0.0396 0.1798
C26 C 0.71327(14) 0.08886(13) 0.19151(10)
H23 H 0.8010 0.0302 0.1740
C27 C 0.70412(13) 0.21555(13) 0.21356(10)
H24 H 0.7856 0.2432 0.2107
C28 C 1.22527(12) 0.57478(11) 0.14597(9)
C29 C 1.40936(12) 0.69649(12) 0.05781(9)
H25 H 1.3930 0.7266 -0.0120
H26 H 1.4759 0.6115 0.0499
C30 C 1.46853(13) 0.79701(13) 0.08450(10)
H27 H 1.4012 0.8802 0.0934
H28 H 1.5567 0.8114 0.0248
H29 H 1.4865 0.7653 0.1528
loop_
_geom_bond_atom_site_label_1
_geom_bond_atom_site_label_2
_geom_bond_site_symmetry_1
_geom_bond_site_symmetry_2
O1 C8 1_555 1_555
O2 C28 1_555 1_555
O3 C28 1_555 1_555
O4 C11 1_555 1_555
O5 C20 1_555 1_555
N1 N2 1_555 1_555
N2 C11 1_555 1_555
N3 C19 1_555 1_555
C1 H1 1_555 1_555
H2 C1 1_555 1_555
H3 C1 1_555 1_555
C2 C1 1_555 1_555
C3 C2 1_555 1_555
H4 C3 1_555 1_555
C4 C3 1_555 1_555
H5 C4 1_555 1_555
C5 C4 1_555 1_555
H6 C5 1_555 1_555
C6 C5 1_555 1_555
H7 C6 1_555 1_555
C7 C2 1_555 1_555
C8 C7 1_555 1_555
C9 N1 1_555 1_555
H8 C9 1_555 1_555
C10 C9 1_555 1_555
C11 C10 1_555 1_555
C12 O4 1_555 1_555
H9 C12 1_555 1_555
H10 C12 1_555 1_555
C13 C12 1_555 1_555
H11 C13 1_555 1_555
H12 C13 1_555 1_555
H13 C13 1_555 1_555
C14 C10 1_555 1_555
C15 C14 1_555 1_555
H14 C15 1_555 1_555
C16 C15 1_555 1_555
H15 C16 1_555 1_555
C17 C16 1_555 1_555
H16 C17 1_555 1_555
C18 C17 1_555 1_555
H17 C18 1_555 1_555
C19 C14 1_555 1_555
C20 N3 1_555 1_555
C21 N3 1_555 1_555
H18 C21 1_555 1_555
H19 C21 1_555 1_555
C22 C21 1_555 1_555
C23 C22 1_555 1_555
H20 C23 1_555 1_555
C24 C23 1_555 1_555
H21 C24 1_555 1_555
C25 C24 1_555 1_555
H22 C25 1_555 1_555
C26 C25 1_555 1_555
H23 C26 1_555 1_555
C27 C22 1_555 1_555
H24 C27 1_555 1_555
C28 N1 1_555 1_555
C29 O3 1_555 1_555
H25 C29 1_555 1_555
H26 C29 1_555 1_555
C30 C29 1_555 1_555
H27 C30 1_555 1_555
H28 C30 1_555 1_555
H29 C30 1_555 1_555
C6 C7 1_555 1_555
C8 C9 1_555 1_555
C10 C20 1_555 1_555
C18 C19 1_555 1_555
C26 C27 1_555 1_555

#END
