
#######################################################################
#
#                 Cambridge Crystallographic Data Centre
#                                CCDC 
#
#######################################################################
#
# If this CIF has been generated from an entry in the Cambridge 
# Structural Database, then it will include bibliographic, chemical, 
# crystal, experimental, refinement or atomic coordinate data resulting 
# from the CCDC's data processing and validation procedures.
#
#######################################################################

data_EJAQAJ
_chemical_formula_moiety         'C16 H19 F2 N1 O1'
_chemical_name_systematic        
(E)-2,2-difluoro-1-(piperidin-1-yl)-4-(p-tolyl)but-3-en-1-one
_symmetry_cell_setting           triclinic
_symmetry_space_group_name_H-M   'P -1'
_symmetry_Int_Tables_number      2
_space_group_name_Hall           '-P 1'
loop_
_symmetry_equiv_pos_site_id
_symmetry_equiv_pos_as_xyz
1 x,y,z
2 -x,-y,-z
_cell_length_a                   5.7679(19)
_cell_length_b                   9.859(3)
_cell_length_c                   13.531(4)
_cell_angle_alpha                73.54(3)
_cell_angle_beta                 85.59(3)
_cell_angle_gamma                81.51(3)
_cell_volume                     729.331
_exptl_crystal_colour            colorless
_exptl_crystal_description       block
_cell_formula_units_Z            2
loop_
_atom_site_label
_atom_site_type_symbol
_atom_site_fract_x
_atom_site_fract_y
_atom_site_fract_z
F1 F 0.1094(4) 0.7073(3) 0.75142(17)
F2 F -0.1694(4) 0.8441(2) 0.66078(17)
O1 O 0.2711(4) 0.6082(3) 0.6018(2)
N1 N -0.0440(5) 0.7027(3) 0.5039(2)
C1 C -0.5327(6) 0.3746(4) 0.8513(3)
H1 H -0.5714 0.4186 0.7832
C2 C -0.6628(6) 0.2727(4) 0.9119(3)
H2 H -0.7890 0.2500 0.8837
C3 C -0.6106(6) 0.2034(4) 1.0133(3)
C4 C -0.4266(7) 0.2416(4) 1.0532(3)
H3 H -0.3906 0.1988 1.1219
C5 C -0.2938(6) 0.3424(4) 0.9933(3)
H4 H -0.1676 0.3641 1.0221
C6 C -0.3429(6) 0.4122(4) 0.8916(3)
C7 C -0.1952(6) 0.5169(4) 0.8327(3)
H5 H -0.0610 0.5222 0.8647
C8 C -0.2271(6) 0.6047(4) 0.7403(3)
H6 H -0.3617 0.6046 0.7067
C9 C -0.0575(6) 0.7051(4) 0.6865(3)
C10 C 0.0703(6) 0.6706(4) 0.5909(3)
C11 C 0.0804(7) 0.6741(4) 0.4117(3)
H7 H 0.0018 0.6090 0.3884
H8 H 0.2393 0.6295 0.4284
C12 C 0.0864(7) 0.8123(4) 0.3266(3)
H9 H 0.1846 0.8714 0.3465
H10 H 0.1556 0.7910 0.2642
C13 C -0.1559(8) 0.8937(5) 0.3052(3)
H11 H -0.1434 0.9860 0.2565
H12 H -0.2462 0.8419 0.2743
C14 C -0.2814(6) 0.9145(4) 0.4025(3)
H13 H -0.4413 0.9588 0.3877
H14 H -0.2036 0.9777 0.4283
C15 C -0.2838(6) 0.7728(4) 0.4840(3)
H15 H -0.3594 0.7884 0.5471
H16 H -0.3724 0.7122 0.4606
C16 C -0.7510(7) 0.0896(4) 1.0786(3)
H17 H -0.9127 0.1141 1.0606
H18 H -0.7384 0.0831 1.1502
H19 H -0.6911 -0.0006 1.0664
loop_
_geom_bond_atom_site_label_1
_geom_bond_atom_site_label_2
_geom_bond_site_symmetry_1
_geom_bond_site_symmetry_2
F1 C9 1_555 1_555
F2 C9 1_555 1_555
O1 C10 1_555 1_555
N1 C10 1_555 1_555
C1 H1 1_555 1_555
C2 C1 1_555 1_555
H2 C2 1_555 1_555
C3 C2 1_555 1_555
C4 C3 1_555 1_555
H3 C4 1_555 1_555
C5 C4 1_555 1_555
H4 C5 1_555 1_555
C6 C1 1_555 1_555
C7 C6 1_555 1_555
H5 C7 1_555 1_555
C8 C7 1_555 1_555
H6 C8 1_555 1_555
C9 C8 1_555 1_555
C10 C9 1_555 1_555
C11 N1 1_555 1_555
H7 C11 1_555 1_555
H8 C11 1_555 1_555
C12 C11 1_555 1_555
H9 C12 1_555 1_555
H10 C12 1_555 1_555
C13 C12 1_555 1_555
H11 C13 1_555 1_555
H12 C13 1_555 1_555
C14 C13 1_555 1_555
H13 C14 1_555 1_555
H14 C14 1_555 1_555
C15 N1 1_555 1_555
H15 C15 1_555 1_555
H16 C15 1_555 1_555
C16 C3 1_555 1_555
H17 C16 1_555 1_555
H18 C16 1_555 1_555
H19 C16 1_555 1_555
C5 C6 1_555 1_555
C14 C15 1_555 1_555

#END
