
#######################################################################
#
#                 Cambridge Crystallographic Data Centre
#                                CCDC 
#
#######################################################################
#
# If this CIF has been generated from an entry in the Cambridge 
# Structural Database, then it will include bibliographic, chemical, 
# crystal, experimental, refinement or atomic coordinate data resulting 
# from the CCDC's data processing and validation procedures.
#
#######################################################################

data_EJATAL
_chemical_name_common            
(1S,3R,5R,7S,8R,9S)-3,8-epoxy-1-O-ethyl-5-hydroxyvalechlorine
_chemical_formula_moiety         'C14 H19 Cl1 O6'
_chemical_name_systematic        
'3-(Chloromethyl)-8-ethoxy-6-hydroxy-10-methylene-2,9-dioxatricyclo[4.3.1.0^3,7^]dec-4-yl acetate'
_symmetry_cell_setting           orthorhombic
_symmetry_space_group_name_H-M   'P 21 21 21'
_symmetry_Int_Tables_number      19
_space_group_name_Hall           'P 2ac 2ab'
loop_
_symmetry_equiv_pos_site_id
_symmetry_equiv_pos_as_xyz
1 x,y,z
2 1/2-x,-y,1/2+z
3 -x,1/2+y,1/2-z
4 1/2+x,1/2-y,-z
_cell_length_a                   9.547(4)
_cell_length_b                   12.328(5)
_cell_length_c                   13.064(5)
_cell_angle_alpha                90
_cell_angle_beta                 90
_cell_angle_gamma                90
_cell_volume                     1537.57
_exptl_crystal_colour            colorless
_exptl_crystal_description       block
_chemical_melting_point          '152-153 deg.C'
_cell_formula_units_Z            4
loop_
_atom_site_label
_atom_site_type_symbol
_atom_site_fract_x
_atom_site_fract_y
_atom_site_fract_z
Cl1 Cl 0.67189(7) 0.06665(5) 0.38347(5)
O1 O 0.34653(18) -0.18179(10) 0.49553(11)
O2 O 0.46344(16) -0.15090(11) 0.64727(12)
O3 O 0.18003(18) 0.05103(15) 0.71200(11)
H1 H 0.1230 0.0798 0.6737
O4 O 0.58021(15) 0.00760(11) 0.60220(10)
O5 O 0.37409(15) 0.19746(10) 0.45308(11)
O6 O 0.50613(19) 0.34524(13) 0.43658(14)
C1 C 0.3387(3) -0.12771(15) 0.58852(15)
H2 H 0.2553 -0.1509 0.6263
C2 C 0.5255(2) -0.05506(17) 0.68470(15)
H3 H 0.6022 -0.0744 0.7310
C3 C 0.4203(2) 0.00995(16) 0.74218(15)
C4 C 0.3155(2) 0.05784(16) 0.66812(14)
C5 C 0.3586(3) 0.17330(16) 0.63686(15)
H4 H 0.2765 0.2166 0.6212
H5 H 0.4099 0.2082 0.6918
C6 C 0.4513(2) 0.16158(15) 0.54207(15)
H6 H 0.5404 0.2002 0.5496
C7 C 0.4725(2) 0.03920(15) 0.52983(13)
C8 C 0.3331(2) -0.00723(14) 0.56855(14)
H7 H 0.2573 0.0099 0.5205
C9 C 0.5145(2) 0.00101(16) 0.42457(15)
H8 H 0.4398 0.0166 0.3765
H9 H 0.5289 -0.0769 0.4257
C10 C 0.4188(3) 0.0232(2) 0.84102(18)
H10 H 0.4872 -0.0094 0.8813
H11 H 0.3493 0.0652 0.8713
C11 C 0.4137(2) 0.28789(16) 0.40587(16)
C12 C 0.3298(3) 0.30757(19) 0.31218(17)
H12 H 0.3613 0.3730 0.2797
H13 H 0.2328 0.3148 0.3303
H14 H 0.3410 0.2477 0.2659
C13 C 0.3262(4) -0.29625(18) 0.5025(2)
H15 H 0.2271 -0.3121 0.5091
H16 H 0.3737 -0.3241 0.5627
C14 C 0.3818(4) -0.3484(3) 0.4110(3)
H17 H 0.3676 -0.4254 0.4155
H18 H 0.4801 -0.3334 0.4054
H19 H 0.3342 -0.3209 0.3517
loop_
_geom_bond_atom_site_label_1
_geom_bond_atom_site_label_2
_geom_bond_site_symmetry_1
_geom_bond_site_symmetry_2
Cl1 C9 1_555 1_555
O1 C1 1_555 1_555
O2 C1 1_555 1_555
O3 H1 1_555 1_555
O4 C2 1_555 1_555
O5 C6 1_555 1_555
O6 C11 1_555 1_555
C1 H2 1_555 1_555
C2 O2 1_555 1_555
H3 C2 1_555 1_555
C3 C2 1_555 1_555
C4 O3 1_555 1_555
C5 C4 1_555 1_555
H4 C5 1_555 1_555
H5 C5 1_555 1_555
C6 C5 1_555 1_555
H6 C6 1_555 1_555
C7 O4 1_555 1_555
C8 C1 1_555 1_555
H7 C8 1_555 1_555
C9 C7 1_555 1_555
H8 C9 1_555 1_555
H9 C9 1_555 1_555
C10 C3 1_555 1_555
H10 C10 1_555 1_555
H11 C10 1_555 1_555
C11 O5 1_555 1_555
C12 C11 1_555 1_555
H12 C12 1_555 1_555
H13 C12 1_555 1_555
H14 C12 1_555 1_555
C13 O1 1_555 1_555
H15 C13 1_555 1_555
H16 C13 1_555 1_555
C14 C13 1_555 1_555
H17 C14 1_555 1_555
H18 C14 1_555 1_555
H19 C14 1_555 1_555
C3 C4 1_555 1_555
C4 C8 1_555 1_555
C6 C7 1_555 1_555
C7 C8 1_555 1_555

#END
