
#######################################################################
#
#                 Cambridge Crystallographic Data Centre
#                                CCDC 
#
#######################################################################
#
# If this CIF has been generated from an entry in the Cambridge 
# Structural Database, then it will include bibliographic, chemical, 
# crystal, experimental, refinement or atomic coordinate data resulting 
# from the CCDC's data processing and validation procedures.
#
#######################################################################

data_EJAVAM01
_chemical_formula_moiety         'C16 H36 N1 1+,Br1 1-,2(C1 H4 N2 S1)'
_chemical_name_systematic        'Tetra-n-butylammonium bromide bis(thiourea)'
_symmetry_cell_setting           orthorhombic
_symmetry_space_group_name_H-M   'P b c a'
_symmetry_Int_Tables_number      61
_space_group_name_Hall           '-P 2ac 2ab'
loop_
_symmetry_equiv_pos_site_id
_symmetry_equiv_pos_as_xyz
1 x,y,z
2 1/2+x,y,1/2-z
3 x,1/2-y,1/2+z
4 1/2-x,1/2+y,z
5 -x,-y,-z
6 1/2-x,-y,1/2+z
7 -x,1/2+y,1/2-z
8 1/2+x,1/2-y,-z
_cell_length_a                   16.872(6)
_cell_length_b                   17.214(6)
_cell_length_c                   18.561(6)
_cell_angle_alpha                90
_cell_angle_beta                 90
_cell_angle_gamma                90
_cell_volume                     5390.76
_exptl_crystal_colour            colorless
_exptl_crystal_description       block
_cell_formula_units_Z            8
loop_
_atom_site_label
_atom_site_type_symbol
_atom_site_fract_x
_atom_site_fract_y
_atom_site_fract_z
S1 S 0.22811(7) 0.63619(6) 0.72187(6)
C1 C 0.2625(2) 0.6380(3) 0.8078(2)
N1 N 0.2705(2) 0.5739(2) 0.84556(19)
H1 H 0.2879 0.5760 0.8891
H2 H 0.2583 0.5298 0.8267
N2 N 0.2821(2) 0.7042(2) 0.8395(2)
H3 H 0.2993 0.7041 0.8831
H4 H 0.2777 0.7473 0.8165
S2 S 0.23793(9) 0.88679(7) 0.78246(7)
C2 C 0.2637(3) 0.8829(3) 0.6947(3)
N3 N 0.2651(2) 0.8169(2) 0.6583(2)
H5 H 0.2775 0.8168 0.6134
H6 H 0.2537 0.7739 0.6796
N4 N 0.2819(2) 0.9458(2) 0.6581(2)
H7 H 0.2938 0.9424 0.6132
H8 H 0.2819 0.9904 0.6791
Br1 Br 0.14751(4) 0.35512(4) 0.50104(3)
N5 N 0.00516(19) 0.1839(2) 0.66618(19)
C3 C -0.0216(3) 0.1132(3) 0.7073(3)
H9 H -0.0353 0.0731 0.6728
H10 H -0.0696 0.1265 0.7333
C4 C 0.0372(3) 0.0789(3) 0.7608(3)
H11 H 0.0575 0.1191 0.7925
H12 H 0.0814 0.0553 0.7356
C5 C -0.0082(5) 0.0181(4) 0.8038(5)
H13 H -0.0603 0.0391 0.8145
H14 H -0.0160 -0.0268 0.7730
C6 C 0.0258(7) -0.0085(6) 0.8701(5)
H15 H -0.0088 -0.0461 0.8918
H16 H 0.0326 0.0347 0.9022
H17 H 0.0764 -0.0320 0.8606
C7 C 0.0303(3) 0.2477(3) 0.7166(3)
H18 H 0.0477 0.2916 0.6878
H19 H 0.0758 0.2296 0.7437
C8 C -0.0314(3) 0.2763(3) 0.7696(3)
H20 H -0.0559 0.2323 0.7936
H21 H -0.0725 0.3045 0.7440
C9 C 0.0074(4) 0.3295(4) 0.8255(3)
H22 H 0.0436 0.2993 0.8548
H23 H 0.0379 0.3692 0.8008
C10 C -0.0531(4) 0.3683(4) 0.8740(4)
H24 H -0.0266 0.4033 0.9062
H25 H -0.0807 0.3294 0.9013
H26 H -0.0904 0.3966 0.8451
C11 C -0.0654(3) 0.2073(3) 0.6213(3)
H27 H -0.1090 0.2191 0.6535
H28 H -0.0812 0.1630 0.5923
C12 C -0.0535(3) 0.2761(4) 0.5715(3)
H29 H -0.0375 0.3209 0.5997
H30 H -0.0114 0.2645 0.5376
C13 C -0.1282(3) 0.2952(5) 0.5307(4)
H31 H -0.1470 0.2487 0.5066
H32 H -0.1687 0.3114 0.5646
C14 C -0.1168(6) 0.3577(6) 0.4760(5)
H33 H -0.1659 0.3671 0.4514
H34 H -0.0772 0.3419 0.4419
H35 H -0.0999 0.4045 0.4996
C15 C 0.0766(3) 0.1675(3) 0.6203(3)
H36 H 0.1207 0.1556 0.6519
H37 H 0.0900 0.2145 0.5943
C16 C 0.0683(3) 0.1019(4) 0.5663(3)
H38 H 0.0245 0.1125 0.5338
H39 H 0.0576 0.0535 0.5912
C17 C 0.1449(4) 0.0954(5) 0.5239(4)
H40 H 0.1528 0.1429 0.4968
H41 H 0.1887 0.0903 0.5575
C18 C 0.1464(5) 0.0276(6) 0.4727(5)
H42 H 0.1961 0.0268 0.4475
H43 H 0.1039 0.0326 0.4386
H44 H 0.1402 -0.0199 0.4992
loop_
_geom_bond_atom_site_label_1
_geom_bond_atom_site_label_2
_geom_bond_site_symmetry_1
_geom_bond_site_symmetry_2
S1 C1 1_555 1_555
C1 N1 1_555 1_555
N1 H1 1_555 1_555
H2 N1 1_555 1_555
N2 C1 1_555 1_555
H3 N2 1_555 1_555
H4 N2 1_555 1_555
S2 C2 1_555 1_555
C2 N3 1_555 1_555
N3 H5 1_555 1_555
H6 N3 1_555 1_555
N4 C2 1_555 1_555
H7 N4 1_555 1_555
H8 N4 1_555 1_555
N5 C3 1_555 1_555
C3 H9 1_555 1_555
H10 C3 1_555 1_555
C4 C3 1_555 1_555
H11 C4 1_555 1_555
H12 C4 1_555 1_555
C5 C4 1_555 1_555
H13 C5 1_555 1_555
H14 C5 1_555 1_555
C6 C5 1_555 1_555
H15 C6 1_555 1_555
H16 C6 1_555 1_555
H17 C6 1_555 1_555
C7 N5 1_555 1_555
H18 C7 1_555 1_555
H19 C7 1_555 1_555
C8 C7 1_555 1_555
H20 C8 1_555 1_555
H21 C8 1_555 1_555
C9 C8 1_555 1_555
H22 C9 1_555 1_555
H23 C9 1_555 1_555
C10 C9 1_555 1_555
H24 C10 1_555 1_555
H25 C10 1_555 1_555
H26 C10 1_555 1_555
C11 N5 1_555 1_555
H27 C11 1_555 1_555
H28 C11 1_555 1_555
C12 C11 1_555 1_555
H29 C12 1_555 1_555
H30 C12 1_555 1_555
C13 C12 1_555 1_555
H31 C13 1_555 1_555
H32 C13 1_555 1_555
C14 C13 1_555 1_555
H33 C14 1_555 1_555
H34 C14 1_555 1_555
H35 C14 1_555 1_555
C15 N5 1_555 1_555
H36 C15 1_555 1_555
H37 C15 1_555 1_555
C16 C15 1_555 1_555
H38 C16 1_555 1_555
H39 C16 1_555 1_555
C17 C16 1_555 1_555
H40 C17 1_555 1_555
H41 C17 1_555 1_555
C18 C17 1_555 1_555
H42 C18 1_555 1_555
H43 C18 1_555 1_555
H44 C18 1_555 1_555

#END
