
#######################################################################
#
#                 Cambridge Crystallographic Data Centre
#                                CCDC 
#
#######################################################################
#
# If this CIF has been generated from an entry in the Cambridge 
# Structural Database, then it will include bibliographic, chemical, 
# crystal, experimental, refinement or atomic coordinate data resulting 
# from the CCDC's data processing and validation procedures.
#
#######################################################################

data_EJAVOB
_chemical_compound_source        'Melia toosendan'
_chemical_name_common            'meliasenin I'
_chemical_formula_moiety         'C30 H50 O4'
_chemical_name_systematic        25-Hydroperoxylanosta-7,23-diene-3,16-diol
_chemical_properties_biological  'cytotoxic study'
_symmetry_cell_setting           orthorhombic
_symmetry_space_group_name_H-M   'P 21 21 21'
_symmetry_Int_Tables_number      19
_space_group_name_Hall           'P 2ac 2ab'
loop_
_symmetry_equiv_pos_site_id
_symmetry_equiv_pos_as_xyz
1 x,y,z
2 1/2-x,-y,1/2+z
3 -x,1/2+y,1/2-z
4 1/2+x,1/2-y,-z
_cell_length_a                   6.4322(3)
_cell_length_b                   13.3812(7)
_cell_length_c                   32.9546(17)
_cell_angle_alpha                90
_cell_angle_beta                 90
_cell_angle_gamma                90
_cell_volume                     2836.42
_exptl_crystal_colour            colorless
_exptl_crystal_description       block
_chemical_melting_point          '216-217 deg.C'
_cell_formula_units_Z            4
loop_
_atom_site_label
_atom_site_type_symbol
_atom_site_fract_x
_atom_site_fract_y
_atom_site_fract_z
O1 O 0.3489(2) 0.87278(11) 0.58780(4)
O2 O 0.4168(2) 0.55194(11) 0.90476(4)
O3 O 0.5354(3) 0.94312(10) 1.06189(4)
O4 O 0.5118(2) 1.04927(9) 1.05352(4)
C1 C 0.1526(3) 0.87776(14) 0.69544(5)
H1 H 0.0175 0.8980 0.7072
H2 H 0.2590 0.9254 0.7053
C2 C 0.1386(3) 0.88610(15) 0.64946(5)
H3 H 0.0192 0.8464 0.6395
H4 H 0.1156 0.9567 0.6417
C3 C 0.3364(3) 0.84847(14) 0.63021(5)
H5 H 0.4524 0.8855 0.6437
C4 C 0.3763(3) 0.73752(14) 0.63843(5)
C5 C 0.3896(3) 0.72746(14) 0.68558(5)
H6 H 0.5139 0.7681 0.6933
C6 C 0.4412(3) 0.62199(14) 0.70005(5)
H7 H 0.3375 0.5747 0.6889
H8 H 0.5795 0.6026 0.6895
C7 C 0.4423(3) 0.61387(14) 0.74551(5)
H9 H 0.4945 0.5538 0.7571
C8 C 0.3761(3) 0.68391(13) 0.77068(5)
C9 C 0.2962(3) 0.78381(13) 0.75471(5)
H10 H 0.4216 0.8275 0.7520
C10 C 0.2076(3) 0.77269(13) 0.71121(5)
C11 C 0.1525(3) 0.83704(14) 0.78511(5)
H11 H 0.0165 0.8024 0.7851
H12 H 0.1285 0.9060 0.7753
C12 C 0.2316(3) 0.84259(14) 0.82948(5)
H13 H 0.2860 0.9107 0.8346
H14 H 0.1124 0.8319 0.8480
C13 C 0.4026(3) 0.76632(13) 0.83993(5)
C14 C 0.3608(3) 0.66756(13) 0.81593(5)
C15 C 0.5181(3) 0.59630(13) 0.83484(5)
H15 H 0.6570 0.6053 0.8224
H16 H 0.4741 0.5260 0.8311
C16 C 0.5234(3) 0.62377(13) 0.88017(5)
H17 H 0.6709 0.6298 0.8894
C17 C 0.4124(3) 0.72674(13) 0.88448(5)
H18 H 0.2663 0.7133 0.8933
C18 C 0.6163(3) 0.80976(15) 0.82855(6)
H19 H 0.6396 0.8719 0.8436
H20 H 0.6201 0.8237 0.7994
H21 H 0.7252 0.7614 0.8354
C19 C 0.0130(3) 0.70683(15) 0.71132(6)
H22 H 0.0489 0.6400 0.7212
H23 H -0.0423 0.7018 0.6837
H24 H -0.0923 0.7365 0.7291
C20 C 0.5147(3) 0.79197(14) 0.91740(5)
H25 H 0.6620 0.8044 0.9091
C21 C 0.5187(4) 0.73701(16) 0.95820(6)
H26 H 0.5862 0.7792 0.9786
H27 H 0.5964 0.6744 0.9553
H28 H 0.3760 0.7222 0.9667
C22 C 0.4086(4) 0.89368(15) 0.92251(6)
H29 H 0.3975 0.9266 0.8957
H30 H 0.2660 0.8835 0.9330
C23 C 0.5257(4) 0.96017(14) 0.95088(6)
H31 H 0.6675 0.9724 0.9445
C24 C 0.4533(3) 1.00343(15) 0.98373(5)
H32 H 0.3119 0.9911 0.9904
C25 C 0.5727(3) 1.07045(14) 1.01178(5)
C26 C 0.8061(3) 1.06220(15) 1.00793(6)
H33 H 0.8477 0.9921 1.0108
H34 H 0.8725 1.1021 1.0292
H35 H 0.8495 1.0871 0.9813
C27 C 0.4997(4) 1.17794(14) 1.00771(6)
H36 H 0.3482 1.1806 1.0106
H37 H 0.5395 1.2038 0.9810
H38 H 0.5644 1.2187 1.0289
C28 C 0.2128(3) 0.67135(15) 0.61744(6)
H39 H 0.2181 0.6825 0.5881
H40 H 0.0742 0.6885 0.6276
H41 H 0.2422 0.6009 0.6233
C29 C 0.5881(3) 0.71073(16) 0.62016(6)
H42 H 0.5809 0.7159 0.5905
H43 H 0.6250 0.6422 0.6278
H44 H 0.6938 0.7569 0.6305
C30 C 0.1408(3) 0.62480(15) 0.82451(6)
H45 H 0.1214 0.5629 0.8091
H46 H 0.0355 0.6737 0.8163
H47 H 0.1266 0.6108 0.8536
H48 H 0.491(4) 0.5013(16) 0.9086(6)
H49 H 0.659(4) 0.9390(18) 1.0726(7)
H50 H 0.239(4) 0.8949(18) 0.5798(7)
loop_
_geom_bond_atom_site_label_1
_geom_bond_atom_site_label_2
_geom_bond_site_symmetry_1
_geom_bond_site_symmetry_2
O1 C3 1_555 1_555
O2 C16 1_555 1_555
O3 O4 1_555 1_555
O4 C25 1_555 1_555
C1 H1 1_555 1_555
H2 C1 1_555 1_555
C2 C1 1_555 1_555
H3 C2 1_555 1_555
H4 C2 1_555 1_555
C3 C2 1_555 1_555
H5 C3 1_555 1_555
C4 C3 1_555 1_555
C5 C4 1_555 1_555
H6 C5 1_555 1_555
C6 C5 1_555 1_555
H7 C6 1_555 1_555
H8 C6 1_555 1_555
C7 C6 1_555 1_555
H9 C7 1_555 1_555
C8 C7 1_555 1_555
C9 C8 1_555 1_555
H10 C9 1_555 1_555
C10 C1 1_555 1_555
C11 C9 1_555 1_555
H11 C11 1_555 1_555
H12 C11 1_555 1_555
C12 C11 1_555 1_555
H13 C12 1_555 1_555
H14 C12 1_555 1_555
C13 C12 1_555 1_555
C14 C8 1_555 1_555
C15 C14 1_555 1_555
H15 C15 1_555 1_555
H16 C15 1_555 1_555
C16 C15 1_555 1_555
H17 C16 1_555 1_555
C17 C13 1_555 1_555
H18 C17 1_555 1_555
C18 C13 1_555 1_555
H19 C18 1_555 1_555
H20 C18 1_555 1_555
H21 C18 1_555 1_555
C19 C10 1_555 1_555
H22 C19 1_555 1_555
H23 C19 1_555 1_555
H24 C19 1_555 1_555
C20 C17 1_555 1_555
H25 C20 1_555 1_555
C21 C20 1_555 1_555
H26 C21 1_555 1_555
H27 C21 1_555 1_555
H28 C21 1_555 1_555
C22 C20 1_555 1_555
H29 C22 1_555 1_555
H30 C22 1_555 1_555
C23 C22 1_555 1_555
H31 C23 1_555 1_555
C24 C23 1_555 1_555
H32 C24 1_555 1_555
C25 C24 1_555 1_555
C26 C25 1_555 1_555
H33 C26 1_555 1_555
H34 C26 1_555 1_555
H35 C26 1_555 1_555
C27 C25 1_555 1_555
H36 C27 1_555 1_555
H37 C27 1_555 1_555
H38 C27 1_555 1_555
C28 C4 1_555 1_555
H39 C28 1_555 1_555
H40 C28 1_555 1_555
H41 C28 1_555 1_555
C29 C4 1_555 1_555
H42 C29 1_555 1_555
H43 C29 1_555 1_555
H44 C29 1_555 1_555
C30 C14 1_555 1_555
H45 C30 1_555 1_555
H46 C30 1_555 1_555
H47 C30 1_555 1_555
H48 O2 1_555 1_555
H49 O3 1_555 1_555
H50 O1 1_555 1_555
C5 C10 1_555 1_555
C9 C10 1_555 1_555
C13 C14 1_555 1_555
C16 C17 1_555 1_555

#END
