
#######################################################################
#
#                 Cambridge Crystallographic Data Centre
#                                CCDC 
#
#######################################################################
#
# If this CIF has been generated from an entry in the Cambridge 
# Structural Database, then it will include bibliographic, chemical, 
# crystal, experimental, refinement or atomic coordinate data resulting 
# from the CCDC's data processing and validation procedures.
#
#######################################################################

data_EJAVIV
_chemical_compound_source        'oxytropis falcata'
_chemical_name_common            'oxytropisoflavan B'
_chemical_formula_moiety         'C17 H20 O6'
_chemical_name_systematic        
4a-Hydroxy-3-(2-hydroxy-3,4-dimethoxyphenyl)-2,3,4,4a,5,6-hexahydro-7H-chromen-7-one
_symmetry_cell_setting           trigonal
_symmetry_space_group_name_H-M   'P 32'
_symmetry_Int_Tables_number      145
_space_group_name_Hall           'P 32'
loop_
_symmetry_equiv_pos_site_id
_symmetry_equiv_pos_as_xyz
1 x,y,z
2 -y,x-y,2/3+z
3 -x+y,-x,1/3+z
_cell_length_a                   9.5608(14)
_cell_length_b                   9.5608(14)
_cell_length_c                   14.687(3)
_cell_angle_alpha                90
_cell_angle_beta                 90
_cell_angle_gamma                120
_cell_volume                     1162.66
_exptl_crystal_colour            colorless
_exptl_crystal_description       block
_cell_formula_units_Z            3
loop_
_atom_site_label
_atom_site_type_symbol
_atom_site_fract_x
_atom_site_fract_y
_atom_site_fract_z
C1 C 0.7917(2) 0.3272(3) 0.07384(15)
H1 H 0.7661 0.3778 0.0244
H2 H 0.9077 0.3880 0.0831
C2 C 0.7088(2) 0.3362(2) 0.15936(13)
H3 H 0.7369 0.2856 0.2087
C3 C 0.5279(2) 0.2341(2) 0.14272(13)
H4 H 0.4696 0.2407 0.1951
H5 H 0.4983 0.2751 0.0901
C4 C 0.3070(2) -0.0415(2) 0.09734(16)
H6 H 0.2875 0.0099 0.0458
H7 H 0.2378 -0.0458 0.1468
C5 C 0.2626(3) -0.2132(3) 0.07110(16)
H8 H 0.2603 -0.2717 0.1256
H9 H 0.1551 -0.2675 0.0449
C6 C 0.3781(3) -0.2184(3) 0.00448(17)
C7 C 0.5402(3) -0.0848(3) 0.00133(16)
H10 H 0.6134 -0.0889 -0.0387
C8 C 0.5899(2) 0.0465(2) 0.05452(14)
C9 C 0.4822(2) 0.0598(2) 0.12649(13)
C10 C 0.7733(2) 0.5109(2) 0.18428(13)
C11 C 0.9210(2) 0.5936(2) 0.23024(14)
C12 C 0.9866(2) 0.7533(2) 0.25442(14)
C13 C 0.9103(3) 0.8403(2) 0.23049(15)
C14 C 0.7654(3) 0.7611(3) 0.18402(16)
H11 H 0.7122 0.8164 0.1676
C15 C 0.6993(2) 0.5996(3) 0.16195(14)
H12 H 0.6014 0.5484 0.1309
C16 C 1.1229(3) 0.8446(4) 0.3943(2)
H13 H 1.0923 0.9246 0.4056
H14 H 1.2257 0.8777 0.4220
H15 H 1.0432 0.7432 0.4197
C17 C 0.9013(3) 1.0823(3) 0.2569(2)
H16 H 0.8732 1.0931 0.1956
H17 H 0.9667 1.1874 0.2831
H18 H 0.8047 1.0227 0.2923
O1 O 0.74529(16) 0.16296(18) 0.04772(10)
O2 O 0.3325(2) -0.3366(2) -0.04683(16)
O3 O 0.51446(18) 0.00154(18) 0.20982(9)
H19 H 0.4333 -0.0819 0.2255
O4 O 0.99702(17) 0.50881(17) 0.25260(11)
H20 H 1.0901 0.5719 0.2683
O5 O 1.13376(16) 0.82742(18) 0.29929(11)
O6 O 0.98863(19) 0.99911(18) 0.25648(14)
loop_
_geom_bond_atom_site_label_1
_geom_bond_atom_site_label_2
_geom_bond_site_symmetry_1
_geom_bond_site_symmetry_2
C1 H1 1_555 1_555
H2 C1 1_555 1_555
C2 C1 1_555 1_555
H3 C2 1_555 1_555
C3 C2 1_555 1_555
H4 C3 1_555 1_555
H5 C3 1_555 1_555
C4 H6 1_555 1_555
H7 C4 1_555 1_555
C5 C4 1_555 1_555
H8 C5 1_555 1_555
H9 C5 1_555 1_555
C6 C5 1_555 1_555
C7 C6 1_555 1_555
H10 C7 1_555 1_555
C8 C7 1_555 1_555
C9 C3 1_555 1_555
C10 C2 1_555 1_555
C11 C10 1_555 1_555
C12 C11 1_555 1_555
C13 C12 1_555 1_555
C14 C13 1_555 1_555
H11 C14 1_555 1_555
C15 C10 1_555 1_555
H12 C15 1_555 1_555
C16 H13 1_555 1_555
H14 C16 1_555 1_555
H15 C16 1_555 1_555
C17 H16 1_555 1_555
H17 C17 1_555 1_555
H18 C17 1_555 1_555
O1 C1 1_555 1_555
O2 C6 1_555 1_555
O3 C9 1_555 1_555
H19 O3 1_555 1_555
O4 C11 1_555 1_555
H20 O4 1_555 1_555
O5 C12 1_555 1_555
O6 C13 1_555 1_555
C4 C9 1_555 1_555
C8 C9 1_555 1_555
C8 O1 1_555 1_555
C14 C15 1_555 1_555
C16 O5 1_555 1_555
C17 O6 1_555 1_555

#END
