
#######################################################################
#
#                 Cambridge Crystallographic Data Centre
#                                CCDC 
#
#######################################################################
#
# If this CIF has been generated from an entry in the Cambridge 
# Structural Database, then it will include bibliographic, chemical, 
# crystal, experimental, refinement or atomic coordinate data resulting 
# from the CCDC's data processing and validation procedures.
#
#######################################################################

data_EJAXIX
_chemical_compound_source        'Xylocarpus granatum'
_chemical_name_common            'Hainangranatumin B'
_chemical_formula_moiety         'C32 H40 O10'
_chemical_name_systematic        
'(1-(3-Furyl)-5-hydroxy-8a-methyl-3,6-dioxo-3,5,6,7,8,8a-hexahydro-1H-isochromen-5-yl)(4-(2-methoxy-2-oxoethyl)-3,3,5-trimethyl-6-oxocyclohex-1-en-1-yl)methyl 2-methylbutanoate'
_symmetry_cell_setting           monoclinic
_symmetry_space_group_name_H-M   'P 21'
_symmetry_Int_Tables_number      4
_space_group_name_Hall           'P 2yb'
loop_
_symmetry_equiv_pos_site_id
_symmetry_equiv_pos_as_xyz
1 x,y,z
2 -x,1/2+y,-z
_cell_length_a                   7.9418(4)
_cell_length_b                   16.2706(9)
_cell_length_c                   11.6249(6)
_cell_angle_alpha                90
_cell_angle_beta                 96.8140(10)
_cell_angle_gamma                90
_cell_volume                     1491.53
_exptl_crystal_colour            colorless
_exptl_crystal_description       block
_cell_formula_units_Z            2
loop_
_atom_site_label
_atom_site_type_symbol
_atom_site_fract_x
_atom_site_fract_y
_atom_site_fract_z
C1 C 1.0812(3) 0.92706(16) 0.3483(2)
C2 C 1.0165(3) 0.85352(16) 0.2839(2)
C3 C 1.0647(3) 0.77843(17) 0.3194(2)
H1 H 1.0179 0.7336 0.2740
C4 C 1.1872(3) 0.75799(17) 0.4251(2)
C5 C 1.2931(3) 0.83472(17) 0.4650(2)
H2 H 1.3753 0.8434 0.4073
C6 C 1.4002(3) 0.8209(2) 0.5844(2)
H3 H 1.3465 0.8507 0.6448
H4 H 1.4002 0.7617 0.6035
C7 C 1.5814(3) 0.84998(17) 0.5863(2)
C8 C 0.7045(3) 0.87798(15) 0.2084(2)
C9 C 0.6884(3) 0.96275(16) 0.2661(2)
C10 C 1.1852(3) 0.91384(17) 0.4649(2)
H5 H 1.1034 0.9057 0.5230
C11 C 0.6811(3) 1.03854(16) 0.1916(2)
H6 H 0.7937 1.0655 0.2017
H7 H 0.5984 1.0774 0.2186
C12 C 0.6310(3) 1.02145(15) 0.0623(2)
H8 H 0.7334 1.0066 0.0259
H9 H 0.5820 1.0718 0.0241
C13 C 0.5008(3) 0.95113(14) 0.0440(2)
C14 C 0.5772(3) 0.87285(14) 0.09889(19)
C15 C 0.5257(3) 0.79971(15) 0.0569(2)
H10 H 0.5721 0.7514 0.0939
C16 C 0.3982(3) 0.79189(15) -0.0458(2)
C17 C 0.4594(3) 0.93378(15) -0.0865(2)
H11 H 0.5682 0.9246 -0.1200
C18 C 0.3394(3) 0.97149(17) 0.0992(2)
H12 H 0.2515 0.9308 0.0746
H13 H 0.2992 1.0264 0.0745
H14 H 0.3647 0.9703 0.1838
C19 C 1.2889(4) 0.99086(19) 0.5011(3)
H15 H 1.3777 0.9981 0.4502
H16 H 1.3412 0.9848 0.5814
H17 H 1.2142 1.0390 0.4950
C20 C 0.3631(3) 1.00060(15) -0.1539(2)
C21 C 0.1939(3) 1.00218(17) -0.1872(2)
H18 H 0.1171 0.9601 -0.1712
C22 C 0.4276(3) 1.07520(16) -0.1964(2)
H19 H 0.5425 1.0928 -0.1875
C23 C 0.2946(4) 1.11555(17) -0.2511(2)
H20 H 0.3013 1.1674 -0.2878
C24 C 1.3053(4) 0.6897(2) 0.3907(3)
H21 H 1.2375 0.6421 0.3619
H22 H 1.3835 0.6736 0.4585
H23 H 1.3701 0.7100 0.3299
C25 C 1.0789(4) 0.7262(2) 0.5178(3)
H24 H 1.0061 0.7706 0.5403
H25 H 1.1536 0.7074 0.5859
H26 H 1.0082 0.6803 0.4860
C26 C 0.8922(3) 0.86915(15) 0.1759(2)
H27 H 0.9252 0.9200 0.1358
C27 C 1.7915(4) 0.9417(2) 0.6668(3)
H28 H 1.8731 0.8977 0.6895
H29 H 1.8076 0.9866 0.7232
H30 H 1.8092 0.9623 0.5900
C28 C 0.9090(3) 0.81406(16) -0.0127(2)
C29 C 0.9184(3) 0.73603(17) -0.0833(2)
H31 H 1.0073 0.7450 -0.1362
C30 C 0.7479(4) 0.72488(18) -0.1607(2)
H32 H 0.6638 0.7013 -0.1136
H33 H 0.7058 0.7794 -0.1887
C31 C 0.7619(4) 0.66960(19) -0.2638(3)
H34 H 0.8409 0.6939 -0.3128
H35 H 0.6500 0.6636 -0.3086
H36 H 0.8037 0.6155 -0.2367
C32 C 0.9687(4) 0.65991(18) -0.0128(3)
H37 H 1.0776 0.6694 0.0344
H38 H 0.9792 0.6134 -0.0650
H39 H 0.8818 0.6476 0.0379
O1 O 1.0499(3) 0.99542(12) 0.3098(2)
O2 O 1.6801(2) 0.82145(13) 0.52694(16)
O3 O 1.6213(2) 0.90985(14) 0.66337(16)
O4 O 0.6695(2) 0.81416(10) 0.28283(14)
H40 H 0.6748 0.8321 0.3509
O5 O 0.6770(3) 0.96506(13) 0.36889(16)
O6 O 0.3299(2) 0.72782(12) -0.07582(19)
O7 O 0.3543(2) 0.86038(10) -0.10722(16)
O8 O 0.1488(2) 1.07259(12) -0.24716(17)
O9 O 0.8997(2) 0.79909(11) 0.10118(14)
O10 O 0.9068(3) 0.88280(12) -0.05224(16)
loop_
_geom_bond_atom_site_label_1
_geom_bond_atom_site_label_2
_geom_bond_site_symmetry_1
_geom_bond_site_symmetry_2
C1 C2 1_555 1_555
C2 C3 1_555 1_555
C3 H1 1_555 1_555
C4 C3 1_555 1_555
C5 C4 1_555 1_555
H2 C5 1_555 1_555
C6 C5 1_555 1_555
H3 C6 1_555 1_555
H4 C6 1_555 1_555
C7 C6 1_555 1_555
C8 C9 1_555 1_555
C9 C11 1_555 1_555
C10 C1 1_555 1_555
H5 C10 1_555 1_555
C11 H6 1_555 1_555
H7 C11 1_555 1_555
C12 C11 1_555 1_555
H8 C12 1_555 1_555
H9 C12 1_555 1_555
C13 C12 1_555 1_555
C14 C8 1_555 1_555
C15 C14 1_555 1_555
H10 C15 1_555 1_555
C16 C15 1_555 1_555
C17 C13 1_555 1_555
H11 C17 1_555 1_555
C18 C13 1_555 1_555
H12 C18 1_555 1_555
H13 C18 1_555 1_555
H14 C18 1_555 1_555
C19 C10 1_555 1_555
H15 C19 1_555 1_555
H16 C19 1_555 1_555
H17 C19 1_555 1_555
C20 C17 1_555 1_555
C21 C20 1_555 1_555
H18 C21 1_555 1_555
C22 C20 1_555 1_555
H19 C22 1_555 1_555
C23 C22 1_555 1_555
H20 C23 1_555 1_555
C24 C4 1_555 1_555
H21 C24 1_555 1_555
H22 C24 1_555 1_555
H23 C24 1_555 1_555
C25 C4 1_555 1_555
H24 C25 1_555 1_555
H25 C25 1_555 1_555
H26 C25 1_555 1_555
C26 C2 1_555 1_555
H27 C26 1_555 1_555
C27 H28 1_555 1_555
H29 C27 1_555 1_555
H30 C27 1_555 1_555
C28 C29 1_555 1_555
C29 H31 1_555 1_555
C30 C29 1_555 1_555
H32 C30 1_555 1_555
H33 C30 1_555 1_555
C31 C30 1_555 1_555
H34 C31 1_555 1_555
H35 C31 1_555 1_555
H36 C31 1_555 1_555
C32 C29 1_555 1_555
H37 C32 1_555 1_555
H38 C32 1_555 1_555
H39 C32 1_555 1_555
O1 C1 1_555 1_555
O2 C7 1_555 1_555
O3 C7 1_555 1_555
O4 C8 1_555 1_555
H40 O4 1_555 1_555
O5 C9 1_555 1_555
O6 C16 1_555 1_555
O7 C16 1_555 1_555
O8 C21 1_555 1_555
O9 C26 1_555 1_555
O10 C28 1_555 1_555
C5 C10 1_555 1_555
C8 C26 1_555 1_555
C13 C14 1_555 1_555
C17 O7 1_555 1_555
C23 O8 1_555 1_555
C27 O3 1_555 1_555
C28 O9 1_555 1_555

#END
