
#######################################################################
#
#                 Cambridge Crystallographic Data Centre
#                                CCDC 
#
#######################################################################
#
# If this CIF has been generated from an entry in the Cambridge 
# Structural Database, then it will include bibliographic, chemical, 
# crystal, experimental, refinement or atomic coordinate data resulting 
# from the CCDC's data processing and validation procedures.
#
#######################################################################

data_EJAXUK
_chemical_formula_moiety         'C14 H17 N1 O3'
_chemical_name_systematic        
'methyl 1-acetamido-2-methyl-2-phenylcyclopropanecarboxylate'
_symmetry_cell_setting           orthorhombic
_symmetry_space_group_name_H-M   'P b c a'
_symmetry_Int_Tables_number      61
_space_group_name_Hall           '-P 2ac 2ab'
loop_
_symmetry_equiv_pos_site_id
_symmetry_equiv_pos_as_xyz
1 x,y,z
2 1/2-x,-y,1/2+z
3 -x,1/2+y,1/2-z
4 1/2+x,1/2-y,-z
5 -x,-y,-z
6 1/2+x,y,1/2-z
7 x,1/2-y,1/2+z
8 1/2-x,1/2+y,z
_cell_length_a                   9.1055(2)
_cell_length_b                   9.4967(2)
_cell_length_c                   30.8939(7)
_cell_angle_alpha                90
_cell_angle_beta                 90
_cell_angle_gamma                90
_cell_volume                     2671.46
_cell_formula_units_Z            8
loop_
_atom_site_label
_atom_site_type_symbol
_atom_site_fract_x
_atom_site_fract_y
_atom_site_fract_z
O1 O 0.21915(15) 0.35720(13) 0.32968(4)
O2 O 0.64118(16) 0.36603(15) 0.31833(4)
N1 N 0.32217(17) 0.56233(17) 0.35033(5)
O3 O 0.51452(18) 0.53102(17) 0.28231(5)
C1 C 0.21001(19) 0.48551(18) 0.33443(5)
C2 C 0.0733(2) 0.5657(2) 0.32335(7)
H1 H 0.0007 0.5020 0.3122
H2 H 0.0956 0.6355 0.3019
H3 H 0.0361 0.6110 0.3489
C3 C 0.46244(19) 0.49838(18) 0.35701(6)
C4 C 0.5407(2) 0.4683(2) 0.31523(6)
C5 C 0.4794(2) 0.4029(2) 0.39564(6)
H4 H 0.3933 0.3861 0.4134
H5 H 0.5447 0.3227 0.3928
C6 C 0.7137(2) 0.5598(3) 0.39463(7)
H6 H 0.7516 0.5899 0.4221
H7 H 0.7386 0.6280 0.3729
H8 H 0.7557 0.4704 0.3871
C7 C 0.5474(2) 0.5459(2) 0.39743(6)
C8 C 0.3711(3) 0.8677(2) 0.47978(7)
H9 H 0.3367 0.9380 0.4981
C9 C 0.4342(2) 0.9025(2) 0.44065(7)
H10 H 0.4407 0.9964 0.4323
C10 C 0.4878(2) 0.7979(2) 0.41373(7)
H11 H 0.5306 0.8224 0.3875
C11 C 0.4786(2) 0.6573(2) 0.42538(6)
C12 C 0.4128(3) 0.6235(2) 0.46454(7)
H12 H 0.4045 0.5297 0.4728
C13 C 0.3593(3) 0.7284(3) 0.49161(7)
H13 H 0.3153 0.7045 0.5178
C14 C 0.7184(3) 0.3328(3) 0.27836(8)
H14 H 0.7876 0.2585 0.2836
H15 H 0.7695 0.4149 0.2683
H16 H 0.6489 0.3030 0.2568
H17 H 0.316(2) 0.650(2) 0.3478(7)
loop_
_geom_bond_atom_site_label_1
_geom_bond_atom_site_label_2
_geom_bond_site_symmetry_1
_geom_bond_site_symmetry_2
O1 C1 1_555 1_555
O2 C4 1_555 1_555
N1 C1 1_555 1_555
O3 C4 1_555 1_555
C1 C2 1_555 1_555
C2 H1 1_555 1_555
H2 C2 1_555 1_555
H3 C2 1_555 1_555
C3 N1 1_555 1_555
C4 C3 1_555 1_555
C5 C3 1_555 1_555
H4 C5 1_555 1_555
H5 C5 1_555 1_555
C6 H6 1_555 1_555
H7 C6 1_555 1_555
H8 C6 1_555 1_555
C7 C3 1_555 1_555
C8 H9 1_555 1_555
C9 C8 1_555 1_555
H10 C9 1_555 1_555
C10 C9 1_555 1_555
H11 C10 1_555 1_555
C11 C7 1_555 1_555
C12 C11 1_555 1_555
H12 C12 1_555 1_555
C13 C8 1_555 1_555
H13 C13 1_555 1_555
C14 O2 1_555 1_555
H14 C14 1_555 1_555
H15 C14 1_555 1_555
H16 C14 1_555 1_555
H17 N1 1_555 1_555
C5 C7 1_555 1_555
C6 C7 1_555 1_555
C10 C11 1_555 1_555
C12 C13 1_555 1_555

#END
