
#######################################################################
#
#                 Cambridge Crystallographic Data Centre
#                                CCDC 
#
#######################################################################
#
# If this CIF has been generated from an entry in the Cambridge 
# Structural Database, then it will include bibliographic, chemical, 
# crystal, experimental, refinement or atomic coordinate data resulting 
# from the CCDC's data processing and validation procedures.
#
#######################################################################

data_EJAYIZ
_chemical_formula_moiety         'C16 H19 N1 O5'
_chemical_name_systematic        
'methyl 4-(2-acetamido-2-(methoxycarbonyl)-1-methylcyclopropyl)benzoate'
_symmetry_cell_setting           monoclinic
_symmetry_space_group_name_H-M   'P 21/c'
_symmetry_Int_Tables_number      14
_space_group_name_Hall           '-P 2ybc'
loop_
_symmetry_equiv_pos_site_id
_symmetry_equiv_pos_as_xyz
1 x,y,z
2 -x,1/2+y,1/2-z
3 -x,-y,-z
4 x,1/2-y,1/2+z
_cell_length_a                   8.8082(18)
_cell_length_b                   19.624(4)
_cell_length_c                   9.7487(19)
_cell_angle_alpha                90
_cell_angle_beta                 95.42(3)
_cell_angle_gamma                90
_cell_volume                     1677.55
_cell_formula_units_Z            4
loop_
_atom_site_label
_atom_site_type_symbol
_atom_site_fract_x
_atom_site_fract_y
_atom_site_fract_z
N1 N 0.2360(3) 0.71493(11) 0.7805(2)
H1 H 0.2358 0.7238 0.6941
C1 C 0.3103(4) 0.40026(14) 0.6431(3)
O1 O 0.1991(3) 0.75334(12) 0.99087(19)
C2 C 0.2753(4) 0.64811(13) 0.8293(2)
C3 C 0.1996(4) 0.76423(14) 0.8667(3)
C4 C 0.4536(4) 0.48331(16) 0.7805(3)
H2 H 0.5333 0.4934 0.8469
O2 O 0.0134(3) 0.62369(12) 0.8197(2)
O3 O 0.1842(3) 0.32111(11) 0.4937(3)
C5 C 0.3940(3) 0.60908(14) 0.7558(2)
C6 C 0.2456(4) 0.51878(15) 0.6234(3)
H3 H 0.1834 0.5531 0.5834
C7 C 0.3640(3) 0.53529(14) 0.7231(3)
O4 O 0.1712(3) 0.56137(14) 0.9622(2)
C8 C 0.2902(4) 0.32825(17) 0.5982(3)
C9 C 0.1499(4) 0.60642(16) 0.8801(3)
C10 C 0.2198(4) 0.45192(16) 0.5836(3)
H4 H 0.1411 0.4416 0.5164
C11 C 0.4276(4) 0.41722(17) 0.7419(3)
H5 H 0.4896 0.3830 0.7826
O5 O 0.3650(4) 0.28208(13) 0.6502(3)
C12 C 0.4711(4) 0.64579(17) 0.6441(3)
H6 H 0.5423 0.6156 0.6065
H7 H 0.5243 0.6850 0.6828
H8 H 0.3956 0.6599 0.5723
C13 C 0.4314(4) 0.63380(17) 0.8990(3)
H9 H 0.5016 0.6718 0.9128
H10 H 0.4398 0.6001 0.9721
C14 C 0.1595(4) 0.83180(16) 0.8044(3)
H11 H 0.1361 0.8630 0.8753
H12 H 0.0723 0.8271 0.7381
H13 H 0.2441 0.8489 0.7595
C15 C -0.1126(5) 0.5823(2) 0.8609(6)
H14 H -0.2066 0.5979 0.8134
H15 H -0.1176 0.5863 0.9585
H16 H -0.0963 0.5355 0.8378
C16 C 0.1617(5) 0.25341(19) 0.4377(5)
H17 H 0.0825 0.2543 0.3631
H18 H 0.1330 0.2232 0.5083
H19 H 0.2547 0.2376 0.4046
loop_
_geom_bond_atom_site_label_1
_geom_bond_atom_site_label_2
_geom_bond_site_symmetry_1
_geom_bond_site_symmetry_2
N1 H1 1_555 1_555
C1 C8 1_555 1_555
O1 C3 1_555 1_555
C2 N1 1_555 1_555
C3 N1 1_555 1_555
C4 H2 1_555 1_555
O2 C9 1_555 1_555
O3 C8 1_555 1_555
C5 C2 1_555 1_555
C6 H3 1_555 1_555
C7 C4 1_555 1_555
O4 C9 1_555 1_555
C8 O5 1_555 1_555
C9 C2 1_555 1_555
C10 C1 1_555 1_555
H4 C10 1_555 1_555
C11 C1 1_555 1_555
H5 C11 1_555 1_555
C12 C5 1_555 1_555
H6 C12 1_555 1_555
H7 C12 1_555 1_555
H8 C12 1_555 1_555
C13 C2 1_555 1_555
H9 C13 1_555 1_555
H10 C13 1_555 1_555
C14 C3 1_555 1_555
H11 C14 1_555 1_555
H12 C14 1_555 1_555
H13 C14 1_555 1_555
C15 O2 1_555 1_555
H14 C15 1_555 1_555
H15 C15 1_555 1_555
H16 C15 1_555 1_555
C16 O3 1_555 1_555
H17 C16 1_555 1_555
H18 C16 1_555 1_555
H19 C16 1_555 1_555
C4 C11 1_555 1_555
C5 C7 1_555 1_555
C5 C13 1_555 1_555
C6 C7 1_555 1_555
C6 C10 1_555 1_555

#END
