
#######################################################################
#
#                 Cambridge Crystallographic Data Centre
#                                CCDC 
#
#######################################################################
#
# If this CIF has been generated from an entry in the Cambridge 
# Structural Database, then it will include bibliographic, chemical, 
# crystal, experimental, refinement or atomic coordinate data resulting 
# from the CCDC's data processing and validation procedures.
#
#######################################################################

data_EJAYAR
_chemical_formula_moiety         'C15 H34 N4 P1 1+,C2 F6 N1 O4 S2 1-'
_chemical_name_systematic        
'2,8,9-Tri-isopropyl-2,8,9-triaza-5-azonia-1\l^5^-phosphatricyclo[3.3.3.0^1,5^]undecane bis(trifluoromethylsulfonyl)amide'
_symmetry_cell_setting           monoclinic
_symmetry_space_group_name_H-M   'P 21/c'
_symmetry_Int_Tables_number      14
_space_group_name_Hall           '-P 2ybc'
loop_
_symmetry_equiv_pos_site_id
_symmetry_equiv_pos_as_xyz
1 x,y,z
2 -x,1/2+y,1/2-z
3 -x,-y,-z
4 x,1/2-y,1/2+z
_cell_length_a                   15.172(5)
_cell_length_b                   10.334(5)
_cell_length_c                   16.545(5)
_cell_angle_alpha                90
_cell_angle_beta                 92.731(5)
_cell_angle_gamma                90
_cell_volume                     2591.1
_exptl_crystal_colour            colorless
_exptl_crystal_description       prism
_cell_formula_units_Z            4
loop_
_atom_site_label
_atom_site_type_symbol
_atom_site_fract_x
_atom_site_fract_y
_atom_site_fract_z
P1 P 0.24621(8) 0.19789(11) 0.74830(7)
H1 H 0.254(4) 0.292(6) 0.697(3)
N1 N 0.1574(3) 0.1292(4) 0.7013(3)
C1 C 0.1191(3) 0.0133(5) 0.7346(3)
H2 H 0.0968 -0.0433 0.6916
H3 H 0.0709 0.0355 0.7685
C2 C 0.1928(3) -0.0526(5) 0.7843(3)
H4 H 0.1687 -0.1111 0.8234
H5 H 0.2302 -0.1016 0.7495
N2 N 0.2440(3) 0.0523(4) 0.8261(3)
C3 C 0.2001(4) 0.1011(5) 0.8987(3)
H6 H 0.2172 0.0500 0.9460
H7 H 0.1364 0.0979 0.8903
C4 C 0.2317(4) 0.2406(5) 0.9090(3)
H8 H 0.1922 0.2891 0.9419
H9 H 0.2905 0.2431 0.9346
N3 N 0.2320(3) 0.2941(4) 0.8281(2)
C5 C 0.2451(3) 0.4359(5) 0.8213(3)
H10 H 0.2429 0.4572 0.7635
C6 C 0.1706(4) 0.5083(6) 0.8586(4)
H11 H 0.1757 0.5990 0.8471
H12 H 0.1737 0.4952 0.9161
H13 H 0.1151 0.4767 0.8363
C7 C 0.3345(4) 0.4779(6) 0.8563(4)
H14 H 0.3798 0.4288 0.8317
H15 H 0.3375 0.4632 0.9137
H16 H 0.3428 0.5683 0.8457
C8 C 0.3372(3) 0.0149(5) 0.8458(4)
H17 H 0.3407 -0.0739 0.8647
H18 H 0.3634 0.0710 0.8874
C9 C 0.3833(3) 0.0300(5) 0.7679(4)
H19 H 0.4465 0.0387 0.7785
H20 H 0.3724 -0.0446 0.7333
N4 N 0.3469(3) 0.1473(4) 0.7294(3)
C10 C 0.3928(3) 0.1963(5) 0.6586(3)
H21 H 0.3580 0.2687 0.6360
C11 C 0.4834(3) 0.2486(6) 0.6841(3)
H22 H 0.5086 0.2906 0.6389
H23 H 0.5208 0.1785 0.7023
H24 H 0.4780 0.3097 0.7273
C12 C 0.3976(4) 0.0943(6) 0.5927(4)
H25 H 0.3397 0.0602 0.5802
H26 H 0.4360 0.0255 0.6112
H27 H 0.4202 0.1327 0.5451
C13 C 0.1013(3) 0.2026(5) 0.6424(3)
H28 H 0.1385 0.2700 0.6199
C14 C 0.0262(4) 0.2708(6) 0.6820(4)
H29 H -0.0082 0.3183 0.6418
H30 H 0.0497 0.3293 0.7226
H31 H -0.0106 0.2079 0.7066
C15 C 0.0671(4) 0.1195(6) 0.5717(3)
H32 H 0.0427 0.1742 0.5295
H33 H 0.0223 0.0621 0.5896
H34 H 0.1149 0.0699 0.5516
S1 S 0.18386(8) 0.71409(13) 0.54448(8)
O1 O 0.1490(3) 0.6968(4) 0.4627(2)
N5 N 0.2615(3) 0.6145(5) 0.5598(3)
S2 S 0.34178(8) 0.63581(13) 0.62303(8)
O2 O 0.3295(3) 0.7329(4) 0.6836(3)
O3 O 0.3775(3) 0.5166(4) 0.6493(3)
C16 C 0.4250(3) 0.7035(5) 0.5585(3)
F1 F 0.3946(2) 0.8040(4) 0.5163(2)
F2 F 0.4951(2) 0.7421(4) 0.6044(2)
F3 F 0.4511(3) 0.6166(4) 0.5066(2)
O4 O 0.1959(3) 0.8413(4) 0.5738(3)
C17 C 0.1038(19) 0.634(3) 0.5983(14)
F4 F 0.0232(19) 0.703(2) 0.5940(16)
F5 F 0.1218(14) 0.6138(16) 0.6782(14)
F6 F 0.126(2) 0.508(3) 0.590(2)
C18? C 0.0970(18) 0.653(3) 0.6105(14)
F7? F 0.1341(12) 0.6577(15) 0.6866(12)
F8? F 0.0301(13) 0.7339(16) 0.6086(11)
F9? F 0.0738(12) 0.5366(17) 0.5915(8)
F10? F 0.092(3) 0.647(5) 0.677(2)
F11? F 0.0762(14) 0.517(2) 0.5646(9)
F12? F 0.025(2) 0.644(4) 0.560(2)
loop_
_geom_bond_atom_site_label_1
_geom_bond_atom_site_label_2
_geom_bond_site_symmetry_1
_geom_bond_site_symmetry_2
P1 H1 1_555 1_555
N1 P1 1_555 1_555
C1 N1 1_555 1_555
H2 C1 1_555 1_555
H3 C1 1_555 1_555
C2 C1 1_555 1_555
H4 C2 1_555 1_555
H5 C2 1_555 1_555
N2 P1 1_555 1_555
C3 N2 1_555 1_555
H6 C3 1_555 1_555
H7 C3 1_555 1_555
C4 C3 1_555 1_555
H8 C4 1_555 1_555
H9 C4 1_555 1_555
N3 P1 1_555 1_555
C5 N3 1_555 1_555
H10 C5 1_555 1_555
C6 C5 1_555 1_555
H11 C6 1_555 1_555
H12 C6 1_555 1_555
H13 C6 1_555 1_555
C7 C5 1_555 1_555
H14 C7 1_555 1_555
H15 C7 1_555 1_555
H16 C7 1_555 1_555
C8 N2 1_555 1_555
H17 C8 1_555 1_555
H18 C8 1_555 1_555
C9 C8 1_555 1_555
H19 C9 1_555 1_555
H20 C9 1_555 1_555
N4 P1 1_555 1_555
C10 N4 1_555 1_555
H21 C10 1_555 1_555
C11 C10 1_555 1_555
H22 C11 1_555 1_555
H23 C11 1_555 1_555
H24 C11 1_555 1_555
C12 C10 1_555 1_555
H25 C12 1_555 1_555
H26 C12 1_555 1_555
H27 C12 1_555 1_555
C13 N1 1_555 1_555
H28 C13 1_555 1_555
C14 C13 1_555 1_555
H29 C14 1_555 1_555
H30 C14 1_555 1_555
H31 C14 1_555 1_555
C15 C13 1_555 1_555
H32 C15 1_555 1_555
H33 C15 1_555 1_555
H34 C15 1_555 1_555
S1 O1 1_555 1_555
N5 S1 1_555 1_555
S2 N5 1_555 1_555
O2 S2 1_555 1_555
O3 S2 1_555 1_555
C16 S2 1_555 1_555
F1 C16 1_555 1_555
F2 C16 1_555 1_555
F3 C16 1_555 1_555
O4 S1 1_555 1_555
C17 S1 1_555 1_555
F4 C17 1_555 1_555
F5 C17 1_555 1_555
F6 C17 1_555 1_555
C2 N2 1_555 1_555
C4 N3 1_555 1_555
C9 N4 1_555 1_555

#END
