
#######################################################################
#
#                 Cambridge Crystallographic Data Centre
#                                CCDC 
#
#######################################################################
#
# If this CIF has been generated from an entry in the Cambridge 
# Structural Database, then it will include bibliographic, chemical, 
# crystal, experimental, refinement or atomic coordinate data resulting 
# from the CCDC's data processing and validation procedures.
#
#######################################################################

data_EJEBAY
_chemical_compound_source        'fungus Aspergillus terreus'
_chemical_name_common            'Penilumamide E'
_chemical_formula_moiety         'C20 H20 N6 O7'
_chemical_name_systematic        
'Methyl 2-((N-((1-methyl-2,4-dioxo-1,2,3,4-tetrahydropteridin-6-yl)carbonyl)threonyl)amino)benzoate'
_symmetry_cell_setting           monoclinic
_symmetry_space_group_name_H-M   'P 21'
_symmetry_Int_Tables_number      4
_space_group_name_Hall           'P 2yb'
loop_
_symmetry_equiv_pos_site_id
_symmetry_equiv_pos_as_xyz
1 x,y,z
2 -x,1/2+y,-z
_cell_length_a                   9.5671(4)
_cell_length_b                   6.7995(3)
_cell_length_c                   16.5142(6)
_cell_angle_alpha                90
_cell_angle_beta                 103.8450(10)
_cell_angle_gamma                90
_cell_volume                     1043.06
_exptl_crystal_colour            colorless
_exptl_crystal_description       block
_cell_formula_units_Z            2
loop_
_atom_site_label
_atom_site_type_symbol
_atom_site_fract_x
_atom_site_fract_y
_atom_site_fract_z
N1 N 1.0904(2) 0.5483(4) 0.62946(14)
N2 N 0.5261(2) 0.4901(4) 0.34475(14)
H1 H 0.6012 0.5084 0.3257
N3 N 0.3027(2) 0.3138(4) 0.15083(13)
H2 H 0.2286 0.2960 0.1708
C1 C 1.2107(3) 0.5351(5) 0.59717(18)
C2 C 0.3890(3) 0.4568(5) 0.28636(16)
H3 H 0.3387 0.3516 0.3085
C3 C 0.2847(3) 0.2643(4) 0.06614(16)
O1 O 1.3316(2) 0.5361(5) 0.64000(15)
C4 C 0.4205(3) 0.3852(5) 0.20482(17)
C5 C 0.1446(3) 0.2330(4) 0.01701(17)
N4 N 1.1847(2) 0.5239(4) 0.51128(15)
H4 H 1.2596 0.5157 0.4912
O2 O 0.5397(2) 0.4017(4) 0.19185(13)
C6 C 1.0550(3) 0.5242(5) 0.45409(17)
C7 C 0.2943(3) 0.6426(5) 0.27574(18)
H5 H 0.2956 0.6948 0.3312
C8 C 0.1243(3) 0.2018(5) -0.06873(19)
H6 H 0.0317 0.1848 -0.1018
C9 C 0.9310(2) 0.5265(4) 0.49253(15)
O3 O 1.0451(2) 0.5202(4) 0.37984(13)
O4 O 0.1500(2) 0.5906(4) 0.23601(12)
H7 H 0.1062 0.5627 0.2715
C10 C 0.3426(4) 0.8024(6) 0.2257(2)
H8 H 0.3303 0.7594 0.1691
H9 H 0.4422 0.8315 0.2491
H10 H 0.2860 0.9185 0.2269
C11 C 0.2400(3) 0.1959(6) -0.10482(18)
H11 H 0.2260 0.1747 -0.1618
N5 N 0.7990(2) 0.5152(3) 0.44259(13)
C12 C 0.6896(3) 0.5149(4) 0.47901(15)
C13 C 0.3765(3) 0.2216(6) -0.05559(19)
H12 H 0.4546 0.2158 -0.0799
C14 C 0.7126(3) 0.5316(5) 0.56544(17)
H13 H 0.6331 0.5334 0.5886
C15 C 0.4006(3) 0.2555(5) 0.02843(19)
H14 H 0.4941 0.2726 0.0603
C16 C 0.0197(3) 0.2266(5) 0.05479(18)
C17 C 0.9531(3) 0.5399(4) 0.57914(16)
N6 N 0.8427(2) 0.5449(4) 0.61606(13)
O5 O 0.0252(2) 0.2204(5) 0.12853(14)
C18 C 1.1123(4) 0.5732(9) 0.72046(19)
H15 H 1.0566 0.6830 0.7316
H16 H 1.2124 0.5965 0.7450
H17 H 1.0820 0.4561 0.7439
C19 C -0.2330(3) 0.2204(6) 0.0292(3)
H18 H -0.2499 0.0874 0.0438
H19 H -0.3137 0.2662 -0.0130
H20 H -0.2206 0.3026 0.0777
O6 O -0.1056(2) 0.2279(4) -0.00205(13)
C20 C 0.5397(3) 0.4933(4) 0.42635(16)
O7 O 0.43915(19) 0.4751(4) 0.45978(12)
loop_
_geom_bond_atom_site_label_1
_geom_bond_atom_site_label_2
_geom_bond_site_symmetry_1
_geom_bond_site_symmetry_2
N1 C1 1_555 1_555
N2 H1 1_555 1_555
N3 H2 1_555 1_555
C1 O1 1_555 1_555
C2 N2 1_555 1_555
H3 C2 1_555 1_555
C3 N3 1_555 1_555
C4 N3 1_555 1_555
C5 C3 1_555 1_555
N4 C1 1_555 1_555
H4 N4 1_555 1_555
O2 C4 1_555 1_555
C6 N4 1_555 1_555
C7 C2 1_555 1_555
H5 C7 1_555 1_555
C8 C5 1_555 1_555
H6 C8 1_555 1_555
C9 C6 1_555 1_555
O3 C6 1_555 1_555
O4 C7 1_555 1_555
H7 O4 1_555 1_555
C10 C7 1_555 1_555
H8 C10 1_555 1_555
H9 C10 1_555 1_555
H10 C10 1_555 1_555
C11 C8 1_555 1_555
H11 C11 1_555 1_555
N5 C9 1_555 1_555
C12 N5 1_555 1_555
C13 C11 1_555 1_555
H12 C13 1_555 1_555
C14 C12 1_555 1_555
H13 C14 1_555 1_555
C15 C3 1_555 1_555
H14 C15 1_555 1_555
C16 C5 1_555 1_555
C17 N1 1_555 1_555
N6 C14 1_555 1_555
O5 C16 1_555 1_555
C18 N1 1_555 1_555
H15 C18 1_555 1_555
H16 C18 1_555 1_555
H17 C18 1_555 1_555
C19 H18 1_555 1_555
H19 C19 1_555 1_555
H20 C19 1_555 1_555
O6 C16 1_555 1_555
C20 N2 1_555 1_555
O7 C20 1_555 1_555
C2 C4 1_555 1_555
C9 C17 1_555 1_555
C12 C20 1_555 1_555
C13 C15 1_555 1_555
C17 N6 1_555 1_555
C19 O6 1_555 1_555

#END
