
#######################################################################
#
#                 Cambridge Crystallographic Data Centre
#                                CCDC 
#
#######################################################################
#
# If this CIF has been generated from an entry in the Cambridge 
# Structural Database, then it will include bibliographic, chemical, 
# crystal, experimental, refinement or atomic coordinate data resulting 
# from the CCDC's data processing and validation procedures.
#
#######################################################################

data_EJEGEF
_chemical_formula_moiety         'C18 H20 O5'
_chemical_name_systematic        
(E)-1-(2-Hydroxy-4-methoxyphenyl)-2-(3,4,5-trimethoxyphenyl)ethene
_symmetry_cell_setting           monoclinic
_symmetry_space_group_name_H-M   'P 21/n'
_symmetry_Int_Tables_number      14
_space_group_name_Hall           '-P 2yn'
loop_
_symmetry_equiv_pos_site_id
_symmetry_equiv_pos_as_xyz
1 x,y,z
2 1/2-x,1/2+y,1/2-z
3 -x,-y,-z
4 1/2+x,1/2-y,1/2+z
_cell_length_a                   11.6693(15)
_cell_length_b                   7.9790(8)
_cell_length_c                   17.5818(13)
_cell_angle_alpha                90
_cell_angle_beta                 90.673(9)
_cell_angle_gamma                90
_cell_volume                     1636.92
_exptl_crystal_colour            colorless
_exptl_crystal_description       block
_cell_formula_units_Z            4
_exptl_crystal_recrystallization_method methanol
loop_
_atom_site_label
_atom_site_type_symbol
_atom_site_fract_x
_atom_site_fract_y
_atom_site_fract_z
O1 O -0.01721(11) -0.27129(17) -0.20934(7)
H1 H -0.076(2) -0.312(3) -0.2367(13)
O2 O 0.10768(11) -0.07871(16) -0.44871(7)
O3 O 0.08719(10) -0.26337(16) 0.15941(7)
O4 O 0.27702(9) -0.14811(14) 0.22835(6)
O5 O 0.41793(9) 0.05986(14) 0.16041(6)
C1 C 0.13402(13) -0.0753(2) -0.21153(9)
C2 C 0.05354(13) -0.1737(2) -0.25163(9)
C3 C 0.04788(13) -0.1716(2) -0.33008(9)
H2 H -0.0062 -0.2371 -0.3555
C4 C 0.12232(13) -0.0723(2) -0.37109(9)
C5 C 0.20393(14) 0.0245(2) -0.33347(10)
H3 H 0.2550 0.0901 -0.3607
C6 C 0.20797(14) 0.0217(2) -0.25498(10)
H4 H 0.2624 0.0874 -0.2300
C7 C 0.13840(14) -0.0842(2) -0.12881(10)
H5 H 0.0869 -0.1576 -0.1064
C8 C 0.20736(13) 0.0001(2) -0.08117(9)
H6 H 0.2541 0.0819 -0.1021
C9 C 0.21574(13) -0.0253(2) 0.00132(9)
C10 C 0.13741(14) -0.1251(2) 0.04066(10)
H7 H 0.0726 -0.1659 0.0156
C11 C 0.15574(13) -0.1633(2) 0.11647(10)
C12 C 0.25160(13) -0.0991(2) 0.15493(9)
C13 C 0.32740(13) 0.00532(19) 0.11699(9)
C14 C 0.30978(13) 0.0426(2) 0.04074(9)
H8 H 0.3605 0.1128 0.0157
C15 C 0.17861(18) 0.0273(3) -0.49368(11)
H9 H 0.1602 0.0113 -0.5466
H10 H 0.2576 -0.0005 -0.4846
H11 H 0.1656 0.1422 -0.4801
C16 C -0.00427(16) -0.3492(2) 0.12219(12)
H12 H -0.0455 -0.4146 0.1587
H13 H 0.0261 -0.4218 0.0838
H14 H -0.0552 -0.2693 0.0989
C17 C 0.20878(16) -0.0721(2) 0.28674(10)
H15 H 0.2327 -0.1139 0.3356
H16 H 0.1295 -0.0990 0.2781
H17 H 0.2186 0.0473 0.2854
C18 C 0.50324(14) 0.1574(2) 0.12366(11)
H18 H 0.5618 0.1879 0.1599
H19 H 0.4689 0.2570 0.1029
H20 H 0.5366 0.0931 0.0834
loop_
_geom_bond_atom_site_label_1
_geom_bond_atom_site_label_2
_geom_bond_site_symmetry_1
_geom_bond_site_symmetry_2
O1 H1 1_555 1_555
O2 C4 1_555 1_555
O3 C11 1_555 1_555
O4 C12 1_555 1_555
O5 C13 1_555 1_555
C1 C2 1_555 1_555
C2 O1 1_555 1_555
C3 C2 1_555 1_555
H2 C3 1_555 1_555
C4 C3 1_555 1_555
C5 C4 1_555 1_555
H3 C5 1_555 1_555
C6 C1 1_555 1_555
H4 C6 1_555 1_555
C7 C1 1_555 1_555
H5 C7 1_555 1_555
C8 C7 1_555 1_555
H6 C8 1_555 1_555
C9 C8 1_555 1_555
C10 C9 1_555 1_555
H7 C10 1_555 1_555
C11 C10 1_555 1_555
C12 C11 1_555 1_555
C13 C12 1_555 1_555
C14 C9 1_555 1_555
H8 C14 1_555 1_555
C15 O2 1_555 1_555
H9 C15 1_555 1_555
H10 C15 1_555 1_555
H11 C15 1_555 1_555
C16 O3 1_555 1_555
H12 C16 1_555 1_555
H13 C16 1_555 1_555
H14 C16 1_555 1_555
C17 O4 1_555 1_555
H15 C17 1_555 1_555
H16 C17 1_555 1_555
H17 C17 1_555 1_555
C18 O5 1_555 1_555
H18 C18 1_555 1_555
H19 C18 1_555 1_555
H20 C18 1_555 1_555
C5 C6 1_555 1_555
C13 C14 1_555 1_555

#END
