
#######################################################################
#
#                 Cambridge Crystallographic Data Centre
#                                CCDC 
#
#######################################################################
#
# If this CIF has been generated from an entry in the Cambridge 
# Structural Database, then it will include bibliographic, chemical, 
# crystal, experimental, refinement or atomic coordinate data resulting 
# from the CCDC's data processing and validation procedures.
#
#######################################################################

data_EJEGOR
_chemical_formula_moiety         'C32 H24 Cl2 N2,C1 H1 Cl3'
_chemical_name_systematic        
"12,13-dichloro-4b,8b,16b,16d-tetramethyl-4b,8b,16b,16d-tetrahydrobenzo[5,6]indeno[1',2',3':3,4]pentaleno[1,2-b]phenazine chloroform solvate"
_symmetry_cell_setting           triclinic
_symmetry_space_group_name_H-M   'P -1'
_symmetry_Int_Tables_number      2
_space_group_name_Hall           '-P 1'
loop_
_symmetry_equiv_pos_site_id
_symmetry_equiv_pos_as_xyz
1 x,y,z
2 -x,-y,-z
_cell_length_a                   10.5292(8)
_cell_length_b                   11.7378(10)
_cell_length_c                   25.986(2)
_cell_angle_alpha                81.345(7)
_cell_angle_beta                 85.620(6)
_cell_angle_gamma                68.070(7)
_cell_volume                     2944.57
_exptl_crystal_colour            'light yellow'
_exptl_crystal_description       block
_cell_formula_units_Z            4
loop_
_atom_site_label
_atom_site_type_symbol
_atom_site_fract_x
_atom_site_fract_y
_atom_site_fract_z
Cl1 Cl 0.98464(17) 0.86765(14) -0.50670(6)
Cl2 Cl 0.6866(2) 0.92525(15) -0.54294(7)
N1 N 0.9848(4) 0.4571(4) -0.41288(15)
N2 N 0.7161(4) 0.5094(3) -0.44772(15)
C1 C 0.5416(7) 0.1040(6) -0.2357(3)
H1 H 0.5610 0.0689 -0.2013
C2 C 0.4085(7) 0.1819(7) -0.2491(3)
H2 H 0.3384 0.1986 -0.2240
C3 C 0.3830(6) 0.2333(6) -0.3000(3)
H3 H 0.2944 0.2852 -0.3093
C4 C 0.4858(5) 0.2097(5) -0.3378(2)
H4 H 0.4665 0.2451 -0.3722
C5 C 0.6189(5) 0.1322(5) -0.3239(2)
C6 C 0.6456(5) 0.0785(5) -0.2735(2)
C7 C 0.7935(6) -0.0064(5) -0.2660(2)
C8 C 0.8689(6) 0.0455(5) -0.2344(2)
C9 C 0.8486(8) 0.0619(6) -0.1821(2)
H5 H 0.7830 0.0384 -0.1622
C10 C 0.9258(9) 0.1130(8) -0.1598(3)
H6 H 0.9097 0.1270 -0.1252
C11 C 1.0286(9) 0.1440(7) -0.1891(3)
H7 H 1.0840 0.1741 -0.1734
C12 C 1.0473(7) 0.1299(6) -0.2408(3)
H8 H 1.1123 0.1544 -0.2606
C13 C 0.9690(6) 0.0790(5) -0.2638(2)
C14 C 0.9736(5) 0.0580(4) -0.32026(19)
C15 C 0.8605(5) -0.0008(4) -0.32257(19)
C16 C 0.7444(5) 0.0962(4) -0.35901(19)
C17 C 0.7905(4) 0.2052(4) -0.37499(17)
C18 C 0.9226(4) 0.1809(4) -0.35543(18)
C19 C 0.9859(5) 0.2631(4) -0.36821(19)
H9 H 1.0726 0.2451 -0.3556
C20 C 0.9213(5) 0.3765(4) -0.40059(18)
C21 C 0.7856(4) 0.4027(4) -0.41855(17)
C22 C 0.7235(5) 0.3122(4) -0.40528(18)
H10 H 0.6372 0.3271 -0.4175
C23 C 0.8015(7) -0.1350(6) -0.2392(3)
H11 H 0.7641 -0.1284 -0.2044
H12 H 0.8954 -0.1907 -0.2379
H13 H 0.7501 -0.1661 -0.2585
C24 C 0.9211(6) -0.1287(5) -0.3419(3)
H14 H 0.9949 -0.1828 -0.3199
H15 H 0.9550 -0.1197 -0.3770
H16 H 0.8513 -0.1632 -0.3407
C25 C 1.1185(5) -0.0181(5) -0.3364(3)
H17 H 1.1782 0.0246 -0.3321
H18 H 1.1205 -0.0299 -0.3723
H19 H 1.1487 -0.0972 -0.3151
C26 C 0.7164(6) 0.0535(5) -0.4092(2)
H20 H 0.6861 -0.0147 -0.4000
H21 H 0.7990 0.0279 -0.4301
H22 H 0.6467 0.1209 -0.4287
C27 C 0.9143(5) 0.5634(5) -0.44334(19)
C28 C 0.9756(5) 0.6540(5) -0.4585(2)
H23 H 1.0633 0.6389 -0.4477
C29 C 0.9068(6) 0.7612(5) -0.4884(2)
C30 C 0.7732(6) 0.7867(5) -0.5051(2)
C31 C 0.7111(6) 0.7037(5) -0.49173(19)
H24 H 0.6232 0.7213 -0.5030
C32 C 0.7807(5) 0.5892(4) -0.46019(18)
Cl3 Cl 0.59618(19) 0.30239(15) 0.01510(6)
Cl4 Cl 0.3169(2) 0.43946(14) -0.04166(7)
N3 N 0.6443(4) -0.0781(4) -0.06554(15)
N4 N 0.3869(4) 0.0439(4) -0.11347(16)
C33 C 0.8304(5) -0.4911(4) -0.2271(2)
C34 C 0.9506(6) -0.5153(5) -0.2577(2)
H25 H 0.9506 -0.5294 -0.2920
C35 C 1.0676(7) -0.5181(6) -0.2373(3)
H26 H 1.1466 -0.5316 -0.2581
C36 C 1.0689(7) -0.5008(6) -0.1860(3)
H27 H 1.1497 -0.5049 -0.1723
C37 C 0.9552(6) -0.4781(6) -0.1554(3)
H28 H 0.9574 -0.4657 -0.1210
C38 C 0.8337(5) -0.4734(4) -0.1759(2)
C39 C 0.6965(5) -0.4498(4) -0.14806(18)
C40 C 0.6292(5) -0.3160(4) -0.13652(17)
C41 C 0.5043(5) -0.2527(4) -0.16252(17)
C42 C 0.4827(5) -0.3270(5) -0.20131(19)
C43 C 0.5171(5) -0.2785(4) -0.25542(17)
C44 C 0.6264(5) -0.3642(4) -0.27822(18)
C45 C 0.6905(5) -0.4826(5) -0.24248(19)
C46 C 0.6023(5) -0.4614(5) -0.19026(19)
C47 C 0.4512(5) -0.1613(5) -0.2821(2)
H29 H 0.3791 -0.1030 -0.2661
C48 C 0.4933(6) -0.1310(5) -0.3326(2)
H30 H 0.4506 -0.0521 -0.3503
C49 C 0.5995(6) -0.2193(5) -0.3564(2)
H31 H 0.6254 -0.2008 -0.3906
C50 C 0.6660(6) -0.3337(5) -0.3294(2)
H32 H 0.7384 -0.3918 -0.3453
C51 C 0.6992(7) -0.5963(5) -0.2677(2)
H33 H 0.7561 -0.6015 -0.2986
H34 H 0.6091 -0.5880 -0.2765
H35 H 0.7379 -0.6701 -0.2435
C52 C 0.7104(7) -0.5367(5) -0.0967(2)
H36 H 0.7462 -0.6211 -0.1037
H37 H 0.6221 -0.5191 -0.0798
H38 H 0.7716 -0.5242 -0.0745
C53 C 0.3349(6) -0.3241(6) -0.1983(2)
H39 H 0.3184 -0.3648 -0.1650
H40 H 0.3222 -0.3661 -0.2253
H41 H 0.2719 -0.2397 -0.2026
C54 C 0.5444(7) -0.5627(6) -0.1718(3)
H42 H 0.6182 -0.6415 -0.1663
H43 H 0.4851 -0.5644 -0.1977
H44 H 0.4934 -0.5457 -0.1398
C55 C 0.6749(5) -0.2608(5) -0.10352(18)
H45 H 0.7568 -0.3039 -0.0863
C56 C 0.5953(5) -0.1357(4) -0.09555(17)
C57 C 0.4656(5) -0.0739(4) -0.11951(18)
C58 C 0.4212(5) -0.1361(5) -0.15338(19)
H46 H 0.3365 -0.0976 -0.1691
C59 C 0.5673(5) 0.0393(4) -0.05997(18)
C60 C 0.6141(6) 0.1060(5) -0.0288(2)
H47 H 0.6974 0.0667 -0.0121
C61 C 0.5390(6) 0.2247(5) -0.0233(2)
C62 C 0.4109(6) 0.2862(5) -0.0479(2)
C63 C 0.3606(6) 0.2266(5) -0.0771(2)
H48 H 0.2763 0.2679 -0.0928
C64 C 0.4370(5) 0.1012(5) -0.08365(18)
Cl5 Cl 0.3139(3) -0.3841(3) -0.34431(10)
Cl6 Cl 0.3302(3) -0.2345(2) -0.43780(11)
Cl7 Cl 0.3589(2) -0.4823(2) -0.44136(12)
C65 C 0.3867(7) -0.3853(6) -0.4051(3)
H49 H 0.4859 -0.4123 -0.4012
Cl8 Cl 0.9820(3) -0.3600(3) -0.00760(15)
Cl9 Cl 1.0565(6) -0.1959(8) -0.0776(2)
Cl10 Cl 0.9727(5) -0.1477(5) 0.0272(2)
C66 C 0.9592(9) -0.2116(7) -0.0248(5)
H50 H 0.8640 -0.1702 -0.0357
loop_
_geom_bond_atom_site_label_1
_geom_bond_atom_site_label_2
_geom_bond_site_symmetry_1
_geom_bond_site_symmetry_2
Cl1 C29 1_555 1_555
Cl2 C30 1_555 1_555
N1 C20 1_555 1_555
N2 C21 1_555 1_555
C1 H1 1_555 1_555
C2 C1 1_555 1_555
H2 C2 1_555 1_555
C3 C2 1_555 1_555
H3 C3 1_555 1_555
C4 C3 1_555 1_555
H4 C4 1_555 1_555
C5 C4 1_555 1_555
C6 C1 1_555 1_555
C7 C6 1_555 1_555
C8 C7 1_555 1_555
C9 C8 1_555 1_555
H5 C9 1_555 1_555
C10 C9 1_555 1_555
H6 C10 1_555 1_555
C11 C10 1_555 1_555
H7 C11 1_555 1_555
C12 C11 1_555 1_555
H8 C12 1_555 1_555
C13 C8 1_555 1_555
C14 C13 1_555 1_555
C15 C7 1_555 1_555
C16 C5 1_555 1_555
C17 C16 1_555 1_555
C18 C14 1_555 1_555
C19 C18 1_555 1_555
H9 C19 1_555 1_555
C20 C19 1_555 1_555
C21 C20 1_555 1_555
C22 C17 1_555 1_555
H10 C22 1_555 1_555
C23 C7 1_555 1_555
H11 C23 1_555 1_555
H12 C23 1_555 1_555
H13 C23 1_555 1_555
C24 C15 1_555 1_555
H14 C24 1_555 1_555
H15 C24 1_555 1_555
H16 C24 1_555 1_555
C25 C14 1_555 1_555
H17 C25 1_555 1_555
H18 C25 1_555 1_555
H19 C25 1_555 1_555
C26 C16 1_555 1_555
H20 C26 1_555 1_555
H21 C26 1_555 1_555
H22 C26 1_555 1_555
C27 N1 1_555 1_555
C28 C27 1_555 1_555
H23 C28 1_555 1_555
C29 C28 1_555 1_555
C30 C29 1_555 1_555
C31 C30 1_555 1_555
H24 C31 1_555 1_555
C32 N2 1_555 1_555
Cl3 C61 1_555 1_555
Cl4 C62 1_555 1_555
N3 C56 1_555 1_555
N4 C57 1_555 1_555
C33 C34 1_555 1_555
C34 H25 1_555 1_555
C35 C34 1_555 1_555
H26 C35 1_555 1_555
C36 C35 1_555 1_555
H27 C36 1_555 1_555
C37 C36 1_555 1_555
H28 C37 1_555 1_555
C38 C33 1_555 1_555
C39 C38 1_555 1_555
C40 C39 1_555 1_555
C41 C40 1_555 1_555
C42 C41 1_555 1_555
C43 C42 1_555 1_555
C44 C43 1_555 1_555
C45 C33 1_555 1_555
C46 C39 1_555 1_555
C47 C43 1_555 1_555
H29 C47 1_555 1_555
C48 C47 1_555 1_555
H30 C48 1_555 1_555
C49 C48 1_555 1_555
H31 C49 1_555 1_555
C50 C44 1_555 1_555
H32 C50 1_555 1_555
C51 C45 1_555 1_555
H33 C51 1_555 1_555
H34 C51 1_555 1_555
H35 C51 1_555 1_555
C52 C39 1_555 1_555
H36 C52 1_555 1_555
H37 C52 1_555 1_555
H38 C52 1_555 1_555
C53 C42 1_555 1_555
H39 C53 1_555 1_555
H40 C53 1_555 1_555
H41 C53 1_555 1_555
C54 C46 1_555 1_555
H42 C54 1_555 1_555
H43 C54 1_555 1_555
H44 C54 1_555 1_555
C55 C40 1_555 1_555
H45 C55 1_555 1_555
C56 C55 1_555 1_555
C57 C56 1_555 1_555
C58 C41 1_555 1_555
H46 C58 1_555 1_555
C59 N3 1_555 1_555
C60 C59 1_555 1_555
H47 C60 1_555 1_555
C61 C60 1_555 1_555
C62 C61 1_555 1_555
C63 C62 1_555 1_555
H48 C63 1_555 1_555
C64 N4 1_555 1_555
Cl5 C65 1_555 1_555
Cl6 C65 1_555 1_555
Cl7 C65 1_555 1_555
C65 H49 1_555 1_555
Cl8 C66 1_555 1_555
Cl9 C66 1_555 1_555
Cl10 C66 1_555 1_555
C66 H50 1_555 1_555
C5 C6 1_555 1_555
C12 C13 1_555 1_555
C14 C15 1_555 1_555
C15 C16 1_555 1_555
C17 C18 1_555 1_555
C21 C22 1_555 1_555
C27 C32 1_555 1_555
C31 C32 1_555 1_555
C37 C38 1_555 1_555
C42 C46 1_555 1_555
C44 C45 1_555 1_555
C45 C46 1_555 1_555
C49 C50 1_555 1_555
C57 C58 1_555 1_555
C59 C64 1_555 1_555
C63 C64 1_555 1_555

#END
