
#######################################################################
#
#                 Cambridge Crystallographic Data Centre
#                                CCDC 
#
#######################################################################
#
# If this CIF has been generated from an entry in the Cambridge 
# Structural Database, then it will include bibliographic, chemical, 
# crystal, experimental, refinement or atomic coordinate data resulting 
# from the CCDC's data processing and validation procedures.
#
#######################################################################

data_EJEGIL
_chemical_formula_moiety         'C32 H24 F2 N2'
_chemical_name_systematic        
12,13-difluoro-4b,8b,16b,16d-tetramethyl-4b,8b,16b,16d-tetrahydrobenzo[5,6]indeno[1',2',3':3,4]pentaleno[1,2-b]phenazine
_symmetry_cell_setting           monoclinic
_symmetry_space_group_name_H-M   'P 21/c'
_symmetry_Int_Tables_number      14
_space_group_name_Hall           '-P 2ybc'
loop_
_symmetry_equiv_pos_site_id
_symmetry_equiv_pos_as_xyz
1 x,y,z
2 -x,1/2+y,1/2-z
3 -x,-y,-z
4 x,1/2-y,1/2+z
_cell_length_a                   10.2489(5)
_cell_length_b                   17.7216(10)
_cell_length_c                   13.0766(6)
_cell_angle_alpha                90
_cell_angle_beta                 90.552(5)
_cell_angle_gamma                90
_cell_volume                     2374.95
_exptl_crystal_colour            'light orange'
_exptl_crystal_description       block
_cell_formula_units_Z            4
loop_
_atom_site_label
_atom_site_type_symbol
_atom_site_fract_x
_atom_site_fract_y
_atom_site_fract_z
F1 F 0.53632(13) 0.60041(8) 0.15108(9)
F2 F 0.31692(12) 0.52577(9) 0.18437(10)
N1 N 0.74598(12) 0.47849(8) 0.42898(10)
N2 N 0.51180(13) 0.39670(8) 0.46241(10)
C1 C 0.73844(15) 0.42544(9) 0.50217(11)
C2 C 0.62005(14) 0.38393(9) 0.51877(11)
C3 C 0.84649(15) 0.35058(9) 0.63195(11)
C4 C 0.72958(15) 0.30872(9) 0.64674(11)
C5 C 0.52081(15) 0.44813(9) 0.38813(12)
C6 C 1.06647(15) 0.28726(9) 0.64026(12)
C7 C 0.63851(15) 0.48928(9) 0.37123(11)
C8 C 0.85078(15) 0.40842(9) 0.56325(12)
C9 C 1.07581(16) 0.20996(10) 0.65503(12)
C10 C 0.61829(15) 0.32616(9) 0.59412(12)
C11 C 0.95634(15) 0.32212(9) 0.70097(11)
C12 C 0.74893(16) 0.24472(9) 0.72173(12)
C13 C 0.97099(16) 0.17992(9) 0.72458(12)
C14 C 0.74889(17) 0.17049(10) 0.66362(13)
C15 C 0.86933(17) 0.13594(9) 0.66409(12)
C16 C 0.53533(18) 0.55224(11) 0.23060(13)
C17 C 0.89529(16) 0.25310(9) 0.76178(11)
C18 C 1.15398(17) 0.32391(11) 0.57641(13)
C19 C 0.41923(18) 0.51160(11) 0.24740(13)
C20 C 0.40953(16) 0.46122(11) 0.32393(13)
C21 C 0.64182(17) 0.54284(11) 0.28991(13)
C22 C 1.00724(19) 0.38823(11) 0.76655(15)
C23 C 0.8874(2) 0.06796(12) 0.61233(16)
C24 C 0.6443(2) 0.13734(12) 0.61136(18)
C25 C 0.6431(2) 0.24504(14) 0.80334(17)
C26 C 1.0301(2) 0.12928(12) 0.80862(15)
C27 C 0.6630(3) 0.07007(14) 0.55981(18)
C28 C 1.25050(18) 0.28247(14) 0.52801(16)
C29 C 1.1733(2) 0.16875(12) 0.60712(17)
C30 C 0.9041(2) 0.26370(12) 0.87798(13)
C31 C 1.2598(2) 0.20526(14) 0.54324(18)
C32 C 0.7832(3) 0.03578(13) 0.56023(18)
H1 H 0.537(2) 0.2973(11) 0.6019(15)
H2 H 0.853(2) 0.3085(12) 0.9003(15)
H3 H 0.721(2) 0.5699(14) 0.2742(18)
H4 H 0.936(2) 0.4095(12) 0.8074(17)
H5 H 1.041(2) 0.4276(13) 0.7210(17)
H6 H 0.931(2) 0.4383(12) 0.5516(16)
H7 H 1.152(2) 0.3790(13) 0.5650(16)
H8 H 1.076(2) 0.0838(14) 0.7781(18)
H9 H 0.550(3) 0.2385(14) 0.772(2)
H10 H 0.862(2) 0.2193(13) 0.9154(16)
H11 H 1.081(2) 0.3686(15) 0.8132(19)
H12 H 0.331(2) 0.4343(13) 0.3373(17)
H13 H 0.994(2) 0.2700(13) 0.8996(18)
H14 H 0.964(2) 0.1090(14) 0.8557(19)
H15 H 0.557(2) 0.1613(14) 0.6134(18)
H16 H 1.182(2) 0.1137(14) 0.6190(18)
H17 H 1.311(2) 0.3111(15) 0.4836(19)
H18 H 0.647(3) 0.2950(16) 0.845(2)
H19 H 0.655(3) 0.2014(16) 0.854(2)
H20 H 0.977(3) 0.0420(16) 0.613(2)
H21 H 0.587(3) 0.0499(16) 0.524(2)
H22 H 1.326(2) 0.1745(15) 0.5100(19)
H23 H 1.101(2) 0.1607(15) 0.8471(19)
H24 H 0.795(3) -0.0128(17) 0.527(2)
loop_
_geom_bond_atom_site_label_1
_geom_bond_atom_site_label_2
_geom_bond_site_symmetry_1
_geom_bond_site_symmetry_2
F1 C16 1_555 1_555
F2 C19 1_555 1_555
N1 C1 1_555 1_555
N2 C2 1_555 1_555
C1 C2 1_555 1_555
C2 C10 1_555 1_555
C3 C4 1_555 1_555
C4 C10 1_555 1_555
C5 N2 1_555 1_555
C6 C9 1_555 1_555
C7 N1 1_555 1_555
C8 C1 1_555 1_555
C9 C13 1_555 1_555
C10 H1 1_555 1_555
C11 C3 1_555 1_555
C12 C4 1_555 1_555
C13 C15 1_555 1_555
C14 C12 1_555 1_555
C15 C14 1_555 1_555
C16 C19 1_555 1_555
C17 C11 1_555 1_555
C18 C6 1_555 1_555
C19 C20 1_555 1_555
C20 C5 1_555 1_555
C21 C7 1_555 1_555
C22 C11 1_555 1_555
C23 C15 1_555 1_555
C24 C14 1_555 1_555
C25 C12 1_555 1_555
C26 C13 1_555 1_555
C27 C24 1_555 1_555
C28 C18 1_555 1_555
C29 C9 1_555 1_555
C30 C17 1_555 1_555
C31 C28 1_555 1_555
C32 C23 1_555 1_555
H2 C30 1_555 1_555
H3 C21 1_555 1_555
H4 C22 1_555 1_555
H5 C22 1_555 1_555
H6 C8 1_555 1_555
H7 C18 1_555 1_555
H8 C26 1_555 1_555
H9 C25 1_555 1_555
H10 C30 1_555 1_555
H11 C22 1_555 1_555
H12 C20 1_555 1_555
H13 C30 1_555 1_555
H14 C26 1_555 1_555
H15 C24 1_555 1_555
H16 C29 1_555 1_555
H17 C28 1_555 1_555
H18 C25 1_555 1_555
H19 C25 1_555 1_555
H20 C23 1_555 1_555
H21 C27 1_555 1_555
H22 C31 1_555 1_555
H23 C26 1_555 1_555
H24 C32 1_555 1_555
C3 C8 1_555 1_555
C5 C7 1_555 1_555
C6 C11 1_555 1_555
C12 C17 1_555 1_555
C13 C17 1_555 1_555
C16 C21 1_555 1_555
C27 C32 1_555 1_555
C29 C31 1_555 1_555

#END
