
#######################################################################
#
#                 Cambridge Crystallographic Data Centre
#                                CCDC 
#
#######################################################################
#
# If this CIF has been generated from an entry in the Cambridge 
# Structural Database, then it will include bibliographic, chemical, 
# crystal, experimental, refinement or atomic coordinate data resulting 
# from the CCDC's data processing and validation procedures.
#
#######################################################################

data_EJEHAE
_chemical_formula_moiety         'C26 H24 O2,C4 H8 O1'
_chemical_name_systematic        
'4b,8b,12b,12d-tetramethyl-4b,8b,12b,12d-tetrahydrodibenzo[2,3:4,5]pentaleno[1,6-ab]indene-2,3-diol tetrahydrofuran solvate'
_symmetry_cell_setting           monoclinic
_symmetry_space_group_name_H-M   'P 21/c'
_symmetry_Int_Tables_number      14
_space_group_name_Hall           '-P 2ybc'
loop_
_symmetry_equiv_pos_site_id
_symmetry_equiv_pos_as_xyz
1 x,y,z
2 -x,1/2+y,1/2-z
3 -x,-y,-z
4 x,1/2-y,1/2+z
_cell_length_a                   17.9484(5)
_cell_length_b                   8.6969(2)
_cell_length_c                   16.5941(5)
_cell_angle_alpha                90
_cell_angle_beta                 109.720(3)
_cell_angle_gamma                90
_cell_volume                     2438.35
_exptl_crystal_colour            'light yellow'
_exptl_crystal_description       plate
_cell_formula_units_Z            4
loop_
_atom_site_label
_atom_site_type_symbol
_atom_site_fract_x
_atom_site_fract_y
_atom_site_fract_z
O1 O 0.51744(8) 0.1253(2) 0.44193(12)
H1 H 0.4993 0.2069 0.4189
O2 O 0.57701(11) -0.1623(2) 0.44924(14)
H2 H 0.5398 -0.1351 0.4640
C1 C 0.74970(10) 0.0634(2) 0.45395(11)
C2 C 0.72033(10) 0.2107(2) 0.44946(10)
C3 C 0.64226(11) 0.2351(2) 0.44536(12)
H3 H 0.6225 0.3346 0.4426
C4 C 0.59475(11) 0.1112(2) 0.44548(12)
C5 C 0.62425(12) -0.0377(2) 0.44988(13)
C6 C 0.70173(12) -0.0624(2) 0.45447(13)
H4 H 0.7216 -0.1618 0.4579
C7 C 0.83643(10) 0.0608(2) 0.46125(12)
C8 C 0.85130(10) -0.0136(2) 0.38544(12)
C9 C 0.84453(13) -0.1676(3) 0.36287(17)
H5 H 0.8275 -0.2384 0.3949
C10 C 0.86301(15) -0.2157(3) 0.29295(18)
H6 H 0.8576 -0.3188 0.2773
C11 C 0.88946(17) -0.1121(3) 0.24584(18)
H7 H 0.9024 -0.1456 0.1990
C12 C 0.89673(16) 0.0413(3) 0.26831(17)
H8 H 0.9155 0.1111 0.2372
C13 C 0.87602(11) 0.0915(2) 0.33745(13)
C14 C 0.87498(11) 0.2544(2) 0.36847(13)
C15 C 0.85765(10) 0.2367(2) 0.45545(12)
C16 C 0.77935(10) 0.3318(2) 0.44475(12)
C17 C 0.75515(11) 0.3931(2) 0.35386(13)
C18 C 0.80444(11) 0.3431(2) 0.31119(13)
C19 C 0.78726(17) 0.3791(3) 0.22485(15)
H9 H 0.8202 0.3444 0.1958
C20 C 0.7220(2) 0.4653(4) 0.18315(18)
H10 H 0.7103 0.4888 0.1255
C21 C 0.67335(17) 0.5178(4) 0.2262(2)
H11 H 0.6294 0.5775 0.1975
C22 C 0.68935(13) 0.4825(3) 0.31169(17)
H12 H 0.6565 0.5182 0.3406
C23 C 0.78564(15) 0.4615(3) 0.50951(16)
H13 H 0.7357 0.5135 0.4954
H14 H 0.8256 0.5332 0.5076
H15 H 0.7995 0.4188 0.5660
C24 C 0.92760(13) 0.2877(4) 0.53312(16)
H16 H 0.9372 0.3954 0.5285
H17 H 0.9739 0.2304 0.5351
H18 H 0.9156 0.2692 0.5845
C25 C 0.88454(14) -0.0244(3) 0.54389(15)
H19 H 0.8769 0.0251 0.5922
H20 H 0.9397 -0.0221 0.5501
H21 H 0.8670 -0.1292 0.5408
C26 C 0.95080(13) 0.3423(3) 0.3732(2)
H22 H 0.9557 0.3458 0.3174
H23 H 0.9959 0.2907 0.4122
H24 H 0.9481 0.4451 0.3931
O3 O 0.54795(14) 0.6181(3) 0.63070(16)
C27 C 0.6085(4) 0.5555(7) 0.6052(4)
H25 H 0.6222 0.5873 0.5586
C28 C 0.6444(4) 0.4386(8) 0.6612(4)
H26 H 0.6878 0.3815 0.6601
C29 C 0.6050(4) 0.4205(7) 0.7194(3)
H27 H 0.6130 0.3430 0.7601
C30 C 0.5487(3) 0.5458(7) 0.7046(4)
H28 H 0.5188 0.5723 0.7387
loop_
_geom_bond_atom_site_label_1
_geom_bond_atom_site_label_2
_geom_bond_site_symmetry_1
_geom_bond_site_symmetry_2
O1 H1 1_555 1_555
O2 H2 1_555 1_555
C1 C2 1_555 1_555
C2 C3 1_555 1_555
C3 H3 1_555 1_555
C4 O1 1_555 1_555
C5 O2 1_555 1_555
C6 C1 1_555 1_555
H4 C6 1_555 1_555
C7 C1 1_555 1_555
C8 C7 1_555 1_555
C9 C8 1_555 1_555
H5 C9 1_555 1_555
C10 C9 1_555 1_555
H6 C10 1_555 1_555
C11 C10 1_555 1_555
H7 C11 1_555 1_555
C12 C11 1_555 1_555
H8 C12 1_555 1_555
C13 C8 1_555 1_555
C14 C13 1_555 1_555
C15 C7 1_555 1_555
C16 C2 1_555 1_555
C17 C16 1_555 1_555
C18 C14 1_555 1_555
C19 C18 1_555 1_555
H9 C19 1_555 1_555
C20 C19 1_555 1_555
H10 C20 1_555 1_555
C21 C20 1_555 1_555
H11 C21 1_555 1_555
C22 C17 1_555 1_555
H12 C22 1_555 1_555
C23 C16 1_555 1_555
H13 C23 1_555 1_555
H14 C23 1_555 1_555
H15 C23 1_555 1_555
C24 C15 1_555 1_555
H16 C24 1_555 1_555
H17 C24 1_555 1_555
H18 C24 1_555 1_555
C25 C7 1_555 1_555
H19 C25 1_555 1_555
H20 C25 1_555 1_555
H21 C25 1_555 1_555
C26 C14 1_555 1_555
H22 C26 1_555 1_555
H23 C26 1_555 1_555
H24 C26 1_555 1_555
O3 C27 1_555 1_555
C27 H25 1_555 1_555
C28 C27 1_555 1_555
H26 C28 1_555 1_555
C29 C28 1_555 1_555
H27 C29 1_555 1_555
C30 O3 1_555 1_555
H28 C30 1_555 1_555
C3 C4 1_555 1_555
C4 C5 1_555 1_555
C5 C6 1_555 1_555
C12 C13 1_555 1_555
C14 C15 1_555 1_555
C15 C16 1_555 1_555
C17 C18 1_555 1_555
C21 C22 1_555 1_555
C29 C30 1_555 1_555

#END
