
#######################################################################
#
#                 Cambridge Crystallographic Data Centre
#                                CCDC 
#
#######################################################################
#
# If this CIF has been generated from an entry in the Cambridge 
# Structural Database, then it will include bibliographic, chemical, 
# crystal, experimental, refinement or atomic coordinate data resulting 
# from the CCDC's data processing and validation procedures.
#
#######################################################################

data_EJEHIM
_chemical_formula_moiety         'C55 H42 O3'
_chemical_name_systematic        
4b,8b,15b,15d-tetramethyl-10a,12,13,13a-tetraphenyl-4b,8b,10a,13a,15b,15d-hexahydro-11H-cyclopenta[b]dibenzo[2',3':4',5']pentaleno[1',6':1,2,3]indeno[5,6-e][1,4]dioxin-11-one
_symmetry_cell_setting           monoclinic
_symmetry_space_group_name_H-M   'P 21/n'
_symmetry_Int_Tables_number      14
_space_group_name_Hall           '-P 2yn'
loop_
_symmetry_equiv_pos_site_id
_symmetry_equiv_pos_as_xyz
1 x,y,z
2 1/2-x,1/2+y,1/2-z
3 -x,-y,-z
4 1/2+x,1/2-y,1/2+z
_cell_length_a                   10.8938(19)
_cell_length_b                   33.139(5)
_cell_length_c                   11.704(2)
_cell_angle_alpha                90
_cell_angle_beta                 103.521(17)
_cell_angle_gamma                90
_cell_volume                     4108.15
_exptl_crystal_colour            'dark yellow'
_exptl_crystal_description       plate
_cell_formula_units_Z            4
loop_
_atom_site_label
_atom_site_type_symbol
_atom_site_fract_x
_atom_site_fract_y
_atom_site_fract_z
O1 O 0.7651(2) 0.61078(7) 0.2474(2)
O2 O 0.9232(3) 0.63811(7) 0.1125(2)
O3 O 1.1026(3) 0.57121(10) 0.0744(3)
C1 C 0.9056(3) 0.66100(10) 0.2056(3)
C2 C 0.8632(5) 0.86126(15) 0.1508(5)
H1 H 0.8306 0.8837 0.1062
C3 C 0.9701(4) 0.69705(10) 0.2323(3)
H2 H 1.0279 0.7054 0.1900
C4 C 0.9474(3) 0.72046(10) 0.3229(3)
C5 C 1.0097(4) 0.76098(11) 0.3677(4)
C6 C 0.9610(4) 0.79497(11) 0.2835(4)
C7 C 0.9767(5) 0.79923(13) 0.1700(4)
H3 H 1.0206 0.7797 0.1385
C8 C 0.9273(5) 0.83233(16) 0.1038(5)
H4 H 0.9373 0.8351 0.0274
C9 C 0.8527(3) 0.58139(10) 0.2208(3)
C10 C 0.8470(4) 0.85740(13) 0.2634(5)
H5 H 0.8035 0.8771 0.2945
C11 C 0.8960(4) 0.82381(11) 0.3306(4)
C12 C 0.8826(4) 0.81295(12) 0.4536(4)
C13 C 0.7472(4) 0.80236(12) 0.4461(4)
C14 C 0.6444(5) 0.82882(15) 0.4289(4)
H6 H 0.6566 0.8566 0.4271
C15 C 0.5240(5) 0.81287(18) 0.4147(4)
H7 H 0.4546 0.8300 0.4026
C16 C 0.5065(4) 0.77166(18) 0.4185(4)
H8 H 0.4253 0.7613 0.4075
C17 C 0.6083(4) 0.74561(14) 0.4385(4)
H9 H 0.5959 0.7179 0.4420
C18 C 0.7286(4) 0.76113(12) 0.4534(3)
C19 C 0.8517(4) 0.73806(11) 0.4829(3)
C20 C 0.8628(3) 0.70818(10) 0.3874(3)
C21 C 0.8007(3) 0.67149(11) 0.3626(3)
H10 H 0.7450 0.6627 0.4066
C22 C 0.8229(3) 0.64843(10) 0.2718(3)
C23 C 0.9570(4) 0.77120(12) 0.4799(4)
C24 C 1.1532(4) 0.75734(14) 0.3874(5)
H11 H 1.1829 0.7357 0.4414
H12 H 1.1921 0.7822 0.4194
H13 H 1.1747 0.7519 0.3139
C25 C 0.9275(5) 0.84824(15) 0.5401(5)
H14 H 0.8750 0.8714 0.5155
H15 H 1.0135 0.8548 0.5407
H16 H 0.9217 0.8404 0.6176
C26 C 0.8615(4) 0.71643(13) 0.6020(4)
H17 H 0.7910 0.6985 0.5959
H18 H 0.8611 0.7361 0.6621
H19 H 0.9386 0.7012 0.6218
C27 C 1.0597(4) 0.77192(17) 0.5928(4)
H20 H 1.0219 0.7751 0.6586
H21 H 1.1160 0.7940 0.5906
H22 H 1.1060 0.7470 0.6006
C28 C 0.9031(3) 0.59457(10) 0.1124(3)
C29 C 0.8237(4) 0.58256(11) -0.0059(3)
C30 C 0.7371(4) 0.60904(15) -0.0698(4)
H23 H 0.7326 0.6352 -0.0423
C31 C 0.6569(5) 0.5975(2) -0.1739(5)
H24 H 0.6001 0.6158 -0.2174
C32 C 0.6616(5) 0.5589(3) -0.2124(5)
H25 H 0.6049 0.5506 -0.2806
C33 C 0.7489(5) 0.53210(17) -0.1520(5)
H26 H 0.7530 0.5061 -0.1807
C34 C 0.8307(4) 0.54384(13) -0.0487(4)
H27 H 0.8904 0.5258 -0.0079
C35 C 1.0394(4) 0.57884(11) 0.1444(4)
C36 C 1.0782(4) 0.57665(11) 0.2747(3)
C37 C 1.2092(4) 0.57084(12) 0.3360(4)
C38 C 1.3044(4) 0.59037(15) 0.2959(4)
H28 H 1.2840 0.6073 0.2309
C39 C 1.4287(5) 0.5845(2) 0.3527(6)
H29 H 1.4917 0.5977 0.3257
C40 C 1.4613(5) 0.5598(2) 0.4475(6)
H30 H 1.5458 0.5560 0.4844
C41 C 1.3690(6) 0.54049(17) 0.4886(5)
H31 H 1.3910 0.5238 0.5541
C42 C 1.2439(4) 0.54568(13) 0.4334(4)
H32 H 1.1819 0.5323 0.4614
C43 C 0.9734(3) 0.57960(10) 0.3186(3)
C44 C 0.9649(4) 0.58251(11) 0.4423(3)
C45 C 1.0366(4) 0.61080(12) 0.5149(3)
H33 H 1.0937 0.6267 0.4872
C46 C 1.0236(4) 0.61568(14) 0.6297(4)
H34 H 1.0712 0.6351 0.6780
C47 C 0.9420(5) 0.59221(17) 0.6714(4)
H35 H 0.9335 0.5955 0.7481
C48 C 0.8721(5) 0.56367(18) 0.6000(5)
H36 H 0.8173 0.5473 0.6293
C49 C 0.8816(4) 0.55892(15) 0.4862(4)
H37 H 0.8320 0.5398 0.4383
C50 C 0.7807(4) 0.54144(10) 0.2019(3)
C51 C 0.6508(4) 0.54189(12) 0.1669(4)
H38 H 0.6076 0.5663 0.1567
C52 C 0.5846(5) 0.50592(14) 0.1468(5)
H39 H 0.4969 0.5065 0.1237
C53 C 0.6458(6) 0.46969(15) 0.1603(5)
H40 H 0.6003 0.4457 0.1468
C54 C 0.7730(5) 0.46901(13) 0.1933(5)
H41 H 0.8155 0.4445 0.2011
C55 C 0.8409(4) 0.50489(12) 0.2159(4)
H42 H 0.9285 0.5040 0.2409
loop_
_geom_bond_atom_site_label_1
_geom_bond_atom_site_label_2
_geom_bond_site_symmetry_1
_geom_bond_site_symmetry_2
O1 C9 1_555 1_555
O2 C1 1_555 1_555
O3 C35 1_555 1_555
C1 C3 1_555 1_555
C2 H1 1_555 1_555
C3 H2 1_555 1_555
C4 C3 1_555 1_555
C5 C4 1_555 1_555
C6 C5 1_555 1_555
C7 C6 1_555 1_555
H3 C7 1_555 1_555
C8 C2 1_555 1_555
H4 C8 1_555 1_555
C9 C28 1_555 1_555
C10 C2 1_555 1_555
H5 C10 1_555 1_555
C11 C6 1_555 1_555
C12 C11 1_555 1_555
C13 C12 1_555 1_555
C14 C13 1_555 1_555
H6 C14 1_555 1_555
C15 C14 1_555 1_555
H7 C15 1_555 1_555
C16 C15 1_555 1_555
H8 C16 1_555 1_555
C17 C16 1_555 1_555
H9 C17 1_555 1_555
C18 C13 1_555 1_555
C19 C18 1_555 1_555
C20 C4 1_555 1_555
C21 C20 1_555 1_555
H10 C21 1_555 1_555
C22 O1 1_555 1_555
C23 C5 1_555 1_555
C24 C5 1_555 1_555
H11 C24 1_555 1_555
H12 C24 1_555 1_555
H13 C24 1_555 1_555
C25 C12 1_555 1_555
H14 C25 1_555 1_555
H15 C25 1_555 1_555
H16 C25 1_555 1_555
C26 C19 1_555 1_555
H17 C26 1_555 1_555
H18 C26 1_555 1_555
H19 C26 1_555 1_555
C27 C23 1_555 1_555
H20 C27 1_555 1_555
H21 C27 1_555 1_555
H22 C27 1_555 1_555
C28 O2 1_555 1_555
C29 C28 1_555 1_555
C30 C29 1_555 1_555
H23 C30 1_555 1_555
C31 C30 1_555 1_555
H24 C31 1_555 1_555
C32 C31 1_555 1_555
H25 C32 1_555 1_555
C33 C32 1_555 1_555
H26 C33 1_555 1_555
C34 C29 1_555 1_555
H27 C34 1_555 1_555
C35 C28 1_555 1_555
C36 C35 1_555 1_555
C37 C36 1_555 1_555
C38 C37 1_555 1_555
H28 C38 1_555 1_555
C39 C38 1_555 1_555
H29 C39 1_555 1_555
C40 C39 1_555 1_555
H30 C40 1_555 1_555
C41 C40 1_555 1_555
H31 C41 1_555 1_555
C42 C37 1_555 1_555
H32 C42 1_555 1_555
C43 C9 1_555 1_555
C44 C43 1_555 1_555
C45 C44 1_555 1_555
H33 C45 1_555 1_555
C46 C45 1_555 1_555
H34 C46 1_555 1_555
C47 C46 1_555 1_555
H35 C47 1_555 1_555
C48 C47 1_555 1_555
H36 C48 1_555 1_555
C49 C44 1_555 1_555
H37 C49 1_555 1_555
C50 C9 1_555 1_555
C51 C50 1_555 1_555
H38 C51 1_555 1_555
C52 C51 1_555 1_555
H39 C52 1_555 1_555
C53 C52 1_555 1_555
H40 C53 1_555 1_555
C54 C53 1_555 1_555
H41 C54 1_555 1_555
C55 C50 1_555 1_555
H42 C55 1_555 1_555
C1 C22 1_555 1_555
C7 C8 1_555 1_555
C10 C11 1_555 1_555
C12 C23 1_555 1_555
C17 C18 1_555 1_555
C19 C20 1_555 1_555
C19 C23 1_555 1_555
C21 C22 1_555 1_555
C33 C34 1_555 1_555
C36 C43 1_555 1_555
C41 C42 1_555 1_555
C48 C49 1_555 1_555
C54 C55 1_555 1_555

#END
