
#######################################################################
#
#                 Cambridge Crystallographic Data Centre
#                                CCDC 
#
#######################################################################
#
# If this CIF has been generated from an entry in the Cambridge 
# Structural Database, then it will include bibliographic, chemical, 
# crystal, experimental, refinement or atomic coordinate data resulting 
# from the CCDC's data processing and validation procedures.
#
#######################################################################

data_EJEKOV
_chemical_formula_moiety         'C88 H20 F40 N8 O2,4(C1 H2 Cl2)'
_chemical_name_systematic        
"2,2'-bis(5-((5-((2-((5-pentafluorobenzoyl-1H-pyrrol-2-yl)(pentafluorophenyl)methylidene)-2H-pyrrrol-5-yl)(pentafluorophenyl)methylidene)-1,5-dihydro-2H-pyrrol-2-ylidene)(pentafluorophenyl)methyl)-2H-pyrrol-2-ylidene) dichloromethane solvate"
_symmetry_cell_setting           monoclinic
_symmetry_space_group_name_H-M   'P 21/n'
_symmetry_Int_Tables_number      14
_space_group_name_Hall           '-P 2yn'
loop_
_symmetry_equiv_pos_site_id
_symmetry_equiv_pos_as_xyz
1 x,y,z
2 1/2-x,1/2+y,1/2-z
3 -x,-y,-z
4 1/2+x,1/2-y,1/2+z
_cell_length_a                   17.2568(16)
_cell_length_b                   14.4839(11)
_cell_length_c                   18.3034(18)
_cell_angle_alpha                90
_cell_angle_beta                 96.4540(10)
_cell_angle_gamma                90
_cell_volume                     4545.86
_exptl_crystal_description       block
_cell_formula_units_Z            2
loop_
_atom_site_label
_atom_site_type_symbol
_atom_site_fract_x
_atom_site_fract_y
_atom_site_fract_z
Cl1 Cl 0.14627(18) 0.54075(18) 0.14400(17)
Cl2 Cl 0.2988(2) 0.6192(3) 0.1549(3)
C1 C 0.2153(6) 0.6018(8) 0.1957(5)
H1 H 0.2287 0.5697 0.2419
H2 H 0.1938 0.6614 0.2069
Cl3 Cl 0.7969(4) 0.3386(3) 0.0673(4)
Cl4 Cl 0.9504(3) 0.4167(6) 0.0719(4)
C2 C 0.8952(9) 0.3309(10) 0.1051(9)
H3 H 0.8983 0.3357 0.1582
H4 H 0.9160 0.2712 0.0932
F1 F 0.4491(2) 0.1763(3) 0.2212(2)
F2 F 0.5232(3) 0.0144(3) 0.2148(3)
F3 F 0.6781(3) 0.0017(3) 0.2578(3)
F4 F 0.7584(2) 0.1522(3) 0.3086(3)
F5 F 0.6858(2) 0.3131(3) 0.3211(2)
F6 F 0.6324(2) 0.8051(3) 0.2025(2)
F7 F 0.6766(3) 0.8936(3) 0.0856(3)
F8 F 0.6218(3) 0.8393(3) -0.0523(2)
F9 F 0.5192(3) 0.6977(4) -0.0722(2)
F10 F 0.4751(3) 0.6080(3) 0.0439(2)
F11 F 0.2410(2) 0.7613(3) 0.3081(2)
F12 F 0.1332(2) 0.8792(3) 0.3432(3)
F13 F 0.1525(3) 0.9678(3) 0.4753(2)
F14 F 0.2857(3) 0.9446(3) 0.5661(2)
F15 F 0.3976(2) 0.8324(3) 0.5293(2)
F16 F 0.1388(2) 0.4750(3) 0.3485(2)
F17 F 0.0288(2) 0.4395(4) 0.4362(3)
F18 F 0.0689(3) 0.3797(4) 0.5753(3)
F19 F 0.2217(3) 0.3548(4) 0.6256(2)
F20 F 0.3319(2) 0.3858(3) 0.5389(2)
N1 N 0.4126(3) 0.4117(3) 0.3297(2)
H5 H 0.4150 0.4631 0.3065
N2 N 0.5159(3) 0.5042(3) 0.2507(2)
N3 N 0.4611(3) 0.6715(3) 0.3025(2)
H6 H 0.4746 0.6193 0.3223
N4 N 0.4645(3) 0.5924(3) 0.4366(2)
O1 O 0.2923(2) 0.5316(3) 0.3563(2)
C3 C 0.3588(3) 0.3917(4) 0.3765(3)
C4 C 0.3749(4) 0.3016(4) 0.4022(3)
H7 H 0.3471 0.2688 0.4343
C5 C 0.4393(3) 0.2703(4) 0.3713(3)
H8 H 0.4634 0.2133 0.3798
C6 C 0.4620(3) 0.3391(4) 0.3249(3)
C7 C 0.5236(3) 0.3402(4) 0.2790(3)
C8 C 0.5464(3) 0.4165(4) 0.2426(3)
C9 C 0.6011(3) 0.4189(4) 0.1873(3)
H9 H 0.6308 0.3701 0.1727
C10 C 0.6000(4) 0.5058(4) 0.1618(3)
H10 H 0.6282 0.5286 0.1254
C11 C 0.5460(3) 0.5580(4) 0.2020(3)
C12 C 0.5275(3) 0.6525(4) 0.1924(3)
C13 C 0.4836(3) 0.7024(4) 0.2376(3)
C14 C 0.4499(4) 0.7918(4) 0.2259(3)
H11 H 0.4566 0.8307 0.1866
C15 C 0.4069(4) 0.8106(4) 0.2802(3)
H12 H 0.3774 0.8637 0.2841
C16 C 0.4139(3) 0.7348(4) 0.3323(3)
C17 C 0.3836(3) 0.7235(4) 0.3977(3)
C18 C 0.4067(3) 0.6518(4) 0.4479(3)
C19 C 0.3755(4) 0.6302(4) 0.5167(3)
H13 H 0.3348 0.6602 0.5360
C20 C 0.4165(3) 0.5591(4) 0.5464(3)
H14 H 0.4106 0.5306 0.5910
C21 C 0.4722(3) 0.5346(4) 0.4959(3)
C22 C 0.5650(3) 0.2507(4) 0.2720(3)
C23 C 0.5257(4) 0.1726(4) 0.2449(3)
C24 C 0.5627(4) 0.0879(5) 0.2412(4)
C25 C 0.6408(4) 0.0824(5) 0.2625(4)
C26 C 0.6815(4) 0.1579(5) 0.2881(4)
C27 C 0.6439(4) 0.2411(4) 0.2934(3)
C28 C 0.5533(4) 0.7022(4) 0.1276(3)
C29 C 0.6039(4) 0.7752(4) 0.1351(4)
C30 C 0.6275(4) 0.8214(5) 0.0750(4)
C31 C 0.5996(4) 0.7940(5) 0.0053(4)
C32 C 0.5479(5) 0.7219(5) -0.0038(4)
C33 C 0.5256(4) 0.6776(5) 0.0566(4)
C34 C 0.3236(4) 0.7908(4) 0.4174(3)
C35 C 0.2547(4) 0.8062(4) 0.3723(3)
C36 C 0.1984(4) 0.8661(5) 0.3900(4)
C37 C 0.2082(4) 0.9118(5) 0.4560(4)
C38 C 0.2754(4) 0.8997(4) 0.5025(3)
C39 C 0.3320(4) 0.8412(4) 0.4827(3)
C40 C 0.2986(3) 0.4569(5) 0.3883(3)
C41 C 0.2397(4) 0.4314(4) 0.4397(3)
C42 C 0.1615(4) 0.4449(5) 0.4168(4)
C43 C 0.1039(4) 0.4271(5) 0.4614(4)
C44 C 0.1252(5) 0.3964(6) 0.5316(4)
C45 C 0.2017(5) 0.3836(5) 0.5566(4)
C46 C 0.2577(4) 0.3996(5) 0.5108(4)
F1B F 0.5509(2) 0.8237(3) 0.7788(2)
F2B F 0.4768(3) 0.9856(3) 0.7852(3)
F3B F 0.3219(3) 0.9983(3) 0.7422(3)
F4B F 0.2416(2) 0.8478(3) 0.6914(3)
F5B F 0.3142(2) 0.6869(3) 0.6789(2)
F6B F 0.3676(2) 0.1949(3) 0.7975(2)
F7B F 0.3234(3) 0.1064(3) 0.9144(3)
F8B F 0.3782(3) 0.1607(3) 1.0523(2)
F9B F 0.4808(3) 0.3023(4) 1.0722(2)
F10B F 0.5249(3) 0.3920(3) 0.9561(2)
F11B F 0.7590(2) 0.2387(3) 0.6919(2)
F12B F 0.8668(2) 0.1208(3) 0.6568(3)
F13B F 0.8475(3) 0.0322(3) 0.5247(2)
F14B F 0.7143(3) 0.0554(3) 0.4339(2)
F15B F 0.6024(2) 0.1676(3) 0.4707(2)
F16B F 0.8612(2) 0.5250(3) 0.6515(2)
F17B F 0.9712(2) 0.5605(4) 0.5638(3)
F18B F 0.9311(3) 0.6203(4) 0.4247(3)
F19B F 0.7783(3) 0.6452(4) 0.3744(2)
F20B F 0.6681(2) 0.6142(3) 0.4611(2)
N1B N 0.5874(3) 0.5883(3) 0.6703(2)
H5B H 0.5850 0.5369 0.6935
N2B N 0.4841(3) 0.4958(3) 0.7493(2)
N3B N 0.5389(3) 0.3285(3) 0.6975(2)
H6B H 0.5254 0.3807 0.6777
N4B N 0.5355(3) 0.4076(3) 0.5634(2)
O1B O 0.7077(2) 0.4684(3) 0.6437(2)
C3B C 0.6412(3) 0.6083(4) 0.6235(3)
C4B C 0.6251(4) 0.6984(4) 0.5978(3)
H7B H 0.6529 0.7312 0.5657
C5B C 0.5607(3) 0.7297(4) 0.6287(3)
H8B H 0.5366 0.7867 0.6202
C6B C 0.5380(3) 0.6609(4) 0.6751(3)
C7B C 0.4764(3) 0.6598(4) 0.7210(3)
C8B C 0.4536(3) 0.5835(4) 0.7574(3)
C9B C 0.3989(3) 0.5811(4) 0.8127(3)
H9B H 0.3692 0.6299 0.8273
C10B C 0.4000(4) 0.4942(4) 0.8382(3)
H10B H 0.3718 0.4714 0.8746
C11B C 0.4540(3) 0.4420(4) 0.7980(3)
C12B C 0.4725(3) 0.3475(4) 0.8076(3)
C13B C 0.5164(3) 0.2976(4) 0.7624(3)
C14B C 0.5501(4) 0.2082(4) 0.7741(3)
H11B H 0.5434 0.1693 0.8134
C15B C 0.5931(4) 0.1894(4) 0.7198(3)
H12B H 0.6226 0.1363 0.7159
C16B C 0.5861(3) 0.2652(4) 0.6677(3)
C17B C 0.6164(3) 0.2765(4) 0.6023(3)
C18B C 0.5933(3) 0.3482(4) 0.5521(3)
C19B C 0.6245(4) 0.3698(4) 0.4833(3)
H13B H 0.6652 0.3398 0.4640
C20B C 0.5835(3) 0.4409(4) 0.4536(3)
H14B H 0.5894 0.4694 0.4090
C21B C 0.5278(3) 0.4654(4) 0.5041(3)
C22B C 0.4350(3) 0.7493(4) 0.7280(3)
C23B C 0.4743(4) 0.8274(4) 0.7551(3)
C24B C 0.4373(4) 0.9121(5) 0.7588(4)
C25B C 0.3592(4) 0.9176(5) 0.7375(4)
C26B C 0.3185(4) 0.8421(5) 0.7119(4)
C27B C 0.3561(4) 0.7589(4) 0.7066(3)
C28B C 0.4467(4) 0.2978(4) 0.8724(3)
C29B C 0.3961(4) 0.2248(4) 0.8649(4)
C30B C 0.3725(4) 0.1786(5) 0.9250(4)
C31B C 0.4004(4) 0.2060(5) 0.9947(4)
C32B C 0.4521(5) 0.2781(5) 1.0038(4)
C33B C 0.4744(4) 0.3224(5) 0.9434(4)
C34B C 0.6764(4) 0.2092(4) 0.5826(3)
C35B C 0.7453(4) 0.1938(4) 0.6277(3)
C36B C 0.8016(4) 0.1339(5) 0.6100(4)
C37B C 0.7918(4) 0.0882(5) 0.5440(4)
C38B C 0.7246(4) 0.1003(4) 0.4975(3)
C39B C 0.6680(4) 0.1588(4) 0.5173(3)
C40B C 0.7014(3) 0.5431(5) 0.6117(3)
C41B C 0.7603(4) 0.5686(4) 0.5603(3)
C42B C 0.8385(4) 0.5551(5) 0.5832(4)
C43B C 0.8961(4) 0.5729(5) 0.5386(4)
C44B C 0.8748(5) 0.6036(6) 0.4684(4)
C45B C 0.7983(5) 0.6164(5) 0.4434(4)
C46B C 0.7423(4) 0.6004(5) 0.4892(4)
loop_
_geom_bond_atom_site_label_1
_geom_bond_atom_site_label_2
_geom_bond_site_symmetry_1
_geom_bond_site_symmetry_2
Cl1 C1 1_555 1_555
Cl2 C1 1_555 1_555
C1 H1 1_555 1_555
H2 C1 1_555 1_555
Cl3 C2 1_555 1_555
Cl4 C2 1_555 1_555
C2 H3 1_555 1_555
H4 C2 1_555 1_555
F1 C23 1_555 1_555
F2 C24 1_555 1_555
F3 C25 1_555 1_555
F4 C26 1_555 1_555
F5 C27 1_555 1_555
F6 C29 1_555 1_555
F7 C30 1_555 1_555
F8 C31 1_555 1_555
F9 C32 1_555 1_555
F10 C33 1_555 1_555
F11 C35 1_555 1_555
F12 C36 1_555 1_555
F13 C37 1_555 1_555
F14 C38 1_555 1_555
F15 C39 1_555 1_555
F16 C42 1_555 1_555
F17 C43 1_555 1_555
F18 C44 1_555 1_555
F19 C45 1_555 1_555
F20 C46 1_555 1_555
N1 H5 1_555 1_555
N2 C8 1_555 1_555
N3 H6 1_555 1_555
N4 C18 1_555 1_555
O1 C40 1_555 1_555
C3 N1 1_555 1_555
C4 C3 1_555 1_555
H7 C4 1_555 1_555
C5 C4 1_555 1_555
H8 C5 1_555 1_555
C6 N1 1_555 1_555
C7 C6 1_555 1_555
C8 C7 1_555 1_555
C9 C8 1_555 1_555
H9 C9 1_555 1_555
C10 C9 1_555 1_555
H10 C10 1_555 1_555
C11 N2 1_555 1_555
C12 C11 1_555 1_555
C13 N3 1_555 1_555
C14 C13 1_555 1_555
H11 C14 1_555 1_555
C15 C14 1_555 1_555
H12 C15 1_555 1_555
C16 N3 1_555 1_555
C17 C16 1_555 1_555
C18 C17 1_555 1_555
C19 C18 1_555 1_555
H13 C19 1_555 1_555
C20 C19 1_555 1_555
H14 C20 1_555 1_555
C21 N4 1_555 1_555
C22 C7 1_555 1_555
C23 C22 1_555 1_555
C24 C23 1_555 1_555
C25 C24 1_555 1_555
C26 C25 1_555 1_555
C27 C22 1_555 1_555
C28 C12 1_555 1_555
C29 C28 1_555 1_555
C30 C29 1_555 1_555
C31 C30 1_555 1_555
C32 C31 1_555 1_555
C33 C28 1_555 1_555
C34 C17 1_555 1_555
C35 C34 1_555 1_555
C36 C35 1_555 1_555
C37 C36 1_555 1_555
C38 C37 1_555 1_555
C39 C34 1_555 1_555
C40 C3 1_555 1_555
C41 C40 1_555 1_555
C42 C41 1_555 1_555
C43 C42 1_555 1_555
C44 C43 1_555 1_555
C45 C44 1_555 1_555
C46 C41 1_555 1_555
F1B C23B 1_555 1_555
F2B C24B 1_555 1_555
F3B C25B 1_555 1_555
F4B C26B 1_555 1_555
F5B C27B 1_555 1_555
F6B C29B 1_555 1_555
F7B C30B 1_555 1_555
F8B C31B 1_555 1_555
F9B C32B 1_555 1_555
F10B C33B 1_555 1_555
F11B C35B 1_555 1_555
F12B C36B 1_555 1_555
F13B C37B 1_555 1_555
F14B C38B 1_555 1_555
F15B C39B 1_555 1_555
F16B C42B 1_555 1_555
F17B C43B 1_555 1_555
F18B C44B 1_555 1_555
F19B C45B 1_555 1_555
F20B C46B 1_555 1_555
N1B H5B 1_555 1_555
N2B C8B 1_555 1_555
N3B H6B 1_555 1_555
N4B C18B 1_555 1_555
O1B C40B 1_555 1_555
C3B N1B 1_555 1_555
C4B C3B 1_555 1_555
H7B C4B 1_555 1_555
C5B C4B 1_555 1_555
H8B C5B 1_555 1_555
C6B N1B 1_555 1_555
C7B C6B 1_555 1_555
C8B C7B 1_555 1_555
C9B C8B 1_555 1_555
H9B C9B 1_555 1_555
C10B C9B 1_555 1_555
H10B C10B 1_555 1_555
C11B N2B 1_555 1_555
C12B C11B 1_555 1_555
C13B N3B 1_555 1_555
C14B C13B 1_555 1_555
H11B C14B 1_555 1_555
C15B C14B 1_555 1_555
H12B C15B 1_555 1_555
C16B N3B 1_555 1_555
C17B C16B 1_555 1_555
C18B C17B 1_555 1_555
C19B C18B 1_555 1_555
H13B C19B 1_555 1_555
C20B C19B 1_555 1_555
H14B C20B 1_555 1_555
C21B C21 1_555 1_555
C22B C7B 1_555 1_555
C23B C22B 1_555 1_555
C24B C23B 1_555 1_555
C25B C24B 1_555 1_555
C26B C25B 1_555 1_555
C27B C22B 1_555 1_555
C28B C12B 1_555 1_555
C29B C28B 1_555 1_555
C30B C29B 1_555 1_555
C31B C30B 1_555 1_555
C32B C31B 1_555 1_555
C33B C28B 1_555 1_555
C34B C17B 1_555 1_555
C35B C34B 1_555 1_555
C36B C35B 1_555 1_555
C37B C36B 1_555 1_555
C38B C37B 1_555 1_555
C39B C34B 1_555 1_555
C40B C3B 1_555 1_555
C41B C40B 1_555 1_555
C42B C41B 1_555 1_555
C43B C42B 1_555 1_555
C44B C43B 1_555 1_555
C45B C44B 1_555 1_555
C46B C41B 1_555 1_555
C5 C6 1_555 1_555
C10 C11 1_555 1_555
C12 C13 1_555 1_555
C15 C16 1_555 1_555
C20 C21 1_555 1_555
C26 C27 1_555 1_555
C32 C33 1_555 1_555
C38 C39 1_555 1_555
C45 C46 1_555 1_555
N4B C21B 1_555 1_555
C5B C6B 1_555 1_555
C10B C11B 1_555 1_555
C12B C13B 1_555 1_555
C15B C16B 1_555 1_555
C20B C21B 1_555 1_555
C26B C27B 1_555 1_555
C32B C33B 1_555 1_555
C38B C39B 1_555 1_555
C45B C46B 1_555 1_555

#END
