
#######################################################################
#
#                 Cambridge Crystallographic Data Centre
#                                CCDC 
#
#######################################################################
#
# If this CIF has been generated from an entry in the Cambridge 
# Structural Database, then it will include bibliographic, chemical, 
# crystal, experimental, refinement or atomic coordinate data resulting 
# from the CCDC's data processing and validation procedures.
#
#######################################################################

data_EJELEM
_chemical_formula_moiety         'C24 H21 N1 O1'
_chemical_name_systematic        
1-methyl-4'-phenyl-3',4'-dihydro-1'H-spiro[indole-3,2'-naphthalen]-2(1H)-one
_symmetry_cell_setting           rhombohedral
_symmetry_space_group_name_H-M   'R -3'
_symmetry_Int_Tables_number      148
_space_group_name_Hall           '-R 3'
loop_
_symmetry_equiv_pos_site_id
_symmetry_equiv_pos_as_xyz
1 x,y,z
2 -y,x-y,z
3 -x+y,-x,z
4 2/3+x,1/3+y,1/3+z
5 2/3-y,1/3+x-y,1/3+z
6 2/3-x+y,1/3-x,1/3+z
7 1/3+x,2/3+y,2/3+z
8 1/3-y,2/3+x-y,2/3+z
9 1/3-x+y,2/3-x,2/3+z
10 -x,-y,-z
11 y,-x+y,-z
12 x-y,x,-z
13 1/3-x,2/3-y,2/3-z
14 1/3+y,2/3-x+y,2/3-z
15 1/3+x-y,2/3+x,2/3-z
16 2/3-x,1/3-y,1/3-z
17 2/3+y,1/3-x+y,1/3-z
18 2/3+x-y,1/3+x,1/3-z
_cell_length_a                   34.203(2)
_cell_length_b                   34.203(2)
_cell_length_c                   7.9236(6)
_cell_angle_alpha                90
_cell_angle_beta                 90
_cell_angle_gamma                120
_cell_volume                     8027.52
_exptl_crystal_colour            colorless
_exptl_crystal_description       block
_cell_formula_units_Z            18
loop_
_atom_site_label
_atom_site_type_symbol
_atom_site_fract_x
_atom_site_fract_y
_atom_site_fract_z
O1 O 0.59858(4) 0.74599(4) 0.47428(15)
N1 N 0.53194(5) 0.69255(4) 0.35632(17)
C1 C 0.48158(5) 0.71129(5) 0.4643(2)
C2 C 0.43925(6) 0.70575(6) 0.4905(3)
H1 H 0.4355 0.7259 0.5580
C3 C 0.40212(6) 0.66932(7) 0.4140(3)
H2 H 0.3734 0.6651 0.4316
C4 C 0.40745(7) 0.63952(6) 0.3125(3)
H3 H 0.3823 0.6156 0.2623
C5 C 0.44987(6) 0.64480(6) 0.2845(2)
H4 H 0.4536 0.6248 0.2162
C6 C 0.48637(6) 0.68086(5) 0.3616(2)
C7 C 0.54964(7) 0.66802(6) 0.2638(2)
H5 H 0.5359 0.6376 0.3052
H6 H 0.5817 0.6826 0.2792
H7 H 0.5430 0.6676 0.1460
C8 C 0.55807(5) 0.72942(5) 0.45549(19)
C9 C 0.52719(5) 0.74527(5) 0.5358(2)
C10 C 0.52664(6) 0.74186(5) 0.7297(2)
H8 H 0.4995 0.7408 0.7713
H9 H 0.5250 0.7136 0.7603
C11 C 0.56688(5) 0.77997(5) 0.81759(19)
C12 C 0.57560(6) 0.77359(6) 0.9847(2)
H10 H 0.5573 0.7460 1.0369
C13 C 0.61095(6) 0.80759(6) 1.0735(2)
H11 H 0.6163 0.8028 1.1846
C14 C 0.63842(6) 0.84884(6) 0.9969(2)
H12 H 0.6622 0.8719 1.0563
C15 C 0.63025(5) 0.85554(5) 0.8319(2)
H13 H 0.6487 0.8833 0.7810
C16 C 0.59479(5) 0.82146(5) 0.73980(18)
C17 C 0.58967(5) 0.82857(5) 0.55335(18)
H14 H 0.6113 0.8230 0.4924
C18 C 0.54247(5) 0.79438(5) 0.4861(2)
H15 H 0.5426 0.7966 0.3640
H16 H 0.5208 0.8023 0.5292
C19 C 0.60088(5) 0.87638(5) 0.50951(19)
C20 C 0.57758(5) 0.89586(5) 0.5829(2)
H17 H 0.5559 0.8799 0.6647
C21 C 0.58616(6) 0.93853(6) 0.5361(2)
H18 H 0.5702 0.9509 0.5859
C22 C 0.61875(6) 0.96275(6) 0.4147(2)
H19 H 0.6243 0.9911 0.3812
C23 C 0.64294(6) 0.94433(6) 0.3440(2)
H20 H 0.6652 0.9607 0.2642
C24 C 0.63416(5) 0.90167(5) 0.3914(2)
H21 H 0.6508 0.8898 0.3435
loop_
_geom_bond_atom_site_label_1
_geom_bond_atom_site_label_2
_geom_bond_site_symmetry_1
_geom_bond_site_symmetry_2
O1 C8 1_555 1_555
N1 C6 1_555 1_555
C1 C2 1_555 1_555
C2 H1 1_555 1_555
C3 C2 1_555 1_555
H2 C3 1_555 1_555
C4 C3 1_555 1_555
H3 C4 1_555 1_555
C5 C4 1_555 1_555
H4 C5 1_555 1_555
C6 C1 1_555 1_555
C7 N1 1_555 1_555
H5 C7 1_555 1_555
H6 C7 1_555 1_555
H7 C7 1_555 1_555
C8 N1 1_555 1_555
C9 C1 1_555 1_555
C10 C9 1_555 1_555
H8 C10 1_555 1_555
H9 C10 1_555 1_555
C11 C10 1_555 1_555
C12 C11 1_555 1_555
H10 C12 1_555 1_555
C13 C12 1_555 1_555
H11 C13 1_555 1_555
C14 C13 1_555 1_555
H12 C14 1_555 1_555
C15 C14 1_555 1_555
H13 C15 1_555 1_555
C16 C11 1_555 1_555
C17 C16 1_555 1_555
H14 C17 1_555 1_555
C18 C9 1_555 1_555
H15 C18 1_555 1_555
H16 C18 1_555 1_555
C19 C17 1_555 1_555
C20 C19 1_555 1_555
H17 C20 1_555 1_555
C21 C20 1_555 1_555
H18 C21 1_555 1_555
C22 C21 1_555 1_555
H19 C22 1_555 1_555
C23 C22 1_555 1_555
H20 C23 1_555 1_555
C24 C19 1_555 1_555
H21 C24 1_555 1_555
C5 C6 1_555 1_555
C8 C9 1_555 1_555
C15 C16 1_555 1_555
C17 C18 1_555 1_555
C23 C24 1_555 1_555

#END
