
#######################################################################
#
#                 Cambridge Crystallographic Data Centre
#                                CCDC 
#
#######################################################################
#
# If this CIF has been generated from an entry in the Cambridge 
# Structural Database, then it will include bibliographic, chemical, 
# crystal, experimental, refinement or atomic coordinate data resulting 
# from the CCDC's data processing and validation procedures.
#
#######################################################################

data_EJEPOA
_chemical_name_common            'Kaempferol bis(L-proline)'
_chemical_formula_moiety         'C15 H10 O6,2(C5 H9 N1 O2)'
_chemical_name_systematic        
'3,5,7-trihydroxy-2-(4-hydroxyphenyl)-4H-chromen-4-one bis(pyrrolidinium-2-carboxylate)'
_symmetry_cell_setting           monoclinic
_symmetry_space_group_name_H-M   'P 21'
_symmetry_Int_Tables_number      4
_space_group_name_Hall           'P 2yb'
loop_
_symmetry_equiv_pos_site_id
_symmetry_equiv_pos_as_xyz
1 x,y,z
2 -x,1/2+y,-z
_cell_length_a                   5.3597(15)
_cell_length_b                   18.850(5)
_cell_length_c                   12.177(4)
_cell_angle_alpha                90
_cell_angle_beta                 95.712(8)
_cell_angle_gamma                90
_cell_volume                     1224.14
_exptl_crystal_colour            yellow
_exptl_crystal_description       plate
_cell_formula_units_Z            2
loop_
_atom_site_label
_atom_site_type_symbol
_atom_site_fract_x
_atom_site_fract_y
_atom_site_fract_z
O1 O 0.1961(6) 0.39842(19) 0.3252(3)
C1 C 0.6797(11) 0.5001(3) 0.2550(5)
H1 H 0.8218 0.5040 0.2119
H2 H 0.5261 0.5069 0.2070
N1 N 0.6792(7) 0.4311(2) 0.3124(3)
H3 H 0.8363 0.4139 0.3242
H4 H 0.5846 0.3996 0.2714
C2 C 0.5734(8) 0.4435(2) 0.4199(3)
H5 H 0.6650 0.4146 0.4775
C3 C 0.2926(8) 0.4246(2) 0.4120(4)
O2 O 0.1840(6) 0.4391(2) 0.4947(3)
C4 C 0.6224(11) 0.5208(3) 0.4438(5)
H6 H 0.4717 0.5440 0.4636
H7 H 0.7534 0.5264 0.5041
C5 C 0.699(2) 0.5502(5) 0.3452(8)
H8 H 0.8708 0.5662 0.3588
H9 H 0.5950 0.5911 0.3244
O3 O -0.2749(7) 0.1710(2) 0.6196(3)
H10 H -0.3002 0.1849 0.5557
O4 O 0.6572(5) 0.35608(17) 0.7756(2)
O5 O 1.2245(6) 0.45624(19) 1.0632(2)
H11 H 1.1344 0.4334 1.1008
O6 O 0.8636(6) 0.36727(18) 1.1047(2)
O7 O 0.4787(6) 0.28329(18) 1.0312(2)
H12 H 0.5432 0.2912 1.0940
C6 C -0.0799(9) 0.2070(3) 0.6717(4)
C7 C -0.0074(10) 0.1898(3) 0.7821(4)
H13 H -0.0934 0.1550 0.8172
C8 C 0.1913(9) 0.2246(3) 0.8385(4)
H14 H 0.2361 0.2130 0.9120
C9 C 0.3265(8) 0.2759(2) 0.7899(3)
C10 C 0.5289(8) 0.3166(2) 0.8478(3)
C11 C 0.8504(8) 0.3982(2) 0.8113(3)
C12 C 0.9699(9) 0.4327(2) 0.7312(4)
H15 H 0.9112 0.4286 0.6570
C13 C 1.1782(9) 0.4734(2) 0.7637(4)
C14 C 1.2628(9) 0.4831(3) 0.8757(4)
H16 H 1.4000 0.5120 0.8966
C15 C 0.2540(8) 0.2910(3) 0.6781(4)
H17 H 0.3442 0.3244 0.6419
C16 C 0.0524(9) 0.2576(3) 0.6211(4)
H18 H 0.0057 0.2695 0.5478
O8 O 1.3136(7) 0.50488(18) 0.6888(3)
H19 H 1.2510 0.4956 0.6263
C17 C 1.1382(8) 0.4491(2) 0.9529(4)
C18 C 0.9300(8) 0.4051(2) 0.9237(3)
C19 C 0.8023(8) 0.3653(3) 1.0011(3)
C20 C 0.6021(9) 0.3207(2) 0.9574(3)
C21 C 0.2010(11) 0.1379(3) 0.1733(5)
H20 H 0.3616 0.1462 0.1453
H21 H 0.1274 0.0949 0.1406
C22 C 0.2276(11) 0.1338(3) 0.2989(5)
H22 H 0.3761 0.1073 0.3261
H23 H 0.0816 0.1118 0.3256
C23 C 0.2502(8) 0.2119(3) 0.3344(4)
H24 H 0.1903 0.2184 0.4071
C24 C 0.5162(9) 0.2383(3) 0.3346(4)
O9 O 0.6747(7) 0.2155(3) 0.4087(3)
C25 C 0.0301(10) 0.1997(3) 0.1515(4)
H25 H -0.1435 0.1844 0.1449
H26 H 0.0631 0.2233 0.0836
N2 N 0.0821(7) 0.2486(2) 0.2480(3)
H27 H 0.1559 0.2886 0.2267
H28 H -0.0624 0.2606 0.2750
O10 O 0.5667(6) 0.27923(18) 0.2593(2)
loop_
_geom_bond_atom_site_label_1
_geom_bond_atom_site_label_2
_geom_bond_site_symmetry_1
_geom_bond_site_symmetry_2
O1 C3 1_555 1_555
C1 H1 1_555 1_555
H2 C1 1_555 1_555
N1 C1 1_555 1_555
H3 N1 1_555 1_555
H4 N1 1_555 1_555
C2 N1 1_555 1_555
H5 C2 1_555 1_555
C3 C2 1_555 1_555
O2 C3 1_555 1_555
C4 C2 1_555 1_555
H6 C4 1_555 1_555
H7 C4 1_555 1_555
C5 C1 1_555 1_555
H8 C5 1_555 1_555
H9 C5 1_555 1_555
O3 H10 1_555 1_555
O4 C10 1_555 1_555
O5 H11 1_555 1_555
O6 C19 1_555 1_555
O7 H12 1_555 1_555
C6 O3 1_555 1_555
C7 C6 1_555 1_555
H13 C7 1_555 1_555
C8 C7 1_555 1_555
H14 C8 1_555 1_555
C9 C8 1_555 1_555
C10 C9 1_555 1_555
C11 O4 1_555 1_555
C12 C11 1_555 1_555
H15 C12 1_555 1_555
C13 C12 1_555 1_555
C14 C13 1_555 1_555
H16 C14 1_555 1_555
C15 C9 1_555 1_555
H17 C15 1_555 1_555
C16 C6 1_555 1_555
H18 C16 1_555 1_555
O8 C13 1_555 1_555
H19 O8 1_555 1_555
C17 O5 1_555 1_555
C18 C11 1_555 1_555
C19 C18 1_555 1_555
C20 O7 1_555 1_555
C21 H20 1_555 1_555
H21 C21 1_555 1_555
C22 C21 1_555 1_555
H22 C22 1_555 1_555
H23 C22 1_555 1_555
C23 C22 1_555 1_555
H24 C23 1_555 1_555
C24 C23 1_555 1_555
O9 C24 1_555 1_555
C25 C21 1_555 1_555
H25 C25 1_555 1_555
H26 C25 1_555 1_555
N2 C23 1_555 1_555
H27 N2 1_555 1_555
H28 N2 1_555 1_555
O10 C24 1_555 1_555
C4 C5 1_555 1_555
C10 C20 1_555 1_555
C14 C17 1_555 1_555
C15 C16 1_555 1_555
C17 C18 1_555 1_555
C19 C20 1_555 1_555
C25 N2 1_555 1_555

#END
