
#######################################################################
#
#                 Cambridge Crystallographic Data Centre
#                                CCDC 
#
#######################################################################
#
# If this CIF has been generated from an entry in the Cambridge 
# Structural Database, then it will include bibliographic, chemical, 
# crystal, experimental, refinement or atomic coordinate data resulting 
# from the CCDC's data processing and validation procedures.
#
#######################################################################

data_EJEPUG
_chemical_name_common            'luteolin L-proline'
_chemical_formula_moiety         'C15 H10 O6,C5 H9 N1 O2'
_chemical_name_systematic        
'2-(3,4-dihydroxyphenyl)-5,7-dihydroxy-4H-chromen-4-one pyrrolidinium-2-carboxylate'
_symmetry_cell_setting           monoclinic
_symmetry_space_group_name_H-M   'P 21'
_symmetry_Int_Tables_number      4
_space_group_name_Hall           'P 2yb'
loop_
_symmetry_equiv_pos_site_id
_symmetry_equiv_pos_as_xyz
1 x,y,z
2 -x,1/2+y,-z
_cell_length_a                   6.5107(7)
_cell_length_b                   5.7951(7)
_cell_length_c                   23.939(3)
_cell_angle_alpha                90
_cell_angle_beta                 92.728(6)
_cell_angle_gamma                90
_cell_volume                     902.199
_exptl_crystal_colour            yellow
_exptl_crystal_description       block
_cell_formula_units_Z            2
loop_
_atom_site_label
_atom_site_type_symbol
_atom_site_fract_x
_atom_site_fract_y
_atom_site_fract_z
O1 O 1.4463(2) 0.1753(3) 0.98969(6)
O2 O 0.69586(17) 0.2619(3) 0.81920(5)
O3 O 0.3283(2) 0.6523(3) 0.67575(7)
H1 H 0.2180 0.6488 0.6577
O4 O 1.3611(2) 0.4778(3) 0.91214(6)
H2 H 1.3205 0.5652 0.8870
O5 O 0.25099(19) -0.2291(3) 0.83054(5)
O6 O 0.0326(2) -0.0151(3) 0.75317(6)
C1 C 1.2676(2) 0.1417(3) 0.95868(7)
C2 C 1.1342(3) -0.0386(4) 0.96630(7)
H3 H 1.1644 -0.1484 0.9938
C3 C 0.9553(3) -0.0565(4) 0.93309(8)
H4 H 0.8666 -0.1798 0.9382
C4 C 0.9064(2) 0.1068(3) 0.89230(7)
C5 C 0.7173(3) 0.0879(3) 0.85705(7)
C6 C 0.5243(2) 0.2712(4) 0.78359(7)
C7 C 0.5156(3) 0.4522(4) 0.74624(8)
H5 H 0.6245 0.5550 0.7439
C8 C 0.3376(3) 0.4754(4) 0.71205(8)
C9 C 0.1741(3) 0.3207(4) 0.71547(8)
H6 H 0.0546 0.3426 0.6932
C10 C 1.2220(3) 0.3072(3) 0.91796(7)
C11 C 1.0416(2) 0.2917(3) 0.88519(7)
H7 H 1.0100 0.4041 0.8584
C12 C 0.5746(3) -0.0798(4) 0.86065(8)
H8 H 0.5975 -0.1992 0.8861
C13 C 0.3897(3) -0.0781(3) 0.82632(7)
C14 C 0.3676(3) 0.1069(3) 0.78700(7)
C15 C 0.1892(3) 0.1368(4) 0.75148(7)
H9 H 1.471(4) 0.076(5) 1.0107(11)
H10 H 0.078(4) -0.132(6) 0.7746(11)
O7 O 0.9926(3) -0.3951(3) 0.60587(7)
C16 C 0.8983(3) -0.0034(3) 0.60455(7)
H11 H 1.0195 0.0291 0.6292
N1 N 0.8662(3) 0.1857(3) 0.56288(7)
H12 H 0.9241 0.3170 0.5761
H13 H 0.9247 0.1484 0.5308
O8 O 0.8677(3) -0.2503(3) 0.52521(6)
C17 C 0.9235(3) -0.2339(4) 0.57524(8)
C18 C 0.6407(5) 0.2183(5) 0.55261(16)
H14 H 0.5976 0.1668 0.5153
H15 H 0.6040 0.3796 0.5564
C19 C 0.7051(4) 0.0056(5) 0.63750(10)
H16 H 0.6770 -0.1441 0.6536
H17 H 0.7195 0.1183 0.6674
C20 C 0.5402(5) 0.0724(9) 0.59685(15)
H18 H 0.4359 0.1609 0.6150
H19 H 0.4762 -0.0634 0.5799
loop_
_geom_bond_atom_site_label_1
_geom_bond_atom_site_label_2
_geom_bond_site_symmetry_1
_geom_bond_site_symmetry_2
O1 C1 1_555 1_555
O2 C5 1_555 1_555
O3 H1 1_555 1_555
O4 H2 1_555 1_555
O5 C13 1_555 1_555
O6 C15 1_555 1_555
C1 C2 1_555 1_555
C2 H3 1_555 1_555
C3 C2 1_555 1_555
H4 C3 1_555 1_555
C4 C3 1_555 1_555
C5 C4 1_555 1_555
C6 O2 1_555 1_555
C7 C6 1_555 1_555
H5 C7 1_555 1_555
C8 O3 1_555 1_555
C9 C8 1_555 1_555
H6 C9 1_555 1_555
C10 O4 1_555 1_555
C11 C4 1_555 1_555
H7 C11 1_555 1_555
C12 C5 1_555 1_555
H8 C12 1_555 1_555
C13 C12 1_555 1_555
C14 C6 1_555 1_555
C15 C9 1_555 1_555
H9 O1 1_555 1_555
H10 O6 1_555 1_555
O7 C17 1_555 1_555
C16 H11 1_555 1_555
N1 C16 1_555 1_555
H12 N1 1_555 1_555
H13 N1 1_555 1_555
O8 C17 1_555 1_555
C17 C16 1_555 1_555
C18 N1 1_555 1_555
H14 C18 1_555 1_555
H15 C18 1_555 1_555
C19 C16 1_555 1_555
H16 C19 1_555 1_555
H17 C19 1_555 1_555
C20 C18 1_555 1_555
H18 C20 1_555 1_555
H19 C20 1_555 1_555
C1 C10 1_555 1_555
C7 C8 1_555 1_555
C10 C11 1_555 1_555
C13 C14 1_555 1_555
C14 C15 1_555 1_555
C19 C20 1_555 1_555

#END
