
#######################################################################
#
#                 Cambridge Crystallographic Data Centre
#                                CCDC 
#
#######################################################################
#
# If this CIF has been generated from an entry in the Cambridge 
# Structural Database, then it will include bibliographic, chemical, 
# crystal, experimental, refinement or atomic coordinate data resulting 
# from the CCDC's data processing and validation procedures.
#
#######################################################################

data_EJEQUH
_chemical_name_common            'genistein bis(D-proline)'
_chemical_formula_moiety         'C15 H10 O5,2(C5 H9 N1 O2)'
_chemical_name_systematic        
'5,7-dihydroxy-3-(4-hydroxyphenyl)-4H-chromen-4-one bis(pyrrolidinium-2-carboxylate)'
_symmetry_cell_setting           triclinic
_symmetry_space_group_name_H-M   'P 1'
_symmetry_Int_Tables_number      1
_space_group_name_Hall           'P 1'
loop_
_symmetry_equiv_pos_site_id
_symmetry_equiv_pos_as_xyz
1 x,y,z
_cell_length_a                   5.3009(2)
_cell_length_b                   6.2793(3)
_cell_length_c                   17.5971(8)
_cell_angle_alpha                84.458(3)
_cell_angle_beta                 82.609(3)
_cell_angle_gamma                89.969(3)
_cell_volume                     578.112
_exptl_crystal_colour            colorless
_exptl_crystal_description       plate
_cell_formula_units_Z            1
loop_
_atom_site_label
_atom_site_type_symbol
_atom_site_fract_x
_atom_site_fract_y
_atom_site_fract_z
O1 O 0.2086(5) 0.3840(5) 0.73381(16)
O2 O 0.2203(5) 0.6305(5) 0.81504(15)
C1 C 0.3225(7) 0.5194(7) 0.7652(2)
C2 C 0.6037(6) 0.5535(6) 0.7379(2)
H1 H 0.6913 0.4161 0.7411
C3 C 0.6479(8) 0.6601(7) 0.6544(2)
H2 H 0.7045 0.5560 0.6188
H3 H 0.4928 0.7248 0.6399
C4 C 0.8521(7) 0.8293(7) 0.6544(2)
H4 H 1.0207 0.7681 0.6482
H5 H 0.8419 0.9438 0.6138
C5 C 0.7901(8) 0.9077(7) 0.7324(3)
H6 H 0.9358 0.9790 0.7474
H7 H 0.6482 1.0054 0.7335
N1 N 0.7219(6) 0.7059(5) 0.78387(17)
H8 H 0.8622 0.6483 0.8009
H9 H 0.6115 0.7343 0.8248
O3 O 1.4196(6) 0.1672(5) 0.61910(16)
H10 H 1.3762 0.2657 0.6451
O4 O 1.2739(6) -0.1178(5) 0.39163(16)
H11 H 1.1892 -0.0953 0.3559
O5 O 0.8659(5) 0.5296(5) 0.46107(16)
O6 O 0.9480(5) 0.0678(5) 0.31163(16)
O7 O 0.3245(5) 0.5453(5) 0.06898(17)
H12 H 0.3615 0.6633 0.0460
C6 C 0.4286(7) 0.5251(7) 0.1361(2)
C7 C 0.5725(8) 0.6815(7) 0.1600(3)
H13 H 0.5937 0.8138 0.1311
C8 C 0.6859(9) 0.6448(7) 0.2262(3)
H14 H 0.7824 0.7529 0.2415
C9 C 0.6580(7) 0.4490(6) 0.2704(2)
C10 C 0.7818(7) 0.4055(6) 0.3412(2)
C11 C 0.9292(7) 0.2153(6) 0.3553(2)
C12 C 1.0597(7) 0.2035(7) 0.4224(2)
C13 C 1.2315(7) 0.0368(6) 0.4392(2)
C14 C 1.3538(8) 0.0319(7) 0.5032(2)
H15 H 1.4691 -0.0760 0.5128
C15 C 1.3059(7) 0.1879(7) 0.5539(2)
C16 C 1.0271(7) 0.3624(6) 0.4734(2)
C17 C 0.7572(8) 0.5462(7) 0.3953(2)
H16 H 0.6566 0.6651 0.3864
C18 C 0.3896(8) 0.3312(7) 0.1820(2)
H17 H 0.2841 0.2269 0.1684
C19 C 0.5054(7) 0.2940(7) 0.2468(2)
H18 H 0.4821 0.1621 0.2758
C20 C 1.1456(8) 0.3567(7) 0.5385(2)
H19 H 1.1189 0.4638 0.5715
O8 O 0.5018(5) 0.1378(5) 0.87439(16)
O9 O 0.5239(5) -0.1662(5) 0.94907(16)
C21 C -0.1214(8) 0.2130(7) 1.0407(2)
H20 H -0.2915 0.1517 1.0463
H21 H -0.1067 0.2963 1.0836
C22 C 0.0784(8) 0.0409(8) 1.0357(2)
H22 H 0.0184 -0.0881 1.0677
H23 H 0.2342 0.0893 1.0524
C23 C 0.1237(7) -0.0013(6) 0.9508(2)
H24 H 0.0392 -0.1353 0.9436
C24 C 0.4064(7) -0.0111(7) 0.9219(2)
C25 C -0.0616(9) 0.3472(8) 0.9653(3)
H25 H -0.2071 0.4313 0.9530
H26 H 0.0820 0.4424 0.9659
N2 N 0.0008(6) 0.1850(5) 0.90961(17)
H27 H 0.1081 0.2418 0.8689
H28 H -0.1416 0.1412 0.8926
loop_
_geom_bond_atom_site_label_1
_geom_bond_atom_site_label_2
_geom_bond_site_symmetry_1
_geom_bond_site_symmetry_2
O1 C1 1_555 1_555
O2 C1 1_555 1_555
C1 C2 1_555 1_555
C2 H1 1_555 1_555
C3 C2 1_555 1_555
H2 C3 1_555 1_555
H3 C3 1_555 1_555
C4 C3 1_555 1_555
H4 C4 1_555 1_555
H5 C4 1_555 1_555
C5 C4 1_555 1_555
H6 C5 1_555 1_555
H7 C5 1_555 1_555
N1 C2 1_555 1_555
H8 N1 1_555 1_555
H9 N1 1_555 1_555
O3 H10 1_555 1_555
O4 H11 1_555 1_555
O5 C16 1_555 1_555
O6 C11 1_555 1_555
O7 H12 1_555 1_555
C6 O7 1_555 1_555
C7 C6 1_555 1_555
H13 C7 1_555 1_555
C8 C7 1_555 1_555
H14 C8 1_555 1_555
C9 C8 1_555 1_555
C10 C9 1_555 1_555
C11 C10 1_555 1_555
C12 C11 1_555 1_555
C13 O4 1_555 1_555
C14 C13 1_555 1_555
H15 C14 1_555 1_555
C15 O3 1_555 1_555
C16 C12 1_555 1_555
C17 O5 1_555 1_555
H16 C17 1_555 1_555
C18 C6 1_555 1_555
H17 C18 1_555 1_555
C19 C9 1_555 1_555
H18 C19 1_555 1_555
C20 C15 1_555 1_555
H19 C20 1_555 1_555
O8 C24 1_555 1_555
O9 C24 1_555 1_555
C21 H20 1_555 1_555
H21 C21 1_555 1_555
C22 C21 1_555 1_555
H22 C22 1_555 1_555
H23 C22 1_555 1_555
C23 C22 1_555 1_555
H24 C23 1_555 1_555
C24 C23 1_555 1_555
C25 C21 1_555 1_555
H25 C25 1_555 1_555
H26 C25 1_555 1_555
N2 C23 1_555 1_555
H27 N2 1_555 1_555
H28 N2 1_555 1_555
C5 N1 1_555 1_555
C10 C17 1_555 1_555
C12 C13 1_555 1_555
C14 C15 1_555 1_555
C16 C20 1_555 1_555
C18 C19 1_555 1_555
C25 N2 1_555 1_555

#END
