
#######################################################################
#
#                 Cambridge Crystallographic Data Centre
#                                CCDC 
#
#######################################################################
#
# If this CIF has been generated from an entry in the Cambridge 
# Structural Database, then it will include bibliographic, chemical, 
# crystal, experimental, refinement or atomic coordinate data resulting 
# from the CCDC's data processing and validation procedures.
#
#######################################################################

data_EJERES
_chemical_name_common            'Quercetin bis(L-Proline)'
_chemical_formula_moiety         'C15 H10 O7,2(C5 H9 N1 O2)'
_chemical_name_systematic        
'2-(3,4-dihydroxyphenyl)-3,5,7-trihydroxy-4H-chromen-4-one bis(pyrrolidinium-2-carboxylate)'
_symmetry_cell_setting           monoclinic
_symmetry_space_group_name_H-M   'P 21'
_symmetry_Int_Tables_number      4
_space_group_name_Hall           'P 2yb'
loop_
_symmetry_equiv_pos_site_id
_symmetry_equiv_pos_as_xyz
1 x,y,z
2 -x,1/2+y,-z
_cell_length_a                   5.4354(5)
_cell_length_b                   18.8955(18)
_cell_length_c                   12.0279(15)
_cell_angle_alpha                90
_cell_angle_beta                 94.275(6)
_cell_angle_gamma                90
_cell_volume                     1231.88
_exptl_crystal_colour            yellow
_exptl_crystal_description       plate
_cell_formula_units_Z            2
loop_
_atom_site_label
_atom_site_type_symbol
_atom_site_fract_x
_atom_site_fract_y
_atom_site_fract_z
O1 O 1.0512(8) 0.1334(2) 0.7749(3)
O2 O 1.1589(9) 0.2097(4) 0.9099(5)
C1 C 1.0054(13) 0.1784(4) 0.8441(6)
C2 C 0.7425(12) 0.2082(4) 0.8418(6)
H1 H 0.6826 0.2066 0.9166
N1 N 0.5761(10) 0.1677(3) 0.7629(5)
H2 H 0.4376 0.1575 0.7946
H3 H 0.6479 0.1271 0.7461
C3 C 0.5157(13) 0.2096(4) 0.6579(6)
H4 H 0.3453 0.2253 0.6526
H5 H 0.5460 0.1821 0.5921
C4 C 0.6975(16) 0.2736(4) 0.6729(7)
H6 H 0.8560 0.2626 0.6450
H7 H 0.6300 0.3156 0.6356
C5 C 0.7184(14) 0.2825(4) 0.7948(7)
H8 H 0.5729 0.3056 0.8196
H9 H 0.8623 0.3106 0.8183
O3 O -0.3208(8) 0.9716(3) 0.9985(4)
O4 O -0.3103(8) 1.0072(3) 0.8253(4)
C6 C 0.1114(14) 0.8889(4) 0.9450(6)
H10 H 0.2375 0.8839 1.0060
H11 H -0.0380 0.8664 0.9667
C7 C 0.0639(11) 0.9649(4) 0.9222(5)
H12 H 0.1498 0.9937 0.9807
N2 N 0.1742(9) 0.9780(3) 0.8127(4)
H13 H 0.0817 1.0088 0.7722
H14 H 0.3249 0.9961 0.8249
C8 C 0.1859(14) 0.9100(4) 0.7524(6)
H15 H 0.3329 0.9075 0.7115
H16 H 0.0418 0.9037 0.7007
C9 C -0.2118(12) 0.9841(3) 0.9116(5)
C10 C 0.193(3) 0.8549(7) 0.8448(11)
H17 H 0.0849 0.8157 0.8230
H18 H 0.3593 0.8368 0.8592
O5 O 0.1606(7) 0.0532(2) 0.2863(3)
O6 O -0.7604(9) 0.2340(3) 0.1283(4)
H19 H -0.7890 0.2185 0.0649
O7 O 0.8118(8) -0.0937(2) 0.1947(4)
H20 H 0.7502 -0.0854 0.1318
O8 O 0.3615(8) 0.0468(2) 0.6174(3)
O9 O -0.5202(12) 0.1156(4) 0.0306(5)
H21 H -0.6475 0.1351 0.0059
C11 C -0.4408(11) 0.1458(4) 0.1331(6)
C12 C -0.2381(12) 0.1136(4) 0.1889(5)
H22 H -0.1493 0.0795 0.1529
C13 C -0.1665(11) 0.1324(3) 0.3003(5)
C14 C 0.0375(10) 0.0936(3) 0.3587(5)
C15 C 0.3510(11) 0.0119(3) 0.3225(5)
C16 C 0.4301(10) 0.0069(3) 0.4337(5)
C17 C 0.6375(12) -0.0353(3) 0.4637(5)
O10 O 0.7245(8) -0.0413(3) 0.5736(3)
H23 H 0.6428 -0.0160 0.6122
C18 C -0.5626(12) 0.1982(4) 0.1803(5)
C19 C -0.2966(13) 0.1861(4) 0.3496(5)
H24 H -0.2525 0.1995 0.4227
C20 C -0.4900(14) 0.2194(4) 0.2905(6)
H25 H -0.5732 0.2560 0.3233
C21 C 0.4715(11) -0.0243(3) 0.2398(5)
H26 H 0.4130 -0.0221 0.1653
C22 C 0.6732(11) -0.0619(3) 0.2721(5)
C23 C 0.7616(11) -0.0704(3) 0.3835(5)
H27 H 0.8984 -0.0985 0.4031
C24 C 0.2991(11) 0.0475(3) 0.5126(5)
C25 C 0.1035(11) 0.0915(3) 0.4699(5)
O11 O -0.0221(8) 0.1285(2) 0.5436(3)
H28 H 0.0397 0.1215 0.6069
loop_
_geom_bond_atom_site_label_1
_geom_bond_atom_site_label_2
_geom_bond_site_symmetry_1
_geom_bond_site_symmetry_2
O1 C1 1_555 1_555
O2 C1 1_555 1_555
C1 C2 1_555 1_555
C2 H1 1_555 1_555
N1 C2 1_555 1_555
H2 N1 1_555 1_555
H3 N1 1_555 1_555
C3 N1 1_555 1_555
H4 C3 1_555 1_555
H5 C3 1_555 1_555
C4 C3 1_555 1_555
H6 C4 1_555 1_555
H7 C4 1_555 1_555
C5 C2 1_555 1_555
H8 C5 1_555 1_555
H9 C5 1_555 1_555
O3 C9 1_555 1_555
O4 C9 1_555 1_555
C6 H10 1_555 1_555
H11 C6 1_555 1_555
C7 C6 1_555 1_555
H12 C7 1_555 1_555
N2 C7 1_555 1_555
H13 N2 1_555 1_555
H14 N2 1_555 1_555
C8 N2 1_555 1_555
H15 C8 1_555 1_555
H16 C8 1_555 1_555
C9 C7 1_555 1_555
C10 C6 1_555 1_555
H17 C10 1_555 1_555
H18 C10 1_555 1_555
O5 C14 1_555 1_555
O6 H19 1_555 1_555
O7 H20 1_555 1_555
O8 C24 1_555 1_555
O9 H21 1_555 1_555
C11 O9 1_555 1_555
C12 C11 1_555 1_555
H22 C12 1_555 1_555
C13 C12 1_555 1_555
C14 C13 1_555 1_555
C15 O5 1_555 1_555
C16 C15 1_555 1_555
C17 C16 1_555 1_555
O10 C17 1_555 1_555
H23 O10 1_555 1_555
C18 O6 1_555 1_555
C19 C13 1_555 1_555
H24 C19 1_555 1_555
C20 C18 1_555 1_555
H25 C20 1_555 1_555
C21 C15 1_555 1_555
H26 C21 1_555 1_555
C22 O7 1_555 1_555
C23 C17 1_555 1_555
H27 C23 1_555 1_555
C24 C16 1_555 1_555
C25 C14 1_555 1_555
O11 C25 1_555 1_555
H28 O11 1_555 1_555
C4 C5 1_555 1_555
C8 C10 1_555 1_555
C11 C18 1_555 1_555
C19 C20 1_555 1_555
C21 C22 1_555 1_555
C22 C23 1_555 1_555
C24 C25 1_555 1_555

#END
