
#######################################################################
#
#                 Cambridge Crystallographic Data Centre
#                                CCDC 
#
#######################################################################
#
# If this CIF has been generated from an entry in the Cambridge 
# Structural Database, then it will include bibliographic, chemical, 
# crystal, experimental, refinement or atomic coordinate data resulting 
# from the CCDC's data processing and validation procedures.
#
#######################################################################

data_EJEVEU
_chemical_formula_moiety         'C13 H13 Cl1 N4 O2'
_chemical_name_systematic        
1-Acetyl-4-(p-chlorobenzylidenamino)-3-ethyl-4,5-dihydro-1H-1,2,4-triazol-5-one
_symmetry_cell_setting           triclinic
_symmetry_space_group_name_H-M   'P -1'
_symmetry_Int_Tables_number      2
_space_group_name_Hall           '-P 1'
loop_
_symmetry_equiv_pos_site_id
_symmetry_equiv_pos_as_xyz
1 x,y,z
2 -x,-y,-z
_cell_length_a                   6.341(2)
_cell_length_b                   8.6092(10)
_cell_length_c                   13.083(2)
_cell_angle_alpha                76.011(10)
_cell_angle_beta                 84.03(2)
_cell_angle_gamma                78.26(2)
_cell_volume                     677.403
_exptl_crystal_colour            colorless
_exptl_crystal_description       prism
_chemical_melting_point          '454-455 K'
_cell_formula_units_Z            2
_exptl_crystal_recrystallization_method ethanol
loop_
_atom_site_label
_atom_site_type_symbol
_atom_site_fract_x
_atom_site_fract_y
_atom_site_fract_z
Cl1 Cl 1.21109(12) -0.05154(9) 0.15778(6)
O1 O 0.2035(3) 0.5872(2) 0.44737(13)
O2 O -0.1737(3) 0.7977(2) 0.51220(15)
N1 N 0.2998(3) 0.4523(2) 0.24829(15)
N2 N 0.1257(3) 0.5546(2) 0.28332(15)
N3 N -0.2004(3) 0.7048(2) 0.26735(15)
N4 N -0.1188(3) 0.7043(2) 0.36233(15)
C1 C 0.6380(4) 0.2315(3) 0.1768(2)
C2 C 0.8093(4) 0.1283(3) 0.1429(2)
C3 C 0.9915(4) 0.0787(3) 0.2006(2)
C4 C 1.0016(4) 0.1304(3) 0.29073(19)
C5 C 0.8270(4) 0.2354(3) 0.32398(19)
C6 C 0.6436(4) 0.2878(3) 0.26733(19)
C7 C 0.4630(4) 0.3987(3) 0.30422(19)
C8 C 0.0873(4) 0.6115(3) 0.37559(18)
C9 C -0.0511(4) 0.6154(3) 0.22281(18)
C10 C -0.0586(4) 0.5838(3) 0.11698(19)
C11 C -0.2677(5) 0.6696(4) 0.0660(2)
C12 C -0.2450(4) 0.7888(3) 0.43333(19)
C13 C -0.4678(4) 0.8631(3) 0.4014(2)
H1 H 0.51480 0.26491 0.13844
H2 H 0.80354 0.09190 0.08209
H3 H 1.12449 0.09521 0.32925
H4 H 0.83321 0.27110 0.38506
H5 H 0.46681 0.42964 0.36726
H6 H -0.04288 0.46751 0.12329
H7 H 0.06162 0.62055 0.07206
H8 H -0.26588 0.64655 -0.00236
H9 H -0.28275 0.78499 0.05859
H10 H -0.38687 0.63173 0.10936
H11 H -0.48826 0.83949 0.33542
H12 H -0.48967 0.97889 0.39367
H13 H -0.56953 0.81884 0.45442
loop_
_geom_bond_atom_site_label_1
_geom_bond_atom_site_label_2
_geom_bond_site_symmetry_1
_geom_bond_site_symmetry_2
Cl1 C3 1_555 1_555
O1 C8 1_555 1_555
O2 C12 1_555 1_555
N1 N2 1_555 1_555
N2 C8 1_555 1_555
N3 N4 1_555 1_555
N4 C8 1_555 1_555
C1 C2 1_555 1_555
C2 C3 1_555 1_555
C3 C4 1_555 1_555
C4 C5 1_555 1_555
C5 C6 1_555 1_555
C6 C1 1_555 1_555
C7 N1 1_555 1_555
C9 N2 1_555 1_555
C10 C9 1_555 1_555
C11 C10 1_555 1_555
C12 N4 1_555 1_555
C13 C12 1_555 1_555
H1 C1 1_555 1_555
H2 C2 1_555 1_555
H3 C4 1_555 1_555
H4 C5 1_555 1_555
H5 C7 1_555 1_555
H6 C10 1_555 1_555
H7 C10 1_555 1_555
H8 C11 1_555 1_555
H9 C11 1_555 1_555
H10 C11 1_555 1_555
H11 C13 1_555 1_555
H12 C13 1_555 1_555
H13 C13 1_555 1_555
N3 C9 1_555 1_555
C6 C7 1_555 1_555

#END
