
#######################################################################
#
#                 Cambridge Crystallographic Data Centre
#                                CCDC 
#
#######################################################################
#
# If this CIF has been generated from an entry in the Cambridge 
# Structural Database, then it will include bibliographic, chemical, 
# crystal, experimental, refinement or atomic coordinate data resulting 
# from the CCDC's data processing and validation procedures.
#
#######################################################################

data_EJIBEG
_chemical_formula_moiety         'C28 H40 Br2 Mg2 N2 O2'
_chemical_name_systematic        
bis(\m-1-(2-(dimethylamino)phenyl)cyclohexanolato)-dibromo-di-magnesium
_symmetry_cell_setting           monoclinic
_symmetry_space_group_name_H-M   'C 2/c'
_symmetry_Int_Tables_number      15
_space_group_name_Hall           '-C 2yn'
loop_
_symmetry_equiv_pos_site_id
_symmetry_equiv_pos_as_xyz
1 x,y,z
2 -x,y,1/2-z
3 1/2+x,1/2+y,z
4 1/2-x,1/2+y,1/2-z
5 -x,-y,-z
6 x,-y,1/2+z
7 1/2-x,1/2-y,-z
8 1/2+x,1/2-y,1/2+z
_cell_length_a                   18.6611(6)
_cell_length_b                   9.2114(3)
_cell_length_c                   16.7680(5)
_cell_angle_alpha                90
_cell_angle_beta                 95.3280(10)
_cell_angle_gamma                90
_cell_volume                     2869.88
_exptl_crystal_colour            colorless
_exptl_crystal_description       block
_cell_formula_units_Z            4
loop_
_atom_site_label
_atom_site_type_symbol
_atom_site_fract_x
_atom_site_fract_y
_atom_site_fract_z
Mg1 Mg 0.56275(3) 0.57676(6) 0.52996(4)
Br1 Br 0.61283(2) 0.73718(2) 0.63620(2)
O1 O 0.52211(6) 0.38546(13) 0.54321(7)
N1 N 0.37624(8) 0.40496(17) 0.57191(9)
C1 C 0.45743(10) 0.1941(2) 0.61387(10)
C2 C 0.38839(10) 0.25824(19) 0.60538(11)
C3 C 0.32946(10) 0.1834(2) 0.63153(11)
H1 H 0.2833 0.2277 0.6255
C4 C 0.33655(11) 0.0475(2) 0.66569(12)
H2 H 0.2957 -0.0015 0.6824
C5 C 0.40355(11) -0.0167(2) 0.67540(11)
H3 H 0.4095 -0.1101 0.6991
C6 C 0.46183(10) 0.0566(2) 0.65024(11)
H4 H 0.5077 0.0114 0.6580
C7 C 0.53024(10) 0.25731(18) 0.59071(11)
C8 C 0.57723(10) 0.2921(2) 0.66910(11)
H5 H 0.5563 0.3765 0.6952
H6 H 0.5760 0.2082 0.7059
C9 C 0.65544(10) 0.3258(2) 0.65636(12)
H7 H 0.6577 0.4175 0.6259
H8 H 0.6834 0.3392 0.7090
C10 C 0.68878(11) 0.2040(2) 0.61096(13)
H9 H 0.6901 0.1139 0.6433
H10 H 0.7388 0.2299 0.6018
C11 C 0.64523(11) 0.1778(2) 0.53073(12)
H11 H 0.6473 0.2656 0.4969
H12 H 0.6669 0.0965 0.5027
C12 C 0.56730(10) 0.1425(2) 0.54137(11)
H13 H 0.5652 0.0472 0.5683
H14 H 0.5403 0.1340 0.4879
C13 C 0.39794(11) 0.5150(2) 0.63471(12)
H15 H 0.3663 0.5075 0.6780
H16 H 0.3940 0.6124 0.6112
H17 H 0.4478 0.4973 0.6562
C14 C 0.30044(10) 0.4323(2) 0.54096(13)
H18 H 0.2843 0.3561 0.5026
H19 H 0.2969 0.5269 0.5142
H20 H 0.2700 0.4318 0.5856
Mg1D Mg 0.43725(3) 0.42324(6) 0.47004(4)
Br1D Br 0.38717(2) 0.26282(2) 0.36380(2)
O1D O 0.47789(6) 0.61454(13) 0.45679(7)
N1D N 0.62376(8) 0.59504(17) 0.42809(9)
C1D C 0.54257(10) 0.8059(2) 0.38613(10)
C2D C 0.61161(10) 0.74176(19) 0.39462(11)
C3D C 0.67054(10) 0.8166(2) 0.36847(11)
H1D H 0.7167 0.7723 0.3745
C4D C 0.66345(11) 0.9525(2) 0.33431(12)
H2D H 0.7043 1.0015 0.3176
C5D C 0.59645(11) 1.0167(2) 0.32460(11)
H3D H 0.5905 1.1101 0.3009
C6D C 0.53817(10) 0.9434(2) 0.34976(11)
H4D H 0.4923 0.9886 0.3420
C7D C 0.46976(10) 0.74269(18) 0.40929(11)
C8D C 0.42277(10) 0.7079(2) 0.33090(11)
H5D H 0.4437 0.6235 0.3048
H6D H 0.4240 0.7918 0.2941
C9D C 0.34456(10) 0.6742(2) 0.34364(12)
H7D H 0.3423 0.5825 0.3741
H8D H 0.3166 0.6608 0.2910
C10D C 0.31122(11) 0.7960(2) 0.38904(13)
H9D H 0.3099 0.8861 0.3567
H10D H 0.2612 0.7701 0.3982
C11D C 0.35477(11) 0.8222(2) 0.46927(12)
H11D H 0.3527 0.7344 0.5031
H12D H 0.3331 0.9035 0.4973
C12D C 0.43270(10) 0.8575(2) 0.45863(11)
H13D H 0.4348 0.9528 0.4317
H14D H 0.4597 0.8660 0.5121
C13D C 0.60206(11) 0.4850(2) 0.36529(12)
H15D H 0.6337 0.4925 0.3220
H16D H 0.6060 0.3876 0.3888
H17D H 0.5522 0.5027 0.3438
C14D C 0.69956(10) 0.5677(2) 0.45904(13)
H18D H 0.7157 0.6439 0.4974
H19D H 0.7031 0.4731 0.4858
H20D H 0.7300 0.5682 0.4144
loop_
_geom_bond_atom_site_label_1
_geom_bond_atom_site_label_2
_geom_bond_site_symmetry_1
_geom_bond_site_symmetry_2
Mg1 Br1 1_555 1_555
O1 Mg1 1_555 1_555
N1 C2 1_555 1_555
C1 C2 1_555 1_555
C2 C3 1_555 1_555
C3 H1 1_555 1_555
C4 C3 1_555 1_555
H2 C4 1_555 1_555
C5 C4 1_555 1_555
H3 C5 1_555 1_555
C6 C1 1_555 1_555
H4 C6 1_555 1_555
C7 O1 1_555 1_555
C8 C7 1_555 1_555
H5 C8 1_555 1_555
H6 C8 1_555 1_555
C9 C8 1_555 1_555
H7 C9 1_555 1_555
H8 C9 1_555 1_555
C10 C9 1_555 1_555
H9 C10 1_555 1_555
H10 C10 1_555 1_555
C11 C10 1_555 1_555
H11 C11 1_555 1_555
H12 C11 1_555 1_555
C12 C7 1_555 1_555
H13 C12 1_555 1_555
H14 C12 1_555 1_555
C13 N1 1_555 1_555
H15 C13 1_555 1_555
H16 C13 1_555 1_555
H17 C13 1_555 1_555
C14 N1 1_555 1_555
H18 C14 1_555 1_555
H19 C14 1_555 1_555
H20 C14 1_555 1_555
Mg1D O1 1_555 1_555
Br1D Mg1D 1_555 1_555
O1D Mg1 1_555 1_555
N1D Mg1 1_555 1_555
C1D C2D 1_555 1_555
C2D N1D 1_555 1_555
C3D C2D 1_555 1_555
H1D C3D 1_555 1_555
C4D C3D 1_555 1_555
H2D C4D 1_555 1_555
C5D C4D 1_555 1_555
H3D C5D 1_555 1_555
C6D C1D 1_555 1_555
H4D C6D 1_555 1_555
C7D O1D 1_555 1_555
C8D C7D 1_555 1_555
H5D C8D 1_555 1_555
H6D C8D 1_555 1_555
C9D C8D 1_555 1_555
H7D C9D 1_555 1_555
H8D C9D 1_555 1_555
C10D C9D 1_555 1_555
H9D C10D 1_555 1_555
H10D C10D 1_555 1_555
C11D C10D 1_555 1_555
H11D C11D 1_555 1_555
H12D C11D 1_555 1_555
C12D C7D 1_555 1_555
H13D C12D 1_555 1_555
H14D C12D 1_555 1_555
C13D N1D 1_555 1_555
H15D C13D 1_555 1_555
H16D C13D 1_555 1_555
H17D C13D 1_555 1_555
C14D N1D 1_555 1_555
H18D C14D 1_555 1_555
H19D C14D 1_555 1_555
H20D C14D 1_555 1_555
N1 Mg1D 1_555 1_555
C1 C7 1_555 1_555
C5 C6 1_555 1_555
C11 C12 1_555 1_555
Mg1D O1D 1_555 1_555
C1D C7D 1_555 1_555
C5D C6D 1_555 1_555
C11D C12D 1_555 1_555

#END
