
#######################################################################
#
#                 Cambridge Crystallographic Data Centre
#                                CCDC 
#
#######################################################################
#
# If this CIF has been generated from an entry in the Cambridge 
# Structural Database, then it will include bibliographic, chemical, 
# crystal, experimental, refinement or atomic coordinate data resulting 
# from the CCDC's data processing and validation procedures.
#
#######################################################################

data_EJICAD
_chemical_formula_moiety         'C21 H25 N3 O4'
_chemical_name_systematic        
'4-(((6-(4-Hydroxypiperidin-1-yl)-3-methylpyridin-2-yl)carbonyl)amino)-3,5-dimethylbenzoic acid'
_chemical_properties_biological  'PGE2 inhibitor activity'
_symmetry_cell_setting           orthorhombic
_symmetry_space_group_name_H-M   'P 21 21 21'
_symmetry_Int_Tables_number      19
_space_group_name_Hall           'P 2ac 2ab'
loop_
_symmetry_equiv_pos_site_id
_symmetry_equiv_pos_as_xyz
1 x,y,z
2 1/2-x,-y,1/2+z
3 -x,1/2+y,1/2-z
4 1/2+x,1/2-y,-z
_cell_length_a                   4.5645(6)
_cell_length_b                   15.1614(16)
_cell_length_c                   27.764(3)
_cell_angle_alpha                90
_cell_angle_beta                 90
_cell_angle_gamma                90
_cell_volume                     1921.39
_exptl_crystal_colour            colorless
_exptl_crystal_description       acicular/prismatic
_cell_formula_units_Z            4
loop_
_atom_site_label
_atom_site_type_symbol
_atom_site_fract_x
_atom_site_fract_y
_atom_site_fract_z
C1 C -0.1802(9) 0.9122(2) 0.06334(12)
C2 C 0.0202(9) 0.9165(2) 0.10065(12)
H1 H 0.1017 0.9720 0.1091
C3 C -0.2173(9) 0.7539(2) 0.07488(12)
C4 C 0.1052(9) 0.8425(3) 0.12594(12)
C5 C -0.2969(9) 0.8304(2) 0.05058(12)
H2 H -0.4333 0.8270 0.0248
C6 C -0.0202(9) 0.7615(2) 0.11338(12)
O1 O -0.4321(7) 0.99247(16) 0.00191(9)
O2 O -0.1881(7) 1.06677(18) 0.05921(9)
C7 C -0.2795(10) 0.9926(2) 0.03812(13)
N1 N 0.0499(7) 0.6833(2) 0.13921(10)
H3 H 0.1330 0.6399 0.1232
C8 C -0.0031(9) 0.6713(3) 0.18711(13)
N2 N 0.2036(7) 0.52823(18) 0.17088(10)
C9 C 0.2655(9) 0.4172(2) 0.23021(12)
H4 H 0.3283 0.3597 0.2391
C10 C 0.0554(9) 0.5580(2) 0.25299(13)
C11 C 0.2884(9) 0.4462(3) 0.18237(12)
C12 C 0.0887(9) 0.5815(2) 0.20492(12)
C13 C 0.1516(9) 0.4732(3) 0.26367(13)
H5 H 0.1369 0.4532 0.2960
N3 N 0.3854(7) 0.39370(19) 0.14494(10)
C14 C 0.5305(10) 0.2479(2) 0.11304(12)
H6 H 0.6398 0.1936 0.1212
H7 H 0.3272 0.2310 0.1047
C15 C 0.5288(9) 0.3797(2) 0.05941(13)
H8 H 0.3253 0.3696 0.0484
H9 H 0.6367 0.4096 0.0331
C16 C 0.6724(9) 0.2922(2) 0.07033(12)
H10 H 0.8820 0.3039 0.0787
C17 C 0.5259(9) 0.4381(2) 0.10360(11)
H11 H 0.7296 0.4540 0.1122
H12 H 0.4187 0.4932 0.0962
C18 C 0.5269(9) 0.3095(2) 0.15655(13)
H13 H 0.4204 0.2807 0.1834
H14 H 0.7305 0.3205 0.1673
O3 O 0.6675(7) 0.23481(17) 0.02793(9)
C19 C -0.3486(10) 0.6664(2) 0.06217(13)
H15 H -0.5157 0.6754 0.0405
H16 H -0.4151 0.6368 0.0916
H17 H -0.2011 0.6298 0.0461
C20 C 0.3330(9) 0.8491(3) 0.16553(13)
H18 H 0.4340 0.9060 0.1632
H19 H 0.4755 0.8012 0.1620
H20 H 0.2367 0.8444 0.1970
C21 C -0.0744(11) 0.6151(3) 0.29191(13)
H21 H 0.0313 0.6713 0.2932
H22 H -0.0576 0.5850 0.3230
H23 H -0.2814 0.6262 0.2848
O4 O -0.1120(6) 0.72724(17) 0.21282(9)
H24 H 0.536(17) 0.250(5) 0.010(2)
H25 H -0.231(15) 1.114(3) 0.0438(19)
loop_
_geom_bond_atom_site_label_1
_geom_bond_atom_site_label_2
_geom_bond_site_symmetry_1
_geom_bond_site_symmetry_2
C1 C2 1_555 1_555
C2 H1 1_555 1_555
C3 C5 1_555 1_555
C4 C2 1_555 1_555
C5 C1 1_555 1_555
H2 C5 1_555 1_555
C6 C3 1_555 1_555
O1 C7 1_555 1_555
O2 C7 1_555 1_555
C7 C1 1_555 1_555
N1 C6 1_555 1_555
H3 N1 1_555 1_555
C8 N1 1_555 1_555
N2 C11 1_555 1_555
C9 H4 1_555 1_555
C10 C12 1_555 1_555
C11 C9 1_555 1_555
C12 C8 1_555 1_555
C13 C9 1_555 1_555
H5 C13 1_555 1_555
N3 C11 1_555 1_555
C14 H6 1_555 1_555
H7 C14 1_555 1_555
C15 H8 1_555 1_555
H9 C15 1_555 1_555
C16 C14 1_555 1_555
H10 C16 1_555 1_555
C17 N3 1_555 1_555
H11 C17 1_555 1_555
H12 C17 1_555 1_555
C18 N3 1_555 1_555
H13 C18 1_555 1_555
H14 C18 1_555 1_555
O3 C16 1_555 1_555
C19 C3 1_555 1_555
H15 C19 1_555 1_555
H16 C19 1_555 1_555
H17 C19 1_555 1_555
C20 C4 1_555 1_555
H18 C20 1_555 1_555
H19 C20 1_555 1_555
H20 C20 1_555 1_555
C21 C10 1_555 1_555
H21 C21 1_555 1_555
H22 C21 1_555 1_555
H23 C21 1_555 1_555
O4 C8 1_555 1_555
H24 O3 1_555 1_555
H25 O2 1_555 1_555
C4 C6 1_555 1_555
N2 C12 1_555 1_555
C10 C13 1_555 1_555
C14 C18 1_555 1_555
C15 C16 1_555 1_555
C15 C17 1_555 1_555

#END
