
#######################################################################
#
#                 Cambridge Crystallographic Data Centre
#                                CCDC 
#
#######################################################################
#
# If this CIF has been generated from an entry in the Cambridge 
# Structural Database, then it will include bibliographic, chemical, 
# crystal, experimental, refinement or atomic coordinate data resulting 
# from the CCDC's data processing and validation procedures.
#
#######################################################################

data_EJIDUX
_chemical_formula_moiety         'C26 H24 N2 O5'
_chemical_name_systematic        
'Dimethyl 5-acetyl-1,3-dicyano-2,4-diphenylcyclohexane-1,3-dicarboxylate'
_symmetry_cell_setting           monoclinic
_symmetry_space_group_name_H-M   'P 21/c'
_symmetry_Int_Tables_number      14
_space_group_name_Hall           '-P 2ybc'
loop_
_symmetry_equiv_pos_site_id
_symmetry_equiv_pos_as_xyz
1 x,y,z
2 -x,1/2+y,1/2-z
3 -x,-y,-z
4 x,1/2-y,1/2+z
_cell_length_a                   11.9164(13)
_cell_length_b                   11.4393(12)
_cell_length_c                   17.345(2)
_cell_angle_alpha                90
_cell_angle_beta                 109.959(7)
_cell_angle_gamma                90
_cell_volume                     2222.38
_exptl_crystal_colour            colorless
_exptl_crystal_description       prism
_chemical_melting_point          234-236deg.C
_cell_formula_units_Z            4
loop_
_atom_site_label
_atom_site_type_symbol
_atom_site_fract_x
_atom_site_fract_y
_atom_site_fract_z
O1 O 0.36172(7) 0.08056(7) 0.50300(5)
O2 O 0.92090(8) 0.25078(8) 0.69575(6)
O3 O 0.85700(7) 0.07908(7) 0.63380(5)
O4 O 0.62641(8) 0.26150(8) 0.27771(5)
O5 O 0.67095(7) 0.08767(7) 0.34114(5)
N1 N 0.75721(10) 0.47190(10) 0.59663(7)
N2 N 0.57267(9) 0.46273(10) 0.40115(7)
C1 C 0.40898(9) 0.17040(10) 0.53518(7)
C2 C 0.51280(10) 0.22433(10) 0.51428(7)
H1 H 0.5021 0.3110 0.5094
C3 C 0.62827(9) 0.19589(10) 0.58628(7)
H2 H 0.6360 0.1100 0.5928
H3 H 0.6217 0.2285 0.6374
C4 C 0.74267(10) 0.24527(10) 0.57433(7)
C5 C 0.74669(10) 0.20899(10) 0.48845(7)
H4 H 0.7491 0.1216 0.4895
C6 C 0.62855(10) 0.24045(10) 0.41761(7)
C7 C 0.52229(9) 0.17561(10) 0.43393(7)
H5 H 0.5463 0.0917 0.4444
C8 C 0.37155(11) 0.23236(12) 0.59869(8)
H6 H 0.2987 0.1962 0.6019
H7 H 0.3562 0.3149 0.5835
H8 H 0.4353 0.2265 0.6521
C9 C 0.85202(10) 0.19410(10) 0.64224(7)
C10 C 0.95644(11) 0.02015(13) 0.69396(8)
H9 H 0.9429 -0.0645 0.6899
H10 H 0.9633 0.0468 0.7491
H11 H 1.0303 0.0383 0.6835
C11 C 0.75029(10) 0.37296(11) 0.58618(7)
C12 C 0.86026(10) 0.24560(10) 0.47322(7)
C13 C 0.88058(10) 0.35801(11) 0.45074(7)
H12 H 0.8229 0.4174 0.4460
C14 C 0.98490(11) 0.38446(12) 0.43503(7)
H13 H 0.9970 0.4613 0.4186
C15 C 1.07065(11) 0.29979(12) 0.44314(8)
H14 H 1.1419 0.3183 0.4328
C16 C 1.05237(11) 0.18759(12) 0.46651(9)
H15 H 1.1115 0.1291 0.4728
C17 C 0.94735(10) 0.16076(11) 0.48071(8)
H16 H 0.9347 0.0833 0.4958
C18 C 0.64116(10) 0.19958(11) 0.33649(7)
C19 C 0.68838(13) 0.04017(14) 0.26823(8)
H17 H 0.7083 -0.0431 0.2766
H18 H 0.7537 0.0820 0.2580
H19 H 0.6149 0.0496 0.2210
C20 C 0.60038(10) 0.36629(10) 0.40802(7)
C21 C 0.40855(10) 0.17785(10) 0.35991(7)
C22 C 0.38644(10) 0.08685(11) 0.30314(7)
H20 H 0.4433 0.0258 0.3112
C23 C 0.28245(11) 0.08399(12) 0.23480(8)
H21 H 0.2693 0.0220 0.1963
C24 C 0.19826(11) 0.17182(12) 0.22320(8)
H22 H 0.1271 0.1704 0.1768
C25 C 0.21872(11) 0.26182(11) 0.27991(8)
H23 H 0.1604 0.3213 0.2726
C26 C 0.32348(10) 0.26598(10) 0.34722(8)
H24 H 0.3372 0.3292 0.3848
loop_
_geom_bond_atom_site_label_1
_geom_bond_atom_site_label_2
_geom_bond_site_symmetry_1
_geom_bond_site_symmetry_2
O1 C1 1_555 1_555
O2 C9 1_555 1_555
O3 C9 1_555 1_555
O4 C18 1_555 1_555
O5 C18 1_555 1_555
N1 C11 1_555 1_555
N2 C20 1_555 1_555
C1 C2 1_555 1_555
C2 H1 1_555 1_555
C3 C2 1_555 1_555
H2 C3 1_555 1_555
H3 C3 1_555 1_555
C4 C3 1_555 1_555
C5 C4 1_555 1_555
H4 C5 1_555 1_555
C6 C5 1_555 1_555
C7 C2 1_555 1_555
H5 C7 1_555 1_555
C8 C1 1_555 1_555
H6 C8 1_555 1_555
H7 C8 1_555 1_555
H8 C8 1_555 1_555
C9 C4 1_555 1_555
C10 O3 1_555 1_555
H9 C10 1_555 1_555
H10 C10 1_555 1_555
H11 C10 1_555 1_555
C11 C4 1_555 1_555
C12 C5 1_555 1_555
C13 C12 1_555 1_555
H12 C13 1_555 1_555
C14 C13 1_555 1_555
H13 C14 1_555 1_555
C15 C14 1_555 1_555
H14 C15 1_555 1_555
C16 C15 1_555 1_555
H15 C16 1_555 1_555
C17 C12 1_555 1_555
H16 C17 1_555 1_555
C18 C6 1_555 1_555
C19 O5 1_555 1_555
H17 C19 1_555 1_555
H18 C19 1_555 1_555
H19 C19 1_555 1_555
C20 C6 1_555 1_555
C21 C7 1_555 1_555
C22 C21 1_555 1_555
H20 C22 1_555 1_555
C23 C22 1_555 1_555
H21 C23 1_555 1_555
C24 C23 1_555 1_555
H22 C24 1_555 1_555
C25 C24 1_555 1_555
H23 C25 1_555 1_555
C26 C21 1_555 1_555
H24 C26 1_555 1_555
C6 C7 1_555 1_555
C16 C17 1_555 1_555
C25 C26 1_555 1_555

#END
