
#######################################################################
#
#                 Cambridge Crystallographic Data Centre
#                                CCDC 
#
#######################################################################
#
# If this CIF has been generated from an entry in the Cambridge 
# Structural Database, then it will include bibliographic, chemical, 
# crystal, experimental, refinement or atomic coordinate data resulting 
# from the CCDC's data processing and validation procedures.
#
#######################################################################

data_EJIFAF
_chemical_formula_moiety         'C22 H19 N1 O3'
_chemical_name_systematic        
'Methyl 4-acetyl-1-cyano-2,5-diphenylcyclopent-2-ene-1-carboxylate'
_symmetry_cell_setting           monoclinic
_symmetry_space_group_name_H-M   'P 21/c'
_symmetry_Int_Tables_number      14
_space_group_name_Hall           '-P 2ybc'
loop_
_symmetry_equiv_pos_site_id
_symmetry_equiv_pos_as_xyz
1 x,y,z
2 -x,1/2+y,1/2-z
3 -x,-y,-z
4 x,1/2-y,1/2+z
_cell_length_a                   8.0537(16)
_cell_length_b                   24.192(5)
_cell_length_c                   9.0943(18)
_cell_angle_alpha                90
_cell_angle_beta                 94.02(3)
_cell_angle_gamma                90
_cell_volume                     1767.53
_chemical_melting_point          115-117deg.C
_cell_formula_units_Z            4
loop_
_atom_site_label
_atom_site_type_symbol
_atom_site_fract_x
_atom_site_fract_y
_atom_site_fract_z
O1 O 0.22285(14) 0.69938(4) 0.49967(11)
O2 O 0.15127(12) 0.57235(4) 0.86145(11)
O3 O 0.38360(13) 0.57566(4) 1.01305(10)
N1 N 0.70636(16) 0.52909(5) 0.80859(14)
C1 C 0.3354(2) 0.67194(6) 0.27591(16)
H1 H 0.2576 0.6982 0.2316
H2 H 0.3155 0.6363 0.2318
H3 H 0.4468 0.6836 0.2605
C2 C 0.31393(19) 0.66848(5) 0.43763(15)
C3 C 0.41302(18) 0.62313(5) 0.52229(15)
H4 H 0.5277 0.6227 0.4926
C4 C 0.33524(18) 0.56673(6) 0.49725(15)
H5 H 0.2972 0.5538 0.4047
C5 C 0.32642(18) 0.53737(5) 0.62024(15)
C6 C 0.40694(18) 0.56950(5) 0.75158(15)
C7 C 0.41370(18) 0.63045(5) 0.69047(14)
H6 H 0.3069 0.6476 0.7093
C8 C 0.54676(19) 0.66568(5) 0.76945(14)
C9 C 0.5061(2) 0.69799(5) 0.88843(16)
H7 H 0.3965 0.6993 0.9142
C10 C 0.6270(2) 0.72822(6) 0.96880(18)
H8 H 0.5982 0.7492 1.0488
C11 C 0.7902(2) 0.72738(6) 0.93083(17)
H9 H 0.8711 0.7478 0.9849
C12 C 0.8322(2) 0.69601(6) 0.81200(17)
H10 H 0.9416 0.6955 0.7853
C13 C 0.71092(19) 0.66525(5) 0.73248(16)
H11 H 0.7403 0.6440 0.6531
C14 C 0.31454(18) 0.57144(5) 0.89231(16)
C15 C 0.05318(19) 0.57867(6) 0.98864(16)
H12 H 0.0850 0.5508 1.0604
H13 H -0.0628 0.5747 0.9583
H14 H 0.0726 0.6146 1.0312
C16 C 0.57571(18) 0.54748(5) 0.78787(14)
C17 C 0.26268(17) 0.48066(5) 0.63842(15)
C18 C 0.30653(18) 0.45008(5) 0.76492(16)
H15 H 0.3785 0.4654 0.8384
C19 C 0.2447(2) 0.39725(6) 0.78304(18)
H16 H 0.2765 0.3772 0.8676
C20 C 0.13581(19) 0.37427(6) 0.67561(17)
H17 H 0.0930 0.3390 0.6884
C21 C 0.09096(18) 0.40401(6) 0.54900(17)
H18 H 0.0175 0.3887 0.4767
C22 C 0.15490(18) 0.45667(6) 0.52902(16)
H19 H 0.1259 0.4760 0.4426
loop_
_geom_bond_atom_site_label_1
_geom_bond_atom_site_label_2
_geom_bond_site_symmetry_1
_geom_bond_site_symmetry_2
O1 C2 1_555 1_555
O2 C14 1_555 1_555
O3 C14 1_555 1_555
N1 C16 1_555 1_555
C1 H1 1_555 1_555
H2 C1 1_555 1_555
H3 C1 1_555 1_555
C2 C1 1_555 1_555
C3 C2 1_555 1_555
H4 C3 1_555 1_555
C4 C3 1_555 1_555
H5 C4 1_555 1_555
C5 C4 1_555 1_555
C6 C5 1_555 1_555
C7 C3 1_555 1_555
H6 C7 1_555 1_555
C8 C7 1_555 1_555
C9 C8 1_555 1_555
H7 C9 1_555 1_555
C10 C9 1_555 1_555
H8 C10 1_555 1_555
C11 C10 1_555 1_555
H9 C11 1_555 1_555
C12 C11 1_555 1_555
H10 C12 1_555 1_555
C13 C8 1_555 1_555
H11 C13 1_555 1_555
C14 C6 1_555 1_555
C15 O2 1_555 1_555
H12 C15 1_555 1_555
H13 C15 1_555 1_555
H14 C15 1_555 1_555
C16 C6 1_555 1_555
C17 C5 1_555 1_555
C18 C17 1_555 1_555
H15 C18 1_555 1_555
C19 C18 1_555 1_555
H16 C19 1_555 1_555
C20 C19 1_555 1_555
H17 C20 1_555 1_555
C21 C20 1_555 1_555
H18 C21 1_555 1_555
C22 C17 1_555 1_555
H19 C22 1_555 1_555
C6 C7 1_555 1_555
C12 C13 1_555 1_555
C21 C22 1_555 1_555

#END
