
#######################################################################
#
#                 Cambridge Crystallographic Data Centre
#                                CCDC 
#
#######################################################################
#
# If this CIF has been generated from an entry in the Cambridge 
# Structural Database, then it will include bibliographic, chemical, 
# crystal, experimental, refinement or atomic coordinate data resulting 
# from the CCDC's data processing and validation procedures.
#
#######################################################################

data_EJIWID
_chemical_formula_moiety         'C18 H10 Cl2 O2,2(C6 H18 N3 O1 P1)'
_chemical_name_systematic        
'trans-1,5-Dichloro-9,10-diethynyl-9,10-dihydroxy-9,10-dihydroanthracene hexamethylphosphoric triamide clathrate'
_symmetry_cell_setting           triclinic
_symmetry_space_group_name_H-M   'P -1'
_symmetry_Int_Tables_number      2
_space_group_name_Hall           '-P 1'
loop_
_symmetry_equiv_pos_site_id
_symmetry_equiv_pos_as_xyz
1 x,y,z
2 -x,-y,-z
_cell_length_a                   8.5057(17)
_cell_length_b                   9.769(2)
_cell_length_c                   10.732(2)
_cell_angle_alpha                86.94(3)
_cell_angle_beta                 77.43(3)
_cell_angle_gamma                84.85(3)
_cell_volume                     866.332
_exptl_crystal_colour            colorless
_exptl_crystal_description       cube
_chemical_melting_point          553K
_cell_formula_units_Z            1
loop_
_atom_site_label
_atom_site_type_symbol
_atom_site_fract_x
_atom_site_fract_y
_atom_site_fract_z
Cl1 Cl 0.50355(4) 0.67395(3) 0.75788(3)
O1 O 0.26435(10) 0.86835(9) 0.65520(9)
C1 C 0.55104(13) 0.90489(12) 0.59751(11)
C2 C 0.39954(13) 0.87782(12) 0.55063(11)
C3 C 0.64313(14) 1.01518(12) 0.54933(11)
C4 C 0.42766(15) 0.74328(13) 0.48718(12)
C5 C 0.60527(14) 0.81768(12) 0.69112(12)
C6 C 0.74319(16) 0.83794(14) 0.73473(13)
C7 C 0.78379(15) 1.03523(13) 0.59231(13)
C8 C 0.83358(16) 0.94800(14) 0.68424(13)
C9 C 0.45035(19) 0.64119(14) 0.42841(14)
H3 H 0.7769(19) 0.7747(17) 0.8013(16)
H4 H 0.928(2) 0.9655(19) 0.7132(18)
H12 H 0.845(2) 1.1125(18) 0.5564(16)
H16 H 0.467(3) 0.568(2) 0.388(2)
H20 H 0.231(2) 0.950(2) 0.6821(19)
C3A C 0.35687(14) 0.98482(12) 0.45067(11)
C1A C 0.44896(13) 1.09511(12) 0.40249(11)
C2A C 0.60046(13) 1.12218(12) 0.44937(11)
O1A O 0.73565(10) 1.13165(9) 0.34480(9)
H20A H 0.769(2) 1.050(2) 0.3179(19)
C4A C 0.57234(15) 1.25672(13) 0.51282(12)
C9A C 0.54965(19) 1.35881(14) 0.57159(14)
H16A H 0.533(3) 1.432(2) 0.612(2)
C5A C 0.39473(14) 1.18232(12) 0.30888(12)
Cl1A Cl 0.49645(4) 1.32605(3) 0.24212(3)
C6A C 0.25681(16) 1.16206(14) 0.26527(13)
C8A C 0.16642(16) 1.05200(14) 0.31576(13)
C7A C 0.21621(15) 0.96477(13) 0.40769(13)
H12A H 0.155(2) 0.8875(18) 0.4436(16)
H4A H 0.072(2) 1.0345(19) 0.2868(18)
H3A H 0.2231(19) 1.2253(17) 0.1987(16)
P1 P 0.11072(4) 1.24243(3) 0.81345(3)
O2 O 0.12960(11) 1.10616(10) 0.75441(9)
N1 N -0.05633(13) 1.27802(12) 0.92425(11)
N2 N 0.10425(15) 1.36640(12) 0.70410(11)
N3 N 0.25557(13) 1.25268(12) 0.89273(12)
C10 C 0.2854(2) 1.38394(17) 0.93852(16)
C11 C -0.20791(17) 1.2938(2) 0.87888(17)
C12 C -0.0748(2) 1.19841(17) 1.04609(15)
C13 C 0.12181(19) 1.33647(17) 0.56967(14)
C14 C 0.39594(18) 1.15182(19) 0.87381(16)
C15 C 0.0614(3) 1.51192(16) 0.73117(17)
H1 H -0.033(3) 1.539(2) 0.700(2)
H2 H 0.189(3) 1.439(2) 0.969(2)
H5 H -0.194(3) 1.347(2) 0.791(2)
H6 H 0.371(3) 1.070(2) 0.851(2)
H7 H 0.029(2) 1.183(2) 1.0721(19)
H8 H -0.235(2) 1.209(2) 0.865(2)
H9 H -0.156(2) 1.245(2) 1.1115(18)
H10 H -0.290(2) 1.338(2) 0.9462(18)
H11 H 0.341(2) 1.367(2) 1.010(2)
H13 H 0.201(2) 1.394(2) 0.514(2)
H14 H 0.018(3) 1.362(2) 0.542(2)
H15 H 0.151(2) 1.238(2) 0.5561(18)
H17 H 0.484(3) 1.184(2) 0.807(2)
H18 H 0.438(2) 1.141(2) 0.951(2)
H19 H -0.111(2) 1.110(2) 1.0354(19)
H21 H 0.353(2) 1.433(2) 0.869(2)
H22 H 0.041(3) 1.529(2) 0.824(2)
H23 H 0.153(3) 1.571(3) 0.685(2)
loop_
_geom_bond_atom_site_label_1
_geom_bond_atom_site_label_2
_geom_bond_site_symmetry_1
_geom_bond_site_symmetry_2
Cl1 C5 1_555 1_555
P1 O2 1_555 1_555
O1 C2 1_555 1_555
C1 C2 1_555 1_555
N1 P1 1_555 1_555
N2 P1 1_555 1_555
C2 C4 1_555 1_555
C3 C1 1_555 1_555
C4 C9 1_555 1_555
N3 P1 1_555 1_555
C5 C1 1_555 1_555
C6 C5 1_555 1_555
C7 C3 1_555 1_555
C8 C6 1_555 1_555
C9 H16 1_555 1_555
C10 N3 1_555 1_555
C11 N1 1_555 1_555
C12 N1 1_555 1_555
C13 N2 1_555 1_555
C14 N3 1_555 1_555
C15 N2 1_555 1_555
H1 C15 1_555 1_555
H2 C10 1_555 1_555
H3 C6 1_555 1_555
H4 C8 1_555 1_555
H5 C11 1_555 1_555
H6 C14 1_555 1_555
H7 C12 1_555 1_555
H8 C11 1_555 1_555
H9 C12 1_555 1_555
H10 C11 1_555 1_555
H11 C10 1_555 1_555
H12 C7 1_555 1_555
H13 C13 1_555 1_555
H14 C13 1_555 1_555
H15 C13 1_555 1_555
H17 C14 1_555 1_555
H18 C14 1_555 1_555
H19 C12 1_555 1_555
H20 O1 1_555 1_555
H21 C10 1_555 1_555
H22 C15 1_555 1_555
H23 C15 1_555 1_555
C3A C2 1_555 1_555
C1A C3A 1_555 1_555
C2A C3 1_555 1_555
O1A C2A 1_555 1_555
H20A O1A 1_555 1_555
C4A C2A 1_555 1_555
C9A C4A 1_555 1_555
H16A C9A 1_555 1_555
C5A C1A 1_555 1_555
Cl1A C5A 1_555 1_555
C6A C5A 1_555 1_555
C8A C6A 1_555 1_555
C7A C3A 1_555 1_555
H12A C7A 1_555 1_555
H4A C8A 1_555 1_555
H3A C6A 1_555 1_555
C7 C8 1_555 1_555
C1A C2A 1_555 1_555
C8A C7A 1_555 1_555

#END
