
#######################################################################
#
#                 Cambridge Crystallographic Data Centre
#                                CCDC 
#
#######################################################################
#
# If this CIF has been generated from an entry in the Cambridge 
# Structural Database, then it will include bibliographic, chemical, 
# crystal, experimental, refinement or atomic coordinate data resulting 
# from the CCDC's data processing and validation procedures.
#
#######################################################################

data_EJIXEB
_chemical_formula_moiety         'C43 H38 N2 O7 S2'
_chemical_name_systematic        
N-(4-(2-Isopropoxy-5-phenyl-3-furyl)-1-((4-methylphenyl)sulfonyl)-5-oxo-3,4-diphenylpyrrolidin-2-ylidene)-4-methylbenzenesulfonamide
_symmetry_cell_setting           monoclinic
_symmetry_space_group_name_H-M   'P 21/c'
_symmetry_Int_Tables_number      14
_space_group_name_Hall           '-P 2ybc'
loop_
_symmetry_equiv_pos_site_id
_symmetry_equiv_pos_as_xyz
1 x,y,z
2 -x,1/2+y,1/2-z
3 -x,-y,-z
4 x,1/2-y,1/2+z
_cell_length_a                   10.0069(6)
_cell_length_b                   19.8759(12)
_cell_length_c                   19.7049(13)
_cell_angle_alpha                90
_cell_angle_beta                 102.525(6)
_cell_angle_gamma                90
_cell_volume                     3825.96
_exptl_crystal_colour            colorless
_exptl_crystal_description       needle
_chemical_melting_point          '236-237 deg.C'
_cell_formula_units_Z            4
loop_
_atom_site_label
_atom_site_type_symbol
_atom_site_fract_x
_atom_site_fract_y
_atom_site_fract_z
S1 S -0.20867(6) 0.33789(3) 0.65320(3)
S2 S 0.11831(6) 0.36718(3) 0.52775(3)
O1 O -0.08194(14) 0.20249(9) 0.43659(8)
O2 O -0.29699(12) 0.15836(7) 0.42745(7)
O3 O -0.19247(14) 0.18146(8) 0.68321(8)
O4 O -0.28731(16) 0.30785(9) 0.69706(9)
O5 O -0.11983(17) 0.39213(8) 0.67764(9)
O6 O 0.05322(15) 0.41066(8) 0.47259(8)
O7 O 0.19776(14) 0.31223(7) 0.51113(8)
N1 N -0.10900(15) 0.27398(9) 0.63271(9)
N2 N -0.00335(15) 0.34383(9) 0.56738(9)
C1 C -0.5891(2) 0.07410(12) 0.47690(13)
H1 H -0.5526 0.0636 0.5232
C2 C -0.7219(2) 0.05587(12) 0.44702(16)
H2 H -0.7739 0.0327 0.4732
C3 C -0.7777(2) 0.07169(14) 0.37912(17)
H3 H -0.8673 0.0594 0.3592
C4 C -0.7010(2) 0.10567(14) 0.34083(14)
H4 H -0.7389 0.1171 0.2949
C5 C -0.5672(2) 0.12309(12) 0.37006(13)
H5 H -0.5152 0.1454 0.3433
C6 C -0.50978(19) 0.10784(10) 0.43856(12)
C7 C -0.36964(19) 0.12657(10) 0.47059(11)
C8 C -0.28980(19) 0.12297(10) 0.53447(11)
H6 H -0.3137 0.1029 0.5728
C9 C -0.16227(18) 0.15480(10) 0.53420(10)
C10 C -0.1737(2) 0.17489(11) 0.46809(11)
C11 C -0.1276(2) 0.23456(13) 0.36900(11)
H7 H -0.1867 0.2035 0.3374
C12 C 0.0017(3) 0.24594(16) 0.34405(13)
H8 H 0.0621 0.2742 0.3765
H9 H -0.0195 0.2674 0.2994
H10 H 0.0454 0.2035 0.3403
C13 C -0.2042(3) 0.29725(14) 0.37529(15)
H11 H -0.1461 0.3280 0.4059
H12 H -0.2830 0.2869 0.3938
H13 H -0.2331 0.3175 0.3303
C14 C -0.04853(18) 0.16584(10) 0.59838(10)
C15 C 0.01710(18) 0.09998(10) 0.62781(11)
C16 C 0.0451(2) 0.08425(12) 0.69784(12)
H14 H 0.0184 0.1136 0.7292
C17 C 0.1125(3) 0.02534(14) 0.72160(14)
H15 H 0.1296 0.0151 0.7687
C18 C 0.1542(2) -0.01795(13) 0.67666(16)
H16 H 0.1995 -0.0575 0.6930
C19 C 0.1289(2) -0.00277(12) 0.60735(14)
H17 H 0.1585 -0.0316 0.5765
C20 C 0.0591(2) 0.05565(11) 0.58328(12)
H18 H 0.0403 0.0650 0.5359
C21 C -0.12452(19) 0.20426(11) 0.64560(11)
C22 C -0.01435(18) 0.28487(11) 0.59078(10)
C23 C 0.05742(17) 0.21881(9) 0.58464(10)
H19 H 0.0710 0.2136 0.5371
C24 C 0.19499(18) 0.21686(10) 0.63552(11)
C25 C 0.2129(2) 0.23918(11) 0.70287(12)
H20 H 0.1387 0.2562 0.7188
C26 C 0.3403(3) 0.23656(14) 0.74714(14)
H21 H 0.3511 0.2514 0.7928
C27 C 0.4499(3) 0.21248(14) 0.72439(19)
H22 H 0.5358 0.2114 0.7542
C28 C 0.4335(2) 0.18999(14) 0.65794(18)
H23 H 0.5085 0.1732 0.6426
C29 C 0.3068(2) 0.19182(11) 0.61310(13)
H24 H 0.2967 0.1762 0.5678
C30 C -0.3137(2) 0.35674(13) 0.57271(12)
C31 C -0.3036(2) 0.41750(14) 0.54105(15)
H25 H -0.2350 0.4479 0.5602
C32 C -0.3962(3) 0.43281(15) 0.48076(16)
H26 H -0.3899 0.4740 0.4594
C33 C -0.4985(3) 0.38846(17) 0.45117(14)
C34 C -0.5031(2) 0.32660(16) 0.48246(15)
H27 H -0.5689 0.2954 0.4622
C35 C -0.4118(2) 0.31040(13) 0.54323(14)
H28 H -0.4162 0.2687 0.5641
C36 C -0.6048(3) 0.40709(17) 0.38690(14)
H29 H -0.5933 0.3793 0.3487
H30 H -0.5939 0.4535 0.3757
H31 H -0.6947 0.4003 0.3955
C37 C 0.2167(2) 0.41494(11) 0.59523(12)
C38 C 0.1646(3) 0.47433(13) 0.61449(15)
H32 H 0.0797 0.4898 0.5906
C39 C 0.2394(3) 0.51080(13) 0.66954(16)
H33 H 0.2031 0.5504 0.6831
C40 C 0.3673(3) 0.48954(15) 0.70480(15)
C41 C 0.4169(2) 0.43070(14) 0.68354(14)
H34 H 0.5034 0.4161 0.7062
C42 C 0.3438(2) 0.39256(12) 0.63011(12)
H35 H 0.3792 0.3523 0.6176
C43 C 0.4454(3) 0.52985(15) 0.76542(16)
H36 H 0.5020 0.5003 0.7980
H37 H 0.3820 0.5525 0.7878
H38 H 0.5018 0.5624 0.7490
loop_
_geom_bond_atom_site_label_1
_geom_bond_atom_site_label_2
_geom_bond_site_symmetry_1
_geom_bond_site_symmetry_2
S1 O4 1_555 1_555
S2 O6 1_555 1_555
O1 C10 1_555 1_555
O2 C7 1_555 1_555
O3 C21 1_555 1_555
O5 S1 1_555 1_555
O7 S2 1_555 1_555
N1 S1 1_555 1_555
N2 S2 1_555 1_555
C1 H1 1_555 1_555
C2 C1 1_555 1_555
H2 C2 1_555 1_555
C3 C2 1_555 1_555
H3 C3 1_555 1_555
C4 C3 1_555 1_555
H4 C4 1_555 1_555
C5 C4 1_555 1_555
H5 C5 1_555 1_555
C6 C1 1_555 1_555
C7 C6 1_555 1_555
C8 C7 1_555 1_555
H6 C8 1_555 1_555
C9 C8 1_555 1_555
C10 O2 1_555 1_555
C11 O1 1_555 1_555
H7 C11 1_555 1_555
C12 C11 1_555 1_555
H8 C12 1_555 1_555
H9 C12 1_555 1_555
H10 C12 1_555 1_555
C13 C11 1_555 1_555
H11 C13 1_555 1_555
H12 C13 1_555 1_555
H13 C13 1_555 1_555
C14 C9 1_555 1_555
C15 C14 1_555 1_555
C16 C15 1_555 1_555
H14 C16 1_555 1_555
C17 C16 1_555 1_555
H15 C17 1_555 1_555
C18 C17 1_555 1_555
H16 C18 1_555 1_555
C19 C18 1_555 1_555
H17 C19 1_555 1_555
C20 C15 1_555 1_555
H18 C20 1_555 1_555
C21 N1 1_555 1_555
C22 N1 1_555 1_555
C23 C14 1_555 1_555
H19 C23 1_555 1_555
C24 C23 1_555 1_555
C25 C24 1_555 1_555
H20 C25 1_555 1_555
C26 C25 1_555 1_555
H21 C26 1_555 1_555
C27 C26 1_555 1_555
H22 C27 1_555 1_555
C28 C27 1_555 1_555
H23 C28 1_555 1_555
C29 C24 1_555 1_555
H24 C29 1_555 1_555
C30 S1 1_555 1_555
C31 C30 1_555 1_555
H25 C31 1_555 1_555
C32 C31 1_555 1_555
H26 C32 1_555 1_555
C33 C32 1_555 1_555
C34 C33 1_555 1_555
H27 C34 1_555 1_555
C35 C30 1_555 1_555
H28 C35 1_555 1_555
C36 C33 1_555 1_555
H29 C36 1_555 1_555
H30 C36 1_555 1_555
H31 C36 1_555 1_555
C37 S2 1_555 1_555
C38 C37 1_555 1_555
H32 C38 1_555 1_555
C39 C38 1_555 1_555
H33 C39 1_555 1_555
C40 C39 1_555 1_555
C41 C40 1_555 1_555
H34 C41 1_555 1_555
C42 C37 1_555 1_555
H35 C42 1_555 1_555
C43 C40 1_555 1_555
H36 C43 1_555 1_555
H37 C43 1_555 1_555
H38 C43 1_555 1_555
N2 C22 1_555 1_555
C5 C6 1_555 1_555
C9 C10 1_555 1_555
C14 C21 1_555 1_555
C19 C20 1_555 1_555
C22 C23 1_555 1_555
C28 C29 1_555 1_555
C34 C35 1_555 1_555
C41 C42 1_555 1_555

#END
