
#######################################################################
#
#                 Cambridge Crystallographic Data Centre
#                                CCDC 
#
#######################################################################
#
# If this CIF has been generated from an entry in the Cambridge 
# Structural Database, then it will include bibliographic, chemical, 
# crystal, experimental, refinement or atomic coordinate data resulting 
# from the CCDC's data processing and validation procedures.
#
#######################################################################

data_EJIXAX
_chemical_formula_moiety         'C25 H17 N1 O4 S1'
_chemical_name_systematic        
1-((4-Methylphenyl)sulfonyl)-3-phenyl-4-(phenylethynyl)-1H-pyrrole-2,5-dione
_symmetry_cell_setting           monoclinic
_symmetry_space_group_name_H-M   'P 21/n'
_symmetry_Int_Tables_number      14
_space_group_name_Hall           '-P 2yn'
loop_
_symmetry_equiv_pos_site_id
_symmetry_equiv_pos_as_xyz
1 x,y,z
2 1/2-x,1/2+y,1/2-z
3 -x,-y,-z
4 1/2+x,1/2-y,1/2+z
_cell_length_a                   12.3502(5)
_cell_length_b                   7.6220(3)
_cell_length_c                   22.3526(8)
_cell_angle_alpha                90
_cell_angle_beta                 96.667(4)
_cell_angle_gamma                90
_cell_volume                     2089.89
_exptl_crystal_colour            yellow
_exptl_crystal_description       prism
_chemical_melting_point          '198-199 deg.C'
_cell_formula_units_Z            4
loop_
_atom_site_label
_atom_site_type_symbol
_atom_site_fract_x
_atom_site_fract_y
_atom_site_fract_z
S1 S 0.86540(4) -0.02115(6) 0.87151(2)
O1 O 0.90223(10) -0.14140(17) 0.91801(6)
O2 O 0.85945(10) -0.07081(17) 0.81005(6)
O3 O 0.64461(10) 0.04420(18) 0.78626(6)
O4 O 0.76915(11) 0.0751(2) 0.98707(6)
N1 N 0.73721(11) 0.03629(19) 0.88320(6)
C1 C 0.35514(18) 0.1282(3) 0.87343(11)
H1 H 0.3645 0.0782 0.9116
C2 C 0.2510(2) 0.1688(4) 0.84660(15)
H2 H 0.1908 0.1463 0.8668
C3 C 0.2374(2) 0.2421(4) 0.79028(17)
H3 H 0.1677 0.2697 0.7725
C4 C 0.3248(2) 0.2750(3) 0.75990(12)
H4 H 0.3145 0.3250 0.7217
C5 C 0.42886(18) 0.2338(3) 0.78602(10)
H5 H 0.4882 0.2544 0.7649
C6 C 0.44538(15) 0.1621(2) 0.84350(9)
C7 C 0.55488(14) 0.1258(2) 0.87295(8)
C8 C 0.64591(14) 0.0652(2) 0.83929(9)
C9 C 0.70879(16) 0.0824(2) 0.94084(9)
C10 C 0.59355(15) 0.1398(2) 0.93158(8)
C11 C 0.54247(15) 0.2049(2) 0.98056(9)
C12 C 0.50186(15) 0.2636(2) 1.02202(9)
C13 C 0.44609(16) 0.3295(2) 1.07009(8)
C14 C 0.49554(17) 0.3312(2) 1.12926(9)
H6 H 0.5674 0.2943 1.1382
C15 C 0.4370(2) 0.3881(3) 1.17467(9)
H7 H 0.4693 0.3880 1.2144
C16 C 0.3321(2) 0.4445(3) 1.16164(11)
H8 H 0.2935 0.4827 1.1925
C17 C 0.28337(18) 0.4453(3) 1.10368(11)
H9 H 0.2118 0.4839 1.0951
C18 C 0.34007(17) 0.3892(3) 1.05801(9)
H10 H 0.3069 0.3913 1.0185
C19 C 1.13200(18) 0.6377(3) 0.90859(11)
H11 H 1.1222 0.7079 0.8727
H12 H 1.2068 0.6018 0.9163
H13 H 1.1128 0.7052 0.9421
C20 C 1.06039(15) 0.4787(3) 0.90038(9)
C21 C 1.06046(15) 0.3552(3) 0.94561(9)
H14 H 1.1025 0.3748 0.9823
C22 C 0.99978(15) 0.2040(3) 0.93772(8)
H15 H 1.0005 0.1224 0.9687
C23 C 0.93770(13) 0.1750(2) 0.88313(8)
C24 C 0.93390(14) 0.2986(2) 0.83785(8)
H16 H 0.8906 0.2802 0.8015
C25 C 0.99462(16) 0.4487(3) 0.84697(9)
H17 H 0.9915 0.5323 0.8165
loop_
_geom_bond_atom_site_label_1
_geom_bond_atom_site_label_2
_geom_bond_site_symmetry_1
_geom_bond_site_symmetry_2
S1 O1 1_555 1_555
O2 S1 1_555 1_555
O3 C8 1_555 1_555
O4 C9 1_555 1_555
N1 S1 1_555 1_555
C1 H1 1_555 1_555
C2 C1 1_555 1_555
H2 C2 1_555 1_555
C3 C2 1_555 1_555
H3 C3 1_555 1_555
C4 C3 1_555 1_555
H4 C4 1_555 1_555
C5 C4 1_555 1_555
H5 C5 1_555 1_555
C6 C1 1_555 1_555
C7 C6 1_555 1_555
C8 N1 1_555 1_555
C9 N1 1_555 1_555
C10 C7 1_555 1_555
C11 C10 1_555 1_555
C12 C11 1_555 1_555
C13 C12 1_555 1_555
C14 C13 1_555 1_555
H6 C14 1_555 1_555
C15 C14 1_555 1_555
H7 C15 1_555 1_555
C16 C15 1_555 1_555
H8 C16 1_555 1_555
C17 C16 1_555 1_555
H9 C17 1_555 1_555
C18 C13 1_555 1_555
H10 C18 1_555 1_555
C19 H11 1_555 1_555
H12 C19 1_555 1_555
H13 C19 1_555 1_555
C20 C19 1_555 1_555
C21 C20 1_555 1_555
H14 C21 1_555 1_555
C22 C21 1_555 1_555
H15 C22 1_555 1_555
C23 S1 1_555 1_555
C24 C23 1_555 1_555
H16 C24 1_555 1_555
C25 C20 1_555 1_555
H17 C25 1_555 1_555
C5 C6 1_555 1_555
C7 C8 1_555 1_555
C9 C10 1_555 1_555
C17 C18 1_555 1_555
C22 C23 1_555 1_555
C24 C25 1_555 1_555

#END
