
#######################################################################
#
#                 Cambridge Crystallographic Data Centre
#                                CCDC 
#
#######################################################################
#
# If this CIF has been generated from an entry in the Cambridge 
# Structural Database, then it will include bibliographic, chemical, 
# crystal, experimental, refinement or atomic coordinate data resulting 
# from the CCDC's data processing and validation procedures.
#
#######################################################################

data_EJIYAZ
_chemical_formula_moiety         'C20 H12 N4 O2 S2'
_chemical_name_systematic        
5,10-bis(4-Methyl-2-thienyl)[1,2,5]oxadiazolo[3',4':5,6]naphtho[1,2-c][1,2,5]oxadiazole
_symmetry_cell_setting           monoclinic
_symmetry_space_group_name_H-M   'P 21/n'
_symmetry_Int_Tables_number      14
_space_group_name_Hall           '-P 2yn'
loop_
_symmetry_equiv_pos_site_id
_symmetry_equiv_pos_as_xyz
1 x,y,z
2 1/2-x,1/2+y,1/2-z
3 -x,-y,-z
4 1/2+x,1/2-y,1/2+z
_cell_length_a                   4.74630(10)
_cell_length_b                   10.0444(2)
_cell_length_c                   17.8813(3)
_cell_angle_alpha                90
_cell_angle_beta                 96.1637(13)
_cell_angle_gamma                90
_cell_volume                     847.54
_exptl_crystal_colour            red
_exptl_crystal_description       platelet
_cell_formula_units_Z            2
loop_
_atom_site_label
_atom_site_type_symbol
_atom_site_fract_x
_atom_site_fract_y
_atom_site_fract_z
C1 C 0.3969(4) 0.35996(19) 0.55738(11)
C2 C 0.1701(4) 0.30122(19) 0.50915(12)
C3 C 0.0776(4) 0.35498(19) 0.43554(11)
C4 C 0.2239(4) 0.46612(18) 0.41655(11)
H1 H 0.1707 0.5064 0.3691
C5 C 0.4518(4) 0.52415(19) 0.46448(11)
C6 C -0.1529(4) 0.2950(2) 0.38697(11)
C7 C -0.3149(4) 0.1843(2) 0.39959(12)
H2 H -0.2907 0.1338 0.4447
C8 C -0.5220(5) 0.1535(2) 0.33813(12)
C9 C -0.5135(5) 0.2422(2) 0.28055(12)
H3 H -0.6366 0.2381 0.2351
C10 C -0.7256(5) 0.0392(2) 0.33720(14)
H4 H -0.8988 0.0611 0.3046
H5 H -0.7726 0.0223 0.3884
H6 H -0.6385 -0.0405 0.3180
S1 S -0.25781(11) 0.36160(5) 0.29898(3)
N1 N 0.4355(4) 0.29336(17) 0.62115(10)
N2 N 0.0710(4) 0.19886(17) 0.54388(10)
O1 O 0.2334(3) 0.19359(14) 0.61275(8)
C1B C 0.6031(4) 0.64004(19) 0.44262(11)
C2B C 0.8299(4) 0.69878(19) 0.49085(12)
C3B C 0.9224(4) 0.64502(19) 0.56446(11)
C4B C 0.7761(4) 0.53388(18) 0.58345(11)
H1B H 0.8293 0.4936 0.6309
C5B C 0.5482(4) 0.47585(19) 0.53552(11)
C6B C 1.1529(4) 0.7050(2) 0.61303(11)
C7B C 1.3149(4) 0.8157(2) 0.60041(12)
H2B H 1.2907 0.8662 0.5553
C8B C 1.5220(5) 0.8465(2) 0.66187(12)
C9B C 1.5135(5) 0.7578(2) 0.71945(12)
H3B H 1.6366 0.7619 0.7649
C10B C 1.7256(5) 0.9608(2) 0.66280(14)
H4B H 1.8988 0.9389 0.6954
H5B H 1.7726 0.9777 0.6116
H6B H 1.6385 1.0405 0.6820
S1B S 1.25781(11) 0.63840(5) 0.70102(3)
N1B N 0.5645(4) 0.70664(17) 0.37885(10)
N2B N 0.9290(4) 0.80114(17) 0.45612(10)
O1B O 0.7666(3) 0.80641(14) 0.38725(8)
loop_
_geom_bond_atom_site_label_1
_geom_bond_atom_site_label_2
_geom_bond_site_symmetry_1
_geom_bond_site_symmetry_2
C1 C2 1_555 1_555
C2 C3 1_555 1_555
C3 C4 1_555 1_555
C4 H1 1_555 1_555
C5 C4 1_555 1_555
C6 C3 1_555 1_555
C7 C6 1_555 1_555
H2 C7 1_555 1_555
C8 C7 1_555 1_555
C9 C8 1_555 1_555
H3 C9 1_555 1_555
C10 C8 1_555 1_555
H4 C10 1_555 1_555
H5 C10 1_555 1_555
H6 C10 1_555 1_555
S1 C6 1_555 1_555
N1 C1 1_555 1_555
N2 C2 1_555 1_555
O1 N1 1_555 1_555
C1B C5 1_555 1_555
C2B C1B 1_555 1_555
C3B C2B 1_555 1_555
C4B C3B 1_555 1_555
H1B C4B 1_555 1_555
C5B C1 1_555 1_555
C6B C3B 1_555 1_555
C7B C6B 1_555 1_555
H2B C7B 1_555 1_555
C8B C7B 1_555 1_555
C9B C8B 1_555 1_555
H3B C9B 1_555 1_555
C10B C8B 1_555 1_555
H4B C10B 1_555 1_555
H5B C10B 1_555 1_555
H6B C10B 1_555 1_555
S1B C6B 1_555 1_555
N1B C1B 1_555 1_555
N2B C2B 1_555 1_555
O1B N1B 1_555 1_555
C5 C5B 1_555 1_555
C9 S1 1_555 1_555
N2 O1 1_555 1_555
C4B C5B 1_555 1_555
C9B S1B 1_555 1_555
N2B O1B 1_555 1_555

#END
