
#######################################################################
#
#                 Cambridge Crystallographic Data Centre
#                                CCDC 
#
#######################################################################
#
# If this CIF has been generated from an entry in the Cambridge 
# Structural Database, then it will include bibliographic, chemical, 
# crystal, experimental, refinement or atomic coordinate data resulting 
# from the CCDC's data processing and validation procedures.
#
#######################################################################

data_EJIYED
_chemical_formula_moiety         'C20 H12 N4 S2 Se2'
_chemical_name_systematic        
5,10-bis(4-Methyl-2-thienyl)[1,2,5]selenadiazolo[3',4':5,6]naphtho[1,2-c][1,2,5]selenadiazole
_symmetry_cell_setting           monoclinic
_symmetry_space_group_name_H-M   'P 21/n'
_symmetry_Int_Tables_number      14
_space_group_name_Hall           '-P 2yn'
loop_
_symmetry_equiv_pos_site_id
_symmetry_equiv_pos_as_xyz
1 x,y,z
2 1/2-x,1/2+y,1/2-z
3 -x,-y,-z
4 1/2+x,1/2-y,1/2+z
_cell_length_a                   8.8022(2)
_cell_length_b                   4.60300(10)
_cell_length_c                   22.6036(4)
_cell_angle_alpha                90
_cell_angle_beta                 90.6026(8)
_cell_angle_gamma                90
_cell_volume                     915.769
_exptl_crystal_colour            red
_exptl_crystal_description       platelet
_cell_formula_units_Z            2
loop_
_atom_site_label
_atom_site_type_symbol
_atom_site_fract_x
_atom_site_fract_y
_atom_site_fract_z
C1 C 0.0728(3) 0.5431(6) -0.00686(12)
C2 C 0.1962(3) 0.4036(6) 0.02546(12)
C3 C 0.1634(4) 0.1909(7) 0.07196(13)
C4 C 0.0068(3) 0.1078(6) 0.08392(11)
C5 C -0.1038(4) 0.2427(5) 0.05107(14)
H1 H -0.2066 0.1916 0.0579
C6 C -0.0303(3) -0.1100(6) 0.12845(12)
C7 C 0.0636(4) -0.2677(6) 0.16517(14)
H2 H 0.1712 -0.2532 0.1646
C8 C -0.0167(3) -0.4569(6) 0.20464(12)
C9 C -0.1693(3) -0.4424(6) 0.19570(12)
H3 H -0.2406 -0.5539 0.2173
C10 C 0.0623(4) -0.6424(7) 0.25011(13)
H4 H 0.0869 -0.5246 0.2850
H5 H 0.1561 -0.7209 0.2335
H6 H -0.0045 -0.8028 0.2615
N1 N 0.2854(3) 0.0856(6) 0.09975(11)
N2 N 0.3401(3) 0.4620(5) 0.01569(10)
S1 S -0.21925(9) -0.19988(16) 0.14098(3)
Se1 Se 0.44915(4) 0.24873(6) 0.067170(14)
C1B C -0.0728(3) 0.4569(6) 0.00686(12)
C2B C -0.1962(3) 0.5964(6) -0.02546(12)
C3B C -0.1634(4) 0.8091(7) -0.07196(13)
C4B C -0.0068(3) 0.8922(6) -0.08392(11)
C5B C 0.1038(4) 0.7573(5) -0.05107(14)
H1B H 0.2066 0.8084 -0.0579
C6B C 0.0303(3) 1.1100(6) -0.12845(12)
C7B C -0.0636(4) 1.2677(6) -0.16517(14)
H2B H -0.1712 1.2532 -0.1646
C8B C 0.0167(3) 1.4569(6) -0.20464(12)
C9B C 0.1693(3) 1.4424(6) -0.19570(12)
H3B H 0.2406 1.5539 -0.2173
C10B C -0.0623(4) 1.6424(7) -0.25011(13)
H4B H -0.0869 1.5246 -0.2850
H5B H -0.1561 1.7209 -0.2335
H6B H 0.0045 1.8028 -0.2615
N1B N -0.2854(3) 0.9144(6) -0.09975(11)
N2B N -0.3401(3) 0.5380(5) -0.01569(10)
S1B S 0.21925(9) 1.19988(16) -0.14098(3)
Se1B Se -0.44915(4) 0.75127(6) -0.067170(14)
loop_
_geom_bond_atom_site_label_1
_geom_bond_atom_site_label_2
_geom_bond_site_symmetry_1
_geom_bond_site_symmetry_2
C1 C2 1_555 1_555
C2 C3 1_555 1_555
C3 C4 1_555 1_555
C4 C5 1_555 1_555
C5 H1 1_555 1_555
C6 C4 1_555 1_555
C7 C6 1_555 1_555
H2 C7 1_555 1_555
C8 C7 1_555 1_555
C9 C8 1_555 1_555
H3 C9 1_555 1_555
C10 C8 1_555 1_555
H4 C10 1_555 1_555
H5 C10 1_555 1_555
H6 C10 1_555 1_555
N1 C3 1_555 1_555
N2 C2 1_555 1_555
S1 C6 1_555 1_555
Se1 N1 1_555 1_555
C1B C1 1_555 1_555
C2B C1B 1_555 1_555
C3B C2B 1_555 1_555
C4B C3B 1_555 1_555
C5B C1 1_555 1_555
H1B C5B 1_555 1_555
C6B C4B 1_555 1_555
C7B C6B 1_555 1_555
H2B C7B 1_555 1_555
C8B C7B 1_555 1_555
C9B C8B 1_555 1_555
H3B C9B 1_555 1_555
C10B C8B 1_555 1_555
H4B C10B 1_555 1_555
H5B C10B 1_555 1_555
H6B C10B 1_555 1_555
N1B C3B 1_555 1_555
N2B C2B 1_555 1_555
S1B C6B 1_555 1_555
Se1B N1B 1_555 1_555
C5 C1B 1_555 1_555
C9 S1 1_555 1_555
N2 Se1 1_555 1_555
C4B C5B 1_555 1_555
C9B S1B 1_555 1_555
N2B Se1B 1_555 1_555

#END
