
#######################################################################
#
#                 Cambridge Crystallographic Data Centre
#                                CCDC 
#
#######################################################################
#
# If this CIF has been generated from an entry in the Cambridge 
# Structural Database, then it will include bibliographic, chemical, 
# crystal, experimental, refinement or atomic coordinate data resulting 
# from the CCDC's data processing and validation procedures.
#
#######################################################################

data_EJIZON
_chemical_formula_moiety         'C6 H4 S1 Se1'
_chemical_name_systematic        selenopheno[3,2-b]thiophene
_symmetry_cell_setting           orthorhombic
_symmetry_space_group_name_H-M   'P b c a'
_symmetry_Int_Tables_number      61
_space_group_name_Hall           '-P 2ac 2ab'
loop_
_symmetry_equiv_pos_site_id
_symmetry_equiv_pos_as_xyz
1 x,y,z
2 1/2-x,-y,1/2+z
3 -x,1/2+y,1/2-z
4 1/2+x,1/2-y,-z
5 -x,-y,-z
6 1/2+x,y,1/2-z
7 x,1/2-y,1/2+z
8 1/2-x,1/2+y,z
_cell_length_a                   9.9543(7)
_cell_length_b                   5.9678(4)
_cell_length_c                   10.1404(7)
_cell_angle_alpha                90
_cell_angle_beta                 90
_cell_angle_gamma                90
_cell_volume                     602.393
_chemical_melting_point          '359 K'
_cell_formula_units_Z            4
loop_
_atom_site_label
_atom_site_type_symbol
_atom_site_fract_x
_atom_site_fract_y
_atom_site_fract_z
Se1 Se -0.110755(18) -0.25974(3) 0.60481(2)
S1 S 0.110755(18) 0.25974(3) 0.39519(2)
C1 C -0.06547(11) -0.03562(19) 0.48977(11)
C2 C 0.05689(14) -0.2324(2) 0.67456(14)
H1 H 0.0812(18) -0.320(3) 0.747(2)
C3 C 0.13485(13) -0.0752(2) 0.61464(12)
H2 H 0.2250(19) -0.055(3) 0.6418(17)
Se1D Se 0.110755(18) 0.25974(3) 0.39519(2)
S1D S -0.110755(18) -0.25974(3) 0.60481(2)
C1D C 0.06547(11) 0.03562(19) 0.51023(11)
C2D C -0.05689(14) 0.2324(2) 0.32544(14)
H1D H -0.0812(18) 0.320(3) 0.253(2)
C3D C -0.13485(13) 0.0752(2) 0.38536(12)
H2D H -0.2250(19) 0.055(3) 0.3582(17)
loop_
_geom_bond_atom_site_label_1
_geom_bond_atom_site_label_2
_geom_bond_site_symmetry_1
_geom_bond_site_symmetry_2
Se1 C1 1_555 1_555
S1 C1D 1_555 1_555
C1 S1D 1_555 1_555
C2 Se1 1_555 1_555
H1 C2 1_555 1_555
C3 C2 1_555 1_555
H2 C3 1_555 1_555
Se1D C1D 1_555 1_555
S1D C2 1_555 1_555
C1D C1 1_555 1_555
C2D S1 1_555 1_555
H1D C2D 1_555 1_555
C3D C1 1_555 1_555
H2D C3D 1_555 1_555
C3 C1D 1_555 1_555
Se1D C2D 1_555 1_555
C2D C3D 1_555 1_555

#END
