
#######################################################################
#
#                 Cambridge Crystallographic Data Centre
#                                CCDC 
#
#######################################################################
#
# If this CIF has been generated from an entry in the Cambridge 
# Structural Database, then it will include bibliographic, chemical, 
# crystal, experimental, refinement or atomic coordinate data resulting 
# from the CCDC's data processing and validation procedures.
#
#######################################################################

data_EJOBAH
_chemical_name_common            
4,5-bis(methylthio)-4',5'-bis(propylcarbamoyl)tetrathiafulvalene
_chemical_formula_moiety         'C16 H22 N2 O2 S6'
_chemical_name_systematic        
2-(4,5-Bis(methylsulfanyl)-1,3-dithiol-2-ylidene)-N,N'-dipropyl-1,3-dithiole-4,5-dicarboxamide
_symmetry_cell_setting           triclinic
_symmetry_space_group_name_H-M   'P -1'
_symmetry_Int_Tables_number      2
_space_group_name_Hall           '-P 1'
loop_
_symmetry_equiv_pos_site_id
_symmetry_equiv_pos_as_xyz
1 x,y,z
2 -x,-y,-z
_cell_length_a                   9.2527(13)
_cell_length_b                   9.6356(14)
_cell_length_c                   13.2935(19)
_cell_angle_alpha                96.214(2)
_cell_angle_beta                 110.077(2)
_cell_angle_gamma                94.487(2)
_cell_volume                     1098.14
_exptl_crystal_colour            red
_exptl_crystal_description       rod
_chemical_melting_point          '146 deg.C'
_cell_formula_units_Z            2
loop_
_atom_site_label
_atom_site_type_symbol
_atom_site_fract_x
_atom_site_fract_y
_atom_site_fract_z
C1 C 0.1796(4) 0.4589(4) 0.3691(3)
C2 C 0.2849(4) 0.3711(3) 0.4088(3)
C3 C 0.2112(4) 0.3210(4) 0.2006(3)
C4 C 0.2004(5) 0.2715(4) 0.0999(3)
C5 C 0.0880(5) 0.1823(5) -0.1049(3)
C6 C 0.1999(6) 0.1005(5) -0.0636(3)
C7 C -0.2208(6) 0.1629(6) -0.2329(4)
H1 H -0.2441 0.0801 -0.2044
H2 H -0.2961 0.1624 -0.3039
H3 H -0.2237 0.2450 -0.1862
C8 C 0.2683(8) -0.1730(6) -0.0578(5)
H4 H 0.3535 -0.1450 0.0094
H5 H 0.2871 -0.2564 -0.0955
H6 H 0.1744 -0.1920 -0.0433
S1 S 0.10141(12) 0.45168(11) 0.22832(8)
S2 S 0.34089(12) 0.26584(11) 0.31560(7)
S3 S 0.07885(13) 0.32913(12) -0.01724(8)
S4 S 0.31808(14) 0.14828(13) 0.07307(9)
S5 S -0.03058(17) 0.16513(16) -0.24110(9)
S6 S 0.2494(2) -0.03341(18) -0.14002(11)
C9 C 0.1177(4) 0.5652(4) 0.4297(3)
C10 C 0.1818(5) 0.7526(5) 0.5837(4)
H7 H 0.2609 0.7629 0.6553
H8 H 0.0847 0.7156 0.5893
C11 C 0.1659(7) 0.8916(5) 0.5496(4)
H9 H 0.1365 0.9509 0.6014
H10 H 0.0819 0.8818 0.4803
C12 C 0.3087(9) 0.9653(6) 0.5392(6)
H11 H 0.3903 0.9838 0.6088
H12 H 0.2856 1.0526 0.5122
H13 H 0.3413 0.9066 0.4899
O1 O -0.0235(3) 0.5658(3) 0.4010(2)
N1 N 0.2224(4) 0.6508(3) 0.5114(3)
H14 H 0.3189 0.6461 0.5223
C13 C 0.3726(4) 0.3483(4) 0.5224(3)
O2 O 0.5063(3) 0.3181(3) 0.5433(2)
N2 N 0.3000(4) 0.3505(4) 0.5921(3)
H15 H 0.2062 0.3703 0.5716
C14 C 0.3717(7) 0.3208(8) 0.7028(4)
H16 H 0.4750 0.2953 0.7146
H17 H 0.3100 0.2439 0.7163
C16 C 0.4658(15) 0.4297(15) 0.8926(8)
H20 H 0.4837 0.5001 0.9539
H21 H 0.5634 0.4059 0.8900
H22 H 0.4062 0.3473 0.8990
C17 C 0.4661(19) 0.4179(17) 0.7848(10)
C15? C 0.3809(14) 0.4842(15) 0.7935(7)
H18? H 0.4390 0.5644 0.7807
H19? H 0.2793 0.5066 0.7907
H23? H 0.4301 0.2425 0.6987
H24? H 0.2877 0.2867 0.7252
H25? H 0.5712 0.4052 0.7898
H26? H 0.4475 0.5089 0.7614
H27? H 0.4924 0.3443 0.9215
H28? H 0.3645 0.4459 0.8921
H29? H 0.5403 0.5070 0.9367
loop_
_geom_bond_atom_site_label_1
_geom_bond_atom_site_label_2
_geom_bond_site_symmetry_1
_geom_bond_site_symmetry_2
C1 C2 1_555 1_555
C2 S2 1_555 1_555
C3 C4 1_555 1_555
C4 S3 1_555 1_555
C5 C6 1_555 1_555
C6 S4 1_555 1_555
C7 H1 1_555 1_555
H2 C7 1_555 1_555
H3 C7 1_555 1_555
C8 H4 1_555 1_555
H5 C8 1_555 1_555
H6 C8 1_555 1_555
S1 C1 1_555 1_555
S2 C3 1_555 1_555
S3 C5 1_555 1_555
S4 C4 1_555 1_555
S5 C5 1_555 1_555
S6 C6 1_555 1_555
C9 C1 1_555 1_555
C10 H7 1_555 1_555
H8 C10 1_555 1_555
C11 C10 1_555 1_555
H9 C11 1_555 1_555
H10 C11 1_555 1_555
C12 C11 1_555 1_555
H11 C12 1_555 1_555
H12 C12 1_555 1_555
H13 C12 1_555 1_555
O1 C9 1_555 1_555
N1 C9 1_555 1_555
H14 N1 1_555 1_555
C13 C2 1_555 1_555
O2 C13 1_555 1_555
N2 C13 1_555 1_555
H15 N2 1_555 1_555
C14 N2 1_555 1_555
H16 C14 1_555 1_555
H17 C14 1_555 1_555
C16 H20 1_555 1_555
H21 C16 1_555 1_555
H22 C16 1_555 1_555
C17 C14 1_555 1_555
C3 S1 1_555 1_555
C7 S5 1_555 1_555
C8 S6 1_555 1_555
C10 N1 1_555 1_555
C16 C17 1_555 1_555

#END
