
#######################################################################
#
#                 Cambridge Crystallographic Data Centre
#                                CCDC 
#
#######################################################################
#
# If this CIF has been generated from an entry in the Cambridge 
# Structural Database, then it will include bibliographic, chemical, 
# crystal, experimental, refinement or atomic coordinate data resulting 
# from the CCDC's data processing and validation procedures.
#
#######################################################################

data_EJOGEP
_chemical_formula_moiety         'K1 1+,C2 H12 B9 1-'
_chemical_name_systematic        
'Potassium 9,10-\mH-7,8-dicarba-nido-undecaborate'
_symmetry_cell_setting           monoclinic
_symmetry_space_group_name_H-M   'P 21/n'
_symmetry_Int_Tables_number      14
_space_group_name_Hall           '-P 2yn'
loop_
_symmetry_equiv_pos_site_id
_symmetry_equiv_pos_as_xyz
1 x,y,z
2 1/2+x,1/2-y,1/2+z
3 -x,-y,-z
4 1/2-x,1/2+y,1/2-z
_cell_length_a                   7.2906(6)
_cell_length_b                   12.4670(11)
_cell_length_c                   9.9743(9)
_cell_angle_alpha                90
_cell_angle_beta                 90.953(2)
_cell_angle_gamma                90
_cell_volume                     906.458
_exptl_crystal_colour            colorless
_exptl_crystal_description       parallelepiped
_cell_formula_units_Z            4
loop_
_atom_site_label
_atom_site_type_symbol
_atom_site_fract_x
_atom_site_fract_y
_atom_site_fract_z
K1 K 0.75584(3) 0.445809(19) 0.81170(2)
C1 C 1.13448(14) 0.69417(9) 0.63861(11)
H1 H 1.0592(19) 0.7228(11) 0.5669(13)
B1 B 1.05074(16) 0.67171(11) 0.78424(12)
H2 H 0.9055(19) 0.6828(11) 0.8033(14)
C2 C 1.33847(14) 0.73129(9) 0.63852(10)
H3 H 1.3714(18) 0.7764(11) 0.5666(13)
B2 B 1.42064(16) 0.74346(10) 0.78946(12)
H4 H 1.5280(19) 0.7994(11) 0.8163(14)
H5 H 1.248(2) 0.7728(14) 0.8406(17)
B3 B 1.23818(15) 0.69689(9) 0.90243(12)
H6 H 1.2315(18) 0.7176(11) 1.0084(13)
B4 B 1.18303(15) 0.56443(10) 0.84831(12)
H7 H 1.138(2) 0.5081(13) 0.9226(15)
B5 B 1.11202(15) 0.56094(10) 0.67972(12)
H8 H 1.010(2) 0.5090(12) 0.6335(15)
B6 B 1.29541(16) 0.60437(10) 0.58027(11)
H9 H 1.3035(18) 0.5831(12) 0.4740(14)
B7 B 1.48467(15) 0.63060(9) 0.68622(11)
H10 H 1.6192(19) 0.6240(11) 0.6467(14)
B8 B 1.42016(15) 0.61059(9) 0.85421(11)
H11 H 1.5198(18) 0.5853(11) 0.9315(14)
B9 B 1.34013(15) 0.52226(10) 0.72273(12)
H12 H 1.3842(19) 0.4413(11) 0.7170(15)
loop_
_geom_bond_atom_site_label_1
_geom_bond_atom_site_label_2
_geom_bond_site_symmetry_1
_geom_bond_site_symmetry_2
C1 H1 1_555 1_555
B1 C1 1_555 1_555
H2 B1 1_555 1_555
C2 C1 1_555 1_555
H3 C2 1_555 1_555
B2 C2 1_555 1_555
H4 B2 1_555 1_555
H5 B2 1_555 1_555
B3 B1 1_555 1_555
H6 B3 1_555 1_555
B4 B1 1_555 1_555
H7 B4 1_555 1_555
B5 C1 1_555 1_555
H8 B5 1_555 1_555
B6 C1 1_555 1_555
H9 B6 1_555 1_555
B7 C2 1_555 1_555
H10 B7 1_555 1_555
B8 B2 1_555 1_555
H11 B8 1_555 1_555
B9 B4 1_555 1_555
H12 B9 1_555 1_555
B1 B5 1_555 1_555
C2 B6 1_555 1_555
B2 B3 1_555 1_555
B2 B7 1_555 1_555
H5 B3 1_555 1_555
B3 B4 1_555 1_555
B3 B8 1_555 1_555
B4 B8 1_555 1_555
B4 B5 1_555 1_555
B5 B6 1_555 1_555
B5 B9 1_555 1_555
B6 B9 1_555 1_555
B6 B7 1_555 1_555
B7 B8 1_555 1_555
B7 B9 1_555 1_555
B8 B9 1_555 1_555

#END
