
#######################################################################
#
#                 Cambridge Crystallographic Data Centre
#                                CCDC 
#
#######################################################################
#
# If this CIF has been generated from an entry in the Cambridge 
# Structural Database, then it will include bibliographic, chemical, 
# crystal, experimental, refinement or atomic coordinate data resulting 
# from the CCDC's data processing and validation procedures.
#
#######################################################################

data_EJONEY
_chemical_formula_moiety         'C19 H19 Br1 N2 O2'
_chemical_name_systematic        
2-(3-Bromophenyl)-N-t-butyl-3-oxoisoindoline-1-carboxamide
_symmetry_cell_setting           orthorhombic
_symmetry_space_group_name_H-M   'P 21 21 21'
_symmetry_Int_Tables_number      19
_space_group_name_Hall           'P 2ac 2ab'
loop_
_symmetry_equiv_pos_site_id
_symmetry_equiv_pos_as_xyz
1 x,y,z
2 1/2-x,-y,1/2+z
3 -x,1/2+y,1/2-z
4 1/2+x,1/2-y,-z
_cell_length_a                   9.933(2)
_cell_length_b                   16.317(3)
_cell_length_c                   21.629(4)
_cell_angle_alpha                90
_cell_angle_beta                 90
_cell_angle_gamma                90
_cell_volume                     3505.56
_exptl_crystal_colour            colorless
_exptl_crystal_description       block
_chemical_melting_point          '251-253 deg.C'
_cell_formula_units_Z            8
loop_
_atom_site_label
_atom_site_type_symbol
_atom_site_fract_x
_atom_site_fract_y
_atom_site_fract_z
Br1 Br -0.49159(4) -0.38000(3) 0.00484(2)
O1 O -0.4490(2) -0.33497(16) -0.30458(12)
O2 O -0.4857(3) -0.55048(17) -0.18516(13)
N1 N -0.2391(3) -0.31083(18) -0.34415(14)
H1 H -0.1631 -0.3345 -0.3510
N2 N -0.3412(3) -0.44961(18) -0.22297(14)
C1 C -0.3929(4) -0.3573(2) -0.06855(17)
C2 C -0.3160(4) -0.2869(3) -0.07138(19)
H2 H -0.3115 -0.2509 -0.0381
C3 C -0.2460(4) -0.2718(2) -0.1255(2)
H3 H -0.1930 -0.2250 -0.1286
C4 C -0.2534(4) -0.3252(2) -0.17533(18)
H4 H -0.2055 -0.3139 -0.2113
C5 C -0.3324(3) -0.3958(2) -0.17171(16)
C6 C -0.4025(4) -0.4120(2) -0.11703(18)
C7 C -0.4163(4) -0.5218(2) -0.22607(17)
C8 C -0.3932(4) -0.5557(2) -0.28850(18)
C9 C -0.3071(4) -0.5049(2) -0.32092(18)
C10 C -0.2738(4) -0.4316(2) -0.28141(17)
H5 H -0.1763 -0.4272 -0.2753
C11 C -0.2693(4) -0.5235(3) -0.38073(19)
H6 H -0.2118 -0.4894 -0.4029
C12 C -0.3203(4) -0.5950(3) -0.4067(2)
H7 H -0.2961 -0.6088 -0.4469
C13 C -0.4063(4) -0.6462(3) -0.3742(2)
H8 H -0.4387 -0.6935 -0.3930
C14 C -0.4447(4) -0.6278(2) -0.31408(19)
H9 H -0.5021 -0.6619 -0.2919
C15 C -0.3296(4) -0.3525(2) -0.31107(16)
C16 C -0.2579(4) -0.2272(2) -0.37016(19)
C17 C -0.2595(5) -0.1684(3) -0.3155(2)
H10 H -0.3336 -0.1816 -0.2888
H11 H -0.2693 -0.1132 -0.3303
H12 H -0.1766 -0.1732 -0.2930
C18 C -0.1363(4) -0.2115(3) -0.4114(2)
H13 H -0.0553 -0.2188 -0.3878
H14 H -0.1399 -0.1565 -0.4270
H15 H -0.1371 -0.2494 -0.4453
C19 C -0.3861(5) -0.2218(3) -0.4079(2)
H16 H -0.3863 -0.2642 -0.4387
H17 H -0.3907 -0.1693 -0.4278
H18 H -0.4625 -0.2285 -0.3812
H19 H -0.452(4) -0.459(2) -0.1138(18)
Br2 Br -0.21339(6) -0.39311(3) 0.46753(2)
O3 O -0.4474(3) -0.15387(17) 0.31270(13)
O4 O -0.4924(3) -0.34129(17) 0.16825(13)
N3 N -0.2307(3) -0.12861(17) 0.34254(13)
H20 H -0.1485 -0.1420 0.3352
N4 N -0.3522(3) -0.29189(19) 0.24607(14)
C20 C -0.3097(4) -0.4055(2) 0.39247(18)
C21 C -0.3897(4) -0.4735(2) 0.3841(2)
H21 H -0.3989 -0.5127 0.4150
C22 C -0.4562(4) -0.4815(3) 0.3281(2)
H22 H -0.5099 -0.5273 0.3212
C23 C -0.4446(4) -0.4232(2) 0.2821(2)
C24 C -0.3652(4) -0.3535(2) 0.29172(18)
C25 C -0.2952(4) -0.3456(2) 0.34742(18)
H23 H -0.2396 -0.3006 0.3542
C26 C -0.4141(4) -0.2905(2) 0.18847(18)
C27 C -0.3650(4) -0.2158(2) 0.15698(17)
C28 C -0.2774(4) -0.1750(2) 0.19575(17)
C29 C -0.2677(4) -0.2196(2) 0.25651(17)
H24 H -0.1746 -0.2353 0.2655
C30 C -0.2159(4) -0.1029(3) 0.17689(18)
H25 H -0.1576 -0.0746 0.2029
C31 C -0.2444(4) -0.0746(3) 0.1180(2)
H26 H -0.2036 -0.0267 0.1041
C32 C -0.3325(4) -0.1161(3) 0.07916(18)
H27 H -0.3498 -0.0955 0.0398
C33 C -0.3947(4) -0.1874(3) 0.09823(18)
H28 H -0.4542 -0.2154 0.0726
C34 C -0.3248(3) -0.1644(2) 0.30781(17)
C35 C -0.2540(4) -0.0680(2) 0.39261(17)
C36 C -0.3107(6) 0.0102(3) 0.3649(2)
H29 H -0.2498 0.0308 0.3341
H30 H -0.3219 0.0505 0.3969
H31 H -0.3964 -0.0011 0.3462
C37 C -0.1166(5) -0.0527(3) 0.4215(2)
H32 H -0.0804 -0.1035 0.4365
H33 H -0.1256 -0.0149 0.4552
H34 H -0.0570 -0.0302 0.3910
C38 C -0.3484(5) -0.1040(3) 0.44103(19)
H35 H -0.4360 -0.1118 0.4232
H36 H -0.3550 -0.0671 0.4755
H37 H -0.3137 -0.1558 0.4549
H38 H -0.493(5) -0.428(2) 0.246(2)
loop_
_geom_bond_atom_site_label_1
_geom_bond_atom_site_label_2
_geom_bond_site_symmetry_1
_geom_bond_site_symmetry_2
Br1 C1 1_555 1_555
O1 C15 1_555 1_555
O2 C7 1_555 1_555
N1 H1 1_555 1_555
N2 C5 1_555 1_555
C1 C2 1_555 1_555
C2 H2 1_555 1_555
C3 C2 1_555 1_555
H3 C3 1_555 1_555
C4 C3 1_555 1_555
H4 C4 1_555 1_555
C5 C4 1_555 1_555
C6 C1 1_555 1_555
C7 N2 1_555 1_555
C8 C7 1_555 1_555
C9 C8 1_555 1_555
C10 N2 1_555 1_555
H5 C10 1_555 1_555
C11 C9 1_555 1_555
H6 C11 1_555 1_555
C12 C11 1_555 1_555
H7 C12 1_555 1_555
C13 C12 1_555 1_555
H8 C13 1_555 1_555
C14 C8 1_555 1_555
H9 C14 1_555 1_555
C15 N1 1_555 1_555
C16 N1 1_555 1_555
C17 C16 1_555 1_555
H10 C17 1_555 1_555
H11 C17 1_555 1_555
H12 C17 1_555 1_555
C18 C16 1_555 1_555
H13 C18 1_555 1_555
H14 C18 1_555 1_555
H15 C18 1_555 1_555
C19 C16 1_555 1_555
H16 C19 1_555 1_555
H17 C19 1_555 1_555
H18 C19 1_555 1_555
H19 C6 1_555 1_555
Br2 C20 1_555 1_555
O3 C34 1_555 1_555
O4 C26 1_555 1_555
N3 H20 1_555 1_555
N4 C24 1_555 1_555
C20 C21 1_555 1_555
C21 H21 1_555 1_555
C22 C21 1_555 1_555
H22 C22 1_555 1_555
C23 C22 1_555 1_555
C24 C23 1_555 1_555
C25 C20 1_555 1_555
H23 C25 1_555 1_555
C26 N4 1_555 1_555
C27 C26 1_555 1_555
C28 C27 1_555 1_555
C29 N4 1_555 1_555
H24 C29 1_555 1_555
C30 C28 1_555 1_555
H25 C30 1_555 1_555
C31 C30 1_555 1_555
H26 C31 1_555 1_555
C32 C31 1_555 1_555
H27 C32 1_555 1_555
C33 C27 1_555 1_555
H28 C33 1_555 1_555
C34 N3 1_555 1_555
C35 N3 1_555 1_555
C36 C35 1_555 1_555
H29 C36 1_555 1_555
H30 C36 1_555 1_555
H31 C36 1_555 1_555
C37 C35 1_555 1_555
H32 C37 1_555 1_555
H33 C37 1_555 1_555
H34 C37 1_555 1_555
C38 C35 1_555 1_555
H35 C38 1_555 1_555
H36 C38 1_555 1_555
H37 C38 1_555 1_555
H38 C23 1_555 1_555
C5 C6 1_555 1_555
C9 C10 1_555 1_555
C10 C15 1_555 1_555
C13 C14 1_555 1_555
C24 C25 1_555 1_555
C28 C29 1_555 1_555
C29 C34 1_555 1_555
C32 C33 1_555 1_555

#END
