
#######################################################################
#
#                 Cambridge Crystallographic Data Centre
#                                CCDC 
#
#######################################################################
#
# If this CIF has been generated from an entry in the Cambridge 
# Structural Database, then it will include bibliographic, chemical, 
# crystal, experimental, refinement or atomic coordinate data resulting 
# from the CCDC's data processing and validation procedures.
#
#######################################################################

data_EJOPIE
_chemical_formula_moiety         'C24 H17 Br1 O1'
_chemical_name_systematic        
7-bromo-5-(4-methylphenyl)-11H-benzo[b]fluoren-11-ol
_symmetry_cell_setting           orthorhombic
_symmetry_space_group_name_H-M   'P b c n'
_symmetry_Int_Tables_number      60
_space_group_name_Hall           '-P 2n 2ab'
loop_
_symmetry_equiv_pos_site_id
_symmetry_equiv_pos_as_xyz
1 x,y,z
2 1/2-x,1/2-y,1/2+z
3 -x,y,1/2-z
4 1/2+x,1/2-y,-z
5 -x,-y,-z
6 1/2+x,1/2+y,1/2-z
7 x,-y,1/2+z
8 1/2-x,1/2+y,z
_cell_length_a                   36.320(3)
_cell_length_b                   5.2893(5)
_cell_length_c                   19.5296(18)
_cell_angle_alpha                90
_cell_angle_beta                 90
_cell_angle_gamma                90
_cell_volume                     3751.78
_exptl_crystal_colour            white
_exptl_crystal_description       block
_cell_formula_units_Z            8
loop_
_atom_site_label
_atom_site_type_symbol
_atom_site_fract_x
_atom_site_fract_y
_atom_site_fract_z
Br1 Br 0.05237(2) -0.53407(16) 0.27292(4)
O1 O 0.23683(11) 0.5420(8) 0.3719(2)
H1 H 0.2470 0.6764 0.3628
C1 C 0.20026(16) 0.5889(13) 0.3936(3)
H2 H 0.1915 0.7479 0.3736
C2 C 0.17490(15) 0.3793(12) 0.3739(3)
C3 C 0.16990(16) 0.2726(12) 0.3117(3)
H3 H 0.1844 0.3238 0.2750
C4 C 0.14285(16) 0.0839(12) 0.3022(3)
C5 C 0.1369(2) -0.0386(14) 0.2391(3)
H4 H 0.1516 0.0060 0.2020
C6 C 0.11078(19) -0.2178(15) 0.2299(3)
H5 H 0.1080 -0.2978 0.1878
C7 C 0.08798(16) -0.2802(13) 0.2852(3)
C8 C 0.09199(16) -0.1686(12) 0.3470(3)
H6 H 0.0766 -0.2148 0.3830
C9 C 0.11927(15) 0.0174(12) 0.3574(3)
C10 C 0.12438(16) 0.1346(12) 0.4237(3)
C11 C 0.15313(15) 0.3014(11) 0.4314(3)
C12 C 0.16812(17) 0.4295(11) 0.4922(3)
C13 C 0.16134(19) 0.3984(14) 0.5613(3)
H7 H 0.1438 0.2826 0.5761
C14 C 0.1807(2) 0.5397(15) 0.6078(4)
H8 H 0.1758 0.5193 0.6542
C15 C 0.2074(2) 0.7128(17) 0.5873(4)
H9 H 0.2204 0.8060 0.6197
C16 C 0.2143(2) 0.7445(15) 0.5176(4)
H10 H 0.2314 0.8635 0.5027
C17 C 0.19553(17) 0.5970(13) 0.4712(3)
C18 C 0.09712(16) 0.0912(12) 0.4796(3)
C19 C 0.0671(2) 0.2448(16) 0.4844(4)
H11 H 0.0641 0.3741 0.4526
C20 C 0.0410(2) 0.2139(17) 0.5353(4)
H12 H 0.0213 0.3261 0.5377
C21 C 0.04340(17) 0.0242(14) 0.5816(3)
C22 C 0.0739(2) -0.1249(16) 0.5775(4)
H13 H 0.0775 -0.2491 0.6105
C23 C 0.0997(2) -0.0981(16) 0.5258(4)
H14 H 0.1192 -0.2120 0.5229
C24 C 0.0149(3) -0.0047(18) 0.6374(5)
H15 H 0.0199 -0.1550 0.6633
H16 H -0.0091 -0.0170 0.6172
H17 H 0.0158 0.1397 0.6671
loop_
_geom_bond_atom_site_label_1
_geom_bond_atom_site_label_2
_geom_bond_site_symmetry_1
_geom_bond_site_symmetry_2
Br1 C7 1_555 1_555
O1 H1 1_555 1_555
C1 O1 1_555 1_555
H2 C1 1_555 1_555
C2 C1 1_555 1_555
C3 C2 1_555 1_555
H3 C3 1_555 1_555
C4 C3 1_555 1_555
C5 C4 1_555 1_555
H4 C5 1_555 1_555
C6 C5 1_555 1_555
H5 C6 1_555 1_555
C7 C6 1_555 1_555
C8 C7 1_555 1_555
H6 C8 1_555 1_555
C9 C4 1_555 1_555
C10 C9 1_555 1_555
C11 C2 1_555 1_555
C12 C11 1_555 1_555
C13 C12 1_555 1_555
H7 C13 1_555 1_555
C14 C13 1_555 1_555
H8 C14 1_555 1_555
C15 C14 1_555 1_555
H9 C15 1_555 1_555
C16 C15 1_555 1_555
H10 C16 1_555 1_555
C17 C1 1_555 1_555
C18 C10 1_555 1_555
C19 C18 1_555 1_555
H11 C19 1_555 1_555
C20 C19 1_555 1_555
H12 C20 1_555 1_555
C21 C20 1_555 1_555
C22 C21 1_555 1_555
H13 C22 1_555 1_555
C23 C18 1_555 1_555
H14 C23 1_555 1_555
C24 C21 1_555 1_555
H15 C24 1_555 1_555
H16 C24 1_555 1_555
H17 C24 1_555 1_555
C8 C9 1_555 1_555
C10 C11 1_555 1_555
C12 C17 1_555 1_555
C16 C17 1_555 1_555
C22 C23 1_555 1_555

#END
