
#######################################################################
#
#                 Cambridge Crystallographic Data Centre
#                                CCDC 
#
#######################################################################
#
# If this CIF has been generated from an entry in the Cambridge 
# Structural Database, then it will include bibliographic, chemical, 
# crystal, experimental, refinement or atomic coordinate data resulting 
# from the CCDC's data processing and validation procedures.
#
#######################################################################

data_EJOPEA
_chemical_formula_moiety         'C24 H15 Br1 O1'
_chemical_name_systematic        
7-bromo-5-(4-methylphenyl)-11H-benzo[b]fluoren-11-one
_symmetry_cell_setting           triclinic
_symmetry_space_group_name_H-M   'P -1'
_symmetry_Int_Tables_number      2
_space_group_name_Hall           '-P 1'
loop_
_symmetry_equiv_pos_site_id
_symmetry_equiv_pos_as_xyz
1 x,y,z
2 -x,-y,-z
_cell_length_a                   8.5009(6)
_cell_length_b                   12.9274(9)
_cell_length_c                   16.9915(15)
_cell_angle_alpha                90.3320(10)
_cell_angle_beta                 100.386(2)
_cell_angle_gamma                97.335(2)
_cell_volume                     1820.85
_exptl_crystal_colour            yellow
_exptl_crystal_description       block
_cell_formula_units_Z            4
loop_
_atom_site_label
_atom_site_type_symbol
_atom_site_fract_x
_atom_site_fract_y
_atom_site_fract_z
Br1 Br -0.30686(8) 0.61969(5) 0.15047(4)
O1 O 0.3098(5) 0.3094(3) 0.5537(2)
C1 C 0.3027(7) 0.4005(5) 0.5376(4)
C2 C 0.3875(7) 0.4954(4) 0.5856(3)
C3 C 0.4901(7) 0.5013(5) 0.6584(4)
H1 H 0.5170 0.4409 0.6840
C4 C 0.5536(7) 0.5996(5) 0.6938(4)
H2 H 0.6231 0.6055 0.7430
C5 C 0.5109(7) 0.6876(5) 0.6539(4)
H3 H 0.5535 0.7529 0.6772
C6 C 0.4063(7) 0.6825(5) 0.5802(3)
H4 H 0.3794 0.7431 0.5549
C7 C 0.3435(6) 0.5854(4) 0.5454(3)
C8 C 0.2269(6) 0.5529(4) 0.4708(3)
C9 C 0.1479(6) 0.6093(4) 0.4111(3)
C10 C 0.0307(6) 0.5540(4) 0.3478(3)
C11 C -0.0645(6) 0.6057(4) 0.2882(3)
H5 H -0.0531 0.6782 0.2887
C12 C -0.1741(7) 0.5495(4) 0.2293(3)
C13 C -0.1958(7) 0.4401(4) 0.2249(3)
H6 H -0.2712 0.4041 0.1842
C14 C -0.1047(7) 0.3880(4) 0.2811(3)
H7 H -0.1181 0.3154 0.2783
C15 C 0.0099(7) 0.4409(4) 0.3438(3)
C16 C 0.1017(7) 0.3876(4) 0.4046(3)
H8 H 0.0922 0.3152 0.4022
C17 C 0.2028(7) 0.4409(4) 0.4659(3)
C18 C 0.1758(6) 0.7261(4) 0.4145(3)
C19 C 0.0929(7) 0.7853(4) 0.4551(3)
H9 H 0.0097 0.7524 0.4784
C20 C 0.1287(7) 0.8926(4) 0.4626(3)
H10 H 0.0718 0.9295 0.4926
C21 C 0.2447(8) 0.9458(4) 0.4274(4)
C22 C 0.3251(8) 0.8876(5) 0.3840(4)
H11 H 0.4046 0.9212 0.3586
C23 C 0.2897(8) 0.7782(4) 0.3773(3)
H12 H 0.3451 0.7409 0.3469
C24 C 0.2890(8) 1.0635(4) 0.4366(4)
H13 H 0.1998 1.0971 0.4108
H14 H 0.3813 1.0845 0.4124
H15 H 0.3139 1.0833 0.4925
Br2 Br -0.13364(8) 0.82300(5) -0.22191(4)
O2 O 0.5672(5) 1.2145(3) 0.1715(2)
C25 C 0.5255(7) 1.1214(5) 0.1623(3)
C26 C 0.5855(7) 1.0377(5) 0.2137(4)
C27 C 0.7012(8) 1.0439(6) 0.2818(4)
H16 H 0.7491 1.1086 0.3043
C28 C 0.7507(8) 0.9446(7) 0.3202(3)
H17 H 0.8330 0.9470 0.3646
C29 C 0.6786(9) 0.8607(5) 0.2908(4)
H18 H 0.7048 0.8000 0.3161
C30 C 0.5530(7) 0.8506(5) 0.2178(4)
H19 H 0.5040 0.7850 0.1977
C31 C 0.5095(7) 0.9379(5) 0.1803(3)
C32 C 0.3957(6) 0.9551(4) 0.1068(3)
C33 C 0.2916(6) 0.8877(4) 0.0515(3)
C34 C 0.2007(6) 0.9311(4) -0.0179(3)
C35 C 0.0917(6) 0.8683(4) -0.0780(3)
H20 H 0.0770 0.7963 -0.0731
C36 C 0.0086(7) 0.9115(5) -0.1426(3)
C37 C 0.0212(7) 1.0181(5) -0.1531(4)
H21 H -0.0375 1.0457 -0.1978
C38 C 0.1237(7) 1.0825(4) -0.0951(4)
H22 H 0.1329 1.1544 -0.1010
C39 C 0.2151(7) 1.0416(4) -0.0271(4)
C40 C 0.3195(7) 1.1061(4) 0.0325(4)
H23 H 0.3282 1.1782 0.0278
C41 C 0.4059(7) 1.0663(4) 0.0953(3)
C42 C 0.2727(6) 0.7714(4) 0.0608(3)
C43 C 0.3261(6) 0.7068(4) 0.0088(3)
H24 H 0.3772 0.7361 -0.0314
C44 C 0.3047(7) 0.5992(4) 0.0154(3)
H25 H 0.3426 0.5575 -0.0199
C45 C 0.2280(7) 0.5534(4) 0.0738(4)
C46 C 0.1757(7) 0.6168(5) 0.1257(4)
H26 H 0.1241 0.5870 0.1656
C47 C 0.1981(7) 0.7246(4) 0.1201(3)
H27 H 0.1627 0.7659 0.1566
C48 C 0.2003(8) 0.4343(4) 0.0793(4)
H28 H 0.1443 0.4159 0.1225
H29 H 0.3024 0.4079 0.0888
H30 H 0.1370 0.4045 0.0299
loop_
_geom_bond_atom_site_label_1
_geom_bond_atom_site_label_2
_geom_bond_site_symmetry_1
_geom_bond_site_symmetry_2
Br1 C12 1_555 1_555
O1 C1 1_555 1_555
C1 C2 1_555 1_555
C2 C3 1_555 1_555
C3 H1 1_555 1_555
C4 C3 1_555 1_555
H2 C4 1_555 1_555
C5 C4 1_555 1_555
H3 C5 1_555 1_555
C6 C5 1_555 1_555
H4 C6 1_555 1_555
C7 C2 1_555 1_555
C8 C7 1_555 1_555
C9 C8 1_555 1_555
C10 C9 1_555 1_555
C11 C10 1_555 1_555
H5 C11 1_555 1_555
C12 C11 1_555 1_555
C13 C12 1_555 1_555
H6 C13 1_555 1_555
C14 C13 1_555 1_555
H7 C14 1_555 1_555
C15 C10 1_555 1_555
C16 C15 1_555 1_555
H8 C16 1_555 1_555
C17 C1 1_555 1_555
C18 C9 1_555 1_555
C19 C18 1_555 1_555
H9 C19 1_555 1_555
C20 C19 1_555 1_555
H10 C20 1_555 1_555
C21 C20 1_555 1_555
C22 C21 1_555 1_555
H11 C22 1_555 1_555
C23 C18 1_555 1_555
H12 C23 1_555 1_555
C24 C21 1_555 1_555
H13 C24 1_555 1_555
H14 C24 1_555 1_555
H15 C24 1_555 1_555
Br2 C36 1_555 1_555
O2 C25 1_555 1_555
C25 C26 1_555 1_555
C26 C27 1_555 1_555
C27 H16 1_555 1_555
C28 C27 1_555 1_555
H17 C28 1_555 1_555
C29 C28 1_555 1_555
H18 C29 1_555 1_555
C30 C29 1_555 1_555
H19 C30 1_555 1_555
C31 C26 1_555 1_555
C32 C31 1_555 1_555
C33 C32 1_555 1_555
C34 C33 1_555 1_555
C35 C34 1_555 1_555
H20 C35 1_555 1_555
C36 C35 1_555 1_555
C37 C36 1_555 1_555
H21 C37 1_555 1_555
C38 C37 1_555 1_555
H22 C38 1_555 1_555
C39 C34 1_555 1_555
C40 C39 1_555 1_555
H23 C40 1_555 1_555
C41 C25 1_555 1_555
C42 C33 1_555 1_555
C43 C42 1_555 1_555
H24 C43 1_555 1_555
C44 C43 1_555 1_555
H25 C44 1_555 1_555
C45 C44 1_555 1_555
C46 C45 1_555 1_555
H26 C46 1_555 1_555
C47 C42 1_555 1_555
H27 C47 1_555 1_555
C48 C45 1_555 1_555
H28 C48 1_555 1_555
H29 C48 1_555 1_555
H30 C48 1_555 1_555
C6 C7 1_555 1_555
C8 C17 1_555 1_555
C14 C15 1_555 1_555
C16 C17 1_555 1_555
C22 C23 1_555 1_555
C30 C31 1_555 1_555
C32 C41 1_555 1_555
C38 C39 1_555 1_555
C40 C41 1_555 1_555
C46 C47 1_555 1_555

#END
