
#######################################################################
#
#                 Cambridge Crystallographic Data Centre
#                                CCDC 
#
#######################################################################
#
# If this CIF has been generated from an entry in the Cambridge 
# Structural Database, then it will include bibliographic, chemical, 
# crystal, experimental, refinement or atomic coordinate data resulting 
# from the CCDC's data processing and validation procedures.
#
#######################################################################

data_EJOYEH
_chemical_compound_source        'Seeds of Annona squamosa'
_chemical_formula_moiety         'C39 H60 N8 O11 S1,3.9(H2 O1)'
_chemical_name_systematic        'Squamtin A hydrate'
_chemical_properties_biological  'potential biological activity'
_symmetry_cell_setting           orthorhombic
_symmetry_space_group_name_H-M   'P 2 21 21'
_symmetry_Int_Tables_number      18
_space_group_name_Hall           'P 2bc 2'
loop_
_symmetry_equiv_pos_site_id
_symmetry_equiv_pos_as_xyz
1 x,y,z
2 -x,1/2-y,1/2+z
3 x,-y,-z
4 -x,1/2+y,1/2-z
_cell_length_a                   9.296(1)
_cell_length_b                   13.769(1)
_cell_length_c                   37.578(1)
_cell_angle_alpha                90
_cell_angle_beta                 90
_cell_angle_gamma                90
_cell_volume                     4809.86
_exptl_crystal_colour            colorless
_exptl_crystal_description       block
_cell_formula_units_Z            4
_exptl_crystal_recrystallization_method methanol/water
loop_
_atom_site_label
_atom_site_type_symbol
_atom_site_fract_x
_atom_site_fract_y
_atom_site_fract_z
S1 S 0.0814(5) 0.3587(3) 0.02391(9)
O1 O 0.1431(7) 0.7101(4) 0.18490(17)
O2 O 0.4893(7) 0.7252(4) 0.16287(15)
O3 O 0.3665(9) 0.5859(5) 0.27765(15)
O4 O 0.5848(7) 0.3839(5) 0.22021(18)
O5 O 0.7093(14) 0.0148(9) 0.0501(3)
O7 O 0.2999(7) 0.1541(4) 0.14431(18)
O8 O 0.0629(7) 0.3554(4) 0.17886(15)
O9 O 0.3139(6) 0.5258(4) 0.13850(14)
O10 O 0.1578(8) 0.8012(4) 0.05520(15)
O11 O -0.0164(6) 0.8862(4) 0.14017(15)
O12 O 0.0346(21) 0.4408(9) 0.0528(3)
N1 N 0.2216(7) 0.8490(5) 0.21215(18)
N2 N 0.3491(8) 0.5986(4) 0.21646(17)
N3 N 0.3451(8) 0.3929(5) 0.21171(19)
N4 N 0.3607(7) 0.3167(5) 0.14533(19)
N5 N 0.0945(8) 0.3666(5) 0.11845(17)
N6 N 0.0885(7) 0.5666(5) 0.12239(17)
N7 N 0.2780(8) 0.7397(4) 0.10344(18)
N8 N 0.2262(7) 0.9108(5) 0.13999(18)
C1 C 0.0981(11) 1.0148(7) 0.25075(23)
C2 C 0.1151(9) 1.0116(6) 0.21035(22)
C3 C 0.0056(12) 1.0760(7) 0.1917(3)
C4 C 0.1002(9) 0.9057(6) 0.19735(21)
C5 C 0.2319(9) 0.7522(6) 0.20421(23)
C6 C 0.3630(9) 0.7050(5) 0.21922(21)
C7 C 0.5003(10) 0.7428(6) 0.20063(24)
C8 C 0.6361(11) 0.6937(8) 0.2156(3)
C9 C 0.3504(10) 0.5474(6) 0.24761(24)
C10 C 0.3215(11) 0.4395(6) 0.24592(24)
C11 C 0.4745(11) 0.3660(6) 0.20194(23)
C12 C 0.4892(9) 0.3046(6) 0.16810(24)
C13 C 0.6262(10) 0.3283(7) 0.1477(3)
C14 C 0.6610(11) 0.2512(7) 0.1199(3)
C15 C 0.7439(11) 0.1700(7) 0.1295(3)
C16 C 0.7680(11) 0.0968(7) 0.1064(3)
C17 C 0.7074(13) 0.0994(8) 0.0734(3)
C18 C 0.6236(14) 0.1762(9) 0.0616(3)
C19 C 0.6034(13) 0.2512(8) 0.0861(3)
C20 C 0.2759(10) 0.2406(7) 0.13657(24)
C21 C 0.1357(10) 0.2622(6) 0.11632(23)
C22 C 0.1614(15) 0.2362(8) 0.0768(3)
C23 C 0.0343(16) 0.2509(8) 0.0530(3)
C24 C -0.070(4) 0.3338(16) -0.0012(7)
C26 C 0.0619(9) 0.4040(6) 0.15069(25)
C27 C 0.0272(9) 0.5120(6) 0.15282(23)
C28 C -0.1317(10) 0.5347(7) 0.1514(3)
C29 C -0.1531(13) 0.5927(15) 0.1222(4)
C30 C -0.0240(10) 0.6253(7) 0.1038(3)
C31 C 0.2308(10) 0.5722(6) 0.11852(23)
C32 C 0.2851(9) 0.6391(6) 0.08861(21)
C33 C 0.4404(11) 0.6107(7) 0.0777(3)
C34 C 0.4375(13) 0.5118(8) 0.0586(3)
C35 C 0.5079(16) 0.6887(8) 0.0528(4)
C36 C 0.633(3) 0.682(3) 0.0359(8)
C38 C 0.2163(10) 0.8125(6) 0.08511(23)
C39 C 0.2280(10) 0.9127(6) 0.10128(22)
C40 C 0.3705(12) 0.9594(7) 0.08812(24)
C41 C 0.0996(9) 0.9001(6) 0.15632(21)
H1 H 0.421 0.790 0.160
H2 H 0.755 0.069 0.039
H3 H 0.235 0.377 0.204
H4 H 0.075 0.409 0.092
H5 H 0.332 0.936 0.148
H6 H 0.174 0.981 0.270
H7 H 0.004 1.036 0.266
H8 H 0.149 1.084 0.254
H9 H 0.225 1.039 0.202
H10 H 0.012 1.149 0.202
H11 H -0.100 1.047 0.197
H12 H 0.032 1.074 0.164
H13 H -0.002 0.877 0.207
H14 H 0.369 0.724 0.248
H15 H 0.509 0.821 0.206
H16 H 0.653 0.713 0.243
H17 H 0.731 0.713 0.200
H18 H 0.613 0.615 0.213
H19 H 0.212 0.427 0.255
H20 H 0.393 0.405 0.266
H21 H 0.495 0.229 0.176
H22 H 0.715 0.336 0.166
H23 H 0.610 0.398 0.134
H24 H 0.791 0.165 0.156
H25 H 0.832 0.031 0.114
H26 H 0.580 0.184 0.032
H27 H 0.545 0.314 0.077
H28 H 0.048 0.216 0.126
H29 H 0.203 0.162 0.075
H30 H 0.247 0.285 0.067
H31 H 0.018 0.186 0.037
H32 H -0.133 0.279 -0.007
H33 H 0.075 0.542 0.178
H34 H -0.173 0.566 0.176
H35 H -0.195 0.468 0.146
H36 H -0.226 0.569 0.104
H37 H -0.199 0.667 0.133
H38 H -0.027 0.608 0.075
H39 H 0.005 0.703 0.106
H40 H 0.216 0.632 0.065
H41 H 0.510 0.606 0.102
H42 H 0.326 0.491 0.066
H43 H 0.508 0.471 0.077
H44 H 0.456 0.513 0.030
H45 H 0.538 0.759 0.067
H46 H 0.614 0.611 0.014
H47 H 0.725 0.662 0.048
H48 H 0.656 0.739 0.013
H49 H 0.139 0.959 0.092
H50 H 0.458 0.914 0.098
H51 H 0.379 1.030 0.101
H52 H 0.363 0.963 0.060
O14 O 0.2466(25) 0.0804(17) 0.0030(5)
O15 O 0.5225(16) 0.0000 0.00000
O16 O 0.3128(3) 0.3617(18) 0.3579(6)
O17 O 0.5068(16) 0.5043(9) 0.3322(7)
O18 O -0.1510(7) 0.8615(5) 0.0655(16)
O19 O 0.0170(23) 0.9447(13) 0.0211(5)
S2? S -0.032(3) 0.3642(16) 0.0345(5)
O6? O 0.7466(22) 0.0338(20) 0.0481(7)
O13? O 0.0774(19) 0.4476(10) 0.0487(3)
C25? C -0.093(4) 0.3702(21) 0.0002(10)
C37? C 0.466(3) 0.7004(23) 0.0203(7)
loop_
_geom_bond_atom_site_label_1
_geom_bond_atom_site_label_2
_geom_bond_site_symmetry_1
_geom_bond_site_symmetry_2
S1 O12 1_555 1_555
O1 C5 1_555 1_555
O2 C7 1_555 1_555
O3 C9 1_555 1_555
O4 C11 1_555 1_555
O5 C17 1_555 1_555
O7 C20 1_555 1_555
O8 C26 1_555 1_555
O9 C31 1_555 1_555
O10 C38 1_555 1_555
O11 C41 1_555 1_555
N1 C4 1_555 1_555
N2 C6 1_555 1_555
N3 C10 1_555 1_555
N4 C12 1_555 1_555
N5 C21 1_555 1_555
N6 C27 1_555 1_555
N7 C32 1_555 1_555
N8 C39 1_555 1_555
C1 C2 1_555 1_555
C2 C3 1_555 1_555
C3 H10 1_555 1_555
C4 C2 1_555 1_555
C5 N1 1_555 1_555
C6 C5 1_555 1_555
C7 C6 1_555 1_555
C8 C7 1_555 1_555
C9 N2 1_555 1_555
C10 C9 1_555 1_555
C11 N3 1_555 1_555
C12 C11 1_555 1_555
C13 C12 1_555 1_555
C14 C13 1_555 1_555
C15 C14 1_555 1_555
C16 C15 1_555 1_555
C17 C16 1_555 1_555
C18 C17 1_555 1_555
C19 C14 1_555 1_555
C20 N4 1_555 1_555
C21 C20 1_555 1_555
C22 C21 1_555 1_555
C23 S1 1_555 1_555
C24 S1 1_555 1_555
C26 N5 1_555 1_555
C27 C26 1_555 1_555
C28 C27 1_555 1_555
C29 C28 1_555 1_555
C30 N6 1_555 1_555
C31 N6 1_555 1_555
C32 C31 1_555 1_555
C33 C32 1_555 1_555
C34 C33 1_555 1_555
C35 C33 1_555 1_555
C36 C35 1_555 1_555
C38 N7 1_555 1_555
C39 C38 1_555 1_555
C40 C39 1_555 1_555
C41 N8 1_555 1_555
H1 O2 1_555 1_555
H2 O5 1_555 1_555
H3 N3 1_555 1_555
H4 N5 1_555 1_555
H5 N8 1_555 1_555
H6 C1 1_555 1_555
H7 C1 1_555 1_555
H8 C1 1_555 1_555
H9 C2 1_555 1_555
H11 C3 1_555 1_555
H12 C3 1_555 1_555
H13 C4 1_555 1_555
H14 C6 1_555 1_555
H15 C7 1_555 1_555
H16 C8 1_555 1_555
H17 C8 1_555 1_555
H18 C8 1_555 1_555
H19 C10 1_555 1_555
H20 C10 1_555 1_555
H21 C12 1_555 1_555
H22 C13 1_555 1_555
H23 C13 1_555 1_555
H24 C15 1_555 1_555
H25 C16 1_555 1_555
H26 C18 1_555 1_555
H27 C19 1_555 1_555
H28 C21 1_555 1_555
H29 C22 1_555 1_555
H30 C22 1_555 1_555
H31 C23 1_555 1_555
H32 C24 1_555 1_555
H33 C27 1_555 1_555
H34 C28 1_555 1_555
H35 C28 1_555 1_555
H36 C29 1_555 1_555
H37 C29 1_555 1_555
H38 C30 1_555 1_555
H39 C30 1_555 1_555
H40 C32 1_555 1_555
H41 C33 1_555 1_555
H42 C34 1_555 1_555
H43 C34 1_555 1_555
H44 C34 1_555 1_555
H45 C35 1_555 1_555
H46 C36 1_555 1_555
H47 C36 1_555 1_555
H48 C36 1_555 1_555
H49 C39 1_555 1_555
H50 C40 1_555 1_555
H51 C40 1_555 1_555
H52 C40 1_555 1_555
C4 C41 1_555 1_555
C18 C19 1_555 1_555
C22 C23 1_555 1_555
C29 C30 1_555 1_555

#END
