
#######################################################################
#
#                 Cambridge Crystallographic Data Centre
#                                CCDC 
#
#######################################################################
#
# If this CIF has been generated from an entry in the Cambridge 
# Structural Database, then it will include bibliographic, chemical, 
# crystal, experimental, refinement or atomic coordinate data resulting 
# from the CCDC's data processing and validation procedures.
#
#######################################################################

data_EJOYIL
_chemical_compound_source        'Seeds of Annona squamosa'
_chemical_formula_moiety         'C39 H60 N8 O11 S1,3.5(H2 O1)'
_chemical_name_systematic        'Squamtin A hydrate'
_chemical_properties_biological  'potential biological activity'
_symmetry_cell_setting           orthorhombic
_symmetry_space_group_name_H-M   'P 2 21 21'
_symmetry_Int_Tables_number      18
_space_group_name_Hall           'P 2bc 2'
loop_
_symmetry_equiv_pos_site_id
_symmetry_equiv_pos_as_xyz
1 x,y,z
2 -x,1/2-y,1/2+z
3 x,-y,-z
4 -x,1/2+y,1/2-z
_cell_length_a                   9.258(1)
_cell_length_b                   13.818(1)
_cell_length_c                   38.271(1)
_cell_angle_alpha                90
_cell_angle_beta                 90
_cell_angle_gamma                90
_cell_volume                     4895.9
_exptl_crystal_colour            colorless
_exptl_crystal_description       block
_cell_formula_units_Z            4
_exptl_crystal_recrystallization_method methanol/water/acetone
loop_
_atom_site_label
_atom_site_type_symbol
_atom_site_fract_x
_atom_site_fract_y
_atom_site_fract_z
S1 S -0.0238(3) 0.37311(16) 0.03492(5)
O1 O 0.1428(5) 0.7305(3) 0.18577(11)
O2 O 0.4855(5) 0.7463(3) 0.16459(10)
O3 O 0.3689(7) 0.6083(3) 0.27680(10)
O4 O 0.5909(5) 0.4036(3) 0.21919(12)
O5 O 0.7134(7) 0.0376(5) 0.05107(16)
O6 O 0.2987(5) 0.1768(3) 0.14584(12)
O7 O 0.0610(5) 0.3793(3) 0.18138(10)
O8 O 0.3140(5) 0.5471(3) 0.13977(10)
O9 O 0.1594(6) 0.8222(3) 0.05838(10)
O10 O -0.0172(5) 0.9054(3) 0.14143(11)
O11 O 0.0402(7) 0.4563(3) 0.05463(11)
N1 N 0.2172(6) 0.8692(3) 0.21212(12)
N2 N 0.3500(6) 0.6225(3) 0.21809(11)
N3 N 0.3488(6) 0.4155(4) 0.21259(12)
N4 N 0.3583(6) 0.3365(3) 0.14777(12)
N5 N 0.0896(6) 0.3870(3) 0.12259(11)
N6 N 0.0873(5) 0.5880(4) 0.12500(12)
N7 N 0.2787(6) 0.7591(3) 0.10477(11)
N8 N 0.2248(5) 0.9305(3) 0.14148(11)
C1 C 0.0964(9) 1.0386(5) 0.25013(17)
C2 C 0.1126(7) 1.0333(4) 0.20998(16)
C3 C -0.0022(9) 1.0949(5) 0.19217(17)
C4 C 0.0966(7) 0.9260(4) 0.19811(14)
C5 C 0.2282(7) 0.7732(4) 0.20455(14)
C6 C 0.3633(7) 0.7263(4) 0.21916(14)
C7 C 0.4988(8) 0.7628(5) 0.20135(16)
C8 C 0.6354(9) 0.7172(6) 0.21612(20)
C9 C 0.3529(8) 0.5699(5) 0.24783(16)
C10 C 0.3288(9) 0.4624(5) 0.24605(16)
C11 C 0.4805(7) 0.3867(4) 0.20258(14)
C12 C 0.4887(7) 0.3238(4) 0.16893(15)
C13 C 0.6259(7) 0.3459(5) 0.14797(18)
C14 C 0.6533(7) 0.2687(5) 0.12131(16)
C15 C 0.7328(8) 0.1870(5) 0.12982(17)
C16 C 0.7557(8) 0.1117(5) 0.10742(19)
C17 C 0.6937(8) 0.1153(6) 0.07443(19)
C18 C 0.6137(9) 0.1952(6) 0.06474(19)
C19 C 0.5946(9) 0.2713(6) 0.08791(19)
C20 C 0.2719(7) 0.2606(4) 0.13908(15)
C21 C 0.1299(7) 0.2846(4) 0.11985(14)
C22 C 0.1455(8) 0.2574(5) 0.08084(16)
C23 C 0.0009(9) 0.2647(5) 0.06141(17)
C24 C 0.1073(14) 0.3493(7) 0.00123(21)
C25 C 0.0600(6) 0.4268(4) 0.15409(15)
C26 C 0.0292(7) 0.5344(4) 0.15527(15)
C27 C -0.1318(9) 0.5582(5) 0.15450(24)
C28 C -0.1600(14) 0.5918(10) 0.1221(3)
C30 C -0.0256(7) 0.6465(5) 0.10721(17)
C31 C 0.2296(7) 0.5937(4) 0.12081(14)
C32 C 0.2845(7) 0.6594(4) 0.09102(14)
C33 C 0.4367(7) 0.6309(5) 0.07871(16)
C34 C 0.4291(10) 0.5295(6) 0.06196(21)
C35 C 0.4940(9) 0.7065(6) 0.05197(22)
C36 C 0.6392(16) 0.6753(13) 0.0357(4)
C38 C 0.2187(7) 0.8327(5) 0.08734(14)
C39 C 0.2290(8) 0.9330(4) 0.10336(15)
C40 C 0.3689(9) 0.9819(5) 0.09083(16)
C41 C 0.0971(7) 0.9182(4) 0.15721(14)
H1 H 0.550 0.798 0.154
H2 H 0.280 0.891 0.234
H3 H 0.343 0.594 0.198
H4 H 0.252 0.394 0.200
H5 H 0.329 0.396 0.139
H6 H 0.117 0.427 0.104
H7 H 0.337 0.781 0.129
H8 H 0.335 0.933 0.154
H9 H 0.197 1.016 0.262
H10 H 0.013 0.986 0.257
H11 H 0.066 1.112 0.257
H12 H 0.220 1.061 0.202
H13 H 0.008 1.088 0.164
H14 H 0.014 1.171 0.200
H15 H -0.106 1.069 0.202
H16 H -0.007 0.897 0.208
H17 H 0.370 0.748 0.247
H18 H 0.506 0.840 0.206
H19 H 0.727 0.740 0.200
H20 H 0.627 0.638 0.214
H21 H 0.645 0.740 0.243
H22 H 0.219 0.447 0.255
H23 H 0.404 0.429 0.264
H24 H 0.494 0.250 0.177
H25 H 0.716 0.353 0.165
H26 H 0.611 0.415 0.134
H27 H 0.782 0.186 0.157
H28 H 0.819 0.046 0.115
H29 H 0.563 0.197 0.039
H30 H 0.527 0.333 0.080
H31 H 0.043 0.240 0.131
H32 H 0.224 0.307 0.069
H33 H 0.191 0.184 0.079
H34 H -0.014 0.201 0.045
H35 H -0.086 0.263 0.081
H36 H 0.085 0.286 -0.015
H37 H 0.218 0.345 0.010
H38 H 0.097 0.413 -0.015
H39 H 0.077 0.564 0.179
H40 H -0.166 0.594 0.179
H41 H -0.197 0.491 0.153
H43 H -0.220 0.547 0.103
H44 H -0.002 0.723 0.108
H45 H -0.031 0.626 0.079
H46 H 0.212 0.653 0.069
H47 H 0.510 0.629 0.101
H48 H 0.342 0.529 0.042
H49 H 0.399 0.476 0.082
H50 H 0.531 0.514 0.051
H51 H 0.496 0.778 0.065
H52 H 0.417 0.711 0.031
H53 H 0.672 0.705 0.011
H54 H 0.701 0.619 0.044
H55 H 0.705 0.739 0.053
H56 H 0.138 0.978 0.094
H57 H 0.384 0.969 0.063
H58 H 0.460 0.950 0.105
H59 H 0.359 1.058 0.097
O12 O 0.2563(16) 0.0963(13) 0.0060(3)
O13 O 0.5243(7) 0.00000 0.00000
O14 O 0.3162(16) 0.3785(9) 0.3565(3)
O15 O 0.5114(12) 0.5246(7) 0.3304(4)
O16 O -0.1530(3) 0.8819(16) 0.0691(7)
O17 O -0.0032(3) -0.0177(16) 0.0330(7)
C29? C -0.1556(18) 0.6521(11) 0.1305(4)
C37? C 0.645(3) 0.715(3) 0.0429(10)
H42? H -0.199 0.718 0.141
loop_
_geom_bond_atom_site_label_1
_geom_bond_atom_site_label_2
_geom_bond_site_symmetry_1
_geom_bond_site_symmetry_2
S1 O11 1_555 1_555
O1 C5 1_555 1_555
O2 C7 1_555 1_555
O3 C9 1_555 1_555
O4 C11 1_555 1_555
O5 C17 1_555 1_555
O6 C20 1_555 1_555
O7 C25 1_555 1_555
O8 C31 1_555 1_555
O9 C38 1_555 1_555
O10 C41 1_555 1_555
N1 C4 1_555 1_555
N2 C6 1_555 1_555
N3 C10 1_555 1_555
N4 C12 1_555 1_555
N5 C21 1_555 1_555
N6 C26 1_555 1_555
N7 C32 1_555 1_555
N8 C39 1_555 1_555
C1 C2 1_555 1_555
C2 C3 1_555 1_555
C3 H13 1_555 1_555
C4 C2 1_555 1_555
C5 N1 1_555 1_555
C6 C5 1_555 1_555
C7 C6 1_555 1_555
C8 C7 1_555 1_555
C9 N2 1_555 1_555
C10 C9 1_555 1_555
C11 N3 1_555 1_555
C12 C11 1_555 1_555
C13 C12 1_555 1_555
C14 C13 1_555 1_555
C15 C14 1_555 1_555
C16 C15 1_555 1_555
C17 C16 1_555 1_555
C18 C17 1_555 1_555
C19 C14 1_555 1_555
C20 N4 1_555 1_555
C21 C20 1_555 1_555
C22 C21 1_555 1_555
C23 S1 1_555 1_555
C24 S1 1_555 1_555
C25 N5 1_555 1_555
C26 C25 1_555 1_555
C27 C26 1_555 1_555
C28 C27 1_555 1_555
C30 N6 1_555 1_555
C31 N6 1_555 1_555
C32 C31 1_555 1_555
C33 C32 1_555 1_555
C34 C33 1_555 1_555
C35 C33 1_555 1_555
C36 C35 1_555 1_555
C38 N7 1_555 1_555
C39 C38 1_555 1_555
C40 C39 1_555 1_555
C41 N8 1_555 1_555
H1 O2 1_555 1_555
H2 N1 1_555 1_555
H3 N2 1_555 1_555
H4 N3 1_555 1_555
H5 N4 1_555 1_555
H6 N5 1_555 1_555
H7 N7 1_555 1_555
H8 N8 1_555 1_555
H9 C1 1_555 1_555
H10 C1 1_555 1_555
H11 C1 1_555 1_555
H12 C2 1_555 1_555
H14 C3 1_555 1_555
H15 C3 1_555 1_555
H16 C4 1_555 1_555
H17 C6 1_555 1_555
H18 C7 1_555 1_555
H19 C8 1_555 1_555
H20 C8 1_555 1_555
H21 C8 1_555 1_555
H22 C10 1_555 1_555
H23 C10 1_555 1_555
H24 C12 1_555 1_555
H25 C13 1_555 1_555
H26 C13 1_555 1_555
H27 C15 1_555 1_555
H28 C16 1_555 1_555
H29 C18 1_555 1_555
H30 C19 1_555 1_555
H31 C21 1_555 1_555
H32 C22 1_555 1_555
H33 C22 1_555 1_555
H34 C23 1_555 1_555
H35 C23 1_555 1_555
H36 C24 1_555 1_555
H37 C24 1_555 1_555
H38 C24 1_555 1_555
H39 C26 1_555 1_555
H40 C27 1_555 1_555
H41 C27 1_555 1_555
H43 C28 1_555 1_555
H44 C30 1_555 1_555
H45 C30 1_555 1_555
H46 C32 1_555 1_555
H47 C33 1_555 1_555
H48 C34 1_555 1_555
H49 C34 1_555 1_555
H50 C34 1_555 1_555
H51 C35 1_555 1_555
H52 C35 1_555 1_555
H53 C36 1_555 1_555
H54 C36 1_555 1_555
H55 C36 1_555 1_555
H56 C39 1_555 1_555
H57 C40 1_555 1_555
H58 C40 1_555 1_555
H59 C40 1_555 1_555
C4 C41 1_555 1_555
C18 C19 1_555 1_555
C22 C23 1_555 1_555
C28 C30 1_555 1_555

#END
