
#######################################################################
#
#                 Cambridge Crystallographic Data Centre
#                                CCDC 
#
#######################################################################
#
# If this CIF has been generated from an entry in the Cambridge 
# Structural Database, then it will include bibliographic, chemical, 
# crystal, experimental, refinement or atomic coordinate data resulting 
# from the CCDC's data processing and validation procedures.
#
#######################################################################

data_EJUCES
_chemical_formula_moiety         'C25 H23 N1 O2'
_chemical_name_systematic        
1-(1-Oxo-1,3,3-triphenylpropan-2-yl)pyrrolidin-2-one
_symmetry_cell_setting           monoclinic
_symmetry_space_group_name_H-M   'P 21/c'
_symmetry_Int_Tables_number      14
_space_group_name_Hall           '-P 2ybc'
loop_
_symmetry_equiv_pos_site_id
_symmetry_equiv_pos_as_xyz
1 x,y,z
2 -x,1/2+y,1/2-z
3 -x,-y,-z
4 x,1/2-y,1/2+z
_cell_length_a                   6.0694(8)
_cell_length_b                   8.7666(13)
_cell_length_c                   36.447(5)
_cell_angle_alpha                90
_cell_angle_beta                 92.502(8)
_cell_angle_gamma                90
_cell_volume                     1937.42
_exptl_crystal_colour            colorless
_exptl_crystal_description       block
_cell_formula_units_Z            4
loop_
_atom_site_label
_atom_site_type_symbol
_atom_site_fract_x
_atom_site_fract_y
_atom_site_fract_z
C1 C 0.7510(3) -0.10909(18) 0.03363(4)
H1 H 0.8918 -0.0751 0.0267
C2 C 0.6126(3) -0.18404(19) 0.00814(4)
H2 H 0.6593 -0.2002 -0.0161
C3 C 0.4071(3) -0.23530(19) 0.01779(4)
H3 H 0.3130 -0.2866 0.0003
C4 C 0.3403(3) -0.21093(19) 0.05324(4)
H4 H 0.2000 -0.2463 0.0601
C5 C 0.4783(3) -0.13452(18) 0.07896(4)
H5 H 0.4304 -0.1177 0.1031
C6 C 0.6848(2) -0.08313(16) 0.06946(4)
C7 C 0.8374(2) 0.00994(16) 0.09508(4)
H6 H 0.9924 -0.0183 0.0898
C8 C 0.8083(3) 0.17897(17) 0.08626(4)
C9 C 0.9772(3) 0.25969(19) 0.07029(4)
H7 H 1.1130 0.2101 0.0661
C10 C 0.9494(3) 0.4118(2) 0.06045(5)
H8 H 1.0652 0.4653 0.0494
C11 C 0.7521(3) 0.48545(19) 0.06683(5)
H9 H 0.7324 0.5893 0.0600
C12 C 0.5839(3) 0.40701(19) 0.08327(5)
H10 H 0.4497 0.4577 0.0880
C13 C 0.6114(3) 0.25444(19) 0.09285(4)
H11 H 0.4954 0.2012 0.1040
C14 C 0.8086(2) -0.01578(17) 0.13636(4)
H12 H 0.6588 0.0202 0.1428
C15 C 0.9849(2) 0.07889(17) 0.15815(4)
C16 C 0.9263(3) 0.15788(17) 0.19262(4)
C17 C 0.7183(3) 0.14710(19) 0.20766(4)
H13 H 0.6053 0.0883 0.1956
C18 C 0.6775(3) 0.2228(2) 0.24030(4)
H14 H 0.5369 0.2147 0.2506
C19 C 0.8421(3) 0.3102(2) 0.25783(4)
H15 H 0.8135 0.3616 0.2801
C20 C 1.0483(3) 0.3226(2) 0.24288(4)
H16 H 1.1601 0.3830 0.2547
C21 C 1.0899(3) 0.24643(18) 0.21061(4)
H17 H 1.2312 0.2544 0.2005
C22 C 1.0193(3) -0.27103(18) 0.13706(4)
H18 H 1.1628 -0.2205 0.1426
H19 H 1.0067 -0.2955 0.1105
C23 C 0.9953(3) -0.41568(19) 0.16055(5)
H20 H 1.0210 -0.5084 0.1458
H21 H 1.1017 -0.4144 0.1819
C24 C 0.7580(3) -0.4118(2) 0.17317(5)
H22 H 0.6633 -0.4825 0.1583
H23 H 0.7529 -0.4411 0.1993
C25 C 0.6830(3) -0.24848(19) 0.16753(4)
N1 N 0.8358(2) -0.17444(15) 0.14783(3)
O1 O 1.17249(18) 0.08424(14) 0.14732(3)
O2 O 0.51296(19) -0.19041(15) 0.17828(3)
loop_
_geom_bond_atom_site_label_1
_geom_bond_atom_site_label_2
_geom_bond_site_symmetry_1
_geom_bond_site_symmetry_2
C1 H1 1_555 1_555
C2 C1 1_555 1_555
H2 C2 1_555 1_555
C3 C2 1_555 1_555
H3 C3 1_555 1_555
C4 C3 1_555 1_555
H4 C4 1_555 1_555
C5 C4 1_555 1_555
H5 C5 1_555 1_555
C6 C1 1_555 1_555
C7 C6 1_555 1_555
H6 C7 1_555 1_555
C8 C7 1_555 1_555
C9 C8 1_555 1_555
H7 C9 1_555 1_555
C10 C9 1_555 1_555
H8 C10 1_555 1_555
C11 C10 1_555 1_555
H9 C11 1_555 1_555
C12 C11 1_555 1_555
H10 C12 1_555 1_555
C13 C8 1_555 1_555
H11 C13 1_555 1_555
C14 C7 1_555 1_555
H12 C14 1_555 1_555
C15 C14 1_555 1_555
C16 C15 1_555 1_555
C17 C16 1_555 1_555
H13 C17 1_555 1_555
C18 C17 1_555 1_555
H14 C18 1_555 1_555
C19 C18 1_555 1_555
H15 C19 1_555 1_555
C20 C19 1_555 1_555
H16 C20 1_555 1_555
C21 C16 1_555 1_555
H17 C21 1_555 1_555
C22 H18 1_555 1_555
H19 C22 1_555 1_555
C23 C22 1_555 1_555
H20 C23 1_555 1_555
H21 C23 1_555 1_555
C24 C23 1_555 1_555
H22 C24 1_555 1_555
H23 C24 1_555 1_555
C25 C24 1_555 1_555
N1 C14 1_555 1_555
O1 C15 1_555 1_555
O2 C25 1_555 1_555
C5 C6 1_555 1_555
C12 C13 1_555 1_555
C20 C21 1_555 1_555
C22 N1 1_555 1_555
C25 N1 1_555 1_555

#END
