
#######################################################################
#
#                 Cambridge Crystallographic Data Centre
#                                CCDC 
#
#######################################################################
#
# If this CIF has been generated from an entry in the Cambridge 
# Structural Database, then it will include bibliographic, chemical, 
# crystal, experimental, refinement or atomic coordinate data resulting 
# from the CCDC's data processing and validation procedures.
#
#######################################################################

data_EJUDIY
_chemical_formula_moiety         'C33 H28 N2 O1'
_chemical_name_systematic        
2-(((4-(2-(4-(Diphenylamino)phenyl)vinyl)phenyl)amino)methyl)phenol
_symmetry_cell_setting           monoclinic
_symmetry_space_group_name_H-M   'P 21/c'
_symmetry_Int_Tables_number      14
_space_group_name_Hall           '-P 2ybc'
loop_
_symmetry_equiv_pos_site_id
_symmetry_equiv_pos_as_xyz
1 x,y,z
2 -x,1/2+y,1/2-z
3 -x,-y,-z
4 x,1/2-y,1/2+z
_cell_length_a                   27.986(2)
_cell_length_b                   10.9433(6)
_cell_length_c                   8.3707(7)
_cell_angle_alpha                90
_cell_angle_beta                 94.6950(10)
_cell_angle_gamma                90
_cell_volume                     2555
_cell_formula_units_Z            4
loop_
_atom_site_label
_atom_site_type_symbol
_atom_site_fract_x
_atom_site_fract_y
_atom_site_fract_z
N1 N 0.42020(10) 0.6128(3) 0.2622(3)
H1 H 0.4080 0.6201 0.3579
N2 N 0.85634(9) 0.6183(2) 0.5490(3)
O1 O 0.37897(9) 0.7550(3) 0.0298(4)
H2 H 0.3995 0.7372 0.1016
C1 C 0.39132(12) 0.5201(3) 0.1725(4)
H3 H 0.3874 0.4497 0.2405
H4 H 0.4078 0.4936 0.0810
C2 C 0.34293(11) 0.5706(3) 0.1158(4)
C3 C 0.33903(12) 0.6843(3) 0.0432(4)
C4 C 0.29551(15) 0.7291(4) -0.0180(5)
H5 H 0.2935 0.8056 -0.0665
C5 C 0.25504(15) 0.6600(5) -0.0069(6)
H6 H 0.2255 0.6894 -0.0491
C6 C 0.25793(15) 0.5487(5) 0.0655(6)
H7 H 0.2303 0.5027 0.0739
C7 C 0.30177(14) 0.5039(4) 0.1263(4)
H8 H 0.3035 0.4275 0.1751
C8 C 0.47041(12) 0.5962(3) 0.2946(4)
C9 C 0.49436(13) 0.6755(4) 0.4013(5)
H9 H 0.4773 0.7327 0.4559
C10 C 0.54434(14) 0.6701(4) 0.4275(5)
H10 H 0.5605 0.7239 0.4991
C11 C 0.57018(13) 0.5832(4) 0.3456(5)
C12 C 0.54504(14) 0.5037(4) 0.2469(5)
H11 H 0.5616 0.4435 0.1957
C13 C 0.49629(13) 0.5085(4) 0.2197(4)
H12 H 0.4804 0.4526 0.1504
C14 C 0.62359(15) 0.5756(4) 0.3670(5)
H13 H 0.6375 0.5105 0.3165
C15 C 0.65218(15) 0.6474(4) 0.4458(5)
H14 H 0.6384 0.7129 0.4961
C16 C 0.70575(12) 0.6383(3) 0.4668(4)
C17 C 0.73055(12) 0.7166(3) 0.5702(4)
H15 H 0.7137 0.7753 0.6231
C18 C 0.77949(12) 0.7115(3) 0.5984(4)
H16 H 0.7952 0.7653 0.6710
C19 C 0.80568(11) 0.6266(3) 0.5195(4)
C20 C 0.78133(12) 0.5468(3) 0.4124(4)
H17 H 0.7983 0.4894 0.3576
C21 C 0.73194(13) 0.5525(3) 0.3872(4)
H18 H 0.7159 0.4983 0.3159
C22 C 0.87737(12) 0.5006(3) 0.5589(4)
C23 C 0.920(2) 0.488(3) 0.483(6)
H19 H 0.9329 0.5549 0.4322
C24 C 0.9432(9) 0.375(2) 0.483(4)
H20 H 0.9710 0.3657 0.4311
C25 C 0.9246(12) 0.276(2) 0.561(4)
H21 H 0.9402 0.2014 0.5622
C26 C 0.8832(9) 0.2887(18) 0.638(3)
H22 H 0.8709 0.2223 0.6904
C27 C 0.8600(18) 0.401(5) 0.636(8)
H23 H 0.8321 0.4085 0.6885
C28 C 0.88544(11) 0.7238(3) 0.5648(4)
C29 C 0.87147(12) 0.8328(3) 0.4907(4)
H24 H 0.8421 0.8375 0.4306
C30 C 0.90042(14) 0.9337(3) 0.5049(4)
H25 H 0.8901 1.0067 0.4568
C31 C 0.94440(14) 0.9285(4) 0.5891(5)
H26 H 0.9643 0.9967 0.5963
C32 C 0.95867(12) 0.8214(4) 0.6626(4)
H27 H 0.9886 0.8169 0.7195
C33 C 0.92948(12) 0.7205(3) 0.6535(4)
H28 H 0.9393 0.6494 0.7073
C34? C 0.916(3) 0.455(5) 0.484(10)
H29? H 0.9306 0.5031 0.4111
C35? C 0.9318(15) 0.338(4) 0.519(4)
H30? H 0.9592 0.3089 0.4757
C36? C 0.9078(14) 0.263(4) 0.617(6)
H31? H 0.9189 0.1839 0.6388
C37? C 0.8673(16) 0.304(4) 0.685(5)
H32? H 0.8507 0.2532 0.7499
C38? C 0.852(3) 0.423(9) 0.654(13)
H33? H 0.8241 0.4515 0.6964
loop_
_geom_bond_atom_site_label_1
_geom_bond_atom_site_label_2
_geom_bond_site_symmetry_1
_geom_bond_site_symmetry_2
N1 H1 1_555 1_555
N2 C19 1_555 1_555
O1 H2 1_555 1_555
C1 N1 1_555 1_555
H3 C1 1_555 1_555
H4 C1 1_555 1_555
C2 C1 1_555 1_555
C3 O1 1_555 1_555
C4 C3 1_555 1_555
H5 C4 1_555 1_555
C5 C4 1_555 1_555
H6 C5 1_555 1_555
C6 C5 1_555 1_555
H7 C6 1_555 1_555
C7 C2 1_555 1_555
H8 C7 1_555 1_555
C8 N1 1_555 1_555
C9 C8 1_555 1_555
H9 C9 1_555 1_555
C10 C9 1_555 1_555
H10 C10 1_555 1_555
C11 C10 1_555 1_555
C12 C11 1_555 1_555
H11 C12 1_555 1_555
C13 C8 1_555 1_555
H12 C13 1_555 1_555
C14 C11 1_555 1_555
H13 C14 1_555 1_555
C15 C14 1_555 1_555
H14 C15 1_555 1_555
C16 C15 1_555 1_555
C17 C16 1_555 1_555
H15 C17 1_555 1_555
C18 C17 1_555 1_555
H16 C18 1_555 1_555
C19 C18 1_555 1_555
C20 C19 1_555 1_555
H17 C20 1_555 1_555
C21 C16 1_555 1_555
H18 C21 1_555 1_555
C22 N2 1_555 1_555
C23 C22 1_555 1_555
H19 C23 1_555 1_555
C24 C23 1_555 1_555
H20 C24 1_555 1_555
C25 C24 1_555 1_555
H21 C25 1_555 1_555
C26 C25 1_555 1_555
H22 C26 1_555 1_555
C27 C22 1_555 1_555
H23 C27 1_555 1_555
C28 N2 1_555 1_555
C29 C28 1_555 1_555
H24 C29 1_555 1_555
C30 C29 1_555 1_555
H25 C30 1_555 1_555
C31 C30 1_555 1_555
H26 C31 1_555 1_555
C32 C31 1_555 1_555
H27 C32 1_555 1_555
C33 C28 1_555 1_555
H28 C33 1_555 1_555
C2 C3 1_555 1_555
C6 C7 1_555 1_555
C12 C13 1_555 1_555
C20 C21 1_555 1_555
C26 C27 1_555 1_555
C32 C33 1_555 1_555

#END
