
#######################################################################
#
#                 Cambridge Crystallographic Data Centre
#                                CCDC 
#
#######################################################################
#
# If this CIF has been generated from an entry in the Cambridge 
# Structural Database, then it will include bibliographic, chemical, 
# crystal, experimental, refinement or atomic coordinate data resulting 
# from the CCDC's data processing and validation procedures.
#
#######################################################################

data_EJUDOE01
_chemical_formula_moiety         'C33 H26 N2 O1'
_chemical_name_systematic        
2-((4-(2-(4-(diphenylamino)phenyl)vinyl)phenyl)carbonoimidoyl)phenol
_symmetry_cell_setting           triclinic
_symmetry_space_group_name_H-M   'P -1'
_symmetry_Int_Tables_number      2
_space_group_name_Hall           '-P 1'
loop_
_symmetry_equiv_pos_site_id
_symmetry_equiv_pos_as_xyz
1 x,y,z
2 -x,-y,-z
_cell_length_a                   10.453
_cell_length_b                   15.215
_cell_length_c                   24.840
_cell_angle_alpha                98.78
_cell_angle_beta                 97.42
_cell_angle_gamma                95.99
_cell_volume                     3840.47
_cell_formula_units_Z            6
loop_
_atom_site_label
_atom_site_type_symbol
_atom_site_fract_x
_atom_site_fract_y
_atom_site_fract_z
C1 C 0.4987(5) 0.8167(4) 1.10494(18)
C2 C 0.4635(5) 0.9025(4) 1.1161(2)
H1 H 0.3964 0.9196 1.0932
C3 C 0.5287(6) 0.9627(3) 1.1615(2)
H2 H 0.5052 1.0201 1.1690
C4 C 0.6290(5) 0.9370(4) 1.19581(18)
H3 H 0.6726 0.9773 1.2262
C5 C 0.6641(5) 0.8512(4) 1.1847(2)
H4 H 0.7312 0.8341 1.2076
C6 C 0.5990(6) 0.7911(3) 1.1392(3)
N1 N -0.0283(5) 0.1469(3) 0.63174(18)
C7 C -0.0936(6) 0.1530(4) 0.5789(2)
C8 C 0.2501(6) 0.5197(4) 0.8946(3)
C9 C 0.1103(6) 0.3713(4) 0.7552(2)
C10 C 0.0651(6) 0.2890(4) 0.7674(2)
H5 H 0.0657 0.2832 0.8042
C11 C 0.2944(8) 0.4942(5) 0.9442(3)
H6 H 0.2836 0.4338 0.9473
C12 C 0.0175(5) 0.2226(4) 0.6717(2)
C13 C 0.0607(6) 0.3038(4) 0.6590(2)
H7 H 0.0601 0.3099 0.6222
C14 C -0.0714(6) 0.0981(4) 0.5332(3)
H8 H -0.0136 0.0563 0.5372
C15 C 0.2666(7) 0.6091(5) 0.8922(3)
H9 H 0.2372 0.6282 0.8595
C16 C 0.3697(7) 0.6465(5) 0.9857(3)
C17 C -0.0116(6) 0.0591(4) 0.6438(2)
C18 C 0.1110(7) 0.0384(5) 0.6619(2)
H10 H 0.1832 0.0815 0.6664
C19 C 0.1659(6) 0.4491(4) 0.7980(3)
H11 H 0.1846 0.5036 0.7864
C20 C 0.1254(8) -0.0440(5) 0.6728(2)
H12 H 0.2080 -0.0572 0.6850
C21 C -0.1164(7) -0.0037(4) 0.6370(2)
H13 H -0.1987 0.0101 0.6248
C22 C -0.2203(7) 0.1614(5) 0.4750(3)
H14 H -0.2625 0.1641 0.4401
C23 C 0.3254(6) 0.6720(4) 0.9369(3)
H15 H 0.3352 0.7324 0.9338
C24 C 0.3531(8) 0.5555(5) 0.9881(3)
H16 H 0.3830 0.5362 1.0207
C25 C -0.1323(7) 0.1031(5) 0.4815(3)
H17 H -0.1129 0.0663 0.4509
C26 C -0.2466(7) 0.2160(5) 0.5199(3)
H18 H -0.3070 0.2561 0.5158
C27 C -0.1830(7) 0.2118(4) 0.5718(3)
H19 H -0.2012 0.2493 0.6023
C28 C 0.0213(10) -0.1090(5) 0.6665(3)
H20 H 0.0329 -0.1657 0.6744
O1 O 0.6370(7) 0.7207(4) 1.1157(3)
H21 H 0.5763 0.6842 1.0990
C29 C -0.1005(8) -0.0895(4) 0.6483(3)
H22 H -0.1721 -0.1331 0.6434
C30 C 0.0193(6) 0.2155(4) 0.7275(2)
H23 H -0.0104 0.1613 0.7374
C31 C 0.1900(8) 0.4480(5) 0.8489(3)
H24 H 0.1661 0.3931 0.8593
N2 N 0.4434(6) 0.6992(4) 1.0348(2)
C32 C 0.1053(6) 0.3772(4) 0.6999(3)
H25 H 0.1325 0.4318 0.6900
C33 C 0.4166(7) 0.7749(5) 1.0563(3)
H26 H 0.3474 0.8012 1.0409
C34 C 0.5375(6) -0.1020(5) 0.6289(4)
H27 H 0.5488 -0.1620 0.6276
O2 O 1.1650(5) 0.7553(3) 1.10973(19)
H28 H 1.1094 0.7232 1.0867
N3 N 0.4762(5) 0.1676(3) 0.6336(2)
N4 N 0.9554(5) 0.7205(4) 1.0373(2)
C35 C 0.5219(6) 0.2302(4) 0.6819(2)
C36 C 0.9901(8) 0.8454(4) 1.1112(2)
C37 C 0.7612(11) 0.5455(7) 0.8950(3)
C38 C 1.0140(11) 0.9741(5) 1.1822(3)
H29 H 0.9801 1.0231 1.1996
C39 C 0.7594(8) 0.6723(5) 0.9652(3)
H30 H 0.7154 0.7176 0.9806
C40 C 0.6491(6) 0.2367(4) 0.7090(3)
H31 H 0.7072 0.2004 0.6948
C41 C 0.9470(8) 0.5976(5) 0.9656(3)
H32 H 1.0306 0.5914 0.9812
C42 C 0.4129(6) 0.1963(4) 0.5860(2)
C43 C 1.1355(10) 0.9566(6) 1.2024(3)
H33 H 1.1846 0.9947 1.2324
C44 C 0.9420(8) 0.9206(5) 1.1371(3)
H34 H 0.8606 0.9342 1.1235
C45 C 0.5200(6) 0.0264(5) 0.5831(2)
H35 H 0.5225 0.0524 0.5517
C46 C 0.7007(8) 0.6147(6) 0.9196(3)
H36 H 0.6171 0.6217 0.9043
C47 C 0.5000(7) 0.0367(5) 0.6788(3)
H37 H 0.4881 0.0702 0.7120
C48 C 0.8882(10) 0.5395(6) 0.9190(4)
H38 H 0.9335 0.4953 0.9031
C49 C 0.3038(7) 0.1452(5) 0.5545(3)
H39 H 0.2707 0.0916 0.5642
C50 C 0.4410(8) 0.2898(5) 0.7031(3)
H40 H 0.3567 0.2880 0.6852
C51 C 0.4592(7) 0.2766(4) 0.5724(3)
H41 H 0.5322 0.3116 0.5934
C52 C 0.2446(7) 0.1738(6) 0.5090(3)
H42 H 0.1734 0.1382 0.4871
C53 C 0.5387(7) -0.0619(5) 0.5814(3)
H43 H 0.5523 -0.0956 0.5486
C54 C 0.5196(7) -0.0512(6) 0.6763(3)
H44 H 0.5207 -0.0767 0.7080
C55 C 0.6082(13) 0.3567(6) 0.7780(4)
C56 C 0.6876(8) 0.2974(5) 0.7570(3)
H45 H 0.7706 0.2984 0.7759
C57 C 0.2895(9) 0.2551(6) 0.4951(3)
H46 H 0.2482 0.2755 0.4648
C58 C 0.3959(9) 0.3041(5) 0.5273(3)
H47 H 0.4271 0.3587 0.5183
C59 C 0.4843(9) 0.3504(6) 0.7495(3)
H48 H 0.4282 0.3894 0.7626
C60 C 0.4977(5) 0.0765(4) 0.6310(3)
C61 C 0.8838(8) 0.6646(4) 0.9893(3)
C62 C 0.9137(7) 0.7901(5) 1.0636(3)
H49 H 0.8318 0.8043 1.0511
C63 C 1.1139(9) 0.8268(5) 1.1328(3)
C64 C 1.1857(8) 0.8810(6) 1.1774(3)
H50 H 1.2673 0.8681 1.1913
C65 C 0.6988(11) 0.4957(6) 0.8452(4)
H51 H 0.6848 0.5299 0.8175
C66 C 0.6568(11) 0.4130(6) 0.8298(4)
H52 H 0.6580 0.3816 0.8591
N5 N 0.1878(5) -0.1093(3) -0.0915(2)
C67 C 0.2158(7) -0.0497(4) -0.0397(2)
C68 C 0.1480(8) -0.2180(4) -0.1978(3)
C69 C 0.6980(8) 0.5022(5) 0.3946(3)
H53 H 0.6557 0.5525 0.3920
C70 C 0.6359(7) 0.4191(5) 0.3715(2)
C71 C 0.0690(7) -0.2296(4) -0.1577(3)
O3 O 0.2478(5) -0.1524(3) -0.1891(2)
H54 H 0.2300 -0.1081 -0.1697
C72 C 0.1411(7) -0.0509(4) 0.0027(3)
H55 H 0.0682 -0.0933 -0.0012
C73 C 0.2818(10) 0.0734(5) 0.0579(3)
C74 C 0.8873(8) 0.4369(7) 0.4256(3)
H56 H 0.9716 0.4430 0.4442
C75 C 0.3214(7) 0.0137(5) -0.0328(3)
H57 H 0.3712 0.0155 -0.0611
C76 C 0.1745(8) 0.0097(5) 0.0498(3)
H58 H 0.1230 0.0081 0.0775
C77 C 0.4126(7) 0.4599(4) 0.3664(3)
C78 C 0.1260(9) -0.2769(5) -0.2474(3)
H59 H 0.1799 -0.2698 -0.2738
C79 C 0.8248(9) 0.5115(6) 0.4219(3)
H60 H 0.8673 0.5681 0.4377
C80 C 0.3262(8) 0.4979(5) 0.3325(3)
H61 H 0.3316 0.4936 0.2952
C81 C -0.0310(8) -0.2992(5) -0.1687(3)
H62 H -0.0849 -0.3069 -0.1424
C82 C 0.0256(11) -0.3453(6) -0.2577(4)
H63 H 0.0102 -0.3835 -0.2915
C83 C 0.3127(10) 0.2299(5) 0.2411(4)
H64 H 0.2353 0.1920 0.2379
C84 C 0.4022(7) 0.4669(5) 0.4219(3)
H65 H 0.4592 0.4415 0.4452
C85 C 0.2327(8) 0.5418(5) 0.3548(4)
H66 H 0.1754 0.5678 0.3320
C86 C 0.4662(8) 0.3478(5) 0.2949(3)
C87 C 0.8255(8) 0.3539(6) 0.4018(3)
H67 H 0.8688 0.3037 0.4031
C88 C 0.5425(9) 0.3438(6) 0.2543(3)
H68 H 0.6202 0.3814 0.2580
C89 C 0.3070(9) 0.5118(6) 0.4420(4)
H69 H 0.3013 0.5171 0.4794
C90 C -0.0527(9) -0.3579(5) -0.2184(5)
H70 H -0.1195 -0.4054 -0.2250
C91 C 0.6990(7) 0.3446(5) 0.3759(3)
H71 H 0.6557 0.2877 0.3612
C92 C 0.2205(8) 0.5489(5) 0.4095(5)
H72 H 0.1553 0.5781 0.4238
C93 C 0.3556(8) 0.0745(5) 0.0146(3)
H73 H 0.4284 0.1169 0.0182
C94 C 0.4968(12) 0.2784(7) 0.2056(4)
H74 H 0.5478 0.2733 0.1775
C95 C 0.3511(9) 0.2889(5) 0.2879(3)
H75 H 0.3004 0.2907 0.3160
C96 C 0.3364(9) 0.1416(5) 0.1070(3)
H76 H 0.4012 0.1841 0.1010
C97 C 0.3096(10) 0.1516(6) 0.1558(3)
H77 H 0.2435 0.1128 0.1645
N6 N 0.5058(6) 0.4086(4) 0.3442(2)
C98 C 0.3808(15) 0.2229(7) 0.1986(5)
C99 C 0.0929(7) -0.1722(5) -0.1040(3)
H78 H 0.0379 -0.1817 -0.0783
loop_
_geom_bond_atom_site_label_1
_geom_bond_atom_site_label_2
_geom_bond_site_symmetry_1
_geom_bond_site_symmetry_2
C1 C2 1_555 1_555
C2 H1 1_555 1_555
C3 C2 1_555 1_555
H2 C3 1_555 1_555
C4 C3 1_555 1_555
H3 C4 1_555 1_555
C5 C4 1_555 1_555
H4 C5 1_555 1_555
C6 C1 1_555 1_555
N1 C7 1_555 1_555
C7 C14 1_555 1_555
C8 C11 1_555 1_555
C9 C10 1_555 1_555
C10 H5 1_555 1_555
C11 H6 1_555 1_555
C12 N1 1_555 1_555
C13 C12 1_555 1_555
H7 C13 1_555 1_555
C14 H8 1_555 1_555
C15 C8 1_555 1_555
H9 C15 1_555 1_555
C16 C23 1_555 1_555
C17 N1 1_555 1_555
C18 C17 1_555 1_555
H10 C18 1_555 1_555
C19 C9 1_555 1_555
H11 C19 1_555 1_555
C20 C18 1_555 1_555
H12 C20 1_555 1_555
C21 C17 1_555 1_555
H13 C21 1_555 1_555
C22 H14 1_555 1_555
C23 C15 1_555 1_555
H15 C23 1_555 1_555
C24 C11 1_555 1_555
H16 C24 1_555 1_555
C25 C14 1_555 1_555
H17 C25 1_555 1_555
C26 C22 1_555 1_555
H18 C26 1_555 1_555
C27 C7 1_555 1_555
H19 C27 1_555 1_555
C28 C20 1_555 1_555
H20 C28 1_555 1_555
O1 C6 1_555 1_555
H21 O1 1_555 1_555
C29 C21 1_555 1_555
H22 C29 1_555 1_555
C30 C10 1_555 1_555
H23 C30 1_555 1_555
C31 C8 1_555 1_555
H24 C31 1_555 1_555
N2 C16 1_555 1_555
C32 C9 1_555 1_555
H25 C32 1_555 1_555
C33 C1 1_555 1_555
H26 C33 1_555 1_555
C34 H27 1_555 1_555
O2 H28 1_555 1_555
N3 C35 1_555 1_555
N4 C61 1_555 1_555
C35 C40 1_555 1_555
C36 C44 1_555 1_555
C37 C46 1_555 1_555
C38 H29 1_555 1_555
C39 H30 1_555 1_555
C40 H31 1_555 1_555
C41 H32 1_555 1_555
C42 N3 1_555 1_555
C43 C38 1_555 1_555
H33 C43 1_555 1_555
C44 C38 1_555 1_555
H34 C44 1_555 1_555
C45 H35 1_555 1_555
C46 C39 1_555 1_555
H36 C46 1_555 1_555
C47 H37 1_555 1_555
C48 C37 1_555 1_555
H38 C48 1_555 1_555
C49 C42 1_555 1_555
H39 C49 1_555 1_555
C50 C35 1_555 1_555
H40 C50 1_555 1_555
C51 C42 1_555 1_555
H41 C51 1_555 1_555
C52 C49 1_555 1_555
H42 C52 1_555 1_555
C53 C34 1_555 1_555
H43 C53 1_555 1_555
C54 C34 1_555 1_555
H44 C54 1_555 1_555
C55 C56 1_555 1_555
C56 C40 1_555 1_555
H45 C56 1_555 1_555
C57 C52 1_555 1_555
H46 C57 1_555 1_555
C58 C51 1_555 1_555
H47 C58 1_555 1_555
C59 C50 1_555 1_555
H48 C59 1_555 1_555
C60 N3 1_555 1_555
C61 C39 1_555 1_555
C62 N4 1_555 1_555
H49 C62 1_555 1_555
C63 O2 1_555 1_555
C64 C43 1_555 1_555
H50 C64 1_555 1_555
C65 C37 1_555 1_555
H51 C65 1_555 1_555
C66 C55 1_555 1_555
H52 C66 1_555 1_555
N5 C67 1_555 1_555
C67 C72 1_555 1_555
C68 C71 1_555 1_555
C69 H53 1_555 1_555
C70 C69 1_555 1_555
C71 C81 1_555 1_555
O3 C68 1_555 1_555
H54 O3 1_555 1_555
C72 H55 1_555 1_555
C73 C76 1_555 1_555
C74 H56 1_555 1_555
C75 C67 1_555 1_555
H57 C75 1_555 1_555
C76 C72 1_555 1_555
H58 C76 1_555 1_555
C77 C80 1_555 1_555
C78 C68 1_555 1_555
H59 C78 1_555 1_555
C79 C69 1_555 1_555
H60 C79 1_555 1_555
C80 H61 1_555 1_555
C81 H62 1_555 1_555
C82 C78 1_555 1_555
H63 C82 1_555 1_555
C83 H64 1_555 1_555
C84 C77 1_555 1_555
H65 C84 1_555 1_555
C85 C80 1_555 1_555
H66 C85 1_555 1_555
C86 C88 1_555 1_555
C87 C74 1_555 1_555
H67 C87 1_555 1_555
C88 H68 1_555 1_555
C89 C84 1_555 1_555
H69 C89 1_555 1_555
C90 C81 1_555 1_555
H70 C90 1_555 1_555
C91 C70 1_555 1_555
H71 C91 1_555 1_555
C92 C85 1_555 1_555
H72 C92 1_555 1_555
C93 C73 1_555 1_555
H73 C93 1_555 1_555
C94 C88 1_555 1_555
H74 C94 1_555 1_555
C95 C83 1_555 1_555
H75 C95 1_555 1_555
C96 C73 1_555 1_555
H76 C96 1_555 1_555
C97 C96 1_555 1_555
H77 C97 1_555 1_555
N6 C70 1_555 1_555
C98 C83 1_555 1_555
C99 N5 1_555 1_555
H78 C99 1_555 1_555
C5 C6 1_555 1_555
C12 C30 1_555 1_555
C13 C32 1_555 1_555
C16 C24 1_555 1_555
C19 C31 1_555 1_555
C22 C25 1_555 1_555
C26 C27 1_555 1_555
C28 C29 1_555 1_555
N2 C33 1_555 1_555
C36 C62 1_555 1_555
C36 C63 1_555 1_555
C41 C48 1_555 1_555
C41 C61 1_555 1_555
C45 C53 1_555 1_555
C45 C60 1_555 1_555
C47 C54 1_555 1_555
C47 C60 1_555 1_555
C55 C59 1_555 1_555
C57 C58 1_555 1_555
C63 C64 1_555 1_555
C65 C66 1_555 1_555
C71 C99 1_555 1_555
C74 C79 1_555 1_555
C75 C93 1_555 1_555
C77 N6 1_555 1_555
C82 C90 1_555 1_555
C86 C95 1_555 1_555
C86 N6 1_555 1_555
C87 C91 1_555 1_555
C89 C92 1_555 1_555
C94 C98 1_555 1_555
C97 C98 1_555 1_555

#END
