
#######################################################################
#
#                 Cambridge Crystallographic Data Centre
#                                CCDC 
#
#######################################################################
#
# If this CIF has been generated from an entry in the Cambridge 
# Structural Database, then it will include bibliographic, chemical, 
# crystal, experimental, refinement or atomic coordinate data resulting 
# from the CCDC's data processing and validation procedures.
#
#######################################################################

data_EJUGEV01
_chemical_formula_moiety         'C20 H14 O2,1.5(C3 H7 N1 O1)'
_chemical_name_systematic        
"rac-1,1'-Bi-2-naphthol dimethylformamide solvate"
_symmetry_cell_setting           monoclinic
_symmetry_space_group_name_H-M   'C 2/c'
_symmetry_Int_Tables_number      15
_space_group_name_Hall           '-C 2yn'
loop_
_symmetry_equiv_pos_site_id
_symmetry_equiv_pos_as_xyz
1 x,y,z
2 1/2+x,1/2+y,z
3 -x,y,1/2-z
4 1/2-x,1/2+y,1/2-z
5 -x,-y,-z
6 1/2-x,1/2-y,-z
7 x,-y,1/2+z
8 1/2+x,1/2-y,1/2+z
_cell_length_a                   14.2500(10)
_cell_length_b                   10.8060(10)
_cell_length_c                   28.126(2)
_cell_angle_alpha                90
_cell_angle_beta                 96.3740(10)
_cell_angle_gamma                90
_cell_volume                     4304.22
_exptl_crystal_colour            colorless
_exptl_crystal_description       block
_cell_formula_units_Z            8
loop_
_atom_site_label
_atom_site_type_symbol
_atom_site_fract_x
_atom_site_fract_y
_atom_site_fract_z
O1 O 0.5386(2) 0.6903(3) 0.55870(10)
O2 O 0.4730(2) 0.7629(2) 0.67360(10)
C1 C 0.4445(2) 0.5759(3) 0.60560(10)
C2 C 0.4549(3) 0.6346(4) 0.56320(10)
C3 C 0.3801(3) 0.6374(4) 0.52580(10)
C4 C 0.2973(3) 0.5809(4) 0.53100(10)
C5 C 0.2825(2) 0.5184(3) 0.57340(10)
C6 C 0.3570(2) 0.5168(3) 0.61140(10)
C7 C 0.3406(3) 0.4560(4) 0.65390(10)
C8 C 0.2563(3) 0.3997(4) 0.6586(2)
C9 C 0.1839(3) 0.4008(4) 0.6211(2)
C10 C 0.1968(3) 0.4591(4) 0.5798(2)
C11 C 0.5235(2) 0.5726(3) 0.64490(10)
C12 C 0.5351(2) 0.6656(3) 0.67800(10)
C13 C 0.6088(3) 0.6625(4) 0.71590(10)
C14 C 0.6715(3) 0.5681(4) 0.71960(10)
C15 C 0.6643(3) 0.4705(4) 0.68640(10)
C16 C 0.5887(2) 0.4722(3) 0.64870(10)
C17 C 0.5815(3) 0.3738(4) 0.6154(2)
C18 C 0.6466(4) 0.2800(5) 0.6193(2)
C19 C 0.7197(4) 0.2781(6) 0.6557(2)
C20 C 0.7289(3) 0.3714(5) 0.6883(2)
H1 H 0.5363 0.7239 0.5325
H2 H 0.4854 0.8108 0.6961
H3 H 0.3879 0.6784 0.4975
H4 H 0.2488 0.5835 0.5060
H5 H 0.3882 0.4541 0.6793
H6 H 0.2472 0.3603 0.6872
H7 H 0.1269 0.3616 0.6244
H8 H 0.1478 0.4602 0.5550
H9 H 0.6143 0.7257 0.7385
H10 H 0.7202 0.5678 0.7445
H11 H 0.5323 0.3726 0.5908
H12 H 0.6413 0.2164 0.5969
H13 H 0.7628 0.2131 0.6580
H14 H 0.7790 0.3698 0.7125
O3 O 0.5401(3) 0.8198(5) 0.47780(10)
N1 N 0.6382(3) 0.9121(4) 0.43170(10)
C21 C 0.6120(5) 0.8212(6) 0.4580(2)
C22 C 0.5824(5) 1.0214(7) 0.4251(3)
C23 C 0.7238(6) 0.9074(8) 0.4094(3)
H15 H 0.6513 0.7524 0.4619
H16 H 0.5320 1.0081 0.4000
H17 H 0.6211 1.0888 0.4166
H18 H 0.5565 1.0410 0.4543
H19 H 0.7629 0.8415 0.4232
H20 H 0.7568 0.9846 0.4143
H21 H 0.7090 0.8931 0.3757
O4? O 0.5000 0.9273(4) 0.7500
N2? N 0.5000 1.1334(5) 0.7500
C24? C 0.4962(5) 1.0288(7) 0.7700(3)
C25? C 0.5100(10) 1.1250(10) 0.6967(3)
C26? C 0.4978(6) 1.2613(8) 0.7627(5)
H22? H 0.4899 1.0282 0.8026
H23? H 0.5570 1.0645 0.6915
H24? H 0.5273 1.2038 0.6852
H25? H 0.4502 1.0998 0.6799
H26? H 0.4420 1.2990 0.7467
H27? H 0.5527 1.3021 0.7534
H28? H 0.4971 1.2687 0.7967
loop_
_geom_bond_atom_site_label_1
_geom_bond_atom_site_label_2
_geom_bond_site_symmetry_1
_geom_bond_site_symmetry_2
O1 C2 1_555 1_555
O2 C12 1_555 1_555
O3 C21 1_555 1_555
N1 C21 1_555 1_555
C1 C2 1_555 1_555
C2 C3 1_555 1_555
C3 C4 1_555 1_555
C4 C5 1_555 1_555
C5 C6 1_555 1_555
C6 C1 1_555 1_555
C7 C6 1_555 1_555
C8 C7 1_555 1_555
C9 C8 1_555 1_555
C10 C5 1_555 1_555
C11 C1 1_555 1_555
C12 C11 1_555 1_555
C13 C12 1_555 1_555
C14 C13 1_555 1_555
C15 C14 1_555 1_555
C16 C11 1_555 1_555
C17 C16 1_555 1_555
C18 C17 1_555 1_555
C19 C18 1_555 1_555
C20 C15 1_555 1_555
C21 H15 1_555 1_555
C22 N1 1_555 1_555
C23 N1 1_555 1_555
H1 O1 1_555 1_555
H2 O2 1_555 1_555
H3 C3 1_555 1_555
H4 C4 1_555 1_555
H5 C7 1_555 1_555
H6 C8 1_555 1_555
H7 C9 1_555 1_555
H8 C10 1_555 1_555
H9 C13 1_555 1_555
H10 C14 1_555 1_555
H11 C17 1_555 1_555
H12 C18 1_555 1_555
H13 C19 1_555 1_555
H14 C20 1_555 1_555
H16 C22 1_555 1_555
H17 C22 1_555 1_555
H18 C22 1_555 1_555
H19 C23 1_555 1_555
H20 C23 1_555 1_555
H21 C23 1_555 1_555
C9 C10 1_555 1_555
C15 C16 1_555 1_555
C19 C20 1_555 1_555

#END
