
#######################################################################
#
#                 Cambridge Crystallographic Data Centre
#                                CCDC 
#
#######################################################################
#
# If this CIF has been generated from an entry in the Cambridge 
# Structural Database, then it will include bibliographic, chemical, 
# crystal, experimental, refinement or atomic coordinate data resulting 
# from the CCDC's data processing and validation procedures.
#
#######################################################################

data_EJULOM
_chemical_compound_source        
'extracted from a culture of the endophytic fungus Alternaria species G7 in Broussonetia papyrifera'
_chemical_name_common            'altertoxin IV monohydrate'
_chemical_formula_moiety         'C20 H14 O6,H2 O1'
_chemical_name_systematic        
'4,9,10,11,12-pentahydroxy-11,12-dihydroperylen-3(10H)-one monohydrate'
_symmetry_cell_setting           monoclinic
_symmetry_space_group_name_H-M   'C 2'
_symmetry_Int_Tables_number      5
_space_group_name_Hall           'C 2y'
loop_
_symmetry_equiv_pos_site_id
_symmetry_equiv_pos_as_xyz
1 x,y,z
2 -x,y,-z
3 1/2+x,1/2+y,z
4 1/2-x,1/2+y,-z
_cell_length_a                   12.5942(3)
_cell_length_b                   6.78980(10)
_cell_length_c                   36.2658(7)
_cell_angle_alpha                90
_cell_angle_beta                 93.6680(10)
_cell_angle_gamma                90
_cell_volume                     3094.81
_exptl_crystal_colour            red
_exptl_crystal_description       prismatic
_cell_formula_units_Z            8
loop_
_atom_site_label
_atom_site_type_symbol
_atom_site_fract_x
_atom_site_fract_y
_atom_site_fract_z
O1 O 0.8716(2) -0.0053(4) 0.27766(6)
H1 H 0.9087 -0.0678 0.2929
O2 O 0.96972(16) -0.0813(3) 0.33932(6)
O3 O 0.93061(15) 0.7461(4) 0.44084(6)
O4 O 0.77491(17) 0.8147(4) 0.49373(5)
H2 H 0.7925 0.7161 0.5057
O5 O 0.63520(15) 1.0404(3) 0.45204(5)
O6 O 0.60334(16) 1.2011(3) 0.38607(5)
H3 H 0.5586 1.2517 0.3716
C1 C 0.7264(3) 0.4470(5) 0.28730(8)
H4 H 0.6811 0.5269 0.2726
C2 C 0.7667(3) 0.2809(6) 0.27248(8)
H5 H 0.7487 0.2498 0.2479
C3 C 0.8344(2) 0.1569(5) 0.29362(8)
C4 C 0.9326(2) 0.0750(4) 0.35266(8)
C5 C 0.9594(2) 0.1319(4) 0.39006(7)
H6 H 1.0059 0.0539 0.4047
C6 C 0.91892(19) 0.2954(4) 0.40456(7)
H7 H 0.9389 0.3266 0.4290
C7 C 0.83268(19) 0.6408(4) 0.43996(6)
H8 H 0.8431 0.5182 0.4540
C8 C 0.74575(19) 0.7602(4) 0.45632(6)
H9 H 0.6811 0.6797 0.4560
C9 C 0.72084(19) 0.9471(4) 0.43483(7)
H10 H 0.7832 1.0337 0.4370
C10 C 0.63654(19) 1.0275(4) 0.37173(7)
C11 C 0.6098(2) 0.9810(5) 0.33476(7)
H11 H 0.5672 1.0667 0.3203
C12 C 0.6453(2) 0.8117(5) 0.31962(7)
H12 H 0.6264 0.7837 0.2950
C13 C 0.8622(2) 0.2027(5) 0.33054(7)
C14 C 0.84624(19) 0.4247(4) 0.38415(7)
C15 C 0.69577(19) 0.8991(4) 0.39428(7)
C16 C 0.7103(2) 0.6776(4) 0.34049(7)
C17 C 0.80343(18) 0.5914(4) 0.39974(7)
C18 C 0.73603(19) 0.7237(4) 0.37849(7)
C19 C 0.7515(2) 0.5016(5) 0.32463(7)
C20 C 0.82026(19) 0.3778(4) 0.34605(7)
H13 H 0.608(3) 1.127(6) 0.4337(10)
H14 H 0.942(4) 0.797(8) 0.4574(12)
O7 O 1.0771(2) 0.2041(4) 0.22227(6)
H15 H 1.0803 0.1095 0.2083
O8 O 1.06461(17) 0.0264(3) 0.16066(6)
O9 O 0.65768(18) 0.5188(4) 0.06098(6)
O10 O 0.70326(17) 0.7921(4) 0.00674(5)
H16 H 0.7460 0.7395 -0.0063
O11 O 0.67776(18) 1.1249(3) 0.04808(6)
H17 H 0.6263 1.1889 0.0540
O12 O 0.60615(17) 1.2216(4) 0.11398(5)
H18 H 0.5999 1.3109 0.1289
C21 C 0.9235(3) 0.6484(6) 0.21283(8)
H19 H 0.9065 0.7547 0.2275
C22 C 0.9869(3) 0.5036(6) 0.22782(9)
H20 H 1.0122 0.5119 0.2524
C23 C 1.0145(2) 0.3416(5) 0.20637(8)
C24 C 1.0049(2) 0.1632(4) 0.14730(8)
C25 C 0.9618(2) 0.1556(5) 0.10952(8)
H21 H 0.9772 0.0482 0.0949
C26 C 0.9001(2) 0.3005(5) 0.09516(7)
H22 H 0.8749 0.2905 0.0706
C27 C 0.7605(2) 0.6063(5) 0.06097(7)
H23 H 0.8068 0.5246 0.0465
C28 C 0.7484(2) 0.8065(5) 0.04361(7)
H24 H 0.8186 0.8685 0.0433
C29 C 0.6763(2) 0.9362(4) 0.06490(7)
H25 H 0.6038 0.8838 0.0619
C30 C 0.6762(2) 1.0871(4) 0.12832(8)
C31 C 0.7137(2) 1.0953(5) 0.16559(8)
H26 H 0.6919 1.1981 0.1803
C32 C 0.7809(2) 0.9568(5) 0.18064(8)
H27 H 0.8056 0.9686 0.2053
C33 C 0.9765(2) 0.3292(5) 0.16944(7)
C34 C 0.87068(19) 0.4713(4) 0.11580(7)
C35 C 0.7105(2) 0.9375(4) 0.10567(7)
C36 C 0.8068(2) 0.6209(4) 0.10032(7)
C37 C 0.77774(19) 0.7861(4) 0.12174(7)
C38 C 0.8139(2) 0.7957(4) 0.15984(7)
C39 C 0.8822(2) 0.6427(5) 0.17555(7)
C40 C 0.9098(2) 0.4814(4) 0.15391(7)
H28 H 0.663(8) 0.453(4) 0.0800(7)
O13 O 0.0000 0.3536(6) 0.5000
H29 H 0.0348 0.4075 0.4836
H29A H -0.0348 0.4075 0.5164
O14 O 0.5000 0.5968(9) 1.0000
H30 H 0.4327 0.6267 0.9964
H30A H 0.5673 0.6267 1.0036
O15 O 0.0000 -0.0281(8) 0.5000
H31 H 0.0593 -0.0349 0.4902
H31A H -0.0593 -0.0349 0.5098
O16 O 0.5000 0.1995(12) 0.0000
H32 H 0.5188 0.0927 0.0125
H32A H 0.4812 0.0927 -0.0125
loop_
_geom_bond_atom_site_label_1
_geom_bond_atom_site_label_2
_geom_bond_site_symmetry_1
_geom_bond_site_symmetry_2
O1 H1 1_555 1_555
O2 C4 1_555 1_555
O3 C7 1_555 1_555
O4 H2 1_555 1_555
O5 C9 1_555 1_555
O6 H3 1_555 1_555
C1 H4 1_555 1_555
C2 C1 1_555 1_555
H5 C2 1_555 1_555
C3 O1 1_555 1_555
C4 C5 1_555 1_555
C5 H6 1_555 1_555
C6 C5 1_555 1_555
H7 C6 1_555 1_555
C7 H8 1_555 1_555
C8 O4 1_555 1_555
H9 C8 1_555 1_555
C9 C8 1_555 1_555
H10 C9 1_555 1_555
C10 O6 1_555 1_555
C11 C10 1_555 1_555
H11 C11 1_555 1_555
C12 C11 1_555 1_555
H12 C12 1_555 1_555
C13 C3 1_555 1_555
C14 C6 1_555 1_555
C15 C9 1_555 1_555
C16 C12 1_555 1_555
C17 C7 1_555 1_555
C18 C15 1_555 1_555
C19 C1 1_555 1_555
C20 C13 1_555 1_555
H13 O5 1_555 1_555
H14 O3 1_555 1_555
O7 H15 1_555 1_555
O8 C24 1_555 1_555
O9 C27 1_555 1_555
O10 H16 1_555 1_555
O11 H17 1_555 1_555
O12 H18 1_555 1_555
C21 H19 1_555 1_555
C22 C21 1_555 1_555
H20 C22 1_555 1_555
C23 O7 1_555 1_555
C24 C25 1_555 1_555
C25 H21 1_555 1_555
C26 C25 1_555 1_555
H22 C26 1_555 1_555
C27 H23 1_555 1_555
C28 O10 1_555 1_555
H24 C28 1_555 1_555
C29 O11 1_555 1_555
H25 C29 1_555 1_555
C30 O12 1_555 1_555
C31 C30 1_555 1_555
H26 C31 1_555 1_555
C32 C31 1_555 1_555
H27 C32 1_555 1_555
C33 C23 1_555 1_555
C34 C26 1_555 1_555
C35 C29 1_555 1_555
C36 C27 1_555 1_555
C37 C35 1_555 1_555
C38 C32 1_555 1_555
C39 C21 1_555 1_555
C40 C33 1_555 1_555
H28 O9 1_555 1_555
O13 H29 1_555 1_555
O14 H30 1_555 1_555
O15 H31 1_555 1_555
O16 H32 1_555 1_555
H29A O13 1_555 1_555
H30A O14 1_555 1_555
H31A O15 1_555 1_555
H32A O16 1_555 1_555
C2 C3 1_555 1_555
C4 C13 1_555 1_555
C7 C8 1_555 1_555
C10 C15 1_555 1_555
C14 C17 1_555 1_555
C14 C20 1_555 1_555
C16 C18 1_555 1_555
C16 C19 1_555 1_555
C17 C18 1_555 1_555
C19 C20 1_555 1_555
C22 C23 1_555 1_555
C24 C33 1_555 1_555
C27 C28 1_555 1_555
C28 C29 1_555 1_555
C30 C35 1_555 1_555
C34 C36 1_555 1_555
C34 C40 1_555 1_555
C36 C37 1_555 1_555
C37 C38 1_555 1_555
C38 C39 1_555 1_555
C39 C40 1_555 1_555

#END
