
#######################################################################
#
#                 Cambridge Crystallographic Data Centre
#                                CCDC 
#
#######################################################################
#
# If this CIF has been generated from an entry in the Cambridge 
# Structural Database, then it will include bibliographic, chemical, 
# crystal, experimental, refinement or atomic coordinate data resulting 
# from the CCDC's data processing and validation procedures.
#
#######################################################################

data_EJUPAA
_chemical_formula_moiety         'C14 H11 N1 O4'
_chemical_name_systematic        
'1-Phthalimido-2-methylenecyclopropanecarboxylic acid methyl ester'
_symmetry_cell_setting           triclinic
_symmetry_space_group_name_H-M   'P -1'
_symmetry_Int_Tables_number      2
_space_group_name_Hall           '-P 1'
loop_
_symmetry_equiv_pos_site_id
_symmetry_equiv_pos_as_xyz
1 x,y,z
2 -x,-y,-z
_cell_length_a                   7.0050(2)
_cell_length_b                   12.8848(4)
_cell_length_c                   13.7023(5)
_cell_angle_alpha                91.151(1)
_cell_angle_beta                 94.660(1)
_cell_angle_gamma                90.007(2)
_cell_volume                     1232.4
_exptl_crystal_colour            colorless
_exptl_crystal_description       block
_chemical_melting_point          139-140deg.C
_cell_formula_units_Z            4
_exptl_crystal_recrystallization_method dichloromethane
loop_
_atom_site_label
_atom_site_type_symbol
_atom_site_fract_x
_atom_site_fract_y
_atom_site_fract_z
O1 O -0.0925(3) 0.6276(2) 0.30718(16)
O2 O 0.0875(3) 0.60626(17) 0.18044(14)
O3 O 0.2592(3) 0.52347(16) 0.50786(14)
O4 O 0.1535(3) 0.85522(16) 0.40385(15)
N1 N 0.2224(3) 0.68239(17) 0.43233(16)
C1 C 0.2448(4) 0.6508(2) 0.33314(19)
C2 C 0.4121(4) 0.6919(2) 0.2860(2)
C3 C 0.4897(5) 0.7770(3) 0.2552(2)
C4 C 0.4234(4) 0.5839(2) 0.3125(2)
C5 C 0.0609(4) 0.6277(2) 0.2747(2)
C6 C -0.0814(5) 0.5774(3) 0.1186(2)
C7 C 0.2321(4) 0.6157(2) 0.51212(19)
C8 C 0.2026(4) 0.6830(2) 0.59902(19)
C9 C 0.2011(4) 0.6573(3) 0.6965(2)
C10 C 0.1656(4) 0.7368(3) 0.7626(2)
C11 C 0.1343(4) 0.8375(3) 0.7309(2)
C12 C 0.1358(4) 0.8634(2) 0.6327(2)
C13 C 0.1708(4) 0.7833(2) 0.56798(19)
C14 C 0.1795(4) 0.7847(2) 0.4598(2)
H1 H 0.4238(5) 0.8453(3) 0.2622(2)
H2 H 0.6145(5) 0.7734(3) 0.2247(2)
H3 H 0.5148(4) 0.5616(2) 0.3680(2)
H4 H 0.4130(4) 0.5282(2) 0.2605(2)
H5 H -0.0457(5) 0.5632(3) 0.0505(2)
H6 H -0.1763(5) 0.6354(3) 0.1182(2)
H7 H -0.1393(5) 0.5136(3) 0.1445(2)
H8 H 0.2245(4) 0.5845(3) 0.7184(2)
H9 H 0.1626(4) 0.7214(3) 0.8337(2)
H10 H 0.1098(4) 0.8932(3) 0.7802(2)
H11 H 0.1129(4) 0.9361(2) 0.6103(2)
O5 O 0.0338(3) 0.14421(19) 0.04952(15)
O6 O 0.1734(3) 0.15230(17) -0.09130(14)
O7 O 0.4171(3) 0.01733(16) 0.19221(15)
O8 O 0.2835(3) 0.36335(16) 0.17365(15)
N2 N 0.3681(3) 0.19039(17) 0.15882(16)
C15 C 0.3666(4) 0.1842(2) 0.05433(19)
C16 C 0.5028(4) 0.2502(3) 0.0063(2)
C17 C 0.5463(5) 0.3484(3) -0.0129(2)
C18 C 0.5460(4) 0.1411(3) 0.0083(2)
C19 C 0.1729(4) 0.1585(2) 0.0055(2)
C20 C -0.0085(5) 0.1246(3) -0.1440(2)
C21 C 0.3867(4) 0.1050(2) 0.2200(2)
C22 C 0.3619(4) 0.1454(2) 0.32050(19)
C23 C 0.3658(4) 0.0937(2) 0.4080(2)
C24 C 0.3329(4) 0.1529(2) 0.4915(2)
C25 C 0.2965(4) 0.2588(2) 0.4862(2)
C26 C 0.2908(4) 0.3099(2) 0.3970(2)
C27 C 0.3243(4) 0.2505(2) 0.3149(2)
C28 C 0.3209(4) 0.2809(2) 0.2109(2)
H12 H 0.6591(5) 0.3636(3) -0.0506(2)
H13 H 0.4662(5) 0.4066(3) 0.0106(2)
H14 H 0.6575(4) 0.1152(3) 0.0512(2)
H15 H 0.5315(4) 0.0981(3) -0.0535(2)
H16 H 0.0068(5) 0.1220(3) -0.2159(2)
H17 H -0.1070(5) 0.1778(3) -0.1297(2)
H18 H -0.0504(5) 0.0550(3) -0.1226(2)
H19 H 0.3910(4) 0.0174(2) 0.4114(2)
H20 H 0.3356(4) 0.1185(2) 0.5563(2)
H21 H 0.2739(4) 0.2991(2) 0.5473(2)
H22 H 0.2636(4) 0.3859(2) 0.3926(2)
loop_
_geom_bond_atom_site_label_1
_geom_bond_atom_site_label_2
_geom_bond_site_symmetry_1
_geom_bond_site_symmetry_2
O1 C5 1_555 1_555
O2 C5 1_555 1_555
O3 C7 1_555 1_555
O4 C14 1_555 1_555
O5 C19 1_555 1_555
O6 C19 1_555 1_555
O7 C21 1_555 1_555
O8 C28 1_555 1_555
N1 C1 1_555 1_555
N2 C15 1_555 1_555
C1 C2 1_555 1_555
C2 C3 1_555 1_555
C3 H1 1_555 1_555
C4 C1 1_555 1_555
C5 C1 1_555 1_555
C6 O2 1_555 1_555
C7 N1 1_555 1_555
C8 C7 1_555 1_555
C9 C8 1_555 1_555
C10 C9 1_555 1_555
C11 C10 1_555 1_555
C12 C11 1_555 1_555
C13 C8 1_555 1_555
C14 N1 1_555 1_555
C15 C16 1_555 1_555
C16 C17 1_555 1_555
C17 H12 1_555 1_555
C18 C15 1_555 1_555
C19 C15 1_555 1_555
C20 O6 1_555 1_555
C21 N2 1_555 1_555
C22 C21 1_555 1_555
C23 C22 1_555 1_555
C24 C23 1_555 1_555
C25 C24 1_555 1_555
C26 C25 1_555 1_555
C27 C22 1_555 1_555
C28 N2 1_555 1_555
H2 C3 1_555 1_555
H3 C4 1_555 1_555
H4 C4 1_555 1_555
H5 C6 1_555 1_555
H6 C6 1_555 1_555
H7 C6 1_555 1_555
H8 C9 1_555 1_555
H9 C10 1_555 1_555
H10 C11 1_555 1_555
H11 C12 1_555 1_555
H13 C17 1_555 1_555
H14 C18 1_555 1_555
H15 C18 1_555 1_555
H16 C20 1_555 1_555
H17 C20 1_555 1_555
H18 C20 1_555 1_555
H19 C23 1_555 1_555
H20 C24 1_555 1_555
H21 C25 1_555 1_555
H22 C26 1_555 1_555
C2 C4 1_555 1_555
C12 C13 1_555 1_555
C13 C14 1_555 1_555
C16 C18 1_555 1_555
C26 C27 1_555 1_555
C27 C28 1_555 1_555

#END
