
#######################################################################
#
#                 Cambridge Crystallographic Data Centre
#                                CCDC 
#
#######################################################################
#
# If this CIF has been generated from an entry in the Cambridge 
# Structural Database, then it will include bibliographic, chemical, 
# crystal, experimental, refinement or atomic coordinate data resulting 
# from the CCDC's data processing and validation procedures.
#
#######################################################################

data_EJUPEG
_chemical_compound_source        'Streptomyces griseus strain M268'
_chemical_name_common            'Grisemycin monohydrate'
_chemical_formula_moiety         'C22 H28 O7 S1,H2 O1'
_chemical_name_systematic        
'5,13-Dimethoxy-3-methyl-17-(methylsulfinyl)-19,20-dioxahexacyclo[13.3.1.1^5,8^.0^1,6^.0^7,16^.0^9,14^]icosa-9,11,13-triene-3,16-diol monohydrate'
_chemical_properties_biological  
'modestly selective activity against the HL-60 cell line'
_symmetry_cell_setting           orthorhombic
_symmetry_space_group_name_H-M   'P 21 21 21'
_symmetry_Int_Tables_number      19
_space_group_name_Hall           'P 2ac 2ab'
loop_
_symmetry_equiv_pos_site_id
_symmetry_equiv_pos_as_xyz
1 x,y,z
2 1/2+x,1/2-y,-z
3 -x,1/2+y,1/2-z
4 1/2-x,-y,1/2+z
_cell_length_a                   11.4750(10)
_cell_length_b                   18.4863(16)
_cell_length_c                   20.0318(17)
_cell_angle_alpha                90
_cell_angle_beta                 90
_cell_angle_gamma                90
_cell_volume                     4249.35
_exptl_crystal_colour            colorless
_exptl_crystal_description       block
_cell_formula_units_Z            8
loop_
_atom_site_label
_atom_site_type_symbol
_atom_site_fract_x
_atom_site_fract_y
_atom_site_fract_z
S1 S 0.33759(3) 0.74374(2) 0.505815(19)
C1 C 0.2498(2) 0.96464(11) 0.74312(10)
H1 H 0.1710 0.9835 0.7359
H2 H 0.3069 1.0030 0.7346
H3 H 0.2573 0.9480 0.7894
O1 O 0.27048(12) 0.90556(6) 0.69877(6)
O2 O 0.29650(9) 0.80293(6) 0.76501(5)
O3 O 0.35884(11) 0.51947(6) 0.76711(6)
O4 O 0.46409(11) 0.72386(8) 0.49371(6)
O5 O 0.48116(9) 0.66331(7) 0.62050(6)
H4 H 0.5055 0.6785 0.5835
O6 O 0.05053(10) 0.72750(6) 0.79598(5)
H5 H 0.1134 0.7067 0.7863
C2 C 0.22214(14) 0.83756(8) 0.71795(7)
C3 C 0.39879(13) 0.77701(8) 0.72929(7)
H6 H 0.4614 0.8146 0.7314
C4 C 0.43986(12) 0.70979(8) 0.76392(7)
C5 C 0.38959(12) 0.64349(8) 0.74668(7)
C6 C 0.41816(13) 0.58128(8) 0.78333(8)
C7 C 0.38289(17) 0.45584(10) 0.80557(10)
H7 H 0.4661 0.4443 0.8026
H8 H 0.3372 0.4153 0.7881
H9 H 0.3618 0.4644 0.8523
C8 C 0.31073(12) 0.64137(8) 0.68652(7)
H10 H 0.3010 0.5904 0.6708
O7 O 0.19797(9) 0.67209(5) 0.70410(5)
C9 C 0.15414(12) 0.72365(8) 0.65518(7)
C10 C 0.23165(13) 0.79121(8) 0.65515(7)
H11 H 0.2152 0.8212 0.6147
C11 C 0.52382(13) 0.71347(10) 0.81430(8)
H12 H 0.5582 0.7585 0.8258
C12 C 0.55658(13) 0.65079(11) 0.84744(8)
H13 H 0.6161 0.6528 0.8803
C13 C 0.50311(14) 0.58476(10) 0.83302(8)
H14 H 0.5245 0.5424 0.8569
C14 C 0.35988(13) 0.76688(8) 0.65518(7)
H15 H 0.4071 0.7987 0.6252
C15 C 0.36511(12) 0.68799(8) 0.63090(7)
C16 C 0.28968(12) 0.67801(8) 0.56777(7)
H16 H 0.3014 0.6281 0.5498
C17 C 0.16022(12) 0.68821(8) 0.58640(7)
H17 H 0.1212 0.7192 0.5529
H18 H 0.1202 0.6408 0.5873
C18 C 0.25622(15) 0.71415(9) 0.43436(7)
H19 H 0.2731 0.7459 0.3964
H20 H 0.1727 0.7160 0.4445
H21 H 0.2784 0.6644 0.4232
C19 C 0.10046(14) 0.84554(8) 0.74745(7)
H22 H 0.0608 0.8859 0.7242
H23 H 0.1086 0.8596 0.7949
C20 C 0.02116(13) 0.77880(8) 0.74395(7)
C21 C -0.10398(14) 0.80225(10) 0.75760(8)
H24 H -0.1552 0.7599 0.7564
H25 H -0.1286 0.8370 0.7235
H26 H -0.1085 0.8249 0.8017
C22 C 0.02969(13) 0.74238(8) 0.67531(7)
H27 H -0.0174 0.6975 0.6758
H28 H -0.0041 0.7751 0.6413
S2 S 0.73882(3) 0.302306(18) 0.492076(18)
O8 O 0.97214(9) 0.09619(7) 0.39657(5)
O9 O 0.80892(9) 0.02545(6) 0.41806(5)
O10 O 0.38917(9) 0.01441(6) 0.51769(6)
O11 O 0.68182(9) 0.06809(5) 0.53929(5)
O12 O 0.65171(11) 0.33674(6) 0.44492(6)
O13 O 0.54179(8) 0.19722(6) 0.42826(5)
H29 H 0.5583 0.2393 0.4155
O14 O 0.81456(10) -0.04881(6) 0.55125(6)
H30 H 0.7566 -0.0266 0.5358
C23 C 1.02621(17) 0.04634(12) 0.35339(10)
H31 H 1.0880 0.0206 0.3775
H32 H 1.0600 0.0722 0.3153
H33 H 0.9683 0.0115 0.3373
C24 C 0.90060(12) 0.06549(8) 0.44742(7)
C25 C 0.72861(12) 0.07717(8) 0.38810(7)
H34 H 0.7509 0.0860 0.3405
C26 C 0.61097(12) 0.04159(8) 0.39097(7)
C27 C 0.54635(12) 0.04830(8) 0.44957(7)
C28 C 0.44476(12) 0.00729(8) 0.45737(8)
C29 C 0.29962(15) -0.03666(10) 0.53322(10)
H35 H 0.2326 -0.0287 0.5038
H36 H 0.2755 -0.0305 0.5798
H37 H 0.3294 -0.0859 0.5267
C30 C 0.99218(15) -0.03762(9) 0.60840(9)
H38 H 0.9526 -0.0476 0.6508
H39 H 1.0603 -0.0069 0.6166
H40 H 1.0173 -0.0833 0.5882
C31 C 0.90868(13) 0.00106(8) 0.56129(8)
C32 C 0.96998(12) 0.01735(8) 0.49488(8)
H41 H 1.0455 0.0411 0.5045
H42 H 0.9869 -0.0290 0.4721
C33 C 0.40535(14) -0.03664(8) 0.40563(9)
H43 H 0.3359 -0.0640 0.4107
C34 C 0.46834(14) -0.04010(8) 0.34656(8)
H44 H 0.4402 -0.0689 0.3108
C35 C 0.57192(13) -0.00209(8) 0.33899(8)
H45 H 0.6156 -0.0059 0.2988
C36 C 0.58770(11) 0.10108(7) 0.50164(7)
H46 H 0.5220 0.1133 0.5324
C37 C 0.63352(12) 0.17014(8) 0.46889(7)
C38 C 0.74287(12) 0.14855(7) 0.42919(7)
H47 H 0.7679 0.1891 0.3994
C39 C 0.84061(12) 0.12997(8) 0.47964(7)
H48 H 0.8962 0.1714 0.4837
C40 C 0.78410(12) 0.11376(8) 0.54787(7)
C41 C 0.74406(12) 0.18536(7) 0.57769(7)
H49 H 0.8122 0.2162 0.5881
H50 H 0.7002 0.1767 0.6195
C42 C 0.66501(12) 0.22325(7) 0.52578(7)
H51 H 0.5916 0.2392 0.5483
C43 C 0.73849(14) 0.35530(8) 0.56695(8)
H52 H 0.7636 0.4047 0.5567
H53 H 0.7920 0.3338 0.5995
H54 H 0.6596 0.3564 0.5857
C44 C 0.86561(12) 0.07161(8) 0.59335(7)
H55 H 0.8244 0.0601 0.6355
H56 H 0.9336 0.1023 0.6045
O15 O 0.72172(14) 0.64203(10) 0.68345(9)
H57 H 0.6418 0.6480 0.6845
H58 H 0.7371 0.6349 0.7311
O16 O 0.13744(12) 0.12628(7) 0.69282(7)
H59 H 0.0820 0.1551 0.6963
H60 H 0.1545 0.1297 0.6514
loop_
_geom_bond_atom_site_label_1
_geom_bond_atom_site_label_2
_geom_bond_site_symmetry_1
_geom_bond_site_symmetry_2
S1 O4 1_555 1_555
C1 H1 1_555 1_555
H2 C1 1_555 1_555
H3 C1 1_555 1_555
O1 C1 1_555 1_555
O2 C2 1_555 1_555
O3 C6 1_555 1_555
O5 H4 1_555 1_555
O6 H5 1_555 1_555
C2 O1 1_555 1_555
C3 O2 1_555 1_555
H6 C3 1_555 1_555
C4 C3 1_555 1_555
C5 C4 1_555 1_555
C6 C5 1_555 1_555
C7 O3 1_555 1_555
H7 C7 1_555 1_555
H8 C7 1_555 1_555
H9 C7 1_555 1_555
C8 C5 1_555 1_555
H10 C8 1_555 1_555
O7 C8 1_555 1_555
C9 O7 1_555 1_555
C10 C2 1_555 1_555
H11 C10 1_555 1_555
C11 C4 1_555 1_555
H12 C11 1_555 1_555
C12 C11 1_555 1_555
H13 C12 1_555 1_555
C13 C6 1_555 1_555
H14 C13 1_555 1_555
C14 C3 1_555 1_555
H15 C14 1_555 1_555
C15 O5 1_555 1_555
C16 S1 1_555 1_555
H16 C16 1_555 1_555
C17 C9 1_555 1_555
H17 C17 1_555 1_555
H18 C17 1_555 1_555
C18 S1 1_555 1_555
H19 C18 1_555 1_555
H20 C18 1_555 1_555
H21 C18 1_555 1_555
C19 C2 1_555 1_555
H22 C19 1_555 1_555
H23 C19 1_555 1_555
C20 O6 1_555 1_555
C21 C20 1_555 1_555
H24 C21 1_555 1_555
H25 C21 1_555 1_555
H26 C21 1_555 1_555
C22 C9 1_555 1_555
H27 C22 1_555 1_555
H28 C22 1_555 1_555
S2 O12 1_555 1_555
O8 C23 1_555 1_555
O9 C24 1_555 1_555
O10 C28 1_555 1_555
O11 C36 1_555 1_555
O13 H29 1_555 1_555
O14 H30 1_555 1_555
C23 H31 1_555 1_555
H32 C23 1_555 1_555
H33 C23 1_555 1_555
C24 O8 1_555 1_555
C25 O9 1_555 1_555
H34 C25 1_555 1_555
C26 C25 1_555 1_555
C27 C26 1_555 1_555
C28 C27 1_555 1_555
C29 O10 1_555 1_555
H35 C29 1_555 1_555
H36 C29 1_555 1_555
H37 C29 1_555 1_555
C30 H38 1_555 1_555
H39 C30 1_555 1_555
H40 C30 1_555 1_555
C31 O14 1_555 1_555
C32 C24 1_555 1_555
H41 C32 1_555 1_555
H42 C32 1_555 1_555
C33 C28 1_555 1_555
H43 C33 1_555 1_555
C34 C33 1_555 1_555
H44 C34 1_555 1_555
C35 C26 1_555 1_555
H45 C35 1_555 1_555
C36 C27 1_555 1_555
H46 C36 1_555 1_555
C37 O13 1_555 1_555
C38 C25 1_555 1_555
H47 C38 1_555 1_555
C39 C24 1_555 1_555
H48 C39 1_555 1_555
C40 O11 1_555 1_555
C41 C40 1_555 1_555
H49 C41 1_555 1_555
H50 C41 1_555 1_555
C42 S2 1_555 1_555
H51 C42 1_555 1_555
C43 S2 1_555 1_555
H52 C43 1_555 1_555
H53 C43 1_555 1_555
H54 C43 1_555 1_555
C44 C31 1_555 1_555
H55 C44 1_555 1_555
H56 C44 1_555 1_555
O15 H57 1_555 1_555
H58 O15 1_555 1_555
O16 H59 1_555 1_555
H60 O16 1_555 1_555
C8 C15 1_555 1_555
C9 C10 1_555 1_555
C10 C14 1_555 1_555
C12 C13 1_555 1_555
C14 C15 1_555 1_555
C15 C16 1_555 1_555
C16 C17 1_555 1_555
C19 C20 1_555 1_555
C20 C22 1_555 1_555
C30 C31 1_555 1_555
C31 C32 1_555 1_555
C34 C35 1_555 1_555
C36 C37 1_555 1_555
C37 C38 1_555 1_555
C37 C42 1_555 1_555
C38 C39 1_555 1_555
C39 C40 1_555 1_555
C40 C44 1_555 1_555
C41 C42 1_555 1_555

#END
