
#######################################################################
#
#                 Cambridge Crystallographic Data Centre
#                                CCDC 
#
#######################################################################
#
# If this CIF has been generated from an entry in the Cambridge 
# Structural Database, then it will include bibliographic, chemical, 
# crystal, experimental, refinement or atomic coordinate data resulting 
# from the CCDC's data processing and validation procedures.
#
#######################################################################

data_EJUQIK01
_chemical_formula_moiety         'C8 H12 N1 1+,C4 H5 O6 1-'
_chemical_name_systematic        '4-Ethylanilinium hydrogen (2R,3R)-tartrate'
_symmetry_cell_setting           triclinic
_symmetry_space_group_name_H-M   'P 1'
_symmetry_Int_Tables_number      1
_space_group_name_Hall           'P 1'
loop_
_symmetry_equiv_pos_site_id
_symmetry_equiv_pos_as_xyz
1 x,y,z
_cell_length_a                   6.0782(12)
_cell_length_b                   7.4777(15)
_cell_length_c                   14.9506(10)
_cell_angle_alpha                87.655(10)
_cell_angle_beta                 82.692(10)
_cell_angle_gamma                71.8020(10)
_cell_volume                     640.287
_exptl_crystal_colour            colorless
_exptl_crystal_description       block
_cell_formula_units_Z            2
loop_
_atom_site_label
_atom_site_type_symbol
_atom_site_fract_x
_atom_site_fract_y
_atom_site_fract_z
C1 C 0.2847(12) 0.9261(7) -0.1725(3)
H1 H 0.3648 1.0022 -0.1486
H2 H 0.2844 0.9470 -0.2362
H3 H 0.3626 0.7957 -0.1613
C2 C 0.0428(10) 0.9773(6) -0.1284(2)
H4 H -0.0318 0.8939 -0.1509
H5 H -0.0384 1.1039 -0.1472
C3 C 0.0069(7) 0.9708(4) -0.0255(2)
C4 C -0.2129(7) 1.0239(5) 0.0204(2)
H6 H -0.3398 1.0627 -0.0124
C5 C -0.2547(6) 1.0223(5) 0.1140(2)
H7 H -0.4061 1.0606 0.1434
C6 C -0.0657(5) 0.9625(3) 0.16228(17)
C7 C 0.1573(5) 0.9059(4) 0.11893(19)
H8 H 0.2837 0.8648 0.1519
C8 C 0.1931(6) 0.9105(5) 0.0254(2)
H9 H 0.3447 0.8725 -0.0038
N1 N -0.1064(4) 0.9580(3) 0.26089(14)
H23 H -0.1702 1.0749 0.2818
H24 H 0.0287 0.9056 0.2828
H25 H -0.2023 0.8909 0.2780
C9 C -0.2104(14) 0.5209(8) 1.0711(3)
H10 H -0.2871 0.6433 1.0481
H11 H -0.2194 0.5266 1.1355
H12 H -0.2855 0.4332 1.0552
C10 C 0.0358(12) 0.4589(7) 1.0318(3)
H13 H 0.1072 0.3321 1.0530
H14 H 0.1131 0.5392 1.0554
C11 C 0.0853(8) 0.4591(5) 0.9292(2)
C12 C 0.3116(8) 0.4050(5) 0.8883(3)
H15 H 0.4326 0.3707 0.9242
C13 C 0.3655(6) 0.3998(5) 0.7955(3)
H16 H 0.5201 0.3614 0.7694
C14 C 0.1862(5) 0.4526(3) 0.74246(19)
C15 C -0.0408(6) 0.5099(5) 0.7810(2)
H17 H -0.1615 0.5463 0.7451
C16 C -0.0894(7) 0.5132(6) 0.8742(3)
H18 H -0.2440 0.5531 0.9003
N2 N 0.2366(4) 0.4484(3) 0.64435(15)
H26 H 0.1768 0.3676 0.6221
H27 H 0.3903 0.4122 0.6288
H28 H 0.1735 0.5628 0.6223
C17 C 0.2676(4) 0.2520(4) 0.32530(18)
C18 C 0.2579(4) 0.4566(3) 0.33387(18)
H19 H 0.1311 0.5169 0.3807
C19 C 0.4855(4) 0.4721(3) 0.36007(17)
H20 H 0.4967 0.4360 0.4235
C20 C 0.4915(5) 0.6766(3) 0.34720(18)
O1 O 0.2220(5) 0.1955(3) 0.25778(17)
O2 O 0.3279(4) 0.1499(3) 0.39565(15)
H29 H 0.3409 0.0400 0.3854
O3 O 0.2115(4) 0.5514(3) 0.25158(17)
H30 H 0.1819 0.4823 0.2169
O4 O 0.6769(3) 0.3499(3) 0.30563(16)
H31 H 0.7626 0.4092 0.2826
O5 O 0.3284(4) 0.8027(3) 0.38956(18)
O6 O 0.6564(4) 0.6996(3) 0.29634(15)
C21 C 0.6698(4) 0.7473(3) 0.55796(16)
C22 C 0.7182(4) 0.9332(3) 0.53335(16)
H21 H 0.5684 1.0306 0.5292
C23 C 0.8264(4) 0.9828(3) 0.61237(17)
H22 H 0.7156 0.9950 0.6672
C24 C 0.8805(4) 1.1684(3) 0.59561(17)
O7 O 0.8197(3) 0.5991(2) 0.51740(14)
H32 H 0.7774 0.5064 0.5305
O8 O 0.5112(3) 0.7413(3) 0.61440(14)
O9 O 0.8595(3) 0.9289(3) 0.45133(12)
H33 H 0.9944 0.8670 0.4573
O10 O 1.0324(3) 0.8358(2) 0.62475(15)
H34 H 1.1436 0.8770 0.6183
O11 O 0.7116(3) 1.3112(2) 0.58058(17)
O12 O 1.0827(3) 1.1654(3) 0.59969(15)
loop_
_geom_bond_atom_site_label_1
_geom_bond_atom_site_label_2
_geom_bond_site_symmetry_1
_geom_bond_site_symmetry_2
C1 H1 1_555 1_555
H2 C1 1_555 1_555
H3 C1 1_555 1_555
C2 C1 1_555 1_555
H4 C2 1_555 1_555
H5 C2 1_555 1_555
C3 C2 1_555 1_555
C4 C3 1_555 1_555
H6 C4 1_555 1_555
C5 C4 1_555 1_555
H7 C5 1_555 1_555
C6 C5 1_555 1_555
C7 C6 1_555 1_555
H8 C7 1_555 1_555
C8 C3 1_555 1_555
H9 C8 1_555 1_555
C9 H10 1_555 1_555
H11 C9 1_555 1_555
H12 C9 1_555 1_555
C10 C9 1_555 1_555
H13 C10 1_555 1_555
H14 C10 1_555 1_555
C11 C10 1_555 1_555
C12 C11 1_555 1_555
H15 C12 1_555 1_555
C13 C12 1_555 1_555
H16 C13 1_555 1_555
C14 C13 1_555 1_555
C15 C14 1_555 1_555
H17 C15 1_555 1_555
C16 C11 1_555 1_555
H18 C16 1_555 1_555
C17 C18 1_555 1_555
C18 H19 1_555 1_555
C19 C18 1_555 1_555
H20 C19 1_555 1_555
C20 C19 1_555 1_555
C21 C22 1_555 1_555
C22 H21 1_555 1_555
C23 C22 1_555 1_555
H22 C23 1_555 1_555
C24 C23 1_555 1_555
N1 C6 1_555 1_555
H23 N1 1_555 1_555
H24 N1 1_555 1_555
H25 N1 1_555 1_555
N2 C14 1_555 1_555
H26 N2 1_555 1_555
H27 N2 1_555 1_555
H28 N2 1_555 1_555
O1 C17 1_555 1_555
O2 C17 1_555 1_555
H29 O2 1_555 1_555
O3 C18 1_555 1_555
H30 O3 1_555 1_555
O4 C19 1_555 1_555
H31 O4 1_555 1_555
O5 C20 1_555 1_555
O6 C20 1_555 1_555
O7 C21 1_555 1_555
H32 O7 1_555 1_555
O8 C21 1_555 1_555
O9 C22 1_555 1_555
H33 O9 1_555 1_555
O10 C23 1_555 1_555
H34 O10 1_555 1_555
O11 C24 1_555 1_555
O12 C24 1_555 1_555
C7 C8 1_555 1_555
C15 C16 1_555 1_555

#END
