
#######################################################################
#
#                 Cambridge Crystallographic Data Centre
#                                CCDC 
#
#######################################################################
#
# If this CIF has been generated from an entry in the Cambridge 
# Structural Database, then it will include bibliographic, chemical, 
# crystal, experimental, refinement or atomic coordinate data resulting 
# from the CCDC's data processing and validation procedures.
#
#######################################################################

data_EJUWEN
_chemical_formula_moiety         
'C24 H33 N6 3+,0.5(C2 H3 N1),0.5(H2 O1),3(Br1 1-)'
_chemical_name_systematic        
"3,3',3''-((2,4,6-Trimethylbenzene-1,3,5-triyl)tris(methylene))tris(1-methyl-1H-imidazol-3-ium) bromide acetonitrile solvate hemihydrate"
_symmetry_cell_setting           monoclinic
_symmetry_space_group_name_H-M   'C 2/c'
_symmetry_Int_Tables_number      15
_space_group_name_Hall           '-C 2yn'
loop_
_symmetry_equiv_pos_site_id
_symmetry_equiv_pos_as_xyz
1 x,y,z
2 -x,y,1/2-z
3 1/2+x,1/2+y,z
4 1/2-x,1/2+y,1/2-z
5 -x,-y,-z
6 x,-y,1/2+z
7 1/2-x,1/2-y,-z
8 1/2+x,1/2-y,1/2+z
_cell_length_a                   33.520(3)
_cell_length_b                   11.8717(9)
_cell_length_c                   16.0987(13)
_cell_angle_alpha                90
_cell_angle_beta                 105.855(2)
_cell_angle_gamma                90
_cell_volume                     6162.59
_exptl_crystal_colour            colorless
_exptl_crystal_description       cube
_cell_formula_units_Z            8
loop_
_atom_site_label
_atom_site_type_symbol
_atom_site_fract_x
_atom_site_fract_y
_atom_site_fract_z
Br1 Br 0.062161(16) 0.01644(5) 0.40201(4)
Br2 Br 0.249384(17) 0.25007(6) 0.34703(3)
Br3 Br 0.06556(2) 0.66799(5) 0.39196(5)
C1 C 0.19449(13) 0.6499(4) 0.5451(3)
C2 C 0.19001(12) 0.7680(4) 0.5426(3)
C3 C 0.18786(13) 0.8277(4) 0.4666(3)
C4 C 0.19091(12) 0.7694(4) 0.3930(3)
C5 C 0.19535(13) 0.6526(4) 0.3944(3)
C6 C 0.19839(12) 0.5927(4) 0.4715(3)
C7 C 0.19408(16) 0.5853(5) 0.6260(3)
H1 H 0.1687 0.6005 0.6407
H2 H 0.2172 0.6083 0.6727
H3 H 0.1961 0.5060 0.6159
C8 C 0.18877(15) 0.8299(4) 0.6236(3)
H4 H 0.2080 0.7944 0.6728
H5 H 0.1980 0.9068 0.6201
C9 C 0.18164(16) 0.9545(4) 0.4640(4)
H6 H 0.1624 0.9741 0.4962
H7 H 0.1709 0.9785 0.4051
H8 H 0.2077 0.9910 0.4889
C10 C 0.19540(16) 0.5890(5) 0.3126(3)
H9 H 0.1930 0.5097 0.3217
H10 H 0.2208 0.6036 0.2980
H11 H 0.1724 0.6135 0.2662
C11 C 0.19070(15) 0.8323(4) 0.3116(3)
H12 H 0.2008 0.9082 0.3268
H13 H 0.2097 0.7956 0.2844
C12 C 0.20704(13) 0.4686(4) 0.4761(3)
H14 H 0.2234 0.4501 0.4368
H15 H 0.2233 0.4496 0.5341
C13 C 0.13021(15) 0.4370(5) 0.4318(4)
H16 H 0.1220 0.5121 0.4270
C14 C 0.12763(18) 0.2521(4) 0.4310(4)
H17 H 0.1177 0.1785 0.4258
C15 C 0.16824(16) 0.2847(4) 0.4543(3)
H18 H 0.1912 0.2373 0.4678
C16 C 0.11125(16) 0.8263(5) 0.5779(4)
H19 H 0.1079 0.8173 0.5190
C17 C 0.1395(2) 0.8457(5) 0.7175(4)
H20 H 0.1594 0.8515 0.7705
C18 C 0.1428(2) 0.8521(5) 0.1618(4)
H21 H 0.1631 0.8545 0.1324
C19 C 0.11310(15) 0.8392(4) 0.2663(3)
H22 H 0.1088 0.8312 0.3207
C20 C 0.05958(18) 0.3492(5) 0.3918(6)
H23 H 0.0494 0.3311 0.3316
H24 H 0.0503 0.4232 0.4019
H25 H 0.0493 0.2952 0.4253
C21 C 0.0987(2) 0.8493(5) 0.7040(4)
H26 H 0.0846 0.8589 0.7459
C22 C 0.1023(2) 0.8612(5) 0.1265(4)
H27 H 0.0890 0.8710 0.0682
C23 C 0.03867(17) 0.8555(6) 0.1862(4)
H28 H 0.0253 0.7920 0.1532
H29 H 0.0267 0.9239 0.1584
H30 H 0.0349 0.8522 0.2432
C24 C 0.03576(19) 0.8320(7) 0.5694(5)
H31 H 0.0321 0.7953 0.5147
H32 H 0.0250 0.9074 0.5603
H33 H 0.0212 0.7909 0.6033
N1 N 0.16897(11) 0.4001(3) 0.4542(2)
N2 N 0.10471(13) 0.3467(4) 0.4170(3)
N3 N 0.14691(13) 0.8318(3) 0.6379(3)
N4 N 0.14957(12) 0.8387(3) 0.2491(3)
N5 N 0.08349(14) 0.8532(4) 0.1923(3)
N6 N 0.08075(15) 0.8359(4) 0.6159(3)
O1 O 1.0000 0.1629(6) 0.2500
H34 H 0.9775 0.1851 0.2595
H34A H 1.0225 0.1851 0.2405
C25 C 0.0279(5) 0.3933(13) 0.5824(10)
N7 N 0.0831(6) 0.4922(16) 0.6444(18)
C26 C 0.0466(7) 0.4860(17) 0.6384(14)
H35? H 1.0051 0.0965 0.2697
loop_
_geom_bond_atom_site_label_1
_geom_bond_atom_site_label_2
_geom_bond_site_symmetry_1
_geom_bond_site_symmetry_2
C1 C2 1_555 1_555
C2 C3 1_555 1_555
C3 C4 1_555 1_555
C4 C5 1_555 1_555
C5 C6 1_555 1_555
C6 C1 1_555 1_555
C7 C1 1_555 1_555
H1 C7 1_555 1_555
H2 C7 1_555 1_555
H3 C7 1_555 1_555
C8 C2 1_555 1_555
H4 C8 1_555 1_555
H5 C8 1_555 1_555
C9 C3 1_555 1_555
H6 C9 1_555 1_555
H7 C9 1_555 1_555
H8 C9 1_555 1_555
C10 C5 1_555 1_555
H9 C10 1_555 1_555
H10 C10 1_555 1_555
H11 C10 1_555 1_555
C11 C4 1_555 1_555
H12 C11 1_555 1_555
H13 C11 1_555 1_555
C12 C6 1_555 1_555
H14 C12 1_555 1_555
H15 C12 1_555 1_555
C13 H16 1_555 1_555
C14 H17 1_555 1_555
C15 C14 1_555 1_555
H18 C15 1_555 1_555
C16 H19 1_555 1_555
C17 H20 1_555 1_555
C18 H21 1_555 1_555
C19 H22 1_555 1_555
C20 H23 1_555 1_555
H24 C20 1_555 1_555
H25 C20 1_555 1_555
C21 C17 1_555 1_555
H26 C21 1_555 1_555
C22 C18 1_555 1_555
H27 C22 1_555 1_555
C23 H28 1_555 1_555
H29 C23 1_555 1_555
H30 C23 1_555 1_555
C24 H31 1_555 1_555
H32 C24 1_555 1_555
H33 C24 1_555 1_555
N1 C12 1_555 1_555
N2 C13 1_555 1_555
N3 C8 1_555 1_555
N4 C11 1_555 1_555
N5 C19 1_555 1_555
N6 C16 1_555 1_555
O1 H34 1_555 1_555
C25 C26 1_555 1_555
N7 C26 1_555 1_555
H34A O1 1_555 1_555
C13 N1 1_555 1_555
C14 N2 1_555 1_555
C15 N1 1_555 1_555
C16 N3 1_555 1_555
C17 N3 1_555 1_555
C18 N4 1_555 1_555
C19 N4 1_555 1_555
C20 N2 1_555 1_555
C21 N6 1_555 1_555
C22 N5 1_555 1_555
C23 N5 1_555 1_555
C24 N6 1_555 1_555

#END
