
#######################################################################
#
#                 Cambridge Crystallographic Data Centre
#                                CCDC 
#
#######################################################################
#
# If this CIF has been generated from an entry in the Cambridge 
# Structural Database, then it will include bibliographic, chemical, 
# crystal, experimental, refinement or atomic coordinate data resulting 
# from the CCDC's data processing and validation procedures.
#
#######################################################################

data_EJUYIT
_chemical_compound_source        
'dried twigs and leaves of Ervatamia hainanensis'
_chemical_name_common            (3S)-((24S)-Hydroxyethyl)coronaridine
_chemical_formula_moiety         'C23 H30 N2 O3'
_chemical_name_systematic        
'Methyl 19-(1-hydroxyethyl)ibogamine-18-carboxylate'
_chemical_properties_biological  'neuroprotective activity'
_symmetry_cell_setting           monoclinic
_symmetry_space_group_name_H-M   'P 21'
_symmetry_Int_Tables_number      4
_space_group_name_Hall           'P 2yb'
loop_
_symmetry_equiv_pos_site_id
_symmetry_equiv_pos_as_xyz
1 x,y,z
2 -x,1/2+y,-z
_cell_length_a                   9.7015(8)
_cell_length_b                   10.7426(8)
_cell_length_c                   10.0282(10)
_cell_angle_alpha                90
_cell_angle_beta                 107.663(10)
_cell_angle_gamma                90
_cell_volume                     995.862
_exptl_crystal_colour            colorless
_exptl_crystal_description       block
_chemical_melting_point          '210-211 deg.C'
_cell_formula_units_Z            2
loop_
_atom_site_label
_atom_site_type_symbol
_atom_site_fract_x
_atom_site_fract_y
_atom_site_fract_z
O1 O 0.4294(3) -0.5495(3) -0.2288(3)
H1 H 0.3639 -0.5711 -0.2981
O2 O -0.1943(3) -0.7078(2) -0.0437(2)
O3 O -0.2802(2) -0.6993(2) -0.2769(2)
N1 N -0.3056(3) -0.4311(2) -0.2449(3)
H2 H -0.3581 -0.4815 -0.2145
C1 C -0.1631(3) -0.4516(3) -0.2398(3)
C2 C 0.2385(3) -0.5316(3) -0.1165(3)
H3 H 0.2445 -0.4423 -0.0957
N2 N 0.1370(3) -0.5496(3) -0.2584(3)
C3 C 0.1086(3) -0.4389(3) -0.3483(3)
H4 H 0.0474 -0.4638 -0.4402
H5 H 0.1999 -0.4113 -0.3589
C4 C 0.0374(3) -0.3270(3) -0.3009(3)
H6 H 0.0972 -0.3017 -0.2087
H7 H 0.0345 -0.2582 -0.3644
C5 C -0.1136(3) -0.3510(3) -0.2954(3)
C6 C -0.2318(3) -0.2645(3) -0.3398(3)
C7 C -0.2494(4) -0.1472(3) -0.4063(3)
H8 H -0.1735 -0.1104 -0.4304
C8 C -0.3817(4) -0.0881(3) -0.4350(4)
H9 H -0.3945 -0.0112 -0.4798
C9 C -0.4966(4) -0.1410(4) -0.3982(4)
H10 H -0.5836 -0.0980 -0.4175
C10 C -0.4832(4) -0.2567(3) -0.3334(4)
H11 H -0.5595 -0.2923 -0.3090
C11 C -0.3500(3) -0.3172(3) -0.3065(3)
C12 C 0.1755(3) -0.5970(3) -0.0116(3)
H12 H 0.2408 -0.5859 0.0836
C13 C 0.1537(3) -0.7372(3) -0.0452(3)
H13 H 0.1036 -0.7754 0.0147
H14 H 0.2469 -0.7776 -0.0276
C14 C -0.0816(3) -0.5666(3) -0.1696(3)
C15 C 0.0296(3) -0.5363(3) -0.0242(3)
H15 H 0.0417 -0.4469 -0.0136
H16 H -0.0068 -0.5668 0.0498
C16 C 0.1511(4) -0.9621(4) -0.2661(4)
H17 H 0.2013 -1.0004 -0.3244
H18 H 0.0546 -0.9948 -0.2892
H19 H 0.2015 -0.9793 -0.1697
C17 C 0.1445(4) -0.8213(3) -0.2901(3)
H20 H 0.0965 -0.8044 -0.3883
H21 H 0.2422 -0.7887 -0.2671
C18 C 0.0635(3) -0.7542(3) -0.2015(3)
H22 H -0.0218 -0.8043 -0.2041
C19 C 0.0103(3) -0.6248(3) -0.2604(3)
H23 H -0.0517 -0.6337 -0.3574
C20 C 0.3910(3) -0.5783(4) -0.1060(4)
H24 H 0.3924 -0.6690 -0.0953
C21 C 0.5055(4) -0.5243(6) 0.0160(4)
H25 H 0.5982 -0.5569 0.0178
H26 H 0.4857 -0.5461 0.1012
H27 H 0.5061 -0.4354 0.0071
C22 C -0.1896(3) -0.6655(3) -0.1527(3)
C23 C -0.3827(4) -0.7959(3) -0.2718(4)
H28 H -0.4428 -0.8143 -0.3650
H29 H -0.4419 -0.7679 -0.2165
H30 H -0.3312 -0.8696 -0.2305
loop_
_geom_bond_atom_site_label_1
_geom_bond_atom_site_label_2
_geom_bond_site_symmetry_1
_geom_bond_site_symmetry_2
O1 H1 1_555 1_555
O2 C22 1_555 1_555
O3 C22 1_555 1_555
N1 H2 1_555 1_555
C1 N1 1_555 1_555
C2 H3 1_555 1_555
N2 C2 1_555 1_555
C3 N2 1_555 1_555
H4 C3 1_555 1_555
H5 C3 1_555 1_555
C4 C3 1_555 1_555
H6 C4 1_555 1_555
H7 C4 1_555 1_555
C5 C1 1_555 1_555
C6 C5 1_555 1_555
C7 C6 1_555 1_555
H8 C7 1_555 1_555
C8 C7 1_555 1_555
H9 C8 1_555 1_555
C9 C8 1_555 1_555
H10 C9 1_555 1_555
C10 C9 1_555 1_555
H11 C10 1_555 1_555
C11 N1 1_555 1_555
C12 C2 1_555 1_555
H12 C12 1_555 1_555
C13 C12 1_555 1_555
H13 C13 1_555 1_555
H14 C13 1_555 1_555
C14 C1 1_555 1_555
C15 C12 1_555 1_555
H15 C15 1_555 1_555
H16 C15 1_555 1_555
C16 H17 1_555 1_555
H18 C16 1_555 1_555
H19 C16 1_555 1_555
C17 C16 1_555 1_555
H20 C17 1_555 1_555
H21 C17 1_555 1_555
C18 C13 1_555 1_555
H22 C18 1_555 1_555
C19 N2 1_555 1_555
H23 C19 1_555 1_555
C20 O1 1_555 1_555
H24 C20 1_555 1_555
C21 C20 1_555 1_555
H25 C21 1_555 1_555
H26 C21 1_555 1_555
H27 C21 1_555 1_555
C22 C14 1_555 1_555
C23 O3 1_555 1_555
H28 C23 1_555 1_555
H29 C23 1_555 1_555
H30 C23 1_555 1_555
C2 C20 1_555 1_555
C4 C5 1_555 1_555
C6 C11 1_555 1_555
C10 C11 1_555 1_555
C14 C15 1_555 1_555
C14 C19 1_555 1_555
C17 C18 1_555 1_555
C18 C19 1_555 1_555

#END
