
#######################################################################
#
#                 Cambridge Crystallographic Data Centre
#                                CCDC 
#
#######################################################################
#
# If this CIF has been generated from an entry in the Cambridge 
# Structural Database, then it will include bibliographic, chemical, 
# crystal, experimental, refinement or atomic coordinate data resulting 
# from the CCDC's data processing and validation procedures.
#
#######################################################################

data_EKAHOO
_chemical_formula_moiety         'C15 H15 N1 O2'
_chemical_name_systematic        4-(2-(3,4-Dimethoxyphenyl)vinyl)pyridine
_symmetry_cell_setting           monoclinic
_symmetry_space_group_name_H-M   'P 21/c'
_symmetry_Int_Tables_number      14
_space_group_name_Hall           '-P 2ybc'
loop_
_symmetry_equiv_pos_site_id
_symmetry_equiv_pos_as_xyz
1 x,y,z
2 -x,1/2+y,1/2-z
3 -x,-y,-z
4 x,1/2-y,1/2+z
_cell_length_a                   8.7021(5)
_cell_length_b                   7.8008(5)
_cell_length_c                   18.9403(12)
_cell_angle_alpha                90
_cell_angle_beta                 95.367(3)
_cell_angle_gamma                90
_cell_volume                     1280.09
_exptl_crystal_colour            'light yellow'
_chemical_melting_point          '130-131deg. C'
_cell_formula_units_Z            4
_exptl_crystal_recrystallization_method dichloromethane/hexane
loop_
_atom_site_label
_atom_site_type_symbol
_atom_site_fract_x
_atom_site_fract_y
_atom_site_fract_z
O1 O 0.17474(11) -0.15917(13) 0.47328(5)
O2 O 0.37072(11) 0.06901(13) 0.44044(5)
N1 N -0.72483(14) 0.08657(17) 0.11720(7)
C1 C 0.07408(18) -0.2962(2) 0.48988(9)
C2 C 0.48958(17) 0.1789(2) 0.41865(8)
C3 C 0.23130(15) 0.07138(18) 0.40058(7)
C4 C 0.19009(16) 0.18477(19) 0.34570(8)
C5 C 0.04452(16) 0.1752(2) 0.30799(8)
C6 C -0.06174(15) 0.05130(18) 0.32448(7)
C7 C -0.02022(15) -0.06270(18) 0.38071(7)
C8 C 0.12393(15) -0.05328(17) 0.41841(7)
C9 C -0.21596(15) 0.03385(18) 0.28627(7)
C10 C -0.26825(16) 0.11399(19) 0.22622(8)
C11 C -0.42439(15) 0.09906(18) 0.18997(7)
C12 C -0.46042(17) 0.1820(2) 0.12499(8)
C13 C -0.60885(17) 0.1726(2) 0.09169(8)
C14 C -0.68991(16) 0.0061(2) 0.17941(8)
C15 C -0.54509(16) 0.00890(19) 0.21691(8)
H1 H 0.0198(19) 0.259(2) 0.2703(9)
H2 H -0.5309(19) -0.050(2) 0.2608(9)
H3 H 0.2601(18) 0.267(2) 0.3338(9)
H4 H 0.507(2) 0.154(2) 0.3687(10)
H5 H -0.2847(18) -0.046(2) 0.3080(9)
H6 H -0.1991(19) 0.186(2) 0.2033(9)
H7 H -0.773(2) -0.056(2) 0.1984(9)
H8 H -0.0932(19) -0.150(2) 0.3929(9)
H9 H -0.023(2) -0.251(2) 0.5081(10)
H10 H 0.050(2) -0.373(3) 0.4486(10)
H11 H -0.383(2) 0.245(2) 0.1031(10)
H12 H 0.461(2) 0.300(3) 0.4246(9)
H13 H 0.134(2) -0.360(3) 0.5288(10)
H14 H -0.634(2) 0.233(2) 0.0466(10)
H15 H 0.579(2) 0.152(2) 0.4506(10)
loop_
_geom_bond_atom_site_label_1
_geom_bond_atom_site_label_2
_geom_bond_site_symmetry_1
_geom_bond_site_symmetry_2
O1 C1 1_555 1_555
O2 C2 1_555 1_555
N1 C13 1_555 1_555
C1 H9 1_555 1_555
C2 H4 1_555 1_555
C3 O2 1_555 1_555
C4 C3 1_555 1_555
C5 C4 1_555 1_555
C6 C5 1_555 1_555
C7 C6 1_555 1_555
C8 O1 1_555 1_555
C9 C6 1_555 1_555
C10 C9 1_555 1_555
C11 C10 1_555 1_555
C12 C11 1_555 1_555
C13 C12 1_555 1_555
C14 N1 1_555 1_555
C15 C11 1_555 1_555
H1 C5 1_555 1_555
H2 C15 1_555 1_555
H3 C4 1_555 1_555
H5 C9 1_555 1_555
H6 C10 1_555 1_555
H7 C14 1_555 1_555
H8 C7 1_555 1_555
H10 C1 1_555 1_555
H11 C12 1_555 1_555
H12 C2 1_555 1_555
H13 C1 1_555 1_555
H14 C13 1_555 1_555
H15 C2 1_555 1_555
C3 C8 1_555 1_555
C7 C8 1_555 1_555
C14 C15 1_555 1_555

#END
