
#######################################################################
#
#                 Cambridge Crystallographic Data Centre
#                                CCDC 
#
#######################################################################
#
# If this CIF has been generated from an entry in the Cambridge 
# Structural Database, then it will include bibliographic, chemical, 
# crystal, experimental, refinement or atomic coordinate data resulting 
# from the CCDC's data processing and validation procedures.
#
#######################################################################

data_EKAHUV
_chemical_formula_moiety         'C15 H12 N2 O1'
_chemical_name_systematic        
3-(pyridin-2-yl)-4,8b-dihydro-3aH-indeno[2,1-d][1,2]oxazole
_symmetry_cell_setting           orthorhombic
_symmetry_space_group_name_H-M   'P b c a'
_symmetry_Int_Tables_number      61
_space_group_name_Hall           '-P 2ac 2ab'
loop_
_symmetry_equiv_pos_site_id
_symmetry_equiv_pos_as_xyz
1 x,y,z
2 1/2+x,1/2-y,-z
3 -x,1/2+y,1/2-z
4 1/2-x,-y,1/2+z
5 -x,-y,-z
6 1/2-x,1/2+y,z
7 x,1/2-y,1/2+z
8 1/2+x,y,1/2-z
_cell_length_a                   10.7849(3)
_cell_length_b                   10.9235(3)
_cell_length_c                   20.3364(6)
_cell_angle_alpha                90
_cell_angle_beta                 90
_cell_angle_gamma                90
_cell_volume                     2395.81
_exptl_crystal_colour            colorless
_exptl_crystal_description       block
_cell_formula_units_Z            8
loop_
_atom_site_label
_atom_site_type_symbol
_atom_site_fract_x
_atom_site_fract_y
_atom_site_fract_z
C1 C 0.36332(15) 0.92712(13) 0.57712(7)
C2 C 0.46182(14) 0.99175(14) 0.61600(7)
H1 H 0.4603 1.0803 0.6084
C3 C 0.46217(15) 0.96089(15) 0.69038(7)
H2 H 0.4780 1.0335 0.7165
H3 H 0.3835 0.9257 0.7037
C4 C 0.56515(14) 0.86987(13) 0.69781(7)
C5 C 0.60027(17) 0.80577(16) 0.75365(9)
H4 H 0.5581 0.8167 0.7931
C6 C 0.69898(19) 0.72533(17) 0.74979(11)
H5 H 0.7237 0.6825 0.7871
C7 C 0.76117(19) 0.70783(19) 0.69142(12)
H6 H 0.8267 0.6526 0.6896
C8 C 0.72730(16) 0.77140(17) 0.63564(10)
H7 H 0.7692 0.7594 0.5962
C9 C 0.62957(14) 0.85364(14) 0.63951(8)
C10 C 0.57759(15) 0.93230(15) 0.58601(7)
H8 H 0.6377 0.9942 0.5718
C11 C 0.22943(15) 0.94526(13) 0.58545(7)
C12 C 0.07565(19) 1.06553(18) 0.62725(10)
H9 H 0.0514 1.1336 0.6515
C13 C -0.01553(18) 0.9935(2) 0.60029(10)
H10 H -0.0988 1.0126 0.6061
C14 C 0.01937(18) 0.8928(2) 0.56461(9)
H11 H -0.0400 0.8423 0.5455
C15 C 0.14302(17) 0.86767(17) 0.55752(8)
H12 H 0.1686 0.7990 0.5341
N1 N 0.40345(13) 0.85535(13) 0.53209(6)
N2 N 0.19699(13) 1.04392(12) 0.62082(7)
O1 O 0.53364(11) 0.85935(12) 0.53065(6)
loop_
_geom_bond_atom_site_label_1
_geom_bond_atom_site_label_2
_geom_bond_site_symmetry_1
_geom_bond_site_symmetry_2
C1 C2 1_555 1_555
C2 H1 1_555 1_555
C3 C2 1_555 1_555
H2 C3 1_555 1_555
H3 C3 1_555 1_555
C4 C3 1_555 1_555
C5 C4 1_555 1_555
H4 C5 1_555 1_555
C6 C5 1_555 1_555
H5 C6 1_555 1_555
C7 C6 1_555 1_555
H6 C7 1_555 1_555
C8 C7 1_555 1_555
H7 C8 1_555 1_555
C9 C4 1_555 1_555
C10 C2 1_555 1_555
H8 C10 1_555 1_555
C11 C1 1_555 1_555
C12 H9 1_555 1_555
C13 C12 1_555 1_555
H10 C13 1_555 1_555
C14 C13 1_555 1_555
H11 C14 1_555 1_555
C15 C11 1_555 1_555
H12 C15 1_555 1_555
N1 C1 1_555 1_555
N2 C11 1_555 1_555
O1 C10 1_555 1_555
C8 C9 1_555 1_555
C9 C10 1_555 1_555
C12 N2 1_555 1_555
C14 C15 1_555 1_555
N1 O1 1_555 1_555

#END
