
#######################################################################
#
#                 Cambridge Crystallographic Data Centre
#                                CCDC 
#
#######################################################################
#
# If this CIF has been generated from an entry in the Cambridge 
# Structural Database, then it will include bibliographic, chemical, 
# crystal, experimental, refinement or atomic coordinate data resulting 
# from the CCDC's data processing and validation procedures.
#
#######################################################################

data_EKAHIJ
_chemical_formula_moiety         'C20 H18 N4 O6'
_chemical_name_systematic        
3,9b-bis(4-nitrophenyl)-6,7,8,9,9a,9b-hexahydro-5aH-[1,2,4]oxadiazolo[4,5-b][1,2]benzoxazole
_symmetry_cell_setting           triclinic
_symmetry_space_group_name_H-M   'P -1'
_symmetry_Int_Tables_number      2
_space_group_name_Hall           '-P 1'
loop_
_symmetry_equiv_pos_site_id
_symmetry_equiv_pos_as_xyz
1 x,y,z
2 -x,-y,-z
_cell_length_a                   8.3174(6)
_cell_length_b                   10.9210(8)
_cell_length_c                   11.7899(9)
_cell_angle_alpha                103.169(2)
_cell_angle_beta                 104.857(2)
_cell_angle_gamma                104.641(2)
_cell_volume                     951.218
_exptl_crystal_colour            colorless
_exptl_crystal_description       block
_cell_formula_units_Z            2
loop_
_atom_site_label
_atom_site_type_symbol
_atom_site_fract_x
_atom_site_fract_y
_atom_site_fract_z
C1 C 0.30873(19) 0.85315(14) 0.14232(13)
C2 C -0.0774(2) 0.82904(15) 0.07509(14)
H1 H -0.0056 0.9236 0.1098
C3 C -0.2482(2) 0.80841(17) 0.10340(17)
H2 H -0.2962 0.8773 0.0870
H3 H -0.2233 0.8181 0.1906
C4 C -0.3861(2) 0.67287(19) 0.02844(18)
H4 H -0.3503 0.6044 0.0575
H5 H -0.4977 0.6711 0.0403
C5 C -0.4093(2) 0.6434(2) -0.10795(17)
H6 H -0.4478 0.7105 -0.1377
H7 H -0.4992 0.5573 -0.1540
C6 C -0.2363(2) 0.64274(16) -0.12898(15)
H8 H -0.2537 0.6211 -0.2167
H9 H -0.1988 0.5748 -0.1001
C7 C -0.09336(19) 0.77827(15) -0.06063(13)
H10 H -0.1160 0.8434 -0.1021
C8 C 0.09345(19) 0.77518(14) -0.04546(13)
C9 C 0.42142(19) 0.85836(15) 0.26289(13)
C10 C 0.5729(2) 0.96827(18) 0.32834(16)
H11 H 0.6009 1.0378 0.2959
C11 C 0.6818(2) 0.9744(2) 0.44129(17)
H12 H 0.7847 1.0466 0.4844
C12 C 0.6358(2) 0.8725(2) 0.48865(15)
C13 C 0.4870(3) 0.7631(2) 0.42676(16)
H13 H 0.4586 0.6954 0.4612
C14 C 0.3796(2) 0.75534(18) 0.31203(15)
H14 H 0.2796 0.6811 0.2680
C15 C 0.12070(18) 0.68468(15) -0.15145(13)
C16 C 0.1635(2) 0.73407(17) -0.24276(15)
H15 H 0.1748 0.8222 -0.2381
C17 C 0.1893(2) 0.65313(19) -0.34001(16)
H16 H 0.2216 0.6864 -0.3998
C18 C 0.1662(2) 0.52215(18) -0.34676(15)
C19 C 0.1185(2) 0.46915(16) -0.26033(15)
H17 H 0.1001 0.3795 -0.2685
C20 C 0.0984(2) 0.55171(15) -0.16147(14)
H18 H 0.0697 0.5182 -0.1008
N1 N 0.34616(17) 0.94466(13) 0.09249(12)
N2 N 0.15147(15) 0.74294(12) 0.07072(11)
N3 N 0.7486(3) 0.8813(2) 0.61158(16)
N4 N 0.1946(2) 0.4344(2) -0.44964(15)
O1 O 0.20992(15) 0.91104(10) -0.01957(10)
O2 O 0.9002(3) 0.9571(2) 0.64987(16)
O3 O 0.6837(3) 0.8136(2) 0.66714(15)
O4 O 0.01776(13) 0.75069(11) 0.13041(9)
O5 O 0.2574(3) 0.48426(19) -0.51738(16)
O6 O 0.1483(3) 0.31510(18) -0.46394(15)
loop_
_geom_bond_atom_site_label_1
_geom_bond_atom_site_label_2
_geom_bond_site_symmetry_1
_geom_bond_site_symmetry_2
C1 C9 1_555 1_555
C2 H1 1_555 1_555
C3 C2 1_555 1_555
H2 C3 1_555 1_555
H3 C3 1_555 1_555
C4 C3 1_555 1_555
H4 C4 1_555 1_555
H5 C4 1_555 1_555
C5 C4 1_555 1_555
H6 C5 1_555 1_555
H7 C5 1_555 1_555
C6 C5 1_555 1_555
H8 C6 1_555 1_555
H9 C6 1_555 1_555
C7 C2 1_555 1_555
H10 C7 1_555 1_555
C8 C7 1_555 1_555
C9 C10 1_555 1_555
C10 H11 1_555 1_555
C11 C10 1_555 1_555
H12 C11 1_555 1_555
C12 C11 1_555 1_555
C13 C12 1_555 1_555
H13 C13 1_555 1_555
C14 C9 1_555 1_555
H14 C14 1_555 1_555
C15 C8 1_555 1_555
C16 C15 1_555 1_555
H15 C16 1_555 1_555
C17 C16 1_555 1_555
H16 C17 1_555 1_555
C18 C17 1_555 1_555
C19 C18 1_555 1_555
H17 C19 1_555 1_555
C20 C15 1_555 1_555
H18 C20 1_555 1_555
N1 C1 1_555 1_555
N2 C1 1_555 1_555
N3 C12 1_555 1_555
N4 C18 1_555 1_555
O1 C8 1_555 1_555
O2 N3 1_555 1_555
O3 N3 1_555 1_555
O4 C2 1_555 1_555
O5 N4 1_555 1_555
O6 N4 1_555 1_555
C6 C7 1_555 1_555
C8 N2 1_555 1_555
C13 C14 1_555 1_555
C19 C20 1_555 1_555
N1 O1 1_555 1_555
N2 O4 1_555 1_555

#END
