
#######################################################################
#
#                 Cambridge Crystallographic Data Centre
#                                CCDC 
#
#######################################################################
#
# If this CIF has been generated from an entry in the Cambridge 
# Structural Database, then it will include bibliographic, chemical, 
# crystal, experimental, refinement or atomic coordinate data resulting 
# from the CCDC's data processing and validation procedures.
#
#######################################################################

data_EKALUZ02
_chemical_formula_moiety         'C21 H32 O5'
_chemical_name_systematic        
3a,5,9-trihydroxy-9-(methoxymethyl)-6,10a-dimethyl-3-isopropyl-4,5,6,6a,7,8,9,10a-octahydrodicyclopenta[a,d][8]annulen-1(3aH)-one
_symmetry_cell_setting           orthorhombic
_symmetry_space_group_name_H-M   'P 21 21 21'
_symmetry_Int_Tables_number      19
_space_group_name_Hall           'P 2ac 2ab'
loop_
_symmetry_equiv_pos_site_id
_symmetry_equiv_pos_as_xyz
1 x,y,z
2 1/2+x,1/2-y,-z
3 -x,1/2+y,1/2-z
4 1/2-x,-y,1/2+z
_cell_length_a                   8.8265(2)
_cell_length_b                   21.6150(4)
_cell_length_c                   30.7813(5)
_cell_angle_alpha                90
_cell_angle_beta                 90
_cell_angle_gamma                90
_cell_volume                     5872.6
_exptl_crystal_colour            colorless
_exptl_crystal_description       block
_cell_formula_units_Z            12
loop_
_atom_site_label
_atom_site_type_symbol
_atom_site_fract_x
_atom_site_fract_y
_atom_site_fract_z
O1 O -0.00417(18) 0.21734(6) 0.91638(4)
O2 O -0.01152(14) 0.10945(6) 0.86664(4)
H1 H -0.0015 0.0889 0.8437
O3 O 0.76191(14) 0.07032(6) 0.92589(4)
H2 H 0.8219 0.0869 0.9082
O4 O 0.40556(14) -0.07504(6) 0.95429(4)
H3 H 0.3286 -0.0585 0.9654
O5 O 0.37252(14) -0.00830(6) 0.80682(4)
C1 C 0.7862(2) -0.08766(9) 0.94686(6)
H4 H 0.8404 -0.0532 0.9332
H5 H 0.8595 -0.1179 0.9579
H6 H 0.7247 -0.0720 0.9710
C2 C 0.6830(2) -0.11886(8) 0.91326(6)
H7 H 0.6229 -0.1509 0.9292
C3 C 0.5707(2) -0.07585(8) 0.89222(5)
C4 C 0.4563(2) -0.03870(8) 0.91851(5)
C5 C 0.3276(2) -0.02577(8) 0.88415(5)
C6 C 0.2312(2) 0.03172(8) 0.88876(5)
H8 H 0.1314 0.0242 0.8991
C7 C 0.2619(2) 0.09116(8) 0.88090(5)
C8 C 0.1298(2) 0.13764(8) 0.87761(6)
C9 C 0.1035(2) 0.16920(8) 0.92119(6)
H9 H 0.0661 0.1386 0.9426
H10 H 0.2001 0.1864 0.9321
C10 C -0.0400(3) 0.24539(12) 0.95627(8)
H11 H -0.0877 0.2149 0.9755
H12 H -0.1101 0.2798 0.9513
H13 H 0.0529 0.2610 0.9699
C11 C 0.4078(2) 0.12278(8) 0.86603(5)
H14 H 0.4439 0.0999 0.8397
C12 C 0.5444(2) 0.12722(8) 0.89762(5)
H15 H 0.6233 0.1517 0.8818
C13 C 0.6159(2) 0.06361(8) 0.90604(5)
H16 H 0.6284 0.0418 0.8776
C14 C 0.5236(2) 0.02209(8) 0.93675(5)
H17 H 0.4387 0.0471 0.9484
H18 H 0.5893 0.0112 0.9617
C15 C 0.4163(2) -0.02911(8) 0.84153(5)
C16 C 0.5531(2) -0.06582(8) 0.84937(6)
H19 H 0.6197 -0.0804 0.8274
C17 C 0.7796(2) -0.15331(9) 0.87984(6)
H20 H 0.7133 -0.1757 0.8597
H21 H 0.8461 -0.1827 0.8948
H22 H 0.8412 -0.1236 0.8636
C18 C 0.2197(2) -0.08233(8) 0.88178(6)
H23 H 0.1578 -0.0840 0.9082
H24 H 0.2796 -0.1204 0.8793
H25 H 0.1536 -0.0783 0.8563
C19 C 0.5153(2) 0.16226(8) 0.93996(6)
H26 H 0.4295 0.1435 0.9552
H27 H 0.4921 0.2056 0.9334
H28 H 0.6058 0.1602 0.9584
C20 C 0.3559(2) 0.18772(8) 0.85043(6)
H29 H 0.3764 0.2193 0.8730
H30 H 0.4096 0.1996 0.8234
C21 C 0.1861(2) 0.18198(8) 0.84222(6)
H31 H 0.1662 0.1649 0.8129
H32 H 0.1358 0.2228 0.8447
O6 O -0.00535(16) 0.23144(6) 0.23600(4)
O7 O 0.00410(14) 0.12124(6) 0.19112(4)
H33 H 0.0173 0.0982 0.1695
O8 O 0.40938(15) 0.00143(6) 0.13988(4)
O9 O 0.42266(14) -0.04364(6) 0.29131(4)
H34 H 0.3440 -0.0261 0.3005
O10 O 0.77737(14) 0.09947(6) 0.25438(4)
H35 H 0.8386 0.1106 0.2350
C22 C 0.6816(2) -0.15036(9) 0.26322(7)
H36 H 0.5801 -0.1550 0.2757
H37 H 0.7561 -0.1700 0.2824
H38 H 0.6846 -0.1702 0.2346
C23 C 0.7191(2) -0.08136(8) 0.25851(6)
H39 H 0.7187 -0.0625 0.2882
C24 C 0.5998(2) -0.04978(8) 0.23191(6)
C25 C 0.47687(19) -0.01192(8) 0.25376(5)
C26 C 0.35405(19) -0.00613(8) 0.21739(5)
C27 C 0.2521(2) 0.04980(8) 0.21782(5)
H40 H 0.1518 0.0418 0.2276
C28 C 0.2780(2) 0.10862(8) 0.20688(5)
C29 C 0.14233(19) 0.15257(8) 0.20113(5)
C30 C 0.1108(2) 0.18742(8) 0.24312(6)
H41 H 0.0793 0.1580 0.2660
H42 H 0.2041 0.2086 0.2530
C31 C -0.0532(3) 0.25946(10) 0.27512(7)
H43 H -0.0943 0.2278 0.2946
H44 H -0.1317 0.2902 0.2688
H45 H 0.0333 0.2798 0.2891
C32 C 0.1958(2) 0.19454(8) 0.16395(6)
H46 H 0.1765 0.1749 0.1354
H47 H 0.1430 0.2349 0.1649
C33 C 0.3654(2) 0.20269(8) 0.17160(6)
H48 H 0.3843 0.2370 0.1922
H49 H 0.4180 0.2119 0.1440
C34 C 0.4216(2) 0.14054(8) 0.19075(5)
H50 H 0.4608 0.1154 0.1659
C35 C 0.4490(2) -0.01432(8) 0.17623(5)
C36 C 0.5872(2) -0.04761(8) 0.18833(6)
H51 H 0.6575 -0.0651 0.1684
C37 C 0.5422(2) 0.05058(8) 0.26871(5)
H52 H 0.4570 0.0763 0.2793
H53 H 0.6094 0.0427 0.2938
C38 C 0.63157(19) 0.08897(8) 0.23539(5)
H54 H 0.6453 0.0635 0.2086
C39 C 0.5566(2) 0.15032(8) 0.22252(5)
H55 H 0.6348 0.1737 0.2057
C40 C 0.5222(2) 0.18994(8) 0.26251(6)
H56 H 0.4329 0.1734 0.2775
H57 H 0.5023 0.2326 0.2534
H58 H 0.6093 0.1892 0.2822
C41 C 0.8772(2) -0.07294(10) 0.23916(7)
H59 H 0.8801 -0.0912 0.2100
H60 H 0.9519 -0.0935 0.2577
H61 H 0.9008 -0.0287 0.2373
C42 C 0.2532(2) -0.06494(8) 0.21783(6)
H62 H 0.1958 -0.0665 0.2450
H63 H 0.3174 -0.1018 0.2155
H64 H 0.1828 -0.0636 0.1932
O11 O 1.05703(16) 0.72199(6) 0.90718(4)
O12 O 1.03145(14) 0.62747(6) 0.96751(4)
H65 H 1.0122 0.6110 0.9916
O13 O 0.61541(14) 0.44640(6) 0.88024(4)
H66 H 0.6944 0.4622 0.8699
O14 O 0.61873(14) 0.52116(6) 1.02588(4)
O15 O 0.25984(14) 0.59329(6) 0.90596(4)
H67 H 0.2006 0.6078 0.9247
C43 C 0.1593(2) 0.42555(10) 0.93261(7)
H68 H 0.1534 0.4138 0.9633
H69 H 0.0861 0.4012 0.9159
H70 H 0.1360 0.4697 0.9295
C44 C 0.3187(2) 0.41305(9) 0.91565(6)
H71 H 0.3216 0.4250 0.8843
C45 C 0.4361(2) 0.45041(8) 0.93907(6)
C46 C 0.5594(2) 0.48450(8) 0.91452(5)
C47 C 0.6803(2) 0.49764(8) 0.95037(5)
C48 C 0.7828(2) 0.55316(8) 0.94516(5)
H72 H 0.8834 0.5429 0.9369
C49 C 0.7592(2) 0.61392(8) 0.94988(5)
C50 C 0.8985(2) 0.65702(8) 0.95122(6)
C51 C 0.9385(2) 0.67776(8) 0.90544(6)
H73 H 0.9710 0.6417 0.8880
H74 H 0.8484 0.6962 0.8914
C52 C 1.1110(3) 0.73602(10) 0.86513(7)
H75 H 1.1496 0.6983 0.8514
H76 H 1.1928 0.7666 0.8672
H77 H 1.0282 0.7530 0.8476
C53 C 0.3562(2) 0.34396(9) 0.91888(8)
H78 H 0.4587 0.3367 0.9078
H79 H 0.2832 0.3202 0.9016
H80 H 0.3506 0.3308 0.9493
C54 C 0.4462(2) 0.46133(8) 0.98212(6)
H81 H 0.3753 0.4476 1.0033
C55 C 0.5824(2) 0.49740(8) 0.99138(5)
C56 C 0.4957(2) 0.54396(8) 0.89392(5)
H82 H 0.5811 0.5670 0.8808
H83 H 0.4270 0.5318 0.8700
C57 C 0.4090(2) 0.58840(8) 0.92398(5)
H84 H 0.4012 0.5690 0.9534
C58 C 0.4822(2) 0.65233(8) 0.92886(6)
H85 H 0.4033 0.6792 0.9426
C59 C 0.6173(2) 0.65143(8) 0.96117(6)
H86 H 0.5779 0.6350 0.9894
C60 C 0.6774(2) 0.71750(9) 0.97006(7)
H87 H 0.6634 0.7441 0.9442
H88 H 0.6233 0.7364 0.9949
C61 C 0.8455(2) 0.70999(9) 0.98042(6)
H89 H 0.8604 0.6995 1.0114
H90 H 0.9017 0.7485 0.9738
C62 C 0.5156(2) 0.68160(9) 0.88444(6)
H91 H 0.6084 0.6636 0.8724
H92 H 0.5290 0.7263 0.8879
H93 H 0.4308 0.6736 0.8647
C63 C 0.7816(2) 0.43953(8) 0.95556(6)
H94 H 0.8420 0.4337 0.9292
H95 H 0.7175 0.4031 0.9603
H96 H 0.8492 0.4451 0.9805
loop_
_geom_bond_atom_site_label_1
_geom_bond_atom_site_label_2
_geom_bond_site_symmetry_1
_geom_bond_site_symmetry_2
O1 C9 1_555 1_555
O2 H1 1_555 1_555
O3 H2 1_555 1_555
O4 H3 1_555 1_555
O5 C15 1_555 1_555
C1 H4 1_555 1_555
H5 C1 1_555 1_555
H6 C1 1_555 1_555
C2 C1 1_555 1_555
H7 C2 1_555 1_555
C3 C2 1_555 1_555
C4 O4 1_555 1_555
C5 C4 1_555 1_555
C6 C5 1_555 1_555
H8 C6 1_555 1_555
C7 C6 1_555 1_555
C8 O2 1_555 1_555
C9 C8 1_555 1_555
H9 C9 1_555 1_555
H10 C9 1_555 1_555
C10 O1 1_555 1_555
H11 C10 1_555 1_555
H12 C10 1_555 1_555
H13 C10 1_555 1_555
C11 C7 1_555 1_555
H14 C11 1_555 1_555
C12 C11 1_555 1_555
H15 C12 1_555 1_555
C13 O3 1_555 1_555
H16 C13 1_555 1_555
C14 C4 1_555 1_555
H17 C14 1_555 1_555
H18 C14 1_555 1_555
C15 C5 1_555 1_555
C16 C3 1_555 1_555
H19 C16 1_555 1_555
C17 C2 1_555 1_555
H20 C17 1_555 1_555
H21 C17 1_555 1_555
H22 C17 1_555 1_555
C18 C5 1_555 1_555
H23 C18 1_555 1_555
H24 C18 1_555 1_555
H25 C18 1_555 1_555
C19 C12 1_555 1_555
H26 C19 1_555 1_555
H27 C19 1_555 1_555
H28 C19 1_555 1_555
C20 C11 1_555 1_555
H29 C20 1_555 1_555
H30 C20 1_555 1_555
C21 C8 1_555 1_555
H31 C21 1_555 1_555
H32 C21 1_555 1_555
O6 C30 1_555 1_555
O7 H33 1_555 1_555
O8 C35 1_555 1_555
O9 H34 1_555 1_555
O10 H35 1_555 1_555
C22 H36 1_555 1_555
H37 C22 1_555 1_555
H38 C22 1_555 1_555
C23 C22 1_555 1_555
H39 C23 1_555 1_555
C24 C23 1_555 1_555
C25 O9 1_555 1_555
C26 C25 1_555 1_555
C27 C26 1_555 1_555
H40 C27 1_555 1_555
C28 C27 1_555 1_555
C29 O7 1_555 1_555
C30 C29 1_555 1_555
H41 C30 1_555 1_555
H42 C30 1_555 1_555
C31 O6 1_555 1_555
H43 C31 1_555 1_555
H44 C31 1_555 1_555
H45 C31 1_555 1_555
C32 C29 1_555 1_555
H46 C32 1_555 1_555
H47 C32 1_555 1_555
C33 C32 1_555 1_555
H48 C33 1_555 1_555
H49 C33 1_555 1_555
C34 C28 1_555 1_555
H50 C34 1_555 1_555
C35 C26 1_555 1_555
C36 C24 1_555 1_555
H51 C36 1_555 1_555
C37 C25 1_555 1_555
H52 C37 1_555 1_555
H53 C37 1_555 1_555
C38 O10 1_555 1_555
H54 C38 1_555 1_555
C39 C34 1_555 1_555
H55 C39 1_555 1_555
C40 C39 1_555 1_555
H56 C40 1_555 1_555
H57 C40 1_555 1_555
H58 C40 1_555 1_555
C41 C23 1_555 1_555
H59 C41 1_555 1_555
H60 C41 1_555 1_555
H61 C41 1_555 1_555
C42 C26 1_555 1_555
H62 C42 1_555 1_555
H63 C42 1_555 1_555
H64 C42 1_555 1_555
O11 C51 1_555 1_555
O12 H65 1_555 1_555
O13 H66 1_555 1_555
O14 C55 1_555 1_555
O15 H67 1_555 1_555
C43 H68 1_555 1_555
H69 C43 1_555 1_555
H70 C43 1_555 1_555
C44 C43 1_555 1_555
H71 C44 1_555 1_555
C45 C44 1_555 1_555
C46 O13 1_555 1_555
C47 C46 1_555 1_555
C48 C47 1_555 1_555
H72 C48 1_555 1_555
C49 C48 1_555 1_555
C50 O12 1_555 1_555
C51 C50 1_555 1_555
H73 C51 1_555 1_555
H74 C51 1_555 1_555
C52 O11 1_555 1_555
H75 C52 1_555 1_555
H76 C52 1_555 1_555
H77 C52 1_555 1_555
C53 C44 1_555 1_555
H78 C53 1_555 1_555
H79 C53 1_555 1_555
H80 C53 1_555 1_555
C54 C45 1_555 1_555
H81 C54 1_555 1_555
C55 C47 1_555 1_555
C56 C46 1_555 1_555
H82 C56 1_555 1_555
H83 C56 1_555 1_555
C57 O15 1_555 1_555
H84 C57 1_555 1_555
C58 C57 1_555 1_555
H85 C58 1_555 1_555
C59 C49 1_555 1_555
H86 C59 1_555 1_555
C60 C59 1_555 1_555
H87 C60 1_555 1_555
H88 C60 1_555 1_555
C61 C50 1_555 1_555
H89 C61 1_555 1_555
H90 C61 1_555 1_555
C62 C58 1_555 1_555
H91 C62 1_555 1_555
H92 C62 1_555 1_555
H93 C62 1_555 1_555
C63 C47 1_555 1_555
H94 C63 1_555 1_555
H95 C63 1_555 1_555
H96 C63 1_555 1_555
C3 C4 1_555 1_555
C7 C8 1_555 1_555
C12 C13 1_555 1_555
C13 C14 1_555 1_555
C15 C16 1_555 1_555
C20 C21 1_555 1_555
C24 C25 1_555 1_555
C28 C29 1_555 1_555
C33 C34 1_555 1_555
C35 C36 1_555 1_555
C37 C38 1_555 1_555
C38 C39 1_555 1_555
C45 C46 1_555 1_555
C49 C50 1_555 1_555
C54 C55 1_555 1_555
C56 C57 1_555 1_555
C58 C59 1_555 1_555
C60 C61 1_555 1_555

#END
