
#######################################################################
#
#                 Cambridge Crystallographic Data Centre
#                                CCDC 
#
#######################################################################
#
# If this CIF has been generated from an entry in the Cambridge 
# Structural Database, then it will include bibliographic, chemical, 
# crystal, experimental, refinement or atomic coordinate data resulting 
# from the CCDC's data processing and validation procedures.
#
#######################################################################

data_EKALIN
_chemical_formula_moiety         'C22 H16 O4,C22 H16 O4'
_chemical_name_systematic        
'2-(hydroxymethyl)-13c-methoxydibenzo[a,kl]xanthen-1(13cH)-one 8-(hydroxymethyl)-13c-methoxydibenzo[a,kl]xanthen-1(13cH)-one'
_symmetry_cell_setting           orthorhombic
_symmetry_space_group_name_H-M   'P b c a'
_symmetry_Int_Tables_number      61
_space_group_name_Hall           '-P 2ac 2ab'
loop_
_symmetry_equiv_pos_site_id
_symmetry_equiv_pos_as_xyz
1 x,y,z
2 1/2-x,-y,1/2+z
3 -x,1/2+y,1/2-z
4 1/2+x,1/2-y,-z
5 -x,-y,-z
6 1/2+x,y,1/2-z
7 x,1/2-y,1/2+z
8 1/2-x,1/2+y,z
_cell_length_a                   7.615(11)
_cell_length_b                   23.48(3)
_cell_length_c                   36.26(5)
_cell_angle_alpha                90
_cell_angle_beta                 90
_cell_angle_gamma                90
_cell_volume                     6483.3
_cell_formula_units_Z            8
loop_
_atom_site_label
_atom_site_type_symbol
_atom_site_fract_x
_atom_site_fract_y
_atom_site_fract_z
C1 C 0.7194(2) -0.00827(6) 0.17961(4)
C2 C 0.7608(3) -0.00132(7) 0.21732(5)
H1 H 0.7443 0.0349 0.2285
C3 C 0.8233(3) -0.04490(8) 0.23811(5)
H2 H 0.8517 -0.0387 0.2633
C4 C 0.8461(3) -0.09851(8) 0.22270(6)
H3 H 0.8916 -0.1288 0.2372
C5 C 0.8029(3) -0.10725(7) 0.18699(6)
H4 H 0.8164 -0.1443 0.1768
C6 C 0.7387(2) -0.06325(7) 0.16444(5)
C7 C 0.6928(2) -0.07296(7) 0.12729(5)
H5 H 0.7064 -0.1100 0.1172
C8 C 0.6304(2) -0.03088(7) 0.10586(5)
H6 H 0.5995 -0.0381 0.0809
C9 C 0.6116(2) 0.02346(7) 0.12073(4)
C10 C 0.6581(2) 0.03665(6) 0.15631(4)
C11 C 0.6319(2) 0.09557(6) 0.17069(4)
C12 C 0.5728(2) 0.13497(7) 0.14025(4)
C13 C 0.5238(2) 0.11611(7) 0.10596(5)
C14 C 0.4576(2) 0.15237(8) 0.07895(5)
H7 H 0.4240 0.1382 0.0554
C15 C 0.4425(3) 0.20846(9) 0.08720(5)
H8 H 0.3940 0.2339 0.0696
C16 C 0.4972(3) 0.22901(8) 0.12125(5)
H9 H 0.4875 0.2686 0.1264
C17 C 0.5653(2) 0.19318(7) 0.14774(5)
C18 C 0.6463(2) 0.21408(7) 0.18165(5)
H10 H 0.6185 0.2514 0.1899
C19 C 0.7578(2) 0.18265(7) 0.20145(5)
C20 C 0.7942(2) 0.12439(6) 0.18799(4)
C21 C 0.8608(3) 0.20241(7) 0.23435(5)
H11 H 0.8252 0.1798 0.2562
H12 H 0.9872 0.1953 0.2299
C22 C 0.3343(2) 0.07902(9) 0.19167(5)
H13 H 0.2896 0.1030 0.1716
H14 H 0.2576 0.0828 0.2132
H15 H 0.3363 0.0392 0.1837
O1 O 0.54022(16) 0.06088(5) 0.09590(3)
O2 O 0.93986(16) 0.10366(5) 0.18917(4)
O3 O 0.50776(15) 0.09664(5) 0.20112(3)
O4 O 0.83564(18) 0.26043(5) 0.24188(4)
H16 H 0.9070 0.2798 0.2294
C23 C 0.0998(2) 0.30498(6) 0.06833(4)
C24 C 0.0881(2) 0.28624(7) 0.03130(4)
H17 H 0.1385 0.3087 0.0123
C25 C 0.0063(2) 0.23678(7) 0.02256(5)
H18 H -0.0010 0.2252 -0.0025
C26 C -0.0676(3) 0.20256(7) 0.05008(5)
H19 H -0.1277 0.1685 0.0436
C27 C -0.0534(2) 0.21808(7) 0.08604(5)
H20 H -0.1020 0.1944 0.1046
C28 C 0.0323(2) 0.26886(6) 0.09609(4)
C29 C 0.0574(2) 0.28290(6) 0.13371(4)
H21 H 0.0110 0.2584 0.1522
C30 C 0.1454(2) 0.33004(6) 0.14401(4)
C31 C 0.2055(2) 0.36713(6) 0.11593(4)
C32 C 0.1814(2) 0.35716(6) 0.07897(4)
C33 C 0.2485(2) 0.39899(6) 0.05104(4)
C34 C 0.1159(2) 0.41592(6) 0.02049(4)
C35 C 0.1845(2) 0.45897(7) -0.00504(5)
H22 H 0.1555 0.4578 -0.0305
C36 C 0.2876(2) 0.49944(7) 0.00824(5)
H23 H 0.3304 0.5281 -0.0079
C37 C 0.3374(2) 0.50124(7) 0.04722(4)
C38 C 0.4051(2) 0.54937(7) 0.06326(5)
H24 H 0.4300 0.5818 0.0485
C39 C 0.4375(2) 0.55120(7) 0.10092(5)
H25 H 0.4860 0.5847 0.1115
C40 C 0.4008(2) 0.50547(7) 0.12295(5)
H26 H 0.4219 0.5069 0.1488
C41 C 0.3319(2) 0.45709(6) 0.10663(4)
C42 C 0.3045(2) 0.45344(6) 0.06925(4)
C43 C 0.5521(2) 0.36614(7) 0.05048(5)
H27 H 0.5915 0.4020 0.0615
H28 H 0.6438 0.3514 0.0341
H29 H 0.5286 0.3384 0.0700
C44 C 0.1793(3) 0.34524(7) 0.18373(4)
H30 H 0.3070 0.3506 0.1876
H31 H 0.1199 0.3816 0.1896
O5 O 0.29073(16) 0.41365(4) 0.13008(3)
O6 O -0.03410(16) 0.39842(5) 0.01870(3)
O7 O 0.39497(15) 0.37581(5) 0.02973(3)
O8 O 0.11729(18) 0.30218(6) 0.20759(3)
H32 H 0.1994 0.2913 0.2214
loop_
_geom_bond_atom_site_label_1
_geom_bond_atom_site_label_2
_geom_bond_site_symmetry_1
_geom_bond_site_symmetry_2
C1 C2 1_555 1_555
C2 H1 1_555 1_555
C3 C2 1_555 1_555
H2 C3 1_555 1_555
C4 C3 1_555 1_555
H3 C4 1_555 1_555
C5 C4 1_555 1_555
H4 C5 1_555 1_555
C6 C1 1_555 1_555
C7 C6 1_555 1_555
H5 C7 1_555 1_555
C8 C7 1_555 1_555
H6 C8 1_555 1_555
C9 C8 1_555 1_555
C10 C1 1_555 1_555
C11 C10 1_555 1_555
C12 C11 1_555 1_555
C13 C12 1_555 1_555
C14 C13 1_555 1_555
H7 C14 1_555 1_555
C15 C14 1_555 1_555
H8 C15 1_555 1_555
C16 C15 1_555 1_555
H9 C16 1_555 1_555
C17 C12 1_555 1_555
C18 C17 1_555 1_555
H10 C18 1_555 1_555
C19 C18 1_555 1_555
C20 C11 1_555 1_555
C21 C19 1_555 1_555
H11 C21 1_555 1_555
H12 C21 1_555 1_555
C22 H13 1_555 1_555
H14 C22 1_555 1_555
H15 C22 1_555 1_555
O1 C9 1_555 1_555
O2 C20 1_555 1_555
O3 C11 1_555 1_555
O4 C21 1_555 1_555
H16 O4 1_555 1_555
C23 C24 1_555 1_555
C24 H17 1_555 1_555
C25 C24 1_555 1_555
H18 C25 1_555 1_555
C26 C25 1_555 1_555
H19 C26 1_555 1_555
C27 C26 1_555 1_555
H20 C27 1_555 1_555
C28 C23 1_555 1_555
C29 C28 1_555 1_555
H21 C29 1_555 1_555
C30 C29 1_555 1_555
C31 C30 1_555 1_555
C32 C23 1_555 1_555
C33 C32 1_555 1_555
C34 C33 1_555 1_555
C35 C34 1_555 1_555
H22 C35 1_555 1_555
C36 C35 1_555 1_555
H23 C36 1_555 1_555
C37 C36 1_555 1_555
C38 C37 1_555 1_555
H24 C38 1_555 1_555
C39 C38 1_555 1_555
H25 C39 1_555 1_555
C40 C39 1_555 1_555
H26 C40 1_555 1_555
C41 C40 1_555 1_555
C42 C33 1_555 1_555
C43 H27 1_555 1_555
H28 C43 1_555 1_555
H29 C43 1_555 1_555
C44 C30 1_555 1_555
H30 C44 1_555 1_555
H31 C44 1_555 1_555
O5 C31 1_555 1_555
O6 C34 1_555 1_555
O7 C33 1_555 1_555
O8 C44 1_555 1_555
H32 O8 1_555 1_555
C5 C6 1_555 1_555
C9 C10 1_555 1_555
C13 O1 1_555 1_555
C16 C17 1_555 1_555
C19 C20 1_555 1_555
C22 O3 1_555 1_555
C27 C28 1_555 1_555
C31 C32 1_555 1_555
C37 C42 1_555 1_555
C41 C42 1_555 1_555
C41 O5 1_555 1_555
C43 O7 1_555 1_555

#END
