
#######################################################################
#
#                 Cambridge Crystallographic Data Centre
#                                CCDC 
#
#######################################################################
#
# If this CIF has been generated from an entry in the Cambridge 
# Structural Database, then it will include bibliographic, chemical, 
# crystal, experimental, refinement or atomic coordinate data resulting 
# from the CCDC's data processing and validation procedures.
#
#######################################################################

data_EKATER
_chemical_formula_moiety         'C22 H19 Cl1 N2 O2'
_chemical_name_systematic        
2-(5-(4-Chlorophenyl)-1-vinyl-1H-pyrrol-2-yl)-4-oxo-1-oxaspiro[4.5]dec-2-ene-3-carbonitrile
_symmetry_cell_setting           monoclinic
_symmetry_space_group_name_H-M   'P 21/c'
_symmetry_Int_Tables_number      14
_space_group_name_Hall           '-P 2ybc'
loop_
_symmetry_equiv_pos_site_id
_symmetry_equiv_pos_as_xyz
1 x,y,z
2 -x,1/2+y,1/2-z
3 -x,-y,-z
4 x,1/2-y,1/2+z
_cell_length_a                   9.122(3)
_cell_length_b                   8.517(2)
_cell_length_c                   24.145(8)
_cell_angle_alpha                90
_cell_angle_beta                 100.178(11)
_cell_angle_gamma                90
_cell_volume                     1846.36
_exptl_crystal_colour            yellow
_exptl_crystal_description       prism
_cell_formula_units_Z            4
loop_
_atom_site_label
_atom_site_type_symbol
_atom_site_fract_x
_atom_site_fract_y
_atom_site_fract_z
Cl1 Cl -0.07389(5) 0.43973(5) -0.10682(2)
O1 O 0.60163(10) 1.02615(11) 0.14963(4)
O2 O 0.80295(12) 1.34565(12) 0.21982(4)
N1 N 0.35364(12) 0.98033(13) 0.06361(5)
N2 N 0.54813(16) 1.56522(15) 0.09733(6)
C1 C 0.80578(16) 0.77617(17) 0.25272(6)
H1 H 0.8824 0.8087 0.2837
H2 H 0.7950 0.6631 0.2548
C2 C 0.85313(16) 0.81925(17) 0.19723(6)
H3 H 0.7818 0.7768 0.1663
H4 H 0.9495 0.7729 0.1958
C3 C 0.86256(15) 0.99761(17) 0.19072(6)
H5 H 0.9422 1.0382 0.2191
H6 H 0.8864 1.0218 0.1541
C4 C 0.71670(15) 1.07828(16) 0.19666(6)
C5 C 0.54570(15) 1.15078(16) 0.11939(6)
C6 C 0.43098(15) 1.12180(16) 0.07175(6)
C7 C 0.27482(14) 0.97768(16) 0.00926(6)
C8 C 0.18497(15) 0.84361(16) -0.01529(6)
C9 C 0.05014(15) 0.87051(17) -0.05191(6)
H7 H 0.0143 0.9725 -0.0577
C10 C -0.03059(16) 0.74681(19) -0.07958(6)
H8 H -0.1202 0.7653 -0.1037
C11 C 0.02384(17) 0.59554(18) -0.07079(6)
C12 C 0.23467(16) 0.68854(17) -0.00636(6)
H9 H 0.3227 0.6684 0.0185
C13 C 0.15453(17) 0.56459(17) -0.03404(6)
H10 H 0.1884 0.4620 -0.0279
C14 C 0.32376(17) 0.87876(17) 0.10799(6)
H11 H 0.3425 0.7720 0.1053
C15 C 0.27238(19) 0.9280(2) 0.15124(7)
H12 H 0.2526 1.0343 0.1550
H13 H 0.2550 0.8574 0.1787
C16 C 0.39832(15) 1.20779(17) 0.02231(6)
H14 H 0.4342 1.3073 0.0161
C17 C 0.30158(15) 1.11773(17) -0.01655(6)
H15 H 0.2621 1.1467 -0.0533
C18 C 0.65868(17) 0.85478(17) 0.25825(7)
H16 H 0.6348 0.8307 0.2949
H17 H 0.5798 0.8127 0.2299
C19 C 0.66555(16) 1.03349(17) 0.25132(6)
H18 H 0.5677 1.0779 0.2516
H19 H 0.7339 1.0775 0.2829
C20 C 0.72232(15) 1.25647(16) 0.18858(6)
C21 C 0.61263(15) 1.29067(16) 0.13875(6)
C22 C 0.57625(16) 1.44235(17) 0.11605(6)
loop_
_geom_bond_atom_site_label_1
_geom_bond_atom_site_label_2
_geom_bond_site_symmetry_1
_geom_bond_site_symmetry_2
Cl1 C11 1_555 1_555
O1 C4 1_555 1_555
O2 C20 1_555 1_555
N1 C6 1_555 1_555
N2 C22 1_555 1_555
C1 H1 1_555 1_555
H2 C1 1_555 1_555
C2 C1 1_555 1_555
H3 C2 1_555 1_555
H4 C2 1_555 1_555
C3 C2 1_555 1_555
H5 C3 1_555 1_555
H6 C3 1_555 1_555
C4 C3 1_555 1_555
C5 O1 1_555 1_555
C6 C5 1_555 1_555
C7 N1 1_555 1_555
C8 C7 1_555 1_555
C9 C8 1_555 1_555
H7 C9 1_555 1_555
C10 C9 1_555 1_555
H8 C10 1_555 1_555
C11 C10 1_555 1_555
C12 C8 1_555 1_555
H9 C12 1_555 1_555
C13 C11 1_555 1_555
H10 C13 1_555 1_555
C14 N1 1_555 1_555
H11 C14 1_555 1_555
C15 C14 1_555 1_555
H12 C15 1_555 1_555
H13 C15 1_555 1_555
C16 C6 1_555 1_555
H14 C16 1_555 1_555
C17 C7 1_555 1_555
H15 C17 1_555 1_555
C18 C1 1_555 1_555
H16 C18 1_555 1_555
H17 C18 1_555 1_555
C19 C4 1_555 1_555
H18 C19 1_555 1_555
H19 C19 1_555 1_555
C20 C4 1_555 1_555
C21 C5 1_555 1_555
C22 C21 1_555 1_555
C12 C13 1_555 1_555
C16 C17 1_555 1_555
C18 C19 1_555 1_555
C20 C21 1_555 1_555

#END
