
#######################################################################
#
#                 Cambridge Crystallographic Data Centre
#                                CCDC 
#
#######################################################################
#
# If this CIF has been generated from an entry in the Cambridge 
# Structural Database, then it will include bibliographic, chemical, 
# crystal, experimental, refinement or atomic coordinate data resulting 
# from the CCDC's data processing and validation procedures.
#
#######################################################################

data_EKAVIX
_chemical_formula_moiety         'C16 H16 O4'
_chemical_name_systematic        
Tetraspiro[2.1.2^5^.1.2^9^.1.2^13^.1^3^]hexadecane-4,8,12,16-tetrone
_symmetry_cell_setting           orthorhombic
_symmetry_space_group_name_H-M   'A b a 2'
_symmetry_Int_Tables_number      41
_space_group_name_Hall           'A 2 -2ac'
loop_
_symmetry_equiv_pos_site_id
_symmetry_equiv_pos_as_xyz
1 x,y,z
2 -x,-y,z
3 1/2-x,y,1/2+z
4 1/2+x,-y,1/2+z
5 x,1/2+y,1/2+z
6 -x,1/2-y,1/2+z
7 1/2-x,1/2+y,z
8 1/2+x,1/2-y,z
_cell_length_a                   10.1164(16)
_cell_length_b                   10.1680(16)
_cell_length_c                   12.5787(16)
_cell_angle_alpha                90
_cell_angle_beta                 90
_cell_angle_gamma                90
_cell_volume                     1293.89
_exptl_crystal_colour            colorless
_exptl_crystal_description       prism
_chemical_melting_point          '456-458 K'
_cell_formula_units_Z            4
_exptl_crystal_recrystallization_method dichloromethane/cyclohexane
loop_
_atom_site_label
_atom_site_type_symbol
_atom_site_fract_x
_atom_site_fract_y
_atom_site_fract_z
C1 C -0.0292(5) 0.1549(5) 0.0967(4)
C2 C -0.0494(7) 0.2869(6) 0.0422(5)
H1 H -0.1383 0.3092 0.0196
H2 H 0.0029 0.3607 0.0670
C3 C 0.0196(7) 0.1817(7) -0.0163(5)
H3 H 0.1141 0.1911 -0.0270
H4 H -0.0271 0.1397 -0.0744
C4 C 0.0719(5) 0.1494(4) 0.1837(4)
O1 O 0.0883(5) 0.2407(4) 0.2450(4)
C5 C 0.1577(5) 0.0281(5) 0.1938(4)
C6 C 0.2885(6) 0.0477(6) 0.2492(5)
H5 H 0.3626 -0.0053 0.2257
H6 H 0.3113 0.1363 0.2712
C7 C 0.1817(6) -0.0190(6) 0.3068(5)
H7 H 0.1387 0.0287 0.3639
H8 H 0.1901 -0.1129 0.3184
C8 C 0.1502(5) -0.0723(5) 0.1056(4)
O2 O 0.2427(4) -0.0868(4) 0.0462(3)
C1A C 0.0292(5) -0.1549(5) 0.0967(4)
C2A C 0.0494(7) -0.2869(6) 0.0422(5)
H1A H 0.1383 -0.3092 0.0196
H2A H -0.0029 -0.3607 0.0670
C3A C -0.0196(7) -0.1817(7) -0.0163(5)
H3A H -0.1141 -0.1911 -0.0270
H4A H 0.0271 -0.1397 -0.0744
C4A C -0.0719(5) -0.1494(4) 0.1837(4)
O1A O -0.0883(5) -0.2407(4) 0.2450(4)
C5A C -0.1577(5) -0.0281(5) 0.1938(4)
C6A C -0.2885(6) -0.0477(6) 0.2492(5)
H5A H -0.3626 0.0053 0.2257
H6A H -0.3113 -0.1363 0.2712
C7A C -0.1817(6) 0.0190(6) 0.3068(5)
H7A H -0.1387 -0.0287 0.3639
H8A H -0.1901 0.1129 0.3184
C8A C -0.1502(5) 0.0723(5) 0.1056(4)
O2A O -0.2427(4) 0.0868(4) 0.0462(3)
loop_
_geom_bond_atom_site_label_1
_geom_bond_atom_site_label_2
_geom_bond_site_symmetry_1
_geom_bond_site_symmetry_2
C1 C2 1_555 1_555
C2 H1 1_555 1_555
H2 C2 1_555 1_555
C3 C1 1_555 1_555
H3 C3 1_555 1_555
H4 C3 1_555 1_555
C4 C1 1_555 1_555
O1 C4 1_555 1_555
C5 C4 1_555 1_555
C6 C5 1_555 1_555
H5 C6 1_555 1_555
H6 C6 1_555 1_555
C7 C5 1_555 1_555
H7 C7 1_555 1_555
H8 C7 1_555 1_555
C8 C5 1_555 1_555
O2 C8 1_555 1_555
C1A C8 1_555 1_555
C2A C1A 1_555 1_555
H1A C2A 1_555 1_555
H2A C2A 1_555 1_555
C3A C1A 1_555 1_555
H3A C3A 1_555 1_555
H4A C3A 1_555 1_555
C4A C1A 1_555 1_555
O1A C4A 1_555 1_555
C5A C4A 1_555 1_555
C6A C5A 1_555 1_555
H5A C6A 1_555 1_555
H6A C6A 1_555 1_555
C7A C5A 1_555 1_555
H7A C7A 1_555 1_555
H8A C7A 1_555 1_555
C8A C1 1_555 1_555
O2A C8A 1_555 1_555
C2 C3 1_555 1_555
C6 C7 1_555 1_555
C2A C3A 1_555 1_555
C5A C8A 1_555 1_555
C6A C7A 1_555 1_555

#END
