
#######################################################################
#
#                 Cambridge Crystallographic Data Centre
#                                CCDC 
#
#######################################################################
#
# If this CIF has been generated from an entry in the Cambridge 
# Structural Database, then it will include bibliographic, chemical, 
# crystal, experimental, refinement or atomic coordinate data resulting 
# from the CCDC's data processing and validation procedures.
#
#######################################################################

data_EKELUB
_chemical_formula_moiety         'C8 H4 N1 O6 1-,C6 H7 I1 N1 1+'
_chemical_name_systematic        '4-Iodoanilinium 3-nitrophthalate'
_symmetry_cell_setting           monoclinic
_symmetry_space_group_name_H-M   'P 21/c'
_symmetry_Int_Tables_number      14
_space_group_name_Hall           '-P 2ybc'
loop_
_symmetry_equiv_pos_site_id
_symmetry_equiv_pos_as_xyz
1 x,y,z
2 x,1/2-y,1/2+z
3 -x,-y,-z
4 -x,1/2+y,1/2-z
_cell_length_a                   14.7434(5)
_cell_length_b                   8.1274(2)
_cell_length_c                   13.2487(4)
_cell_angle_alpha                90
_cell_angle_beta                 106.7116(12)
_cell_angle_gamma                90
_cell_volume                     1520.48
_exptl_crystal_colour            colorless
_exptl_crystal_description       block
_cell_formula_units_Z            4
_exptl_crystal_recrystallization_method ethanol
loop_
_atom_site_label
_atom_site_type_symbol
_atom_site_fract_x
_atom_site_fract_y
_atom_site_fract_z
C1 C 0.32068(19) 0.5625(3) 0.3155(2)
C2 C 0.29669(18) 0.7288(3) 0.29216(19)
C3 C 0.20226(19) 0.7704(3) 0.2792(2)
C4 C 0.1324(2) 0.6570(3) 0.2809(2)
C5 C 0.1573(2) 0.4936(3) 0.2985(2)
C6 C 0.2512(2) 0.4480(3) 0.3188(2)
C7 C 0.41958(19) 0.4935(3) 0.3393(2)
O1 O 0.44194(15) 0.3702(3) 0.39107(18)
O2 O 0.47691(13) 0.5749(2) 0.29652(14)
C8 C 0.37178(18) 0.8537(3) 0.2836(2)
O3 O 0.42541(12) 0.9072(2) 0.36848(13)
O4 O 0.37593(12) 0.8888(2) 0.19247(13)
N1 N 0.17229(16) 0.9453(3) 0.26929(17)
O5 O 0.23225(14) 1.0492(2) 0.26918(17)
O6 O 0.08997(14) 0.9770(3) 0.26408(17)
H1 H 0.0687 0.6912 0.2702
H2 H 0.1102 0.4129 0.2968
H3 H 0.2687 0.3365 0.3352
H4 H 0.5275 0.5219 0.3056
C9 C 0.33741(18) 0.5224(3) 0.06133(19)
N2 N 0.42149(15) 0.6224(3) 0.07019(16)
C10 C 0.34716(19) 0.3537(3) 0.0758(2)
C11 C 0.2665(2) 0.2590(3) 0.0653(2)
C12 C 0.1789(2) 0.3353(3) 0.0396(2)
I1 I 0.056953(13) 0.19396(2) 0.023028(16)
C13 C 0.1698(2) 0.5048(3) 0.0253(2)
C14 C 0.25039(19) 0.5993(3) 0.0368(2)
H5 H 0.4174 0.7172 0.1051
H6 H 0.4256 0.6468 0.0046
H7 H 0.4739 0.5655 0.1064
H8 H 0.4079 0.3037 0.0926
H9 H 0.2714 0.1433 0.0757
H10 H 0.1091 0.5551 0.0079
H11 H 0.2458 0.7152 0.0278
loop_
_geom_bond_atom_site_label_1
_geom_bond_atom_site_label_2
_geom_bond_site_symmetry_1
_geom_bond_site_symmetry_2
C1 C2 1_555 1_555
C2 C3 1_555 1_555
C3 C4 1_555 1_555
C4 C5 1_555 1_555
C5 C6 1_555 1_555
C6 C1 1_555 1_555
C7 C1 1_555 1_555
O1 C7 1_555 1_555
O2 C7 1_555 1_555
C8 C2 1_555 1_555
O3 C8 1_555 1_555
O4 C8 1_555 1_555
N1 C3 1_555 1_555
O5 N1 1_555 1_555
O6 N1 1_555 1_555
C9 N2 1_555 1_555
N2 H5 1_555 1_555
C10 C9 1_555 1_555
C11 C10 1_555 1_555
C12 C11 1_555 1_555
I1 C12 1_555 1_555
C13 C12 1_555 1_555
C14 C9 1_555 1_555
H1 C4 1_555 1_555
H2 C5 1_555 1_555
H3 C6 1_555 1_555
H4 O2 1_555 1_555
H6 N2 1_555 1_555
H7 N2 1_555 1_555
H8 C10 1_555 1_555
H9 C11 1_555 1_555
H10 C13 1_555 1_555
H11 C14 1_555 1_555
C13 C14 1_555 1_555

#END
