
#######################################################################
#
#                 Cambridge Crystallographic Data Centre
#                                CCDC 
#
#######################################################################
#
# If this CIF has been generated from an entry in the Cambridge 
# Structural Database, then it will include bibliographic, chemical, 
# crystal, experimental, refinement or atomic coordinate data resulting 
# from the CCDC's data processing and validation procedures.
#
#######################################################################

data_EKEPEP01
_chemical_formula_moiety         'C5 H7 N2 1+,C4 H3 O4 1-'
_chemical_name_systematic        '4-aminopyridinium hydrogen maleate'
_symmetry_cell_setting           monoclinic
_symmetry_space_group_name_H-M   'P 21'
_symmetry_Int_Tables_number      4
_space_group_name_Hall           'P 2yb'
loop_
_symmetry_equiv_pos_site_id
_symmetry_equiv_pos_as_xyz
1 x,y,z
2 -x,1/2+y,-z
_cell_length_a                   7.8515(16)
_cell_length_b                   5.5447(11)
_cell_length_c                   10.921(2)
_cell_angle_alpha                90
_cell_angle_beta                 96.39(3)
_cell_angle_gamma                90
_cell_volume                     472.483
_exptl_crystal_colour            colorless
_exptl_crystal_description       block
_cell_formula_units_Z            2
loop_
_atom_site_label
_atom_site_type_symbol
_atom_site_fract_x
_atom_site_fract_y
_atom_site_fract_z
C1 C 0.31213(12) 0.5000(3) 0.66852(8)
H1 H 0.2467(3) 0.2885(6) 0.8088(2)
O1 O 0.32185(15) 0.4671(3) 0.78577(10)
C2 C 0.21875(13) 0.3215(3) 0.58158(9)
H2 H 0.2237(4) 0.3682(6) 0.4849(2)
O2 O 0.16624(15) 0.1030(3) 0.82665(10)
C3 C 0.13120(13) 0.1201(3) 0.60427(9)
H3 H 0.0737(3) 0.0179(7) 0.5250(2)
O3 O 0.37948(15) 0.6745(3) 0.62080(10)
C4 C 0.09578(11) 0.0099(3) 0.72439(8)
O4 O -0.00083(15) -0.1670(3) 0.72027(11)
N1 N 0.88540(10) 0.5488(2) 0.91599(7)
N2 N 0.57981(9) 0.0061(2) 0.75446(6)
H4 H 0.9363(3) 0.6715(6) 0.8604(2)
C5 C 0.78550(12) 0.3727(3) 0.86409(8)
H5 H 0.8966(4) 0.5701(6) 1.0097(2)
C6 C 0.74945(12) 0.3558(3) 0.73372(9)
H6 H 0.8016(3) 0.4889(6) 0.6746(2)
C7 C 0.64671(13) 0.1734(3) 0.68291(9)
H7 H 0.6142(3) 0.1556(6) 0.5831(2)
C8 C 0.61152(12) 0.0163(3) 0.87873(9)
C9 C 0.71186(13) 0.1945(3) 0.93636(9)
H8 H 0.5533(4) -0.1236(6) 0.9300(2)
H9 H 0.7358(4) 0.1986(7) 1.0371(2)
H10 H 0.5012(3) -0.1309(6) 0.7115(2)
loop_
_geom_bond_atom_site_label_1
_geom_bond_atom_site_label_2
_geom_bond_site_symmetry_1
_geom_bond_site_symmetry_2
C1 O1 1_555 1_555
H1 O1 1_555 1_555
C2 C1 1_555 1_555
H2 C2 1_555 1_555
O2 H1 1_555 1_555
C3 C2 1_555 1_555
H3 C3 1_555 1_555
O3 C1 1_555 1_555
C4 O2 1_555 1_555
O4 C4 1_555 1_555
N1 H4 1_555 1_555
N2 C7 1_555 1_555
C5 N1 1_555 1_555
H5 N1 1_555 1_555
C6 C5 1_555 1_555
H6 C6 1_555 1_555
C7 C6 1_555 1_555
H7 C7 1_555 1_555
C8 N2 1_555 1_555
C9 C5 1_555 1_555
H8 C8 1_555 1_555
H9 C9 1_555 1_555
H10 N2 1_555 1_555
C3 C4 1_555 1_555
C8 C9 1_555 1_555

#END
