
#######################################################################
#
#                 Cambridge Crystallographic Data Centre
#                                CCDC 
#
#######################################################################
#
# If this CIF has been generated from an entry in the Cambridge 
# Structural Database, then it will include bibliographic, chemical, 
# crystal, experimental, refinement or atomic coordinate data resulting 
# from the CCDC's data processing and validation procedures.
#
#######################################################################

data_EKEXIB
_chemical_formula_moiety         'C23 H21 N1 O3'
_chemical_name_systematic        
'Ethyl 2-amino-4-(4-methylphenyl)-4H-benzo(f)chromene-3-carboxylate'
_symmetry_cell_setting           triclinic
_symmetry_space_group_name_H-M   'P -1'
_symmetry_Int_Tables_number      2
_space_group_name_Hall           '-P 1'
loop_
_symmetry_equiv_pos_site_id
_symmetry_equiv_pos_as_xyz
1 x,y,z
2 -x,-y,-z
_cell_length_a                   9.394(2)
_cell_length_b                   9.3960(10)
_cell_length_c                   11.005(2)
_cell_angle_alpha                94.980(10)
_cell_angle_beta                 98.300(10)
_cell_angle_gamma                102.950(10)
_cell_volume                     929.568
_exptl_crystal_colour            colorless
_exptl_crystal_description       block
_chemical_melting_point          '474-475 K'
_cell_formula_units_Z            2
_exptl_crystal_recrystallization_method dimethylformamide/water
loop_
_atom_site_label
_atom_site_type_symbol
_atom_site_fract_x
_atom_site_fract_y
_atom_site_fract_z
O1 O 0.13586(14) 0.41521(13) 0.47413(11)
O2 O 0.30717(14) 0.20685(12) 0.82157(12)
O3 O 0.10953(15) 0.06869(13) 0.69058(13)
N1 N 0.00388(19) 0.1946(2) 0.4971(2)
C1 C 0.12097(18) 0.30647(18) 0.54773(17)
C2 C 0.21166(18) 0.31503(17) 0.65719(15)
C3 C 0.31937(17) 0.45914(16) 0.71206(14)
H1 H 0.4106 0.4373 0.7526
C4 C 0.35729(18) 0.55277(17) 0.61128(15)
C5 C 0.26502(19) 0.52851(18) 0.50094(16)
C6 C 0.2873(2) 0.6147(2) 0.40432(18)
H2 H 0.2212 0.5930 0.3300
C7 C 0.4071(3) 0.7300(2) 0.42154(19)
H3 H 0.4221 0.7887 0.3585
C8 C 0.5094(2) 0.76279(19) 0.53287(18)
C9 C 0.6352(3) 0.8834(2) 0.5525(2)
H4 H 0.6513 0.9430 0.4903
C10 C 0.7318(3) 0.9131(2) 0.6598(3)
H5 H 0.8128 0.9936 0.6714
C11 C 0.7109(2) 0.8234(2) 0.7538(2)
H6 H 0.7794 0.8436 0.8268
C12 C 0.59049(19) 0.70610(19) 0.73956(18)
H7 H 0.5775 0.6480 0.8033
C13 C 0.48582(18) 0.67258(17) 0.62886(16)
C14 C 0.2013(2) 0.18703(18) 0.72085(17)
C15 C 0.3120(2) 0.0805(2) 0.88819(19)
H8 H 0.2117 0.0241 0.8875
H9 H 0.3578 0.1143 0.9737
C16 C 0.3969(3) -0.0152(2) 0.8315(2)
H10 H 0.3512 -0.0493 0.7471
H11 H 0.3976 -0.0980 0.8767
H12 H 0.4968 0.0399 0.8340
C17 C 0.25595(17) 0.54075(16) 0.80972(14)
C18 C 0.3136(2) 0.5597(2) 0.93329(17)
H13 H 0.3965 0.5247 0.9595
C19 C 0.2512(3) 0.6299(2) 1.02001(18)
H14 H 0.2933 0.6409 1.1031
C20 C 0.1293(2) 0.68350(19) 0.98655(18)
C21 C 0.0721(2) 0.6643(2) 0.86325(19)
H15 H -0.0109 0.6994 0.8373
C22 C 0.1335(2) 0.59448(19) 0.77602(16)
H16 H 0.0912 0.5836 0.6929
C23 C 0.0588(3) 0.7582(2) 1.0807(2)
H17 H 0.0464 0.8508 1.0560
H18 H 0.1213 0.7746 1.1602
H19 H -0.0362 0.6967 1.0857
H20 H -0.003(3) 0.119(2) 0.540(2)
H21 H -0.021(2) 0.193(2) 0.4187(10)
loop_
_geom_bond_atom_site_label_1
_geom_bond_atom_site_label_2
_geom_bond_site_symmetry_1
_geom_bond_site_symmetry_2
O1 C1 1_555 1_555
O2 C14 1_555 1_555
O3 C14 1_555 1_555
N1 C1 1_555 1_555
C1 C2 1_555 1_555
C2 C3 1_555 1_555
C3 H1 1_555 1_555
C4 C3 1_555 1_555
C5 O1 1_555 1_555
C6 C5 1_555 1_555
H2 C6 1_555 1_555
C7 C6 1_555 1_555
H3 C7 1_555 1_555
C8 C7 1_555 1_555
C9 C8 1_555 1_555
H4 C9 1_555 1_555
C10 C9 1_555 1_555
H5 C10 1_555 1_555
C11 C10 1_555 1_555
H6 C11 1_555 1_555
C12 C11 1_555 1_555
H7 C12 1_555 1_555
C13 C4 1_555 1_555
C14 C2 1_555 1_555
C15 O2 1_555 1_555
H8 C15 1_555 1_555
H9 C15 1_555 1_555
C16 C15 1_555 1_555
H10 C16 1_555 1_555
H11 C16 1_555 1_555
H12 C16 1_555 1_555
C17 C3 1_555 1_555
C18 C17 1_555 1_555
H13 C18 1_555 1_555
C19 C18 1_555 1_555
H14 C19 1_555 1_555
C20 C19 1_555 1_555
C21 C20 1_555 1_555
H15 C21 1_555 1_555
C22 C17 1_555 1_555
H16 C22 1_555 1_555
C23 C20 1_555 1_555
H17 C23 1_555 1_555
H18 C23 1_555 1_555
H19 C23 1_555 1_555
H20 N1 1_555 1_555
H21 N1 1_555 1_555
C4 C5 1_555 1_555
C8 C13 1_555 1_555
C12 C13 1_555 1_555
C21 C22 1_555 1_555

#END
