
#######################################################################
#
#                 Cambridge Crystallographic Data Centre
#                                CCDC 
#
#######################################################################
#
# If this CIF has been generated from an entry in the Cambridge 
# Structural Database, then it will include bibliographic, chemical, 
# crystal, experimental, refinement or atomic coordinate data resulting 
# from the CCDC's data processing and validation procedures.
#
#######################################################################

data_EKIBUX
_chemical_formula_moiety         'C14 H6 F6 N2'
_chemical_name_systematic        1,6-bis(trifluoromethyl)phenazine
_symmetry_cell_setting           monoclinic
_symmetry_space_group_name_H-M   'P 21/n'
_symmetry_Int_Tables_number      14
_space_group_name_Hall           '-P 2yn'
loop_
_symmetry_equiv_pos_site_id
_symmetry_equiv_pos_as_xyz
1 x,y,z
2 1/2-x,1/2+y,1/2-z
3 -x,-y,-z
4 1/2+x,1/2-y,1/2+z
_cell_length_a                   10.3419(9)
_cell_length_b                   4.7503(4)
_cell_length_c                   11.9705(11)
_cell_angle_alpha                90
_cell_angle_beta                 100.941(4)
_cell_angle_gamma                90
_cell_volume                     577.387
_exptl_crystal_colour            yellow
_exptl_crystal_description       plate
_cell_formula_units_Z            2
_exptl_crystal_recrystallization_method methanol
loop_
_atom_site_label
_atom_site_type_symbol
_atom_site_fract_x
_atom_site_fract_y
_atom_site_fract_z
F1 F 0.63040(6) 0.35018(14) 0.03355(6)
F2 F 0.63256(6) -0.06525(15) 0.10451(6)
F3 F 0.67469(6) -0.00829(15) -0.06325(5)
N1 N 0.86653(8) 0.46074(17) -0.05450(7)
C1 C 0.83787(9) 0.1355(2) 0.09311(8)
C2 C 0.89084(10) -0.0066(2) 0.18987(8)
H1 H 0.8374 -0.1339 0.2222
C3 C 0.97501(10) 0.9680(2) -0.24360(8)
H2 H 0.9404 1.0688 -0.3112
C4 C 0.89627(9) 0.7877(2) -0.19867(8)
H3 H 0.8072 0.7620 -0.2354
C5 C 0.91814(9) 0.32433(19) 0.04165(7)
C6 C 0.94696(9) 0.63700(19) -0.09669(7)
C7 C 0.69431(10) 0.1031(2) 0.04129(8)
F1B F 1.36960(6) 0.64982(14) -0.03355(6)
F2B F 1.36744(6) 1.06525(15) -0.10451(6)
F3B F 1.32531(6) 1.00829(15) 0.06325(5)
N1B N 1.13347(8) 0.53926(17) 0.05450(7)
C1B C 1.16213(9) 0.8645(2) -0.09311(8)
C2B C 1.10916(10) 1.0066(2) -0.18987(8)
H1B H 1.1626 1.1339 -0.2222
C3B C 1.02499(10) 0.0320(2) 0.24360(8)
H2B H 1.0596 -0.0688 0.3112
C4B C 1.10373(9) 0.2123(2) 0.19867(8)
H3B H 1.1928 0.2380 0.2354
C5B C 1.08186(9) 0.67567(19) -0.04165(7)
C6B C 1.05304(9) 0.36300(19) 0.09669(7)
C7B C 1.30569(10) 0.8969(2) -0.04129(8)
loop_
_geom_bond_atom_site_label_1
_geom_bond_atom_site_label_2
_geom_bond_site_symmetry_1
_geom_bond_site_symmetry_2
F1 C7 1_555 1_555
F2 C7 1_555 1_555
F3 C7 1_555 1_555
N1 C5 1_555 1_555
C1 C2 1_555 1_555
C2 H1 1_555 1_555
C3 H2 1_555 1_555
C4 C3 1_555 1_555
H3 C4 1_555 1_555
C5 C1 1_555 1_555
C6 N1 1_555 1_555
C7 C1 1_555 1_555
F1B C7B 1_555 1_555
F2B C7B 1_555 1_555
F3B C7B 1_555 1_555
N1B C5B 1_555 1_555
C1B C2B 1_555 1_555
C2B C3 1_555 1_555
H1B C2B 1_555 1_555
C3B C2 1_555 1_555
H2B C3B 1_555 1_555
C4B C3B 1_555 1_555
H3B C4B 1_555 1_555
C5B C6 1_555 1_555
C6B C5 1_555 1_555
C7B C1B 1_555 1_555
C4 C6 1_555 1_555
N1B C6B 1_555 1_555
C1B C5B 1_555 1_555
C4B C6B 1_555 1_555

#END
