
#######################################################################
#
#                 Cambridge Crystallographic Data Centre
#                                CCDC 
#
#######################################################################
#
# If this CIF has been generated from an entry in the Cambridge 
# Structural Database, then it will include bibliographic, chemical, 
# crystal, experimental, refinement or atomic coordinate data resulting 
# from the CCDC's data processing and validation procedures.
#
#######################################################################

data_EKICOS
_chemical_formula_moiety         'C18 H2 F18 N2'
_chemical_name_systematic        1,2,4,6,8,9-hexakis(trifluoromethyl)phenazine
_symmetry_cell_setting           orthorhombic
_symmetry_space_group_name_H-M   'P c a 21'
_symmetry_Int_Tables_number      29
_space_group_name_Hall           'P 2c -2ac'
loop_
_symmetry_equiv_pos_site_id
_symmetry_equiv_pos_as_xyz
1 x,y,z
2 -x,-y,1/2+z
3 1/2+x,-y,z
4 1/2-x,y,1/2+z
_cell_length_a                   9.1825(4)
_cell_length_b                   22.1387(10)
_cell_length_c                   9.7101(4)
_cell_angle_alpha                90
_cell_angle_beta                 90
_cell_angle_gamma                90
_cell_volume                     1973.95
_exptl_crystal_colour            yellow
_exptl_crystal_description       plate
_cell_formula_units_Z            4
_exptl_crystal_recrystallization_method methanol
loop_
_atom_site_label
_atom_site_type_symbol
_atom_site_fract_x
_atom_site_fract_y
_atom_site_fract_z
N1 N 0.3920(3) 0.73644(14) 0.3964(3)
C1 C 0.4476(3) 0.69091(16) 0.4685(3)
C2 C 0.3935(4) 0.62997(16) 0.4458(4)
C3 C 0.4470(3) 0.58376(15) 0.5232(3)
C4 C 0.5587(4) 0.59471(16) 0.6230(4)
H1 H 0.5951 0.5618 0.6756
C5 C 0.6138(3) 0.65078(16) 0.6445(3)
C6 C 0.5601(3) 0.70094(15) 0.5681(3)
C7 C 0.2793(4) 0.62455(18) 0.3329(4)
F1 F 0.3248(3) 0.64837(12) 0.2144(2)
F2 F 0.1569(2) 0.65327(15) 0.3676(3)
F3 F 0.2429(3) 0.56788(12) 0.3033(3)
C8 C 0.3969(4) 0.51808(17) 0.5142(4)
F4 F 0.2533(2) 0.51248(10) 0.5255(3)
F5 F 0.4543(3) 0.48488(10) 0.6144(3)
F6 F 0.4380(3) 0.49264(11) 0.3955(3)
C9 C 0.7323(4) 0.66077(16) 0.7507(4)
F7 F 0.8523(2) 0.68327(12) 0.6942(3)
F8 F 0.7697(3) 0.60894(10) 0.8121(3)
F9 F 0.6904(3) 0.69833(12) 0.8493(3)
N2 N 0.6143(3) 0.75582(12) 0.5902(3)
C10 C 0.4465(4) 0.79149(16) 0.4184(4)
C11 C 0.3851(4) 0.84249(18) 0.3431(4)
C12 C 0.4349(4) 0.89910(17) 0.3722(4)
C13 C 0.5515(4) 0.90774(17) 0.4684(4)
H2 H 0.5869 0.9474 0.4844
C14 C 0.6124(3) 0.86111(16) 0.5368(4)
C15 C 0.5596(3) 0.80125(15) 0.5159(4)
C16 C 0.2687(6) 0.8263(2) 0.2380(6)
F10 F 0.3158(4) 0.78467(14) 0.1504(3)
F11 F 0.1501(3) 0.80437(18) 0.2998(5)
F12 F 0.2282(6) 0.87258(16) 0.1614(5)
C17 C 0.3728(4) 0.95677(19) 0.3087(5)
F13 F 0.2303(2) 0.96117(12) 0.3268(4)
F14 F 0.4283(3) 1.00499(12) 0.3701(5)
F15 F 0.4023(4) 0.96225(17) 0.1764(3)
C18 C 0.7363(4) 0.87143(17) 0.6364(5)
F16 F 0.8538(2) 0.83923(11) 0.6035(3)
F17 F 0.7770(3) 0.92918(10) 0.6386(3)
F18 F 0.6992(3) 0.85648(12) 0.7639(3)
loop_
_geom_bond_atom_site_label_1
_geom_bond_atom_site_label_2
_geom_bond_site_symmetry_1
_geom_bond_site_symmetry_2
N1 C1 1_555 1_555
C1 C2 1_555 1_555
C2 C3 1_555 1_555
C3 C4 1_555 1_555
C4 H1 1_555 1_555
C5 C4 1_555 1_555
C6 C1 1_555 1_555
C7 C2 1_555 1_555
F1 C7 1_555 1_555
F2 C7 1_555 1_555
F3 C7 1_555 1_555
C8 C3 1_555 1_555
F4 C8 1_555 1_555
F5 C8 1_555 1_555
F6 C8 1_555 1_555
C9 C5 1_555 1_555
F7 C9 1_555 1_555
F8 C9 1_555 1_555
F9 C9 1_555 1_555
N2 C6 1_555 1_555
C10 N1 1_555 1_555
C11 C10 1_555 1_555
C12 C11 1_555 1_555
C13 C12 1_555 1_555
H2 C13 1_555 1_555
C14 C13 1_555 1_555
C15 N2 1_555 1_555
C16 C11 1_555 1_555
F10 C16 1_555 1_555
F11 C16 1_555 1_555
F12 C16 1_555 1_555
C17 C12 1_555 1_555
F13 C17 1_555 1_555
F14 C17 1_555 1_555
F15 C17 1_555 1_555
C18 C14 1_555 1_555
F16 C18 1_555 1_555
F17 C18 1_555 1_555
F18 C18 1_555 1_555
C5 C6 1_555 1_555
C10 C15 1_555 1_555
C14 C15 1_555 1_555

#END
