
#######################################################################
#
#                 Cambridge Crystallographic Data Centre
#                                CCDC 
#
#######################################################################
#
# If this CIF has been generated from an entry in the Cambridge 
# Structural Database, then it will include bibliographic, chemical, 
# crystal, experimental, refinement or atomic coordinate data resulting 
# from the CCDC's data processing and validation procedures.
#
#######################################################################

data_EKICUY
_chemical_formula_moiety         'C16 H4 F12 N2'
_chemical_name_systematic        1,3,6,9-tetrakis(trifluoromethyl)phenazine
_symmetry_cell_setting           orthorhombic
_symmetry_space_group_name_H-M   'P c a 21'
_symmetry_Int_Tables_number      29
_space_group_name_Hall           'P 2c -2ac'
loop_
_symmetry_equiv_pos_site_id
_symmetry_equiv_pos_as_xyz
1 x,y,z
2 -x,-y,1/2+z
3 1/2+x,-y,z
4 1/2-x,y,1/2+z
_cell_length_a                   12.9672(5)
_cell_length_b                   16.2510(7)
_cell_length_c                   14.7815(6)
_cell_angle_alpha                90
_cell_angle_beta                 90
_cell_angle_gamma                90
_cell_volume                     3114.91
_exptl_crystal_colour            'light yellow'
_exptl_crystal_description       needle
_cell_formula_units_Z            8
_exptl_crystal_recrystallization_method methanol
loop_
_atom_site_label
_atom_site_type_symbol
_atom_site_fract_x
_atom_site_fract_y
_atom_site_fract_z
F1 F 0.31376(8) 0.45394(6) 0.26335(9)
F2 F 0.30397(9) 0.47341(6) 0.40685(9)
F3 F 0.18555(8) 0.52045(6) 0.31871(10)
F4 F -0.12749(7) 0.36094(6) 0.30436(8)
F5 F -0.11487(8) 0.33252(8) 0.44516(7)
F6 F -0.13156(7) 0.23494(6) 0.34767(11)
F7 F 0.28031(8) -0.01877(6) 0.32462(8)
F8 F 0.26565(8) 0.00346(6) 0.46753(8)
F9 F 0.39623(8) -0.06378(5) 0.41664(9)
F10 F 0.66716(7) 0.29101(7) 0.35425(11)
F11 F 0.54686(9) 0.33419(6) 0.26677(7)
F12 F 0.54351(8) 0.36370(6) 0.40824(7)
N1 N 0.23463(8) 0.15350(6) 0.37113(8)
N2 N 0.34805(8) 0.30185(6) 0.35367(8)
C1 C 0.18923(9) 0.37734(7) 0.34329(10)
C2 C 0.08407(9) 0.37798(8) 0.34548(10)
H1 H 0.0441(17) 0.4267(14) 0.3417(16)
C3 C 0.02844(9) 0.30260(8) 0.35462(9)
C4 C 0.07748(9) 0.22856(8) 0.35999(10)
H2 H 0.0388(16) 0.1729(13) 0.3675(16)
C5 C 0.39328(10) 0.07885(7) 0.38932(9)
C6 C 0.49839(10) 0.07905(8) 0.39262(10)
H3 H 0.5335 0.0301 0.4030
C7 C 0.55510(10) 0.15349(8) 0.38034(11)
H4 H 0.6334(19) 0.1532(14) 0.3817(18)
C8 C 0.50577(10) 0.22652(8) 0.36681(10)
C9 C 0.24458(9) 0.30141(7) 0.35241(9)
C10 C 0.18769(9) 0.22633(7) 0.36026(9)
C11 C 0.33805(9) 0.15420(7) 0.37503(9)
C12 C 0.39505(9) 0.22951(7) 0.36534(9)
C13 C 0.24875(11) 0.45640(8) 0.33346(12)
C14 C -0.08688(10) 0.30712(8) 0.36282(10)
C15 C 0.33369(11) -0.00013(8) 0.39938(11)
C16 C 0.56575(10) 0.30422(8) 0.34918(11)
F13 F 0.50150(8) 0.05450(6) 0.73625(8)
F14 F 0.51234(8) 0.02641(6) 0.59416(8)
F15 F 0.38424(8) -0.01906(6) 0.67223(9)
F16 F 0.06704(8) 0.15257(7) 0.68267(7)
F17 F 0.08237(7) 0.13698(6) 0.53972(7)
F18 F 0.06323(7) 0.25849(6) 0.59409(11)
F19 F 0.46430(9) 0.51694(6) 0.66050(9)
F20 F 0.46607(9) 0.50284(6) 0.51589(8)
F21 F 0.58875(8) 0.56778(6) 0.58197(10)
F22 F 0.86142(7) 0.21172(6) 0.62139(10)
F23 F 0.74157(8) 0.15696(6) 0.70120(8)
F24 F 0.73809(9) 0.14625(6) 0.55620(9)
N3 N 0.42709(8) 0.34642(6) 0.60576(9)
N4 N 0.54263(8) 0.19949(6) 0.62807(8)
C17 C 0.38542(10) 0.12249(7) 0.63932(9)
C18 C 0.28038(10) 0.12039(8) 0.63431(10)
H5 H 0.2457 0.0708 0.6423
C19 C 0.22371(9) 0.19374(8) 0.61685(10)
C20 C 0.27110(9) 0.26851(8) 0.60822(10)
H6 H 0.2336(17) 0.3242(13) 0.5976(17)
C21 C 0.58520(10) 0.42368(7) 0.59990(10)
C22 C 0.69041(10) 0.42437(8) 0.60065(10)
H7 H 0.7303(18) 0.4788(13) 0.5983(17)
C23 C 0.74816(10) 0.35015(8) 0.60963(10)
H8 H 0.8242(18) 0.3510(14) 0.6082(18)
C24 C 0.69920(9) 0.27623(8) 0.61746(10)
C25 C 0.43907(9) 0.19887(7) 0.62691(9)
C26 C 0.38110(9) 0.27261(7) 0.61357(9)
C27 C 0.53052(9) 0.34714(7) 0.60816(9)
C28 C 0.58873(9) 0.27248(7) 0.61799(9)
C29 C 0.44617(11) 0.04578(8) 0.66017(11)
C30 C 0.10828(10) 0.18632(8) 0.60856(10)
C31 C 0.52552(11) 0.50247(8) 0.58963(12)
C32 C 0.75995(10) 0.19752(8) 0.62452(11)
loop_
_geom_bond_atom_site_label_1
_geom_bond_atom_site_label_2
_geom_bond_site_symmetry_1
_geom_bond_site_symmetry_2
F1 C13 1_555 1_555
F2 C13 1_555 1_555
F3 C13 1_555 1_555
F4 C14 1_555 1_555
F5 C14 1_555 1_555
F6 C14 1_555 1_555
F7 C15 1_555 1_555
F8 C15 1_555 1_555
F9 C15 1_555 1_555
F10 C16 1_555 1_555
F11 C16 1_555 1_555
F12 C16 1_555 1_555
N1 C10 1_555 1_555
N2 C9 1_555 1_555
C1 C2 1_555 1_555
C2 H1 1_555 1_555
C3 C2 1_555 1_555
C4 C3 1_555 1_555
H2 C4 1_555 1_555
C5 C6 1_555 1_555
C6 H3 1_555 1_555
C7 C6 1_555 1_555
H4 C7 1_555 1_555
C8 C7 1_555 1_555
C9 C1 1_555 1_555
C10 C4 1_555 1_555
C11 N1 1_555 1_555
C12 N2 1_555 1_555
C13 C1 1_555 1_555
C14 C3 1_555 1_555
C15 C5 1_555 1_555
C16 C8 1_555 1_555
F13 C29 1_555 1_555
F14 C29 1_555 1_555
F15 C29 1_555 1_555
F16 C30 1_555 1_555
F17 C30 1_555 1_555
F18 C30 1_555 1_555
F19 C31 1_555 1_555
F20 C31 1_555 1_555
F21 C31 1_555 1_555
F22 C32 1_555 1_555
F23 C32 1_555 1_555
F24 C32 1_555 1_555
N3 C26 1_555 1_555
N4 C25 1_555 1_555
C17 C18 1_555 1_555
C18 H5 1_555 1_555
C19 C18 1_555 1_555
C20 C19 1_555 1_555
H6 C20 1_555 1_555
C21 C22 1_555 1_555
C22 H7 1_555 1_555
C23 C22 1_555 1_555
H8 C23 1_555 1_555
C24 C23 1_555 1_555
C25 C17 1_555 1_555
C26 C20 1_555 1_555
C27 N3 1_555 1_555
C28 N4 1_555 1_555
C29 C17 1_555 1_555
C30 C19 1_555 1_555
C31 C21 1_555 1_555
C32 C24 1_555 1_555
C5 C11 1_555 1_555
C8 C12 1_555 1_555
C9 C10 1_555 1_555
C11 C12 1_555 1_555
C21 C27 1_555 1_555
C24 C28 1_555 1_555
C25 C26 1_555 1_555
C27 C28 1_555 1_555

#END
