
#######################################################################
#
#                 Cambridge Crystallographic Data Centre
#                                CCDC 
#
#######################################################################
#
# If this CIF has been generated from an entry in the Cambridge 
# Structural Database, then it will include bibliographic, chemical, 
# crystal, experimental, refinement or atomic coordinate data resulting 
# from the CCDC's data processing and validation procedures.
#
#######################################################################

data_EKINIX
_chemical_formula_moiety         'C45 H60 N6,C4 H10 O1'
_chemical_name_systematic        
'3,10,17,24,31,38-hexaazadecacyclo[38.2.2.2^12,15^.2^26,29^.1^3,10^.1^17,24^.1^31,38^.0^4,9^.0^18,23^.0^32,37^]henpentaconta-1(42),12,14,26,28,40,43,46,49-nonaene butan-2-ol clathrate'
_symmetry_cell_setting           triclinic
_symmetry_space_group_name_H-M   'P 1'
_symmetry_Int_Tables_number      1
_space_group_name_Hall           'P 1'
loop_
_symmetry_equiv_pos_site_id
_symmetry_equiv_pos_as_xyz
1 x,y,z
_cell_length_a                   10.9374(2)
_cell_length_b                   14.1707(3)
_cell_length_c                   17.0023(4)
_cell_angle_alpha                107.230(2)
_cell_angle_beta                 105.589(2)
_cell_angle_gamma                103.497(2)
_cell_volume                     2279.73
_exptl_crystal_colour            colorless
_exptl_crystal_description       rod
_cell_formula_units_Z            2
loop_
_atom_site_label
_atom_site_type_symbol
_atom_site_fract_x
_atom_site_fract_y
_atom_site_fract_z
C46 C 0.7660(2) 0.68141(19) 0.48307(16)
H61 H 0.7641 0.6214 0.4331
C47 C 0.6236(2) 0.66853(18) 0.48008(16)
H62 H 0.6248 0.7321 0.5264
C48 C 0.5337(3) 0.6576(2) 0.38997(19)
H63 H 0.4405 0.6493 0.3883
H64 H 0.5311 0.5949 0.3432
C49 C 0.5922(3) 0.7572(2) 0.3746(2)
H65 H 0.5833 0.8179 0.4171
H66 H 0.5394 0.7490 0.3142
C50 C 0.7417(3) 0.7799(2) 0.3854(2)
H67 H 0.7490 0.7246 0.3371
H68 H 0.7766 0.8480 0.3802
C51 C 0.8290(3) 0.7840(2) 0.47458(19)
H69 H 0.9224 0.7922 0.4770
H70 H 0.8315 0.8444 0.5236
C52 C 0.7200(3) 0.5889(3) 0.5698(3)
H71 H 0.7173 0.6089 0.6301
H72 H 0.7370 0.5213 0.5540
N7 N 0.8267(2) 0.67041(19) 0.56648(14)
N8 N 0.5918(2) 0.57847(17) 0.50621(14)
C53 C 0.4868(4) 0.5783(3) 0.5434(3)
H73 H 0.4106 0.5872 0.5028
H74 H 0.5228 0.6397 0.6001
C54 C 0.4332(3) 0.4800(2) 0.5599(2)
C55 C 0.3554(4) 0.4826(3) 0.6123(3)
H75 H 0.3403 0.5460 0.6384
C56 C 0.2993(3) 0.3944(3) 0.6270(3)
H76 H 0.2471 0.3985 0.6636
C57 C 0.3176(3) 0.3010(2) 0.58990(17)
C58 C 0.3954(3) 0.2981(2) 0.5365(2)
H77 H 0.4108 0.2349 0.5105
C59 C 0.4502(3) 0.3860(2) 0.5210(2)
H78 H 0.5002 0.3817 0.4831
C60 C 0.2552(3) 0.2049(2) 0.60581(17)
H79 H 0.1579 0.1739 0.5689
H80 H 0.2980 0.1520 0.5876
C61 C 0.2066(2) 0.13954(19) 0.71634(17)
H81 H 0.2292 0.0776 0.6858
C62 C 0.2794(2) 0.1772(2) 0.81477(16)
H82 H 0.2509 0.2352 0.8456
C63 C 0.2454(3) 0.0880(2) 0.84650(19)
H83 H 0.2940 0.1129 0.9110
H84 H 0.2722 0.0295 0.8163
C64 C 0.0920(3) 0.0511(3) 0.8244(2)
H85 H 0.0658 -0.0099 0.8410
H86 H 0.0683 0.1082 0.8599
C65 C 0.0129(3) 0.0200(3) 0.7265(3)
H87 H -0.0845 0.0021 0.7165
H88 H 0.0268 -0.0436 0.6917
C66 C 0.0550(3) 0.1074(3) 0.6930(2)
H89 H 0.0083 0.0815 0.6282
H90 H 0.0306 0.1684 0.7214
C67 C 0.4143(3) 0.2671(3) 0.7565(2)
H91 H 0.4695 0.2446 0.7220
H92 H 0.4493 0.3448 0.7850
N9 N 0.27169(19) 0.22996(16) 0.69835(14)
N10 N 0.42030(19) 0.22101(17) 0.82361(13)
C68 C 0.5090(2) 0.2961(2) 0.91176(17)
H93 H 0.4894 0.2683 0.9557
H94 H 0.4894 0.3626 0.9222
C69 C 0.6574(2) 0.31902(19) 0.92588(15)
C70 C 0.7027(2) 0.2515(2) 0.87312(16)
H95 H 0.6394 0.1901 0.8247
C71 C 0.8401(3) 0.2727(2) 0.89035(17)
H96 H 0.8691 0.2265 0.8523
C72 C 0.9355(2) 0.3595(2) 0.96177(17)
C73 C 0.8907(3) 0.4274(3) 1.0139(2)
H97 H 0.9544 0.4881 1.0628
C74 C 0.7527(3) 0.4081(2) 0.99588(19)
H98 H 0.7238 0.4564 1.0320
C75 C 1.0855(3) 0.3769(2) 0.9837(2)
H99 H 1.1193 0.3584 1.0352
H100 H 1.0978 0.3290 0.9330
C76 C 1.3105(2) 0.50094(19) 1.03106(16)
H101 H 1.3256 0.4429 0.9886
C77 C 1.3644(2) 0.6020(2) 1.01884(17)
H102 H 1.3581 0.6611 1.0656
C78 C 1.5110(3) 0.6247(2) 1.0271(2)
H103 H 1.5449 0.6910 1.0190
H104 H 1.5196 0.5671 0.9812
C79 C 1.5923(3) 0.6339(2) 1.1190(2)
H105 H 1.5942 0.6983 1.1636
H106 H 1.6864 0.6413 1.1234
C80 C 1.5345(3) 0.5390(2) 1.1403(2)
H107 H 1.5846 0.5537 1.2030
H108 H 1.5491 0.4772 1.1034
C81 C 1.3833(3) 0.5118(2) 1.12459(18)
H109 H 1.3488 0.4452 1.1320
H110 H 1.3681 0.5681 1.1676
C82 C 1.1382(3) 0.5115(4) 0.9246(2)
H111 H 1.1050 0.4474 0.8702
H112 H 1.0689 0.5459 0.9215
N11 N 1.1658(2) 0.48449(16) 1.00349(14)
N12 N 1.2668(2) 0.58382(18) 0.93321(15)
C83 C 1.2593(4) 0.6815(2) 0.92429(18)
H113 H 1.3519 0.7293 0.9405
H114 H 1.2209 0.7155 0.9667
C84 C 1.1751(3) 0.6681(2) 0.83250(17)
C85 C 1.1180(4) 0.7438(2) 0.8218(2)
H115 H 1.1295 0.8019 0.8722
C86 C 1.0441(4) 0.7345(3) 0.7378(2)
H116 H 1.0070 0.7872 0.7313
C87 C 1.0238(3) 0.6502(3) 0.66379(18)
C88 C 1.0801(3) 0.5745(2) 0.67468(18)
H117 H 1.0668 0.5157 0.6243
C89 C 1.1552(3) 0.5835(2) 0.75810(18)
H118 H 1.1933 0.5312 0.7643
C90 C 0.9476(3) 0.6412(3) 0.5715(2)
H119 H 1.0079 0.6873 0.5536
H120 H 0.9210 0.5679 0.5295
C1 C 0.5040(2) -0.04290(19) 0.65140(17)
H1 H 0.4638 0.0082 0.6794
C2 C 0.3914(3) -0.1406(2) 0.58285(17)
H2 H 0.4310 -0.1931 0.5565
C3 C 0.2981(3) -0.1886(3) 0.6239(2)
H3 H 0.2527 -0.1396 0.6463
H4 H 0.2279 -0.2549 0.5788
C4 C 0.3815(4) -0.2101(3) 0.6994(2)
H5 H 0.4148 -0.2672 0.6749
H6 H 0.3231 -0.2345 0.7300
C5 C 0.5014(4) -0.1136(3) 0.7662(2)
H7 H 0.5553 -0.1332 0.8115
H8 H 0.4678 -0.0597 0.7962
C6 C 0.5924(3) -0.0667(2) 0.72242(18)
H9 H 0.6659 -0.0017 0.7666
H10 H 0.6331 -0.1175 0.6963
C7 C 0.4474(3) -0.0229(2) 0.51676(18)
H11 H 0.4282 0.0430 0.5208
H12 H 0.4656 -0.0497 0.4619
N1 N 0.5641(2) -0.00400(15) 0.59478(13)
N2 N 0.3331(2) -0.10122(17) 0.51699(15)
C8 C 0.2484(3) -0.1816(2) 0.43066(19)
H13 H 0.1959 -0.2432 0.4383
H14 H 0.3067 -0.2046 0.3990
C9 C 0.1509(3) -0.1454(2) 0.37426(19)
C10 C 0.0834(3) -0.2046(2) 0.28456(19)
H15 H 0.1046 -0.2644 0.2573
C11 C -0.0146(3) -0.1778(2) 0.2342(2)
H16 H -0.0615 -0.2207 0.1732
C12 C -0.0456(3) -0.0896(2) 0.27096(19)
C13 C 0.0266(3) -0.0280(2) 0.3596(2)
H17 H 0.0107 0.0349 0.3857
C14 C 0.1219(3) -0.0564(2) 0.4110(2)
H18 H 0.1677 -0.0141 0.4722
C15 C -0.1591(3) -0.0629(2) 0.2191(2)
H19 H -0.2412 -0.1263 0.1896
H20 H -0.1785 -0.0085 0.2611
C16 C -0.2374(2) 0.0162(2) 0.11609(18)
H21 H -0.2505 0.0648 0.1669
C17 C -0.1720(3) 0.0806(2) 0.07253(17)
H22 H -0.1766 0.0320 0.0146
C18 C -0.2479(3) 0.1540(2) 0.0555(2)
H23 H -0.2038 0.1986 0.0289
H24 H -0.2496 0.2001 0.1115
C19 C -0.3915(3) 0.0842(3) -0.0083(2)
H25 H -0.4464 0.1294 -0.0167
H26 H -0.3882 0.0465 -0.0665
C20 C -0.4610(3) 0.0037(3) 0.0230(2)
H27 H -0.5472 -0.0448 -0.0251
H28 H -0.4826 0.0408 0.0739
C21 C -0.3750(3) -0.0611(2) 0.0506(2)
H29 H -0.4182 -0.1044 0.0784
H30 H -0.3655 -0.1084 -0.0017
C22 C -0.0115(2) 0.0713(2) 0.19094(18)
H31 H -0.0027 0.1144 0.2512
H32 H 0.0709 0.0524 0.1948
N3 N -0.1323(2) -0.02456(17) 0.15158(15)
N4 N -0.0299(2) 0.12969(18) 0.13290(14)
C23 C 0.0610(3) 0.1327(2) 0.08450(18)
H33 H 0.0297 0.1608 0.0389
H34 H 0.0564 0.0600 0.0536
C24 C 0.2059(3) 0.1984(2) 0.14170(17)
C25 C 0.2424(3) 0.2719(2) 0.22550(19)
H35 H 0.1748 0.2806 0.2494
C26 C 0.3774(3) 0.3341(2) 0.27605(19)
H36 H 0.4005 0.3844 0.3338
C27 C 0.4772(2) 0.32286(19) 0.24243(17)
C28 C 0.4429(3) 0.2484(2) 0.15877(19)
H37 H 0.5111 0.2396 0.1354
C29 C 0.3085(3) 0.1865(2) 0.10898(18)
H38 H 0.2858 0.1352 0.0518
C30 C 0.6223(3) 0.3949(2) 0.29616(19)
H39 H 0.6391 0.4566 0.2794
H40 H 0.6343 0.4207 0.3595
C31 C 0.8552(2) 0.42330(18) 0.31102(16)
H41 H 0.8647 0.4875 0.3604
C32 C 0.9504(3) 0.3727(2) 0.3470(2)
H42 H 0.9496 0.3127 0.2975
C33 C 1.0931(3) 0.4519(3) 0.3959(3)
H43 H 1.1563 0.4177 0.4181
H44 H 1.0960 0.5101 0.4467
C34 C 1.1326(4) 0.4940(3) 0.3290(4)
H45 H 1.2215 0.5508 0.3603
H46 H 1.1424 0.4366 0.2836
C35 C 1.0321(4) 0.5359(2) 0.2833(2)
H47 H 1.0598 0.5550 0.2377
H48 H 1.0331 0.6005 0.3271
C36 C 0.8883(3) 0.4564(2) 0.2398(2)
H49 H 0.8240 0.4888 0.2158
H50 H 0.8827 0.3947 0.1907
C37 C 0.7427(2) 0.2821(2) 0.33842(19)
H51 H 0.6797 0.2809 0.3708
H52 H 0.7268 0.2089 0.3005
N5 N 0.7221(2) 0.34539(16) 0.28440(15)
N6 N 0.8828(2) 0.33201(17) 0.40062(16)
C38 C 0.9366(3) 0.2597(3) 0.4321(2)
H53 H 1.0334 0.2960 0.4696
H54 H 0.9293 0.1996 0.3810
C39 C 0.8608(2) 0.2197(2) 0.48497(19)
C40 C 0.8171(3) 0.1135(2) 0.4699(2)
H55 H 0.8333 0.0653 0.4249
C41 C 0.7505(3) 0.0765(2) 0.51917(19)
H56 H 0.7243 0.0037 0.5086
C42 C 0.7214(2) 0.14380(19) 0.58361(17)
C43 C 0.7621(4) 0.2494(2) 0.5970(2)
H57 H 0.7429 0.2973 0.6404
C44 C 0.8301(4) 0.2865(2) 0.5485(3)
H58 H 0.8562 0.3592 0.5590
C45 C 0.6510(3) 0.1053(2) 0.63853(17)
H59 H 0.7197 0.1144 0.6943
H60 H 0.5961 0.1492 0.6540
loop_
_geom_bond_atom_site_label_1
_geom_bond_atom_site_label_2
_geom_bond_site_symmetry_1
_geom_bond_site_symmetry_2
C1 H1 1_555 1_555
C2 C1 1_555 1_555
H2 C2 1_555 1_555
C3 C2 1_555 1_555
H3 C3 1_555 1_555
H4 C3 1_555 1_555
C4 C3 1_555 1_555
H5 C4 1_555 1_555
H6 C4 1_555 1_555
C5 C4 1_555 1_555
H7 C5 1_555 1_555
H8 C5 1_555 1_555
C6 C1 1_555 1_555
H9 C6 1_555 1_555
H10 C6 1_555 1_555
C7 H11 1_555 1_555
H12 C7 1_555 1_555
N1 C1 1_555 1_555
N2 C2 1_555 1_555
C8 N2 1_555 1_555
H13 C8 1_555 1_555
H14 C8 1_555 1_555
C9 C8 1_555 1_555
C10 C9 1_555 1_555
H15 C10 1_555 1_555
C11 C10 1_555 1_555
H16 C11 1_555 1_555
C12 C11 1_555 1_555
C13 C12 1_555 1_555
H17 C13 1_555 1_555
C14 C9 1_555 1_555
H18 C14 1_555 1_555
C15 C12 1_555 1_555
H19 C15 1_555 1_555
H20 C15 1_555 1_555
C16 H21 1_555 1_555
C17 C16 1_555 1_555
H22 C17 1_555 1_555
C18 C17 1_555 1_555
H23 C18 1_555 1_555
H24 C18 1_555 1_555
C19 C18 1_555 1_555
H25 C19 1_555 1_555
H26 C19 1_555 1_555
C20 C19 1_555 1_555
H27 C20 1_555 1_555
H28 C20 1_555 1_555
C21 C16 1_555 1_555
H29 C21 1_555 1_555
H30 C21 1_555 1_555
C22 H31 1_555 1_555
H32 C22 1_555 1_555
N3 C15 1_555 1_555
N4 C17 1_555 1_555
C23 N4 1_555 1_555
H33 C23 1_555 1_555
H34 C23 1_555 1_555
C24 C23 1_555 1_555
C25 C24 1_555 1_555
H35 C25 1_555 1_555
C26 C25 1_555 1_555
H36 C26 1_555 1_555
C27 C26 1_555 1_555
C28 C27 1_555 1_555
H37 C28 1_555 1_555
C29 C24 1_555 1_555
H38 C29 1_555 1_555
C30 C27 1_555 1_555
H39 C30 1_555 1_555
H40 C30 1_555 1_555
C31 H41 1_555 1_555
C32 C31 1_555 1_555
H42 C32 1_555 1_555
C33 C32 1_555 1_555
H43 C33 1_555 1_555
H44 C33 1_555 1_555
C34 C33 1_555 1_555
H45 C34 1_555 1_555
H46 C34 1_555 1_555
C35 C34 1_555 1_555
H47 C35 1_555 1_555
H48 C35 1_555 1_555
C36 C31 1_555 1_555
H49 C36 1_555 1_555
H50 C36 1_555 1_555
C37 H51 1_555 1_555
H52 C37 1_555 1_555
N5 C30 1_555 1_555
N6 C32 1_555 1_555
C38 N6 1_555 1_555
H53 C38 1_555 1_555
H54 C38 1_555 1_555
C39 C38 1_555 1_555
C40 C39 1_555 1_555
H55 C40 1_555 1_555
C41 C40 1_555 1_555
H56 C41 1_555 1_555
C42 C41 1_555 1_555
C43 C42 1_555 1_555
H57 C43 1_555 1_555
C44 C39 1_555 1_555
H58 C44 1_555 1_555
C45 N1 1_555 1_555
H59 C45 1_555 1_555
H60 C45 1_555 1_555
C46 H61 1_555 1_555
C47 C46 1_555 1_555
H62 C47 1_555 1_555
C48 C47 1_555 1_555
H63 C48 1_555 1_555
H64 C48 1_555 1_555
C49 C48 1_555 1_555
H65 C49 1_555 1_555
H66 C49 1_555 1_555
C50 C49 1_555 1_555
H67 C50 1_555 1_555
H68 C50 1_555 1_555
C51 C46 1_555 1_555
H69 C51 1_555 1_555
H70 C51 1_555 1_555
C52 H71 1_555 1_555
H72 C52 1_555 1_555
N7 C46 1_555 1_555
N8 C47 1_555 1_555
C53 N8 1_555 1_555
H73 C53 1_555 1_555
H74 C53 1_555 1_555
C54 C53 1_555 1_555
C55 C54 1_555 1_555
H75 C55 1_555 1_555
C56 C55 1_555 1_555
H76 C56 1_555 1_555
C57 C56 1_555 1_555
C58 C57 1_555 1_555
H77 C58 1_555 1_555
C59 C54 1_555 1_555
H78 C59 1_555 1_555
C60 C57 1_555 1_555
H79 C60 1_555 1_555
H80 C60 1_555 1_555
C61 H81 1_555 1_555
C62 C61 1_555 1_555
H82 C62 1_555 1_555
C63 C62 1_555 1_555
H83 C63 1_555 1_555
H84 C63 1_555 1_555
C64 C63 1_555 1_555
H85 C64 1_555 1_555
H86 C64 1_555 1_555
C65 C64 1_555 1_555
H87 C65 1_555 1_555
H88 C65 1_555 1_555
C66 C61 1_555 1_555
H89 C66 1_555 1_555
H90 C66 1_555 1_555
C67 H91 1_555 1_555
H92 C67 1_555 1_555
N9 C60 1_555 1_555
N10 C62 1_555 1_555
C68 N10 1_555 1_555
H93 C68 1_555 1_555
H94 C68 1_555 1_555
C69 C68 1_555 1_555
C70 C69 1_555 1_555
H95 C70 1_555 1_555
C71 C70 1_555 1_555
H96 C71 1_555 1_555
C72 C71 1_555 1_555
C73 C72 1_555 1_555
H97 C73 1_555 1_555
C74 C69 1_555 1_555
H98 C74 1_555 1_555
C75 C72 1_555 1_555
H99 C75 1_555 1_555
H100 C75 1_555 1_555
C76 H101 1_555 1_555
C77 C76 1_555 1_555
H102 C77 1_555 1_555
C78 C77 1_555 1_555
H103 C78 1_555 1_555
H104 C78 1_555 1_555
C79 C78 1_555 1_555
H105 C79 1_555 1_555
H106 C79 1_555 1_555
C80 C79 1_555 1_555
H107 C80 1_555 1_555
H108 C80 1_555 1_555
C81 C76 1_555 1_555
H109 C81 1_555 1_555
H110 C81 1_555 1_555
C82 H111 1_555 1_555
H112 C82 1_555 1_555
N11 C75 1_555 1_555
N12 C77 1_555 1_555
C83 N12 1_555 1_555
H113 C83 1_555 1_555
H114 C83 1_555 1_555
C84 C83 1_555 1_555
C85 C84 1_555 1_555
H115 C85 1_555 1_555
C86 C85 1_555 1_555
H116 C86 1_555 1_555
C87 C86 1_555 1_555
C88 C87 1_555 1_555
H117 C88 1_555 1_555
C89 C84 1_555 1_555
H118 C89 1_555 1_555
C90 N7 1_555 1_555
H119 C90 1_555 1_555
H120 C90 1_555 1_555
C5 C6 1_555 1_555
C7 N1 1_555 1_555
C7 N2 1_555 1_555
C13 C14 1_555 1_555
C16 N3 1_555 1_555
C20 C21 1_555 1_555
C22 N3 1_555 1_555
C22 N4 1_555 1_555
C28 C29 1_555 1_555
C31 N5 1_555 1_555
C35 C36 1_555 1_555
C37 N5 1_555 1_555
C37 N6 1_555 1_555
C42 C45 1_555 1_555
C43 C44 1_555 1_555
C50 C51 1_555 1_555
C52 N7 1_555 1_555
C52 N8 1_555 1_555
C58 C59 1_555 1_555
C61 N9 1_555 1_555
C65 C66 1_555 1_555
C67 N9 1_555 1_555
C67 N10 1_555 1_555
C73 C74 1_555 1_555
C76 N11 1_555 1_555
C80 C81 1_555 1_555
C82 N11 1_555 1_555
C82 N12 1_555 1_555
C87 C90 1_555 1_555
C88 C89 1_555 1_555

#END
