
#######################################################################
#
#                 Cambridge Crystallographic Data Centre
#                                CCDC 
#
#######################################################################
#
# If this CIF has been generated from an entry in the Cambridge 
# Structural Database, then it will include bibliographic, chemical, 
# crystal, experimental, refinement or atomic coordinate data resulting 
# from the CCDC's data processing and validation procedures.
#
#######################################################################

data_EKIPUL
_chemical_formula_moiety         'C45 H60 N6'
_chemical_name_systematic        
3,10,17,24,31,38-hexaazadecacyclo[38.2.2.2^12,15^.2^26,29^.1^3,10^.1^17,24^.1^31,38^.0^4,9^.0^18,23^.0^32,37^]henpentaconta-1(42),12,14,26,28,40,43,46,49-nonaene
_symmetry_cell_setting           orthorhombic
_symmetry_space_group_name_H-M   'P 21 21 2'
_symmetry_Int_Tables_number      18
_space_group_name_Hall           'P 2 2ab'
loop_
_symmetry_equiv_pos_site_id
_symmetry_equiv_pos_as_xyz
1 x,y,z
2 -x,-y,z
3 1/2+x,1/2-y,-z
4 1/2-x,1/2+y,-z
_cell_length_a                   17.8822(2)
_cell_length_b                   41.5241(5)
_cell_length_c                   5.6520(1)
_cell_angle_alpha                90
_cell_angle_beta                 90
_cell_angle_gamma                90
_cell_volume                     4196.85
_exptl_crystal_colour            colorless
_exptl_crystal_description       prism
_cell_formula_units_Z            4
loop_
_atom_site_label
_atom_site_type_symbol
_atom_site_fract_x
_atom_site_fract_y
_atom_site_fract_z
C1 C 0.81266(11) 1.03210(4) 0.9051(4)
H1 H 0.7940 1.0414 0.7528
C2 C 0.74789(11) 1.02854(4) 1.0716(4)
H2 H 0.7669 1.0205 1.2273
C3 C 0.70860(14) 1.06056(5) 1.1100(5)
H3 H 0.6674 1.0580 1.2254
H4 H 0.6872 1.0684 0.9590
C4 C 0.76600(16) 1.08476(5) 1.2038(5)
H5 H 0.7423 1.1063 1.2143
H6 H 0.7812 1.0783 1.3654
C5 C 0.83573(15) 1.08713(5) 1.0478(6)
H7 H 0.8725 1.1016 1.1246
H8 H 0.8218 1.0968 0.8939
C6 C 0.87216(12) 1.05427(4) 1.0045(5)
H9 H 0.9140 1.0564 0.8909
H10 H 0.8920 1.0454 1.1546
C7 C 0.76105(12) 0.98186(5) 0.8448(5)
H11 H 0.7482 0.9783 0.6764
H12 H 0.7628 0.9607 0.9256
N1 N 0.83355(9) 0.99838(3) 0.8650(3)
N2 N 0.70554(9) 1.00294(4) 0.9577(3)
C8 C 0.65540(16) 0.98543(7) 1.1146(4)
H13 H 0.6258 1.0011 1.2079
H14 H 0.6854 0.9725 1.2267
C9 C 0.60273(13) 0.96344(6) 0.9816(4)
C10 C 0.58184(18) 0.93369(7) 1.0711(5)
H15 H 0.6036 0.9263 1.2144
C11 C 0.52977(17) 0.91451(6) 0.9555(4)
H16 H 0.5153 0.8945 1.0229
C12 C 0.49884(11) 0.92430(5) 0.7432(4)
C13 C 0.52200(12) 0.95334(5) 0.6470(5)
H17 H 0.5028 0.9600 0.4982
C14 C 0.57274(12) 0.97271(5) 0.7653(5)
H18 H 0.5873 0.9927 0.6974
C15 C 0.44094(11) 0.90413(5) 0.6154(4)
H19 H 0.3904 0.9121 0.6568
H20 H 0.4476 0.9067 0.4426
C16 C 0.38441(10) 0.85076(5) 0.5840(4)
H21 H 0.3748 0.8569 0.4156
C17 C 0.41793(10) 0.81748(5) 0.5905(4)
H22 H 0.4245 0.8108 0.7592
C18 C 0.36758(12) 0.79334(5) 0.4669(5)
H23 H 0.3895 0.7715 0.4767
H24 H 0.3618 0.7991 0.2979
C19 C 0.29099(12) 0.79416(6) 0.5922(6)
H25 H 0.2558 0.7799 0.5067
H26 H 0.2967 0.7857 0.7548
C20 C 0.25781(12) 0.82803(6) 0.6043(6)
H27 H 0.2105 0.8273 0.6952
H28 H 0.2459 0.8354 0.4421
C21 C 0.31121(12) 0.85224(6) 0.7210(5)
H29 H 0.2899 0.8742 0.7141
H30 H 0.3196 0.8465 0.8889
C22 C 0.51411(10) 0.85504(4) 0.5812(4)
H31 H 0.5517 0.8523 0.7082
H32 H 0.5361 0.8685 0.4544
N3 N 0.44621(9) 0.87014(4) 0.6750(3)
N4 N 0.49141(8) 0.82337(4) 0.4865(3)
C23 C 0.54602(10) 0.79837(4) 0.5357(4)
H33 H 0.5251 0.7773 0.4869
H34 H 0.5550 0.7975 0.7084
C24 C 0.61965(10) 0.80346(4) 0.4109(3)
C25 C 0.68455(10) 0.79018(4) 0.5031(3)
H35 H 0.6826 0.7790 0.6496
C26 C 0.75213(11) 0.79295(4) 0.3851(3)
H36 H 0.7958 0.7834 0.4501
C27 C 0.75653(10) 0.80966(4) 0.1716(3)
C28 C 0.69191(11) 0.82376(5) 0.0831(3)
H37 H 0.6943 0.8358 -0.0596
C29 C 0.62419(11) 0.82057(5) 0.1989(3)
H38 H 0.5805 0.8301 0.1338
C30 C 0.82946(11) 0.81126(5) 0.0372(4)
H39 H 0.8331 0.7924 -0.0690
H40 H 0.8297 0.8309 -0.0625
C31 C 0.96547(10) 0.80532(4) 0.0766(3)
H41 H 0.9671 0.8172 -0.0771
C32 C 1.02010(10) 0.82061(4) 0.2458(3)
H42 H 1.0212 0.8077 0.3949
C33 C 1.09812(10) 0.82152(5) 0.1419(4)
H43 H 1.1333 0.8317 0.2543
H44 H 1.0984 0.8340 -0.0072
C34 C 1.12126(13) 0.78647(5) 0.0942(5)
H45 H 1.1709 0.7863 0.0165
H46 H 1.1260 0.7750 0.2469
C35 C 1.06536(14) 0.76872(5) -0.0618(4)
H47 H 1.0807 0.7459 -0.0747
H48 H 1.0667 0.7782 -0.2226
C36 C 0.98501(13) 0.77022(4) 0.0321(4)
H49 H 0.9501 0.7608 -0.0851
H50 H 0.9809 0.7578 0.1809
C37 C 0.90382(10) 0.84281(4) 0.3173(4)
H51 H 0.8719 0.8596 0.2448
H52 H 0.8900 0.8406 0.4861
N5 N 0.89424(8) 0.81181(4) 0.1926(3)
N6 N 0.98355(8) 0.85136(3) 0.2942(3)
C38 C 1.01229(11) 0.86757(4) 0.5052(3)
H53 H 1.0669 0.8707 0.4880
H54 H 1.0038 0.8536 0.6447
C39 C 0.97583(10) 0.89981(4) 0.5479(3)
C40 C 0.94159(12) 0.90712(4) 0.7585(3)
H55 H 0.9396 0.8913 0.8798
C41 C 0.90971(12) 0.93722(5) 0.7982(4)
H56 H 0.8864 0.9417 0.9457
C42 C 0.91162(10) 0.96074(4) 0.6245(4)
C43 C 0.94560(11) 0.95331(4) 0.4114(4)
H57 H 0.9471 0.9690 0.2894
C44 C 0.97728(11) 0.92350(4) 0.3732(3)
H58 H 1.0004 0.9190 0.2255
C45 C 0.88052(13) 0.99428(5) 0.6581(4)
H59 H 0.9228 1.0096 0.6690
H60 H 0.8511 1.0001 0.5160
loop_
_geom_bond_atom_site_label_1
_geom_bond_atom_site_label_2
_geom_bond_site_symmetry_1
_geom_bond_site_symmetry_2
C1 H1 1_555 1_555
C2 C1 1_555 1_555
H2 C2 1_555 1_555
C3 C2 1_555 1_555
H3 C3 1_555 1_555
H4 C3 1_555 1_555
C4 C3 1_555 1_555
H5 C4 1_555 1_555
H6 C4 1_555 1_555
C5 C4 1_555 1_555
H7 C5 1_555 1_555
H8 C5 1_555 1_555
C6 C1 1_555 1_555
H9 C6 1_555 1_555
H10 C6 1_555 1_555
C7 H11 1_555 1_555
H12 C7 1_555 1_555
N1 C1 1_555 1_555
N2 C2 1_555 1_555
C8 N2 1_555 1_555
H13 C8 1_555 1_555
H14 C8 1_555 1_555
C9 C8 1_555 1_555
C10 C9 1_555 1_555
H15 C10 1_555 1_555
C11 C10 1_555 1_555
H16 C11 1_555 1_555
C12 C11 1_555 1_555
C13 C12 1_555 1_555
H17 C13 1_555 1_555
C14 C9 1_555 1_555
H18 C14 1_555 1_555
C15 C12 1_555 1_555
H19 C15 1_555 1_555
H20 C15 1_555 1_555
C16 H21 1_555 1_555
C17 C16 1_555 1_555
H22 C17 1_555 1_555
C18 C17 1_555 1_555
H23 C18 1_555 1_555
H24 C18 1_555 1_555
C19 C18 1_555 1_555
H25 C19 1_555 1_555
H26 C19 1_555 1_555
C20 C19 1_555 1_555
H27 C20 1_555 1_555
H28 C20 1_555 1_555
C21 C16 1_555 1_555
H29 C21 1_555 1_555
H30 C21 1_555 1_555
C22 H31 1_555 1_555
H32 C22 1_555 1_555
N3 C15 1_555 1_555
N4 C17 1_555 1_555
C23 N4 1_555 1_555
H33 C23 1_555 1_555
H34 C23 1_555 1_555
C24 C23 1_555 1_555
C25 C24 1_555 1_555
H35 C25 1_555 1_555
C26 C25 1_555 1_555
H36 C26 1_555 1_555
C27 C26 1_555 1_555
C28 C27 1_555 1_555
H37 C28 1_555 1_555
C29 C24 1_555 1_555
H38 C29 1_555 1_555
C30 C27 1_555 1_555
H39 C30 1_555 1_555
H40 C30 1_555 1_555
C31 H41 1_555 1_555
C32 C31 1_555 1_555
H42 C32 1_555 1_555
C33 C32 1_555 1_555
H43 C33 1_555 1_555
H44 C33 1_555 1_555
C34 C33 1_555 1_555
H45 C34 1_555 1_555
H46 C34 1_555 1_555
C35 C34 1_555 1_555
H47 C35 1_555 1_555
H48 C35 1_555 1_555
C36 C31 1_555 1_555
H49 C36 1_555 1_555
H50 C36 1_555 1_555
C37 H51 1_555 1_555
H52 C37 1_555 1_555
N5 C30 1_555 1_555
N6 C32 1_555 1_555
C38 N6 1_555 1_555
H53 C38 1_555 1_555
H54 C38 1_555 1_555
C39 C38 1_555 1_555
C40 C39 1_555 1_555
H55 C40 1_555 1_555
C41 C40 1_555 1_555
H56 C41 1_555 1_555
C42 C41 1_555 1_555
C43 C42 1_555 1_555
H57 C43 1_555 1_555
C44 C39 1_555 1_555
H58 C44 1_555 1_555
C45 N1 1_555 1_555
H59 C45 1_555 1_555
H60 C45 1_555 1_555
C5 C6 1_555 1_555
C7 N1 1_555 1_555
C7 N2 1_555 1_555
C13 C14 1_555 1_555
C16 N3 1_555 1_555
C20 C21 1_555 1_555
C22 N3 1_555 1_555
C22 N4 1_555 1_555
C28 C29 1_555 1_555
C31 N5 1_555 1_555
C35 C36 1_555 1_555
C37 N5 1_555 1_555
C37 N6 1_555 1_555
C42 C45 1_555 1_555
C43 C44 1_555 1_555

#END
