
#######################################################################
#
#                 Cambridge Crystallographic Data Centre
#                                CCDC 
#
#######################################################################
#
# If this CIF has been generated from an entry in the Cambridge 
# Structural Database, then it will include bibliographic, chemical, 
# crystal, experimental, refinement or atomic coordinate data resulting 
# from the CCDC's data processing and validation procedures.
#
#######################################################################

data_EKIQEW01
_chemical_formula_moiety         'C15 H9 F6 N1 O1'
_chemical_name_systematic        
3-(trifluoromethyl)-N-(2-(trifluoromethyl)phenyl)benzamide
_symmetry_cell_setting           monoclinic
_symmetry_space_group_name_H-M   'C c'
_symmetry_Int_Tables_number      9
_space_group_name_Hall           'C -2yc'
loop_
_symmetry_equiv_pos_site_id
_symmetry_equiv_pos_as_xyz
1 x,y,z
2 x,-y,1/2+z
3 1/2+x,1/2+y,z
4 1/2+x,1/2-y,1/2+z
_cell_length_a                   12.658(2)
_cell_length_b                   9.6582(16)
_cell_length_c                   45.734(7)
_cell_angle_alpha                90
_cell_angle_beta                 94.585(4)
_cell_angle_gamma                90
_cell_volume                     5573.25
_exptl_crystal_colour            colorless
_exptl_crystal_description       'small plate'
_cell_formula_units_Z            16
loop_
_atom_site_label
_atom_site_type_symbol
_atom_site_fract_x
_atom_site_fract_y
_atom_site_fract_z
F1 F -0.07563(15) 0.2295(2) 0.18699(4)
F2 F -0.11757(13) 0.24080(17) 0.23141(4)
F3 F -0.01631(14) 0.39520(19) 0.21496(4)
F4 F -0.1464(6) 0.3533(11) 0.39969(10)
F5 F -0.0636(8) 0.5372(5) 0.41009(11)
F6 F 0.0180(5) 0.3502(7) 0.40586(9)
O1 O 0.02445(14) 0.13700(18) 0.30522(4)
N1 N 0.06928(17) 0.2917(2) 0.27134(5)
H1 H 0.0713 0.3796 0.2664
C1 C -0.00961(19) 0.3734(3) 0.31458(5)
C2 C -0.0228(2) 0.3468(3) 0.34409(6)
H2 H -0.0053 0.2585 0.3522
C3 C -0.0614(2) 0.4495(3) 0.36140(6)
C4 C -0.0897(2) 0.5787(3) 0.34976(6)
H3 H -0.1172 0.6481 0.3617
C5 C -0.0770(2) 0.6045(3) 0.32039(6)
H4 H -0.0964 0.6921 0.3122
C6 C -0.0363(2) 0.5035(3) 0.30297(6)
H5 H -0.0264 0.5229 0.2830
C7 C 0.1073(2) 0.1903(3) 0.25199(5)
C8 C 0.0580(2) 0.1723(3) 0.22402(5)
C9 C 0.0971(2) 0.0762(3) 0.20499(6)
H6 H 0.0632 0.0640 0.1859
C10 C 0.1856(2) -0.0017(3) 0.21399(6)
H7 H 0.2129 -0.0670 0.2010
C11 C 0.2338(2) 0.0158(3) 0.24185(6)
H8 H 0.2945 -0.0379 0.2480
C12 C 0.1950(2) 0.1108(3) 0.26095(6)
H9 H 0.2284 0.1214 0.2802
C13 C 0.0306(2) 0.2575(3) 0.29683(5)
C14 C -0.0374(2) 0.2588(3) 0.21424(6)
C15 C -0.0716(3) 0.4231(3) 0.39332(7)
F10 F 0.23878(13) 0.35379(17) 0.32981(4)
F11 F 0.25565(15) 0.4098(2) 0.37526(4)
F12 F 0.38398(13) 0.44516(18) 0.34798(4)
F13 F 0.21606(13) 0.3144(2) 0.16714(3)
F14 F 0.33976(16) 0.16208(19) 0.16546(4)
F15 F 0.37047(15) 0.3747(2) 0.15550(4)
O2 O 0.16854(14) 0.54607(19) 0.25943(4)
N2 N 0.30686(17) 0.5757(2) 0.29339(5)
H10 H 0.3750 0.5621 0.2978
C16 C 0.33132(19) 0.4365(3) 0.25041(5)
C17 C 0.29595(19) 0.4077(3) 0.22155(5)
H11 H 0.2323 0.4483 0.2131
C18 C 0.3541(2) 0.3192(3) 0.20506(5)
C19 C 0.4468(2) 0.2580(3) 0.21726(6)
H12 H 0.4855 0.1965 0.2059
C20 C 0.4823(2) 0.2872(3) 0.24596(6)
H13 H 0.5455 0.2455 0.2544
C21 C 0.42577(19) 0.3772(3) 0.26243(5)
H14 H 0.4513 0.3986 0.2820
C22 C 0.24815(19) 0.6497(3) 0.31371(5)
C23 C 0.2067(2) 0.7794(3) 0.30655(6)
H15 H 0.2148 0.8177 0.2877
C24 C 0.1535(2) 0.8532(3) 0.32684(7)
H16 H 0.1252 0.9421 0.3219
C25 C 0.1415(2) 0.7981(3) 0.35408(7)
H17 H 0.1055 0.8493 0.3680
C26 C 0.1819(2) 0.6679(3) 0.36143(6)
H18 H 0.1733 0.6301 0.3803
C27 C 0.2349(2) 0.5929(3) 0.34122(5)
C28 C 0.26219(19) 0.5257(2) 0.26770(5)
C29 C 0.2779(2) 0.4521(3) 0.34861(6)
C30 C 0.3192(2) 0.2926(3) 0.17351(6)
F16 F 0.57498(13) 0.69754(17) 0.08869(4)
F17 F 0.53627(15) 0.7103(2) 0.13343(4)
F18 F 0.47627(14) 0.54244(18) 0.10617(4)
F19 F 0.529(3) 0.6633(16) -0.0787(4)
F20 F 0.614(2) 0.463(3) -0.0830(5)
F21 F 0.4396(19) 0.489(2) -0.0887(4)
O3 O 0.43274(15) 0.80119(19) 0.01672(4)
N3 N 0.38672(17) 0.6428(2) 0.04977(5)
H19 H 0.3839 0.5546 0.0544
C31 C 0.4660(2) 0.5647(3) 0.00609(6)
C32 C 0.4905(2) 0.4332(3) 0.01688(6)
H20 H 0.4795 0.4107 0.0366
C33 C 0.5313(2) 0.3342(3) -0.00138(6)
H21 H 0.5485 0.2444 0.0060
C34 C 0.5470(2) 0.3662(3) -0.03026(6)
H22 H 0.5748 0.2988 -0.0427
C35 C 0.5219(2) 0.4974(3) -0.04076(6)
C36 C 0.4818(2) 0.5972(3) -0.02294(6)
H23 H 0.4652 0.6870 -0.0304
C37 C 0.3487(2) 0.7441(3) 0.06920(5)
C38 C 0.3997(2) 0.7629(3) 0.09703(6)
C39 C 0.3604(2) 0.8589(3) 0.11610(6)
H24 H 0.3954 0.8724 0.1351
C40 C 0.2703(2) 0.9349(3) 0.10745(6)
H25 H 0.2434 1.0003 0.1205
C41 C 0.2195(2) 0.9152(3) 0.07977(6)
H26 H 0.1574 0.9667 0.0739
C42 C 0.2588(2) 0.8208(3) 0.06060(6)
H27 H 0.2242 0.8086 0.0416
C43 C 0.42673(19) 0.6797(3) 0.02445(5)
C44 C 0.4961(2) 0.6797(3) 0.10650(6)
C45 C 0.5343(3) 0.5298(4) -0.07233(7)
F25 F 0.11127(17) 0.78081(19) 0.15668(4)
F26 F 0.08123(14) 0.5682(2) 0.16679(3)
F27 F 0.23555(13) 0.6294(2) 0.15525(4)
F28 F 0.07200(13) 0.48606(19) -0.02782(4)
F29 F 0.21727(14) 0.58141(17) -0.01076(4)
F30 F 0.20045(17) 0.5110(2) -0.05547(4)
O4 O 0.28427(14) 0.39530(19) 0.06344(4)
N4 N 0.14826(17) 0.3698(2) 0.02870(4)
H28 H 0.0814 0.3887 0.0235
C46 C 0.12123(19) 0.5069(3) 0.07177(5)
C47 C 0.1567(2) 0.5350(3) 0.10091(5)
H29 H 0.2201 0.4941 0.1094
C48 C 0.0978(2) 0.6237(3) 0.11718(5)
C49 C 0.0051(2) 0.6848(3) 0.10497(6)
H30 H -0.0340 0.7459 0.1163
C50 C -0.0296(2) 0.6556(3) 0.07616(6)
H31 H -0.0931 0.6964 0.0676
C51 C 0.0282(2) 0.5666(3) 0.05970(5)
H32 H 0.0038 0.5465 0.0400
C52 C 0.2063(2) 0.2897(3) 0.00926(5)
C53 C 0.2455(2) 0.1612(3) 0.01784(6)
H33 H 0.2363 0.1280 0.0370
C54 C 0.2983(2) 0.0806(3) -0.00143(7)
H34 H 0.3251 -0.0077 0.0045
C55 C 0.3119(2) 0.1288(3) -0.02936(6)
H35 H 0.3478 0.0733 -0.0426
C56 C 0.2735(2) 0.2577(3) -0.03809(6)
H36 H 0.2833 0.2908 -0.0572
C57 C 0.2203(2) 0.3391(3) -0.01883(5)
C58 C 0.19136(19) 0.4178(3) 0.05458(5)
C59 C 0.1322(2) 0.6500(3) 0.14879(6)
C60 C 0.1781(2) 0.4785(3) -0.02830(6)
F7? F -0.0068(6) 0.4769(13) 0.40920(12)
F8? F -0.0850(8) 0.2913(6) 0.39894(13)
F9? F -0.1720(4) 0.4726(8) 0.40023(10)
F22? F 0.5587(17) 0.663(2) -0.0758(4)
F23? F 0.620(3) 0.480(4) -0.0813(7)
F24? F 0.470(3) 0.480(3) -0.0901(5)
loop_
_geom_bond_atom_site_label_1
_geom_bond_atom_site_label_2
_geom_bond_site_symmetry_1
_geom_bond_site_symmetry_2
F1 C14 1_555 1_555
F2 C14 1_555 1_555
F3 C14 1_555 1_555
F4 C15 1_555 1_555
F5 C15 1_555 1_555
F6 C15 1_555 1_555
O1 C13 1_555 1_555
N1 H1 1_555 1_555
C1 C2 1_555 1_555
C2 H2 1_555 1_555
C3 C2 1_555 1_555
C4 C3 1_555 1_555
H3 C4 1_555 1_555
C5 C4 1_555 1_555
H4 C5 1_555 1_555
C6 C1 1_555 1_555
H5 C6 1_555 1_555
C7 N1 1_555 1_555
C8 C7 1_555 1_555
C9 C8 1_555 1_555
H6 C9 1_555 1_555
C10 C9 1_555 1_555
H7 C10 1_555 1_555
C11 C10 1_555 1_555
H8 C11 1_555 1_555
C12 C7 1_555 1_555
H9 C12 1_555 1_555
C13 N1 1_555 1_555
C14 C8 1_555 1_555
C15 C3 1_555 1_555
F10 C29 1_555 1_555
F11 C29 1_555 1_555
F12 C29 1_555 1_555
F13 C30 1_555 1_555
F14 C30 1_555 1_555
F15 C30 1_555 1_555
O2 C28 1_555 1_555
N2 H10 1_555 1_555
C16 C17 1_555 1_555
C17 H11 1_555 1_555
C18 C17 1_555 1_555
C19 C18 1_555 1_555
H12 C19 1_555 1_555
C20 C19 1_555 1_555
H13 C20 1_555 1_555
C21 C16 1_555 1_555
H14 C21 1_555 1_555
C22 N2 1_555 1_555
C23 C22 1_555 1_555
H15 C23 1_555 1_555
C24 C23 1_555 1_555
H16 C24 1_555 1_555
C25 C24 1_555 1_555
H17 C25 1_555 1_555
C26 C25 1_555 1_555
H18 C26 1_555 1_555
C27 C22 1_555 1_555
C28 N2 1_555 1_555
C29 C27 1_555 1_555
C30 C18 1_555 1_555
F16 C44 1_555 1_555
F17 C44 1_555 1_555
F18 C44 1_555 1_555
F19 C45 1_555 1_555
F20 C45 1_555 1_555
F21 C45 1_555 1_555
O3 C43 1_555 1_555
N3 H19 1_555 1_555
C31 C32 1_555 1_555
C32 H20 1_555 1_555
C33 C32 1_555 1_555
H21 C33 1_555 1_555
C34 C33 1_555 1_555
H22 C34 1_555 1_555
C35 C34 1_555 1_555
C36 C31 1_555 1_555
H23 C36 1_555 1_555
C37 N3 1_555 1_555
C38 C37 1_555 1_555
C39 C38 1_555 1_555
H24 C39 1_555 1_555
C40 C39 1_555 1_555
H25 C40 1_555 1_555
C41 C40 1_555 1_555
H26 C41 1_555 1_555
C42 C37 1_555 1_555
H27 C42 1_555 1_555
C43 N3 1_555 1_555
C44 C38 1_555 1_555
C45 C35 1_555 1_555
F25 C59 1_555 1_555
F26 C59 1_555 1_555
F27 C59 1_555 1_555
F28 C60 1_555 1_555
F29 C60 1_555 1_555
F30 C60 1_555 1_555
O4 C58 1_555 1_555
N4 H28 1_555 1_555
C46 C47 1_555 1_555
C47 H29 1_555 1_555
C48 C47 1_555 1_555
C49 C48 1_555 1_555
H30 C49 1_555 1_555
C50 C49 1_555 1_555
H31 C50 1_555 1_555
C51 C46 1_555 1_555
H32 C51 1_555 1_555
C52 N4 1_555 1_555
C53 C52 1_555 1_555
H33 C53 1_555 1_555
C54 C53 1_555 1_555
H34 C54 1_555 1_555
C55 C54 1_555 1_555
H35 C55 1_555 1_555
C56 C55 1_555 1_555
H36 C56 1_555 1_555
C57 C52 1_555 1_555
C58 N4 1_555 1_555
C59 C48 1_555 1_555
C60 C57 1_555 1_555
C1 C13 1_555 1_555
C5 C6 1_555 1_555
C11 C12 1_555 1_555
C16 C28 1_555 1_555
C20 C21 1_555 1_555
C26 C27 1_555 1_555
C31 C43 1_555 1_555
C35 C36 1_555 1_555
C41 C42 1_555 1_555
C46 C58 1_555 1_555
C50 C51 1_555 1_555
C56 C57 1_555 1_555

#END
