
#######################################################################
#
#                 Cambridge Crystallographic Data Centre
#                                CCDC 
#
#######################################################################
#
# If this CIF has been generated from an entry in the Cambridge 
# Structural Database, then it will include bibliographic, chemical, 
# crystal, experimental, refinement or atomic coordinate data resulting 
# from the CCDC's data processing and validation procedures.
#
#######################################################################

data_EKITOH
_chemical_formula_moiety         'C21 H25 N1 O5 S1'
_chemical_name_systematic        
4-(3-Acetyl-3-methylcyclobutylidene)-3-p-toluenesulfonyl-1-oxa-3-azaspiro(4.4)nonan-2-one
_symmetry_cell_setting           monoclinic
_symmetry_space_group_name_H-M   'P 21/c'
_symmetry_Int_Tables_number      14
_space_group_name_Hall           '-P 2ybc'
loop_
_symmetry_equiv_pos_site_id
_symmetry_equiv_pos_as_xyz
1 x,y,z
2 x,1/2-y,1/2+z
3 -x,-y,-z
4 -x,1/2+y,1/2-z
_cell_length_a                   9.151(2)
_cell_length_b                   8.807(6)
_cell_length_c                   25.171(4)
_cell_angle_alpha                90
_cell_angle_beta                 92.43(2)
_cell_angle_gamma                90
_cell_volume                     2026.78
_exptl_crystal_colour            colorless
_exptl_crystal_description       prismatic
_chemical_melting_point          136-136.9deg.C
_cell_formula_units_Z            4
loop_
_atom_site_label
_atom_site_type_symbol
_atom_site_fract_x
_atom_site_fract_y
_atom_site_fract_z
S1 S 1.1208(2) -0.3172(2) 0.59842(6)
O1 O 0.8770(4) -0.0425(4) 0.6703(1)
O2 O 0.9095(4) -0.2890(4) 0.6862(2)
O3 O 1.3298(6) 0.1705(6) 0.4389(2)
O4 O 1.1788(5) -0.2730(4) 0.5490(2)
O5 O 1.0175(4) -0.4383(4) 0.5998(2)
N1 N 1.0389(4) -0.1617(5) 0.6221(2)
C1 C 0.9380(6) -0.1765(7) 0.6621(2)
C2 C 0.9428(5) 0.0791(6) 0.6387(2)
C3 C 1.0491(5) -0.0056(6) 0.6050(2)
C4 C 1.1314(5) 0.0580(6) 0.5698(2)
C5 C 1.1361(8) 0.2258(7) 0.5530(3)
C6 C 1.2883(6) 0.1928(7) 0.5303(2)
C7 C 1.2590(7) 0.0207(7) 0.5351(3)
C8 C 1.3091(7) 0.2528(8) 0.4753(3)
C9 C 1.3013(7) 0.4203(8) 0.4669(3)
C10 C 1.0093(7) 0.1906(8) 0.6790(2)
C11 C 0.8849(7) 0.2948(8) 0.6942(3)
C12 C 0.7585(8) 0.2655(9) 0.6546(3)
C13 C 0.8167(7) 0.1634(8) 0.6111(2)
C14 C 1.4142(8) 0.2446(9) 0.5678(3)
C15 C 1.2642(6) -0.3559(6) 0.6448(2)
C16 C 1.2384(6) -0.4424(6) 0.6895(2)
C17 C 1.3507(7) -0.4749(7) 0.7251(2)
C18 C 1.4901(6) -0.4210(7) 0.7181(2)
C19 C 1.5126(7) -0.3357(8) 0.6730(3)
C20 C 1.4027(6) -0.3026(7) 0.6365(3)
C21 C 1.6113(7) -0.4518(9) 0.7591(3)
H1 H 1.068(6) 0.250(6) 0.526(2)
H2 H 1.149(6) 0.300(7) 0.578(2)
H3 H 1.226(5) -0.019(6) 0.503(2)
H4 H 1.336(7) -0.050(8) 0.551(3)
H5 H 1.3910 0.4571 0.4543
H6 H 1.2834 0.4701 0.5001
H7 H 1.2238 0.4448 0.4422
H8 H 1.080(5) 0.245(5) 0.663(2)
H9 H 1.054(5) 0.140(6) 0.711(2)
H10 H 0.918(7) 0.400(8) 0.690(3)
H11 H 0.855(7) 0.274(8) 0.730(3)
H12 H 0.713(6) 0.352(6) 0.641(2)
H13 H 0.673(10) 0.21(1) 0.670(4)
H14 H 0.858(5) 0.226(6) 0.583(2)
H15 H 0.745(5) 0.097(6) 0.591(2)
H16 H 1.3976 0.2029 0.6025
H17 H 1.4152 0.3504 0.5696
H18 H 1.5027 0.2059 0.5557
H19 H 1.138(5) -0.476(5) 0.694(2)
H20 H 1.338(5) -0.538(6) 0.757(2)
H21 H 1.598(5) -0.301(5) 0.669(2)
H22 H 1.423(5) -0.235(6) 0.607(2)
H23 H 1.5850 -0.4126 0.7924
H24 H 1.6987 -0.4089 0.7484
H25 H 1.6230 -0.5604 0.7624
loop_
_geom_bond_atom_site_label_1
_geom_bond_atom_site_label_2
_geom_bond_site_symmetry_1
_geom_bond_site_symmetry_2
S1 O4 1_555 1_555
O1 C1 1_555 1_555
O2 C1 1_555 1_555
O3 C8 1_555 1_555
O5 S1 1_555 1_555
N1 S1 1_555 1_555
C1 N1 1_555 1_555
C2 O1 1_555 1_555
C3 N1 1_555 1_555
C4 C3 1_555 1_555
C5 C4 1_555 1_555
C6 C5 1_555 1_555
C7 C4 1_555 1_555
C8 C6 1_555 1_555
C9 C8 1_555 1_555
C10 C2 1_555 1_555
C11 C10 1_555 1_555
C12 C11 1_555 1_555
C13 C2 1_555 1_555
C14 C6 1_555 1_555
C15 S1 1_555 1_555
C16 C15 1_555 1_555
C17 C16 1_555 1_555
C18 C17 1_555 1_555
C19 C18 1_555 1_555
C20 C15 1_555 1_555
C21 C18 1_555 1_555
H1 C5 1_555 1_555
H2 C5 1_555 1_555
H3 C7 1_555 1_555
H4 C7 1_555 1_555
H5 C9 1_555 1_555
H6 C9 1_555 1_555
H7 C9 1_555 1_555
H8 C10 1_555 1_555
H9 C10 1_555 1_555
H10 C11 1_555 1_555
H11 C11 1_555 1_555
H12 C12 1_555 1_555
H13 C12 1_555 1_555
H14 C13 1_555 1_555
H15 C13 1_555 1_555
H16 C14 1_555 1_555
H17 C14 1_555 1_555
H18 C14 1_555 1_555
H19 C16 1_555 1_555
H20 C17 1_555 1_555
H21 C19 1_555 1_555
H22 C20 1_555 1_555
H23 C21 1_555 1_555
H24 C21 1_555 1_555
H25 C21 1_555 1_555
C2 C3 1_555 1_555
C6 C7 1_555 1_555
C12 C13 1_555 1_555
C19 C20 1_555 1_555

#END
