
#######################################################################
#
#                 Cambridge Crystallographic Data Centre
#                                CCDC 
#
#######################################################################
#
# If this CIF has been generated from an entry in the Cambridge 
# Structural Database, then it will include bibliographic, chemical, 
# crystal, experimental, refinement or atomic coordinate data resulting 
# from the CCDC's data processing and validation procedures.
#
#######################################################################

data_EKIVUP
_chemical_formula_moiety         'C16 H19 N1 O4 S1'
_chemical_name_systematic        
5,5-Dimethyl-4-(2-isobutenylidene)-3-p-toluenesulfonyloxazolidin-2-one
_symmetry_cell_setting           triclinic
_symmetry_space_group_name_H-M   'P -1'
_symmetry_Int_Tables_number      2
_space_group_name_Hall           '-P 1'
loop_
_symmetry_equiv_pos_site_id
_symmetry_equiv_pos_as_xyz
1 x,y,z
2 -x,-y,-z
_cell_length_a                   6.3912(8)
_cell_length_b                   8.762(2)
_cell_length_c                   16.402(2)
_cell_angle_alpha                88.413(5)
_cell_angle_beta                 84.128(2)
_cell_angle_gamma                68.262(1)
_cell_volume                     848.661
_exptl_crystal_description       block
_chemical_melting_point          126.0-127.2deg.C
_cell_formula_units_Z            2
loop_
_atom_site_label
_atom_site_type_symbol
_atom_site_fract_x
_atom_site_fract_y
_atom_site_fract_z
S1 S 0.61316(7) 0.07419(4) 0.23862(2)
O1 O 0.5800(2) 0.4910(1) 0.31241(6)
O2 O 0.4177(2) 0.3263(2) 0.37426(7)
O3 O 0.7392(3) 0.0117(2) 0.16269(7)
O4 O 0.3845(2) 0.0875(2) 0.25284(9)
N1 N 0.6164(2) 0.2639(1) 0.24612(7)
C1 C 0.7421(2) 0.3371(2) 0.19212(8)
C2 C 0.7157(3) 0.4950(2) 0.23548(9)
C3 C 0.5260(2) 0.3576(2) 0.31729(8)
C4 C 0.9387(4) 0.4980(3) 0.2567(2)
C5 C 0.5786(4) 0.6458(2) 0.1901(1)
C6 C 0.8507(3) 0.2880(2) 0.12072(9)
C7 C 0.9658(3) 0.2541(2) 0.0489(1)
C8 C 0.8538(5) 0.3119(4) -0.0281(1)
C9 C 1.2136(4) 0.1529(5) 0.0385(2)
C10 C 0.7619(2) -0.0327(2) 0.31940(9)
C11 C 0.9948(3) -0.0820(2) 0.3129(1)
C12 C 1.1102(3) -0.1720(2) 0.3757(1)
C13 C 0.9970(3) -0.2138(2) 0.4444(1)
C14 C 0.7644(3) -0.1637(2) 0.4487(1)
C15 C 0.6455(3) -0.0726(2) 0.3872(1)
C16 C 1.1255(6) -0.3130(4) 0.5124(2)
H1 H 1.015(4) 0.397(3) 0.285(2)
H2 H 1.044(6) 0.496(4) 0.205(2)
H3 H 0.914(5) 0.594(4) 0.287(2)
H4 H 0.556(4) 0.742(4) 0.223(2)
H5 H 0.676(3) 0.647(3) 0.143(1)
H6 H 0.421(5) 0.647(3) 0.179(2)
H7 H 0.935(7) 0.383(6) -0.061(3)
H8 H 0.897(6) 0.243(5) -0.067(2)
H9 H 0.700(5) 0.375(4) -0.015(2)
H10 H 1.264(5) 0.112(4) 0.090(2)
H11 H 1.243(5) 0.067(4) 0.001(2)
H12 H 1.297(5) 0.201(4) 0.001(2)
H13 H 1.078(4) -0.062(3) 0.267(1)
H14 H 1.271(4) -0.202(3) 0.368(2)
H15 H 0.689(4) -0.193(3) 0.498(2)
H16 H 0.486(4) -0.042(2) 0.394(1)
H17 H 1.217(6) -0.425(5) 0.495(2)
H18 H 1.294(8) -0.315(6) 0.498(3)
H19 H 1.090(7) -0.249(5) 0.556(3)
loop_
_geom_bond_atom_site_label_1
_geom_bond_atom_site_label_2
_geom_bond_site_symmetry_1
_geom_bond_site_symmetry_2
S1 O3 1_555 1_555
O1 C2 1_555 1_555
O2 C3 1_555 1_555
O4 S1 1_555 1_555
N1 S1 1_555 1_555
C1 N1 1_555 1_555
C2 C1 1_555 1_555
C3 O1 1_555 1_555
C4 C2 1_555 1_555
C5 C2 1_555 1_555
C6 C1 1_555 1_555
C7 C6 1_555 1_555
C8 C7 1_555 1_555
C9 C7 1_555 1_555
C10 S1 1_555 1_555
C11 C10 1_555 1_555
C12 C11 1_555 1_555
C13 C12 1_555 1_555
C14 C13 1_555 1_555
C15 C10 1_555 1_555
C16 C13 1_555 1_555
H1 C4 1_555 1_555
H2 C4 1_555 1_555
H3 C4 1_555 1_555
H4 C5 1_555 1_555
H5 C5 1_555 1_555
H6 C5 1_555 1_555
H7 C8 1_555 1_555
H8 C8 1_555 1_555
H9 C8 1_555 1_555
H10 C9 1_555 1_555
H11 C9 1_555 1_555
H12 C9 1_555 1_555
H13 C11 1_555 1_555
H14 C12 1_555 1_555
H15 C14 1_555 1_555
H16 C15 1_555 1_555
H17 C16 1_555 1_555
H18 C16 1_555 1_555
H19 C16 1_555 1_555
N1 C3 1_555 1_555
C14 C15 1_555 1_555

#END
