
#######################################################################
#
#                 Cambridge Crystallographic Data Centre
#                                CCDC 
#
#######################################################################
#
# If this CIF has been generated from an entry in the Cambridge 
# Structural Database, then it will include bibliographic, chemical, 
# crystal, experimental, refinement or atomic coordinate data resulting 
# from the CCDC's data processing and validation procedures.
#
#######################################################################

data_EKIVOJ
_chemical_formula_moiety         'C12 H11 N1 O4 S1'
_chemical_name_systematic        
3-p-Toluenesulfonyl-4-vinylideneoxazolidin-2-one
_symmetry_cell_setting           triclinic
_symmetry_space_group_name_H-M   'P -1'
_symmetry_Int_Tables_number      2
_space_group_name_Hall           '-P 1'
loop_
_symmetry_equiv_pos_site_id
_symmetry_equiv_pos_as_xyz
1 x,y,z
2 -x,-y,-z
_cell_length_a                   7.9392(7)
_cell_length_b                   8.860(2)
_cell_length_c                   8.9959(5)
_cell_angle_alpha                97.753(4)
_cell_angle_beta                 95.704(1)
_cell_angle_gamma                99.105(1)
_cell_volume                     614.367
_exptl_crystal_colour            colorless
_exptl_crystal_description       platelet
_chemical_melting_point          101.2-103.0deg.C
_cell_formula_units_Z            2
loop_
_atom_site_label
_atom_site_type_symbol
_atom_site_fract_x
_atom_site_fract_y
_atom_site_fract_z
S1 S 0.2870(1) 0.35793(10) 0.65897(10)
O1 O 0.5538(3) 0.1426(3) 0.4005(3)
O2 O 0.2688(4) 0.1076(4) 0.3840(3)
O3 O 0.3649(4) 0.5005(3) 0.7488(3)
O4 O 0.1385(3) 0.3481(4) 0.5555(3)
N1 N 0.4400(3) 0.3057(3) 0.5560(3)
C1 C 0.6975(5) 0.2416(5) 0.4928(5)
C2 C 0.4061(5) 0.1779(4) 0.4412(4)
C3 C 0.2550(4) 0.2136(3) 0.7726(3)
C4 C 0.3543(5) 0.2296(4) 0.9111(4)
C5 C 0.3337(5) 0.1095(4) 0.9945(4)
C6 C 0.2183(4) -0.0255(4) 0.9416(4)
C7 C 0.1187(5) -0.0369(5) 0.8036(4)
C8 C 0.1367(4) 0.0802(4) 0.7187(4)
C9 C 0.1992(7) -0.1584(6) 1.0309(6)
C10 C 0.6213(4) 0.3419(3) 0.6044(3)
C11 C 0.7036(5) 0.4411(4) 0.7175(4)
C12 C 0.8026(7) 0.5380(6) 0.8209(7)
H1 H 0.771(6) 0.299(5) 0.431(5)
H2 H 0.760(5) 0.175(5) 0.536(5)
H3 H 0.428(5) 0.318(5) 0.951(4)
H4 H 0.408(5) 0.128(5) 1.087(5)
H5 H 0.045(6) -0.122(5) 0.762(5)
H6 H 0.060(5) 0.065(4) 0.625(4)
H7 H 0.284(6) -0.132(5) 1.114(5)
H8 H 0.214(8) -0.245(8) 0.973(7)
H9 H 0.084(8) -0.191(6) 1.038(5)
H10 H 0.848(8) 0.634(7) 0.799(6)
H11 H 0.822(7) 0.515(6) 0.930(7)
loop_
_geom_bond_atom_site_label_1
_geom_bond_atom_site_label_2
_geom_bond_site_symmetry_1
_geom_bond_site_symmetry_2
S1 O3 1_555 1_555
O1 C1 1_555 1_555
O2 C2 1_555 1_555
O4 S1 1_555 1_555
N1 S1 1_555 1_555
C1 C10 1_555 1_555
C2 O1 1_555 1_555
C3 S1 1_555 1_555
C4 C3 1_555 1_555
C5 C4 1_555 1_555
C6 C5 1_555 1_555
C7 C6 1_555 1_555
C8 C3 1_555 1_555
C9 C6 1_555 1_555
C10 N1 1_555 1_555
C11 C10 1_555 1_555
C12 C11 1_555 1_555
H1 C1 1_555 1_555
H2 C1 1_555 1_555
H3 C4 1_555 1_555
H4 C5 1_555 1_555
H5 C7 1_555 1_555
H6 C8 1_555 1_555
H7 C9 1_555 1_555
H8 C9 1_555 1_555
H9 C9 1_555 1_555
H10 C12 1_555 1_555
H11 C12 1_555 1_555
N1 C2 1_555 1_555
C7 C8 1_555 1_555

#END
