
#######################################################################
#
#                 Cambridge Crystallographic Data Centre
#                                CCDC 
#
#######################################################################
#
# If this CIF has been generated from an entry in the Cambridge 
# Structural Database, then it will include bibliographic, chemical, 
# crystal, experimental, refinement or atomic coordinate data resulting 
# from the CCDC's data processing and validation procedures.
#
#######################################################################

data_EKIVUR
_chemical_formula_moiety         'C25 H20 N2 O1,0.5(C12 H4 N4),C8 H10'
_chemical_name_systematic        
'1-(5-(9-Anthryl)-3-phenyl-4,5-dihydro-1H-pyrazol-1-yl)ethanone hemikis(tetracyanoquinodimethane) p-xylene'
_symmetry_cell_setting           triclinic
_symmetry_space_group_name_H-M   'P -1'
_symmetry_Int_Tables_number      2
_space_group_name_Hall           '-P 1'
loop_
_symmetry_equiv_pos_site_id
_symmetry_equiv_pos_as_xyz
1 x,y,z
2 -x,-y,-z
_cell_length_a                   9.928(2)
_cell_length_b                   10.632(2)
_cell_length_c                   16.282(3)
_cell_angle_alpha                76.58(3)
_cell_angle_beta                 72.43(3)
_cell_angle_gamma                77.68(3)
_cell_volume                     1574.58
_exptl_crystal_colour            black
_exptl_crystal_description       block
_cell_formula_units_Z            2
loop_
_atom_site_label
_atom_site_type_symbol
_atom_site_fract_x
_atom_site_fract_y
_atom_site_fract_z
O1 O 0.5813(2) 0.62661(17) 0.22851(11)
N1 N 0.7379(2) 0.47413(18) 0.39968(13)
C1 C 0.6770(3) 0.2448(2) 0.26296(15)
N2 N 0.6588(2) 0.49625(18) 0.33900(13)
C2 C 0.8058(3) 0.2260(2) 0.28882(17)
H1 H 0.8114 0.2756 0.3275
C3 C 0.9210(3) 0.1374(3) 0.2584(2)
H2 H 1.0031 0.1266 0.2772
C4 C 0.9175(4) 0.0619(3) 0.1988(2)
H3 H 0.9965 0.0013 0.1787
C5 C 0.8001(4) 0.0775(3) 0.17094(19)
H4 H 0.7998 0.0286 0.1305
C6 C 0.6756(3) 0.1668(2) 0.20151(16)
C7 C 0.5533(4) 0.1792(3) 0.17474(17)
H5 H 0.5531 0.1288 0.1351
C8 C 0.4312(3) 0.2642(3) 0.20508(17)
C9 C 0.3052(4) 0.2752(3) 0.1770(2)
H6 H 0.3055 0.2231 0.1382
C10 C 0.1877(4) 0.3580(4) 0.2047(3)
H7 H 0.1074 0.3638 0.1850
C11 C 0.1848(4) 0.4368(3) 0.2639(2)
H8 H 0.1021 0.4940 0.2833
C12 C 0.3002(3) 0.4308(3) 0.2930(2)
H9 H 0.2951 0.4846 0.3318
C13 C 0.4297(3) 0.3441(2) 0.26606(16)
C14 C 0.5530(2) 0.3330(2) 0.29475(15)
C15 C 0.5474(3) 0.4099(2) 0.36353(16)
H10 H 0.4791(19) 0.465(3) 0.3804(16)
C16 C 0.5708(3) 0.3291(2) 0.45110(15)
H11 H 0.4860 0.3427 0.4989
H12 H 0.5953 0.2364 0.4486
C17 C 0.6930(3) 0.3805(2) 0.46160(15)
C18 C 0.6638(3) 0.6040(2) 0.27439(16)
C19 C 0.7726(4) 0.6887(3) 0.2638(2)
H13 H 0.8257 0.6527 0.3066
H14 H 0.8368 0.6923 0.2062
H15 H 0.7252 0.7753 0.2719
C20 C 0.7627(3) 0.3294(2) 0.53312(16)
C21 C 0.8962(3) 0.3585(3) 0.5268(2)
H16 H 0.9423 0.4111 0.4764
C22 C 0.9605(4) 0.3112(4) 0.5933(2)
H17 H 1.0500 0.3311 0.5876
C23 C 0.8945(5) 0.2350(4) 0.6680(3)
H18 H 0.9384 0.2042 0.7134
C24 C 0.7637(5) 0.2035(3) 0.6765(2)
H19 H 0.7194 0.1504 0.7273
C25 C 0.6969(4) 0.2515(3) 0.60870(18)
H20 H 0.6076 0.2307 0.6146
N3 N 0.9212(3) 0.2206(3) -0.0940(2)
N4 N 0.9013(3) 0.4534(3) 0.10355(18)
C26 C 0.8606(3) 0.2965(3) -0.0502(2)
C27 C 0.7791(3) 0.3895(2) 0.00390(16)
C28 C 0.8480(3) 0.4230(3) 0.05949(18)
C29 C 0.6418(2) 0.4438(2) 0.00181(15)
C30 C 0.5587(3) 0.5344(2) 0.05858(16)
H21 H 0.5988 0.5563 0.0972
C31 C 0.4249(3) 0.5873(2) 0.05648(16)
H22 H 0.3735 0.6458 0.0936
N3A N 0.0788(3) 0.7794(3) 0.0940(2)
N4A N 0.0987(3) 0.5466(3) -0.10355(18)
C26A C 0.1394(3) 0.7035(3) 0.0502(2)
C27A C 0.2209(3) 0.6105(2) -0.00390(16)
C28A C 0.1520(3) 0.5770(3) -0.05949(18)
C29A C 0.3582(2) 0.5562(2) -0.00181(15)
C30A C 0.4413(3) 0.4656(2) -0.05858(16)
H21A H 0.4012 0.4437 -0.0972
C31A C 0.5751(3) 0.4127(2) -0.05648(16)
H22A H 0.6265 0.3542 -0.0936
C32 C 0.7664(6) 0.9153(5) 0.5529(4)
H23 H 0.8443 0.8938 0.5040
H24 H 0.7853 0.9849 0.5742
H25 H 0.7565 0.8397 0.5986
C33 C 0.6296(5) 0.9585(3) 0.5243(3)
C34 C 0.5028(6) 0.9944(4) 0.5838(3)
H26 H 0.5030 0.9908 0.6414
C35 C 0.6226(6) 0.9649(3) 0.4391(3)
H27 H 0.7055 0.9409 0.3970
C32A C 0.2336(6) 1.0847(5) 0.4471(4)
H23A H 0.1557 1.1062 0.4960
H24A H 0.2147 1.0151 0.4258
H25A H 0.2435 1.1603 0.4014
C33A C 0.3704(5) 1.0415(3) 0.4757(3)
C34A C 0.4972(6) 1.0056(4) 0.4162(3)
H26A H 0.4970 1.0092 0.3586
C35A C 0.3774(6) 1.0351(3) 0.5609(3)
H27A H 0.2945 1.0591 0.6030
C36 C 0.2227(3) 0.1541(3) 0.9907(2)
H28 H 0.1495 0.1196 1.0393
H29 H 0.2234 0.2434 0.9929
H30 H 0.2040 0.1501 0.9369
C37 C 0.3656(3) 0.0744(2) 0.99533(16)
C38 C 0.3794(3) -0.0310(3) 1.06236(17)
H31 H 0.2979 -0.0535 1.1053
C39 C 0.4899(3) 0.1033(2) 0.93285(17)
H32 H 0.4850 0.1730 0.8867
C36A C 0.7773(3) -0.1541(3) 1.0093(2)
H28A H 0.8505 -0.1196 0.9607
H29A H 0.7766 -0.2434 1.0071
H30A H 0.7960 -0.1501 1.0631
C37A C 0.6344(3) -0.0744(2) 1.00467(16)
C38A C 0.6206(3) 0.0310(3) 0.93764(17)
H31A H 0.7021 0.0535 0.8947
C39A C 0.5101(3) -0.1033(2) 1.06715(17)
H32A H 0.5150 -0.1730 1.1133
loop_
_geom_bond_atom_site_label_1
_geom_bond_atom_site_label_2
_geom_bond_site_symmetry_1
_geom_bond_site_symmetry_2
O1 C18 1_555 1_555
N1 N2 1_555 1_555
C1 C2 1_555 1_555
N2 C15 1_555 1_555
C2 H1 1_555 1_555
C3 C2 1_555 1_555
H2 C3 1_555 1_555
C4 C3 1_555 1_555
H3 C4 1_555 1_555
C5 C4 1_555 1_555
H4 C5 1_555 1_555
C6 C1 1_555 1_555
C7 C6 1_555 1_555
H5 C7 1_555 1_555
C8 C7 1_555 1_555
C9 C8 1_555 1_555
H6 C9 1_555 1_555
C10 C9 1_555 1_555
H7 C10 1_555 1_555
C11 C10 1_555 1_555
H8 C11 1_555 1_555
C12 C11 1_555 1_555
H9 C12 1_555 1_555
C13 C8 1_555 1_555
C14 C1 1_555 1_555
C15 C14 1_555 1_555
H10 C15 1_555 1_555
C16 C15 1_555 1_555
H11 C16 1_555 1_555
H12 C16 1_555 1_555
C17 N1 1_555 1_555
C18 N2 1_555 1_555
C19 C18 1_555 1_555
H13 C19 1_555 1_555
H14 C19 1_555 1_555
H15 C19 1_555 1_555
C20 C17 1_555 1_555
C21 C20 1_555 1_555
H16 C21 1_555 1_555
C22 C21 1_555 1_555
H17 C22 1_555 1_555
C23 C22 1_555 1_555
H18 C23 1_555 1_555
C24 C23 1_555 1_555
H19 C24 1_555 1_555
C25 C20 1_555 1_555
H20 C25 1_555 1_555
N3 C26 1_555 1_555
N4 C28 1_555 1_555
C26 C27 1_555 1_555
C27 C28 1_555 1_555
C29 C27 1_555 1_555
C30 C29 1_555 1_555
H21 C30 1_555 1_555
C31 C30 1_555 1_555
H22 C31 1_555 1_555
C32 H23 1_555 1_555
H24 C32 1_555 1_555
H25 C32 1_555 1_555
C33 C32 1_555 1_555
C34 C33 1_555 1_555
H26 C34 1_555 1_555
C35 C33 1_555 1_555
H27 C35 1_555 1_555
C36 H28 1_555 1_555
H29 C36 1_555 1_555
H30 C36 1_555 1_555
C37 C36 1_555 1_555
C38 C37 1_555 1_555
H31 C38 1_555 1_555
C39 C37 1_555 1_555
H32 C39 1_555 1_555
N3A C26A 1_555 1_555
N4A C28A 1_555 1_555
C26A C27A 1_555 1_555
C27A C28A 1_555 1_555
C29A C31 1_555 1_555
C30A C29A 1_555 1_555
H21A C30A 1_555 1_555
C31A C29 1_555 1_555
H22A C31A 1_555 1_555
C32A H23A 1_555 1_555
H24A C32A 1_555 1_555
H25A C32A 1_555 1_555
C33A C32A 1_555 1_555
C34A C35 1_555 1_555
H26A C34A 1_555 1_555
C35A C34 1_555 1_555
H27A C35A 1_555 1_555
C36A H28A 1_555 1_555
H29A C36A 1_555 1_555
H30A C36A 1_555 1_555
C37A C36A 1_555 1_555
C38A C39 1_555 1_555
H31A C38A 1_555 1_555
C39A C38 1_555 1_555
H32A C39A 1_555 1_555
C5 C6 1_555 1_555
C12 C13 1_555 1_555
C13 C14 1_555 1_555
C16 C17 1_555 1_555
C24 C25 1_555 1_555
C27A C29A 1_555 1_555
C30A C31A 1_555 1_555
C33A C34A 1_555 1_555
C33A C35A 1_555 1_555
C37A C38A 1_555 1_555
C37A C39A 1_555 1_555

#END
