
#######################################################################
#
#                 Cambridge Crystallographic Data Centre
#                                CCDC 
#
#######################################################################
#
# If this CIF has been generated from an entry in the Cambridge 
# Structural Database, then it will include bibliographic, chemical, 
# crystal, experimental, refinement or atomic coordinate data resulting 
# from the CCDC's data processing and validation procedures.
#
#######################################################################

data_EKIVID
_chemical_formula_moiety         'C14 H15 N1 O4 S1'
_chemical_name_systematic        
5,5-Dimethyl-3-p-toluenesulfonyl-4-vinylideneoxazolidin-2-one
_symmetry_cell_setting           triclinic
_symmetry_space_group_name_H-M   'P -1'
_symmetry_Int_Tables_number      2
_space_group_name_Hall           '-P 1'
loop_
_symmetry_equiv_pos_site_id
_symmetry_equiv_pos_as_xyz
1 x,y,z
2 -x,-y,-z
_cell_length_a                   8.5990(6)
_cell_length_b                   14.262(1)
_cell_length_c                   6.5001(5)
_cell_angle_alpha                93.350(7)
_cell_angle_beta                 111.571(5)
_cell_angle_gamma                83.973(7)
_cell_volume                     737.067
_exptl_crystal_colour            colorless
_exptl_crystal_description       prismatic
_chemical_melting_point          93.4-94.6deg.C
_cell_formula_units_Z            2
loop_
_atom_site_label
_atom_site_type_symbol
_atom_site_fract_x
_atom_site_fract_y
_atom_site_fract_z
S1 S 0.90118(7) 0.28726(4) 0.54746(9)
O1 O 0.4721(2) 0.2390(1) 0.5479(3)
O2 O 0.6210(2) 0.1549(1) 0.3706(3)
O3 O 0.8779(2) 0.2592(1) 0.3259(3)
O4 O 0.9615(2) 0.3764(1) 0.6329(3)
N1 N 0.7122(2) 0.2921(1) 0.5705(3)
C1 C 0.6034(3) 0.2211(2) 0.4836(4)
C2 C 0.4835(3) 0.3260(2) 0.6821(4)
C3 C 0.6611(2) 0.3501(2) 0.7260(3)
C4 C 0.3531(4) 0.4000(3) 0.5450(7)
C5 C 0.4572(4) 0.3036(3) 0.8912(5)
C6 C 0.7441(3) 0.4093(2) 0.8751(4)
C7 C 0.8189(4) 0.4684(2) 1.0296(5)
C8 C 1.0212(2) 0.1975(2) 0.7246(3)
C9 C 1.0738(3) 0.1146(2) 0.6391(5)
C10 C 1.1725(4) 0.0453(2) 0.7798(5)
C11 C 1.2177(3) 0.0561(2) 1.0060(5)
C12 C 1.1648(3) 0.1402(2) 1.0876(4)
C13 C 1.0676(3) 0.2107(2) 0.9511(4)
C14 C 1.3208(5) -0.0216(2) 1.1575(6)
H1 H 0.253(4) 0.379(2) 0.509(5)
H2 H 0.357(4) 0.459(2) 0.625(6)
H3 H 0.375(3) 0.415(2) 0.412(5)
H4 H 0.349(4) 0.284(2) 0.855(4)
H5 H 0.540(4) 0.259(2) 0.967(5)
H6 H 0.474(4) 0.362(2) 0.993(6)
H7 H 0.811(3) 0.535(2) 0.995(4)
H8 H 0.889(3) 0.445(2) 1.185(5)
H9 H 1.045(3) 0.110(2) 0.490(5)
H10 H 1.205(4) -0.010(2) 0.724(5)
H11 H 1.198(3) 0.149(2) 1.251(5)
H12 H 1.029(3) 0.269(2) 1.007(4)
H13 H 1.2658 -0.0763 1.1247
H14 H 1.4273 -0.0331 1.1371
H15 H 1.3429 -0.0014 1.3067
loop_
_geom_bond_atom_site_label_1
_geom_bond_atom_site_label_2
_geom_bond_site_symmetry_1
_geom_bond_site_symmetry_2
S1 O3 1_555 1_555
O1 C1 1_555 1_555
O2 C1 1_555 1_555
O4 S1 1_555 1_555
N1 S1 1_555 1_555
C1 N1 1_555 1_555
C2 O1 1_555 1_555
C3 N1 1_555 1_555
C4 C2 1_555 1_555
C5 C2 1_555 1_555
C6 C3 1_555 1_555
C7 C6 1_555 1_555
C8 S1 1_555 1_555
C9 C8 1_555 1_555
C10 C9 1_555 1_555
C11 C10 1_555 1_555
C12 C11 1_555 1_555
C13 C8 1_555 1_555
C14 C11 1_555 1_555
H1 C4 1_555 1_555
H2 C4 1_555 1_555
H3 C4 1_555 1_555
H4 C5 1_555 1_555
H5 C5 1_555 1_555
H6 C5 1_555 1_555
H7 C7 1_555 1_555
H8 C7 1_555 1_555
H9 C9 1_555 1_555
H10 C10 1_555 1_555
H11 C12 1_555 1_555
H12 C13 1_555 1_555
H13 C14 1_555 1_555
H14 C14 1_555 1_555
H15 C14 1_555 1_555
C2 C3 1_555 1_555
C12 C13 1_555 1_555

#END
