
#######################################################################
#
#                 Cambridge Crystallographic Data Centre
#                                CCDC 
#
#######################################################################
#
# If this CIF has been generated from an entry in the Cambridge 
# Structural Database, then it will include bibliographic, chemical, 
# crystal, experimental, refinement or atomic coordinate data resulting 
# from the CCDC's data processing and validation procedures.
#
#######################################################################

data_EKIWAY
_chemical_formula_moiety         'C29 H22 N2 O1,0.5(C12 H4 N4),C8 H10'
_chemical_name_systematic        
'1-(5-(9-Anthryl)-3-(2-naphthyl)-4,5-dihydro-1H-pyrazol-1-yl)ethanone hemikis(tetracyanoquinodimethane) p-xylene'
_symmetry_cell_setting           triclinic
_symmetry_space_group_name_H-M   'P -1'
_symmetry_Int_Tables_number      2
_space_group_name_Hall           '-P 1'
loop_
_symmetry_equiv_pos_site_id
_symmetry_equiv_pos_as_xyz
1 x,y,z
2 -x,-y,-z
_cell_length_a                   9.7190(19)
_cell_length_b                   10.356(2)
_cell_length_c                   17.804(4)
_cell_angle_alpha                74.09(3)
_cell_angle_beta                 86.73(3)
_cell_angle_gamma                85.69(3)
_cell_volume                     1717.21
_exptl_crystal_colour            black
_exptl_crystal_description       block
_cell_formula_units_Z            2
loop_
_atom_site_label
_atom_site_type_symbol
_atom_site_fract_x
_atom_site_fract_y
_atom_site_fract_z
O1 O 0.4976(2) 0.6533(2) 0.22073(12)
N1 N 0.5908(3) 0.5467(2) 0.33471(14)
C1 C 0.6804(3) 0.2800(3) 0.28170(16)
N2 N 0.6620(2) 0.5508(2) 0.39911(14)
C2 C 0.7952(3) 0.2993(3) 0.32319(19)
H1 H 0.7840 0.3589 0.3541
C3 C 0.9197(4) 0.2334(4) 0.3189(2)
H2 H 0.9920 0.2486 0.3468
C4 C 0.9418(4) 0.1419(4) 0.2727(3)
H3 H 1.0271 0.0953 0.2713
C5 C 0.8385(4) 0.1230(4) 0.2310(2)
H4 H 0.8542 0.0641 0.1999
C6 C 0.7046(3) 0.1905(3) 0.23268(18)
C7 C 0.5993(4) 0.1715(3) 0.18886(18)
H5 H 0.6157 0.1132 0.1574
C8 C 0.4703(3) 0.2365(3) 0.19037(17)
C9 C 0.3649(4) 0.2188(4) 0.1421(2)
H6 H 0.3834 0.1621 0.1098
C10 C 0.2398(4) 0.2825(4) 0.1425(2)
H7 H 0.1714 0.2680 0.1118
C11 C 0.2119(4) 0.3717(4) 0.1896(2)
H8 H 0.1255 0.4171 0.1887
C12 C 0.3085(3) 0.3924(4) 0.23606(19)
H9 H 0.2868 0.4519 0.2664
C13 C 0.4425(3) 0.3256(3) 0.23985(16)
C14 C 0.5477(3) 0.3435(3) 0.28691(15)
C15 C 0.5144(3) 0.4230(3) 0.34736(16)
H10 H 0.4153 0.4491 0.3464
C16 C 0.5495(3) 0.3494(3) 0.43187(16)
H11 H 0.4669 0.3372 0.4657
H12 H 0.5966 0.2622 0.4350
C17 C 0.6429(3) 0.4421(3) 0.45331(17)
C18 C 0.7160(3) 0.4130(3) 0.52627(17)
C19 C 0.8137(3) 0.5032(3) 0.53595(18)
H13 H 0.8269 0.5822 0.4968
C20 C 0.8865(3) 0.4753(4) 0.6009(2)
H14 H 0.9500 0.5351 0.6056
C21 C 0.8689(3) 0.3563(3) 0.66260(19)
C22 C 0.9444(4) 0.3256(4) 0.7313(2)
H15 H 1.0081 0.3844 0.7374
C23 C 0.9243(4) 0.2104(5) 0.7888(2)
H16 H 0.9744 0.1908 0.8339
C24 C 0.8292(4) 0.1213(4) 0.7805(2)
H17 H 0.8164 0.0430 0.8203
C25 C 0.7555(4) 0.1475(3) 0.71557(19)
H18 H 0.6925 0.0869 0.7111
C26 C 0.7728(3) 0.2655(3) 0.65423(17)
C27 C 0.6973(3) 0.2973(3) 0.58523(17)
H19 H 0.6334 0.2385 0.5796
C28 C 0.5723(3) 0.6574(3) 0.27281(18)
C29 C 0.6454(4) 0.7797(3) 0.2738(2)
H20 H 0.6982 0.7603 0.3200
H21 H 0.7060 0.8040 0.2283
H22 H 0.5786 0.8529 0.2737
C30 C 0.2296(8) 0.0889(7) 0.4419(6)
H23 H 0.1699 0.0971 0.4854
H24 H 0.2324 0.1748 0.4038
H25 H 0.1952 0.0250 0.4186
C31 C 0.3689(6) 0.0431(4) 0.4689(5)
C32 C 0.4831(7) 0.0197(4) 0.4236(3)
H26 H 0.4720 0.0335 0.3704
C33 C 0.6085(7) -0.0216(4) 0.4513(4)
H27 H 0.6810 -0.0361 0.4176
C30A C 0.7704(8) -0.0889(7) 0.5581(6)
H23A H 0.8301 -0.0971 0.5146
H24A H 0.7676 -0.1748 0.5962
H25A H 0.8048 -0.0250 0.5814
C31A C 0.6311(6) -0.0431(4) 0.5311(5)
C32A C 0.5169(7) -0.0197(4) 0.5764(3)
H26A H 0.5280 -0.0335 0.6296
C33A C 0.3915(7) 0.0216(4) 0.5487(4)
H27A H 0.3190 0.0361 0.5824
C34 C 0.7995(5) 0.9882(5) 0.0115(3)
H28 H 0.8379 1.0588 -0.0294
H29 H 0.8211 0.9987 0.0614
H30 H 0.8378 0.9026 0.0066
C35 C 0.6440(4) 0.9954(4) 0.0050(2)
C36 C 0.5658(5) 0.9037(4) 0.0577(2)
H31 H 0.6093 0.8377 0.0971
C37 C 0.5756(5) 1.0925(3) -0.0533(2)
H32 H 0.6260 1.1554 -0.0897
C34A C 0.2005(5) 1.0118(5) -0.0115(3)
H28A H 0.1621 0.9412 0.0294
H29A H 0.1789 1.0013 -0.0614
H30A H 0.1622 1.0974 -0.0066
C35A C 0.3560(4) 1.0046(4) -0.0050(2)
C36A C 0.4342(5) 1.0963(4) -0.0577(2)
H31A H 0.3907 1.1623 -0.0971
C37A C 0.4244(5) 0.9075(3) 0.0533(2)
H32A H 0.3740 0.8446 0.0897
N3 N 0.9554(4) 0.3178(4) 0.0118(2)
N4 N 0.8286(3) 0.5773(4) 0.1621(2)
C38 C 0.8704(4) 0.3835(4) 0.0322(2)
C39 C 0.7625(3) 0.4630(3) 0.05951(18)
C40 C 0.7984(3) 0.5248(4) 0.1170(2)
C41 C 0.6329(3) 0.4799(3) 0.03058(17)
C42 C 0.5244(3) 0.5574(3) 0.06060(18)
H33 H 0.5423 0.5941 0.1010
C43 C 0.3987(3) 0.5770(3) 0.03119(18)
H34 H 0.3307 0.6282 0.0509
N3A N 0.0446(4) 0.6822(4) -0.0118(2)
N4A N 0.1714(3) 0.4227(4) -0.1621(2)
C38A C 0.1296(4) 0.6165(4) -0.0322(2)
C39A C 0.2375(3) 0.5370(3) -0.05951(18)
C40A C 0.2016(3) 0.4752(4) -0.1170(2)
C41A C 0.3671(3) 0.5201(3) -0.03058(17)
C42A C 0.4756(3) 0.4426(3) -0.06060(18)
H33A H 0.4577 0.4059 -0.1010
C43A C 0.6013(3) 0.4230(3) -0.03119(18)
H34A H 0.6693 0.3718 -0.0509
loop_
_geom_bond_atom_site_label_1
_geom_bond_atom_site_label_2
_geom_bond_site_symmetry_1
_geom_bond_site_symmetry_2
O1 C28 1_555 1_555
N1 N2 1_555 1_555
C1 C2 1_555 1_555
N2 C17 1_555 1_555
C2 H1 1_555 1_555
C3 C2 1_555 1_555
H2 C3 1_555 1_555
C4 C3 1_555 1_555
H3 C4 1_555 1_555
C5 C4 1_555 1_555
H4 C5 1_555 1_555
C6 C1 1_555 1_555
C7 C6 1_555 1_555
H5 C7 1_555 1_555
C8 C7 1_555 1_555
C9 C8 1_555 1_555
H6 C9 1_555 1_555
C10 C9 1_555 1_555
H7 C10 1_555 1_555
C11 C10 1_555 1_555
H8 C11 1_555 1_555
C12 C11 1_555 1_555
H9 C12 1_555 1_555
C13 C8 1_555 1_555
C14 C1 1_555 1_555
C15 N1 1_555 1_555
H10 C15 1_555 1_555
C16 C15 1_555 1_555
H11 C16 1_555 1_555
H12 C16 1_555 1_555
C17 C16 1_555 1_555
C18 C17 1_555 1_555
C19 C18 1_555 1_555
H13 C19 1_555 1_555
C20 C19 1_555 1_555
H14 C20 1_555 1_555
C21 C20 1_555 1_555
C22 C21 1_555 1_555
H15 C22 1_555 1_555
C23 C22 1_555 1_555
H16 C23 1_555 1_555
C24 C23 1_555 1_555
H17 C24 1_555 1_555
C25 C24 1_555 1_555
H18 C25 1_555 1_555
C26 C21 1_555 1_555
C27 C18 1_555 1_555
H19 C27 1_555 1_555
C28 N1 1_555 1_555
C29 C28 1_555 1_555
H20 C29 1_555 1_555
H21 C29 1_555 1_555
H22 C29 1_555 1_555
C30 H23 1_555 1_555
H24 C30 1_555 1_555
H25 C30 1_555 1_555
C31 C30 1_555 1_555
C32 C31 1_555 1_555
H26 C32 1_555 1_555
C33 C32 1_555 1_555
H27 C33 1_555 1_555
C34 H28 1_555 1_555
H29 C34 1_555 1_555
H30 C34 1_555 1_555
C35 C34 1_555 1_555
C36 C35 1_555 1_555
H31 C36 1_555 1_555
C37 C35 1_555 1_555
H32 C37 1_555 1_555
N3 C38 1_555 1_555
N4 C40 1_555 1_555
C38 C39 1_555 1_555
C39 C40 1_555 1_555
C41 C39 1_555 1_555
C42 C41 1_555 1_555
H33 C42 1_555 1_555
C43 C42 1_555 1_555
H34 C43 1_555 1_555
C30A H23A 1_555 1_555
H24A C30A 1_555 1_555
H25A C30A 1_555 1_555
C31A C33 1_555 1_555
C32A C31A 1_555 1_555
H26A C32A 1_555 1_555
C33A C31 1_555 1_555
H27A C33A 1_555 1_555
C34A H28A 1_555 1_555
H29A C34A 1_555 1_555
H30A C34A 1_555 1_555
C35A C34A 1_555 1_555
C36A C37 1_555 1_555
H31A C36A 1_555 1_555
C37A C36 1_555 1_555
H32A C37A 1_555 1_555
N3A C38A 1_555 1_555
N4A C40A 1_555 1_555
C38A C39A 1_555 1_555
C39A C40A 1_555 1_555
C41A C43 1_555 1_555
C42A C41A 1_555 1_555
H33A C42A 1_555 1_555
C43A C41 1_555 1_555
H34A C43A 1_555 1_555
C5 C6 1_555 1_555
C12 C13 1_555 1_555
C13 C14 1_555 1_555
C14 C15 1_555 1_555
C25 C26 1_555 1_555
C26 C27 1_555 1_555
C30A C31A 1_555 1_555
C32A C33A 1_555 1_555
C35A C36A 1_555 1_555
C35A C37A 1_555 1_555
C39A C41A 1_555 1_555
C42A C43A 1_555 1_555

#END
