
#######################################################################
#
#                 Cambridge Crystallographic Data Centre
#                                CCDC 
#
#######################################################################
#
# If this CIF has been generated from an entry in the Cambridge 
# Structural Database, then it will include bibliographic, chemical, 
# crystal, experimental, refinement or atomic coordinate data resulting 
# from the CCDC's data processing and validation procedures.
#
#######################################################################

data_EKIWAW
_chemical_formula_moiety         'C16 H17 N1 O6 S1'
_chemical_name_systematic        
4-(3-Methoxycarbonylcyclobutylidene)-3-p-toluenesulfonyloxazolidin-2-one
_symmetry_cell_setting           monoclinic
_symmetry_space_group_name_H-M   'P 21/n'
_symmetry_Int_Tables_number      14
_space_group_name_Hall           '-P 2yn'
loop_
_symmetry_equiv_pos_site_id
_symmetry_equiv_pos_as_xyz
1 x,y,z
2 1/2-x,1/2+y,1/2-z
3 -x,-y,-z
4 1/2+x,1/2-y,1/2+z
_cell_length_a                   8.378(2)
_cell_length_b                   12.754(3)
_cell_length_c                   14.861(2)
_cell_angle_alpha                90
_cell_angle_beta                 91.56(1)
_cell_angle_gamma                90
_cell_volume                     1587.35
_exptl_crystal_colour            colorless
_exptl_crystal_description       prismatic
_chemical_melting_point          152.8-153.5deg.C
_cell_formula_units_Z            4
loop_
_atom_site_label
_atom_site_type_symbol
_atom_site_fract_x
_atom_site_fract_y
_atom_site_fract_z
S1 S 0.3397(2) 0.0871(1) 0.21914(10)
O1 O -0.0043(6) 0.1338(4) 0.2783(3)
O2 O 0.0053(5) -0.0036(4) 0.3720(3)
O3 O 0.8087(7) -0.3065(4) 0.4521(4)
O4 O 0.8136(7) -0.1543(5) 0.5160(4)
O5 O 0.2329(6) 0.1271(4) 0.1521(3)
O6 O 0.4526(5) 0.0089(3) 0.1957(3)
N1 N 0.2294(5) 0.0332(4) 0.2987(3)
C1 C 0.0651(7) 0.0641(6) 0.3116(5)
C2 C 0.1244(8) -0.0789(6) 0.4042(5)
C3 C 0.2761(6) -0.0461(4) 0.3625(4)
C4 C 0.4141(6) -0.0862(4) 0.3848(4)
C5 C 0.5915(8) -0.0832(6) 0.3608(5)
C6 C 0.6063(9) -0.1947(6) 0.4050(5)
C7 C 0.4457(8) -0.1727(5) 0.4539(5)
C8 C 0.7485(8) -0.2140(6) 0.4631(4)
C9 C 0.9522(9) -0.3309(7) 0.5108(6)
C10 C 0.4363(8) 0.1913(4) 0.2733(4)
C11 C 0.6061(7) 0.1933(5) 0.2806(5)
C12 C 0.6775(8) 0.2779(6) 0.3224(5)
C13 C 0.5893(8) 0.3590(5) 0.3576(4)
C14 C 0.4212(8) 0.3549(5) 0.3485(5)
C15 C 0.3480(9) 0.2726(5) 0.3067(4)
C16 C 0.667(1) 0.4525(7) 0.4041(7)
H1 H 0.764(9) 0.469(5) 0.386(5)
H2 H 0.60(1) 0.516(8) 0.394(6)
H3 H 0.68(1) 0.435(7) 0.470(6)
H4 H 0.75(1) 0.277(10) 0.324(9)
H5 H 0.674(10) 0.138(7) 0.262(6)
H6 H 0.378(7) 0.407(5) 0.372(4)
H7 H 0.238(9) 0.262(6) 0.308(5)
H8 H 0.07(1) -0.142(9) 0.379(8)
H9 H 0.124(9) -0.076(6) 0.465(6)
H10 H 0.60(1) -0.079(7) 0.294(7)
H11 H 0.646(8) -0.023(6) 0.391(5)
H12 H 0.481(6) -0.147(4) 0.513(4)
H13 H 0.376(9) -0.234(6) 0.455(5)
H14 H 0.9873 -0.4006 0.4989
H15 H 1.0357 -0.2832 0.4981
H16 H 0.9256 -0.3253 0.5722
H17 H 0.6204 -0.1280 0.4605
loop_
_geom_bond_atom_site_label_1
_geom_bond_atom_site_label_2
_geom_bond_site_symmetry_1
_geom_bond_site_symmetry_2
S1 O5 1_555 1_555
O1 C1 1_555 1_555
O2 C1 1_555 1_555
O3 C8 1_555 1_555
O4 C8 1_555 1_555
O6 S1 1_555 1_555
N1 S1 1_555 1_555
C1 N1 1_555 1_555
C2 O2 1_555 1_555
C3 N1 1_555 1_555
C4 C3 1_555 1_555
C5 C4 1_555 1_555
C6 C5 1_555 1_555
C7 C4 1_555 1_555
C8 C6 1_555 1_555
C9 O3 1_555 1_555
C10 S1 1_555 1_555
C11 C10 1_555 1_555
C12 C11 1_555 1_555
C13 C12 1_555 1_555
C14 C13 1_555 1_555
C15 C10 1_555 1_555
C16 C13 1_555 1_555
H1 C16 1_555 1_555
H2 C16 1_555 1_555
H3 C16 1_555 1_555
H4 C12 1_555 1_555
H5 C11 1_555 1_555
H6 C14 1_555 1_555
H7 C15 1_555 1_555
H8 C2 1_555 1_555
H9 C2 1_555 1_555
H10 C5 1_555 1_555
H11 C5 1_555 1_555
H12 C7 1_555 1_555
H13 C7 1_555 1_555
H14 C9 1_555 1_555
H15 C9 1_555 1_555
H16 C9 1_555 1_555
H17 C6 1_555 1_555
C2 C3 1_555 1_555
C6 C7 1_555 1_555
C14 C15 1_555 1_555

#END
