
#######################################################################
#
#                 Cambridge Crystallographic Data Centre
#                                CCDC 
#
#######################################################################
#
# If this CIF has been generated from an entry in the Cambridge 
# Structural Database, then it will include bibliographic, chemical, 
# crystal, experimental, refinement or atomic coordinate data resulting 
# from the CCDC's data processing and validation procedures.
#
#######################################################################

data_EKOGAO01
_chemical_formula_moiety         'C27 H38 O3'
_chemical_name_systematic        
(2S,3S)-3,7-dimethyl-3-((E)-6-methyl-3-oxohept-1-en-1-yl)-2-(5-methyl-2-oxohexyl)-3,4-dihydronaphthalen-1(2H)-one
_symmetry_cell_setting           monoclinic
_symmetry_space_group_name_H-M   'P 21'
_symmetry_Int_Tables_number      4
_space_group_name_Hall           'P 2yb'
loop_
_symmetry_equiv_pos_site_id
_symmetry_equiv_pos_as_xyz
1 x,y,z
2 -x,1/2+y,-z
_cell_length_a                   5.8458(3)
_cell_length_b                   12.3784(6)
_cell_length_c                   16.7657(12)
_cell_angle_alpha                90
_cell_angle_beta                 98.058(6)
_cell_angle_gamma                90
_cell_volume                     1201.22
_exptl_crystal_colour            yellow
_exptl_crystal_description       monoclinic
_cell_formula_units_Z            2
loop_
_atom_site_label
_atom_site_type_symbol
_atom_site_fract_x
_atom_site_fract_y
_atom_site_fract_z
O1 O -0.3388(3) -0.26795(14) -0.36845(10)
O2 O -1.3599(3) -0.51955(15) -0.62578(10)
O3 O -0.9375(3) -0.24170(15) -0.57771(10)
C1 C -0.5072(4) -0.32454(17) -0.36398(13)
C2 C -1.1671(3) -0.55391(18) -0.63124(13)
C3 C -0.5461(4) -0.37417(18) -0.28594(13)
C4 C -0.9762(3) -0.47900(18) -0.50324(14)
H1 H -1.1063 -0.4354 -0.5050
C5 C -0.7367(4) -0.43980(18) -0.28065(14)
C6 C -0.6860(4) -0.34756(17) -0.43758(13)
H2 H -0.8132 -0.2964 -0.4360
C7 C -0.5871(4) -0.32653(18) -0.51556(13)
H3 H -0.4630 -0.2743 -0.5045
H4 H -0.5198 -0.3932 -0.5318
C8 C -0.3797(4) -0.35643(19) -0.21735(13)
H5 H -0.2512 -0.3138 -0.2219
C9 C -0.7561(4) -0.28544(19) -0.58573(14)
C10 C -0.9732(4) -0.54927(19) -0.56334(13)
H6 H -0.8485 -0.5960 -0.5629
C11 C -0.7655(4) -0.4828(2) -0.20594(14)
H7 H -0.8947 -0.5249 -0.2011
C12 C -0.7886(3) -0.46347(18) -0.43248(12)
C13 C -0.9054(4) -0.4658(2) -0.35492(13)
H8 H -1.0308 -0.4139 -0.3600
H9 H -0.9706 -0.5370 -0.3490
C14 C -0.6020(3) -0.55106(18) -0.42923(13)
H10 H -0.6712 -0.6208 -0.4249
H11 H -0.4870 -0.5390 -0.3833
H12 H -0.5311 -0.5482 -0.4775
C15 C -1.1077(4) -0.6039(2) -0.70831(13)
H13 H -1.0750 -0.6800 -0.6989
H14 H -0.9682 -0.5702 -0.7217
C16 C -1.2972(4) -0.5928(2) -0.77995(13)
H15 H -1.3355 -0.5169 -0.7877
H16 H -1.4343 -0.6298 -0.7677
C17 C -0.4056(4) -0.4016(2) -0.14366(14)
C18 C -1.2320(4) -0.6381(2) -0.85834(13)
H17 H -1.1917 -0.7145 -0.8499
C19 C -0.7645(4) -0.2842(2) -0.81926(14)
H18 H -0.8115 -0.3602 -0.8227
C20 C -0.6763(4) -0.30292(19) -0.66674(14)
H19 H -0.6876 -0.3794 -0.6792
H20 H -0.5145 -0.2832 -0.6622
C21 C -0.6031(4) -0.4636(2) -0.13850(14)
H21 H -0.6263 -0.4924 -0.0890
C22 C -1.4384(4) -0.6306(2) -0.92546(14)
H22 H -1.5650 -0.6717 -0.9106
H23 H -1.3953 -0.6588 -0.9746
H24 H -1.4840 -0.5564 -0.9333
C23 C -0.8079(4) -0.2407(2) -0.73731(14)
H25 H -0.7623 -0.1653 -0.7331
H26 H -0.9720 -0.2444 -0.7339
C24 C -0.2236(4) -0.3863(2) -0.07090(15)
H27 H -0.1504 -0.4543 -0.0563
H28 H -0.2950 -0.3594 -0.0267
H29 H -0.1100 -0.3355 -0.0836
C25 C -1.0262(4) -0.5801(3) -0.88452(15)
H30 H -1.0613 -0.5047 -0.8919
H31 H -0.9928 -0.6103 -0.9343
H32 H -0.8943 -0.5886 -0.8439
C26 C -0.9109(5) -0.2228(3) -0.88750(16)
H33 H -1.0707 -0.2265 -0.8802
H34 H -0.8911 -0.2549 -0.9382
H35 H -0.8626 -0.1487 -0.8869
C27 C -0.5120(4) -0.2782(2) -0.83027(16)
H36 H -0.4610 -0.2044 -0.8256
H37 H -0.4930 -0.3054 -0.8826
H38 H -0.4219 -0.3209 -0.7896
loop_
_geom_bond_atom_site_label_1
_geom_bond_atom_site_label_2
_geom_bond_site_symmetry_1
_geom_bond_site_symmetry_2
O1 C1 1_555 1_555
O2 C2 1_555 1_555
O3 C9 1_555 1_555
C1 C3 1_555 1_555
C2 C10 1_555 1_555
C3 C5 1_555 1_555
C4 H1 1_555 1_555
C5 C11 1_555 1_555
C6 C1 1_555 1_555
H2 C6 1_555 1_555
C7 C6 1_555 1_555
H3 C7 1_555 1_555
H4 C7 1_555 1_555
C8 C3 1_555 1_555
H5 C8 1_555 1_555
C9 C7 1_555 1_555
C10 C4 1_555 1_555
H6 C10 1_555 1_555
C11 H7 1_555 1_555
C12 C4 1_555 1_555
C13 C5 1_555 1_555
H8 C13 1_555 1_555
H9 C13 1_555 1_555
C14 C12 1_555 1_555
H10 C14 1_555 1_555
H11 C14 1_555 1_555
H12 C14 1_555 1_555
C15 C2 1_555 1_555
H13 C15 1_555 1_555
H14 C15 1_555 1_555
C16 C15 1_555 1_555
H15 C16 1_555 1_555
H16 C16 1_555 1_555
C17 C8 1_555 1_555
C18 C16 1_555 1_555
H17 C18 1_555 1_555
C19 H18 1_555 1_555
C20 C9 1_555 1_555
H19 C20 1_555 1_555
H20 C20 1_555 1_555
C21 C11 1_555 1_555
H21 C21 1_555 1_555
C22 C18 1_555 1_555
H22 C22 1_555 1_555
H23 C22 1_555 1_555
H24 C22 1_555 1_555
C23 C19 1_555 1_555
H25 C23 1_555 1_555
H26 C23 1_555 1_555
C24 C17 1_555 1_555
H27 C24 1_555 1_555
H28 C24 1_555 1_555
H29 C24 1_555 1_555
C25 C18 1_555 1_555
H30 C25 1_555 1_555
H31 C25 1_555 1_555
H32 C25 1_555 1_555
C26 C19 1_555 1_555
H33 C26 1_555 1_555
H34 C26 1_555 1_555
H35 C26 1_555 1_555
C27 C19 1_555 1_555
H36 C27 1_555 1_555
H37 C27 1_555 1_555
H38 C27 1_555 1_555
C6 C12 1_555 1_555
C12 C13 1_555 1_555
C17 C21 1_555 1_555
C20 C23 1_555 1_555

#END
