
#######################################################################
#
#                 Cambridge Crystallographic Data Centre
#                                CCDC 
#
#######################################################################
#
# If this CIF has been generated from an entry in the Cambridge 
# Structural Database, then it will include bibliographic, chemical, 
# crystal, experimental, refinement or atomic coordinate data resulting 
# from the CCDC's data processing and validation procedures.
#
#######################################################################

data_EKOJIZ
_chemical_formula_moiety         'C22 H16 N4 O3,0.5(C4 H8 O2)'
_chemical_name_systematic        
'12,12-dimethyl-2-nitro-12,13-dihydroimidazo[4,5,1-de]quinolino[4,3,2-mn]acridin-14(11H)-one 1,4-dioxane solvate'
_symmetry_cell_setting           triclinic
_symmetry_space_group_name_H-M   'P -1'
_symmetry_Int_Tables_number      2
_space_group_name_Hall           '-P 1'
loop_
_symmetry_equiv_pos_site_id
_symmetry_equiv_pos_as_xyz
1 x,y,z
2 -x,-y,-z
_cell_length_a                   8.9494(14)
_cell_length_b                   9.3962(14)
_cell_length_c                   12.795(2)
_cell_angle_alpha                74.180(6)
_cell_angle_beta                 84.419(7)
_cell_angle_gamma                74.758(6)
_cell_volume                     998.39
_exptl_crystal_colour            orange
_cell_formula_units_Z            2
loop_
_atom_site_label
_atom_site_type_symbol
_atom_site_fract_x
_atom_site_fract_y
_atom_site_fract_z
N1 N 0.78054(15) 0.50145(14) 0.40059(10)
N2 N 0.68721(18) 0.04771(16) 0.76319(11)
N3 N 0.53035(15) 0.12057(14) 0.62136(10)
N4 N 0.06394(17) 0.24054(19) 0.32531(14)
C1 C 0.76220(18) 0.39497(17) 0.49327(12)
C2 C 0.8608(2) 0.35671(19) 0.58331(13)
H1 H 0.9370 0.4092 0.5787
C3 C 0.8476(2) 0.2453(2) 0.67652(13)
H2 H 0.9150 0.2215 0.7332
C4 C 0.72945(19) 0.16751(18) 0.68480(12)
C5 C 0.5698(2) 0.02341(19) 0.72359(13)
H3 H 0.5181 -0.0507 0.7598
C6 C 0.41532(18) 0.14772(17) 0.54669(12)
C7 C 0.2963(2) 0.07263(19) 0.57385(14)
H4 H 0.2951 0.0024 0.6409
C8 C 0.1814(2) 0.1018(2) 0.50233(15)
H5 H 0.1025 0.0509 0.5195
C9 C 0.18497(18) 0.20841(19) 0.40403(14)
C10 C 0.29977(17) 0.28531(18) 0.37557(13)
H6 H 0.2957 0.3586 0.3096
C11 C 0.42230(17) 0.25507(16) 0.44424(12)
C12 C 0.54812(17) 0.33683(16) 0.41604(11)
C13 C 0.58278(17) 0.43356(16) 0.31786(12)
C14 C 0.52712(18) 0.44193(19) 0.20920(12)
C15 C 0.50899(19) 0.5919(2) 0.12806(13)
H7 H 0.4310 0.6688 0.1540
H8 H 0.4750 0.5856 0.0601
C16 C 0.66406(19) 0.63740(19) 0.10924(12)
C17 C 0.7159(2) 0.64429(18) 0.21806(13)
H9 H 0.8250 0.6434 0.2107
H10 H 0.6602 0.7414 0.2315
C18 C 0.69394(17) 0.51953(16) 0.31696(12)
C19 C 0.63312(18) 0.21047(17) 0.59913(12)
C20 C 0.64353(17) 0.31792(16) 0.50186(11)
C21 C 0.7841(2) 0.5220(2) 0.06263(16)
H11 H 0.7481 0.5165 -0.0041
H12 H 0.8006 0.4235 0.1137
H13 H 0.8798 0.5529 0.0488
C22 C 0.6390(3) 0.7952(2) 0.02878(16)
H14 H 0.6093 0.7897 -0.0398
H15 H 0.7334 0.8283 0.0191
H16 H 0.5586 0.8667 0.0566
O1 O 0.51012(16) 0.32829(15) 0.18836(10)
O2 O 0.06759(18) 0.3377(2) 0.24073(14)
O3 O -0.03499(16) 0.16817(18) 0.34829(14)
C23 C 1.0725(4) -0.0604(4) 0.9178(2)
H17 H 1.1660 -0.0925 0.8764
H18 H 0.9882 -0.0855 0.8902
C24 C 0.9069(4) 0.1405(3) 0.9690(3)
H19 H 0.8192 0.1190 0.9428
H20 H 0.8837 0.2495 0.9617
O4 O 1.0394(2) 0.0984(2) 0.90445(14)
C23A C 0.9275(4) 0.0604(4) 1.0822(2)
H17A H 0.8340 0.0925 1.1236
H18A H 1.0118 0.0855 1.1098
C24A C 1.0931(4) -0.1405(3) 1.0310(3)
H19A H 1.1808 -0.1190 1.0572
H20A H 1.1163 -0.2495 1.0383
O4A O 0.9606(2) -0.0984(2) 1.09555(14)
loop_
_geom_bond_atom_site_label_1
_geom_bond_atom_site_label_2
_geom_bond_site_symmetry_1
_geom_bond_site_symmetry_2
N1 C1 1_555 1_555
N2 C4 1_555 1_555
N3 C5 1_555 1_555
N4 C9 1_555 1_555
C1 C2 1_555 1_555
C2 H1 1_555 1_555
C3 C2 1_555 1_555
H2 C3 1_555 1_555
C4 C3 1_555 1_555
C5 N2 1_555 1_555
H3 C5 1_555 1_555
C6 N3 1_555 1_555
C7 C6 1_555 1_555
H4 C7 1_555 1_555
C8 C7 1_555 1_555
H5 C8 1_555 1_555
C9 C8 1_555 1_555
C10 C9 1_555 1_555
H6 C10 1_555 1_555
C11 C6 1_555 1_555
C12 C11 1_555 1_555
C13 C12 1_555 1_555
C14 C13 1_555 1_555
C15 C14 1_555 1_555
H7 C15 1_555 1_555
H8 C15 1_555 1_555
C16 C15 1_555 1_555
C17 C16 1_555 1_555
H9 C17 1_555 1_555
H10 C17 1_555 1_555
C18 N1 1_555 1_555
C19 N3 1_555 1_555
C20 C1 1_555 1_555
C21 C16 1_555 1_555
H11 C21 1_555 1_555
H12 C21 1_555 1_555
H13 C21 1_555 1_555
C22 C16 1_555 1_555
H14 C22 1_555 1_555
H15 C22 1_555 1_555
H16 C22 1_555 1_555
O1 C14 1_555 1_555
O2 N4 1_555 1_555
O3 N4 1_555 1_555
C23 H17 1_555 1_555
H18 C23 1_555 1_555
C24 H19 1_555 1_555
H20 C24 1_555 1_555
O4 C23 1_555 1_555
C23A C24 1_555 1_555
H17A C23A 1_555 1_555
H18A C23A 1_555 1_555
C24A C23 1_555 1_555
H19A C24A 1_555 1_555
H20A C24A 1_555 1_555
O4A C23A 1_555 1_555
C4 C19 1_555 1_555
C10 C11 1_555 1_555
C12 C20 1_555 1_555
C13 C18 1_555 1_555
C17 C18 1_555 1_555
C19 C20 1_555 1_555
C24 O4 1_555 1_555
C24A O4A 1_555 1_555

#END
