
#######################################################################
#
#                 Cambridge Crystallographic Data Centre
#                                CCDC 
#
#######################################################################
#
# If this CIF has been generated from an entry in the Cambridge 
# Structural Database, then it will include bibliographic, chemical, 
# crystal, experimental, refinement or atomic coordinate data resulting 
# from the CCDC's data processing and validation procedures.
#
#######################################################################

data_EKOKOE
_chemical_formula_moiety         'C21 H30 O3'
_chemical_name_systematic        '6\a-Hydroxysugiyl methyl ether'
_symmetry_cell_setting           triclinic
_symmetry_space_group_name_H-M   'P 1'
_symmetry_Int_Tables_number      1
_space_group_name_Hall           'P 1'
loop_
_symmetry_equiv_pos_site_id
_symmetry_equiv_pos_as_xyz
1 x,y,z
_cell_length_a                   8.038(2)
_cell_length_b                   10.391(2)
_cell_length_c                   12.299(2)
_cell_angle_alpha                100.51(3)
_cell_angle_beta                 107.29(3)
_cell_angle_gamma                104.90(3)
_cell_volume                     909.795
_exptl_crystal_colour            colorless
_exptl_crystal_description       block
_chemical_melting_point          '171-172 deg.C'
_cell_formula_units_Z            2
loop_
_atom_site_label
_atom_site_type_symbol
_atom_site_fract_x
_atom_site_fract_y
_atom_site_fract_z
C1 C 0.4622(10) 0.5947(7) 1.0462(6)
C2 C 0.5775(13) 0.4954(9) 1.0398(7)
H1 H 0.4965 0.4047 0.9905
H2 H 0.6326 0.4876 1.1180
C3 C 0.7337(11) 0.5450(10) 0.9918(6)
H3 H 0.7979 0.4790 0.9890
H4 H 0.8209 0.6324 1.0440
C4 C 0.6459(9) 0.5589(8) 0.8664(7)
H5 H 0.5632 0.4705 0.8134
H6 H 0.7444 0.5893 0.8382
C5 C 0.5468(7) 0.6676(5) 0.8661(5)
C6 C 0.3966(8) 0.6303(6) 0.9241(5)
H7 H 0.3065 0.5449 0.8701
C7 C 0.2955(9) 0.7360(6) 0.9179(5)
H8 H 0.3871 0.8265 0.9545
C8 C 0.1952(8) 0.7295(8) 0.7923(6)
C9 C 0.2913(10) 0.7073(7) 0.7079(6)
C10 C 0.4516(7) 0.6728(5) 0.7442(5)
C11 C 0.5289(8) 0.6465(7) 0.6519(6)
H9 H 0.6393 0.6221 0.6708
C12 C 0.4447(9) 0.6540(8) 0.5400(7)
C13 C 0.2823(8) 0.6924(7) 0.5086(6)
C14 C 0.2138(9) 0.7173(8) 0.5942(7)
H10 H 0.1061 0.7452 0.5770
C15 C 0.1998(10) 0.6952(10) 0.3813(6)
H11 H 0.2991 0.7228 0.3532
C16 C 0.0960(12) 0.8030(10) 0.3726(7)
H12 H 0.0454 0.8018 0.2910
H13 H -0.0021 0.7792 0.4024
H14 H 0.1804 0.8941 0.4184
C17 C 0.0701(15) 0.5540(11) 0.3002(7)
H15 H 0.1319 0.4864 0.3049
H16 H -0.0347 0.5267 0.3234
H17 H 0.0295 0.5602 0.2202
C18 C 0.6856(11) 0.6012(12) 0.4839(9)
H18 H 0.7217 0.5886 0.4160
H19 H 0.7810 0.6760 0.5477
H20 H 0.6668 0.5174 0.5080
C19 C 0.6954(8) 0.8114(7) 0.9285(6)
H21 H 0.7796 0.8249 0.8869
H22 H 0.6403 0.8832 0.9285
H23 H 0.7612 0.8150 1.0088
C20 C 0.5810(13) 0.7302(10) 1.1517(6)
H24 H 0.6159 0.7051 1.2245
H25 H 0.6899 0.7748 1.1376
H26 H 0.5122 0.7926 1.1573
C21 C 0.2935(12) 0.5171(12) 1.0734(8)
H27 H 0.2181 0.4351 1.0092
H28 H 0.3344 0.4917 1.1455
H29 H 0.2227 0.5773 1.0819
O1 O 0.1677(9) 0.7235(7) 0.9789(5)
H30 H 0.1166 0.7853 0.9723
O2 O 0.0513(9) 0.7505(8) 0.7661(5)
O3 O 0.5161(7) 0.6351(6) 0.4536(5)
C22 C 0.9801(10) 1.2115(8) 0.5610(6)
C23 C 0.8721(14) 1.3082(9) 0.5705(7)
H31 H 0.9587 1.3991 0.6187
H32 H 0.8156 1.3164 0.4917
C24 C 0.7253(13) 1.2722(10) 0.6204(8)
H33 H 0.6318 1.1859 0.5708
H34 H 0.6688 1.3431 0.6239
C25 C 0.8042(10) 1.2576(9) 0.7432(6)
H35 H 0.7115 1.2370 0.7778
H36 H 0.8966 1.3446 0.7920
C26 C 0.9001(8) 1.1461(6) 0.7418(5)
C27 C 1.0478(8) 1.1847(6) 0.6842(6)
H37 H 1.1390 1.2704 0.7369
C28 C 1.1480(8) 1.0749(7) 0.6866(5)
H38 H 1.0590 0.9844 0.6443
C29 C 1.2435(9) 1.0785(5) 0.8182(5)
C30 C 1.1570(7) 1.1073(6) 0.9013(5)
C31 C 0.9949(8) 1.1444(5) 0.8725(4)
C32 C 0.9195(7) 1.1650(5) 0.9529(5)
H39 H 0.8078 1.1877 0.9327
C33 C 0.9965(7) 1.1540(6) 1.0699(5)
C34 C 1.1562(8) 1.1189(7) 1.1017(5)
C35 C 1.2359(9) 1.0956(8) 1.0161(6)
H40 H 1.3468 1.0719 1.0367
C36 C 1.2486(8) 1.1102(8) 1.2265(6)
H41 H 1.1549 1.0797 1.2585
C37 C 1.3573(13) 1.0126(10) 1.2318(8)
H42 H 1.2772 0.9207 1.1851
H43 H 1.4521 1.0427 1.2006
H44 H 1.4129 1.0124 1.3125
C38 C 1.3765(12) 1.2590(10) 1.3020(7)
H45 H 1.4380 1.2589 1.3819
H46 H 1.4667 1.2923 1.2682
H47 H 1.3028 1.3185 1.3023
C39 C 0.7688(12) 1.2114(10) 1.1311(6)
H48 H 0.7386 1.2266 1.2012
H49 H 0.7855 1.2939 1.1051
H50 H 0.6704 1.1360 1.0696
C40 C 0.7496(9) 0.9986(8) 0.6798(5)
H51 H 0.6643 0.9828 0.7204
H52 H 0.6838 0.9920 0.5987
H53 H 0.8102 0.9301 0.6823
C41 C 1.1461(17) 1.2915(11) 0.5373(10)
H54 H 1.1041 1.3096 0.4618
H55 H 1.2125 1.3777 0.5983
H56 H 1.2261 1.2371 0.5359
C42 C 0.8724(13) 1.0825(10) 0.4580(7)
H57 H 0.8334 1.1078 0.3856
H58 H 0.9519 1.0285 0.4530
H59 H 0.7662 1.0288 0.4700
O4 O 1.2827(9) 1.1004(11) 0.6371(6)
H60 H 1.2347 1.0992 0.5652
O5 O 1.4004(8) 1.0670(9) 0.8464(6)
O6 O 0.9276(9) 1.1814(7) 1.1561(5)
loop_
_geom_bond_atom_site_label_1
_geom_bond_atom_site_label_2
_geom_bond_site_symmetry_1
_geom_bond_site_symmetry_2
C1 C2 1_555 1_555
C2 H1 1_555 1_555
H2 C2 1_555 1_555
C3 C2 1_555 1_555
H3 C3 1_555 1_555
H4 C3 1_555 1_555
C4 C3 1_555 1_555
H5 C4 1_555 1_555
H6 C4 1_555 1_555
C5 C4 1_555 1_555
C6 C1 1_555 1_555
H7 C6 1_555 1_555
C7 C6 1_555 1_555
H8 C7 1_555 1_555
C8 C7 1_555 1_555
C9 C8 1_555 1_555
C10 C5 1_555 1_555
C11 C10 1_555 1_555
H9 C11 1_555 1_555
C12 C11 1_555 1_555
C13 C12 1_555 1_555
C14 C9 1_555 1_555
H10 C14 1_555 1_555
C15 C13 1_555 1_555
H11 C15 1_555 1_555
C16 C15 1_555 1_555
H12 C16 1_555 1_555
H13 C16 1_555 1_555
H14 C16 1_555 1_555
C17 C15 1_555 1_555
H15 C17 1_555 1_555
H16 C17 1_555 1_555
H17 C17 1_555 1_555
C18 H18 1_555 1_555
H19 C18 1_555 1_555
H20 C18 1_555 1_555
C19 C5 1_555 1_555
H21 C19 1_555 1_555
H22 C19 1_555 1_555
H23 C19 1_555 1_555
C20 C1 1_555 1_555
H24 C20 1_555 1_555
H25 C20 1_555 1_555
H26 C20 1_555 1_555
C21 C1 1_555 1_555
H27 C21 1_555 1_555
H28 C21 1_555 1_555
H29 C21 1_555 1_555
O1 C7 1_555 1_555
H30 O1 1_555 1_555
O2 C8 1_555 1_555
O3 C12 1_555 1_555
C22 C23 1_555 1_555
C23 H31 1_555 1_555
H32 C23 1_555 1_555
C24 C23 1_555 1_555
H33 C24 1_555 1_555
H34 C24 1_555 1_555
C25 C24 1_555 1_555
H35 C25 1_555 1_555
H36 C25 1_555 1_555
C26 C25 1_555 1_555
C27 C22 1_555 1_555
H37 C27 1_555 1_555
C28 C27 1_555 1_555
H38 C28 1_555 1_555
C29 C28 1_555 1_555
C30 C29 1_555 1_555
C31 C26 1_555 1_555
C32 C31 1_555 1_555
H39 C32 1_555 1_555
C33 C32 1_555 1_555
C34 C33 1_555 1_555
C35 C30 1_555 1_555
H40 C35 1_555 1_555
C36 C34 1_555 1_555
H41 C36 1_555 1_555
C37 C36 1_555 1_555
H42 C37 1_555 1_555
H43 C37 1_555 1_555
H44 C37 1_555 1_555
C38 C36 1_555 1_555
H45 C38 1_555 1_555
H46 C38 1_555 1_555
H47 C38 1_555 1_555
C39 H48 1_555 1_555
H49 C39 1_555 1_555
H50 C39 1_555 1_555
C40 C26 1_555 1_555
H51 C40 1_555 1_555
H52 C40 1_555 1_555
H53 C40 1_555 1_555
C41 C22 1_555 1_555
H54 C41 1_555 1_555
H55 C41 1_555 1_555
H56 C41 1_555 1_555
C42 C22 1_555 1_555
H57 C42 1_555 1_555
H58 C42 1_555 1_555
H59 C42 1_555 1_555
O4 C28 1_555 1_555
H60 O4 1_555 1_555
O5 C29 1_555 1_555
O6 C33 1_555 1_555
C5 C6 1_555 1_555
C9 C10 1_555 1_555
C13 C14 1_555 1_555
C18 O3 1_555 1_555
C26 C27 1_555 1_555
C30 C31 1_555 1_555
C34 C35 1_555 1_555
C39 O6 1_555 1_555

#END
