
#######################################################################
#
#                 Cambridge Crystallographic Data Centre
#                                CCDC 
#
#######################################################################
#
# If this CIF has been generated from an entry in the Cambridge 
# Structural Database, then it will include bibliographic, chemical, 
# crystal, experimental, refinement or atomic coordinate data resulting 
# from the CCDC's data processing and validation procedures.
#
#######################################################################

data_EKONUN
_chemical_formula_moiety         'C17 H25 N1 O6,1.5(H2 O1)'
_chemical_name_systematic        
'21-Formyl-17-aza-2,5,8,11,14-pentaoxabicyclo(16.4.0)docosa-1(22),18,20-triene sesquihydrate'
_symmetry_cell_setting           monoclinic
_symmetry_space_group_name_H-M   'P 21/c'
_symmetry_Int_Tables_number      14
_space_group_name_Hall           '-P 2ybc'
loop_
_symmetry_equiv_pos_site_id
_symmetry_equiv_pos_as_xyz
1 x,y,z
2 x,1/2-y,1/2+z
3 -x,-y,-z
4 -x,1/2+y,1/2-z
_cell_length_a                   22.4437(3)
_cell_length_b                   8.50170(10)
_cell_length_c                   21.8153(3)
_cell_angle_alpha                90
_cell_angle_beta                 116.5120(10)
_cell_angle_gamma                90
_cell_volume                     3724.84
_exptl_crystal_colour            colorless
_exptl_crystal_description       block
_cell_formula_units_Z            8
_exptl_crystal_recrystallization_method heptane/dichloromethane
loop_
_atom_site_label
_atom_site_type_symbol
_atom_site_fract_x
_atom_site_fract_y
_atom_site_fract_z
N1 N 0.50031(6) 1.13038(13) 0.59018(6)
O1 O 0.45742(4) 0.84686(10) 0.58307(5)
O2 O 0.35599(4) 0.76442(11) 0.62437(5)
O3 O 0.30794(5) 0.99895(12) 0.68262(5)
O4 O 0.39250(5) 1.25548(11) 0.74283(5)
O5 O 0.47017(5) 1.35422(11) 0.67660(5)
O6 O 0.64362(5) 0.49054(11) 0.57692(5)
C1 C 0.65702(7) 0.63031(17) 0.57521(7)
C2 C 0.61653(6) 0.76123(16) 0.57759(7)
C3 C 0.55527(6) 0.73432(15) 0.57902(7)
C4 C 0.51762(6) 0.85762(14) 0.58208(6)
C5 C 0.54042(6) 1.01664(15) 0.58578(6)
C6 C 0.60162(7) 1.04131(16) 0.58476(7)
C7 C 0.63856(7) 0.91533(17) 0.57982(7)
C8 C 0.42880(7) 0.69359(15) 0.57550(8)
C9 C 0.35829(7) 0.71151(18) 0.56378(8)
C10 C 0.28915(7) 0.77074(19) 0.61525(8)
C11 C 0.28822(8) 0.83868(19) 0.67802(9)
C12 C 0.30901(8) 1.07768(19) 0.74049(8)
C13 C 0.32736(8) 1.24633(19) 0.73812(9)
C14 C 0.41137(9) 1.41399(18) 0.74031(9)
C15 C 0.47793(9) 1.41601(19) 0.74087(8)
C16 C 0.53046(7) 1.35397(17) 0.67026(8)
C17 C 0.51585(8) 1.29711(16) 0.59944(8)
H2 H 0.4281(7) 0.6407(16) 0.5348(8)
H5 H 0.5392(7) 0.6268(17) 0.5769(7)
H6 H 0.5529(7) 1.3195(16) 0.5900(7)
H7 H 0.4549(7) 0.6321(16) 0.6163(7)
H8 H 0.3428(7) 1.0255(16) 0.7851(8)
H9 H 0.6970(7) 0.6623(17) 0.5708(7)
H13 H 0.6801(7) 0.9348(16) 0.5770(7)
H14 H 0.2619(8) 0.8381(18) 0.5744(9)
H15 H 0.4648(7) 1.1037(18) 0.5880(8)
H17 H 0.3334(8) 0.7897(19) 0.5246(9)
H18 H 0.2959(8) 1.2951(18) 0.6934(8)
H22 H 0.2640(8) 1.0720(18) 0.7382(8)
H23 H 0.3357(7) 0.6116(18) 0.5497(8)
H25 H 0.6191(7) 1.1475(17) 0.5870(8)
H26 H 0.3186(7) 0.7791(17) 0.7225(8)
H28 H 0.2428(9) 0.8337(19) 0.6726(9)
H31 H 0.5125(8) 1.3505(19) 0.7788(9)
H32 H 0.2696(7) 0.6646(18) 0.6059(8)
H35 H 0.4760(7) 1.3584(17) 0.5651(8)
H39 H 0.3244(8) 1.3005(18) 0.7777(9)
H42 H 0.3784(8) 1.4630(18) 0.6977(8)
H43 H 0.5628(8) 1.2903(18) 0.7051(8)
H44 H 0.5476(7) 1.4657(18) 0.6775(7)
H45 H 0.4966(8) 1.520(2) 0.7465(9)
H50 H 0.4140(8) 1.468(2) 0.7800(9)
O7 O 0.36609(6) 1.13711(16) 0.59577(6)
H52 H 0.3899(12) 1.199(3) 0.6260(12)
H55 H 0.3570(13) 1.075(3) 0.6194(13)
N2 N 0.00079(6) 1.04433(13) 0.41480(7)
O8 O 0.04225(5) 0.75944(10) 0.42090(5)
O9 O 0.14157(4) 0.67315(11) 0.37550(5)
O10 O 0.19459(5) 0.91238(13) 0.32455(5)
O11 O 0.10778(5) 1.16848(12) 0.26184(5)
O12 O 0.02798(5) 1.26515(11) 0.32519(5)
O13 O -0.15456(5) 0.40912(12) 0.40477(5)
C18 C -0.16625(7) 0.54821(18) 0.40955(7)
C19 C -0.12295(7) 0.67826(17) 0.41315(7)
C20 C -0.06003(7) 0.64909(17) 0.41580(7)
C21 C -0.01991(6) 0.77135(15) 0.41737(7)
C22 C -0.04156(7) 0.93116(16) 0.41465(7)
C23 C -0.10437(7) 0.95769(17) 0.41178(8)
C24 C -0.14394(7) 0.83276(18) 0.41202(8)
C25 C 0.06717(7) 0.60392(16) 0.42263(8)
C26 C 0.13819(7) 0.61451(18) 0.43515(8)
C27 C 0.20847(7) 0.6742(2) 0.38511(9)
C28 C 0.21134(8) 0.7511(2) 0.32477(9)
C29 C 0.19425(8) 0.9960(2) 0.26824(8)
C30 C 0.17450(9) 1.1630(2) 0.27102(9)
C31 C 0.08614(10) 1.32549(19) 0.26096(9)
C32 C 0.01956(10) 1.3234(2) 0.26012(8)
C33 C -0.03162(8) 1.26359(18) 0.33261(9)
C34 C -0.01483(8) 1.21088(17) 0.40462(9)
H1 H 0.0399(7) 0.5524(16) 0.3783(7)
H3 H 0.1631(7) 0.6859(18) 0.4751(8)
H4 H 0.0658(7) 0.5445(17) 0.4603(8)
H10 H 0.1792(8) 0.7016(18) 0.2784(8)
H11 H -0.1864(7) 0.8529(16) 0.4120(7)
H12 H -0.0461(8) 0.5414(18) 0.4164(8)
H16 H 0.1605(7) 0.9421(16) 0.2214(8)
H19 H 0.2395(9) 0.9952(19) 0.2700(9)
H20 H 0.1579(7) 0.5074(18) 0.4461(7)
H21 H -0.0646(8) 1.1940(19) 0.2980(9)
H24 H 0.2359(8) 0.7357(18) 0.4268(9)
H27 H -0.2087(7) 0.5864(17) 0.4126(7)
H29 H -0.0507(7) 1.3713(19) 0.3243(8)
H30 H 0.0261(7) 1.2696(17) 0.4379(8)
H33 H 0.2565(9) 0.7424(19) 0.3291(9)
H34 H -0.0521(8) 1.2317(18) 0.4154(8)
H36 H 0.2031(8) 1.2074(19) 0.3161(9)
H37 H -0.1203(8) 1.0646(19) 0.4108(8)
H38 H 0.2254(8) 0.562(2) 0.3913(9)
H40 H 0.1783(9) 1.219(2) 0.2315(10)
H41 H -0.0132(9) 1.259(2) 0.2239(10)
H46 H 0.0389(9) 1.014(2) 0.4185(9)
H47 H 0.1195(8) 1.386(2) 0.3027(9)
H48 H -0.0012(8) 1.426(2) 0.2537(9)
H49 H 0.0826(8) 1.3786(19) 0.2176(9)
O14 O 0.13476(6) 1.05740(17) 0.40912(6)
H51 H 0.1097(12) 1.118(3) 0.3786(13)
H54 H 0.1474(14) 0.995(3) 0.3874(15)
O15 O 0.24063(7) 1.26798(16) 0.49714(8)
H53 H 0.2778(12) 1.217(3) 0.5275(12)
H56 H 0.2116(13) 1.181(3) 0.4705(14)
loop_
_geom_bond_atom_site_label_1
_geom_bond_atom_site_label_2
_geom_bond_site_symmetry_1
_geom_bond_site_symmetry_2
N1 C5 1_555 1_555
O1 C4 1_555 1_555
O2 C9 1_555 1_555
O3 C11 1_555 1_555
O4 C13 1_555 1_555
O5 C15 1_555 1_555
O6 C1 1_555 1_555
O7 H52 1_555 1_555
C1 C2 1_555 1_555
C2 C3 1_555 1_555
C3 C4 1_555 1_555
C4 C5 1_555 1_555
C5 C6 1_555 1_555
C6 C7 1_555 1_555
C7 C2 1_555 1_555
C8 O1 1_555 1_555
C9 C8 1_555 1_555
C10 O2 1_555 1_555
C11 C10 1_555 1_555
C12 O3 1_555 1_555
C13 C12 1_555 1_555
C14 O4 1_555 1_555
C15 C14 1_555 1_555
C16 O5 1_555 1_555
C17 N1 1_555 1_555
N2 C22 1_555 1_555
O8 C21 1_555 1_555
O9 C26 1_555 1_555
O10 C28 1_555 1_555
O11 C30 1_555 1_555
O12 C32 1_555 1_555
O13 C18 1_555 1_555
O14 H51 1_555 1_555
C18 C19 1_555 1_555
C19 C20 1_555 1_555
C20 C21 1_555 1_555
C21 C22 1_555 1_555
C22 C23 1_555 1_555
C23 C24 1_555 1_555
C24 C19 1_555 1_555
C25 O8 1_555 1_555
C26 C25 1_555 1_555
C27 O9 1_555 1_555
C28 C27 1_555 1_555
C29 O10 1_555 1_555
C30 C29 1_555 1_555
C31 O11 1_555 1_555
C32 C31 1_555 1_555
C33 O12 1_555 1_555
C34 N2 1_555 1_555
O15 H53 1_555 1_555
H1 C25 1_555 1_555
H2 C8 1_555 1_555
H3 C26 1_555 1_555
H4 C25 1_555 1_555
H5 C3 1_555 1_555
H6 C17 1_555 1_555
H7 C8 1_555 1_555
H8 C12 1_555 1_555
H9 C1 1_555 1_555
H10 C28 1_555 1_555
H11 C24 1_555 1_555
H12 C20 1_555 1_555
H13 C7 1_555 1_555
H14 C10 1_555 1_555
H15 N1 1_555 1_555
H16 C29 1_555 1_555
H17 C9 1_555 1_555
H18 C13 1_555 1_555
H19 C29 1_555 1_555
H20 C26 1_555 1_555
H21 C33 1_555 1_555
H22 C12 1_555 1_555
H23 C9 1_555 1_555
H24 C27 1_555 1_555
H25 C6 1_555 1_555
H26 C11 1_555 1_555
H27 C18 1_555 1_555
H28 C11 1_555 1_555
H29 C33 1_555 1_555
H30 C34 1_555 1_555
H31 C15 1_555 1_555
H32 C10 1_555 1_555
H33 C28 1_555 1_555
H34 C34 1_555 1_555
H35 C17 1_555 1_555
H36 C30 1_555 1_555
H37 C23 1_555 1_555
H38 C27 1_555 1_555
H39 C13 1_555 1_555
H40 C30 1_555 1_555
H41 C32 1_555 1_555
H42 C14 1_555 1_555
H43 C16 1_555 1_555
H44 C16 1_555 1_555
H45 C15 1_555 1_555
H46 N2 1_555 1_555
H47 C31 1_555 1_555
H48 C32 1_555 1_555
H49 C31 1_555 1_555
H50 C14 1_555 1_555
H54 O14 1_555 1_555
H55 O7 1_555 1_555
H56 O15 1_555 1_555
C16 C17 1_555 1_555
C33 C34 1_555 1_555

#END
