
#######################################################################
#
#                 Cambridge Crystallographic Data Centre
#                                CCDC 
#
#######################################################################
#
# If this CIF has been generated from an entry in the Cambridge 
# Structural Database, then it will include bibliographic, chemical, 
# crystal, experimental, refinement or atomic coordinate data resulting 
# from the CCDC's data processing and validation procedures.
#
#######################################################################

data_EKORIH
_chemical_formula_moiety         'C23 H31 F1 N3 O9 P1,H2 O1'
_chemical_name_systematic        
'isopropyl N-(((5-(5-fluoro-2,4-dioxo-3,4-dihydropyrimidin-1(2H)-yl)-3-hydroxytetrahydrofuran-2-yl)methoxy)((2-methylbenzyl)oxy)phosphoryl)alaninate monohydrate'
_chemical_properties_biological  'antitumour activity'
_symmetry_cell_setting           monoclinic
_symmetry_space_group_name_H-M   'C 2'
_symmetry_Int_Tables_number      5
_space_group_name_Hall           'C 2y'
loop_
_symmetry_equiv_pos_site_id
_symmetry_equiv_pos_as_xyz
1 x,y,z
2 -x,y,-z
3 1/2+x,1/2+y,z
4 1/2-x,1/2+y,-z
_cell_length_a                   30.024(6)
_cell_length_b                   7.0591(14)
_cell_length_c                   13.290(3)
_cell_angle_alpha                90
_cell_angle_beta                 101.32(3)
_cell_angle_gamma                90
_cell_volume                     2761.92
_exptl_crystal_colour            colorless
_exptl_crystal_description       Prism
_cell_formula_units_Z            4
loop_
_atom_site_label
_atom_site_type_symbol
_atom_site_fract_x
_atom_site_fract_y
_atom_site_fract_z
P1 P 0.65569(5) 0.7564(2) 0.09789(11)
O1 O 0.55391(19) 1.2306(9) -0.4268(4)
O2 O 0.4242(2) 1.2251(9) -0.3028(5)
O3 O 0.62584(15) 1.0316(7) -0.2044(3)
O4 O 0.70361(16) 1.3038(7) -0.0249(4)
H1 H 0.7150 1.3601 -0.0677
O5 O 0.64094(16) 0.8324(7) -0.0153(4)
O6 O 0.68011(17) 0.5714(7) 0.1056(4)
O7 O 0.60705(15) 0.7537(7) 0.1240(3)
O8 O 0.7808(2) 0.7395(11) 0.3499(5)
O9 O 0.7081(2) 0.7352(10) 0.3586(5)
N1 N 0.56075(19) 1.2161(8) -0.2549(4)
N2 N 0.48996(19) 1.2239(9) -0.3631(4)
N3 N 0.6851(2) 0.9161(8) 0.1671(5)
F1 F 0.4735(2) 1.2080(9) -0.1039(4)
C1 C 0.5362(2) 1.2247(9) -0.3523(5)
C2 C 0.4657(2) 1.2206(11) -0.2837(5)
C3 C 0.4945(3) 1.2148(11) -0.1846(6)
C4 C 0.5382(3) 1.2081(11) -0.1727(6)
H2 H 0.5553 1.1975 -0.1066
C5 C 0.6106(2) 1.2192(10) -0.2374(5)
H3 H 0.6202 1.2482 -0.3020
C6 C 0.6345(3) 1.3534(11) -0.1541(6)
H4 H 0.6548 1.4379 -0.1812
H5 H 0.6125 1.4288 -0.1269
C7 C 0.6606(2) 1.2288(10) -0.0729(5)
H6 H 0.6423 1.2005 -0.0211
C8 C 0.66751(19) 1.0484(8) -0.1324(4)
H7 H 0.6922 1.0694 -0.1695
C9 C 0.6768(2) 0.8704(9) -0.0703(5)
H8 H 0.6795 0.7649 -0.1154
H9 H 0.7054 0.8831 -0.0219
C10 C 0.6017(2) 0.7348(12) 0.2273(5)
H10 H 0.6158 0.8416 0.2671
H11 H 0.6167 0.6201 0.2565
C11 C 0.5518(2) 0.7268(10) 0.2331(5)
C12 C 0.5190(3) 0.7240(12) 0.1454(7)
H12 H 0.5272 0.7227 0.0815
C13 C 0.4730(3) 0.7231(15) 0.1523(7)
H13 H 0.4507 0.7236 0.0928
C14 C 0.4608(3) 0.7216(13) 0.2443(7)
H14 H 0.4303 0.7222 0.2487
C15 C 0.4934(3) 0.7192(14) 0.3304(8)
H15 H 0.4846 0.7169 0.3938
C16 C 0.5397(3) 0.7198(12) 0.3280(6)
C17 C 0.5759(4) 0.726(2) 0.4232(10)
H16 H 0.5908 0.6049 0.4331
H17 H 0.5624 0.7538 0.4813
H18 H 0.5977 0.8219 0.4163
C18 C 0.7327(2) 0.8935(10) 0.2178(5)
H19 H 0.7493 0.8290 0.1712
C19 C 0.7530(3) 1.0878(14) 0.2434(8)
H20 H 0.7477 1.1649 0.1828
H21 H 0.7850 1.0761 0.2690
H22 H 0.7390 1.1457 0.2948
C20 C 0.7384(2) 0.7860(11) 0.3162(5)
C21 C 0.7942(4) 0.6379(19) 0.4481(10)
H23 H 0.7673 0.6076 0.4764
C22 C 0.8160(6) 0.472(2) 0.4280(14)
H24 H 0.7985 0.4104 0.3688
H25 H 0.8190 0.3886 0.4861
H26 H 0.8456 0.5018 0.4152
C23 C 0.8245(6) 0.775(3) 0.5184(14)
H27 H 0.8497 0.8114 0.4876
H28 H 0.8357 0.7155 0.5833
H29 H 0.8074 0.8860 0.5286
O10 O 0.6392(3) 0.2497(14) 0.1754(6)
loop_
_geom_bond_atom_site_label_1
_geom_bond_atom_site_label_2
_geom_bond_site_symmetry_1
_geom_bond_site_symmetry_2
P1 O5 1_555 1_555
O1 C1 1_555 1_555
O2 C2 1_555 1_555
O3 C5 1_555 1_555
O4 H1 1_555 1_555
O5 C9 1_555 1_555
O6 P1 1_555 1_555
O7 P1 1_555 1_555
O8 C20 1_555 1_555
O9 C20 1_555 1_555
N1 C1 1_555 1_555
N2 C1 1_555 1_555
N3 P1 1_555 1_555
F1 C3 1_555 1_555
C2 N2 1_555 1_555
C3 C2 1_555 1_555
C4 N1 1_555 1_555
H2 C4 1_555 1_555
C5 N1 1_555 1_555
H3 C5 1_555 1_555
C6 C5 1_555 1_555
H4 C6 1_555 1_555
H5 C6 1_555 1_555
C7 O4 1_555 1_555
H6 C7 1_555 1_555
C8 O3 1_555 1_555
H7 C8 1_555 1_555
C9 C8 1_555 1_555
H8 C9 1_555 1_555
H9 C9 1_555 1_555
C10 O7 1_555 1_555
H10 C10 1_555 1_555
H11 C10 1_555 1_555
C11 C10 1_555 1_555
C12 C11 1_555 1_555
H12 C12 1_555 1_555
C13 C12 1_555 1_555
H13 C13 1_555 1_555
C14 C13 1_555 1_555
H14 C14 1_555 1_555
C15 C14 1_555 1_555
H15 C15 1_555 1_555
C16 C11 1_555 1_555
C17 C16 1_555 1_555
H16 C17 1_555 1_555
H17 C17 1_555 1_555
H18 C17 1_555 1_555
C18 N3 1_555 1_555
H19 C18 1_555 1_555
C19 C18 1_555 1_555
H20 C19 1_555 1_555
H21 C19 1_555 1_555
H22 C19 1_555 1_555
C20 C18 1_555 1_555
C21 O8 1_555 1_555
H23 C21 1_555 1_555
C22 C21 1_555 1_555
H24 C22 1_555 1_555
H25 C22 1_555 1_555
H26 C22 1_555 1_555
C23 C21 1_555 1_555
H27 C23 1_555 1_555
H28 C23 1_555 1_555
H29 C23 1_555 1_555
C3 C4 1_555 1_555
C6 C7 1_555 1_555
C7 C8 1_555 1_555
C15 C16 1_555 1_555

#END
