
#######################################################################
#
#                 Cambridge Crystallographic Data Centre
#                                CCDC 
#
#######################################################################
#
# If this CIF has been generated from an entry in the Cambridge 
# Structural Database, then it will include bibliographic, chemical, 
# crystal, experimental, refinement or atomic coordinate data resulting 
# from the CCDC's data processing and validation procedures.
#
#######################################################################

data_EKORON
_chemical_formula_moiety         'C81 H68 N4 O8'
_chemical_name_systematic        
N,N,N',N',N'',N'',N''',N'''-octakis(4-Methoxyphenyl)-9,9'-spirobi[fluorene]-2,2',7,7'-tetramine
_symmetry_cell_setting           triclinic
_symmetry_space_group_name_H-M   'P -1'
_symmetry_Int_Tables_number      2
_space_group_name_Hall           '-P 1'
loop_
_symmetry_equiv_pos_site_id
_symmetry_equiv_pos_as_xyz
1 x,y,z
2 -x,-y,-z
_cell_length_a                   13.6605(17)
_cell_length_b                   14.7195(18)
_cell_length_c                   17.277(2)
_cell_angle_alpha                86.231(5)
_cell_angle_beta                 68.978(5)
_cell_angle_gamma                80.007(5)
_cell_volume                     3193.55
_exptl_crystal_colour            'light yellow'
_exptl_crystal_description       sheet
_cell_formula_units_Z            2
_chemical_properties_physical    
'Air-sensitive, Moisture-sensitive, Heat-sensitive, Oxygen-sensitive'
_exptl_crystal_recrystallization_method 'antisolvent vapor diffusion'
_exptl_crystal_preparation       'hole transporting'
loop_
_atom_site_label
_atom_site_type_symbol
_atom_site_fract_x
_atom_site_fract_y
_atom_site_fract_z
O1 O 0.95446(9) 0.09082(7) 0.40817(7)
O2 O 0.42982(10) -0.99593(8) 0.81579(7)
O3 O 1.38045(9) -1.06459(8) 0.07785(7)
O4 O 0.95158(9) -0.10236(7) 0.17455(7)
N1 N 0.71498(10) -0.36596(9) 0.15037(8)
C1 C 0.62259(11) -0.58433(9) 0.44146(8)
N2 N 0.77846(10) -0.23126(8) 0.51162(8)
O5 O 0.72616(10) -0.79120(8) 0.04246(8)
O6 O 0.33519(9) -0.19205(9) 0.65863(8)
N3 N 0.66086(11) -0.71806(9) 0.65388(8)
N4 N 1.02032(10) -0.79564(9) 0.19933(8)
C2 C 0.55965(11) -0.50785(10) 0.32306(9)
C3 C 0.71586(11) -0.58574(9) 0.45810(8)
C4 C 0.72997(11) -0.50346(9) 0.33320(8)
C5 C 0.78064(11) -0.37922(9) 0.45378(9)
C6 C 0.83723(11) -0.46257(9) 0.41805(8)
C7 C 0.89709(11) -0.60230(9) 0.34466(8)
C8 C 0.83377(11) -0.31784(9) 0.47541(9)
C9 C 0.73024(11) -0.62892(9) 0.52757(9)
C10 C 1.11502(12) -0.86151(10) 0.16760(9)
C11 C 0.90753(11) -0.67696(9) 0.29679(9)
C12 C 0.79465(11) -0.53721(9) 0.38847(8)
O7 O 0.91686(11) -0.63501(10) 0.82033(8)
C13 C 0.94642(11) -0.48662(9) 0.40143(8)
C14 C 0.85032(12) -0.00114(10) 0.52039(9)
C15 C 0.93056(12) -0.05540(10) 0.37986(9)
C16 C 0.54206(11) -0.62749(10) 0.49657(9)
C17 C 0.98405(11) -0.57478(9) 0.35626(9)
C18 C 0.68690(12) -0.42471(9) 0.22095(9)
C19 C 0.91122(12) 0.01276(10) 0.43828(9)
C20 C 0.73804(12) -0.23551(10) 0.21909(9)
C21 C 0.99900(11) -0.42574(10) 0.42381(9)
C22 C 1.00921(12) -0.72590(10) 0.25522(9)
C23 C 0.82673(12) -0.15035(10) 0.48583(9)
C24 C 0.77523(12) -0.29630(10) 0.15258(9)
O8 O 0.58561(12) -0.39767(10) -0.11788(8)
C25 C 0.94264(12) -0.34274(10) 0.46099(9)
C26 C 1.09629(12) -0.70198(10) 0.26967(10)
C27 C 0.63105(11) -0.53298(9) 0.36438(8)
C28 C 0.60172(12) -0.78965(10) 0.69301(9)
C29 C 0.89608(12) -0.16603(10) 0.16237(9)
C30 C 0.55551(12) -0.67146(10) 0.56597(9)
C31 C 1.15783(13) -0.91604(11) 0.22061(10)
C32 C 1.08378(12) -0.62773(10) 0.32045(10)
C33 C 1.25260(12) -0.94215(10) 0.05000(9)
C34 C 0.54664(13) -0.78772(11) 0.77828(9)
C35 C 0.75916(11) -0.45098(9) 0.26198(9)
C36 C 0.68466(12) -0.37317(10) 0.08139(9)
C37 C 1.16372(12) -0.87509(10) 0.08278(9)
C38 C 0.64906(12) -0.67294(10) 0.58265(9)
C39 C 1.29455(12) -0.99564(10) 0.10311(10)
C40 C 0.68359(12) -0.29933(11) 0.02688(9)
C41 C 0.83241(13) -0.86761(11) 0.11460(10)
C42 C 0.88799(12) -0.13589(10) 0.40357(9)
C43 C 0.79763(12) -0.78572(11) 0.08059(10)
C44 C 0.62332(14) -0.45941(12) -0.00177(11)
C45 C 0.94423(12) -0.79052(10) 0.15925(9)
C46 C 0.58730(12) -0.45339(10) 0.25233(9)
C47 C 0.79807(12) -0.17122(10) 0.22433(9)
C48 C 0.65608(13) -0.45454(11) 0.06442(10)
C49 C 0.72813(12) -0.69163(11) 0.69257(9)
C50 C 0.93230(12) -0.22426(10) 0.09463(9)
C51 C 0.83557(12) -0.70571(11) 0.08639(10)
C52 C 0.71379(12) -0.60333(11) 0.72176(10)
C53 C 0.80712(14) -0.75811(12) 0.70563(10)
C54 C 0.49062(12) -0.85760(11) 0.81662(9)
C55 C 0.62087(13) -0.38454(12) -0.05459(10)
C56 C 0.66491(12) -0.21778(10) 0.54710(10)
C57 C 0.54128(14) -0.93295(11) 0.68609(10)
C58 C 0.59888(13) -0.86286(11) 0.64773(10)
C59 C 0.92991(13) 0.16497(10) 0.46492(10)
C60 C 1.24731(12) -0.98196(11) 0.18852(10)
C61 C 0.60186(13) -0.15260(11) 0.51675(11)
C62 C 0.85289(13) -0.64767(13) 0.77770(10)
C63 C 0.44362(13) -0.19660(11) 0.61835(10)
C64 C 0.48776(13) -0.93026(10) 0.77099(10)
C65 C 1.42955(13) -1.08188(12) -0.00893(11)
C66 C 0.87221(12) -0.28977(10) 0.09065(9)
C67 C 0.80887(12) -0.08271(10) 0.54392(10)
C68 C 0.65304(13) -0.30493(11) -0.04107(9)
C69 C 0.50540(13) -0.26216(12) 0.64918(10)
C70 C 0.90971(12) -0.70912(10) 0.12482(9)
C71 C 0.86844(14) -0.73626(13) 0.74776(11)
C72 C 0.77565(13) -0.58041(12) 0.76449(10)
C73 C 0.48986(14) -0.14140(11) 0.55321(11)
C74 C 0.90370(12) -0.86962(10) 0.15439(10)
C75 C 0.61489(13) -0.27220(11) 0.61412(10)
C76 C 1.05184(14) -0.09474(12) 0.11130(11)
C77 C 0.90882(17) -0.54508(15) 0.84940(12)
C78 C 0.69409(17) -0.71050(14) 0.00171(13)
C79 C 0.43250(18) -1.07439(13) 0.77169(13)
C80 C 0.26851(15) -0.13134(15) 0.62584(13)
C81 C 0.57797(19) -0.32241(19) -0.17077(13)
H1 H 0.97306(12) -0.04654(10) 0.32364(9)
H2 H 0.90073(12) -0.18168(10) 0.36332(9)
H3 H 0.76787(12) -0.09228(10) 0.60038(10)
H4 H 0.83691(12) 0.04496(10) 0.56052(9)
H5 H 0.97855(12) -0.30183(10) 0.47706(9)
H6 H 1.07301(11) -0.44097(10) 0.41366(9)
H7 H 0.70675(11) -0.36395(9) 0.46347(9)
H8 H 0.65698(13) -0.31705(11) 0.63609(10)
H9 H 0.47285(13) -0.30032(12) 0.69435(10)
H10 H 0.44693(14) -0.09580(11) 0.53262(11)
H11 H 0.63402(13) -0.11498(11) 0.47098(11)
H12 H 0.79403(11) -0.62880(9) 0.53784(9)
H13 H 0.50041(12) -0.70128(10) 0.60315(9)
H14 H 0.47797(11) -0.62673(10) 0.48650(9)
H15 H 0.82740(11) -0.43288(9) 0.24102(9)
H16 H 0.53801(12) -0.43528(10) 0.22476(9)
H17 H 0.49242(11) -0.52786(10) 0.34317(9)
H18 H 1.14328(12) -0.61334(10) 0.33056(10)
H19 H 1.16491(12) -0.73696(10) 0.24445(10)
H20 H 0.84659(11) -0.69518(9) 0.29194(9)
H21 H 0.63681(13) -0.86526(11) 0.58963(10)
H22 H 0.53876(14) -0.98215(11) 0.65428(10)
H23 H 0.45368(12) -0.85583(11) 0.87486(9)
H24 H 0.54767(13) -0.73799(11) 0.81021(9)
H25 H 0.81864(14) -0.81891(12) 0.68526(10)
H26 H 0.92175(14) -0.78213(13) 0.75640(11)
H27 H 0.76496(13) -0.51945(12) 0.78429(10)
H28 H 0.66092(12) -0.55737(11) 0.71261(10)
H29 H 0.89797(12) -0.33067(10) 0.04482(9)
H30 H 0.99781(12) -0.21946(10) 0.05116(9)
H31 H 0.77246(12) -0.13049(10) 0.27027(9)
H32 H 0.67089(12) -0.23824(10) 0.26119(9)
H33 H 0.65932(13) -0.50707(11) 0.09897(10)
H34 H 0.60223(14) -0.51458(12) -0.01130(11)
H35 H 0.65429(13) -0.25413(11) -0.07810(9)
H36 H 0.70419(12) -0.24385(11) 0.03630(9)
H37 H 1.13570(12) -0.83772(10) 0.04622(9)
H38 H 1.28421(12) -0.95116(10) -0.00825(9)
H39 H 1.27673(12) -1.01810(11) 0.22489(10)
H40 H 1.12542(13) -0.90788(11) 0.27891(10)
H41 H 0.92552(12) -0.92549(10) 0.17880(10)
H42 H 0.80681(13) -0.92240(11) 0.11033(10)
H43 H 0.81106(12) -0.64923(11) 0.06429(10)
H44 H 0.93719(12) -0.65488(10) 0.12756(9)
H45 H 0.9631(8) 0.2173(3) 0.43562(19)
H46 H 0.85270(14) 0.1839(5) 0.4884(6)
H47 H 0.9571(8) 0.1446(3) 0.5096(4)
H48 H 1.4537(9) -1.0258(3) -0.03761(14)
H49 H 1.4905(6) -1.1315(6) -0.01886(12)
H50 H 1.3782(3) -1.1002(9) -0.02999(19)
H51 H 1.04085(17) -0.0738(9) 0.0596(2)
H52 H 1.0856(5) -0.0501(7) 0.1284(4)
H53 H 1.0977(4) -0.1551(2) 0.1026(6)
H54 H 0.9251(12) -0.5022(2) 0.80233(15)
H55 H 0.8365(4) -0.5251(4) 0.8880(7)
H56 H 0.9593(9) -0.5458(3) 0.8780(8)
H57 H 0.75712(17) -0.6881(6) -0.0375(7)
H58 H 0.6501(10) -0.7253(3) -0.0283(8)
H59 H 0.6530(10) -0.6626(4) 0.04292(16)
H60 H 0.3981(11) -1.0559(2) 0.7308(7)
H61 H 0.50649(18) -1.1025(6) 0.7432(8)
H62 H 0.3947(11) -1.1191(5) 0.81049(17)
H63 H 0.2848(8) -0.1473(7) 0.5679(3)
H64 H 0.19421(16) -0.1364(8) 0.6580(6)
H65 H 0.2800(9) -0.06796(18) 0.6288(9)
H66 H 0.5496(14) -0.3392(5) -0.2116(7)
H67 H 0.5304(11) -0.2698(4) -0.13813(19)
H68 H 0.6486(3) -0.3057(8) -0.1996(8)
loop_
_geom_bond_atom_site_label_1
_geom_bond_atom_site_label_2
_geom_bond_site_symmetry_1
_geom_bond_site_symmetry_2
O1 C19 1_555 1_555
O2 C64 1_555 1_555
O3 C39 1_555 1_555
O4 C29 1_555 1_555
N1 C18 1_555 1_555
C1 C3 1_555 1_555
N2 C8 1_555 1_555
O5 C43 1_555 1_555
O6 C63 1_555 1_555
N3 C28 1_555 1_555
N4 C10 1_555 1_555
C2 C27 1_555 1_555
C3 C9 1_555 1_555
C4 C12 1_555 1_555
C5 C6 1_555 1_555
C6 C12 1_555 1_555
C7 C11 1_555 1_555
C8 C5 1_555 1_555
C9 C38 1_555 1_555
C10 C31 1_555 1_555
C11 C22 1_555 1_555
C12 C3 1_555 1_555
O7 C62 1_555 1_555
C13 C6 1_555 1_555
C14 C19 1_555 1_555
C15 C19 1_555 1_555
C16 C1 1_555 1_555
C17 C7 1_555 1_555
C18 C35 1_555 1_555
C20 C24 1_555 1_555
C21 C13 1_555 1_555
C22 N4 1_555 1_555
C23 N2 1_555 1_555
C24 N1 1_555 1_555
O8 C55 1_555 1_555
C25 C8 1_555 1_555
C26 C22 1_555 1_555
C27 C1 1_555 1_555
C28 C34 1_555 1_555
C29 C47 1_555 1_555
C30 C16 1_555 1_555
C31 C60 1_555 1_555
C32 C17 1_555 1_555
C33 C37 1_555 1_555
C34 C54 1_555 1_555
C35 C4 1_555 1_555
C36 N1 1_555 1_555
C37 C10 1_555 1_555
C38 N3 1_555 1_555
C39 C33 1_555 1_555
C40 C36 1_555 1_555
C41 C43 1_555 1_555
C42 C15 1_555 1_555
C43 C51 1_555 1_555
C44 C48 1_555 1_555
C45 N4 1_555 1_555
C46 C2 1_555 1_555
C47 C20 1_555 1_555
C48 C36 1_555 1_555
C49 N3 1_555 1_555
C50 C29 1_555 1_555
C51 C70 1_555 1_555
C52 C49 1_555 1_555
C53 C49 1_555 1_555
C54 C64 1_555 1_555
C55 C44 1_555 1_555
C56 N2 1_555 1_555
C57 C58 1_555 1_555
C58 C28 1_555 1_555
C59 O1 1_555 1_555
C60 C39 1_555 1_555
C61 C56 1_555 1_555
C62 C71 1_555 1_555
C63 C69 1_555 1_555
C64 C57 1_555 1_555
C65 O3 1_555 1_555
C66 C24 1_555 1_555
C67 C14 1_555 1_555
C68 C40 1_555 1_555
C69 C75 1_555 1_555
C70 C45 1_555 1_555
C71 C53 1_555 1_555
C72 C52 1_555 1_555
C73 C61 1_555 1_555
C74 C41 1_555 1_555
C75 C56 1_555 1_555
C76 O4 1_555 1_555
C77 O7 1_555 1_555
C78 O5 1_555 1_555
C79 O2 1_555 1_555
C80 O6 1_555 1_555
C81 O8 1_555 1_555
H1 C15 1_555 1_555
H2 C42 1_555 1_555
H3 C67 1_555 1_555
H4 C14 1_555 1_555
H5 C25 1_555 1_555
H6 C21 1_555 1_555
H7 C5 1_555 1_555
H8 C75 1_555 1_555
H9 C69 1_555 1_555
H10 C73 1_555 1_555
H11 C61 1_555 1_555
H12 C9 1_555 1_555
H13 C30 1_555 1_555
H14 C16 1_555 1_555
H15 C35 1_555 1_555
H16 C46 1_555 1_555
H17 C2 1_555 1_555
H18 C32 1_555 1_555
H19 C26 1_555 1_555
H20 C11 1_555 1_555
H21 C58 1_555 1_555
H22 C57 1_555 1_555
H23 C54 1_555 1_555
H24 C34 1_555 1_555
H25 C53 1_555 1_555
H26 C71 1_555 1_555
H27 C72 1_555 1_555
H28 C52 1_555 1_555
H29 C66 1_555 1_555
H30 C50 1_555 1_555
H31 C47 1_555 1_555
H32 C20 1_555 1_555
H33 C48 1_555 1_555
H34 C44 1_555 1_555
H35 C68 1_555 1_555
H36 C40 1_555 1_555
H37 C37 1_555 1_555
H38 C33 1_555 1_555
H39 C60 1_555 1_555
H40 C31 1_555 1_555
H41 C74 1_555 1_555
H42 C41 1_555 1_555
H43 C51 1_555 1_555
H44 C70 1_555 1_555
H45 C59 1_555 1_555
H46 C59 1_555 1_555
H47 C59 1_555 1_555
H48 C65 1_555 1_555
H49 C65 1_555 1_555
H50 C65 1_555 1_555
H51 C76 1_555 1_555
H52 C76 1_555 1_555
H53 C76 1_555 1_555
H54 C77 1_555 1_555
H55 C77 1_555 1_555
H56 C77 1_555 1_555
H57 C78 1_555 1_555
H58 C78 1_555 1_555
H59 C78 1_555 1_555
H60 C79 1_555 1_555
H61 C79 1_555 1_555
H62 C79 1_555 1_555
H63 C80 1_555 1_555
H64 C80 1_555 1_555
H65 C80 1_555 1_555
H66 C81 1_555 1_555
H67 C81 1_555 1_555
H68 C81 1_555 1_555
C4 C27 1_555 1_555
C7 C12 1_555 1_555
C13 C17 1_555 1_555
C18 C46 1_555 1_555
C21 C25 1_555 1_555
C23 C42 1_555 1_555
C23 C67 1_555 1_555
C26 C32 1_555 1_555
C30 C38 1_555 1_555
C45 C74 1_555 1_555
C50 C66 1_555 1_555
C55 C68 1_555 1_555
C62 C72 1_555 1_555
C63 C73 1_555 1_555

#END
