
#######################################################################
#
#                 Cambridge Crystallographic Data Centre
#                                CCDC 
#
#######################################################################
#
# If this CIF has been generated from an entry in the Cambridge 
# Structural Database, then it will include bibliographic, chemical, 
# crystal, experimental, refinement or atomic coordinate data resulting 
# from the CCDC's data processing and validation procedures.
#
#######################################################################

data_EKUHUP
_chemical_formula_moiety         'C16 H12 N2 O1'
_chemical_name_systematic        '3,5-diphenylpyridazine 1-oxide'
_symmetry_cell_setting           triclinic
_symmetry_space_group_name_H-M   'P -1'
_symmetry_Int_Tables_number      2
_space_group_name_Hall           '-P 1'
loop_
_symmetry_equiv_pos_site_id
_symmetry_equiv_pos_as_xyz
1 x,y,z
2 -x,-y,-z
_cell_length_a                   7.145(4)
_cell_length_b                   7.145(4)
_cell_length_c                   25.382(13)
_cell_angle_alpha                93.500(6)
_cell_angle_beta                 93.500(6)
_cell_angle_gamma                90.03
_cell_volume                     1290.94
_exptl_crystal_colour            colorless
_exptl_crystal_description       block
_cell_formula_units_Z            4
loop_
_atom_site_label
_atom_site_type_symbol
_atom_site_fract_x
_atom_site_fract_y
_atom_site_fract_z
C1 C 0.3482(4) 0.1972(4) 0.09805(10)
C2 C 0.1738(4) 0.1159(4) 0.10030(12)
H1 H 0.1052 0.0782 0.0692
C3 C 0.0999(5) 0.0900(5) 0.14882(13)
H2 H -0.0173 0.0343 0.1500
C4 C 0.2005(6) 0.1469(5) 0.19514(14)
H3 H 0.1511 0.1304 0.2276
C5 C 0.3734(5) 0.2278(5) 0.19309(13)
H4 H 0.4417 0.2658 0.2243
C6 C 0.4467(4) 0.2533(4) 0.14525(12)
H5 H 0.5641 0.3089 0.1444
C7 C 0.4282(4) 0.2247(3) 0.04661(10)
N1 N 0.607(2) 0.221(2) 0.0453(4)
C8 C 0.613(3) 0.277(7) -0.0456(8)
H6 H 0.6770 0.2969 -0.0756
C9 C 0.4094(3) 0.2753(3) -0.04606(10)
C10 C 0.3189(4) 0.2492(3) 0.00006(10)
H7 H 0.1887 0.2481 -0.0002
C11 C 0.3057(4) 0.3025(4) -0.09788(10)
C12 C 0.3857(5) 0.2490(4) -0.14493(12)
H8 H 0.5038 0.1942 -0.1441
C13 C 0.2905(6) 0.2766(5) -0.19314(13)
H9 H 0.3443 0.2394 -0.2245
C14 C 0.1165(5) 0.3592(5) -0.19441(13)
H10 H 0.0535 0.3794 -0.2267
C15 C 0.0366(5) 0.4112(5) -0.14863(13)
H11 H -0.0817 0.4656 -0.1498
C16 C 0.1296(4) 0.3844(4) -0.09989(12)
H12 H 0.0738 0.4212 -0.0688
N2 N 0.6984(3) 0.2500(3) -0.00002(10)
O1 O 0.8750(3) 0.2489(4) 0.00009(9)
C18 C 0.1965(4) 0.6948(4) 0.59770(12)
C19 C 0.1201(5) 0.8731(5) 0.59973(14)
H14 H 0.0862 0.9295 0.5685
C20 C 0.0938(5) 0.9682(6) 0.64808(17)
H15 H 0.0409 1.0871 0.6492
C21 C 0.1464(7) 0.8857(9) 0.69426(17)
H16 H 0.1304 0.9505 0.7266
C22 C 0.2218(6) 0.7099(9) 0.69330(16)
H17 H 0.2561 0.6557 0.7248
C23 C 0.2471(5) 0.6127(6) 0.64558(14)
H18 H 0.2978 0.4928 0.6450
C24 C 0.2236(4) 0.5905(4) 0.54608(11)
C25 C 0.213(5) 0.386(3) 0.5474(9)
H19 H 0.1835 0.3229 0.5769
N4 N 0.282(2) 0.390(2) 0.4564(6)
C26 C 0.2764(4) 0.5713(4) 0.45394(11)
C27 C 0.2504(4) 0.6800(4) 0.49998(11)
H20 H 0.2508 0.8102 0.5000
C28 C 0.3043(4) 0.6530(4) 0.40241(12)
C29 C 0.2539(5) 0.5487(6) 0.35504(14)
H21 H 0.2028 0.4291 0.3557
C30 C 0.2810(6) 0.6255(8) 0.30698(16)
H22 H 0.2488 0.5564 0.2755
C31 C 0.3560(7) 0.8050(9) 0.30573(17)
H23 H 0.3722 0.8562 0.2735
C32 C 0.4057(5) 0.9061(6) 0.35200(17)
H24 H 0.4573 1.0253 0.3511
C33 C 0.3797(5) 0.8318(5) 0.40037(13)
H25 H 0.4129 0.9020 0.4316
N5 N 0.2506(4) 0.3003(3) 0.50010(11)
O2 O 0.2483(4) 0.1214(3) 0.50006(11)
C17? C 0.633(3) 0.225(3) 0.0455(8)
H13? H 0.7106 0.2072 0.0755
N3? N 0.587(3) 0.276(5) -0.0456(7)
N6? N 0.230(6) 0.414(3) 0.5434(9)
C34? C 0.273(4) 0.366(3) 0.4519(10)
H26? H 0.2850 0.2901 0.4212
loop_
_geom_bond_atom_site_label_1
_geom_bond_atom_site_label_2
_geom_bond_site_symmetry_1
_geom_bond_site_symmetry_2
C1 C2 1_555 1_555
C2 H1 1_555 1_555
C3 C2 1_555 1_555
H2 C3 1_555 1_555
C4 C3 1_555 1_555
H3 C4 1_555 1_555
C5 C4 1_555 1_555
H4 C5 1_555 1_555
C6 C1 1_555 1_555
H5 C6 1_555 1_555
C7 C1 1_555 1_555
N1 C7 1_555 1_555
C8 H6 1_555 1_555
C9 C8 1_555 1_555
C10 C7 1_555 1_555
H7 C10 1_555 1_555
C11 C9 1_555 1_555
C12 C11 1_555 1_555
H8 C12 1_555 1_555
C13 C12 1_555 1_555
H9 C13 1_555 1_555
C14 C13 1_555 1_555
H10 C14 1_555 1_555
C15 C14 1_555 1_555
H11 C15 1_555 1_555
C16 C11 1_555 1_555
H12 C16 1_555 1_555
N2 N1 1_555 1_555
O1 N2 1_555 1_555
C18 C19 1_555 1_555
C19 H14 1_555 1_555
C20 C19 1_555 1_555
H15 C20 1_555 1_555
C21 C20 1_555 1_555
H16 C21 1_555 1_555
C22 C21 1_555 1_555
H17 C22 1_555 1_555
C23 C18 1_555 1_555
H18 C23 1_555 1_555
C24 C18 1_555 1_555
C25 C24 1_555 1_555
H19 C25 1_555 1_555
N4 C26 1_555 1_555
C26 C27 1_555 1_555
C27 C24 1_555 1_555
H20 C27 1_555 1_555
C28 C26 1_555 1_555
C29 C28 1_555 1_555
H21 C29 1_555 1_555
C30 C29 1_555 1_555
H22 C30 1_555 1_555
C31 C30 1_555 1_555
H23 C31 1_555 1_555
C32 C31 1_555 1_555
H24 C32 1_555 1_555
C33 C28 1_555 1_555
H25 C33 1_555 1_555
N5 C25 1_555 1_555
O2 N5 1_555 1_555
C5 C6 1_555 1_555
C8 N2 1_555 1_555
C9 C10 1_555 1_555
C15 C16 1_555 1_555
C22 C23 1_555 1_555
N4 N5 1_555 1_555
C32 C33 1_555 1_555

#END
