
#######################################################################
#
#                 Cambridge Crystallographic Data Centre
#                                CCDC 
#
#######################################################################
#
# If this CIF has been generated from an entry in the Cambridge 
# Structural Database, then it will include bibliographic, chemical, 
# crystal, experimental, refinement or atomic coordinate data resulting 
# from the CCDC's data processing and validation procedures.
#
#######################################################################

data_EKUKUR
_chemical_formula_moiety         'C152 H128 N12 O6'
_chemical_name_systematic        
"2,2':7',2'':7'',2''':7,7''':12,12'':12',12'''-hexakis((5-t-butyl-2-hydroxy-1,3-phenylene)bis(methylylidenenitrilo))-tetrakis(triptycene) unknown solvate"
_symmetry_cell_setting           rhombohedral
_symmetry_space_group_name_H-M   'R -3'
_symmetry_Int_Tables_number      148
_space_group_name_Hall           '-R 3'
loop_
_symmetry_equiv_pos_site_id
_symmetry_equiv_pos_as_xyz
1 x,y,z
2 -y,x-y,z
3 -x+y,-x,z
4 2/3+x,1/3+y,1/3+z
5 2/3-y,1/3+x-y,1/3+z
6 2/3-x+y,1/3-x,1/3+z
7 1/3+x,2/3+y,2/3+z
8 1/3-y,2/3+x-y,2/3+z
9 1/3-x+y,2/3-x,2/3+z
10 -x,-y,-z
11 y,-x+y,-z
12 x-y,x,-z
13 1/3-x,2/3-y,2/3-z
14 1/3+y,2/3-x+y,2/3-z
15 1/3+x-y,2/3+x,2/3-z
16 2/3-x,1/3-y,1/3-z
17 2/3+y,1/3-x+y,1/3-z
18 2/3+x-y,1/3+x,1/3-z
_cell_length_a                   29.149(3)
_cell_length_b                   29.149(3)
_cell_length_c                   58.518(5)
_cell_angle_alpha                90
_cell_angle_beta                 90
_cell_angle_gamma                120
_cell_volume                     43059.3
_exptl_crystal_colour            red
_exptl_crystal_description       prism
_cell_formula_units_Z            6
loop_
_atom_site_label
_atom_site_type_symbol
_atom_site_fract_x
_atom_site_fract_y
_atom_site_fract_z
C1 C 0.6667 0.3333 -0.04097(5)
H1 H 0.6667 0.3333 -0.0239
C2 C 0.6667 0.3333 -0.08511(5)
H2 H 0.6667 0.3333 -0.1022
C3 C 0.65757(6) 0.37598(6) -0.05090(3)
C4 C 0.65759(7) 0.37688(7) -0.07498(3)
C5 C 0.65172(7) 0.41391(7) -0.08687(3)
H3 H 0.6526 0.4145 -0.1031
C6 C 0.64451(8) 0.45076(8) -0.07475(3)
H4 H 0.6423 0.4779 -0.0828
C7 C 0.64051(7) 0.44847(7) -0.05118(3)
C8 C 0.64780(7) 0.41207(6) -0.03886(3)
H5 H 0.6462 0.4114 -0.0226
N1 N 0.62968(6) 0.48621(6) -0.04070(3)
C9 C 0.60267(8) 0.47423(8) -0.02206(3)
H6 H 0.5894 0.4398 -0.0158
C10 C 0.59174(8) 0.51214(8) -0.01009(3)
C11 C 0.60777(8) 0.56143(8) -0.01994(3)
H7 H 0.6254 0.5695 -0.0343
C12 C 0.59861(9) 0.60000(8) -0.00930(4)
C13 C 0.61674(11) 0.65429(9) -0.01895(4)
C14 C 0.65186(11) 0.66447(10) -0.04016(4)
H8 H 0.6313 0.6386 -0.0521
H9 H 0.6825 0.6609 -0.0360
H10 H 0.6641 0.7004 -0.0459
C15 C 0.64987(16) 0.69640(10) -0.00077(5)
H11 H 0.6601 0.7317 -0.0067
H12 H 0.6817 0.6945 0.0027
H13 H 0.6287 0.6897 0.0131
C16 C 0.56956(13) 0.65908(11) -0.02545(6)
H14 H 0.5520 0.6614 -0.0116
H15 H 0.5448 0.6279 -0.0343
H16 H 0.5811 0.6911 -0.0347
C17 C 0.56909(9) 0.58405(8) 0.01122(3)
H17 H 0.5598 0.6076 0.0184
C18 C 0.55317(8) 0.53530(8) 0.02126(3)
C19 C 0.56512(8) 0.49930(7) 0.01014(3)
O1 O 0.55019(6) 0.45085(5) 0.01977(2)
H18 H 0.5342 0.4479 0.0321
C20 C 0.52664(8) 0.52375(8) 0.04303(3)
H19 H 0.5174 0.5483 0.0491
N2 N 0.51486(6) 0.48173(5) 0.05469(2)
C21 C 0.49116(8) 0.47631(7) 0.07700(3)
C22 C 0.45352(8) 0.49062(8) 0.08089(3)
H20 H 0.4399 0.5015 0.0686
C23 C 0.43556(7) 0.48907(7) 0.10305(3)
H21 H 0.4091 0.4984 0.1058
C24 C 0.45559(7) 0.47423(7) 0.12117(3)
C25 C 0.49372(7) 0.45838(7) 0.11642(3)
C26 C 0.51045(7) 0.45816(7) 0.09465(3)
H22 H 0.5346 0.4460 0.0915
C27 C 0.51259(7) 0.44368(7) 0.13794(3)
H23 H 0.5393 0.4324 0.1350
C28 C 0.46354(7) 0.40216(7) 0.15090(3)
C29 C 0.45457(7) 0.35416(7) 0.15824(3)
H24 H 0.4798 0.3434 0.1552
C30 C 0.40887(7) 0.32097(7) 0.17020(3)
N3 N 0.40200(6) 0.26967(6) 0.17660(3)
C31 C 0.36532(9) 0.23988(8) 0.19019(3)
H25 H 0.3430 0.2517 0.1965
C32 C 0.37227(8) 0.33663(7) 0.17457(3)
H26 H 0.3408 0.3140 0.1828
C33 C 0.38130(7) 0.38525(7) 0.16700(3)
H27 H 0.3561 0.3960 0.1702
C34 C 0.42645(7) 0.41833(7) 0.15485(3)
C35 C 0.44335(6) 0.47383(7) 0.14588(3)
H28 H 0.4168 0.4853 0.1490
C36 C 0.49728(7) 0.50915(7) 0.15763(3)
C37 C 0.51098(7) 0.55362(7) 0.17084(3)
H29 H 0.4867 0.5660 0.1729
C38 C 0.56059(7) 0.57981(7) 0.18099(3)
H30 H 0.5697 0.6094 0.1906
C39 C 0.59771(7) 0.56301(7) 0.17723(3)
C40 C 0.58397(7) 0.51992(8) 0.16331(3)
H31 H 0.6086 0.5083 0.1605
C41 C 0.53355(7) 0.49327(7) 0.15332(3)
N4 N 0.64672(6) 0.59213(6) 0.18876(2)
C42 C 0.68669(8) 0.59200(8) 0.18125(3)
H32 H 0.6831 0.5716 0.1680
C43 C 0.73959(7) 0.62230(8) 0.19209(3)
C44 C 0.77991(7) 0.61239(8) 0.18608(3)
O2 O 0.76952(5) 0.57321(5) 0.17093(2)
H33 H 0.7970 0.5713 0.1688
C45 C 0.83038(7) 0.64340(8) 0.19643(3)
C46 C 0.83906(8) 0.68203(9) 0.21150(3)
H34 H 0.8733 0.7021 0.2180
C47 C 0.79955(8) 0.69400(9) 0.21795(3)
C48 C 0.81275(10) 0.73809(10) 0.23490(4)
C49 C 0.76363(10) 0.74509(10) 0.23897(4)
H35 H 0.7739 0.7763 0.2485
H36 H 0.7357 0.7136 0.2467
H37 H 0.7504 0.7497 0.2243
C50 C 0.85627(11) 0.78879(11) 0.22668(5)
H38 H 0.8894 0.7878 0.2269
H39 H 0.8598 0.8174 0.2366
H40 H 0.8487 0.7951 0.2110
C51 C 0.82563(13) 0.72234(14) 0.25840(4)
H41 H 0.8516 0.7107 0.2563
H42 H 0.7931 0.6934 0.2651
H43 H 0.8403 0.7530 0.2687
C52 C 0.74982(8) 0.66246(9) 0.20801(3)
H44 H 0.7217 0.6684 0.2122
C3A C 0.62402(6) 0.28159(8) -0.05090(3)
C3B C 0.71841(8) 0.34243(6) -0.05090(3)
C4A C 0.62312(7) 0.28071(10) -0.07498(3)
C4B C 0.71929(10) 0.34241(7) -0.07498(3)
C5A C 0.58609(7) 0.23781(10) -0.08687(3)
C5B C 0.76219(10) 0.34828(7) -0.08687(3)
H3A H 0.5855 0.2381 -0.1031
H3B H 0.7619 0.3474 -0.1031
C6A C 0.54924(8) 0.19375(11) -0.07475(3)
C6B C 0.80625(11) 0.35549(8) -0.07475(3)
H4A H 0.5221 0.1644 -0.0828
H4B H 0.8356 0.3577 -0.0828
C7A C 0.55153(7) 0.19204(10) -0.05118(3)
C7B C 0.80796(10) 0.35949(7) -0.05118(3)
C8A C 0.58793(6) 0.23573(9) -0.03886(3)
C8B C 0.76427(9) 0.35220(7) -0.03886(3)
H5A H 0.5886 0.2348 -0.0226
H5B H 0.7652 0.3538 -0.0226
N1A N 0.51379(6) 0.14347(8) -0.04070(3)
N1B N 0.85653(8) 0.37032(6) -0.04070(3)
C9A C 0.52577(8) 0.12844(11) -0.02206(3)
C9B C 0.87156(11) 0.39733(8) -0.02206(3)
H6A H 0.5602 0.1496 -0.0158
H6B H 0.8504 0.4106 -0.0158
C10A C 0.48786(8) 0.07960(11) -0.01009(3)
C10B C 0.92040(11) 0.40826(8) -0.01009(3)
C11A C 0.43857(8) 0.04634(11) -0.01994(3)
C11B C 0.95366(11) 0.39223(8) -0.01994(3)
H7A H 0.4305 0.0559 -0.0343
H7B H 0.9441 0.3746 -0.0343
C12A C 0.40000(8) -0.00139(12) -0.00930(4)
C12B C 1.00139(12) 0.40139(9) -0.00930(4)
C13A C 0.34571(9) -0.03755(14) -0.01895(4)
C13B C 1.03755(14) 0.38326(11) -0.01895(4)
C14A C 0.33553(10) -0.01261(15) -0.04016(4)
C14B C 1.01261(15) 0.34814(11) -0.04016(4)
H8A H 0.3614 -0.0073 -0.0521
H8B H 1.0073 0.3687 -0.0521
H9A H 0.3391 0.0216 -0.0360
H9B H 0.9784 0.3175 -0.0360
H10A H 0.2996 -0.0363 -0.0459
H10B H 1.0363 0.3359 -0.0459
C15A C 0.30360(10) -0.04653(19) -0.00077(5)
C15B C 1.04653(19) 0.35013(16) -0.00077(5)
H11A H 0.2683 -0.0716 -0.0067
H11B H 1.0716 0.3399 -0.0067
H12A H 0.3055 -0.0128 0.0027
H12B H 1.0128 0.3183 0.0027
H13A H 0.3103 -0.0610 0.0131
H13B H 1.0610 0.3713 0.0131
C16A C 0.34092(11) -0.08952(17) -0.02545(6)
C16B C 1.08952(17) 0.43044(13) -0.02545(6)
H14A H 0.3386 -0.1094 -0.0116
H14B H 1.1094 0.4480 -0.0116
H15A H 0.3721 -0.0831 -0.0343
H15B H 1.0831 0.4552 -0.0343
H16A H 0.3089 -0.1100 -0.0347
H16B H 1.1100 0.4189 -0.0347
C17A C 0.41595(8) -0.01496(12) 0.01122(3)
C17B C 1.01496(12) 0.43091(9) 0.01122(3)
H17A H 0.3924 -0.0478 0.0184
H17B H 1.0478 0.4402 0.0184
C18A C 0.46470(8) 0.01787(11) 0.02126(3)
C18B C 0.98213(11) 0.44683(8) 0.02126(3)
C19A C 0.50070(7) 0.06582(11) 0.01014(3)
C19B C 0.93418(11) 0.43488(8) 0.01014(3)
O1A O 0.54915(5) 0.09934(8) 0.01977(2)
O1B O 0.90066(8) 0.44981(6) 0.01977(2)
H18A H 0.5521 0.0863 0.0321
H18B H 0.9137 0.4658 0.0321
C20A C 0.47625(8) 0.00289(11) 0.04303(3)
C20B C 0.99711(11) 0.47336(8) 0.04303(3)
H19A H 0.4517 -0.0309 0.0491
H19B H 1.0309 0.4826 0.0491
N2A N 0.51827(5) 0.03313(8) 0.05469(2)
N2B N 0.96687(8) 0.48514(6) 0.05469(2)
C21A C 0.52369(7) 0.01485(11) 0.07700(3)
C21B C 0.98515(11) 0.50884(8) 0.07700(3)
C22A C 0.50938(8) -0.03710(11) 0.08089(3)
C22B C 1.03710(11) 0.54648(8) 0.08089(3)
H20A H 0.4985 -0.0616 0.0686
H20B H 1.0616 0.5601 0.0686
C23A C 0.51093(7) -0.05351(10) 0.10305(3)
C23B C 1.05351(10) 0.56444(7) 0.10305(3)
H21A H 0.5016 -0.0893 0.1058
H21B H 1.0893 0.5909 0.1058
C24A C 0.52577(7) -0.01864(10) 0.12117(3)
C24B C 1.01864(10) 0.54441(7) 0.12117(3)
C25A C 0.54162(7) 0.03534(10) 0.11642(3)
C25B C 0.96466(10) 0.50628(7) 0.11642(3)
C26A C 0.54184(7) 0.05229(10) 0.09465(3)
C26B C 0.94771(10) 0.48955(7) 0.09465(3)
H22A H 0.5540 0.0886 0.0915
H22B H 0.9114 0.4654 0.0915
C27A C 0.55632(7) 0.06891(10) 0.13794(3)
C27B C 0.93109(10) 0.48741(7) 0.13794(3)
H23A H 0.5676 0.1069 0.1350
H23B H 0.8931 0.4607 0.1350
C28A C 0.59784(7) 0.06138(10) 0.15090(3)
C28B C 0.93862(10) 0.53646(7) 0.15090(3)
C29A C 0.64584(7) 0.10041(10) 0.15824(3)
C29B C 0.89959(10) 0.54543(7) 0.15824(3)
H24A H 0.6566 0.1364 0.1552
H24B H 0.8636 0.5202 0.1552
C30A C 0.67903(7) 0.08790(10) 0.17020(3)
C30B C 0.91210(10) 0.59113(7) 0.17020(3)
N3A N 0.73033(6) 0.13233(8) 0.17660(3)
N3B N 0.86767(8) 0.59800(6) 0.17660(3)
C31A C 0.76012(8) 0.12544(12) 0.19019(3)
C31B C 0.87456(12) 0.63468(9) 0.19019(3)
H25A H 0.7483 0.0913 0.1965
H25B H 0.9087 0.6570 0.1965
C32A C 0.66337(7) 0.03564(11) 0.17457(3)
C32B C 0.96436(11) 0.62773(8) 0.17457(3)
H26A H 0.6860 0.0268 0.1828
H26B H 0.9732 0.6592 0.1828
C33A C 0.61475(7) -0.00395(10) 0.16700(3)
C33B C 1.00395(10) 0.61870(7) 0.16700(3)
H27A H 0.6040 -0.0399 0.1702
H27B H 1.0399 0.6439 0.1702
C34A C 0.58167(7) 0.00812(10) 0.15485(3)
C34B C 0.99188(10) 0.57355(7) 0.15485(3)
C35A C 0.52617(7) -0.03048(9) 0.14588(3)
C35B C 1.03048(9) 0.55665(6) 0.14588(3)
H28A H 0.5147 -0.0685 0.1490
H28B H 1.0685 0.5832 0.1490
C36A C 0.49085(7) -0.01187(10) 0.15763(3)
C36B C 1.01187(10) 0.50272(7) 0.15763(3)
C37A C 0.44638(7) -0.04264(10) 0.17084(3)
C37B C 1.04264(10) 0.48902(7) 0.17084(3)
H29A H 0.4340 -0.0793 0.1729
H29B H 1.0793 0.5133 0.1729
C38A C 0.42019(7) -0.01922(10) 0.18099(3)
C38B C 1.01922(10) 0.43941(7) 0.18099(3)
H30A H 0.3906 -0.0397 0.1906
H30B H 1.0397 0.4303 0.1906
C39A C 0.43699(7) 0.03470(10) 0.17723(3)
C39B C 0.96530(10) 0.40229(7) 0.17723(3)
C40A C 0.48008(8) 0.06405(11) 0.16331(3)
C40B C 0.93595(11) 0.41603(7) 0.16331(3)
H31A H 0.4917 0.1003 0.1605
H31B H 0.8997 0.3914 0.1605
C41A C 0.50673(7) 0.04028(10) 0.15332(3)
C41B C 0.95972(10) 0.46645(7) 0.15332(3)
N4A N 0.40787(6) 0.05459(8) 0.18876(2)
N4B N 0.94541(8) 0.35328(6) 0.18876(2)
C42A C 0.40800(8) 0.09469(11) 0.18125(3)
C42B C 0.90531(11) 0.31331(8) 0.18125(3)
H32A H 0.4284 0.1115 0.1680
H32B H 0.8885 0.3169 0.1680
C43A C 0.37770(8) 0.11729(11) 0.19209(3)
C43B C 0.88271(11) 0.26041(7) 0.19209(3)
C44A C 0.38761(8) 0.16752(11) 0.18608(3)
C44B C 0.83248(11) 0.22009(7) 0.18608(3)
O2A O 0.42679(5) 0.19631(7) 0.17093(2)
O2B O 0.80369(7) 0.23048(5) 0.17093(2)
H33A H 0.4287 0.2257 0.1688
H33B H 0.7743 0.2030 0.1688
C45A C 0.35660(8) 0.18698(11) 0.19643(3)
C45B C 0.81302(11) 0.16962(7) 0.19643(3)
C46A C 0.31797(9) 0.15703(12) 0.21150(3)
C46B C 0.84297(12) 0.16094(8) 0.21150(3)
H34A H 0.2979 0.1712 0.2180
H34B H 0.8288 0.1267 0.2180
C47A C 0.30600(9) 0.10555(12) 0.21795(3)
C47B C 0.89445(12) 0.20045(8) 0.21795(3)
C48A C 0.26191(10) 0.07466(14) 0.23490(4)
C48B C 0.92534(14) 0.18725(10) 0.23490(4)
C49A C 0.25491(10) 0.01854(14) 0.23897(4)
C49B C 0.98146(14) 0.23637(10) 0.23897(4)
H35A H 0.2237 -0.0024 0.2485
H35B H 1.0024 0.2261 0.2485
H36A H 0.2864 0.0221 0.2467
H36B H 0.9779 0.2643 0.2467
H37A H 0.2503 0.0007 0.2243
H37B H 0.9993 0.2496 0.2243
C50A C 0.21121(11) 0.06748(16) 0.22668(5)
C50B C 0.93252(16) 0.14373(11) 0.22668(5)
H38A H 0.2122 0.1016 0.2269
H38B H 0.8984 0.1106 0.2269
H39A H 0.1826 0.0424 0.2366
H39B H 0.9576 0.1402 0.2366
H40A H 0.2049 0.0536 0.2110
H40B H 0.9464 0.1513 0.2110
C51A C 0.27766(14) 0.10329(19) 0.25840(4)
C51B C 0.89671(19) 0.17437(13) 0.25840(4)
H41A H 0.2893 0.1409 0.2563
H41B H 0.8591 0.1484 0.2563
H42A H 0.3066 0.0997 0.2651
H42B H 0.9003 0.2069 0.2651
H43A H 0.2470 0.0873 0.2687
H43B H 0.9127 0.1597 0.2687
C52A C 0.33754(9) 0.08736(12) 0.20801(3)
C52B C 0.91264(12) 0.25018(8) 0.20801(3)
H44A H 0.3316 0.0533 0.2122
H44B H 0.9467 0.2783 0.2122
loop_
_geom_bond_atom_site_label_1
_geom_bond_atom_site_label_2
_geom_bond_site_symmetry_1
_geom_bond_site_symmetry_2
C1 H1 1_555 1_555
C2 H2 1_555 1_555
C3 C1 1_555 1_555
C4 C2 1_555 1_555
C5 C4 1_555 1_555
H3 C5 1_555 1_555
C6 C5 1_555 1_555
H4 C6 1_555 1_555
C7 C6 1_555 1_555
C8 C3 1_555 1_555
H5 C8 1_555 1_555
N1 C7 1_555 1_555
C9 N1 1_555 1_555
H6 C9 1_555 1_555
C10 C9 1_555 1_555
C11 C10 1_555 1_555
H7 C11 1_555 1_555
C12 C11 1_555 1_555
C13 C12 1_555 1_555
C14 C13 1_555 1_555
H8 C14 1_555 1_555
H9 C14 1_555 1_555
H10 C14 1_555 1_555
C15 C13 1_555 1_555
H11 C15 1_555 1_555
H12 C15 1_555 1_555
H13 C15 1_555 1_555
C16 C13 1_555 1_555
H14 C16 1_555 1_555
H15 C16 1_555 1_555
H16 C16 1_555 1_555
C17 C12 1_555 1_555
H17 C17 1_555 1_555
C18 C17 1_555 1_555
C19 C10 1_555 1_555
O1 C19 1_555 1_555
H18 O1 1_555 1_555
C20 C18 1_555 1_555
H19 C20 1_555 1_555
N2 C20 1_555 1_555
C21 N2 1_555 1_555
C22 C21 1_555 1_555
H20 C22 1_555 1_555
C23 C22 1_555 1_555
H21 C23 1_555 1_555
C24 C23 1_555 1_555
C25 C24 1_555 1_555
C26 C21 1_555 1_555
H22 C26 1_555 1_555
C27 C25 1_555 1_555
H23 C27 1_555 1_555
C28 C27 1_555 1_555
C29 C28 1_555 1_555
H24 C29 1_555 1_555
C30 C29 1_555 1_555
N3 C30 1_555 1_555
C31 N3 1_555 1_555
H25 C31 1_555 1_555
C32 C30 1_555 1_555
H26 C32 1_555 1_555
C33 C32 1_555 1_555
H27 C33 1_555 1_555
C34 C28 1_555 1_555
C35 C24 1_555 1_555
H28 C35 1_555 1_555
C36 C35 1_555 1_555
C37 C36 1_555 1_555
H29 C37 1_555 1_555
C38 C37 1_555 1_555
H30 C38 1_555 1_555
C39 C38 1_555 1_555
C40 C39 1_555 1_555
H31 C40 1_555 1_555
C41 C27 1_555 1_555
N4 C39 1_555 1_555
C42 N4 1_555 1_555
H32 C42 1_555 1_555
C43 C42 1_555 1_555
C44 C43 1_555 1_555
O2 C44 1_555 1_555
H33 O2 1_555 1_555
C45 C44 1_555 1_555
C46 C45 1_555 1_555
H34 C46 1_555 1_555
C47 C46 1_555 1_555
C48 C47 1_555 1_555
C49 C48 1_555 1_555
H35 C49 1_555 1_555
H36 C49 1_555 1_555
H37 C49 1_555 1_555
C50 C48 1_555 1_555
H38 C50 1_555 1_555
H39 C50 1_555 1_555
H40 C50 1_555 1_555
C51 C48 1_555 1_555
H41 C51 1_555 1_555
H42 C51 1_555 1_555
H43 C51 1_555 1_555
C52 C43 1_555 1_555
H44 C52 1_555 1_555
C3A C1 1_555 1_555
C3B C1 1_555 1_555
C4A C2 1_555 1_555
C4B C2 1_555 1_555
C5A C4A 1_555 1_555
C5B C4B 1_555 1_555
H3A C5A 1_555 1_555
H3B C5B 1_555 1_555
C6A C5A 1_555 1_555
C6B C5B 1_555 1_555
H4A C6A 1_555 1_555
H4B C6B 1_555 1_555
C7A C6A 1_555 1_555
C7B C6B 1_555 1_555
C8A C3A 1_555 1_555
C8B C3B 1_555 1_555
H5A C8A 1_555 1_555
H5B C8B 1_555 1_555
N1A C7A 1_555 1_555
N1B C7B 1_555 1_555
C9A N1A 1_555 1_555
C9B N1B 1_555 1_555
H6A C9A 1_555 1_555
H6B C9B 1_555 1_555
C10A C9A 1_555 1_555
C10B C9B 1_555 1_555
C11A C10A 1_555 1_555
C11B C10B 1_555 1_555
H7A C11A 1_555 1_555
H7B C11B 1_555 1_555
C12A C11A 1_555 1_555
C12B C11B 1_555 1_555
C13A C12A 1_555 1_555
C13B C12B 1_555 1_555
C14A C13A 1_555 1_555
C14B C13B 1_555 1_555
H8A C14A 1_555 1_555
H8B C14B 1_555 1_555
H9A C14A 1_555 1_555
H9B C14B 1_555 1_555
H10A C14A 1_555 1_555
H10B C14B 1_555 1_555
C15A C13A 1_555 1_555
C15B C13B 1_555 1_555
H11A C15A 1_555 1_555
H11B C15B 1_555 1_555
H12A C15A 1_555 1_555
H12B C15B 1_555 1_555
H13A C15A 1_555 1_555
H13B C15B 1_555 1_555
C16A C13A 1_555 1_555
C16B C13B 1_555 1_555
H14A C16A 1_555 1_555
H14B C16B 1_555 1_555
H15A C16A 1_555 1_555
H15B C16B 1_555 1_555
H16A C16A 1_555 1_555
H16B C16B 1_555 1_555
C17A C12A 1_555 1_555
C17B C12B 1_555 1_555
H17A C17A 1_555 1_555
H17B C17B 1_555 1_555
C18A C17A 1_555 1_555
C18B C17B 1_555 1_555
C19A C10A 1_555 1_555
C19B C10B 1_555 1_555
O1A C19A 1_555 1_555
O1B C19B 1_555 1_555
H18A O1A 1_555 1_555
H18B O1B 1_555 1_555
C20A C18A 1_555 1_555
C20B C18B 1_555 1_555
H19A C20A 1_555 1_555
H19B C20B 1_555 1_555
N2A C20A 1_555 1_555
N2B C20B 1_555 1_555
C21A N2A 1_555 1_555
C21B N2B 1_555 1_555
C22A C21A 1_555 1_555
C22B C21B 1_555 1_555
H20A C22A 1_555 1_555
H20B C22B 1_555 1_555
C23A C22A 1_555 1_555
C23B C22B 1_555 1_555
H21A C23A 1_555 1_555
H21B C23B 1_555 1_555
C24A C23A 1_555 1_555
C24B C23B 1_555 1_555
C25A C24A 1_555 1_555
C25B C24B 1_555 1_555
C26A C21A 1_555 1_555
C26B C21B 1_555 1_555
H22A C26A 1_555 1_555
H22B C26B 1_555 1_555
C27A C25A 1_555 1_555
C27B C25B 1_555 1_555
H23A C27A 1_555 1_555
H23B C27B 1_555 1_555
C28A C27A 1_555 1_555
C28B C27B 1_555 1_555
C29A C28A 1_555 1_555
C29B C28B 1_555 1_555
H24A C29A 1_555 1_555
H24B C29B 1_555 1_555
C30A C29A 1_555 1_555
C30B C29B 1_555 1_555
N3A C30A 1_555 1_555
N3B C30B 1_555 1_555
C31A N3A 1_555 1_555
C31B C45 1_555 1_555
H25A C31A 1_555 1_555
H25B C31B 1_555 1_555
C32A C30A 1_555 1_555
C32B C30B 1_555 1_555
H26A C32A 1_555 1_555
H26B C32B 1_555 1_555
C33A C32A 1_555 1_555
C33B C32B 1_555 1_555
H27A C33A 1_555 1_555
H27B C33B 1_555 1_555
C34A C28A 1_555 1_555
C34B C28B 1_555 1_555
C35A C24A 1_555 1_555
C35B C24B 1_555 1_555
H28A C35A 1_555 1_555
H28B C35B 1_555 1_555
C36A C35A 1_555 1_555
C36B C35B 1_555 1_555
C37A C36A 1_555 1_555
C37B C36B 1_555 1_555
H29A C37A 1_555 1_555
H29B C37B 1_555 1_555
C38A C37A 1_555 1_555
C38B C37B 1_555 1_555
H30A C38A 1_555 1_555
H30B C38B 1_555 1_555
C39A C38A 1_555 1_555
C39B C38B 1_555 1_555
C40A C39A 1_555 1_555
C40B C39B 1_555 1_555
H31A C40A 1_555 1_555
H31B C40B 1_555 1_555
C41A C27A 1_555 1_555
C41B C27B 1_555 1_555
N4A C39A 1_555 1_555
N4B C39B 1_555 1_555
C42A N4A 1_555 1_555
C42B N4B 1_555 1_555
H32A C42A 1_555 1_555
H32B C42B 1_555 1_555
C43A C42A 1_555 1_555
C43B C42B 1_555 1_555
C44A C43A 1_555 1_555
C44B C43B 1_555 1_555
O2A C44A 1_555 1_555
O2B C44B 1_555 1_555
H33A O2A 1_555 1_555
H33B O2B 1_555 1_555
C45A C31 1_555 1_555
C45B C31A 1_555 1_555
C46A C45A 1_555 1_555
C46B C45B 1_555 1_555
H34A C46A 1_555 1_555
H34B C46B 1_555 1_555
C47A C46A 1_555 1_555
C47B C46B 1_555 1_555
C48A C47A 1_555 1_555
C48B C47B 1_555 1_555
C49A C48A 1_555 1_555
C49B C48B 1_555 1_555
H35A C49A 1_555 1_555
H35B C49B 1_555 1_555
H36A C49A 1_555 1_555
H36B C49B 1_555 1_555
H37A C49A 1_555 1_555
H37B C49B 1_555 1_555
C50A C48A 1_555 1_555
C50B C48B 1_555 1_555
H38A C50A 1_555 1_555
H38B C50B 1_555 1_555
H39A C50A 1_555 1_555
H39B C50B 1_555 1_555
H40A C50A 1_555 1_555
H40B C50B 1_555 1_555
C51A C48A 1_555 1_555
C51B C48B 1_555 1_555
H41A C51A 1_555 1_555
H41B C51B 1_555 1_555
H42A C51A 1_555 1_555
H42B C51B 1_555 1_555
H43A C51A 1_555 1_555
H43B C51B 1_555 1_555
C52A C43A 1_555 1_555
C52B C43B 1_555 1_555
H44A C52A 1_555 1_555
H44B C52B 1_555 1_555
C3 C4 1_555 1_555
C7 C8 1_555 1_555
C18 C19 1_555 1_555
C25 C26 1_555 1_555
C33 C34 1_555 1_555
C34 C35 1_555 1_555
C36 C41 1_555 1_555
C40 C41 1_555 1_555
C47 C52 1_555 1_555
C3A C4A 1_555 1_555
C3B C4B 1_555 1_555
C7A C8A 1_555 1_555
C7B C8B 1_555 1_555
C18A C19A 1_555 1_555
C18B C19B 1_555 1_555
C25A C26A 1_555 1_555
C25B C26B 1_555 1_555
N3B C31B 1_555 1_555
C33A C34A 1_555 1_555
C33B C34B 1_555 1_555
C34A C35A 1_555 1_555
C34B C35B 1_555 1_555
C36A C41A 1_555 1_555
C36B C41B 1_555 1_555
C40A C41A 1_555 1_555
C40B C41B 1_555 1_555
C44A C45A 1_555 1_555
C44B C45B 1_555 1_555
C47A C52A 1_555 1_555
C47B C52B 1_555 1_555

#END
