
#######################################################################
#
#                 Cambridge Crystallographic Data Centre
#                                CCDC 
#
#######################################################################
#
# If this CIF has been generated from an entry in the Cambridge 
# Structural Database, then it will include bibliographic, chemical, 
# crystal, experimental, refinement or atomic coordinate data resulting 
# from the CCDC's data processing and validation procedures.
#
#######################################################################

data_EKULAZ
_chemical_formula_moiety         'C37 H54 O3'
_chemical_name_systematic        
(2aS,4S,5'R,6aS,6bS,8aS,8bR,9S,10R,11aS,12aS,12bR)-5',6a,8a,9-Tetramethyl-4-(4-phenylbutyl)icosahydrospiro[naphtho[2',1':4,5]indeno[2,1-b]furan-10,2'-pyran]-8(2H)-one
_symmetry_cell_setting           orthorhombic
_symmetry_space_group_name_H-M   'P 21 21 21'
_symmetry_Int_Tables_number      19
_space_group_name_Hall           'P 2ac 2ab'
loop_
_symmetry_equiv_pos_site_id
_symmetry_equiv_pos_as_xyz
1 x,y,z
2 1/2-x,-y,1/2+z
3 1/2+x,1/2-y,-z
4 -x,1/2+y,1/2-z
_cell_length_a                   6.8269(4)
_cell_length_b                   11.8121(7)
_cell_length_c                   39.687(3)
_cell_angle_alpha                90
_cell_angle_beta                 90
_cell_angle_gamma                90
_cell_volume                     3200.36
_exptl_crystal_colour            colorless
_exptl_crystal_description       block
_cell_formula_units_Z            4
loop_
_atom_site_label
_atom_site_type_symbol
_atom_site_fract_x
_atom_site_fract_y
_atom_site_fract_z
O1 O 0.0713(4) 0.9435(3) 0.59062(7)
O2 O 0.1144(4) 0.8426(2) 0.64040(6)
O3 O -0.1245(4) 1.1936(2) 0.70542(7)
C1 C -0.0409(5) 0.9967(3) 0.70210(9)
C2 C -0.0543(6) 0.9993(3) 0.66332(9)
H1 H -0.1730 1.0401 0.6566
C3 C -0.1883(5) 0.9010(3) 0.71023(9)
H2 H -0.3161 0.9278 0.7023
C4 C -0.1536(6) 1.0894(3) 0.75643(10)
H3 H -0.2166 1.1580 0.7644
H4 H -0.0311 1.0813 0.7686
C5 C -0.3233(5) 0.9733(3) 0.80330(9)
C6 C -0.2123(5) 0.8782(3) 0.74772(9)
H5 H -0.0837 0.8593 0.7571
C7 C -0.2871(5) 0.9868(3) 0.76496(9)
H6 H -0.4150 1.0032 0.7549
C8 C -0.4678(5) 0.8731(3) 0.80785(9)
H7 H -0.5860 0.8930 0.7952
C9 C 0.1676(5) 0.9680(3) 0.71464(10)
H8 H 0.2501 1.0334 0.7124
H9 H 0.2202 0.9070 0.7015
H10 H 0.1621 0.9458 0.7379
C10 C -0.3906(6) 0.7648(3) 0.79228(10)
H11 H -0.4851 0.7045 0.7956
H12 H -0.2698 0.7432 0.8034
C11 C -0.3529(6) 0.7799(3) 0.75479(10)
H13 H -0.4763 0.7939 0.7434
H14 H -0.2979 0.7105 0.7457
C12 C -0.5319(6) 0.8585(4) 0.84432(10)
H15 H -0.4190 0.8377 0.8578
H16 H -0.6257 0.7970 0.8456
C13 C -0.6242(6) 0.9650(3) 0.85911(10)
H17 H -0.7447 0.9798 0.8464
C14 C -0.1091(5) 1.1027(3) 0.71956(10)
C15 C 0.3957(6) 0.9272(4) 0.61496(11)
H18 H 0.4610 0.9108 0.6361
H19 H 0.4456 0.9989 0.6067
C16 C -0.4238(6) 1.0788(3) 0.81758(9)
H20 H -0.3339 1.1422 0.8161
H21 H -0.5368 1.0965 0.8037
C17 C 0.1198(6) 1.0413(3) 0.64226(9)
H22 H 0.2280 1.0575 0.6578
C18 C -0.1256(7) 0.8072(3) 0.68568(9)
H23 H -0.0127 0.7663 0.6941
H24 H -0.2316 0.7542 0.6817
C19 C 0.1773(6) 0.9379(4) 0.62119(9)
C20 C -0.4905(6) 1.0659(4) 0.85401(10)
H25 H -0.3763 1.0576 0.8683
H26 H -0.5588 1.1341 0.8609
C21 C 0.1098(8) 0.8505(4) 0.56823(11)
H27 H 0.0291 0.8582 0.5482
H28 H 0.0742 0.7802 0.5793
C22 C -0.1285(6) 0.9534(4) 0.82195(10)
H29 H -0.0531 1.0220 0.8219
H30 H -0.0562 0.8946 0.8108
H31 H -0.1549 0.9312 0.8448
C23 C -0.0749(6) 0.8729(4) 0.65372(10)
H32 H -0.1769 0.8628 0.6366
C24 C -0.6823(7) 0.9474(4) 0.89582(11)
H33 H -0.7584 0.8782 0.8974
H34 H -0.5639 0.9364 0.9090
C25 C 0.4443(7) 0.8348(4) 0.58973(12)
H35 H 0.5822 0.8391 0.5840
H36 H 0.4204 0.7615 0.5999
C26 C -1.0448(8) 0.9039(4) 0.98977(12)
C27 C -0.8541(9) 1.0219(4) 0.94853(12)
H37 H -0.7370 1.0005 0.9608
H38 H -0.9027 1.0919 0.9582
C28 C -0.9172(9) 0.8360(5) 1.00784(13)
H39 H -0.8059 0.8078 0.9973
C29 C 0.0780(8) 1.1491(4) 0.62222(11)
H40 H 0.0474 1.2097 0.6375
H41 H -0.0309 1.1364 0.6074
H42 H 0.1914 1.1690 0.6092
C30 C 0.3230(8) 0.8456(4) 0.55796(11)
H43 H 0.3576 0.9165 0.5466
C31 C -1.2403(9) 0.9163(5) 1.04005(14)
H44 H -1.3506 0.9444 1.0510
C32 C -1.2062(9) 0.9439(4) 1.00672(14)
H45 H -1.2944 0.9905 0.9955
C33 C -0.9508(10) 0.8093(5) 1.04084(14)
H46 H -0.8616 0.7640 1.0523
C34 C -0.8000(8) 1.0431(4) 0.91171(12)
H47 H -0.9192 1.0539 0.8988
H48 H -0.7245 1.1125 0.9103
C35 C -1.1122(10) 0.8479(5) 1.05698(14)
H49 H -1.1357 0.8282 1.0793
C36 C -1.0064(8) 0.9311(5) 0.95309(12)
H50 H -0.9634 0.8629 0.9417
H51 H -1.1278 0.9555 0.9427
C37 C 0.3561(11) 0.7477(5) 0.53367(14)
H52 H 0.2789 0.7591 0.5137
H53 H 0.3180 0.6780 0.5443
H54 H 0.4922 0.7441 0.5277
loop_
_geom_bond_atom_site_label_1
_geom_bond_atom_site_label_2
_geom_bond_site_symmetry_1
_geom_bond_site_symmetry_2
O1 C19 1_555 1_555
O2 C19 1_555 1_555
O3 C14 1_555 1_555
C1 C2 1_555 1_555
C2 H1 1_555 1_555
C3 C1 1_555 1_555
H2 C3 1_555 1_555
C4 H3 1_555 1_555
H4 C4 1_555 1_555
C5 C7 1_555 1_555
C6 C3 1_555 1_555
H5 C6 1_555 1_555
C7 C4 1_555 1_555
H6 C7 1_555 1_555
C8 C5 1_555 1_555
H7 C8 1_555 1_555
C9 C1 1_555 1_555
H8 C9 1_555 1_555
H9 C9 1_555 1_555
H10 C9 1_555 1_555
C10 C8 1_555 1_555
H11 C10 1_555 1_555
H12 C10 1_555 1_555
C11 C6 1_555 1_555
H13 C11 1_555 1_555
H14 C11 1_555 1_555
C12 C8 1_555 1_555
H15 C12 1_555 1_555
H16 C12 1_555 1_555
C13 C12 1_555 1_555
H17 C13 1_555 1_555
C14 C1 1_555 1_555
C15 H18 1_555 1_555
H19 C15 1_555 1_555
C16 C5 1_555 1_555
H20 C16 1_555 1_555
H21 C16 1_555 1_555
C17 C2 1_555 1_555
H22 C17 1_555 1_555
C18 C3 1_555 1_555
H23 C18 1_555 1_555
H24 C18 1_555 1_555
C19 C15 1_555 1_555
C20 C13 1_555 1_555
H25 C20 1_555 1_555
H26 C20 1_555 1_555
C21 O1 1_555 1_555
H27 C21 1_555 1_555
H28 C21 1_555 1_555
C22 C5 1_555 1_555
H29 C22 1_555 1_555
H30 C22 1_555 1_555
H31 C22 1_555 1_555
C23 O2 1_555 1_555
H32 C23 1_555 1_555
C24 C13 1_555 1_555
H33 C24 1_555 1_555
H34 C24 1_555 1_555
C25 C15 1_555 1_555
H35 C25 1_555 1_555
H36 C25 1_555 1_555
C26 C28 1_555 1_555
C27 H37 1_555 1_555
H38 C27 1_555 1_555
C28 H39 1_555 1_555
C29 C17 1_555 1_555
H40 C29 1_555 1_555
H41 C29 1_555 1_555
H42 C29 1_555 1_555
C30 C21 1_555 1_555
H43 C30 1_555 1_555
C31 H44 1_555 1_555
C32 C26 1_555 1_555
H45 C32 1_555 1_555
C33 C28 1_555 1_555
H46 C33 1_555 1_555
C34 C24 1_555 1_555
H47 C34 1_555 1_555
H48 C34 1_555 1_555
C35 C31 1_555 1_555
H49 C35 1_555 1_555
C36 C26 1_555 1_555
H50 C36 1_555 1_555
H51 C36 1_555 1_555
C37 C30 1_555 1_555
H52 C37 1_555 1_555
H53 C37 1_555 1_555
H54 C37 1_555 1_555
C2 C23 1_555 1_555
C4 C14 1_555 1_555
C6 C7 1_555 1_555
C10 C11 1_555 1_555
C16 C20 1_555 1_555
C17 C19 1_555 1_555
C18 C23 1_555 1_555
C25 C30 1_555 1_555
C27 C34 1_555 1_555
C27 C36 1_555 1_555
C31 C32 1_555 1_555
C33 C35 1_555 1_555

#END
