
#######################################################################
#
#                 Cambridge Crystallographic Data Centre
#                                CCDC 
#
#######################################################################
#
# If this CIF has been generated from an entry in the Cambridge 
# Structural Database, then it will include bibliographic, chemical, 
# crystal, experimental, refinement or atomic coordinate data resulting 
# from the CCDC's data processing and validation procedures.
#
#######################################################################

data_EKUNUU
_chemical_formula_moiety         'C38 H30 N2 O4 2+,2(Cl1 O4 1-),H2 O1'
_chemical_name_systematic        
"1,1'-bis((2'-carboxybiphenyl-4-yl)methyl)-4,4'-bipyridinium diperchlorate monohydrate"
_symmetry_cell_setting           monoclinic
_symmetry_space_group_name_H-M   'P 21/c'
_symmetry_Int_Tables_number      14
_space_group_name_Hall           '-P 2ybc'
loop_
_symmetry_equiv_pos_site_id
_symmetry_equiv_pos_as_xyz
1 x,y,z
2 -x,1/2+y,1/2-z
3 -x,-y,-z
4 x,1/2-y,1/2+z
_cell_length_a                   14.643(7)
_cell_length_b                   14.536(6)
_cell_length_c                   21.157(7)
_cell_angle_alpha                90
_cell_angle_beta                 125.33(2)
_cell_angle_gamma                90
_cell_volume                     3673.93
_exptl_crystal_colour            yellow
_exptl_crystal_description       block
_cell_formula_units_Z            4
loop_
_atom_site_label
_atom_site_type_symbol
_atom_site_fract_x
_atom_site_fract_y
_atom_site_fract_z
Cl1 Cl 0.17828(15) 0.34698(10) 0.40615(9)
O5 O 0.0884(5) 0.3709(5) 0.3322(3)
O6 O 0.2741(7) 0.3534(7) 0.4021(6)
O7 O 0.1830(5) 0.2581(3) 0.4316(3)
O8 O 0.1948(5) 0.4142(3) 0.4584(3)
Cl2 Cl 0.7063(2) 0.33510(14) 0.41353(11)
O9 O 0.6124(5) 0.3586(3) 0.3572(3)
O10 O 0.7491(5) 0.2924(3) 0.3756(3)
O11 O 0.7663(5) 0.4125(3) 0.4494(3)
O12 O 0.7053(4) 0.2710(3) 0.4554(3)
O1 O 0.1321(3) 0.5708(3) -0.0030(2)
H1 H 0.1687 0.5699 -0.0222
O2 O 0.2908(3) 0.5132(3) 0.0986(2)
O3 O 1.3925(3) -0.0585(3) 0.5322(2)
H2 H 1.3544 -0.0649 0.5500
O4 O 1.2278(3) -0.0848(3) 0.4212(2)
N1 N 0.4701(4) 0.1131(3) 0.1918(3)
N2 N 0.9043(3) 0.1770(3) 0.1516(2)
C1 C 0.1907(4) 0.5360(3) 0.0647(3)
C2 C 0.1366(4) 0.5284(3) 0.1057(3)
C3 C 0.0638(4) 0.6001(4) 0.0939(3)
H3 H 0.0496 0.6495 0.0599
C4 C 0.0127(5) 0.5980(5) 0.1327(4)
H4 H -0.0373 0.6459 0.1242
C5 C 0.0332(5) 0.5290(5) 0.1823(4)
H5 H -0.0013 0.5293 0.2090
C6 C 0.1042(4) 0.4581(4) 0.1940(3)
H6 H 0.1180 0.4101 0.2290
C7 C 0.1562(4) 0.4553(3) 0.1558(3)
C8 C 0.2210(4) 0.3713(3) 0.1661(3)
C9 C 0.1940(4) 0.3167(4) 0.1042(3)
H7 H 0.1403 0.3378 0.0530
C10 C 0.2437(4) 0.2324(3) 0.1156(3)
H8 H 0.2233 0.1956 0.0721
C11 C 0.3225(4) 0.2007(3) 0.1890(4)
C12 C 0.3512(5) 0.2551(4) 0.2506(3)
H9 H 0.4070 0.2344 0.3016
C13 C 0.3013(4) 0.3391(4) 0.2405(3)
H10 H 0.3215 0.3752 0.2842
C14 C 0.3777(5) 0.1067(4) 0.2023(4)
H11 H 0.4082 0.0850 0.2554
H12 H 0.3212 0.0615 0.1652
C15 C 0.4555(5) 0.0874(4) 0.1254(4)
H13 H 0.3858 0.0623 0.0845
C16 C 0.5390(5) 0.0972(4) 0.1168(4)
H14 H 0.5290 0.0765 0.0706
C17 C 0.6399(4) 0.1374(3) 0.1750(3)
C18 C 0.6537(4) 0.1635(4) 0.2427(3)
H15 H 0.7226 0.1895 0.2839
C19 C 0.5695(5) 0.1521(4) 0.2501(4)
H16 H 0.5787 0.1712 0.2964
C20 C 0.7318(4) 0.1521(3) 0.1653(3)
C21 C 0.7503(4) 0.0902(3) 0.1239(3)
H17 H 0.7024 0.0386 0.0995
C22 C 0.8376(4) 0.1039(3) 0.1183(3)
H18 H 0.8510 0.0612 0.0906
C23 C 0.8889(4) 0.2380(3) 0.1914(3)
H19 H 0.9377 0.2893 0.2146
C24 C 0.8039(4) 0.2272(3) 0.1990(3)
H20 H 0.7932 0.2711 0.2275
C25 C 1.0037(4) 0.1850(4) 0.1463(4)
H21 H 0.9787 0.1725 0.0925
H22 H 1.0341 0.2483 0.1599
C26 C 1.0937(4) 0.1177(3) 0.2004(3)
C27 C 1.1058(4) 0.0358(3) 0.1719(3)
H23 H 1.0567 0.0223 0.1182
C28 C 1.1885(4) -0.0257(3) 0.2211(3)
H24 H 1.1963 -0.0808 0.2005
C29 C 1.2611(3) -0.0091(3) 0.3005(3)
C30 C 1.2473(4) 0.0732(3) 0.3290(3)
H25 H 1.2948 0.0864 0.3829
C31 C 1.1643(4) 0.1355(3) 0.2787(3)
H26 H 1.1561 0.1911 0.2985
C32 C 1.3576(3) -0.0717(3) 0.3512(3)
C33 C 1.4214(4) -0.0981(3) 0.3246(3)
H27 H 1.3983 -0.0804 0.2741
C34 C 1.5188(5) -0.1501(3) 0.3712(5)
H28 H 1.5612 -0.1677 0.3521
C35 C 1.5526(5) -0.1751(4) 0.4422(4)
H29 H 1.6197 -0.2095 0.4739
C36 C 1.4907(4) -0.1514(3) 0.4701(4)
H30 H 1.5149 -0.1708 0.5204
C37 C 1.3935(4) -0.0995(3) 0.4255(3)
C38 C 1.3320(4) -0.0779(3) 0.4597(3)
O13 O 0.4868(13) 0.3934(9) 0.4473(6)
H31 H 0.4277 0.3624 0.4349
loop_
_geom_bond_atom_site_label_1
_geom_bond_atom_site_label_2
_geom_bond_site_symmetry_1
_geom_bond_site_symmetry_2
Cl1 O5 1_555 1_555
Cl2 O9 1_555 1_555
O1 H1 1_555 1_555
O2 C1 1_555 1_555
O3 H2 1_555 1_555
O4 C38 1_555 1_555
O6 Cl1 1_555 1_555
O7 Cl1 1_555 1_555
O8 Cl1 1_555 1_555
O10 Cl2 1_555 1_555
O11 Cl2 1_555 1_555
N1 C14 1_555 1_555
N2 C22 1_555 1_555
C1 O1 1_555 1_555
C2 C1 1_555 1_555
C3 C2 1_555 1_555
H3 C3 1_555 1_555
C4 C3 1_555 1_555
H4 C4 1_555 1_555
C5 C4 1_555 1_555
H5 C5 1_555 1_555
C6 C5 1_555 1_555
H6 C6 1_555 1_555
C7 C2 1_555 1_555
C8 C7 1_555 1_555
C9 C8 1_555 1_555
H7 C9 1_555 1_555
C10 C9 1_555 1_555
H8 C10 1_555 1_555
C11 C10 1_555 1_555
C12 C11 1_555 1_555
H9 C12 1_555 1_555
C13 C8 1_555 1_555
H10 C13 1_555 1_555
C14 C11 1_555 1_555
H11 C14 1_555 1_555
H12 C14 1_555 1_555
C15 N1 1_555 1_555
H13 C15 1_555 1_555
C16 C15 1_555 1_555
H14 C16 1_555 1_555
C17 C16 1_555 1_555
C18 C17 1_555 1_555
H15 C18 1_555 1_555
C19 N1 1_555 1_555
H16 C19 1_555 1_555
C20 C17 1_555 1_555
C21 C20 1_555 1_555
H17 C21 1_555 1_555
C22 C21 1_555 1_555
H18 C22 1_555 1_555
C23 N2 1_555 1_555
H19 C23 1_555 1_555
C24 C20 1_555 1_555
H20 C24 1_555 1_555
C25 N2 1_555 1_555
H21 C25 1_555 1_555
H22 C25 1_555 1_555
C26 C25 1_555 1_555
C27 C26 1_555 1_555
H23 C27 1_555 1_555
C28 C27 1_555 1_555
H24 C28 1_555 1_555
C29 C28 1_555 1_555
C30 C29 1_555 1_555
H25 C30 1_555 1_555
C31 C26 1_555 1_555
H26 C31 1_555 1_555
C32 C29 1_555 1_555
C33 C32 1_555 1_555
H27 C33 1_555 1_555
C34 C33 1_555 1_555
H28 C34 1_555 1_555
C35 C34 1_555 1_555
H29 C35 1_555 1_555
C36 C35 1_555 1_555
H30 C36 1_555 1_555
C37 C32 1_555 1_555
C38 O3 1_555 1_555
O12 Cl2 1_555 1_555
O13 H31 1_555 1_555
C6 C7 1_555 1_555
C12 C13 1_555 1_555
C18 C19 1_555 1_555
C23 C24 1_555 1_555
C30 C31 1_555 1_555
C36 C37 1_555 1_555
C37 C38 1_555 1_555

#END
