
#######################################################################
#
#                 Cambridge Crystallographic Data Centre
#                                CCDC 
#
#######################################################################
#
# If this CIF has been generated from an entry in the Cambridge 
# Structural Database, then it will include bibliographic, chemical, 
# crystal, experimental, refinement or atomic coordinate data resulting 
# from the CCDC's data processing and validation procedures.
#
#######################################################################

data_EKUNAB
_chemical_formula_moiety         'C11 H12 F1 N1 O2'
_chemical_name_systematic        
3-(Dimethylamino)-1-(5-fluoro-2-hydroxyphenyl)prop-2-en-1-one
_symmetry_cell_setting           monoclinic
_symmetry_space_group_name_H-M   'P 21/n'
_symmetry_Int_Tables_number      14
_space_group_name_Hall           '-P 2yn'
loop_
_symmetry_equiv_pos_site_id
_symmetry_equiv_pos_as_xyz
1 x,y,z
2 1/2-x,1/2+y,1/2-z
3 -x,-y,-z
4 1/2+x,1/2-y,1/2+z
_cell_length_a                   9.0682(18)
_cell_length_b                   10.390(2)
_cell_length_c                   11.580(2)
_cell_angle_alpha                90
_cell_angle_beta                 109.17(3)
_cell_angle_gamma                90
_cell_volume                     1030.55
_exptl_crystal_colour            colorless
_exptl_crystal_description       block
_cell_formula_units_Z            4
loop_
_atom_site_label
_atom_site_type_symbol
_atom_site_fract_x
_atom_site_fract_y
_atom_site_fract_z
C1 C 0.19055(15) 0.78105(14) 0.32143(12)
C2 C 0.07234(17) 0.81859(14) 0.37919(13)
C3 C 0.18298(18) 0.82322(16) 0.20474(14)
C4 C 0.31608(18) 0.70073(15) 0.38533(14)
C5 C -0.06542(17) 0.88395(14) 0.31075(14)
C6 C 0.4284(2) 0.66569(17) 0.33258(16)
C7 C 0.4191(2) 0.70868(18) 0.21817(16)
C8 C -0.17292(18) 0.91808(15) 0.36537(15)
C9 C 0.29618(19) 0.78630(17) 0.15702(14)
C10 C -0.3629(2) 1.0128(2) 0.18757(18)
H1 H -0.2939 1.0764 0.1736
H2 H -0.4662 1.0479 0.1670
H3 H -0.3647 0.9388 0.1375
C11 C -0.4092(2) 1.0066(2) 0.3868(2)
H4 H -0.3642 0.9729 0.4680
H5 H -0.5104 0.9692 0.3490
H6 H -0.4192 1.0984 0.3906
F1 F 0.28677(14) 0.82917(14) 0.04371(10)
N1 N -0.30854(14) 0.97547(13) 0.31489(13)
O1 O 0.33129(16) 0.65675(14) 0.49817(11)
H7 H 0.2592 0.6840 0.5192
O2 O 0.09971(14) 0.78873(14) 0.49027(10)
H8 H 0.098(2) 0.8772(19) 0.1521(16)
H9 H -0.0817(19) 0.9018(16) 0.2303(16)
H10 H -0.150(2) 0.9011(18) 0.4448(18)
H11 H 0.497(2) 0.6873(19) 0.1845(17)
H12 H 0.513(3) 0.615(2) 0.3807(19)
loop_
_geom_bond_atom_site_label_1
_geom_bond_atom_site_label_2
_geom_bond_site_symmetry_1
_geom_bond_site_symmetry_2
C1 C2 1_555 1_555
C2 C5 1_555 1_555
C3 C1 1_555 1_555
C4 C1 1_555 1_555
C5 C8 1_555 1_555
C6 C4 1_555 1_555
C7 C6 1_555 1_555
C8 N1 1_555 1_555
C9 C3 1_555 1_555
C10 H1 1_555 1_555
H2 C10 1_555 1_555
H3 C10 1_555 1_555
C11 H4 1_555 1_555
H5 C11 1_555 1_555
H6 C11 1_555 1_555
F1 C9 1_555 1_555
N1 C10 1_555 1_555
O1 C4 1_555 1_555
H7 O1 1_555 1_555
O2 C2 1_555 1_555
H8 C3 1_555 1_555
H9 C5 1_555 1_555
H10 C8 1_555 1_555
H11 C7 1_555 1_555
H12 C6 1_555 1_555
C7 C9 1_555 1_555
C11 N1 1_555 1_555

#END
