
#######################################################################
#
#                 Cambridge Crystallographic Data Centre
#                                CCDC 
#
#######################################################################
#
# If this CIF has been generated from an entry in the Cambridge 
# Structural Database, then it will include bibliographic, chemical, 
# crystal, experimental, refinement or atomic coordinate data resulting 
# from the CCDC's data processing and validation procedures.
#
#######################################################################

data_EKUVUD
_chemical_formula_moiety         'C46 H70 Li4 N6 O2 Si2'
_chemical_name_systematic        
"bis(\m-N'-(3-anilinopropyl)-N-(trimethylsilyl)benzenecarboximidamidato)-bis(diethyl ether)-tetra-lithium"
_symmetry_cell_setting           triclinic
_symmetry_space_group_name_H-M   'P -1'
_symmetry_Int_Tables_number      2
_space_group_name_Hall           '-P 1'
loop_
_symmetry_equiv_pos_site_id
_symmetry_equiv_pos_as_xyz
1 x,y,z
2 -x,-y,-z
_cell_length_a                   12.2130(5)
_cell_length_b                   13.3811(5)
_cell_length_c                   16.3014(7)
_cell_angle_alpha                84.4800(10)
_cell_angle_beta                 72.5300(10)
_cell_angle_gamma                83.8350(10)
_cell_volume                     2520.7
_exptl_crystal_colour            colorless
_exptl_crystal_description       block
_cell_formula_units_Z            2
loop_
_atom_site_label
_atom_site_type_symbol
_atom_site_fract_x
_atom_site_fract_y
_atom_site_fract_z
Li1 Li 0.6632(4) 0.4851(4) 0.2330(3)
Li2 Li 0.6090(4) 0.2666(4) 0.2814(3)
Li3 Li 0.7716(5) 0.1263(4) 0.2780(3)
Li4 Li 0.8236(4) 0.3079(4) 0.2523(3)
Si1 Si 0.50871(7) 0.09539(6) 0.21092(5)
Si2 Si 1.01690(7) 0.20487(8) 0.34017(5)
O1 O 0.63554(17) 0.61709(14) 0.17529(12)
O2 O 0.8187(2) -0.01785(18) 0.28942(19)
N1 N 0.52805(18) 0.40009(16) 0.30221(13)
N2 N 0.68021(19) 0.23631(17) 0.38112(13)
N3 N 0.87540(19) 0.21113(18) 0.33838(13)
N4 N 0.83652(18) 0.44558(17) 0.20019(13)
N5 N 0.79644(19) 0.22915(17) 0.15942(13)
N6 N 0.63134(18) 0.14920(16) 0.20944(13)
C1 C 0.5155(3) 0.4086(2) 0.15825(17)
C2 C 0.4549(3) 0.4318(2) 0.09842(19)
H1 H 0.4926 0.4208 0.0395
C3 C 0.3408(3) 0.4706(3) 0.1224(2)
H2 H 0.3003 0.4867 0.0807
C4 C 0.2878(3) 0.4851(2) 0.2080(2)
H3 H 0.2095 0.5113 0.2253
C5 C 0.3450(2) 0.4629(2) 0.26931(19)
H4 H 0.3053 0.4739 0.3279
C6 C 0.4625(2) 0.42389(19) 0.24656(16)
C7 C 0.4594(2) 0.4069(2) 0.39427(15)
C8 C 0.5263(2) 0.3657(2) 0.45761(16)
C9 C 0.5711(2) 0.2529(2) 0.45061(17)
C10 C 0.7786(2) 0.22540(19) 0.40130(16)
C11 C 0.7813(2) 0.2267(2) 0.49275(15)
C12 C 0.8020(2) 0.3129(2) 0.52256(17)
H5 H 0.8080 0.3733 0.4863
C13 C 0.8144(3) 0.3143(3) 0.60508(19)
C14 C 0.8046(3) 0.2257(3) 0.65730(18)
H6 H 0.8139 0.2250 0.7131
C15 C 0.7814(3) 0.1391(3) 0.62944(19)
H7 H 0.7728 0.0791 0.6662
C16 C 0.7708(3) 0.1397(2) 0.54722(18)
H8 H 0.7561 0.0793 0.5277
C17 C 1.0599(4) 0.3299(4) 0.3524(4)
H9 H 1.0538 0.3760 0.3032
H10 H 1.1397 0.3230 0.3547
H11 H 1.0091 0.3567 0.4058
C18 C 1.0505(3) 0.1238(3) 0.4289(3)
H12 H 1.0011 0.1471 0.4842
H13 H 1.1314 0.1271 0.4257
H14 H 1.0366 0.0541 0.4241
C19 C 1.1037(4) 0.1625(7) 0.2365(3)
H15 H 1.0586 0.1737 0.1954
H16 H 1.1273 0.0905 0.2427
H17 H 1.1723 0.2003 0.2154
C20 C 0.9546(2) 0.5757(2) 0.22255(19)
H18 H 1.0031 0.5755 0.1648
C21 C 0.9736(3) 0.6385(2) 0.2778(2)
H19 H 1.0346 0.6814 0.2572
C22 C 0.9069(3) 0.6407(2) 0.3620(2)
H20 H 0.9229 0.6839 0.3992
C23 C 0.8150(3) 0.5792(2) 0.3933(2)
C24 C 0.7950(2) 0.5153(2) 0.33776(18)
C25 C 0.8640(2) 0.5113(2) 0.25007(17)
C26 C 0.9118(2) 0.4455(2) 0.11172(16)
H21 H 0.9923 0.4278 0.1127
H22 H 0.9077 0.5143 0.0838
C27 C 0.8806(3) 0.3722(2) 0.05851(17)
H23 H 0.9284 0.3827 -0.0021
H24 H 0.7992 0.3891 0.0598
C28 C 0.8956(2) 0.2594(2) 0.08714(17)
C29 C 0.7178(2) 0.17909(19) 0.14305(16)
C30 C 0.7257(2) 0.1535(2) 0.05320(16)
C31 C 0.7016(3) 0.2270(2) -0.00686(17)
H25 H 0.6852 0.2953 0.0073
C32 C 0.7014(3) 0.2011(3) -0.08692(19)
H26 H 0.6841 0.2517 -0.1273
C33 C 0.7263(3) 0.1025(3) -0.1085(2)
H27 H 0.7257 0.0848 -0.1635
C34 C 0.7523(3) 0.0291(3) -0.0495(2)
H28 H 0.7708 -0.0390 -0.0641
C35 C 0.7513(3) 0.0556(2) 0.03061(18)
H29 H 0.7687 0.0050 0.0709
C36 C 0.4428(3) 0.1424(3) 0.1239(2)
H30 H 0.4339 0.2162 0.1208
H31 H 0.3671 0.1163 0.1364
H32 H 0.4927 0.1194 0.0686
C37 C 0.5311(3) -0.0444(3) 0.2092(3)
H33 H 0.5813 -0.0628 0.1525
H34 H 0.4566 -0.0724 0.2204
H35 H 0.5672 -0.0717 0.2537
C38 C 0.4024(3) 0.1285(3) 0.3142(2)
H36 H 0.4360 0.1091 0.3616
H37 H 0.3334 0.0926 0.3234
H38 H 0.3814 0.2013 0.3124
C39 C 0.6706(4) 0.6298(3) 0.0839(2)
H39 H 0.6013 0.6398 0.0636
H40 H 0.7154 0.5675 0.0603
C40 C 0.5318(3) 0.6788(2) 0.2131(2)
H41 H 0.4641 0.6485 0.2076
H42 H 0.5350 0.7469 0.1832
C41 C 0.7415(4) 0.7164(3) 0.0500(3)
H43 H 0.6918 0.7794 0.0588
H44 H 0.7800 0.7112 -0.0116
H45 H 0.7994 0.7159 0.0807
C42 C 0.5222(3) 0.6853(3) 0.3061(2)
H46 H 0.5171 0.6177 0.3354
H47 H 0.4529 0.7283 0.3331
H48 H 0.5903 0.7143 0.3108
C43 C 0.9324(9) -0.0382(10) 0.2177(13)
C44 C 0.8041(8) -0.0700(4) 0.3674(4)
H49 H 0.8476 -0.0393 0.3994
H50 H 0.8384 -0.1399 0.3575
C45 C 0.9367(6) -0.0996(7) 0.1695(4)
H51 H 0.9840 -0.1308 0.1196
C46 C 0.6900(7) -0.0738(7) 0.4194(4)
H52 H 0.6586 -0.0063 0.4376
H53 H 0.6877 -0.1199 0.4702
H54 H 0.6438 -0.0979 0.3866
C47? C 0.8335(9) -0.0982(8) 0.2288(6)
loop_
_geom_bond_atom_site_label_1
_geom_bond_atom_site_label_2
_geom_bond_site_symmetry_1
_geom_bond_site_symmetry_2
Li1 O1 1_555 1_555
Li2 N1 1_555 1_555
Li3 O2 1_555 1_555
Li4 N3 1_555 1_555
Si1 N6 1_555 1_555
Si2 N3 1_555 1_555
O1 C39 1_555 1_555
O2 C43 1_555 1_555
N1 Li1 1_555 1_555
N2 Li2 1_555 1_555
N3 Li3 1_555 1_555
N4 Li1 1_555 1_555
N5 Li3 1_555 1_555
N6 Li2 1_555 1_555
C1 C2 1_555 1_555
C2 H1 1_555 1_555
C3 C2 1_555 1_555
H2 C3 1_555 1_555
C4 C3 1_555 1_555
H3 C4 1_555 1_555
C5 C4 1_555 1_555
H4 C5 1_555 1_555
C6 N1 1_555 1_555
C7 N1 1_555 1_555
C8 C7 1_555 1_555
C9 N2 1_555 1_555
C10 N2 1_555 1_555
C11 C10 1_555 1_555
C12 C11 1_555 1_555
H5 C12 1_555 1_555
C13 C12 1_555 1_555
C14 C13 1_555 1_555
H6 C14 1_555 1_555
C15 C14 1_555 1_555
H7 C15 1_555 1_555
C16 C11 1_555 1_555
H8 C16 1_555 1_555
C17 Si2 1_555 1_555
H9 C17 1_555 1_555
H10 C17 1_555 1_555
H11 C17 1_555 1_555
C18 Si2 1_555 1_555
H12 C18 1_555 1_555
H13 C18 1_555 1_555
H14 C18 1_555 1_555
C19 Si2 1_555 1_555
H15 C19 1_555 1_555
H16 C19 1_555 1_555
H17 C19 1_555 1_555
C20 H18 1_555 1_555
C21 C20 1_555 1_555
H19 C21 1_555 1_555
C22 C21 1_555 1_555
H20 C22 1_555 1_555
C23 C22 1_555 1_555
C24 C23 1_555 1_555
C25 N4 1_555 1_555
C26 N4 1_555 1_555
H21 C26 1_555 1_555
H22 C26 1_555 1_555
C27 C26 1_555 1_555
H23 C27 1_555 1_555
H24 C27 1_555 1_555
C28 N5 1_555 1_555
C29 N5 1_555 1_555
C30 C29 1_555 1_555
C31 C30 1_555 1_555
H25 C31 1_555 1_555
C32 C31 1_555 1_555
H26 C32 1_555 1_555
C33 C32 1_555 1_555
H27 C33 1_555 1_555
C34 C33 1_555 1_555
H28 C34 1_555 1_555
C35 C30 1_555 1_555
H29 C35 1_555 1_555
C36 Si1 1_555 1_555
H30 C36 1_555 1_555
H31 C36 1_555 1_555
H32 C36 1_555 1_555
C37 Si1 1_555 1_555
H33 C37 1_555 1_555
H34 C37 1_555 1_555
H35 C37 1_555 1_555
C38 Si1 1_555 1_555
H36 C38 1_555 1_555
H37 C38 1_555 1_555
H38 C38 1_555 1_555
C39 H39 1_555 1_555
H40 C39 1_555 1_555
C40 O1 1_555 1_555
H41 C40 1_555 1_555
H42 C40 1_555 1_555
C41 C39 1_555 1_555
H43 C41 1_555 1_555
H44 C41 1_555 1_555
H45 C41 1_555 1_555
C42 C40 1_555 1_555
H46 C42 1_555 1_555
H47 C42 1_555 1_555
H48 C42 1_555 1_555
C43 C45 1_555 1_555
C44 O2 1_555 1_555
H49 C44 1_555 1_555
H50 C44 1_555 1_555
C45 H51 1_555 1_555
C46 C44 1_555 1_555
H52 C46 1_555 1_555
H53 C46 1_555 1_555
H54 C46 1_555 1_555
Li3 N2 1_555 1_555
Li3 N6 1_555 1_555
Li4 N4 1_555 1_555
Li4 N5 1_555 1_555
N3 C10 1_555 1_555
N6 C29 1_555 1_555
C1 C6 1_555 1_555
C5 C6 1_555 1_555
C8 C9 1_555 1_555
C15 C16 1_555 1_555
C20 C25 1_555 1_555
C24 C25 1_555 1_555
C27 C28 1_555 1_555
C34 C35 1_555 1_555

#END
