
#######################################################################
#
#                 Cambridge Crystallographic Data Centre
#                                CCDC 
#
#######################################################################
#
# If this CIF has been generated from an entry in the Cambridge 
# Structural Database, then it will include bibliographic, chemical, 
# crystal, experimental, refinement or atomic coordinate data resulting 
# from the CCDC's data processing and validation procedures.
#
#######################################################################

data_EKUYUF
_chemical_formula_moiety         'C19 H17 Cl1 O1'
_chemical_name_systematic        
5-(4-Chlorophenyl)-4-methyl-4-phenylcyclohex-2-en-1-one
_symmetry_cell_setting           triclinic
_symmetry_space_group_name_H-M   'P -1'
_symmetry_Int_Tables_number      2
_space_group_name_Hall           '-P 1'
loop_
_symmetry_equiv_pos_site_id
_symmetry_equiv_pos_as_xyz
1 x,y,z
2 -x,-y,-z
_cell_length_a                   6.508(2)
_cell_length_b                   10.191(3)
_cell_length_c                   12.222(4)
_cell_angle_alpha                91.608(6)
_cell_angle_beta                 103.611(5)
_cell_angle_gamma                101.668(5)
_cell_volume                     769.114
_exptl_crystal_colour            colorless
_exptl_crystal_description       block
_cell_formula_units_Z            2
loop_
_atom_site_label
_atom_site_type_symbol
_atom_site_fract_x
_atom_site_fract_y
_atom_site_fract_z
Cl1 Cl 1.06723(7) 0.25087(5) 0.44928(4)
O1 O 0.0688(2) -0.07038(12) 0.84631(11)
C1 C 0.4535(2) 0.18210(14) 0.75736(12)
C2 C 0.6050(2) 0.19535(15) 0.67853(12)
C3 C 0.7623(3) 0.32232(18) 0.54192(13)
C4 C 0.5472(2) 0.28060(14) 0.86655(12)
C5 C 0.2196(3) 0.02627(16) 0.85793(14)
C6 C 0.5441(2) 0.42414(14) 0.83339(12)
C7 C 0.8741(3) 0.11903(18) 0.60021(14)
C8 C 0.8880(3) 0.22900(18) 0.53694(13)
C9 C 0.4040(2) 0.24915(16) 0.94818(13)
C10 C 0.2570(3) 0.13644(16) 0.94464(14)
C11 C 0.6200(3) 0.30387(16) 0.61116(13)
C12 C 0.7340(3) 0.10308(17) 0.67099(14)
C13 C 0.7308(3) 0.51911(15) 0.83329(13)
C14 C 0.3821(3) 0.03730(15) 0.78665(15)
C15 C 0.3447(3) 0.46019(16) 0.79523(13)
C16 C 0.7744(3) 0.26413(19) 0.92889(15)
C17 C 0.7190(4) 0.64380(17) 0.79308(15)
C18 C 0.5211(4) 0.67697(17) 0.75373(15)
C19 C 0.3323(4) 0.58536(18) 0.75576(15)
H1 H 0.325(2) 0.2106(14) 0.7162(12)
H2 H 0.530(3) 0.3675(16) 0.6129(13)
H3 H 0.429(3) 0.3200(17) 1.0082(15)
H4 H 0.316(3) -0.0242(18) 0.7171(16)
H5 H 0.770(3) 0.1703(19) 0.9492(15)
H6 H 0.505(3) 0.0052(18) 0.8327(15)
H7 H 0.772(3) 0.3964(18) 0.4969(15)
H8 H 0.727(3) 0.0269(19) 0.7149(15)
H9 H 0.875(3) 0.4966(17) 0.8581(15)
H10 H 0.849(3) 0.7051(18) 0.7950(15)
H11 H 0.214(3) 0.3945(18) 0.7907(14)
H12 H 0.832(3) 0.3269(19) 0.9984(17)
H13 H 0.873(3) 0.2815(18) 0.8793(15)
H14 H 0.172(3) 0.1248(18) 0.9987(15)
H15 H 0.505(3) 0.763(2) 0.7241(18)
H16 H 0.955(3) 0.0563(19) 0.5941(16)
H17 H 0.189(3) 0.6064(19) 0.7301(17)
loop_
_geom_bond_atom_site_label_1
_geom_bond_atom_site_label_2
_geom_bond_site_symmetry_1
_geom_bond_site_symmetry_2
Cl1 C8 1_555 1_555
O1 C5 1_555 1_555
C1 C2 1_555 1_555
C2 C11 1_555 1_555
C3 C8 1_555 1_555
C4 C1 1_555 1_555
C5 C10 1_555 1_555
C6 C4 1_555 1_555
C7 C8 1_555 1_555
C9 C4 1_555 1_555
C10 C9 1_555 1_555
C11 C3 1_555 1_555
C12 C2 1_555 1_555
C13 C6 1_555 1_555
C14 C1 1_555 1_555
C15 C6 1_555 1_555
C16 C4 1_555 1_555
C17 C13 1_555 1_555
C18 C17 1_555 1_555
C19 C15 1_555 1_555
H1 C1 1_555 1_555
H2 C11 1_555 1_555
H3 C9 1_555 1_555
H4 C14 1_555 1_555
H5 C16 1_555 1_555
H6 C14 1_555 1_555
H7 C3 1_555 1_555
H8 C12 1_555 1_555
H9 C13 1_555 1_555
H10 C17 1_555 1_555
H11 C15 1_555 1_555
H12 C16 1_555 1_555
H13 C16 1_555 1_555
H14 C10 1_555 1_555
H15 C18 1_555 1_555
H16 C7 1_555 1_555
H17 C19 1_555 1_555
C5 C14 1_555 1_555
C7 C12 1_555 1_555
C18 C19 1_555 1_555

#END
