
#######################################################################
#
#                 Cambridge Crystallographic Data Centre
#                                CCDC 
#
#######################################################################
#
# If this CIF has been generated from an entry in the Cambridge 
# Structural Database, then it will include bibliographic, chemical, 
# crystal, experimental, refinement or atomic coordinate data resulting 
# from the CCDC's data processing and validation procedures.
#
#######################################################################

data_EKUYAM
_chemical_formula_moiety         'C33 H18 B1 F2 N3 O3'
_chemical_name_systematic        
(R)-21,21-difluoro-20,21-dinaphtho[1',2':7,8;2'',1'':5,6][1,4]dioxocino[2,3-f]pyrido[1',2':3,4][1,3,5,2]triazaborinino[6,1-a]isoindol-23(21H)-one
_symmetry_cell_setting           orthorhombic
_symmetry_space_group_name_H-M   'P 21 21 21'
_symmetry_Int_Tables_number      19
_space_group_name_Hall           'P 2ac 2ab'
loop_
_symmetry_equiv_pos_site_id
_symmetry_equiv_pos_as_xyz
1 x,y,z
2 1/2-x,-y,1/2+z
3 -x,1/2+y,1/2-z
4 1/2+x,1/2-y,-z
_cell_length_a                   11.4915(12)
_cell_length_b                   14.5392(16)
_cell_length_c                   15.7532(17)
_cell_angle_alpha                90
_cell_angle_beta                 90
_cell_angle_gamma                90
_cell_volume                     2632
_exptl_crystal_colour            colorless
_exptl_crystal_description       block
_cell_formula_units_Z            4
loop_
_atom_site_label
_atom_site_type_symbol
_atom_site_fract_x
_atom_site_fract_y
_atom_site_fract_z
C1 C 0.4709(2) 0.61501(17) 0.37412(15)
C2 C 0.4745(3) 0.83480(18) 0.56489(18)
H1 H 0.4200 0.8353 0.6085
C3 C 0.4643(2) 0.54483(15) 0.43791(15)
C4 C 0.7198(2) 0.8345(2) 0.36584(18)
H2 H 0.7760 0.8804 0.3632
C5 C 0.5561(2) 0.76266(16) 0.43935(15)
C6 C 0.4747(2) 0.76509(18) 0.50614(15)
H3 H 0.4198 0.7183 0.5105
C7 C 0.5566(2) 0.69190(16) 0.37610(14)
C8 C 0.3835(2) 0.47137(15) 0.42612(16)
C9 C 0.7180(2) 0.7685(2) 0.30441(17)
H4 H 0.7703 0.7703 0.2594
C10 C 0.6390(2) 0.83521(17) 0.43331(16)
C11 C 0.3215(2) 0.53576(19) 0.29241(16)
H5 H 0.2749 0.5336 0.2442
C12 C 0.3757(3) 0.40326(18) 0.4897(2)
H6 H 0.3251 0.3539 0.4825
C13 C 0.6355(2) 0.69796(17) 0.31073(15)
C14 C 0.6362(3) 0.9064(2) 0.4949(2)
H7 H 0.6893 0.9546 0.4916
C15 C 0.5235(3) 0.47888(17) 0.57143(18)
H8 H 0.5699 0.4806 0.6198
C16 C 0.3145(2) 0.46837(19) 0.35168(17)
H9 H 0.2637 0.4194 0.3433
C17 C 0.4413(3) 0.40892(18) 0.5614(2)
H10 H 0.4314 0.3656 0.6042
C18 C 0.3993(2) 0.60857(17) 0.30447(15)
C19 C 0.5568(3) 0.9050(2) 0.5586(2)
H11 H 0.5573 0.9517 0.5988
C20 C 0.5358(2) 0.54473(17) 0.51031(16)
H12 H 0.5921 0.5901 0.5167
C21 C 0.4638(2) 0.66710(15) 0.17173(14)
C22 C 0.6446(2) 0.63044(15) 0.09956(14)
H13 H 0.7221 0.6120 0.1008
C23 C 0.40871(19) 0.68480(15) 0.09581(14)
H14 H 0.3312 0.7031 0.0944
C24 C 0.4719(2) 0.67469(15) 0.02174(14)
C25 C 0.5869(2) 0.64601(15) 0.02311(14)
C26 C 0.5821(2) 0.64360(15) 0.17345(14)
O1 O 0.63961(13) 0.62738(11) 0.24995(10)
O2 O 0.39918(13) 0.68044(11) 0.24500(10)
B1 B 0.5434(3) 0.6748(2) -0.21258(19)
F1 F 0.47170(14) 0.61278(16) -0.25117(12)
F2 F 0.52356(17) 0.76170(13) -0.24151(11)
N1 N 0.53672(16) 0.66909(13) -0.11669(11)
N2 N 0.67431(17) 0.64702(13) -0.23469(12)
O3 O 0.34682(14) 0.71861(12) -0.09554(10)
C27 C 0.6270(2) 0.64211(15) -0.06506(15)
C28 C 0.4383(2) 0.69120(15) -0.06711(15)
N3 N 0.72958(17) 0.61738(14) -0.09016(12)
C29 C 0.8940(3) 0.5992(2) -0.2872(2)
H15 H 0.9688 0.5839 -0.3048
C30 C 0.7544(2) 0.62027(16) -0.17652(16)
C31 C 0.8652(2) 0.59551(18) -0.20312(18)
H16 H 0.9201 0.5763 -0.1635
C32 C 0.8120(3) 0.6256(2) -0.34539(18)
H17 H 0.8296 0.6265 -0.4030
C33 C 0.7043(2) 0.6506(2) -0.31760(16)
H18 H 0.6496 0.6707 -0.3569
loop_
_geom_bond_atom_site_label_1
_geom_bond_atom_site_label_2
_geom_bond_site_symmetry_1
_geom_bond_site_symmetry_2
C1 C3 1_555 1_555
C2 H1 1_555 1_555
C3 C8 1_555 1_555
C4 H2 1_555 1_555
C5 C6 1_555 1_555
C6 C2 1_555 1_555
H3 C6 1_555 1_555
C7 C1 1_555 1_555
C8 C12 1_555 1_555
C9 C4 1_555 1_555
H4 C9 1_555 1_555
C10 C4 1_555 1_555
C11 H5 1_555 1_555
C12 H6 1_555 1_555
C13 C7 1_555 1_555
C14 C10 1_555 1_555
H7 C14 1_555 1_555
C15 H8 1_555 1_555
C16 C8 1_555 1_555
H9 C16 1_555 1_555
C17 C12 1_555 1_555
H10 C17 1_555 1_555
C18 C1 1_555 1_555
C19 C2 1_555 1_555
H11 C19 1_555 1_555
C20 C3 1_555 1_555
H12 C20 1_555 1_555
C21 C23 1_555 1_555
C22 H13 1_555 1_555
C23 H14 1_555 1_555
C24 C23 1_555 1_555
C25 C22 1_555 1_555
C26 C21 1_555 1_555
O1 C13 1_555 1_555
O2 C18 1_555 1_555
B1 F1 1_555 1_555
F2 B1 1_555 1_555
N1 B1 1_555 1_555
N2 B1 1_555 1_555
O3 C28 1_555 1_555
C27 C25 1_555 1_555
C28 C24 1_555 1_555
N3 C27 1_555 1_555
C29 H15 1_555 1_555
C30 N2 1_555 1_555
C31 C29 1_555 1_555
H16 C31 1_555 1_555
C32 C29 1_555 1_555
H17 C32 1_555 1_555
C33 N2 1_555 1_555
H18 C33 1_555 1_555
C5 C7 1_555 1_555
C5 C10 1_555 1_555
C9 C13 1_555 1_555
C11 C16 1_555 1_555
C11 C18 1_555 1_555
C14 C19 1_555 1_555
C15 C17 1_555 1_555
C15 C20 1_555 1_555
C21 O2 1_555 1_555
C22 C26 1_555 1_555
C24 C25 1_555 1_555
C26 O1 1_555 1_555
N1 C27 1_555 1_555
N1 C28 1_555 1_555
N3 C30 1_555 1_555
C30 C31 1_555 1_555
C32 C33 1_555 1_555

#END
