
#######################################################################
#
#                 Cambridge Crystallographic Data Centre
#                                CCDC 
#
#######################################################################
#
# If this CIF has been generated from an entry in the Cambridge 
# Structural Database, then it will include bibliographic, chemical, 
# crystal, experimental, refinement or atomic coordinate data resulting 
# from the CCDC's data processing and validation procedures.
#
#######################################################################

data_EKUYEP
_chemical_formula_moiety         'C20 H19 O4 P1'
_chemical_name_systematic        
'2-Methoxyphenyl (2-methoxyphenyl)phenylphosphinate'
_symmetry_cell_setting           monoclinic
_symmetry_space_group_name_H-M   'C 2/c'
_symmetry_Int_Tables_number      15
_space_group_name_Hall           '-C 2yn'
loop_
_symmetry_equiv_pos_site_id
_symmetry_equiv_pos_as_xyz
1 x,y,z
2 -x,y,1/2-z
3 1/2+x,1/2+y,z
4 1/2-x,1/2+y,1/2-z
5 -x,-y,-z
6 x,-y,1/2+z
7 1/2-x,1/2-y,-z
8 1/2+x,1/2-y,1/2+z
_cell_length_a                   27.553(18)
_cell_length_b                   8.908(6)
_cell_length_c                   17.380(12)
_cell_angle_alpha                90
_cell_angle_beta                 125.364(9)
_cell_angle_gamma                90
_cell_volume                     3478.71
_exptl_crystal_colour            colorless
_exptl_crystal_description       plate
_cell_formula_units_Z            8
loop_
_atom_site_label
_atom_site_type_symbol
_atom_site_fract_x
_atom_site_fract_y
_atom_site_fract_z
P1 P 0.12630(4) 0.50156(9) 0.49456(5)
O1 O 0.10143(10) 0.3860(3) 0.42023(13)
O2 O 0.08856(10) 0.5350(2) 0.53646(13)
O3 O 0.06517(10) 0.6572(3) 0.64782(15)
O4 O 0.18741(10) 0.6032(3) 0.41272(15)
C1 C 0.19962(14) 0.4526(3) 0.5959(2)
C2 C 0.23170(15) 0.3355(4) 0.5902(2)
H1 H 0.2144 0.2798 0.5334
C3 C 0.28916(15) 0.3014(4) 0.6684(3)
H2 H 0.3110 0.2225 0.6650
C4 C 0.31419(16) 0.3832(4) 0.7513(2)
H3 H 0.3530 0.3592 0.8047
C5 C 0.28331(15) 0.4981(4) 0.7567(2)
H4 H 0.3012 0.5543 0.8134
C6 C 0.22601(15) 0.5332(4) 0.6798(2)
H5 H 0.2048 0.6124 0.6845
C7 C 0.07654(14) 0.4363(4) 0.58538(19)
C8 C 0.07564(15) 0.2825(4) 0.5763(2)
H6 H 0.0845 0.2380 0.5362
C9 C 0.06156(16) 0.1927(4) 0.6265(3)
H7 H 0.0610 0.0866 0.6209
C10 C 0.04850(15) 0.2584(4) 0.6844(2)
H8 H 0.0387 0.1968 0.7182
C11 C 0.04945(15) 0.4112(4) 0.6938(2)
H9 H 0.0407 0.4545 0.7344
C12 C 0.06325(13) 0.5038(4) 0.64412(19)
C13 C 0.04471(17) 0.7297(4) 0.6976(2)
H10 H 0.0032 0.7014 0.6694
H11 H 0.0474 0.8388 0.6937
H12 H 0.0695 0.6985 0.7639
C14 C 0.12899(13) 0.6914(4) 0.46116(19)
C15 C 0.10065(15) 0.8096(4) 0.4739(2)
H13 H 0.0794 0.7901 0.5006
C16 C 0.10356(17) 0.9546(4) 0.4479(2)
H14 H 0.0838 1.0339 0.4559
C17 C 0.13510(16) 0.9841(4) 0.4105(2)
H15 H 0.1372 1.0841 0.3936
C18 C 0.16373(16) 0.8697(4) 0.3972(2)
H16 H 0.1853 0.8906 0.3712
C19 C 0.16032(14) 0.7232(4) 0.42257(19)
C20 C 0.21349(16) 0.6244(4) 0.3626(2)
H17 H 0.1831 0.6600 0.2987
H18 H 0.2298 0.5289 0.3592
H19 H 0.2455 0.6987 0.3956
loop_
_geom_bond_atom_site_label_1
_geom_bond_atom_site_label_2
_geom_bond_site_symmetry_1
_geom_bond_site_symmetry_2
P1 O1 1_555 1_555
O2 P1 1_555 1_555
O3 C12 1_555 1_555
O4 C19 1_555 1_555
C1 P1 1_555 1_555
C2 C1 1_555 1_555
H1 C2 1_555 1_555
C3 C2 1_555 1_555
H2 C3 1_555 1_555
C4 C3 1_555 1_555
H3 C4 1_555 1_555
C5 C4 1_555 1_555
H4 C5 1_555 1_555
C6 C1 1_555 1_555
H5 C6 1_555 1_555
C7 O2 1_555 1_555
C8 C7 1_555 1_555
H6 C8 1_555 1_555
C9 C8 1_555 1_555
H7 C9 1_555 1_555
C10 C9 1_555 1_555
H8 C10 1_555 1_555
C11 C10 1_555 1_555
H9 C11 1_555 1_555
C12 C7 1_555 1_555
C13 O3 1_555 1_555
H10 C13 1_555 1_555
H11 C13 1_555 1_555
H12 C13 1_555 1_555
C14 P1 1_555 1_555
C15 C14 1_555 1_555
H13 C15 1_555 1_555
C16 C15 1_555 1_555
H14 C16 1_555 1_555
C17 C16 1_555 1_555
H15 C17 1_555 1_555
C18 C17 1_555 1_555
H16 C18 1_555 1_555
C19 C14 1_555 1_555
C20 O4 1_555 1_555
H17 C20 1_555 1_555
H18 C20 1_555 1_555
H19 C20 1_555 1_555
C5 C6 1_555 1_555
C11 C12 1_555 1_555
C18 C19 1_555 1_555

#END
