
#######################################################################
#
#                 Cambridge Crystallographic Data Centre
#                                CCDC 
#
#######################################################################
#
# If this CIF has been generated from an entry in the Cambridge 
# Structural Database, then it will include bibliographic, chemical, 
# crystal, experimental, refinement or atomic coordinate data resulting 
# from the CCDC's data processing and validation procedures.
#
#######################################################################

data_EKUYOZ
_chemical_formula_moiety         'C14 H15 Br1 O1'
_chemical_name_systematic        
4-(4-Bromophenyl)-4,5-dimethylcyclohex-2-en-1-one
_symmetry_cell_setting           monoclinic
_symmetry_space_group_name_H-M   'P 21'
_symmetry_Int_Tables_number      4
_space_group_name_Hall           'P 2yb'
loop_
_symmetry_equiv_pos_site_id
_symmetry_equiv_pos_as_xyz
1 x,y,z
2 -x,1/2+y,-z
_cell_length_a                   6.240(3)
_cell_length_b                   7.706(3)
_cell_length_c                   12.861(5)
_cell_angle_alpha                90
_cell_angle_beta                 98.015(7)
_cell_angle_gamma                90
_cell_volume                     612.386
_exptl_crystal_colour            colorless
_exptl_crystal_description       plate
_cell_formula_units_Z            2
loop_
_atom_site_label
_atom_site_type_symbol
_atom_site_fract_x
_atom_site_fract_y
_atom_site_fract_z
Br1 Br 0.17465(5) 0.46703(6) 0.29663(2)
O1 O 0.0938(4) 0.3667(3) 1.0519(2)
C1 C 0.2442(5) 0.4627(7) 0.4452(2)
C2 C 0.0978(6) 0.3893(5) 0.5050(3)
C3 C 0.1521(6) 0.3827(5) 0.6135(3)
C4 C 0.3503(5) 0.4449(5) 0.6633(2)
C5 C 0.4921(6) 0.5169(4) 0.6002(3)
C6 C 0.4394(6) 0.5263(4) 0.4925(3)
C7 C 0.3983(5) 0.4362(4) 0.7830(2)
C8 C 0.2778(6) 0.5867(5) 0.8308(3)
C9 C 0.2743(6) 0.5605(5) 0.9483(3)
C10 C 0.1823(6) 0.3880(5) 0.9735(3)
C11 C 0.2128(6) 0.2440(5) 0.9026(3)
C12 C 0.3148(6) 0.2648(5) 0.8197(3)
C13 C 0.6438(5) 0.4408(7) 0.8222(3)
C14 C 0.3614(8) 0.7655(6) 0.8115(4)
H1 H -0.031(6) 0.345(5) 0.470(3)
H2 H 0.059(6) 0.323(5) 0.664(3)
H3 H 0.628(6) 0.561(5) 0.638(3)
H4 H 0.527(6) 0.572(5) 0.445(3)
H5 H 0.122(5) 0.585(4) 0.802(2)
H6 H 0.190(5) 0.644(5) 0.980(3)
H7 H 0.424(5) 0.561(4) 0.983(2)
H8 H 0.163(5) 0.133(4) 0.929(2)
H9 H 0.334(5) 0.177(4) 0.784(3)
H10 H 0.673(5) 0.423(4) 0.905(2)
H11 H 0.733(7) 0.344(6) 0.795(3)
H12 H 0.697(5) 0.541(5) 0.804(2)
H13 H 0.532(7) 0.786(5) 0.855(3)
H14 H 0.259(6) 0.856(5) 0.846(3)
H15 H 0.365(5) 0.787(4) 0.762(3)
loop_
_geom_bond_atom_site_label_1
_geom_bond_atom_site_label_2
_geom_bond_site_symmetry_1
_geom_bond_site_symmetry_2
Br1 C1 1_555 1_555
O1 C10 1_555 1_555
C1 C2 1_555 1_555
C2 C3 1_555 1_555
C3 C4 1_555 1_555
C4 C5 1_555 1_555
C5 C6 1_555 1_555
C6 C1 1_555 1_555
C7 C4 1_555 1_555
C8 C7 1_555 1_555
C9 C8 1_555 1_555
C10 C9 1_555 1_555
C11 C10 1_555 1_555
C12 C7 1_555 1_555
C13 C7 1_555 1_555
C14 C8 1_555 1_555
H1 C2 1_555 1_555
H2 C3 1_555 1_555
H3 C5 1_555 1_555
H4 C6 1_555 1_555
H5 C8 1_555 1_555
H6 C9 1_555 1_555
H7 C9 1_555 1_555
H8 C11 1_555 1_555
H9 C12 1_555 1_555
H10 C13 1_555 1_555
H11 C13 1_555 1_555
H12 C13 1_555 1_555
H13 C14 1_555 1_555
H14 C14 1_555 1_555
H15 C14 1_555 1_555
C11 C12 1_555 1_555

#END
