
#######################################################################
#
#                 Cambridge Crystallographic Data Centre
#                                CCDC 
#
#######################################################################
#
# If this CIF has been generated from an entry in the Cambridge 
# Structural Database, then it will include bibliographic, chemical, 
# crystal, experimental, refinement or atomic coordinate data resulting 
# from the CCDC's data processing and validation procedures.
#
#######################################################################

data_EKUZAM
_chemical_name_common            
'(2R,3R,4S,5R,6S)-2-(((2S)-((3S,4R,5R)-3,4-Diacetoxy-5-methoxytetrahydro furan-2-yl)-4-oxothiazolidin-3-yl)methyl)-6-methoxytetrahydro-2H-pyran-3,4,5-triyl triacetate'
_chemical_formula_moiety         'C25 H35 N1 O15 S1,0.5(C4 H8 O2)'
_chemical_name_systematic        
'2-((2-(3,4-Diacetoxy-5-methoxytetrahydrofuran-2-yl)-4-oxo-1,3-thiazolidin-3-yl)methyl)-6-methoxytetrahydro-2H-pyran-3,4,5-triyl triacetate ethyl acetate solvate'
_chemical_properties_biological  
'Derivatives of the compound (or closely related compounds) showed immunopotentiating activity'
_symmetry_cell_setting           monoclinic
_symmetry_space_group_name_H-M   'P 21'
_symmetry_Int_Tables_number      4
_space_group_name_Hall           'P 2yb'
loop_
_symmetry_equiv_pos_site_id
_symmetry_equiv_pos_as_xyz
1 x,y,z
2 -x,1/2+y,-z
_cell_length_a                   11.8235(9)
_cell_length_b                   25.0690(19)
_cell_length_c                   12.1241(9)
_cell_angle_alpha                90
_cell_angle_beta                 104.5780(10)
_cell_angle_gamma                90
_cell_volume                     3477.93
_exptl_crystal_colour            colorless
_exptl_crystal_description       block
_cell_formula_units_Z            4
_exptl_crystal_recrystallization_method 'EtOAc cyclohexane'
loop_
_atom_site_label
_atom_site_type_symbol
_atom_site_fract_x
_atom_site_fract_y
_atom_site_fract_z
S1 S 0.68789(16) 0.94258(6) 0.15238(11)
O1 O 0.6871(3) 0.84918(13) 0.4054(3)
O2 O 0.5825(2) 1.05363(11) 0.2030(2)
O3 O 0.4324(4) 1.03285(14) 0.0425(2)
O4 O 0.3974(2) 1.06882(12) 0.3128(2)
O5 O 0.2452(4) 1.0294(2) 0.3574(4)
O6 O 0.4640(2) 0.96259(12) 0.3682(2)
O7 O 0.3592(5) 0.8974(2) 0.2694(5)
O8 O 0.8390(3) 0.90595(12) 0.7311(2)
O9 O 0.7598(7) 0.9751(2) 0.7949(6)
O10 O 1.0706(3) 0.93435(14) 0.8381(3)
O11 O 1.1254(5) 0.8506(2) 0.8848(4)
O12 O 1.2259(3) 0.92792(13) 0.6997(4)
O13 O 1.3067(3) 1.00654(19) 0.6930(5)
O14 O 1.0762(3) 0.88983(14) 0.4996(3)
O15 O 0.9480(2) 0.96115(12) 0.4979(2)
N1 N 0.7162(3) 0.93619(12) 0.3722(2)
C1 C 0.4789(3) 0.98539(16) 0.2668(3)
H1 H 0.4713 0.9581 0.2075
C2 C 0.3955(4) 1.03242(18) 0.2232(4)
H2 H 0.3164 1.0210 0.1836
C3 C 0.4609(4) 1.05831(18) 0.1451(3)
H3 H 0.4393 1.0961 0.1347
C4 C 0.3980(4) 0.9178(2) 0.3593(6)
C5 C 0.3852(6) 0.8994(3) 0.4688(6)
H4 H 0.3242 0.8732 0.4573
H5 H 0.3657 0.9290 0.5107
H6 H 0.4574 0.8838 0.5108
C6 C 0.3189(5) 1.0626(3) 0.3797(5)
C7 C 0.3430(6) 1.1022(3) 0.4721(5)
H7 H 0.2950 1.1331 0.4487
H8 H 0.4239 1.1123 0.4891
H9 H 0.3259 1.0871 0.5388
C8 C 0.4808(8) 1.0567(3) -0.0386(4)
H10 H 0.4731 1.0948 -0.0349
H11 H 0.4408 1.0444 -0.1131
H12 H 0.5621 1.0475 -0.0236
C9 C 0.5972(3) 1.01266(14) 0.2882(3)
H13 H 0.6125 1.0301 0.3629
C10 C 0.7016(4) 0.97794(16) 0.2866(3)
H14 H 0.7721 1.0001 0.3022
C11 C 0.6664(6) 0.8800(2) 0.2115(5)
H15 H 0.5868 0.8680 0.1800
H16 H 0.7190 0.8538 0.1929
C12 C 0.6894(4) 0.88555(18) 0.3389(4)
C13 C 0.7485(3) 0.94879(16) 0.4937(3)
H17 H 0.6948 0.9313 0.5309
H18 H 0.7428 0.9870 0.5041
C14 C 0.8719(3) 0.93037(16) 0.5472(3)
H19 H 0.8795 0.8925 0.5302
C15 C 1.0665(4) 0.9429(2) 0.5301(5)
H20 H 1.1136 0.9652 0.4923
C16 C 1.1099(4) 0.94989(19) 0.6571(5)
H21 H 1.1114 0.9880 0.6756
C17 C 1.0339(4) 0.92148(19) 0.7192(4)
H22 H 1.0398 0.8829 0.7089
C18 C 0.9080(3) 0.93895(17) 0.6762(3)
H23 H 0.8996 0.9766 0.6944
C19 C 1.0512(6) 0.8802(3) 0.3809(5)
H24 H 0.9684 0.8823 0.3488
H25 H 1.0784 0.8453 0.3676
H26 H 1.0899 0.9065 0.3457
C20 C 1.3155(4) 0.9611(2) 0.7213(6)
C21 C 1.4245(4) 0.9345(3) 0.7833(8)
H27 H 1.4854 0.9421 0.7462
H28 H 1.4120 0.8967 0.7837
H29 H 1.4468 0.9474 0.8603
C22 C 1.1149(6) 0.8954(3) 0.9140(5)
C23 C 1.1436(10) 0.9160(4) 1.0335(6)
H30 H 1.1362 0.8876 1.0844
H31 H 1.0907 0.9443 1.0394
H32 H 1.2223 0.9293 1.0535
C24 C 0.7752(5) 0.9281(3) 0.7954(4)
C25 C 0.7247(6) 0.8891(3) 0.8585(5)
H33 H 0.6837 0.9073 0.9063
H34 H 0.7859 0.8677 0.9047
H35 H 0.6712 0.8666 0.8058
S2 S 0.17637(11) 0.71805(6) 0.70881(14)
O16 O 0.4254(3) 0.81177(13) 0.6806(3)
O17 O 0.2147(2) 0.60711(10) 0.5943(2)
O18 O 0.0349(3) 0.63121(14) 0.4762(4)
O19 O 0.2848(3) 0.59740(16) 0.3846(3)
O20 O 0.2904(10) 0.6477(5) 0.2312(6)
O21 O 0.3664(2) 0.69724(12) 0.4596(2)
O22 O 0.2635(5) 0.7670(2) 0.3738(5)
O23 O 0.7664(2) 0.75713(11) 0.8216(2)
O24 O 0.7986(4) 0.68927(18) 0.7168(4)
O25 O 0.8803(3) 0.73093(13) 1.0467(3)
O26 O 0.9189(4) 0.8164(2) 1.0921(5)
O27 O 0.7416(3) 0.73419(12) 1.2005(2)
O28 O 0.6891(6) 0.6609(2) 1.2773(3)
O29 O 0.5325(3) 0.77050(14) 1.0582(2)
O30 O 0.5302(2) 0.69999(11) 0.9309(2)
N2 N 0.3965(3) 0.72395(12) 0.7104(2)
C26 C 0.2650(3) 0.67691(16) 0.4882(3)
H36 H 0.2111 0.7061 0.4926
C27 C 0.2014(4) 0.63339(19) 0.4090(4)
H37 H 0.1481 0.6477 0.3400
C28 C 0.1392(3) 0.60462(18) 0.4836(4)
H38 H 0.1246 0.5675 0.4589
C29 C 0.3533(7) 0.7427(3) 0.3976(4)
C30 C 0.4661(8) 0.7562(4) 0.3675(6)
H39 H 0.4535 0.7856 0.3151
H40 H 0.4927 0.7258 0.3329
H41 H 0.5241 0.7659 0.4354
C31 C 0.3268(9) 0.6097(5) 0.2900(10)
C32 C 0.4163(10) 0.5699(6) 0.2855(11)
H42 H 0.4365 0.5725 0.2138
H43 H 0.3866 0.5349 0.2934
H44 H 0.4845 0.5763 0.3464
C33 C -0.0352(6) 0.6057(3) 0.5423(9)
H45 H 0.0096 0.5782 0.5886
H46 H -0.1033 0.5903 0.4921
H47 H -0.0587 0.6317 0.5905
C34 C 0.3000(3) 0.64790(14) 0.6004(3)
H48 H 0.3758 0.6308 0.6061
C35 C 0.3103(3) 0.68272(16) 0.7057(3)
H49 H 0.3340 0.6604 0.7740
C36 C 0.2316(4) 0.7812(2) 0.6753(5)
H50 H 0.1924 0.7917 0.5981
H51 H 0.2178 0.8085 0.7272
C37 C 0.3603(4) 0.77515(17) 0.6867(4)
C38 C 0.5217(3) 0.71225(16) 0.7366(3)
H52 H 0.5565 0.7304 0.6825
H53 H 0.5335 0.6742 0.7301
C39 C 0.5798(3) 0.73061(16) 0.8561(3)
H54 H 0.5614 0.7683 0.8636
C40 C 0.7122(3) 0.72355(16) 0.8891(3)
H55 H 0.7328 0.6861 0.8813
C41 C 0.7583(3) 0.74211(17) 1.0122(3)
H56 H 0.7456 0.7806 1.0171
C42 C 0.6951(4) 0.71277(18) 1.0875(3)
H57 H 0.7157 0.6749 1.0881
C43 C 0.5659(4) 0.71783(19) 1.0466(3)
H58 H 0.5295 0.6949 1.0934
C44 C 0.8141(4) 0.7351(2) 0.7435(4)
C45 C 0.8786(5) 0.7748(3) 0.6929(5)
H59 H 0.9192 0.7570 0.6442
H60 H 0.9339 0.7931 0.7525
H61 H 0.8246 0.8001 0.6492
C46 C 0.9539(5) 0.7731(3) 1.0832(5)
C47 C 1.0785(5) 0.7540(4) 1.1073(8)
H62 H 1.1304 0.7839 1.1276
H63 H 1.0915 0.7371 1.0405
H64 H 1.0930 0.7289 1.1691
C48 C 0.7357(6) 0.7024(2) 1.2889(4)
C49 C 0.8001(7) 0.7284(3) 1.3980(4)
H65 H 0.7746 0.7647 1.3991
H66 H 0.8825 0.7277 1.4034
H67 H 0.7844 0.7095 1.4614
C50 C 0.4095(5) 0.7787(4) 1.0342(6)
H68 H 0.3743 0.7691 0.9564
H69 H 0.3938 0.8156 1.0458
H70 H 0.3775 0.7570 1.0840
O31 O 0.8241(10) 0.5973(4) -0.0352(9)
O32 O 1.0054(9) 0.5831(5) 0.0184(9)
C51 C 0.9135(13) 0.5874(4) 0.0397(12)
C52 C 0.9128(13) 0.5852(5) 0.1625(12)
H71 H 0.9013 0.6204 0.1887
H72 H 0.9862 0.5714 0.2062
H73 H 0.8506 0.5624 0.1716
C53 C 1.017(2) 0.5894(11) -0.101(2)
H74 H 0.9692 0.5631 -0.1514
H75 H 0.9925 0.6248 -0.1304
C54 C 1.133(3) 0.5814(11) -0.094(2)
H76 H 1.1755 0.6135 -0.0679
H77 H 1.1433 0.5720 -0.1676
H78 H 1.1618 0.5531 -0.0411
loop_
_geom_bond_atom_site_label_1
_geom_bond_atom_site_label_2
_geom_bond_site_symmetry_1
_geom_bond_site_symmetry_2
S1 C10 1_555 1_555
O1 C12 1_555 1_555
O2 C3 1_555 1_555
O3 C3 1_555 1_555
O4 C2 1_555 1_555
O5 C6 1_555 1_555
O6 C1 1_555 1_555
O7 C4 1_555 1_555
O8 C18 1_555 1_555
O9 C24 1_555 1_555
O10 C17 1_555 1_555
O11 C22 1_555 1_555
O12 C16 1_555 1_555
O13 C20 1_555 1_555
O14 C15 1_555 1_555
O15 C14 1_555 1_555
N1 C10 1_555 1_555
C1 H1 1_555 1_555
C2 C1 1_555 1_555
H2 C2 1_555 1_555
C3 C2 1_555 1_555
H3 C3 1_555 1_555
C4 O6 1_555 1_555
C5 C4 1_555 1_555
H4 C5 1_555 1_555
H5 C5 1_555 1_555
H6 C5 1_555 1_555
C6 O4 1_555 1_555
C7 C6 1_555 1_555
H7 C7 1_555 1_555
H8 C7 1_555 1_555
H9 C7 1_555 1_555
C8 O3 1_555 1_555
H10 C8 1_555 1_555
H11 C8 1_555 1_555
H12 C8 1_555 1_555
C9 O2 1_555 1_555
H13 C9 1_555 1_555
C10 C9 1_555 1_555
H14 C10 1_555 1_555
C11 S1 1_555 1_555
H15 C11 1_555 1_555
H16 C11 1_555 1_555
C12 N1 1_555 1_555
C13 N1 1_555 1_555
H17 C13 1_555 1_555
H18 C13 1_555 1_555
C14 C13 1_555 1_555
H19 C14 1_555 1_555
C15 O15 1_555 1_555
H20 C15 1_555 1_555
C16 C15 1_555 1_555
H21 C16 1_555 1_555
C17 C16 1_555 1_555
H22 C17 1_555 1_555
C18 C14 1_555 1_555
H23 C18 1_555 1_555
C19 O14 1_555 1_555
H24 C19 1_555 1_555
H25 C19 1_555 1_555
H26 C19 1_555 1_555
C20 O12 1_555 1_555
C21 C20 1_555 1_555
H27 C21 1_555 1_555
H28 C21 1_555 1_555
H29 C21 1_555 1_555
C22 O10 1_555 1_555
C23 C22 1_555 1_555
H30 C23 1_555 1_555
H31 C23 1_555 1_555
H32 C23 1_555 1_555
C24 O8 1_555 1_555
C25 C24 1_555 1_555
H33 C25 1_555 1_555
H34 C25 1_555 1_555
H35 C25 1_555 1_555
S2 C35 1_555 1_555
O16 C37 1_555 1_555
O17 C28 1_555 1_555
O18 C28 1_555 1_555
O19 C27 1_555 1_555
O20 C31 1_555 1_555
O21 C26 1_555 1_555
O22 C29 1_555 1_555
O23 C40 1_555 1_555
O24 C44 1_555 1_555
O25 C41 1_555 1_555
O26 C46 1_555 1_555
O27 C42 1_555 1_555
O28 C48 1_555 1_555
O29 C43 1_555 1_555
O30 C39 1_555 1_555
N2 C35 1_555 1_555
C26 H36 1_555 1_555
C27 C26 1_555 1_555
H37 C27 1_555 1_555
C28 C27 1_555 1_555
H38 C28 1_555 1_555
C29 O21 1_555 1_555
C30 C29 1_555 1_555
H39 C30 1_555 1_555
H40 C30 1_555 1_555
H41 C30 1_555 1_555
C31 O19 1_555 1_555
C32 C31 1_555 1_555
H42 C32 1_555 1_555
H43 C32 1_555 1_555
H44 C32 1_555 1_555
C33 O18 1_555 1_555
H45 C33 1_555 1_555
H46 C33 1_555 1_555
H47 C33 1_555 1_555
C34 O17 1_555 1_555
H48 C34 1_555 1_555
C35 C34 1_555 1_555
H49 C35 1_555 1_555
C36 S2 1_555 1_555
H50 C36 1_555 1_555
H51 C36 1_555 1_555
C37 N2 1_555 1_555
C38 N2 1_555 1_555
H52 C38 1_555 1_555
H53 C38 1_555 1_555
C39 C38 1_555 1_555
H54 C39 1_555 1_555
C40 C39 1_555 1_555
H55 C40 1_555 1_555
C41 C40 1_555 1_555
H56 C41 1_555 1_555
C42 C41 1_555 1_555
H57 C42 1_555 1_555
C43 O30 1_555 1_555
H58 C43 1_555 1_555
C44 O23 1_555 1_555
C45 C44 1_555 1_555
H59 C45 1_555 1_555
H60 C45 1_555 1_555
H61 C45 1_555 1_555
C46 O25 1_555 1_555
C47 C46 1_555 1_555
H62 C47 1_555 1_555
H63 C47 1_555 1_555
H64 C47 1_555 1_555
C48 O27 1_555 1_555
C49 C48 1_555 1_555
H65 C49 1_555 1_555
H66 C49 1_555 1_555
H67 C49 1_555 1_555
C50 O29 1_555 1_555
H68 C50 1_555 1_555
H69 C50 1_555 1_555
H70 C50 1_555 1_555
O31 C51 1_555 1_555
O32 C51 1_555 1_555
C51 C52 1_555 1_555
C52 H71 1_555 1_555
H72 C52 1_555 1_555
H73 C52 1_555 1_555
C53 O32 1_555 1_555
H74 C53 1_555 1_555
H75 C53 1_555 1_555
C54 C53 1_555 1_555
H76 C54 1_555 1_555
H77 C54 1_555 1_555
H78 C54 1_555 1_555
C1 C9 1_555 1_555
C11 C12 1_555 1_555
C17 C18 1_555 1_555
C26 C34 1_555 1_555
C36 C37 1_555 1_555
C42 C43 1_555 1_555

#END
