
#######################################################################
#
#                 Cambridge Crystallographic Data Centre
#                                CCDC 
#
#######################################################################
#
# If this CIF has been generated from an entry in the Cambridge 
# Structural Database, then it will include bibliographic, chemical, 
# crystal, experimental, refinement or atomic coordinate data resulting 
# from the CCDC's data processing and validation procedures.
#
#######################################################################

data_ELAFIG
_chemical_formula_moiety         'C10 H8 S8 1+,C10 H8 S8,C3 H5 O3 S1 1-,H2 O1'
_chemical_name_systematic        
"bis(3,4:3',4'-bis(Ethylenedithio)-2,2',5,5'-tetrathiafulvalenium) allylsulfonate monohydrate"
_symmetry_cell_setting           orthorhombic
_symmetry_space_group_name_H-M   'P m a 2'
_symmetry_Int_Tables_number      28
_space_group_name_Hall           'P 2 -2a'
loop_
_symmetry_equiv_pos_site_id
_symmetry_equiv_pos_as_xyz
1 x,y,z
2 -x,-y,z
3 1/2+x,-y,z
4 1/2-x,y,z
_cell_length_a                   32.772(3)
_cell_length_b                   7.9604(7)
_cell_length_c                   6.6868(7)
_cell_angle_alpha                90
_cell_angle_beta                 90
_cell_angle_gamma                90
_cell_volume                     1744.44
_exptl_crystal_colour            black
_exptl_crystal_description       'rectangular plates'
_cell_formula_units_Z            2
loop_
_atom_site_label
_atom_site_type_symbol
_atom_site_fract_x
_atom_site_fract_y
_atom_site_fract_z
S9 S 0.2500 0.5528(5) 0.4397(14)
O1 O 0.2500 0.7045(12) 0.580(3)
O2 O 0.2500 0.582(2) 0.2134(19)
O3 O 0.2971(2) 0.510(2) 0.444(4)
C11 C 0.2544(7) 0.3553(14) 0.553(2)
H9 H 0.2332 0.2807 0.5044
H10 H 0.2807 0.3058 0.5222
C12 C 0.2500 0.218(3) 0.865(6)
H11 H 0.2524 0.1239 0.7828
H12 H 0.2476 0.2042 1.0027
C13 C 0.2500 0.383(3) 0.780(2)
H13 H 0.2478 0.4846 0.8468
O3C O 0.2029(2) 0.510(2) 0.444(4)
C11C C 0.2456(7) 0.3553(14) 0.553(2)
H9C H 0.2668 0.2807 0.5044
H10C H 0.2193 0.3058 0.5222
O4 O 0.2500 0.8166(15) 0.957(3)
S1 S 0.36916(8) 0.0780(4) 0.6045(14)
S2 S 0.34365(7) 0.0213(3) 0.1046(13)
S3 S 0.45147(7) 0.1547(3) 0.4491(13)
S4 S 0.42936(6) 0.1097(3) 0.0288(13)
S5 S 0.53885(6) 0.3013(3) 0.3177(13)
S6 S 0.51617(7) 0.2709(3) -0.1044(13)
S7 S 0.61766(7) 0.4679(3) 0.2417(13)
S8 S 0.58962(9) 0.4430(4) -0.2562(14)
C1 C 0.3328(3) -0.0669(15) 0.5114(16)
H1 H 0.3461 -0.1702 0.4701
H2 H 0.3127 -0.0931 0.6130
C2 C 0.6497(3) 0.4888(18) 0.030(2)
H3 H 0.6683 0.5808 0.0584
H4 H 0.6662 0.3877 0.0239
C3 C 0.3127(5) 0.021(5) 0.331(3)
H5 H 0.3065 0.1358 0.3677
H6 H 0.2870 -0.0352 0.3027
C4 C 0.4010(2) 0.0981(11) 0.3961(19)
C5 C 0.3910(2) 0.0776(10) 0.2043(19)
C6 C 0.4646(3) 0.1802(10) 0.2017(18)
C7 C 0.5019(2) 0.2449(10) 0.1431(17)
C8 C 0.5726(2) 0.3862(10) 0.1439(19)
C9 C 0.5619(3) 0.3715(10) -0.0498(19)
C10 C 0.6329(8) 0.518(4) -0.178(3)
H7 H 0.6535 0.4779 -0.2709
H8 H 0.6314 0.6389 -0.1961
C14? C 0.3136(7) -0.050(6) 0.302(2)
H14? H 0.2905 0.0261 0.3141
H15? H 0.3028 -0.1587 0.2652
C15? C 0.6406(5) 0.399(2) -0.164(2)
H16? H 0.6434 0.2785 -0.1433
H17? H 0.6604 0.4323 -0.2638
loop_
_geom_bond_atom_site_label_1
_geom_bond_atom_site_label_2
_geom_bond_site_symmetry_1
_geom_bond_site_symmetry_2
S1 C1 1_555 1_555
S2 C3 1_555 1_555
S3 C4 1_555 1_555
S4 C5 1_555 1_555
S5 C7 1_555 1_555
S6 C7 1_555 1_555
S7 C2 1_555 1_555
S8 C9 1_555 1_555
S9 O1 1_555 1_555
C1 H1 1_555 1_555
H2 C1 1_555 1_555
C2 H3 1_555 1_555
H4 C2 1_555 1_555
C3 C1 1_555 1_555
H5 C3 1_555 1_555
H6 C3 1_555 1_555
C4 S1 1_555 1_555
C5 S2 1_555 1_555
C6 S3 1_555 1_555
C7 C6 1_555 1_555
C8 S5 1_555 1_555
C9 S6 1_555 1_555
C10 S8 1_555 1_555
H7 C10 1_555 1_555
H8 C10 1_555 1_555
O2 S9 1_555 1_555
O3 S9 1_555 1_555
C11 S9 1_555 1_555
H9 C11 1_555 1_555
H10 C11 1_555 1_555
C12 H11 1_555 1_555
H12 C12 1_555 1_555
C13 C11 1_555 1_555
H13 C13 1_555 1_555
O3C S9 1_555 1_555
C11C S9 1_555 1_555
H9C C11 1_555 1_555
H10C C11 1_555 1_555
S4 C6 1_555 1_555
S7 C8 1_555 1_555
C2 C10 1_555 1_555
C4 C5 1_555 1_555
C8 C9 1_555 1_555
C11 C11C 1_555 1_555
H9 C11C 1_555 1_555
H9 H10C 1_555 1_555
H10 C11C 1_555 1_555
H10 H9C 1_555 1_555
C12 C13 1_555 1_555
C13 C11C 1_555 1_555
C11C H9C 1_555 1_555
C11C H10C 1_555 1_555

#END
