
#######################################################################
#
#                 Cambridge Crystallographic Data Centre
#                                CCDC 
#
#######################################################################
#
# If this CIF has been generated from an entry in the Cambridge 
# Structural Database, then it will include bibliographic, chemical, 
# crystal, experimental, refinement or atomic coordinate data resulting 
# from the CCDC's data processing and validation procedures.
#
#######################################################################

data_ELAHOQ
_chemical_formula_moiety         'C17 H23 N1 O2 S1'
_chemical_name_systematic        
1-((4-Methylphenyl)sulfonyl)-4-(pent-3-yn-1-yl)piperidine
_symmetry_cell_setting           orthorhombic
_symmetry_space_group_name_H-M   'P 21 21 21'
_symmetry_Int_Tables_number      19
_space_group_name_Hall           'P 2ac 2ab'
loop_
_symmetry_equiv_pos_site_id
_symmetry_equiv_pos_as_xyz
1 x,y,z
2 1/2+x,1/2-y,-z
3 -x,1/2+y,1/2-z
4 1/2-x,-y,1/2+z
_cell_length_a                   8.3294(5)
_cell_length_b                   8.3397(4)
_cell_length_c                   23.1298(13)
_cell_angle_alpha                90
_cell_angle_beta                 90
_cell_angle_gamma                90
_cell_volume                     1606.7
_exptl_crystal_colour            colorless
_exptl_crystal_description       block
_chemical_melting_point          '107-108 deg.C'
_cell_formula_units_Z            4
loop_
_atom_site_label
_atom_site_type_symbol
_atom_site_fract_x
_atom_site_fract_y
_atom_site_fract_z
S1 S 1.19191(7) 0.03542(6) 0.88715(2)
O1 O 1.1484(2) -0.10051(19) 0.92169(7)
O2 O 1.34219(19) 0.0363(2) 0.85698(7)
N1 N 1.0507(2) 0.0569(2) 0.83846(8)
C1 C 0.1687(3) 0.0469(3) 0.60270(10)
H1 H 0.1078 -0.0465 0.6162
H2 H 0.2207 0.0214 0.5658
H3 H 0.0956 0.1378 0.5974
C2 C 0.2917(3) 0.0888(3) 0.64583(10)
C3 C 0.3864(3) 0.1265(3) 0.68140(10)
C4 C 0.5006(3) 0.1727(3) 0.72711(10)
H4 H 0.4706 0.1170 0.7633
H5 H 0.4910 0.2894 0.7341
C5 C 0.6754(3) 0.1338(3) 0.71310(9)
H6 H 0.7103 0.2001 0.6799
H7 H 0.6834 0.0198 0.7015
C6 C 0.7885(3) 0.1640(3) 0.76418(9)
H8 H 0.7652 0.2729 0.7802
C7 C 0.9631(3) 0.1600(3) 0.74438(10)
H9 H 0.9851 0.0559 0.7254
H10 H 0.9807 0.2459 0.7155
C8 C 1.0788(3) 0.1827(3) 0.79427(9)
H11 H 1.1906 0.1760 0.7800
H12 H 1.0629 0.2900 0.8117
C9 C 0.8847(3) 0.0606(3) 0.86125(9)
H13 H 0.8654 0.1640 0.8811
H14 H 0.8703 -0.0267 0.8898
C10 C 0.7651(3) 0.0406(3) 0.81242(9)
H15 H 0.6550 0.0508 0.8281
H16 H 0.7762 -0.0685 0.7960
C11 C 1.1842(3) 0.2077(3) 0.93128(9)
C12 C 1.2589(3) 0.3481(3) 0.91315(10)
H17 H 1.3224 0.3486 0.8790
C13 C 1.2400(3) 0.4871(3) 0.94513(9)
H18 H 1.2897 0.5834 0.9324
C14 C 1.1490(3) 0.4875(3) 0.99575(9)
C15 C 1.0808(3) 0.3443(3) 1.01395(10)
H19 H 1.0228 0.3420 1.0493
C16 C 1.0948(3) 0.2050(3) 0.98211(10)
H20 H 1.0443 0.1090 0.9947
C17 C 1.1219(4) 0.6405(3) 1.02902(10)
H21 H 1.0337 0.7008 1.0113
H22 H 1.2200 0.7054 1.0282
H23 H 1.0944 0.6147 1.0692
loop_
_geom_bond_atom_site_label_1
_geom_bond_atom_site_label_2
_geom_bond_site_symmetry_1
_geom_bond_site_symmetry_2
S1 O1 1_555 1_555
O2 S1 1_555 1_555
N1 S1 1_555 1_555
C1 H1 1_555 1_555
H2 C1 1_555 1_555
H3 C1 1_555 1_555
C2 C1 1_555 1_555
C3 C2 1_555 1_555
C4 C3 1_555 1_555
H4 C4 1_555 1_555
H5 C4 1_555 1_555
C5 C4 1_555 1_555
H6 C5 1_555 1_555
H7 C5 1_555 1_555
C6 C5 1_555 1_555
H8 C6 1_555 1_555
C7 C6 1_555 1_555
H9 C7 1_555 1_555
H10 C7 1_555 1_555
C8 N1 1_555 1_555
H11 C8 1_555 1_555
H12 C8 1_555 1_555
C9 N1 1_555 1_555
H13 C9 1_555 1_555
H14 C9 1_555 1_555
C10 C6 1_555 1_555
H15 C10 1_555 1_555
H16 C10 1_555 1_555
C11 S1 1_555 1_555
C12 C11 1_555 1_555
H17 C12 1_555 1_555
C13 C12 1_555 1_555
H18 C13 1_555 1_555
C14 C13 1_555 1_555
C15 C14 1_555 1_555
H19 C15 1_555 1_555
C16 C11 1_555 1_555
H20 C16 1_555 1_555
C17 C14 1_555 1_555
H21 C17 1_555 1_555
H22 C17 1_555 1_555
H23 C17 1_555 1_555
C7 C8 1_555 1_555
C9 C10 1_555 1_555
C15 C16 1_555 1_555

#END
