
#######################################################################
#
#                 Cambridge Crystallographic Data Centre
#                                CCDC 
#
#######################################################################
#
# If this CIF has been generated from an entry in the Cambridge 
# Structural Database, then it will include bibliographic, chemical, 
# crystal, experimental, refinement or atomic coordinate data resulting 
# from the CCDC's data processing and validation procedures.
#
#######################################################################

data_ELAKEJ
_chemical_formula_moiety         'C17 H14 N2 O5 S1'
_chemical_name_systematic        
3-(1,3-benzodioxol-5-ylmethyl)-2-(3-nitrophenyl)-1,3-thiazolidin-4-one
_symmetry_cell_setting           triclinic
_symmetry_space_group_name_H-M   'P -1'
_symmetry_Int_Tables_number      2
_space_group_name_Hall           '-P 1'
loop_
_symmetry_equiv_pos_site_id
_symmetry_equiv_pos_as_xyz
1 x,y,z
2 -x,-y,-z
_cell_length_a                   7.5318(5)
_cell_length_b                   7.6366(4)
_cell_length_c                   16.1554(10)
_cell_angle_alpha                85.747(3)
_cell_angle_beta                 77.156(3)
_cell_angle_gamma                60.883(3)
_cell_volume                     790.846
_exptl_crystal_colour            colorless
_exptl_crystal_description       SLAB
_cell_formula_units_Z            2
loop_
_atom_site_label
_atom_site_type_symbol
_atom_site_fract_x
_atom_site_fract_y
_atom_site_fract_z
S1 S 0.29360(15) 1.26399(11) 0.77582(5)
O1 O -0.0444(3) 1.0552(3) 0.72280(11)
O2 O 0.9646(3) 0.2162(2) 0.52342(11)
O3 O 0.8953(3) 0.4120(3) 0.40593(10)
O4 O 0.4191(4) 0.6395(4) 1.11031(13)
O5 O 0.1549(4) 0.8093(5) 1.05283(16)
N1 N 0.3385(5) 0.7396(4) 1.05338(14)
N2 N 0.2830(3) 0.9379(3) 0.74418(11)
C1 C 0.4314(4) 0.9897(4) 0.76290(15)
H1 H 0.5482 0.9493 0.7138
C2 C 0.0904(4) 1.0846(3) 0.73915(13)
C3 C 0.0587(4) 1.2913(4) 0.75463(17)
H2 H -0.0558 1.3589 0.8027
H3 H 0.0260 1.3708 0.7050
C4 C 0.3517(4) 0.7287(3) 0.72211(14)
H4 H 0.2306 0.7142 0.7226
H5 H 0.4210 0.6440 0.7652
C5 C 0.4979(3) 0.6568(3) 0.63620(13)
C6 C 0.4570(4) 0.7750(3) 0.56580(14)
H6 H 0.3427 0.9032 0.5727
C7 C 0.5840(4) 0.7054(3) 0.48463(14)
H7 H 0.5566 0.7843 0.4375
C8 C 0.7497(4) 0.5163(3) 0.47806(14)
C9 C 0.7910(3) 0.3991(3) 0.54759(14)
C10 C 0.6685(4) 0.4642(3) 0.62709(14)
H8 H 0.6979 0.3830 0.6734
C11 C 1.0355(4) 0.2228(4) 0.43433(15)
H9 H 1.0401 0.1146 0.4045
H10 H 1.1746 0.2072 0.4227
C12 C 0.5154(4) 0.8918(3) 0.84046(14)
C13 C 0.3885(4) 0.8642(3) 0.91093(14)
H11 H 0.2500 0.9055 0.9113
C14 C 0.4722(4) 0.7741(3) 0.98040(15)
C15 C 0.6735(5) 0.7150(4) 0.98313(18)
H12 H 0.7250 0.6557 1.0310
C16 C 0.7984(5) 0.7444(4) 0.9142(2)
H13 H 0.9354 0.7064 0.9153
C17 C 0.7200(4) 0.8312(4) 0.84263(18)
H14 H 0.8060 0.8487 0.7956
loop_
_geom_bond_atom_site_label_1
_geom_bond_atom_site_label_2
_geom_bond_site_symmetry_1
_geom_bond_site_symmetry_2
S1 C1 1_555 1_555
O1 C2 1_555 1_555
O2 C9 1_555 1_555
O3 C8 1_555 1_555
O4 N1 1_555 1_555
O5 N1 1_555 1_555
N1 C14 1_555 1_555
N2 C1 1_555 1_555
C1 H1 1_555 1_555
C2 N2 1_555 1_555
C3 S1 1_555 1_555
H2 C3 1_555 1_555
H3 C3 1_555 1_555
C4 N2 1_555 1_555
H4 C4 1_555 1_555
H5 C4 1_555 1_555
C5 C4 1_555 1_555
C6 C5 1_555 1_555
H6 C6 1_555 1_555
C7 C6 1_555 1_555
H7 C7 1_555 1_555
C8 C7 1_555 1_555
C9 C8 1_555 1_555
C10 C5 1_555 1_555
H8 C10 1_555 1_555
C11 O2 1_555 1_555
H9 C11 1_555 1_555
H10 C11 1_555 1_555
C12 C1 1_555 1_555
C13 C12 1_555 1_555
H11 C13 1_555 1_555
C14 C13 1_555 1_555
C15 C14 1_555 1_555
H12 C15 1_555 1_555
C16 C15 1_555 1_555
H13 C16 1_555 1_555
C17 C12 1_555 1_555
H14 C17 1_555 1_555
O3 C11 1_555 1_555
C2 C3 1_555 1_555
C9 C10 1_555 1_555
C16 C17 1_555 1_555

#END
