
#######################################################################
#
#                 Cambridge Crystallographic Data Centre
#                                CCDC 
#
#######################################################################
#
# If this CIF has been generated from an entry in the Cambridge 
# Structural Database, then it will include bibliographic, chemical, 
# crystal, experimental, refinement or atomic coordinate data resulting 
# from the CCDC's data processing and validation procedures.
#
#######################################################################

data_ELAKIN
_chemical_compound_source        'Walsura robusta'
_chemical_formula_moiety         'C27 H34 O8'
_chemical_name_systematic        
6,11-dihydroxy-17-(5-methoxy-2-oxo-2,5-dihydrofuran-3-yl)-4,4,8-trimethyl-14,15-epoxyandrost-5-ene-3,7-dione
_chemical_properties_biological  
'11 -hydroxysteroid dehydrogenase type 1 (11 -HSD1) inhibitory activity'
_symmetry_cell_setting           monoclinic
_symmetry_space_group_name_H-M   'P 21'
_symmetry_Int_Tables_number      4
_space_group_name_Hall           'P 2yb'
loop_
_symmetry_equiv_pos_site_id
_symmetry_equiv_pos_as_xyz
1 x,y,z
2 -x,1/2+y,-z
_cell_length_a                   7.4553(2)
_cell_length_b                   12.0869(4)
_cell_length_c                   28.1295(7)
_cell_angle_alpha                90
_cell_angle_beta                 90.180(2)
_cell_angle_gamma                90
_cell_volume                     2534.78
_exptl_crystal_colour            colorless
_exptl_crystal_description       prism
_cell_formula_units_Z            4
loop_
_atom_site_label
_atom_site_type_symbol
_atom_site_fract_x
_atom_site_fract_y
_atom_site_fract_z
O1 O -0.6720(3) -0.3269(2) 0.02057(10)
O2 O -1.0571(3) 0.0123(2) -0.02635(8)
H1 H -1.1163 0.0649 -0.0361
O3 O -1.0358(3) 0.1328(2) -0.10414(8)
O4 O -0.4991(4) -0.0804(3) -0.18785(9)
H2 H -0.4121 -0.0850 -0.2055
O5 O -0.7853(4) 0.0881(3) -0.22512(8)
O6 O -0.2415(4) 0.3133(3) -0.25288(12)
O7 O -0.2516(4) 0.4840(3) -0.22310(10)
O8 O -0.3102(5) 0.5788(3) -0.15285(11)
C1 C -0.4690(4) -0.1028(3) -0.04722(12)
H3 H -0.3611 -0.1089 -0.0662
H4 H -0.4661 -0.0318 -0.0312
C2 C -0.4698(5) -0.1953(3) -0.00986(14)
H5 H -0.4008 -0.2572 -0.0219
H6 H -0.4100 -0.1686 0.0186
C3 C -0.6546(5) -0.2361(3) 0.00353(13)
C4 C -0.8112(5) -0.1569(3) -0.00247(12)
C5 C -0.7968(4) -0.0876(3) -0.04800(10)
C6 C -0.9197(4) -0.0081(3) -0.05699(10)
C7 C -0.9248(4) 0.0594(3) -0.10052(11)
C8 C -0.7979(4) 0.0242(3) -0.14022(10)
C9 C -0.6196(4) -0.0083(3) -0.11525(10)
H7 H -0.5958 0.0547 -0.0942
C10 C -0.6342(4) -0.1070(3) -0.08032(11)
C11 C -0.4607(4) -0.0052(3) -0.15038(11)
H8 H -0.3528 -0.0308 -0.1337
C12 C -0.4276(5) 0.1140(3) -0.16785(12)
H9 H -0.3363 0.1475 -0.1479
H10 H -0.3808 0.1108 -0.2000
C13 C -0.5949(4) 0.1891(3) -0.16774(10)
C14 C -0.7604(4) 0.1174(3) -0.17557(11)
C15 C -0.8871(5) 0.1775(4) -0.20484(12)
H11 H -1.0163 0.1692 -0.1996
C16 C -0.8106(5) 0.2881(4) -0.21811(14)
H12 H -0.8548 0.3459 -0.1973
H13 H -0.8393 0.3070 -0.2508
C17 C -0.6084(5) 0.2706(3) -0.21148(12)
H14 H -0.5657 0.2301 -0.2394
C18 C -0.6152(5) 0.2562(3) -0.12199(12)
H15 H -0.6209 0.2069 -0.0953
H16 H -0.7233 0.2993 -0.1236
H17 H -0.5140 0.3047 -0.1184
C19 C -0.6424(5) -0.2218(3) -0.10441(14)
H18 H -0.5309 -0.2362 -0.1202
H19 H -0.7384 -0.2228 -0.1272
H20 H -0.6629 -0.2776 -0.0808
C20 C -0.5012(5) 0.3741(3) -0.20823(12)
C21 C -0.3200(5) 0.3818(4) -0.23028(13)
C22 C -0.5329(6) 0.4719(4) -0.18978(15)
H21 H -0.6390 0.4908 -0.1745
C23 C -0.3789(6) 0.5492(4) -0.19615(16)
H22 H -0.4160 0.6148 -0.2142
C24 C -0.1722(9) 0.6623(5) -0.1551(2)
H23 H -0.2124 0.7224 -0.1747
H24 H -0.0653 0.6309 -0.1684
H25 H -0.1472 0.6891 -0.1236
C25 C -0.7989(7) -0.0834(4) 0.04230(13)
H26 H -0.8070 -0.1288 0.0702
H27 H -0.8955 -0.0309 0.0421
H28 H -0.6864 -0.0447 0.0424
C26 C -0.9872(5) -0.2229(4) -0.00286(19)
H29 H -0.9833 -0.2773 -0.0277
H30 H -1.0860 -0.1736 -0.0083
H31 H -1.0022 -0.2593 0.0272
C27 C -0.9031(5) -0.0683(3) -0.16546(11)
H32 H -1.0056 -0.0372 -0.1813
H33 H -0.9422 -0.1217 -0.1425
H34 H -0.8272 -0.1037 -0.1884
O9 O 0.1660(3) -0.8219(2) -0.50788(10)
O10 O 0.5733(3) -0.4842(2) -0.47554(8)
H35 H 0.6385 -0.4325 -0.4679
O11 O 0.5739(3) -0.3507(2) -0.40161(8)
O12 O 0.0517(4) -0.5333(3) -0.30283(9)
H36 H -0.0325 -0.5372 -0.2842
O13 O 0.3393(4) -0.3535(2) -0.27875(8)
O14 O -0.2113(4) -0.1448(2) -0.25236(9)
O15 O -0.2259(4) 0.0200(2) -0.28782(10)
O16 O -0.1970(5) 0.1031(3) -0.36155(11)
C28 C -0.0136(4) -0.5861(3) -0.44328(13)
H37 H -0.1178 -0.5863 -0.4227
H38 H -0.0169 -0.5184 -0.4618
C29 C -0.0258(5) -0.6848(3) -0.47703(16)
H39 H -0.0922 -0.7435 -0.4615
H40 H -0.0928 -0.6628 -0.5051
C30 C 0.1551(5) -0.7295(3) -0.49235(14)
C31 C 0.3158(5) -0.6513(3) -0.49089(12)
C32 C 0.3137(4) -0.5746(3) -0.44739(10)
C33 C 0.4402(4) -0.4961(3) -0.44260(10)
C34 C 0.4559(4) -0.4205(3) -0.40171(11)
C35 C 0.3340(4) -0.4425(3) -0.35951(10)
C36 C 0.1511(4) -0.4807(3) -0.38070(11)
H41 H 0.1219 -0.4220 -0.4034
C37 C 0.1570(4) -0.5860(3) -0.41224(11)
C38 C -0.0010(5) -0.4714(3) -0.34342(12)
H42 H -0.1108 -0.5038 -0.3567
C39 C -0.0357(5) -0.3488(3) -0.33168(12)
H43 H -0.0780 -0.3436 -0.2992
H44 H -0.1305 -0.3217 -0.3523
C40 C 0.1301(4) -0.2732(3) -0.33729(10)
C41 C 0.3003(4) -0.3400(3) -0.32897(10)
C42 C 0.4313(5) -0.2692(4) -0.30540(13)
H45 H 0.5594 -0.2767 -0.3125
C43 C 0.3501(5) -0.1559(4) -0.29674(14)
H46 H 0.3838 -0.1040 -0.3215
H47 H 0.3860 -0.1265 -0.2661
C44 C 0.1480(5) -0.1811(3) -0.29823(11)
H48 H 0.1179 -0.2158 -0.2678
C45 C 0.1385(5) -0.2183(3) -0.38638(11)
H49 H 0.2443 -0.1732 -0.3883
H50 H 0.0342 -0.1729 -0.3910
H51 H 0.1423 -0.2743 -0.4105
C46 C 0.1675(5) -0.6955(3) -0.38444(14)
H52 H 0.0623 -0.7034 -0.3651
H53 H 0.2722 -0.6951 -0.3645
H54 H 0.1744 -0.7562 -0.4064
C47 C 0.0295(5) -0.0827(3) -0.30328(11)
C48 C -0.1451(5) -0.0782(3) -0.27847(12)
C49 C 0.0470(6) 0.0123(3) -0.32607(14)
H55 H 0.1467 0.0320 -0.3440
C50 C -0.1130(6) 0.0837(3) -0.31935(15)
H56 H -0.0786 0.1537 -0.3043
C51 C -0.3454(9) 0.1791(6) -0.3578(2)
H57 H -0.3779 0.2051 -0.3889
H58 H -0.3111 0.2408 -0.3383
H59 H -0.4459 0.1421 -0.3437
C52 C 0.2958(7) -0.5849(4) -0.53748(13)
H60 H 0.3953 -0.5350 -0.5407
H61 H 0.1860 -0.5434 -0.5367
H62 H 0.2936 -0.6349 -0.5640
C53 C 0.4900(5) -0.7196(3) -0.49098(16)
H63 H 0.4865 -0.7728 -0.4657
H64 H 0.5908 -0.6712 -0.4865
H65 H 0.5014 -0.7573 -0.5209
C54 C 0.4419(5) -0.5292(3) -0.33071(12)
H66 H 0.4752 -0.5893 -0.3512
H67 H 0.3693 -0.5568 -0.3052
H68 H 0.5480 -0.4953 -0.3179
loop_
_geom_bond_atom_site_label_1
_geom_bond_atom_site_label_2
_geom_bond_site_symmetry_1
_geom_bond_site_symmetry_2
O1 C3 1_555 1_555
O2 H1 1_555 1_555
O3 C7 1_555 1_555
O4 H2 1_555 1_555
O5 C14 1_555 1_555
O6 C21 1_555 1_555
O7 C21 1_555 1_555
O8 C23 1_555 1_555
C1 H3 1_555 1_555
H4 C1 1_555 1_555
C2 C1 1_555 1_555
H5 C2 1_555 1_555
H6 C2 1_555 1_555
C3 C2 1_555 1_555
C4 C3 1_555 1_555
C5 C4 1_555 1_555
C6 O2 1_555 1_555
C7 C6 1_555 1_555
C8 C7 1_555 1_555
C9 C8 1_555 1_555
H7 C9 1_555 1_555
C10 C1 1_555 1_555
C11 O4 1_555 1_555
H8 C11 1_555 1_555
C12 C11 1_555 1_555
H9 C12 1_555 1_555
H10 C12 1_555 1_555
C13 C12 1_555 1_555
C14 C8 1_555 1_555
C15 O5 1_555 1_555
H11 C15 1_555 1_555
C16 C15 1_555 1_555
H12 C16 1_555 1_555
H13 C16 1_555 1_555
C17 C13 1_555 1_555
H14 C17 1_555 1_555
C18 C13 1_555 1_555
H15 C18 1_555 1_555
H16 C18 1_555 1_555
H17 C18 1_555 1_555
C19 C10 1_555 1_555
H18 C19 1_555 1_555
H19 C19 1_555 1_555
H20 C19 1_555 1_555
C20 C17 1_555 1_555
C21 C20 1_555 1_555
C22 C20 1_555 1_555
H21 C22 1_555 1_555
C23 O7 1_555 1_555
H22 C23 1_555 1_555
C24 O8 1_555 1_555
H23 C24 1_555 1_555
H24 C24 1_555 1_555
H25 C24 1_555 1_555
C25 C4 1_555 1_555
H26 C25 1_555 1_555
H27 C25 1_555 1_555
H28 C25 1_555 1_555
C26 C4 1_555 1_555
H29 C26 1_555 1_555
H30 C26 1_555 1_555
H31 C26 1_555 1_555
C27 C8 1_555 1_555
H32 C27 1_555 1_555
H33 C27 1_555 1_555
H34 C27 1_555 1_555
O9 C30 1_555 1_555
O10 H35 1_555 1_555
O11 C34 1_555 1_555
O12 H36 1_555 1_555
O13 C41 1_555 1_555
O14 C48 1_555 1_555
O15 C48 1_555 1_555
O16 C50 1_555 1_555
C28 H37 1_555 1_555
H38 C28 1_555 1_555
C29 C28 1_555 1_555
H39 C29 1_555 1_555
H40 C29 1_555 1_555
C30 C29 1_555 1_555
C31 C30 1_555 1_555
C32 C31 1_555 1_555
C33 O10 1_555 1_555
C34 C33 1_555 1_555
C35 C34 1_555 1_555
C36 C35 1_555 1_555
H41 C36 1_555 1_555
C37 C28 1_555 1_555
C38 O12 1_555 1_555
H42 C38 1_555 1_555
C39 C38 1_555 1_555
H43 C39 1_555 1_555
H44 C39 1_555 1_555
C40 C39 1_555 1_555
C41 C35 1_555 1_555
C42 O13 1_555 1_555
H45 C42 1_555 1_555
C43 C42 1_555 1_555
H46 C43 1_555 1_555
H47 C43 1_555 1_555
C44 C40 1_555 1_555
H48 C44 1_555 1_555
C45 C40 1_555 1_555
H49 C45 1_555 1_555
H50 C45 1_555 1_555
H51 C45 1_555 1_555
C46 C37 1_555 1_555
H52 C46 1_555 1_555
H53 C46 1_555 1_555
H54 C46 1_555 1_555
C47 C44 1_555 1_555
C48 C47 1_555 1_555
C49 C47 1_555 1_555
H55 C49 1_555 1_555
C50 O15 1_555 1_555
H56 C50 1_555 1_555
C51 O16 1_555 1_555
H57 C51 1_555 1_555
H58 C51 1_555 1_555
H59 C51 1_555 1_555
C52 C31 1_555 1_555
H60 C52 1_555 1_555
H61 C52 1_555 1_555
H62 C52 1_555 1_555
C53 C31 1_555 1_555
H63 C53 1_555 1_555
H64 C53 1_555 1_555
H65 C53 1_555 1_555
C54 C35 1_555 1_555
H66 C54 1_555 1_555
H67 C54 1_555 1_555
H68 C54 1_555 1_555
C5 C6 1_555 1_555
C5 C10 1_555 1_555
C9 C10 1_555 1_555
C9 C11 1_555 1_555
C13 C14 1_555 1_555
C14 C15 1_555 1_555
C16 C17 1_555 1_555
C22 C23 1_555 1_555
C32 C33 1_555 1_555
C32 C37 1_555 1_555
C36 C37 1_555 1_555
C36 C38 1_555 1_555
C40 C41 1_555 1_555
C41 C42 1_555 1_555
C43 C44 1_555 1_555
C49 C50 1_555 1_555

#END
