
#######################################################################
#
#                 Cambridge Crystallographic Data Centre
#                                CCDC 
#
#######################################################################
#
# If this CIF has been generated from an entry in the Cambridge 
# Structural Database, then it will include bibliographic, chemical, 
# crystal, experimental, refinement or atomic coordinate data resulting 
# from the CCDC's data processing and validation procedures.
#
#######################################################################

data_ELAPOX
_chemical_formula_moiety         'C4 H4 N8'
_chemical_name_systematic        4,4'-Diazene-1,2-diylbis(4H-1,2,4-triazole)
_symmetry_cell_setting           monoclinic
_symmetry_space_group_name_H-M   'P 21/n'
_symmetry_Int_Tables_number      14
_space_group_name_Hall           '-P 2yn'
loop_
_symmetry_equiv_pos_site_id
_symmetry_equiv_pos_as_xyz
1 x,y,z
2 1/2-x,1/2+y,1/2-z
3 -x,-y,-z
4 1/2+x,1/2-y,1/2+z
_cell_length_a                   5.0316(10)
_cell_length_b                   6.4982(13)
_cell_length_c                   10.301(2)
_cell_angle_alpha                90
_cell_angle_beta                 91.56(3)
_cell_angle_gamma                90
_cell_volume                     336.68
_exptl_crystal_colour            colorless
_exptl_crystal_description       block
_cell_formula_units_Z            2
loop_
_atom_site_label
_atom_site_type_symbol
_atom_site_fract_x
_atom_site_fract_y
_atom_site_fract_z
N1 N 0.5662(3) 0.03247(19) 0.45385(13)
N2 N 0.4631(2) 0.2171(2) 0.40820(13)
N3 N 0.4452(3) 0.4933(2) 0.28764(15)
N4 N 0.2311(3) 0.4959(2) 0.37246(15)
C1 C 0.2455(3) 0.3296(2) 0.44325(17)
H1 H 0.1273 0.2931 0.5072
C2 C 0.5778(3) 0.3252(2) 0.31031(16)
H2 H 0.7283 0.2842 0.2666
N1B N 0.4338(3) -0.03247(19) 0.54615(13)
N2B N 0.5369(2) -0.2171(2) 0.59180(13)
N3B N 0.5548(3) -0.4933(2) 0.71236(15)
N4B N 0.7689(3) -0.4959(2) 0.62754(15)
C1B C 0.7545(3) -0.3296(2) 0.55675(17)
H1B H 0.8727 -0.2931 0.4928
C2B C 0.4222(3) -0.3252(2) 0.68969(16)
H2B H 0.2717 -0.2842 0.7334
loop_
_geom_bond_atom_site_label_1
_geom_bond_atom_site_label_2
_geom_bond_site_symmetry_1
_geom_bond_site_symmetry_2
N1 N2 1_555 1_555
N2 C1 1_555 1_555
N3 N4 1_555 1_555
N4 C1 1_555 1_555
C1 H1 1_555 1_555
C2 N2 1_555 1_555
H2 C2 1_555 1_555
N1B N1 1_555 1_555
N2B N1B 1_555 1_555
N3B N4B 1_555 1_555
N4B C1B 1_555 1_555
C1B N2B 1_555 1_555
H1B C1B 1_555 1_555
C2B N2B 1_555 1_555
H2B C2B 1_555 1_555
N3 C2 1_555 1_555
N3B C2B 1_555 1_555

#END
