
#######################################################################
#
#                 Cambridge Crystallographic Data Centre
#                                CCDC 
#
#######################################################################
#
# If this CIF has been generated from an entry in the Cambridge 
# Structural Database, then it will include bibliographic, chemical, 
# crystal, experimental, refinement or atomic coordinate data resulting 
# from the CCDC's data processing and validation procedures.
#
#######################################################################

data_ELAPOX01
_chemical_formula_moiety         'C4 H4 N8'
_chemical_name_systematic        4,4'-diazene-1,2-diylbis(4H-1,2,4-triazole)
_symmetry_cell_setting           monoclinic
_symmetry_space_group_name_H-M   'P 21/n'
_symmetry_Int_Tables_number      14
_space_group_name_Hall           '-P 2yn'
loop_
_symmetry_equiv_pos_site_id
_symmetry_equiv_pos_as_xyz
1 x,y,z
2 1/2-x,1/2+y,1/2-z
3 -x,-y,-z
4 1/2+x,1/2-y,1/2+z
_cell_length_a                   4.9579(10)
_cell_length_b                   6.4613(13)
_cell_length_c                   10.181(2)
_cell_angle_alpha                90
_cell_angle_beta                 92.28(3)
_cell_angle_gamma                90
_cell_volume                     325.885
_exptl_crystal_colour            yellow
_exptl_crystal_description       block
_cell_formula_units_Z            2
loop_
_atom_site_label
_atom_site_type_symbol
_atom_site_fract_x
_atom_site_fract_y
_atom_site_fract_z
N1 N 0.76798(4) -0.00123(3) 0.62658(2)
N2 N 0.55354(4) 0.00193(3) 0.71285(2)
N3 N 0.53569(3) 0.28205(3) 0.592293(17)
N4 N 0.43457(4) 0.46731(3) 0.546692(18)
C1 C 0.75366(4) 0.16715(3) 0.55594(2)
C2 C 0.41976(4) 0.17296(3) 0.69059(2)
H1 H 0.264(2) 0.2168(14) 0.7339(9)
H2 H 0.8725(18) 0.2011(14) 0.4893(9)
N1B N 0.23202(4) 1.00123(3) 0.37342(2)
N2B N 0.44646(4) 0.99807(3) 0.28715(2)
N3B N 0.46431(3) 0.71795(3) 0.407707(17)
N4B N 0.56543(4) 0.53269(3) 0.453308(18)
C1B C 0.24634(4) 0.83285(3) 0.44406(2)
C2B C 0.58024(4) 0.82704(3) 0.30941(2)
H1B H 0.736(2) 0.7832(14) 0.2661(9)
H2B H 0.1275(18) 0.7989(14) 0.5107(9)
loop_
_geom_bond_atom_site_label_1
_geom_bond_atom_site_label_2
_geom_bond_site_symmetry_1
_geom_bond_site_symmetry_2
N1 N2 1_555 1_555
N2 C2 1_555 1_555
N3 N4 1_555 1_555
N4 N4B 1_555 1_555
C1 N1 1_555 1_555
C2 N3 1_555 1_555
H1 C2 1_555 1_555
H2 C1 1_555 1_555
N1B N2B 1_555 1_555
N2B C2B 1_555 1_555
N3B N4B 1_555 1_555
C1B N1B 1_555 1_555
C2B N3B 1_555 1_555
H1B C2B 1_555 1_555
H2B C1B 1_555 1_555
N3 C1 1_555 1_555
N3B C1B 1_555 1_555

#END
