
#######################################################################
#
#                 Cambridge Crystallographic Data Centre
#                                CCDC 
#
#######################################################################
#
# If this CIF has been generated from an entry in the Cambridge 
# Structural Database, then it will include bibliographic, chemical, 
# crystal, experimental, refinement or atomic coordinate data resulting 
# from the CCDC's data processing and validation procedures.
#
#######################################################################

data_ELAPIR
_chemical_formula_moiety         'C29 H22 Cl1 N5 O2'
_chemical_name_systematic        
2-((4-Chlorophenyl)(5-hydroxy-1,3-diphenyl-1H-pyrazol-4-yl)methylene)-N-phenylhydrazinecarboxamide
_symmetry_cell_setting           monoclinic
_symmetry_space_group_name_H-M   'P 21/c'
_symmetry_Int_Tables_number      14
_space_group_name_Hall           '-P 2ybc'
loop_
_symmetry_equiv_pos_site_id
_symmetry_equiv_pos_as_xyz
1 x,y,z
2 -x,1/2+y,1/2-z
3 -x,-y,-z
4 x,1/2-y,1/2+z
_cell_length_a                   10.9816(2)
_cell_length_b                   18.0168(3)
_cell_length_c                   26.2966(6)
_cell_angle_alpha                90
_cell_angle_beta                 106.5860(10)
_cell_angle_gamma                90
_cell_volume                     4986.39
_exptl_crystal_colour            colorless
_exptl_crystal_description       prism
_cell_formula_units_Z            8
loop_
_atom_site_label
_atom_site_type_symbol
_atom_site_fract_x
_atom_site_fract_y
_atom_site_fract_z
Cl1 Cl 0.54441(6) 0.33166(4) 0.83800(3)
O1 O 0.31454(17) 0.40672(10) 0.49604(7)
O2 O 0.05444(15) 0.59582(9) 0.51226(7)
N1 N 0.23283(18) 0.28794(10) 0.49525(8)
N2 N 0.18768(18) 0.23960(10) 0.52587(8)
N3 N 0.23935(18) 0.47445(10) 0.60643(8)
N4 N 0.16782(19) 0.49921(11) 0.55748(8)
N5 N 0.1715(2) 0.61054(11) 0.59947(8)
C1 C 0.2074(2) 0.31678(15) 0.40230(10)
H1 H 0.1878 0.3668 0.4083
C2 C 0.2074(3) 0.29345(16) 0.35203(11)
H2 H 0.1887 0.3279 0.3235
C3 C 0.2343(3) 0.22088(17) 0.34305(11)
H3 H 0.2325 0.2051 0.3084
C4 C 0.2637(3) 0.17116(16) 0.38454(11)
H4 H 0.2833 0.1212 0.3784
C5 C 0.2651(2) 0.19326(14) 0.43516(10)
H5 H 0.2853 0.1588 0.4637
C6 C 0.2364(2) 0.26638(13) 0.44354(9)
C7 C 0.2679(2) 0.35367(12) 0.52065(9)
C8 C 0.2457(2) 0.34927(12) 0.56963(9)
C9 C 0.1959(2) 0.27619(12) 0.57069(9)
C10 C 0.1510(2) 0.24043(12) 0.61197(9)
C11 C 0.1559(2) 0.16326(13) 0.61748(10)
H6 H 0.1887 0.1341 0.5943
C12 C 0.1135(2) 0.12905(15) 0.65608(11)
H7 H 0.1154 0.0765 0.6589
C13 C 0.0681(3) 0.17114(16) 0.69090(11)
H8 H 0.0414 0.1477 0.7182
C14 C 0.0620(2) 0.24729(15) 0.68554(10)
H9 H 0.0308 0.2763 0.7093
C15 C 0.1008(2) 0.28166(14) 0.64600(10)
H10 H 0.0933 0.3340 0.6419
C16 C 0.2715(2) 0.40508(12) 0.61200(9)
C17 C 0.3385(2) 0.38460(12) 0.66799(9)
C18 C 0.4224(2) 0.32532(13) 0.67989(10)
H11 H 0.4369 0.2963 0.6520
C19 C 0.4854(2) 0.30811(13) 0.73222(10)
H12 H 0.5430 0.2675 0.7403
C20 C 0.4636(2) 0.35059(13) 0.77251(10)
C21 C 0.3781(2) 0.40878(14) 0.76141(10)
H13 H 0.3623 0.4371 0.7894
C22 C 0.3157(2) 0.42527(13) 0.70906(10)
H14 H 0.2564 0.4650 0.7012
C23 C 0.1267(2) 0.57136(13) 0.55480(9)
C24 C 0.1489(2) 0.68583(13) 0.61043(10)
C25 C 0.0880(2) 0.73652(13) 0.57179(11)
H15 H 0.0597 0.7222 0.5355
C26 C 0.0690(2) 0.80831(14) 0.58684(12)
H16 H 0.0265 0.8431 0.5606
C27 C 0.1108(3) 0.83008(15) 0.63935(12)
H17 H 0.0968 0.8794 0.6491
C28 C 0.1732(2) 0.77968(15) 0.67753(12)
H18 H 0.2025 0.7944 0.7137
C29 C 0.1930(2) 0.70789(13) 0.66309(10)
H19 H 0.2369 0.6735 0.6893
H20 H 0.365(3) 0.4341(17) 0.5172(12)
H21 H 0.130(2) 0.4660(11) 0.5349(9)
H22 H 0.217(2) 0.5838(13) 0.6255(8)
Cl2 Cl 0.19164(7) 1.02354(4) 0.51410(4)
O3 O 0.11833(17) 0.56597(9) 0.42705(7)
O4 O 0.48388(15) 0.49092(8) 0.55567(7)
N6 N 0.15958(18) 0.61055(10) 0.35075(8)
N7 N 0.22413(17) 0.66663(10) 0.33385(8)
N8 N 0.35756(18) 0.66802(10) 0.51988(8)
N9 N 0.38705(19) 0.59480(11) 0.51458(8)
N10 N 0.48873(19) 0.59681(11) 0.60403(8)
C30 C 0.0437(2) 0.49363(13) 0.32628(11)
H23 H 0.0743 0.4764 0.3618
C31 C -0.0359(2) 0.44968(14) 0.28780(11)
H24 H -0.0602 0.4021 0.2971
C32 C -0.0807(2) 0.47401(14) 0.23608(11)
H25 H -0.1363 0.4437 0.2100
C33 C -0.0440(2) 0.54269(14) 0.22264(10)
H26 H -0.0738 0.5595 0.1870
C34 C 0.0353(2) 0.58725(14) 0.26041(10)
H27 H 0.0603 0.6344 0.2507
C35 C 0.0787(2) 0.56320(13) 0.31255(9)
C36 C 0.1775(2) 0.61444(12) 0.40433(9)
C37 C 0.2567(2) 0.67400(12) 0.42329(9)
C38 C 0.2803(2) 0.70482(12) 0.37716(9)
C39 C 0.3560(2) 0.77103(12) 0.37322(9)
C40 C 0.3191(2) 0.81572(13) 0.32807(10)
H28 H 0.2462 0.8028 0.3000
C41 C 0.3878(2) 0.87862(14) 0.32393(11)
H29 H 0.3630 0.9083 0.2928
C42 C 0.4930(3) 0.89840(15) 0.36524(12)
H30 H 0.5394 0.9421 0.3627
C43 C 0.5301(2) 0.85452(14) 0.40997(11)
H31 H 0.6024 0.8679 0.4382
C44 C 0.4623(2) 0.79109(13) 0.41383(10)
H32 H 0.4889 0.7609 0.4447
C45 C 0.2987(2) 0.70448(12) 0.47766(9)
C46 C 0.2741(2) 0.78396(13) 0.48618(9)
C47 C 0.1684(2) 0.81960(13) 0.45373(11)
H33 H 0.1126 0.7933 0.4251
C48 C 0.1430(2) 0.89311(14) 0.46244(11)
H34 H 0.0695 0.9168 0.4404
C49 C 0.2249(2) 0.93136(14) 0.50316(11)
C50 C 0.3323(3) 0.89768(14) 0.53553(11)
H35 H 0.3890 0.9248 0.5634
C51 C 0.3565(2) 0.82424(13) 0.52697(10)
H36 H 0.4302 0.8009 0.5492
C52 C 0.4567(2) 0.55749(12) 0.55890(9)
C53 C 0.5443(2) 0.57107(13) 0.65632(9)
C54 C 0.5923(2) 0.49993(14) 0.66837(10)
H37 H 0.5906 0.4654 0.6409
C55 C 0.6428(2) 0.47987(14) 0.72121(10)
H38 H 0.6749 0.4311 0.7298
C56 C 0.6469(2) 0.52968(15) 0.76137(11)
H39 H 0.6803 0.5150 0.7974
C57 C 0.6023(3) 0.60107(16) 0.74915(10)
H40 H 0.6075 0.6360 0.7767
C58 C 0.5501(2) 0.62167(14) 0.69672(10)
H41 H 0.5181 0.6705 0.6884
H42 H 0.107(4) 0.5772(19) 0.4558(8)
H43 H 0.380(3) 0.5762(15) 0.4833(6)
H44 H 0.465(2) 0.6428(7) 0.6000(10)
loop_
_geom_bond_atom_site_label_1
_geom_bond_atom_site_label_2
_geom_bond_site_symmetry_1
_geom_bond_site_symmetry_2
Cl1 C20 1_555 1_555
O1 C7 1_555 1_555
O2 C23 1_555 1_555
N1 N2 1_555 1_555
N2 C9 1_555 1_555
N3 N4 1_555 1_555
N4 C23 1_555 1_555
N5 C23 1_555 1_555
C1 H1 1_555 1_555
C2 C1 1_555 1_555
H2 C2 1_555 1_555
C3 C2 1_555 1_555
H3 C3 1_555 1_555
C4 C3 1_555 1_555
H4 C4 1_555 1_555
C5 C4 1_555 1_555
H5 C5 1_555 1_555
C6 N1 1_555 1_555
C7 N1 1_555 1_555
C8 C7 1_555 1_555
C9 C8 1_555 1_555
C10 C9 1_555 1_555
C11 C10 1_555 1_555
H6 C11 1_555 1_555
C12 C11 1_555 1_555
H7 C12 1_555 1_555
C13 C12 1_555 1_555
H8 C13 1_555 1_555
C14 C13 1_555 1_555
H9 C14 1_555 1_555
C15 C10 1_555 1_555
H10 C15 1_555 1_555
C16 N3 1_555 1_555
C17 C16 1_555 1_555
C18 C17 1_555 1_555
H11 C18 1_555 1_555
C19 C18 1_555 1_555
H12 C19 1_555 1_555
C20 C19 1_555 1_555
C21 C20 1_555 1_555
H13 C21 1_555 1_555
C22 C17 1_555 1_555
H14 C22 1_555 1_555
C24 N5 1_555 1_555
C25 C24 1_555 1_555
H15 C25 1_555 1_555
C26 C25 1_555 1_555
H16 C26 1_555 1_555
C27 C26 1_555 1_555
H17 C27 1_555 1_555
C28 C27 1_555 1_555
H18 C28 1_555 1_555
C29 C24 1_555 1_555
H19 C29 1_555 1_555
H20 O1 1_555 1_555
H21 N4 1_555 1_555
H22 N5 1_555 1_555
Cl2 C49 1_555 1_555
O3 C36 1_555 1_555
O4 C52 1_555 1_555
N6 N7 1_555 1_555
N7 C38 1_555 1_555
N8 N9 1_555 1_555
N9 C52 1_555 1_555
N10 C52 1_555 1_555
C30 H23 1_555 1_555
C31 C30 1_555 1_555
H24 C31 1_555 1_555
C32 C31 1_555 1_555
H25 C32 1_555 1_555
C33 C32 1_555 1_555
H26 C33 1_555 1_555
C34 C33 1_555 1_555
H27 C34 1_555 1_555
C35 N6 1_555 1_555
C36 N6 1_555 1_555
C37 C36 1_555 1_555
C38 C37 1_555 1_555
C39 C38 1_555 1_555
C40 C39 1_555 1_555
H28 C40 1_555 1_555
C41 C40 1_555 1_555
H29 C41 1_555 1_555
C42 C41 1_555 1_555
H30 C42 1_555 1_555
C43 C42 1_555 1_555
H31 C43 1_555 1_555
C44 C39 1_555 1_555
H32 C44 1_555 1_555
C45 N8 1_555 1_555
C46 C45 1_555 1_555
C47 C46 1_555 1_555
H33 C47 1_555 1_555
C48 C47 1_555 1_555
H34 C48 1_555 1_555
C49 C48 1_555 1_555
C50 C49 1_555 1_555
H35 C50 1_555 1_555
C51 C46 1_555 1_555
H36 C51 1_555 1_555
C53 N10 1_555 1_555
C54 C53 1_555 1_555
H37 C54 1_555 1_555
C55 C54 1_555 1_555
H38 C55 1_555 1_555
C56 C55 1_555 1_555
H39 C56 1_555 1_555
C57 C56 1_555 1_555
H40 C57 1_555 1_555
C58 C53 1_555 1_555
H41 C58 1_555 1_555
H42 O3 1_555 1_555
H43 N9 1_555 1_555
H44 N10 1_555 1_555
C1 C6 1_555 1_555
C5 C6 1_555 1_555
C8 C16 1_555 1_555
C14 C15 1_555 1_555
C21 C22 1_555 1_555
C28 C29 1_555 1_555
C30 C35 1_555 1_555
C34 C35 1_555 1_555
C37 C45 1_555 1_555
C43 C44 1_555 1_555
C50 C51 1_555 1_555
C57 C58 1_555 1_555

#END
