
#######################################################################
#
#                 Cambridge Crystallographic Data Centre
#                                CCDC 
#
#######################################################################
#
# If this CIF has been generated from an entry in the Cambridge 
# Structural Database, then it will include bibliographic, chemical, 
# crystal, experimental, refinement or atomic coordinate data resulting 
# from the CCDC's data processing and validation procedures.
#
#######################################################################

data_ELARAL
_chemical_formula_moiety         
'2(C9 H18 N1 O1),C12 H8 O6 S2 2-,2(C1 H6 N3 1+)'
_chemical_name_systematic        
"bis(guanidinium) biphenyl-4,4'-disulfonate bis(2,2,6,6-tetramethylpiperidine-1-oxyl)"
_symmetry_cell_setting           monoclinic
_symmetry_space_group_name_H-M   'P 21/n'
_symmetry_Int_Tables_number      14
_space_group_name_Hall           '-P 2yn'
loop_
_symmetry_equiv_pos_site_id
_symmetry_equiv_pos_as_xyz
1 x,y,z
2 1/2-x,1/2+y,1/2-z
3 -x,-y,-z
4 1/2+x,1/2-y,1/2+z
_cell_length_a                   7.6700(6)
_cell_length_b                   9.2621(7)
_cell_length_c                   29.002(2)
_cell_angle_alpha                90
_cell_angle_beta                 94.1130(10)
_cell_angle_gamma                90
_cell_volume                     2055
_exptl_crystal_colour            orange
_exptl_crystal_description       block
_cell_formula_units_Z            2
loop_
_atom_site_label
_atom_site_type_symbol
_atom_site_fract_x
_atom_site_fract_y
_atom_site_fract_z
S1 S 0.48604(4) 0.13969(4) 0.177055(11)
C1 C 0.49870(16) 0.02096(14) 0.02483(4)
C2 C 0.48865(16) 0.09379(15) 0.11805(4)
C3 C 0.4143(2) 0.14527(16) 0.03815(5)
H1 H 0.3596 0.2066 0.0152
C4 C 0.4087(2) 0.18130(16) 0.08449(5)
H2 H 0.3496 0.2663 0.0930
C6 C 0.5792(2) -0.06570(17) 0.05937(5)
H3 H 0.6379 -0.1512 0.0511
C7 C 0.5749(2) -0.02918(17) 0.10572(5)
H4 H 0.6314 -0.0889 0.1289
O1 O 0.33111(12) 0.22857(11) 0.18158(3)
O2 O 0.64718(12) 0.22041(12) 0.18885(3)
O3 O 0.48215(13) 0.00488(12) 0.20269(3)
S1B S 0.51396(4) -0.13969(4) -0.177055(11)
C1B C 0.50130(16) -0.02096(14) -0.02483(4)
C2B C 0.51135(16) -0.09379(15) -0.11805(4)
C3B C 0.5857(2) -0.14527(16) -0.03815(5)
H1B H 0.6404 -0.2066 -0.0152
C4B C 0.5913(2) -0.18130(16) -0.08449(5)
H2B H 0.6504 -0.2663 -0.0930
C6B C 0.4208(2) 0.06570(17) -0.05937(5)
H3B H 0.3621 0.1512 -0.0511
C7B C 0.4251(2) 0.02918(17) -0.10572(5)
H4B H 0.3686 0.0889 -0.1289
O1B O 0.66889(12) -0.22857(11) -0.18158(3)
O2B O 0.35282(12) -0.22041(12) -0.18885(3)
O3B O 0.51785(13) -0.00488(12) -0.20269(3)
C5 C 0.99892(18) -0.00562(17) 0.22701(5)
N2 N 1.15025(16) -0.06254(15) 0.24240(4)
H23 H 1.1532 -0.1312 0.2634
H24 H 1.2480 -0.0318 0.2316
N3 N 0.85189(17) -0.05205(17) 0.24327(5)
H25 H 0.8549 -0.1207 0.2643
H26 H 0.7512 -0.0142 0.2331
N4 N 0.99360(17) 0.09639(16) 0.19484(5)
H27 H 1.0909 0.1264 0.1837
H28 H 0.8927 0.1341 0.1847
C8 C 1.0810(2) 0.71179(19) 0.07694(6)
C9 C 0.8577(2) 0.53415(19) 0.11279(7)
C10 C 0.6598(3) 0.5399(3) 0.11483(10)
H5 H 0.6245 0.6381 0.1226
H6 H 0.6242 0.4726 0.1385
H7 H 0.6034 0.5127 0.0847
C11 C 1.1364(4) 0.6134(3) 0.15828(8)
H8 H 1.1868 0.6382 0.1897
H9 H 1.2020 0.5302 0.1469
C12 C 1.2025(3) 0.6129(3) 0.05143(8)
H10 H 1.2345 0.5289 0.0708
H11 H 1.3083 0.6662 0.0449
H12 H 1.1423 0.5805 0.0223
C13 C 0.9102(3) 0.3828(2) 0.09764(8)
H13 H 0.8731 0.3689 0.0649
H14 H 0.8538 0.3104 0.1162
H15 H 1.0374 0.3722 0.1021
C14 C 1.0567(3) 0.8539(2) 0.05087(10)
H16 H 1.0179 0.8343 0.0185
H17 H 1.1679 0.9063 0.0522
H18 H 0.9686 0.9124 0.0651
C15 C 0.9463(4) 0.5744(3) 0.15998(8)
H19 H 0.8835 0.6573 0.1726
H20 H 0.9363 0.4920 0.1814
C16 C 1.1519(3) 0.7405(3) 0.12642(8)
H21 H 1.2766 0.7682 0.1263
H22 H 1.0881 0.8234 0.1387
N1 N 0.90637(17) 0.64180(14) 0.07744(5)
O4 O 0.81438(16) 0.63712(13) 0.03880(4)
loop_
_geom_bond_atom_site_label_1
_geom_bond_atom_site_label_2
_geom_bond_site_symmetry_1
_geom_bond_site_symmetry_2
S1 C2 1_555 1_555
C1 C3 1_555 1_555
C2 C4 1_555 1_555
C3 H1 1_555 1_555
C4 C3 1_555 1_555
H2 C4 1_555 1_555
C5 N2 1_555 1_555
C6 C1 1_555 1_555
H3 C6 1_555 1_555
C7 C2 1_555 1_555
H4 C7 1_555 1_555
C8 C12 1_555 1_555
C9 C10 1_555 1_555
C10 H5 1_555 1_555
H6 C10 1_555 1_555
H7 C10 1_555 1_555
C11 H8 1_555 1_555
H9 C11 1_555 1_555
C12 H10 1_555 1_555
H11 C12 1_555 1_555
H12 C12 1_555 1_555
C13 C9 1_555 1_555
H13 C13 1_555 1_555
H14 C13 1_555 1_555
H15 C13 1_555 1_555
C14 C8 1_555 1_555
H16 C14 1_555 1_555
H17 C14 1_555 1_555
H18 C14 1_555 1_555
C15 C9 1_555 1_555
H19 C15 1_555 1_555
H20 C15 1_555 1_555
C16 C8 1_555 1_555
H21 C16 1_555 1_555
H22 C16 1_555 1_555
N1 C8 1_555 1_555
N2 H23 1_555 1_555
H24 N2 1_555 1_555
N3 C5 1_555 1_555
H25 N3 1_555 1_555
H26 N3 1_555 1_555
N4 C5 1_555 1_555
H27 N4 1_555 1_555
H28 N4 1_555 1_555
O1 S1 1_555 1_555
O2 S1 1_555 1_555
O3 S1 1_555 1_555
O4 N1 1_555 1_555
S1B C2B 1_555 1_555
C1B C1 1_555 1_555
C2B C4B 1_555 1_555
C3B C1B 1_555 1_555
H1B C3B 1_555 1_555
C4B C3B 1_555 1_555
H2B C4B 1_555 1_555
C6B C1B 1_555 1_555
H3B C6B 1_555 1_555
C7B C2B 1_555 1_555
H4B C7B 1_555 1_555
O1B S1B 1_555 1_555
O2B S1B 1_555 1_555
O3B S1B 1_555 1_555
C6 C7 1_555 1_555
C9 N1 1_555 1_555
C11 C15 1_555 1_555
C11 C16 1_555 1_555
C6B C7B 1_555 1_555

#END
