
#######################################################################
#
#                 Cambridge Crystallographic Data Centre
#                                CCDC 
#
#######################################################################
#
# If this CIF has been generated from an entry in the Cambridge 
# Structural Database, then it will include bibliographic, chemical, 
# crystal, experimental, refinement or atomic coordinate data resulting 
# from the CCDC's data processing and validation procedures.
#
#######################################################################

data_ELARIT
_chemical_formula_moiety         
'C14 H10 O6 S2 2-,0.5(C9 H18 N1 O1),2(C1 H6 N3 1+),C1 H4 O1'
_chemical_name_systematic        
"bis(guanidinium) 4,4'-ethene-1,2-diyldibenzenesulfonate hemikis(2,2,6,6-tetramethylpiperidine-1-oxyl) methanol solvate"
_symmetry_cell_setting           triclinic
_symmetry_space_group_name_H-M   'P -1'
_symmetry_Int_Tables_number      2
_space_group_name_Hall           '-P 1'
loop_
_symmetry_equiv_pos_site_id
_symmetry_equiv_pos_as_xyz
1 x,y,z
2 -x,-y,-z
_cell_length_a                   7.3764(6)
_cell_length_b                   12.1391(10)
_cell_length_c                   16.7417(17)
_cell_angle_alpha                71.3920(10)
_cell_angle_beta                 85.142(2)
_cell_angle_gamma                86.8870(10)
_cell_volume                     1415.04
_exptl_crystal_colour            brown
_exptl_crystal_description       plate
_cell_formula_units_Z            2
loop_
_atom_site_label
_atom_site_type_symbol
_atom_site_fract_x
_atom_site_fract_y
_atom_site_fract_z
C2 C 0.4632(3) 0.69776(15) 0.14317(11)
N4 N 0.3098(2) 0.64317(12) 0.14242(9)
H7 H 0.2034 0.6793 0.1435
H8 H 0.3158 0.5713 0.1409
N5 N 0.4520(2) 0.80371(13) 0.14547(12)
H9 H 0.5514 0.8396 0.1473
H10 H 0.3452 0.8397 0.1451
N6 N 0.6226(2) 0.64188(12) 0.14361(9)
H11 H 0.7231 0.6766 0.1455
H12 H 0.6281 0.5700 0.1420
C3 C 0.0345(2) 1.10396(14) 0.74482(10)
C4 C 0.0772(3) 1.19136(18) 0.67166(13)
H13 H 0.1147 1.2644 0.6729
C5 C 0.0645(4) 1.1704(2) 0.59523(13)
H14 H 0.0914 1.2317 0.5443
C6 C 0.0160(3) 1.06799(19) 0.58979(11)
C7 C -0.0268(3) 0.97901(18) 0.66493(12)
H15 H -0.0616 0.9059 0.6627
C8 C -0.0193(3) 0.99586(17) 0.74270(12)
H16 H -0.0500 0.9354 0.7936
C9 C 0.0066(3) 1.05069(19) 0.50589(11)
H17 H 0.0104 1.1179 0.4573
S1 S 0.05121(6) 1.12283(3) 0.84443(2)
O1 O -0.10780(17) 1.06676(10) 0.89808(7)
O2 O 0.21994(17) 1.06575(10) 0.87640(8)
O3 O 0.04852(17) 1.24756(9) 0.82958(7)
C3A C -0.0345(2) 0.89604(14) 0.25518(10)
C4A C -0.0772(3) 0.80864(18) 0.32834(13)
H13A H -0.1147 0.7356 0.3271
C5A C -0.0645(4) 0.8296(2) 0.40477(13)
H14A H -0.0914 0.7683 0.4557
C6A C -0.0160(3) 0.93201(19) 0.41021(11)
C7A C 0.0268(3) 1.02099(18) 0.33507(12)
H15A H 0.0616 1.0941 0.3373
C8A C 0.0193(3) 1.00414(17) 0.25730(12)
H16A H 0.0500 1.0646 0.2064
C9A C -0.0066(3) 0.94931(19) 0.49411(11)
H17A H -0.0104 0.8821 0.5427
S1A S -0.05121(6) 0.87717(3) 0.15557(2)
O1A O 0.10780(17) 0.93324(10) 0.10192(7)
O2A O -0.21994(17) 0.93425(10) 0.12360(8)
O3A O -0.04852(17) 0.75244(9) 0.17042(7)
C10 C 1.5159(3) -0.24444(16) 0.78062(12)
C11 C 1.5565(6) -0.2785(2) 0.71074(15)
H18 H 1.5923 -0.3568 0.7164
C12 C 1.5446(6) -0.1952(3) 0.62987(17)
H19 H 1.5668 -0.2194 0.5812
C13 C 1.5021(3) -0.0818(2) 0.62006(14)
C14 C 1.4730(4) -0.0480(2) 0.69202(15)
H20 H 1.4516 0.0319 0.6864
C15 C 1.4747(4) -0.12899(18) 0.77161(14)
H21 H 1.4476 -0.1052 0.8202
C16 C 1.4967(4) 0.0119(2) 0.53690(14)
H22 H 1.4883 0.0907 0.5358
S2 S 1.51716(6) -0.34974(3) 0.88125(3)
O4 O 1.50521(17) -0.28603(11) 0.94227(7)
O5 O 1.35878(18) -0.42072(11) 0.89002(8)
O6 O 1.68927(18) -0.41593(11) 0.88215(9)
C10A C 1.4841(3) 0.24444(16) 0.21938(12)
C11A C 1.4435(6) 0.2785(2) 0.28926(15)
H18A H 1.4077 0.3568 0.2836
C12A C 1.4554(6) 0.1952(3) 0.37013(17)
H19A H 1.4332 0.2194 0.4188
C13A C 1.4979(3) 0.0818(2) 0.37994(14)
C14A C 1.5270(4) 0.0480(2) 0.30798(15)
H20A H 1.5484 -0.0319 0.3136
C15A C 1.5253(4) 0.12899(18) 0.22839(14)
H21A H 1.5524 0.1052 0.1798
C16A C 1.5033(4) -0.0119(2) 0.46310(14)
H22A H 1.5117 -0.0907 0.4642
S2A S 1.48284(6) 0.34974(3) 0.11875(3)
O4A O 1.49479(17) 0.28603(11) 0.05773(7)
O5A O 1.64122(18) 0.42072(11) 0.10998(8)
O6A O 1.31073(18) 0.41593(11) 0.11785(9)
O7 O 0.9347(9) 0.3710(4) 0.3751(3)
H23 H 1.0218 0.4056 0.3848
C17 C 0.9361(11) 0.3913(12) 0.2783(5)
H24 H 0.8110 0.3922 0.2625
H25 H 1.0070 0.3285 0.2643
H26 H 0.9913 0.4660 0.2473
C1 C 0.9940(2) 0.75828(13) 0.96002(10)
N1 N 0.9982(2) 0.64697(12) 0.96023(11)
H1 H 1.1031 0.6087 0.9603
H2 H 0.8962 0.6126 0.9603
N2 N 0.8359(2) 0.81446(12) 0.96031(9)
H3 H 0.8317 0.8870 0.9604
H4 H 0.7345 0.7794 0.9604
N3 N 1.1458(2) 0.81011(12) 0.95993(9)
H5 H 1.1423 0.8826 0.9601
H6 H 1.2510 0.7723 0.9597
O8? O 0.7176(6) 0.5456(4) 0.4269(3)
N7? N 0.5670(5) 0.5385(3) 0.4722(2)
C18? C 0.5846(5) 0.4297(4) 0.56471(18)
C19? C 0.4042(6) 0.4704(5) 0.6174(3)
C20? C 0.2376(8) 0.4978(5) 0.5730(3)
C21? C 0.2422(8) 0.6002(5) 0.5001(4)
C22? C 0.4294(7) 0.6639(5) 0.4473(4)
loop_
_geom_bond_atom_site_label_1
_geom_bond_atom_site_label_2
_geom_bond_site_symmetry_1
_geom_bond_site_symmetry_2
C1 N1 1_555 1_555
N1 H1 1_555 1_555
H2 N1 1_555 1_555
N2 C1 1_555 1_555
H3 N2 1_555 1_555
H4 N2 1_555 1_555
N3 C1 1_555 1_555
H5 N3 1_555 1_555
H6 N3 1_555 1_555
C2 N4 1_555 1_555
N4 H7 1_555 1_555
H8 N4 1_555 1_555
N5 C2 1_555 1_555
H9 N5 1_555 1_555
H10 N5 1_555 1_555
N6 C2 1_555 1_555
H11 N6 1_555 1_555
H12 N6 1_555 1_555
C3 C4 1_555 1_555
C4 H13 1_555 1_555
C5 C4 1_555 1_555
H14 C5 1_555 1_555
C6 C5 1_555 1_555
C7 C6 1_555 1_555
H15 C7 1_555 1_555
C8 C3 1_555 1_555
H16 C8 1_555 1_555
C9 C6 1_555 1_555
H17 C9 1_555 1_555
S1 C3 1_555 1_555
O1 S1 1_555 1_555
O2 S1 1_555 1_555
O3 S1 1_555 1_555
C10 C11 1_555 1_555
C11 H18 1_555 1_555
C12 C11 1_555 1_555
H19 C12 1_555 1_555
C13 C12 1_555 1_555
C14 C13 1_555 1_555
H20 C14 1_555 1_555
C15 C10 1_555 1_555
H21 C15 1_555 1_555
C16 C13 1_555 1_555
H22 C16 1_555 1_555
S2 C10 1_555 1_555
O4 S2 1_555 1_555
O5 S2 1_555 1_555
O6 S2 1_555 1_555
O7 H23 1_555 1_555
C17 O7 1_555 1_555
H24 C17 1_555 1_555
H25 C17 1_555 1_555
H26 C17 1_555 1_555
C3A C4A 1_555 1_555
C4A H13A 1_555 1_555
C5A C4A 1_555 1_555
H14A C5A 1_555 1_555
C6A C5A 1_555 1_555
C7A C6A 1_555 1_555
H15A C7A 1_555 1_555
C8A C3A 1_555 1_555
H16A C8A 1_555 1_555
C9A C9 1_555 1_555
H17A C9A 1_555 1_555
S1A C3A 1_555 1_555
O1A S1A 1_555 1_555
O2A S1A 1_555 1_555
O3A S1A 1_555 1_555
C10A C11A 1_555 1_555
C11A H18A 1_555 1_555
C12A C11A 1_555 1_555
H19A C12A 1_555 1_555
C13A C12A 1_555 1_555
C14A C13A 1_555 1_555
H20A C14A 1_555 1_555
C15A C10A 1_555 1_555
H21A C15A 1_555 1_555
C16A C16 1_555 1_555
H22A C16A 1_555 1_555
S2A C10A 1_555 1_555
O4A S2A 1_555 1_555
O5A S2A 1_555 1_555
O6A S2A 1_555 1_555
C7 C8 1_555 1_555
C14 C15 1_555 1_555
C6A C9A 1_555 1_555
C7A C8A 1_555 1_555
C13A C16A 1_555 1_555
C14A C15A 1_555 1_555

#END
