
#######################################################################
#
#                 Cambridge Crystallographic Data Centre
#                                CCDC 
#
#######################################################################
#
# If this CIF has been generated from an entry in the Cambridge 
# Structural Database, then it will include bibliographic, chemical, 
# crystal, experimental, refinement or atomic coordinate data resulting 
# from the CCDC's data processing and validation procedures.
#
#######################################################################

data_ELATUG01
_chemical_formula_moiety         'C3 H4 N2 S2'
_chemical_name_systematic        2-Mercapto-5-methyl-1,3,4-thiadiazole
_symmetry_cell_setting           orthorhombic
_symmetry_space_group_name_H-M   'P b c a'
_symmetry_Int_Tables_number      61
_space_group_name_Hall           '-P 2ac 2ab'
loop_
_symmetry_equiv_pos_site_id
_symmetry_equiv_pos_as_xyz
1 x,y,z
2 1/2-x,-y,1/2+z
3 -x,1/2+y,1/2-z
4 1/2+x,1/2-y,-z
5 -x,-y,-z
6 1/2+x,y,1/2-z
7 x,1/2-y,1/2+z
8 1/2-x,1/2+y,z
_cell_length_a                   10.3012(3)
_cell_length_b                   9.0738(3)
_cell_length_c                   11.6612(4)
_cell_angle_alpha                90
_cell_angle_beta                 90
_cell_angle_gamma                90
_cell_volume                     1089.98
_exptl_crystal_colour            colorless
_exptl_crystal_description       plate
_cell_formula_units_Z            8
loop_
_atom_site_label
_atom_site_type_symbol
_atom_site_fract_x
_atom_site_fract_y
_atom_site_fract_z
S1 S 0.61294(4) 0.23388(4) 0.59598(3)
S2 S 0.46079(4) 0.11870(4) 0.80232(4)
N1 N 0.58852(13) -0.03304(14) 0.63976(12)
H1 H 0.567(2) -0.118(2) 0.6697(18)
N2 N 0.66015(12) -0.03375(14) 0.54041(11)
C1 C 0.55097(14) 0.09643(16) 0.68392(14)
C2 C 0.68150(14) 0.09976(15) 0.50718(13)
C3 C 0.75593(16) 0.13658(17) 0.40150(14)
H2 H 0.7902 0.2370 0.4077
H3 H 0.6985 0.1299 0.3347
H4 H 0.8280 0.0671 0.3926
H5? H 0.7543 0.0523 0.3490
H6? H 0.8460 0.1594 0.4220
H7? H 0.7165 0.2223 0.3640
loop_
_geom_bond_atom_site_label_1
_geom_bond_atom_site_label_2
_geom_bond_site_symmetry_1
_geom_bond_site_symmetry_2
S1 C1 1_555 1_555
S2 C1 1_555 1_555
N1 H1 1_555 1_555
N2 N1 1_555 1_555
C1 N1 1_555 1_555
C2 S1 1_555 1_555
C3 C2 1_555 1_555
H2 C3 1_555 1_555
H3 C3 1_555 1_555
H4 C3 1_555 1_555
N2 C2 1_555 1_555

#END
