
#######################################################################
#
#                 Cambridge Crystallographic Data Centre
#                                CCDC 
#
#######################################################################
#
# If this CIF has been generated from an entry in the Cambridge 
# Structural Database, then it will include bibliographic, chemical, 
# crystal, experimental, refinement or atomic coordinate data resulting 
# from the CCDC's data processing and validation procedures.
#
#######################################################################

data_ELAWOF
_chemical_compound_source        'Streptomyces sp.'
_chemical_formula_moiety         'C14 H12 N4 O2'
_chemical_name_systematic        
5-methyl-2-(2-oxo-2-phenylethyl)[1,2,4]triazolo[1,5-a]pyrimidin-7(4H)-one
_symmetry_cell_setting           orthorhombic
_symmetry_space_group_name_H-M   'P c a 21'
_symmetry_Int_Tables_number      29
_space_group_name_Hall           'P 2c -2ac'
loop_
_symmetry_equiv_pos_site_id
_symmetry_equiv_pos_as_xyz
1 x,y,z
2 -x,-y,1/2+z
3 1/2-x,y,1/2+z
4 1/2+x,-y,z
_cell_length_a                   29.815(16)
_cell_length_b                   4.718(2)
_cell_length_c                   8.617(5)
_cell_angle_alpha                90
_cell_angle_beta                 90
_cell_angle_gamma                90
_cell_volume                     1212.13
_exptl_crystal_colour            colorless
_exptl_crystal_description       plate
_cell_formula_units_Z            4
_exptl_crystal_recrystallization_method dichloromethane/methanol/acetonitrile
loop_
_atom_site_label
_atom_site_type_symbol
_atom_site_fract_x
_atom_site_fract_y
_atom_site_fract_z
N1 N 0.65179(15) 0.4074(10) 0.7247(5)
N2 N 0.68204(15) 0.0799(9) 0.8938(5)
N3 N 0.75964(16) 0.2053(10) 0.8494(5)
H1 H 0.771(2) 0.028(12) 0.907(8)
N4 N 0.69800(15) 0.4293(9) 0.7282(5)
O1 O 0.70654(12) 0.7934(8) 0.5545(4)
O2 O 0.58643(13) 0.4759(8) 1.0260(5)
C1 C 0.64479(19) 0.1935(11) 0.8242(6)
C2 C 0.78828(19) 0.3731(11) 0.7665(5)
C3 C 0.83705(19) 0.3157(13) 0.7901(7)
H2 H 0.8444 0.3354 0.9004
H3 H 0.8547 0.4514 0.7296
H4 H 0.8440 0.1226 0.7558
C4 C 0.77169(19) 0.5757(11) 0.6666(6)
H5 H 0.7924 0.6919 0.6120
C5 C 0.72494(18) 0.6192(12) 0.6413(6)
C6 C 0.71468(17) 0.2285(10) 0.8296(6)
C7 C 0.59805(19) 0.0915(11) 0.8539(6)
H6 H 0.5997 -0.0933 0.9080
H7 H 0.5831 0.0590 0.7528
C8 C 0.56940(18) 0.2880(12) 0.9483(6)
C9 C 0.51930(17) 0.2474(12) 0.9483(7)
C10 C 0.4935(2) 0.4211(13) 1.0423(8)
H8 H 0.5075 0.5592 1.1062
C11 C 0.4470(2) 0.3931(14) 1.0432(8)
H9 H 0.4296 0.5143 1.1074
C12 C 0.4259(2) 0.1944(13) 0.9533(7)
H10 H 0.3942 0.1753 0.9568
C13 C 0.4515(2) 0.0198(14) 0.8563(7)
H11 H 0.4371 -0.1171 0.7925
C14 C 0.4977(2) 0.0470(13) 0.8537(7)
H12 H 0.5150 -0.0710 0.7874
loop_
_geom_bond_atom_site_label_1
_geom_bond_atom_site_label_2
_geom_bond_site_symmetry_1
_geom_bond_site_symmetry_2
N1 N4 1_555 1_555
N2 C1 1_555 1_555
N3 H1 1_555 1_555
N4 C5 1_555 1_555
O1 C5 1_555 1_555
O2 C8 1_555 1_555
C1 N1 1_555 1_555
C2 N3 1_555 1_555
C3 C2 1_555 1_555
H2 C3 1_555 1_555
H3 C3 1_555 1_555
H4 C3 1_555 1_555
C4 C2 1_555 1_555
H5 C4 1_555 1_555
C5 C4 1_555 1_555
C6 N2 1_555 1_555
C7 C1 1_555 1_555
H6 C7 1_555 1_555
H7 C7 1_555 1_555
C8 C7 1_555 1_555
C9 C8 1_555 1_555
C10 C9 1_555 1_555
H8 C10 1_555 1_555
C11 C10 1_555 1_555
H9 C11 1_555 1_555
C12 C11 1_555 1_555
H10 C12 1_555 1_555
C13 C12 1_555 1_555
H11 C13 1_555 1_555
C14 C9 1_555 1_555
H12 C14 1_555 1_555
N3 C6 1_555 1_555
N4 C6 1_555 1_555
C13 C14 1_555 1_555

#END
