
#######################################################################
#
#                 Cambridge Crystallographic Data Centre
#                                CCDC 
#
#######################################################################
#
# If this CIF has been generated from an entry in the Cambridge 
# Structural Database, then it will include bibliographic, chemical, 
# crystal, experimental, refinement or atomic coordinate data resulting 
# from the CCDC's data processing and validation procedures.
#
#######################################################################

data_ELAXUM
_chemical_compound_source        'Myrioneuron tonkinensis'
_chemical_name_common            'myritonine B'
_chemical_formula_moiety         'C20 H31 N3 O1'
_chemical_name_systematic        
hexadecahydro-1H,5H,8H,9H-7a,11c,13b-triazadibenzo[gh,pqr]tetraphen-8-one
_chemical_properties_biological  
'inhibition against the hepatitis C virus in vitro'
_symmetry_cell_setting           orthorhombic
_symmetry_space_group_name_H-M   'P 21 21 21'
_symmetry_Int_Tables_number      19
_space_group_name_Hall           'P 2ac 2ab'
loop_
_symmetry_equiv_pos_site_id
_symmetry_equiv_pos_as_xyz
1 x,y,z
2 1/2+x,1/2-y,-z
3 -x,1/2+y,1/2-z
4 1/2-x,-y,1/2+z
_cell_length_a                   5.3218(4)
_cell_length_b                   14.7425(8)
_cell_length_c                   21.8252(14)
_cell_angle_alpha                90
_cell_angle_beta                 90
_cell_angle_gamma                90
_cell_volume                     1712.33
_exptl_crystal_colour            colorless
_exptl_crystal_description       prism
_cell_formula_units_Z            4
loop_
_atom_site_label
_atom_site_type_symbol
_atom_site_fract_x
_atom_site_fract_y
_atom_site_fract_z
O1 O 0.8886(6) 0.37415(15) -0.03719(10)
N1 N 0.7030(7) 0.52980(19) 0.21501(12)
N2 N 0.9131(7) 0.53177(17) 0.11533(11)
N3 N 0.9947(7) 0.39118(19) 0.06259(11)
C1 C 0.5249(10) 0.4348(3) 0.32525(15)
H1 H 0.6761 0.4270 0.3511
H2 H 0.3800 0.4075 0.3469
C2 C 0.4766(9) 0.5355(2) 0.31438(15)
H3 H 0.3108 0.5435 0.2945
H4 H 0.4731 0.5677 0.3542
C3 C 0.6769(8) 0.5757(2) 0.27453(14)
H5 H 0.6377 0.6405 0.2673
H6 H 0.8395 0.5727 0.2965
C4 C 0.8956(8) 0.5724(2) 0.17630(14)
H7 H 1.0619 0.5649 0.1970
C5 C 0.6928(8) 0.5458(2) 0.07570(14)
H8 H 0.5459 0.5115 0.0924
C6 C 0.6258(8) 0.6465(2) 0.07010(14)
H9 H 0.7661 0.6775 0.0480
C7 C 0.3911(9) 0.6549(2) 0.03127(15)
H10 H 0.3465 0.7198 0.0270
H11 H 0.2501 0.6239 0.0522
C8 C 0.4268(9) 0.6137(2) -0.03249(15)
H12 H 0.5483 0.6508 -0.0559
H13 H 0.2646 0.6146 -0.0547
C9 C 0.5633(9) 0.3877(2) 0.26414(14)
H14 H 0.4030 0.3881 0.2411
H15 H 0.6099 0.3236 0.2716
C10 C 0.7665(8) 0.4323(2) 0.22523(14)
H16 H 0.9298 0.4288 0.2478
C11 C 0.7559(8) 0.5110(2) 0.01158(14)
H17 H 0.8794 0.5549 -0.0062
C12 C 0.5228(8) 0.5157(2) -0.02871(14)
H18 H 0.3900 0.4763 -0.0115
H19 H 0.5638 0.4935 -0.0703
C13 C 0.6019(9) 0.6897(2) 0.13348(14)
H20 H 0.5676 0.7554 0.1295
H21 H 0.4613 0.6615 0.1563
C14 C 0.8478(8) 0.6748(2) 0.16759(14)
H22 H 0.8401 0.7049 0.2081
H23 H 0.9880 0.7020 0.1441
C15 C 0.8806(8) 0.4191(2) 0.01002(14)
C16 C 0.9740(8) 0.4360(2) 0.12185(14)
H24 H 1.1440 0.4329 0.1413
C17 C 0.7956(8) 0.3843(2) 0.16372(14)
H25 H 0.6271 0.3819 0.1435
C18 C 0.8953(9) 0.2858(2) 0.17014(15)
H26 H 1.0568 0.2867 0.1926
H27 H 0.7741 0.2496 0.1943
C19 C 0.9340(9) 0.2411(2) 0.10802(15)
H28 H 1.0145 0.1812 0.1138
H29 H 0.7688 0.2312 0.0883
C20 C 1.0965(9) 0.2988(2) 0.06675(15)
H30 H 1.2697 0.3010 0.0832
H31 H 1.1032 0.2714 0.0254
loop_
_geom_bond_atom_site_label_1
_geom_bond_atom_site_label_2
_geom_bond_site_symmetry_1
_geom_bond_site_symmetry_2
O1 C15 1_555 1_555
N1 C3 1_555 1_555
N2 C4 1_555 1_555
N3 C15 1_555 1_555
C1 H1 1_555 1_555
H2 C1 1_555 1_555
C2 C1 1_555 1_555
H3 C2 1_555 1_555
H4 C2 1_555 1_555
C3 C2 1_555 1_555
H5 C3 1_555 1_555
H6 C3 1_555 1_555
C4 N1 1_555 1_555
H7 C4 1_555 1_555
C5 N2 1_555 1_555
H8 C5 1_555 1_555
C6 C5 1_555 1_555
H9 C6 1_555 1_555
C7 C6 1_555 1_555
H10 C7 1_555 1_555
H11 C7 1_555 1_555
C8 C7 1_555 1_555
H12 C8 1_555 1_555
H13 C8 1_555 1_555
C9 C1 1_555 1_555
H14 C9 1_555 1_555
H15 C9 1_555 1_555
C10 N1 1_555 1_555
H16 C10 1_555 1_555
C11 C5 1_555 1_555
H17 C11 1_555 1_555
C12 C8 1_555 1_555
H18 C12 1_555 1_555
H19 C12 1_555 1_555
C13 C6 1_555 1_555
H20 C13 1_555 1_555
H21 C13 1_555 1_555
C14 C4 1_555 1_555
H22 C14 1_555 1_555
H23 C14 1_555 1_555
C15 C11 1_555 1_555
C16 N2 1_555 1_555
H24 C16 1_555 1_555
C17 C10 1_555 1_555
H25 C17 1_555 1_555
C18 C17 1_555 1_555
H26 C18 1_555 1_555
H27 C18 1_555 1_555
C19 C18 1_555 1_555
H28 C19 1_555 1_555
H29 C19 1_555 1_555
C20 N3 1_555 1_555
H30 C20 1_555 1_555
H31 C20 1_555 1_555
N3 C16 1_555 1_555
C9 C10 1_555 1_555
C11 C12 1_555 1_555
C13 C14 1_555 1_555
C16 C17 1_555 1_555
C19 C20 1_555 1_555

#END
