
#######################################################################
#
#                 Cambridge Crystallographic Data Centre
#                                CCDC 
#
#######################################################################
#
# If this CIF has been generated from an entry in the Cambridge 
# Structural Database, then it will include bibliographic, chemical, 
# crystal, experimental, refinement or atomic coordinate data resulting 
# from the CCDC's data processing and validation procedures.
#
#######################################################################

data_ELAXAS
_chemical_compound_source        'Streptomyces sp.'
_chemical_formula_moiety         'C14 H12 N4 O2'
_chemical_name_systematic        
5-methyl-3-(2-oxo-2-phenylethyl)[1,2,4]triazolo[4,3-a]pyrimidin-7(8H)-one
_symmetry_cell_setting           monoclinic
_symmetry_space_group_name_H-M   'P 21/c'
_symmetry_Int_Tables_number      14
_space_group_name_Hall           '-P 2ybc'
loop_
_symmetry_equiv_pos_site_id
_symmetry_equiv_pos_as_xyz
1 x,y,z
2 -x,1/2+y,1/2-z
3 -x,-y,-z
4 x,1/2-y,1/2+z
_cell_length_a                   11.0776(12)
_cell_length_b                   15.1099(16)
_cell_length_c                   7.6255(8)
_cell_angle_alpha                90
_cell_angle_beta                 108.0000(10)
_cell_angle_gamma                90
_cell_volume                     1213.9
_exptl_crystal_colour            colorless
_exptl_crystal_description       rod
_cell_formula_units_Z            4
_exptl_crystal_recrystallization_method dichloromethane/Methanol
loop_
_atom_site_label
_atom_site_type_symbol
_atom_site_fract_x
_atom_site_fract_y
_atom_site_fract_z
N1 N 0.83255(7) 0.50267(5) 0.57497(10)
N2 N 0.84917(7) 0.53080(5) 0.29945(10)
N3 N 0.96607(7) 0.66506(5) 0.36533(10)
H1 H 1.0009(15) 0.7065(10) 0.449(2)
N4 N 0.89732(7) 0.58327(5) 0.58691(10)
O1 O 1.05479(6) 0.72199(4) 0.15985(9)
O2 O 0.55075(7) 0.46364(5) 0.20455(10)
C1 C 0.80492(8) 0.47219(5) 0.40677(11)
C2 C 0.85366(8) 0.53080(6) 0.11755(11)
C3 C 0.78644(9) 0.45950(6) -0.01080(13)
H2 H 0.7957 0.4696 -0.1329
H3 H 0.6962 0.4600 -0.0202
H4 H 0.8232 0.4020 0.0364
C4 C 0.91916(8) 0.59663(6) 0.06846(11)
H5 H 0.9266(12) 0.5982(9) -0.0555(19)
C5 C 0.98522(8) 0.66524(5) 0.19615(12)
C6 C 0.90554(8) 0.59694(5) 0.42171(11)
C7 C 0.74259(8) 0.38509(6) 0.35047(12)
H6 H 0.7459 0.3509 0.4626
H7 H 0.7911 0.3517 0.2828
C8 C 0.60448(8) 0.39222(6) 0.22903(12)
C9 C 0.53968(8) 0.30906(6) 0.14582(12)
C10 C 0.41913(9) 0.31536(7) 0.01492(14)
H8 H 0.3822 0.3718 -0.0217
C11 C 0.35368(9) 0.23926(7) -0.06126(15)
H9 H 0.2720 0.2437 -0.1499
C12 C 0.40757(9) 0.15644(7) -0.00804(14)
H10 H 0.3622 0.1044 -0.0595
C13 C 0.52765(9) 0.14964(6) 0.12030(14)
H11 H 0.5643 0.0930 0.1560
C14 C 0.59412(9) 0.22579(6) 0.19651(13)
H12 H 0.6766 0.2211 0.2831
loop_
_geom_bond_atom_site_label_1
_geom_bond_atom_site_label_2
_geom_bond_site_symmetry_1
_geom_bond_site_symmetry_2
N1 N4 1_555 1_555
N2 C1 1_555 1_555
N3 H1 1_555 1_555
N4 C6 1_555 1_555
O1 C5 1_555 1_555
O2 C8 1_555 1_555
C1 N1 1_555 1_555
C2 N2 1_555 1_555
C3 C2 1_555 1_555
H2 C3 1_555 1_555
H3 C3 1_555 1_555
H4 C3 1_555 1_555
C4 C2 1_555 1_555
H5 C4 1_555 1_555
C5 N3 1_555 1_555
C6 N2 1_555 1_555
C7 C1 1_555 1_555
H6 C7 1_555 1_555
H7 C7 1_555 1_555
C8 C7 1_555 1_555
C9 C8 1_555 1_555
C10 C9 1_555 1_555
H8 C10 1_555 1_555
C11 C10 1_555 1_555
H9 C11 1_555 1_555
C12 C11 1_555 1_555
H10 C12 1_555 1_555
C13 C12 1_555 1_555
H11 C13 1_555 1_555
C14 C9 1_555 1_555
H12 C14 1_555 1_555
N3 C6 1_555 1_555
C4 C5 1_555 1_555
C13 C14 1_555 1_555

#END
