
#######################################################################
#
#                 Cambridge Crystallographic Data Centre
#                                CCDC 
#
#######################################################################
#
# If this CIF has been generated from an entry in the Cambridge 
# Structural Database, then it will include bibliographic, chemical, 
# crystal, experimental, refinement or atomic coordinate data resulting 
# from the CCDC's data processing and validation procedures.
#
#######################################################################

data_ELAZEY
_chemical_formula_moiety         'C17 H13 Cl2 N3'
_chemical_name_systematic        
7-chloro-4-((3-chlorobenzylidene)hydrazono)-1-methyl-1,4-dihydroquinoline
_symmetry_cell_setting           monoclinic
_symmetry_space_group_name_H-M   'P 21/c'
_symmetry_Int_Tables_number      14
_space_group_name_Hall           '-P 2ybc'
loop_
_symmetry_equiv_pos_site_id
_symmetry_equiv_pos_as_xyz
1 x,y,z
2 -x,1/2+y,1/2-z
3 -x,-y,-z
4 x,1/2-y,1/2+z
_cell_length_a                   8.1250(4)
_cell_length_b                   24.6440(9)
_cell_length_c                   8.3220(4)
_cell_angle_alpha                90
_cell_angle_beta                 115.3270(10)
_cell_angle_gamma                90
_cell_volume                     1506.17
_exptl_crystal_colour            yellow
_exptl_crystal_description       'plate frag'
_cell_formula_units_Z            4
loop_
_atom_site_label
_atom_site_type_symbol
_atom_site_fract_x
_atom_site_fract_y
_atom_site_fract_z
Cl1 Cl -0.43915(5) -0.149357(14) 0.42844(5)
Cl2 Cl 0.54900(5) 0.204384(16) 0.01589(5)
N1 N 0.16994(17) -0.07460(5) 0.48575(16)
C1 C -0.12443(19) -0.10776(5) 0.45214(19)
H1 H -0.0678 -0.1344 0.5414
N2 N -0.08660(16) 0.04732(4) 0.11474(16)
C2 C -0.10533(18) -0.03115(5) 0.27380(18)
C3 C -0.01897(19) -0.07149(5) 0.40477(18)
N3 N 0.02980(17) 0.08244(4) 0.08197(16)
C4 C 0.00234(19) 0.00793(5) 0.22680(19)
C5 C -0.29654(19) -0.02950(5) 0.1910(2)
H2 H -0.3554 -0.0029 0.1020
C6 C -0.4020(2) -0.06542(6) 0.2350(2)
H3 H -0.5312 -0.0639 0.1776
C7 C -0.3116(2) -0.10393(5) 0.36667(19)
C8 C -0.05718(19) 0.11992(5) -0.03082(19)
H4 H -0.1863 0.1209 -0.0790
C9 C 0.19555(18) -0.00013(5) 0.3103(2)
H5 H 0.2724 0.0223 0.2792
C10 C 0.2285(2) 0.16204(5) -0.01720(19)
H6 H 0.2998 0.1359 0.0681
C11 C 0.3111(2) 0.20172(5) -0.0749(2)
C12 C -0.0639(2) 0.20003(6) -0.2124(2)
H7 H -0.1930 0.1998 -0.2589
C13 C 0.26921(19) -0.03988(6) 0.4341(2)
H8 H 0.3979 -0.0437 0.4880
C14 C 0.2115(2) 0.24025(6) -0.2018(2)
H9 H 0.2713 0.2667 -0.2410
C15 C 0.0386(2) 0.16099(5) -0.08629(19)
C16 C 0.0231(2) 0.23921(6) -0.2697(2)
H10 H -0.0471 0.2653 -0.3558
C17 C 0.2627(2) -0.11361(6) 0.6303(2)
H11 H 0.3948 -0.1091 0.6756
H12 H 0.2291 -0.1506 0.5852
H13 H 0.2261 -0.1071 0.7266
loop_
_geom_bond_atom_site_label_1
_geom_bond_atom_site_label_2
_geom_bond_site_symmetry_1
_geom_bond_site_symmetry_2
Cl1 C7 1_555 1_555
Cl2 C11 1_555 1_555
N1 C3 1_555 1_555
C1 H1 1_555 1_555
N2 N3 1_555 1_555
C2 C3 1_555 1_555
C3 C1 1_555 1_555
N3 C8 1_555 1_555
C4 N2 1_555 1_555
C5 C2 1_555 1_555
H2 C5 1_555 1_555
C6 C5 1_555 1_555
H3 C6 1_555 1_555
C7 C1 1_555 1_555
C8 H4 1_555 1_555
C9 C4 1_555 1_555
H5 C9 1_555 1_555
C10 H6 1_555 1_555
C11 C10 1_555 1_555
C12 H7 1_555 1_555
C13 N1 1_555 1_555
H8 C13 1_555 1_555
C14 C11 1_555 1_555
H9 C14 1_555 1_555
C15 C8 1_555 1_555
C16 C12 1_555 1_555
H10 C16 1_555 1_555
C17 N1 1_555 1_555
H11 C17 1_555 1_555
H12 C17 1_555 1_555
H13 C17 1_555 1_555
C2 C4 1_555 1_555
C6 C7 1_555 1_555
C9 C13 1_555 1_555
C10 C15 1_555 1_555
C12 C15 1_555 1_555
C14 C16 1_555 1_555

#END
