
#######################################################################
#
#                 Cambridge Crystallographic Data Centre
#                                CCDC 
#
#######################################################################
#
# If this CIF has been generated from an entry in the Cambridge 
# Structural Database, then it will include bibliographic, chemical, 
# crystal, experimental, refinement or atomic coordinate data resulting 
# from the CCDC's data processing and validation procedures.
#
#######################################################################

data_ELAZAU
_chemical_formula_moiety         'C17 H12 Cl3 N3'
_chemical_name_systematic        
7-chloro-4-((2,3-dichlorobenzylidene)hydrazono)-1-methyl-1,4-dihydroquinoline
_symmetry_cell_setting           triclinic
_symmetry_space_group_name_H-M   'P -1'
_symmetry_Int_Tables_number      2
_space_group_name_Hall           '-P 1'
loop_
_symmetry_equiv_pos_site_id
_symmetry_equiv_pos_as_xyz
1 x,y,z
2 -x,-y,-z
_cell_length_a                   8.1017(9)
_cell_length_b                   10.0084(9)
_cell_length_c                   10.7901(11)
_cell_angle_alpha                88.539(6)
_cell_angle_beta                 68.857(5)
_cell_angle_gamma                72.658(5)
_cell_volume                     775.613
_exptl_crystal_colour            orange
_exptl_crystal_description       BLOCK
_cell_formula_units_Z            2
loop_
_atom_site_label
_atom_site_type_symbol
_atom_site_fract_x
_atom_site_fract_y
_atom_site_fract_z
Cl1 Cl 0.58609(8) 1.18716(6) 0.50214(6)
Cl2 Cl 0.69170(9) 0.13121(7) 0.10990(7)
Cl3 Cl 0.76369(10) 1.41464(7) 0.53723(6)
N1 N 1.2335(3) 0.3216(2) 0.0404(2)
N2 N 0.8822(3) 0.7009(2) 0.2620(2)
N3 N 0.9744(3) 0.7958(2) 0.2702(2)
C1 C 1.3577(3) 0.1947(3) -0.0504(3)
H1 H 1.4848 0.2004 -0.0870
H2 H 1.3148 0.1881 -0.1234
H3 H 1.3560 0.1112 -0.0010
C2 C 1.3045(3) 0.4195(3) 0.0692(3)
H4 H 1.4358 0.3997 0.0342
C3 C 1.2075(4) 1.1041(3) 0.3161(3)
H5 H 1.3385 1.0862 0.2782
C4 C 1.0427(3) 0.3435(3) 0.0972(2)
C5 C 0.9996(3) 0.5784(3) 0.1979(2)
C6 C 1.1999(3) 0.5425(3) 0.1442(2)
H6 H 1.2581 0.6054 0.1617
C7 C 0.9396(3) 1.0245(3) 0.3533(2)
C8 C 0.9034(4) 1.2553(3) 0.4441(2)
C9 C 0.9235(3) 0.4710(3) 0.1767(2)
C10 C 1.1322(4) 1.0028(3) 0.2984(2)
H7 H 1.2125 0.9163 0.2479
C11 C 0.7814(3) 0.2621(3) 0.1347(2)
C12 C 0.8639(3) 0.9137(3) 0.3355(2)
H8 H 0.7333 0.9291 0.3720
C13 C 0.8255(3) 1.1542(3) 0.4280(2)
C14 C 0.6590(3) 0.3852(3) 0.2143(2)
H9 H 0.5292 0.3982 0.2540
C15 C 1.0940(4) 1.2322(3) 0.3890(3)
H10 H 1.1459 1.3022 0.4008
C16 C 0.9689(3) 0.2392(3) 0.0759(2)
H11 H 1.0480 0.1545 0.0216
C17 C 0.7319(3) 0.4868(3) 0.2334(2)
H12 H 0.6499 0.5711 0.2870
loop_
_geom_bond_atom_site_label_1
_geom_bond_atom_site_label_2
_geom_bond_site_symmetry_1
_geom_bond_site_symmetry_2
Cl1 C13 1_555 1_555
Cl2 C11 1_555 1_555
Cl3 C8 1_555 1_555
N1 C1 1_555 1_555
N2 N3 1_555 1_555
N3 C12 1_555 1_555
C1 H1 1_555 1_555
H2 C1 1_555 1_555
H3 C1 1_555 1_555
C2 N1 1_555 1_555
H4 C2 1_555 1_555
C3 H5 1_555 1_555
C4 N1 1_555 1_555
C5 N2 1_555 1_555
C6 C2 1_555 1_555
H6 C6 1_555 1_555
C7 C10 1_555 1_555
C8 C13 1_555 1_555
C9 C4 1_555 1_555
C10 C3 1_555 1_555
H7 C10 1_555 1_555
C11 C14 1_555 1_555
C12 C7 1_555 1_555
H8 C12 1_555 1_555
C13 C7 1_555 1_555
C14 H9 1_555 1_555
C15 C3 1_555 1_555
H10 C15 1_555 1_555
C16 C4 1_555 1_555
H11 C16 1_555 1_555
C17 C9 1_555 1_555
H12 C17 1_555 1_555
C5 C6 1_555 1_555
C5 C9 1_555 1_555
C8 C15 1_555 1_555
C11 C16 1_555 1_555
C14 C17 1_555 1_555

#END
