
#######################################################################
#
#                 Cambridge Crystallographic Data Centre
#                                CCDC 
#
#######################################################################
#
# If this CIF has been generated from an entry in the Cambridge 
# Structural Database, then it will include bibliographic, chemical, 
# crystal, experimental, refinement or atomic coordinate data resulting 
# from the CCDC's data processing and validation procedures.
#
#######################################################################

data_ELAZIC
_chemical_formula_moiety         'C17 H13 Cl1 F1 N3'
_chemical_name_systematic        
7-chloro-4-((4-fluorobenzylidene)hydrazono)-1-methyl-1,4-dihydroquinoline
_symmetry_cell_setting           triclinic
_symmetry_space_group_name_H-M   'P -1'
_symmetry_Int_Tables_number      2
_space_group_name_Hall           '-P 1'
loop_
_symmetry_equiv_pos_site_id
_symmetry_equiv_pos_as_xyz
1 x,y,z
2 -x,-y,-z
_cell_length_a                   8.433(12)
_cell_length_b                   8.579(7)
_cell_length_c                   10.432(7)
_cell_angle_alpha                99.3840(10)
_cell_angle_beta                 92.24(4)
_cell_angle_gamma                107.82(4)
_cell_volume                     705.708
_exptl_crystal_colour            orange
_exptl_crystal_description       Plate
_cell_formula_units_Z            2
loop_
_atom_site_label
_atom_site_type_symbol
_atom_site_fract_x
_atom_site_fract_y
_atom_site_fract_z
Cl1 Cl 0.28825(5) 1.12918(5) 0.94179(4)
F1 F 0.13852(12) 0.42566(12) -0.42347(9)
N1 N 0.52449(17) 0.77844(16) 0.60716(13)
N2 N 0.20664(17) 0.80872(16) 0.30354(13)
N3 N 0.22907(17) 0.72716(16) 0.18132(13)
C1 C 0.2973(2) 0.86775(19) 0.53131(15)
C2 C 0.5245(2) 0.69869(19) 0.48329(16)
H1 H 0.6028 0.6399 0.4678
C3 C 0.41026(19) 0.86359(18) 0.63333(15)
C4 C 0.4211(2) 0.69730(19) 0.38117(15)
H2 H 0.4258 0.6355 0.2979
C5 C 0.3039(2) 0.78823(19) 0.39681(15)
C6 C 0.1815(2) 0.9520(2) 0.56084(16)
H3 H 0.1048 0.9547 0.4927
C7 C 0.1751(2) 1.0313(2) 0.68548(16)
H4 H 0.0947 1.0869 0.7042
C8 C 0.2908(2) 1.02727(19) 0.78341(15)
C9 C 0.4061(2) 0.94570(19) 0.76054(15)
H5 H 0.4822 0.9446 0.8297
C10 C 0.1378(2) 0.74343(19) 0.08725(15)
H6 H 0.0656 0.8088 0.1046
C11 C 0.1424(2) 0.66311(19) -0.04704(15)
C12 C 0.0373(2) 0.6780(2) -0.14743(16)
H7 H -0.0344 0.7434 -0.1282
C13 C 0.0352(2) 0.5993(2) -0.27470(16)
H8 H -0.0361 0.6104 -0.3431
C14 C 0.1394(2) 0.5048(2) -0.29873(15)
C15 C 0.2458(2) 0.4858(2) -0.20308(16)
H9 H 0.3165 0.4195 -0.2234
C16 C 0.2468(2) 0.5661(2) -0.07646(16)
H10 H 0.3193 0.5551 -0.0089
C17 C 0.6469(2) 0.7774(2) 0.71023(16)
H11 H 0.7165 0.7112 0.6743
H12 H 0.5882 0.7285 0.7805
H13 H 0.7178 0.8919 0.7449
loop_
_geom_bond_atom_site_label_1
_geom_bond_atom_site_label_2
_geom_bond_site_symmetry_1
_geom_bond_site_symmetry_2
Cl1 C8 1_555 1_555
F1 C14 1_555 1_555
N1 C2 1_555 1_555
N2 N3 1_555 1_555
N3 C10 1_555 1_555
C1 C3 1_555 1_555
C2 H1 1_555 1_555
C3 N1 1_555 1_555
C4 C2 1_555 1_555
H2 C4 1_555 1_555
C5 N2 1_555 1_555
C6 C1 1_555 1_555
H3 C6 1_555 1_555
C7 C6 1_555 1_555
H4 C7 1_555 1_555
C8 C7 1_555 1_555
C9 C3 1_555 1_555
H5 C9 1_555 1_555
C10 H6 1_555 1_555
C11 C10 1_555 1_555
C12 C11 1_555 1_555
H7 C12 1_555 1_555
C13 C12 1_555 1_555
H8 C13 1_555 1_555
C14 C13 1_555 1_555
C15 C14 1_555 1_555
H9 C15 1_555 1_555
C16 C11 1_555 1_555
H10 C16 1_555 1_555
C17 N1 1_555 1_555
H11 C17 1_555 1_555
H12 C17 1_555 1_555
H13 C17 1_555 1_555
C1 C5 1_555 1_555
C4 C5 1_555 1_555
C8 C9 1_555 1_555
C15 C16 1_555 1_555

#END
