
#######################################################################
#
#                 Cambridge Crystallographic Data Centre
#                                CCDC 
#
#######################################################################
#
# If this CIF has been generated from an entry in the Cambridge 
# Structural Database, then it will include bibliographic, chemical, 
# crystal, experimental, refinement or atomic coordinate data resulting 
# from the CCDC's data processing and validation procedures.
#
#######################################################################

data_ELAZOI
_chemical_formula_moiety         'C17 H14 Cl1 N3'
_chemical_name_systematic        
4-(benzylidenehydrazono)-7-chloro-1-methyl-1,4-dihydroquinoline
_symmetry_cell_setting           orthorhombic
_symmetry_space_group_name_H-M   'P b c a'
_symmetry_Int_Tables_number      61
_space_group_name_Hall           '-P 2ac 2ab'
loop_
_symmetry_equiv_pos_site_id
_symmetry_equiv_pos_as_xyz
1 x,y,z
2 1/2-x,-y,1/2+z
3 -x,1/2+y,1/2-z
4 1/2+x,1/2-y,-z
5 -x,-y,-z
6 1/2+x,y,1/2-z
7 x,1/2-y,1/2+z
8 1/2-x,1/2+y,z
_cell_length_a                   7.4049(3)
_cell_length_b                   10.4399(4)
_cell_length_c                   36.9905(9)
_cell_angle_alpha                90
_cell_angle_beta                 90
_cell_angle_gamma                90
_cell_volume                     2859.6
_exptl_crystal_colour            orange
_exptl_crystal_description       'thick plate'
_cell_formula_units_Z            8
loop_
_atom_site_label
_atom_site_type_symbol
_atom_site_fract_x
_atom_site_fract_y
_atom_site_fract_z
Cl1 Cl 0.12064(5) 0.68181(3) 0.470639(8)
N1 N 0.02162(16) 1.11558(10) 0.64888(3)
C1 C 0.04342(17) 0.68178(11) 0.54164(3)
H1 H 0.0192 0.5930 0.5387
N2 N -0.04925(16) 0.67260(10) 0.60435(3)
N3 N 0.07370(16) 1.05949(10) 0.61628(3)
C2 C 0.05985(17) 0.87294(12) 0.57957(3)
C3 C 0.02461(18) 1.31362(11) 0.68209(3)
C4 C 0.12064(17) 0.94187(12) 0.54923(4)
H2 H 0.1473 1.0304 0.5517
C5 C 0.07387(18) 1.23281(12) 0.65131(3)
H3 H 0.1465 1.2679 0.6326
C6 C -0.0955(2) 0.53731(12) 0.60014(4)
H4 H -0.1422 0.5040 0.6231
H5 H 0.0125 0.4891 0.5932
H6 H -0.1879 0.5282 0.5813
C7 C -0.04878(18) 0.85979(12) 0.64222(3)
H7 H -0.0756 0.8966 0.6651
C8 C 0.01961(17) 0.74132(11) 0.57547(3)
C9 C 0.10244(17) 0.75446(12) 0.51295(3)
C10 C 0.14243(18) 0.88444(12) 0.51608(3)
H8 H 0.1837 0.9321 0.4958
C11 C 0.02941(17) 0.93744(11) 0.61429(3)
C12 C 0.08621(19) 1.44037(12) 0.68315(3)
H9 H 0.1630 1.4712 0.6645
C13 C -0.0746(2) 1.47728(13) 0.73869(4)
H10 H -0.1086 1.5327 0.7579
C14 C -0.08470(18) 0.73388(12) 0.63616(3)
H11 H -0.1376 0.6857 0.6552
C15 C 0.03615(19) 1.52154(12) 0.71122(4)
H12 H 0.0780 1.6076 0.7116
C16 C -0.08749(19) 1.26956(12) 0.71015(3)
H13 H -0.1298 1.1837 0.7099
C17 C -0.13642(19) 1.35036(13) 0.73806(4)
H14 H -0.2122 1.3198 0.7569
loop_
_geom_bond_atom_site_label_1
_geom_bond_atom_site_label_2
_geom_bond_site_symmetry_1
_geom_bond_site_symmetry_2
Cl1 C9 1_555 1_555
N1 N3 1_555 1_555
C1 H1 1_555 1_555
N2 C6 1_555 1_555
N3 C11 1_555 1_555
C2 C4 1_555 1_555
C3 C5 1_555 1_555
C4 H2 1_555 1_555
C5 N1 1_555 1_555
H3 C5 1_555 1_555
C6 H4 1_555 1_555
H5 C6 1_555 1_555
H6 C6 1_555 1_555
C7 H7 1_555 1_555
C8 C1 1_555 1_555
C9 C1 1_555 1_555
C10 C4 1_555 1_555
H8 C10 1_555 1_555
C11 C2 1_555 1_555
C12 C3 1_555 1_555
H9 C12 1_555 1_555
C13 H10 1_555 1_555
C14 N2 1_555 1_555
H11 C14 1_555 1_555
C15 C12 1_555 1_555
H12 C15 1_555 1_555
C16 C3 1_555 1_555
H13 C16 1_555 1_555
C17 C13 1_555 1_555
H14 C17 1_555 1_555
N2 C8 1_555 1_555
C2 C8 1_555 1_555
C7 C11 1_555 1_555
C7 C14 1_555 1_555
C9 C10 1_555 1_555
C13 C15 1_555 1_555
C16 C17 1_555 1_555

#END
