
#######################################################################
#
#                 Cambridge Crystallographic Data Centre
#                                CCDC 
#
#######################################################################
#
# If this CIF has been generated from an entry in the Cambridge 
# Structural Database, then it will include bibliographic, chemical, 
# crystal, experimental, refinement or atomic coordinate data resulting 
# from the CCDC's data processing and validation procedures.
#
#######################################################################

data_ELEFOS
_chemical_formula_moiety         'C37 H52 O6,2(H2 O1)'
_chemical_name_systematic        
'Benzyl 1\a,2\b,3\b-trihydroxy-11-oxo-18\b-olean-12-en-30-oate dihydrate'
_chemical_properties_biological  'tested for antibacterial activity'
_symmetry_cell_setting           monoclinic
_symmetry_space_group_name_H-M   'C 2'
_symmetry_Int_Tables_number      5
_space_group_name_Hall           'C 2y'
loop_
_symmetry_equiv_pos_site_id
_symmetry_equiv_pos_as_xyz
1 x,y,z
2 -x,y,-z
3 1/2+x,1/2+y,z
4 1/2-x,1/2+y,-z
_cell_length_a                   34.1981(12)
_cell_length_b                   6.6186(2)
_cell_length_c                   15.6744(6)
_cell_angle_alpha                90
_cell_angle_beta                 108.2830(10)
_cell_angle_gamma                90
_cell_volume                     3368.7
_exptl_crystal_colour            colorless
_exptl_crystal_description       prism
_chemical_melting_point          '89-91 deg.C'
_cell_formula_units_Z            4
_exptl_crystal_recrystallization_method ethanol
loop_
_atom_site_label
_atom_site_type_symbol
_atom_site_fract_x
_atom_site_fract_y
_atom_site_fract_z
O1 O -0.00189(6) 0.3395(3) 0.13979(11)
H1 H -0.0016 0.4471 0.1116
O2 O 0.16373(5) 0.1820(3) 1.08497(11)
O3 O 0.00969(5) 0.3784(3) 0.42253(11)
H2 H 0.0001 0.4652 0.3823
O4 O 0.00206(6) 0.0221(3) 0.24190(12)
H3 H -0.0052 -0.0669 0.2720
O5 O 0.05101(5) -0.0199(3) 0.55002(10)
O6 O 0.12130(7) 0.0402(3) 0.96124(12)
C1 C 0.01960(7) 0.3699(4) 0.23339(15)
H4 H 0.0117 0.5065 0.2498
C2 C 0.06687(7) 0.3684(4) 0.25498(15)
C3 C 0.08580(7) 0.3754(4) 0.35973(14)
H5 H 0.0751 0.5031 0.3783
C4 C 0.13271(7) 0.3979(4) 0.39250(15)
H6 H 0.1410 0.5013 0.3559
H7 H 0.1456 0.2681 0.3847
C5 C 0.14816(7) 0.4602(4) 0.49188(15)
H8 H 0.1366 0.5943 0.4984
H9 H 0.1785 0.4735 0.5109
C6 C 0.13638(7) 0.3085(4) 0.55454(15)
C7 C 0.14340(7) 0.4055(4) 0.65080(15)
C8 C 0.13133(7) 0.2497(4) 0.70947(15)
C9 C 0.15042(7) 0.2505(4) 0.81153(14)
H10 H 0.1495 0.1082 0.8322
C10 C 0.12308(7) 0.3771(4) 0.85319(14)
H11 H 0.1202 0.5150 0.8275
H12 H 0.0953 0.3160 0.8364
C11 C 0.14024(7) 0.3923(4) 0.95640(15)
C12 C 0.14020(7) 0.1845(4) 0.99747(16)
C13 C 0.16467(8) -0.0046(4) 1.13057(16)
H13 H 0.1785 -0.1088 1.1049
H14 H 0.1362 -0.0505 1.1229
C14 C 0.18772(7) 0.0232(4) 1.22916(16)
C15 C 0.18761(8) -0.1346(5) 1.28728(19)
H15 H 0.1739 -0.2573 1.2643
C16 C 0.20753(9) -0.1141(6) 1.3791(2)
H16 H 0.2069 -0.2220 1.4186
C17 C 0.22793(8) 0.0599(6) 1.41264(18)
H17 H 0.2417 0.0724 1.4753
C18 C 0.08172(8) 0.1922(4) 0.20898(16)
H18 H 0.0731 0.2151 0.1439
H19 H 0.0697 0.0655 0.2216
H20 H 0.1118 0.1837 0.2321
C19 C 0.07819(8) 0.5646(4) 0.21541(16)
H21 H 0.0616 0.5758 0.1520
H22 H 0.1075 0.5619 0.2203
H23 H 0.0727 0.6808 0.2487
C20 C 0.07207(7) 0.2040(4) 0.41244(14)
C21 C 0.08517(7) -0.0108(4) 0.39265(15)
H24 H 0.0644 -0.0658 0.3394
H25 H 0.0876 -0.0987 0.4443
H26 H 0.1118 -0.0036 0.3817
C22 C 0.02379(7) 0.2086(4) 0.38487(15)
H27 H 0.0145 0.0837 0.4089
C23 C 0.00221(7) 0.2152(4) 0.28302(15)
H28 H -0.0272 0.2527 0.2736
C24 C 0.08961(7) 0.2557(4) 0.51471(14)
H29 H 0.0751 0.3831 0.5214
C25 C 0.07815(7) 0.1055(4) 0.57684(15)
C26 C 0.10090(7) 0.1192(4) 0.67326(15)
H30 H 0.0934 0.0288 0.7126
C27 C 0.19622(7) 0.3143(4) 0.84210(15)
C28 C 0.20116(7) 0.5095(4) 0.79398(16)
H31 H 0.2303 0.5529 0.8159
H32 H 0.1843 0.6172 0.8088
C29 C 0.18804(7) 0.4825(4) 0.69156(15)
H33 H 0.2070 0.3856 0.6767
H34 H 0.1908 0.6137 0.6636
C30 C 0.11506(7) 0.5913(4) 0.64688(16)
H35 H 0.0869 0.5450 0.6393
H36 H 0.1151 0.6775 0.5961
H37 H 0.1253 0.6684 0.7029
C31 C 0.16352(7) 0.1198(4) 0.56137(15)
H38 H 0.1603 0.0681 0.5010
H39 H 0.1551 0.0156 0.5965
H40 H 0.1924 0.1556 0.5910
C32 C 0.22179(7) 0.1436(4) 0.81994(17)
H41 H 0.2109 0.1110 0.7558
H42 H 0.2203 0.0236 0.8555
H43 H 0.2505 0.1870 0.8344
C33 C 0.21168(7) 0.3461(4) 0.94526(16)
H44 H 0.2145 0.2123 0.9749
H45 H 0.2394 0.4080 0.9621
C34 C 0.18400(8) 0.4781(4) 0.98141(15)
H46 H 0.1830 0.6162 0.9566
H47 H 0.1957 0.4872 1.0476
C35 C 0.20815(8) 0.2004(5) 1.26341(17)
H48 H 0.2083 0.3100 1.2243
C36 C 0.22860(8) 0.2182(6) 1.35559(18)
H49 H 0.2430 0.3390 1.3790
C37 C 0.11168(9) 0.5270(4) 0.99074(17)
H50 H 0.0839 0.4691 0.9723
H51 H 0.1107 0.6629 0.9653
H52 H 0.1222 0.5348 1.0564
O7 O 0.47621(6) 0.2297(3) 0.33651(13)
O8 O 0.5000 0.0816(5) 0.0000
O9 O 0.4855(3) 0.339(2) 0.0132(4)
loop_
_geom_bond_atom_site_label_1
_geom_bond_atom_site_label_2
_geom_bond_site_symmetry_1
_geom_bond_site_symmetry_2
O1 H1 1_555 1_555
O2 C12 1_555 1_555
O3 H2 1_555 1_555
O4 H3 1_555 1_555
O5 C25 1_555 1_555
O6 C12 1_555 1_555
C1 O1 1_555 1_555
H4 C1 1_555 1_555
C2 C1 1_555 1_555
C3 C2 1_555 1_555
H5 C3 1_555 1_555
C4 C3 1_555 1_555
H6 C4 1_555 1_555
H7 C4 1_555 1_555
C5 C4 1_555 1_555
H8 C5 1_555 1_555
H9 C5 1_555 1_555
C6 C5 1_555 1_555
C7 C6 1_555 1_555
C8 C7 1_555 1_555
C9 C8 1_555 1_555
H10 C9 1_555 1_555
C10 C9 1_555 1_555
H11 C10 1_555 1_555
H12 C10 1_555 1_555
C11 C10 1_555 1_555
C12 C11 1_555 1_555
C13 O2 1_555 1_555
H13 C13 1_555 1_555
H14 C13 1_555 1_555
C14 C13 1_555 1_555
C15 C14 1_555 1_555
H15 C15 1_555 1_555
C16 C15 1_555 1_555
H16 C16 1_555 1_555
C17 C16 1_555 1_555
H17 C17 1_555 1_555
C18 C2 1_555 1_555
H18 C18 1_555 1_555
H19 C18 1_555 1_555
H20 C18 1_555 1_555
C19 C2 1_555 1_555
H21 C19 1_555 1_555
H22 C19 1_555 1_555
H23 C19 1_555 1_555
C20 C3 1_555 1_555
C21 C20 1_555 1_555
H24 C21 1_555 1_555
H25 C21 1_555 1_555
H26 C21 1_555 1_555
C22 O3 1_555 1_555
H27 C22 1_555 1_555
C23 O4 1_555 1_555
H28 C23 1_555 1_555
C24 C6 1_555 1_555
H29 C24 1_555 1_555
C25 C24 1_555 1_555
C26 C8 1_555 1_555
H30 C26 1_555 1_555
C27 C9 1_555 1_555
C28 C27 1_555 1_555
H31 C28 1_555 1_555
H32 C28 1_555 1_555
C29 C7 1_555 1_555
H33 C29 1_555 1_555
H34 C29 1_555 1_555
C30 C7 1_555 1_555
H35 C30 1_555 1_555
H36 C30 1_555 1_555
H37 C30 1_555 1_555
C31 C6 1_555 1_555
H38 C31 1_555 1_555
H39 C31 1_555 1_555
H40 C31 1_555 1_555
C32 C27 1_555 1_555
H41 C32 1_555 1_555
H42 C32 1_555 1_555
H43 C32 1_555 1_555
C33 C27 1_555 1_555
H44 C33 1_555 1_555
H45 C33 1_555 1_555
C34 C11 1_555 1_555
H46 C34 1_555 1_555
H47 C34 1_555 1_555
C35 C14 1_555 1_555
H48 C35 1_555 1_555
C36 C17 1_555 1_555
H49 C36 1_555 1_555
C37 C11 1_555 1_555
H50 C37 1_555 1_555
H51 C37 1_555 1_555
H52 C37 1_555 1_555
C1 C23 1_555 1_555
C20 C22 1_555 1_555
C20 C24 1_555 1_555
C22 C23 1_555 1_555
C25 C26 1_555 1_555
C28 C29 1_555 1_555
C33 C34 1_555 1_555
C35 C36 1_555 1_555

#END
