
#######################################################################
#
#                 Cambridge Crystallographic Data Centre
#                                CCDC 
#
#######################################################################
#
# If this CIF has been generated from an entry in the Cambridge 
# Structural Database, then it will include bibliographic, chemical, 
# crystal, experimental, refinement or atomic coordinate data resulting 
# from the CCDC's data processing and validation procedures.
#
#######################################################################

data_ELEHIN
_chemical_name_common            
5,8-Dibromo-14,15,17,18-tetrafluoro-2,11-dithia(3.3)paracyclophane
_chemical_formula_moiety         'C16 H10 Br2 F4 S2'
_chemical_name_systematic        
13,15-Dibromo-6,7,17,18-tetrafluoro-3,10-dithiatricyclo[10.2.2.2^5,8^]octadeca-1(14),5,7,12,15,17-hexaene
_symmetry_cell_setting           orthorhombic
_symmetry_space_group_name_H-M   'F d d 2'
_symmetry_Int_Tables_number      43
_space_group_name_Hall           'F 2 -2d'
loop_
_symmetry_equiv_pos_site_id
_symmetry_equiv_pos_as_xyz
1 x,y,z
2 -x,-y,z
3 1/4+x,1/4-y,1/4+z
4 1/4-x,1/4+y,1/4+z
5 x,1/2+y,1/2+z
6 -x,1/2-y,1/2+z
7 1/4+x,3/4-y,3/4+z
8 1/4-x,3/4+y,3/4+z
9 1/2+x,y,1/2+z
10 1/2-x,-y,1/2+z
11 3/4+x,1/4-y,3/4+z
12 3/4-x,1/4+y,3/4+z
13 1/2+x,1/2+y,z
14 1/2-x,1/2-y,z
15 3/4+x,3/4-y,1/4+z
16 3/4-x,3/4+y,1/4+z
_cell_length_a                   25.726(2)
_cell_length_b                   28.737(3)
_cell_length_c                   9.0939(8)
_cell_angle_alpha                90
_cell_angle_beta                 90
_cell_angle_gamma                90
_cell_volume                     6723.01
_exptl_crystal_colour            colorless
_exptl_crystal_description       plate
_cell_formula_units_Z            16
_exptl_crystal_recrystallization_method dichloromethane/n-hexane
loop_
_atom_site_label
_atom_site_type_symbol
_atom_site_fract_x
_atom_site_fract_y
_atom_site_fract_z
Br1 Br 0.35835(5) 0.04240(3) 1.18538(13)
Br2 Br 0.41562(5) 0.16708(4) 0.60783(13)
C1 C 0.2528(3) 0.1424(3) 0.9115(14)
C2 C 0.2496(3) 0.0940(3) 0.9178(12)
C3 C 0.2606(3) 0.0662(3) 0.7995(11)
C4 C 0.2750(3) 0.0838(3) 0.6662(11)
C5 C 0.2746(3) 0.1322(3) 0.6563(11)
C6 C 0.2651(4) 0.1608(2) 0.7738(15)
C7 C 0.2445(5) 0.1704(4) 1.0457(18)
H1 H 0.2312 0.1502 1.1225
H2 H 0.2180 0.1936 1.0254
C8 C 0.3473(5) 0.1528(3) 1.1554(11)
H3 H 0.3762 0.1652 1.2114
H4 H 0.3295 0.1303 1.2172
C9 C 0.3684(3) 0.1278(2) 1.0224(10)
C10 C 0.3720(3) 0.0797(3) 1.0182(10)
C11 C 0.3849(3) 0.0576(2) 0.8886(10)
H5 H 0.3868 0.0253 0.8886
C12 C 0.3951(3) 0.0809(3) 0.7586(11)
C13 C 0.3977(3) 0.1290(3) 0.7707(10)
C14 C 0.3835(3) 0.1521(3) 0.8994(10)
H6 H 0.3842 0.1844 0.9020
C15 C 0.4000(4) 0.0559(3) 0.6120(12)
H7 H 0.4327 0.0392 0.6099
H8 H 0.4007 0.0788 0.5337
C16 C 0.2920(4) 0.0527(4) 0.5436(11)
H9 H 0.3000 0.0720 0.4591
H10 H 0.2629 0.0330 0.5168
F1 F 0.2380(3) 0.0727(2) 1.0502(8)
F2 F 0.2587(3) 0.01988(17) 0.8184(8)
F3 F 0.2869(3) 0.1517(2) 0.5228(9)
F4 F 0.2661(3) 0.2058(2) 0.7526(13)
S1 S 0.34756(10) 0.01541(7) 0.5781(3)
S2 S 0.30279(11) 0.19993(7) 1.1141(4)
loop_
_geom_bond_atom_site_label_1
_geom_bond_atom_site_label_2
_geom_bond_site_symmetry_1
_geom_bond_site_symmetry_2
Br1 C10 1_555 1_555
Br2 C13 1_555 1_555
C1 C2 1_555 1_555
C2 C3 1_555 1_555
C3 C4 1_555 1_555
C4 C5 1_555 1_555
C5 C6 1_555 1_555
C6 C1 1_555 1_555
C7 C1 1_555 1_555
H1 C7 1_555 1_555
H2 C7 1_555 1_555
C8 H3 1_555 1_555
H4 C8 1_555 1_555
C9 C8 1_555 1_555
C10 C9 1_555 1_555
C11 C10 1_555 1_555
H5 C11 1_555 1_555
C12 C11 1_555 1_555
C13 C12 1_555 1_555
C14 C9 1_555 1_555
H6 C14 1_555 1_555
C15 C12 1_555 1_555
H7 C15 1_555 1_555
H8 C15 1_555 1_555
C16 C4 1_555 1_555
H9 C16 1_555 1_555
H10 C16 1_555 1_555
F1 C2 1_555 1_555
F2 C3 1_555 1_555
F3 C5 1_555 1_555
F4 C6 1_555 1_555
S1 C15 1_555 1_555
S2 C7 1_555 1_555
C8 S2 1_555 1_555
C13 C14 1_555 1_555
C16 S1 1_555 1_555

#END
