
#######################################################################
#
#                 Cambridge Crystallographic Data Centre
#                                CCDC 
#
#######################################################################
#
# If this CIF has been generated from an entry in the Cambridge 
# Structural Database, then it will include bibliographic, chemical, 
# crystal, experimental, refinement or atomic coordinate data resulting 
# from the CCDC's data processing and validation procedures.
#
#######################################################################

data_ELELOY
_chemical_compound_source        'Zephyranthes candida'
_chemical_formula_moiety         'C23 H30 N2 O4'
_chemical_name_systematic        N-Isopentyl-5,6-dihydroplicane
_chemical_properties_biological  'tested for anti-inflammatory activity'
_symmetry_cell_setting           monoclinic
_symmetry_space_group_name_H-M   'P 21'
_symmetry_Int_Tables_number      4
_space_group_name_Hall           'P 2yb'
loop_
_symmetry_equiv_pos_site_id
_symmetry_equiv_pos_as_xyz
1 x,y,z
2 -x,1/2+y,-z
_cell_length_a                   9.6195(2)
_cell_length_b                   11.6392(2)
_cell_length_c                   9.64410(10)
_cell_angle_alpha                90
_cell_angle_beta                 94.2290(10)
_cell_angle_gamma                90
_cell_volume                     1076.85
_exptl_crystal_colour            colorless
_exptl_crystal_description       block
_cell_formula_units_Z            2
loop_
_atom_site_label
_atom_site_type_symbol
_atom_site_fract_x
_atom_site_fract_y
_atom_site_fract_z
O1 O 0.74079(19) 0.8882(2) 0.27422(18)
C1 C 0.6803(2) 0.9067(2) 0.0257(2)
H1 H 0.7521 0.9350 -0.0239
C2 C 0.5519(2) 0.9371(2) -0.0111(2)
H2 H 0.5369 0.9828 -0.0899
C3 C 0.4494(2) 1.0796(2) 0.2152(2)
H3 H 0.5408 1.0579 0.2409
O2 O 0.4565(2) 1.25365(17) 0.3610(2)
O3 O 0.2295(2) 1.31109(18) 0.2961(2)
C4 C 0.1744(3) 1.1482(2) 0.1377(3)
H4 H 0.0838 1.1719 0.1119
C5 C 0.1392(2) 0.9792(3) -0.0220(3)
H5 H 0.0794 0.9278 0.0258
H6 H 0.0802 1.0311 -0.0787
O4 O 0.1419(2) 0.7017(2) 0.0498(3)
C6 C 0.2793(5) 0.9890(5) -0.4643(6)
H7 H 0.3377 1.0506 -0.4915
H8 H 0.2354 0.9531 -0.5458
H9 H 0.3348 0.9334 -0.4116
C7 C 0.7146(2) 0.8274(3) 0.1458(3)
H10 H 0.7970 0.7819 0.1275
C8 C 0.4261(2) 0.9037(2) 0.0648(2)
C9 C 0.3176(2) 0.8367(2) -0.0296(2)
H11 H 0.3681 0.7906 -0.0945
N1 N 0.2244(2) 0.91303(19) -0.11044(19)
C10 C 0.3637(2) 1.01309(19) 0.1221(2)
C11 C 0.3933(3) 1.1772(2) 0.2666(2)
C12 C 0.2584(3) 1.2104(2) 0.2291(2)
C13 C 0.2287(2) 1.0475(2) 0.0836(2)
C14 C 0.2517(3) 0.7543(2) 0.0707(3)
N2 N 0.3373(2) 0.74826(19) 0.1873(2)
C15 C 0.4619(2) 0.8184(2) 0.1860(2)
H12 H 0.4752 0.8610 0.2736
C16 C 0.8610(5) 0.9550(5) 0.2774(4)
H13 H 0.8492 1.0148 0.2089
H14 H 0.9388 0.9077 0.2575
H15 H 0.8780 0.9887 0.3679
C17 C 0.1454(3) 0.8561(3) -0.2286(3)
H16 H 0.0748 0.8066 -0.1935
H17 H 0.2082 0.8084 -0.2778
C18 C 0.0755(3) 0.9435(3) -0.3293(3)
H18 H 0.0345 0.9028 -0.4100
H19 H 0.0002 0.9803 -0.2844
C19 C 0.1707(3) 1.0352(3) -0.3777(3)
H20 H 0.2194 1.0684 -0.2943
C20 C 0.0921(5) 1.1302(4) -0.4506(4)
H21 H 0.0189 1.1555 -0.3953
H22 H 0.0524 1.1034 -0.5390
H23 H 0.1541 1.1930 -0.4646
C21 C 0.3528(4) 1.3410(3) 0.3758(3)
H24 H 0.3339 1.3483 0.4728
H25 H 0.3869 1.4143 0.3446
C22 C 0.5926(3) 0.7470(2) 0.1648(3)
H26 H 0.6138 0.6979 0.2449
H27 H 0.5764 0.6985 0.0834
C23 C 0.3103(4) 0.6740(3) 0.3033(4)
H28 H 0.2197 0.6398 0.2872
H29 H 0.3137 0.7184 0.3874
H30 H 0.3797 0.6146 0.3121
loop_
_geom_bond_atom_site_label_1
_geom_bond_atom_site_label_2
_geom_bond_site_symmetry_1
_geom_bond_site_symmetry_2
O1 C7 1_555 1_555
C1 H1 1_555 1_555
C2 C1 1_555 1_555
H2 C2 1_555 1_555
C3 H3 1_555 1_555
O2 C11 1_555 1_555
O3 C12 1_555 1_555
C4 H4 1_555 1_555
C5 H5 1_555 1_555
H6 C5 1_555 1_555
O4 C14 1_555 1_555
C6 H7 1_555 1_555
H8 C6 1_555 1_555
H9 C6 1_555 1_555
C7 C1 1_555 1_555
H10 C7 1_555 1_555
C8 C2 1_555 1_555
C9 C8 1_555 1_555
H11 C9 1_555 1_555
N1 C5 1_555 1_555
C10 C3 1_555 1_555
C11 C3 1_555 1_555
C12 C4 1_555 1_555
C13 C4 1_555 1_555
C14 C9 1_555 1_555
N2 C14 1_555 1_555
C15 C8 1_555 1_555
H12 C15 1_555 1_555
C16 O1 1_555 1_555
H13 C16 1_555 1_555
H14 C16 1_555 1_555
H15 C16 1_555 1_555
C17 N1 1_555 1_555
H16 C17 1_555 1_555
H17 C17 1_555 1_555
C18 C17 1_555 1_555
H18 C18 1_555 1_555
H19 C18 1_555 1_555
C19 C6 1_555 1_555
H20 C19 1_555 1_555
C20 C19 1_555 1_555
H21 C20 1_555 1_555
H22 C20 1_555 1_555
H23 C20 1_555 1_555
C21 O2 1_555 1_555
H24 C21 1_555 1_555
H25 C21 1_555 1_555
C22 C7 1_555 1_555
H26 C22 1_555 1_555
H27 C22 1_555 1_555
C23 N2 1_555 1_555
H28 C23 1_555 1_555
H29 C23 1_555 1_555
H30 C23 1_555 1_555
O3 C21 1_555 1_555
C5 C13 1_555 1_555
C8 C10 1_555 1_555
C9 N1 1_555 1_555
C10 C13 1_555 1_555
C11 C12 1_555 1_555
N2 C15 1_555 1_555
C15 C22 1_555 1_555
C18 C19 1_555 1_555

#END
