
#######################################################################
#
#                 Cambridge Crystallographic Data Centre
#                                CCDC 
#
#######################################################################
#
# If this CIF has been generated from an entry in the Cambridge 
# Structural Database, then it will include bibliographic, chemical, 
# crystal, experimental, refinement or atomic coordinate data resulting 
# from the CCDC's data processing and validation procedures.
#
#######################################################################

data_ELELEO
_chemical_compound_source        'Zephyranthes candida'
_chemical_formula_moiety         'C17 H23 N1 O4,C1 H4 O1'
_chemical_name_systematic        '11\b-Hydroxylycoramine methanol solvate'
_chemical_properties_biological  'tested for anti-inflammatory activity'
_symmetry_cell_setting           orthorhombic
_symmetry_space_group_name_H-M   'P 21 21 21'
_symmetry_Int_Tables_number      19
_space_group_name_Hall           'P 2ac 2ab'
loop_
_symmetry_equiv_pos_site_id
_symmetry_equiv_pos_as_xyz
1 x,y,z
2 1/2+x,1/2-y,-z
3 -x,1/2+y,1/2-z
4 1/2-x,-y,1/2+z
_cell_length_a                   7.9947(2)
_cell_length_b                   8.6002(2)
_cell_length_c                   24.7362(5)
_cell_angle_alpha                90
_cell_angle_beta                 90
_cell_angle_gamma                90
_cell_volume                     1700.76
_exptl_crystal_colour            colorless
_exptl_crystal_description       block
_cell_formula_units_Z            4
loop_
_atom_site_label
_atom_site_type_symbol
_atom_site_fract_x
_atom_site_fract_y
_atom_site_fract_z
C1 C 0.6552(3) 0.8891(3) 0.10459(9)
H1 H 0.7058 0.9708 0.1261
H2 H 0.5657 0.9356 0.0836
C2 C 0.7876(3) 0.8243(3) 0.06549(10)
H3 H 0.7697 0.8724 0.0301
C3 C 0.7735(3) 0.6497(3) 0.05870(10)
H4 H 0.8305 0.5982 0.0883
H5 H 0.8275 0.6187 0.0253
C4 C 0.5915(3) 0.5993(3) 0.05763(9)
H6 H 0.5849 0.4905 0.0474
H7 H 0.5317 0.6594 0.0307
C5 C 0.5072(3) 0.6225(3) 0.11380(9)
C6 C 0.3161(3) 0.6377(3) 0.10871(10)
H8 H 0.2690 0.6555 0.1448
C7 C 0.2310(3) 0.4958(3) 0.08387(10)
H9 H 0.1175 0.5255 0.0745
H10 H 0.2883 0.4719 0.0503
C8 C 0.3828(3) 0.2694(3) 0.12025(10)
H11 H 0.4317 0.2617 0.0844
H12 H 0.3603 0.1644 0.1326
C9 C 0.5110(3) 0.3408(3) 0.15754(10)
C10 C 0.5878(3) 0.2535(3) 0.19766(10)
H13 H 0.5557 0.1504 0.2022
C11 C 0.7107(3) 0.3143(3) 0.23137(10)
H14 H 0.7615 0.2508 0.2570
C12 C 0.7582(3) 0.4690(3) 0.22704(10)
C13 C 0.6768(3) 0.5601(3) 0.18773(10)
C14 C 0.5590(3) 0.4970(3) 0.15298(9)
C15 C 0.5809(3) 0.7694(3) 0.14218(9)
H15 H 0.4921 0.8188 0.1634
C16 C 0.1404(4) 0.3740(4) 0.16811(12)
H16 H 0.2109 0.4358 0.1910
H17 H 0.1217 0.2745 0.1846
H18 H 0.0352 0.4259 0.1631
C17 C 0.9567(4) 0.4534(4) 0.29876(11)
H19 H 0.8735 0.4230 0.3247
H20 H 1.0403 0.5156 0.3163
H21 H 1.0079 0.3622 0.2837
N1 N 0.2218(3) 0.3523(3) 0.11557(9)
O1 O 0.9538(2) 0.8604(2) 0.08255(7)
H22 H 0.9722 0.9531 0.0775
O2 O 0.2835(2) 0.7704(2) 0.07618(7)
H23 H 0.1828 0.7886 0.0762
O3 O 0.7101(2) 0.7122(2) 0.17940(7)
O4 O 0.8793(2) 0.5420(2) 0.25635(7)
C18 C 0.8557(4) 0.2515(3) 0.05207(12)
H24 H 0.8232 0.2909 0.0868
H25 H 0.7689 0.1855 0.0382
H26 H 0.8735 0.3367 0.0277
O5 O 1.0068(3) 0.1642(2) 0.05732(9)
H27 H 1.0747 0.2142 0.0751
loop_
_geom_bond_atom_site_label_1
_geom_bond_atom_site_label_2
_geom_bond_site_symmetry_1
_geom_bond_site_symmetry_2
C1 H1 1_555 1_555
H2 C1 1_555 1_555
C2 C1 1_555 1_555
H3 C2 1_555 1_555
C3 C2 1_555 1_555
H4 C3 1_555 1_555
H5 C3 1_555 1_555
C4 C3 1_555 1_555
H6 C4 1_555 1_555
H7 C4 1_555 1_555
C5 C4 1_555 1_555
C6 C5 1_555 1_555
H8 C6 1_555 1_555
C7 C6 1_555 1_555
H9 C7 1_555 1_555
H10 C7 1_555 1_555
C8 H11 1_555 1_555
H12 C8 1_555 1_555
C9 C8 1_555 1_555
C10 C9 1_555 1_555
H13 C10 1_555 1_555
C11 C10 1_555 1_555
H14 C11 1_555 1_555
C12 C11 1_555 1_555
C13 C12 1_555 1_555
C14 C5 1_555 1_555
C15 C1 1_555 1_555
H15 C15 1_555 1_555
C16 H16 1_555 1_555
H17 C16 1_555 1_555
H18 C16 1_555 1_555
C17 H19 1_555 1_555
H20 C17 1_555 1_555
H21 C17 1_555 1_555
N1 C7 1_555 1_555
O1 C2 1_555 1_555
H22 O1 1_555 1_555
O2 C6 1_555 1_555
H23 O2 1_555 1_555
O3 C13 1_555 1_555
O4 C12 1_555 1_555
C18 H24 1_555 1_555
H25 C18 1_555 1_555
H26 C18 1_555 1_555
O5 C18 1_555 1_555
H27 O5 1_555 1_555
C5 C15 1_555 1_555
C8 N1 1_555 1_555
C9 C14 1_555 1_555
C13 C14 1_555 1_555
C15 O3 1_555 1_555
C16 N1 1_555 1_555
C17 O4 1_555 1_555

#END
