
#######################################################################
#
#                 Cambridge Crystallographic Data Centre
#                                CCDC 
#
#######################################################################
#
# If this CIF has been generated from an entry in the Cambridge 
# Structural Database, then it will include bibliographic, chemical, 
# crystal, experimental, refinement or atomic coordinate data resulting 
# from the CCDC's data processing and validation procedures.
#
#######################################################################

data_ELEWAV
_chemical_formula_moiety         'C31 H40 N4 O2'
_chemical_name_systematic        
2,2'-((2,4,6-trimethyl-1,3-phenylene)bis(nitrilomethylylidene))bis(5-(diethylamino)phenol)
_symmetry_cell_setting           orthorhombic
_symmetry_space_group_name_H-M   'F d d 2'
_symmetry_Int_Tables_number      43
_space_group_name_Hall           'F 2 -2d'
loop_
_symmetry_equiv_pos_site_id
_symmetry_equiv_pos_as_xyz
1 x,y,z
2 -x,-y,z
3 1/4+x,1/4-y,1/4+z
4 1/4-x,1/4+y,1/4+z
5 x,1/2+y,1/2+z
6 -x,1/2-y,1/2+z
7 1/4+x,3/4-y,3/4+z
8 1/4-x,3/4+y,3/4+z
9 1/2+x,y,1/2+z
10 1/2-x,-y,1/2+z
11 3/4+x,1/4-y,3/4+z
12 3/4-x,1/4+y,3/4+z
13 1/2+x,1/2+y,z
14 1/2-x,1/2-y,z
15 3/4+x,3/4-y,1/4+z
16 3/4-x,3/4+y,1/4+z
_cell_length_a                   20.763(3)
_cell_length_b                   31.748(5)
_cell_length_c                   8.6715(12)
_cell_angle_alpha                90
_cell_angle_beta                 90
_cell_angle_gamma                90
_cell_volume                     5716.11
_exptl_crystal_colour            black
_exptl_crystal_description       block
_cell_formula_units_Z            8
loop_
_atom_site_label
_atom_site_type_symbol
_atom_site_fract_x
_atom_site_fract_y
_atom_site_fract_z
O1 O 0.83047(16) 0.61085(12) 0.6205(4)
N1 N 0.7598(2) 0.67392(17) 0.5323(5)
C1 C 0.75126(18) 0.71271(15) 0.4527(8)
N2 N 0.7300(2) 0.48374(19) 0.7696(5)
C2 C 0.7500 0.7500 0.5365(8)
C3 C 0.7114(3) 0.6519(2) 0.5687(5)
C4 C 0.6620(3) 0.5853(2) 0.6653(5)
C5 C 0.6732(3) 0.45645(16) 0.7878(6)
H1 H 0.6391 0.4724 0.8373
H2 H 0.6842 0.4331 0.8551
C6 C 0.7154(3) 0.61028(19) 0.6336(5)
C7 C 0.75122(18) 0.71192(14) 0.2934(8)
C8 C 0.7749(3) 0.5902(2) 0.6526(6)
C9 C 0.7267(3) 0.5249(2) 0.7266(5)
C10 C 0.7917(4) 0.46242(19) 0.7847(8)
C11 C 0.7500 0.7500 0.7089(9)
C12 C 0.7804(3) 0.5490(2) 0.6961(6)
H3 H 0.8211 0.5370 0.7053
C13 C 0.6653(3) 0.5444(2) 0.7109(5)
H4 H 0.6279 0.5293 0.7315
C14 C 0.7500 0.7500 0.2183(8)
H5 H 0.7500 0.7500 0.1111
C15 C 0.8199(2) 0.44783(15) 0.6345(7)
H6 H 0.8605 0.4343 0.6533
H7 H 0.8262 0.4716 0.5678
H8 H 0.7910 0.4282 0.5864
C16 C 0.7528(2) 0.67048(17) 0.2060(6)
H9 H 0.7540 0.6475 0.2780
H10 H 0.7905 0.6696 0.1419
H11 H 0.7150 0.6682 0.1428
C17 C 0.6485(2) 0.43930(15) 0.6387(7)
H12 H 0.6111 0.4223 0.6577
H13 H 0.6813 0.4224 0.5910
H14 H 0.6373 0.4622 0.5715
H15 H 0.6215(19) 0.5981(11) 0.656(4)
H16 H 0.6694(19) 0.6626(11) 0.549(4)
H17 H 0.816(2) 0.6397(16) 0.570(5)
H18 H 0.825(2) 0.4786(17) 0.828(6)
H19 H 0.7850(18) 0.4366(13) 0.849(5)
O1M O 0.66953(16) 0.88915(12) 0.6205(4)
N1M N 0.7402(2) 0.82608(17) 0.5323(5)
C1M C 0.74874(18) 0.78729(15) 0.4527(8)
N2M N 0.7700(2) 1.01626(19) 0.7696(5)
C3M C 0.7886(3) 0.8481(2) 0.5687(5)
C4M C 0.8380(3) 0.9147(2) 0.6653(5)
C5M C 0.8268(3) 1.04355(16) 0.7878(6)
H1M H 0.8609 1.0276 0.8373
H2M H 0.8158 1.0669 0.8551
C6M C 0.7846(3) 0.88972(19) 0.6336(5)
C7M C 0.74878(18) 0.78808(14) 0.2934(8)
C8M C 0.7251(3) 0.9098(2) 0.6526(6)
C9M C 0.7733(3) 0.9751(2) 0.7266(5)
C10M C 0.7083(4) 1.03758(19) 0.7847(8)
C12M C 0.7196(3) 0.9510(2) 0.6961(6)
H3M H 0.6789 0.9630 0.7053
C13M C 0.8347(3) 0.9556(2) 0.7109(5)
H4M H 0.8721 0.9707 0.7315
C15M C 0.6801(2) 1.05217(15) 0.6345(7)
H6M H 0.6395 1.0657 0.6533
H7M H 0.6738 1.0284 0.5678
H8M H 0.7090 1.0718 0.5864
C16M C 0.7472(2) 0.82952(17) 0.2060(6)
H9M H 0.7460 0.8525 0.2780
H10M H 0.7095 0.8304 0.1419
H11M H 0.7850 0.8318 0.1428
C17M C 0.8515(2) 1.06070(15) 0.6387(7)
H12M H 0.8889 1.0777 0.6577
H13M H 0.8187 1.0776 0.5910
H14M H 0.8627 1.0378 0.5715
H15M H 0.8785(19) 0.9019(11) 0.656(4)
H16M H 0.8306(19) 0.8374(11) 0.549(4)
H17M H 0.684(2) 0.8603(16) 0.570(5)
H18M H 0.675(2) 1.0214(17) 0.828(6)
H19M H 0.7150(18) 1.0634(13) 0.849(5)
H20? H 0.7509 0.7215 0.7458
H21? H 0.7118 0.7638 0.7458
H22? H 0.7873 0.7648 0.7458
loop_
_geom_bond_atom_site_label_1
_geom_bond_atom_site_label_2
_geom_bond_site_symmetry_1
_geom_bond_site_symmetry_2
O1 C8 1_555 1_555
N1 C1 1_555 1_555
C1 C2 1_555 1_555
N2 C5 1_555 1_555
C2 C11 1_555 1_555
C3 N1 1_555 1_555
C4 C6 1_555 1_555
C5 H1 1_555 1_555
H2 C5 1_555 1_555
C6 C3 1_555 1_555
C7 C1 1_555 1_555
C8 C6 1_555 1_555
C9 N2 1_555 1_555
C10 N2 1_555 1_555
C12 C8 1_555 1_555
H3 C12 1_555 1_555
C13 C4 1_555 1_555
H4 C13 1_555 1_555
C14 C7 1_555 1_555
H5 C14 1_555 1_555
C15 C10 1_555 1_555
H6 C15 1_555 1_555
H7 C15 1_555 1_555
H8 C15 1_555 1_555
C16 C7 1_555 1_555
H9 C16 1_555 1_555
H10 C16 1_555 1_555
H11 C16 1_555 1_555
C17 C5 1_555 1_555
H12 C17 1_555 1_555
H13 C17 1_555 1_555
H14 C17 1_555 1_555
H15 C4 1_555 1_555
H16 C3 1_555 1_555
H17 O1 1_555 1_555
H18 C10 1_555 1_555
H19 C10 1_555 1_555
O1M C8M 1_555 1_555
N1M C1M 1_555 1_555
C1M C2 1_555 1_555
N2M C5M 1_555 1_555
C3M N1M 1_555 1_555
C4M C6M 1_555 1_555
C5M H1M 1_555 1_555
H2M C5M 1_555 1_555
C6M C3M 1_555 1_555
C7M C14 1_555 1_555
C8M C6M 1_555 1_555
C9M N2M 1_555 1_555
C10M N2M 1_555 1_555
C12M C8M 1_555 1_555
H3M C12M 1_555 1_555
C13M C4M 1_555 1_555
H4M C13M 1_555 1_555
C15M C10M 1_555 1_555
H6M C15M 1_555 1_555
H7M C15M 1_555 1_555
H8M C15M 1_555 1_555
C16M C7M 1_555 1_555
H9M C16M 1_555 1_555
H10M C16M 1_555 1_555
H11M C16M 1_555 1_555
C17M C5M 1_555 1_555
H12M C17M 1_555 1_555
H13M C17M 1_555 1_555
H14M C17M 1_555 1_555
H15M C4M 1_555 1_555
H16M C3M 1_555 1_555
H17M O1M 1_555 1_555
H18M C10M 1_555 1_555
H19M C10M 1_555 1_555
C9 C12 1_555 1_555
C9 C13 1_555 1_555
C1M C7M 1_555 1_555
C9M C12M 1_555 1_555
C9M C13M 1_555 1_555

#END
