
#######################################################################
#
#                 Cambridge Crystallographic Data Centre
#                                CCDC 
#
#######################################################################
#
# If this CIF has been generated from an entry in the Cambridge 
# Structural Database, then it will include bibliographic, chemical, 
# crystal, experimental, refinement or atomic coordinate data resulting 
# from the CCDC's data processing and validation procedures.
#
#######################################################################

data_ELEWIB
_chemical_formula_moiety         'C15 H10 N2 O5 S1'
_chemical_name_systematic        '8-Quinolyl 3-nitrobenzenesulfonate'
_symmetry_cell_setting           monoclinic
_symmetry_space_group_name_H-M   'P 21/c'
_symmetry_Int_Tables_number      14
_space_group_name_Hall           '-P 2ybc'
loop_
_symmetry_equiv_pos_site_id
_symmetry_equiv_pos_as_xyz
1 x,y,z
2 x,1/2-y,1/2+z
3 -x,-y,-z
4 -x,1/2+y,1/2-z
_cell_length_a                   8.6001(6)
_cell_length_b                   23.0681(16)
_cell_length_c                   13.9192(9)
_cell_angle_alpha                90
_cell_angle_beta                 100.132(2)
_cell_angle_gamma                90
_cell_volume                     2718.34
_exptl_crystal_colour            colorless
_exptl_crystal_description       block
_chemical_melting_point          429-431K
_cell_formula_units_Z            8
_exptl_crystal_recrystallization_method 'ethyl acetate'
loop_
_atom_site_label
_atom_site_type_symbol
_atom_site_fract_x
_atom_site_fract_y
_atom_site_fract_z
C1 C 0.8324(2) 0.51014(9) 0.90468(13)
C2 C 0.8705(2) 0.45883(9) 0.86385(14)
H1 H 0.842(2) 0.4228(9) 0.8887(13)
C3 C 0.9590(2) 0.46250(8) 0.78987(13)
C4 C 1.0103(2) 0.51547(9) 0.75948(14)
H2 H 1.074(2) 0.5176(8) 0.7093(14)
C5 C 0.9710(2) 0.56585(9) 0.80393(15)
H3 H 1.007(2) 0.6027(9) 0.7842(14)
C6 C 0.8800(2) 0.56381(9) 0.87640(15)
H4 H 0.849(2) 0.5988(9) 0.9076(14)
C7 C 1.1130(2) 0.30928(8) 0.83009(13)
C8 C 1.1749(2) 0.27127(9) 0.77273(14)
H5 H 1.225(2) 0.2844(8) 0.7211(14)
C9 C 1.1678(2) 0.21149(9) 0.79134(15)
H6 H 1.209(2) 0.1853(9) 0.7486(14)
C10 C 1.0995(2) 0.19208(9) 0.86662(14)
H7 H 1.097(2) 0.1512(9) 0.8802(14)
C11 C 1.0341(2) 0.23112(8) 0.92675(13)
C12 C 0.9632(2) 0.21327(9) 1.00636(14)
H8 H 0.962(2) 0.1735(9) 1.0228(14)
C13 C 0.9016(2) 0.25390(9) 1.05974(14)
H9 H 0.852(2) 0.2427(8) 1.1148(15)
C14 C 0.9088(2) 0.31264(9) 1.03393(14)
H10 H 0.862(2) 0.3419(9) 1.0721(14)
C15 C 1.0388(2) 0.29166(8) 0.90828(13)
S1 S 0.99733(6) 0.39803(2) 0.73114(3)
N1 N 0.7359(2) 0.50669(8) 0.98294(12)
N2 N 0.97490(19) 0.33219(7) 0.96164(11)
O1 O 0.69341(19) 0.55219(7) 1.01525(11)
O2 O 0.7048(2) 0.45857(7) 1.01087(11)
O3 O 0.86002(15) 0.36216(5) 0.71618(9)
O4 O 1.07176(16) 0.41200(6) 0.65044(9)
O5 O 1.12583(15) 0.36961(5) 0.81393(9)
C16 C 0.5212(2) 0.75457(9) 0.52266(13)
C17 C 0.4825(2) 0.70577(9) 0.57011(14)
H11 H 0.508(2) 0.6677(9) 0.5512(13)
C18 C 0.4096(2) 0.71392(8) 0.65044(13)
C19 C 0.3763(2) 0.76901(9) 0.68144(14)
H12 H 0.325(2) 0.7731(8) 0.7342(15)
C20 C 0.4171(2) 0.81680(9) 0.63120(15)
H13 H 0.395(2) 0.8548(9) 0.6522(14)
C21 C 0.4916(2) 0.81022(9) 0.55136(15)
H14 H 0.516(2) 0.8424(9) 0.5159(14)
C22 C 0.5123(2) 0.55864(8) 0.72292(14)
C23 C 0.4424(2) 0.52216(9) 0.77916(14)
H15 H 0.386(2) 0.5382(8) 0.8298(14)
C24 C 0.4464(2) 0.46202(9) 0.76322(15)
H16 H 0.394(2) 0.4369(9) 0.8024(14)
C25 C 0.5221(2) 0.43991(9) 0.69351(15)
H17 H 0.524(2) 0.3995(9) 0.6817(14)
C26 C 0.5992(2) 0.47709(8) 0.63620(13)
C27 C 0.6815(2) 0.45716(9) 0.56300(14)
H18 H 0.682(2) 0.4165(9) 0.5523(14)
C28 C 0.7513(2) 0.49593(9) 0.51009(14)
H19 H 0.804(2) 0.4846(9) 0.4623(15)
C29 C 0.7367(2) 0.55531(9) 0.52844(14)
H20 H 0.779(2) 0.5827(9) 0.4876(14)
C30 C 0.5937(2) 0.53792(8) 0.64962(13)
S2 S 0.34832(6) 0.65290(2) 0.70999(4)
N3 N 0.5998(2) 0.74681(8) 0.43752(12)
N4 N 0.66102(18) 0.57689(7) 0.59520(11)
O6 O 0.65727(17) 0.78946(6) 0.40500(10)
O7 O 0.60271(19) 0.69770(6) 0.40374(10)
O8 O 0.24357(15) 0.61813(6) 0.64254(10)
O9 O 0.30028(17) 0.67150(6) 0.79759(10)
O10 O 0.51163(14) 0.61914(5) 0.73848(9)
loop_
_geom_bond_atom_site_label_1
_geom_bond_atom_site_label_2
_geom_bond_site_symmetry_1
_geom_bond_site_symmetry_2
C1 C2 1_555 1_555
C2 H1 1_555 1_555
C3 C2 1_555 1_555
C4 C3 1_555 1_555
H2 C4 1_555 1_555
C5 C4 1_555 1_555
H3 C5 1_555 1_555
C6 C1 1_555 1_555
H4 C6 1_555 1_555
C7 C8 1_555 1_555
C8 H5 1_555 1_555
C9 C8 1_555 1_555
H6 C9 1_555 1_555
C10 C9 1_555 1_555
H7 C10 1_555 1_555
C11 C10 1_555 1_555
C12 C11 1_555 1_555
H8 C12 1_555 1_555
C13 C12 1_555 1_555
H9 C13 1_555 1_555
C14 C13 1_555 1_555
H10 C14 1_555 1_555
C15 C7 1_555 1_555
S1 C3 1_555 1_555
N1 C1 1_555 1_555
N2 C14 1_555 1_555
O1 N1 1_555 1_555
O2 N1 1_555 1_555
O3 S1 1_555 1_555
O4 S1 1_555 1_555
O5 C7 1_555 1_555
C16 C17 1_555 1_555
C17 H11 1_555 1_555
C18 C17 1_555 1_555
C19 C18 1_555 1_555
H12 C19 1_555 1_555
C20 C19 1_555 1_555
H13 C20 1_555 1_555
C21 C16 1_555 1_555
H14 C21 1_555 1_555
C22 C23 1_555 1_555
C23 H15 1_555 1_555
C24 C23 1_555 1_555
H16 C24 1_555 1_555
C25 C24 1_555 1_555
H17 C25 1_555 1_555
C26 C25 1_555 1_555
C27 C26 1_555 1_555
H18 C27 1_555 1_555
C28 C27 1_555 1_555
H19 C28 1_555 1_555
C29 C28 1_555 1_555
H20 C29 1_555 1_555
C30 C22 1_555 1_555
S2 C18 1_555 1_555
N3 C16 1_555 1_555
N4 C29 1_555 1_555
O6 N3 1_555 1_555
O7 N3 1_555 1_555
O8 S2 1_555 1_555
O9 S2 1_555 1_555
O10 C22 1_555 1_555
C5 C6 1_555 1_555
C11 C15 1_555 1_555
C15 N2 1_555 1_555
S1 O5 1_555 1_555
C20 C21 1_555 1_555
C26 C30 1_555 1_555
C30 N4 1_555 1_555
S2 O10 1_555 1_555

#END
