
#######################################################################
#
#                 Cambridge Crystallographic Data Centre
#                                CCDC 
#
#######################################################################
#
# If this CIF has been generated from an entry in the Cambridge 
# Structural Database, then it will include bibliographic, chemical, 
# crystal, experimental, refinement or atomic coordinate data resulting 
# from the CCDC's data processing and validation procedures.
#
#######################################################################

data_ELICUZ
_chemical_formula_moiety         'C32 H12 B1 F24 1-,C16 H17 F2 S1 1+,C1 H2 Cl2'
_chemical_name_systematic        
'(Difluoromethyl)(mesityl)phenylsulfonium tetrakis(3,5-bis(trifluoromethyl)phenyl)borate dichloromethane solvate'
_symmetry_cell_setting           triclinic
_symmetry_space_group_name_H-M   'P -1'
_symmetry_Int_Tables_number      2
_space_group_name_Hall           '-P 1'
loop_
_symmetry_equiv_pos_site_id
_symmetry_equiv_pos_as_xyz
1 x,y,z
2 -x,-y,-z
_cell_length_a                   12.690(3)
_cell_length_b                   12.842(3)
_cell_length_c                   17.467(4)
_cell_angle_alpha                86.163(4)
_cell_angle_beta                 80.586(4)
_cell_angle_gamma                70.463(4)
_cell_volume                     2646.27
_exptl_crystal_colour            colorless
_exptl_crystal_description       prism
_cell_formula_units_Z            2
loop_
_atom_site_label
_atom_site_type_symbol
_atom_site_fract_x
_atom_site_fract_y
_atom_site_fract_z
Cl1 Cl 0.38841(17) 0.05165(17) 0.31131(12)
Cl2 Cl 0.4354(2) 0.1870(2) 0.41472(15)
C1 C 0.3735(7) 0.1019(10) 0.4013(4)
H1 H 0.2932 0.1373 0.4182
H2 H 0.3987 0.0392 0.4358
C2 C 0.6498(2) 0.4102(2) 0.25704(15)
C3 C 0.6774(3) 0.2960(2) 0.24980(18)
C4 C 0.6002(3) 0.2595(3) 0.2230(2)
H3 H 0.6164 0.1839 0.2177
C5 C 0.5001(3) 0.3302(4) 0.2038(2)
C6 C 0.4759(3) 0.4409(4) 0.2123(2)
H4 H 0.4076 0.4885 0.1998
C7 C 0.5474(3) 0.4855(3) 0.23852(17)
C8 C 0.5140(3) 0.6095(3) 0.2468(2)
H5 H 0.4574 0.6459 0.2147
H6 H 0.5792 0.6322 0.2311
H7 H 0.4842 0.629 0.3
C9 C 0.7868(3) 0.2130(3) 0.2698(3)
H8 H 0.7834 0.1396 0.2682
H9 H 0.7969 0.2271 0.3209
H10 H 0.8491 0.2197 0.2328
C10 C 0.4197(4) 0.2840(6) 0.1721(3)
H11 H 0.4625 0.2167 0.1451
H12 H 0.3787 0.3369 0.137
H13 H 0.3675 0.2695 0.2143
C11 C 0.6821(5) 0.5530(3) 0.36825(19)
H14 H 0.6487 0.6273 0.3471
C12 C 0.8091(2) 0.5284(2) 0.21596(16)
C13 C 0.7845(3) 0.5334(3) 0.14226(17)
H15 H 0.7335 0.5011 0.1307
C14 C 0.8365(3) 0.5871(3) 0.0854(2)
H16 H 0.8218 0.5897 0.0347
C15 C 0.9094(3) 0.6365(3) 0.1027(2)
H17 H 0.9432 0.6736 0.0641
C16 C 0.9326(3) 0.6314(3) 0.1762(3)
H18 H 0.9821 0.6656 0.1877
C17 C 0.8840(3) 0.5766(3) 0.2341(2)
H19 H 0.9012 0.5721 0.2843
F1 F 0.7624(3) 0.5484(2) 0.40979(14)
F2 F 0.6068(3) 0.5179(2) 0.41167(12)
S1 S 0.75482(7) 0.44900(5) 0.28992(4)
C18 C 0.22033(17) -0.15720(17) 0.16664(11)
C19 C 0.32089(18) -0.13209(18) 0.15215(13)
H20 H 0.3291 -0.0788 0.1821
C20 C 0.40850(19) -0.1838(2) 0.09482(14)
C21 C 0.3998(2) -0.2642(2) 0.05032(15)
H21 H 0.4589 -0.2997 0.0121
C22 C 0.3025(2) -0.2909(2) 0.06328(14)
C23 C 0.2147(2) -0.23816(19) 0.12007(13)
H22 H 0.1493 -0.2575 0.1274
C24 C 0.5142(2) -0.1520(3) 0.0840(2)
C25 C 0.2894(4) -0.3774(3) 0.0158(2)
F3 F 0.5790(7) -0.1956(9) 0.1361(7)
F4 F 0.5748(7) -0.1704(11) 0.0178(5)
F5 F 0.4926(4) -0.0433(3) 0.0930(6)
F6 F 0.3669(12) -0.4112(18) -0.0418(8)
F7 F 0.291(3) -0.4659(11) 0.0580(7)
F8 F 0.1956(10) -0.3439(10) -0.0128(12)
C26 C 0.16989(18) -0.19357(17) 0.31150(11)
C27 C 0.23865(18) -0.17790(19) 0.36091(12)
H23 H 0.2545 -0.112 0.3578
C28 C 0.2844(2) -0.2580(2) 0.41486(13)
C29 C 0.2644(2) -0.3574(2) 0.42104(13)
H24 H 0.2953 -0.4109 0.4571
C30 C 0.1976(2) -0.37554(19) 0.37243(14)
C31 C 0.1523(2) -0.29565(18) 0.31886(13)
H25 H 0.1082 -0.3106 0.2863
C32 C 0.3559(3) -0.2325(3) 0.46670(18)
C33 C 0.1713(4) -0.4812(3) 0.3781(2)
F9 F 0.3834(8) -0.3067(5) 0.5221(4)
F10 F 0.3069(4) -0.1375(6) 0.5017(4)
F11 F 0.4513(4) -0.2250(5) 0.4264(3)
F12 F 0.216(2) -0.5426(13) 0.3175(10)
F13 F 0.0562(10) -0.4626(8) 0.3794(13)
F14 F 0.1857(17) -0.5367(11) 0.4408(6)
C34 C -0.00195(17) -0.10128(16) 0.22774(12)
C35 C -0.08163(18) -0.12013(18) 0.28740(13)
H26 H -0.0609 -0.1406 0.3363
C36 C -0.1898(2) -0.1094(2) 0.27634(15)
C37 C -0.2251(2) -0.0764(2) 0.20526(16)
H27 H -0.2982 -0.0691 0.1978
C38 C -0.1492(2) -0.0545(2) 0.14557(15)
C39 C -0.04033(19) -0.06727(18) 0.15690(13)
H28 H 0.0093 -0.0526 0.1156
C40 C -0.2695(3) -0.1334(3) 0.3429(2)
C41 C -0.1852(3) -0.0165(3) 0.0678(2)
F15 F -0.2199(8) -0.2016(18) 0.3956(9)
F16 F -0.3327(17) -0.0456(16) 0.3769(14)
F17 F -0.3360(11) -0.1797(9) 0.3191(8)
F18 F -0.1106(11) -0.0777(9) 0.0102(3)
F19 F -0.1766(14) 0.0798(7) 0.0466(7)
F20 F -0.2782(10) -0.020(2) 0.0569(6)
C42 C 0.11089(17) 0.02104(17) 0.25890(12)
C43 C 0.07354(18) 0.06601(19) 0.33287(13)
H29 H 0.06 0.0206 0.3744
C44 C 0.0559(2) 0.1760(2) 0.34663(14)
C45 C 0.0736(2) 0.2469(2) 0.28656(16)
H30 H 0.0631 0.3204 0.2959
C46 C 0.10721(18) 0.20561(18) 0.21242(14)
C47 C 0.12548(17) 0.09523(17) 0.19927(13)
H31 H 0.1484 0.0696 0.1487
C48 C 0.0154(4) 0.2200(3) 0.4269(2)
C49 C 0.1202(2) 0.2800(2) 0.14522(18)
F21 F -0.0726(12) 0.3095(11) 0.4312(4)
F22 F 0.0931(8) 0.2498(16) 0.4533(5)
F23 F -0.0109(18) 0.1544(7) 0.4785(4)
F24 F 0.1278(2) 0.37502(15) 0.16532(13)
F25 F 0.0334(2) 0.3076(2) 0.10665(15)
F26 F 0.20956(18) 0.23723(16) 0.09422(12)
B1 B 0.1243(2) -0.10688(19) 0.24141(13)
F27? F 0.6008(5) -0.2545(10) 0.0617(13)
F28? F 0.5207(12) -0.104(2) 0.0190(14)
F29? F 0.5391(19) -0.131(3) 0.1395(10)
F30? F 0.3806(14) -0.4568(14) -0.0044(18)
F31? F 0.2160(17) -0.4212(18) 0.0451(11)
F32? F 0.264(3) -0.3355(11) -0.0528(8)
F33? F 0.325(2) -0.251(4) 0.5386(9)
F34? F 0.342(5) -0.134(2) 0.471(2)
F35? F 0.4535(17) -0.301(5) 0.462(2)
F36? F 0.157(2) -0.5113(12) 0.3168(8)
F37? F 0.2616(16) -0.5653(5) 0.3978(15)
F38? F 0.091(2) -0.4785(12) 0.4283(13)
F39? F -0.3621(19) -0.140(3) 0.3250(11)
F40? F -0.301(2) -0.0609(17) 0.3983(12)
F41? F -0.2239(12) -0.2271(8) 0.3769(9)
F42? F -0.1273(18) 0.027(3) 0.0270(12)
F43? F -0.201(3) -0.0955(9) 0.0347(10)
F44? F -0.2905(12) 0.0570(14) 0.0778(6)
F45? F 0.014(3) 0.3145(12) 0.4378(8)
F46? F -0.0821(16) 0.212(3) 0.4524(12)
F47? F 0.0751(19) 0.1557(14) 0.4760(6)
loop_
_geom_bond_atom_site_label_1
_geom_bond_atom_site_label_2
_geom_bond_site_symmetry_1
_geom_bond_site_symmetry_2
Cl1 C1 1_555 1_555
Cl2 C1 1_555 1_555
C1 H1 1_555 1_555
H2 C1 1_555 1_555
C2 C3 1_555 1_555
C3 C4 1_555 1_555
C4 H3 1_555 1_555
C5 C4 1_555 1_555
C6 C5 1_555 1_555
H4 C6 1_555 1_555
C7 C2 1_555 1_555
C8 C7 1_555 1_555
H5 C8 1_555 1_555
H6 C8 1_555 1_555
H7 C8 1_555 1_555
C9 C3 1_555 1_555
H8 C9 1_555 1_555
H9 C9 1_555 1_555
H10 C9 1_555 1_555
C10 C5 1_555 1_555
H11 C10 1_555 1_555
H12 C10 1_555 1_555
H13 C10 1_555 1_555
C11 H14 1_555 1_555
C12 C13 1_555 1_555
C13 H15 1_555 1_555
C14 C13 1_555 1_555
H16 C14 1_555 1_555
C15 C14 1_555 1_555
H17 C15 1_555 1_555
C16 C15 1_555 1_555
H18 C16 1_555 1_555
C17 C12 1_555 1_555
H19 C17 1_555 1_555
F1 C11 1_555 1_555
F2 C11 1_555 1_555
S1 C2 1_555 1_555
C18 C19 1_555 1_555
C19 H20 1_555 1_555
C20 C19 1_555 1_555
C21 C20 1_555 1_555
H21 C21 1_555 1_555
C22 C21 1_555 1_555
C23 C18 1_555 1_555
H22 C23 1_555 1_555
C24 C20 1_555 1_555
C25 C22 1_555 1_555
F3 C24 1_555 1_555
F4 C24 1_555 1_555
F5 C24 1_555 1_555
F6 C25 1_555 1_555
F7 C25 1_555 1_555
F8 C25 1_555 1_555
C26 C27 1_555 1_555
C27 H23 1_555 1_555
C28 C27 1_555 1_555
C29 C28 1_555 1_555
H24 C29 1_555 1_555
C30 C29 1_555 1_555
C31 C26 1_555 1_555
H25 C31 1_555 1_555
C32 C28 1_555 1_555
C33 C30 1_555 1_555
F9 C32 1_555 1_555
F10 C32 1_555 1_555
F11 C32 1_555 1_555
F12 C33 1_555 1_555
F13 C33 1_555 1_555
F14 C33 1_555 1_555
C34 C35 1_555 1_555
C35 H26 1_555 1_555
C36 C35 1_555 1_555
C37 C36 1_555 1_555
H27 C37 1_555 1_555
C38 C37 1_555 1_555
C39 C34 1_555 1_555
H28 C39 1_555 1_555
C40 C36 1_555 1_555
C41 C38 1_555 1_555
F15 C40 1_555 1_555
F16 C40 1_555 1_555
F17 C40 1_555 1_555
F18 C41 1_555 1_555
F19 C41 1_555 1_555
F20 C41 1_555 1_555
C42 C43 1_555 1_555
C43 H29 1_555 1_555
C44 C43 1_555 1_555
C45 C44 1_555 1_555
H30 C45 1_555 1_555
C46 C45 1_555 1_555
C47 C42 1_555 1_555
H31 C47 1_555 1_555
C48 C44 1_555 1_555
C49 C46 1_555 1_555
F21 C48 1_555 1_555
F22 C48 1_555 1_555
F23 C48 1_555 1_555
F24 C49 1_555 1_555
F25 C49 1_555 1_555
F26 C49 1_555 1_555
B1 C18 1_555 1_555
C6 C7 1_555 1_555
C11 S1 1_555 1_555
C12 S1 1_555 1_555
C16 C17 1_555 1_555
C22 C23 1_555 1_555
C26 B1 1_555 1_555
C30 C31 1_555 1_555
C34 B1 1_555 1_555
C38 C39 1_555 1_555
C42 B1 1_555 1_555
C46 C47 1_555 1_555

#END
