
#######################################################################
#
#                 Cambridge Crystallographic Data Centre
#                                CCDC 
#
#######################################################################
#
# If this CIF has been generated from an entry in the Cambridge 
# Structural Database, then it will include bibliographic, chemical, 
# crystal, experimental, refinement or atomic coordinate data resulting 
# from the CCDC's data processing and validation procedures.
#
#######################################################################

data_ELIDAG
_chemical_formula_moiety         'C12 H8 Cl1 N3 O1'
_chemical_name_systematic        
4-(8-Chloro[1,2,4]triazolo[4,3-a]pyridin-3-yl)phenol
_symmetry_cell_setting           triclinic
_symmetry_space_group_name_H-M   'P -1'
_symmetry_Int_Tables_number      2
_space_group_name_Hall           '-P 1'
loop_
_symmetry_equiv_pos_site_id
_symmetry_equiv_pos_as_xyz
1 x,y,z
2 -x,-y,-z
_cell_length_a                   7.307(3)
_cell_length_b                   11.792(4)
_cell_length_c                   12.474(5)
_cell_angle_alpha                83.850(10)
_cell_angle_beta                 87.148(13)
_cell_angle_gamma                77.691(11)
_cell_volume                     1043.66
_exptl_crystal_colour            colorless
_exptl_crystal_description       Prism
_cell_formula_units_Z            4
loop_
_atom_site_label
_atom_site_type_symbol
_atom_site_fract_x
_atom_site_fract_y
_atom_site_fract_z
Cl1 Cl 0.20694(5) -0.40519(3) 0.55584(3)
O1 O 0.03331(12) 0.38994(7) 0.88012(7)
H1 H -0.0770 0.4238 0.8772
N1 N 0.14283(14) -0.13706(9) 0.73277(8)
N2 N 0.18340(16) -0.02604(10) 0.58364(9)
N3 N 0.20398(16) -0.13825(10) 0.55613(9)
C1 C 0.17888(18) -0.20377(11) 0.64590(10)
C2 C 0.17405(19) -0.32413(12) 0.66517(11)
C3 C 0.13881(19) -0.37118(12) 0.76604(11)
H2 H 0.1362 -0.4517 0.7790
C4 C 0.10565(19) -0.29871(12) 0.85271(11)
H3 H 0.0826 -0.3321 0.9235
C5 C 0.10642(18) -0.18366(12) 0.83617(10)
H4 H 0.0825 -0.1360 0.8941
C6 C 0.14584(18) -0.02462(12) 0.68751(10)
C7 C 0.11004(18) 0.08081(12) 0.74289(10)
C8 C 0.01695(18) 0.18539(12) 0.68698(11)
H5 H -0.0283 0.1845 0.6170
C9 C -0.00940(19) 0.28933(12) 0.73262(11)
H6 H -0.0713 0.3602 0.6947
C10 C 0.0563(2) 0.28797(12) 0.83484(11)
C11 C 0.14579(19) 0.18711(12) 0.89316(11)
H7 H 0.1881 0.1890 0.9636
C12 C 0.17236(18) 0.08379(12) 0.84709(10)
H8 H 0.2337 0.0135 0.8862
Cl2 Cl 0.43651(5) -0.38936(3) 0.06937(3)
O2 O 0.31088(12) 0.41019(7) 0.37686(7)
H9 H 0.4143 0.4268 0.3772
N4 N 0.40952(14) -0.11862(9) 0.23746(8)
N5 N 0.34048(16) -0.11712(9) 0.06528(8)
N6 N 0.31624(16) -0.00370(9) 0.09044(8)
C13 C 0.39668(18) -0.18505(11) 0.15368(10)
C14 C 0.44835(19) -0.30836(11) 0.17421(10)
C15 C 0.50366(18) -0.35785(12) 0.27381(11)
H10 H 0.5344 -0.4403 0.2883
C16 C 0.51539(19) -0.28554(12) 0.35649(11)
H11 H 0.5555 -0.3207 0.4258
C17 C 0.47072(18) -0.16796(11) 0.33842(10)
H12 H 0.4811 -0.1204 0.3937
C18 C 0.35712(18) -0.00420(11) 0.19217(10)
C19 C 0.35290(18) 0.10093(11) 0.24511(10)
C20 C 0.28905(18) 0.11132(11) 0.35202(10)
H13 H 0.2537 0.0469 0.3939
C21 C 0.27716(18) 0.21552(11) 0.39702(10)
H14 H 0.2356 0.2230 0.4698
C22 C 0.32716(19) 0.30793(11) 0.33363(11)
C23 C 0.39076(19) 0.30114(11) 0.22803(10)
H15 H 0.4232 0.3667 0.1865
C24 C 0.40620(17) 0.19653(11) 0.18401(10)
H16 H 0.4531 0.1893 0.1121
loop_
_geom_bond_atom_site_label_1
_geom_bond_atom_site_label_2
_geom_bond_site_symmetry_1
_geom_bond_site_symmetry_2
Cl1 C2 1_555 1_555
O1 H1 1_555 1_555
N1 C1 1_555 1_555
N2 N3 1_555 1_555
N3 C1 1_555 1_555
C1 C2 1_555 1_555
C2 C3 1_555 1_555
C3 H2 1_555 1_555
C4 C3 1_555 1_555
H3 C4 1_555 1_555
C5 N1 1_555 1_555
H4 C5 1_555 1_555
C6 N1 1_555 1_555
C7 C6 1_555 1_555
C8 C7 1_555 1_555
H5 C8 1_555 1_555
C9 C8 1_555 1_555
H6 C9 1_555 1_555
C10 O1 1_555 1_555
C11 C10 1_555 1_555
H7 C11 1_555 1_555
C12 C7 1_555 1_555
H8 C12 1_555 1_555
Cl2 C14 1_555 1_555
O2 H9 1_555 1_555
N4 C13 1_555 1_555
N5 N6 1_555 1_555
N6 C18 1_555 1_555
C13 N5 1_555 1_555
C14 C13 1_555 1_555
C15 C14 1_555 1_555
H10 C15 1_555 1_555
C16 C15 1_555 1_555
H11 C16 1_555 1_555
C17 N4 1_555 1_555
H12 C17 1_555 1_555
C18 N4 1_555 1_555
C19 C18 1_555 1_555
C20 C19 1_555 1_555
H13 C20 1_555 1_555
C21 C20 1_555 1_555
H14 C21 1_555 1_555
C22 O2 1_555 1_555
C23 C22 1_555 1_555
H15 C23 1_555 1_555
C24 C19 1_555 1_555
H16 C24 1_555 1_555
N2 C6 1_555 1_555
C4 C5 1_555 1_555
C9 C10 1_555 1_555
C11 C12 1_555 1_555
C16 C17 1_555 1_555
C21 C22 1_555 1_555
C23 C24 1_555 1_555

#END
