
#######################################################################
#
#                 Cambridge Crystallographic Data Centre
#                                CCDC 
#
#######################################################################
#
# If this CIF has been generated from an entry in the Cambridge 
# Structural Database, then it will include bibliographic, chemical, 
# crystal, experimental, refinement or atomic coordinate data resulting 
# from the CCDC's data processing and validation procedures.
#
#######################################################################

data_ELIGEN01
_chemical_name_common            
1,4-dinitroxymethyl-3,6-dinitropyrazolo[4,3-c]pyrazole
_chemical_formula_moiety         'C6 H4 N8 O10'
_chemical_name_systematic        
'(3,6-dinitropyrazolo[4,3-c]pyrazole-1,4-diyl)bis(methylene) dinitrate'
_symmetry_cell_setting           triclinic
_symmetry_space_group_name_H-M   'P -1'
_symmetry_Int_Tables_number      2
_space_group_name_Hall           '-P 1'
loop_
_symmetry_equiv_pos_site_id
_symmetry_equiv_pos_as_xyz
1 x,y,z
2 -x,-y,-z
_cell_length_a                   7.743(4)
_cell_length_b                   8.302(5)
_cell_length_c                   10.605(6)
_cell_angle_alpha                85.500(11)
_cell_angle_beta                 78.807(10)
_cell_angle_gamma                71.153(9)
_cell_volume                     632.801
_exptl_crystal_colour            yellowish
_exptl_crystal_description       block
_cell_formula_units_Z            2
loop_
_atom_site_label
_atom_site_type_symbol
_atom_site_fract_x
_atom_site_fract_y
_atom_site_fract_z
N1 N 0.2108(8) 0.7077(8) 0.7135(6)
N2 N 0.2149(7) 0.5207(7) 0.5533(5)
N3 N 0.3369(6) 0.4274(6) 0.4569(5)
N4 N 0.2782(12) 0.0661(10) 0.4507(8)
O1 O 0.0434(7) 0.7416(8) 0.7467(6)
O2 O 0.3083(7) 0.7656(8) 0.7636(5)
O3 O 0.3641(8) 0.1649(8) 0.3612(6)
O4 O 0.3373(15) -0.0723(10) 0.4496(11)
O5 O 0.1532(14) 0.1568(14) 0.5175(10)
C1 C 0.3066(8) 0.5941(8) 0.6093(6)
C2 C 0.5078(7) 0.4473(7) 0.4509(5)
C3 C 0.2729(9) 0.3451(7) 0.3697(7)
H1 H 0.2916 0.3962 0.2849
H2 H 0.1407 0.3656 0.3972
N1A N 0.7892(8) 0.2923(8) 0.2865(6)
N2A N 0.7851(7) 0.4793(7) 0.4467(5)
N3A N 0.6631(6) 0.5726(6) 0.5431(5)
N4A N 0.7218(12) 0.9339(10) 0.5493(8)
O1A O 0.9566(7) 0.2584(8) 0.2533(6)
O2A O 0.6917(7) 0.2344(8) 0.2364(5)
O3A O 0.6359(8) 0.8351(8) 0.6388(6)
O4A O 0.6627(15) 1.0723(10) 0.5504(11)
O5A O 0.8468(14) 0.8432(14) 0.4825(10)
C1A C 0.6934(8) 0.4059(8) 0.3907(6)
C2A C 0.4922(7) 0.5527(7) 0.5491(5)
C3A C 0.7271(9) 0.6549(7) 0.6303(7)
H1A H 0.7084 0.6038 0.7151
H2A H 0.8593 0.6344 0.6028
N5 N 0.2718(9) 0.3881(9) -0.0138(7)
N6 N 0.1915(6) 0.0633(6) -0.0470(5)
N7 N 0.2691(6) -0.0429(6) 0.0427(5)
N8 N 0.1903(9) -0.2418(7) 0.2003(6)
O6 O 0.3468(8) 0.2893(8) 0.0594(5)
O7 O 0.2175(11) 0.5405(9) -0.0133(9)
O8 O 0.2302(6) 0.3292(6) -0.1213(5)
O9 O 0.3469(7) -0.2947(7) 0.2226(6)
O10 O 0.0615(7) -0.2907(7) 0.2555(5)
C4 C 0.3018(8) 0.1482(8) -0.1329(6)
H3 H 0.3071 0.1185 -0.2205
H4 H 0.4273 0.1089 -0.1153
C5 C 0.0175(7) 0.0560(7) -0.0475(5)
C6 C 0.1439(8) -0.1156(7) 0.1005(6)
N5A N -0.2718(9) -0.3881(9) 0.0138(7)
N6A N -0.1915(6) -0.0633(6) 0.0470(5)
N7A N -0.2691(6) 0.0429(6) -0.0427(5)
N8A N -0.1903(9) 0.2418(7) -0.2003(6)
O6A O -0.3468(8) -0.2893(8) -0.0594(5)
O7A O -0.2175(11) -0.5405(9) 0.0133(9)
O8A O -0.2302(6) -0.3292(6) 0.1213(5)
O9A O -0.3469(7) 0.2947(7) -0.2226(6)
O10A O -0.0615(7) 0.2907(7) -0.2555(5)
C4A C -0.3018(8) -0.1482(8) 0.1329(6)
H3A H -0.3071 -0.1185 0.2205
H4A H -0.4273 -0.1089 0.1153
C5A C -0.0175(7) -0.0560(7) 0.0475(5)
C6A C -0.1439(8) 0.1156(7) -0.1005(6)
loop_
_geom_bond_atom_site_label_1
_geom_bond_atom_site_label_2
_geom_bond_site_symmetry_1
_geom_bond_site_symmetry_2
N1 O1 1_555 1_555
N2 N3 1_555 1_555
N3 C2 1_555 1_555
N4 O3 1_555 1_555
O2 N1 1_555 1_555
O3 C3 1_555 1_555
O4 N4 1_555 1_555
O5 N4 1_555 1_555
C1 N1 1_555 1_555
C2 C1A 1_555 1_555
C3 N3 1_555 1_555
H1 C3 1_555 1_555
H2 C3 1_555 1_555
N5 O6 1_555 1_555
N6 N7 1_555 1_555
N7 C6 1_555 1_555
N8 O9 1_555 1_555
O7 N5 1_555 1_555
O8 N5 1_555 1_555
O10 N8 1_555 1_555
C4 N6 1_555 1_555
H3 C4 1_555 1_555
H4 C4 1_555 1_555
C5 N6 1_555 1_555
C6 N8 1_555 1_555
N1A O1A 1_555 1_555
N2A N3A 1_555 1_555
N3A C2A 1_555 1_555
N4A O3A 1_555 1_555
O2A N1A 1_555 1_555
O3A C3A 1_555 1_555
O4A N4A 1_555 1_555
O5A N4A 1_555 1_555
C1A N1A 1_555 1_555
C2A C1 1_555 1_555
C3A N3A 1_555 1_555
H1A C3A 1_555 1_555
H2A C3A 1_555 1_555
N5A O6A 1_555 1_555
N6A N7A 1_555 1_555
N7A C6A 1_555 1_555
N8A O9A 1_555 1_555
O7A N5A 1_555 1_555
O8A N5A 1_555 1_555
O10A N8A 1_555 1_555
C4A N6A 1_555 1_555
H3A C4A 1_555 1_555
H4A C4A 1_555 1_555
C5A C5 1_555 1_555
C6A C5 1_555 1_555
N2 C1 1_555 1_555
C2 C2A 1_555 1_555
O8 C4 1_555 1_555
C6 C5A 1_555 1_555
N2A C1A 1_555 1_555
N6A C5A 1_555 1_555
N8A C6A 1_555 1_555
O8A C4A 1_555 1_555

#END
