
#######################################################################
#
#                 Cambridge Crystallographic Data Centre
#                                CCDC 
#
#######################################################################
#
# If this CIF has been generated from an entry in the Cambridge 
# Structural Database, then it will include bibliographic, chemical, 
# crystal, experimental, refinement or atomic coordinate data resulting 
# from the CCDC's data processing and validation procedures.
#
#######################################################################

data_ELIHEM
_chemical_formula_moiety         'C20 H17 F1 N2'
_chemical_name_systematic        
3-Amino-1-(4-fluorophenyl)-3a,8,9,9a-tetrahydro-1H-benzo(4,5)indene-2-carbonitrile
_symmetry_cell_setting           monoclinic
_symmetry_space_group_name_H-M   'P 21/n'
_symmetry_Int_Tables_number      14
_space_group_name_Hall           '-P 2yn'
loop_
_symmetry_equiv_pos_site_id
_symmetry_equiv_pos_as_xyz
1 x,y,z
2 1/2+x,1/2-y,1/2+z
3 -x,-y,-z
4 1/2-x,1/2+y,1/2-z
_cell_length_a                   11.516(2)
_cell_length_b                   9.7100(10)
_cell_length_c                   14.914(2)
_cell_angle_alpha                90
_cell_angle_beta                 103.970(10)
_cell_angle_gamma                90
_cell_volume                     1618.36
_exptl_crystal_colour            colorless
_exptl_crystal_description       block
_chemical_melting_point          472-473K
_cell_formula_units_Z            4
_exptl_crystal_recrystallization_method ethanol
loop_
_atom_site_label
_atom_site_type_symbol
_atom_site_fract_x
_atom_site_fract_y
_atom_site_fract_z
F1 F 0.55958(12) 0.56213(13) 0.10083(8)
N1 N 0.32501(13) 0.17485(15) 0.55782(10)
H1 H 0.3819 0.1152 0.5665
H2 H 0.2857 0.1874 0.5994
N2 N 0.50964(16) 0.0696(2) 0.39359(12)
C1 C 0.31100(16) 0.41981(17) 0.17674(12)
H3 H 0.2316 0.3956 0.1518
C2 C 0.3779(2) 0.47465(19) 0.11946(13)
H4 H 0.3447 0.4861 0.0566
C3 C 0.4929(2) 0.51117(19) 0.15768(16)
C4 C 0.54439(18) 0.4964(2) 0.24833(15)
H5 H 0.6232 0.5235 0.2726
C5 C 0.47689(17) 0.4397(2) 0.30476(13)
H6 H 0.5116 0.4281 0.3674
C6 C 0.35956(16) 0.40037(17) 0.26997(11)
C7 C 0.28426(15) 0.33778(18) 0.32966(11)
H7 H 0.2211 0.2836 0.2890
C8 C 0.34837(14) 0.24344(18) 0.40675(11)
C9 C 0.29754(15) 0.24840(18) 0.47928(11)
C10 C 0.19256(14) 0.34703(17) 0.45904(11)
H8 H 0.1213 0.2935 0.4299
C11 C 0.22250(15) 0.43921(18) 0.38362(11)
H9 H 0.1486 0.4747 0.3430
C12 C 0.30073(16) 0.55799(18) 0.42890(12)
H10 H 0.3197 0.6163 0.3816
H11 H 0.3752 0.5222 0.4668
C13 C 0.23723(17) 0.64316(19) 0.48891(13)
H12 H 0.2928 0.7109 0.5228
H13 H 0.1713 0.6925 0.4491
C14 C 0.18961(15) 0.5582(2) 0.55654(12)
C15 C 0.16320(17) 0.6195(2) 0.63399(14)
H14 H 0.1784 0.7128 0.6451
C16 C 0.11502(18) 0.5436(3) 0.69408(14)
H15 H 0.0989 0.5858 0.7457
C17 C 0.09061(18) 0.4068(3) 0.67860(15)
H16 H 0.0584 0.3556 0.7194
C18 C 0.11431(16) 0.3463(2) 0.60208(13)
H17 H 0.0956 0.2538 0.5904
C19 C 0.16579(14) 0.41953(19) 0.54108(12)
C20 C 0.43796(18) 0.1485(2) 0.39943(12)
loop_
_geom_bond_atom_site_label_1
_geom_bond_atom_site_label_2
_geom_bond_site_symmetry_1
_geom_bond_site_symmetry_2
F1 C3 1_555 1_555
N1 H1 1_555 1_555
H2 N1 1_555 1_555
N2 C20 1_555 1_555
C1 H3 1_555 1_555
C2 C1 1_555 1_555
H4 C2 1_555 1_555
C3 C2 1_555 1_555
C4 C3 1_555 1_555
H5 C4 1_555 1_555
C5 C4 1_555 1_555
H6 C5 1_555 1_555
C6 C1 1_555 1_555
C7 C6 1_555 1_555
H7 C7 1_555 1_555
C8 C7 1_555 1_555
C9 N1 1_555 1_555
C10 C9 1_555 1_555
H8 C10 1_555 1_555
C11 C7 1_555 1_555
H9 C11 1_555 1_555
C12 C11 1_555 1_555
H10 C12 1_555 1_555
H11 C12 1_555 1_555
C13 C12 1_555 1_555
H12 C13 1_555 1_555
H13 C13 1_555 1_555
C14 C13 1_555 1_555
C15 C14 1_555 1_555
H14 C15 1_555 1_555
C16 C15 1_555 1_555
H15 C16 1_555 1_555
C17 C16 1_555 1_555
H16 C17 1_555 1_555
C18 C17 1_555 1_555
H17 C18 1_555 1_555
C19 C10 1_555 1_555
C20 C8 1_555 1_555
C5 C6 1_555 1_555
C8 C9 1_555 1_555
C10 C11 1_555 1_555
C14 C19 1_555 1_555
C18 C19 1_555 1_555

#END
