
#######################################################################
#
#                 Cambridge Crystallographic Data Centre
#                                CCDC 
#
#######################################################################
#
# If this CIF has been generated from an entry in the Cambridge 
# Structural Database, then it will include bibliographic, chemical, 
# crystal, experimental, refinement or atomic coordinate data resulting 
# from the CCDC's data processing and validation procedures.
#
#######################################################################

data_ELIHOW
_chemical_formula_moiety         'C38 H36 N2 O2 S4'
_chemical_name_systematic        
6,22-Dioxaparaxylenyl-2,10,18,26-tetrathia-33,35-diazapentacyclo(27.3.1.1^4,8^.1^12,16^.1^20,24^)hexatriaconta-4,6,8(36),12,14,16(35),20,22,24(34),28,30,32-dodecaene
_symmetry_cell_setting           triclinic
_symmetry_space_group_name_H-M   'P -1'
_symmetry_Int_Tables_number      2
_space_group_name_Hall           '-P 1'
loop_
_symmetry_equiv_pos_site_id
_symmetry_equiv_pos_as_xyz
1 x,y,z
2 -x,-y,-z
_cell_length_a                   10.2571(10)
_cell_length_b                   12.3622(7)
_cell_length_c                   14.2374(10)
_cell_angle_alpha                94.326(5)
_cell_angle_beta                 108.527(6)
_cell_angle_gamma                96.725(6)
_cell_volume                     1687.76
_exptl_crystal_colour            colorless
_exptl_crystal_description       block
_cell_formula_units_Z            2
_exptl_crystal_recrystallization_method 'ethyl acetate'
loop_
_atom_site_label
_atom_site_type_symbol
_atom_site_fract_x
_atom_site_fract_y
_atom_site_fract_z
S1 S 0.89295(8) 0.61289(6) 0.57529(6)
S2 S 0.81574(9) 1.08627(7) 0.42413(7)
S3 S 0.23490(10) 1.05935(7) 0.30174(6)
S4 S 0.22972(8) 0.52566(6) 0.19901(6)
N1 N 0.5429(2) 0.59062(17) 0.37910(16)
C1 C 0.6105(3) 0.6070(2) 0.4770(2)
C2 C 0.5839(3) 0.6858(3) 0.5396(2)
H1 H 0.6309 0.6935 0.6080
C3 C 0.4878(3) 0.7523(3) 0.5002(3)
H2 H 0.4677 0.8054 0.5413
C4 C 0.4212(3) 0.7392(2) 0.3983(2)
H3 H 0.3581 0.7852 0.3694
C5 C 0.4495(3) 0.6572(2) 0.3400(2)
C6 C 0.7200(3) 0.5366(2) 0.5175(2)
H4 H 0.7210 0.4843 0.4635
H5 H 0.6954 0.4955 0.5663
C7 C 0.9420(3) 0.6409(3) 0.4681(2)
H6 H 1.0364 0.6796 0.4913
H7 H 0.9424 0.5714 0.4317
C8 C 0.8510(3) 0.7074(2) 0.3962(2)
C9 C 0.8155(3) 0.8039(2) 0.4303(2)
H8 H 0.8494 0.8290 0.4981
C10 C 0.7304(3) 0.8633(2) 0.3649(2)
C11 C 0.6828(3) 0.8269(3) 0.2628(2)
H9 H 0.6253 0.8662 0.2181
C12 C 0.7213(3) 0.7329(3) 0.2287(2)
C13 C 0.8023(3) 0.6718(3) 0.2954(2)
H10 H 0.8241 0.6063 0.2720
C14 C 0.6889(3) 0.9648(2) 0.4051(2)
H11 H 0.6752 0.9529 0.4681
H12 H 0.6008 0.9771 0.3590
C15 C 0.7757(3) 1.1239(3) 0.2991(3)
H13 H 0.8532 1.1745 0.2955
H14 H 0.7643 1.0587 0.2531
C16 C 0.6468(3) 1.1760(2) 0.2673(2)
C17 C 0.6523(3) 1.2880(2) 0.2726(2)
H15 H 0.7375 1.3337 0.2943
C18 C 0.5303(4) 1.3315(2) 0.2453(2)
H16 H 0.5314 1.4070 0.2473
C19 C 0.4071(3) 1.2615(2) 0.2150(2)
H17 H 0.3231 1.2889 0.1960
C20 C 0.4084(3) 1.1498(2) 0.21287(19)
N2 N 0.5267(2) 1.10677(18) 0.23692(17)
C21 C 0.2768(3) 1.0703(3) 0.1888(2)
H18 H 0.2893 0.9991 0.1624
H19 H 0.2018 1.0961 0.1390
C22 C 0.0554(3) 0.9941(3) 0.2527(3)
H20 H 0.0200 0.9845 0.3075
H21 H 0.0004 1.0417 0.2103
C23 C 0.0390(3) 0.8849(2) 0.1937(2)
C24 C 0.0019(3) 0.8773(2) 0.0914(2)
H22 H -0.0235 0.9380 0.0590
C25 C 0.0020(3) 0.7806(2) 0.0362(2)
C26 C 0.0337(3) 0.6886(2) 0.0827(2)
H23 H 0.0313 0.6229 0.0453
C27 C 0.0691(3) 0.6946(2) 0.1856(2)
C28 C 0.0726(3) 0.7926(2) 0.2410(2)
H24 H 0.0975 0.7967 0.3101
C29 C 0.1078(3) 0.5950(2) 0.2382(2)
H25 H 0.0238 0.5435 0.2267
H26 H 0.1472 0.6179 0.3095
C30 C 0.3765(3) 0.6343(2) 0.2305(2)
H27 H 0.4415 0.6137 0.1980
H28 H 0.3443 0.7006 0.2054
O1 O 0.6836(2) 0.6900(2) 0.13039(17)
C31 C 0.6355(3) 0.7603(4) 0.0554(3)
H29 H 0.6703 0.7432 0.0010
H30 H 0.6731 0.8358 0.0834
C32 C 0.4792(3) 0.7492(3) 0.0149(2)
C33 C 0.4121(4) 0.8385(3) 0.0059(2)
H31 H 0.4634 0.9081 0.0285
C34 C 0.2690(3) 0.8276(3) -0.0363(2)
H32 H 0.2255 0.8899 -0.0426
C35 C 0.1899(3) 0.7251(3) -0.0691(2)
C36 C 0.2581(4) 0.6353(3) -0.0584(2)
H33 H 0.2072 0.5653 -0.0785
C37 C 0.4003(4) 0.6473(3) -0.0187(3)
H34 H 0.4443 0.5853 -0.0142
C38 C 0.0344(3) 0.7126(3) -0.1143(2)
H35 H 0.0107 0.7260 -0.1836
H36 H -0.0046 0.6376 -0.1130
O2 O -0.0275(2) 0.78483(18) -0.06458(15)
loop_
_geom_bond_atom_site_label_1
_geom_bond_atom_site_label_2
_geom_bond_site_symmetry_1
_geom_bond_site_symmetry_2
S1 C6 1_555 1_555
S2 C14 1_555 1_555
S3 C21 1_555 1_555
S4 C29 1_555 1_555
N1 C1 1_555 1_555
C1 C2 1_555 1_555
C2 H1 1_555 1_555
C3 C2 1_555 1_555
H2 C3 1_555 1_555
C4 C3 1_555 1_555
H3 C4 1_555 1_555
C5 N1 1_555 1_555
C6 C1 1_555 1_555
H4 C6 1_555 1_555
H5 C6 1_555 1_555
C7 S1 1_555 1_555
H6 C7 1_555 1_555
H7 C7 1_555 1_555
C8 C7 1_555 1_555
C9 C8 1_555 1_555
H8 C9 1_555 1_555
C10 C9 1_555 1_555
C11 C10 1_555 1_555
H9 C11 1_555 1_555
C12 C11 1_555 1_555
C13 C8 1_555 1_555
H10 C13 1_555 1_555
C14 C10 1_555 1_555
H11 C14 1_555 1_555
H12 C14 1_555 1_555
C15 S2 1_555 1_555
H13 C15 1_555 1_555
H14 C15 1_555 1_555
C16 C15 1_555 1_555
C17 C16 1_555 1_555
H15 C17 1_555 1_555
C18 C17 1_555 1_555
H16 C18 1_555 1_555
C19 C18 1_555 1_555
H17 C19 1_555 1_555
C20 C19 1_555 1_555
N2 C16 1_555 1_555
C21 C20 1_555 1_555
H18 C21 1_555 1_555
H19 C21 1_555 1_555
C22 S3 1_555 1_555
H20 C22 1_555 1_555
H21 C22 1_555 1_555
C23 C22 1_555 1_555
C24 C23 1_555 1_555
H22 C24 1_555 1_555
C25 C24 1_555 1_555
C26 C25 1_555 1_555
H23 C26 1_555 1_555
C27 C26 1_555 1_555
C28 C23 1_555 1_555
H24 C28 1_555 1_555
C29 C27 1_555 1_555
H25 C29 1_555 1_555
H26 C29 1_555 1_555
C30 S4 1_555 1_555
H27 C30 1_555 1_555
H28 C30 1_555 1_555
O1 C12 1_555 1_555
C31 O1 1_555 1_555
H29 C31 1_555 1_555
H30 C31 1_555 1_555
C32 C31 1_555 1_555
C33 C32 1_555 1_555
H31 C33 1_555 1_555
C34 C33 1_555 1_555
H32 C34 1_555 1_555
C35 C34 1_555 1_555
C36 C35 1_555 1_555
H33 C36 1_555 1_555
C37 C32 1_555 1_555
H34 C37 1_555 1_555
C38 C35 1_555 1_555
H35 C38 1_555 1_555
H36 C38 1_555 1_555
O2 C25 1_555 1_555
C4 C5 1_555 1_555
C5 C30 1_555 1_555
C12 C13 1_555 1_555
C20 N2 1_555 1_555
C27 C28 1_555 1_555
C36 C37 1_555 1_555
C38 O2 1_555 1_555

#END
