
#######################################################################
#
#                 Cambridge Crystallographic Data Centre
#                                CCDC 
#
#######################################################################
#
# If this CIF has been generated from an entry in the Cambridge 
# Structural Database, then it will include bibliographic, chemical, 
# crystal, experimental, refinement or atomic coordinate data resulting 
# from the CCDC's data processing and validation procedures.
#
#######################################################################

data_ELIMOB
_chemical_formula_moiety         'C22 H20 N4 O3'
_chemical_name_systematic        
3-Methyl-5-cyano-6-amino-1-phenyl-4-(3,4-dimethoxyphenyl)-1,4-dihydropyrano(2,3-c)pyrazole
_symmetry_cell_setting           triclinic
_symmetry_space_group_name_H-M   'P -1'
_symmetry_Int_Tables_number      2
_space_group_name_Hall           '-P 1'
loop_
_symmetry_equiv_pos_site_id
_symmetry_equiv_pos_as_xyz
1 x,y,z
2 -x,-y,-z
_cell_length_a                   9.450(3)
_cell_length_b                   10.876(2)
_cell_length_c                   11.435(2)
_cell_angle_alpha                115.51(1)
_cell_angle_beta                 102.82(1)
_cell_angle_gamma                98.47(2)
_cell_volume                     994.089
_cell_formula_units_Z            2
loop_
_atom_site_label
_atom_site_type_symbol
_atom_site_fract_x
_atom_site_fract_y
_atom_site_fract_z
O1 O 0.3489(2) 0.0671(1) 0.7852(1)
O2 O 0.1248(2) -0.7622(1) 0.6090(1)
N1 N 0.5615(2) 0.0203(2) 0.7140(2)
N2 N 0.6511(2) -0.0705(2) 0.7070(2)
N3 N 0.1479(2) 0.1014(2) 0.8491(2)
N4 N 0.0499(3) -0.1485(2) 0.9679(2)
C1 C 0.2459(2) 0.0232(2) 0.8375(2)
C2 C 0.2493(2) -0.0831(2) 0.8693(2)
C3 C 0.3674(2) -0.1659(2) 0.8571(2)
C4 C 0.4654(2) -0.1177(2) 0.7901(2)
C5 C 0.4516(2) -0.0101(2) 0.7631(2)
C6 C 0.5921(2) -0.1527(2) 0.7525(2)
C7 C 0.6581(3) -0.2675(3) 0.7556(3)
C8 C 0.1377(3) -0.1172(2) 0.9236(2)
C9 C 0.2977(2) -0.3254(2) 0.7859(2)
C10 C 0.2338(3) -0.4044(2) 0.6469(2)
C11 C 0.1742(3) -0.5502(2) 0.5842(2)
C12 C 0.1774(2) -0.6190(2) 0.6603(2)
C13 C 0.2377(3) -0.5393(2) 0.8018(2)
C14 C 0.2976(3) -0.3948(2) 0.8625(2)
C15 C 0.0621(3) -0.8467(2) 0.4642(2)
C16 C 0.6043(2) 0.1346(2) 0.6875(2)
C17 C 0.4998(3) 0.1951(2) 0.6466(2)
C18 C 0.5454(3) 0.3078(3) 0.6256(2)
C19 C 0.6925(3) 0.3584(3) 0.6428(3)
C20 C 0.7971(3) 0.2966(3) 0.6813(3)
C21 C 0.7542(3) 0.1843(3) 0.7048(3)
O3 O 0.1990(9) -0.6140(13) 0.8691(13)
C22 C 0.2131(12) -0.5325(9) 1.0097(8)
O4? O 0.2646(9) -0.6152(13) 0.8717(13)
C23? C 0.3319(12) -0.5373(1) 1.0172(10)
loop_
_geom_bond_atom_site_label_1
_geom_bond_atom_site_label_2
_geom_bond_site_symmetry_1
_geom_bond_site_symmetry_2
O1 C1 1_555 1_555
O2 C12 1_555 1_555
N1 N2 1_555 1_555
N2 C6 1_555 1_555
N3 C1 1_555 1_555
N4 C8 1_555 1_555
C1 C2 1_555 1_555
C2 C3 1_555 1_555
C3 C4 1_555 1_555
C4 C5 1_555 1_555
C5 O1 1_555 1_555
C6 C4 1_555 1_555
C7 C6 1_555 1_555
C8 C2 1_555 1_555
C9 C3 1_555 1_555
C10 C9 1_555 1_555
C11 C10 1_555 1_555
C12 C11 1_555 1_555
C13 C12 1_555 1_555
C14 C9 1_555 1_555
C15 O2 1_555 1_555
C16 N1 1_555 1_555
C17 C16 1_555 1_555
C18 C17 1_555 1_555
C19 C18 1_555 1_555
C20 C19 1_555 1_555
C21 C16 1_555 1_555
O3 C13 1_555 1_555
C22 O3 1_555 1_555
N1 C5 1_555 1_555
C13 C14 1_555 1_555
C20 C21 1_555 1_555

#END
