
#######################################################################
#
#                 Cambridge Crystallographic Data Centre
#                                CCDC 
#
#######################################################################
#
# If this CIF has been generated from an entry in the Cambridge 
# Structural Database, then it will include bibliographic, chemical, 
# crystal, experimental, refinement or atomic coordinate data resulting 
# from the CCDC's data processing and validation procedures.
#
#######################################################################

data_ELINIW
_chemical_formula_moiety         'C22 H27 N1 O6'
_chemical_name_systematic        
(3aS,6R,6aR)-3-(3,4-Methylenedioxyphenyl)-6-menthyloxy-6,6a-dihydrofuro(3,4-d)isoxazol-4(3aH)-one
_symmetry_cell_setting           orthorhombic
_symmetry_space_group_name_H-M   'P 21 21 21'
_symmetry_Int_Tables_number      19
_space_group_name_Hall           'P 2ac 2ab'
loop_
_symmetry_equiv_pos_site_id
_symmetry_equiv_pos_as_xyz
1 x,y,z
2 1/2-x,-y,1/2+z
3 1/2+x,1/2-y,-z
4 -x,1/2+y,1/2-z
_cell_length_a                   6.2600(3)
_cell_length_b                   10.7300(11)
_cell_length_c                   31.2160(25)
_cell_angle_alpha                90
_cell_angle_beta                 90
_cell_angle_gamma                90
_cell_volume                     2096.77
_chemical_melting_point          '124-126 deg.C'
_cell_formula_units_Z            4
loop_
_atom_site_label
_atom_site_type_symbol
_atom_site_fract_x
_atom_site_fract_y
_atom_site_fract_z
O1 O 0.5819(14) 0.3849(8) 0.2470(2)
O2 O 0.1508(17) 0.6563(10) 0.1808(3)
O3 O 0.7427(1) 0.5128(8) 0.1498(2)
O4 O -0.3012(17) 0.4435(10) 0.3622(3)
O5 O 0.3768(14) 0.5073(9) 0.1601(2)
O6 O -0.4226(18) 0.6455(12) 0.3540(3)
N1 N 0.3941(18) 0.4008(9) 0.2720(3)
C1 C 0.3117(16) 0.5044(8) 0.2643(3)
C2 C 0.4361(18) 0.5809(11) 0.2303(2)
C3 C 0.3010(22) 0.5927(14) 0.1883(3)
C4 C 0.5834(18) 0.4561(12) 0.1725(3)
C5 C 0.6125(19) 0.4958(11) 0.2197(3)
C6 C 0.7571(23) 0.4731(11) 0.1043(3)
C7 C 0.8879(28) 0.3540(15) 0.1026(4)
C8 C 0.9169(30) 0.3093(14) 0.0565(4)
C9 C 1.0210(32) 0.4135(16) 0.0316(4)
C10 C 0.8997(32) 0.5343(14) 0.0345(3)
C11 C 0.8651(23) 0.5789(15) 0.0803(4)
C12 C 1.0473(37) 0.1886(16) 0.0535(5)
C13 C 0.7463(26) 0.7042(16) 0.0853(5)
C14 C 0.5144(33) 0.7028(21) 0.0669(6)
C15 C 0.8781(39) 0.8134(14) 0.0675(6)
C16 C 0.1142(18) 0.5469(12) 0.2862(2)
C17 C 0.0077(22) 0.4614(11) 0.3144(3)
C18 C -0.1690(21) 0.5060(15) 0.3346(4)
C19 C -0.2384(19) 0.6256(15) 0.3293(4)
C20 C -0.1370(22) 0.7114(12) 0.3037(4)
C21 C 0.0427(19) 0.6721(9) 0.2821(3)
C22 C -0.4633(27) 0.5297(17) 0.3740(5)
loop_
_geom_bond_atom_site_label_1
_geom_bond_atom_site_label_2
_geom_bond_site_symmetry_1
_geom_bond_site_symmetry_2
O1 N1 1_555 1_555
O2 C3 1_555 1_555
O3 C4 1_555 1_555
O4 C18 1_555 1_555
O5 C3 1_555 1_555
O6 C19 1_555 1_555
N1 C1 1_555 1_555
C1 C2 1_555 1_555
C2 C3 1_555 1_555
C4 O5 1_555 1_555
C5 O1 1_555 1_555
C6 O3 1_555 1_555
C7 C6 1_555 1_555
C8 C7 1_555 1_555
C9 C8 1_555 1_555
C10 C9 1_555 1_555
C11 C6 1_555 1_555
C12 C8 1_555 1_555
C13 C11 1_555 1_555
C14 C13 1_555 1_555
C15 C13 1_555 1_555
C16 C1 1_555 1_555
C17 C16 1_555 1_555
C18 C17 1_555 1_555
C19 C18 1_555 1_555
C20 C19 1_555 1_555
C21 C16 1_555 1_555
C22 O4 1_555 1_555
O6 C22 1_555 1_555
C2 C5 1_555 1_555
C4 C5 1_555 1_555
C10 C11 1_555 1_555
C20 C21 1_555 1_555

#END
