
#######################################################################
#
#                 Cambridge Crystallographic Data Centre
#                                CCDC 
#
#######################################################################
#
# If this CIF has been generated from an entry in the Cambridge 
# Structural Database, then it will include bibliographic, chemical, 
# crystal, experimental, refinement or atomic coordinate data resulting 
# from the CCDC's data processing and validation procedures.
#
#######################################################################

data_ELITIE
_chemical_formula_moiety         'C16 H22 N2 O2 S1'
_chemical_name_systematic        
8a-hydroxy-3'-methyl-6,7,8,8a-tetrahydro-3H-spiro[1-benzothieno[2,3-d]pyrimidine-2,1'-cyclohexan]-4(5H)-one
_symmetry_cell_setting           monoclinic
_symmetry_space_group_name_H-M   'P 21/n'
_symmetry_Int_Tables_number      14
_space_group_name_Hall           '-P 2yn'
loop_
_symmetry_equiv_pos_site_id
_symmetry_equiv_pos_as_xyz
1 x,y,z
2 1/2-x,1/2+y,1/2-z
3 -x,-y,-z
4 1/2+x,1/2-y,1/2+z
_cell_length_a                   15.803(3)
_cell_length_b                   6.1022(12)
_cell_length_c                   16.507(3)
_cell_angle_alpha                90
_cell_angle_beta                 97.55(3)
_cell_angle_gamma                90
_cell_volume                     1578.02
_exptl_crystal_colour            colorless
_exptl_crystal_description       Prism
_cell_formula_units_Z            4
loop_
_atom_site_label
_atom_site_type_symbol
_atom_site_fract_x
_atom_site_fract_y
_atom_site_fract_z
S1 S 0.78681(15) -0.0072(4) 0.68999(15)
O1 O 0.9076(4) 0.3010(11) 0.6780(4)
H1 H 0.8900 0.2982 0.7238
O2 O 0.6081(4) 0.5249(11) 0.5070(4)
N1 N 0.5408(5) 0.2906(13) 0.5852(5)
H2 H 0.4924 0.3530 0.5630
N2 N 0.6182(5) 0.0462(13) 0.6857(4)
C1 C 0.8421(6) 0.1934(16) 0.6284(6)
C2 C 0.8830(6) 0.0713(16) 0.5618(6)
H3 H 0.8396 -0.0200 0.5286
H4 H 0.9292 -0.0258 0.5872
C3 C 0.9194(6) 0.2421(17) 0.5071(6)
H5 H 0.9643 0.3288 0.5403
H6 H 0.9458 0.1663 0.4637
C4 C 0.8492(6) 0.3955(18) 0.4681(6)
H7 H 0.8070 0.3106 0.4311
H8 H 0.8744 0.5076 0.4351
C5 C 0.8033(6) 0.5114(16) 0.5350(6)
H9 H 0.8434 0.6108 0.5682
H10 H 0.7545 0.5993 0.5088
C6 C 0.7726(6) 0.3395(15) 0.5877(6)
C7 C 0.6924(5) 0.2912(14) 0.6001(5)
C8 C 0.6863(6) 0.1085(16) 0.6581(5)
C9 C 0.6117(5) 0.3863(15) 0.5596(5)
C10 C 0.5364(6) 0.1385(16) 0.6533(6)
C11 C 0.4770(6) -0.0527(17) 0.6245(6)
H11 H 0.4974 -0.1218 0.5764
H12 H 0.4805 -0.1639 0.6685
C12 C 0.3842(6) 0.0134(18) 0.6019(6)
H13 H 0.3785 0.1042 0.5518
H14 H 0.3488 -0.1195 0.5903
C13 C 0.3528(6) 0.1409(18) 0.6702(7)
H15 H 0.3503 0.0415 0.7172
H16 H 0.2941 0.1925 0.6517
C14 C 0.4076(6) 0.3362(18) 0.6985(6)
H17 H 0.4065 0.4384 0.6510
C15 C 0.5006(6) 0.2623(16) 0.7219(6)
H18 H 0.5365 0.3927 0.7368
H19 H 0.5040 0.1665 0.7706
C16 C 0.3777(7) 0.462(2) 0.7672(7)
H20 H 0.3217 0.5267 0.7488
H21 H 0.4186 0.5793 0.7845
H22 H 0.3733 0.3635 0.8133
loop_
_geom_bond_atom_site_label_1
_geom_bond_atom_site_label_2
_geom_bond_site_symmetry_1
_geom_bond_site_symmetry_2
S1 C1 1_555 1_555
O1 H1 1_555 1_555
O2 C9 1_555 1_555
N1 H2 1_555 1_555
N2 C8 1_555 1_555
C1 O1 1_555 1_555
C2 C1 1_555 1_555
H3 C2 1_555 1_555
H4 C2 1_555 1_555
C3 C2 1_555 1_555
H5 C3 1_555 1_555
H6 C3 1_555 1_555
C4 C3 1_555 1_555
H7 C4 1_555 1_555
H8 C4 1_555 1_555
C5 C4 1_555 1_555
H9 C5 1_555 1_555
H10 C5 1_555 1_555
C6 C1 1_555 1_555
C7 C6 1_555 1_555
C8 S1 1_555 1_555
C9 N1 1_555 1_555
C10 N1 1_555 1_555
C11 C10 1_555 1_555
H11 C11 1_555 1_555
H12 C11 1_555 1_555
C12 C11 1_555 1_555
H13 C12 1_555 1_555
H14 C12 1_555 1_555
C13 C12 1_555 1_555
H15 C13 1_555 1_555
H16 C13 1_555 1_555
C14 C13 1_555 1_555
H17 C14 1_555 1_555
C15 C10 1_555 1_555
H18 C15 1_555 1_555
H19 C15 1_555 1_555
C16 C14 1_555 1_555
H20 C16 1_555 1_555
H21 C16 1_555 1_555
H22 C16 1_555 1_555
N2 C10 1_555 1_555
C5 C6 1_555 1_555
C7 C8 1_555 1_555
C7 C9 1_555 1_555
C14 C15 1_555 1_555

#END
