
#######################################################################
#
#                 Cambridge Crystallographic Data Centre
#                                CCDC 
#
#######################################################################
#
# If this CIF has been generated from an entry in the Cambridge 
# Structural Database, then it will include bibliographic, chemical, 
# crystal, experimental, refinement or atomic coordinate data resulting 
# from the CCDC's data processing and validation procedures.
#
#######################################################################

data_ELIZAC
_chemical_name_common            'vortioxetine 4-methylbenzoate'
_chemical_formula_moiety         'C18 H23 N2 S1 1+,C8 H7 O2 1-'
_chemical_name_systematic        
'4-(2-((2,4-dimethylphenyl)sulfanyl)phenyl)piperazin-1-ium 4-methylbenzoate'
_symmetry_cell_setting           monoclinic
_symmetry_space_group_name_H-M   'P 21/n'
_symmetry_Int_Tables_number      14
_space_group_name_Hall           '-P 2yn'
loop_
_symmetry_equiv_pos_site_id
_symmetry_equiv_pos_as_xyz
1 x,y,z
2 1/2-x,1/2+y,1/2-z
3 -x,-y,-z
4 1/2+x,1/2-y,1/2+z
_cell_length_a                   7.2773(4)
_cell_length_b                   26.6653(13)
_cell_length_c                   12.4565(6)
_cell_angle_alpha                90
_cell_angle_beta                 103.869(3)
_cell_angle_gamma                90
_cell_volume                     2346.73
_exptl_crystal_colour            colorless
_exptl_crystal_description       block
_cell_formula_units_Z            4
loop_
_atom_site_label
_atom_site_type_symbol
_atom_site_fract_x
_atom_site_fract_y
_atom_site_fract_z
C1 C 1.3198(3) 0.12277(7) 0.46096(14)
H1 H 1.4274 0.1365 0.5144
H2 H 1.2061 0.1311 0.4849
C2 C 1.1836(3) 0.04560(7) 0.37082(15)
H3 H 1.0637 0.0511 0.3901
H4 H 1.2028 0.0097 0.3665
C3 C 1.1786(2) 0.06939(6) 0.26043(13)
H5 H 1.2963 0.0627 0.2395
H6 H 1.0758 0.0552 0.2043
C4 C 1.3097(3) 0.14584(7) 0.34942(13)
H7 H 1.2911 0.1818 0.3528
H8 H 1.4273 0.1400 0.3277
C5 C 1.1098(2) 0.14968(6) 0.16540(12)
C6 C 1.1922(2) 0.13788(7) 0.07938(14)
H9 H 1.2800 0.1120 0.0879
C7 C 1.1458(3) 0.16401(8) -0.01869(15)
H10 H 1.2014 0.1555 -0.0761
C8 C 1.0177(3) 0.20255(8) -0.03169(15)
H11 H 0.9874 0.2204 -0.0978
C9 C 0.9334(3) 0.21506(7) 0.05294(14)
H12 H 0.8468 0.2413 0.0437
C10 C 0.9777(2) 0.18857(6) 0.15180(13)
C11 C 0.7281(2) 0.25245(6) 0.21695(14)
C12 C 0.5393(3) 0.24641(8) 0.16335(18)
H13 H 0.4885 0.2143 0.1510
C13 C 0.4259(3) 0.28760(10) 0.1281(2)
H14 H 0.2996 0.2829 0.0919
C14 C 0.4972(3) 0.33532(8) 0.14584(17)
C15 C 0.6841(3) 0.34067(7) 0.19910(14)
H15 H 0.7334 0.3729 0.2116
C16 C 0.8028(2) 0.30055(6) 0.23517(14)
C17 C 1.0059(3) 0.30935(9) 0.2928(2)
H16 H 1.0281 0.2981 0.3680
H17 H 1.0338 0.3445 0.2917
H18 H 1.0861 0.2911 0.2555
C18 C 0.3762(4) 0.38124(11) 0.1083(2)
H19 H 0.4512 0.4109 0.1284
H20 H 0.2721 0.3817 0.1433
H21 H 0.3286 0.3802 0.0295
H22 H 1.452(3) 0.0580(7) 0.4407(16)
H23 H 1.336(3) 0.0537(8) 0.531(2)
N1 N 1.3389(2) 0.06770(6) 0.45693(12)
N2 N 1.15161(18) 0.12335(5) 0.26806(10)
S1 S 0.86797(8) 0.198618(18) 0.26253(4)
C19 C 0.3033(2) 0.98018(6) 0.79028(13)
C20 C 0.3245(2) 0.93082(6) 0.82555(14)
H24 H 0.3516 0.9063 0.7785
C21 C 0.3061(2) 0.91737(6) 0.92956(15)
H25 H 0.3229 0.8841 0.9519
C22 C 0.2628(2) 0.95275(6) 1.00107(14)
C23 C 0.2390(2) 1.00170(6) 0.96485(14)
H26 H 0.2076 1.0260 1.0109
C24 C 0.2608(2) 1.01546(6) 0.86191(14)
H27 H 0.2467 1.0489 0.8404
C25 C 0.3259(2) 0.99491(7) 0.67767(14)
C26 C 0.2428(3) 0.93835(8) 1.11426(15)
H28 H 0.3650 0.9386 1.1651
H29 H 0.1893 0.9053 1.1117
H30 H 0.1612 0.9619 1.1384
O1 O 0.3235(2) 1.04073(5) 0.65653(11)
O2 O 0.34686(18) 0.96125(5) 0.61233(10)
loop_
_geom_bond_atom_site_label_1
_geom_bond_atom_site_label_2
_geom_bond_site_symmetry_1
_geom_bond_site_symmetry_2
C1 H1 1_555 1_555
H2 C1 1_555 1_555
C2 H3 1_555 1_555
H4 C2 1_555 1_555
C3 C2 1_555 1_555
H5 C3 1_555 1_555
H6 C3 1_555 1_555
C4 C1 1_555 1_555
H7 C4 1_555 1_555
H8 C4 1_555 1_555
C5 C6 1_555 1_555
C6 H9 1_555 1_555
C7 C6 1_555 1_555
H10 C7 1_555 1_555
C8 C7 1_555 1_555
H11 C8 1_555 1_555
C9 C8 1_555 1_555
H12 C9 1_555 1_555
C10 C5 1_555 1_555
C11 C12 1_555 1_555
C12 H13 1_555 1_555
C13 C12 1_555 1_555
H14 C13 1_555 1_555
C14 C13 1_555 1_555
C15 C14 1_555 1_555
H15 C15 1_555 1_555
C16 C11 1_555 1_555
C17 C16 1_555 1_555
H16 C17 1_555 1_555
H17 C17 1_555 1_555
H18 C17 1_555 1_555
C18 C14 1_555 1_555
H19 C18 1_555 1_555
H20 C18 1_555 1_555
H21 C18 1_555 1_555
H22 N1 1_555 1_555
H23 N1 1_555 1_555
N1 C1 1_555 1_555
N2 C3 1_555 1_555
S1 C10 1_555 1_555
C19 C20 1_555 1_555
C20 H24 1_555 1_555
C21 C20 1_555 1_555
H25 C21 1_555 1_555
C22 C21 1_555 1_555
C23 C22 1_555 1_555
H26 C23 1_555 1_555
C24 C19 1_555 1_555
H27 C24 1_555 1_555
C25 C19 1_555 1_555
C26 C22 1_555 1_555
H28 C26 1_555 1_555
H29 C26 1_555 1_555
H30 C26 1_555 1_555
O1 C25 1_555 1_555
O2 C25 1_555 1_555
C2 N1 1_555 1_555
C4 N2 1_555 1_555
C5 N2 1_555 1_555
C9 C10 1_555 1_555
C11 S1 1_555 1_555
C15 C16 1_555 1_555
C23 C24 1_555 1_555

#END
