
#######################################################################
#
#                 Cambridge Crystallographic Data Centre
#                                CCDC 
#
#######################################################################
#
# If this CIF has been generated from an entry in the Cambridge 
# Structural Database, then it will include bibliographic, chemical, 
# crystal, experimental, refinement or atomic coordinate data resulting 
# from the CCDC's data processing and validation procedures.
#
#######################################################################

data_ELOCIT
_chemical_formula_moiety         'C16 H9 Br1 N2 S1,C1 H1 Cl3'
_chemical_name_systematic        
'3-bromo-8-(2-thienyl)-1,10-phenanthroline chloroform solvate'
_symmetry_cell_setting           monoclinic
_symmetry_space_group_name_H-M   'P 21/n'
_symmetry_Int_Tables_number      14
_space_group_name_Hall           '-P 2yn'
loop_
_symmetry_equiv_pos_site_id
_symmetry_equiv_pos_as_xyz
1 x,y,z
2 1/2-x,1/2+y,1/2-z
3 -x,-y,-z
4 1/2+x,1/2-y,1/2+z
_cell_length_a                   7.8608(7)
_cell_length_b                   17.9046(15)
_cell_length_c                   12.9221(11)
_cell_angle_alpha                90
_cell_angle_beta                 93.934(2)
_cell_angle_gamma                90
_cell_volume                     1814.43
_exptl_crystal_colour            colorless
_exptl_crystal_description       block
_cell_formula_units_Z            4
loop_
_atom_site_label
_atom_site_type_symbol
_atom_site_fract_x
_atom_site_fract_y
_atom_site_fract_z
Br1 Br 0.51187(6) 1.13570(2) -0.41499(3)
C1 C 0.0576(5) 0.85432(18) -0.0309(3)
H1 H 0.0003 0.8107 -0.0509
C2 C 0.0714(4) 0.87153(17) 0.0757(2)
C3 C 0.1551(4) 0.93717(17) 0.1035(2)
H2 H 0.1657 0.9515 0.1728
C4 C 0.2240(4) 0.98237(17) 0.0286(2)
C5 C 0.3133(4) 1.05011(18) 0.0543(3)
H3 H 0.3245 1.0659 0.1230
C6 C 0.3820(4) 1.09169(18) -0.0199(3)
H4 H 0.4408 1.1353 -0.0015
C7 C 0.3650(4) 1.06900(17) -0.1267(2)
C8 C 0.4370(4) 1.11069(18) -0.2053(3)
H5 H 0.4963 1.1547 -0.1898
C9 C 0.4174(4) 1.0849(2) -0.3041(3)
C10 C 0.3258(5) 1.0193(2) -0.3266(3)
H6 H 0.3140 1.0030 -0.3951
C11 C 0.2755(4) 1.00340(17) -0.1554(2)
C12 C 0.2032(4) 0.95879(16) -0.0761(2)
C13 C -0.0009(4) 0.82240(18) 0.1525(2)
C14 C 0.0217(5) 0.8307(2) 0.2674(3)
H7 H 0.0833 0.8672 0.3049
C15 C -0.0744(6) 0.7687(2) 0.3082(3)
H8 H -0.0802 0.7615 0.3792
C16 C -0.1529(6) 0.7229(2) 0.2397(3)
H9 H -0.2149 0.6813 0.2578
N1 N 0.1195(4) 0.89509(15) -0.1047(2)
N2 N 0.2554(4) 0.97952(16) -0.2552(2)
S1 S -0.12830(15) 0.74857(6) 0.11633(8)
C17 C 0.9248(5) 0.8902(2) 0.6546(3)
H10 H 1.0098 0.9035 0.7106
Cl1 Cl 1.0294(2) 0.87950(11) 0.54080(12)
Cl2 Cl 0.7775(2) 0.96290(8) 0.64000(10)
Cl3 Cl 0.8248(2) 0.80839(9) 0.68948(17)
loop_
_geom_bond_atom_site_label_1
_geom_bond_atom_site_label_2
_geom_bond_site_symmetry_1
_geom_bond_site_symmetry_2
Br1 C9 1_555 1_555
C1 H1 1_555 1_555
C2 C1 1_555 1_555
C3 C2 1_555 1_555
H2 C3 1_555 1_555
C4 C3 1_555 1_555
C5 C4 1_555 1_555
H3 C5 1_555 1_555
C6 C5 1_555 1_555
H4 C6 1_555 1_555
C7 C6 1_555 1_555
C8 C7 1_555 1_555
H5 C8 1_555 1_555
C9 C8 1_555 1_555
C10 C9 1_555 1_555
H6 C10 1_555 1_555
C11 C7 1_555 1_555
C12 C4 1_555 1_555
C13 C2 1_555 1_555
C14 C13 1_555 1_555
H7 C14 1_555 1_555
C15 C14 1_555 1_555
H8 C15 1_555 1_555
C16 C15 1_555 1_555
H9 C16 1_555 1_555
N1 C1 1_555 1_555
N2 C10 1_555 1_555
S1 C13 1_555 1_555
C17 H10 1_555 1_555
Cl1 C17 1_555 1_555
Cl2 C17 1_555 1_555
Cl3 C17 1_555 1_555
C11 C12 1_555 1_555
C11 N2 1_555 1_555
C12 N1 1_555 1_555
C16 S1 1_555 1_555

#END
