
#######################################################################
#
#                 Cambridge Crystallographic Data Centre
#                                CCDC 
#
#######################################################################
#
# If this CIF has been generated from an entry in the Cambridge 
# Structural Database, then it will include bibliographic, chemical, 
# crystal, experimental, refinement or atomic coordinate data resulting 
# from the CCDC's data processing and validation procedures.
#
#######################################################################

data_ELOCAL
_chemical_formula_moiety         'C16 H10 N2 S1,C1 H1 Cl3'
_chemical_name_systematic        
'2-(2-thienyl)-1,10-phenanthroline chloroform solvate'
_symmetry_cell_setting           monoclinic
_symmetry_space_group_name_H-M   'P 21/c'
_symmetry_Int_Tables_number      14
_space_group_name_Hall           '-P 2ybc'
loop_
_symmetry_equiv_pos_site_id
_symmetry_equiv_pos_as_xyz
1 x,y,z
2 -x,1/2+y,1/2-z
3 -x,-y,-z
4 x,1/2-y,1/2+z
_cell_length_a                   10.674(3)
_cell_length_b                   8.628(3)
_cell_length_c                   18.557(5)
_cell_angle_alpha                90
_cell_angle_beta                 93.680(4)
_cell_angle_gamma                90
_cell_volume                     1705.49
_exptl_crystal_colour            colorless
_exptl_crystal_description       block
_cell_formula_units_Z            4
loop_
_atom_site_label
_atom_site_type_symbol
_atom_site_fract_x
_atom_site_fract_y
_atom_site_fract_z
C1 C 0.4662(3) 0.2955(4) 0.0523(2)
C2 C 0.4234(4) 0.3238(5) -0.0197(2)
H1 H 0.3533 0.3861 -0.0298
C3 C 0.4836(4) 0.2607(5) -0.0738(2)
H2 H 0.4558 0.2808 -0.1214
C4 C 0.5891(4) 0.1640(4) -0.0588(2)
C5 C 0.6546(4) 0.0921(5) -0.1136(2)
H3 H 0.6302 0.1114 -0.1617
C6 C 0.7517(4) -0.0037(5) -0.0973(2)
H4 H 0.7940 -0.0492 -0.1342
C7 C 0.7902(4) -0.0360(5) -0.0239(2)
C8 C 0.8881(4) -0.1382(5) -0.0048(3)
H5 H 0.9290 -0.1902 -0.0404
C9 C 0.9231(4) -0.1612(5) 0.0650(3)
H6 H 0.9884 -0.2287 0.0783
C10 C 0.8598(4) -0.0823(5) 0.1176(3)
H7 H 0.8852 -0.0989 0.1658
C11 C 0.7301(3) 0.0383(4) 0.0319(2)
C12 C 0.6249(3) 0.1407(4) 0.01457(19)
C13 C 0.4042(4) 0.3625(5) 0.1128(2)
C14 C 0.3500(5) 0.4483(7) 0.2323(3)
H8 H 0.3458 0.4702 0.2811
C15 C 0.2683(5) 0.5040(6) 0.1808(3)
H9 H 0.2004 0.5666 0.1905
C16 C 0.2951(4) 0.4586(5) 0.1111(2)
H10 H 0.2481 0.4872 0.0692
N1 N 0.5655(3) 0.2069(3) 0.06931(16)
N2 N 0.7651(3) 0.0155(4) 0.10231(19)
S1 S 0.46206(12) 0.33363(19) 0.19915(6)
C17 C 0.8300(4) 0.3653(5) 0.1587(2)
H11 H 0.7600 0.2921 0.1526
Cl1 Cl 0.77597(15) 0.53347(18) 0.20025(7)
Cl2 Cl 0.87950(13) 0.41183(15) 0.07284(7)
Cl3 Cl 0.95046(14) 0.2766(2) 0.21069(9)
loop_
_geom_bond_atom_site_label_1
_geom_bond_atom_site_label_2
_geom_bond_site_symmetry_1
_geom_bond_site_symmetry_2
C1 C2 1_555 1_555
C2 H1 1_555 1_555
C3 C2 1_555 1_555
H2 C3 1_555 1_555
C4 C3 1_555 1_555
C5 C4 1_555 1_555
H3 C5 1_555 1_555
C6 C5 1_555 1_555
H4 C6 1_555 1_555
C7 C6 1_555 1_555
C8 C7 1_555 1_555
H5 C8 1_555 1_555
C9 C8 1_555 1_555
H6 C9 1_555 1_555
C10 C9 1_555 1_555
H7 C10 1_555 1_555
C11 C7 1_555 1_555
C12 C4 1_555 1_555
C13 C1 1_555 1_555
C14 H8 1_555 1_555
C15 C14 1_555 1_555
H9 C15 1_555 1_555
C16 C13 1_555 1_555
H10 C16 1_555 1_555
N1 C1 1_555 1_555
N2 C10 1_555 1_555
S1 C13 1_555 1_555
C17 H11 1_555 1_555
Cl1 C17 1_555 1_555
Cl2 C17 1_555 1_555
Cl3 C17 1_555 1_555
C11 C12 1_555 1_555
C11 N2 1_555 1_555
C12 N1 1_555 1_555
C14 S1 1_555 1_555
C15 C16 1_555 1_555

#END
