
#######################################################################
#
#                 Cambridge Crystallographic Data Centre
#                                CCDC 
#
#######################################################################
#
# If this CIF has been generated from an entry in the Cambridge 
# Structural Database, then it will include bibliographic, chemical, 
# crystal, experimental, refinement or atomic coordinate data resulting 
# from the CCDC's data processing and validation procedures.
#
#######################################################################

data_ELODEQ
_chemical_formula_moiety         'C34 H23 N3 S1,C2 H6 O1'
_chemical_name_systematic        
'4-(5-(1,10-phenanthrolin-3-yl)-2-thienyl)-N,N-diphenylaniline ethanol solvate'
_symmetry_cell_setting           monoclinic
_symmetry_space_group_name_H-M   'P 21/c'
_symmetry_Int_Tables_number      14
_space_group_name_Hall           '-P 2ybc'
loop_
_symmetry_equiv_pos_site_id
_symmetry_equiv_pos_as_xyz
1 x,y,z
2 -x,1/2+y,1/2-z
3 -x,-y,-z
4 x,1/2-y,1/2+z
_cell_length_a                   13.2586(15)
_cell_length_b                   17.607(2)
_cell_length_c                   12.8033(14)
_cell_angle_alpha                90
_cell_angle_beta                 102.487(2)
_cell_angle_gamma                90
_cell_volume                     2918.15
_exptl_crystal_colour            yellow
_exptl_crystal_description       needle
_cell_formula_units_Z            4
loop_
_atom_site_label
_atom_site_type_symbol
_atom_site_fract_x
_atom_site_fract_y
_atom_site_fract_z
C1 C 0.5984(2) 0.08116(16) 0.5096(2)
H1 H 0.6034 0.0306 0.4904
C2 C 0.6446(2) 0.13547(16) 0.4541(2)
C3 C 0.6339(2) 0.20987(17) 0.4824(2)
H2 H 0.6621 0.2483 0.4479
C4 C 0.5811(2) 0.22864(16) 0.5625(2)
C5 C 0.5642(2) 0.30526(17) 0.5894(2)
H3 H 0.5908 0.3445 0.5549
C6 C 0.5097(2) 0.32160(18) 0.6645(3)
H4 H 0.4990 0.3721 0.6804
C7 C 0.4685(2) 0.26296(18) 0.7199(2)
C8 C 0.4110(2) 0.2775(2) 0.7973(3)
H5 H 0.3966 0.3273 0.8135
C9 C 0.3767(3) 0.2196(2) 0.8484(3)
H6 H 0.3373 0.2286 0.8990
C10 C 0.4010(3) 0.1465(2) 0.8241(3)
H7 H 0.3793 0.1071 0.8623
C11 C 0.4862(2) 0.18622(18) 0.6975(2)
C12 C 0.5403(2) 0.16931(16) 0.6139(2)
C13 C 0.6994(2) 0.11263(16) 0.3712(2)
C14 C 0.6977(2) 0.04399(17) 0.3210(2)
H8 H 0.6610 0.0020 0.3365
C15 C 0.7577(2) 0.04424(17) 0.2434(2)
H9 H 0.7653 0.0016 0.2029
C16 C 0.8039(2) 0.11161(16) 0.2318(2)
C17 C 0.8685(2) 0.13249(16) 0.1568(2)
C18 C 0.9278(2) 0.07859(17) 0.1186(2)
H10 H 0.9296 0.0291 0.1442
C19 C 0.9836(2) 0.09679(17) 0.0440(3)
H11 H 1.0229 0.0596 0.0199
C20 C 0.9826(2) 0.17032(15) 0.0037(2)
C21 C 0.9293(2) 0.22528(15) 0.0454(2)
H12 H 0.9313 0.2753 0.0227
C22 C 0.8728(2) 0.20705(16) 0.1202(2)
H13 H 0.8367 0.2450 0.1471
C23 C 1.1006(2) 0.24938(15) -0.0713(2)
C24 C 1.0999(2) 0.29786(16) -0.1562(3)
H14 H 1.0548 0.2890 -0.2215
C25 C 1.1655(3) 0.35924(17) -0.1447(3)
H15 H 1.1646 0.3914 -0.2025
C26 C 1.2315(3) 0.3734(2) -0.0496(3)
H16 H 1.2756 0.4151 -0.0425
C27 C 1.2329(2) 0.3264(2) 0.0349(3)
H17 H 1.2776 0.3364 0.1001
C28 C 1.1686(2) 0.26380(18) 0.0249(2)
H18 H 1.1709 0.2314 0.0827
C29 C 1.0025(2) 0.14588(15) -0.1783(2)
C30 C 1.0700(2) 0.13142(16) -0.2443(2)
H19 H 1.1379 0.1486 -0.2249
C31 C 1.0380(3) 0.09187(18) -0.3384(3)
H20 H 1.0840 0.0833 -0.3826
C32 C 0.9390(4) 0.06504(19) -0.3674(3)
H21 H 0.9179 0.0378 -0.4306
C33 C 0.8718(3) 0.07855(19) -0.3030(3)
H22 H 0.8045 0.0602 -0.3223
C34 C 0.9025(2) 0.11933(16) -0.2091(3)
H23 H 0.8555 0.1289 -0.1664
N1 N 0.54902(19) 0.09521(13) 0.5860(2)
N2 N 0.45347(19) 0.12817(15) 0.7497(2)
N3 N 1.03378(19) 0.18606(13) -0.08115(18)
S1 S 0.77436(6) 0.17674(4) 0.32100(6)
C35 C 0.6475(5) 1.0118(3) 0.8665(6)
H24 H 0.6795 1.0608 0.8611
H25 H 0.5929 1.0182 0.9054
C36 C 0.7216(5) 0.9586(4) 0.9188(6)
H26 H 0.6889 0.9104 0.9224
H27 H 0.7509 0.9761 0.9899
H28 H 0.7753 0.9534 0.8796
O1 O 0.6067(3) 0.98063(18) 0.7612(3)
H29 H 0.5969 1.0215 0.7104
loop_
_geom_bond_atom_site_label_1
_geom_bond_atom_site_label_2
_geom_bond_site_symmetry_1
_geom_bond_site_symmetry_2
C1 H1 1_555 1_555
C2 C1 1_555 1_555
C3 C2 1_555 1_555
H2 C3 1_555 1_555
C4 C3 1_555 1_555
C5 C4 1_555 1_555
H3 C5 1_555 1_555
C6 C5 1_555 1_555
H4 C6 1_555 1_555
C7 C6 1_555 1_555
C8 C7 1_555 1_555
H5 C8 1_555 1_555
C9 C8 1_555 1_555
H6 C9 1_555 1_555
C10 C9 1_555 1_555
H7 C10 1_555 1_555
C11 C7 1_555 1_555
C12 C4 1_555 1_555
C13 C2 1_555 1_555
C14 C13 1_555 1_555
H8 C14 1_555 1_555
C15 C14 1_555 1_555
H9 C15 1_555 1_555
C16 C15 1_555 1_555
C17 C16 1_555 1_555
C18 C17 1_555 1_555
H10 C18 1_555 1_555
C19 C18 1_555 1_555
H11 C19 1_555 1_555
C20 C19 1_555 1_555
C21 C20 1_555 1_555
H12 C21 1_555 1_555
C22 C17 1_555 1_555
H13 C22 1_555 1_555
C23 C24 1_555 1_555
C24 H14 1_555 1_555
C25 C24 1_555 1_555
H15 C25 1_555 1_555
C26 C25 1_555 1_555
H16 C26 1_555 1_555
C27 C26 1_555 1_555
H17 C27 1_555 1_555
C28 C23 1_555 1_555
H18 C28 1_555 1_555
C29 C30 1_555 1_555
C30 H19 1_555 1_555
C31 C30 1_555 1_555
H20 C31 1_555 1_555
C32 C31 1_555 1_555
H21 C32 1_555 1_555
C33 C32 1_555 1_555
H22 C33 1_555 1_555
C34 C29 1_555 1_555
H23 C34 1_555 1_555
N1 C1 1_555 1_555
N2 C10 1_555 1_555
N3 C20 1_555 1_555
S1 C13 1_555 1_555
C35 H24 1_555 1_555
H25 C35 1_555 1_555
C36 C35 1_555 1_555
H26 C36 1_555 1_555
H27 C36 1_555 1_555
H28 C36 1_555 1_555
O1 C35 1_555 1_555
H29 O1 1_555 1_555
C11 C12 1_555 1_555
C11 N2 1_555 1_555
C12 N1 1_555 1_555
C16 S1 1_555 1_555
C21 C22 1_555 1_555
C23 N3 1_555 1_555
C27 C28 1_555 1_555
C29 N3 1_555 1_555
C33 C34 1_555 1_555

#END
