
#######################################################################
#
#                 Cambridge Crystallographic Data Centre
#                                CCDC 
#
#######################################################################
#
# If this CIF has been generated from an entry in the Cambridge 
# Structural Database, then it will include bibliographic, chemical, 
# crystal, experimental, refinement or atomic coordinate data resulting 
# from the CCDC's data processing and validation procedures.
#
#######################################################################

data_ELOMIB
_chemical_formula_moiety         'C23 H21 N5 O2 S1'
_chemical_name_systematic        
11-Ethenyl-8,8,9,9-tetracyano-3-(p-toluenesulfonato)-3-azabicyclo(5.4.0)undec-1(11)-ene
_symmetry_cell_setting           monoclinic
_symmetry_space_group_name_H-M   'P 21/c'
_symmetry_Int_Tables_number      14
_space_group_name_Hall           '-P 2ybc'
loop_
_symmetry_equiv_pos_site_id
_symmetry_equiv_pos_as_xyz
1 x,y,z
2 x,1/2-y,1/2+z
3 -x,-y,-z
4 -x,1/2+y,1/2-z
_cell_length_a                   14.209(4)
_cell_length_b                   12.367(3)
_cell_length_c                   12.819(3)
_cell_angle_alpha                90
_cell_angle_beta                 99.104(5)
_cell_angle_gamma                90
_cell_volume                     2224.21
_exptl_crystal_colour            white
_cell_formula_units_Z            4
loop_
_atom_site_label
_atom_site_type_symbol
_atom_site_fract_x
_atom_site_fract_y
_atom_site_fract_z
C1 C 0.77209(14) 0.2074(2) 0.97653(16)
C2 C 0.71037(15) 0.1200(2) 0.95975(16)
H1 H 0.7308(11) 0.0513(14) 0.9410(13)
C3 C 0.61639(14) 0.12913(18) 0.97342(15)
H2 H 0.5769(13) 0.0703(15) 0.9643(14)
C4 C 0.58261(12) 0.22672(15) 1.00400(13)
C5 C 0.64329(15) 0.31395(19) 1.02330(16)
H3 H 0.6204(12) 0.3775(14) 1.0416(14)
C6 C 0.73755(16) 0.3029(2) 1.01052(17)
H4 H 0.7772(14) 0.3616(16) 1.0212(16)
C7 C 0.87348(15) 0.1982(2) 0.9559(2)
H5 H 0.8737 0.1930 0.8812
H6 H 0.9025 0.1348 0.9902
H7 H 0.9087 0.2611 0.9831
S1 S 0.46177(3) 0.24075(4) 1.01773(4)
O1 O 0.42960(9) 0.13848(12) 1.05081(11)
O2 O 0.45326(9) 0.33502(12) 1.07972(11)
C8 C 0.39553(13) 0.17533(19) 0.82432(18)
H8 H 0.4272(14) 0.1964(16) 0.7693(18)
H9 H 0.4266(13) 0.1113(15) 0.8615(14)
N1 N 0.40196(9) 0.26487(12) 0.90098(11)
C9 C 0.40708(15) 0.37378(19) 0.8557(2)
H10 H 0.4397(13) 0.4228(15) 0.9163(15)
H11 H 0.4455(14) 0.3693(16) 0.8047(17)
C10 C 0.30902(15) 0.41378(17) 0.81017(19)
H12 H 0.3134(12) 0.4809(15) 0.7756(14)
H13 H 0.2719(13) 0.4241(14) 0.8696(15)
C11 C 0.25327(14) 0.33949(16) 0.72769(16)
H14 H 0.2930(12) 0.3213(13) 0.6696(15)
H15 H 0.1961(12) 0.3763(13) 0.6936(13)
C12 C 0.12664(11) 0.19477(13) 0.70461(13)
C13 C 0.09897(11) 0.07780(13) 0.73679(15)
C14 C 0.17583(12) -0.00169(16) 0.71265(19)
H16 H 0.1635(12) -0.0708(14) 0.7453(14)
H17 H 0.1664(11) -0.0131(14) 0.6326(16)
C15 C 0.27540(11) 0.03968(14) 0.75213(13)
C16 C 0.29458(10) 0.14183(13) 0.78094(12)
C17 C 0.22097(11) 0.23182(13) 0.77275(14)
H18 H 0.2072(11) 0.2448(12) 0.8396(13)
C18 C 0.34961(14) -0.04362(17) 0.75274(16)
H19 H 0.4138(16) -0.0180(17) 0.7584(17)
C19 C 0.33775(18) -0.14724(19) 0.74612(16)
H20 H 0.2769(16) -0.1848(15) 0.7414(16)
H21 H 0.3883(14) -0.1941(15) 0.7403(15)
C20 C 0.04822(13) 0.26963(15) 0.71681(15)
N2 N -0.01423(13) 0.32378(14) 0.72668(15)
C21 C 0.13755(13) 0.19017(15) 0.59158(16)
N3 N 0.14733(14) 0.18441(15) 0.50621(15)
C22 C 0.00451(14) 0.04972(15) 0.67650(19)
N4 N -0.06771(14) 0.03457(15) 0.6279(2)
C23 C 0.09407(12) 0.07619(15) 0.85121(18)
N5 N 0.09281(13) 0.07332(15) 0.93986(17)
loop_
_geom_bond_atom_site_label_1
_geom_bond_atom_site_label_2
_geom_bond_site_symmetry_1
_geom_bond_site_symmetry_2
C1 C2 1_555 1_555
C2 H1 1_555 1_555
C3 C2 1_555 1_555
H2 C3 1_555 1_555
C4 C3 1_555 1_555
C5 C4 1_555 1_555
H3 C5 1_555 1_555
C6 C1 1_555 1_555
H4 C6 1_555 1_555
C7 C1 1_555 1_555
H5 C7 1_555 1_555
H6 C7 1_555 1_555
H7 C7 1_555 1_555
S1 C4 1_555 1_555
O1 S1 1_555 1_555
O2 S1 1_555 1_555
C8 H8 1_555 1_555
H9 C8 1_555 1_555
N1 S1 1_555 1_555
C9 N1 1_555 1_555
H10 C9 1_555 1_555
H11 C9 1_555 1_555
C10 C9 1_555 1_555
H12 C10 1_555 1_555
H13 C10 1_555 1_555
C11 C10 1_555 1_555
H14 C11 1_555 1_555
H15 C11 1_555 1_555
C12 C13 1_555 1_555
C13 C14 1_555 1_555
C14 H16 1_555 1_555
H17 C14 1_555 1_555
C15 C14 1_555 1_555
C16 C8 1_555 1_555
C17 C11 1_555 1_555
H18 C17 1_555 1_555
C18 C15 1_555 1_555
H19 C18 1_555 1_555
C19 C18 1_555 1_555
H20 C19 1_555 1_555
H21 C19 1_555 1_555
C20 C12 1_555 1_555
N2 C20 1_555 1_555
C21 C12 1_555 1_555
N3 C21 1_555 1_555
C22 C13 1_555 1_555
N4 C22 1_555 1_555
C23 C13 1_555 1_555
N5 C23 1_555 1_555
C5 C6 1_555 1_555
C8 N1 1_555 1_555
C12 C17 1_555 1_555
C15 C16 1_555 1_555
C16 C17 1_555 1_555

#END
