
#######################################################################
#
#                 Cambridge Crystallographic Data Centre
#                                CCDC 
#
#######################################################################
#
# If this CIF has been generated from an entry in the Cambridge 
# Structural Database, then it will include bibliographic, chemical, 
# crystal, experimental, refinement or atomic coordinate data resulting 
# from the CCDC's data processing and validation procedures.
#
#######################################################################

data_ELOPEC
_chemical_formula_moiety         'C15 H20 N2 O2 S1,C1 H4 O1'
_chemical_name_systematic        
"8a-hydroxy-6,7,8,8a-tetrahydro-3H-spiro[1-benzothieno[2,3-d]pyrimidine-2,1'-cyclohexan]-4(5H)-one methanol solvate"
_symmetry_cell_setting           triclinic
_symmetry_space_group_name_H-M   'P -1'
_symmetry_Int_Tables_number      2
_space_group_name_Hall           '-P 1'
loop_
_symmetry_equiv_pos_site_id
_symmetry_equiv_pos_as_xyz
1 x,y,z
2 -x,-y,-z
_cell_length_a                   6.7812(7)
_cell_length_b                   10.3733(10)
_cell_length_c                   12.2852(13)
_cell_angle_alpha                88.398(8)
_cell_angle_beta                 74.952(9)
_cell_angle_gamma                81.195(9)
_cell_volume                     824.651
_exptl_crystal_colour            colorless
_exptl_crystal_description       block
_cell_formula_units_Z            2
loop_
_atom_site_label
_atom_site_type_symbol
_atom_site_fract_x
_atom_site_fract_y
_atom_site_fract_z
S1 S 0.18352(6) 0.47758(4) 0.08497(3)
O1 O 0.22302(17) 0.21377(10) 0.08375(9)
H1 H 0.3518 0.2109 0.0621
O2 O 0.40511(18) 0.38371(11) 0.44440(9)
N1 N 0.34947(19) 0.64081(12) 0.18581(10)
C1 C 0.3075(2) 0.42734(14) 0.27241(12)
N2 N 0.4461(2) 0.57928(12) 0.36159(10)
H2 H 0.4868 0.6025 0.4196
C2 C 0.3907(2) 0.46011(15) 0.36648(12)
C3 C 0.2939(2) 0.52846(15) 0.18794(12)
C4 C -0.0928(2) 0.31467(15) 0.20344(13)
H3 H -0.1580 0.3139 0.1401
H4 H -0.1597 0.3929 0.2508
C5 C 0.1378(2) 0.32034(15) 0.15744(12)
C6 C 0.2122(3) 0.19964(15) 0.32748(13)
H5 H 0.2721 0.2064 0.3922
H6 H 0.2877 0.1214 0.2823
C7 C 0.2339(2) 0.31884(15) 0.25657(12)
C8 C 0.6656(3) 0.87936(16) 0.33575(14)
H7 H 0.7365 0.9122 0.3879
H8 H 0.6645 0.9432 0.2744
C9 C -0.1237(3) 0.19133(16) 0.27385(14)
H9 H -0.2733 0.1897 0.3053
H10 H -0.0657 0.1132 0.2248
C10 C 0.3314(2) 0.80858(15) 0.32393(13)
H11 H 0.3147 0.8704 0.2629
H12 H 0.1918 0.7966 0.3692
C11 C 0.6715(2) 0.69083(16) 0.20995(13)
H13 H 0.7477 0.6040 0.1817
H14 H 0.6712 0.7479 0.1440
C12 C 0.4474(2) 0.67677(14) 0.27135(12)
C13 C 0.4436(3) 0.86744(15) 0.39928(13)
H15 H 0.3683 0.9549 0.4263
H16 H 0.4444 0.8116 0.4659
C14 C -0.0179(3) 0.18708(17) 0.37038(14)
H17 H -0.0318 0.1037 0.4108
H18 H -0.0881 0.2590 0.4245
C15 C 0.7841(3) 0.74805(17) 0.28586(13)
H19 H 0.7982 0.6868 0.3476
H20 H 0.9245 0.7597 0.2414
O3 O 0.37272(17) 0.78193(11) -0.01001(9)
H21 H 0.3613 0.7412 0.0508
C16 C 0.2224(3) 0.89636(17) 0.00660(15)
H22 H 0.2494 0.9508 -0.0606
H23 H 0.2301 0.9454 0.0720
H24 H 0.0844 0.8717 0.0198
loop_
_geom_bond_atom_site_label_1
_geom_bond_atom_site_label_2
_geom_bond_site_symmetry_1
_geom_bond_site_symmetry_2
S1 C3 1_555 1_555
O1 H1 1_555 1_555
O2 C2 1_555 1_555
N1 C3 1_555 1_555
C1 C2 1_555 1_555
N2 H2 1_555 1_555
C2 N2 1_555 1_555
C3 C1 1_555 1_555
C4 H3 1_555 1_555
H4 C4 1_555 1_555
C5 S1 1_555 1_555
C6 H5 1_555 1_555
H6 C6 1_555 1_555
C7 C1 1_555 1_555
C8 H7 1_555 1_555
H8 C8 1_555 1_555
C9 C4 1_555 1_555
H9 C9 1_555 1_555
H10 C9 1_555 1_555
C10 H11 1_555 1_555
H12 C10 1_555 1_555
C11 H13 1_555 1_555
H14 C11 1_555 1_555
C12 N1 1_555 1_555
C13 C8 1_555 1_555
H15 C13 1_555 1_555
H16 C13 1_555 1_555
C14 C6 1_555 1_555
H17 C14 1_555 1_555
H18 C14 1_555 1_555
C15 C8 1_555 1_555
H19 C15 1_555 1_555
H20 C15 1_555 1_555
O3 H21 1_555 1_555
C16 O3 1_555 1_555
H22 C16 1_555 1_555
H23 C16 1_555 1_555
H24 C16 1_555 1_555
O1 C5 1_555 1_555
N2 C12 1_555 1_555
C4 C5 1_555 1_555
C5 C7 1_555 1_555
C6 C7 1_555 1_555
C9 C14 1_555 1_555
C10 C12 1_555 1_555
C10 C13 1_555 1_555
C11 C12 1_555 1_555
C11 C15 1_555 1_555

#END
