
#######################################################################
#
#                 Cambridge Crystallographic Data Centre
#                                CCDC 
#
#######################################################################
#
# If this CIF has been generated from an entry in the Cambridge 
# Structural Database, then it will include bibliographic, chemical, 
# crystal, experimental, refinement or atomic coordinate data resulting 
# from the CCDC's data processing and validation procedures.
#
#######################################################################

data_ELUFEY
_chemical_formula_moiety         'C21 H12 Cl1 N3 O2'
_chemical_name_systematic        
7-chloro-11-(quinolin-8-yl)pyrido[3,2-b][1,4]benzoxazepin-10(11H)-one
_symmetry_cell_setting           triclinic
_symmetry_space_group_name_H-M   'P -1'
_symmetry_Int_Tables_number      2
_space_group_name_Hall           '-P 1'
loop_
_symmetry_equiv_pos_site_id
_symmetry_equiv_pos_as_xyz
1 x,y,z
2 -x,-y,-z
_cell_length_a                   7.1470(16)
_cell_length_b                   7.9449(18)
_cell_length_c                   16.405(4)
_cell_angle_alpha                101.767(2)
_cell_angle_beta                 96.018(2)
_cell_angle_gamma                106.7307(18)
_cell_volume                     859.942
_exptl_crystal_colour            colorless
_exptl_crystal_description       block
_cell_formula_units_Z            2
loop_
_atom_site_label
_atom_site_type_symbol
_atom_site_fract_x
_atom_site_fract_y
_atom_site_fract_z
C1 C 0.2446(4) 0.2033(3) 1.00234(15)
H1 H 0.2440 0.0902 1.0097
C2 C 0.2893(4) 0.3454(3) 1.07502(15)
H2 H 0.3190 0.3266 1.1283
C3 C 0.2885(3) 0.5100(3) 1.06605(13)
H3 H 0.3168 0.6062 1.1134
C4 C 0.2446(3) 0.5362(3) 0.98479(12)
C5 C 0.2415(3) 0.7035(3) 0.97001(14)
H4 H 0.2684 0.8033 1.0156
C6 C 0.1998(3) 0.7215(3) 0.89015(14)
H5 H 0.1990 0.8333 0.8814
C7 C 0.1579(3) 0.5715(3) 0.82054(13)
H6 H 0.1273 0.5839 0.7660
C8 C 0.1621(3) 0.4084(2) 0.83301(12)
C9 C 0.2039(3) 0.3845(2) 0.91521(12)
C10 C -0.3795(3) 0.0199(3) 0.77082(15)
H7 H -0.4882 0.0510 0.7873
C11 C -0.4000(3) -0.1584(3) 0.74191(14)
H8 H -0.5210 -0.2470 0.7378
C12 C -0.2381(4) -0.2061(3) 0.71870(13)
H9 H -0.2483 -0.3272 0.6985
C13 C -0.0626(3) -0.0718(2) 0.72603(11)
C14 C -0.0515(3) 0.1087(2) 0.75374(12)
C15 C 0.2535(3) 0.2654(3) 0.70509(13)
C16 C 0.1593(3) -0.0705(3) 0.63396(12)
C17 C 0.2216(3) 0.1096(3) 0.63069(12)
C18 C 0.2761(3) 0.1473(3) 0.55588(13)
H10 H 0.3191 0.2673 0.5523
C19 C 0.2684(3) 0.0132(3) 0.48742(13)
H11 H 0.3029 0.0410 0.4375
C20 C 0.2086(3) -0.1646(3) 0.49364(13)
C21 C 0.1540(3) -0.2093(3) 0.56627(13)
H12 H 0.1147 -0.3294 0.5699
Cl1 Cl 0.19872(10) -0.33558(9) 0.40693(4)
N1 N -0.2080(3) 0.1544(2) 0.77670(12)
N2 N 0.1256(2) 0.2541(2) 0.76203(10)
N3 N 0.2034(3) 0.2174(2) 0.92457(11)
O1 O 0.1035(2) -0.11834(18) 0.70701(8)
O2 O 0.3939(2) 0.4027(2) 0.71330(11)
loop_
_geom_bond_atom_site_label_1
_geom_bond_atom_site_label_2
_geom_bond_site_symmetry_1
_geom_bond_site_symmetry_2
C1 H1 1_555 1_555
C2 C1 1_555 1_555
H2 C2 1_555 1_555
C3 C2 1_555 1_555
H3 C3 1_555 1_555
C4 C3 1_555 1_555
C5 C4 1_555 1_555
H4 C5 1_555 1_555
C6 C5 1_555 1_555
H5 C6 1_555 1_555
C7 C6 1_555 1_555
H6 C7 1_555 1_555
C8 C7 1_555 1_555
C9 C4 1_555 1_555
C10 H7 1_555 1_555
C11 C10 1_555 1_555
H8 C11 1_555 1_555
C12 C11 1_555 1_555
H9 C12 1_555 1_555
C13 C12 1_555 1_555
C14 C13 1_555 1_555
C15 C17 1_555 1_555
C16 C17 1_555 1_555
C17 C18 1_555 1_555
C18 H10 1_555 1_555
C19 C18 1_555 1_555
H11 C19 1_555 1_555
C20 C19 1_555 1_555
C21 C16 1_555 1_555
H12 C21 1_555 1_555
Cl1 C20 1_555 1_555
N1 C10 1_555 1_555
N2 C8 1_555 1_555
N3 C1 1_555 1_555
O1 C13 1_555 1_555
O2 C15 1_555 1_555
C8 C9 1_555 1_555
C9 N3 1_555 1_555
C14 N1 1_555 1_555
C14 N2 1_555 1_555
C15 N2 1_555 1_555
C16 O1 1_555 1_555
C20 C21 1_555 1_555

#END
