
#######################################################################
#
#                 Cambridge Crystallographic Data Centre
#                                CCDC 
#
#######################################################################
#
# If this CIF has been generated from an entry in the Cambridge 
# Structural Database, then it will include bibliographic, chemical, 
# crystal, experimental, refinement or atomic coordinate data resulting 
# from the CCDC's data processing and validation procedures.
#
#######################################################################

data_ELUHEA
_chemical_formula_moiety         'C44 H30 N4 O4,3(C12 H8 N2),2(C1 H4 O1)'
_chemical_name_systematic        
'5,10,15,20-tetrakis(4-hydroxyphenyl)porphyrin tris(phenazine) methanol solvate'
_symmetry_cell_setting           triclinic
_symmetry_space_group_name_H-M   'P -1'
_symmetry_Int_Tables_number      2
_space_group_name_Hall           '-P 1'
loop_
_symmetry_equiv_pos_site_id
_symmetry_equiv_pos_as_xyz
1 x,y,z
2 -x,-y,-z
_cell_length_a                   6.0722(5)
_cell_length_b                   15.4167(16)
_cell_length_c                   16.9383(18)
_cell_angle_alpha                88.096(4)
_cell_angle_beta                 86.696(4)
_cell_angle_gamma                85.177(4)
_cell_volume                     1576.77
_exptl_crystal_colour            red
_exptl_crystal_description       needle
_cell_formula_units_Z            1
loop_
_atom_site_label
_atom_site_type_symbol
_atom_site_fract_x
_atom_site_fract_y
_atom_site_fract_z
O1 O 0.9043(2) 0.82886(9) 0.73979(8)
H1 H 0.8200 0.8900 0.7419
O2 O 0.0851(2) 0.84569(9) 0.05200(7)
H2 H -0.0570 0.8879 0.0413
N1 N 0.1687(2) 0.48525(9) 0.60475(8)
H3 H 0.1018 0.4818 0.5590
N2 N 0.1926(2) 0.59428(9) 0.45671(8)
C1 C 0.7785(3) 0.77723(12) 0.69996(11)
C2 C 0.8700(3) 0.69518(13) 0.68004(11)
H4 H 1.0152 0.6759 0.6946
C3 C 0.7497(3) 0.64115(12) 0.63890(11)
H5 H 0.8132 0.5847 0.6257
C4 C 0.5373(3) 0.66804(11) 0.61645(10)
C5 C 0.3985(3) 0.60903(11) 0.57666(10)
C6 C 0.3146(3) 0.54282(11) 0.62440(10)
C7 C -0.1132(3) 0.56523(11) 0.33010(10)
C8 C 0.0486(3) 0.62502(11) 0.32472(10)
C9 C 0.1938(3) 0.63685(11) 0.38444(10)
C10 C 0.3491(3) 0.62930(11) 0.49798(10)
C11 C 0.0689(3) 0.79141(11) 0.11655(10)
C12 C 0.2518(3) 0.73491(12) 0.13308(10)
H6 H 0.3810 0.7337 0.0986
C13 C 0.2468(3) 0.68033(11) 0.19962(10)
H7 H 0.3732 0.6421 0.2104
C14 C 0.0589(3) 0.68063(11) 0.25108(10)
C15 C 0.5658(3) 0.80488(12) 0.67892(11)
H8 H 0.5012 0.8608 0.6932
C16 C 0.4483(3) 0.75041(12) 0.63694(11)
H9 H 0.3037 0.7700 0.6219
C17 C 0.3607(3) 0.69864(11) 0.37972(10)
H10 H 0.3959 0.7356 0.3356
C18 C 0.4570(3) 0.69402(12) 0.44960(10)
H11 H 0.5731 0.7268 0.4642
C19 C 0.3564(3) 0.52637(12) 0.70624(10)
H12 H 0.4520 0.5564 0.7362
C20 C -0.2356(3) 0.53955(11) 0.26657(10)
H13 H -0.2329 0.5643 0.2144
C21 C -0.1215(3) 0.79100(12) 0.16579(10)
H14 H -0.2488 0.8282 0.1541
C22 C -0.1252(3) 0.73614(12) 0.23206(10)
H15 H -0.2563 0.7362 0.2655
O1A O -0.9043(2) 0.17114(9) 0.26021(8)
H1A H -0.8200 0.1100 0.2581
O2A O -0.0851(2) 0.15431(9) 0.94800(7)
H2A H 0.0570 0.1121 0.9587
N1A N -0.1687(2) 0.51475(9) 0.39525(8)
H3A H -0.1018 0.5182 0.4410
N2A N -0.1926(2) 0.40572(9) 0.54329(8)
C1A C -0.7785(3) 0.22277(12) 0.30004(11)
C2A C -0.8700(3) 0.30482(13) 0.31996(11)
H4A H -1.0152 0.3241 0.3054
C3A C -0.7497(3) 0.35885(12) 0.36110(11)
H5A H -0.8132 0.4153 0.3743
C4A C -0.5373(3) 0.33196(11) 0.38355(10)
C5A C -0.3985(3) 0.39097(11) 0.42334(10)
C6A C -0.3146(3) 0.45718(11) 0.37560(10)
C7A C 0.1132(3) 0.43477(11) 0.66990(10)
C8A C -0.0486(3) 0.37498(11) 0.67528(10)
C9A C -0.1938(3) 0.36315(11) 0.61556(10)
C10A C -0.3491(3) 0.37070(11) 0.50202(10)
C11A C -0.0689(3) 0.20859(11) 0.88345(10)
C12A C -0.2518(3) 0.26509(12) 0.86692(10)
H6A H -0.3810 0.2663 0.9014
C13A C -0.2468(3) 0.31967(11) 0.80038(10)
H7A H -0.3732 0.3579 0.7896
C14A C -0.0589(3) 0.31937(11) 0.74892(10)
C15A C -0.5658(3) 0.19512(12) 0.32108(11)
H8A H -0.5012 0.1392 0.3068
C16A C -0.4483(3) 0.24959(12) 0.36306(11)
H9A H -0.3037 0.2300 0.3781
C17A C -0.3607(3) 0.30136(11) 0.62028(10)
H10A H -0.3959 0.2644 0.6644
C18A C -0.4570(3) 0.30598(12) 0.55040(10)
H11A H -0.5731 0.2732 0.5358
C19A C -0.3564(3) 0.47363(12) 0.29376(10)
H12A H -0.4520 0.4436 0.2638
C20A C 0.2356(3) 0.46045(11) 0.73343(10)
H13A H 0.2329 0.4357 0.7856
C21A C 0.1215(3) 0.20900(12) 0.83421(10)
H14A H 0.2488 0.1718 0.8459
C22A C 0.1252(3) 0.26386(12) 0.76794(10)
H15A H 0.2563 0.2638 0.7345
O3 O -0.7020(4) 0.00904(11) 0.26476(11)
H16 H -0.6690 -0.0007 0.3190
C23 C -0.7108(4) -0.06360(15) 0.22396(14)
H17 H -0.5851 -0.1050 0.2362
H18 H -0.7042 -0.0490 0.1672
H19 H -0.8494 -0.0898 0.2387
N3 N 0.4715(3) 0.47182(10) 0.92234(9)
C24 C 0.9402(4) 0.60208(14) 0.88785(12)
H20 H 1.0361 0.6197 0.8451
C25 C 0.7777(3) 0.55029(14) 0.87422(11)
H21 H 0.7617 0.5318 0.8221
C26 C 0.6309(3) 0.52327(12) 0.93693(11)
C27 C 0.6601(3) 0.55180(12) 1.01566(11)
C28 C 0.8327(3) 0.60599(13) 1.02718(11)
H22 H 0.8529 0.6254 1.0787
C29 C 0.9691(4) 0.63046(13) 0.96571(12)
H23 H 1.0842 0.6666 0.9745
N3A N 0.5285(3) 0.52818(10) 1.07766(9)
C24A C 0.0598(4) 0.39792(14) 1.11215(12)
H20A H -0.0361 0.3803 1.1549
C25A C 0.2223(3) 0.44971(14) 1.12578(11)
H21A H 0.2383 0.4682 1.1779
C26A C 0.3691(3) 0.47673(12) 1.06307(11)
C27A C 0.3399(3) 0.44820(12) 0.98434(11)
C28A C 0.1673(3) 0.39401(13) 0.97282(11)
H22A H 0.1471 0.3746 0.9213
C29A C 0.0309(4) 0.36954(13) 1.03429(12)
H23A H -0.0842 0.3334 1.0255
N4 N 0.3070(3) 0.04917(10) 0.97650(9)
C30 C 0.5161(4) 0.19480(15) 1.11242(12)
H24 H 0.4780 0.2508 1.1333
C31 C 0.3843(3) 0.16320(13) 1.06028(12)
H25 H 0.2549 0.1970 1.0450
C32 C 0.4386(3) 0.08002(13) 1.02854(11)
C33 C 0.6343(3) 0.02982(12) 1.05245(11)
C34 C 0.7675(3) 0.06550(14) 1.10763(11)
H26 H 0.8973 0.0329 1.1243
C35 C 0.7103(4) 0.14559(14) 1.13636(12)
H27 H 0.8007 0.1691 1.1729
N4A N 0.6930(3) -0.04917(10) 1.02350(9)
C30A C 0.4839(4) -0.19480(15) 0.88758(12)
H24A H 0.5220 -0.2508 0.8667
C31A C 0.6157(3) -0.16320(13) 0.93972(12)
H25A H 0.7451 -0.1970 0.9550
C32A C 0.5614(3) -0.08002(13) 0.97146(11)
C33A C 0.3657(3) -0.02982(12) 0.94755(11)
C34A C 0.2325(3) -0.06550(14) 0.89237(11)
H26A H 0.1027 -0.0329 0.8757
C35A C 0.2897(4) -0.14559(14) 0.86364(12)
H27A H 0.1993 -0.1691 0.8271
N5 N 0.5759(3) 0.00334(10) 0.57706(9)
C36 C -0.0081(3) 0.14085(13) 0.51642(12)
H28 H -0.1413 0.1737 0.5036
C37 C 0.1081(3) 0.09236(13) 0.46039(12)
H29 H 0.0552 0.0906 0.4088
C38 C 0.3088(3) 0.04427(12) 0.47890(11)
C39 C 0.3863(3) 0.04716(12) 0.55682(11)
C40 C 0.2576(3) 0.09759(13) 0.61406(12)
H30 H 0.3050 0.0995 0.6664
C41 C 0.0675(3) 0.14293(13) 0.59410(12)
H31 H -0.0171 0.1768 0.6327
N5A N 0.4241(3) -0.00334(10) 0.42294(9)
C36A C 1.0081(3) -0.14085(13) 0.48358(12)
H28A H 1.1413 -0.1737 0.4964
C37A C 0.8919(3) -0.09236(13) 0.53961(12)
H29A H 0.9448 -0.0906 0.5912
C38A C 0.6912(3) -0.04427(12) 0.52110(11)
C39A C 0.6137(3) -0.04716(12) 0.44318(11)
C40A C 0.7424(3) -0.09759(13) 0.38594(12)
H30A H 0.6950 -0.0995 0.3336
C41A C 0.9325(3) -0.14293(13) 0.40590(12)
H31A H 1.0171 -0.1768 0.3673
loop_
_geom_bond_atom_site_label_1
_geom_bond_atom_site_label_2
_geom_bond_site_symmetry_1
_geom_bond_site_symmetry_2
O1 H1 1_555 1_555
O2 H2 1_555 1_555
N1 H3 1_555 1_555
N2 C9 1_555 1_555
C1 O1 1_555 1_555
C2 C1 1_555 1_555
H4 C2 1_555 1_555
C3 C2 1_555 1_555
H5 C3 1_555 1_555
C4 C3 1_555 1_555
C5 C4 1_555 1_555
C6 N1 1_555 1_555
C7 C8 1_555 1_555
C8 C9 1_555 1_555
C9 C17 1_555 1_555
C10 N2 1_555 1_555
C11 O2 1_555 1_555
C12 C11 1_555 1_555
H6 C12 1_555 1_555
C13 C12 1_555 1_555
H7 C13 1_555 1_555
C14 C8 1_555 1_555
C15 C1 1_555 1_555
H8 C15 1_555 1_555
C16 C4 1_555 1_555
H9 C16 1_555 1_555
C17 H10 1_555 1_555
C18 C10 1_555 1_555
H11 C18 1_555 1_555
C19 C6 1_555 1_555
H12 C19 1_555 1_555
C20 C7 1_555 1_555
H13 C20 1_555 1_555
C21 C11 1_555 1_555
H14 C21 1_555 1_555
C22 C14 1_555 1_555
H15 C22 1_555 1_555
O3 H16 1_555 1_555
C23 O3 1_555 1_555
H17 C23 1_555 1_555
H18 C23 1_555 1_555
H19 C23 1_555 1_555
N3 C26 1_555 1_555
C24 H20 1_555 1_555
C25 C24 1_555 1_555
H21 C25 1_555 1_555
C26 C25 1_555 1_555
C27 C26 1_555 1_555
C28 C27 1_555 1_555
H22 C28 1_555 1_555
C29 C24 1_555 1_555
H23 C29 1_555 1_555
N4 C32 1_555 1_555
C30 H24 1_555 1_555
C31 C30 1_555 1_555
H25 C31 1_555 1_555
C32 C31 1_555 1_555
C33 C32 1_555 1_555
C34 C33 1_555 1_555
H26 C34 1_555 1_555
C35 C30 1_555 1_555
H27 C35 1_555 1_555
N5 C39 1_555 1_555
C36 H28 1_555 1_555
C37 C36 1_555 1_555
H29 C37 1_555 1_555
C38 C37 1_555 1_555
C39 C38 1_555 1_555
C40 C39 1_555 1_555
H30 C40 1_555 1_555
C41 C36 1_555 1_555
H31 C41 1_555 1_555
O1A H1A 1_555 1_555
O2A H2A 1_555 1_555
N1A C7 1_555 1_555
H3A N1A 1_555 1_555
N2A C9A 1_555 1_555
C1A O1A 1_555 1_555
C2A C1A 1_555 1_555
H4A C2A 1_555 1_555
C3A C2A 1_555 1_555
H5A C3A 1_555 1_555
C4A C3A 1_555 1_555
C5A C4A 1_555 1_555
C6A N1A 1_555 1_555
C7A N1 1_555 1_555
C8A C7A 1_555 1_555
C9A C8A 1_555 1_555
C10A N2A 1_555 1_555
C11A O2A 1_555 1_555
C12A C11A 1_555 1_555
H6A C12A 1_555 1_555
C13A C12A 1_555 1_555
H7A C13A 1_555 1_555
C14A C8A 1_555 1_555
C15A C1A 1_555 1_555
H8A C15A 1_555 1_555
C16A C4A 1_555 1_555
H9A C16A 1_555 1_555
C17A C9A 1_555 1_555
H10A C17A 1_555 1_555
C18A C10A 1_555 1_555
H11A C18A 1_555 1_555
C19A C20 1_555 1_555
H12A C19A 1_555 1_555
C20A C19 1_555 1_555
H13A C20A 1_555 1_555
C21A C11A 1_555 1_555
H14A C21A 1_555 1_555
C22A C14A 1_555 1_555
H15A C22A 1_555 1_555
N3A C27 1_555 1_555
C24A H20A 1_555 1_555
C25A C24A 1_555 1_555
H21A C25A 1_555 1_555
C26A N3A 1_555 1_555
C27A N3 1_555 1_555
C28A C27A 1_555 1_555
H22A C28A 1_555 1_555
C29A C24A 1_555 1_555
H23A C29A 1_555 1_555
N4A C33 1_555 1_555
C30A H24A 1_555 1_555
C31A C30A 1_555 1_555
H25A C31A 1_555 1_555
C32A N4A 1_555 1_555
C33A N4 1_555 1_555
C34A C33A 1_555 1_555
H26A C34A 1_555 1_555
C35A C30A 1_555 1_555
H27A C35A 1_555 1_555
N5A C38 1_555 1_555
C36A H28A 1_555 1_555
C37A C36A 1_555 1_555
H29A C37A 1_555 1_555
C38A N5 1_555 1_555
C39A N5A 1_555 1_555
C40A C39A 1_555 1_555
H30A C40A 1_555 1_555
C41A C36A 1_555 1_555
H31A C41A 1_555 1_555
C5 C6 1_555 1_555
C5 C10 1_555 1_555
C13 C14 1_555 1_555
C15 C16 1_555 1_555
C17 C18 1_555 1_555
C21 C22 1_555 1_555
C28 C29 1_555 1_555
C34 C35 1_555 1_555
C40 C41 1_555 1_555
C5A C6A 1_555 1_555
C5A C10A 1_555 1_555
C6A C19A 1_555 1_555
C7A C20A 1_555 1_555
C13A C14A 1_555 1_555
C15A C16A 1_555 1_555
C17A C18A 1_555 1_555
C21A C22A 1_555 1_555
C25A C26A 1_555 1_555
C26A C27A 1_555 1_555
C28A C29A 1_555 1_555
C31A C32A 1_555 1_555
C32A C33A 1_555 1_555
C34A C35A 1_555 1_555
C37A C38A 1_555 1_555
C38A C39A 1_555 1_555
C40A C41A 1_555 1_555

#END
