
#######################################################################
#
#                 Cambridge Crystallographic Data Centre
#                                CCDC 
#
#######################################################################
#
# If this CIF has been generated from an entry in the Cambridge 
# Structural Database, then it will include bibliographic, chemical, 
# crystal, experimental, refinement or atomic coordinate data resulting 
# from the CCDC's data processing and validation procedures.
#
#######################################################################

data_ELUJIG
_chemical_formula_moiety         
'C44 H30 N4 O4,0.5(C20 H12),C10 H8 N2,2.7(C1 H4 O1)'
_chemical_name_systematic        
"5,10,15,20-tetrakis(4-hydroxyphenyl)porphyrin hemikis(perylene) 4,4'-bipyridine methanol solvate"
_symmetry_cell_setting           monoclinic
_symmetry_space_group_name_H-M   'P 21/c'
_symmetry_Int_Tables_number      14
_space_group_name_Hall           '-P 2ybc'
loop_
_symmetry_equiv_pos_site_id
_symmetry_equiv_pos_as_xyz
1 x,y,z
2 -x,1/2+y,1/2-z
3 -x,-y,-z
4 x,1/2-y,1/2+z
_cell_length_a                   16.1034(6)
_cell_length_b                   23.3602(9)
_cell_length_c                   15.3638(5)
_cell_angle_alpha                90
_cell_angle_beta                 113.178(2)
_cell_angle_gamma                90
_cell_volume                     5313.05
_exptl_crystal_colour            red
_exptl_crystal_description       plate
_cell_formula_units_Z            4
loop_
_atom_site_label
_atom_site_type_symbol
_atom_site_fract_x
_atom_site_fract_y
_atom_site_fract_z
O1 O 0.93718(15) 0.76092(9) 0.53813(15)
H1 H 0.9124 0.7910 0.5462
O2 O 0.62760(14) 0.24096(9) 0.58982(15)
H2 H 0.6546 0.2117 0.5826
N1 N 0.92923(15) 0.49907(10) 0.85653(17)
N2 N 1.03888(15) 0.58399(10) 0.99106(16)
H3 H 1.0189 0.5495 0.9951
C1 C 1.01934(18) 0.61413(12) 0.9087(2)
C2 C 1.09456(18) 0.61616(12) 1.0661(2)
C3 C 0.95652(18) 0.63725(12) 0.7402(2)
C4 C 0.94092(19) 0.72168(12) 0.6051(2)
C5 C 0.86873(18) 0.40028(12) 0.8387(2)
C6 C 0.92945(19) 0.54048(12) 0.7933(2)
C7 C 0.96841(18) 0.59491(12) 0.8169(2)
C8 C 0.6892(2) 0.27905(12) 0.6476(2)
C9 C 1.0012(2) 0.63206(13) 0.6791(2)
H4 H 1.0372 0.5992 0.6831
C10 C 0.78027(19) 0.26596(12) 0.6938(2)
H5 H 0.8025 0.2301 0.6834
C11 C 0.83865(19) 0.30534(12) 0.7551(2)
H6 H 0.9007 0.2959 0.7873
C12 C 0.80757(19) 0.35860(12) 0.7703(2)
C13 C 0.88308(19) 0.45325(12) 0.8035(2)
C14 C 0.71640(19) 0.37121(13) 0.7216(2)
H7 H 0.6943 0.4076 0.7303
C15 C 0.89466(19) 0.72736(12) 0.6639(2)
H8 H 0.8571 0.7597 0.6583
C16 C 1.11046(19) 0.66941(12) 1.0282(2)
H9 H 1.1468 0.7001 1.0637
C17 C 1.06450(19) 0.66812(12) 0.9333(2)
H10 H 1.0625 0.6979 0.8903
C18 C 0.6573(2) 0.33232(13) 0.6611(2)
H11 H 0.5953 0.3418 0.6288
C19 C 0.8546(2) 0.46636(13) 0.7046(2)
H12 H 0.8220 0.4417 0.6532
C20 C 0.9939(2) 0.67380(13) 0.6130(2)
H13 H 1.0254 0.6696 0.5726
C21 C 0.90356(19) 0.68559(13) 0.7309(2)
H14 H 0.8725 0.6901 0.7718
C22 C 0.8824(2) 0.51987(13) 0.6979(2)
H15 H 0.8728 0.5402 0.6412
O1B O 1.06282(15) 0.23908(9) 1.46187(15)
H1B H 1.0876 0.2090 1.4538
O2B O 1.37240(14) 0.75904(9) 1.41018(15)
H2B H 1.3454 0.7883 1.4174
N1B N 1.07077(15) 0.50093(10) 1.14347(17)
N2B N 0.96112(15) 0.41601(10) 1.00894(16)
H3B H 0.9811 0.4505 1.0049
C1B C 0.98066(18) 0.38587(12) 1.0913(2)
C2B C 0.90544(18) 0.38384(12) 0.9339(2)
C3B C 1.04348(18) 0.36275(12) 1.2598(2)
C4B C 1.05908(19) 0.27832(12) 1.3949(2)
C5B C 1.13127(18) 0.59972(12) 1.1613(2)
C6B C 1.07055(19) 0.45952(12) 1.2067(2)
C7B C 1.03159(18) 0.40509(12) 1.1831(2)
C8B C 1.3108(2) 0.72095(12) 1.3524(2)
C9B C 0.9988(2) 0.36794(13) 1.3209(2)
H4B H 0.9628 0.4008 1.3169
C10B C 1.21973(19) 0.73404(12) 1.3062(2)
H5B H 1.1975 0.7699 1.3166
C11B C 1.16135(19) 0.69466(12) 1.2449(2)
H6B H 1.0993 0.7041 1.2127
C12B C 1.19243(19) 0.64140(12) 1.2297(2)
C13B C 1.11692(19) 0.54675(12) 1.1965(2)
C14B C 1.28360(19) 0.62879(13) 1.2784(2)
H7B H 1.3057 0.5924 1.2697
C15B C 1.10534(19) 0.27264(12) 1.3361(2)
H8B H 1.1429 0.2403 1.3417
C16B C 0.88954(19) 0.33059(12) 0.9718(2)
H9B H 0.8532 0.2999 0.9363
C17B C 0.93550(19) 0.33188(12) 1.0667(2)
H10B H 0.9375 0.3021 1.1097
C18B C 1.3427(2) 0.66768(13) 1.3389(2)
H11B H 1.4047 0.6582 1.3712
C19B C 1.1454(2) 0.53364(13) 1.2954(2)
H12B H 1.1780 0.5583 1.3468
C20B C 1.0061(2) 0.32620(13) 1.3870(2)
H13B H 0.9746 0.3304 1.4274
C21B C 1.09644(19) 0.31441(13) 1.2691(2)
H14B H 1.1275 0.3099 1.2282
C22B C 1.1176(2) 0.48013(13) 1.3021(2)
H15B H 1.1272 0.4598 1.3588
O3 O 0.46876(15) -0.25045(10) 0.15882(18)
H16 H 0.5128 -0.2390 0.1471
O4 O 0.37278(16) 0.27992(10) 0.35862(19)
H17 H 0.3917 0.2735 0.4170
N3 N -0.01736(13) 0.08128(9) 0.04621(16)
H18 H -0.0094 0.0474 0.0255
N4 N 0.13516(14) 0.00535(9) 0.07938(16)
C23 C 0.25855(17) -0.13141(12) 0.07066(19)
C24 C -0.09892(17) 0.10864(11) 0.02098(19)
C25 C 0.19907(17) -0.03578(12) 0.08908(19)
C26 C 0.18282(17) -0.08947(12) 0.04435(19)
C27 C 0.05005(17) 0.11462(11) 0.10865(19)
C28 C 0.33675(18) -0.12150(12) 0.0540(2)
H19 H 0.3417 -0.0874 0.0227
C29 C -0.08256(18) 0.16075(12) 0.07342(19)
H20 H -0.1269 0.1881 0.0718
C30 C 0.20403(17) 0.14846(12) 0.2053(2)
C31 C 0.00782(18) 0.16440(12) 0.1263(2)
H21 H 0.0376 0.1949 0.1678
C32 C 0.18118(18) 0.05069(12) 0.1335(2)
C33 C 0.27702(18) 0.03795(12) 0.1778(2)
H22 H 0.3234 0.0627 0.2173
C34 C 0.14278(17) 0.10214(12) 0.14720(19)
C35 C 0.32310(19) -0.22173(13) 0.1437(2)
H23 H 0.3180 -0.2562 0.1740
C36 C 0.28741(18) -0.01585(12) 0.1519(2)
H24 H 0.3424 -0.0367 0.1713
C37 C 0.25357(18) -0.18246(12) 0.1154(2)
H25 H 0.2008 -0.1904 0.1268
C38 C 0.40096(19) -0.21066(13) 0.1276(2)
C39 C 0.40728(18) -0.16073(13) 0.0824(2)
H26 H 0.4599 -0.1532 0.0706
C40 C 0.25623(18) 0.14164(13) 0.3016(2)
H27 H 0.2537 0.1065 0.3317
C41 C 0.31161(19) 0.18515(14) 0.3542(2)
H28 H 0.3458 0.1803 0.4201
C42 C 0.21026(19) 0.19998(13) 0.1629(2)
H29 H 0.1750 0.2056 0.0975
C43 C 0.31675(19) 0.23588(13) 0.3098(2)
C44 C 0.2670(2) 0.24321(13) 0.2147(2)
H30 H 0.2716 0.2778 0.1844
O3B O -0.46876(15) 0.25045(10) -0.15882(18)
H16B H -0.5128 0.2390 -0.1471
O4B O -0.37278(16) -0.27992(10) -0.35862(19)
H17B H -0.3917 -0.2735 -0.4170
N3B N 0.01736(13) -0.08128(9) -0.04621(16)
H18B H 0.0094 -0.0474 -0.0255
N4B N -0.13516(14) -0.00535(9) -0.07938(16)
C23B C -0.25855(17) 0.13141(12) -0.07066(19)
C24B C 0.09892(17) -0.10864(11) -0.02098(19)
C25B C -0.19907(17) 0.03578(12) -0.08908(19)
C26B C -0.18282(17) 0.08947(12) -0.04435(19)
C27B C -0.05005(17) -0.11462(11) -0.10865(19)
C28B C -0.33675(18) 0.12150(12) -0.0540(2)
H19B H -0.3417 0.0874 -0.0227
C29B C 0.08256(18) -0.16075(12) -0.07342(19)
H20B H 0.1269 -0.1881 -0.0718
C30B C -0.20403(17) -0.14846(12) -0.2053(2)
C31B C -0.00782(18) -0.16440(12) -0.1263(2)
H21B H -0.0376 -0.1949 -0.1678
C32B C -0.18118(18) -0.05069(12) -0.1335(2)
C33B C -0.27702(18) -0.03795(12) -0.1778(2)
H22B H -0.3234 -0.0627 -0.2173
C34B C -0.14278(17) -0.10214(12) -0.14720(19)
C35B C -0.32310(19) 0.22173(13) -0.1437(2)
H23B H -0.3180 0.2562 -0.1740
C36B C -0.28741(18) 0.01585(12) -0.1519(2)
H24B H -0.3424 0.0367 -0.1713
C37B C -0.25357(18) 0.18246(12) -0.1154(2)
H25B H -0.2008 0.1904 -0.1268
C38B C -0.40096(19) 0.21066(13) -0.1276(2)
C39B C -0.40728(18) 0.16073(13) -0.0824(2)
H26B H -0.4599 0.1532 -0.0706
C40B C -0.25623(18) -0.14164(13) -0.3016(2)
H27B H -0.2537 -0.1065 -0.3317
C41B C -0.31161(19) -0.18515(14) -0.3542(2)
H28B H -0.3458 -0.1803 -0.4201
C42B C -0.21026(19) -0.19998(13) -0.1629(2)
H29B H -0.1750 -0.2056 -0.0975
C43B C -0.31675(19) -0.23588(13) -0.3098(2)
C44B C -0.2670(2) -0.24321(13) -0.2147(2)
H30B H -0.2716 -0.2778 -0.1844
N5 N 0.70310(17) 0.14134(11) 0.58094(19)
N6 N 0.86898(19) -0.13498(12) 0.5524(2)
C45 C 0.77344(18) 0.03393(13) 0.5694(2)
C46 C 0.74082(19) 0.06989(13) 0.4916(2)
H31 H 0.7413 0.0582 0.4326
C47 C 0.80836(19) -0.02389(13) 0.5630(2)
C48 C 0.70761(19) 0.12299(13) 0.5009(2)
H32 H 0.6869 0.1477 0.4475
C49 C 0.8809(2) -0.04781(13) 0.6377(2)
H33 H 0.9113 -0.0265 0.6940
C50 C 0.9083(2) -0.10286(14) 0.6293(2)
H34 H 0.9578 -0.1186 0.6810
C51 C 0.7705(2) 0.05348(14) 0.6537(2)
H35 H 0.7934 0.0305 0.7092
C52 C 0.7674(2) -0.05741(14) 0.4833(2)
H36 H 0.7176 -0.0430 0.4305
C53 C 0.7340(2) 0.10667(14) 0.6556(2)
H37 H 0.7308 0.1191 0.7131
C54 C 0.7995(3) -0.11199(15) 0.4809(3)
H38 H 0.7706 -0.1343 0.4255
C55 C 0.5003(2) 0.05194(15) 0.4490(3)
C56 C 0.4914(2) 0.05433(15) 0.5400(3)
C57 C 0.5094(2) -0.00237(16) 0.4109(3)
C58 C 0.5194(2) -0.00471(19) 0.3231(3)
C59 C 0.5006(2) 0.10036(17) 0.3970(3)
H39 H 0.4939 0.1367 0.4213
C60 C 0.5149(3) -0.10576(18) 0.4173(4)
H40 H 0.5131 -0.1407 0.4482
C61 C 0.5103(2) 0.0984(2) 0.3111(4)
H41 H 0.5106 0.1328 0.2783
C62 C 0.5194(2) 0.0470(2) 0.2739(3)
H42 H 0.5257 0.0455 0.2151
C63 C 0.5236(3) -0.1076(2) 0.3309(4)
H43 H 0.5276 -0.1435 0.3039
C64 C 0.5263(3) -0.0583(2) 0.2845(3)
H44 H 0.5330 -0.0601 0.2258
C55B C 0.4997(2) -0.05194(15) 0.5510(3)
C56B C 0.5086(2) -0.05433(15) 0.4600(3)
C57B C 0.4906(2) 0.00237(16) 0.5891(3)
C58B C 0.4806(2) 0.00471(19) 0.6769(3)
C59B C 0.4994(2) -0.10036(17) 0.6030(3)
H39B H 0.5061 -0.1367 0.5787
C60B C 0.4851(3) 0.10576(18) 0.5827(4)
H40B H 0.4869 0.1407 0.5518
C61B C 0.4897(2) -0.0984(2) 0.6889(4)
H41B H 0.4894 -0.1328 0.7217
C62B C 0.4806(2) -0.0470(2) 0.7261(3)
H42B H 0.4743 -0.0455 0.7849
C63B C 0.4764(3) 0.1076(2) 0.6691(4)
H43B H 0.4724 0.1435 0.6961
C64B C 0.4737(3) 0.0583(2) 0.7155(3)
H44B H 0.4670 0.0601 0.7742
C65 C 0.4299(5) 0.2640(4) 0.6092(6)
H45 H 0.4783 0.2498 0.6669
H46 H 0.3741 0.2427 0.5982
H47 H 0.4200 0.3048 0.6164
O5 O 0.4522(2) 0.25697(16) 0.5389(3)
H48 H 0.5071 0.2520 0.5547
loop_
_geom_bond_atom_site_label_1
_geom_bond_atom_site_label_2
_geom_bond_site_symmetry_1
_geom_bond_site_symmetry_2
O1 H1 1_555 1_555
O2 H2 1_555 1_555
N1 C6 1_555 1_555
N2 H3 1_555 1_555
C1 N2 1_555 1_555
C2 N2 1_555 1_555
C3 C7 1_555 1_555
C4 O1 1_555 1_555
C5 C12 1_555 1_555
C6 C7 1_555 1_555
C7 C1 1_555 1_555
C8 O2 1_555 1_555
C9 C3 1_555 1_555
H4 C9 1_555 1_555
C10 C8 1_555 1_555
H5 C10 1_555 1_555
C11 C10 1_555 1_555
H6 C11 1_555 1_555
C12 C11 1_555 1_555
C13 N1 1_555 1_555
C14 C12 1_555 1_555
H7 C14 1_555 1_555
C15 C4 1_555 1_555
H8 C15 1_555 1_555
C16 C2 1_555 1_555
H9 C16 1_555 1_555
C17 C1 1_555 1_555
H10 C17 1_555 1_555
C18 C8 1_555 1_555
H11 C18 1_555 1_555
C19 C13 1_555 1_555
H12 C19 1_555 1_555
C20 C4 1_555 1_555
H13 C20 1_555 1_555
C21 C3 1_555 1_555
H14 C21 1_555 1_555
C22 C6 1_555 1_555
H15 C22 1_555 1_555
O3 H16 1_555 1_555
O4 H17 1_555 1_555
N3 H18 1_555 1_555
N4 C25 1_555 1_555
C23 C26 1_555 1_555
C24 N3 1_555 1_555
C25 C26 1_555 1_555
C26 C24B 1_555 1_555
C27 N3 1_555 1_555
C28 C23 1_555 1_555
H19 C28 1_555 1_555
C29 C24 1_555 1_555
H20 C29 1_555 1_555
C30 C34 1_555 1_555
C31 C27 1_555 1_555
H21 C31 1_555 1_555
C32 N4 1_555 1_555
C33 C32 1_555 1_555
H22 C33 1_555 1_555
C34 C27 1_555 1_555
C35 H23 1_555 1_555
C36 C25 1_555 1_555
H24 C36 1_555 1_555
C37 C23 1_555 1_555
H25 C37 1_555 1_555
C38 O3 1_555 1_555
C39 C28 1_555 1_555
H26 C39 1_555 1_555
C40 C30 1_555 1_555
H27 C40 1_555 1_555
C41 C40 1_555 1_555
H28 C41 1_555 1_555
C42 C30 1_555 1_555
H29 C42 1_555 1_555
C43 O4 1_555 1_555
C44 C42 1_555 1_555
H30 C44 1_555 1_555
N5 C48 1_555 1_555
N6 C50 1_555 1_555
C45 C46 1_555 1_555
C46 H31 1_555 1_555
C47 C45 1_555 1_555
C48 C46 1_555 1_555
H32 C48 1_555 1_555
C49 C47 1_555 1_555
H33 C49 1_555 1_555
C50 C49 1_555 1_555
H34 C50 1_555 1_555
C51 C45 1_555 1_555
H35 C51 1_555 1_555
C52 C47 1_555 1_555
H36 C52 1_555 1_555
C53 N5 1_555 1_555
H37 C53 1_555 1_555
C54 N6 1_555 1_555
H38 C54 1_555 1_555
C55 C56 1_555 1_555
C56 C57B 1_555 1_555
C57 C55 1_555 1_555
C58 C57 1_555 1_555
C59 C55 1_555 1_555
H39 C59 1_555 1_555
C60 H40 1_555 1_555
C61 C59 1_555 1_555
H41 C61 1_555 1_555
C62 C58 1_555 1_555
H42 C62 1_555 1_555
C63 C60 1_555 1_555
H43 C63 1_555 1_555
C64 C58 1_555 1_555
H44 C64 1_555 1_555
C65 H45 1_555 1_555
H46 C65 1_555 1_555
H47 C65 1_555 1_555
O5 C65 1_555 1_555
H48 O5 1_555 1_555
O1B H1B 1_555 1_555
O2B H2B 1_555 1_555
N1B C6B 1_555 1_555
N2B H3B 1_555 1_555
C1B N2B 1_555 1_555
C2B C5 1_555 1_555
C3B C7B 1_555 1_555
C4B O1B 1_555 1_555
C5B C2 1_555 1_555
C6B C7B 1_555 1_555
C7B C1B 1_555 1_555
C8B O2B 1_555 1_555
C9B C3B 1_555 1_555
H4B C9B 1_555 1_555
C10B C8B 1_555 1_555
H5B C10B 1_555 1_555
C11B C10B 1_555 1_555
H6B C11B 1_555 1_555
C12B C5B 1_555 1_555
C13B N1B 1_555 1_555
C14B C12B 1_555 1_555
H7B C14B 1_555 1_555
C15B C4B 1_555 1_555
H8B C15B 1_555 1_555
C16B C2B 1_555 1_555
H9B C16B 1_555 1_555
C17B C1B 1_555 1_555
H10B C17B 1_555 1_555
C18B C8B 1_555 1_555
H11B C18B 1_555 1_555
C19B C13B 1_555 1_555
H12B C19B 1_555 1_555
C20B C4B 1_555 1_555
H13B C20B 1_555 1_555
C21B C3B 1_555 1_555
H14B C21B 1_555 1_555
C22B C6B 1_555 1_555
H15B C22B 1_555 1_555
O3B H16B 1_555 1_555
O4B H17B 1_555 1_555
N3B H18B 1_555 1_555
N4B C25B 1_555 1_555
C23B C26B 1_555 1_555
C24B N3B 1_555 1_555
C25B C26B 1_555 1_555
C26B C24 1_555 1_555
C27B N3B 1_555 1_555
C28B C23B 1_555 1_555
H19B C28B 1_555 1_555
C29B C24B 1_555 1_555
H20B C29B 1_555 1_555
C30B C34B 1_555 1_555
C31B C27B 1_555 1_555
H21B C31B 1_555 1_555
C32B N4B 1_555 1_555
C33B C32B 1_555 1_555
H22B C33B 1_555 1_555
C34B C27B 1_555 1_555
C35B H23B 1_555 1_555
C36B C25B 1_555 1_555
H24B C36B 1_555 1_555
C37B C23B 1_555 1_555
H25B C37B 1_555 1_555
C38B O3B 1_555 1_555
C39B C28B 1_555 1_555
H26B C39B 1_555 1_555
C40B C30B 1_555 1_555
H27B C40B 1_555 1_555
C41B C40B 1_555 1_555
H28B C41B 1_555 1_555
C42B C30B 1_555 1_555
H29B C42B 1_555 1_555
C43B O4B 1_555 1_555
C44B C42B 1_555 1_555
H30B C44B 1_555 1_555
C55B C56B 1_555 1_555
C56B C57 1_555 1_555
C57B C55B 1_555 1_555
C58B C57B 1_555 1_555
C59B C55B 1_555 1_555
H39B C59B 1_555 1_555
C60B C56 1_555 1_555
H40B C60B 1_555 1_555
C61B C59B 1_555 1_555
H41B C61B 1_555 1_555
C62B C58B 1_555 1_555
H42B C62B 1_555 1_555
C63B C60B 1_555 1_555
H43B C63B 1_555 1_555
C64B C58B 1_555 1_555
H44B C64B 1_555 1_555
C5 C13 1_555 1_555
C9 C20 1_555 1_555
C14 C18 1_555 1_555
C15 C21 1_555 1_555
C16 C17 1_555 1_555
C19 C22 1_555 1_555
C29 C31 1_555 1_555
C32 C34 1_555 1_555
C33 C36 1_555 1_555
C35 C37 1_555 1_555
C35 C38 1_555 1_555
C38 C39 1_555 1_555
C41 C43 1_555 1_555
C43 C44 1_555 1_555
C51 C53 1_555 1_555
C52 C54 1_555 1_555
C60 C56B 1_555 1_555
C61 C62 1_555 1_555
C63 C64 1_555 1_555
N2B C2B 1_555 1_555
C5B C13B 1_555 1_555
C9B C20B 1_555 1_555
C11B C12B 1_555 1_555
C14B C18B 1_555 1_555
C15B C21B 1_555 1_555
C16B C17B 1_555 1_555
C19B C22B 1_555 1_555
C29B C31B 1_555 1_555
C32B C34B 1_555 1_555
C33B C36B 1_555 1_555
C35B C37B 1_555 1_555
C35B C38B 1_555 1_555
C38B C39B 1_555 1_555
C41B C43B 1_555 1_555
C43B C44B 1_555 1_555
C61B C62B 1_555 1_555
C63B C64B 1_555 1_555

#END
