
#######################################################################
#
#                 Cambridge Crystallographic Data Centre
#                                CCDC 
#
#######################################################################
#
# If this CIF has been generated from an entry in the Cambridge 
# Structural Database, then it will include bibliographic, chemical, 
# crystal, experimental, refinement or atomic coordinate data resulting 
# from the CCDC's data processing and validation procedures.
#
#######################################################################

data_ELUKEC
_chemical_formula_moiety         
'C52 H76 N4 O12 4+,4(Cl1 O4 1-),2(C2 H3 N1),C6 H6'
_chemical_name_systematic        
'1,3-bis(N-(3-Ammoniopropyl)pyridinio-4-yl)-2,4-bis(2,3,5,6,8,9,11,12,14,15-decahydro-1,4,7,10,13,16-hexaoxabenzocyclooctadecin-18-yl)cyclobutane tetraperchlorate acetonitrile benzene solvate'
_symmetry_cell_setting           triclinic
_symmetry_space_group_name_H-M   'P -1'
_symmetry_Int_Tables_number      2
_space_group_name_Hall           '-P 1'
loop_
_symmetry_equiv_pos_site_id
_symmetry_equiv_pos_as_xyz
1 x,y,z
2 -x,-y,-z
_cell_length_a                   11.4111(4)
_cell_length_b                   11.8343(4)
_cell_length_c                   14.0275(6)
_cell_angle_alpha                106.698(2)
_cell_angle_beta                 99.430(2)
_cell_angle_gamma                93.754(2)
_cell_volume                     1777.17
_exptl_crystal_colour            yellowish
_exptl_crystal_description       block
_cell_formula_units_Z            1
loop_
_atom_site_label
_atom_site_type_symbol
_atom_site_fract_x
_atom_site_fract_y
_atom_site_fract_z
Cl1 Cl 0.58816(15) 0.24330(16) 0.94938(12)
O1 O 0.5118(5) 0.3279(5) 0.9848(4)
O2 O 0.6796(5) 0.2501(6) 1.0322(4)
O3 O 0.5145(7) 0.1287(5) 0.9158(5)
O4 O 0.6299(7) 0.2671(9) 0.8701(6)
Cl2 Cl 0.87946(15) 0.5145(2) 0.64732(16)
O5 O 0.7923(9) 0.4626(11) 0.6918(8)
O6 O 0.8571(9) 0.4183(10) 0.5375(8)
O7 O 0.9858(14) 0.4798(15) 0.6949(12)
O8 O 0.8584(16) 0.6196(13) 0.6388(15)
O9 O 0.3420(3) 0.0239(3) 0.6065(3)
O10 O 0.2639(4) -0.0966(3) 0.7346(3)
O11 O 0.0247(4) -0.0848(4) 0.7675(3)
O12 O -0.0768(4) 0.1261(4) 0.7768(4)
O13 O -0.0158(4) 0.1749(4) 0.5997(3)
O14 O 0.1949(4) 0.1399(3) 0.5242(3)
N1 N 0.1644(4) 0.1205(4) 0.7439(3)
H1 H 0.2043 0.0557 0.7271
H2 H 0.1184 0.1277 0.6869
H3 H 0.1169 0.1118 0.7881
N2 N 0.3366(4) 0.4810(4) 0.8060(3)
C1 C 0.2517(5) 0.2286(4) 0.7920(4)
H4 H 0.2985 0.2422 0.7420
H5 H 0.3081 0.2169 0.8491
C2 C 0.1884(5) 0.3360(5) 0.8308(4)
H6 H 0.1411 0.3212 0.8801
H7 H 0.1320 0.3468 0.7734
C3 C 0.2731(6) 0.4491(5) 0.8812(4)
H8 H 0.2275 0.5145 0.9107
H9 H 0.3322 0.4380 0.9369
C4 C 0.4543(5) 0.4724(5) 0.8107(5)
H10 H 0.4972 0.4481 0.8640
C5 C 0.5137(6) 0.4978(5) 0.7412(5)
H11 H 0.5972 0.4926 0.7473
C6 C 0.4539(6) 0.5306(5) 0.6633(5)
C7 C 0.3327(7) 0.5397(5) 0.6572(5)
H12 H 0.2891 0.5618 0.6029
C8 C 0.2738(6) 0.5161(5) 0.7319(5)
H13 H 0.1914 0.5250 0.7298
C9 C 0.5237(6) 0.5430(5) 0.5828(5)
H14 H 0.6026 0.5924 0.6143
C10 C 0.5403(5) 0.4187(5) 0.5066(5)
H15 H 0.6267 0.4132 0.5033
C11 C 0.4835(6) 0.3068(5) 0.5239(5)
C12 C 0.5580(6) 0.2486(5) 0.5730(5)
H16 H 0.6415 0.2739 0.5889
C13 C 0.5150(5) 0.1530(5) 0.6003(5)
H17 H 0.5696 0.1120 0.6326
C14 C 0.3925(5) 0.1157(4) 0.5812(4)
C15 C 0.3130(5) 0.1767(4) 0.5334(4)
C16 C 0.3586(6) 0.2715(5) 0.5026(4)
H18 H 0.3057 0.3114 0.4676
C17 C 0.4221(5) -0.0353(5) 0.6610(4)
H19 H 0.4601 0.0198 0.7282
H20 H 0.4857 -0.0632 0.6228
C18 C 0.3492(5) -0.1392(5) 0.6731(4)
H21 H 0.3074 -0.1914 0.6058
H22 H 0.4024 -0.1861 0.7053
C19 C 0.1939(6) -0.1933(5) 0.7511(5)
H23 H 0.2477 -0.2394 0.7839
H24 H 0.1500 -0.2473 0.6852
C20 C 0.1064(7) -0.1451(6) 0.8177(5)
H25 H 0.0620 -0.2110 0.8322
H26 H 0.1500 -0.0894 0.8829
C21 C -0.0704(7) -0.0502(7) 0.8225(6)
H27 H -0.0366 -0.0006 0.8928
H28 H -0.1189 -0.1215 0.8249
C22 C -0.1458(7) 0.0184(7) 0.7683(7)
H29 H -0.1723 -0.0282 0.6960
H30 H -0.2176 0.0354 0.7987
C23 C -0.1356(6) 0.1994(6) 0.7261(6)
H31 H -0.0961 0.2820 0.7564
H32 H -0.2194 0.1988 0.7364
C24 C -0.1354(6) 0.1609(6) 0.6142(5)
H33 H -0.1700 0.0767 0.5836
H34 H -0.1845 0.2098 0.5809
C25 C -0.0098(6) 0.1643(6) 0.4953(5)
H35 H -0.0705 0.2088 0.4679
H36 H -0.0268 0.0798 0.4537
C26 C 0.1104(5) 0.2124(5) 0.4906(4)
H37 H 0.1144 0.2109 0.4202
H38 H 0.1293 0.2957 0.5348
O9A O 0.6580(3) 0.9761(3) 0.3935(3)
O10A O 0.7361(4) 1.0966(3) 0.2654(3)
O11A O 0.9753(4) 1.0848(4) 0.2325(3)
O12A O 1.0768(4) 0.8739(4) 0.2232(4)
O13A O 1.0158(4) 0.8251(4) 0.4003(3)
O14A O 0.8051(4) 0.8601(3) 0.4758(3)
N1A N 0.8356(4) 0.8795(4) 0.2561(3)
H1A H 0.7957 0.9443 0.2729
H2A H 0.8816 0.8723 0.3131
H3A H 0.8831 0.8882 0.2119
N2A N 0.6634(4) 0.5190(4) 0.1940(3)
C1A C 0.7483(5) 0.7714(4) 0.2080(4)
H4A H 0.7015 0.7578 0.2580
H5A H 0.6919 0.7831 0.1509
C2A C 0.8116(5) 0.6640(5) 0.1692(4)
H6A H 0.8589 0.6788 0.1199
H7A H 0.8680 0.6532 0.2266
C3A C 0.7269(6) 0.5509(5) 0.1188(4)
H8A H 0.7725 0.4855 0.0893
H9A H 0.6678 0.5620 0.0631
C4A C 0.5457(5) 0.5276(5) 0.1893(5)
H10A H 0.5028 0.5519 0.1360
C5A C 0.4863(6) 0.5022(5) 0.2588(5)
H11A H 0.4028 0.5074 0.2527
C6A C 0.5461(6) 0.4694(5) 0.3367(5)
C7A C 0.6673(7) 0.4603(5) 0.3428(5)
H12A H 0.7109 0.4382 0.3971
C8A C 0.7262(6) 0.4839(5) 0.2681(5)
H13A H 0.8086 0.4750 0.2702
C9A C 0.4763(6) 0.4570(5) 0.4172(5)
H14A H 0.3974 0.4076 0.3857
C10A C 0.4597(5) 0.5813(5) 0.4934(5)
H15A H 0.3733 0.5868 0.4967
C11A C 0.5165(6) 0.6932(5) 0.4761(5)
C12A C 0.4420(6) 0.7514(5) 0.4270(5)
H16A H 0.3585 0.7261 0.4111
C13A C 0.4850(5) 0.8470(5) 0.3997(5)
H17A H 0.4304 0.8880 0.3674
C14A C 0.6075(5) 0.8843(4) 0.4188(4)
C15A C 0.6870(5) 0.8233(4) 0.4666(4)
C16A C 0.6414(6) 0.7285(5) 0.4974(4)
H18A H 0.6943 0.6886 0.5324
C17A C 0.5779(5) 1.0353(5) 0.3390(4)
H19A H 0.5399 0.9802 0.2718
H20A H 0.5143 1.0632 0.3772
C18A C 0.6508(5) 1.1392(5) 0.3269(4)
H21A H 0.6926 1.1914 0.3942
H22A H 0.5976 1.1861 0.2947
C19A C 0.8061(6) 1.1933(5) 0.2489(5)
H23A H 0.7523 1.2394 0.2161
H24A H 0.8500 1.2473 0.3148
C20A C 0.8936(7) 1.1451(6) 0.1823(5)
H25A H 0.9380 1.2110 0.1678
H26A H 0.8500 1.0894 0.1171
C21A C 1.0704(7) 1.0502(7) 0.1775(6)
H27A H 1.0366 1.0006 0.1072
H28A H 1.1189 1.1215 0.1751
C22A C 1.1458(7) 0.9816(7) 0.2317(7)
H29A H 1.1723 1.0282 0.3040
H30A H 1.2176 0.9646 0.2013
C23A C 1.1356(6) 0.8006(6) 0.2739(6)
H31A H 1.0961 0.7180 0.2436
H32A H 1.2194 0.8012 0.2636
C24A C 1.1354(6) 0.8391(6) 0.3858(5)
H33A H 1.1700 0.9233 0.4164
H34A H 1.1845 0.7902 0.4191
C25A C 1.0098(6) 0.8357(6) 0.5047(5)
H35A H 1.0705 0.7912 0.5321
H36A H 1.0268 0.9202 0.5463
C26A C 0.8896(5) 0.7876(5) 0.5094(4)
H37A H 0.8856 0.7891 0.5798
H38A H 0.8707 0.7043 0.4652
C27 C 1.0402(11) 0.4284(10) 1.0577(8)
H39 H 1.0669 0.3795 1.0980
C28 C 0.9373(9) 0.3922(9) 0.9860(8)
H40 H 0.8945 0.3166 0.9754
C29 C 1.1055(10) 0.5367(10) 1.0711(7)
H41 H 1.1785 0.5616 1.1189
C27A C 0.9598(11) 0.5716(10) 0.9423(8)
H39A H 0.9331 0.6205 0.9020
C28A C 1.0627(9) 0.6078(9) 1.0140(8)
H40A H 1.1055 0.6834 1.0246
C29A C 0.8945(10) 0.4633(10) 0.9289(7)
H41A H 0.8215 0.4384 0.8811
N3 N 0.1976(8) 0.1469(7) 0.9793(6)
C30 C 0.2833(9) 0.1510(8) 1.0426(7)
C31 C 0.3871(9) 0.1523(11) 1.1232(9)
H42 H 0.3617 0.1696 1.1888
H43 H 0.4510 0.2136 1.1264
H44 H 0.4169 0.0745 1.1073
O15? O 0.8575(15) 0.4926(17) 0.5448(9)
O16? O 0.8393(14) 0.6363(11) 0.6919(13)
O17? O 0.8068(16) 0.4379(16) 0.6799(15)
O18? O 0.9988(9) 0.5296(13) 0.6961(9)
O19? O 0.792(3) 0.542(5) 0.708(2)
O20? O 0.833(2) 0.528(3) 0.5509(14)
O21? O 0.905(5) 0.398(2) 0.636(3)
O22? O 0.985(3) 0.595(4) 0.690(2)
loop_
_geom_bond_atom_site_label_1
_geom_bond_atom_site_label_2
_geom_bond_site_symmetry_1
_geom_bond_site_symmetry_2
Cl1 O1 1_555 1_555
O2 Cl1 1_555 1_555
O3 Cl1 1_555 1_555
O4 Cl1 1_555 1_555
Cl2 O5 1_555 1_555
O6 Cl2 1_555 1_555
O7 Cl2 1_555 1_555
O8 Cl2 1_555 1_555
O9 C14 1_555 1_555
O10 C18 1_555 1_555
O11 C20 1_555 1_555
O12 C22 1_555 1_555
O13 C24 1_555 1_555
O14 C15 1_555 1_555
N1 H1 1_555 1_555
H2 N1 1_555 1_555
H3 N1 1_555 1_555
N2 C3 1_555 1_555
C1 N1 1_555 1_555
H4 C1 1_555 1_555
H5 C1 1_555 1_555
C2 C1 1_555 1_555
H6 C2 1_555 1_555
H7 C2 1_555 1_555
C3 C2 1_555 1_555
H8 C3 1_555 1_555
H9 C3 1_555 1_555
C4 N2 1_555 1_555
H10 C4 1_555 1_555
C5 C4 1_555 1_555
H11 C5 1_555 1_555
C6 C5 1_555 1_555
C7 C6 1_555 1_555
H12 C7 1_555 1_555
C8 N2 1_555 1_555
H13 C8 1_555 1_555
C9 C6 1_555 1_555
H14 C9 1_555 1_555
C10 C9 1_555 1_555
H15 C10 1_555 1_555
C11 C10 1_555 1_555
C12 C11 1_555 1_555
H16 C12 1_555 1_555
C13 C12 1_555 1_555
H17 C13 1_555 1_555
C14 C13 1_555 1_555
C15 C14 1_555 1_555
C16 C11 1_555 1_555
H18 C16 1_555 1_555
C17 O9 1_555 1_555
H19 C17 1_555 1_555
H20 C17 1_555 1_555
C18 C17 1_555 1_555
H21 C18 1_555 1_555
H22 C18 1_555 1_555
C19 O10 1_555 1_555
H23 C19 1_555 1_555
H24 C19 1_555 1_555
C20 C19 1_555 1_555
H25 C20 1_555 1_555
H26 C20 1_555 1_555
C21 O11 1_555 1_555
H27 C21 1_555 1_555
H28 C21 1_555 1_555
C22 C21 1_555 1_555
H29 C22 1_555 1_555
H30 C22 1_555 1_555
C23 O12 1_555 1_555
H31 C23 1_555 1_555
H32 C23 1_555 1_555
C24 C23 1_555 1_555
H33 C24 1_555 1_555
H34 C24 1_555 1_555
C25 O13 1_555 1_555
H35 C25 1_555 1_555
H36 C25 1_555 1_555
C26 O14 1_555 1_555
H37 C26 1_555 1_555
H38 C26 1_555 1_555
C27 H39 1_555 1_555
C28 C27 1_555 1_555
H40 C28 1_555 1_555
C29 C27 1_555 1_555
H41 C29 1_555 1_555
N3 C30 1_555 1_555
C30 C31 1_555 1_555
C31 H42 1_555 1_555
H43 C31 1_555 1_555
H44 C31 1_555 1_555
O9A C14A 1_555 1_555
O10A C18A 1_555 1_555
O11A C20A 1_555 1_555
O12A C22A 1_555 1_555
O13A C24A 1_555 1_555
O14A C15A 1_555 1_555
N1A H1A 1_555 1_555
H2A N1A 1_555 1_555
H3A N1A 1_555 1_555
N2A C3A 1_555 1_555
C1A N1A 1_555 1_555
H4A C1A 1_555 1_555
H5A C1A 1_555 1_555
C2A C1A 1_555 1_555
H6A C2A 1_555 1_555
H7A C2A 1_555 1_555
C3A C2A 1_555 1_555
H8A C3A 1_555 1_555
H9A C3A 1_555 1_555
C4A N2A 1_555 1_555
H10A C4A 1_555 1_555
C5A C4A 1_555 1_555
H11A C5A 1_555 1_555
C6A C5A 1_555 1_555
C7A C6A 1_555 1_555
H12A C7A 1_555 1_555
C8A N2A 1_555 1_555
H13A C8A 1_555 1_555
C9A C10 1_555 1_555
H14A C9A 1_555 1_555
C10A C9 1_555 1_555
H15A C10A 1_555 1_555
C11A C10A 1_555 1_555
C12A C11A 1_555 1_555
H16A C12A 1_555 1_555
C13A C12A 1_555 1_555
H17A C13A 1_555 1_555
C14A C13A 1_555 1_555
C15A C14A 1_555 1_555
C16A C11A 1_555 1_555
H18A C16A 1_555 1_555
C17A O9A 1_555 1_555
H19A C17A 1_555 1_555
H20A C17A 1_555 1_555
C18A C17A 1_555 1_555
H21A C18A 1_555 1_555
H22A C18A 1_555 1_555
C19A O10A 1_555 1_555
H23A C19A 1_555 1_555
H24A C19A 1_555 1_555
C20A C19A 1_555 1_555
H25A C20A 1_555 1_555
H26A C20A 1_555 1_555
C21A O11A 1_555 1_555
H27A C21A 1_555 1_555
H28A C21A 1_555 1_555
C22A C21A 1_555 1_555
H29A C22A 1_555 1_555
H30A C22A 1_555 1_555
C23A O12A 1_555 1_555
H31A C23A 1_555 1_555
H32A C23A 1_555 1_555
C24A C23A 1_555 1_555
H33A C24A 1_555 1_555
H34A C24A 1_555 1_555
C25A O13A 1_555 1_555
H35A C25A 1_555 1_555
H36A C25A 1_555 1_555
C26A O14A 1_555 1_555
H37A C26A 1_555 1_555
H38A C26A 1_555 1_555
C27A H39A 1_555 1_555
C28A C29 1_555 1_555
H40A C28A 1_555 1_555
C29A C28 1_555 1_555
H41A C29A 1_555 1_555
C7 C8 1_555 1_555
C15 C16 1_555 1_555
C25 C26 1_555 1_555
C6A C9A 1_555 1_555
C7A C8A 1_555 1_555
C9A C10A 1_555 1_555
C15A C16A 1_555 1_555
C25A C26A 1_555 1_555
C27A C28A 1_555 1_555
C27A C29A 1_555 1_555

#END
