
#######################################################################
#
#                 Cambridge Crystallographic Data Centre
#                                CCDC 
#
#######################################################################
#
# If this CIF has been generated from an entry in the Cambridge 
# Structural Database, then it will include bibliographic, chemical, 
# crystal, experimental, refinement or atomic coordinate data resulting 
# from the CCDC's data processing and validation procedures.
#
#######################################################################

data_ELUPOR
_chemical_formula_moiety         'C39 H33 N5 O10,0.5(C1 H2 Cl2)'
_chemical_name_systematic        
'36-Hydroxy-37,38,39,40-tetramethoxy-2,9,16,23,30-pentaazahexacyclo[30.3.1.1^4,8^.1^11,15^.1^18,22^.1^25,29^]tetraconta-1(36),4(40),5,7,11(39),12,14,18(38),19,21,25(37),26,28,32,34-pentadecaene-3,10,17,24,31-pentone dichloromethane solvate'
_symmetry_cell_setting           monoclinic
_symmetry_space_group_name_H-M   'P 21/c'
_symmetry_Int_Tables_number      14
_space_group_name_Hall           '-P 2ybc'
loop_
_symmetry_equiv_pos_site_id
_symmetry_equiv_pos_as_xyz
1 x,y,z
2 -x,1/2+y,1/2-z
3 -x,-y,-z
4 x,1/2-y,1/2+z
_cell_length_a                   27.0052(16)
_cell_length_b                   16.5970(10)
_cell_length_c                   15.9655(10)
_cell_angle_alpha                90
_cell_angle_beta                 90.324(2)
_cell_angle_gamma                90
_cell_volume                     7155.71
_exptl_crystal_colour            green
_exptl_crystal_description       block
_cell_formula_units_Z            8
loop_
_atom_site_label
_atom_site_type_symbol
_atom_site_fract_x
_atom_site_fract_y
_atom_site_fract_z
O11 O 0.02674(11) 0.30868(16) 0.63789(17)
H2 H 0.0190 0.2967 0.6866
O12 O 0.08132(11) 0.03125(17) 0.6100(2)
O13 O 0.13463(10) 0.24422(16) 0.72153(19)
O14 O 0.27448(13) 0.2033(2) 0.9075(3)
O15 O 0.17682(10) 0.39689(19) 0.85080(19)
O16 O 0.24910(12) 0.6614(2) 0.8953(2)
O17 O 0.12284(10) 0.56296(15) 0.77058(19)
O18 O -0.00687(12) 0.75310(17) 0.71226(19)
O19 O 0.02157(9) 0.50541(17) 0.67111(18)
O20 O -0.09411(11) 0.3739(2) 0.4818(2)
N6 N 0.06362(14) 0.1614(2) 0.6365(3)
H8 H 0.0718(15) 0.2074(13) 0.667(3)
N7 N 0.20622(14) 0.2408(2) 0.8350(3)
H9 H 0.1858(12) 0.2853(19) 0.820(3)
N8 N 0.20484(14) 0.5480(2) 0.8712(3)
H10 H 0.1771(12) 0.5232(17) 0.851(3)
N9 N 0.05212(15) 0.6573(2) 0.7119(3)
H11 H 0.0599(12) 0.6043(15) 0.700(3)
N10 N -0.03499(13) 0.4185(2) 0.5712(2)
H12 H -0.0076(11) 0.402(2) 0.603(2)
C40 C 0.00488(15) 0.2548(2) 0.5825(3)
C41 C -0.03347(15) 0.2777(3) 0.5301(3)
C42 C -0.05299(15) 0.2204(3) 0.4750(3)
H40 H -0.0794 0.2346 0.4392
C43 C -0.03427(16) 0.1441(3) 0.4724(3)
H41 H -0.0480 0.1066 0.4347
C44 C 0.00428(16) 0.1209(3) 0.5238(3)
H42 H 0.0170 0.0682 0.5209
C45 C 0.02434(15) 0.1765(3) 0.5802(3)
C46 C 0.08956(17) 0.0939(3) 0.6475(3)
C47 C 0.15089(16) 0.1677(3) 0.7462(3)
C48 C 0.12988(15) 0.0990(3) 0.7150(3)
C49 C 0.14717(16) 0.0248(3) 0.7447(3)
H43 H 0.1331 -0.0232 0.7245
C50 C 0.18446(16) 0.0219(3) 0.8031(3)
H44 H 0.1960 -0.0285 0.8217
C51 C 0.20555(16) 0.0912(3) 0.8351(3)
H45 H 0.2309 0.0884 0.8756
C52 C 0.18863(16) 0.1649(3) 0.8064(3)
C53 C 0.16270(18) 0.2791(3) 0.6535(3)
H46 H 0.1960 0.2914 0.6729
H47 H 0.1466 0.3282 0.6347
H48 H 0.1643 0.2410 0.6075
C54 C 0.24613(18) 0.2562(3) 0.8815(3)
C55 C 0.22515(15) 0.4093(3) 0.8829(3)
C56 C 0.25635(16) 0.3448(3) 0.8984(3)
C57 C 0.30346(15) 0.3620(3) 0.9315(3)
H49 H 0.3257 0.3197 0.9429
C58 C 0.31728(16) 0.4399(3) 0.9473(3)
H50 H 0.3486 0.4500 0.9710
C59 C 0.28630(16) 0.5041(3) 0.9294(3)
H51 H 0.2965 0.5573 0.9402
C60 C 0.23995(16) 0.4886(3) 0.8953(3)
C61 C 0.13984(16) 0.3904(3) 0.9145(3)
H52 H 0.1481 0.3462 0.9517
H53 H 0.1078 0.3806 0.8886
H54 H 0.1386 0.4402 0.9462
C62 C 0.21124(19) 0.6275(3) 0.8683(3)
C63 C 0.12793(16) 0.6453(2) 0.7866(3)
C64 C 0.16803(16) 0.6748(3) 0.8334(3)
C65 C 0.16926(18) 0.7579(3) 0.8486(3)
H55 H 0.1957 0.7801 0.8795
C66 C 0.13246(19) 0.8069(3) 0.8192(3)
H56 H 0.1340 0.8624 0.8309
C67 C 0.09318(17) 0.7778(3) 0.7728(3)
H57 H 0.0688 0.8131 0.7518
C68 C 0.09011(16) 0.6956(3) 0.7575(3)
C69 C 0.14614(17) 0.5369(3) 0.6943(3)
H58 H 0.1353 0.5710 0.6484
H59 H 0.1369 0.4815 0.6827
H60 H 0.1818 0.5407 0.7005
C70 C 0.00730(17) 0.6848(3) 0.6918(3)
C71 C -0.01718(14) 0.5467(2) 0.6310(3)
C72 C -0.02344(15) 0.6277(3) 0.6409(3)
C73 C -0.06323(16) 0.6643(3) 0.5974(3)
H61 H -0.0692 0.7198 0.6039
C74 C -0.09283(17) 0.6201(3) 0.5464(3)
H62 H -0.1189 0.6459 0.5177
C75 C -0.08589(14) 0.5389(3) 0.5353(3)
H63 H -0.1069 0.5094 0.4995
C76 C -0.04745(14) 0.5010(3) 0.5775(3)
C77 C 0.00919(17) 0.4760(3) 0.7533(3)
H64 H 0.0052 0.5212 0.7912
H65 H 0.0355 0.4412 0.7737
H66 H -0.0215 0.4457 0.7504
C78 C -0.05734(15) 0.3614(3) 0.5257(3)
O1 O 0.47966(11) 0.81446(19) 0.86551(19)
H1 H 0.4866 0.8012 0.8168
O2 O 0.44359(14) 0.5354(2) 0.9217(3)
O3 O 0.37540(11) 0.73022(17) 0.7958(2)
O4 O 0.23292(15) 0.6543(2) 0.6357(3)
O5 O 0.31703(11) 0.8695(2) 0.6747(2)
O6 O 0.22984(11) 1.1136(2) 0.6007(2)
O7 O 0.36054(12) 1.05007(17) 0.7397(2)
O8 O 0.47871(13) 1.26436(19) 0.7720(2)
O9 O 0.47008(11) 1.01248(18) 0.8245(2)
O10 O 0.60173(13) 0.9120(3) 1.0005(3)
N1 N 0.45487(17) 0.6634(3) 0.8776(3)
H3 H 0.4455(17) 0.7064(16) 0.845(3)
N2 N 0.30048(16) 0.7075(3) 0.6941(3)
H4 H 0.3130(16) 0.7553(10) 0.708(3)
N3 N 0.27842(15) 1.0109(3) 0.6447(3)
H5 H 0.3103(8) 1.000(2) 0.660(3)
N4 N 0.42788(16) 1.1571(2) 0.7765(3)
H6 H 0.4254(14) 1.1056(17) 0.796(3)
N5 N 0.53599(14) 0.9395(3) 0.9191(3)
H7 H 0.5124(15) 0.9149(17) 0.889(3)
C1 C 0.50701(16) 0.7681(3) 0.9215(3)
C2 C 0.54517(17) 0.8027(3) 0.9675(3)
C3 C 0.57131(18) 0.7534(3) 1.0229(3)
H13 H 0.5977 0.7753 1.0542
C4 C 0.5595(2) 0.6746(4) 1.0325(3)
H14 H 0.5778 0.6426 1.0700
C5 C 0.52096(18) 0.6409(3) 0.9881(3)
H15 H 0.5125 0.5865 0.9958
C6 C 0.49475(17) 0.6884(3) 0.9317(3)
C7 C 0.4321(2) 0.5935(3) 0.8769(4)
C8 C 0.36254(18) 0.6504(3) 0.7795(3)
C9 C 0.39024(17) 0.5870(3) 0.8130(3)
C10 C 0.37702(19) 0.5089(3) 0.7896(3)
H16 H 0.3952 0.4650 0.8107
C11 C 0.3385(2) 0.4957(3) 0.7372(3)
H17 H 0.3303 0.4424 0.7229
C12 C 0.31089(19) 0.5573(3) 0.7042(3)
H18 H 0.2841 0.5466 0.6681
C13 C 0.32339(18) 0.6361(3) 0.7252(3)
C14 C 0.3498(2) 0.7648(3) 0.8668(4)
H19 H 0.3144 0.7645 0.8559
H20 H 0.3609 0.8198 0.8753
H21 H 0.3569 0.7332 0.9165
C15 C 0.2590(2) 0.7139(4) 0.6524(4)
C16 C 0.26862(15) 0.8696(3) 0.6412(3)
C17 C 0.24319(17) 0.7986(3) 0.6294(3)
C18 C 0.19565(18) 0.8032(3) 0.5947(3)
H22 H 0.1772 0.7558 0.5864
C19 C 0.17574(17) 0.8764(3) 0.5727(3)
H23 H 0.1443 0.8778 0.5471
C20 C 0.20043(16) 0.9475(3) 0.5870(3)
H24 H 0.1859 0.9973 0.5731
C21 C 0.24803(16) 0.9439(3) 0.6231(3)
C22 C 0.35486(17) 0.8700(3) 0.6121(4)
H25 H 0.3493 0.8260 0.5732
H26 H 0.3870 0.8636 0.6387
H27 H 0.3539 0.9207 0.5820
C23 C 0.2689(2) 1.0885(3) 0.6336(3)
C24 C 0.35148(18) 1.1275(3) 0.7111(3)
C25 C 0.30998(17) 1.1460(3) 0.6617(3)
C26 C 0.30514(18) 1.2231(3) 0.6325(3)
H28 H 0.2776 1.2367 0.5990
C27 C 0.33961(19) 1.2805(3) 0.6511(3)
H29 H 0.3352 1.3329 0.6298
C28 C 0.38041(19) 1.2647(3) 0.6996(3)
H30 H 0.4034 1.3055 0.7126
C29 C 0.38694(18) 1.1862(3) 0.7292(3)
C30 C 0.34174(18) 1.0336(3) 0.8224(3)
H31 H 0.3511 1.0771 0.8599
H32 H 0.3556 0.9834 0.8428
H33 H 0.3059 1.0294 0.8200
C31 C 0.4703(2) 1.1926(3) 0.7923(3)
C32 C 0.50798(16) 1.0609(3) 0.8572(3)
C33 C 0.50833(16) 1.1432(3) 0.8433(3)
C34 C 0.54641(18) 1.1884(3) 0.8779(3)
H34 H 0.5477 1.2444 0.8688
C35 C 0.58185(18) 1.1518(3) 0.9248(3)
H35 H 0.6078 1.1833 0.9468
C36 C 0.58140(17) 1.0702(4) 0.9415(3)
H36 H 0.6062 1.0464 0.9750
C37 C 0.54309(17) 1.0239(3) 0.9073(3)
C38 C 0.48087(18) 0.9790(3) 0.7436(3)
H37 H 0.4842 1.0222 0.7031
H38 H 0.4542 0.9434 0.7266
H39 H 0.5116 0.9488 0.7466
C39 C 0.56326(19) 0.8893(4) 0.9640(3)
Cl1? Cl 0.27065(14) 0.5798(3) 0.4604(2)
Cl2? Cl 0.22737(15) 0.4399(2) 0.5560(2)
Cl3? Cl 0.2096(4) 0.5661(7) 0.4916(6)
loop_
_geom_bond_atom_site_label_1
_geom_bond_atom_site_label_2
_geom_bond_site_symmetry_1
_geom_bond_site_symmetry_2
O1 H1 1_555 1_555
O2 C7 1_555 1_555
O3 C8 1_555 1_555
O4 C15 1_555 1_555
O5 C16 1_555 1_555
O6 C23 1_555 1_555
O7 C24 1_555 1_555
O8 C31 1_555 1_555
O9 C32 1_555 1_555
O10 C39 1_555 1_555
O11 H2 1_555 1_555
O12 C46 1_555 1_555
O13 C47 1_555 1_555
O14 C54 1_555 1_555
O15 C55 1_555 1_555
O16 C62 1_555 1_555
O17 C63 1_555 1_555
O18 C70 1_555 1_555
O19 C71 1_555 1_555
O20 C78 1_555 1_555
N1 H3 1_555 1_555
N2 H4 1_555 1_555
N3 H5 1_555 1_555
N4 H6 1_555 1_555
N5 H7 1_555 1_555
N6 H8 1_555 1_555
N7 H9 1_555 1_555
N8 H10 1_555 1_555
N9 H11 1_555 1_555
N10 H12 1_555 1_555
C1 O1 1_555 1_555
C2 C1 1_555 1_555
C3 C2 1_555 1_555
H13 C3 1_555 1_555
C4 C3 1_555 1_555
H14 C4 1_555 1_555
C5 C4 1_555 1_555
H15 C5 1_555 1_555
C6 N1 1_555 1_555
C7 N1 1_555 1_555
C8 C9 1_555 1_555
C9 C7 1_555 1_555
C10 C9 1_555 1_555
H16 C10 1_555 1_555
C11 C10 1_555 1_555
H17 C11 1_555 1_555
C12 C11 1_555 1_555
H18 C12 1_555 1_555
C13 N2 1_555 1_555
C14 O3 1_555 1_555
H19 C14 1_555 1_555
H20 C14 1_555 1_555
H21 C14 1_555 1_555
C15 N2 1_555 1_555
C16 C17 1_555 1_555
C17 C15 1_555 1_555
C18 C17 1_555 1_555
H22 C18 1_555 1_555
C19 C18 1_555 1_555
H23 C19 1_555 1_555
C20 C19 1_555 1_555
H24 C20 1_555 1_555
C21 N3 1_555 1_555
C22 O5 1_555 1_555
H25 C22 1_555 1_555
H26 C22 1_555 1_555
H27 C22 1_555 1_555
C23 N3 1_555 1_555
C24 C25 1_555 1_555
C25 C23 1_555 1_555
C26 C25 1_555 1_555
H28 C26 1_555 1_555
C27 C26 1_555 1_555
H29 C27 1_555 1_555
C28 C27 1_555 1_555
H30 C28 1_555 1_555
C29 N4 1_555 1_555
C30 O7 1_555 1_555
H31 C30 1_555 1_555
H32 C30 1_555 1_555
H33 C30 1_555 1_555
C31 N4 1_555 1_555
C32 C33 1_555 1_555
C33 C31 1_555 1_555
C34 C33 1_555 1_555
H34 C34 1_555 1_555
C35 C34 1_555 1_555
H35 C35 1_555 1_555
C36 C35 1_555 1_555
H36 C36 1_555 1_555
C37 N5 1_555 1_555
C38 O9 1_555 1_555
H37 C38 1_555 1_555
H38 C38 1_555 1_555
H39 C38 1_555 1_555
C39 N5 1_555 1_555
C40 O11 1_555 1_555
C41 C40 1_555 1_555
C42 C41 1_555 1_555
H40 C42 1_555 1_555
C43 C42 1_555 1_555
H41 C43 1_555 1_555
C44 C43 1_555 1_555
H42 C44 1_555 1_555
C45 N6 1_555 1_555
C46 N6 1_555 1_555
C47 C48 1_555 1_555
C48 C46 1_555 1_555
C49 C48 1_555 1_555
H43 C49 1_555 1_555
C50 C49 1_555 1_555
H44 C50 1_555 1_555
C51 C50 1_555 1_555
H45 C51 1_555 1_555
C52 N7 1_555 1_555
C53 O13 1_555 1_555
H46 C53 1_555 1_555
H47 C53 1_555 1_555
H48 C53 1_555 1_555
C54 N7 1_555 1_555
C55 C56 1_555 1_555
C56 C54 1_555 1_555
C57 C56 1_555 1_555
H49 C57 1_555 1_555
C58 C57 1_555 1_555
H50 C58 1_555 1_555
C59 C58 1_555 1_555
H51 C59 1_555 1_555
C60 N8 1_555 1_555
C61 O15 1_555 1_555
H52 C61 1_555 1_555
H53 C61 1_555 1_555
H54 C61 1_555 1_555
C62 N8 1_555 1_555
C63 C64 1_555 1_555
C64 C62 1_555 1_555
C65 C64 1_555 1_555
H55 C65 1_555 1_555
C66 C65 1_555 1_555
H56 C66 1_555 1_555
C67 C66 1_555 1_555
H57 C67 1_555 1_555
C68 N9 1_555 1_555
C69 O17 1_555 1_555
H58 C69 1_555 1_555
H59 C69 1_555 1_555
H60 C69 1_555 1_555
C70 N9 1_555 1_555
C71 C72 1_555 1_555
C72 C70 1_555 1_555
C73 C72 1_555 1_555
H61 C73 1_555 1_555
C74 C73 1_555 1_555
H62 C74 1_555 1_555
C75 C74 1_555 1_555
H63 C75 1_555 1_555
C76 N10 1_555 1_555
C77 O19 1_555 1_555
H64 C77 1_555 1_555
H65 C77 1_555 1_555
H66 C77 1_555 1_555
C78 N10 1_555 1_555
C1 C6 1_555 1_555
C2 C39 1_555 1_555
C5 C6 1_555 1_555
C8 C13 1_555 1_555
C12 C13 1_555 1_555
C16 C21 1_555 1_555
C20 C21 1_555 1_555
C24 C29 1_555 1_555
C28 C29 1_555 1_555
C32 C37 1_555 1_555
C36 C37 1_555 1_555
C40 C45 1_555 1_555
C41 C78 1_555 1_555
C44 C45 1_555 1_555
C47 C52 1_555 1_555
C51 C52 1_555 1_555
C55 C60 1_555 1_555
C59 C60 1_555 1_555
C63 C68 1_555 1_555
C67 C68 1_555 1_555
C71 C76 1_555 1_555
C75 C76 1_555 1_555

#END
