
#######################################################################
#
#                 Cambridge Crystallographic Data Centre
#                                CCDC 
#
#######################################################################
#
# If this CIF has been generated from an entry in the Cambridge 
# Structural Database, then it will include bibliographic, chemical, 
# crystal, experimental, refinement or atomic coordinate data resulting 
# from the CCDC's data processing and validation procedures.
#
#######################################################################

data_ELUPUX
_chemical_formula_moiety         'C44 H49 K1 N5 O14 1-,C16 H36 N1 1+,H2 O1'
_chemical_name_systematic        
'Tetrabutylammonium (36,40-dioxy-37,38,39-trimethoxy-2,9,16,23,30-pentaazahexacyclo[30.3.1.1^4,8^.1^11,15^.1^18,22^.1^25,29^]tetraconta-1(36),4(40),5,7,11(39),12,14,18(38),19,21,25(37),26,28,32,34-pentadecaene-3,10,17,24,31-pentone)-diaqua-bis(isopropanol)-potassium monohydrate'
_symmetry_cell_setting           monoclinic
_symmetry_space_group_name_H-M   'P 21/n'
_symmetry_Int_Tables_number      14
_space_group_name_Hall           '-P 2yn'
loop_
_symmetry_equiv_pos_site_id
_symmetry_equiv_pos_as_xyz
1 x,y,z
2 1/2-x,1/2+y,1/2-z
3 -x,-y,-z
4 1/2+x,1/2-y,1/2+z
_cell_length_a                   11.6218(11)
_cell_length_b                   11.9587(11)
_cell_length_c                   45.248(4)
_cell_angle_alpha                90
_cell_angle_beta                 95.406(2)
_cell_angle_gamma                90
_cell_volume                     6260.67
_exptl_crystal_colour            yellow
_exptl_crystal_description       plate
_cell_formula_units_Z            4
loop_
_atom_site_label
_atom_site_type_symbol
_atom_site_fract_x
_atom_site_fract_y
_atom_site_fract_z
C1 C 0.456(4) 1.080(2) 0.8650(3)
H1 H 0.4490 1.0799 0.8437
H2 H 0.5363 1.0872 0.8722
H3 H 0.4138 1.1423 0.8719
C2 C 0.1511(11) 0.6222(13) 0.9848(3)
H4 H 0.1361 0.6059 1.0051
H5 H 0.1981 0.5619 0.9782
C3 C 0.0363(12) 0.6229(14) 0.9656(3)
H6 H -0.0005 0.5514 0.9668
H7 H 0.0497 0.6378 0.9454
H8 H -0.0127 0.6800 0.9725
N1 N 0.3313(5) 0.8561(5) 0.95098(13)
C4 C 0.2986(6) 0.9608(6) 0.96666(17)
H9 H 0.3596 1.0154 0.9654
H10 H 0.2955 0.9433 0.9875
C5 C 0.1845(7) 1.0149(7) 0.95521(19)
H11 H 0.1880 1.0378 0.9348
H12 H 0.1227 0.9605 0.9557
C6 C 0.1581(7) 1.1144(7) 0.97349(19)
H13 H 0.2219 1.1667 0.9734
H14 H 0.1545 1.0900 0.9938
C7 C 0.0484(9) 1.1754(10) 0.9637(3)
H15 H 0.0496 1.1984 0.9434
H16 H 0.0418 1.2400 0.9760
H17 H -0.0163 1.1268 0.9655
C8 C 0.3359(7) 0.8768(7) 0.91774(16)
H18 H 0.3580 0.8075 0.9087
H19 H 0.2585 0.8951 0.9092
C9 C 0.4156(9) 0.9666(8) 0.90935(18)
H20 H 0.4940 0.9495 0.9173
H21 H 0.3937 1.0374 0.9176
C10 C 0.4098(10) 0.9751(10) 0.8759(2)
H22 H 0.4524 0.9131 0.8685
H23 H 0.3298 0.9677 0.8679
C11 C 0.4480(6) 0.8217(6) 0.96576(16)
H24 H 0.5018 0.8827 0.9638
H25 H 0.4410 0.8113 0.9868
C12 C 0.4988(8) 0.7173(8) 0.9539(2)
H26 H 0.5153 0.7298 0.9336
H27 H 0.4428 0.6572 0.9540
C13 C 0.6084(8) 0.6829(8) 0.9722(2)
H28 H 0.6632 0.7440 0.9720
H29 H 0.5907 0.6734 0.9926
C14 C 0.6659(10) 0.5802(10) 0.9631(3)
H30 H 0.6165 0.5171 0.9655
H31 H 0.7373 0.5703 0.9753
H32 H 0.6812 0.5864 0.9427
C15 C 0.2421(7) 0.7652(7) 0.95334(18)
H33 H 0.2661 0.6999 0.9428
H34 H 0.1695 0.7906 0.9432
C16 C 0.2201(8) 0.7294(8) 0.9847(2)
H35 H 0.2936 0.7189 0.9964
H36 H 0.1786 0.7883 0.9939
C17 C 0.6422(6) 0.1327(6) 0.94340(15)
C18 C 1.0442(6) -0.0006(5) 0.86716(16)
C19 C 1.1348(7) 0.4068(5) 0.78537(15)
C20 C 0.7487(6) 0.7492(6) 0.79746(18)
C21 C 0.4109(5) 0.5627(6) 0.88549(18)
N2 N 0.6202(5) 0.2281(5) 0.92715(16)
H37 H 0.6678 0.2494 0.9148
N3 N 0.9599(6) 0.0554(6) 0.88039(15)
H38 H 0.9416 0.1223 0.8748
N4 N 1.1094(6) 0.3389(4) 0.80832(14)
H39 H 1.0776 0.3676 0.8230
N5 N 0.8309(6) 0.6704(6) 0.80667(18)
H40 H 0.8173 0.6239 0.8204
N6 N 0.5037(6) 0.5819(6) 0.86961(15)
H41 H 0.5671 0.5466 0.8744
K1 K 0.79145(14) 0.36203(13) 0.85928(3)
O1 O 0.6208(5) 0.4047(6) 0.89532(14)
O2 O 0.5844(4) 0.1063(4) 0.96337(10)
O3 O 0.8171(6) 0.1924(5) 0.89793(13)
O4 O 1.0761(5) -0.0929(4) 0.87577(12)
O5 O 1.0450(5) 0.2557(5) 0.85546(12)
O6 O 1.1959(4) 0.3723(4) 0.76709(11)
O7 O 0.9035(5) 0.4713(5) 0.80594(11)
O8 O 0.7668(5) 0.8177(5) 0.77844(14)
O9 O 0.7064(5) 0.6197(4) 0.85450(13)
O10 O 0.3279(4) 0.6249(4) 0.88271(13)
C22 C 0.5289(6) 0.3872(6) 0.90971(16)
C23 C 0.4331(7) 0.4598(6) 0.90617(15)
C24 C 0.3405(7) 0.4421(7) 0.92264(18)
H42 H 0.2778 0.4906 0.9202
C25 C 0.3380(7) 0.3568(7) 0.94215(18)
H43 H 0.2753 0.3491 0.9533
C26 C 0.4280(6) 0.2812(7) 0.94556(17)
H44 H 0.4233 0.2222 0.9588
C27 C 0.5235(5) 0.2894(6) 0.93037(17)
C28 C 0.8188(6) 0.0939(7) 0.91077(16)
C29 C 0.7443(6) 0.0659(6) 0.93168(16)
C30 C 0.7546(6) -0.0384(6) 0.94526(17)
H45 H 0.7051 -0.0559 0.9596
C31 C 0.8342(7) -0.1162(6) 0.93850(16)
H46 H 0.8394 -0.1844 0.9484
C32 C 0.9065(7) -0.0928(6) 0.91687(17)
H47 H 0.9586 -0.1473 0.9120
C33 C 0.9048(6) 0.0067(7) 0.90232(14)
C34 C 1.0890(6) 0.1803(6) 0.83570(15)
C35 C 1.0893(6) 0.0673(6) 0.84112(15)
C36 C 1.1395(6) -0.0022(7) 0.82143(17)
H48 H 1.1422 -0.0789 0.8248
C37 C 1.1852(7) 0.0411(7) 0.79695(17)
H49 H 1.2211 -0.0066 0.7844
C38 C 1.1790(7) 0.1530(6) 0.79062(17)
H50 H 1.2074 0.1786 0.7733
C39 C 1.1332(6) 0.2274(5) 0.80860(17)
C40 C 1.1310(8) 0.2890(9) 0.8789(2)
H51 H 1.1534 0.2254 0.8911
H52 H 1.0995 0.3456 0.8909
H53 H 1.1975 0.3182 0.8704
C41 C 0.9763(6) 0.5518(6) 0.79633(16)
C42 C 1.0828(7) 0.5257(5) 0.78834(18)
C43 C 1.1502(7) 0.6087(7) 0.77731(19)
H54 H 1.2216 0.5901 0.7710
C44 C 1.1139(7) 0.7167(7) 0.77553(19)
H55 H 1.1611 0.7718 0.7686
C45 C 1.0066(7) 0.7439(7) 0.7841(2)
H56 H 0.9825 0.8180 0.7829
C46 C 0.9345(6) 0.6650(7) 0.79426(17)
C47 C 0.8412(9) 0.4145(9) 0.7811(2)
H57 H 0.7960 0.4677 0.7692
H58 H 0.7912 0.3590 0.7884
H59 H 0.8953 0.3789 0.7694
C48 C 0.6145(6) 0.6704(6) 0.83762(16)
C49 C 0.6344(5) 0.7289(7) 0.81218(17)
C50 C 0.5410(7) 0.7803(7) 0.79633(19)
H60 H 0.5527 0.8217 0.7795
C51 C 0.4308(7) 0.7710(7) 0.80521(19)
H61 H 0.3695 0.8073 0.7945
C52 C 0.4113(7) 0.7087(6) 0.82969(17)
H62 H 0.3363 0.7025 0.8351
C53 C 0.4991(7) 0.6555(5) 0.84632(14)
C54 C 0.7525(10) 0.6919(8) 0.8779(2)
H63 H 0.7806 0.7593 0.8696
H64 H 0.8148 0.6548 0.8894
H65 H 0.6929 0.7100 0.8905
O11 O 0.9580(6) 0.5019(6) 0.8818(2)
O12 O 0.8548(6) 0.3977(6) 0.92808(17)
O13 O 0.8064(9) 0.1881(7) 0.82149(17)
C55 C 0.7807(12) 0.1262(15) 0.8028(4)
C56 C 0.8448(12) 0.0880(12) 0.7786(3)
H66 H 0.9261 0.0906 0.7847
H67 H 0.8278 0.1356 0.7617
H68 H 0.8227 0.0126 0.7735
C57 C 0.6621(15) 0.116(2) 0.7894(5)
H69 H 0.6098 0.1385 0.8035
H70 H 0.6470 0.0391 0.7839
H71 H 0.6513 0.1621 0.7721
O14 O 0.6184(6) 0.4101(7) 0.81807(16)
C58 C 0.5183(8) 0.4080(8) 0.8078(2)
C59 C 0.4278(12) 0.3581(12) 0.8248(3)
H72 H 0.4635 0.3229 0.8424
H73 H 0.3850 0.3035 0.8127
H74 H 0.3763 0.4158 0.8302
C60 C 0.4803(9) 0.4654(9) 0.7798(2)
H75 H 0.5466 0.4932 0.7709
H76 H 0.4306 0.5267 0.7837
H77 H 0.4390 0.4138 0.7664
O15 O 0.0992(7) 0.6787(7) 0.8796(3)
H78 H 0.167(5) 0.652(12) 0.879(3)
H79 H 0.112(16) 0.683(16) 0.8614(11)
C61? C 1.0058(16) -0.0214(11) 0.8826(5)
C62? C 0.725(4) 0.107(3) 0.8147(11)
C63? C 1.153(2) 0.3348(11) 0.7893(4)
C64? C 0.748(4) 0.003(3) 0.8306(9)
C65? C 0.8182(12) 0.730(2) 0.7907(5)
C66? C 0.4211(15) 0.609(2) 0.8695(5)
C67? C 0.613(4) 0.084(4) 0.7985(11)
C68? C 0.508(4) 1.034(7) 0.8647(5)
C69? C 0.098(4) 0.655(3) 0.9863(10)
C70? C 0.106(3) 0.556(3) 0.9656(9)
C71? C 0.5858(17) 0.1829(15) 0.9448(5)
H80? H 0.6980 0.2122 0.9164
H81? H 0.9927 0.1334 0.8691
H82? H 0.8128 0.0127 0.8450
H83? H 0.7641 -0.0544 0.8168
H84? H 0.6811 -0.0175 0.8404
H85? H 1.0581 0.4092 0.8171
H86? H 0.5869 0.1488 0.7873
H87? H 0.5580 0.0657 0.8124
H88? H 0.6202 0.0222 0.7853
H89? H 0.4039 0.9003 0.8677
H90? H 0.3401 1.0153 0.8688
H91? H 0.4987 1.0347 0.8434
H92? H 0.5786 0.9951 0.8713
H93? H 0.5117 1.1088 0.8721
H94? H 0.7752 0.6485 0.8251
H95? H 0.2170 0.7956 0.9970
H96? H 0.2847 0.6842 0.9930
H97? H 0.0910 0.6300 1.0064
H98? H 0.0310 0.7009 0.9800
H99? H 0.0385 0.5101 0.9662
H100? H 0.1737 0.5131 0.9718
H101? H 0.1106 0.5825 0.9457
H102? H 0.5495 0.5112 0.8811
N7? N 0.6795(14) 0.1623(12) 0.9288(4)
N8? N 1.0239(18) 0.0708(12) 0.8649(4)
N9? N 1.0915(16) 0.4213(10) 0.8012(5)
N10? N 0.7474(9) 0.6945(18) 0.8116(4)
N11? N 0.4797(15) 0.5248(15) 0.8849(4)
loop_
_geom_bond_atom_site_label_1
_geom_bond_atom_site_label_2
_geom_bond_site_symmetry_1
_geom_bond_site_symmetry_2
C1 H1 1_555 1_555
H2 C1 1_555 1_555
H3 C1 1_555 1_555
C2 H4 1_555 1_555
H5 C2 1_555 1_555
C3 C2 1_555 1_555
H6 C3 1_555 1_555
H7 C3 1_555 1_555
H8 C3 1_555 1_555
N1 C4 1_555 1_555
C4 H9 1_555 1_555
H10 C4 1_555 1_555
C5 C4 1_555 1_555
H11 C5 1_555 1_555
H12 C5 1_555 1_555
C6 C5 1_555 1_555
H13 C6 1_555 1_555
H14 C6 1_555 1_555
C7 C6 1_555 1_555
H15 C7 1_555 1_555
H16 C7 1_555 1_555
H17 C7 1_555 1_555
C8 N1 1_555 1_555
H18 C8 1_555 1_555
H19 C8 1_555 1_555
C9 C8 1_555 1_555
H20 C9 1_555 1_555
H21 C9 1_555 1_555
C10 C1 1_555 1_555
H22 C10 1_555 1_555
H23 C10 1_555 1_555
C11 N1 1_555 1_555
H24 C11 1_555 1_555
H25 C11 1_555 1_555
C12 C11 1_555 1_555
H26 C12 1_555 1_555
H27 C12 1_555 1_555
C13 C12 1_555 1_555
H28 C13 1_555 1_555
H29 C13 1_555 1_555
C14 C13 1_555 1_555
H30 C14 1_555 1_555
H31 C14 1_555 1_555
H32 C14 1_555 1_555
C15 N1 1_555 1_555
H33 C15 1_555 1_555
H34 C15 1_555 1_555
C16 C2 1_555 1_555
H35 C16 1_555 1_555
H36 C16 1_555 1_555
C17 N2 1_555 1_555
C18 N3 1_555 1_555
C19 N4 1_555 1_555
C20 N5 1_555 1_555
C21 N6 1_555 1_555
N2 H37 1_555 1_555
N3 H38 1_555 1_555
N4 H39 1_555 1_555
N5 H40 1_555 1_555
N6 H41 1_555 1_555
K1 O1 1_555 1_555
O1 C22 1_555 1_555
O2 C17 1_555 1_555
O3 K1 1_555 1_555
O4 C18 1_555 1_555
O5 K1 1_555 1_555
O6 C19 1_555 1_555
O7 K1 1_555 1_555
O8 C20 1_555 1_555
O9 K1 1_555 1_555
O10 C21 1_555 1_555
C22 C23 1_555 1_555
C23 C21 1_555 1_555
C24 C23 1_555 1_555
H42 C24 1_555 1_555
C25 C24 1_555 1_555
H43 C25 1_555 1_555
C26 C25 1_555 1_555
H44 C26 1_555 1_555
C27 N2 1_555 1_555
C28 O3 1_555 1_555
C29 C17 1_555 1_555
C30 C29 1_555 1_555
H45 C30 1_555 1_555
C31 C30 1_555 1_555
H46 C31 1_555 1_555
C32 C31 1_555 1_555
H47 C32 1_555 1_555
C33 N3 1_555 1_555
C34 O5 1_555 1_555
C35 C18 1_555 1_555
C36 C35 1_555 1_555
H48 C36 1_555 1_555
C37 C36 1_555 1_555
H49 C37 1_555 1_555
C38 C37 1_555 1_555
H50 C38 1_555 1_555
C39 N4 1_555 1_555
C40 O5 1_555 1_555
H51 C40 1_555 1_555
H52 C40 1_555 1_555
H53 C40 1_555 1_555
C41 O7 1_555 1_555
C42 C19 1_555 1_555
C43 C42 1_555 1_555
H54 C43 1_555 1_555
C44 C43 1_555 1_555
H55 C44 1_555 1_555
C45 C44 1_555 1_555
H56 C45 1_555 1_555
C46 N5 1_555 1_555
C47 O7 1_555 1_555
H57 C47 1_555 1_555
H58 C47 1_555 1_555
H59 C47 1_555 1_555
C48 O9 1_555 1_555
C49 C20 1_555 1_555
C50 C49 1_555 1_555
H60 C50 1_555 1_555
C51 C50 1_555 1_555
H61 C51 1_555 1_555
C52 C51 1_555 1_555
H62 C52 1_555 1_555
C53 N6 1_555 1_555
C54 O9 1_555 1_555
H63 C54 1_555 1_555
H64 C54 1_555 1_555
H65 C54 1_555 1_555
O11 K1 1_555 1_555
O12 K1 1_555 1_555
O13 K1 1_555 1_555
C55 O13 1_555 1_555
C56 C55 1_555 1_555
H66 C56 1_555 1_555
H67 C56 1_555 1_555
H68 C56 1_555 1_555
C57 C55 1_555 1_555
H69 C57 1_555 1_555
H70 C57 1_555 1_555
H71 C57 1_555 1_555
O14 K1 1_555 1_555
C58 O14 1_555 1_555
C59 C58 1_555 1_555
H72 C59 1_555 1_555
H73 C59 1_555 1_555
H74 C59 1_555 1_555
C60 C58 1_555 1_555
H75 C60 1_555 1_555
H76 C60 1_555 1_555
H77 C60 1_555 1_555
O15 H78 1_555 1_555
H79 O15 1_555 1_555
C9 C10 1_555 1_555
C15 C16 1_555 1_555
C22 C27 1_555 1_555
C26 C27 1_555 1_555
C28 C29 1_555 1_555
C28 C33 1_555 1_555
C32 C33 1_555 1_555
C34 C35 1_555 1_555
C34 C39 1_555 1_555
C38 C39 1_555 1_555
C41 C42 1_555 1_555
C41 C46 1_555 1_555
C45 C46 1_555 1_555
C48 C49 1_555 1_555
C48 C53 1_555 1_555
C52 C53 1_555 1_555

#END
