
#######################################################################
#
#                 Cambridge Crystallographic Data Centre
#                                CCDC 
#
#######################################################################
#
# If this CIF has been generated from an entry in the Cambridge 
# Structural Database, then it will include bibliographic, chemical, 
# crystal, experimental, refinement or atomic coordinate data resulting 
# from the CCDC's data processing and validation procedures.
#
#######################################################################

data_ELUTAH
_chemical_formula_moiety         'C12 H16 O3'
_chemical_name_systematic        
5a-Methyloctahydro-2H-indeno[5,4-b]furan-2,8(1H)-dione
_symmetry_cell_setting           monoclinic
_symmetry_space_group_name_H-M   'P 21/c'
_symmetry_Int_Tables_number      14
_space_group_name_Hall           '-P 2ybc'
loop_
_symmetry_equiv_pos_site_id
_symmetry_equiv_pos_as_xyz
1 x,y,z
2 -x,1/2+y,1/2-z
3 -x,-y,-z
4 x,1/2-y,1/2+z
_cell_length_a                   12.052(7)
_cell_length_b                   10.973(5)
_cell_length_c                   8.450(4)
_cell_angle_alpha                90
_cell_angle_beta                 110.181(6)
_cell_angle_gamma                90
_cell_volume                     1048.88
_exptl_crystal_colour            colorless
_exptl_crystal_description       plate
_cell_formula_units_Z            4
loop_
_atom_site_label
_atom_site_type_symbol
_atom_site_fract_x
_atom_site_fract_y
_atom_site_fract_z
O1 O 0.5344(2) 0.1305(2) 0.1149(3)
O2 O 0.7180(2) 0.0770(2) 0.1413(3)
O3 O 0.9251(2) 0.2253(2) -0.1992(3)
C1 C 0.6082(3) 0.1144(3) 0.0492(5)
C2 C 0.7864(3) 0.0545(3) 0.0289(4)
H1 H 0.8698 0.0830 0.0836
C3 C 0.7844(3) -0.0824(3) -0.0068(4)
H2 H 0.7022 -0.1130 -0.0403
H3 H 0.8325 -0.1260 0.0967
C4 C 0.8339(3) -0.1072(3) -0.1483(4)
H4 H 0.8360 -0.1963 -0.1655
H5 H 0.9160 -0.0764 -0.1137
C5 C 0.7595(3) -0.0464(3) -0.3163(4)
C6 C 0.6401(3) -0.1099(3) -0.3939(5)
H6 H 0.6527 -0.1946 -0.4207
H7 H 0.5932 -0.0674 -0.4973
H8 H 0.5979 -0.1086 -0.3134
C7 C 0.8286(3) -0.0485(3) -0.4409(4)
H9 H 0.8719 -0.1264 -0.4315
H10 H 0.7737 -0.0394 -0.5584
C8 C 0.9156(3) 0.0589(3) -0.3921(4)
H11 H 0.9968 0.0299 -0.3304
H12 H 0.9155 0.1038 -0.4938
C9 C 0.8720(3) 0.1392(3) -0.2810(4)
C10 C 0.7511(3) 0.0918(3) -0.2837(4)
H13 H 0.6892 0.1273 -0.3849
C11 C 0.7235(3) 0.1322(3) -0.1270(4)
H14 H 0.7520 0.2179 -0.1007
C12 C 0.5954(3) 0.1282(3) -0.1339(4)
H15 H 0.5531 0.2043 -0.1820
H16 H 0.5528 0.0580 -0.2013
loop_
_geom_bond_atom_site_label_1
_geom_bond_atom_site_label_2
_geom_bond_site_symmetry_1
_geom_bond_site_symmetry_2
O1 C1 1_555 1_555
O2 C1 1_555 1_555
O3 C9 1_555 1_555
C1 C12 1_555 1_555
C2 O2 1_555 1_555
H1 C2 1_555 1_555
C3 C2 1_555 1_555
H2 C3 1_555 1_555
H3 C3 1_555 1_555
C4 C3 1_555 1_555
H4 C4 1_555 1_555
H5 C4 1_555 1_555
C5 C4 1_555 1_555
C6 C5 1_555 1_555
H6 C6 1_555 1_555
H7 C6 1_555 1_555
H8 C6 1_555 1_555
C7 C5 1_555 1_555
H9 C7 1_555 1_555
H10 C7 1_555 1_555
C8 C7 1_555 1_555
H11 C8 1_555 1_555
H12 C8 1_555 1_555
C9 C8 1_555 1_555
C10 C5 1_555 1_555
H13 C10 1_555 1_555
C11 C2 1_555 1_555
H14 C11 1_555 1_555
C12 C11 1_555 1_555
H15 C12 1_555 1_555
H16 C12 1_555 1_555
C9 C10 1_555 1_555
C10 C11 1_555 1_555

#END
