
#######################################################################
#
#                 Cambridge Crystallographic Data Centre
#                                CCDC 
#
#######################################################################
#
# If this CIF has been generated from an entry in the Cambridge 
# Structural Database, then it will include bibliographic, chemical, 
# crystal, experimental, refinement or atomic coordinate data resulting 
# from the CCDC's data processing and validation procedures.
#
#######################################################################

data_ELUTEL
_chemical_formula_moiety         'C23 H40 O4 Si1'
_chemical_name_systematic        
6-(5-((t-Butyl(dimethyl)silyl)oxy)pentan-2-yl)-5a-methyloctahydro-2H-indeno[5,4-b]furan-2,8(1H)-dione
_symmetry_cell_setting           monoclinic
_symmetry_space_group_name_H-M   'P 21/n'
_symmetry_Int_Tables_number      14
_space_group_name_Hall           '-P 2yn'
loop_
_symmetry_equiv_pos_site_id
_symmetry_equiv_pos_as_xyz
1 x,y,z
2 1/2-x,1/2+y,1/2-z
3 -x,-y,-z
4 1/2+x,1/2-y,1/2+z
_cell_length_a                   9.9972(6)
_cell_length_b                   6.5178(4)
_cell_length_c                   35.853(2)
_cell_angle_alpha                90
_cell_angle_beta                 92.2650(10)
_cell_angle_gamma                90
_cell_volume                     2334.35
_exptl_crystal_colour            colorless
_exptl_crystal_description       plate
_cell_formula_units_Z            4
loop_
_atom_site_label
_atom_site_type_symbol
_atom_site_fract_x
_atom_site_fract_y
_atom_site_fract_z
Si1 Si 0.14638(4) 0.66633(6) 0.066580(12)
O1 O -0.76397(10) 1.02728(17) 0.21475(3)
O2 O -0.80818(11) 1.04787(17) 0.27488(3)
O3 O -0.29688(10) 1.19834(16) 0.26618(3)
O4 O 0.15937(10) 0.75610(16) 0.10943(3)
C1 C -0.72706(15) 1.0243(2) 0.25111(4)
C2 C -0.57926(14) 0.9877(2) 0.25651(4)
H1 H -0.5617 0.8511 0.2678
H2 H -0.5378 1.0938 0.2730
C3 C -0.52362(14) 0.9994(2) 0.21737(4)
H3 H -0.4653 0.8776 0.2131
C4 C -0.65062(13) 0.9869(2) 0.19134(4)
H4 H -0.6588 0.8447 0.1810
C5 C -0.65218(14) 1.1385(2) 0.15927(4)
H5 H -0.6709 1.2785 0.1684
H6 H -0.7226 1.1010 0.1403
C6 C -0.51458(14) 1.1313(2) 0.14232(4)
H7 H -0.5174 1.2087 0.1185
H8 H -0.4914 0.9872 0.1368
C7 C -0.40579(14) 1.2241(2) 0.16913(4)
C8 C -0.44411(13) 1.1983(2) 0.21048(4)
H9 H -0.4966 1.3200 0.2185
C9 C -0.31076(14) 1.1895(2) 0.23245(4)
C10 C -0.19902(14) 1.1662(2) 0.20574(4)
H10 H -0.1365 1.0562 0.2141
H11 H -0.1484 1.2960 0.2038
C11 C -0.26831(14) 1.1105(2) 0.16817(4)
H12 H -0.2874 0.9600 0.1687
C12 C -0.17883(15) 1.1501(2) 0.13497(4)
H13 H -0.1560 1.2995 0.1355
C13 C -0.04552(15) 1.0318(2) 0.13910(4)
H14 H 0.0111 1.0719 0.1183
H15 H 0.0013 1.0762 0.1626
C14 C -0.05618(15) 0.7979(2) 0.13956(4)
H16 H -0.1041 0.7547 0.1619
H17 H -0.1094 0.7520 0.1172
C15 C 0.08036(15) 0.6947(2) 0.14001(4)
H18 H 0.1295 0.7284 0.1637
H19 H 0.0678 0.5441 0.1391
C16 C 0.31299(17) 0.7159(3) 0.04550(4)
C17 C -0.39243(16) 1.4552(2) 0.16114(4)
H20 H -0.4799 1.5213 0.1630
H21 H -0.3601 1.4748 0.1359
H22 H -0.3288 1.5165 0.1794
C18 C -0.24804(17) 1.1071(3) 0.09700(4)
H23 H -0.3199 1.2072 0.0923
H24 H -0.2859 0.9684 0.0969
H25 H -0.1827 1.1180 0.0774
C19 C 0.01036(18) 0.7989(3) 0.03887(5)
H26 H -0.0766 0.7617 0.0486
H27 H 0.0132 0.7569 0.0127
H28 H 0.0229 0.9477 0.0407
C20 C 0.1072(2) 0.3874(3) 0.06758(5)
H29 H 0.0160 0.3677 0.0760
H30 H 0.1707 0.3177 0.0848
H31 H 0.1142 0.3299 0.0425
C21 C 0.42434(19) 0.6103(3) 0.06900(5)
H32 H 0.5113 0.6424 0.0587
H33 H 0.4102 0.4615 0.0685
H34 H 0.4227 0.6595 0.0948
C22 C 0.3418(2) 0.9470(3) 0.04432(6)
H35 H 0.4311 0.9698 0.0348
H36 H 0.3381 1.0042 0.0695
H37 H 0.2747 1.0147 0.0279
C23 C 0.3135(2) 0.6312(3) 0.00541(5)
H38 H 0.4008 0.6576 -0.0051
H39 H 0.2432 0.6990 -0.0099
H40 H 0.2968 0.4831 0.0058
loop_
_geom_bond_atom_site_label_1
_geom_bond_atom_site_label_2
_geom_bond_site_symmetry_1
_geom_bond_site_symmetry_2
Si1 O4 1_555 1_555
O1 C1 1_555 1_555
O2 C1 1_555 1_555
O3 C9 1_555 1_555
O4 C15 1_555 1_555
C1 C2 1_555 1_555
C2 H1 1_555 1_555
H2 C2 1_555 1_555
C3 C2 1_555 1_555
H3 C3 1_555 1_555
C4 O1 1_555 1_555
H4 C4 1_555 1_555
C5 C4 1_555 1_555
H5 C5 1_555 1_555
H6 C5 1_555 1_555
C6 C5 1_555 1_555
H7 C6 1_555 1_555
H8 C6 1_555 1_555
C7 C6 1_555 1_555
C8 C3 1_555 1_555
H9 C8 1_555 1_555
C9 C8 1_555 1_555
C10 C9 1_555 1_555
H10 C10 1_555 1_555
H11 C10 1_555 1_555
C11 C7 1_555 1_555
H12 C11 1_555 1_555
C12 C11 1_555 1_555
H13 C12 1_555 1_555
C13 C12 1_555 1_555
H14 C13 1_555 1_555
H15 C13 1_555 1_555
C14 C13 1_555 1_555
H16 C14 1_555 1_555
H17 C14 1_555 1_555
C15 C14 1_555 1_555
H18 C15 1_555 1_555
H19 C15 1_555 1_555
C16 Si1 1_555 1_555
C17 C7 1_555 1_555
H20 C17 1_555 1_555
H21 C17 1_555 1_555
H22 C17 1_555 1_555
C18 C12 1_555 1_555
H23 C18 1_555 1_555
H24 C18 1_555 1_555
H25 C18 1_555 1_555
C19 Si1 1_555 1_555
H26 C19 1_555 1_555
H27 C19 1_555 1_555
H28 C19 1_555 1_555
C20 Si1 1_555 1_555
H29 C20 1_555 1_555
H30 C20 1_555 1_555
H31 C20 1_555 1_555
C21 C16 1_555 1_555
H32 C21 1_555 1_555
H33 C21 1_555 1_555
H34 C21 1_555 1_555
C22 C16 1_555 1_555
H35 C22 1_555 1_555
H36 C22 1_555 1_555
H37 C22 1_555 1_555
C23 C16 1_555 1_555
H38 C23 1_555 1_555
H39 C23 1_555 1_555
H40 C23 1_555 1_555
C3 C4 1_555 1_555
C7 C8 1_555 1_555
C10 C11 1_555 1_555

#END
