
#######################################################################
#
#                 Cambridge Crystallographic Data Centre
#                                CCDC 
#
#######################################################################
#
# If this CIF has been generated from an entry in the Cambridge 
# Structural Database, then it will include bibliographic, chemical, 
# crystal, experimental, refinement or atomic coordinate data resulting 
# from the CCDC's data processing and validation procedures.
#
#######################################################################

data_ELUZUI
_chemical_formula_moiety         'C28 H38 O7,H2 O1'
_chemical_name_systematic        
"12a-hydroxy-10-(1-hydroxy-1-(4-methyl-5-oxo-2,5-dihydrofuran-2-yl)propan-2-yl)-5,5-dimethyl-3,3a,5,5a,6,7,7a,9,10,10a,11,12,12a,13-tetradecahydro-2H-furo[3,2-b]indeno[4',5':5,6]cyclohepta[1,2-c]furan-2-one monohydrate"
_symmetry_cell_setting           triclinic
_symmetry_space_group_name_H-M   'P -1'
_symmetry_Int_Tables_number      2
_space_group_name_Hall           '-P 1'
loop_
_symmetry_equiv_pos_site_id
_symmetry_equiv_pos_as_xyz
1 x,y,z
2 -x,-y,-z
_cell_length_a                   10.5010(9)
_cell_length_b                   10.5808(11)
_cell_length_c                   13.6183(14)
_cell_angle_alpha                111.017(10)
_cell_angle_beta                 108.860(9)
_cell_angle_gamma                93.196(8)
_cell_volume                     1311.13
_cell_formula_units_Z            2
loop_
_atom_site_label
_atom_site_type_symbol
_atom_site_fract_x
_atom_site_fract_y
_atom_site_fract_z
C1 C 0.9668(4) 0.3244(4) 0.4880(3)
C2 C 0.8347(4) 0.2689(4) 0.4919(3)
H1 H 0.8516 0.2393 0.5538
H2 H 0.7774 0.3379 0.5003
C3 C 0.7696(4) 0.1497(4) 0.3806(3)
H3 H 0.6692 0.1345 0.3527
C4 C 0.8289(3) 0.1839(4) 0.3010(3)
C5 C 0.7363(3) 0.2595(4) 0.2383(3)
H4 H 0.7190 0.3359 0.2949
H5 H 0.6490 0.1965 0.1912
C6 C 0.7801(3) 0.3182(4) 0.1627(3)
C7 C 0.6798(4) 0.4149(4) 0.1393(3)
H6 H 0.5867 0.3621 0.1024
H7 H 0.6868 0.4861 0.2107
C8 C 0.7084(4) 0.4835(4) 0.0648(3)
H8 H 0.6388 0.5372 0.0478
H9 H 0.7968 0.5459 0.1053
C9 C 0.7082(4) 0.3759(4) -0.0448(3)
H10 H 0.6143 0.3246 -0.0920
C10 C 0.7660(4) 0.4358(4) -0.1137(3)
H11 H 0.8081 0.5331 -0.0660
C11 C 0.8812(4) 0.3576(4) -0.1346(3)
H12 H 0.8570 0.3021 -0.2145
H13 H 0.9670 0.4215 -0.1069
C12 C 0.8923(4) 0.2678(4) -0.0692(3)
H14 H 0.9576 0.2124 -0.0626
C13 C 0.7990(4) 0.2762(4) -0.0218(3)
C14 C 0.7721(3) 0.2064(4) 0.0507(3)
H15 H 0.6766 0.1568 0.0119
C15 C 0.8600(4) 0.0979(4) 0.0605(3)
H16 H 0.9533 0.1444 0.1108
H17 H 0.8621 0.0442 -0.0134
C16 C 0.8074(4) -0.0009(4) 0.1054(3)
H18 H 0.7081 -0.0146 0.0788
H19 H 0.8314 -0.0897 0.0734
C17 C 0.8633(4) 0.0486(4) 0.2336(3)
H20 H 0.9635 0.0619 0.2585
C18 C 0.8160(4) -0.0566(4) 0.2776(3)
C19 C 0.9184(4) -0.1494(4) 0.2957(3)
H21 H 1.0043 -0.0944 0.3530
H22 H 0.9318 -0.1975 0.2263
H23 H 0.8841 -0.2150 0.3193
C20 C 0.6724(4) -0.1413(4) 0.2053(3)
H24 H 0.6478 -0.1979 0.2405
H25 H 0.6700 -0.1991 0.1317
H26 H 0.6086 -0.0807 0.1981
C21 C 0.6535(4) 0.4291(4) -0.2230(3)
H27 H 0.5803 0.4713 -0.2020
C22 C 0.5902(4) 0.2797(4) -0.3086(3)
H28 H 0.5017 0.2769 -0.3606
H29 H 0.5803 0.2228 -0.2693
H30 H 0.6489 0.2461 -0.3496
C23 C 0.7065(4) 0.5086(4) -0.2782(3)
H31 H 0.7778 0.4647 -0.3013
C24 C 0.7681(4) 0.6618(4) -0.2051(3)
H32 H 0.8521 0.6718 -0.1422
C25 C 0.7967(4) 0.7387(4) -0.2695(3)
H33 H 0.8598 0.7214 -0.3051
C26 C 0.7226(4) 0.8349(4) -0.2705(3)
C27 C 0.6424(4) 0.8343(4) -0.1998(3)
C28 C 0.7118(4) 0.9322(4) -0.3277(4)
H34 H 0.7624 0.9096 -0.3771
H35 H 0.7487 1.0248 -0.2719
H36 H 0.6171 0.9249 -0.3712
O1 O 1.0691(3) 0.4002(3) 0.5655(2)
O2 O 0.9605(2) 0.2796(2) 0.38149(18)
O3 O 0.8205(2) 0.0305(2) 0.3887(2)
O4 O 0.9183(2) 0.3947(3) 0.21765(19)
H37 H 0.9291 0.4500 0.2813
O5 O 0.5949(3) 0.4943(3) -0.3789(2)
H38 H 0.6251 0.5175 -0.4197
O6 O 0.6695(3) 0.7306(3) -0.1616(2)
O7 O 0.5660(3) 0.9083(3) -0.1742(3)
O8 O 0.6818(4) 0.5312(4) 0.4647(3)
H39 H 0.598(3) 0.537(6) 0.408(4)
H40 H 0.754(4) 0.585(6) 0.456(5)
loop_
_geom_bond_atom_site_label_1
_geom_bond_atom_site_label_2
_geom_bond_site_symmetry_1
_geom_bond_site_symmetry_2
C1 C2 1_555 1_555
C2 H1 1_555 1_555
H2 C2 1_555 1_555
C3 C2 1_555 1_555
H3 C3 1_555 1_555
C4 C3 1_555 1_555
C5 C4 1_555 1_555
H4 C5 1_555 1_555
H5 C5 1_555 1_555
C6 C5 1_555 1_555
C7 C6 1_555 1_555
H6 C7 1_555 1_555
H7 C7 1_555 1_555
C8 C7 1_555 1_555
H8 C8 1_555 1_555
H9 C8 1_555 1_555
C9 C8 1_555 1_555
H10 C9 1_555 1_555
C10 C9 1_555 1_555
H11 C10 1_555 1_555
C11 C10 1_555 1_555
H12 C11 1_555 1_555
H13 C11 1_555 1_555
C12 C11 1_555 1_555
H14 C12 1_555 1_555
C13 C9 1_555 1_555
C14 C6 1_555 1_555
H15 C14 1_555 1_555
C15 C14 1_555 1_555
H16 C15 1_555 1_555
H17 C15 1_555 1_555
C16 C15 1_555 1_555
H18 C16 1_555 1_555
H19 C16 1_555 1_555
C17 C4 1_555 1_555
H20 C17 1_555 1_555
C18 C17 1_555 1_555
C19 C18 1_555 1_555
H21 C19 1_555 1_555
H22 C19 1_555 1_555
H23 C19 1_555 1_555
C20 C18 1_555 1_555
H24 C20 1_555 1_555
H25 C20 1_555 1_555
H26 C20 1_555 1_555
C21 C10 1_555 1_555
H27 C21 1_555 1_555
C22 C21 1_555 1_555
H28 C22 1_555 1_555
H29 C22 1_555 1_555
H30 C22 1_555 1_555
C23 C21 1_555 1_555
H31 C23 1_555 1_555
C24 C23 1_555 1_555
H32 C24 1_555 1_555
C25 C24 1_555 1_555
H33 C25 1_555 1_555
C26 C25 1_555 1_555
C27 C26 1_555 1_555
C28 C26 1_555 1_555
H34 C28 1_555 1_555
H35 C28 1_555 1_555
H36 C28 1_555 1_555
O1 C1 1_555 1_555
O2 C1 1_555 1_555
O3 C3 1_555 1_555
O4 C6 1_555 1_555
H37 O4 1_555 1_555
O5 C23 1_555 1_555
H38 O5 1_555 1_555
O6 C24 1_555 1_555
O7 C27 1_555 1_555
O8 H39 1_555 1_555
H40 O8 1_555 1_555
C4 O2 1_555 1_555
C12 C13 1_555 1_555
C13 C14 1_555 1_555
C16 C17 1_555 1_555
C18 O3 1_555 1_555
C27 O6 1_555 1_555

#END
