
#######################################################################
#
#                 Cambridge Crystallographic Data Centre
#                                CCDC 
#
#######################################################################
#
# If this CIF has been generated from an entry in the Cambridge 
# Structural Database, then it will include bibliographic, chemical, 
# crystal, experimental, refinement or atomic coordinate data resulting 
# from the CCDC's data processing and validation procedures.
#
#######################################################################

data_EMACOL
_chemical_name_common            
1,1'-(Naphthalene-1,5-diylbis(methylene))bis(3,5-dimethyl-1H-pyrazole)
_chemical_formula_moiety         'C22 H24 N4'
_chemical_name_systematic        
1,5-bis((3,5-Dimethyl-1H-pyrazol-1-yl)methyl)naphthalene
_symmetry_cell_setting           monoclinic
_symmetry_space_group_name_H-M   'P 21/n'
_symmetry_Int_Tables_number      14
_space_group_name_Hall           '-P 2yn'
loop_
_symmetry_equiv_pos_site_id
_symmetry_equiv_pos_as_xyz
1 x,y,z
2 1/2-x,1/2+y,1/2-z
3 -x,-y,-z
4 1/2+x,1/2-y,1/2+z
_cell_length_a                   8.546(4)
_cell_length_b                   11.661(6)
_cell_length_c                   10.097(5)
_cell_angle_alpha                90
_cell_angle_beta                 108.355(8)
_cell_angle_gamma                90
_cell_volume                     955.023
_exptl_crystal_colour            colorless
_exptl_crystal_description       needle
_cell_formula_units_Z            2
loop_
_atom_site_label
_atom_site_type_symbol
_atom_site_fract_x
_atom_site_fract_y
_atom_site_fract_z
N1 N 0.12514(15) 0.41819(10) 0.12413(11)
N2 N 0.05675(15) 0.31960(10) 0.05818(12)
C1 C 0.17225(19) 0.27601(13) 0.00929(14)
C2 C 0.31242(19) 0.34575(13) 0.04408(14)
H1 H 0.4107 0.3330 0.0213
C3 C 0.27919(18) 0.43681(13) 0.11824(14)
C4 C 0.1382(2) 0.16826(14) -0.07573(18)
H2 H 0.1310 0.1035 -0.0161
H3 H 0.2277 0.1547 -0.1152
H4 H 0.0338 0.1761 -0.1515
C5 C 0.3777(2) 0.54005(15) 0.18090(17)
H5 H 0.3246 0.6088 0.1308
H6 H 0.4891 0.5330 0.1738
H7 H 0.3843 0.5461 0.2793
C6 C 0.03345(19) 0.48567(13) 0.19565(14)
H8 H -0.0859 0.4763 0.1464
H9 H 0.0609 0.5677 0.1904
C7 C 0.06829(18) 0.45290(12) 0.34821(13)
C8 C 0.17937(18) 0.36937(12) 0.40992(14)
H10 H 0.2345 0.3288 0.3561
C9 C 0.21360(18) 0.34237(12) 0.55290(14)
H11 H 0.2921 0.2846 0.5944
C10 C -0.13399(18) 0.60075(12) 0.36837(14)
H12 H -0.1576 0.6198 0.2726
C11 C -0.01701(17) 0.51400(11) 0.42769(13)
N1B N -0.12514(15) 0.58181(10) 0.87587(11)
N2B N -0.05675(15) 0.68040(10) 0.94182(12)
C1B C -0.17225(19) 0.72399(13) 0.99071(14)
C2B C -0.31242(19) 0.65425(13) 0.95592(14)
H1B H -0.4107 0.6670 0.9787
C3B C -0.27919(18) 0.56319(13) 0.88176(14)
C4B C -0.1382(2) 0.83174(14) 1.07573(18)
H2B H -0.1310 0.8965 1.0161
H3B H -0.2277 0.8453 1.1152
H4B H -0.0338 0.8239 1.1515
C5B C -0.3777(2) 0.45995(15) 0.81910(17)
H5B H -0.3246 0.3912 0.8692
H6B H -0.4891 0.4670 0.8262
H7B H -0.3843 0.4539 0.7207
C6B C -0.03345(19) 0.51433(13) 0.80435(14)
H8B H 0.0859 0.5237 0.8536
H9B H -0.0609 0.4323 0.8096
C7B C -0.06829(18) 0.54710(12) 0.65179(13)
C8B C -0.17937(18) 0.63063(12) 0.59008(14)
H10B H -0.2345 0.6712 0.6439
C9B C -0.21360(18) 0.65763(12) 0.44710(14)
H11B H -0.2921 0.7154 0.4056
C10B C 0.13399(18) 0.39925(12) 0.63163(14)
H12B H 0.1576 0.3802 0.7274
C11B C 0.01701(17) 0.48600(11) 0.57231(13)
loop_
_geom_bond_atom_site_label_1
_geom_bond_atom_site_label_2
_geom_bond_site_symmetry_1
_geom_bond_site_symmetry_2
N1 N2 1_555 1_555
N2 C1 1_555 1_555
C1 C2 1_555 1_555
C2 H1 1_555 1_555
C3 N1 1_555 1_555
C4 C1 1_555 1_555
H2 C4 1_555 1_555
H3 C4 1_555 1_555
H4 C4 1_555 1_555
C5 C3 1_555 1_555
H5 C5 1_555 1_555
H6 C5 1_555 1_555
H7 C5 1_555 1_555
C6 N1 1_555 1_555
H8 C6 1_555 1_555
H9 C6 1_555 1_555
C7 C6 1_555 1_555
C8 C7 1_555 1_555
H10 C8 1_555 1_555
C9 C8 1_555 1_555
H11 C9 1_555 1_555
C10 H12 1_555 1_555
C11 C7 1_555 1_555
N1B N2B 1_555 1_555
N2B C1B 1_555 1_555
C1B C2B 1_555 1_555
C2B H1B 1_555 1_555
C3B N1B 1_555 1_555
C4B C1B 1_555 1_555
H2B C4B 1_555 1_555
H3B C4B 1_555 1_555
H4B C4B 1_555 1_555
C5B C3B 1_555 1_555
H5B C5B 1_555 1_555
H6B C5B 1_555 1_555
H7B C5B 1_555 1_555
C6B N1B 1_555 1_555
H8B C6B 1_555 1_555
H9B C6B 1_555 1_555
C7B C6B 1_555 1_555
C8B C7B 1_555 1_555
H10B C8B 1_555 1_555
C9B C10 1_555 1_555
H11B C9B 1_555 1_555
C10B C9 1_555 1_555
H12B C10B 1_555 1_555
C11B C11 1_555 1_555
C2 C3 1_555 1_555
C10 C11 1_555 1_555
C2B C3B 1_555 1_555
C7B C11B 1_555 1_555
C8B C9B 1_555 1_555
C10B C11B 1_555 1_555

#END
