
#######################################################################
#
#                 Cambridge Crystallographic Data Centre
#                                CCDC 
#
#######################################################################
#
# If this CIF has been generated from an entry in the Cambridge 
# Structural Database, then it will include bibliographic, chemical, 
# crystal, experimental, refinement or atomic coordinate data resulting 
# from the CCDC's data processing and validation procedures.
#
#######################################################################

data_EMALUB
_chemical_formula_moiety         'C20 H18 F3 N1 O2'
_chemical_name_systematic        
3'-benzyl-2-(trifluoromethyl)-3,4-dihydro-2H,2'H-spiro[naphthalene-1,5'-[1,3]oxazolidin]-2'-one
_symmetry_cell_setting           monoclinic
_symmetry_space_group_name_H-M   'P 21/c'
_symmetry_Int_Tables_number      14
_space_group_name_Hall           '-P 2ybc'
loop_
_symmetry_equiv_pos_site_id
_symmetry_equiv_pos_as_xyz
1 x,y,z
2 -x,1/2+y,1/2-z
3 -x,-y,-z
4 x,1/2-y,1/2+z
_cell_length_a                   10.9183(3)
_cell_length_b                   9.1231(2)
_cell_length_c                   17.5923(5)
_cell_angle_alpha                90
_cell_angle_beta                 97.160(2)
_cell_angle_gamma                90
_cell_volume                     1738.68
_exptl_crystal_colour            colorless
_exptl_crystal_description       plate
_cell_formula_units_Z            4
loop_
_atom_site_label
_atom_site_type_symbol
_atom_site_fract_x
_atom_site_fract_y
_atom_site_fract_z
F1 F 0.55611(9) 0.37080(14) 0.46472(7)
O1 O 0.86183(10) 0.27137(11) 0.41185(6)
F2 F 0.64341(11) 0.39614(16) 0.57970(7)
F3 F 0.69431(12) 0.21789(13) 0.51042(8)
O2 O 0.81364(14) 0.04443(13) 0.36793(9)
N1 N 0.69761(13) 0.24515(14) 0.32611(8)
C1 C 0.80684(12) 0.41723(15) 0.40547(8)
C2 C 0.76422(12) 0.45787(16) 0.48281(8)
H1 H 0.8365 0.4491 0.5216
C3 C 0.70277(13) 0.40128(15) 0.33724(9)
H2 H 0.6249 0.4391 0.3501
H3 H 0.7239 0.4513 0.2920
C4 C 0.79058(16) 0.17414(17) 0.36750(10)
C5 C 0.91484(13) 0.66593(16) 0.41698(8)
C6 C 0.48030(16) 0.17117(16) 0.28971(9)
C7 C 0.90479(12) 0.52512(16) 0.38608(8)
C8 C 0.3852(2) 0.24800(18) 0.24811(11)
H4 H 0.4017 0.3044 0.2065
C9 C 0.72466(14) 0.61883(18) 0.48151(10)
H5 H 0.6629 0.6364 0.4378
H6 H 0.6884 0.6417 0.5277
C10 C 0.83620(15) 0.71677(18) 0.47629(10)
H7 H 0.8079 0.8158 0.4640
H8 H 0.8862 0.7194 0.5259
C11 C 0.98174(15) 0.48354(19) 0.33213(9)
H9 H 0.9757 0.3895 0.3116
C12 C 0.45294(18) 0.0891(2) 0.35192(11)
H10 H 0.5151 0.0370 0.3812
C13 C 0.66472(16) 0.3602(2) 0.50847(10)
C14 C 0.61000(18) 0.1755(2) 0.26820(11)
H11 H 0.6371 0.0762 0.2601
H12 H 0.6094 0.2283 0.2203
C15 C 1.00194(15) 0.76210(19) 0.39279(10)
H13 H 1.0097 0.8560 0.4133
C16 C 1.07651(15) 0.7199(2) 0.33897(11)
H14 H 1.1333 0.7856 0.3230
C17 C 1.06702(16) 0.5809(2) 0.30885(10)
H15 H 1.1178 0.5521 0.2729
C18 C 0.2660(2) 0.2427(2) 0.26711(14)
H16 H 0.2032 0.2946 0.2383
C19 C 0.3326(2) 0.0847(2) 0.37054(13)
H17 H 0.3148 0.0293 0.4122
C20 C 0.2410(2) 0.1609(3) 0.32821(15)
H18 H 0.1610 0.1573 0.3410
loop_
_geom_bond_atom_site_label_1
_geom_bond_atom_site_label_2
_geom_bond_site_symmetry_1
_geom_bond_site_symmetry_2
F1 C13 1_555 1_555
O1 C1 1_555 1_555
F2 C13 1_555 1_555
F3 C13 1_555 1_555
O2 C4 1_555 1_555
N1 C3 1_555 1_555
C1 C2 1_555 1_555
C2 H1 1_555 1_555
C3 C1 1_555 1_555
H2 C3 1_555 1_555
H3 C3 1_555 1_555
C4 O1 1_555 1_555
C5 C7 1_555 1_555
C6 C8 1_555 1_555
C7 C1 1_555 1_555
C8 H4 1_555 1_555
C9 C2 1_555 1_555
H5 C9 1_555 1_555
H6 C9 1_555 1_555
C10 C5 1_555 1_555
H7 C10 1_555 1_555
H8 C10 1_555 1_555
C11 C7 1_555 1_555
H9 C11 1_555 1_555
C12 C6 1_555 1_555
H10 C12 1_555 1_555
C13 C2 1_555 1_555
C14 N1 1_555 1_555
H11 C14 1_555 1_555
H12 C14 1_555 1_555
C15 C5 1_555 1_555
H13 C15 1_555 1_555
C16 C15 1_555 1_555
H14 C16 1_555 1_555
C17 C11 1_555 1_555
H15 C17 1_555 1_555
C18 C8 1_555 1_555
H16 C18 1_555 1_555
C19 C12 1_555 1_555
H17 C19 1_555 1_555
C20 C18 1_555 1_555
H18 C20 1_555 1_555
N1 C4 1_555 1_555
C6 C14 1_555 1_555
C9 C10 1_555 1_555
C16 C17 1_555 1_555
C19 C20 1_555 1_555

#END
