
#######################################################################
#
#                 Cambridge Crystallographic Data Centre
#                                CCDC 
#
#######################################################################
#
# If this CIF has been generated from an entry in the Cambridge 
# Structural Database, then it will include bibliographic, chemical, 
# crystal, experimental, refinement or atomic coordinate data resulting 
# from the CCDC's data processing and validation procedures.
#
#######################################################################

data_EMALEL02
_chemical_name_common            'rhodamine B o-phenylenediamine phenylthiourea'
_chemical_formula_moiety         'C41 H41 N5 O2 S1'
_chemical_name_systematic        
1-(2-(3',6'-bis(diethylamino)-3-oxospiro[isoindole-1,9'-xanthen]-2(3H)-yl)phenyl)-3-phenylthiourea
_symmetry_cell_setting           monoclinic
_symmetry_space_group_name_H-M   'P 21/c'
_symmetry_Int_Tables_number      14
_space_group_name_Hall           '-P 2ybc'
loop_
_symmetry_equiv_pos_site_id
_symmetry_equiv_pos_as_xyz
1 x,y,z
2 -x,1/2+y,1/2-z
3 -x,-y,-z
4 x,1/2-y,1/2+z
_cell_length_a                   16.4550(3)
_cell_length_b                   11.7810(3)
_cell_length_c                   20.4390(6)
_cell_angle_alpha                90
_cell_angle_beta                 115.7770(10)
_cell_angle_gamma                90
_cell_volume                     3567.96
_exptl_crystal_colour            colorless
_exptl_crystal_description       Prism
_chemical_melting_point          '457 K'
_cell_formula_units_Z            4
loop_
_atom_site_label
_atom_site_type_symbol
_atom_site_fract_x
_atom_site_fract_y
_atom_site_fract_z
S1 S 0.35172(8) 0.01270(10) -0.04385(7)
N1 N 0.2365(2) 0.2773(3) 0.08596(16)
C1 C 0.2279(3) 0.0816(3) 0.1268(2)
N2 N 0.3362(2) 0.2156(3) 0.00808(17)
H1 H 0.3631 0.2704 0.0373
O1 O 0.3359(2) 0.4125(2) 0.08540(17)
O2 O 0.07259(19) 0.0392(2) 0.09951(18)
C2 C 0.2411(3) 0.2229(3) -0.0284(2)
C3 C 0.0619(3) 0.1466(3) 0.1209(2)
C4 C 0.1563(3) 0.0084(3) 0.1061(2)
C5 C 0.2184(3) 0.2056(3) 0.1402(2)
C6 C 0.1282(3) 0.2288(3) 0.1393(2)
C7 C 0.1920(3) 0.2568(3) 0.0099(2)
C8 C -0.0400(3) 0.2712(4) 0.1433(2)
C9 C -0.0196(3) 0.1658(4) 0.1228(2)
H2 H -0.0619 0.1075 0.1101
C10 C 0.0258(3) 0.3556(4) 0.1599(2)
H3 H 0.0145 0.4279 0.1723
C11 C 0.3081(3) 0.0373(3) 0.1314(2)
H4 H 0.3578 0.0850 0.1449
C12 C 0.3422(3) 0.3337(4) 0.1971(2)
N3 N 0.4789(2) 0.1501(3) 0.03928(19)
H5 H 0.5124 0.1004 0.0321
C13 C 0.2934(3) 0.2495(3) 0.2101(2)
C14 C 0.1067(3) 0.3339(4) 0.1582(2)
H6 H 0.1490 0.3921 0.1703
C15 C 0.3132(3) 0.2173(4) 0.2806(2)
H7 H 0.2810 0.1598 0.2900
C16 C 0.5258(3) 0.2389(4) 0.0885(2)
C17 C 0.3071(3) 0.3488(3) 0.1181(2)
C18 C 0.3898(3) 0.1332(3) 0.0027(2)
C19 C 0.2443(3) -0.1488(4) 0.0960(3)
N4 N -0.1203(3) 0.2905(3) 0.1460(2)
C20 C 0.1637(3) -0.1054(4) 0.0903(3)
H8 H 0.1135 -0.1526 0.0758
C21 C 0.4113(3) 0.3902(4) 0.2528(3)
H9 H 0.4439 0.4471 0.2434
C22 C 0.3169(3) -0.0746(4) 0.1167(2)
H10 H 0.3721 -0.1011 0.1206
C23 C 0.1001(3) 0.2702(5) -0.0267(3)
H11 H 0.0676 0.2937 -0.0016
N5 N 0.2548(3) -0.2606(3) 0.0828(3)
C24 C -0.1833(3) 0.1998(4) 0.1374(3)
H12 H -0.1906 0.1547 0.0955
H13 H -0.2415 0.2328 0.1275
C25 C 0.1950(3) 0.2046(5) -0.1026(2)
H14 H 0.2272 0.1838 -0.1285
C26 C 0.5860(4) 0.2085(5) 0.1578(3)
H15 H 0.5931 0.1324 0.1714
C27 C 0.4301(3) 0.3590(5) 0.3228(3)
H16 H 0.4757 0.3962 0.3616
C28 C 0.3821(4) 0.2730(5) 0.3361(3)
H17 H 0.3969 0.2524 0.3839
C29 C 0.1049(4) 0.2164(6) -0.1378(3)
H18 H 0.0754 0.2026 -0.1875
C30 C 0.1727(6) -0.3366(6) 0.0451(4)
H19 H 0.1190 -0.2931 0.0159
H20 H 0.1825 -0.3934 0.0149
C31 C 0.5169(4) 0.3505(4) 0.0700(3)
H21 H 0.4773 0.3725 0.0232
C32 C 0.3456(5) -0.3105(5) 0.1026(5)
H22 H 0.3906 -0.2694 0.1434
H23 H 0.3462 -0.3891 0.1170
C33 C -0.1556(4) 0.1226(6) 0.2022(3)
H24 H -0.0974 0.0908 0.2134
H25 H -0.1990 0.0626 0.1915
H26 H -0.1529 0.1652 0.2432
C34 C 0.6246(4) 0.4009(6) 0.1879(4)
H27 H 0.6573 0.4560 0.2217
C35 C 0.0557(4) 0.2490(6) -0.1002(3)
H28 H -0.0067 0.2565 -0.1245
C36 C 0.5670(4) 0.4318(5) 0.1208(4)
H29 H 0.5603 0.5082 0.1080
C37 C 0.6357(4) 0.2902(6) 0.2071(3)
H30 H 0.6771 0.2692 0.2536
C38 C -0.1223(6) 0.4298(13) 0.2183(7)
H31 H -0.1478 0.3711 0.2362
H32 H -0.1381 0.5026 0.2304
H33 H -0.0578 0.4221 0.2402
C39 C 0.1674(6) -0.3842(7) 0.1041(5)
H34 H 0.2231 -0.4223 0.1334
H35 H 0.1187 -0.4379 0.0881
H36 H 0.1568 -0.3259 0.1322
C40 C 0.3665(6) -0.3043(8) 0.0419(5)
H37 H 0.3277 -0.3546 0.0044
H38 H 0.4283 -0.3260 0.0568
H39 H 0.3577 -0.2279 0.0237
C41 C -0.1526(6) 0.4211(11) 0.1501(6)
H40 H -0.1250 0.4754 0.1303
H41 H -0.2178 0.4292 0.1258
loop_
_geom_bond_atom_site_label_1
_geom_bond_atom_site_label_2
_geom_bond_site_symmetry_1
_geom_bond_site_symmetry_2
S1 C18 1_555 1_555
N1 C5 1_555 1_555
C1 C4 1_555 1_555
N2 H1 1_555 1_555
O1 C17 1_555 1_555
O2 C3 1_555 1_555
C2 N2 1_555 1_555
C3 C6 1_555 1_555
C4 O2 1_555 1_555
C5 C1 1_555 1_555
C6 C5 1_555 1_555
C7 N1 1_555 1_555
C8 C9 1_555 1_555
C9 C3 1_555 1_555
H2 C9 1_555 1_555
C10 C8 1_555 1_555
H3 C10 1_555 1_555
C11 C1 1_555 1_555
H4 C11 1_555 1_555
C12 C13 1_555 1_555
N3 H5 1_555 1_555
C13 C5 1_555 1_555
C14 C6 1_555 1_555
H6 C14 1_555 1_555
C15 C13 1_555 1_555
H7 C15 1_555 1_555
C16 N3 1_555 1_555
C17 N1 1_555 1_555
C18 N2 1_555 1_555
C19 C20 1_555 1_555
N4 C8 1_555 1_555
C20 C4 1_555 1_555
H8 C20 1_555 1_555
C21 C12 1_555 1_555
H9 C21 1_555 1_555
C22 C11 1_555 1_555
H10 C22 1_555 1_555
C23 C7 1_555 1_555
H11 C23 1_555 1_555
N5 C19 1_555 1_555
C24 N4 1_555 1_555
H12 C24 1_555 1_555
H13 C24 1_555 1_555
C25 C2 1_555 1_555
H14 C25 1_555 1_555
C26 C16 1_555 1_555
H15 C26 1_555 1_555
C27 C21 1_555 1_555
H16 C27 1_555 1_555
C28 C15 1_555 1_555
H17 C28 1_555 1_555
C29 C25 1_555 1_555
H18 C29 1_555 1_555
C30 N5 1_555 1_555
H19 C30 1_555 1_555
H20 C30 1_555 1_555
C31 C16 1_555 1_555
H21 C31 1_555 1_555
C32 N5 1_555 1_555
H22 C32 1_555 1_555
H23 C32 1_555 1_555
C33 C24 1_555 1_555
H24 C33 1_555 1_555
H25 C33 1_555 1_555
H26 C33 1_555 1_555
C34 H27 1_555 1_555
C35 C23 1_555 1_555
H28 C35 1_555 1_555
C36 C31 1_555 1_555
H29 C36 1_555 1_555
C37 C26 1_555 1_555
H30 C37 1_555 1_555
C38 H31 1_555 1_555
H32 C38 1_555 1_555
H33 C38 1_555 1_555
C39 C30 1_555 1_555
H34 C39 1_555 1_555
H35 C39 1_555 1_555
H36 C39 1_555 1_555
C40 C32 1_555 1_555
H37 C40 1_555 1_555
H38 C40 1_555 1_555
H39 C40 1_555 1_555
C41 N4 1_555 1_555
H40 C41 1_555 1_555
H41 C41 1_555 1_555
C2 C7 1_555 1_555
C10 C14 1_555 1_555
C12 C17 1_555 1_555
N3 C18 1_555 1_555
C19 C22 1_555 1_555
C27 C28 1_555 1_555
C29 C35 1_555 1_555
C34 C36 1_555 1_555
C34 C37 1_555 1_555
C38 C41 1_555 1_555

#END
