
#######################################################################
#
#                 Cambridge Crystallographic Data Centre
#                                CCDC 
#
#######################################################################
#
# If this CIF has been generated from an entry in the Cambridge 
# Structural Database, then it will include bibliographic, chemical, 
# crystal, experimental, refinement or atomic coordinate data resulting 
# from the CCDC's data processing and validation procedures.
#
#######################################################################

data_EMAPAL
_chemical_formula_moiety         'C30 H40 N2 O2 S2'
_chemical_name_systematic        
2,5-dioctyl-3,6-bis(2-thienyl)-2,5-dihydropyrrolo[3,4-c]pyrrole-1,4-dione
_symmetry_cell_setting           monoclinic
_symmetry_space_group_name_H-M   'P 21/c'
_symmetry_Int_Tables_number      14
_space_group_name_Hall           '-P 2ybc'
loop_
_symmetry_equiv_pos_site_id
_symmetry_equiv_pos_as_xyz
1 x,y,z
2 -x,1/2+y,1/2-z
3 -x,-y,-z
4 x,1/2-y,1/2+z
_cell_length_a                   16.7285(5)
_cell_length_b                   5.2556(2)
_cell_length_c                   15.6848(5)
_cell_angle_alpha                90
_cell_angle_beta                 90.651(2)
_cell_angle_gamma                90
_cell_volume                     1378.89
_exptl_crystal_colour            red
_exptl_crystal_description       needle
_cell_formula_units_Z            2
_exptl_crystal_preparation       Luminescent
loop_
_atom_site_label
_atom_site_type_symbol
_atom_site_fract_x
_atom_site_fract_y
_atom_site_fract_z
S1 S 0.30112(3) 0.40631(11) 0.50200(3)
O1 O 0.46823(7) 1.1339(2) 0.32001(7)
N1 N 0.41777(8) 0.8308(3) 0.41236(8)
C1 C 0.29401(11) 0.2247(4) 0.59154(11)
H1 H 0.2534 0.1015 0.6004
C2 C 0.35319(11) 0.2765(4) 0.64868(11)
H2 H 0.3588 0.1920 0.7019
C3 C 0.40542(10) 0.4684(3) 0.62092(10)
H3 H 0.4496 0.5289 0.6537
C4 C 0.38548(9) 0.5599(3) 0.54050(10)
C5 C 0.48685(9) 0.9132(3) 0.53132(9)
C6 C 0.42833(9) 0.7574(3) 0.49716(9)
C7 C 0.46868(9) 1.0364(3) 0.39085(10)
C8 C 0.36796(10) 0.7170(4) 0.34545(10)
H4 H 0.3597 0.5348 0.3587
H5 H 0.3965 0.7273 0.2906
C9 C 0.28694(10) 0.8456(4) 0.33549(10)
H6 H 0.2947 1.0300 0.3259
H7 H 0.2563 0.8243 0.3887
C10 C 0.23963(10) 0.7330(4) 0.26117(10)
H8 H 0.2714 0.7503 0.2086
H9 H 0.2316 0.5491 0.2717
C11 C 0.15856(10) 0.8572(4) 0.24657(11)
H10 H 0.1664 1.0411 0.2359
H11 H 0.1265 0.8396 0.2989
C12 C 0.11222(10) 0.7419(4) 0.17187(11)
H12 H 0.1436 0.7655 0.1193
H13 H 0.1067 0.5566 0.1816
C13 C 0.02938(10) 0.8548(4) 0.15764(11)
H14 H -0.0011 0.8428 0.2112
H15 H 0.0347 1.0372 0.1430
C14 C -0.01667(11) 0.7208(4) 0.08717(12)
H16 H -0.0209 0.5381 0.1018
H17 H 0.0141 0.7339 0.0338
C15 C -0.10027(12) 0.8252(5) 0.07101(14)
H18 H -0.1262 0.7282 0.0250
H19 H -0.0968 1.0046 0.0545
H20 H -0.1317 0.8099 0.1231
S1B S 0.69888(3) 1.59369(11) 0.49800(3)
O1B O 0.53177(7) 0.8661(2) 0.67999(7)
N1B N 0.58223(8) 1.1692(3) 0.58764(8)
C1B C 0.70599(11) 1.7753(4) 0.40846(11)
H1B H 0.7466 1.8985 0.3996
C2B C 0.64681(11) 1.7235(4) 0.35132(11)
H2B H 0.6412 1.8080 0.2981
C3B C 0.59458(10) 1.5316(3) 0.37908(10)
H3B H 0.5504 1.4711 0.3463
C4B C 0.61452(9) 1.4401(3) 0.45950(10)
C5B C 0.51315(9) 1.0868(3) 0.46868(9)
C6B C 0.57167(9) 1.2426(3) 0.50284(9)
C7B C 0.53132(9) 0.9636(3) 0.60915(10)
C8B C 0.63204(10) 1.2830(4) 0.65455(10)
H4B H 0.6403 1.4652 0.6413
H5B H 0.6035 1.2727 0.7094
C9B C 0.71306(10) 1.1544(4) 0.66451(10)
H6B H 0.7053 0.9700 0.6741
H7B H 0.7437 1.1757 0.6113
C10B C 0.76037(10) 1.2670(4) 0.73883(10)
H8B H 0.7286 1.2497 0.7914
H9B H 0.7684 1.4509 0.7283
C11B C 0.84144(10) 1.1428(4) 0.75343(11)
H10B H 0.8336 0.9589 0.7641
H11B H 0.8735 1.1604 0.7011
C12B C 0.88778(10) 1.2581(4) 0.82813(11)
H12B H 0.8564 1.2345 0.8807
H13B H 0.8933 1.4434 0.8184
C13B C 0.97062(10) 1.1452(4) 0.84236(11)
H14B H 1.0011 1.1572 0.7888
H15B H 0.9653 0.9628 0.8570
C14B C 1.01667(11) 1.2792(4) 0.91283(12)
H16B H 1.0209 1.4619 0.8982
H17B H 0.9859 1.2661 0.9662
C15B C 1.10027(12) 1.1748(5) 0.92899(14)
H18B H 1.1262 1.2718 0.9750
H19B H 1.0968 0.9954 0.9455
H20B H 1.1317 1.1901 0.8769
loop_
_geom_bond_atom_site_label_1
_geom_bond_atom_site_label_2
_geom_bond_site_symmetry_1
_geom_bond_site_symmetry_2
S1 C1 1_555 1_555
O1 C7 1_555 1_555
N1 C6 1_555 1_555
C1 H1 1_555 1_555
C2 C1 1_555 1_555
H2 C2 1_555 1_555
C3 C2 1_555 1_555
H3 C3 1_555 1_555
C4 S1 1_555 1_555
C5 C6 1_555 1_555
C6 C4 1_555 1_555
C7 N1 1_555 1_555
C8 N1 1_555 1_555
H4 C8 1_555 1_555
H5 C8 1_555 1_555
C9 C8 1_555 1_555
H6 C9 1_555 1_555
H7 C9 1_555 1_555
C10 C9 1_555 1_555
H8 C10 1_555 1_555
H9 C10 1_555 1_555
C11 C10 1_555 1_555
H10 C11 1_555 1_555
H11 C11 1_555 1_555
C12 C11 1_555 1_555
H12 C12 1_555 1_555
H13 C12 1_555 1_555
C13 C12 1_555 1_555
H14 C13 1_555 1_555
H15 C13 1_555 1_555
C14 C13 1_555 1_555
H16 C14 1_555 1_555
H17 C14 1_555 1_555
C15 C14 1_555 1_555
H18 C15 1_555 1_555
H19 C15 1_555 1_555
H20 C15 1_555 1_555
S1B C1B 1_555 1_555
O1B C7B 1_555 1_555
N1B C6B 1_555 1_555
C1B H1B 1_555 1_555
C2B C1B 1_555 1_555
H2B C2B 1_555 1_555
C3B C2B 1_555 1_555
H3B C3B 1_555 1_555
C4B S1B 1_555 1_555
C5B C5 1_555 1_555
C6B C4B 1_555 1_555
C7B C5 1_555 1_555
C8B N1B 1_555 1_555
H4B C8B 1_555 1_555
H5B C8B 1_555 1_555
C9B C8B 1_555 1_555
H6B C9B 1_555 1_555
H7B C9B 1_555 1_555
C10B C9B 1_555 1_555
H8B C10B 1_555 1_555
H9B C10B 1_555 1_555
C11B C10B 1_555 1_555
H10B C11B 1_555 1_555
H11B C11B 1_555 1_555
C12B C11B 1_555 1_555
H12B C12B 1_555 1_555
H13B C12B 1_555 1_555
C13B C12B 1_555 1_555
H14B C13B 1_555 1_555
H15B C13B 1_555 1_555
C14B C13B 1_555 1_555
H16B C14B 1_555 1_555
H17B C14B 1_555 1_555
C15B C14B 1_555 1_555
H18B C15B 1_555 1_555
H19B C15B 1_555 1_555
H20B C15B 1_555 1_555
C3 C4 1_555 1_555
C7 C5B 1_555 1_555
N1B C7B 1_555 1_555
C3B C4B 1_555 1_555
C5B C6B 1_555 1_555

#END
