
#######################################################################
#
#                 Cambridge Crystallographic Data Centre
#                                CCDC 
#
#######################################################################
#
# If this CIF has been generated from an entry in the Cambridge 
# Structural Database, then it will include bibliographic, chemical, 
# crystal, experimental, refinement or atomic coordinate data resulting 
# from the CCDC's data processing and validation procedures.
#
#######################################################################

data_EMAWUM
_chemical_formula_moiety         'C43 H62 N2 Si1,C6 H12'
_chemical_name_systematic        
"2-((2,2'',4,4'',6,6''-Hexaisopropyl-1,1':3',1''-terphenyl-2'-yl)silylene)-1,3,4,5-tetramethyl-2,3-dihydro-1H-imidazole methylcyclopentane solvate"
_symmetry_cell_setting           triclinic
_symmetry_space_group_name_H-M   'P -1'
_symmetry_Int_Tables_number      2
_space_group_name_Hall           '-P 1'
loop_
_symmetry_equiv_pos_site_id
_symmetry_equiv_pos_as_xyz
1 x,y,z
2 -x,-y,-z
_cell_length_a                   11.1760(6)
_cell_length_b                   14.3407(8)
_cell_length_c                   15.4197(9)
_cell_angle_alpha                106.7741(15)
_cell_angle_beta                 103.0536(16)
_cell_angle_gamma                99.4585(16)
_cell_volume                     2234.16
_exptl_crystal_colour            yellow
_exptl_crystal_description       block
_cell_formula_units_Z            2
loop_
_atom_site_label
_atom_site_type_symbol
_atom_site_fract_x
_atom_site_fract_y
_atom_site_fract_z
Si1 Si 0.67431(4) 0.67298(3) 0.52510(3)
H1 H 0.585(2) 0.7042(17) 0.5703(16)
N1 N 0.53138(13) 0.48588(10) 0.36741(10)
N2 N 0.41905(14) 0.59378(10) 0.38104(10)
C1 C 0.53706(15) 0.58319(11) 0.41440(11)
C2 C 0.41143(17) 0.43639(12) 0.30520(11)
C3 C 0.34003(16) 0.50434(13) 0.31439(12)
C4 C 0.63484(18) 0.43701(12) 0.38273(13)
H2 H 0.7045 0.4822 0.4375
H3 H 0.6648 0.4209 0.3264
H4 H 0.6048 0.3750 0.3946
C5 C 0.37847(19) 0.32928(13) 0.24320(13)
H5 H 0.4300 0.3213 0.1991
H6 H 0.2885 0.3089 0.2075
H7 H 0.3952 0.2871 0.2822
C6 C 0.20359(18) 0.49342(16) 0.27007(15)
H8 H 0.1597 0.5049 0.3191
H9 H 0.1663 0.4255 0.2241
H10 H 0.1947 0.5427 0.2378
C7 C 0.37900(18) 0.68706(13) 0.40933(14)
H11 H 0.3371 0.7006 0.3528
H12 H 0.4532 0.7426 0.4475
H13 H 0.3198 0.6807 0.4467
C8 C 0.72424(14) 0.79076(11) 0.49256(10)
C9 C 0.75682(14) 0.88595(11) 0.56507(10)
C10 C 0.80889(15) 0.97359(11) 0.55000(11)
H14 H 0.8275 1.0367 0.5988
C11 C 0.83365(15) 0.96967(11) 0.46505(11)
H15 H 0.8675 1.0296 0.4550
C12 C 0.80817(15) 0.87691(11) 0.39500(11)
H16 H 0.8274 0.8735 0.3374
C13 C 0.75476(14) 0.78850(11) 0.40773(10)
C14 C 0.74845(14) 0.89874(11) 0.66380(10)
C15 C 0.64536(15) 0.92809(11) 0.69243(10)
C16 C 0.64769(16) 0.95028(12) 0.78707(11)
H17 H 0.5778 0.9702 0.8059
C17 C 0.74936(16) 0.94419(11) 0.85501(11)
C18 C 0.84913(15) 0.91294(12) 0.82531(11)
H18 H 0.9184 0.9071 0.8704
C19 C 0.85097(14) 0.88977(11) 0.73085(10)
C20 C 0.53309(16) 0.93898(12) 0.62258(11)
H19 H 0.5366 0.9033 0.5574
C21 C 0.40564(17) 0.89069(15) 0.63164(13)
H20 H 0.4042 0.8218 0.6304
H21 H 0.3369 0.8896 0.5788
H22 H 0.3943 0.9298 0.6915
C22 C 0.5414(2) 1.04951(14) 0.63258(14)
H23 H 0.5448 1.0876 0.6974
H24 H 0.4667 1.0545 0.5883
H25 H 0.6180 1.0771 0.6184
C23 C 0.75133(17) 0.97230(13) 0.95820(11)
H26 H 0.8332 0.9645 0.9944
C24 C 0.6443(2) 0.90346(17) 0.97319(14)
H27 H 0.5625 0.9106 0.9396
H28 H 0.6521 0.9220 1.0409
H29 H 0.6494 0.8336 0.9486
C25 C 0.7474(3) 1.08178(16) 0.99895(14)
H30 H 0.8202 1.1255 0.9933
H31 H 0.7505 1.0979 1.0658
H32 H 0.6688 1.0922 0.9639
C26 C 0.96623(15) 0.86030(13) 0.70445(12)
H33 H 0.9453 0.8375 0.6339
C27 C 0.99863(19) 0.77319(15) 0.73555(14)
H34 H 1.0187 0.7930 0.8046
H35 H 1.0720 0.7561 0.7158
H36 H 0.9259 0.7146 0.7062
C28 C 1.08071(18) 0.95113(16) 0.74421(15)
H37 H 1.0590 1.0050 0.7213
H38 H 1.1522 0.9315 0.7232
H39 H 1.1041 0.9750 0.8135
C29 C 0.74559(15) 0.69126(11) 0.33265(10)
C30 C 0.84266(15) 0.64108(11) 0.34667(10)
C31 C 0.83913(16) 0.55299(12) 0.27557(11)
H40 H 0.9047 0.5193 0.2856
C32 C 0.74226(17) 0.51352(12) 0.19073(11)
C33 C 0.64850(16) 0.56527(13) 0.17766(11)
H41 H 0.5820 0.5394 0.1199
C34 C 0.64822(15) 0.65369(12) 0.24601(11)
C35 C 0.95812(15) 0.68680(12) 0.43334(11)
H42 H 0.9341 0.7358 0.4831
C36 C 1.00387(19) 0.60997(15) 0.47503(13)
H43 H 0.9348 0.5741 0.4917
H44 H 1.0758 0.6446 0.5319
H45 H 1.0304 0.5618 0.4283
C37 C 1.06421(17) 0.74551(14) 0.40798(15)
H46 H 1.0908 0.6991 0.3599
H47 H 1.1365 0.7796 0.4647
H48 H 1.0334 0.7955 0.3831
C38 C 0.7384(3) 0.4191(2) 0.11215(19)
H49 H 0.7214 0.4346 0.0520
C39 C 0.6277(3) 0.33280(17) 0.10016(19)
H50 H 0.6423 0.3138 0.1571
H51 H 0.6215 0.2748 0.0453
H52 H 0.5486 0.3547 0.0904
C40 C 0.8605(3) 0.38412(19) 0.1230(2)
H53 H 0.9299 0.4379 0.1265
H54 H 0.8503 0.3245 0.0684
H55 H 0.8800 0.3674 0.1811
C41 C 0.54750(17) 0.71018(14) 0.22452(12)
H56 H 0.5404 0.7531 0.2861
C42 C 0.41670(19) 0.64023(18) 0.16753(14)
H57 H 0.3530 0.6797 0.1660
H58 H 0.3959 0.5904 0.1974
H59 H 0.4175 0.6059 0.1028
C43 C 0.5849(2) 0.77921(16) 0.17049(15)
H60 H 0.6643 0.8290 0.2091
H61 H 0.5179 0.8137 0.1567
H62 H 0.5964 0.7391 0.1111
C47 C 0.9226(9) 0.6926(5) 0.0329(6)
H70 H 0.9599 0.6958 -0.0196
C48 C 1.0154(5) 0.6492(3) 0.1039(4)
H71 H 0.9708 0.6216 0.1431
H72 H 1.0531 0.5982 0.0688
C49 C 1.1203(5) 0.7556(4) 0.1662(3)
H73 H 1.1695 0.7534 0.2273
H74 H 1.1793 0.7734 0.1310
C50 C 1.0409(5) 0.8239(4) 0.1796(3)
H75 H 1.0911 0.8930 0.1938
H76 H 1.0095 0.8226 0.2344
C51 C 0.9239(4) 0.7962(3) 0.0887(3)
H77 H 0.8441 0.7982 0.1062
H78 H 0.9362 0.8427 0.0531
C52 C 0.8040(7) 0.6223(4) -0.0064(3)
H79 H 0.8148 0.5570 -0.0415
H80 H 0.7677 0.6158 0.0444
H81 H 0.7469 0.6453 -0.0494
C44? C 0.711(3) 0.403(2) 0.116(2)
H63? H 0.6381 0.3972 0.0613
C45? C 0.679(3) 0.319(2) 0.146(2)
H64? H 0.7412 0.3287 0.2060
H65? H 0.6787 0.2572 0.0981
H66? H 0.5944 0.3146 0.1556
C46? C 0.828(3) 0.415(3) 0.085(3)
H67? H 0.8177 0.4475 0.0368
H68? H 0.8431 0.3484 0.0578
H69? H 0.9005 0.4559 0.1393
C53? C 0.8960(12) 0.6963(8) 0.0838(10)
H82? H 0.8553 0.6946 0.1350
H83? H 1.0343 0.6138 0.0451
H84? H 1.0056 0.6038 0.1410
H85? H 0.8563 0.8305 0.1008
H86? H 0.9483 0.8056 0.0334
H87? H 0.7916 0.5548 -0.0019
H88? H 0.7227 0.6409 -0.0164
H89? H 0.8377 0.6230 -0.0597
loop_
_geom_bond_atom_site_label_1
_geom_bond_atom_site_label_2
_geom_bond_site_symmetry_1
_geom_bond_site_symmetry_2
Si1 H1 1_555 1_555
N1 C1 1_555 1_555
N2 C1 1_555 1_555
C1 Si1 1_555 1_555
C2 N1 1_555 1_555
C3 N2 1_555 1_555
C4 N1 1_555 1_555
H2 C4 1_555 1_555
H3 C4 1_555 1_555
H4 C4 1_555 1_555
C5 C2 1_555 1_555
H5 C5 1_555 1_555
H6 C5 1_555 1_555
H7 C5 1_555 1_555
C6 C3 1_555 1_555
H8 C6 1_555 1_555
H9 C6 1_555 1_555
H10 C6 1_555 1_555
C7 N2 1_555 1_555
H11 C7 1_555 1_555
H12 C7 1_555 1_555
H13 C7 1_555 1_555
C8 Si1 1_555 1_555
C9 C8 1_555 1_555
C10 C9 1_555 1_555
H14 C10 1_555 1_555
C11 C10 1_555 1_555
H15 C11 1_555 1_555
C12 C11 1_555 1_555
H16 C12 1_555 1_555
C13 C8 1_555 1_555
C14 C9 1_555 1_555
C15 C14 1_555 1_555
C16 C15 1_555 1_555
H17 C16 1_555 1_555
C17 C16 1_555 1_555
C18 C17 1_555 1_555
H18 C18 1_555 1_555
C19 C14 1_555 1_555
C20 C15 1_555 1_555
H19 C20 1_555 1_555
C21 C20 1_555 1_555
H20 C21 1_555 1_555
H21 C21 1_555 1_555
H22 C21 1_555 1_555
C22 C20 1_555 1_555
H23 C22 1_555 1_555
H24 C22 1_555 1_555
H25 C22 1_555 1_555
C23 C17 1_555 1_555
H26 C23 1_555 1_555
C24 C23 1_555 1_555
H27 C24 1_555 1_555
H28 C24 1_555 1_555
H29 C24 1_555 1_555
C25 C23 1_555 1_555
H30 C25 1_555 1_555
H31 C25 1_555 1_555
H32 C25 1_555 1_555
C26 C19 1_555 1_555
H33 C26 1_555 1_555
C27 C26 1_555 1_555
H34 C27 1_555 1_555
H35 C27 1_555 1_555
H36 C27 1_555 1_555
C28 C26 1_555 1_555
H37 C28 1_555 1_555
H38 C28 1_555 1_555
H39 C28 1_555 1_555
C29 C13 1_555 1_555
C30 C29 1_555 1_555
C31 C30 1_555 1_555
H40 C31 1_555 1_555
C32 C31 1_555 1_555
C33 C32 1_555 1_555
H41 C33 1_555 1_555
C34 C29 1_555 1_555
C35 C30 1_555 1_555
H42 C35 1_555 1_555
C36 C35 1_555 1_555
H43 C36 1_555 1_555
H44 C36 1_555 1_555
H45 C36 1_555 1_555
C37 C35 1_555 1_555
H46 C37 1_555 1_555
H47 C37 1_555 1_555
H48 C37 1_555 1_555
C38 C32 1_555 1_555
H49 C38 1_555 1_555
C39 C38 1_555 1_555
H50 C39 1_555 1_555
H51 C39 1_555 1_555
H52 C39 1_555 1_555
C40 C38 1_555 1_555
H53 C40 1_555 1_555
H54 C40 1_555 1_555
H55 C40 1_555 1_555
C41 C34 1_555 1_555
H56 C41 1_555 1_555
C42 C41 1_555 1_555
H57 C42 1_555 1_555
H58 C42 1_555 1_555
H59 C42 1_555 1_555
C43 C41 1_555 1_555
H60 C43 1_555 1_555
H61 C43 1_555 1_555
H62 C43 1_555 1_555
C47 H70 1_555 1_555
C48 C47 1_555 1_555
H71 C48 1_555 1_555
H72 C48 1_555 1_555
C49 C48 1_555 1_555
H73 C49 1_555 1_555
H74 C49 1_555 1_555
C50 C49 1_555 1_555
H75 C50 1_555 1_555
H76 C50 1_555 1_555
C51 C47 1_555 1_555
H77 C51 1_555 1_555
H78 C51 1_555 1_555
C52 C47 1_555 1_555
H79 C52 1_555 1_555
H80 C52 1_555 1_555
H81 C52 1_555 1_555
C2 C3 1_555 1_555
C12 C13 1_555 1_555
C18 C19 1_555 1_555
C33 C34 1_555 1_555
C50 C51 1_555 1_555

#END
