
#######################################################################
#
#                 Cambridge Crystallographic Data Centre
#                                CCDC 
#
#######################################################################
#
# If this CIF has been generated from an entry in the Cambridge 
# Structural Database, then it will include bibliographic, chemical, 
# crystal, experimental, refinement or atomic coordinate data resulting 
# from the CCDC's data processing and validation procedures.
#
#######################################################################

data_EMAXIB
_chemical_formula_moiety         'C31 H38 N2 Si1'
_chemical_name_systematic        
2-((2,2'',4,4'',6,6''-Hexamethyl-1,1':3',1''-terphenyl-2'-yl)silylene)-1,3,4,5-tetramethyl-2,3-dihydro-1H-imidazole
_symmetry_cell_setting           monoclinic
_symmetry_space_group_name_H-M   'P 21/n'
_symmetry_Int_Tables_number      14
_space_group_name_Hall           '-P 2yn'
loop_
_symmetry_equiv_pos_site_id
_symmetry_equiv_pos_as_xyz
1 x,y,z
2 1/2-x,1/2+y,1/2-z
3 -x,-y,-z
4 1/2+x,1/2-y,1/2+z
_cell_length_a                   8.3788(7)
_cell_length_b                   13.7166(13)
_cell_length_c                   23.034(2)
_cell_angle_alpha                90
_cell_angle_beta                 97.494(3)
_cell_angle_gamma                90
_cell_volume                     2624.65
_exptl_crystal_colour            yellow
_exptl_crystal_description       plate
_cell_formula_units_Z            4
loop_
_atom_site_label
_atom_site_type_symbol
_atom_site_fract_x
_atom_site_fract_y
_atom_site_fract_z
Si1 Si 0.38735(8) 0.36138(5) 0.45576(3)
H1 H 0.539(2) 0.3445(15) 0.4345(9)
N1 N 0.5548(2) 0.22581(13) 0.54631(8)
N2 N 0.4319(2) 0.34136(13) 0.58426(8)
C1 C 0.4629(2) 0.30559(16) 0.53232(9)
C2 C 0.5771(3) 0.21042(17) 0.60628(10)
C3 C 0.4992(3) 0.28319(17) 0.63021(9)
C4 C 0.6275(3) 0.16585(17) 0.50470(11)
H2 H 0.5791 0.1007 0.5031
H3 H 0.7436 0.1606 0.5172
H4 H 0.6088 0.1959 0.4658
C5 C 0.6682(3) 0.12512(18) 0.63364(11)
H5 H 0.6142 0.0647 0.6194
H6 H 0.6723 0.1287 0.6763
H7 H 0.7779 0.1258 0.6232
C6 C 0.4802(3) 0.3055(2) 0.69206(10)
H8 H 0.5208 0.3712 0.7019
H9 H 0.5413 0.2580 0.7179
H10 H 0.3661 0.3018 0.6972
C7 C 0.3416(3) 0.43017(16) 0.59190(10)
H11 H 0.4119 0.4776 0.6145
H12 H 0.2502 0.4150 0.6129
H13 H 0.3020 0.4577 0.5535
C8 C 0.2716(2) 0.24871(15) 0.42022(9)
C9 C 0.1471(3) 0.20196(16) 0.44576(9)
C10 C 0.0617(3) 0.12460(17) 0.41731(10)
H14 H -0.0204 0.0937 0.4355
C11 C 0.0938(3) 0.09193(17) 0.36347(10)
H15 H 0.0366 0.0380 0.3452
C12 C 0.2101(3) 0.13860(17) 0.33649(10)
H16 H 0.2313 0.1174 0.2990
C13 C 0.2971(2) 0.21664(16) 0.36371(9)
C14 C 0.0939(3) 0.23499(16) 0.50208(10)
C15 C -0.0073(3) 0.31717(16) 0.50274(10)
C16 C -0.0615(3) 0.34487(17) 0.55482(10)
H17 H -0.1310 0.3996 0.5548
C17 C -0.0173(3) 0.29509(17) 0.60688(10)
C18 C 0.0779(3) 0.21248(17) 0.60505(10)
H18 H 0.1070 0.1764 0.6400
C19 C 0.1319(3) 0.18100(16) 0.55364(10)
C20 C -0.0615(3) 0.37329(18) 0.44752(10)
H19 H 0.0320 0.3887 0.4277
H20 H -0.1138 0.4339 0.4573
H21 H -0.1379 0.3338 0.4216
C21 C -0.0672(3) 0.3307(2) 0.66381(11)
H22 H -0.0742 0.2752 0.6902
H23 H -0.1725 0.3626 0.6562
H24 H 0.0126 0.3773 0.6821
C22 C 0.2288(3) 0.08812(17) 0.55366(11)
H25 H 0.1605 0.0359 0.5351
H26 H 0.2685 0.0697 0.5941
H27 H 0.3203 0.0985 0.5318
C23 C 0.4142(3) 0.26794(16) 0.33035(9)
C24 C 0.5661(3) 0.22791(16) 0.32558(9)
C25 C 0.6781(3) 0.28141(17) 0.29932(9)
H28 H 0.7823 0.2550 0.2979
C26 C 0.6410(3) 0.37279(18) 0.27500(9)
C27 C 0.4860(3) 0.40823(16) 0.27651(9)
H29 H 0.4565 0.4685 0.2579
C28 C 0.3730(3) 0.35866(16) 0.30429(9)
C29 C 0.6096(3) 0.12686(17) 0.34797(10)
H30 H 0.5586 0.1143 0.3832
H31 H 0.7267 0.1217 0.3575
H32 H 0.5717 0.0789 0.3178
C30 C 0.7651(3) 0.43229(19) 0.24923(11)
H33 H 0.8436 0.4580 0.2808
H34 H 0.7123 0.4866 0.2267
H35 H 0.8205 0.3911 0.2234
C31 C 0.2103(3) 0.40363(17) 0.30733(10)
H36 H 0.1272 0.3530 0.3012
H37 H 0.1891 0.4536 0.2769
H38 H 0.2086 0.4336 0.3459
loop_
_geom_bond_atom_site_label_1
_geom_bond_atom_site_label_2
_geom_bond_site_symmetry_1
_geom_bond_site_symmetry_2
Si1 H1 1_555 1_555
N1 C1 1_555 1_555
N2 C1 1_555 1_555
C1 Si1 1_555 1_555
C2 N1 1_555 1_555
C3 N2 1_555 1_555
C4 N1 1_555 1_555
H2 C4 1_555 1_555
H3 C4 1_555 1_555
H4 C4 1_555 1_555
C5 C2 1_555 1_555
H5 C5 1_555 1_555
H6 C5 1_555 1_555
H7 C5 1_555 1_555
C6 C3 1_555 1_555
H8 C6 1_555 1_555
H9 C6 1_555 1_555
H10 C6 1_555 1_555
C7 N2 1_555 1_555
H11 C7 1_555 1_555
H12 C7 1_555 1_555
H13 C7 1_555 1_555
C8 Si1 1_555 1_555
C9 C8 1_555 1_555
C10 C9 1_555 1_555
H14 C10 1_555 1_555
C11 C10 1_555 1_555
H15 C11 1_555 1_555
C12 C11 1_555 1_555
H16 C12 1_555 1_555
C13 C8 1_555 1_555
C14 C9 1_555 1_555
C15 C14 1_555 1_555
C16 C15 1_555 1_555
H17 C16 1_555 1_555
C17 C16 1_555 1_555
C18 C17 1_555 1_555
H18 C18 1_555 1_555
C19 C14 1_555 1_555
C20 C15 1_555 1_555
H19 C20 1_555 1_555
H20 C20 1_555 1_555
H21 C20 1_555 1_555
C21 C17 1_555 1_555
H22 C21 1_555 1_555
H23 C21 1_555 1_555
H24 C21 1_555 1_555
C22 C19 1_555 1_555
H25 C22 1_555 1_555
H26 C22 1_555 1_555
H27 C22 1_555 1_555
C23 C13 1_555 1_555
C24 C23 1_555 1_555
C25 C24 1_555 1_555
H28 C25 1_555 1_555
C26 C25 1_555 1_555
C27 C26 1_555 1_555
H29 C27 1_555 1_555
C28 C23 1_555 1_555
C29 C24 1_555 1_555
H30 C29 1_555 1_555
H31 C29 1_555 1_555
H32 C29 1_555 1_555
C30 C26 1_555 1_555
H33 C30 1_555 1_555
H34 C30 1_555 1_555
H35 C30 1_555 1_555
C31 C28 1_555 1_555
H36 C31 1_555 1_555
H37 C31 1_555 1_555
H38 C31 1_555 1_555
C2 C3 1_555 1_555
C12 C13 1_555 1_555
C18 C19 1_555 1_555
C27 C28 1_555 1_555

#END
