
#######################################################################
#
#                 Cambridge Crystallographic Data Centre
#                                CCDC 
#
#######################################################################
#
# If this CIF has been generated from an entry in the Cambridge 
# Structural Database, then it will include bibliographic, chemical, 
# crystal, experimental, refinement or atomic coordinate data resulting 
# from the CCDC's data processing and validation procedures.
#
#######################################################################

data_EMAXEW01
_chemical_formula_moiety         'C14 H15 N1 O1 S1'
_chemical_name_systematic        
2,2-dimethyl-2,3-dihydro-1H-phenothiazin-4(10H)-one
_symmetry_cell_setting           monoclinic
_symmetry_space_group_name_H-M   'P 21/c'
_symmetry_Int_Tables_number      14
_space_group_name_Hall           '-P 2ybc'
loop_
_symmetry_equiv_pos_site_id
_symmetry_equiv_pos_as_xyz
1 x,y,z
2 -x,1/2+y,1/2-z
3 -x,-y,-z
4 x,1/2-y,1/2+z
_cell_length_a                   17.5010(19)
_cell_length_b                   5.6716(6)
_cell_length_c                   12.6807(14)
_cell_angle_alpha                90
_cell_angle_beta                 104.641(3)
_cell_angle_gamma                90
_cell_volume                     1217.8
_exptl_crystal_colour            orange
_exptl_crystal_description       plate
_cell_formula_units_Z            4
loop_
_atom_site_label
_atom_site_type_symbol
_atom_site_fract_x
_atom_site_fract_y
_atom_site_fract_z
S1 S 0.66585(3) 0.67870(10) 0.56221(4)
O1 O 0.76587(9) 1.0537(2) 0.52787(11)
N1 N 0.70945(9) 0.6175(3) 0.81490(13)
H1 H 0.7219 0.6001 0.8845
C1 C 0.62796(11) 0.4737(3) 0.64064(16)
C2 C 0.57177(12) 0.3136(4) 0.58626(18)
H2 H 0.5540 0.3215 0.5108
C3 C 0.54170(12) 0.1427(4) 0.64221(19)
H3 H 0.5043 0.0362 0.6043
C4 C 0.56704(12) 0.1301(4) 0.75404(19)
H4 H 0.5471 0.0148 0.7919
C5 C 0.62240(11) 0.2901(4) 0.80981(17)
H5 H 0.6394 0.2822 0.8854
C6 C 0.65282(11) 0.4620(3) 0.75421(16)
C7 C 0.74608(11) 0.7909(3) 0.77481(16)
C8 C 0.73298(11) 0.8379(3) 0.66616(16)
C9 C 0.77528(11) 1.0186(3) 0.62684(16)
C10 C 0.83154(12) 1.1714(3) 0.70850(17)
H6 H 0.8031 1.3081 0.7245
H7 H 0.8728 1.2272 0.6760
C11 C 0.86983(11) 1.0451(3) 0.81535(16)
C12 C 0.80381(11) 0.9326(3) 0.85829(16)
H8 H 0.8275 0.8310 0.9194
H9 H 0.7754 1.0563 0.8851
C13 C 0.92689(12) 0.8575(4) 0.79545(19)
H10 H 0.8993 0.7501 0.7403
H11 H 0.9484 0.7726 0.8618
H12 H 0.9690 0.9315 0.7717
C14 C 0.91432(13) 1.2202(4) 0.90020(18)
H13 H 0.9549 1.2954 0.8737
H14 H 0.9378 1.1381 0.9667
H15 H 0.8782 1.3371 0.9136
loop_
_geom_bond_atom_site_label_1
_geom_bond_atom_site_label_2
_geom_bond_site_symmetry_1
_geom_bond_site_symmetry_2
S1 C1 1_555 1_555
O1 C9 1_555 1_555
N1 H1 1_555 1_555
C1 C2 1_555 1_555
C2 H2 1_555 1_555
C3 C2 1_555 1_555
H3 C3 1_555 1_555
C4 C3 1_555 1_555
H4 C4 1_555 1_555
C5 C4 1_555 1_555
H5 C5 1_555 1_555
C6 N1 1_555 1_555
C7 N1 1_555 1_555
C8 S1 1_555 1_555
C9 C8 1_555 1_555
C10 C9 1_555 1_555
H6 C10 1_555 1_555
H7 C10 1_555 1_555
C11 C10 1_555 1_555
C12 C7 1_555 1_555
H8 C12 1_555 1_555
H9 C12 1_555 1_555
C13 C11 1_555 1_555
H10 C13 1_555 1_555
H11 C13 1_555 1_555
H12 C13 1_555 1_555
C14 C11 1_555 1_555
H13 C14 1_555 1_555
H14 C14 1_555 1_555
H15 C14 1_555 1_555
C1 C6 1_555 1_555
C5 C6 1_555 1_555
C7 C8 1_555 1_555
C11 C12 1_555 1_555

#END
