
#######################################################################
#
#                 Cambridge Crystallographic Data Centre
#                                CCDC 
#
#######################################################################
#
# If this CIF has been generated from an entry in the Cambridge 
# Structural Database, then it will include bibliographic, chemical, 
# crystal, experimental, refinement or atomic coordinate data resulting 
# from the CCDC's data processing and validation procedures.
#
#######################################################################

data_EMAXEW
_chemical_formula_moiety         'C14 H15 N1 O1 S1'
_chemical_name_systematic        
2,2-Dimethyl-2,3-dihydro-1H-phenothiazin-4(10H)-one
_symmetry_cell_setting           monoclinic
_symmetry_space_group_name_H-M   'P 21/c'
_symmetry_Int_Tables_number      14
_space_group_name_Hall           '-P 2ybc'
loop_
_symmetry_equiv_pos_site_id
_symmetry_equiv_pos_as_xyz
1 x,y,z
2 -x,1/2+y,1/2-z
3 -x,-y,-z
4 x,1/2-y,1/2+z
_cell_length_a                   17.5038(8)
_cell_length_b                   5.7081(2)
_cell_length_c                   12.6936(6)
_cell_angle_alpha                90
_cell_angle_beta                 104.633(2)
_cell_angle_gamma                90
_cell_volume                     1227.12
_exptl_crystal_colour            brown
_exptl_crystal_description       block
_cell_formula_units_Z            4
_exptl_crystal_recrystallization_method ethanol
loop_
_atom_site_label
_atom_site_type_symbol
_atom_site_fract_x
_atom_site_fract_y
_atom_site_fract_z
C1 C 0.74587(13) 0.2106(4) 0.27432(18)
C2 C 0.80334(14) 0.0700(5) 0.35761(18)
H1 H 0.7749 -0.0529 0.3843
H2 H 0.8271 0.1708 0.4186
C3 C 0.86887(14) -0.0411(4) 0.31475(18)
C4 C 0.83082(15) -0.1666(4) 0.20792(19)
H3 H 0.8721 -0.2213 0.1754
H4 H 0.8025 -0.3028 0.2236
C5 C 0.77479(14) -0.0142(4) 0.12724(18)
C6 C 0.73307(13) 0.1657(4) 0.16605(18)
C7 C 0.62829(13) 0.5266(4) 0.14126(18)
C8 C 0.57258(15) 0.6850(5) 0.0868(2)
H5 H 0.5553 0.6777 0.0113
C9 C 0.54202(16) 0.8541(5) 0.1425(2)
H6 H 0.5045 0.9595 0.1047
C10 C 0.56740(16) 0.8658(5) 0.2540(2)
H7 H 0.5475 0.9803 0.2919
C11 C 0.62248(14) 0.7073(5) 0.3097(2)
H8 H 0.6393 0.7151 0.3852
C12 C 0.65292(13) 0.5371(4) 0.25441(18)
C13 C 0.92641(16) 0.1458(5) 0.2958(2)
H9 H 0.9672 0.0731 0.2689
H10 H 0.9496 0.2242 0.3632
H11 H 0.8986 0.2575 0.2435
C14 C 0.91323(16) -0.2171(5) 0.3988(2)
H12 H 0.8775 -0.3369 0.4096
H13 H 0.9350 -0.1381 0.4665
H14 H 0.9551 -0.2869 0.3732
N1 N 0.70933(12) 0.3818(4) 0.31480(15)
O1 O 0.76583(12) -0.0478(3) 0.02863(13)
S1 S 0.66592(4) 0.32344(13) 0.06291(5)
H15 H 0.7230(17) 0.410(6) 0.3823(10)
loop_
_geom_bond_atom_site_label_1
_geom_bond_atom_site_label_2
_geom_bond_site_symmetry_1
_geom_bond_site_symmetry_2
C1 C2 1_555 1_555
C2 H1 1_555 1_555
H2 C2 1_555 1_555
C3 C2 1_555 1_555
C4 C3 1_555 1_555
H3 C4 1_555 1_555
H4 C4 1_555 1_555
C5 C4 1_555 1_555
C6 C1 1_555 1_555
C7 C8 1_555 1_555
C8 H5 1_555 1_555
C9 C8 1_555 1_555
H6 C9 1_555 1_555
C10 C9 1_555 1_555
H7 C10 1_555 1_555
C11 C10 1_555 1_555
H8 C11 1_555 1_555
C12 C7 1_555 1_555
C13 C3 1_555 1_555
H9 C13 1_555 1_555
H10 C13 1_555 1_555
H11 C13 1_555 1_555
C14 C3 1_555 1_555
H12 C14 1_555 1_555
H13 C14 1_555 1_555
H14 C14 1_555 1_555
N1 C1 1_555 1_555
O1 C5 1_555 1_555
S1 C6 1_555 1_555
H15 N1 1_555 1_555
C5 C6 1_555 1_555
C7 S1 1_555 1_555
C11 C12 1_555 1_555
C12 N1 1_555 1_555

#END
