
#######################################################################
#
#                 Cambridge Crystallographic Data Centre
#                                CCDC 
#
#######################################################################
#
# If this CIF has been generated from an entry in the Cambridge 
# Structural Database, then it will include bibliographic, chemical, 
# crystal, experimental, refinement or atomic coordinate data resulting 
# from the CCDC's data processing and validation procedures.
#
#######################################################################

data_EMEBII
_chemical_formula_moiety         'C30 H23 N5 O1 S1'
_chemical_name_systematic        
'2-((1,3-Diphenyl-2-(1H-1,2,4-triazol-1-yl)prop-2-en-1-ylidene)amino)phenyl N-hydroxybenzenecarbimidothioate'
_symmetry_cell_setting           triclinic
_symmetry_space_group_name_H-M   'P -1'
_symmetry_Int_Tables_number      2
_space_group_name_Hall           '-P 1'
loop_
_symmetry_equiv_pos_site_id
_symmetry_equiv_pos_as_xyz
1 x,y,z
2 -x,-y,-z
_cell_length_a                   8.3306(17)
_cell_length_b                   11.394(2)
_cell_length_c                   14.560(3)
_cell_angle_alpha                78.75(3)
_cell_angle_beta                 89.96(3)
_cell_angle_gamma                70.56(3)
_cell_volume                     1275.1
_exptl_crystal_colour            yellow
_exptl_crystal_description       block
_cell_formula_units_Z            2
loop_
_atom_site_label
_atom_site_type_symbol
_atom_site_fract_x
_atom_site_fract_y
_atom_site_fract_z
O1 O 0.8165(2) 0.6083(2) 0.60226(13)
H1 H 0.8706 0.5848 0.6534
S1 S 0.64720(8) 0.67916(7) 0.42817(4)
N1 N 0.7196(2) 0.47360(17) 0.18024(12)
C1 C 0.7058(3) 0.2166(2) 0.15937(18)
H2 H 0.7658 0.2366 0.2043
N2 N 0.8137(2) 0.46401(19) 0.10346(14)
C2 C 0.7723(4) 0.1006(2) 0.1327(2)
H3 H 0.8771 0.0432 0.1598
N3 N 0.9825(3) 0.4170(2) 0.23621(16)
C3 C 0.6844(4) 0.0697(2) 0.0664(2)
H4 H 0.7306 -0.0074 0.0476
N4 N 0.5220(2) 0.68149(18) 0.23830(13)
C4 C 0.5280(3) 0.1537(2) 0.02825(19)
H5 H 0.4672 0.1325 -0.0157
N5 N 0.6424(3) 0.6530(2) 0.61519(14)
C5 C 0.4610(3) 0.2683(2) 0.05445(17)
H6 H 0.3544 0.3238 0.0285
C6 C 0.5493(3) 0.3034(2) 0.11914(16)
C7 C 0.4684(3) 0.4280(2) 0.14323(16)
H7 H 0.3498 0.4575 0.1377
C8 C 0.5377(3) 0.5061(2) 0.17182(15)
C9 C 0.9694(3) 0.4301(2) 0.14230(19)
H8 H 1.0646 0.4160 0.1070
C10 C 0.8222(3) 0.4460(2) 0.25710(17)
H9 H 0.7856 0.4471 0.3174
C11 C 0.4376(3) 0.6271(2) 0.19821(15)
C12 C 0.2477(3) 0.6715(2) 0.18076(15)
C13 C 0.1701(3) 0.6966(2) 0.09144(17)
H10 H 0.2365 0.6875 0.0402
C14 C -0.0050(3) 0.7348(2) 0.07839(19)
H11 H -0.0563 0.7524 0.0182
C15 C -0.1041(3) 0.7470(2) 0.1535(2)
H12 H -0.2221 0.7709 0.1445
C16 C -0.0288(3) 0.7239(3) 0.2418(2)
H13 H -0.0959 0.7336 0.2927
C17 C 0.1467(3) 0.6863(3) 0.25530(18)
H14 H 0.1970 0.6708 0.3155
C18 C 0.4483(3) 0.8003(2) 0.26404(16)
C19 C 0.3409(3) 0.9075(2) 0.20287(18)
H15 H 0.3016 0.8997 0.1454
C20 C 0.2921(4) 1.0251(3) 0.2265(2)
H16 H 0.2204 1.0959 0.1848
C21 C 0.3485(4) 1.0387(3) 0.3113(2)
H17 H 0.3160 1.1184 0.3268
C22 C 0.4529(4) 0.9337(3) 0.37281(19)
H18 H 0.4911 0.9429 0.4301
C23 C 0.5027(3) 0.8139(2) 0.35118(16)
C24 C 0.5532(3) 0.6904(2) 0.53677(16)
C25 C 0.3649(3) 0.7345(2) 0.54034(16)
C26 C 0.2701(3) 0.6789(3) 0.49660(18)
H19 H 0.3251 0.6151 0.4646
C27 C 0.0960(4) 0.7169(4) 0.5000(2)
H20 H 0.0335 0.6780 0.4715
C28 C 0.0149(4) 0.8125(4) 0.5456(2)
H21 H -0.1034 0.8401 0.5462
C29 C 0.1059(4) 0.8684(3) 0.5904(2)
H22 H 0.0498 0.9320 0.6223
C30 C 0.2834(4) 0.8289(3) 0.58773(19)
H23 H 0.3461 0.8662 0.6178
loop_
_geom_bond_atom_site_label_1
_geom_bond_atom_site_label_2
_geom_bond_site_symmetry_1
_geom_bond_site_symmetry_2
O1 H1 1_555 1_555
S1 C23 1_555 1_555
N1 N2 1_555 1_555
C1 H2 1_555 1_555
N2 C9 1_555 1_555
C2 C1 1_555 1_555
H3 C2 1_555 1_555
N3 C9 1_555 1_555
C3 C2 1_555 1_555
H4 C3 1_555 1_555
N4 C11 1_555 1_555
C4 C3 1_555 1_555
H5 C4 1_555 1_555
N5 O1 1_555 1_555
C5 C4 1_555 1_555
H6 C5 1_555 1_555
C6 C1 1_555 1_555
C7 C6 1_555 1_555
H7 C7 1_555 1_555
C8 N1 1_555 1_555
C9 H8 1_555 1_555
C10 N1 1_555 1_555
H9 C10 1_555 1_555
C11 C8 1_555 1_555
C12 C11 1_555 1_555
C13 C12 1_555 1_555
H10 C13 1_555 1_555
C14 C13 1_555 1_555
H11 C14 1_555 1_555
C15 C14 1_555 1_555
H12 C15 1_555 1_555
C16 C15 1_555 1_555
H13 C16 1_555 1_555
C17 C12 1_555 1_555
H14 C17 1_555 1_555
C18 N4 1_555 1_555
C19 C18 1_555 1_555
H15 C19 1_555 1_555
C20 C19 1_555 1_555
H16 C20 1_555 1_555
C21 C20 1_555 1_555
H17 C21 1_555 1_555
C22 C21 1_555 1_555
H18 C22 1_555 1_555
C23 C18 1_555 1_555
C24 S1 1_555 1_555
C25 C24 1_555 1_555
C26 C25 1_555 1_555
H19 C26 1_555 1_555
C27 C26 1_555 1_555
H20 C27 1_555 1_555
C28 C27 1_555 1_555
H21 C28 1_555 1_555
C29 C28 1_555 1_555
H22 C29 1_555 1_555
C30 C25 1_555 1_555
H23 C30 1_555 1_555
N3 C10 1_555 1_555
N5 C24 1_555 1_555
C5 C6 1_555 1_555
C7 C8 1_555 1_555
C16 C17 1_555 1_555
C22 C23 1_555 1_555
C29 C30 1_555 1_555

#END
