
#######################################################################
#
#                 Cambridge Crystallographic Data Centre
#                                CCDC 
#
#######################################################################
#
# If this CIF has been generated from an entry in the Cambridge 
# Structural Database, then it will include bibliographic, chemical, 
# crystal, experimental, refinement or atomic coordinate data resulting 
# from the CCDC's data processing and validation procedures.
#
#######################################################################

data_EMEFEJ
_chemical_formula_moiety         'C68 H62 N4 S4 4+,4(C2 F3 O2 1-)'
_chemical_name_systematic        
'6,13,22,29-tetramesityl-8,11,24,27-tetrathia-33,36,37,40-tetraazonianonacyclo[28.2.1.1^2,5^.1^7,10^.1^9,12^.1^14,17^.1^18,21^.1^23,26^.1^25,28^]tetraconta-1(33),2,4,6,9(38),10(39),12,14(37),15,17,19,21,23(35),25,28(34),29,31-heptadecaene tetrakis(trifluoroacetate)'
_symmetry_cell_setting           triclinic
_symmetry_space_group_name_H-M   'P -1'
_symmetry_Int_Tables_number      2
_space_group_name_Hall           '-P 1'
loop_
_symmetry_equiv_pos_site_id
_symmetry_equiv_pos_as_xyz
1 x,y,z
2 -x,-y,-z
_cell_length_a                   15.0481(9)
_cell_length_b                   15.7290(10)
_cell_length_c                   16.6843(10)
_cell_angle_alpha                70.897(2)
_cell_angle_beta                 87.987(2)
_cell_angle_gamma                83.366(2)
_cell_volume                     3706.57
_exptl_crystal_colour            blue
_exptl_crystal_description       Rectangle
_cell_formula_units_Z            2
loop_
_atom_site_label
_atom_site_type_symbol
_atom_site_fract_x
_atom_site_fract_y
_atom_site_fract_z
C1 C 0.4287(3) 0.4330(3) 0.3318(3)
C2 C 0.3833(3) 0.4830(3) 0.2564(3)
S1 S 0.27401(17) 0.53745(19) 0.26473(18)
C3 C 0.4081(9) 0.5059(9) 0.1720(9)
H1 H 0.4670 0.4903 0.1549
C4 C 0.2652(3) 0.5743(3) 0.1587(3)
C5 C 0.3392(3) 0.5547(3) 0.1120(3)
S2 S 0.33677(16) 0.6002(2) 0.0079(2)
C6 C 0.1973(9) 0.6325(10) 0.0930(10)
H2 H 0.1409 0.6580 0.1069
C7 C 0.2246(3) 0.6443(3) 0.0135(3)
C8 C 0.1741(3) 0.6948(3) -0.0594(3)
C9 C 0.1991(3) 0.7043(3) -0.1428(3)
C10 C 0.1564(3) 0.7668(3) -0.2176(3)
H3 H 0.1032 0.8061 -0.2189
C11 C 0.2045(3) 0.7609(3) -0.2874(3)
H4 H 0.1908 0.7952 -0.3449
C12 C 0.2784(3) 0.6943(3) -0.2581(3)
C13 C 0.3489(3) 0.6704(3) -0.3066(3)
C14 C 0.3621(3) 0.7093(3) -0.3943(3)
H5 H 0.3212 0.7524 -0.4332
C15 C 0.4443(3) 0.6739(3) -0.4138(3)
H6 H 0.4702 0.6886 -0.4688
C16 C 0.4842(3) 0.6119(3) -0.3387(3)
C17 C 0.0896(3) 0.7503(3) -0.0480(3)
C18 C 0.0079(3) 0.7122(3) -0.0333(3)
C19 C -0.0687(3) 0.7674(4) -0.0271(3)
H7 H -0.1240 0.7422 -0.0168
C20 C -0.0680(4) 0.8571(4) -0.0354(4)
C21 C 0.0128(4) 0.8925(4) -0.0483(3)
H8 H 0.0143 0.9542 -0.0531
C22 C 0.0922(3) 0.8406(3) -0.0546(3)
C23 C 0.0029(3) 0.6140(3) -0.0226(4)
H9 H -0.0110 0.5815 0.0365
H10 H 0.0605 0.5875 -0.0379
H11 H -0.0441 0.6092 -0.0597
C24 C -0.1532(4) 0.9148(5) -0.0296(5)
H12 H -0.1951 0.9152 -0.0734
H13 H -0.1401 0.9768 -0.0382
H14 H -0.1799 0.8901 0.0265
C25 C 0.1790(4) 0.8817(3) -0.0702(3)
H15 H 0.2243 0.8423 -0.0301
H16 H 0.1704 0.9412 -0.0625
H17 H 0.1989 0.8885 -0.1283
C26 C 0.3800(3) 0.4237(3) 0.4134(3)
C27 C 0.3363(3) 0.3475(4) 0.4528(3)
C28 C 0.2950(4) 0.3398(4) 0.5317(4)
H18 H 0.2663 0.2873 0.5598
C29 C 0.2949(4) 0.4053(5) 0.5692(4)
C30 C 0.3352(4) 0.4821(5) 0.5275(3)
H19 H 0.3335 0.5289 0.5521
C31 C 0.3784(3) 0.4928(4) 0.4499(3)
C32 C 0.3317(4) 0.2768(4) 0.4113(4)
H20 H 0.3047 0.3050 0.3549
H21 H 0.2953 0.2305 0.4460
H22 H 0.3923 0.2487 0.4059
C33 C 0.2473(5) 0.3958(6) 0.6532(4)
H23 H 0.2730 0.4328 0.6816
H24 H 0.2548 0.3322 0.6893
H25 H 0.1835 0.4161 0.6427
C34 C 0.4246(4) 0.5769(4) 0.4071(4)
H26 H 0.4200 0.6154 0.4432
H27 H 0.3959 0.6104 0.3523
H28 H 0.4878 0.5593 0.3980
N1 N 0.2732(2) 0.6621(3) -0.1711(2)
H29 H 0.307(2) 0.613(2) -0.142(3)
N2 N 0.4230(2) 0.6109(3) -0.2747(2)
H30 H 0.424(3) 0.575(3) -0.2214(15)
C1A C 0.5713(3) 0.5670(3) -0.3318(3)
C2A C 0.6167(3) 0.5170(3) -0.2564(3)
S1A S 0.72599(17) 0.46255(19) -0.26473(18)
C3A C 0.5919(9) 0.4941(9) -0.1720(9)
H1A H 0.5330 0.5097 -0.1549
C4A C 0.7348(3) 0.4257(3) -0.1587(3)
C5A C 0.6608(3) 0.4453(3) -0.1120(3)
S2A S 0.66323(16) 0.3998(2) -0.0079(2)
C6A C 0.8027(9) 0.3675(10) -0.0930(10)
H2A H 0.8591 0.3420 -0.1069
C7A C 0.7754(3) 0.3557(3) -0.0135(3)
C8A C 0.8259(3) 0.3052(3) 0.0594(3)
C9A C 0.8009(3) 0.2957(3) 0.1428(3)
C10A C 0.8436(3) 0.2332(3) 0.2176(3)
H3A H 0.8968 0.1939 0.2189
C11A C 0.7955(3) 0.2391(3) 0.2874(3)
H4A H 0.8092 0.2048 0.3449
C12A C 0.7216(3) 0.3057(3) 0.2581(3)
C13A C 0.6511(3) 0.3296(3) 0.3066(3)
C14A C 0.6379(3) 0.2907(3) 0.3943(3)
H5A H 0.6788 0.2476 0.4332
C15A C 0.5557(3) 0.3261(3) 0.4138(3)
H6A H 0.5298 0.3114 0.4688
C16A C 0.5158(3) 0.3881(3) 0.3387(3)
C17A C 0.9104(3) 0.2497(3) 0.0480(3)
C18A C 0.9921(3) 0.2878(3) 0.0333(3)
C19A C 1.0687(3) 0.2326(4) 0.0271(3)
H7A H 1.1240 0.2578 0.0168
C20A C 1.0680(4) 0.1429(4) 0.0354(4)
C21A C 0.9872(4) 0.1075(4) 0.0483(3)
H8A H 0.9857 0.0458 0.0531
C22A C 0.9078(3) 0.1594(3) 0.0546(3)
C23A C 0.9971(3) 0.3860(3) 0.0226(4)
H9A H 1.0110 0.4185 -0.0365
H10A H 0.9395 0.4125 0.0379
H11A H 1.0441 0.3908 0.0597
C24A C 1.1532(4) 0.0852(5) 0.0296(5)
H12A H 1.1951 0.0848 0.0734
H13A H 1.1401 0.0232 0.0382
H14A H 1.1799 0.1099 -0.0265
C25A C 0.8210(4) 0.1183(3) 0.0702(3)
H15A H 0.7757 0.1577 0.0301
H16A H 0.8296 0.0588 0.0625
H17A H 0.8011 0.1115 0.1283
C26A C 0.6200(3) 0.5763(3) -0.4134(3)
C27A C 0.6637(3) 0.6525(4) -0.4528(3)
C28A C 0.7050(4) 0.6602(4) -0.5317(4)
H18A H 0.7337 0.7127 -0.5598
C29A C 0.7051(4) 0.5947(5) -0.5692(4)
C30A C 0.6648(4) 0.5179(5) -0.5275(3)
H19A H 0.6665 0.4711 -0.5521
C31A C 0.6216(3) 0.5072(4) -0.4499(3)
C32A C 0.6683(4) 0.7232(4) -0.4113(4)
H20A H 0.6953 0.6950 -0.3549
H21A H 0.7047 0.7695 -0.4460
H22A H 0.6077 0.7513 -0.4059
C33A C 0.7527(5) 0.6042(6) -0.6532(4)
H23A H 0.7270 0.5672 -0.6816
H24A H 0.7452 0.6678 -0.6893
H25A H 0.8165 0.5839 -0.6427
C34A C 0.5754(4) 0.4231(4) -0.4071(4)
H26A H 0.5800 0.3846 -0.4432
H27A H 0.6041 0.3896 -0.3523
H28A H 0.5122 0.4407 -0.3980
N1A N 0.7268(2) 0.3379(3) 0.1711(2)
H29A H 0.693(2) 0.387(2) 0.142(3)
N2A N 0.5770(2) 0.3891(3) 0.2747(2)
H30A H 0.576(3) 0.425(3) 0.2214(15)
C37 C -0.2601(3) 1.1031(3) -0.3084(3)
C38 C -0.2067(3) 1.1493(3) -0.3750(3)
S5 S -0.2196(3) 1.2689(2) -0.4088(3)
C39 C -0.1422(10) 1.1142(10) -0.4209(10)
H33 H -0.1259 1.0514 -0.4111
C40 C -0.1458(3) 1.2726(3) -0.4841(3)
C41 C -0.1008(3) 1.1902(3) -0.4895(3)
S6 S -0.0208(2) 1.18998(17) -0.5580(2)
C42 C -0.1029(10) 1.3486(10) -0.5510(11)
H34 H -0.1167 1.4114 -0.5597
C43 C -0.0382(3) 1.3096(3) -0.5987(3)
C44 C 0.0118(3) 1.3592(3) -0.6662(3)
C45 C 0.0769(3) 1.3231(3) -0.7114(3)
C46 C 0.1402(3) 1.3708(3) -0.7693(3)
H35 H 0.1413 1.4346 -0.7884
C47 C 0.1986(3) 1.3111(3) -0.7931(3)
H36 H 0.2481 1.3257 -0.8300
C48 C 0.1731(3) 1.2238(3) -0.7536(3)
C49 C -0.2180(3) 0.8590(3) -0.2427(3)
C50 C -0.2978(3) 0.8706(3) -0.1994(3)
H37 H -0.3301 0.8235 -0.1648
C51 C -0.3205(3) 0.9602(3) -0.2155(3)
H38 H -0.3714 0.9869 -0.1934
C52 C -0.2556(3) 1.0079(3) -0.2708(3)
C53 C -0.0008(3) 1.4611(3) -0.6917(3)
C54 C -0.0568(3) 1.5105(3) -0.7605(3)
C55 C -0.0620(3) 1.6045(3) -0.7877(3)
H39 H -0.0989 1.6381 -0.8352
C56 C -0.0158(3) 1.6509(3) -0.7486(3)
C57 C 0.0368(3) 1.6005(3) -0.6798(3)
H40 H 0.0682 1.6314 -0.6515
C58 C 0.0460(3) 1.5054(3) -0.6495(3)
C59 C -0.1129(3) 1.4643(3) -0.8020(3)
H41 H -0.1677 1.4505 -0.7691
H42 H -0.0793 1.4080 -0.8044
H43 H -0.1284 1.5041 -0.8597
C60 C -0.0236(4) 1.7535(3) -0.7816(4)
H44 H -0.0864 1.7778 -0.7806
H45 H -0.0013 1.7738 -0.8400
H46 H 0.0120 1.7752 -0.7457
C61 C 0.1040(3) 1.4539(4) -0.5740(3)
H47 H 0.1419 1.4047 -0.5863
H48 H 0.0661 1.4285 -0.5249
H49 H 0.1417 1.4947 -0.5615
C62 C -0.32907(19) 1.1572(2) -0.2738(2)
C63 C -0.4161(2) 1.1744(2) -0.3050(2)
C64 C -0.48177(18) 1.2215(3) -0.2704(3)
H50 H -0.5412 1.2332 -0.2917
C65 C -0.4605(2) 1.2514(3) -0.2044(3)
C66 C -0.3735(3) 1.2343(3) -0.1732(2)
H51 H -0.3590 1.2547 -0.1282
C67 C -0.3078(2) 1.1872(2) -0.2079(2)
C68 C -0.4420(4) 1.1416(5) -0.3766(5)
H52 H -0.4435 1.0759 -0.3549
H53 H -0.3979 1.1567 -0.4223
H54 H -0.5012 1.1712 -0.3985
C69 C -0.2130(4) 1.1703(4) -0.1736(5)
H55 H -0.1750 1.2098 -0.2147
H56 H -0.1897 1.1069 -0.1638
H57 H -0.2130 1.1832 -0.1200
C70 C -0.5299(4) 1.2999(4) -0.1620(5)
H58 H -0.5812 1.2649 -0.1453
H59 H -0.5497 1.3601 -0.2016
H60 H -0.5037 1.3062 -0.1115
N3 N 0.0991(2) 1.2323(2) -0.7056(2)
H61 H 0.0697 1.1872 -0.6755
N4 N -0.1937(3) 0.9427(3) -0.2850(2)
H62 H -0.1391(15) 0.948(3) -0.299(3)
C37A C 0.2601(3) 0.8969(3) -0.6916(3)
C38A C 0.2067(3) 0.8507(3) -0.6250(3)
S5A S 0.2196(3) 0.7311(2) -0.5912(3)
C39A C 0.1422(10) 0.8858(10) -0.5791(10)
H33A H 0.1259 0.9486 -0.5889
C40A C 0.1458(3) 0.7274(3) -0.5159(3)
C41A C 0.1008(3) 0.8098(3) -0.5105(3)
S6A S 0.0208(2) 0.81002(17) -0.4420(2)
C42A C 0.1029(10) 0.6514(10) -0.4490(11)
H34A H 0.1167 0.5886 -0.4403
C43A C 0.0382(3) 0.6904(3) -0.4013(3)
C44A C -0.0118(3) 0.6408(3) -0.3338(3)
C45A C -0.0769(3) 0.6769(3) -0.2886(3)
C46A C -0.1402(3) 0.6292(3) -0.2307(3)
H35A H -0.1413 0.5654 -0.2116
C47A C -0.1986(3) 0.6889(3) -0.2069(3)
H36A H -0.2481 0.6743 -0.1700
C48A C -0.1731(3) 0.7762(3) -0.2464(3)
C49A C 0.2180(3) 1.1410(3) -0.7573(3)
C50A C 0.2978(3) 1.1294(3) -0.8006(3)
H37A H 0.3301 1.1765 -0.8352
C51A C 0.3205(3) 1.0398(3) -0.7845(3)
H38A H 0.3714 1.0131 -0.8066
C52A C 0.2556(3) 0.9921(3) -0.7292(3)
C53A C 0.0008(3) 0.5389(3) -0.3083(3)
C54A C 0.0568(3) 0.4895(3) -0.2395(3)
C55A C 0.0620(3) 0.3955(3) -0.2123(3)
H39A H 0.0989 0.3619 -0.1648
C56A C 0.0158(3) 0.3491(3) -0.2514(3)
C57A C -0.0368(3) 0.3995(3) -0.3202(3)
H40A H -0.0682 0.3686 -0.3485
C58A C -0.0460(3) 0.4946(3) -0.3505(3)
C59A C 0.1129(3) 0.5357(3) -0.1980(3)
H41A H 0.1677 0.5495 -0.2309
H42A H 0.0793 0.5920 -0.1956
H43A H 0.1284 0.4959 -0.1403
C60A C 0.0236(4) 0.2465(3) -0.2184(4)
H44A H 0.0864 0.2222 -0.2194
H45A H 0.0013 0.2262 -0.1600
H46A H -0.0120 0.2248 -0.2543
C61A C -0.1040(3) 0.5461(4) -0.4260(3)
H47A H -0.1419 0.5953 -0.4137
H48A H -0.0661 0.5715 -0.4751
H49A H -0.1417 0.5053 -0.4385
C62A C 0.32907(19) 0.8428(2) -0.7262(2)
C63A C 0.4161(2) 0.8256(2) -0.6950(2)
C64A C 0.48177(18) 0.7785(3) -0.7296(3)
H50A H 0.5412 0.7668 -0.7083
C65A C 0.4605(2) 0.7486(3) -0.7956(3)
C66A C 0.3735(3) 0.7657(3) -0.8268(2)
H51A H 0.3590 0.7453 -0.8718
C67A C 0.3078(2) 0.8128(2) -0.7921(2)
C68A C 0.4420(4) 0.8584(5) -0.6234(5)
H52A H 0.4435 0.9241 -0.6451
H53A H 0.3979 0.8433 -0.5777
H54A H 0.5012 0.8288 -0.6015
C69A C 0.2130(4) 0.8297(4) -0.8264(5)
H55A H 0.1750 0.7902 -0.7853
H56A H 0.1897 0.8931 -0.8362
H57A H 0.2130 0.8168 -0.8800
C70A C 0.5299(4) 0.7001(4) -0.8380(5)
H58A H 0.5812 0.7351 -0.8547
H59A H 0.5497 0.6399 -0.7984
H60A H 0.5037 0.6938 -0.8885
N3A N -0.0991(2) 0.7677(2) -0.2944(2)
H61A H -0.0697 0.8128 -0.3245
N4A N 0.1937(3) 1.0573(3) -0.7150(2)
H62A H 0.1391(15) 1.052(3) -0.701(3)
C73 C -0.0711(7) 0.9637(5) -0.6928(5)
C74 C -0.0436(3) 1.0233(3) -0.6437(4)
F1 F 0.0083(6) 0.9470(6) -0.7451(5)
F2 F -0.0832(3) 0.8802(2) -0.6420(2)
F3 F -0.1262(8) 0.9940(7) -0.7481(9)
O1 O 0.0114(2) 1.0763(2) -0.6812(3)
O2 O -0.0757(3) 1.0112(3) -0.5728(3)
C75 C 0.3046(4) 0.3685(4) -0.0339(3)
C76 C 0.3830(3) 0.4261(3) -0.0560(3)
F6 F 0.2376(2) 0.4090(2) 0.0001(2)
F7 F 0.3260(2) 0.2865(2) 0.0221(2)
F8 F 0.27098(19) 0.3548(2) -0.1008(2)
O3 O 0.3696(2) 0.4930(2) -0.1214(2)
O4 O 0.4467(2) 0.4031(3) -0.0074(2)
C77 C -0.5539(5) 0.8470(5) -0.2295(5)
C78 C -0.5280(8) 0.7738(8) -0.1423(6)
F9 F -0.5233(3) 0.8195(3) -0.2929(3)
F10 F -0.5196(3) 0.9224(3) -0.2356(3)
F11 F -0.6412(3) 0.8651(3) -0.2374(3)
O5 O -0.4764(5) 0.7182(4) -0.1394(5)
O6 O -0.5809(8) 0.7834(7) -0.0878(6)
C79 C 0.3664(5) 1.0186(4) -0.4948(5)
C80 C 0.2801(5) 0.9908(4) -0.4732(4)
F12 F 0.4297(3) 0.9472(3) -0.4735(3)
F13 F 0.3765(2) 1.0623(2) -0.5778(2)
F14 F 0.3891(3) 1.0748(3) -0.4547(3)
O7 O 0.2154(3) 1.0598(3) -0.4868(3)
O8 O 0.2680(3) 0.9118(3) -0.4483(3)
S3? S 0.4280(2) 0.4882(3) 0.1554(2)
C35? C 0.2969(10) 0.5237(11) 0.2524(10)
H31? H 0.2607 0.5214 0.3008
S4? S 0.1752(2) 0.6307(2) 0.1134(2)
C36? C 0.3118(10) 0.5959(12) 0.0199(11)
H32? H 0.3472 0.5904 -0.0268
S7? S -0.1285(3) 1.0940(2) -0.4275(3)
C71? C -0.2131(13) 1.2466(11) -0.4161(12)
H63? H -0.2554 1.2885 -0.4012
S8? S -0.1236(2) 1.3687(2) -0.5540(3)
C72? C -0.0387(10) 1.2191(9) -0.5618(10)
H64? H -0.0014 1.1768 -0.5811
F4? F -0.0482(9) 0.9698(8) -0.7628(8)
F5? F -0.1719(6) 1.0021(7) -0.7107(7)
loop_
_geom_bond_atom_site_label_1
_geom_bond_atom_site_label_2
_geom_bond_site_symmetry_1
_geom_bond_site_symmetry_2
C1 C2 1_555 1_555
C2 S1 1_555 1_555
S1 C4 1_555 1_555
C3 C2 1_555 1_555
H1 C3 1_555 1_555
C4 C5 1_555 1_555
C5 C3 1_555 1_555
S2 C5 1_555 1_555
C6 C4 1_555 1_555
H2 C6 1_555 1_555
C7 S2 1_555 1_555
C8 C7 1_555 1_555
C9 C8 1_555 1_555
C10 C9 1_555 1_555
H3 C10 1_555 1_555
C11 C10 1_555 1_555
H4 C11 1_555 1_555
C12 C11 1_555 1_555
C13 C12 1_555 1_555
C14 C13 1_555 1_555
H5 C14 1_555 1_555
C15 C14 1_555 1_555
H6 C15 1_555 1_555
C16 C15 1_555 1_555
C17 C8 1_555 1_555
C18 C17 1_555 1_555
C19 C18 1_555 1_555
H7 C19 1_555 1_555
C20 C19 1_555 1_555
C21 C20 1_555 1_555
H8 C21 1_555 1_555
C22 C17 1_555 1_555
C23 C18 1_555 1_555
H9 C23 1_555 1_555
H10 C23 1_555 1_555
H11 C23 1_555 1_555
C24 C20 1_555 1_555
H12 C24 1_555 1_555
H13 C24 1_555 1_555
H14 C24 1_555 1_555
C25 C22 1_555 1_555
H15 C25 1_555 1_555
H16 C25 1_555 1_555
H17 C25 1_555 1_555
C26 C1 1_555 1_555
C27 C26 1_555 1_555
C28 C27 1_555 1_555
H18 C28 1_555 1_555
C29 C28 1_555 1_555
C30 C29 1_555 1_555
H19 C30 1_555 1_555
C31 C26 1_555 1_555
C32 C27 1_555 1_555
H20 C32 1_555 1_555
H21 C32 1_555 1_555
H22 C32 1_555 1_555
C33 C29 1_555 1_555
H23 C33 1_555 1_555
H24 C33 1_555 1_555
H25 C33 1_555 1_555
C34 C31 1_555 1_555
H26 C34 1_555 1_555
H27 C34 1_555 1_555
H28 C34 1_555 1_555
N1 C9 1_555 1_555
H29 N1 1_555 1_555
N2 C13 1_555 1_555
H30 N2 1_555 1_555
C37 C38 1_555 1_555
C38 S5 1_555 1_555
S5 C40 1_555 1_555
C39 C38 1_555 1_555
H33 C39 1_555 1_555
C40 C41 1_555 1_555
C41 C39 1_555 1_555
S6 C41 1_555 1_555
C42 C40 1_555 1_555
H34 C42 1_555 1_555
C43 S6 1_555 1_555
C44 C43 1_555 1_555
C45 C44 1_555 1_555
C46 C45 1_555 1_555
H35 C46 1_555 1_555
C47 C46 1_555 1_555
H36 C47 1_555 1_555
C48 C47 1_555 1_555
C49 C50 1_555 1_555
C50 H37 1_555 1_555
C51 C50 1_555 1_555
H38 C51 1_555 1_555
C52 C37 1_555 1_555
C53 C44 1_555 1_555
C54 C53 1_555 1_555
C55 C54 1_555 1_555
H39 C55 1_555 1_555
C56 C55 1_555 1_555
C57 C56 1_555 1_555
H40 C57 1_555 1_555
C58 C53 1_555 1_555
C59 C54 1_555 1_555
H41 C59 1_555 1_555
H42 C59 1_555 1_555
H43 C59 1_555 1_555
C60 C56 1_555 1_555
H44 C60 1_555 1_555
H45 C60 1_555 1_555
H46 C60 1_555 1_555
C61 C58 1_555 1_555
H47 C61 1_555 1_555
H48 C61 1_555 1_555
H49 C61 1_555 1_555
C62 C37 1_555 1_555
C63 C62 1_555 1_555
C64 C63 1_555 1_555
H50 C64 1_555 1_555
C65 C64 1_555 1_555
C66 C65 1_555 1_555
H51 C66 1_555 1_555
C67 C62 1_555 1_555
C68 C63 1_555 1_555
H52 C68 1_555 1_555
H53 C68 1_555 1_555
H54 C68 1_555 1_555
C69 C67 1_555 1_555
H55 C69 1_555 1_555
H56 C69 1_555 1_555
H57 C69 1_555 1_555
C70 C65 1_555 1_555
H58 C70 1_555 1_555
H59 C70 1_555 1_555
H60 C70 1_555 1_555
N3 C45 1_555 1_555
H61 N3 1_555 1_555
N4 C49 1_555 1_555
H62 N4 1_555 1_555
C73 C74 1_555 1_555
C74 O1 1_555 1_555
F1 C73 1_555 1_555
F2 C73 1_555 1_555
F3 C73 1_555 1_555
O2 C74 1_555 1_555
C75 C76 1_555 1_555
C76 O3 1_555 1_555
F6 C75 1_555 1_555
F7 C75 1_555 1_555
F8 C75 1_555 1_555
O4 C76 1_555 1_555
C77 C78 1_555 1_555
C78 O5 1_555 1_555
F9 C77 1_555 1_555
F10 C77 1_555 1_555
F11 C77 1_555 1_555
O6 C78 1_555 1_555
C79 C80 1_555 1_555
C80 O7 1_555 1_555
F12 C79 1_555 1_555
F13 C79 1_555 1_555
F14 C79 1_555 1_555
O8 C80 1_555 1_555
C1A C16 1_555 1_555
C2A C1A 1_555 1_555
S1A C2A 1_555 1_555
C3A C2A 1_555 1_555
H1A C3A 1_555 1_555
C4A S1A 1_555 1_555
C5A C3A 1_555 1_555
S2A C5A 1_555 1_555
C6A C4A 1_555 1_555
H2A C6A 1_555 1_555
C7A S2A 1_555 1_555
C8A C7A 1_555 1_555
C9A C8A 1_555 1_555
C10A C9A 1_555 1_555
H3A C10A 1_555 1_555
C11A C10A 1_555 1_555
H4A C11A 1_555 1_555
C12A C11A 1_555 1_555
C13A C12A 1_555 1_555
C14A C13A 1_555 1_555
H5A C14A 1_555 1_555
C15A C14A 1_555 1_555
H6A C15A 1_555 1_555
C16A C1 1_555 1_555
C17A C8A 1_555 1_555
C18A C17A 1_555 1_555
C19A C18A 1_555 1_555
H7A C19A 1_555 1_555
C20A C19A 1_555 1_555
C21A C20A 1_555 1_555
H8A C21A 1_555 1_555
C22A C17A 1_555 1_555
C23A C18A 1_555 1_555
H9A C23A 1_555 1_555
H10A C23A 1_555 1_555
H11A C23A 1_555 1_555
C24A C20A 1_555 1_555
H12A C24A 1_555 1_555
H13A C24A 1_555 1_555
H14A C24A 1_555 1_555
C25A C22A 1_555 1_555
H15A C25A 1_555 1_555
H16A C25A 1_555 1_555
H17A C25A 1_555 1_555
C26A C1A 1_555 1_555
C27A C26A 1_555 1_555
C28A C27A 1_555 1_555
H18A C28A 1_555 1_555
C29A C28A 1_555 1_555
C30A C29A 1_555 1_555
H19A C30A 1_555 1_555
C31A C26A 1_555 1_555
C32A C27A 1_555 1_555
H20A C32A 1_555 1_555
H21A C32A 1_555 1_555
H22A C32A 1_555 1_555
C33A C29A 1_555 1_555
H23A C33A 1_555 1_555
H24A C33A 1_555 1_555
H25A C33A 1_555 1_555
C34A C31A 1_555 1_555
H26A C34A 1_555 1_555
H27A C34A 1_555 1_555
H28A C34A 1_555 1_555
N1A C9A 1_555 1_555
H29A N1A 1_555 1_555
N2A C13A 1_555 1_555
H30A N2A 1_555 1_555
C37A C38A 1_555 1_555
C38A S5A 1_555 1_555
S5A C40A 1_555 1_555
C39A C38A 1_555 1_555
H33A C39A 1_555 1_555
C40A C41A 1_555 1_555
C41A C39A 1_555 1_555
S6A C41A 1_555 1_555
C42A C40A 1_555 1_555
H34A C42A 1_555 1_555
C43A S6A 1_555 1_555
C44A C43A 1_555 1_555
C45A C44A 1_555 1_555
C46A C45A 1_555 1_555
H35A C46A 1_555 1_555
C47A C46A 1_555 1_555
H36A C47A 1_555 1_555
C48A C49 1_555 1_555
C49A C48 1_555 1_555
C50A C49A 1_555 1_555
H37A C50A 1_555 1_555
C51A C50A 1_555 1_555
H38A C51A 1_555 1_555
C52A C37A 1_555 1_555
C53A C44A 1_555 1_555
C54A C53A 1_555 1_555
C55A C54A 1_555 1_555
H39A C55A 1_555 1_555
C56A C55A 1_555 1_555
C57A C56A 1_555 1_555
H40A C57A 1_555 1_555
C58A C53A 1_555 1_555
C59A C54A 1_555 1_555
H41A C59A 1_555 1_555
H42A C59A 1_555 1_555
H43A C59A 1_555 1_555
C60A C56A 1_555 1_555
H44A C60A 1_555 1_555
H45A C60A 1_555 1_555
H46A C60A 1_555 1_555
C61A C58A 1_555 1_555
H47A C61A 1_555 1_555
H48A C61A 1_555 1_555
H49A C61A 1_555 1_555
C62A C37A 1_555 1_555
C63A C62A 1_555 1_555
C64A C63A 1_555 1_555
H50A C64A 1_555 1_555
C65A C64A 1_555 1_555
C66A C65A 1_555 1_555
H51A C66A 1_555 1_555
C67A C62A 1_555 1_555
C68A C63A 1_555 1_555
H52A C68A 1_555 1_555
H53A C68A 1_555 1_555
H54A C68A 1_555 1_555
C69A C67A 1_555 1_555
H55A C69A 1_555 1_555
H56A C69A 1_555 1_555
H57A C69A 1_555 1_555
C70A C65A 1_555 1_555
H58A C70A 1_555 1_555
H59A C70A 1_555 1_555
H60A C70A 1_555 1_555
N3A C45A 1_555 1_555
H61A N3A 1_555 1_555
N4A C49A 1_555 1_555
H62A N4A 1_555 1_555
C6 C7 1_555 1_555
C12 N1 1_555 1_555
C16 N2 1_555 1_555
C21 C22 1_555 1_555
C30 C31 1_555 1_555
C42 C43 1_555 1_555
C48 N3 1_555 1_555
C51 C52 1_555 1_555
C52 N4 1_555 1_555
C57 C58 1_555 1_555
C66 C67 1_555 1_555
C4A C5A 1_555 1_555
C6A C7A 1_555 1_555
C12A N1A 1_555 1_555
C15A C16A 1_555 1_555
C16A N2A 1_555 1_555
C21A C22A 1_555 1_555
C30A C31A 1_555 1_555
C42A C43A 1_555 1_555
C47A C48A 1_555 1_555
C48A N3A 1_555 1_555
C51A C52A 1_555 1_555
C52A N4A 1_555 1_555
C57A C58A 1_555 1_555
C66A C67A 1_555 1_555

#END
