
#######################################################################
#
#                 Cambridge Crystallographic Data Centre
#                                CCDC 
#
#######################################################################
#
# If this CIF has been generated from an entry in the Cambridge 
# Structural Database, then it will include bibliographic, chemical, 
# crystal, experimental, refinement or atomic coordinate data resulting 
# from the CCDC's data processing and validation procedures.
#
#######################################################################

data_EMIGUE
_chemical_formula_moiety         'C24 H15 F2 N3 O1,2(C2 H6 O1 S1)'
_chemical_name_systematic        
"5,5''-difluoro-1H,1''H-3,3':3',3''-terindol-2'(1'H)-one dimethyl sulfoxide solvate"
_symmetry_cell_setting           monoclinic
_symmetry_space_group_name_H-M   'P 21/n'
_symmetry_Int_Tables_number      14
_space_group_name_Hall           '-P 2yn'
loop_
_symmetry_equiv_pos_site_id
_symmetry_equiv_pos_as_xyz
1 x,y,z
2 1/2-x,1/2+y,1/2-z
3 -x,-y,-z
4 1/2+x,1/2-y,1/2+z
_cell_length_a                   15.4563(7)
_cell_length_b                   10.8340(6)
_cell_length_c                   16.4718(6)
_cell_angle_alpha                90
_cell_angle_beta                 102.403(4)
_cell_angle_gamma                90
_cell_volume                     2693.89
_exptl_crystal_colour            white
_exptl_crystal_description       Block
_cell_formula_units_Z            4
loop_
_atom_site_label
_atom_site_type_symbol
_atom_site_fract_x
_atom_site_fract_y
_atom_site_fract_z
N1 N 0.29303(13) 0.5542(2) 0.11165(13)
H1 H 0.2427 0.5415 0.0786
C1 C 0.37054(16) 0.4956(2) 0.10860(15)
H2 H 0.3767 0.4356 0.0699
C2 C 0.43776(15) 0.5374(2) 0.17032(13)
C3 C 0.43277(18) 0.7073(2) 0.28208(15)
H3 H 0.4921 0.7056 0.3092
C4 C 0.3741(2) 0.7854(3) 0.30638(17)
C5 C 0.2851(2) 0.7929(3) 0.26987(18)
H4 H 0.2486 0.8487 0.2894
C6 C 0.25143(18) 0.7168(3) 0.20445(17)
H5 H 0.1915 0.7186 0.1794
C7 C 0.30892(16) 0.6364(2) 0.17613(15)
C8 C 0.39956(16) 0.6295(2) 0.21414(14)
F1 F 0.40436(14) 0.86096(18) 0.37271(11)
N2 N 0.64789(14) 0.5684(2) 0.29687(12)
H6 H 0.6837 0.5723 0.3446
C9 C 0.57668(17) 0.4908(2) 0.27908(15)
C10 C 0.53474(15) 0.5043(2) 0.18451(13)
C11 C 0.58901(15) 0.6100(2) 0.16091(14)
C12 C 0.58148(17) 0.6712(2) 0.08661(15)
H7 H 0.5363 0.6513 0.0414
C13 C 0.64198(19) 0.7628(3) 0.07986(17)
H8 H 0.6375 0.8049 0.0299
C14 C 0.7090(2) 0.7917(3) 0.14715(18)
H9 H 0.7498 0.8524 0.1416
C15 C 0.71655(18) 0.7320(3) 0.22263(17)
H10 H 0.7612 0.7527 0.2681
C16 C 0.65592(16) 0.6410(2) 0.22840(15)
O1 O 0.55184(13) 0.42353(17) 0.32856(11)
N3 N 0.62055(14) 0.2498(2) 0.07380(13)
H11 H 0.6553 0.2204 0.0442
C17 C 0.61716(16) 0.3698(3) 0.09726(15)
H12 H 0.6528 0.4325 0.0840
C18 C 0.55378(15) 0.3852(2) 0.14322(14)
C19 C 0.51590(16) 0.2650(2) 0.14937(14)
C20 C 0.44967(18) 0.2184(2) 0.18714(16)
H13 H 0.4195 0.2692 0.2173
C21 C 0.4312(2) 0.0951(3) 0.17786(19)
C22 C 0.4742(2) 0.0138(3) 0.13451(19)
H14 H 0.4588 -0.0693 0.1305
C23 C 0.5395(2) 0.0576(3) 0.09779(17)
H15 H 0.5696 0.0051 0.0688
C24 C 0.55969(17) 0.1836(2) 0.10504(15)
F2 F 0.36793(15) 0.04722(17) 0.21501(14)
S1 S 0.21030(6) 0.92554(9) 0.03970(4)
O2 O 0.24737(13) 0.91030(19) -0.03640(11)
C25 C 0.0994(2) 0.8719(4) 0.0117(3)
H16 H 0.0684 0.9163 -0.0363
H17 H 0.0705 0.8851 0.0570
H18 H 0.0992 0.7854 -0.0009
C26 C 0.1848(3) 1.0847(4) 0.0441(3)
H19 H 0.2386 1.1318 0.0554
H20 H 0.1530 1.0984 0.0874
H21 H 0.1488 1.1101 -0.0083
O3 O 0.14378(16) 0.5593(2) -0.02135(14)
C27 C 0.0377(3) 0.3789(4) -0.0843(2)
H22 H 0.0319 0.3459 -0.0316
H23 H 0.0307 0.3138 -0.1247
H24 H -0.0070 0.4405 -0.1020
C28 C 0.1314(3) 0.4957(5) -0.1771(2)
H25 H 0.1851 0.5356 -0.1832
H26 H 0.0830 0.5529 -0.1906
H27 H 0.1200 0.4260 -0.2138
S2 S 0.14251(7) 0.44571(11) -0.07426(6)
H28? H 0.0052 0.3876 -0.1406
H29? H 0.0063 0.4197 -0.0476
H30? H 0.0441 0.2930 -0.0702
S3? S 0.0862(3) 0.5278(4) -0.1027(3)
H31? H 0.0736 0.4741 -0.2085
H32? H 0.1757 0.4568 -0.2012
H33? H 0.1387 0.5837 -0.1779
loop_
_geom_bond_atom_site_label_1
_geom_bond_atom_site_label_2
_geom_bond_site_symmetry_1
_geom_bond_site_symmetry_2
N1 H1 1_555 1_555
C1 N1 1_555 1_555
H2 C1 1_555 1_555
C2 C1 1_555 1_555
C3 H3 1_555 1_555
C4 C3 1_555 1_555
C5 C4 1_555 1_555
H4 C5 1_555 1_555
C6 C5 1_555 1_555
H5 C6 1_555 1_555
C7 N1 1_555 1_555
C8 C2 1_555 1_555
F1 C4 1_555 1_555
N2 H6 1_555 1_555
C9 N2 1_555 1_555
C10 C2 1_555 1_555
C11 C10 1_555 1_555
C12 C11 1_555 1_555
H7 C12 1_555 1_555
C13 C12 1_555 1_555
H8 C13 1_555 1_555
C14 C13 1_555 1_555
H9 C14 1_555 1_555
C15 C14 1_555 1_555
H10 C15 1_555 1_555
C16 N2 1_555 1_555
O1 C9 1_555 1_555
N3 H11 1_555 1_555
C17 N3 1_555 1_555
H12 C17 1_555 1_555
C18 C10 1_555 1_555
C19 C18 1_555 1_555
C20 C19 1_555 1_555
H13 C20 1_555 1_555
C21 C20 1_555 1_555
C22 C21 1_555 1_555
H14 C22 1_555 1_555
C23 C22 1_555 1_555
H15 C23 1_555 1_555
C24 N3 1_555 1_555
F2 C21 1_555 1_555
S1 O2 1_555 1_555
C25 S1 1_555 1_555
H16 C25 1_555 1_555
H17 C25 1_555 1_555
H18 C25 1_555 1_555
C26 S1 1_555 1_555
H19 C26 1_555 1_555
H20 C26 1_555 1_555
H21 C26 1_555 1_555
O3 S2 1_555 1_555
C27 H22 1_555 1_555
H23 C27 1_555 1_555
H24 C27 1_555 1_555
C28 H25 1_555 1_555
H26 C28 1_555 1_555
H27 C28 1_555 1_555
S2 C27 1_555 1_555
C3 C8 1_555 1_555
C6 C7 1_555 1_555
C7 C8 1_555 1_555
C9 C10 1_555 1_555
C11 C16 1_555 1_555
C15 C16 1_555 1_555
C17 C18 1_555 1_555
C19 C24 1_555 1_555
C23 C24 1_555 1_555
C28 S2 1_555 1_555

#END
