
#######################################################################
#
#                 Cambridge Crystallographic Data Centre
#                                CCDC 
#
#######################################################################
#
# If this CIF has been generated from an entry in the Cambridge 
# Structural Database, then it will include bibliographic, chemical, 
# crystal, experimental, refinement or atomic coordinate data resulting 
# from the CCDC's data processing and validation procedures.
#
#######################################################################

data_EMILXP
_chemical_formula_moiety         'C17 H21 N4 O2 1+,Cl1 O4 1-'
_chemical_name_systematic        
'2-O,3-Diethyl-7,8,10-trimethyl-isoalloxazinium perchlorate'
_symmetry_cell_setting           monoclinic
_symmetry_space_group_name_H-M   'P 21/c'
_symmetry_Int_Tables_number      14
_space_group_name_Hall           '-P 2ybc'
loop_
_symmetry_equiv_pos_site_id
_symmetry_equiv_pos_as_xyz
1 x,y,z
2 -x,1/2+y,1/2-z
3 -x,-y,-z
4 x,1/2-y,1/2+z
_cell_length_a                   10.73(1)
_cell_length_b                   12.91(1)
_cell_length_c                   16.52(1)
_cell_angle_alpha                90
_cell_angle_beta                 122.18(5)
_cell_angle_gamma                90
_cell_volume                     1936.87
_cell_formula_units_Z            4
loop_
_atom_site_label
_atom_site_type_symbol
_atom_site_fract_x
_atom_site_fract_y
_atom_site_fract_z
N1 N 0.30210 0.45850 0.15530
C1 C 0.28510 0.39110 0.20780
N2 N 0.18010 0.31610 0.17700
C2 C 0.07650 0.30080 0.08070
C3 C 0.09170 0.37610 0.01700
N3 N -0.00520 0.37090 -0.07450
C4 C 0.01240 0.43660 -0.13240
C5 C -0.08590 0.42990 -0.23070
C6 C -0.07350 0.48990 -0.29300
C7 C 0.04140 0.56500 -0.25630
C8 C 0.13890 0.57460 -0.15880
C9 C 0.12570 0.51190 -0.09510
N4 N 0.21950 0.51730 0.00320
C10 C 0.20710 0.45040 0.06140
O1 O 0.37530 0.39140 0.30220
C11 C 0.18040 0.24150 0.24590
O2 O -0.01520 0.23560 0.05200
C12 C -0.17500 0.48040 -0.39940
C13 C 0.06050 0.63260 -0.32260
C14 C 0.33660 0.59600 0.04520
C15 C 0.49530 0.46650 0.34570
C16 C 0.27630 0.15140 0.26140
C17 C 0.62030 0.42500 0.34670
H1 H -0.16200 0.38600 -0.24800
H2 H 0.22300 0.62500 -0.13600
H3 H 0.07400 0.21400 0.21000
H4 H 0.23300 0.29100 0.30900
H5 H -0.24800 0.43400 -0.41400
H6 H -0.24300 0.53000 -0.41800
H7 H -0.13100 0.44900 -0.43900
H8 H -0.02700 0.67900 -0.36000
H9 H 0.06400 0.59900 -0.37000
H10 H 0.16700 0.68600 -0.28200
H11 H 0.47500 0.47200 0.39200
H12 H 0.44600 0.54700 0.30300
H13 H 0.25200 0.11700 0.20600
H14 H 0.28900 0.08800 0.31100
H15 H 0.36300 0.16400 0.26900
H16 H 0.63800 0.37000 0.38000
H17 H 0.61900 0.42400 0.28500
H18 H 0.70400 0.46300 0.37300
H19 H 0.30200 0.65800 0.01400
H20 H 0.38500 0.59500 0.00700
H21 H 0.35800 0.60400 0.10000
O3 O 0.37830 0.22740 0.10110
O4 O 0.45660 0.35820 0.04800
O5 O 0.50380 0.19110 0.02600
O6 O 0.58590 0.25260 0.14420
Cl1 Cl 0.45530 0.25680 0.06370
loop_
_geom_bond_atom_site_label_1
_geom_bond_atom_site_label_2
_geom_bond_site_symmetry_1
_geom_bond_site_symmetry_2
N1 C1 1_555 1_555
C1 N2 1_555 1_555
N2 C2 1_555 1_555
C2 C3 1_555 1_555
C3 N3 1_555 1_555
N3 C4 1_555 1_555
C4 C5 1_555 1_555
C5 C6 1_555 1_555
C6 C7 1_555 1_555
C7 C8 1_555 1_555
C8 C9 1_555 1_555
C9 C4 1_555 1_555
N4 C9 1_555 1_555
C10 N1 1_555 1_555
O1 C1 1_555 1_555
C11 N2 1_555 1_555
O2 C2 1_555 1_555
C12 C6 1_555 1_555
C13 C7 1_555 1_555
C14 N4 1_555 1_555
C15 O1 1_555 1_555
C16 C11 1_555 1_555
C17 C15 1_555 1_555
H1 C5 1_555 1_555
H2 C8 1_555 1_555
H3 C11 1_555 1_555
H4 C11 1_555 1_555
H5 C12 1_555 1_555
H6 C12 1_555 1_555
H7 C12 1_555 1_555
H8 C13 1_555 1_555
H9 C13 1_555 1_555
H10 C13 1_555 1_555
H11 C15 1_555 1_555
H12 C15 1_555 1_555
H13 C16 1_555 1_555
H14 C16 1_555 1_555
H15 C16 1_555 1_555
H16 C17 1_555 1_555
H17 C17 1_555 1_555
H18 C17 1_555 1_555
H19 C14 1_555 1_555
H20 C14 1_555 1_555
H21 C14 1_555 1_555
O3 Cl1 1_555 1_555
O4 Cl1 1_555 1_555
O5 Cl1 1_555 1_555
O6 Cl1 1_555 1_555
C3 C10 1_555 1_555
N4 C10 1_555 1_555

#END
