
#######################################################################
#
#                 Cambridge Crystallographic Data Centre
#                                CCDC 
#
#######################################################################
#
# If this CIF has been generated from an entry in the Cambridge 
# Structural Database, then it will include bibliographic, chemical, 
# crystal, experimental, refinement or atomic coordinate data resulting 
# from the CCDC's data processing and validation procedures.
#
#######################################################################

data_EMIMBA
_chemical_formula_moiety         'C13 H24 N4 O1'
_chemical_name_systematic        
2-Ethyl-2-(5'-dimethylamino-4',4'-dimethyl-4'H-imidazol-2'-yl)-butyramide
_symmetry_cell_setting           triclinic
_symmetry_space_group_name_H-M   'P -1'
_symmetry_Int_Tables_number      2
_space_group_name_Hall           '-P 1'
loop_
_symmetry_equiv_pos_site_id
_symmetry_equiv_pos_as_xyz
1 x,y,z
2 -x,-y,-z
_cell_length_a                   12.577(4)
_cell_length_b                   6.850(3)
_cell_length_c                   9.892(8)
_cell_angle_alpha                68.43(2)
_cell_angle_beta                 73.15(2)
_cell_angle_gamma                80.97(2)
_cell_volume                     757.296
_exptl_crystal_colour            colorless
_cell_formula_units_Z            2
loop_
_atom_site_label
_atom_site_type_symbol
_atom_site_fract_x
_atom_site_fract_y
_atom_site_fract_z
O1 O 0.14370 0.09510 -0.60440
N1 N 0.06050 0.00880 -0.35860
N2 N 0.33930 0.20560 -0.28320
N3 N 0.38700 0.23840 -0.08410
N4 N 0.15890 0.10620 -0.18450
C1 C 0.31310 0.19760 -0.14370
C2 C 0.24190 0.15040 -0.30000
C3 C 0.19430 0.13180 -0.06320
C4 C 0.24600 0.15570 -0.45610
C5 C 0.14360 0.08310 -0.47680
C6 C 0.11620 0.30170 -0.01270
C7 C 0.19020 -0.07950 0.06380
C8 C 0.35950 0.26450 0.06180
C9 C 0.49650 0.30220 -0.17900
C10 C 0.26200 0.38580 -0.56260
C11 C 0.16290 0.53560 -0.53340
C12 C 0.34760 0.01520 -0.50580
C13 C 0.34900 -0.20910 -0.40010
H1 H 0.06330 0.00110 -0.26430
H2 H -0.00180 -0.03450 -0.36900
H3 H 0.27730 0.38850 -0.66890
H4 H 0.32910 0.43510 -0.55090
H5 H 0.41740 0.08000 -0.51500
H6 H 0.34870 0.01480 -0.60770
H7 H 0.11130 0.43160 -0.10070
H8 H 0.03930 0.24840 0.03950
H9 H 0.14430 0.33800 0.06030
H10 H 0.22610 -0.07200 0.14060
H11 H 0.11160 -0.11880 0.11420
H12 H 0.23210 -0.19260 0.02330
H13 H 0.42410 0.22220 0.10660
H14 H 0.33790 0.42000 0.04870
H15 H 0.29420 0.18200 0.13070
H16 H 0.49650 0.45890 -0.22830
H17 H 0.55290 0.25520 -0.11750
H18 H 0.51950 0.23610 -0.25970
H19 H 0.14640 0.53670 -0.42750
H20 H 0.17710 0.68260 -0.60500
H21 H 0.09460 0.49010 -0.54550
H22 H 0.28080 -0.27710 -0.39030
H23 H 0.41670 -0.29140 -0.43790
H24 H 0.34940 -0.21190 -0.29760
loop_
_geom_bond_atom_site_label_1
_geom_bond_atom_site_label_2
_geom_bond_site_symmetry_1
_geom_bond_site_symmetry_2
O1 C5 1_555 1_555
N1 C5 1_555 1_555
N2 C1 1_555 1_555
N3 C1 1_555 1_555
N4 C2 1_555 1_555
C1 C3 1_555 1_555
C2 N2 1_555 1_555
C3 N4 1_555 1_555
C4 C2 1_555 1_555
C5 C4 1_555 1_555
C6 C3 1_555 1_555
C7 C3 1_555 1_555
C8 N3 1_555 1_555
C9 N3 1_555 1_555
C10 C4 1_555 1_555
C11 C10 1_555 1_555
C12 C4 1_555 1_555
C13 C12 1_555 1_555
H1 N1 1_555 1_555
H2 N1 1_555 1_555
H3 C10 1_555 1_555
H4 C10 1_555 1_555
H5 C12 1_555 1_555
H6 C12 1_555 1_555
H7 C6 1_555 1_555
H8 C6 1_555 1_555
H9 C6 1_555 1_555
H10 C7 1_555 1_555
H11 C7 1_555 1_555
H12 C7 1_555 1_555
H13 C8 1_555 1_555
H14 C8 1_555 1_555
H15 C8 1_555 1_555
H16 C9 1_555 1_555
H17 C9 1_555 1_555
H18 C9 1_555 1_555
H19 C11 1_555 1_555
H20 C11 1_555 1_555
H21 C11 1_555 1_555
H22 C13 1_555 1_555
H23 C13 1_555 1_555
H24 C13 1_555 1_555

#END
