
#######################################################################
#
#                 Cambridge Crystallographic Data Centre
#                                CCDC 
#
#######################################################################
#
# If this CIF has been generated from an entry in the Cambridge 
# Structural Database, then it will include bibliographic, chemical, 
# crystal, experimental, refinement or atomic coordinate data resulting 
# from the CCDC's data processing and validation procedures.
#
#######################################################################

data_EMINIZ
_chemical_formula_moiety         'C23 H18 Br1 N1 O3'
_chemical_name_systematic        
(R)-1-(10-(4-bromobenzoyl)-10,11-dihydrodibenzo[b,f][1,4]oxazepin-11-yl)acetone
_symmetry_cell_setting           orthorhombic
_symmetry_space_group_name_H-M   'P 21 21 21'
_symmetry_Int_Tables_number      19
_space_group_name_Hall           'P 2ac 2ab'
loop_
_symmetry_equiv_pos_site_id
_symmetry_equiv_pos_as_xyz
1 x,y,z
2 1/2-x,-y,1/2+z
3 -x,1/2+y,1/2-z
4 1/2+x,1/2-y,-z
_cell_length_a                   7.8476(9)
_cell_length_b                   9.8155(10)
_cell_length_c                   25.876(3)
_cell_angle_alpha                90
_cell_angle_beta                 90
_cell_angle_gamma                90
_cell_volume                     1993.18
_exptl_crystal_colour            colorless
_exptl_crystal_description       prismatic
_cell_formula_units_Z            4
loop_
_atom_site_label
_atom_site_type_symbol
_atom_site_fract_x
_atom_site_fract_y
_atom_site_fract_z
Br1 Br 0.42876(10) 0.40794(5) 0.83729(2)
N1 N 0.7764(5) 1.0356(4) 0.87121(15)
O1 O 0.8573(6) 1.0119(4) 0.97586(14)
O2 O 0.871(3) 1.1237(18) 0.7673(8)
O3 O 0.5236(4) 1.1020(3) 0.83799(15)
C1 C 0.8892(6) 0.9312(4) 0.88809(17)
C2 C 0.9565(6) 0.8365(5) 0.8546(2)
H1 H 0.9313 0.8413 0.8195
C3 C 1.0614(8) 0.7344(6) 0.8729(2)
H2 H 1.1061 0.6702 0.8502
C4 C 1.0998(8) 0.7273(6) 0.9244(3)
H3 H 1.1669 0.6566 0.9369
C5 C 1.0385(8) 0.8258(6) 0.9576(2)
H4 H 1.0688 0.8239 0.9923
C6 C 0.9335(7) 0.9259(5) 0.93956(18)
C7 C 0.8615(7) 1.1536(6) 0.9722(2)
C8 C 0.8677(9) 1.2140(7) 1.0203(2)
H5 H 0.8726 1.1601 1.0498
C9 C 0.8666(8) 1.3529(7) 1.0248(3)
H6 H 0.8703 1.3936 1.0572
C10 C 0.8600(9) 1.4319(6) 0.9808(3)
H7 H 0.8605 1.5264 0.9834
C11 C 0.8528(8) 1.3708(5) 0.9333(3)
H8 H 0.8474 1.4250 0.9039
C12 C 0.8533(6) 1.2288(5) 0.9278(2)
C13 C 0.8426(7) 1.1749(5) 0.87302(19)
H9 H 0.7635 1.2333 0.8538
C14 C 1.0132(6) 1.1814(5) 0.84624(19)
H10 H 1.0596 1.2723 0.8506
H11 H 1.0902 1.1182 0.8631
C15 C 1.0081(8) 1.1486(7) 0.7893(2)
C16 C 1.1606(9) 1.0936(9) 0.7653(3)
H12 H 1.1582 1.1121 0.7289
H13 H 1.1650 0.9969 0.7708
H14 H 1.2595 1.1353 0.7803
C17 C 0.6153(6) 1.0120(5) 0.85348(18)
C18 C 0.5603(6) 0.8659(4) 0.85254(16)
C19 C 0.5023(6) 0.8145(5) 0.80614(18)
H15 H 0.4923 0.8723 0.7778
C20 C 0.4588(6) 0.6785(5) 0.80096(18)
H16 H 0.4220 0.6439 0.7694
C21 C 0.4714(6) 0.5967(4) 0.84346(17)
C22 C 0.5219(7) 0.6454(5) 0.89093(19)
H17 H 0.5275 0.5879 0.9194
C23 C 0.5643(7) 0.7820(5) 0.89542(17)
H18 H 0.5956 0.8172 0.9274
O4? O 0.893(3) 1.1993(18) 0.7636(8)
loop_
_geom_bond_atom_site_label_1
_geom_bond_atom_site_label_2
_geom_bond_site_symmetry_1
_geom_bond_site_symmetry_2
Br1 C21 1_555 1_555
N1 C1 1_555 1_555
O1 C6 1_555 1_555
O2 C15 1_555 1_555
O3 C17 1_555 1_555
C1 C2 1_555 1_555
C2 H1 1_555 1_555
C3 C2 1_555 1_555
H2 C3 1_555 1_555
C4 C3 1_555 1_555
H3 C4 1_555 1_555
C5 C4 1_555 1_555
H4 C5 1_555 1_555
C6 C1 1_555 1_555
C7 O1 1_555 1_555
C8 C7 1_555 1_555
H5 C8 1_555 1_555
C9 C8 1_555 1_555
H6 C9 1_555 1_555
C10 C9 1_555 1_555
H7 C10 1_555 1_555
C11 C10 1_555 1_555
H8 C11 1_555 1_555
C12 C7 1_555 1_555
C13 N1 1_555 1_555
H9 C13 1_555 1_555
C14 C13 1_555 1_555
H10 C14 1_555 1_555
H11 C14 1_555 1_555
C15 C14 1_555 1_555
C16 C15 1_555 1_555
H12 C16 1_555 1_555
H13 C16 1_555 1_555
H14 C16 1_555 1_555
C17 N1 1_555 1_555
C18 C17 1_555 1_555
C19 C18 1_555 1_555
H15 C19 1_555 1_555
C20 C19 1_555 1_555
H16 C20 1_555 1_555
C21 C20 1_555 1_555
C22 C21 1_555 1_555
H17 C22 1_555 1_555
C23 C18 1_555 1_555
H18 C23 1_555 1_555
C5 C6 1_555 1_555
C11 C12 1_555 1_555
C12 C13 1_555 1_555
C22 C23 1_555 1_555

#END
