
#######################################################################
#
#                 Cambridge Crystallographic Data Centre
#                                CCDC 
#
#######################################################################
#
# If this CIF has been generated from an entry in the Cambridge 
# Structural Database, then it will include bibliographic, chemical, 
# crystal, experimental, refinement or atomic coordinate data resulting 
# from the CCDC's data processing and validation procedures.
#
#######################################################################

data_EMIPEW04
_chemical_formula_moiety         'C13 H12 N4 O1'
_chemical_name_systematic        
N-phenyl-2-(pyridin-2-ylmethylene)hydrazinecarboxamide
_symmetry_cell_setting           monoclinic
_symmetry_space_group_name_H-M   'P 21/c'
_symmetry_Int_Tables_number      14
_space_group_name_Hall           '-P 2ybc'
loop_
_symmetry_equiv_pos_site_id
_symmetry_equiv_pos_as_xyz
1 x,y,z
2 -x,1/2+y,1/2-z
3 -x,-y,-z
4 x,1/2-y,1/2+z
_cell_length_a                   9.3119(19)
_cell_length_b                   10.191(2)
_cell_length_c                   12.787(3)
_cell_angle_alpha                90
_cell_angle_beta                 100.90(3)
_cell_angle_gamma                90
_cell_volume                     1191.56
_cell_formula_units_Z            4
loop_
_atom_site_label
_atom_site_type_symbol
_atom_site_fract_x
_atom_site_fract_y
_atom_site_fract_z
O1 O 0.80927(17) 0.04088(17) 0.96717(12)
N1 N 0.9794(2) -0.03824(18) 0.75425(14)
N2 N 0.9592(2) -0.0137(2) 0.85570(14)
H1 H 1.0290 -0.0299 0.9085
N3 N 0.73295(19) 0.07817(19) 0.78792(14)
H2 H 0.7599 0.0739 0.7273
C1 C 1.0321(2) -0.1483(2) 0.55509(17)
H3 H 0.9381 -0.1667 0.5656
C2 C 1.1387(2) -0.1033(2) 0.63879(16)
C3 C 0.8299(2) 0.0361(2) 0.87465(17)
C4 C 1.2012(2) -0.1409(2) 0.43489(16)
H4 H 1.2215 -0.1516 0.3669
C5 C 1.0687(3) -0.1652(2) 0.45565(18)
H5 H 0.9966 -0.1952 0.4003
N4 N 1.2788(3) -0.0801(2) 0.61934(19)
C6 C 1.1078(2) -0.0756(2) 0.74499(17)
H6 H 1.1809 -0.0850 0.8051
C7 C 0.5261(2) 0.2044(2) 0.70239(17)
H7 H 0.5763 0.2215 0.6475
C8 C 1.3033(3) -0.1003(3) 0.5163(2)
H8 H 1.3968 -0.0845 0.5034
C9 C 0.5148(2) 0.1031(2) 0.87082(18)
H9 H 0.5566 0.0515 0.9286
C10 C 0.5915(2) 0.1283(2) 0.78895(17)
C11 C 0.3757(3) 0.1555(3) 0.8653(2)
H10 H 0.3253 0.1394 0.9203
C12 C 0.3868(3) 0.2546(3) 0.6976(2)
H11 H 0.3437 0.3044 0.6391
C13 C 0.3108(3) 0.2315(3) 0.7793(2)
H12 H 0.2179 0.2664 0.7764
loop_
_geom_bond_atom_site_label_1
_geom_bond_atom_site_label_2
_geom_bond_site_symmetry_1
_geom_bond_site_symmetry_2
O1 C3 1_555 1_555
N1 N2 1_555 1_555
N2 H1 1_555 1_555
N3 H2 1_555 1_555
C1 H3 1_555 1_555
C2 C1 1_555 1_555
C3 N2 1_555 1_555
C4 H4 1_555 1_555
C5 C1 1_555 1_555
H5 C5 1_555 1_555
N4 C2 1_555 1_555
C6 N1 1_555 1_555
H6 C6 1_555 1_555
C7 H7 1_555 1_555
C8 C4 1_555 1_555
H8 C8 1_555 1_555
C9 H9 1_555 1_555
C10 N3 1_555 1_555
C11 C9 1_555 1_555
H10 C11 1_555 1_555
C12 C7 1_555 1_555
H11 C12 1_555 1_555
C13 C11 1_555 1_555
H12 C13 1_555 1_555
N3 C3 1_555 1_555
C2 C6 1_555 1_555
C4 C5 1_555 1_555
N4 C8 1_555 1_555
C7 C10 1_555 1_555
C9 C10 1_555 1_555
C12 C13 1_555 1_555

#END
