
#######################################################################
#
#                 Cambridge Crystallographic Data Centre
#                                CCDC 
#
#######################################################################
#
# If this CIF has been generated from an entry in the Cambridge 
# Structural Database, then it will include bibliographic, chemical, 
# crystal, experimental, refinement or atomic coordinate data resulting 
# from the CCDC's data processing and validation procedures.
#
#######################################################################

data_EMIPOG
_chemical_formula_moiety         'C12 H23 N1 O2'
_chemical_name_systematic        2-(Hydroxyimino)cyclododecanol
_symmetry_cell_setting           monoclinic
_symmetry_space_group_name_H-M   'P 21/c'
_symmetry_Int_Tables_number      14
_space_group_name_Hall           '-P 2ybc'
loop_
_symmetry_equiv_pos_site_id
_symmetry_equiv_pos_as_xyz
1 x,y,z
2 -x,1/2+y,1/2-z
3 -x,-y,-z
4 x,1/2-y,1/2+z
_cell_length_a                   6.3168(9)
_cell_length_b                   17.651(3)
_cell_length_c                   11.6088(17)
_cell_angle_alpha                90
_cell_angle_beta                 103.795(3)
_cell_angle_gamma                90
_cell_volume                     1257.02
_exptl_crystal_colour            black
_exptl_crystal_description       block
_cell_formula_units_Z            4
loop_
_atom_site_label
_atom_site_type_symbol
_atom_site_fract_x
_atom_site_fract_y
_atom_site_fract_z
C1 C 0.1012(3) 0.52891(11) 0.69813(18)
C2 C -0.1045(3) 0.56181(13) 0.61920(19)
H1 H -0.0710 0.5788 0.5451
C3 C -0.1990(4) 0.62782(13) 0.6726(2)
H2 H -0.2258 0.6126 0.7482
H3 H -0.3375 0.6420 0.6206
C4 C -0.0466(4) 0.69609(14) 0.6914(2)
H4 H 0.1022 0.6781 0.7179
H5 H -0.0591 0.7210 0.6156
C5 C -0.0877(5) 0.75385(16) 0.7793(3)
H6 H -0.1101 0.7276 0.8488
H7 H -0.2208 0.7811 0.7441
C6 C 0.0964(6) 0.81068(16) 0.8180(3)
H8 H 0.0557 0.8463 0.8726
H9 H 0.1122 0.8390 0.7489
C7 C 0.3170(5) 0.77625(16) 0.8776(3)
H10 H 0.3615 0.7428 0.8214
H11 H 0.4235 0.8168 0.8962
C8 C 0.3222(5) 0.73202(17) 0.9903(3)
H12 H 0.1753 0.7152 0.9885
H13 H 0.3667 0.7660 1.0573
C9 C 0.4719(5) 0.66354(18) 1.0109(2)
H14 H 0.4763 0.6433 1.0891
H15 H 0.6182 0.6801 1.0104
C10 C 0.4068(4) 0.59989(14) 0.9202(2)
H16 H 0.4068 0.6195 0.8421
H17 H 0.5157 0.5601 0.9383
C11 C 0.1851(4) 0.56588(14) 0.91669(19)
H18 H 0.0783 0.6064 0.9033
H19 H 0.1885 0.5442 0.9939
C12 C 0.1076(4) 0.50447(12) 0.82225(19)
H20 H 0.2037 0.4610 0.8413
H21 H -0.0373 0.4883 0.8260
N1 N 0.2553(3) 0.51957(10) 0.64591(15)
O1 O 0.4375(2) 0.48292(10) 0.71679(15)
H22 H 0.527(4) 0.4876(16) 0.676(2)
O2 O -0.2629(2) 0.50193(10) 0.59169(14)
H23 H -0.264(5) 0.4862(16) 0.5248(13)
loop_
_geom_bond_atom_site_label_1
_geom_bond_atom_site_label_2
_geom_bond_site_symmetry_1
_geom_bond_site_symmetry_2
C1 C2 1_555 1_555
C2 H1 1_555 1_555
C3 C2 1_555 1_555
H2 C3 1_555 1_555
H3 C3 1_555 1_555
C4 C3 1_555 1_555
H4 C4 1_555 1_555
H5 C4 1_555 1_555
C5 C4 1_555 1_555
H6 C5 1_555 1_555
H7 C5 1_555 1_555
C6 C5 1_555 1_555
H8 C6 1_555 1_555
H9 C6 1_555 1_555
C7 C6 1_555 1_555
H10 C7 1_555 1_555
H11 C7 1_555 1_555
C8 C7 1_555 1_555
H12 C8 1_555 1_555
H13 C8 1_555 1_555
C9 C8 1_555 1_555
H14 C9 1_555 1_555
H15 C9 1_555 1_555
C10 C9 1_555 1_555
H16 C10 1_555 1_555
H17 C10 1_555 1_555
C11 C10 1_555 1_555
H18 C11 1_555 1_555
H19 C11 1_555 1_555
C12 C1 1_555 1_555
H20 C12 1_555 1_555
H21 C12 1_555 1_555
N1 C1 1_555 1_555
O1 N1 1_555 1_555
H22 O1 1_555 1_555
O2 C2 1_555 1_555
H23 O2 1_555 1_555
C11 C12 1_555 1_555

#END
