
#######################################################################
#
#                 Cambridge Crystallographic Data Centre
#                                CCDC 
#
#######################################################################
#
# If this CIF has been generated from an entry in the Cambridge 
# Structural Database, then it will include bibliographic, chemical, 
# crystal, experimental, refinement or atomic coordinate data resulting 
# from the CCDC's data processing and validation procedures.
#
#######################################################################

data_EMIQOI05
_chemical_name_common            'fluoxetine nitrate racemate'
_chemical_formula_moiety         'C17 H19 F3 N1 O1 1+,N1 O3 1-'
_chemical_name_systematic        
'(rac)-N-methyl-3-phenyl-3-(4-(trifluoromethyl)phenoxy)propylammonium nitrate'
_chemical_properties_biological  'Fluoxetine is an antidepressant drug.'
_symmetry_cell_setting           monoclinic
_symmetry_space_group_name_H-M   'P 21/c'
_symmetry_Int_Tables_number      14
_space_group_name_Hall           '-P 2ybc'
loop_
_symmetry_equiv_pos_site_id
_symmetry_equiv_pos_as_xyz
1 x,y,z
2 -x,1/2+y,1/2-z
3 -x,-y,-z
4 x,1/2-y,1/2+z
_cell_length_a                   6.6410(2)
_cell_length_b                   25.3100(12)
_cell_length_c                   11.4710(6)
_cell_angle_alpha                90
_cell_angle_beta                 108.343(3)
_cell_angle_gamma                90
_cell_volume                     1830.12
_exptl_crystal_colour            colorless
_exptl_crystal_description       block
_cell_formula_units_Z            4
loop_
_atom_site_label
_atom_site_type_symbol
_atom_site_fract_x
_atom_site_fract_y
_atom_site_fract_z
O1 O 0.53783(14) 0.10802(4) 0.11670(9)
C1 C 0.5694(2) 0.07592(6) 0.31168(13)
H1 H 0.6968 0.0604 0.3124
C2 C 0.4995(2) 0.07087(6) 0.41217(13)
H2 H 0.5800 0.0519 0.4804
C3 C 0.1908(2) 0.12080(6) 0.30975(14)
H3 H 0.0627 0.1359 0.3088
C4 C 0.4505(2) 0.10398(5) 0.20962(12)
C5 C 0.4154(2) 0.13155(5) 0.00218(12)
H4 H 0.3518 0.1644 0.0193
C6 C 0.2589(2) 0.12573(6) 0.20825(14)
H5 H 0.1759 0.1437 0.1390
C7 C 0.3103(2) 0.09376(5) 0.41223(13)
N1 N 0.59681(19) 0.24220(5) -0.04052(13)
H6 H 0.5262 0.2427 -0.1206
H7 H 0.5016 0.2430 -0.0006
C8 C 0.2362(3) 0.08848(7) 0.52160(15)
C9 C 0.2413(2) 0.09563(5) -0.07263(13)
C10 C 0.5757(2) 0.14486(6) -0.06374(14)
H8 H 0.6652 0.1143 -0.0606
H9 H 0.4995 0.1519 -0.1494
C11 C 0.7160(2) 0.19187(6) -0.01107(15)
H10 H 0.7739 0.1881 0.0774
H11 H 0.8337 0.1927 -0.0441
C12 C 0.0735(3) 0.11735(7) -0.16467(14)
H12 H 0.0684 0.1536 -0.1780
C13 C 0.2454(3) 0.04166(7) -0.05421(18)
H13 H 0.3558 0.0264 0.0079
C14 C -0.0858(3) 0.08558(9) -0.23657(17)
H14 H -0.1979 0.1005 -0.2981
C15 C 0.7289(3) 0.29031(7) -0.0092(2)
H15 H 0.8009 0.2911 0.0777
H16 H 0.6402 0.3210 -0.0324
H17 H 0.8314 0.2901 -0.0524
C16 C -0.0801(4) 0.03194(10) -0.2179(2)
H18 H -0.1882 0.0106 -0.2662
C17 C 0.0850(4) 0.01024(8) -0.1281(2)
H19 H 0.0902 -0.0262 -0.1163
F1 F 0.0472(6) 0.1050(4) 0.5051(5)
F2 F 0.261(2) 0.0437(2) 0.5705(9)
F3 F 0.3431(15) 0.1248(3) 0.6069(7)
O2 O 0.2243(2) 0.25128(5) 0.04397(12)
O3 O 0.2055(2) 0.26136(6) 0.22780(14)
O4 O 0.5063(2) 0.25315(6) 0.19858(13)
N2 N 0.3101(2) 0.25589(5) 0.15679(14)
F4? F 0.1079(14) 0.0451(4) 0.5048(6)
F5? F 0.106(3) 0.1230(4) 0.5319(11)
F6? F 0.3763(5) 0.0870(9) 0.6238(3)
loop_
_geom_bond_atom_site_label_1
_geom_bond_atom_site_label_2
_geom_bond_site_symmetry_1
_geom_bond_site_symmetry_2
O1 C4 1_555 1_555
C1 H1 1_555 1_555
C2 C1 1_555 1_555
H2 C2 1_555 1_555
C3 H3 1_555 1_555
C4 C1 1_555 1_555
C5 O1 1_555 1_555
H4 C5 1_555 1_555
C6 C3 1_555 1_555
H5 C6 1_555 1_555
C7 C2 1_555 1_555
N1 H6 1_555 1_555
H7 N1 1_555 1_555
C8 C7 1_555 1_555
C9 C5 1_555 1_555
C10 C5 1_555 1_555
H8 C10 1_555 1_555
H9 C10 1_555 1_555
C11 N1 1_555 1_555
H10 C11 1_555 1_555
H11 C11 1_555 1_555
C12 C9 1_555 1_555
H12 C12 1_555 1_555
C13 C9 1_555 1_555
H13 C13 1_555 1_555
C14 C12 1_555 1_555
H14 C14 1_555 1_555
C15 N1 1_555 1_555
H15 C15 1_555 1_555
H16 C15 1_555 1_555
H17 C15 1_555 1_555
C16 C14 1_555 1_555
H18 C16 1_555 1_555
C17 C13 1_555 1_555
H19 C17 1_555 1_555
F1 C8 1_555 1_555
F2 C8 1_555 1_555
F3 C8 1_555 1_555
O2 N2 1_555 1_555
O3 N2 1_555 1_555
O4 N2 1_555 1_555
C3 C7 1_555 1_555
C4 C6 1_555 1_555
C10 C11 1_555 1_555
C16 C17 1_555 1_555

#END
