
#######################################################################
#
#                 Cambridge Crystallographic Data Centre
#                                CCDC 
#
#######################################################################
#
# If this CIF has been generated from an entry in the Cambridge 
# Structural Database, then it will include bibliographic, chemical, 
# crystal, experimental, refinement or atomic coordinate data resulting 
# from the CCDC's data processing and validation procedures.
#
#######################################################################

data_EMIQOI02
_chemical_name_common            'fluoxetine nitrate kryptoracemate'
_chemical_formula_moiety         'C17 H19 F3 N1 O1 1+,N1 O3 1-'
_chemical_name_systematic        
'(rac)-N-methyl-3-phenyl-3-(4-(trifluoromethyl)phenoxy)propylammonium nitrate'
_chemical_properties_biological  'Fluoxetine is an antidepressant drug.'
_symmetry_cell_setting           orthorhombic
_symmetry_space_group_name_H-M   'P c a 21'
_symmetry_Int_Tables_number      29
_space_group_name_Hall           'P 2c -2ac'
loop_
_symmetry_equiv_pos_site_id
_symmetry_equiv_pos_as_xyz
1 x,y,z
2 -x,-y,1/2+z
3 1/2-x,y,1/2+z
4 1/2+x,-y,z
_cell_length_a                   21.3390(2)
_cell_length_b                   6.9100(5)
_cell_length_c                   25.3750(9)
_cell_angle_alpha                90
_cell_angle_beta                 90
_cell_angle_gamma                90
_cell_volume                     3741.61
_exptl_crystal_colour            colorless
_exptl_crystal_description       plate
_cell_formula_units_Z            8
loop_
_atom_site_label
_atom_site_type_symbol
_atom_site_fract_x
_atom_site_fract_y
_atom_site_fract_z
C1 C -0.3410(5) -0.9857(13) -0.0020(5)
O1 O -0.4392(3) -0.8037(9) -0.0136(3)
C2 C -0.5864(5) -1.1899(19) 0.0011(5)
C3 C -0.5889(6) -1.004(2) 0.0201(5)
H1 H -0.6254 -0.9608 0.0364
C4 C -0.3782(5) -0.5640(13) -0.0984(5)
H2 H -0.4235 -0.5658 -0.0954
H3 H -0.3646 -0.4301 -0.0992
N1 N -0.3590(3) -0.6617(10) -0.1478(3)
H4 H -0.3752 -0.7803 -0.1482
H5 H -0.3174 -0.6737 -0.1480
C5 C -0.4850(5) -0.9419(17) -0.0101(4)
C6 C -0.4815(5) -1.1283(15) -0.0297(4)
H6 H -0.4456 -1.1727 -0.0466
C7 C -0.3492(4) -0.6663(13) -0.0508(4)
H7 H -0.3052 -0.6895 -0.0579
H8 H -0.3518 -0.5811 -0.0206
C8 C -0.5327(5) -1.2453(15) -0.0233(4)
H9 H -0.5305 -1.3707 -0.0366
C9 C -0.5386(6) -0.8809(16) 0.0156(4)
H10 H -0.5407 -0.7569 0.0298
C10 C -0.2990(5) -1.1088(15) -0.0251(5)
H11 H -0.2962 -1.1138 -0.0617
C11 C -0.3804(4) -0.8578(13) -0.0372(4)
H12 H -0.3890 -0.9278 -0.0700
C12 C -0.3064(7) -1.095(2) 0.0806(6)
H13 H -0.3080 -1.0885 0.1172
C13 C -0.2607(6) -1.2257(17) 0.0050(7)
H14 H -0.2318 -1.3074 -0.0110
C14 C -0.2656(7) -1.220(2) 0.0576(7)
H15 H -0.2411 -1.3019 0.0783
C15 C -0.3453(6) -0.9788(18) 0.0518(6)
H16 H -0.3739 -0.8972 0.0683
C16 C -0.3785(6) -0.5590(17) -0.1965(5)
H17 H -0.3640 -0.6290 -0.2267
H18 H -0.3609 -0.4311 -0.1966
H19 H -0.4234 -0.5503 -0.1975
F1 F -0.6808(5) -1.2582(18) 0.0451(5)
F2 F -0.6266(9) -1.494(2) 0.0204(9)
F3 F -0.6779(7) -1.311(3) -0.0341(6)
C17 C -0.6388(5) -1.3223(19) 0.0061(5)
O2 O -0.3188(3) -0.7113(9) 0.2001(3)
C18 C -0.3781(4) -0.6637(13) 0.2241(4)
H20 H -0.3703 -0.6025 0.2583
C19 C -0.2725(5) -0.5744(16) 0.1981(4)
C20 C -0.2765(5) -0.3958(16) 0.2210(4)
H21 H -0.3123 -0.3614 0.2397
C21 C -0.2192(5) -0.6225(15) 0.1698(4)
H22 H -0.2164 -0.7431 0.1537
C22 C -0.4097(5) -0.8599(14) 0.2333(4)
H23 H -0.4529 -0.8367 0.2433
H24 H -0.4102 -0.9295 0.2001
C23 C -0.3804(5) -0.9879(13) 0.2742(5)
H25 H -0.3973 -1.1177 0.2709
H26 H -0.3355 -0.9946 0.2681
C24 C -0.2274(5) -0.2656(15) 0.2162(4)
H27 H -0.2306 -0.1437 0.2315
N2 N -0.3923(3) -0.9146(11) 0.3284(3)
H28 H -0.4331 -0.8907 0.3320
H29 H -0.3719 -0.8035 0.3328
C25 C -0.1743(5) -0.3143(17) 0.1895(4)
C26 C -0.4101(7) -0.5137(19) 0.1376(6)
H30 H -0.3797 -0.5873 0.1207
C27 C -0.1706(5) -0.4938(18) 0.1653(5)
H31 H -0.1351 -0.5270 0.1460
C28 C -0.4617(5) -0.4185(13) 0.2157(5)
H32 H -0.4669 -0.4272 0.2520
C29 C -0.4164(5) -0.5300(14) 0.1913(5)
C30 C -0.4473(7) -0.392(2) 0.1078(6)
H33 H -0.4427 -0.3837 0.0715
C31 C -0.4988(6) -0.2963(16) 0.1876(6)
H34 H -0.5289 -0.2220 0.2046
C32 C -0.3722(6) -1.0548(16) 0.3705(5)
H35 H -0.3930 -1.1765 0.3653
H36 H -0.3830 -1.0039 0.4045
H37 H -0.3276 -1.0735 0.3686
C33 C -0.4917(7) -0.283(2) 0.1343(7)
H38 H -0.5171 -0.1987 0.1154
C34 C -0.1228(5) -0.1832(17) 0.1838(5)
F7 F -0.1307(6) -0.0446(18) 0.1470(6)
F8 F -0.1114(13) -0.068(3) 0.2249(6)
F9 F -0.0681(7) -0.250(2) 0.1696(12)
O3 O -0.6077(4) -0.9203(9) 0.3446(3)
O4 O -0.5179(3) -0.7787(11) 0.3368(3)
N3 N -0.5499(5) -0.9274(17) 0.3375(4)
O5 O -0.5240(4) -1.0860(12) 0.3321(4)
O6 O -0.3523(4) -0.5181(10) 0.3493(4)
N4 N -0.2944(5) -0.5383(16) 0.3535(4)
O7 O -0.2594(4) -0.4079(12) 0.3668(4)
O8 O -0.2725(3) -0.7017(11) 0.3421(3)
F4? F -0.6392(18) -1.429(5) 0.0495(10)
F5? F -0.6947(11) -1.265(6) -0.0064(16)
F6? F -0.6320(9) -1.485(3) -0.0287(8)
F10? F -0.0924(10) -0.199(4) 0.1369(7)
F11? F -0.0756(5) -0.223(2) 0.2190(6)
F12? F -0.1367(8) 0.002(2) 0.1973(12)
loop_
_geom_bond_atom_site_label_1
_geom_bond_atom_site_label_2
_geom_bond_site_symmetry_1
_geom_bond_site_symmetry_2
C1 C10 1_555 1_555
O1 C5 1_555 1_555
C2 C3 1_555 1_555
C3 H1 1_555 1_555
C4 H2 1_555 1_555
H3 C4 1_555 1_555
N1 C4 1_555 1_555
H4 N1 1_555 1_555
H5 N1 1_555 1_555
C5 C6 1_555 1_555
C6 H6 1_555 1_555
C7 C4 1_555 1_555
H7 C7 1_555 1_555
H8 C7 1_555 1_555
C8 C2 1_555 1_555
H9 C8 1_555 1_555
C9 C3 1_555 1_555
H10 C9 1_555 1_555
C10 H11 1_555 1_555
C11 C1 1_555 1_555
H12 C11 1_555 1_555
C12 H13 1_555 1_555
C13 C10 1_555 1_555
H14 C13 1_555 1_555
C14 C12 1_555 1_555
H15 C14 1_555 1_555
C15 C1 1_555 1_555
H16 C15 1_555 1_555
C16 N1 1_555 1_555
H17 C16 1_555 1_555
H18 C16 1_555 1_555
H19 C16 1_555 1_555
F1 C17 1_555 1_555
F2 C17 1_555 1_555
F3 C17 1_555 1_555
C17 C2 1_555 1_555
O2 C18 1_555 1_555
C18 H20 1_555 1_555
C19 O2 1_555 1_555
C20 C19 1_555 1_555
H21 C20 1_555 1_555
C21 C19 1_555 1_555
H22 C21 1_555 1_555
C22 C18 1_555 1_555
H23 C22 1_555 1_555
H24 C22 1_555 1_555
C23 C22 1_555 1_555
H25 C23 1_555 1_555
H26 C23 1_555 1_555
C24 C20 1_555 1_555
H27 C24 1_555 1_555
N2 C23 1_555 1_555
H28 N2 1_555 1_555
H29 N2 1_555 1_555
C25 C24 1_555 1_555
C26 H30 1_555 1_555
C27 C21 1_555 1_555
H31 C27 1_555 1_555
C28 H32 1_555 1_555
C29 C18 1_555 1_555
C30 C26 1_555 1_555
H33 C30 1_555 1_555
C31 C28 1_555 1_555
H34 C31 1_555 1_555
C32 N2 1_555 1_555
H35 C32 1_555 1_555
H36 C32 1_555 1_555
H37 C32 1_555 1_555
C33 C30 1_555 1_555
H38 C33 1_555 1_555
C34 C25 1_555 1_555
F7 C34 1_555 1_555
F8 C34 1_555 1_555
F9 C34 1_555 1_555
O3 N3 1_555 1_555
O4 N3 1_555 1_555
N3 O5 1_555 1_555
O6 N4 1_555 1_555
N4 O7 1_555 1_555
O8 N4 1_555 1_555
O1 C11 1_555 1_555
C5 C9 1_555 1_555
C6 C8 1_555 1_555
C7 C11 1_555 1_555
C12 C15 1_555 1_555
C13 C14 1_555 1_555
C25 C27 1_555 1_555
C26 C29 1_555 1_555
C28 C29 1_555 1_555
C31 C33 1_555 1_555

#END
