
#######################################################################
#
#                 Cambridge Crystallographic Data Centre
#                                CCDC 
#
#######################################################################
#
# If this CIF has been generated from an entry in the Cambridge 
# Structural Database, then it will include bibliographic, chemical, 
# crystal, experimental, refinement or atomic coordinate data resulting 
# from the CCDC's data processing and validation procedures.
#
#######################################################################

data_EMIQOI03
_chemical_name_common            'fluoxetine nitrate kryptoracemate'
_chemical_formula_moiety         'C17 H19 F3 N1 O1 1+,N1 O3 1-'
_chemical_name_systematic        
'(rac)-N-methyl-3-phenyl-3-(4-(trifluoromethyl)phenoxy)propylammonium nitrate'
_chemical_properties_biological  'Fluoxetine is an antidepressant drug.'
_symmetry_cell_setting           orthorhombic
_symmetry_space_group_name_H-M   'P c a 21'
_symmetry_Int_Tables_number      29
_space_group_name_Hall           'P 2c -2ac'
loop_
_symmetry_equiv_pos_site_id
_symmetry_equiv_pos_as_xyz
1 x,y,z
2 -x,-y,1/2+z
3 1/2-x,y,1/2+z
4 1/2+x,-y,z
_cell_length_a                   21.1740(5)
_cell_length_b                   6.8422(2)
_cell_length_c                   24.9331(6)
_cell_angle_alpha                90
_cell_angle_beta                 90
_cell_angle_gamma                90
_cell_volume                     3612.23
_exptl_crystal_colour            colorless
_exptl_crystal_description       plate
_cell_formula_units_Z            8
_exptl_crystal_recrystallization_method methanol/water
loop_
_atom_site_label
_atom_site_type_symbol
_atom_site_fract_x
_atom_site_fract_y
_atom_site_fract_z
O1 O 0.43957(18) 0.2952(6) 0.46070(16)
C1 C 0.3407(2) 0.4840(8) 0.4699(3)
N1 N 0.3585(2) 0.1579(7) 0.3227(2)
H1 H 0.3159 0.1737 0.3223
H2 H 0.3764 0.2789 0.3227
C2 C 0.2983(3) 0.6043(9) 0.4447(3)
H3 H 0.2952 0.6028 0.4067
C3 C 0.4865(3) 0.4302(9) 0.4638(2)
C4 C 0.3455(3) 0.4854(10) 0.5260(3)
H4 H 0.3754 0.4048 0.5438
C5 C 0.3813(2) 0.3486(9) 0.4349(2)
H5 H 0.3914 0.4177 0.4006
C6 C 0.5919(3) 0.4884(9) 0.4955(3)
H6 H 0.6288 0.4447 0.5137
C7 C 0.5358(3) 0.7414(9) 0.4488(2)
H7 H 0.5344 0.8698 0.4344
C8 C 0.4840(3) 0.6187(9) 0.4437(3)
H8 H 0.4468 0.6640 0.4265
C9 C 0.5406(3) 0.3641(9) 0.4897(3)
H9 H 0.5424 0.2345 0.5033
C10 C 0.3768(3) 0.0547(9) 0.3734(2)
H10 H 0.4234 0.0519 0.3766
H11 H 0.3615 -0.0820 0.3722
C11 C 0.2638(4) 0.7287(11) 0.5293(3)
H12 H 0.2375 0.8133 0.5497
C12 C 0.5895(3) 0.6764(9) 0.4748(2)
C13 C 0.3485(3) 0.1584(9) 0.4218(2)
H13 H 0.3033 0.1849 0.4148
H14 H 0.3512 0.0707 0.4533
C14 C 0.3778(3) 0.0545(11) 0.2737(3)
H15 H 0.3634 0.1278 0.2422
H16 H 0.3590 -0.0763 0.2733
H17 H 0.4239 0.0432 0.2728
C15 C 0.3060(3) 0.6063(12) 0.5546(3)
H18 H 0.3079 0.6052 0.5927
C16 C 0.2600(3) 0.7270(10) 0.4740(3)
H19 H 0.2311 0.8108 0.4561
F1 F 0.6791(2) 0.8141(10) 0.4346(2)
F2 F 0.6316(2) 0.9814(7) 0.4973(3)
F3 F 0.6889(2) 0.7415(8) 0.5152(2)
C17 C 0.6461(3) 0.8063(11) 0.4796(3)
O2 O 0.31880(17) 1.2204(6) 0.66886(17)
C18 C 0.2724(3) 1.0827(9) 0.6672(2)
C19 C 0.3780(2) 1.1711(9) 0.6950(2)
H20 H 0.3689 1.1112 0.7308
C20 C 0.4175(3) 1.0304(9) 0.6620(3)
C21 C 0.1688(3) 1.0106(10) 0.6340(3)
H21 H 0.1323 1.0482 0.6143
C22 C 0.3814(3) 1.4959(9) 0.7457(2)
H22 H 0.3994 1.6292 0.7434
H23 H 0.3354 1.5052 0.7392
C23 C 0.2190(3) 1.1380(10) 0.6385(2)
H24 H 0.2171 1.2632 0.6221
C24 C 0.1711(3) 0.8292(10) 0.6578(3)
N2 N 0.3927(2) 1.4156(7) 0.8004(2)
H25 H 0.4345 1.3886 0.8043
H26 H 0.3710 1.3016 0.8041
C25 C 0.4111(3) 1.3682(9) 0.7032(3)
H27 H 0.4557 1.3436 0.7131
H28 H 0.4111 1.4401 0.6688
C26 C 0.4103(3) 1.0107(11) 0.6070(3)
H29 H 0.3791 1.0856 0.5889
C27 C 0.4634(3) 0.9215(9) 0.6872(3)
H30 H 0.4692 0.9340 0.7248
C28 C 0.2753(3) 0.9001(9) 0.6906(3)
H31 H 0.3118 0.8619 0.7101
C29 C 0.2245(3) 0.7721(10) 0.6856(3)
H32 H 0.2266 0.6456 0.7012
C30 C 0.3728(3) 1.5532(11) 0.8436(3)
H33 H 0.3960 1.6764 0.8398
H34 H 0.3819 1.4953 0.8787
H35 H 0.3274 1.5785 0.8406
C31 C 0.5010(3) 0.7950(10) 0.6588(3)
H36 H 0.5324 0.7207 0.6769
C32 C 0.4936(3) 0.7749(11) 0.6037(3)
H37 H 0.5195 0.6877 0.5839
C33 C 0.4476(4) 0.8846(12) 0.5783(3)
H38 H 0.4418 0.8724 0.5407
F4 F 0.0811(3) 0.6924(13) 0.6963(2)
F5 F 0.1319(3) 0.5239(9) 0.6311(4)
C34 C 0.1174(3) 0.6895(11) 0.6535(3)
F6 F 0.0730(3) 0.7559(10) 0.6150(3)
O3 O 0.3906(2) 0.5773(7) 0.31622(18)
O4 O 0.4814(2) 0.7221(6) 0.30966(19)
N3 N 0.4493(2) 0.5697(8) 0.3089(2)
O5 O 0.4755(2) 0.4099(7) 0.3022(2)
O6 O 0.72720(19) -0.2006(6) 0.3118(2)
N4 N 0.7048(2) -0.0352(8) 0.3240(2)
O7 O 0.7404(2) 0.0976(7) 0.3382(2)
O8 O 0.6465(2) -0.0125(7) 0.3201(2)
F7? F 0.1278(8) 0.519(3) 0.6871(8)
F8? F 0.0649(8) 0.732(4) 0.6734(7)
F9? F 0.1074(9) 0.602(3) 0.6124(10)
loop_
_geom_bond_atom_site_label_1
_geom_bond_atom_site_label_2
_geom_bond_site_symmetry_1
_geom_bond_site_symmetry_2
O1 C3 1_555 1_555
C1 C2 1_555 1_555
N1 H1 1_555 1_555
H2 N1 1_555 1_555
C2 H3 1_555 1_555
C3 C8 1_555 1_555
C4 C1 1_555 1_555
H4 C4 1_555 1_555
C5 O1 1_555 1_555
H5 C5 1_555 1_555
C6 H6 1_555 1_555
C7 H7 1_555 1_555
C8 C7 1_555 1_555
H8 C8 1_555 1_555
C9 C3 1_555 1_555
H9 C9 1_555 1_555
C10 N1 1_555 1_555
H10 C10 1_555 1_555
H11 C10 1_555 1_555
C11 H12 1_555 1_555
C12 C6 1_555 1_555
C13 C5 1_555 1_555
H13 C13 1_555 1_555
H14 C13 1_555 1_555
C14 N1 1_555 1_555
H15 C14 1_555 1_555
H16 C14 1_555 1_555
H17 C14 1_555 1_555
C15 C4 1_555 1_555
H18 C15 1_555 1_555
C16 C2 1_555 1_555
H19 C16 1_555 1_555
F1 C17 1_555 1_555
F2 C17 1_555 1_555
F3 C17 1_555 1_555
C17 C12 1_555 1_555
O2 C18 1_555 1_555
C18 C23 1_555 1_555
C19 O2 1_555 1_555
H20 C19 1_555 1_555
C20 C19 1_555 1_555
C21 H21 1_555 1_555
C22 H22 1_555 1_555
H23 C22 1_555 1_555
C23 C21 1_555 1_555
H24 C23 1_555 1_555
C24 C21 1_555 1_555
N2 C22 1_555 1_555
H25 N2 1_555 1_555
H26 N2 1_555 1_555
C25 C19 1_555 1_555
H27 C25 1_555 1_555
H28 C25 1_555 1_555
C26 C20 1_555 1_555
H29 C26 1_555 1_555
C27 C20 1_555 1_555
H30 C27 1_555 1_555
C28 C18 1_555 1_555
H31 C28 1_555 1_555
C29 C24 1_555 1_555
H32 C29 1_555 1_555
C30 N2 1_555 1_555
H33 C30 1_555 1_555
H34 C30 1_555 1_555
H35 C30 1_555 1_555
C31 C27 1_555 1_555
H36 C31 1_555 1_555
C32 C31 1_555 1_555
H37 C32 1_555 1_555
C33 C26 1_555 1_555
H38 C33 1_555 1_555
F4 C34 1_555 1_555
F5 C34 1_555 1_555
C34 C24 1_555 1_555
F6 C34 1_555 1_555
O3 N3 1_555 1_555
O4 N3 1_555 1_555
N3 O5 1_555 1_555
O6 N4 1_555 1_555
N4 O7 1_555 1_555
O8 N4 1_555 1_555
C1 C5 1_555 1_555
C6 C9 1_555 1_555
C7 C12 1_555 1_555
C10 C13 1_555 1_555
C11 C15 1_555 1_555
C11 C16 1_555 1_555
C22 C25 1_555 1_555
C28 C29 1_555 1_555
C32 C33 1_555 1_555

#END
