
#######################################################################
#
#                 Cambridge Crystallographic Data Centre
#                                CCDC 
#
#######################################################################
#
# If this CIF has been generated from an entry in the Cambridge 
# Structural Database, then it will include bibliographic, chemical, 
# crystal, experimental, refinement or atomic coordinate data resulting 
# from the CCDC's data processing and validation procedures.
#
#######################################################################

data_EMIQOI01
_chemical_name_common            'fluoxetine nitrate kryptoracemate'
_chemical_formula_moiety         'C17 H19 F3 N1 O1 1+,N1 O3 1-'
_chemical_name_systematic        
'(rac)-N-methyl-3-phenyl-3-(4-(trifluoromethyl)phenoxy)propylammonium nitrate'
_chemical_properties_biological  'Fluoxetine is an antidepressant drug.'
_symmetry_cell_setting           orthorhombic
_symmetry_space_group_name_H-M   'P c a 21'
_symmetry_Int_Tables_number      29
_space_group_name_Hall           'P 2c -2ac'
loop_
_symmetry_equiv_pos_site_id
_symmetry_equiv_pos_as_xyz
1 x,y,z
2 -x,-y,1/2+z
3 1/2-x,y,1/2+z
4 1/2+x,-y,z
_cell_length_a                   21.1480(12)
_cell_length_b                   6.8544(5)
_cell_length_c                   24.8971(17)
_cell_angle_alpha                90
_cell_angle_beta                 90
_cell_angle_gamma                90
_cell_volume                     3609.01
_exptl_crystal_colour            colorless
_exptl_crystal_description       plate
_cell_formula_units_Z            8
loop_
_atom_site_label
_atom_site_type_symbol
_atom_site_fract_x
_atom_site_fract_y
_atom_site_fract_z
O1 O 0.4756(2) 0.4079(6) 0.4614(2)
O2 O 0.4813(2) 0.7216(6) 0.4538(2)
O3 O 0.39094(19) 0.5754(6) 0.44735(19)
N1 N 0.4496(2) 0.5683(7) 0.4546(2)
O4 O 0.43947(18) 0.2947(6) 0.30246(18)
N2 N 0.3585(2) 0.1554(7) 0.4407(2)
H1 H 0.3758 0.2770 0.4406
H2 H 0.3158 0.1695 0.4413
F1 F 0.6788(2) 0.8168(9) 0.3296(2)
F2 F 0.63189(19) 0.9835(6) 0.2670(3)
F3 F 0.6896(2) 0.7405(7) 0.2485(2)
C1 C 0.3783(3) 0.0541(10) 0.4899(3)
H3 H 0.3574 -0.0733 0.4918
H4 H 0.3665 0.1323 0.5213
H5 H 0.4243 0.0358 0.4894
C2 C 0.2985(3) 0.6033(9) 0.3191(3)
H6 H 0.2952 0.6016 0.3572
C3 C 0.2599(3) 0.7273(10) 0.2893(3)
H7 H 0.2306 0.8102 0.3070
C4 C 0.2643(3) 0.7297(11) 0.2341(3)
H8 H 0.2385 0.8152 0.2136
C5 C 0.3066(3) 0.6070(11) 0.2089(3)
H9 H 0.3087 0.6053 0.1708
C6 C 0.3456(3) 0.4872(10) 0.2382(3)
H10 H 0.3756 0.4068 0.2204
C7 C 0.3411(3) 0.4839(8) 0.2941(3)
C8 C 0.3816(2) 0.3489(9) 0.3288(2)
H11 H 0.3919 0.4167 0.3632
C9 C 0.3487(3) 0.1558(9) 0.3414(3)
H12 H 0.3032 0.1808 0.3482
H13 H 0.3519 0.0687 0.3098
C10 C 0.3768(3) 0.0541(9) 0.3898(2)
H14 H 0.3619 -0.0827 0.3909
H15 H 0.4235 0.0523 0.3865
C11 C 0.4865(2) 0.4275(8) 0.2996(3)
C12 C 0.5412(3) 0.3628(9) 0.2730(3)
H16 H 0.5431 0.2347 0.2585
C13 C 0.5918(3) 0.4866(9) 0.2681(3)
H17 H 0.6289 0.4419 0.2504
C14 C 0.5904(3) 0.6742(9) 0.2882(2)
C15 C 0.5363(3) 0.7382(9) 0.3145(3)
H18 H 0.5350 0.8662 0.3291
C16 C 0.4847(3) 0.6171(8) 0.3195(3)
H19 H 0.4475 0.6634 0.3367
C17 C 0.6466(3) 0.8063(10) 0.2837(3)
O5 O 0.22747(19) 0.2000(6) 0.4520(2)
O6 O 0.1463(2) 0.0099(7) 0.4436(2)
O7 O 0.2405(2) -0.0992(6) 0.4257(2)
N3 N 0.2050(2) 0.0347(8) 0.4401(2)
O8 O 0.31878(17) 0.2209(6) 0.09482(18)
N4 N 0.3922(2) 0.4152(7) -0.0373(2)
H20 H 0.4339 0.3861 -0.0412
H21 H 0.3699 0.3024 -0.0410
C18 C 0.4098(3) 0.0112(10) 0.1571(3)
H22 H 0.3787 0.0862 0.1753
C19 C 0.4478(4) -0.1158(11) 0.1859(3)
H23 H 0.4424 -0.1284 0.2236
C20 C 0.4935(3) -0.2240(10) 0.1599(3)
H24 H 0.5199 -0.3102 0.1796
C21 C 0.5005(3) -0.2061(9) 0.1048(3)
H25 H 0.5316 -0.2819 0.0868
C22 C 0.4631(3) -0.0798(8) 0.0759(3)
H26 H 0.4688 -0.0671 0.0383
C23 C 0.4168(3) 0.0296(9) 0.1021(3)
C24 C 0.3777(2) 0.1710(9) 0.0693(2)
H27 H 0.3686 0.1111 0.0335
C25 C 0.4113(3) 0.3670(8) 0.0606(3)
H28 H 0.4115 0.4394 0.0950
H29 H 0.4558 0.3414 0.0506
C26 C 0.3815(3) 0.4948(9) 0.0179(3)
H30 H 0.3355 0.5049 0.0246
H31 H 0.3997 0.6276 0.0202
C27 C 0.3730(3) 0.5532(10) -0.0807(3)
H32 H 0.3280 0.5842 -0.0770
H33 H 0.3806 0.4927 -0.1157
H34 H 0.3979 0.6733 -0.0778
C28 C 0.2722(3) 0.0835(9) 0.0966(3)
C29 C 0.2749(3) -0.0995(8) 0.0730(3)
H35 H 0.3113 -0.1381 0.0534
C30 C 0.2233(3) -0.2273(9) 0.0783(3)
H36 H 0.2249 -0.3536 0.0626
C31 C 0.1707(3) -0.1690(10) 0.1064(3)
C32 C 0.1676(3) 0.0104(9) 0.1301(3)
H37 H 0.1310 0.0481 0.1496
C33 C 0.2189(3) 0.1383(10) 0.1253(3)
H38 H 0.2173 0.2631 0.1418
C34 C 0.1155(3) -0.3054(11) 0.1111(3)
F4 F 0.0822(3) -0.3119(13) 0.0675(2)
F5 F 0.1315(3) -0.4777(9) 0.1293(5)
F6 F 0.0713(3) -0.2406(8) 0.1488(3)
F7? F 0.1286(11) -0.488(3) 0.0729(11)
F8? F 0.1132(15) -0.424(6) 0.1447(11)
F9? F 0.0666(13) -0.277(4) 0.089(2)
loop_
_geom_bond_atom_site_label_1
_geom_bond_atom_site_label_2
_geom_bond_site_symmetry_1
_geom_bond_site_symmetry_2
O1 N1 1_555 1_555
O2 N1 1_555 1_555
O3 N1 1_555 1_555
O4 C8 1_555 1_555
N2 H1 1_555 1_555
H2 N2 1_555 1_555
F1 C17 1_555 1_555
F2 C17 1_555 1_555
F3 C17 1_555 1_555
C1 N2 1_555 1_555
H3 C1 1_555 1_555
H4 C1 1_555 1_555
H5 C1 1_555 1_555
C2 H6 1_555 1_555
C3 C2 1_555 1_555
H7 C3 1_555 1_555
C4 C3 1_555 1_555
H8 C4 1_555 1_555
C5 C4 1_555 1_555
H9 C5 1_555 1_555
C6 C5 1_555 1_555
H10 C6 1_555 1_555
C7 C2 1_555 1_555
C8 C7 1_555 1_555
H11 C8 1_555 1_555
C9 C8 1_555 1_555
H12 C9 1_555 1_555
H13 C9 1_555 1_555
C10 N2 1_555 1_555
H14 C10 1_555 1_555
H15 C10 1_555 1_555
C11 O4 1_555 1_555
C12 C11 1_555 1_555
H16 C12 1_555 1_555
C13 C12 1_555 1_555
H17 C13 1_555 1_555
C14 C13 1_555 1_555
C15 C14 1_555 1_555
H18 C15 1_555 1_555
C16 C11 1_555 1_555
H19 C16 1_555 1_555
C17 C14 1_555 1_555
O5 N3 1_555 1_555
O6 N3 1_555 1_555
O7 N3 1_555 1_555
O8 C24 1_555 1_555
N4 H20 1_555 1_555
H21 N4 1_555 1_555
C18 H22 1_555 1_555
C19 C18 1_555 1_555
H23 C19 1_555 1_555
C20 C19 1_555 1_555
H24 C20 1_555 1_555
C21 C20 1_555 1_555
H25 C21 1_555 1_555
C22 C21 1_555 1_555
H26 C22 1_555 1_555
C23 C18 1_555 1_555
C24 C23 1_555 1_555
H27 C24 1_555 1_555
C25 C24 1_555 1_555
H28 C25 1_555 1_555
H29 C25 1_555 1_555
C26 N4 1_555 1_555
H30 C26 1_555 1_555
H31 C26 1_555 1_555
C27 N4 1_555 1_555
H32 C27 1_555 1_555
H33 C27 1_555 1_555
H34 C27 1_555 1_555
C28 O8 1_555 1_555
C29 C28 1_555 1_555
H35 C29 1_555 1_555
C30 C29 1_555 1_555
H36 C30 1_555 1_555
C31 C30 1_555 1_555
C32 C31 1_555 1_555
H37 C32 1_555 1_555
C33 C28 1_555 1_555
H38 C33 1_555 1_555
C34 C31 1_555 1_555
F4 C34 1_555 1_555
F5 C34 1_555 1_555
F6 C34 1_555 1_555
C6 C7 1_555 1_555
C9 C10 1_555 1_555
C15 C16 1_555 1_555
C22 C23 1_555 1_555
C25 C26 1_555 1_555
C32 C33 1_555 1_555

#END
