
#######################################################################
#
#                 Cambridge Crystallographic Data Centre
#                                CCDC 
#
#######################################################################
#
# If this CIF has been generated from an entry in the Cambridge 
# Structural Database, then it will include bibliographic, chemical, 
# crystal, experimental, refinement or atomic coordinate data resulting 
# from the CCDC's data processing and validation procedures.
#
#######################################################################

data_EMISUQ
_chemical_formula_moiety         'C22 H15 N7'
_chemical_name_systematic        
4'-(4-(2H-tetrazol-5-yl)phenyl)-2,2':6',2''-terpyridine
_symmetry_cell_setting           monoclinic
_symmetry_space_group_name_H-M   'P 21/c'
_symmetry_Int_Tables_number      14
_space_group_name_Hall           '-P 2ybc'
loop_
_symmetry_equiv_pos_site_id
_symmetry_equiv_pos_as_xyz
1 x,y,z
2 -x,1/2+y,1/2-z
3 -x,-y,-z
4 x,1/2-y,1/2+z
_cell_length_a                   10.937(6)
_cell_length_b                   7.216(4)
_cell_length_c                   22.837(11)
_cell_angle_alpha                90
_cell_angle_beta                 92.782(13)
_cell_angle_gamma                90
_cell_volume                     1800.2
_exptl_crystal_colour            yellow
_exptl_crystal_description       prism
_cell_formula_units_Z            4
loop_
_atom_site_label
_atom_site_type_symbol
_atom_site_fract_x
_atom_site_fract_y
_atom_site_fract_z
C1 C 0.6795(3) 0.3136(4) -0.18679(11)
H1 H 0.7546 0.3487 -0.2007
C2 C 0.5865(3) 0.2574(4) -0.22464(11)
H2 H 0.5970 0.2518 -0.2648
C3 C 0.4768(2) 0.2092(4) -0.20199(10)
H3 H 0.4132 0.1725 -0.2279
C4 C 0.6605(2) 0.3177(3) -0.12809(10)
H4 H 0.7232 0.3557 -0.1019
C5 C 0.5483(2) 0.2655(3) -0.10728(9)
C6 C 0.9363(2) 0.4853(4) 0.09178(12)
H5 H 1.0069 0.5235 0.0741
C7 C 0.9325(2) 0.4822(4) 0.15160(12)
H6 H 0.9996 0.5188 0.1754
C8 C 0.8272(2) 0.4240(4) 0.17505(11)
H7 H 0.8247 0.4213 0.2157
C9 C 0.8351(2) 0.4314(4) 0.05799(10)
H8 H 0.8366 0.4338 0.0173
C10 C 0.7316(2) 0.3739(3) 0.08468(9)
C11 C 0.52886(19) 0.2645(3) -0.04268(8)
C12 C 0.41953(19) 0.2121(3) -0.01883(8)
H9 H 0.3524 0.1800 -0.0433
C13 C 0.41097(19) 0.2078(3) 0.04213(8)
C14 C 0.51467(19) 0.2576(3) 0.07592(8)
H10 H 0.5135 0.2535 0.1166
C15 C 0.61945(19) 0.3132(3) 0.04956(8)
C16 C 0.2053(2) 0.0496(3) 0.03837(9)
H11 H 0.2165 0.0189 -0.0006
C17 C 0.0998(2) -0.0060(3) 0.06412(9)
H12 H 0.0417 -0.0751 0.0425
C18 C 0.07920(19) 0.0400(3) 0.12183(8)
C19 C 0.1684(2) 0.1400(3) 0.15351(9)
H13 H 0.1566 0.1711 0.1923
C20 C 0.2744(2) 0.1935(3) 0.12794(9)
H14 H 0.3332 0.2596 0.1501
C21 C 0.29570(19) 0.1510(3) 0.06958(8)
C22 C -0.0365(2) -0.0137(3) 0.14706(9)
N1 N 0.45608(18) 0.2121(3) -0.14392(7)
N2 N 0.72635(18) 0.3699(3) 0.14344(8)
N3 N 0.62717(16) 0.3161(2) -0.00911(7)
N4 N -0.05547(19) -0.0233(3) 0.20486(7)
N5 N -0.1700(2) -0.0774(3) 0.20880(8)
N6 N -0.21590(19) -0.0963(3) 0.15465(8)
N7 N -0.13666(17) -0.0587(3) 0.11428(7)
H15 H -0.3051(18) -0.132(4) 0.1454(12)
loop_
_geom_bond_atom_site_label_1
_geom_bond_atom_site_label_2
_geom_bond_site_symmetry_1
_geom_bond_site_symmetry_2
C1 H1 1_555 1_555
C2 C1 1_555 1_555
H2 C2 1_555 1_555
C3 C2 1_555 1_555
H3 C3 1_555 1_555
C4 C1 1_555 1_555
H4 C4 1_555 1_555
C5 C4 1_555 1_555
C6 H5 1_555 1_555
C7 C6 1_555 1_555
H6 C7 1_555 1_555
C8 C7 1_555 1_555
H7 C8 1_555 1_555
C9 C6 1_555 1_555
H8 C9 1_555 1_555
C10 C9 1_555 1_555
C11 C5 1_555 1_555
C12 C11 1_555 1_555
H9 C12 1_555 1_555
C13 C12 1_555 1_555
C14 C13 1_555 1_555
H10 C14 1_555 1_555
C15 C10 1_555 1_555
C16 H11 1_555 1_555
C17 C16 1_555 1_555
H12 C17 1_555 1_555
C18 C17 1_555 1_555
C19 C18 1_555 1_555
H13 C19 1_555 1_555
C20 C19 1_555 1_555
H14 C20 1_555 1_555
C21 C13 1_555 1_555
C22 C18 1_555 1_555
N1 C3 1_555 1_555
N2 C8 1_555 1_555
N3 C11 1_555 1_555
N4 C22 1_555 1_555
N5 N4 1_555 1_555
N6 N5 1_555 1_555
N7 C22 1_555 1_555
H15 N6 1_555 1_555
C5 N1 1_555 1_555
C10 N2 1_555 1_555
C14 C15 1_555 1_555
C15 N3 1_555 1_555
C16 C21 1_555 1_555
C20 C21 1_555 1_555
N6 N7 1_555 1_555

#END
