
#######################################################################
#
#                 Cambridge Crystallographic Data Centre
#                                CCDC 
#
#######################################################################
#
# If this CIF has been generated from an entry in the Cambridge 
# Structural Database, then it will include bibliographic, chemical, 
# crystal, experimental, refinement or atomic coordinate data resulting 
# from the CCDC's data processing and validation procedures.
#
#######################################################################

data_EMISEA
_chemical_formula_moiety         'C21 H20 N2 O5'
_chemical_name_systematic        
"1-benzyl 3-ethyl 1'-methyl-2'-oxo-1',2'-dihydro-1H-spiro[aziridine-2,3'-indole]-1,3-dicarboxylate"
_symmetry_cell_setting           triclinic
_symmetry_space_group_name_H-M   'P -1'
_symmetry_Int_Tables_number      2
_space_group_name_Hall           '-P 1'
loop_
_symmetry_equiv_pos_site_id
_symmetry_equiv_pos_as_xyz
1 x,y,z
2 -x,-y,-z
_cell_length_a                   8.4422(13)
_cell_length_b                   9.1367(14)
_cell_length_c                   12.950(2)
_cell_angle_alpha                98.373(2)
_cell_angle_beta                 97.607(2)
_cell_angle_gamma                101.428(2)
_cell_volume                     955.162
_exptl_crystal_colour            colorless
_exptl_crystal_description       block
_cell_formula_units_Z            2
loop_
_atom_site_label
_atom_site_type_symbol
_atom_site_fract_x
_atom_site_fract_y
_atom_site_fract_z
C1 C 0.5322(2) 0.8064(2) 0.28348(13)
C2 C 0.43187(19) 0.90755(18) 0.23674(12)
C3 C 0.4853(2) 1.05771(19) 0.30839(12)
C4 C 0.6022(2) 1.0421(2) 0.38950(13)
C5 C 0.6769(2) 1.1647(3) 0.47037(14)
H1 H 0.7530 1.1546 0.5262
C6 C 0.6332(3) 1.3012(3) 0.46407(18)
H2 H 0.6812 1.3842 0.5172
C7 C 0.5216(3) 1.3190(3) 0.38249(18)
H3 H 0.4970 1.4134 0.3799
C8 C 0.4451(2) 1.1954(2) 0.30335(15)
H4 H 0.3683 1.2059 0.2481
C9 C 0.7492(3) 0.8402(3) 0.44009(18)
H5 H 0.7354 0.7329 0.4179
H6 H 0.7328 0.8606 0.5123
H7 H 0.8579 0.8908 0.4344
C10 C 0.37260(19) 0.89357(17) 0.11980(11)
H8 H 0.3563 0.9887 0.0983
C11 C 0.41833(19) 0.78661(18) 0.03549(12)
C12 C 0.3256(3) 0.5615(2) -0.09348(15)
H9 H 0.4371 0.5473 -0.0865
H10 H 0.3036 0.6058 -0.1561
C13 C 0.2088(3) 0.4143(2) -0.10258(18)
H11 H 0.2451 0.3619 -0.0480
H12 H 0.2034 0.3539 -0.1706
H13 H 0.1022 0.4318 -0.0950
C14 C 0.13454(19) 0.90376(17) 0.21415(12)
C15 C -0.0792(2) 1.0143(2) 0.14745(15)
H14 H -0.1418 0.9652 0.1954
H15 H -0.1520 1.0049 0.0811
C16 C -0.0138(2) 1.17871(19) 0.19393(13)
C17 C 0.0777(3) 1.2736(2) 0.13911(15)
H16 H 0.0961 1.2349 0.0724
C18 C 0.1418(3) 1.4239(2) 0.18126(17)
H17 H 0.2049 1.4853 0.1437
C19 C 0.1131(3) 1.4833(2) 0.27811(17)
H18 H 0.1543 1.5856 0.3061
C20 C 0.0236(4) 1.3913(3) 0.3335(2)
H19 H 0.0042 1.4310 0.3998
C21 C -0.0385(3) 1.2391(3) 0.29180(18)
H20 H -0.0978 1.1773 0.3309
N1 N 0.63043(17) 0.8951(2) 0.37316(11)
N2 N 0.26153(15) 0.83599(14) 0.18765(10)
O1 O 0.52600(18) 0.67457(17) 0.24928(11)
O2 O 0.54389(16) 0.82020(15) 0.00147(11)
O3 O 0.30439(15) 0.66127(14) 0.00055(9)
O4 O 0.09900(16) 0.91823(16) 0.30113(9)
O5 O 0.05457(14) 0.93913(13) 0.12884(8)
loop_
_geom_bond_atom_site_label_1
_geom_bond_atom_site_label_2
_geom_bond_site_symmetry_1
_geom_bond_site_symmetry_2
C1 C2 1_555 1_555
C2 C3 1_555 1_555
C3 C4 1_555 1_555
C4 C5 1_555 1_555
C5 H1 1_555 1_555
C6 C5 1_555 1_555
H2 C6 1_555 1_555
C7 C6 1_555 1_555
H3 C7 1_555 1_555
C8 C3 1_555 1_555
H4 C8 1_555 1_555
C9 H5 1_555 1_555
H6 C9 1_555 1_555
H7 C9 1_555 1_555
C10 C2 1_555 1_555
H8 C10 1_555 1_555
C11 C10 1_555 1_555
C12 H9 1_555 1_555
H10 C12 1_555 1_555
C13 C12 1_555 1_555
H11 C13 1_555 1_555
H12 C13 1_555 1_555
H13 C13 1_555 1_555
C14 N2 1_555 1_555
C15 H14 1_555 1_555
H15 C15 1_555 1_555
C16 C15 1_555 1_555
C17 C16 1_555 1_555
H16 C17 1_555 1_555
C18 C17 1_555 1_555
H17 C18 1_555 1_555
C19 C18 1_555 1_555
H18 C19 1_555 1_555
C20 C19 1_555 1_555
H19 C20 1_555 1_555
C21 C16 1_555 1_555
H20 C21 1_555 1_555
N1 C1 1_555 1_555
N2 C2 1_555 1_555
O1 C1 1_555 1_555
O2 C11 1_555 1_555
O3 C11 1_555 1_555
O4 C14 1_555 1_555
O5 C14 1_555 1_555
C4 N1 1_555 1_555
C7 C8 1_555 1_555
C9 N1 1_555 1_555
C10 N2 1_555 1_555
C12 O3 1_555 1_555
C15 O5 1_555 1_555
C20 C21 1_555 1_555

#END
