
#######################################################################
#
#                 Cambridge Crystallographic Data Centre
#                                CCDC 
#
#######################################################################
#
# If this CIF has been generated from an entry in the Cambridge 
# Structural Database, then it will include bibliographic, chemical, 
# crystal, experimental, refinement or atomic coordinate data resulting 
# from the CCDC's data processing and validation procedures.
#
#######################################################################

data_EMISAW
_chemical_formula_moiety         'C21 H20 N2 O5'
_chemical_name_systematic        
'ethyl (((benzyloxy)carbonyl)amino)(1-methyl-2-oxo-1,2-dihydro-3H-indol-3-ylidene)acetate'
_symmetry_cell_setting           monoclinic
_symmetry_space_group_name_H-M   'P 21/c'
_symmetry_Int_Tables_number      14
_space_group_name_Hall           '-P 2ybc'
loop_
_symmetry_equiv_pos_site_id
_symmetry_equiv_pos_as_xyz
1 x,y,z
2 -x,1/2+y,1/2-z
3 -x,-y,-z
4 x,1/2-y,1/2+z
_cell_length_a                   13.9952(18)
_cell_length_b                   8.4878(11)
_cell_length_c                   16.603(2)
_cell_angle_alpha                90
_cell_angle_beta                 101.548(2)
_cell_angle_gamma                90
_cell_volume                     1932.32
_exptl_crystal_colour            colorless
_exptl_crystal_description       block
_cell_formula_units_Z            4
loop_
_atom_site_label
_atom_site_type_symbol
_atom_site_fract_x
_atom_site_fract_y
_atom_site_fract_z
C1 C 0.58507(14) 0.8482(2) 0.99689(12)
C2 C 0.52164(14) 0.7720(2) 1.03948(11)
C3 C 0.53995(17) 0.7817(3) 1.12442(13)
H1 H 0.4997 0.7302 1.1542
C4 C 0.61848(19) 0.8685(3) 1.16432(15)
H2 H 0.6302 0.8773 1.2213
C5 C 0.67967(18) 0.9420(3) 1.12119(15)
H3 H 0.7322 0.9997 1.1497
C6 C 0.66540(15) 0.9325(3) 1.03676(15)
H4 H 0.7079 0.9806 1.0078
C7 C 0.44579(13) 0.6990(2) 0.97710(11)
C8 C 0.47155(14) 0.7354(2) 0.89658(12)
C9 C 0.60236(18) 0.8857(3) 0.84942(15)
H5 H 0.6639 0.8331 0.8538
H6 H 0.6130 0.9969 0.8566
H7 H 0.5627 0.8659 0.7962
C10 C 0.36285(13) 0.6239(2) 0.98312(11)
C11 C 0.33386(14) 0.5991(2) 1.06460(11)
C12 C 0.2442(2) 0.7045(3) 1.15693(15)
H8 H 0.2166 0.6011 1.1624
H9 H 0.2987 0.7199 1.2025
C13 C 0.1711(3) 0.8247(5) 1.1580(2)
H10 H 0.1972 0.9257 1.1477
H11 H 0.1531 0.8258 1.2108
H12 H 0.1147 0.8025 1.1162
C14 C 0.21614(15) 0.4896(3) 0.91211(12)
C15 C 0.08414(17) 0.3699(3) 0.82217(14)
H13 H 0.0340 0.4335 0.8390
H14 H 0.0920 0.2737 0.8544
C16 C 0.05651(15) 0.3325(3) 0.73307(13)
C17 C 0.1197(2) 0.2511(3) 0.69467(15)
H15 H 0.1798 0.2197 0.7252
C18 C 0.0965(3) 0.2155(4) 0.61312(17)
H16 H 0.1414 0.1636 0.5881
C19 C 0.0083(3) 0.2556(4) 0.56869(18)
H17 H -0.0085 0.2290 0.5133
C20 C -0.0563(2) 0.3354(5) 0.6052(2)
H18 H -0.1172 0.3626 0.5746
C21 C -0.03181(18) 0.3760(4) 0.68738(17)
H19 H -0.0754 0.4330 0.7115
N1 N 0.55339(12) 0.8271(2) 0.91212(10)
N2 N 0.30070(11) 0.5703(2) 0.91354(9)
H20 H 0.3166 0.5893 0.8671
O1 O 0.42758(10) 0.69511(18) 0.82755(8)
O2 O 0.36275(14) 0.4958(2) 1.11043(10)
O3 O 0.27711(11) 0.71530(16) 1.07960(8)
O4 O 0.18361(13) 0.4558(2) 0.97035(9)
O5 O 0.17542(10) 0.45588(19) 0.83438(8)
loop_
_geom_bond_atom_site_label_1
_geom_bond_atom_site_label_2
_geom_bond_site_symmetry_1
_geom_bond_site_symmetry_2
C1 C2 1_555 1_555
C2 C3 1_555 1_555
C3 H1 1_555 1_555
C4 C3 1_555 1_555
H2 C4 1_555 1_555
C5 C4 1_555 1_555
H3 C5 1_555 1_555
C6 C1 1_555 1_555
H4 C6 1_555 1_555
C7 C2 1_555 1_555
C8 C7 1_555 1_555
C9 H5 1_555 1_555
H6 C9 1_555 1_555
H7 C9 1_555 1_555
C10 C7 1_555 1_555
C11 C10 1_555 1_555
C12 H8 1_555 1_555
H9 C12 1_555 1_555
C13 C12 1_555 1_555
H10 C13 1_555 1_555
H11 C13 1_555 1_555
H12 C13 1_555 1_555
C14 N2 1_555 1_555
C15 H13 1_555 1_555
H14 C15 1_555 1_555
C16 C15 1_555 1_555
C17 C16 1_555 1_555
H15 C17 1_555 1_555
C18 C17 1_555 1_555
H16 C18 1_555 1_555
C19 C18 1_555 1_555
H17 C19 1_555 1_555
C20 C19 1_555 1_555
H18 C20 1_555 1_555
C21 C16 1_555 1_555
H19 C21 1_555 1_555
N1 C1 1_555 1_555
N2 C10 1_555 1_555
H20 N2 1_555 1_555
O1 C8 1_555 1_555
O2 C11 1_555 1_555
O3 C11 1_555 1_555
O4 C14 1_555 1_555
O5 C14 1_555 1_555
C5 C6 1_555 1_555
C8 N1 1_555 1_555
C9 N1 1_555 1_555
C12 O3 1_555 1_555
C15 O5 1_555 1_555
C20 C21 1_555 1_555

#END
