
#######################################################################
#
#                 Cambridge Crystallographic Data Centre
#                                CCDC 
#
#######################################################################
#
# If this CIF has been generated from an entry in the Cambridge 
# Structural Database, then it will include bibliographic, chemical, 
# crystal, experimental, refinement or atomic coordinate data resulting 
# from the CCDC's data processing and validation procedures.
#
#######################################################################

data_EMISOJ01
_chemical_formula_moiety         'C12 H24 O6,H10 B2 N2'
_chemical_name_systematic        '18-crown-6 amino(boranylamino)borane'
_symmetry_cell_setting           orthorhombic
_symmetry_space_group_name_H-M   'P 21 21 21'
_symmetry_Int_Tables_number      19
_space_group_name_Hall           'P 2ac 2ab'
loop_
_symmetry_equiv_pos_site_id
_symmetry_equiv_pos_as_xyz
1 x,y,z
2 1/2-x,-y,1/2+z
3 -x,1/2+y,1/2-z
4 1/2+x,1/2-y,-z
_cell_length_a                   8.8717(1)
_cell_length_b                   11.6178(1)
_cell_length_c                   18.2118(2)
_cell_angle_alpha                90
_cell_angle_beta                 90
_cell_angle_gamma                90
_cell_volume                     1877.08
_exptl_crystal_colour            colorless
_exptl_crystal_description       chunk
_cell_formula_units_Z            4
loop_
_atom_site_label
_atom_site_type_symbol
_atom_site_fract_x
_atom_site_fract_y
_atom_site_fract_z
N1 N 0.14294(14) 0.47312(9) 0.94432(7)
H1 H 0.055(2) 0.4922(15) 0.9645(9)
H2 H 0.1376(19) 0.4942(14) 0.8993(10)
H3 H 0.214(2) 0.5253(16) 0.9666(10)
N2 N 0.33357(14) 0.31169(11) 0.92301(7)
H4 H 0.354(2) 0.2384(18) 0.9333(10)
H5 H 0.411(2) 0.3517(18) 0.9511(11)
B1 B 0.17594(19) 0.34018(13) 0.95673(10)
H6 H 0.0900(19) 0.2910(15) 0.9280(9)
H7 H 0.1791(19) 0.3229(14) 1.0176(9)
B2 B 0.3580(2) 0.33453(15) 0.83718(10)
H8 H 0.362(2) 0.4280(17) 0.8285(10)
H9 H 0.270(2) 0.298(2) 0.8088(12)
H10 H 0.463(3) 0.2961(19) 0.8238(11)
O1 O -0.19423(12) 0.52378(9) 0.89617(6)
O2 O 0.04617(13) 0.59696(9) 0.80376(6)
O3 O 0.29491(11) 0.70721(9) 0.86968(6)
O4 O 0.38410(12) 0.62438(9) 1.01243(6)
O5 O 0.13720(12) 0.56110(8) 1.10510(5)
O6 O -0.12698(11) 0.45930(8) 1.04530(6)
C1 C -0.1779(2) 0.49044(16) 0.82162(10)
H11 H -0.2781 0.4735 0.8002
H12 H -0.1156 0.42 0.8184
C2 C -0.1049(2) 0.58523(16) 0.78010(9)
H13 H -0.1074 0.568 0.7269
H14 H -0.1601 0.6581 0.7885
C3 C 0.1207(2) 0.69114(13) 0.77071(8)
H15 H 0.0737 0.7642 0.7868
H16 H 0.1121 0.6859 0.7166
C4 C 0.2811(2) 0.68908(14) 0.79244(8)
H17 H 0.3259 0.6139 0.7792
H18 H 0.3366 0.750 0.7657
C5 C 0.44652(18) 0.69233(14) 0.89279(10)
H19 H 0.5131 0.7459 0.8657
H20 H 0.4799 0.6127 0.8824
C6 C 0.45564(18) 0.71559(13) 0.97253(10)
H21 H 0.5626 0.7217 0.9876
H22 H 0.4053 0.7896 0.9838
C7 C 0.3787(2) 0.64701(15) 1.08859(9)
H23 H 0.3302 0.7225 1.0973
H24 H 0.4824 0.6502 1.1086
C8 C 0.2913(2) 0.55444(16) 1.12682(9)
H25 H 0.3328 0.478 1.1138
H26 H 0.2995 0.5643 1.1807
C9 C 0.0445(2) 0.48353(14) 1.14487(8)
H27 H 0.0509 0.5008 1.198
H28 H 0.0801 0.4037 1.1371
C10 C -0.1152(2) 0.49427(13) 1.11974(9)
H29 H -0.1811 0.4455 1.1507
H30 H -0.1489 0.5751 1.1247
C11 C -0.27452(18) 0.47239(15) 1.01570(12)
H31 H -0.3075 0.5534 1.0206
H32 H -0.3463 0.4232 1.0431
C12 C -0.27347(19) 0.43913(15) 0.93765(12)
H33 H -0.2239 0.3633 0.9319
H34 H -0.3782 0.4326 0.9194
loop_
_geom_bond_atom_site_label_1
_geom_bond_atom_site_label_2
_geom_bond_site_symmetry_1
_geom_bond_site_symmetry_2
N1 H1 1_555 1_555
H2 N1 1_555 1_555
H3 N1 1_555 1_555
N2 H4 1_555 1_555
H5 N2 1_555 1_555
B1 N1 1_555 1_555
H6 B1 1_555 1_555
H7 B1 1_555 1_555
B2 N2 1_555 1_555
H8 B2 1_555 1_555
H9 B2 1_555 1_555
H10 B2 1_555 1_555
O1 C1 1_555 1_555
O2 C2 1_555 1_555
O3 C4 1_555 1_555
O4 C6 1_555 1_555
O5 C8 1_555 1_555
O6 C10 1_555 1_555
C1 H11 1_555 1_555
H12 C1 1_555 1_555
C2 C1 1_555 1_555
H13 C2 1_555 1_555
H14 C2 1_555 1_555
C3 O2 1_555 1_555
H15 C3 1_555 1_555
H16 C3 1_555 1_555
C4 C3 1_555 1_555
H17 C4 1_555 1_555
H18 C4 1_555 1_555
C5 O3 1_555 1_555
H19 C5 1_555 1_555
H20 C5 1_555 1_555
C6 C5 1_555 1_555
H21 C6 1_555 1_555
H22 C6 1_555 1_555
C7 O4 1_555 1_555
H23 C7 1_555 1_555
H24 C7 1_555 1_555
C8 C7 1_555 1_555
H25 C8 1_555 1_555
H26 C8 1_555 1_555
C9 O5 1_555 1_555
H27 C9 1_555 1_555
H28 C9 1_555 1_555
C10 C9 1_555 1_555
H29 C10 1_555 1_555
H30 C10 1_555 1_555
C11 O6 1_555 1_555
H31 C11 1_555 1_555
H32 C11 1_555 1_555
C12 O1 1_555 1_555
H33 C12 1_555 1_555
H34 C12 1_555 1_555
N2 B1 1_555 1_555
C11 C12 1_555 1_555

#END
