
#######################################################################
#
#                 Cambridge Crystallographic Data Centre
#                                CCDC 
#
#######################################################################
#
# If this CIF has been generated from an entry in the Cambridge 
# Structural Database, then it will include bibliographic, chemical, 
# crystal, experimental, refinement or atomic coordinate data resulting 
# from the CCDC's data processing and validation procedures.
#
#######################################################################

data_EMITUR
_chemical_formula_moiety         'C33 H30 N2 O2 S2'
_chemical_name_systematic        
"O,O'-tetracyclo[7.7.1.0^2,7^.0^10,15^]heptadeca-2,4,6,10,12,14-hexaene-8,16-diyl bis((4-methylphenyl)carbamothioate)"
_symmetry_cell_setting           triclinic
_symmetry_space_group_name_H-M   'P -1'
_symmetry_Int_Tables_number      2
_space_group_name_Hall           '-P 1'
loop_
_symmetry_equiv_pos_site_id
_symmetry_equiv_pos_as_xyz
1 x,y,z
2 -x,-y,-z
_cell_length_a                   8.737(2)
_cell_length_b                   11.417(3)
_cell_length_c                   15.951(4)
_cell_angle_alpha                106.403(3)
_cell_angle_beta                 96.608(3)
_cell_angle_gamma                94.311(3)
_cell_volume                     1506.51
_exptl_crystal_colour            colorless
_exptl_crystal_description       block
_chemical_melting_point          '389-398 K'
_cell_formula_units_Z            2
_exptl_crystal_recrystallization_method 'dichloromethane/light petroleum'
loop_
_atom_site_label
_atom_site_type_symbol
_atom_site_fract_x
_atom_site_fract_y
_atom_site_fract_z
C1 C 0.56382(19) 0.05459(15) 0.35871(11)
C2 C 0.5585(2) 0.11448(16) 0.44776(11)
H1 H 0.465(2) 0.0898(18) 0.4740(14)
C3 C 0.6744(2) 0.20488(17) 0.49753(12)
H2 H 0.670(2) 0.2426(19) 0.5598(14)
C4 C 0.7995(2) 0.23711(18) 0.45910(12)
H3 H 0.877(3) 0.294(2) 0.4894(17)
C5 C 0.8080(2) 0.17783(17) 0.37168(12)
H4 H 0.893(3) 0.202(2) 0.3458(15)
C6 C 0.69111(19) 0.08742(15) 0.32076(11)
C7 C 0.7060(2) 0.01773(16) 0.22727(11)
H5 H 0.770(2) -0.046(2) 0.2269(14)
C8 C 0.5492(2) -0.03953(16) 0.17202(11)
H6 H 0.570(2) -0.0897(19) 0.1147(14)
C9 C 0.4787(2) -0.12327(16) 0.22098(12)
H7 H 0.552(2) -0.1801(19) 0.2350(14)
H8 H 0.393(3) -0.177(2) 0.1846(14)
C10 C 0.4317(2) -0.04137(15) 0.30560(11)
H9 H 0.397(2) -0.0898(18) 0.3441(13)
C11 C 0.29131(19) 0.01708(15) 0.27584(11)
H10 H 0.213(2) -0.0457(19) 0.2488(14)
C12 C 0.32697(19) 0.08848(15) 0.21253(11)
C13 C 0.44530(19) 0.05721(16) 0.16091(11)
C14 C 0.4696(2) 0.11969(17) 0.09917(11)
H11 H 0.558(3) 0.102(2) 0.0657(15)
C15 C 0.3817(2) 0.21171(18) 0.08908(12)
H12 H 0.400(3) 0.261(2) 0.0471(16)
C16 C 0.2646(2) 0.24198(18) 0.14082(12)
H13 H 0.195(3) 0.302(2) 0.1352(16)
C17 C 0.2371(2) 0.18047(17) 0.20175(11)
H14 H 0.157(2) 0.2025(19) 0.2364(14)
O1 O 0.78198(14) 0.10228(11) 0.18764(8)
C18 C 0.86199(19) 0.05593(17) 0.12145(11)
S1 S 0.92300(5) -0.08289(4) 0.09817(3)
N1 N 0.89034(17) 0.13406(15) 0.07511(10)
H15 H 0.934(3) 0.107(2) 0.0266(18)
C19 C 0.8490(2) 0.25419(19) 0.08644(14)
C20 C 0.8145(4) 0.2888(3) 0.01049(19)
H16 H 0.823(3) 0.227(2) -0.0464(18)
C21 C 0.7804(5) 0.4069(3) 0.0165(3)
H17 H 0.750(4) 0.432(3) -0.043(3)
C22 C 0.7833(5) 0.4931(3) 0.0975(3)
C23 C 0.8190(4) 0.4577(2) 0.1732(2)
H18 H 0.830(4) 0.519(3) 0.235(2)
C24 C 0.8531(3) 0.3397(2) 0.16863(16)
H19 H 0.880(3) 0.316(2) 0.2295(16)
C25 C 0.7459(8) 0.6234(4) 0.1051(4)
H20 H 0.6337 0.6230 0.0907
H21 H 0.7992 0.6552 0.0639
H22 H 0.7806 0.6760 0.1655
O2 O 0.23976(13) 0.10004(10) 0.35183(8)
C26 C 0.14725(18) 0.05087(15) 0.39777(11)
S2 S 0.04472(5) -0.08767(4) 0.36096(3)
N2 N 0.14449(17) 0.12653(13) 0.47826(10)
H23 H 0.084(3) 0.105(2) 0.5137(18)
C27 C 0.22959(19) 0.24405(15) 0.51988(11)
C28 C 0.2364(2) 0.33709(16) 0.48017(12)
H24 H 0.187(3) 0.320(2) 0.4212(19)
C29 C 0.3165(2) 0.45120(17) 0.52670(13)
H25 H 0.320(2) 0.519(2) 0.4985(14)
C30 C 0.3898(2) 0.47387(17) 0.61232(12)
C31 C 0.3824(2) 0.37938(18) 0.65102(13)
H26 H 0.434(3) 0.393(2) 0.7123(17)
C32 C 0.3027(2) 0.26493(17) 0.60556(12)
H27 H 0.299(2) 0.1985(19) 0.6316(14)
C33 C 0.4755(3) 0.5984(2) 0.66235(16)
H28 H 0.471(3) 0.654(2) 0.6243(17)
H29 H 0.573(4) 0.593(2) 0.6844(18)
H30 H 0.429(3) 0.630(3) 0.712(2)
loop_
_geom_bond_atom_site_label_1
_geom_bond_atom_site_label_2
_geom_bond_site_symmetry_1
_geom_bond_site_symmetry_2
C1 C2 1_555 1_555
C2 H1 1_555 1_555
C3 C2 1_555 1_555
H2 C3 1_555 1_555
C4 C3 1_555 1_555
H3 C4 1_555 1_555
C5 C4 1_555 1_555
H4 C5 1_555 1_555
C6 C1 1_555 1_555
C7 C6 1_555 1_555
H5 C7 1_555 1_555
C8 C7 1_555 1_555
H6 C8 1_555 1_555
C9 C8 1_555 1_555
H7 C9 1_555 1_555
H8 C9 1_555 1_555
C10 C1 1_555 1_555
H9 C10 1_555 1_555
C11 C10 1_555 1_555
H10 C11 1_555 1_555
C12 C11 1_555 1_555
C13 C8 1_555 1_555
C14 C13 1_555 1_555
H11 C14 1_555 1_555
C15 C14 1_555 1_555
H12 C15 1_555 1_555
C16 C15 1_555 1_555
H13 C16 1_555 1_555
C17 C12 1_555 1_555
H14 C17 1_555 1_555
O1 C7 1_555 1_555
C18 O1 1_555 1_555
S1 C18 1_555 1_555
N1 C18 1_555 1_555
H15 N1 1_555 1_555
C19 N1 1_555 1_555
C20 C19 1_555 1_555
H16 C20 1_555 1_555
C21 C20 1_555 1_555
H17 C21 1_555 1_555
C22 C21 1_555 1_555
C23 C22 1_555 1_555
H18 C23 1_555 1_555
C24 C19 1_555 1_555
H19 C24 1_555 1_555
C25 C22 1_555 1_555
H20 C25 1_555 1_555
H21 C25 1_555 1_555
H22 C25 1_555 1_555
O2 C11 1_555 1_555
C26 O2 1_555 1_555
S2 C26 1_555 1_555
N2 C26 1_555 1_555
H23 N2 1_555 1_555
C27 N2 1_555 1_555
C28 C27 1_555 1_555
H24 C28 1_555 1_555
C29 C28 1_555 1_555
H25 C29 1_555 1_555
C30 C29 1_555 1_555
C31 C30 1_555 1_555
H26 C31 1_555 1_555
C32 C27 1_555 1_555
H27 C32 1_555 1_555
C33 C30 1_555 1_555
H28 C33 1_555 1_555
H29 C33 1_555 1_555
H30 C33 1_555 1_555
C5 C6 1_555 1_555
C9 C10 1_555 1_555
C12 C13 1_555 1_555
C16 C17 1_555 1_555
C23 C24 1_555 1_555
C31 C32 1_555 1_555

#END
