
#######################################################################
#
#                 Cambridge Crystallographic Data Centre
#                                CCDC 
#
#######################################################################
#
# If this CIF has been generated from an entry in the Cambridge 
# Structural Database, then it will include bibliographic, chemical, 
# crystal, experimental, refinement or atomic coordinate data resulting 
# from the CCDC's data processing and validation procedures.
#
#######################################################################

data_EMIVIH
_chemical_formula_moiety         'C21 H22 N2 O2 S2'
_chemical_name_systematic        
"O,O'-tetracyclo[7.7.1.0^2,7^.0^10,15^]heptadeca-2,4,6,10,12,14-hexaene-8,16-diyl bis(methylcarbamothioate)"
_symmetry_cell_setting           monoclinic
_symmetry_space_group_name_H-M   'P 21/c'
_symmetry_Int_Tables_number      14
_space_group_name_Hall           '-P 2ybc'
loop_
_symmetry_equiv_pos_site_id
_symmetry_equiv_pos_as_xyz
1 x,y,z
2 -x,1/2+y,1/2-z
3 -x,-y,-z
4 x,1/2-y,1/2+z
_cell_length_a                   12.246(2)
_cell_length_b                   20.733(4)
_cell_length_c                   23.948(4)
_cell_angle_alpha                90
_cell_angle_beta                 99.900(2)
_cell_angle_gamma                90
_cell_volume                     5989.77
_exptl_crystal_colour            colorless
_exptl_crystal_description       tablet
_chemical_melting_point          '485-491 K'
_cell_formula_units_Z            12
_exptl_crystal_recrystallization_method 'dichloromethane/light petroleum'
loop_
_atom_site_label
_atom_site_type_symbol
_atom_site_fract_x
_atom_site_fract_y
_atom_site_fract_z
C1 C 0.21009(12) 0.28787(8) 0.04159(6)
C2 C 0.19519(13) 0.33748(8) 0.07904(7)
H1 H 0.1944(17) 0.3806(10) 0.0680(9)
C3 C 0.17455(14) 0.32431(10) 0.13279(8)
H2 H 0.162(2) 0.3598(12) 0.1605(10)
C4 C 0.16743(14) 0.26064(10) 0.14977(8)
H3 H 0.151(2) 0.2537(11) 0.1852(10)
C5 C 0.18231(14) 0.21095(9) 0.11317(7)
H4 H 0.180(2) 0.1667(12) 0.1215(10)
C6 C 0.20527(12) 0.22385(8) 0.05902(7)
C7 C 0.21765(13) 0.16866(8) 0.01985(7)
H5 H 0.1447(17) 0.1496(9) 0.0045(9)
C8 C 0.26764(14) 0.18885(8) -0.03180(7)
H6 H 0.2635(19) 0.1526(11) -0.0584(10)
C9 C 0.19854(14) 0.24586(9) -0.05751(7)
H7 H 0.217(2) 0.2530(11) -0.0952(11)
H8 H 0.1215(19) 0.2359(10) -0.0624(9)
C10 C 0.22559(13) 0.30389(8) -0.01828(7)
H9 H 0.1739(18) 0.3401(10) -0.0315(9)
C11 C 0.34399(13) 0.32399(8) -0.02296(7)
H10 H 0.3436(17) 0.3393(10) -0.0599(9)
C12 C 0.42624(13) 0.26923(8) -0.01095(7)
C13 C 0.39012(13) 0.20546(8) -0.01722(7)
C14 C 0.46943(15) 0.15613(9) -0.00919(8)
H11 H 0.444(2) 0.1127(12) -0.0147(10)
C15 C 0.58155(15) 0.16985(10) 0.00587(8)
H12 H 0.634(2) 0.1360(12) 0.0121(10)
C16 C 0.61701(14) 0.23341(10) 0.01220(8)
H13 H 0.6942(19) 0.2433(10) 0.0237(9)
C17 C 0.53953(14) 0.28279(9) 0.00350(7)
H14 H 0.5622(18) 0.3279(11) 0.0072(9)
O1 O 0.28767(10) 0.12040(6) 0.05223(6)
C18 C 0.25099(15) 0.06016(8) 0.05726(8)
S1 S 0.12696(4) 0.03129(2) 0.02830(2)
N1 N 0.32781(16) 0.02596(8) 0.08977(9)
H15 H 0.390(3) 0.0438(15) 0.0986(13)
C19 C 0.3150(3) -0.04129(12) 0.10478(16)
H16 H 0.379(4) -0.055(2) 0.1353(19)
H17 H 0.305(3) -0.0638(17) 0.0718(15)
H18 H 0.242(3) -0.0465(16) 0.1242(14)
O2 O 0.38179(10) 0.37577(6) 0.01619(5)
C20 C 0.36016(13) 0.43720(8) -0.00028(8)
S2 S 0.31454(4) 0.46126(2) -0.06698(2)
N2 N 0.38437(14) 0.47637(7) 0.04339(8)
H19 H 0.409(2) 0.4613(12) 0.0738(11)
C21 C 0.37352(19) 0.54593(10) 0.03962(12)
H20 H 0.300(3) 0.5589(14) 0.0324(12)
H21 H 0.412(2) 0.5644(14) 0.0092(13)
H22 H 0.403(3) 0.5641(16) 0.0720(14)
C22 C 0.66511(13) 0.27633(8) 0.15818(6)
C23 C 0.75381(15) 0.31827(8) 0.15643(7)
H23 H 0.7384(19) 0.3643(11) 0.1509(9)
C24 C 0.86188(15) 0.29502(9) 0.16131(8)
H24 H 0.920(2) 0.3234(11) 0.1634(10)
C25 C 0.88187(15) 0.22945(10) 0.16642(8)
H25 H 0.955(2) 0.2143(11) 0.1713(10)
C26 C 0.79491(15) 0.18759(8) 0.16714(8)
H26 H 0.809(2) 0.1427(12) 0.1714(10)
C27 C 0.68636(13) 0.21043(8) 0.16371(6)
C28 C 0.59382(14) 0.16248(8) 0.16398(7)
H27 H 0.5690(18) 0.1459(10) 0.1262(10)
C29 C 0.49056(13) 0.19313(8) 0.18022(7)
H28 H 0.4293(19) 0.1595(11) 0.1756(9)
C30 C 0.46156(14) 0.24889(8) 0.13871(7)
H29 H 0.4622(19) 0.2335(11) 0.1007(10)
H30 H 0.390(2) 0.2644(11) 0.1414(10)
C31 C 0.54766(13) 0.30206(8) 0.15355(7)
H31 H 0.5339(18) 0.3361(10) 0.1258(9)
C32 C 0.52496(13) 0.33138(7) 0.20904(7)
H32 H 0.4502(18) 0.3549(10) 0.2011(9)
C33 C 0.51990(12) 0.28140(7) 0.25448(7)
C34 C 0.50528(12) 0.21614(7) 0.24127(7)
C35 C 0.50039(14) 0.17235(8) 0.28507(8)
H33 H 0.495(2) 0.1287(11) 0.2768(10)
C36 C 0.50862(15) 0.19306(9) 0.34099(8)
H34 H 0.507(2) 0.1616(12) 0.3691(10)
C37 C 0.52089(15) 0.25831(9) 0.35351(7)
H35 H 0.527(2) 0.2727(12) 0.3913(11)
C38 C 0.52667(14) 0.30183(8) 0.31037(7)
H36 H 0.5351(19) 0.3460(12) 0.3187(10)
O3 O 0.63380(11) 0.11077(5) 0.20353(5)
C39 C 0.64712(13) 0.05115(8) 0.18360(8)
S3 S 0.60207(5) 0.02547(2) 0.11738(2)
N3 N 0.70382(13) 0.01504(7) 0.22397(7)
H37 H 0.7278(19) 0.0311(11) 0.2540(8)
C40 C 0.7242(2) -0.05314(9) 0.21746(11)
H38 H 0.657(2) -0.0784(14) 0.2138(12)
H39 H 0.776(3) -0.0659(16) 0.2497(13)
H40 H 0.760(2) -0.0616(13) 0.1812(12)
O4 O 0.61094(10) 0.37704(5) 0.23130(5)
C41 C 0.59669(14) 0.43985(8) 0.21889(7)
S4 S 0.47965(4) 0.47518(2) 0.18790(2)
N4 N 0.69125(14) 0.47101(7) 0.23619(8)
H41 H 0.749(2) 0.4456(13) 0.2503(12)
C42 C 0.7045(2) 0.54026(10) 0.23147(13)
H42 H 0.670(2) 0.5526(14) 0.1935(13)
H43 H 0.658(2) 0.5569(14) 0.2620(12)
H44 H 0.784(3) 0.5504(16) 0.2429(14)
C43 C 0.87283(12) 0.27511(8) 0.40859(7)
C44 C 0.88288(14) 0.32031(8) 0.45235(8)
H45 H 0.8717(19) 0.3647(11) 0.4411(10)
C45 C 0.91379(14) 0.30183(9) 0.50861(8)
H46 H 0.922(2) 0.3363(12) 0.5393(11)
C46 C 0.93357(15) 0.23763(10) 0.52203(8)
H47 H 0.963(2) 0.2265(12) 0.5606(11)
C47 C 0.92324(14) 0.19222(9) 0.47924(8)
H48 H 0.935(2) 0.1470(13) 0.4905(11)
C48 C 0.89363(12) 0.21040(8) 0.42248(7)
C49 C 0.88095(13) 0.15878(7) 0.37718(7)
H49 H 0.8099(17) 0.1377(10) 0.3764(9)
C50 C 0.88419(13) 0.18577(7) 0.31814(7)
H50 H 0.8649(18) 0.1495(10) 0.2907(9)
C51 C 0.79699(13) 0.23920(8) 0.30909(7)
H51 H 0.7840(18) 0.2491(10) 0.2712(10)
H52 H 0.7257(18) 0.2254(10) 0.3185(9)
C52 C 0.83815(13) 0.29593(7) 0.34729(7)
H53 H 0.7795(18) 0.3294(10) 0.3457(9)
C53 C 0.93298(14) 0.32559(8) 0.32205(7)
H54 H 0.9006(16) 0.3445(9) 0.2853(8)
C54 C 1.02024(13) 0.27677(7) 0.31296(6)
C55 C 0.99761(13) 0.21102(7) 0.31106(7)
C56 C 1.08091(15) 0.16847(8) 0.30156(8)
H55 H 1.0658(19) 0.1235(11) 0.2996(10)
C57 C 1.18520(15) 0.19112(9) 0.29463(8)
H56 H 1.241(2) 0.1611(11) 0.2900(10)
C58 C 1.20638(14) 0.25689(9) 0.29595(7)
H57 H 1.274(2) 0.2708(11) 0.2882(10)
C59 C 1.12387(14) 0.29926(8) 0.30443(7)
H58 H 1.1383(19) 0.3457(11) 0.3051(10)
O5 O 0.96975(10) 0.11234(5) 0.39317(5)
C60 C 0.94932(13) 0.04925(8) 0.38564(7)
S5 S 0.82589(4) 0.01538(2) 0.36300(2)
N5 N 1.04254(13) 0.01642(7) 0.39934(8)
H59 H 1.099(2) 0.0373(12) 0.4112(11)
C61 C 1.05044(19) -0.05329(10) 0.39433(12)
H60 H 1.008(2) -0.0706(14) 0.4230(12)
H61 H 1.027(3) -0.0679(15) 0.3523(14)
H62 H 1.128(2) -0.0650(13) 0.4089(11)
O6 O 0.98513(11) 0.37582(5) 0.36023(5)
C62 C 1.00137(13) 0.43497(8) 0.34074(8)
S6 S 0.96500(4) 0.45974(2) 0.27340(2)
N6 N 1.05437(14) 0.47098(7) 0.38230(8)
H63 H 1.069(2) 0.4545(13) 0.4138(11)
C63 C 1.0812(2) 0.53849(9) 0.37601(12)
H64 H 1.014(3) 0.5623(15) 0.3692(13)
H65 H 1.111(3) 0.5453(16) 0.3438(15)
H66 H 1.131(3) 0.5488(14) 0.4114(13)
loop_
_geom_bond_atom_site_label_1
_geom_bond_atom_site_label_2
_geom_bond_site_symmetry_1
_geom_bond_site_symmetry_2
C1 C2 1_555 1_555
C2 H1 1_555 1_555
C3 C2 1_555 1_555
H2 C3 1_555 1_555
C4 C3 1_555 1_555
H3 C4 1_555 1_555
C5 C4 1_555 1_555
H4 C5 1_555 1_555
C6 C1 1_555 1_555
C7 C6 1_555 1_555
H5 C7 1_555 1_555
C8 C7 1_555 1_555
H6 C8 1_555 1_555
C9 C8 1_555 1_555
H7 C9 1_555 1_555
H8 C9 1_555 1_555
C10 C1 1_555 1_555
H9 C10 1_555 1_555
C11 C10 1_555 1_555
H10 C11 1_555 1_555
C12 C11 1_555 1_555
C13 C8 1_555 1_555
C14 C13 1_555 1_555
H11 C14 1_555 1_555
C15 C14 1_555 1_555
H12 C15 1_555 1_555
C16 C15 1_555 1_555
H13 C16 1_555 1_555
C17 C12 1_555 1_555
H14 C17 1_555 1_555
O1 C7 1_555 1_555
C18 O1 1_555 1_555
S1 C18 1_555 1_555
N1 C18 1_555 1_555
H15 N1 1_555 1_555
C19 N1 1_555 1_555
H16 C19 1_555 1_555
H17 C19 1_555 1_555
H18 C19 1_555 1_555
O2 C11 1_555 1_555
C20 O2 1_555 1_555
S2 C20 1_555 1_555
N2 C20 1_555 1_555
H19 N2 1_555 1_555
C21 N2 1_555 1_555
H20 C21 1_555 1_555
H21 C21 1_555 1_555
H22 C21 1_555 1_555
C22 C23 1_555 1_555
C23 H23 1_555 1_555
C24 C23 1_555 1_555
H24 C24 1_555 1_555
C25 C24 1_555 1_555
H25 C25 1_555 1_555
C26 C25 1_555 1_555
H26 C26 1_555 1_555
C27 C22 1_555 1_555
C28 C27 1_555 1_555
H27 C28 1_555 1_555
C29 C28 1_555 1_555
H28 C29 1_555 1_555
C30 C29 1_555 1_555
H29 C30 1_555 1_555
H30 C30 1_555 1_555
C31 C22 1_555 1_555
H31 C31 1_555 1_555
C32 C31 1_555 1_555
H32 C32 1_555 1_555
C33 C32 1_555 1_555
C34 C29 1_555 1_555
C35 C34 1_555 1_555
H33 C35 1_555 1_555
C36 C35 1_555 1_555
H34 C36 1_555 1_555
C37 C36 1_555 1_555
H35 C37 1_555 1_555
C38 C33 1_555 1_555
H36 C38 1_555 1_555
O3 C28 1_555 1_555
C39 O3 1_555 1_555
S3 C39 1_555 1_555
N3 C39 1_555 1_555
H37 N3 1_555 1_555
C40 N3 1_555 1_555
H38 C40 1_555 1_555
H39 C40 1_555 1_555
H40 C40 1_555 1_555
O4 C32 1_555 1_555
C41 O4 1_555 1_555
S4 C41 1_555 1_555
N4 C41 1_555 1_555
H41 N4 1_555 1_555
C42 N4 1_555 1_555
H42 C42 1_555 1_555
H43 C42 1_555 1_555
H44 C42 1_555 1_555
C43 C44 1_555 1_555
C44 H45 1_555 1_555
C45 C44 1_555 1_555
H46 C45 1_555 1_555
C46 C45 1_555 1_555
H47 C46 1_555 1_555
C47 C46 1_555 1_555
H48 C47 1_555 1_555
C48 C43 1_555 1_555
C49 C48 1_555 1_555
H49 C49 1_555 1_555
C50 C49 1_555 1_555
H50 C50 1_555 1_555
C51 C50 1_555 1_555
H51 C51 1_555 1_555
H52 C51 1_555 1_555
C52 C43 1_555 1_555
H53 C52 1_555 1_555
C53 C52 1_555 1_555
H54 C53 1_555 1_555
C54 C53 1_555 1_555
C55 C50 1_555 1_555
C56 C55 1_555 1_555
H55 C56 1_555 1_555
C57 C56 1_555 1_555
H56 C57 1_555 1_555
C58 C57 1_555 1_555
H57 C58 1_555 1_555
C59 C54 1_555 1_555
H58 C59 1_555 1_555
O5 C49 1_555 1_555
C60 O5 1_555 1_555
S5 C60 1_555 1_555
N5 C60 1_555 1_555
H59 N5 1_555 1_555
C61 N5 1_555 1_555
H60 C61 1_555 1_555
H61 C61 1_555 1_555
H62 C61 1_555 1_555
O6 C53 1_555 1_555
C62 O6 1_555 1_555
S6 C62 1_555 1_555
N6 C62 1_555 1_555
H63 N6 1_555 1_555
C63 N6 1_555 1_555
H64 C63 1_555 1_555
H65 C63 1_555 1_555
H66 C63 1_555 1_555
C5 C6 1_555 1_555
C9 C10 1_555 1_555
C12 C13 1_555 1_555
C16 C17 1_555 1_555
C26 C27 1_555 1_555
C30 C31 1_555 1_555
C33 C34 1_555 1_555
C37 C38 1_555 1_555
C47 C48 1_555 1_555
C51 C52 1_555 1_555
C54 C55 1_555 1_555
C58 C59 1_555 1_555

#END
