
#######################################################################
#
#                 Cambridge Crystallographic Data Centre
#                                CCDC 
#
#######################################################################
#
# If this CIF has been generated from an entry in the Cambridge 
# Structural Database, then it will include bibliographic, chemical, 
# crystal, experimental, refinement or atomic coordinate data resulting 
# from the CCDC's data processing and validation procedures.
#
#######################################################################

data_EMIVIF
_chemical_formula_moiety         'C21 H17 N3 O5'
_chemical_name_systematic        
2-Amino-3-ethoxycarbonyl-4-(3-nitrophenyl)-4H-pyrano(3,2-h)quinoline
_symmetry_cell_setting           triclinic
_symmetry_space_group_name_H-M   'P -1'
_symmetry_Int_Tables_number      2
_space_group_name_Hall           '-P 1'
loop_
_symmetry_equiv_pos_site_id
_symmetry_equiv_pos_as_xyz
1 x,y,z
2 -x,-y,-z
_cell_length_a                   7.886(1)
_cell_length_b                   9.896(2)
_cell_length_c                   12.575(3)
_cell_angle_alpha                77.81(2)
_cell_angle_beta                 82.69(1)
_cell_angle_gamma                73.86(2)
_cell_volume                     918.959
_chemical_melting_point          '200-202 deg.C'
_cell_formula_units_Z            2
loop_
_atom_site_label
_atom_site_type_symbol
_atom_site_fract_x
_atom_site_fract_y
_atom_site_fract_z
O1 O 0.1438(2) 0.0313(1) 0.6216(1)
O2 O 0.6052(2) 0.2618(2) 0.5362(1)
O3 O 0.4626(2) 0.2511(2) 0.3959(1)
O4 O 0.5623(3) 0.5938(2) 0.8871(2)
O5 O 0.7572(3) 0.4258(2) 0.8218(2)
N1 N -0.0619(2) -0.1129(2) 0.7562(1)
N2 N 0.2037(2) 0.1182(2) 0.4476(1)
N3 N 0.6042(3) 0.4892(2) 0.8434(2)
C1 C -0.1619(3) -0.1857(2) 0.8243(2)
C2 C -0.1368(3) -0.2367(2) 0.9345(2)
C3 C -0.0017(3) -0.2111(2) 0.9769(2)
C4 C 0.1106(3) -0.1348(2) 0.9098(2)
C5 C 0.0742(2) -0.0872(2) 0.7990(2)
C6 C 0.1849(2) -0.0086(2) 0.7298(1)
C7 C 0.3183(2) 0.0262(2) 0.7676(1)
C8 C 0.3529(3) -0.0252(2) 0.8783(2)
C9 C 0.2545(3) -0.1035(2) 0.9472(2)
C10 C 0.2487(3) 0.1022(2) 0.5490(2)
C11 C 0.3788(2) 0.1499(2) 0.5786(1)
C12 C 0.4193(2) 0.1255(2) 0.6961(1)
C13 C 0.3768(2) 0.2641(2) 0.7408(1)
C14 C 0.5083(2) 0.3122(2) 0.7719(1)
C15 C 0.4627(3) 0.4372(2) 0.8134(2)
C16 C 0.2914(3) 0.5154(2) 0.8263(2)
C17 C 0.1603(3) 0.4686(2) 0.7944(2)
C18 C 0.2031(2) 0.3448(2) 0.7522(2)
C19 C 0.4808(3) 0.2234(2) 0.4941(2)
C20 C 0.7131(3) 0.3410(3) 0.4605(2)
C21 C 0.8222(3) 0.3888(3) 0.5256(2)
loop_
_geom_bond_atom_site_label_1
_geom_bond_atom_site_label_2
_geom_bond_site_symmetry_1
_geom_bond_site_symmetry_2
O1 C6 1_555 1_555
O2 C19 1_555 1_555
O3 C19 1_555 1_555
O4 N3 1_555 1_555
O5 N3 1_555 1_555
N1 C1 1_555 1_555
N2 C10 1_555 1_555
N3 C15 1_555 1_555
C1 C2 1_555 1_555
C2 C3 1_555 1_555
C3 C4 1_555 1_555
C4 C5 1_555 1_555
C5 N1 1_555 1_555
C6 C5 1_555 1_555
C7 C6 1_555 1_555
C8 C7 1_555 1_555
C9 C4 1_555 1_555
C10 O1 1_555 1_555
C11 C10 1_555 1_555
C12 C7 1_555 1_555
C13 C12 1_555 1_555
C14 C13 1_555 1_555
C15 C14 1_555 1_555
C16 C15 1_555 1_555
C17 C16 1_555 1_555
C18 C13 1_555 1_555
C19 C11 1_555 1_555
C20 O2 1_555 1_555
C21 C20 1_555 1_555
C8 C9 1_555 1_555
C11 C12 1_555 1_555
C17 C18 1_555 1_555

#END
