
#######################################################################
#
#                 Cambridge Crystallographic Data Centre
#                                CCDC 
#
#######################################################################
#
# If this CIF has been generated from an entry in the Cambridge 
# Structural Database, then it will include bibliographic, chemical, 
# crystal, experimental, refinement or atomic coordinate data resulting 
# from the CCDC's data processing and validation procedures.
#
#######################################################################

data_EMIVED
_chemical_formula_moiety         'C35 H22 F12 N2 O2 S2,0.25(C5 H12)'
_chemical_name_systematic        
"O,O'-tetracyclo[7.7.1.0^2,7^.0^10,15^]heptadeca-2,4,6,10,12,14-hexaene-8,16-diyl bis((3,5-bis(trifluoromethyl)phenyl)carbamothioate) n-pentane solvate"
_symmetry_cell_setting           monoclinic
_symmetry_space_group_name_H-M   'P 21/n'
_symmetry_Int_Tables_number      14
_space_group_name_Hall           '-P 2yn'
loop_
_symmetry_equiv_pos_site_id
_symmetry_equiv_pos_as_xyz
1 x,y,z
2 1/2-x,1/2+y,1/2-z
3 -x,-y,-z
4 1/2+x,1/2-y,1/2+z
_cell_length_a                   15.9043(18)
_cell_length_b                   13.0965(15)
_cell_length_c                   39.167(4)
_cell_angle_alpha                90
_cell_angle_beta                 94.944(2)
_cell_angle_gamma                90
_cell_volume                     8127.77
_exptl_crystal_colour            colorless
_exptl_crystal_description       plate
_chemical_melting_point          '393-400 K'
_cell_formula_units_Z            8
_exptl_crystal_recrystallization_method 'dichloromethane/light petroleum'
loop_
_atom_site_label
_atom_site_type_symbol
_atom_site_fract_x
_atom_site_fract_y
_atom_site_fract_z
C36 C 0.2425(4) 0.7646(5) 0.78834(17)
C37 C 0.2051(5) 0.8604(5) 0.7876(2)
H23 H 0.1912 0.8927 0.7661
C38 C 0.1878(6) 0.9095(6) 0.8170(2)
H24 H 0.1613 0.9745 0.8159
C39 C 0.2094(6) 0.8634(6) 0.8486(2)
H25 H 0.1977 0.8971 0.8692
C40 C 0.2476(5) 0.7694(6) 0.8500(2)
H26 H 0.2623 0.7381 0.8716
C41 C 0.2648(4) 0.7198(5) 0.82027(17)
C42 C 0.3161(4) 0.6218(5) 0.82167(16)
H27 H 0.3774 0.6397 0.8245
C43 C 0.2994(4) 0.5572(5) 0.78955(17)
H28 H 0.3381 0.4969 0.7911
C44 C 0.3232(5) 0.6270(5) 0.76021(18)
H29 H 0.3793 0.6580 0.7661
H30 H 0.3255 0.5869 0.7389
C45 C 0.2556(4) 0.7107(5) 0.75504(17)
H31 H 0.2737 0.7618 0.7382
C46 C 0.1772(4) 0.6554(5) 0.73957(18)
H32 H 0.1896 0.6267 0.7169
C47 C 0.1494(5) 0.5701(5) 0.76134(17)
C48 C 0.2089(4) 0.5201(5) 0.78391(17)
C49 C 0.1831(5) 0.4338(5) 0.80140(18)
H33 H 0.2231 0.3973 0.8161
C50 C 0.1000(6) 0.4011(6) 0.7975(2)
H34 H 0.0833 0.3431 0.8098
C51 C 0.0419(5) 0.4520(6) 0.7761(2)
H35 H -0.0152 0.4299 0.7738
C52 C 0.0667(5) 0.5366(5) 0.75770(18)
H36 H 0.0264 0.5713 0.7426
O3 O 0.2952(3) 0.5633(3) 0.85162(11)
C53 C 0.3546(5) 0.5097(5) 0.86929(17)
S3 S 0.45785(11) 0.51250(11) 0.86424(4)
N3 N 0.3240(4) 0.4528(5) 0.89369(15)
H37 H 0.3589 0.4359 0.9114
C54 C 0.2393(8) 0.4173(12) 0.8932(4)
C55 C 0.2289(11) 0.3091(13) 0.8987(5)
H38 H 0.2763 0.2651 0.9023
C56 C 0.1474(13) 0.2718(18) 0.8985(8)
C57 C 0.0807(13) 0.3527(15) 0.8965(6)
H39 H 0.0241 0.3289 0.8935
C58 C 0.0917(7) 0.4676(11) 0.8987(3)
C59 C 0.1711(5) 0.4900(7) 0.8906(2)
H40 H 0.1821 0.5571 0.8829
C60 C 0.1332(13) 0.1710(18) 0.9056(7)
F13 F 0.1871(12) 0.1259(13) 0.9275(7)
F14 F 0.0589(11) 0.1410(13) 0.9141(7)
F15 F 0.1435(17) 0.1179(16) 0.8781(7)
C61 C 0.0175(8) 0.5224(11) 0.8865(3)
F16 F -0.0318(5) 0.5471(10) 0.9101(3)
F17 F 0.0320(5) 0.6011(8) 0.8679(3)
F18 F -0.0357(5) 0.4697(9) 0.8658(3)
O4 O 0.1078(3) 0.7288(3) 0.73394(12)
C62 C 0.0968(5) 0.7773(5) 0.70386(18)
S4 S 0.14419(14) 0.75149(13) 0.66911(5)
N4 N 0.0403(4) 0.8529(4) 0.70534(16)
H41 H 0.031(5) 0.876(6) 0.6856(9)
C63 C 0.0021(4) 0.8965(6) 0.7332(2)
C64 C -0.0167(6) 0.8420(8) 0.7616(3)
H42 H -0.0037 0.7713 0.7635
C65 C -0.0547(7) 0.8913(10) 0.7875(3)
C66 C -0.0738(6) 0.9950(9) 0.7854(3)
H43 H -0.0967 1.0292 0.8039
C67 C -0.0587(5) 1.0465(6) 0.7562(2)
C68 C -0.0212(4) 0.9988(5) 0.73023(19)
H44 H -0.0111 1.0359 0.7101
C69 C -0.0701(10) 0.8361(12) 0.8182(4)
F19 F -0.0546(15) 0.7370(12) 0.8190(6)
F20 F -0.0233(13) 0.8732(17) 0.8457(5)
F21 F -0.1475(11) 0.8419(18) 0.8267(7)
C70 C -0.0840(6) 1.1564(7) 0.7530(3)
F22 F -0.0762(10) 1.2096(7) 0.7823(3)
F23 F -0.0434(8) 1.2092(8) 0.7314(3)
F24 F -0.1665(5) 1.1660(6) 0.7448(3)
C1 C 0.5470(4) 0.8994(5) 0.96399(16)
C2 C 0.6135(5) 0.8393(5) 0.97725(18)
H1 H 0.6021 0.7738 0.9862
C3 C 0.6970(5) 0.8726(6) 0.9778(2)
H2 H 0.7421 0.8307 0.9870
C4 C 0.7125(6) 0.9693(7) 0.9644(2)
H3 H 0.7689 0.9927 0.9637
C5 C 0.6463(5) 1.0301(6) 0.9523(2)
H4 H 0.6576 1.0968 0.9443
C6 C 0.5634(5) 0.9968(5) 0.95160(17)
C7 C 0.4918(5) 1.0659(5) 0.94048(18)
H5 H 0.4792 1.1095 0.9604
C8 C 0.4115(5) 1.0093(5) 0.92759(18)
H6 H 0.3649 1.0596 0.9223
C9 C 0.3907(5) 0.9419(5) 0.95770(18)
H7 H 0.3339 0.9114 0.9530
H8 H 0.3911 0.9832 0.9789
C10 C 0.4583(4) 0.8566(5) 0.96222(16)
H9 H 0.4506 0.8174 0.9836
C11 C 0.4411(5) 0.7868(5) 0.93129(16)
H10 H 0.3827 0.7590 0.9316
C12 C 0.4466(4) 0.8426(5) 0.89827(17)
C13 C 0.4244(5) 0.9467(5) 0.89577(17)
C14 C 0.4170(5) 0.9930(6) 0.86400(19)
H11 H 0.4000 1.0625 0.8622
C15 C 0.4336(5) 0.9407(6) 0.83468(19)
H12 H 0.4258 0.9733 0.8130
C16 C 0.4618(5) 0.8409(5) 0.83703(18)
H13 H 0.4774 0.8061 0.8173
C17 C 0.4669(5) 0.7921(5) 0.86855(18)
H14 H 0.4846 0.7229 0.8700
O1 O 0.5207(3) 1.1325(3) 0.91336(11)
C18 C 0.5029(4) 1.2320(5) 0.91376(17)
S1 S 0.44678(14) 1.29073(13) 0.94172(5)
N1 N 0.5378(4) 1.2833(4) 0.88887(14)
H15 H 0.530(4) 1.3466(18) 0.8895(17)
C19 C 0.5916(4) 1.2533(5) 0.86354(17)
C20 C 0.6333(4) 1.3316(6) 0.84825(19)
H16 H 0.6246 1.4002 0.8551
C21 C 0.6865(5) 1.3120(7) 0.8235(2)
C22 C 0.6973(5) 1.2114(7) 0.8129(2)
H17 H 0.7343 1.1967 0.7957
C23 C 0.6546(5) 1.1344(6) 0.8272(2)
C24 C 0.6012(5) 1.1542(5) 0.85284(19)
H18 H 0.5719 1.1001 0.8628
C25 C 0.7350(6) 1.3958(7) 0.8077(3)
F1 F 0.8145(4) 1.3963(5) 0.81953(19)
F2 F 0.7320(4) 1.3899(5) 0.77384(16)
F3 F 0.7047(4) 1.4880(4) 0.81418(15)
C26 C 0.6658(5) 1.0281(7) 0.8153(2)
F4 F 0.6045(5) 0.9963(5) 0.7927(2)
F5 F 0.7364(4) 1.0122(6) 0.8009(3)
F6 F 0.6635(6) 0.9593(5) 0.84068(19)
O2 O 0.4996(3) 0.7015(3) 0.93281(11)
C27 C 0.4847(5) 0.6202(5) 0.95213(17)
S2 S 0.39993(13) 0.60078(14) 0.97283(5)
N2 N 0.5483(4) 0.5513(4) 0.95302(16)
H19 H 0.530(5) 0.501(4) 0.9637(17)
C28 C 0.6214(5) 0.5438(5) 0.93553(18)
C29 C 0.6641(5) 0.4520(5) 0.9401(2)
H20 H 0.6430 0.4004 0.9541
C30 C 0.7378(5) 0.4351(6) 0.9243(2)
C31 C 0.7692(6) 0.5105(7) 0.9035(3)
H21 H 0.8192 0.4996 0.8924
C32 C 0.7249(6) 0.6019(6) 0.8997(2)
C33 C 0.6520(5) 0.6182(6) 0.9149(2)
H22 H 0.6223 0.6807 0.9112
C34 C 0.7848(5) 0.3380(7) 0.9288(3)
F7 F 0.7932(11) 0.2871(12) 0.8988(3)
F8 F 0.7510(9) 0.2703(10) 0.9486(5)
F9 F 0.8647(5) 0.3476(7) 0.9399(4)
C35 C 0.7536(7) 0.6820(8) 0.8767(3)
F10 F 0.7551(15) 0.7749(9) 0.8898(4)
F11 F 0.6971(9) 0.6971(13) 0.8491(4)
F12 F 0.8281(10) 0.6661(17) 0.8658(6)
F25? F 0.658(3) 1.026(3) 0.7815(4)
F26? F 0.7430(13) 1.005(2) 0.8271(10)
F27? F 0.611(2) 0.962(2) 0.8241(11)
F28? F 0.7365(11) 0.2581(12) 0.9259(6)
F29? F 0.8230(17) 0.3364(16) 0.9609(5)
F30? F 0.8422(15) 0.3185(18) 0.9071(7)
F31? F 0.804(2) 0.741(2) 0.8971(5)
F32? F 0.6979(15) 0.742(2) 0.8603(9)
F33? F 0.8043(15) 0.646(3) 0.8542(8)
H45? H 0.3553 0.4004 0.9009
H46? H 0.1779 0.5234 0.8695
C71? C 0.2399(9) 0.4671(13) 0.9111(4)
C72? C 0.2356(10) 0.4299(11) 0.9431(4)
H47? H 0.2855 0.4029 0.9548
C73? C 0.1588(11) 0.4291(12) 0.9604(4)
C74? C 0.0867(13) 0.4608(18) 0.9371(5)
H48? H 0.0352 0.4777 0.9463
C75? C 0.1540(9) 0.3885(11) 0.9931(4)
F34? F 0.1100(9) 0.4463(11) 1.0112(3)
F35? F 0.2286(6) 0.3724(8) 1.0102(3)
F36? F 0.1131(8) 0.3024(9) 0.9931(3)
F37? F -0.1288(18) 0.765(2) 0.8086(6)
F38? F -0.0057(14) 0.787(3) 0.8339(8)
F39? F -0.111(2) 0.881(2) 0.8415(7)
F40? F -0.0208(15) 1.207(2) 0.7687(8)
F41? F -0.092(2) 1.186(2) 0.7202(4)
F42? F -0.1492(17) 1.181(2) 0.7686(9)
loop_
_geom_bond_atom_site_label_1
_geom_bond_atom_site_label_2
_geom_bond_site_symmetry_1
_geom_bond_site_symmetry_2
C1 C2 1_555 1_555
C2 H1 1_555 1_555
C3 C2 1_555 1_555
H2 C3 1_555 1_555
C4 C3 1_555 1_555
H3 C4 1_555 1_555
C5 C4 1_555 1_555
H4 C5 1_555 1_555
C6 C1 1_555 1_555
C7 C6 1_555 1_555
H5 C7 1_555 1_555
C8 C7 1_555 1_555
H6 C8 1_555 1_555
C9 C8 1_555 1_555
H7 C9 1_555 1_555
H8 C9 1_555 1_555
C10 C1 1_555 1_555
H9 C10 1_555 1_555
C11 C10 1_555 1_555
H10 C11 1_555 1_555
C12 C11 1_555 1_555
C13 C8 1_555 1_555
C14 C13 1_555 1_555
H11 C14 1_555 1_555
C15 C14 1_555 1_555
H12 C15 1_555 1_555
C16 C15 1_555 1_555
H13 C16 1_555 1_555
C17 C12 1_555 1_555
H14 C17 1_555 1_555
O1 C7 1_555 1_555
C18 O1 1_555 1_555
S1 C18 1_555 1_555
N1 C18 1_555 1_555
H15 N1 1_555 1_555
C19 N1 1_555 1_555
C20 C19 1_555 1_555
H16 C20 1_555 1_555
C21 C20 1_555 1_555
C22 C21 1_555 1_555
H17 C22 1_555 1_555
C23 C22 1_555 1_555
C24 C19 1_555 1_555
H18 C24 1_555 1_555
C25 C21 1_555 1_555
F1 C25 1_555 1_555
F2 C25 1_555 1_555
F3 C25 1_555 1_555
C26 C23 1_555 1_555
F4 C26 1_555 1_555
F5 C26 1_555 1_555
F6 C26 1_555 1_555
O2 C11 1_555 1_555
C27 O2 1_555 1_555
S2 C27 1_555 1_555
N2 C27 1_555 1_555
H19 N2 1_555 1_555
C28 N2 1_555 1_555
C29 C28 1_555 1_555
H20 C29 1_555 1_555
C30 C29 1_555 1_555
C31 C30 1_555 1_555
H21 C31 1_555 1_555
C32 C31 1_555 1_555
C33 C28 1_555 1_555
H22 C33 1_555 1_555
C34 C30 1_555 1_555
F7 C34 1_555 1_555
F8 C34 1_555 1_555
F9 C34 1_555 1_555
C35 C32 1_555 1_555
F10 C35 1_555 1_555
F11 C35 1_555 1_555
F12 C35 1_555 1_555
C36 C37 1_555 1_555
C37 H23 1_555 1_555
C38 C37 1_555 1_555
H24 C38 1_555 1_555
C39 C38 1_555 1_555
H25 C39 1_555 1_555
C40 C39 1_555 1_555
H26 C40 1_555 1_555
C41 C36 1_555 1_555
C42 C41 1_555 1_555
H27 C42 1_555 1_555
C43 C42 1_555 1_555
H28 C43 1_555 1_555
C44 C43 1_555 1_555
H29 C44 1_555 1_555
H30 C44 1_555 1_555
C45 C36 1_555 1_555
H31 C45 1_555 1_555
C46 C45 1_555 1_555
H32 C46 1_555 1_555
C47 C46 1_555 1_555
C48 C43 1_555 1_555
C49 C48 1_555 1_555
H33 C49 1_555 1_555
C50 C49 1_555 1_555
H34 C50 1_555 1_555
C51 C50 1_555 1_555
H35 C51 1_555 1_555
C52 C47 1_555 1_555
H36 C52 1_555 1_555
O3 C42 1_555 1_555
C53 O3 1_555 1_555
S3 C53 1_555 1_555
N3 C53 1_555 1_555
H37 N3 1_555 1_555
C54 N3 1_555 1_555
C55 C54 1_555 1_555
H38 C55 1_555 1_555
C56 C55 1_555 1_555
C57 C56 1_555 1_555
H39 C57 1_555 1_555
C58 C57 1_555 1_555
C59 C54 1_555 1_555
H40 C59 1_555 1_555
C60 C56 1_555 1_555
F13 C60 1_555 1_555
F14 C60 1_555 1_555
F15 C60 1_555 1_555
C61 C58 1_555 1_555
F16 C61 1_555 1_555
F17 C61 1_555 1_555
F18 C61 1_555 1_555
O4 C46 1_555 1_555
C62 O4 1_555 1_555
S4 C62 1_555 1_555
N4 C62 1_555 1_555
H41 N4 1_555 1_555
C63 N4 1_555 1_555
C64 C63 1_555 1_555
H42 C64 1_555 1_555
C65 C64 1_555 1_555
C66 C65 1_555 1_555
H43 C66 1_555 1_555
C67 C66 1_555 1_555
C68 C63 1_555 1_555
H44 C68 1_555 1_555
C69 C65 1_555 1_555
F19 C69 1_555 1_555
F20 C69 1_555 1_555
F21 C69 1_555 1_555
C70 C67 1_555 1_555
F22 C70 1_555 1_555
F23 C70 1_555 1_555
F24 C70 1_555 1_555
C5 C6 1_555 1_555
C9 C10 1_555 1_555
C12 C13 1_555 1_555
C16 C17 1_555 1_555
C23 C24 1_555 1_555
C32 C33 1_555 1_555
C40 C41 1_555 1_555
C44 C45 1_555 1_555
C47 C48 1_555 1_555
C51 C52 1_555 1_555
C58 C59 1_555 1_555
C67 C68 1_555 1_555

#END
