
#######################################################################
#
#                 Cambridge Crystallographic Data Centre
#                                CCDC 
#
#######################################################################
#
# If this CIF has been generated from an entry in the Cambridge 
# Structural Database, then it will include bibliographic, chemical, 
# crystal, experimental, refinement or atomic coordinate data resulting 
# from the CCDC's data processing and validation procedures.
#
#######################################################################

data_EMIYII
_chemical_formula_moiety         'C21 H19 N3'
_chemical_name_systematic        
1,2,3,10-Tetrahydro-10-methyl-N-phenylcyclopenta(1',2':5,6)pyrido(4,3-b)indol-5-amine
_symmetry_cell_setting           monoclinic
_symmetry_space_group_name_H-M   'C c'
_symmetry_Int_Tables_number      9
_space_group_name_Hall           'C -2yc'
loop_
_symmetry_equiv_pos_site_id
_symmetry_equiv_pos_as_xyz
1 x,y,z
2 x,-y,1/2+z
3 1/2+x,1/2+y,z
4 1/2+x,1/2-y,1/2+z
_cell_length_a                   29.208(2)
_cell_length_b                   7.1495(5)
_cell_length_c                   18.047(1)
_cell_angle_alpha                90
_cell_angle_beta                 123.722(1)
_cell_angle_gamma                90
_cell_volume                     3134.52
_exptl_crystal_colour            brown
_chemical_melting_point          '177-178 deg.C'
_cell_formula_units_Z            8
loop_
_atom_site_label
_atom_site_type_symbol
_atom_site_fract_x
_atom_site_fract_y
_atom_site_fract_z
N1 N 0.0793(2) 0.2818(6) 0.1779(2)
N2 N 0.1538(2) 0.1825(6) 0.4472(2)
N3 N 0.1680(2) 0.3174(7) 0.2066(3)
C1 C 0.1332(2) 0.2875(7) 0.2379(3)
C2 C 0.1562(2) 0.2589(7) 0.3264(3)
C3 C 0.2132(2) 0.2558(7) 0.4072(3)
C4 C 0.2648(2) 0.2993(8) 0.4231(3)
C5 C 0.3094(2) 0.2851(9) 0.5099(4)
C6 C 0.3050(2) 0.2307(9) 0.5785(3)
C7 C 0.2536(2) 0.1908(8) 0.5622(3)
C8 C 0.2086(2) 0.2091(7) 0.4760(3)
C9 C 0.1216(2) 0.2166(7) 0.3562(3)
C10 C 0.0648(2) 0.2165(7) 0.2954(3)
C11 C 0.0179(2) 0.1820(8) 0.3056(4)
C12 C -0.0343(2) 0.2230(8) 0.2082(4)
C13 C -0.0149(2) 0.2470(8) 0.1485(3)
C14 C 0.0480(2) 0.2502(7) 0.2092(3)
C15 C 0.1357(2) 0.1524(7) 0.5053(3)
C16 C 0.1583(2) 0.3255(7) 0.1237(3)
C17 C 0.1084(2) 0.3258(7) 0.0441(3)
C18 C 0.1049(2) 0.3370(9) -0.0363(3)
C19 C 0.1499(2) 0.3503(8) -0.0380(4)
C20 C 0.2007(2) 0.3547(8) 0.0401(3)
C21 C 0.2049(2) 0.3447(7) 0.1206(3)
H1 H 0.2024(2) 0.3339(7) 0.2491(3)
H2 H 0.2686(2) 0.3363(8) 0.3768(3)
H3 H 0.3445(2) 0.3139(9) 0.5226(4)
H4 H 0.3368(2) 0.2204(9) 0.6366(3)
H5 H 0.2497(2) 0.1527(8) 0.6083(3)
H6 H 0.0194(2) 0.2671(8) 0.3494(4)
H7 H 0.0179(2) 0.0526(8) 0.3235(4)
H8 H -0.0604(2) 0.1186(8) 0.1877(4)
H9 H -0.0530(2) 0.3368(8) 0.2084(4)
H10 H -0.0289(2) 0.3644(8) 0.1151(3)
H11 H -0.0275(2) 0.1431(8) 0.1061(3)
H12 H 0.1451(6) 0.2601(12) 0.5439(8)
H13 H 0.1535(6) 0.0419(15) 0.5412(8)
H14 H 0.0961(2) 0.1347(23) 0.4702(3)
H15 H 0.0760(2) 0.3185(7) 0.0432(3)
H16 H 0.0701(2) 0.3351(9) -0.0903(3)
H17 H 0.1466(2) 0.3567(8) -0.0928(4)
H18 H 0.2326(2) 0.3643(8) 0.0395(3)
H19 H 0.2398(2) 0.3511(7) 0.1742(3)
N4 N 0.4708(2) 0.2181(6) 0.1859(3)
N5 N 0.3945(2) 0.3179(6) -0.0860(3)
N6 N 0.3813(1) 0.1877(7) 0.1516(2)
C22 C 0.4161(2) 0.2164(7) 0.1264(3)
C23 C 0.3911(2) 0.2411(7) 0.0316(3)
C24 C 0.3362(2) 0.2415(8) -0.0440(3)
C25 C 0.2834(2) 0.2004(7) -0.0651(3)
C26 C 0.2370(2) 0.2124(9) -0.1515(3)
C27 C 0.2430(2) 0.2678(10) -0.2203(3)
C28 C 0.2934(2) 0.3077(8) -0.2053(3)
C29 C 0.3398(2) 0.2951(7) -0.1186(3)
C30 C 0.4260(2) 0.2823(7) 0.0035(3)
C31 C 0.4837(2) 0.2839(7) 0.0649(3)
C32 C 0.5311(2) 0.3198(8) 0.0562(3)
C33 C 0.5817(2) 0.2797(8) 0.1452(4)
C34 C 0.5637(2) 0.2510(8) 0.2125(3)
C35 C 0.5031(2) 0.2487(7) 0.1532(3)
C36 C 0.4144(2) 0.3489(8) -0.1444(3)
C37 C 0.3900(2) 0.1709(7) 0.2373(3)
C38 C 0.4430(2) 0.1748(8) 0.3179(3)
C39 C 0.4458(2) 0.1624(9) 0.3967(3)
C40 C 0.3986(2) 0.1486(9) 0.3989(3)
C41 C 0.3476(2) 0.1436(8) 0.3181(3)
C42 C 0.3437(2) 0.1565(9) 0.2398(3)
H20 H 0.3470(1) 0.1775(7) 0.1075(2)
H21 H 0.2792(2) 0.1633(7) -0.0192(3)
H22 H 0.2020(2) 0.1838(9) -0.1638(3)
H23 H 0.2115(2) 0.2778(10) -0.2786(3)
H24 H 0.2965(2) 0.3429(8) -0.2525(3)
H25 H 0.5289(2) 0.2378(8) 0.0109(3)
H26 H 0.5309(2) 0.4501(8) 0.0392(3)
H27 H 0.6076(2) 0.3843(8) 0.1646(4)
H28 H 0.5997(2) 0.1666(8) 0.1426(4)
H29 H 0.5778(2) 0.1327(8) 0.2450(3)
H30 H 0.5766(2) 0.3542(8) 0.2553(3)
H31 H 0.4222(7) 0.2293(9) -0.1606(10)
H32 H 0.4477(5) 0.4236(23) -0.1132(5)
H33 H 0.3864(4) 0.4140(23) -0.1979(6)
H34 H 0.4750(2) 0.1854(8) 0.3177(3)
H35 H 0.4806(2) 0.1632(9) 0.4508(3)
H36 H 0.4013(2) 0.1429(9) 0.4532(3)
H37 H 0.3154(2) 0.1312(8) 0.3177(3)
H38 H 0.3088(2) 0.1556(9) 0.1860(3)
loop_
_geom_bond_atom_site_label_1
_geom_bond_atom_site_label_2
_geom_bond_site_symmetry_1
_geom_bond_site_symmetry_2
N1 C1 1_555 1_555
N2 C8 1_555 1_555
N3 C1 1_555 1_555
C1 C2 1_555 1_555
C2 C3 1_555 1_555
C3 C4 1_555 1_555
C4 C5 1_555 1_555
C5 C6 1_555 1_555
C6 C7 1_555 1_555
C7 C8 1_555 1_555
C8 C3 1_555 1_555
C9 N2 1_555 1_555
C10 C9 1_555 1_555
C11 C10 1_555 1_555
C12 C11 1_555 1_555
C13 C12 1_555 1_555
C14 N1 1_555 1_555
C15 N2 1_555 1_555
C16 N3 1_555 1_555
C17 C16 1_555 1_555
C18 C17 1_555 1_555
C19 C18 1_555 1_555
C20 C19 1_555 1_555
C21 C16 1_555 1_555
N4 C22 1_555 1_555
N5 C29 1_555 1_555
N6 C22 1_555 1_555
C22 C23 1_555 1_555
C23 C24 1_555 1_555
C24 C25 1_555 1_555
C25 C26 1_555 1_555
C26 C27 1_555 1_555
C27 C28 1_555 1_555
C28 C29 1_555 1_555
C29 C24 1_555 1_555
C30 N5 1_555 1_555
C31 C30 1_555 1_555
C32 C31 1_555 1_555
C33 C32 1_555 1_555
C34 C33 1_555 1_555
C35 N4 1_555 1_555
C36 N5 1_555 1_555
C37 N6 1_555 1_555
C38 C37 1_555 1_555
C39 C38 1_555 1_555
C40 C39 1_555 1_555
C41 C40 1_555 1_555
C42 C37 1_555 1_555
H1 N3 1_555 1_555
H2 C4 1_555 1_555
H3 C5 1_555 1_555
H4 C6 1_555 1_555
H5 C7 1_555 1_555
H6 C11 1_555 1_555
H7 C11 1_555 1_555
H8 C12 1_555 1_555
H9 C12 1_555 1_555
H10 C13 1_555 1_555
H11 C13 1_555 1_555
H12 C15 1_555 1_555
H13 C15 1_555 1_555
H14 C15 1_555 1_555
H15 C17 1_555 1_555
H16 C18 1_555 1_555
H17 C19 1_555 1_555
H18 C20 1_555 1_555
H19 C21 1_555 1_555
H20 N6 1_555 1_555
H21 C25 1_555 1_555
H22 C26 1_555 1_555
H23 C27 1_555 1_555
H24 C28 1_555 1_555
H25 C32 1_555 1_555
H26 C32 1_555 1_555
H27 C33 1_555 1_555
H28 C33 1_555 1_555
H29 C34 1_555 1_555
H30 C34 1_555 1_555
H31 C36 1_555 1_555
H32 C36 1_555 1_555
H33 C36 1_555 1_555
H34 C38 1_555 1_555
H35 C39 1_555 1_555
H36 C40 1_555 1_555
H37 C41 1_555 1_555
H38 C42 1_555 1_555
C2 C9 1_555 1_555
C10 C14 1_555 1_555
C13 C14 1_555 1_555
C20 C21 1_555 1_555
C23 C30 1_555 1_555
C31 C35 1_555 1_555
C34 C35 1_555 1_555
C41 C42 1_555 1_555

#END
