
#######################################################################
#
#                 Cambridge Crystallographic Data Centre
#                                CCDC 
#
#######################################################################
#
# If this CIF has been generated from an entry in the Cambridge 
# Structural Database, then it will include bibliographic, chemical, 
# crystal, experimental, refinement or atomic coordinate data resulting 
# from the CCDC's data processing and validation procedures.
#
#######################################################################

data_EMIYEE
_chemical_formula_moiety         'C20 H16 N2 O1'
_chemical_name_systematic        
2,3-Dihydro-N-phenyl-1H-benzofuro(2,3-d)cyclopenta(b)pyridin-5-amine
_symmetry_cell_setting           monoclinic
_symmetry_space_group_name_H-M   'P 21/c'
_symmetry_Int_Tables_number      14
_space_group_name_Hall           '-P 2ybc'
loop_
_symmetry_equiv_pos_site_id
_symmetry_equiv_pos_as_xyz
1 x,y,z
2 -x,1/2+y,1/2-z
3 -x,-y,-z
4 x,1/2-y,1/2+z
_cell_length_a                   9.561(3)
_cell_length_b                   14.460(4)
_cell_length_c                   11.091(2)
_cell_angle_alpha                90
_cell_angle_beta                 103.98(2)
_cell_angle_gamma                90
_cell_volume                     1487.94
_exptl_crystal_colour            brown
_chemical_melting_point          '174-175 deg.C'
_cell_formula_units_Z            4
loop_
_atom_site_label
_atom_site_type_symbol
_atom_site_fract_x
_atom_site_fract_y
_atom_site_fract_z
O1 O 0.7991(3) 0.5281(2) 0.0303(2)
N1 N 0.4508(3) 0.6310(2) 0.1439(3)
N2 N 0.3824(4) 0.7093(3) -0.0469(4)
C1 C 0.5450(5) 0.5740(3) 0.2184(4)
C2 C 0.5329(5) 0.5466(3) 0.3453(4)
C3 C 0.6576(6) 0.4801(4) 0.3933(4)
C4 C 0.7436(5) 0.4715(3) 0.2944(4)
C5 C 0.6654(4) 0.5334(3) 0.1915(4)
C6 C 0.6868(4) 0.5591(3) 0.0767(4)
C7 C 0.5959(4) 0.6167(3) -0.0039(3)
C8 C 0.4753(4) 0.6523(3) 0.0322(4)
C9 C 0.6576(4) 0.6267(3) -0.1125(4)
C10 C 0.6256(5) 0.6743(3) -0.2227(4)
C11 C 0.7146(5) 0.6657(3) -0.3024(4)
C12 C 0.8337(5) 0.6087(3) -0.2739(4)
C13 C 0.8685(4) 0.5597(3) -0.1647(4)
C14 C 0.7769(4) 0.5707(3) -0.0871(4)
C15 C 0.2452(4) 0.7423(3) -0.0464(4)
C16 C 0.1854(5) 0.8070(4) -0.1346(4)
C17 C 0.0488(5) 0.8410(4) -0.1440(5)
C18 C -0.0277(5) 0.8103(4) -0.0636(5)
C19 C 0.0287(6) 0.7475(4) 0.0234(5)
C20 C 0.1645(5) 0.7116(3) 0.0328(4)
H1 H 0.4143(4) 0.7285(3) -0.1087(4)
H2 H 0.4414(5) 0.5164(3) 0.3415(4)
H3 H 0.5407(5) 0.6003(3) 0.3989(4)
H4 H 0.6209(6) 0.4200(4) 0.4096(4)
H5 H 0.7188(6) 0.5034(4) 0.4701(4)
H6 H 0.8422(5) 0.4920(3) 0.3264(4)
H7 H 0.7443(5) 0.4081(3) 0.2660(4)
H8 H 0.5445(5) 0.7121(3) -0.2432(4)
H9 H 0.6944(5) 0.6988(6) -0.3765(4)
H10 H 0.8917(5) 0.6033(3) -0.3299(4)
H11 H 0.9490(4) 0.5214(3) -0.1444(4)
H12 H 0.2385(5) 0.8283(4) -0.1891(4)
H13 H 0.0094(5) 0.8844(4) -0.2046(5)
H14 H -0.1200(5) 0.8330(4) -0.0690(5)
H15 H -0.0248(6) 0.7277(4) 0.0784(5)
H16 H 0.2013(5) 0.6670(3) 0.0924(4)
loop_
_geom_bond_atom_site_label_1
_geom_bond_atom_site_label_2
_geom_bond_site_symmetry_1
_geom_bond_site_symmetry_2
O1 C6 1_555 1_555
N1 C1 1_555 1_555
N2 C8 1_555 1_555
C1 C2 1_555 1_555
C2 C3 1_555 1_555
C3 C4 1_555 1_555
C4 C5 1_555 1_555
C5 C1 1_555 1_555
C6 C5 1_555 1_555
C7 C6 1_555 1_555
C8 N1 1_555 1_555
C9 C7 1_555 1_555
C10 C9 1_555 1_555
C11 C10 1_555 1_555
C12 C11 1_555 1_555
C13 C12 1_555 1_555
C14 O1 1_555 1_555
C15 N2 1_555 1_555
C16 C15 1_555 1_555
C17 C16 1_555 1_555
C18 C17 1_555 1_555
C19 C18 1_555 1_555
C20 C15 1_555 1_555
H1 N2 1_555 1_555
H2 C2 1_555 1_555
H3 C2 1_555 1_555
H4 C3 1_555 1_555
H5 C3 1_555 1_555
H6 C4 1_555 1_555
H7 C4 1_555 1_555
H8 C10 1_555 1_555
H9 C11 1_555 1_555
H10 C12 1_555 1_555
H11 C13 1_555 1_555
H12 C16 1_555 1_555
H13 C17 1_555 1_555
H14 C18 1_555 1_555
H15 C19 1_555 1_555
H16 C20 1_555 1_555
C7 C8 1_555 1_555
C9 C14 1_555 1_555
C13 C14 1_555 1_555
C19 C20 1_555 1_555

#END
