
#######################################################################
#
#                 Cambridge Crystallographic Data Centre
#                                CCDC 
#
#######################################################################
#
# If this CIF has been generated from an entry in the Cambridge 
# Structural Database, then it will include bibliographic, chemical, 
# crystal, experimental, refinement or atomic coordinate data resulting 
# from the CCDC's data processing and validation procedures.
#
#######################################################################

data_EMOFER
_chemical_name_common            4,4'-Oxo-bis(propham)
_chemical_formula_moiety         'C20 H24 N2 O5'
_chemical_name_systematic        
"4,4'-Oxo-bis(phenylcarbamic acid 1-methylethyl ester)"
_chemical_properties_biological  'propham is a herbicide'
_symmetry_cell_setting           triclinic
_symmetry_space_group_name_H-M   'P -1'
_symmetry_Int_Tables_number      2
_space_group_name_Hall           '-P 1'
loop_
_symmetry_equiv_pos_site_id
_symmetry_equiv_pos_as_xyz
1 x,y,z
2 -x,-y,-z
_cell_length_a                   8.5107(17)
_cell_length_b                   9.1164(18)
_cell_length_c                   14.5701(3)
_cell_angle_alpha                80.44(3)
_cell_angle_beta                 85.25(3)
_cell_angle_gamma                62.88(3)
_cell_volume                     992.155
_cell_formula_units_Z            2
loop_
_atom_site_label
_atom_site_type_symbol
_atom_site_fract_x
_atom_site_fract_y
_atom_site_fract_z
N1 N 1.4583(2) 0.2690(2) -0.2388(1)
N2 N 0.5243(2) 0.2444(2) 0.2375(1)
O1 O 0.7887(2) 0.3662(2) -0.1131(1)
O2 O 1.6176(2) -0.0141(1) -0.2120(1)
O3 O 1.7300(1) 0.1516(1) -0.2917(1)
O4 O 0.5853(2) 0.3976(2) 0.3244(1)
O5 O 0.4253(2) 0.2613(2) 0.3810(1)
C1 C 0.9596(2) 0.3400(2) -0.1354(1)
C2 C 0.9773(2) 0.4511(2) -0.2070(1)
C3 C 1.1428(2) 0.4239(2) -0.2410(1)
C4 C 1.2923(2) 0.2881(2) -0.2020(1)
C5 C 1.2735(2) 0.1796(2) -0.1283(1)
C6 C 1.1074(2) 0.2042(2) -0.0957(1)
C7 C 1.6025(2) 0.1232(2) -0.2446(1)
C8 C 1.8989(2) 0.0068(2) -0.3013(1)
C9 C 1.8888(3) -0.0810(3) -0.3767(2)
C10 C 2.0321(2) 0.0736(3) -0.3221(2)
C11 C 0.7407(2) 0.3265(2) -0.0227(1)
C12 C 0.6048(2) 0.2826(2) -0.0145(1)
C13 C 0.5343(2) 0.2581(2) 0.0720(1)
C14 C 0.6008(2) 0.2740(2) 0.1507(1)
C15 C 0.7399(2) 0.3150(2) 0.1418(1)
C16 C 0.8081(2) 0.3432(2) 0.0546(1)
C17 C 0.5174(2) 0.3099(2) 0.3140(1)
C18 C 0.3955(2) 0.3285(2) 0.4682(1)
C19 C 0.2538(4) 0.5031(3) 0.4566(2)
C20 C 0.3482(4) 0.2129(3) 0.5396(2)
loop_
_geom_bond_atom_site_label_1
_geom_bond_atom_site_label_2
_geom_bond_site_symmetry_1
_geom_bond_site_symmetry_2
N1 C4 1_555 1_555
N2 C14 1_555 1_555
O1 C1 1_555 1_555
O2 C7 1_555 1_555
O3 C7 1_555 1_555
O4 C17 1_555 1_555
O5 C17 1_555 1_555
C1 C2 1_555 1_555
C2 C3 1_555 1_555
C3 C4 1_555 1_555
C4 C5 1_555 1_555
C5 C6 1_555 1_555
C6 C1 1_555 1_555
C7 N1 1_555 1_555
C8 O3 1_555 1_555
C9 C8 1_555 1_555
C10 C8 1_555 1_555
C11 O1 1_555 1_555
C12 C11 1_555 1_555
C13 C12 1_555 1_555
C14 C13 1_555 1_555
C15 C14 1_555 1_555
C16 C11 1_555 1_555
C17 N2 1_555 1_555
C18 O5 1_555 1_555
C19 C18 1_555 1_555
C20 C18 1_555 1_555
C15 C16 1_555 1_555

#END
