
#######################################################################
#
#                 Cambridge Crystallographic Data Centre
#                                CCDC 
#
#######################################################################
#
# If this CIF has been generated from an entry in the Cambridge 
# Structural Database, then it will include bibliographic, chemical, 
# crystal, experimental, refinement or atomic coordinate data resulting 
# from the CCDC's data processing and validation procedures.
#
#######################################################################

data_EMOGUJ
_chemical_formula_moiety         'C6 H13 N2 O2 1-,C5 H15 N2 1+'
_chemical_name_systematic        
'3-(Dimethylamino)propan-1-aminium (3-(dimethylamino)propyl)carbamate'
_symmetry_cell_setting           triclinic
_symmetry_space_group_name_H-M   'P -1'
_symmetry_Int_Tables_number      2
_space_group_name_Hall           '-P 1'
loop_
_symmetry_equiv_pos_site_id
_symmetry_equiv_pos_as_xyz
1 x,y,z
2 -x,-y,-z
_cell_length_a                   6.3546(2)
_cell_length_b                   8.8071(4)
_cell_length_c                   14.9450(8)
_cell_angle_alpha                107.012(3)
_cell_angle_beta                 93.233(2)
_cell_angle_gamma                96.857(2)
_cell_volume                     790.404
_exptl_crystal_colour            colorless
_exptl_crystal_description       plate
_cell_formula_units_Z            2
loop_
_atom_site_label
_atom_site_type_symbol
_atom_site_fract_x
_atom_site_fract_y
_atom_site_fract_z
C1 C -0.3267(3) 0.6928(3) 0.9629(4)
O1 O -0.4922(1) 0.7143(1) 1.0055(2)
O2 O -0.1980(1) 0.8078(1) 0.9537(2)
N1 N -0.2820(2) 0.5399(2) 0.9318(3)
H1 H -0.334(3) 0.452(3) 0.942(4)
N2 N 0.1347(2) 0.3667(2) 0.7188(3)
C2 C -0.0942(3) 0.5065(3) 0.8826(4)
H2 H 0.0329 0.5496 0.9260
H3 H -0.0883 0.5575 0.8332
C3 C -0.1032(3) 0.3260(3) 0.8404(4)
H4 H -0.2274 0.2840 0.7951
H5 H -0.1159 0.2749 0.8896
C4 C 0.0989(3) 0.2875(3) 0.7916(4)
H6 H 0.2208 0.3208 0.8385
H7 H 0.0878 0.1723 0.7633
C5 C -0.0250(3) 0.2998(3) 0.6372(4)
H8 H -0.0100 0.3642 0.5955
H9 H -0.1651 0.2994 0.6581
H10 H -0.0043 0.1920 0.6047
C6 C 0.3473(3) 0.3505(3) 0.6889(4)
H11 H 0.4516 0.4074 0.7405
H12 H 0.3659 0.3944 0.6377
H13 H 0.3646 0.2391 0.6689
N3 N 0.4923(2) 0.7639(2) 0.6525(3)
N4 N 0.2320(2) 0.8865(2) 0.9369(3)
H14 H 0.1043 0.8403 0.9441
H15 H 0.2481 0.9906 0.9684
H16 H 0.3324 0.8410 0.9590
C7 C 0.2499(3) 0.8664(3) 0.8383(4)
H17 H 0.1365 0.9137 0.8151
H18 H 0.2264 0.7524 0.8050
C8 C 0.4594(3) 0.9381(3) 0.8138(4)
H19 H 0.4885 1.0509 0.8497
H20 H 0.5726 0.8855 0.8323
C9 C 0.4613(3) 0.9223(3) 0.7100(4)
H21 H 0.3274 0.9474 0.6876
H22 H 0.5743 1.0004 0.7022
C10 C 0.7088(3) 0.7353(3) 0.6756(4)
H23 H 0.8102 0.8076 0.6572
H24 H 0.7250 0.6267 0.6426
H25 H 0.7327 0.7528 0.7421
C11 C 0.4810(3) 0.7773(3) 0.5582(4)
H26 H 0.5470 0.8821 0.5597
H27 H 0.3348 0.7613 0.5334
H28 H 0.5543 0.6975 0.5190
loop_
_geom_bond_atom_site_label_1
_geom_bond_atom_site_label_2
_geom_bond_site_symmetry_1
_geom_bond_site_symmetry_2
C1 O1 1_555 1_555
O2 C1 1_555 1_555
N1 C1 1_555 1_555
H1 N1 1_555 1_555
N2 C4 1_555 1_555
C2 N1 1_555 1_555
H2 C2 1_555 1_555
H3 C2 1_555 1_555
C3 C2 1_555 1_555
H4 C3 1_555 1_555
H5 C3 1_555 1_555
C4 C3 1_555 1_555
H6 C4 1_555 1_555
H7 C4 1_555 1_555
C5 N2 1_555 1_555
H8 C5 1_555 1_555
H9 C5 1_555 1_555
H10 C5 1_555 1_555
C6 N2 1_555 1_555
H11 C6 1_555 1_555
H12 C6 1_555 1_555
H13 C6 1_555 1_555
N3 C9 1_555 1_555
N4 H14 1_555 1_555
H15 N4 1_555 1_555
H16 N4 1_555 1_555
C7 N4 1_555 1_555
H17 C7 1_555 1_555
H18 C7 1_555 1_555
C8 C7 1_555 1_555
H19 C8 1_555 1_555
H20 C8 1_555 1_555
C9 C8 1_555 1_555
H21 C9 1_555 1_555
H22 C9 1_555 1_555
C10 N3 1_555 1_555
H23 C10 1_555 1_555
H24 C10 1_555 1_555
H25 C10 1_555 1_555
C11 N3 1_555 1_555
H26 C11 1_555 1_555
H27 C11 1_555 1_555
H28 C11 1_555 1_555

#END
