
#######################################################################
#
#                 Cambridge Crystallographic Data Centre
#                                CCDC 
#
#######################################################################
#
# If this CIF has been generated from an entry in the Cambridge 
# Structural Database, then it will include bibliographic, chemical, 
# crystal, experimental, refinement or atomic coordinate data resulting 
# from the CCDC's data processing and validation procedures.
#
#######################################################################

data_EMOHEU
_chemical_formula_moiety         'C5 H12 N2 O2,0.5(H2 O1)'
_chemical_name_systematic        '(3-Ammoniopropyl)methylcarbamate hemihydrate'
_symmetry_cell_setting           monoclinic
_symmetry_space_group_name_H-M   'C 2/c'
_symmetry_Int_Tables_number      15
_space_group_name_Hall           '-C 2yn'
loop_
_symmetry_equiv_pos_site_id
_symmetry_equiv_pos_as_xyz
1 x,y,z
2 -x,y,1/2-z
3 1/2+x,1/2+y,z
4 1/2-x,1/2+y,1/2-z
5 -x,-y,-z
6 x,-y,1/2+z
7 1/2-x,1/2-y,-z
8 1/2+x,1/2-y,1/2+z
_cell_length_a                   19.8864(9)
_cell_length_b                   6.1244(2)
_cell_length_c                   12.9098(5)
_cell_angle_alpha                90
_cell_angle_beta                 109.970(2)
_cell_angle_gamma                90
_cell_volume                     1477.77
_exptl_crystal_colour            colorless
_exptl_crystal_description       polyhedral
_cell_formula_units_Z            8
loop_
_atom_site_label
_atom_site_type_symbol
_atom_site_fract_x
_atom_site_fract_y
_atom_site_fract_z
O1 O 0.09456(4) 0.17797(13) 0.00301(7)
O2 O 0.09620(5) 0.48691(13) -0.08753(7)
C1 C 0.11634(5) 0.29269(16) -0.06082(8)
N1 N 0.16490(5) 0.20324(14) -0.10239(8)
N2 N 0.05063(5) 0.24203(15) -0.45980(8)
H1 H 0.0005(9) 0.238(2) -0.4811(12)
H2 H 0.0665(8) 0.108(3) -0.4736(12)
H3 H 0.0652(8) 0.352(2) -0.5019(12)
C2 C 0.18641(8) -0.0222(2) -0.08256(14)
H4 H 0.1807(13) -0.076(4) -0.016(2)
H5 H 0.2362(13) -0.035(4) -0.0702(17)
H6 H 0.1670(13) -0.105(4) -0.144(2)
C3 C 0.19303(6) 0.3258(2) -0.17494(9)
H7 H 0.1845(8) 0.482(2) -0.1646(12)
H8 H 0.2460(8) 0.296(2) -0.1519(12)
C4 C 0.16028(6) 0.2625(2) -0.29605(10)
H9 H 0.1817(9) 0.360(3) -0.3407(14)
H10 H 0.1731(9) 0.115(3) -0.3070(13)
C5 C 0.08015(6) 0.2907(2) -0.34024(10)
H11 H 0.0586(10) 0.195(3) -0.3044(14)
H12 H 0.0662(8) 0.442(3) -0.3322(13)
O3 O 0.0000 0.7798(3) -0.2500
H13 H -0.0378(15) 0.699(5) -0.306(2)
H13A H 0.0378(15) 0.699(5) -0.194(2)
loop_
_geom_bond_atom_site_label_1
_geom_bond_atom_site_label_2
_geom_bond_site_symmetry_1
_geom_bond_site_symmetry_2
O1 C1 1_555 1_555
O2 C1 1_555 1_555
C1 N1 1_555 1_555
N1 C2 1_555 1_555
N2 H1 1_555 1_555
H2 N2 1_555 1_555
H3 N2 1_555 1_555
C2 H4 1_555 1_555
H5 C2 1_555 1_555
H6 C2 1_555 1_555
C3 N1 1_555 1_555
H7 C3 1_555 1_555
H8 C3 1_555 1_555
C4 C3 1_555 1_555
H9 C4 1_555 1_555
H10 C4 1_555 1_555
C5 N2 1_555 1_555
H11 C5 1_555 1_555
H12 C5 1_555 1_555
O3 H13 1_555 1_555
H13A O3 1_555 1_555
C4 C5 1_555 1_555

#END
