
#######################################################################
#
#                 Cambridge Crystallographic Data Centre
#                                CCDC 
#
#######################################################################
#
# If this CIF has been generated from an entry in the Cambridge 
# Structural Database, then it will include bibliographic, chemical, 
# crystal, experimental, refinement or atomic coordinate data resulting 
# from the CCDC's data processing and validation procedures.
#
#######################################################################

data_EMOHAQ
_chemical_formula_moiety         'C4 H10 N2 O2,H2 O1'
_chemical_name_systematic        '(2-(Methylammonio)ethyl)carbamate monohydrate'
_symmetry_cell_setting           orthorhombic
_symmetry_space_group_name_H-M   'P 21 21 21'
_symmetry_Int_Tables_number      19
_space_group_name_Hall           'P 2ac 2ab'
loop_
_symmetry_equiv_pos_site_id
_symmetry_equiv_pos_as_xyz
1 x,y,z
2 1/2-x,-y,1/2+z
3 1/2+x,1/2-y,-z
4 -x,1/2+y,1/2-z
_cell_length_a                   6.3610(3)
_cell_length_b                   8.1712(5)
_cell_length_c                   13.1265(8)
_cell_angle_alpha                90
_cell_angle_beta                 90
_cell_angle_gamma                90
_cell_volume                     682.276
_exptl_crystal_colour            colorless
_exptl_crystal_description       plate
_cell_formula_units_Z            4
loop_
_atom_site_label
_atom_site_type_symbol
_atom_site_fract_x
_atom_site_fract_y
_atom_site_fract_z
O1 O 0.20542(18) 0.80638(13) 0.58131(8)
O2 O 0.20310(18) 0.58207(14) 0.67823(8)
N1 N 0.85549(19) 0.50660(15) 0.57330(10)
H1 H 0.813(3) 0.584(2) 0.5334(15)
H2 H 0.972(3) 0.544(2) 0.6071(16)
C1 C 0.2967(2) 0.70196(17) 0.63724(10)
N2 N 0.50524(19) 0.72142(15) 0.65595(9)
H3 H 0.565(4) 0.802(3) 0.6302(15)
C2 C 0.6271(2) 0.60414(19) 0.71389(11)
H4 H 0.543(3) 0.564(2) 0.7669(15)
H5 H 0.745(3) 0.663(2) 0.7417(14)
C3 C 0.6940(2) 0.45871(18) 0.65021(11)
H6 H 0.574(3) 0.413(2) 0.6151(14)
H7 H 0.754(4) 0.373(3) 0.6928(16)
C4 C 0.9226(3) 0.3680(2) 0.50825(13)
H8 H 0.807(4) 0.339(3) 0.4614(17)
H9 H 0.939(5) 0.273(4) 0.547(2)
H10 H 1.044(3) 0.408(2) 0.4734(15)
O3 O -0.16359(18) 0.97463(14) 0.61960(9)
H11 H -0.168(3) 1.011(3) 0.6788(19)
H12 H -0.052(4) 0.914(3) 0.6182(18)
loop_
_geom_bond_atom_site_label_1
_geom_bond_atom_site_label_2
_geom_bond_site_symmetry_1
_geom_bond_site_symmetry_2
O1 C1 1_555 1_555
O2 C1 1_555 1_555
N1 H1 1_555 1_555
H2 N1 1_555 1_555
C1 N2 1_555 1_555
N2 H3 1_555 1_555
C2 N2 1_555 1_555
H4 C2 1_555 1_555
H5 C2 1_555 1_555
C3 N1 1_555 1_555
H6 C3 1_555 1_555
H7 C3 1_555 1_555
C4 N1 1_555 1_555
H8 C4 1_555 1_555
H9 C4 1_555 1_555
H10 C4 1_555 1_555
O3 H11 1_555 1_555
H12 O3 1_555 1_555
C2 C3 1_555 1_555

#END
