
#######################################################################
#
#                 Cambridge Crystallographic Data Centre
#                                CCDC 
#
#######################################################################
#
# If this CIF has been generated from an entry in the Cambridge 
# Structural Database, then it will include bibliographic, chemical, 
# crystal, experimental, refinement or atomic coordinate data resulting 
# from the CCDC's data processing and validation procedures.
#
#######################################################################

data_EMONIF
_chemical_formula_moiety         'C32 H32 N4 O2 S1'
_chemical_name_systematic        
3',6'-bis(ethylamino)-2',7'-dimethyl-2-(((3-methyl-2-thienyl)methylene)amino)spiro[isoindole-1,9'-xanthen]-3(2H)-one
_symmetry_cell_setting           triclinic
_symmetry_space_group_name_H-M   'P -1'
_symmetry_Int_Tables_number      2
_space_group_name_Hall           '-P 1'
loop_
_symmetry_equiv_pos_site_id
_symmetry_equiv_pos_as_xyz
1 x,y,z
2 -x,-y,-z
_cell_length_a                   10.024(2)
_cell_length_b                   11.487(3)
_cell_length_c                   12.961(3)
_cell_angle_alpha                84.748(5)
_cell_angle_beta                 68.343(4)
_cell_angle_gamma                88.943(5)
_cell_volume                     1381.04
_exptl_crystal_colour            colorless
_exptl_crystal_description       block
_cell_formula_units_Z            2
loop_
_atom_site_label
_atom_site_type_symbol
_atom_site_fract_x
_atom_site_fract_y
_atom_site_fract_z
S1 S 0.54800(18) 0.03781(15) 0.10855(13)
O1 O 0.1414(4) 0.4008(3) 0.4714(3)
C1 C 0.2002(5) 0.4374(4) 0.2715(4)
C2 C 0.0328(5) 0.2752(4) 0.3828(4)
C3 C 0.2833(5) 0.5043(4) 0.1756(4)
H1 H 0.2738 0.4908 0.1090
C4 C 0.0991(5) 0.3420(4) 0.2695(4)
C5 C 0.3100(5) 0.5462(4) 0.3711(4)
H2 H 0.3186 0.5601 0.4380
C6 C 0.2157(5) 0.4609(4) 0.3702(4)
C7 C -0.0145(5) 0.2516(4) 0.5807(4)
H3 H 0.0027 0.2768 0.6409
N1 N 0.1707(4) 0.2614(4) 0.1803(3)
C8 C 0.0512(5) 0.3082(4) 0.4759(4)
C9 C 0.3913(5) 0.6108(4) 0.2747(4)
C10 C -0.0583(5) 0.1788(4) 0.4011(4)
H4 H -0.0739 0.1541 0.3400
C11 C -0.1066(5) 0.1568(5) 0.5968(4)
C12 C -0.1267(5) 0.1177(4) 0.5032(4)
N2 N 0.4882(4) 0.6951(4) 0.2761(4)
H5 H 0.5399 0.7327 0.2140
N3 N 0.2908(5) 0.1953(4) 0.1651(4)
O2 O 0.1524(4) 0.2030(4) 0.0197(3)
C13 C 0.3801(5) 0.5904(4) 0.1729(4)
N4 N -0.1759(5) 0.0994(4) 0.7003(4)
H6 H -0.2281 0.0391 0.7051
C14 C -0.0158(5) 0.3907(4) 0.2267(4)
C15 C 0.4945(5) 0.1385(4) 0.2054(4)
C16 C -0.0071(5) 0.3418(5) 0.1312(4)
C17 C 0.3578(6) 0.2030(5) 0.2277(4)
H7 H 0.3233 0.2484 0.2878
C18 C 0.4683(6) 0.6603(5) 0.0651(4)
H8 H 0.4523 0.6298 0.0040
H9 H 0.5683 0.6549 0.0540
H10 H 0.4404 0.7407 0.0687
C19 C -0.2242(6) 0.0141(5) 0.5165(5)
H11 H -0.2313 0.0035 0.4461
H12 H -0.3178 0.0278 0.5700
H13 H -0.1854 -0.0549 0.5418
C20 C 0.1106(6) 0.2599(5) 0.0998(5)
C21 C -0.1170(6) 0.4740(5) 0.2708(5)
H14 H -0.1226 0.5073 0.3350
C22 C -0.1660(7) 0.1349(6) 0.8036(5)
H15 H -0.1646 0.2195 0.8005
H16 H -0.2503 0.1062 0.8666
C23 C 0.5933(6) 0.1550(5) 0.2500(5)
C24 C 0.5059(7) 0.7223(6) 0.3757(5)
H17 H 0.5189 0.6500 0.4156
H18 H 0.4185 0.7574 0.4228
C25 C -0.1033(7) 0.3745(6) 0.0787(5)
H19 H -0.0996 0.3403 0.0154
C26 C 0.7152(6) 0.0886(6) 0.2025(6)
H20 H 0.7955 0.0920 0.2219
C27 C 0.7077(6) 0.0194(6) 0.1264(5)
H21 H 0.7791 -0.0312 0.0890
C28 C -0.2099(6) 0.5065(6) 0.2170(6)
H22 H -0.2788 0.5625 0.2451
C29 C 0.5777(7) 0.2342(7) 0.3371(6)
H23 H 0.6621 0.2310 0.3555
H24 H 0.4954 0.2104 0.4024
H25 H 0.5654 0.3127 0.3101
C30 C -0.2015(7) 0.4564(7) 0.1215(6)
H26 H -0.2647 0.4796 0.0863
C31 C 0.6260(8) 0.8008(8) 0.3579(7)
H27 H 0.6305 0.8147 0.4285
H28 H 0.6132 0.8736 0.3203
H29 H 0.7137 0.7661 0.3132
C32 C -0.0383(7) 0.0901(6) 0.8201(6)
H30 H -0.0356 0.1151 0.8881
H31 H 0.0455 0.1195 0.7586
H32 H -0.0402 0.0062 0.8247
loop_
_geom_bond_atom_site_label_1
_geom_bond_atom_site_label_2
_geom_bond_site_symmetry_1
_geom_bond_site_symmetry_2
S1 C15 1_555 1_555
O1 C6 1_555 1_555
C1 C3 1_555 1_555
C2 C4 1_555 1_555
C3 H1 1_555 1_555
C4 C1 1_555 1_555
C5 H2 1_555 1_555
C6 C1 1_555 1_555
C7 H3 1_555 1_555
N1 C4 1_555 1_555
C8 O1 1_555 1_555
C9 C5 1_555 1_555
C10 C2 1_555 1_555
H4 C10 1_555 1_555
C11 C7 1_555 1_555
C12 C10 1_555 1_555
N2 C9 1_555 1_555
H5 N2 1_555 1_555
N3 N1 1_555 1_555
O2 C20 1_555 1_555
C13 C3 1_555 1_555
N4 C11 1_555 1_555
H6 N4 1_555 1_555
C14 C4 1_555 1_555
C15 C17 1_555 1_555
C16 C14 1_555 1_555
C17 N3 1_555 1_555
H7 C17 1_555 1_555
C18 C13 1_555 1_555
H8 C18 1_555 1_555
H9 C18 1_555 1_555
H10 C18 1_555 1_555
C19 C12 1_555 1_555
H11 C19 1_555 1_555
H12 C19 1_555 1_555
H13 C19 1_555 1_555
C20 N1 1_555 1_555
C21 C14 1_555 1_555
H14 C21 1_555 1_555
C22 N4 1_555 1_555
H15 C22 1_555 1_555
H16 C22 1_555 1_555
C23 C15 1_555 1_555
C24 N2 1_555 1_555
H17 C24 1_555 1_555
H18 C24 1_555 1_555
C25 C16 1_555 1_555
H19 C25 1_555 1_555
C26 C23 1_555 1_555
H20 C26 1_555 1_555
C27 S1 1_555 1_555
H21 C27 1_555 1_555
C28 C21 1_555 1_555
H22 C28 1_555 1_555
C29 C23 1_555 1_555
H23 C29 1_555 1_555
H24 C29 1_555 1_555
H25 C29 1_555 1_555
C30 C25 1_555 1_555
H26 C30 1_555 1_555
C31 C24 1_555 1_555
H27 C31 1_555 1_555
H28 C31 1_555 1_555
H29 C31 1_555 1_555
C32 C22 1_555 1_555
H30 C32 1_555 1_555
H31 C32 1_555 1_555
H32 C32 1_555 1_555
C2 C8 1_555 1_555
C5 C6 1_555 1_555
C7 C8 1_555 1_555
C9 C13 1_555 1_555
C11 C12 1_555 1_555
C16 C20 1_555 1_555
C26 C27 1_555 1_555
C28 C30 1_555 1_555

#END
