
#######################################################################
#
#                 Cambridge Crystallographic Data Centre
#                                CCDC 
#
#######################################################################
#
# If this CIF has been generated from an entry in the Cambridge 
# Structural Database, then it will include bibliographic, chemical, 
# crystal, experimental, refinement or atomic coordinate data resulting 
# from the CCDC's data processing and validation procedures.
#
#######################################################################

data_EMOPEB
_chemical_formula_moiety         'C54 H31 Cl1'
_chemical_name_systematic        
16-Chloro-10a-methyl-10-methylene-11-phenyl-9-((2-(phenylethynyl)phenyl)ethynyl)-10,10a,11,11a-tetrahydro-di-indeno(1,2-a:1',2'-f)fluoranthene
_symmetry_cell_setting           triclinic
_symmetry_space_group_name_H-M   'P -1'
_symmetry_Int_Tables_number      2
_space_group_name_Hall           '-P 1'
loop_
_symmetry_equiv_pos_site_id
_symmetry_equiv_pos_as_xyz
1 x,y,z
2 -x,-y,-z
_cell_length_a                   11.939(3)
_cell_length_b                   12.568(3)
_cell_length_c                   13.114(4)
_cell_angle_alpha                67.400(6)
_cell_angle_beta                 86.785(5)
_cell_angle_gamma                85.649(5)
_cell_volume                     1810.63
_cell_formula_units_Z            2
loop_
_atom_site_label
_atom_site_type_symbol
_atom_site_fract_x
_atom_site_fract_y
_atom_site_fract_z
Cl1 Cl 1.3352(1) 1.0749(1) 0.6984(1)
C1 C 0.8071(2) 0.5581(2) 0.9850(2)
C2 C 0.7713(2) 0.5838(2) 1.0821(2)
C3 C 0.6874(2) 0.5366(2) 1.1598(2)
C4 C 0.6662(2) 0.5784(2) 1.2425(2)
C5 C 0.7256(2) 0.6670(2) 1.2452(2)
C6 C 0.8086(2) 0.7157(2) 1.1664(2)
C7 C 0.8345(2) 0.6722(2) 1.0853(2)
C8 C 0.9133(2) 0.7021(2) 0.9899(1)
C9 C 0.9993(2) 0.7743(2) 0.9528(1)
C10 C 1.0628(2) 0.8393(2) 1.0004(2)
C11 C 1.0577(2) 0.8466(2) 1.1028(2)
C12 C 1.1288(2) 0.9153(2) 1.1259(2)
C13 C 1.2077(2) 0.9727(2) 1.0493(2)
C14 C 1.2185(2) 0.9627(2) 0.9469(2)
C15 C 1.1457(2) 0.8977(2) 0.9209(2)
C16 C 1.1339(2) 0.8705(2) 0.8212(1)
C17 C 1.1893(2) 0.9056(2) 0.7148(1)
C18 C 1.2688(2) 0.9820(2) 0.6592(2)
C19 C 1.2933(2) 0.9810(2) 0.5503(2)
C20 C 1.3671(2) 1.0455(2) 0.4685(2)
C21 C 1.3754(2) 1.0281(2) 0.3708(2)
C22 C 1.3117(2) 0.9492(2) 0.3556(2)
C23 C 1.2372(2) 0.8851(2) 0.4367(2)
C24 C 1.2272(2) 0.9002(2) 0.5362(1)
C25 C 1.1579(2) 0.8507(2) 0.6392(1)
C26 C 1.0742(2) 0.7775(1) 0.6613(1)
C27 C 0.9970(2) 0.7583(1) 0.7627(1)
C28 C 0.9544(2) 0.6374(2) 0.8274(1)
C29 C 0.8906(2) 0.6303(2) 0.9286(1)
C30 C 1.0487(2) 0.7971(2) 0.8437(1)
C31 C 0.8904(2) 0.8401(2) 0.7199(2)
C32 C 1.0517(2) 0.7315(2) 0.5758(2)
C33 C 1.1199(2) 0.6425(2) 0.5661(2)
C34 C 1.1068(3) 0.6055(2) 0.4806(2)
C35 C 1.0256(3) 0.6568(3) 0.4056(2)
C36 C 0.9570(3) 0.7452(3) 0.4139(2)
C37 C 0.9695(2) 0.7826(2) 0.4979(2)
C38 C 0.9699(2) 0.5460(2) 0.8009(2)
C39 C 0.7555(2) 0.4737(2) 0.9605(2)
C40 C 0.7004(2) 0.4046(2) 0.9472(2)
C41 C 0.6357(2) 0.3262(2) 0.9248(2)
C42 C 0.6519(2) 0.3113(2) 0.8248(2)
C43 C 0.5882(3) 0.2359(3) 0.8018(3)
C44 C 0.5107(3) 0.1731(3) 0.8789(4)
C45 C 0.4924(2) 0.1885(2) 0.9753(3)
C46 C 0.5526(2) 0.2650(2) 1.0007(2)
C47 C 0.5280(2) 0.2828(2) 1.1010(2)
C48 C 0.5023(2) 0.2973(2) 1.1841(2)
C49 C 0.4696(2) 0.3183(2) 1.2814(2)
C50 C 0.3584(2) 0.3490(2) 1.2994(2)
C51 C 0.3276(3) 0.3718(3) 1.3910(3)
C52 C 0.4077(5) 0.3642(3) 1.4665(3)
C53 C 0.5177(4) 0.3302(3) 1.4497(3)
C54 C 0.5477(2) 0.3080(2) 1.3590(2)
H1 H 0.6463 0.4782 1.1565
H2 H 0.6114 0.5465 1.2968
H3 H 0.7095 0.6946 1.3011
H4 H 0.8464 0.7770 1.1680
H5 H 1.0062 0.8050 1.1565
H6 H 1.1229 0.9225 1.1940
H7 H 1.2549 1.0193 1.0655
H8 H 1.2746 0.9998 0.8964
H9 H 1.4098 1.0990 0.4792
H10 H 1.4245 1.0702 0.3146
H11 H 1.3189 0.9385 0.2891
H12 H 1.1943 0.8325 0.4245
H13 H 0.9125 0.9174 0.6792
H14 H 0.8424 0.8388 0.7815
H15 H 0.8508 0.8146 0.6725
H16 H 1.1754 0.6066 0.6173
H17 H 1.1537 0.5454 0.4746
H18 H 1.0168 0.6317 0.3486
H19 H 0.9015 0.7802 0.3625
H20 H 0.9224 0.8430 0.5028
H21 H 0.9403 0.4766 0.8464
H22 H 1.0103 0.5510 0.7367
H23 H 0.7055 0.3522 0.7734
H24 H 0.5980 0.2277 0.7343
H25 H 0.4706 0.1200 0.8647
H26 H 0.4384 0.1469 1.0257
H27 H 0.3047 0.3540 1.2488
H28 H 0.2530 0.3925 1.4027
H29 H 0.3876 0.3818 1.5280
H30 H 0.5712 0.3226 1.5013
H31 H 0.6221 0.2855 1.3485
loop_
_geom_bond_atom_site_label_1
_geom_bond_atom_site_label_2
_geom_bond_site_symmetry_1
_geom_bond_site_symmetry_2
Cl1 C18 1_555 1_555
C1 C2 1_555 1_555
C2 C3 1_555 1_555
C3 C4 1_555 1_555
C4 C5 1_555 1_555
C5 C6 1_555 1_555
C6 C7 1_555 1_555
C7 C2 1_555 1_555
C8 C7 1_555 1_555
C9 C8 1_555 1_555
C10 C9 1_555 1_555
C11 C10 1_555 1_555
C12 C11 1_555 1_555
C13 C12 1_555 1_555
C14 C13 1_555 1_555
C15 C10 1_555 1_555
C16 C15 1_555 1_555
C17 C16 1_555 1_555
C18 C17 1_555 1_555
C19 C18 1_555 1_555
C20 C19 1_555 1_555
C21 C20 1_555 1_555
C22 C21 1_555 1_555
C23 C22 1_555 1_555
C24 C19 1_555 1_555
C25 C17 1_555 1_555
C26 C25 1_555 1_555
C27 C26 1_555 1_555
C28 C27 1_555 1_555
C29 C1 1_555 1_555
C30 C9 1_555 1_555
C31 C27 1_555 1_555
C32 C26 1_555 1_555
C33 C32 1_555 1_555
C34 C33 1_555 1_555
C35 C34 1_555 1_555
C36 C35 1_555 1_555
C37 C32 1_555 1_555
C38 C28 1_555 1_555
C39 C1 1_555 1_555
C40 C39 1_555 1_555
C41 C40 1_555 1_555
C42 C41 1_555 1_555
C43 C42 1_555 1_555
C44 C43 1_555 1_555
C45 C44 1_555 1_555
C46 C41 1_555 1_555
C47 C46 1_555 1_555
C48 C47 1_555 1_555
C49 C48 1_555 1_555
C50 C49 1_555 1_555
C51 C50 1_555 1_555
C52 C51 1_555 1_555
C53 C52 1_555 1_555
C54 C49 1_555 1_555
H1 C3 1_555 1_555
H2 C4 1_555 1_555
H3 C5 1_555 1_555
H4 C6 1_555 1_555
H5 C11 1_555 1_555
H6 C12 1_555 1_555
H7 C13 1_555 1_555
H8 C14 1_555 1_555
H9 C20 1_555 1_555
H10 C21 1_555 1_555
H11 C22 1_555 1_555
H12 C23 1_555 1_555
H13 C31 1_555 1_555
H14 C31 1_555 1_555
H15 C31 1_555 1_555
H16 C33 1_555 1_555
H17 C34 1_555 1_555
H18 C35 1_555 1_555
H19 C36 1_555 1_555
H20 C37 1_555 1_555
H21 C38 1_555 1_555
H22 C38 1_555 1_555
H23 C42 1_555 1_555
H24 C43 1_555 1_555
H25 C44 1_555 1_555
H26 C45 1_555 1_555
H27 C50 1_555 1_555
H28 C51 1_555 1_555
H29 C52 1_555 1_555
H30 C53 1_555 1_555
H31 C54 1_555 1_555
C8 C29 1_555 1_555
C14 C15 1_555 1_555
C16 C30 1_555 1_555
C23 C24 1_555 1_555
C24 C25 1_555 1_555
C27 C30 1_555 1_555
C28 C29 1_555 1_555
C36 C37 1_555 1_555
C45 C46 1_555 1_555
C53 C54 1_555 1_555

#END
