
#######################################################################
#
#                 Cambridge Crystallographic Data Centre
#                                CCDC 
#
#######################################################################
#
# If this CIF has been generated from an entry in the Cambridge 
# Structural Database, then it will include bibliographic, chemical, 
# crystal, experimental, refinement or atomic coordinate data resulting 
# from the CCDC's data processing and validation procedures.
#
#######################################################################

data_EMOPAX
_chemical_formula_moiety         'C58 H40 Cl2'
_chemical_name_systematic        
7,7''-Dichloro-2,2''-diphenyl-6',7'-di-n-propyldispiro(cyclobuta(a)indene-1,5'-indeno(2,1-c)fluorene-8',1''-cyclobuta(a)indene)
_symmetry_cell_setting           monoclinic
_symmetry_space_group_name_H-M   'P 21/c'
_symmetry_Int_Tables_number      14
_space_group_name_Hall           '-P 2ybc'
loop_
_symmetry_equiv_pos_site_id
_symmetry_equiv_pos_as_xyz
1 x,y,z
2 -x,1/2+y,1/2-z
3 -x,-y,-z
4 x,1/2-y,1/2+z
_cell_length_a                   22.2634(14)
_cell_length_b                   23.8465(16)
_cell_length_c                   18.0956(12)
_cell_angle_alpha                90
_cell_angle_beta                 107.601(2)
_cell_angle_gamma                90
_cell_volume                     9157.28
_cell_formula_units_Z            8
loop_
_atom_site_label
_atom_site_type_symbol
_atom_site_fract_x
_atom_site_fract_y
_atom_site_fract_z
Cl1 Cl 0.5000(1) 0.6332(1) 0.6416(1)
Cl2 Cl 0.2967(1) 1.0512(1) 0.5142(1)
C1 C 0.3819(2) 0.8159(1) 0.5968(1)
C2 C 0.4191(1) 0.8081(1) 0.5485(1)
C3 C 0.4192(1) 0.7577(1) 0.4963(1)
C4 C 0.3554(1) 0.7395(1) 0.4365(1)
C5 C 0.3612(1) 0.6855(1) 0.4611(2)
C6 C 0.3418(1) 0.6268(1) 0.4627(1)
C7 C 0.2930(1) 0.5941(1) 0.4194(2)
C8 C 0.2901(1) 0.5389(1) 0.4403(2)
C9 C 0.3347(1) 0.5162(1) 0.5026(2)
C10 C 0.3844(1) 0.5485(1) 0.5468(2)
C11 C 0.3888(1) 0.6046(1) 0.5271(2)
C12 C 0.4361(1) 0.6480(1) 0.5626(1)
C13 C 0.4187(1) 0.6955(1) 0.5224(2)
C14 C 0.4681(1) 0.7737(1) 0.4584(1)
C15 C 0.4887(1) 0.7420(1) 0.4070(2)
C16 C 0.5316(1) 0.7649(1) 0.3739(2)
C17 C 0.5524(1) 0.8186(1) 0.3913(2)
C18 C 0.5320(1) 0.8513(1) 0.4432(2)
C19 C 0.4903(1) 0.8282(1) 0.4791(1)
C20 C 0.4602(1) 0.8502(1) 0.5355(1)
C21 C 0.4660(1) 0.9003(1) 0.5780(1)
C22 C 0.5104(1) 0.9483(1) 0.5915(1)
C23 C 0.5655(1) 0.9583(1) 0.5727(2)
C24 C 0.5989(1) 1.0073(1) 0.5970(2)
C25 C 0.5802(1) 1.0456(1) 0.6418(2)
C26 C 0.5271(1) 1.0353(1) 0.6643(2)
C27 C 0.4928(1) 0.9872(1) 0.6390(1)
C28 C 0.4358(1) 0.9677(1) 0.6594(1)
C29 C 0.4403(1) 0.9753(1) 0.7472(1)
C30 C 0.3943(1) 1.0148(1) 0.7307(2)
C31 C 0.3480(1) 1.0531(1) 0.7462(2)
C32 C 0.3350(1) 1.0724(1) 0.8122(2)
C33 C 0.2843(1) 1.1086(1) 0.8024(2)
C34 C 0.2487(1) 1.1258(1) 0.7298(2)
C35 C 0.2601(1) 1.1068(1) 0.6637(2)
C36 C 0.3104(1) 1.0706(1) 0.6710(2)
C37 C 0.3332(1) 1.0426(1) 0.6116(2)
C38 C 0.3818(1) 1.0105(1) 0.6480(1)
C39 C 0.4235(1) 0.9099(1) 0.6216(1)
C40 C 0.3809(1) 0.8691(1) 0.6305(1)
C41 C 0.3493(1) 0.7666(1) 0.6200(2)
C42 C 0.3925(1) 0.7416(1) 0.6934(2)
C43 C 0.3690(2) 0.6853(1) 0.7139(2)
C44 C 0.3336(1) 0.8818(1) 0.6733(2)
C45 C 0.2691(1) 0.8967(2) 0.6168(2)
C46 C 0.2217(2) 0.9107(2) 0.6598(3)
C47 C 0.3085(1) 0.7713(1) 0.3777(1)
C48 C 0.2629(1) 0.7421(1) 0.3206(2)
C49 C 0.2171(2) 0.7697(2) 0.2646(2)
C50 C 0.2163(2) 0.8275(2) 0.2656(2)
C51 C 0.2603(1) 0.8573(1) 0.3208(2)
C52 C 0.3061(1) 0.8296(1) 0.3764(2)
C53 C 0.4804(1) 0.9476(1) 0.8150(1)
C54 C 0.5293(1) 0.9120(1) 0.8107(2)
C55 C 0.5669(1) 0.8862(1) 0.8752(2)
C56 C 0.5582(1) 0.8948(1) 0.9461(2)
C57 C 0.5110(1) 0.9296(1) 0.9520(2)
C58 C 0.4720(1) 0.9555(1) 0.8872(2)
H1 H 0.2625 0.6089 0.3768
H2 H 0.2570 0.5165 0.4115
H3 H 0.3316 0.4787 0.5154
H4 H 0.4146 0.5329 0.5892
H5 H 0.4739 0.7057 0.3947
H6 H 0.5464 0.7437 0.3398
H7 H 0.5807 0.8338 0.3681
H8 H 0.5460 0.8880 0.4537
H9 H 0.5798 0.9321 0.5438
H10 H 0.6350 1.0143 0.5826
H11 H 0.6030 1.0785 0.6570
H12 H 0.5147 1.0605 0.6961
H13 H 0.3595 1.0615 0.8614
H14 H 0.2743 1.1214 0.8457
H15 H 0.2159 1.1510 0.7254
H16 H 0.2347 1.1180 0.6151
H17 H 0.3103 0.7787 0.6285
H18 H 0.3392 0.7387 0.5790
H19 H 0.3964 0.7676 0.7358
H20 H 0.4340 0.7365 0.6874
H21 H 0.3285 0.6902 0.7215
H22 H 0.3983 0.6711 0.7606
H23 H 0.3655 0.6592 0.6724
H24 H 0.3488 0.9129 0.7085
H25 H 0.3294 0.8494 0.7037
H26 H 0.2735 0.9286 0.5856
H27 H 0.2536 0.8653 0.5822
H28 H 0.2135 0.8778 0.6858
H29 H 0.1831 0.9235 0.6234
H30 H 0.2385 0.9396 0.6972
H31 H 0.2636 0.7031 0.3206
H32 H 0.1871 0.7498 0.2266
H33 H 0.1852 0.8467 0.2280
H34 H 0.2591 0.8963 0.3205
H35 H 0.3361 0.8499 0.4138
H36 H 0.5362 0.9060 0.7631
H37 H 0.5989 0.8624 0.8712
H38 H 0.5842 0.8771 0.9899
H39 H 0.5052 0.9357 1.0002
H40 H 0.4397 0.9786 0.8918
Cl3 Cl 0.8699(1) 0.5322(1) 0.7483(1)
Cl4 Cl 0.9032(1) 0.9345(1) 1.0407(1)
C59 C 0.9086(1) 0.7370(1) 0.8398(2)
C60 C 0.9159(1) 0.6922(1) 0.8921(2)
C61 C 0.9621(1) 0.6430(1) 0.9032(2)
C62 C 0.9626(1) 0.6016(1) 0.8381(2)
C63 C 0.9429(1) 0.5623(3) 0.7837(2)
C64 C 0.9966(1) 0.5461(1) 0.7557(2)
C65 C 1.0002(2) 0.5073(1) 0.6999(2)
C66 C 1.0566(2) 0.5015(2) 0.6860(2)
C67 C 1.1098(2) 0.5295(2) 0.7262(2)
C68 C 1.1064(2) 0.5674(2) 0.7827(2)
C69 C 1.0499(1) 0.5766(1) 0.7976(2)
C70 C 1.0286(1) 0.6126(1) 0.8506(2)
C71 C 1.0325(1) 0.6533(1) 0.9050(2)
C72 C 0.9566(1) 0.6161(1) 0.9763(2)
C73 C 0.9935(2) 0.5729(1) 1.0182(2)
C74 C 0.9848(2) 0.5562(2) 1.0869(2)
C75 C 0.9394(2) 0.5832(2) 1.1137(2)
C76 C 0.9032(2) 0.6261(1) 1.0725(2)
C77 C 0.9108(1) 0.6420(1) 1.0017(2)
C78 C 0.8845(1) 0.6885(1) 0.9482(2)
C79 C 0.8398(1) 0.7297(1) 0.9482(1)
C80 C 0.7921(1) 0.7354(1) 0.9894(2)
C81 C 0.7664(1) 0.6973(1) 1.0299(2)
C82 C 0.7183(1) 0.7144(1) 1.0586(2)
C83 C 0.6948(2) 0.7682(2) 1.0479(2)
C84 C 0.7183(1) 0.8056(1) 1.0051(2)
C85 C 0.7657(1) 0.7887(1) 0.9761(2)
C86 C 0.7894(1) 0.8189(1) 0.9173(2)
C87 C 0.8046(1) 0.8823(1) 0.9320(2)
C88 C 0.8354(2) 0.9276(1) 0.9660(2)
C89 C 0.7997(2) 0.9768(1) 0.9234(2)
C90 C 0.8105(2) 1.0336(1) 0.9363(2)
C91 C 0.7671(2) 1.0702(2) 0.8878(2)
C92 C 0.7179(2) 1.0518(2) 0.8297(2)
C93 C 0.7055(2) 0.9959(1) 0.8162(2)
C94 C 0.7466(2) 0.9579(1) 0.8636(2)
C95 C 0.7509(1) 0.8972(1) 0.8698(2)
C96 C 0.7341(1) 0.8427(1) 0.8477(2)
C97 C 0.8361(1) 0.7772(1) 0.9012(1)
C98 C 0.8702(1) 0.7821(1) 0.8491(2)
C99 C 0.9410(1) 0.7369(1) 0.7781(2)
C100 C 0.9027(2) 0.7077(2) 0.7037(2)
C101 C 0.9377(2) 0.7069(2) 0.6425(2)
C102 C 0.8687(2) 0.8377(1) 0.8046(2)
C103 C 0.8184(2) 0.8376(1) 0.7276(2)
C104 C 0.8003(2) 0.8993(2) 0.6956(2)
C105 C 1.0786(1) 0.6906(1) 0.9503(2)
C106 C 1.1371(2) 0.6951(2) 0.9382(2)
C107 C 1.1818(2) 0.7321(2) 0.9820(2)
C108 C 1.1684(2) 0.7653(2) 1.0349(3)
C109 C 1.1101(2) 0.7630(2) 1.0469(3)
C110 C 1.0654(2) 0.7251(2) 1.0057(2)
C111 C 0.6854(1) 0.8150(1) 0.7885(2)
C112 C 0.6765(1) 0.7570(1) 0.7911(2)
C113 C 0.6292(1) 0.7322(1) 0.7332(2)
C114 C 0.5912(1) 0.7627(1) 0.6732(2)
C115 C 0.6007(1) 0.8190(1) 0.6698(2)
C116 C 0.6463(1) 0.8455(1) 0.7267(2)
H41 H 0.9654 0.4862 0.6730
H42 H 1.0590 0.4771 0.6469
H43 H 1.1477 0.5232 0.7159
H44 H 1.1423 0.5867 0.8108
H45 H 1.0237 0.5556 0.9999
H46 H 1.0088 0.5271 1.1154
H47 H 0.9337 0.5719 1.1604
H48 H 0.8740 0.6442 1.0915
H49 H 0.7814 0.6607 1.0375
H50 H 0.7015 0.6889 1.0859
H51 H 0.6635 0.7793 1.0691
H52 H 0.7023 0.8418 0.9961
H53 H 0.8450 1.0469 0.9755
H54 H 0.7725 1.1086 0.8960
H55 H 0.6914 1.0779 0.7977
H56 H 0.6706 0.9838 0.7765
H57 H 0.9814 0.7181 0.7979
H58 H 0.9490 0.7753 0.7661
H59 H 0.8628 0.7270 0.6827
H60 H 0.8938 0.6695 0.7155
H61 H 0.9443 0.7446 0.6283
H62 H 0.9131 0.6868 0.5975
H63 H 0.9777 0.6886 0.6635
H64 H 0.8611 0.8685 0.8357
H65 H 0.9093 0.8437 0.7966
H66 H 0.7812 0.8189 0.7328
H67 H 0.8331 0.8165 0.6906
H68 H 0.7771 0.9176 0.7258
H69 H 0.7747 0.8976 0.6424
H70 H 0.8380 0.9202 0.6994
H71 H 1.1464 0.6731 0.9007
H72 H 1.2214 0.7340 0.9746
H73 H 1.1988 0.7900 1.0639
H74 H 1.1009 0.7870 1.0825
H75 H 1.0266 0.7226 1.0150
H76 H 0.7022 0.7356 0.8313
H77 H 0.6228 0.6937 0.7349
H78 H 0.5591 0.7451 0.6350
H79 H 0.5758 0.8396 0.6281
H80 H 0.6513 0.8841 0.7243
loop_
_geom_bond_atom_site_label_1
_geom_bond_atom_site_label_2
_geom_bond_site_symmetry_1
_geom_bond_site_symmetry_2
Cl1 C12 1_555 1_555
Cl2 C37 1_555 1_555
Cl3 C63 1_555 1_555
Cl4 C88 1_555 1_555
C1 C2 1_555 1_555
C2 C3 1_555 1_555
C3 C4 1_555 1_555
C4 C5 1_555 1_555
C5 C6 1_555 1_555
C6 C7 1_555 1_555
C7 C8 1_555 1_555
C8 C9 1_555 1_555
C9 C10 1_555 1_555
C10 C11 1_555 1_555
C11 C6 1_555 1_555
C12 C11 1_555 1_555
C13 C3 1_555 1_555
C14 C3 1_555 1_555
C15 C14 1_555 1_555
C16 C15 1_555 1_555
C17 C16 1_555 1_555
C18 C17 1_555 1_555
C19 C14 1_555 1_555
C20 C2 1_555 1_555
C21 C20 1_555 1_555
C22 C21 1_555 1_555
C23 C22 1_555 1_555
C24 C23 1_555 1_555
C25 C24 1_555 1_555
C26 C25 1_555 1_555
C27 C22 1_555 1_555
C28 C27 1_555 1_555
C29 C28 1_555 1_555
C30 C29 1_555 1_555
C31 C30 1_555 1_555
C32 C31 1_555 1_555
C33 C32 1_555 1_555
C34 C33 1_555 1_555
C35 C34 1_555 1_555
C36 C31 1_555 1_555
C37 C36 1_555 1_555
C38 C28 1_555 1_555
C39 C21 1_555 1_555
C40 C1 1_555 1_555
C41 C1 1_555 1_555
C42 C41 1_555 1_555
C43 C42 1_555 1_555
C44 C40 1_555 1_555
C45 C44 1_555 1_555
C46 C45 1_555 1_555
C47 C4 1_555 1_555
C48 C47 1_555 1_555
C49 C48 1_555 1_555
C50 C49 1_555 1_555
C51 C50 1_555 1_555
C52 C47 1_555 1_555
C53 C29 1_555 1_555
C54 C53 1_555 1_555
C55 C54 1_555 1_555
C56 C55 1_555 1_555
C57 C56 1_555 1_555
C58 C53 1_555 1_555
C59 C60 1_555 1_555
C60 C61 1_555 1_555
C61 C62 1_555 1_555
C62 C63 1_555 1_555
C63 C64 1_555 1_555
C64 C65 1_555 1_555
C65 C66 1_555 1_555
C66 C67 1_555 1_555
C67 C68 1_555 1_555
C68 C69 1_555 1_555
C69 C64 1_555 1_555
C70 C62 1_555 1_555
C71 C61 1_555 1_555
C72 C61 1_555 1_555
C73 C72 1_555 1_555
C74 C73 1_555 1_555
C75 C74 1_555 1_555
C76 C75 1_555 1_555
C77 C72 1_555 1_555
C78 C60 1_555 1_555
C79 C78 1_555 1_555
C80 C79 1_555 1_555
C81 C80 1_555 1_555
C82 C81 1_555 1_555
C83 C82 1_555 1_555
C84 C83 1_555 1_555
C85 C80 1_555 1_555
C86 C85 1_555 1_555
C87 C86 1_555 1_555
C88 C87 1_555 1_555
C89 C88 1_555 1_555
C90 C89 1_555 1_555
C91 C90 1_555 1_555
C92 C91 1_555 1_555
C93 C92 1_555 1_555
C94 C89 1_555 1_555
C95 C87 1_555 1_555
C96 C86 1_555 1_555
C97 C79 1_555 1_555
C98 C59 1_555 1_555
C99 C59 1_555 1_555
C100 C99 1_555 1_555
C101 C100 1_555 1_555
C102 C98 1_555 1_555
C103 C102 1_555 1_555
C104 C103 1_555 1_555
C105 C71 1_555 1_555
C106 C105 1_555 1_555
C107 C106 1_555 1_555
C108 C107 1_555 1_555
C109 C108 1_555 1_555
C110 C105 1_555 1_555
C111 C96 1_555 1_555
C112 C111 1_555 1_555
C113 C112 1_555 1_555
C114 C113 1_555 1_555
C115 C114 1_555 1_555
C116 C111 1_555 1_555
H1 C7 1_555 1_555
H2 C8 1_555 1_555
H3 C9 1_555 1_555
H4 C10 1_555 1_555
H5 C15 1_555 1_555
H6 C16 1_555 1_555
H7 C17 1_555 1_555
H8 C18 1_555 1_555
H9 C23 1_555 1_555
H10 C24 1_555 1_555
H11 C25 1_555 1_555
H12 C26 1_555 1_555
H13 C32 1_555 1_555
H14 C33 1_555 1_555
H15 C34 1_555 1_555
H16 C35 1_555 1_555
H17 C41 1_555 1_555
H18 C41 1_555 1_555
H19 C42 1_555 1_555
H20 C42 1_555 1_555
H21 C43 1_555 1_555
H22 C43 1_555 1_555
H23 C43 1_555 1_555
H24 C44 1_555 1_555
H25 C44 1_555 1_555
H26 C45 1_555 1_555
H27 C45 1_555 1_555
H28 C46 1_555 1_555
H29 C46 1_555 1_555
H30 C46 1_555 1_555
H31 C48 1_555 1_555
H32 C49 1_555 1_555
H33 C50 1_555 1_555
H34 C51 1_555 1_555
H35 C52 1_555 1_555
H36 C54 1_555 1_555
H37 C55 1_555 1_555
H38 C56 1_555 1_555
H39 C57 1_555 1_555
H40 C58 1_555 1_555
H41 C65 1_555 1_555
H42 C66 1_555 1_555
H43 C67 1_555 1_555
H44 C68 1_555 1_555
H45 C73 1_555 1_555
H46 C74 1_555 1_555
H47 C75 1_555 1_555
H48 C76 1_555 1_555
H49 C81 1_555 1_555
H50 C82 1_555 1_555
H51 C83 1_555 1_555
H52 C84 1_555 1_555
H53 C90 1_555 1_555
H54 C91 1_555 1_555
H55 C92 1_555 1_555
H56 C93 1_555 1_555
H57 C99 1_555 1_555
H58 C99 1_555 1_555
H59 C100 1_555 1_555
H60 C100 1_555 1_555
H61 C101 1_555 1_555
H62 C101 1_555 1_555
H63 C101 1_555 1_555
H64 C102 1_555 1_555
H65 C102 1_555 1_555
H66 C103 1_555 1_555
H67 C103 1_555 1_555
H68 C104 1_555 1_555
H69 C104 1_555 1_555
H70 C104 1_555 1_555
H71 C106 1_555 1_555
H72 C107 1_555 1_555
H73 C108 1_555 1_555
H74 C109 1_555 1_555
H75 C110 1_555 1_555
H76 C112 1_555 1_555
H77 C113 1_555 1_555
H78 C114 1_555 1_555
H79 C115 1_555 1_555
H80 C116 1_555 1_555
C5 C13 1_555 1_555
C12 C13 1_555 1_555
C18 C19 1_555 1_555
C19 C20 1_555 1_555
C26 C27 1_555 1_555
C28 C39 1_555 1_555
C30 C38 1_555 1_555
C35 C36 1_555 1_555
C37 C38 1_555 1_555
C39 C40 1_555 1_555
C51 C52 1_555 1_555
C57 C58 1_555 1_555
C69 C70 1_555 1_555
C70 C71 1_555 1_555
C76 C77 1_555 1_555
C77 C78 1_555 1_555
C84 C85 1_555 1_555
C86 C97 1_555 1_555
C93 C94 1_555 1_555
C94 C95 1_555 1_555
C95 C96 1_555 1_555
C97 C98 1_555 1_555
C109 C110 1_555 1_555
C115 C116 1_555 1_555

#END
