
#######################################################################
#
#                 Cambridge Crystallographic Data Centre
#                                CCDC 
#
#######################################################################
#
# If this CIF has been generated from an entry in the Cambridge 
# Structural Database, then it will include bibliographic, chemical, 
# crystal, experimental, refinement or atomic coordinate data resulting 
# from the CCDC's data processing and validation procedures.
#
#######################################################################

data_EMOPUR
_chemical_formula_moiety         'C27 H32 N2 O5'
_chemical_name_systematic        
'trans-N~b~-Benzyl-3-(ethoxycarbonyl)-6-methoxy-9-methyltetrahydro-\b-carboline-1-propionic acid methyl ester'
_symmetry_cell_setting           monoclinic
_symmetry_space_group_name_H-M   'P 21'
_symmetry_Int_Tables_number      4
_space_group_name_Hall           'P 2yb'
loop_
_symmetry_equiv_pos_site_id
_symmetry_equiv_pos_as_xyz
1 x,y,z
2 -x,1/2+y,-z
_cell_length_a                   8.3938(7)
_cell_length_b                   11.7099(8)
_cell_length_c                   12.9082(8)
_cell_angle_alpha                90
_cell_angle_beta                 98.744(8)
_cell_angle_gamma                90
_cell_volume                     1254.01
_chemical_melting_point          '155-156 deg.C'
_cell_formula_units_Z            2
loop_
_atom_site_label
_atom_site_type_symbol
_atom_site_fract_x
_atom_site_fract_y
_atom_site_fract_z
N1 N 0.6172(3) 1.0109(2) 0.1790(2)
C1 C 0.4712(4) 1.0784(3) 0.1691(3)
C2 C 0.6830(3) 0.9579(3) 0.0995(2)
C3 C 0.6044(3) 0.9513(3) -0.0126(2)
O1 O 0.2569(3) 1.0662(3) -0.0926(2)
O2 O 0.2089(3) 1.0062(2) -0.2576(2)
C4 C 0.4529(3) 0.8755(3) -0.0286(2)
C5 C 0.3611(3) 0.8846(3) -0.1384(2)
C6 C 0.2730(3) 0.9956(3) -0.1577(2)
C7 C 0.1269(5) 1.1119(4) -0.2878(3)
N2 N 0.7207(2) 0.9124(2) -0.0799(2)
C8 C 0.8210(3) 0.8176(3) -0.0324(2)
O3 O 1.0544(3) 0.7322(2) -0.0876(2)
O4 O 0.8339(2) 0.7550(2) -0.2063(1)
C9 C 0.9167(3) 0.7640(3) -0.1098(2)
C10 C 0.9186(5) 0.7091(4) -0.2870(2)
C11 C 0.8026(5) 0.6995(5) -0.3850(3)
C12 C 0.9281(3) 0.8467(3) 0.0710(2)
C13 C 0.8273(3) 0.9087(3) 0.1385(2)
C14 C 0.8536(3) 0.9303(3) 0.2490(2)
C15 C 0.9787(4) 0.9003(3) 0.3308(2)
C16 C 0.9623(4) 0.9348(3) 0.4303(2)
O5 O 1.0735(3) 0.9120(3) 0.5182(2)
C17 C 1.2116(6) 0.8491(5) 0.5053(3)
C18 C 0.8315(4) 0.9985(4) 0.4513(2)
C19 C 0.7082(4) 1.0287(3) 0.3727(2)
C20 C 0.7211(3) 0.9940(3) 0.2718(2)
C21 C 0.8158(3) 1.0081(3) -0.1124(2)
C22 C 0.7138(3) 1.0790(3) -0.1942(2)
C23 C 0.6463(4) 1.0319(3) -0.2886(2)
C24 C 0.5485(4) 1.0955(4) -0.3634(3)
C25 C 0.5167(5) 1.2088(4) -0.3435(3)
C26 C 0.5834(5) 1.2565(4) -0.2499(3)
C27 C 0.6814(4) 1.1932(3) -0.1764(3)
H1 H 0.4187 1.0770 0.0976
H2 H 0.4977 1.1558 0.1895
H3 H 0.4003 1.0473 0.2136
H4 H 0.5708 1.0288 -0.0348
H5 H 0.4843 0.7966 -0.0145
H6 H 0.3828 0.8978 0.0212
H7 H 0.4359 0.8766 -0.1883
H8 H 0.2842 0.8223 -0.1502
H9 H 0.0854 1.1100 -0.3613
H10 H 0.2011 1.1743 -0.2736
H11 H 0.0395 1.1219 -0.2485
H12 H 0.7459 0.7587 -0.0158
H13 H 0.9628 0.6346 -0.2662
H14 H 1.0067 0.7593 -0.2975
H15 H 0.8566 0.6698 -0.4396
H16 H 0.7592 0.7735 -0.4048
H17 H 0.7167 0.6489 -0.3741
H18 H 0.9712 0.7773 0.1056
H19 H 1.0175 0.8943 0.0580
H20 H 1.0681 0.8589 0.3177
H21 H 1.2779 0.8391 0.5722
H22 H 1.2713 0.8895 0.4591
H23 H 1.1802 0.7757 0.4759
H24 H 0.8267 1.0213 0.5198
H25 H 0.6201 1.0707 0.3870
H26 H 0.9083 0.9786 -0.1407
H27 H 0.8549 1.0552 -0.0521
H28 H 0.6668 0.9558 -0.3024
H29 H 0.5044 1.0623 -0.4268
H30 H 0.4509 1.2521 -0.3932
H31 H 0.5620 1.3325 -0.2359
H32 H 0.7269 1.2272 -0.1137
loop_
_geom_bond_atom_site_label_1
_geom_bond_atom_site_label_2
_geom_bond_site_symmetry_1
_geom_bond_site_symmetry_2
N1 C1 1_555 1_555
C1 H1 1_555 1_555
C2 N1 1_555 1_555
C3 C2 1_555 1_555
O1 C6 1_555 1_555
O2 C6 1_555 1_555
C4 C3 1_555 1_555
C5 C4 1_555 1_555
C6 C5 1_555 1_555
C7 O2 1_555 1_555
N2 C3 1_555 1_555
C8 N2 1_555 1_555
O3 C9 1_555 1_555
O4 C9 1_555 1_555
C9 C8 1_555 1_555
C10 O4 1_555 1_555
C11 C10 1_555 1_555
C12 C8 1_555 1_555
C13 C2 1_555 1_555
C14 C13 1_555 1_555
C15 C14 1_555 1_555
C16 C15 1_555 1_555
O5 C16 1_555 1_555
C17 O5 1_555 1_555
C18 C16 1_555 1_555
C19 C18 1_555 1_555
C20 N1 1_555 1_555
C21 N2 1_555 1_555
C22 C21 1_555 1_555
C23 C22 1_555 1_555
C24 C23 1_555 1_555
C25 C24 1_555 1_555
C26 C25 1_555 1_555
C27 C22 1_555 1_555
H2 C1 1_555 1_555
H3 C1 1_555 1_555
H4 C3 1_555 1_555
H5 C4 1_555 1_555
H6 C4 1_555 1_555
H7 C5 1_555 1_555
H8 C5 1_555 1_555
H9 C7 1_555 1_555
H10 C7 1_555 1_555
H11 C7 1_555 1_555
H12 C8 1_555 1_555
H13 C10 1_555 1_555
H14 C10 1_555 1_555
H15 C11 1_555 1_555
H16 C11 1_555 1_555
H17 C11 1_555 1_555
H18 C12 1_555 1_555
H19 C12 1_555 1_555
H20 C15 1_555 1_555
H21 C17 1_555 1_555
H22 C17 1_555 1_555
H23 C17 1_555 1_555
H24 C18 1_555 1_555
H25 C19 1_555 1_555
H26 C21 1_555 1_555
H27 C21 1_555 1_555
H28 C23 1_555 1_555
H29 C24 1_555 1_555
H30 C25 1_555 1_555
H31 C26 1_555 1_555
H32 C27 1_555 1_555
C12 C13 1_555 1_555
C14 C20 1_555 1_555
C19 C20 1_555 1_555
C26 C27 1_555 1_555

#END
