
#######################################################################
#
#                 Cambridge Crystallographic Data Centre
#                                CCDC 
#
#######################################################################
#
# If this CIF has been generated from an entry in the Cambridge 
# Structural Database, then it will include bibliographic, chemical, 
# crystal, experimental, refinement or atomic coordinate data resulting 
# from the CCDC's data processing and validation procedures.
#
#######################################################################

data_EMOTUV
_chemical_compound_source        'Tupistra chinensis'
_chemical_name_common            '3-Epineoruscogenin methanol solvate'
_chemical_formula_moiety         'C27 H40 O4,C1 H4 O1'
_chemical_name_systematic        
'Spirost-5,25(27)dien-1\b,3\a-diol methanol solvate'
_symmetry_cell_setting           monoclinic
_symmetry_space_group_name_H-M   'C 2'
_symmetry_Int_Tables_number      5
_space_group_name_Hall           'C 2y'
loop_
_symmetry_equiv_pos_site_id
_symmetry_equiv_pos_as_xyz
1 x,y,z
2 -x,y,-z
3 1/2+x,1/2+y,z
4 1/2-x,1/2+y,-z
_cell_length_a                   20.172(3)
_cell_length_b                   7.740(5)
_cell_length_c                   18.403(4)
_cell_angle_alpha                90
_cell_angle_beta                 115.14(1)
_cell_angle_gamma                90
_cell_volume                     2601.1
_exptl_crystal_colour            colorless
_exptl_crystal_description       prism
_cell_formula_units_Z            4
_exptl_crystal_recrystallization_method chloroform/methanol
loop_
_atom_site_label
_atom_site_type_symbol
_atom_site_fract_x
_atom_site_fract_y
_atom_site_fract_z
O1 O 0.0657(1) 0.0000 0.3734(1)
O2 O 0.1801(1) 0.4810(4) 0.4640(1)
O3 O -0.2056(1) 0.3422(5) -0.1129(1)
O4 O -0.1891(1) 0.1870(5) -0.2122(1)
C1 C 0.0790(2) 0.1828(6) 0.3785(2)
C2 C 0.1045(2) 0.2377(6) 0.4653(2)
C3 C 0.1185(2) 0.4302(6) 0.4785(2)
C4 C 0.0524(2) 0.5305(6) 0.4214(2)
C5 C 0.0271(2) 0.4712(5) 0.3352(2)
C6 C 0.0217(2) 0.5857(5) 0.2799(2)
C7 C -0.0051(2) 0.5472(6) 0.1925(2)
C8 C -0.0481(2) 0.3775(5) 0.1713(2)
C9 C -0.0031(2) 0.2363(5) 0.2301(2)
C10 C 0.0106(2) 0.2797(5) 0.3180(2)
C11 C -0.0364(3) 0.0561(6) 0.2015(2)
C12 C -0.0559(3) 0.0157(6) 0.1135(2)
C13 C -0.1060(2) 0.1535(6) 0.0588(2)
C14 C -0.0663(2) 0.3270(6) 0.0852(2)
C15 C -0.1116(2) 0.4487(6) 0.0162(2)
C16 C -0.1296(2) 0.3358(7) -0.0574(2)
C17 C -0.1161(2) 0.1464(6) -0.0295(2)
C18 C -0.1797(2) 0.1539(7) 0.0636(2)
C19 C -0.0563(2) 0.2325(6) 0.3345(2)
C20 C -0.1808(2) 0.0464(6) -0.0934(2)
C21 C -0.1598(3) -0.1152(7) -0.1253(3)
C22 C -0.2207(2) 0.1853(6) -0.1560(2)
C23 C -0.3028(2) 0.1645(7) -0.1997(2)
C24 C -0.3373(2) 0.3019(8) -0.2644(2)
C25 C -0.2979(2) 0.3117(8) -0.3167(2)
C26 C -0.2173(2) 0.3236(7) -0.2702(2)
C27 C -0.3302(3) 0.327(1) -0.3951(3)
H1 H 0.1180 0.2038 0.3637
H2 H 0.0679 0.2063 0.4825
H3 H 0.1486 0.1782 0.4968
H4 H 0.1277 0.4581 0.5322
H5 H 0.0135 0.5149 0.4369
H6 H 0.0648 0.6496 0.4247
H7 H 0.0360 0.7011 0.2970
H8 H -0.0361 0.6385 0.1623
H9 H 0.0356 0.5380 0.1795
H10 H -0.0926 0.3933 0.1766
H11 H 0.0436 0.2359 0.2290
H12 H -0.0020 -0.0278 0.2336
H13 H -0.0798 0.0473 0.2095
H14 H -0.0122 0.0110 0.1058
H15 H -0.0800 -0.0930 0.1001
H16 H -0.0206 0.3135 0.0824
H17 H -0.1548 0.4852 0.0203
H18 H -0.0838 0.5470 0.0151
H19 H -0.0997 0.3664 -0.0837
H20 H -0.0718 0.1080 -0.0306
H21 H -0.1723 0.1759 0.1173
H22 H -0.2101 0.2413 0.0294
H23 H -0.2026 0.0445 0.0470
H24 H -0.0456 0.2569 0.3889
H25 H -0.0974 0.2987 0.3004
H26 H -0.0669 0.1130 0.3242
H27 H -0.2123 0.0123 -0.0695
H28 H -0.2027 -0.1685 -0.1641
H29 H -0.1281 -0.0852 -0.1494
H30 H -0.1355 -0.1935 -0.0823
H31 H -0.3132 0.0537 -0.2243
H32 H -0.3233 0.1731 -0.1620
H33 H -0.3872 0.2731 -0.2961
H34 H -0.3347 0.4108 -0.2395
H35 H -0.2057 0.4313 -0.2429
H36 H -0.1949 0.3169 -0.3063
H37 H -0.3821 0.3316 -0.4220
H38 H -0.3018 0.3322 -0.4249
H39 H 0.1221 -0.0486 0.3965
H40 H 0.2225 0.4205 0.4972
O5 O -0.2998(1) 0.3075(5) -0.5810(1)
C28 C -0.2929(3) 0.2989(9) -0.6551(3)
H41 H -0.3096 0.1931 -0.5626
H42 H -0.2975 0.4217 -0.6760
H43 H -0.3302 0.2504 -0.6991
H44 H -0.2334 0.2795 -0.6398
loop_
_geom_bond_atom_site_label_1
_geom_bond_atom_site_label_2
_geom_bond_site_symmetry_1
_geom_bond_site_symmetry_2
O1 C1 1_555 1_555
O2 C3 1_555 1_555
O3 C16 1_555 1_555
O4 C22 1_555 1_555
O5 C28 1_555 1_555
C1 C2 1_555 1_555
C2 C3 1_555 1_555
C3 C4 1_555 1_555
C4 C5 1_555 1_555
C5 C6 1_555 1_555
C6 C7 1_555 1_555
C7 C8 1_555 1_555
C8 C9 1_555 1_555
C9 C10 1_555 1_555
C10 C1 1_555 1_555
C11 C9 1_555 1_555
C12 C11 1_555 1_555
C13 C12 1_555 1_555
C14 C8 1_555 1_555
C15 C14 1_555 1_555
C16 C15 1_555 1_555
C17 C13 1_555 1_555
C18 C13 1_555 1_555
C19 C10 1_555 1_555
C20 C17 1_555 1_555
C21 C20 1_555 1_555
C22 O3 1_555 1_555
C23 C22 1_555 1_555
C24 C23 1_555 1_555
C25 C24 1_555 1_555
C26 O4 1_555 1_555
C27 C25 1_555 1_555
C28 H42 1_555 1_555
H1 C1 1_555 1_555
H2 C2 1_555 1_555
H3 C2 1_555 1_555
H4 C3 1_555 1_555
H5 C4 1_555 1_555
H6 C4 1_555 1_555
H7 C6 1_555 1_555
H8 C7 1_555 1_555
H9 C7 1_555 1_555
H10 C8 1_555 1_555
H11 C9 1_555 1_555
H12 C11 1_555 1_555
H13 C11 1_555 1_555
H14 C12 1_555 1_555
H15 C12 1_555 1_555
H16 C14 1_555 1_555
H17 C15 1_555 1_555
H18 C15 1_555 1_555
H19 C16 1_555 1_555
H20 C17 1_555 1_555
H21 C18 1_555 1_555
H22 C18 1_555 1_555
H23 C18 1_555 1_555
H24 C19 1_555 1_555
H25 C19 1_555 1_555
H26 C19 1_555 1_555
H27 C20 1_555 1_555
H28 C21 1_555 1_555
H29 C21 1_555 1_555
H30 C21 1_555 1_555
H31 C23 1_555 1_555
H32 C23 1_555 1_555
H33 C24 1_555 1_555
H34 C24 1_555 1_555
H35 C26 1_555 1_555
H36 C26 1_555 1_555
H37 C27 1_555 1_555
H38 C27 1_555 1_555
H39 O1 1_555 1_555
H40 O2 1_555 1_555
H41 O5 1_555 1_555
H43 C28 1_555 1_555
H44 C28 1_555 1_555
C5 C10 1_555 1_555
C13 C14 1_555 1_555
C16 C17 1_555 1_555
C20 C22 1_555 1_555
C25 C26 1_555 1_555

#END
