
#######################################################################
#
#                 Cambridge Crystallographic Data Centre
#                                CCDC 
#
#######################################################################
#
# If this CIF has been generated from an entry in the Cambridge 
# Structural Database, then it will include bibliographic, chemical, 
# crystal, experimental, refinement or atomic coordinate data resulting 
# from the CCDC's data processing and validation procedures.
#
#######################################################################

data_EMOYUB
_chemical_formula_moiety         'C16 H13 N5 O2 S1,2(C2 H4 O2)'
_chemical_name_systematic        
'2-Methyl-N-(3-nitrophenyl)-4,5-dihydro[1,3]thiazolo[4,5-h]quinazolin-8-amine acetic acid solvate'
_symmetry_cell_setting           monoclinic
_symmetry_space_group_name_H-M   'P 21/c'
_symmetry_Int_Tables_number      14
_space_group_name_Hall           '-P 2ybc'
loop_
_symmetry_equiv_pos_site_id
_symmetry_equiv_pos_as_xyz
1 x,y,z
2 -x,1/2+y,1/2-z
3 -x,-y,-z
4 x,1/2-y,1/2+z
_cell_length_a                   15.3105(12)
_cell_length_b                   20.0426(16)
_cell_length_c                   6.9756(6)
_cell_angle_alpha                90
_cell_angle_beta                 91.396(3)
_cell_angle_gamma                90
_cell_volume                     2139.91
_cell_formula_units_Z            4
loop_
_atom_site_label
_atom_site_type_symbol
_atom_site_fract_x
_atom_site_fract_y
_atom_site_fract_z
N1 N 0.6484(2) 0.2582(1) 0.4966(4)
C1 C 0.7309(2) 0.2420(2) 0.4619(5)
N2 N 0.7919(2) 0.2903(1) 0.4301(4)
N3 N 0.7622(2) 0.1790(1) 0.4486(4)
C2 C 0.7063(2) 0.1293(2) 0.4844(5)
C3 C 0.6205(2) 0.1398(2) 0.5313(5)
C4 C 0.5577(2) 0.0863(2) 0.5901(6)
C5 C 0.4635(2) 0.0991(2) 0.5251(6)
C6 C 0.4409(2) 0.1710(2) 0.5548(5)
N4 N 0.3562(2) 0.1933(1) 0.5653(4)
C7 C 0.3541(2) 0.2589(2) 0.5745(6)
S1 S 0.4545(1) 0.2973(1) 0.5660(1)
C8 C 0.5032(2) 0.2200(2) 0.5553(5)
C9 C 0.5941(2) 0.2071(2) 0.5290(5)
C10 C 0.7839(2) 0.3598(2) 0.4270(5)
C11 C 0.7123(2) 0.3949(2) 0.4944(5)
C12 C 0.7131(2) 0.4639(2) 0.4793(5)
N5 N 0.6362(2) 0.5000(1) 0.5506(5)
O1 O 0.5807(2) 0.4691(1) 0.6373(4)
O2 O 0.6322(2) 0.5602(1) 0.5210(5)
C13 C 0.7805(3) 0.4992(2) 0.4026(6)
C14 C 0.8511(3) 0.4640(2) 0.3403(6)
C15 C 0.8540(2) 0.3950(2) 0.3516(6)
C16 C 0.2711(3) 0.2980(2) 0.5888(7)
H1 H 0.8495(11) 0.2746(18) 0.3920(50)
H2 H 0.7268 0.0847 0.4771
H3 H 0.5600 0.0822 0.7316
H4 H 0.5768 0.0431 0.5362
H5 H 0.4559 0.0876 0.3877
H6 H 0.4237 0.0706 0.5992
H7 H 0.6644 0.3722 0.5491
H8 H 0.7783 0.5465 0.3931
H9 H 0.8991 0.4873 0.2882
H10 H 0.9037 0.3716 0.3081
H11 H 0.2622 0.3248 0.4725
H12 H 0.2750 0.3275 0.7007
H13 H 0.2219 0.2672 0.6025
O3 O 0.9510(2) 0.2434(1) 0.2768(5)
C17 C 0.9693(2) 0.1847(2) 0.2737(6)
O4 O 0.9196(2) 0.1376(1) 0.3439(4)
C18 C 1.0508(3) 0.1592(3) 0.1861(8)
H14 H 0.8650(20) 0.1580(30) 0.3830(90)
H15 H 1.0622 0.1845 0.0691
H16 H 1.0436 0.1119 0.1544
H17 H 1.0999 0.1646 0.2773
O5 O 0.2514(2) 0.0327(2) 0.5893(5)
C19 C 0.1912(3) 0.0689(2) 0.6177(6)
O6 O 0.1981(2) 0.1341(2) 0.6165(6)
C20 C 0.1000(3) 0.0462(2) 0.6583(7)
H18 H 0.2587(16) 0.1410(40) 0.578(10)
H19 H 0.0982 -0.0027 0.6607
H20 H 0.0598 0.0628 0.5578
H21 H 0.0826 0.0637 0.7829
loop_
_geom_bond_atom_site_label_1
_geom_bond_atom_site_label_2
_geom_bond_site_symmetry_1
_geom_bond_site_symmetry_2
N1 C1 1_555 1_555
C1 N2 1_555 1_555
N2 C10 1_555 1_555
N3 C1 1_555 1_555
C2 N3 1_555 1_555
C3 C2 1_555 1_555
C4 C3 1_555 1_555
C5 C4 1_555 1_555
C6 C5 1_555 1_555
N4 C6 1_555 1_555
C7 N4 1_555 1_555
S1 C7 1_555 1_555
C8 C6 1_555 1_555
C9 N1 1_555 1_555
C10 C11 1_555 1_555
C11 C12 1_555 1_555
C12 N5 1_555 1_555
N5 O1 1_555 1_555
O2 N5 1_555 1_555
C13 C12 1_555 1_555
C14 C13 1_555 1_555
C15 C10 1_555 1_555
C16 C7 1_555 1_555
O3 C17 1_555 1_555
C17 O4 1_555 1_555
O4 H14 1_555 1_555
C18 C17 1_555 1_555
O5 C19 1_555 1_555
C19 O6 1_555 1_555
O6 H18 1_555 1_555
C20 C19 1_555 1_555
H1 N2 1_555 1_555
H2 C2 1_555 1_555
H3 C4 1_555 1_555
H4 C4 1_555 1_555
H5 C5 1_555 1_555
H6 C5 1_555 1_555
H7 C11 1_555 1_555
H8 C13 1_555 1_555
H9 C14 1_555 1_555
H10 C15 1_555 1_555
H11 C16 1_555 1_555
H12 C16 1_555 1_555
H13 C16 1_555 1_555
H15 C18 1_555 1_555
H16 C18 1_555 1_555
H17 C18 1_555 1_555
H19 C20 1_555 1_555
H20 C20 1_555 1_555
H21 C20 1_555 1_555
C3 C9 1_555 1_555
S1 C8 1_555 1_555
C8 C9 1_555 1_555
C14 C15 1_555 1_555

#END
