
#######################################################################
#
#                 Cambridge Crystallographic Data Centre
#                                CCDC 
#
#######################################################################
#
# If this CIF has been generated from an entry in the Cambridge 
# Structural Database, then it will include bibliographic, chemical, 
# crystal, experimental, refinement or atomic coordinate data resulting 
# from the CCDC's data processing and validation procedures.
#
#######################################################################

data_EMOZAI
_chemical_formula_moiety         'C16 H12 N4 S1'
_chemical_name_systematic        
2-Methyl-N-phenyl[1,3]thiazolo[4,5-h]quinazolin-8-amine
_symmetry_cell_setting           monoclinic
_symmetry_space_group_name_H-M   'P 21/c'
_symmetry_Int_Tables_number      14
_space_group_name_Hall           '-P 2ybc'
loop_
_symmetry_equiv_pos_site_id
_symmetry_equiv_pos_as_xyz
1 x,y,z
2 -x,1/2+y,1/2-z
3 -x,-y,-z
4 x,1/2-y,1/2+z
_cell_length_a                   13.7062(8)
_cell_length_b                   7.5467(4)
_cell_length_c                   13.3895(8)
_cell_angle_alpha                90
_cell_angle_beta                 104.147(2)
_cell_angle_gamma                90
_cell_volume                     1342.96
_cell_formula_units_Z            4
loop_
_atom_site_label
_atom_site_type_symbol
_atom_site_fract_x
_atom_site_fract_y
_atom_site_fract_z
N1 N 0.7587(1) 0.0331(2) 0.1364(1)
C1 C 0.6627(2) 0.0461(3) 0.0898(2)
N2 N 0.5899(1) -0.0092(3) 0.1364(1)
N3 N 0.6229(1) 0.1138(3) -0.0075(1)
C2 C 0.6871(2) 0.1856(3) -0.0535(2)
C3 C 0.7920(2) 0.1901(3) -0.0109(2)
C4 C 0.8628(2) 0.2706(3) -0.0589(2)
C5 C 0.9636(2) 0.2636(3) -0.0147(2)
C6 C 0.9975(2) 0.1731(3) 0.0802(2)
N4 N 1.0977(1) 0.1548(2) 0.1326(1)
C7 C 1.1050(2) 0.0666(3) 0.2173(2)
S1 S 0.9916(1) -0.0026(1) 0.2422(1)
C8 C 0.9288(2) 0.0961(3) 0.1282(2)
C9 C 0.8244(2) 0.1039(3) 0.0852(2)
C10 C 0.5970(2) -0.0557(3) 0.2396(2)
C11 C 0.6837(2) -0.1206(3) 0.3069(2)
C12 C 0.6802(2) -0.1701(3) 0.4057(2)
C13 C 0.5934(2) -0.1552(3) 0.4393(2)
C14 C 0.5071(2) -0.0879(3) 0.3725(2)
C15 C 0.5087(2) -0.0386(3) 0.2738(2)
C16 C 1.2026(2) 0.0226(4) 0.2920(2)
H1 H 0.5214(8) -0.0050(40) 0.0923(17)
H2 H 0.6617 0.2377 -0.1193
H3 H 0.8394 0.3303 -0.1228
H4 H 1.0103 0.3183 -0.0471
H5 H 0.7445 -0.1309 0.2853
H6 H 0.7392 -0.2153 0.4513
H7 H 0.5923 -0.1904 0.5071
H8 H 0.4469 -0.0760 0.3951
H9 H 0.4495 0.0073 0.2287
H10 H 1.2528 -0.0092 0.2540
H11 H 1.1927 -0.0774 0.3351
H12 H 1.2263 0.1258 0.3357
loop_
_geom_bond_atom_site_label_1
_geom_bond_atom_site_label_2
_geom_bond_site_symmetry_1
_geom_bond_site_symmetry_2
N1 C1 1_555 1_555
C1 N2 1_555 1_555
N2 C10 1_555 1_555
N3 C1 1_555 1_555
C2 N3 1_555 1_555
C3 C2 1_555 1_555
C4 C3 1_555 1_555
C5 C4 1_555 1_555
C6 C5 1_555 1_555
N4 C6 1_555 1_555
C7 N4 1_555 1_555
S1 C7 1_555 1_555
C8 C6 1_555 1_555
C9 N1 1_555 1_555
C10 C11 1_555 1_555
C11 C12 1_555 1_555
C12 C13 1_555 1_555
C13 C14 1_555 1_555
C14 C15 1_555 1_555
C15 C10 1_555 1_555
C16 C7 1_555 1_555
H1 N2 1_555 1_555
H2 C2 1_555 1_555
H3 C4 1_555 1_555
H4 C5 1_555 1_555
H5 C11 1_555 1_555
H6 C12 1_555 1_555
H7 C13 1_555 1_555
H8 C14 1_555 1_555
H9 C15 1_555 1_555
H10 C16 1_555 1_555
H11 C16 1_555 1_555
H12 C16 1_555 1_555
C3 C9 1_555 1_555
S1 C8 1_555 1_555
C8 C9 1_555 1_555

#END
