
#######################################################################
#
#                 Cambridge Crystallographic Data Centre
#                                CCDC 
#
#######################################################################
#
# If this CIF has been generated from an entry in the Cambridge 
# Structural Database, then it will include bibliographic, chemical, 
# crystal, experimental, refinement or atomic coordinate data resulting 
# from the CCDC's data processing and validation procedures.
#
#######################################################################

data_EMUBAQ
_chemical_formula_moiety         'C25 H30 N2 O2'
_chemical_name_systematic        
'Benzyl 3-(2-t-butyl-1H-indol-3-yl)piperidine-1-carboxylate'
_symmetry_cell_setting           orthorhombic
_symmetry_space_group_name_H-M   'P 21 21 21'
_symmetry_Int_Tables_number      19
_space_group_name_Hall           'P 2ac 2ab'
loop_
_symmetry_equiv_pos_site_id
_symmetry_equiv_pos_as_xyz
1 x,y,z
2 1/2-x,-y,1/2+z
3 -x,1/2+y,1/2-z
4 1/2+x,1/2-y,-z
_cell_length_a                   9.070(2)
_cell_length_b                   11.530(2)
_cell_length_c                   20.816(3)
_cell_angle_alpha                90
_cell_angle_beta                 90
_cell_angle_gamma                90
_cell_volume                     2176.88
_cell_formula_units_Z            4
loop_
_atom_site_label
_atom_site_type_symbol
_atom_site_fract_x
_atom_site_fract_y
_atom_site_fract_z
C1 C 0.7856(2) 0.6186(1) 0.1811(1)
C2 C 0.6878(2) 0.7094(1) 0.2015(1)
C3 C 0.6074(2) 0.7975(2) 0.1704(1)
C4 C 0.5256(2) 0.8747(2) 0.2062(1)
C5 C 0.5196(2) 0.8665(2) 0.2735(1)
C6 C 0.5951(2) 0.7805(2) 0.3058(1)
C7 C 0.6797(2) 0.7038(1) 0.2694(1)
N1 N 0.7669(2) 0.6128(1) 0.2884(1)
C8 C 0.8317(2) 0.5608(1) 0.2358(1)
C9 C 0.9410(2) 0.4618(2) 0.2446(1)
C10 C 1.0958(2) 0.5054(2) 0.2283(1)
C11 C 0.9007(2) 0.3553(2) 0.2035(1)
C12 C 0.9413(3) 0.4196(2) 0.3144(1)
C13 C 0.8232(2) 0.5904(2) 0.1125(1)
C14 C 0.6890(2) 0.5450(2) 0.0771(1)
N2 N 0.7246(2) 0.5142(1) 0.0108(1)
C15 C 0.7991(2) 0.6041(2) -0.0266(1)
C16 C 0.9375(2) 0.6441(2) 0.0072(1)
C17 C 0.9060(2) 0.6785(2) 0.0765(1)
C18 C 0.6728(2) 0.4180(1) -0.0184(1)
O1 O 0.6968(2) 0.3910(1) -0.0742(1)
O2 O 0.5910(1) 0.3528(1) 0.0217(1)
C19 C 0.5248(2) 0.2491(2) -0.0060(1)
C20 C 0.6295(2) 0.1490(1) -0.0026(1)
C21 C 0.6897(2) 0.1019(2) -0.0582(1)
C22 C 0.7876(2) 0.0109(2) -0.0549(1)
C23 C 0.8270(2) -0.0337(2) 0.0039(1)
C24 C 0.7682(2) 0.0117(2) 0.0602(1)
C25 C 0.6685(2) 0.1031(2) 0.0570(1)
H1 H 0.6096 0.8037 0.1249
H2 H 0.4722 0.9344 0.1851
H3 H 0.4628 0.9210 0.2972
H4 H 0.5897 0.7738 0.3512
H5 H 1.0972 0.5347 0.1841
H6 H 1.1664 0.4415 0.2324
H7 H 1.1230 0.5680 0.2579
H8 H 0.8013 0.3289 0.2147
H9 H 0.9716 0.2929 0.2116
H10 H 0.9036 0.3764 0.1579
H11 H 0.9638 0.4847 0.3431
H12 H 1.0163 0.3590 0.3197
H13 H 0.8442 0.3879 0.3252
H14 H 0.8915 0.5225 0.1153
H15 H 0.6504 0.4758 0.0997
H16 H 0.6109 0.6049 0.0773
H17 H 0.7318 0.6709 -0.0327
H18 H 0.8248 0.5732 -0.0696
H19 H 0.9796 0.7112 -0.0161
H20 H 1.0113 0.5808 0.0066
H21 H 1.0008 0.6931 0.0986
H22 H 0.8493 0.7519 0.0766
H23 H 0.4982 0.2641 -0.0513
H24 H 0.4334 0.2297 0.0177
H25 H 0.6632 0.1329 -0.0988
H26 H 0.8277 -0.0211 -0.0931
H27 H 0.8951 -0.0962 0.0061
H28 H 0.7960 -0.0195 0.1006
H29 H 0.6272 0.1342 0.0952
H30 H 0.7810(20) 0.5967(18) 0.3273(11)
loop_
_geom_bond_atom_site_label_1
_geom_bond_atom_site_label_2
_geom_bond_site_symmetry_1
_geom_bond_site_symmetry_2
C1 C2 1_555 1_555
C2 C3 1_555 1_555
C3 C4 1_555 1_555
C4 C5 1_555 1_555
C5 C6 1_555 1_555
C6 C7 1_555 1_555
C7 C2 1_555 1_555
N1 C7 1_555 1_555
C8 C1 1_555 1_555
C9 C8 1_555 1_555
C10 C9 1_555 1_555
C11 C9 1_555 1_555
C12 C9 1_555 1_555
C13 C1 1_555 1_555
C14 C13 1_555 1_555
N2 C14 1_555 1_555
C15 N2 1_555 1_555
C16 C15 1_555 1_555
C17 C13 1_555 1_555
C18 N2 1_555 1_555
O1 C18 1_555 1_555
O2 C18 1_555 1_555
C19 O2 1_555 1_555
C20 C19 1_555 1_555
C21 C20 1_555 1_555
C22 C21 1_555 1_555
C23 C22 1_555 1_555
C24 C23 1_555 1_555
C25 C20 1_555 1_555
H1 C3 1_555 1_555
H2 C4 1_555 1_555
H3 C5 1_555 1_555
H4 C6 1_555 1_555
H5 C10 1_555 1_555
H6 C10 1_555 1_555
H7 C10 1_555 1_555
H8 C11 1_555 1_555
H9 C11 1_555 1_555
H10 C11 1_555 1_555
H11 C12 1_555 1_555
H12 C12 1_555 1_555
H13 C12 1_555 1_555
H14 C13 1_555 1_555
H15 C14 1_555 1_555
H16 C14 1_555 1_555
H17 C15 1_555 1_555
H18 C15 1_555 1_555
H19 C16 1_555 1_555
H20 C16 1_555 1_555
H21 C17 1_555 1_555
H22 C17 1_555 1_555
H23 C19 1_555 1_555
H24 C19 1_555 1_555
H25 C21 1_555 1_555
H26 C22 1_555 1_555
H27 C23 1_555 1_555
H28 C24 1_555 1_555
H29 C25 1_555 1_555
H30 N1 1_555 1_555
N1 C8 1_555 1_555
C16 C17 1_555 1_555
C24 C25 1_555 1_555

#END
