
#######################################################################
#
#                 Cambridge Crystallographic Data Centre
#                                CCDC 
#
#######################################################################
#
# If this CIF has been generated from an entry in the Cambridge 
# Structural Database, then it will include bibliographic, chemical, 
# crystal, experimental, refinement or atomic coordinate data resulting 
# from the CCDC's data processing and validation procedures.
#
#######################################################################

data_EMUHOK
_chemical_formula_moiety         'C9 H20 N3 1+,Cl1 1-'
_chemical_name_systematic        
'4-(Dimethylhydrazono)-N,N,3-trimethylbut-2-en-1-aminium chloride'
_symmetry_cell_setting           monoclinic
_symmetry_space_group_name_H-M   'P 21/c'
_symmetry_Int_Tables_number      14
_space_group_name_Hall           '-P 2ybc'
loop_
_symmetry_equiv_pos_site_id
_symmetry_equiv_pos_as_xyz
1 x,y,z
2 -x,1/2+y,1/2-z
3 -x,-y,-z
4 x,1/2-y,1/2+z
_cell_length_a                   8.9770(18)
_cell_length_b                   7.0794(15)
_cell_length_c                   18.965(4)
_cell_angle_alpha                90
_cell_angle_beta                 101.939(4)
_cell_angle_gamma                90
_cell_volume                     1179.19
_exptl_crystal_colour            colorless
_exptl_crystal_description       platelet
_cell_formula_units_Z            4
loop_
_atom_site_label
_atom_site_type_symbol
_atom_site_fract_x
_atom_site_fract_y
_atom_site_fract_z
C1 C 0.27011(12) 0.95556(16) 0.20252(6)
H1 H 0.2544 1.0284 0.1595
C2 C 0.34972(12) 0.77471(15) 0.20773(6)
C3 C 0.40558(12) 0.70044(15) 0.15303(6)
H2 H 0.4510 0.5790 0.1609
C4 C 0.40356(12) 0.78902(15) 0.08124(6)
H3 H 0.5045 0.7729 0.0687
H4 H 0.3839 0.9261 0.0841
C5 C 0.36837(15) 0.67063(18) 0.27816(6)
H5 H 0.4094 0.5443 0.2730
H6 H 0.2692 0.6594 0.2918
H7 H 0.4386 0.7404 0.3156
C6 C 0.13530(17) 1.25528(18) 0.32348(7)
H8 H 0.1280 1.1562 0.3587
H9 H 0.0484 1.3413 0.3195
H10 H 0.2302 1.3260 0.3393
C7 C 0.11870(16) 1.29494(19) 0.19230(7)
H11 H 0.2198 1.3349 0.1863
H12 H 0.0589 1.4062 0.1998
H13 H 0.0668 1.2276 0.1490
C8 C 0.12639(13) 0.74822(18) 0.03186(7)
H14 H 0.1125 0.8856 0.0303
H15 H 0.1117 0.6998 0.0784
H16 H 0.0519 0.6898 -0.0071
C9 C 0.30531(15) 0.75982(18) -0.04974(6)
H17 H 0.2327 0.6923 -0.0869
H18 H 0.4094 0.7291 -0.0542
H19 H 0.2887 0.8962 -0.0558
N1 N 0.22149(12) 1.01337(14) 0.25864(5)
N2 N 0.13427(15) 1.17047(18) 0.25433(6)
N3 N 0.28273(10) 0.70194(13) 0.02275(5)
H20 H 0.2940 0.5715 0.0261
Cl1 Cl 0.27658(3) 0.27114(4) 0.024117(15)
loop_
_geom_bond_atom_site_label_1
_geom_bond_atom_site_label_2
_geom_bond_site_symmetry_1
_geom_bond_site_symmetry_2
C1 H1 1_555 1_555
C2 C1 1_555 1_555
C3 C2 1_555 1_555
H2 C3 1_555 1_555
C4 C3 1_555 1_555
H3 C4 1_555 1_555
H4 C4 1_555 1_555
C5 C2 1_555 1_555
H5 C5 1_555 1_555
H6 C5 1_555 1_555
H7 C5 1_555 1_555
C6 H8 1_555 1_555
H9 C6 1_555 1_555
H10 C6 1_555 1_555
C7 H11 1_555 1_555
H12 C7 1_555 1_555
H13 C7 1_555 1_555
C8 H14 1_555 1_555
H15 C8 1_555 1_555
H16 C8 1_555 1_555
C9 H17 1_555 1_555
H18 C9 1_555 1_555
H19 C9 1_555 1_555
N1 C1 1_555 1_555
N2 C6 1_555 1_555
N3 C4 1_555 1_555
H20 N3 1_555 1_555
C7 N2 1_555 1_555
C8 N3 1_555 1_555
C9 N3 1_555 1_555
N1 N2 1_555 1_555

#END
