
#######################################################################
#
#                 Cambridge Crystallographic Data Centre
#                                CCDC 
#
#######################################################################
#
# If this CIF has been generated from an entry in the Cambridge 
# Structural Database, then it will include bibliographic, chemical, 
# crystal, experimental, refinement or atomic coordinate data resulting 
# from the CCDC's data processing and validation procedures.
#
#######################################################################

data_EMUJED
_chemical_formula_moiety         'C52 H70 K2 O8,C52 H68 K2 O7,4(C2 H3 N1)'
_chemical_name_systematic        
"(\m-5,11,17,23-tetra-t-butyl-25,27-dioxy-26,28-(2,2'-{oxybis[(ethane-2,1-diyl)oxy]}diethoxy)calix(4)arene)-aqua-di-potassium (\m-5,11,17,23-tetra-t-butyl-25,27-dioxy-26,28-(2,2'-{oxybis[(ethane-2,1-diyl)oxy]}diethoxy)calix(4)arene)-di-potassium acetonitrile solvate"
_symmetry_cell_setting           monoclinic
_symmetry_space_group_name_H-M   'P 21'
_symmetry_Int_Tables_number      4
_space_group_name_Hall           'P 2yb'
loop_
_symmetry_equiv_pos_site_id
_symmetry_equiv_pos_as_xyz
1 x,y,z
2 -x,1/2+y,-z
_cell_length_a                   13.4859(10)
_cell_length_b                   20.6897(15)
_cell_length_c                   20.2255(15)
_cell_angle_alpha                90
_cell_angle_beta                 109.1440(10)
_cell_angle_gamma                90
_cell_volume                     5331.21
_exptl_crystal_colour            colorless
_exptl_crystal_description       block
_cell_formula_units_Z            2
loop_
_atom_site_label
_atom_site_type_symbol
_atom_site_fract_x
_atom_site_fract_y
_atom_site_fract_z
K1 K 0.66871(8) 0.83619(5) 0.28120(5)
K2 K 0.82140(8) 0.66644(5) 0.22783(6)
O1 O 0.6999(2) 0.61360(15) 0.28530(18)
O2 O 0.7987(2) 0.79159(16) 0.22757(18)
O3 O 0.5663(2) 0.78181(14) 0.15046(17)
O4 O 0.5078(3) 0.90716(18) 0.1640(2)
O5 O 0.6138(3) 0.96971(17) 0.2910(2)
O6 O 0.7964(3) 0.92395(18) 0.3980(2)
O7 O 0.8496(2) 0.79772(15) 0.38743(17)
C1 C 0.6478(3) 0.6601(2) 0.3034(2)
C2 C 0.6854(3) 0.6908(2) 0.3708(2)
C3 C 0.6204(4) 0.7336(2) 0.3903(3)
H1 H 0.6456 0.7523 0.4345
C4 C 0.5193(3) 0.7502(2) 0.3472(2)
C5 C 0.4873(4) 0.7253(2) 0.2786(3)
H2 H 0.4224 0.7375 0.2474
C6 C 0.5508(3) 0.6827(2) 0.2563(2)
C7 C 0.5108(3) 0.6554(2) 0.1837(2)
H3 H 0.4421 0.6738 0.1600
H4 H 0.5016 0.6092 0.1870
C8 C 0.5803(3) 0.6671(2) 0.1381(2)
C9 C 0.6070(4) 0.7296(2) 0.1245(2)
C10 C 0.6788(3) 0.7403(2) 0.0886(2)
C11 C 0.7136(4) 0.6865(2) 0.0602(2)
H5 H 0.7582 0.6929 0.0341
C12 C 0.6840(4) 0.6246(2) 0.0696(3)
C13 C 0.6184(3) 0.6160(2) 0.1100(2)
H6 H 0.5999 0.5742 0.1182
C14 C 0.7195(4) 0.8073(2) 0.0811(3)
H7 H 0.7104 0.8146 0.0321
H8 H 0.6770 0.8388 0.0950
C15 C 0.8321(4) 0.8187(2) 0.1228(3)
C16 C 0.8661(4) 0.8102(2) 0.1978(3)
C17 C 0.9704(4) 0.8256(2) 0.2372(2)
C18 C 1.0371(3) 0.8528(2) 0.2044(3)
H9 H 1.1057 0.8628 0.2313
C19 C 1.0037(4) 0.8655(2) 0.1319(3)
C20 C 0.9031(3) 0.8458(2) 0.0923(2)
H10 H 0.8818 0.8505 0.0439
C21 C 1.0037(4) 0.8220(2) 0.3168(3)
H11 H 0.9646 0.8541 0.3331
H12 H 1.0775 0.8330 0.3361
C22 C 0.9864(3) 0.7557(2) 0.3448(2)
C23 C 0.9083(3) 0.7465(2) 0.3764(2)
C24 C 0.8836(3) 0.6845(2) 0.3939(2)
C25 C 0.9443(4) 0.6332(2) 0.3858(3)
H13 H 0.9293 0.5919 0.3980
C26 C 1.0289(4) 0.6416(2) 0.3594(3)
C27 C 1.0444(4) 0.7041(2) 0.3377(3)
H14 H 1.0966 0.7105 0.3177
C28 C 0.7927(3) 0.6735(2) 0.4216(2)
H15 H 0.7922 0.6283 0.4343
H16 H 0.8050 0.6988 0.4639
C29 C 0.4468(5) 0.7925(3) 0.3734(4)
C30 C 0.3938(7) 0.7517(4) 0.4113(6)
H17 H 0.4453 0.7321 0.4508
H18 H 0.3543 0.7187 0.3805
H19 H 0.3473 0.7779 0.4272
C31 C 0.5046(7) 0.8458(5) 0.4199(6)
H20 H 0.5562 0.8277 0.4604
H21 H 0.4560 0.8715 0.4342
H22 H 0.5387 0.8724 0.3949
C32 C 0.3686(9) 0.8284(5) 0.3174(5)
H23 H 0.4028 0.8499 0.2888
H24 H 0.3348 0.8598 0.3377
H25 H 0.3171 0.7988 0.2892
C33 C 1.0956(4) 0.5833(3) 0.3534(3)
C34 C 1.1647(7) 0.5981(4) 0.3117(6)
H26 H 1.1226 0.6055 0.2638
H27 H 1.2110 0.5624 0.3141
H28 H 1.2052 0.6361 0.3301
C35 C 1.1271(10) 0.5470(6) 0.4134(6)
H29 H 1.1985 0.5574 0.4398
H30 H 1.1220 0.5020 0.4015
H31 H 1.0829 0.5563 0.4410
C36 C 1.0146(8) 0.5371(4) 0.2971(7)
H32 H 0.9472 0.5577 0.2799
H33 H 1.0081 0.4968 0.3189
H34 H 1.0402 0.5291 0.2588
C37 C 1.0703(4) 0.9070(3) 0.0986(3)
C38 C 1.0127(5) 0.9715(3) 0.0758(4)
H35 H 0.9472 0.9638 0.0395
H36 H 1.0553 0.9997 0.0587
H37 H 0.9998 0.9912 0.1152
C39 C 1.0831(6) 0.8735(3) 0.0347(4)
H38 H 1.1263 0.8358 0.0494
H39 H 1.1157 0.9027 0.0111
H40 H 1.0154 0.8610 0.0035
C40 C 1.1771(4) 0.9236(4) 0.1498(3)
H41 H 1.1687 0.9464 0.1890
H42 H 1.2143 0.9504 0.1271
H43 H 1.2160 0.8846 0.1659
C41 C 0.7196(4) 0.5648(2) 0.0374(3)
C42 C 0.7781(5) 0.5827(2) -0.0115(3)
H44 H 0.8437 0.6025 0.0145
H45 H 0.7369 0.6124 -0.0461
H46 H 0.7913 0.5445 -0.0343
C43 C 0.6228(4) 0.5244(2) -0.0032(3)
H47 H 0.6452 0.4839 -0.0165
H48 H 0.5823 0.5475 -0.0444
H49 H 0.5805 0.5168 0.0260
C44 C 0.7877(5) 0.5225(3) 0.0973(3)
H50 H 0.7487 0.5113 0.1277
H51 H 0.8498 0.5458 0.1232
H52 H 0.8072 0.4838 0.0784
C45 C 0.9037(4) 0.8345(2) 0.4492(2)
H53 H 0.9657 0.8547 0.4440
H54 H 0.9256 0.8064 0.4898
C46 C 0.8303(4) 0.8851(3) 0.4585(3)
H55 H 0.7704 0.8647 0.4664
H56 H 0.8657 0.9116 0.4989
C47 C 0.7355(5) 0.9791(3) 0.4063(3)
H57 H 0.7805 1.0087 0.4401
H58 H 0.6805 0.9647 0.4240
C48 C 0.6884(5) 1.0126(3) 0.3399(4)
H59 H 0.6528 1.0513 0.3472
H60 H 0.7427 1.0253 0.3208
C49 C 0.5486(5) 1.0038(3) 0.2313(3)
H61 H 0.5897 1.0180 0.2026
H62 H 0.5188 1.0416 0.2460
C50 C 0.4640(5) 0.9599(3) 0.1908(3)
H63 H 0.4262 0.9436 0.2207
H64 H 0.4148 0.9834 0.1524
C51 C 0.4294(4) 0.8603(3) 0.1318(3)
H65 H 0.3706 0.8811 0.0971
H66 H 0.4041 0.8406 0.1668
C52 C 0.4756(4) 0.8088(2) 0.0971(3)
H67 H 0.4242 0.7753 0.0773
H68 H 0.4965 0.8277 0.0597
K3 K 0.81488(8) 0.16526(5) 0.22043(5)
K4 K 0.66182(8) 0.34026(5) 0.27594(6)
O8 O 0.7914(2) 0.38713(16) 0.22059(18)
O9 O 0.6847(2) 0.21328(16) 0.27264(18)
O10 O 0.6381(3) 0.20695(15) 0.11323(18)
O11 O 0.6871(3) 0.07946(18) 0.1005(2)
O12 O 0.8611(3) 0.02933(17) 0.2062(2)
O13 O 0.9693(3) 0.08919(19) 0.3364(2)
O14 O 0.9203(2) 0.21541(15) 0.35234(17)
O15 O 0.6727(3) 0.48129(16) 0.2643(2)
H69 H 0.6653 0.5109 0.2978
H70 H 0.6848 0.5036 0.2270
C53 C 0.8421(3) 0.3417(2) 0.2019(2)
C54 C 0.8050(3) 0.3130(2) 0.1342(3)
C55 C 0.8674(3) 0.2692(2) 0.1117(3)
H71 H 0.8422 0.2532 0.0663
C56 C 0.9664(4) 0.2492(2) 0.1558(3)
C57 C 0.9986(3) 0.2726(2) 0.2246(2)
H72 H 1.0620 0.2581 0.2557
C58 C 0.9397(3) 0.3166(2) 0.2486(2)
C59 C 0.9809(3) 0.3415(2) 0.3231(2)
H73 H 0.9932 0.3876 0.3219
H74 H 1.0481 0.3211 0.3466
C60 C 0.9090(3) 0.3297(2) 0.3661(2)
C61 C 0.8797(3) 0.2676(2) 0.3787(2)
C62 C 0.8060(4) 0.2570(2) 0.4132(3)
C63 C 0.7719(3) 0.3101(2) 0.4414(2)
H75 H 0.7244 0.3035 0.4652
C64 C 0.8050(3) 0.3731(2) 0.4359(2)
C65 C 0.8723(4) 0.3815(2) 0.3963(3)
H76 H 0.8933 0.4232 0.3899
C66 C 0.7624(4) 0.1902(2) 0.4182(3)
H77 H 0.8036 0.1586 0.4030
H78 H 0.7714 0.1813 0.4669
C67 C 0.6477(3) 0.18093(19) 0.3756(2)
C68 C 0.6186(4) 0.1920(2) 0.3022(3)
C69 C 0.5124(4) 0.1778(2) 0.2608(3)
C70 C 0.4444(4) 0.1497(2) 0.2914(3)
H79 H 0.3761 0.1403 0.2634
C71 C 0.4751(4) 0.1350(2) 0.3628(3)
C72 C 0.5756(4) 0.1530(2) 0.4022(3)
H80 H 0.5964 0.1457 0.4502
C73 C 0.4828(4) 0.1825(2) 0.1814(2)
H81 H 0.5234 0.1507 0.1660
H82 H 0.4093 0.1709 0.1608
C74 C 0.4993(3) 0.2477(2) 0.1532(3)
C75 C 0.5803(3) 0.2583(2) 0.1248(2)
C76 C 0.6044(3) 0.3212(2) 0.1081(2)
C77 C 0.5418(4) 0.3720(2) 0.1156(3)
H83 H 0.5574 0.4135 0.1044
C78 C 0.4561(4) 0.3634(2) 0.1392(3)
C79 C 0.4398(4) 0.3010(2) 0.1591(3)
H84 H 0.3858 0.2945 0.1775
C80 C 0.6990(3) 0.3327(2) 0.0838(2)
H85 H 0.6875 0.3094 0.0403
H86 H 0.7016 0.3784 0.0736
C81 C 1.0377(4) 0.2061(2) 0.1288(3)
C82 C 1.1373(6) 0.2438(4) 0.1329(5)
H87 H 1.1184 0.2837 0.1077
H88 H 1.1796 0.2185 0.1126
H89 H 1.1764 0.2528 0.1810
C83 C 1.0689(7) 0.1456(3) 0.1749(4)
H90 H 1.0892 0.1578 0.2233
H91 H 1.1267 0.1246 0.1659
H92 H 1.0103 0.1165 0.1642
C84 C 0.9828(7) 0.1840(4) 0.0523(4)
H93 H 0.9215 0.1593 0.0496
H94 H 1.0302 0.1579 0.0372
H95 H 0.9628 0.2213 0.0225
C85 C 0.7654(4) 0.4296(2) 0.4686(3)
C86 C 0.6453(4) 0.4353(3) 0.4347(3)
H96 H 0.6287 0.4468 0.3863
H97 H 0.6194 0.4680 0.4585
H98 H 0.6132 0.3946 0.4383
C87 C 0.8158(5) 0.4934(2) 0.4626(3)
H99 H 0.8893 0.4917 0.4889
H100 H 0.7833 0.5273 0.4807
H101 H 0.8068 0.5020 0.4143
C88 C 0.7893(4) 0.4147(2) 0.5481(2)
H102 H 0.7579 0.3743 0.5533
H103 H 0.7609 0.4486 0.5691
H104 H 0.8639 0.4123 0.5709
C89 C 0.4067(4) 0.0934(3) 0.3950(3)
C90 C 0.4616(5) 0.0269(3) 0.4151(4)
H105 H 0.4663 0.0059 0.3739
H106 H 0.4216 0.0004 0.4361
H107 H 0.5309 0.0331 0.4478
C91 C 0.2993(5) 0.0841(4) 0.3455(4)
H108 H 0.2684 0.1254 0.3295
H109 H 0.2576 0.0618 0.3687
H110 H 0.3022 0.0590 0.3062
C92 C 0.4012(6) 0.1243(3) 0.4627(4)
H111 H 0.4687 0.1217 0.4983
H112 H 0.3503 0.1018 0.4780
H113 H 0.3810 0.1689 0.4542
C93 C 0.3821(4) 0.4186(2) 0.1418(3)
C94 C 0.3630(6) 0.4218(3) 0.2125(3)
H114 H 0.3276 0.3833 0.2189
H115 H 0.3205 0.4588 0.2133
H116 H 0.4291 0.4253 0.2495
C95 C 0.2762(4) 0.4068(2) 0.0840(3)
H117 H 0.2873 0.4027 0.0397
H118 H 0.2300 0.4425 0.0825
H119 H 0.2453 0.3677 0.0940
C96 C 0.4214(4) 0.4856(2) 0.1283(3)
H120 H 0.4922 0.4917 0.1587
H121 H 0.3773 0.5185 0.1374
H122 H 0.4191 0.4883 0.0805
C97 C 0.5837(4) 0.1723(2) 0.0502(3)
H123 H 0.5645 0.2015 0.0104
H124 H 0.5202 0.1529 0.0539
C98 C 0.6568(4) 0.1208(3) 0.0412(3)
H125 H 0.6222 0.0958 -0.0006
H126 H 0.7186 0.1408 0.0355
C99 C 0.7446(5) 0.0259(3) 0.0890(4)
H127 H 0.8009 0.0406 0.0727
H128 H 0.6990 -0.0023 0.0537
C100 C 0.7899(5) -0.0105(3) 0.1579(4)
H129 H 0.7339 -0.0229 0.1756
H130 H 0.8250 -0.0495 0.1506
C101 C 0.9226(5) -0.0059(3) 0.2663(3)
H131 H 0.9504 -0.0446 0.2519
H132 H 0.8792 -0.0187 0.2940
C102 C 1.0110(5) 0.0357(3) 0.3093(3)
H133 H 1.0574 0.0107 0.3476
H134 H 1.0512 0.0513 0.2806
C103 C 1.0488(4) 0.1340(3) 0.3707(3)
H135 H 1.0765 0.1537 0.3369
H136 H 1.1057 0.1118 0.4053
C104 C 1.0058(4) 0.1848(3) 0.4052(3)
H137 H 0.9812 0.1658 0.4408
H138 H 1.0598 0.2163 0.4274
N1 N 0.3820(5) 0.4736(3) 0.3880(4)
C108 C 0.4626(5) 0.5653(3) 0.3371(4)
H148 H 0.4073 0.5943 0.3123
H149 H 0.4946 0.5473 0.3052
H150 H 0.5143 0.5884 0.3735
C109 C 0.4202(4) 0.5144(3) 0.3672(3)
N2 N 0.2421(6) 0.2768(4) 0.4100(5)
C110 C 0.3970(7) 0.3028(3) 0.3650(4)
H151 H 0.3721 0.3217 0.3191
H152 H 0.4349 0.2638 0.3635
H153 H 0.4427 0.3327 0.3970
C111 C 0.3081(7) 0.2878(4) 0.3881(5)
N3 N 1.0821(5) 0.5329(3) 0.1166(4)
C112 C 1.0366(6) 0.4260(3) 0.1652(4)
H154 H 1.0247 0.3929 0.1301
H155 H 0.9742 0.4319 0.1774
H156 H 1.0934 0.4134 0.2060
C113 C 1.0630(5) 0.4862(3) 0.1379(4)
N4 N 0.7548(8) 0.2254(6) -0.1147(9)
C114 C 0.9360(8) 0.1974(4) -0.1308(5)
H157 H 0.9356 0.2112 -0.1762
H158 H 0.9481 0.1516 -0.1263
H159 H 0.9909 0.2195 -0.0954
C115 C 0.8317(10) 0.2128(5) -0.1223(7)
C105? C 0.9878(13) 0.1430(7) 0.0967(9)
H139? H 0.9692 0.1182 0.1310
H140? H 1.0367 0.1189 0.0810
H141? H 0.9259 0.1518 0.0576
C106? C 1.0689(12) 0.2455(7) 0.0705(8)
H142? H 1.0076 0.2518 0.0302
H143? H 1.1204 0.2216 0.0572
H144? H 1.0974 0.2868 0.0890
C107? C 1.1518(13) 0.1970(8) 0.1870(9)
H145? H 1.1888 0.2374 0.1942
H146? H 1.1908 0.1652 0.1712
H147? H 1.1438 0.1830 0.2302
loop_
_geom_bond_atom_site_label_1
_geom_bond_atom_site_label_2
_geom_bond_site_symmetry_1
_geom_bond_site_symmetry_2
K1 O2 1_555 1_555
K2 O1 1_555 1_555
O1 C1 1_555 1_555
O2 K2 1_555 1_555
O3 K1 1_555 1_555
O4 K1 1_555 1_555
O5 K1 1_555 1_555
O6 K1 1_555 1_555
O7 K1 1_555 1_555
C1 K1 1_555 1_555
C2 K1 1_555 1_555
C3 K1 1_555 1_555
H1 C3 1_555 1_555
C4 K1 1_555 1_555
C5 K1 1_555 1_555
H2 C5 1_555 1_555
C6 K1 1_555 1_555
C7 C6 1_555 1_555
H3 C7 1_555 1_555
H4 C7 1_555 1_555
C8 K2 1_555 1_555
C9 K2 1_555 1_555
C10 K2 1_555 1_555
C11 K2 1_555 1_555
H5 C11 1_555 1_555
C12 K2 1_555 1_555
C13 K2 1_555 1_555
H6 C13 1_555 1_555
C14 C10 1_555 1_555
H7 C14 1_555 1_555
H8 C14 1_555 1_555
C15 C14 1_555 1_555
C16 O2 1_555 1_555
C17 C16 1_555 1_555
C18 C17 1_555 1_555
H9 C18 1_555 1_555
C19 C18 1_555 1_555
C20 C15 1_555 1_555
H10 C20 1_555 1_555
C21 C17 1_555 1_555
H11 C21 1_555 1_555
H12 C21 1_555 1_555
C22 K2 1_555 1_555
C23 K2 1_555 1_555
C24 K2 1_555 1_555
C25 K2 1_555 1_555
H13 C25 1_555 1_555
C26 K2 1_555 1_555
C27 K2 1_555 1_555
H14 C27 1_555 1_555
C28 C2 1_555 1_555
H15 C28 1_555 1_555
H16 C28 1_555 1_555
C29 C4 1_555 1_555
C30 C29 1_555 1_555
H17 C30 1_555 1_555
H18 C30 1_555 1_555
H19 C30 1_555 1_555
C31 C29 1_555 1_555
H20 C31 1_555 1_555
H21 C31 1_555 1_555
H22 C31 1_555 1_555
C32 C29 1_555 1_555
H23 C32 1_555 1_555
H24 C32 1_555 1_555
H25 C32 1_555 1_555
C33 C26 1_555 1_555
C34 C33 1_555 1_555
H26 C34 1_555 1_555
H27 C34 1_555 1_555
H28 C34 1_555 1_555
C35 C33 1_555 1_555
H29 C35 1_555 1_555
H30 C35 1_555 1_555
H31 C35 1_555 1_555
C36 C33 1_555 1_555
H32 C36 1_555 1_555
H33 C36 1_555 1_555
H34 C36 1_555 1_555
C37 C19 1_555 1_555
C38 C37 1_555 1_555
H35 C38 1_555 1_555
H36 C38 1_555 1_555
H37 C38 1_555 1_555
C39 C37 1_555 1_555
H38 C39 1_555 1_555
H39 C39 1_555 1_555
H40 C39 1_555 1_555
C40 C37 1_555 1_555
H41 C40 1_555 1_555
H42 C40 1_555 1_555
H43 C40 1_555 1_555
C41 C12 1_555 1_555
C42 C41 1_555 1_555
H44 C42 1_555 1_555
H45 C42 1_555 1_555
H46 C42 1_555 1_555
C43 C41 1_555 1_555
H47 C43 1_555 1_555
H48 C43 1_555 1_555
H49 C43 1_555 1_555
C44 C41 1_555 1_555
H50 C44 1_555 1_555
H51 C44 1_555 1_555
H52 C44 1_555 1_555
C45 O7 1_555 1_555
H53 C45 1_555 1_555
H54 C45 1_555 1_555
C46 O6 1_555 1_555
H55 C46 1_555 1_555
H56 C46 1_555 1_555
C47 O6 1_555 1_555
H57 C47 1_555 1_555
H58 C47 1_555 1_555
C48 O5 1_555 1_555
H59 C48 1_555 1_555
H60 C48 1_555 1_555
C49 O5 1_555 1_555
H61 C49 1_555 1_555
H62 C49 1_555 1_555
C50 O4 1_555 1_555
H63 C50 1_555 1_555
H64 C50 1_555 1_555
C51 O4 1_555 1_555
H65 C51 1_555 1_555
H66 C51 1_555 1_555
C52 O3 1_555 1_555
H67 C52 1_555 1_555
H68 C52 1_555 1_555
K3 O9 1_555 1_555
K4 O8 1_555 1_555
O8 C53 1_555 1_555
O9 K4 1_555 1_555
O10 K3 1_555 1_555
O11 K3 1_555 1_555
O12 K3 1_555 1_555
O13 K3 1_555 1_555
O14 K3 1_555 1_555
O15 K4 1_555 1_555
H69 O15 1_555 1_555
H70 O15 1_555 1_555
C53 K3 1_555 1_555
C54 K3 1_555 1_555
C55 K3 1_555 1_555
H71 C55 1_555 1_555
C56 K3 1_555 1_555
C57 K3 1_555 1_555
H72 C57 1_555 1_555
C58 K3 1_555 1_555
C59 C58 1_555 1_555
H73 C59 1_555 1_555
H74 C59 1_555 1_555
C60 K4 1_555 1_555
C61 K4 1_555 1_555
C62 K4 1_555 1_555
C63 K4 1_555 1_555
H75 C63 1_555 1_555
C64 K4 1_555 1_555
C65 K4 1_555 1_555
H76 C65 1_555 1_555
C66 C62 1_555 1_555
H77 C66 1_555 1_555
H78 C66 1_555 1_555
C67 C66 1_555 1_555
C68 O9 1_555 1_555
C69 C68 1_555 1_555
C70 C69 1_555 1_555
H79 C70 1_555 1_555
C71 C70 1_555 1_555
C72 C67 1_555 1_555
H80 C72 1_555 1_555
C73 C69 1_555 1_555
H81 C73 1_555 1_555
H82 C73 1_555 1_555
C74 K4 1_555 1_555
C75 K4 1_555 1_555
C76 K4 1_555 1_555
C77 K4 1_555 1_555
H83 C77 1_555 1_555
C78 K4 1_555 1_555
C79 K4 1_555 1_555
H84 C79 1_555 1_555
C80 C54 1_555 1_555
H85 C80 1_555 1_555
H86 C80 1_555 1_555
C81 C56 1_555 1_555
C82 C81 1_555 1_555
H87 C82 1_555 1_555
H88 C82 1_555 1_555
H89 C82 1_555 1_555
C83 C81 1_555 1_555
H90 C83 1_555 1_555
H91 C83 1_555 1_555
H92 C83 1_555 1_555
C84 C81 1_555 1_555
H93 C84 1_555 1_555
H94 C84 1_555 1_555
H95 C84 1_555 1_555
C85 C64 1_555 1_555
C86 C85 1_555 1_555
H96 C86 1_555 1_555
H97 C86 1_555 1_555
H98 C86 1_555 1_555
C87 C85 1_555 1_555
H99 C87 1_555 1_555
H100 C87 1_555 1_555
H101 C87 1_555 1_555
C88 C85 1_555 1_555
H102 C88 1_555 1_555
H103 C88 1_555 1_555
H104 C88 1_555 1_555
C89 C71 1_555 1_555
C90 C89 1_555 1_555
H105 C90 1_555 1_555
H106 C90 1_555 1_555
H107 C90 1_555 1_555
C91 C89 1_555 1_555
H108 C91 1_555 1_555
H109 C91 1_555 1_555
H110 C91 1_555 1_555
C92 C89 1_555 1_555
H111 C92 1_555 1_555
H112 C92 1_555 1_555
H113 C92 1_555 1_555
C93 C78 1_555 1_555
C94 C93 1_555 1_555
H114 C94 1_555 1_555
H115 C94 1_555 1_555
H116 C94 1_555 1_555
C95 C93 1_555 1_555
H117 C95 1_555 1_555
H118 C95 1_555 1_555
H119 C95 1_555 1_555
C96 C93 1_555 1_555
H120 C96 1_555 1_555
H121 C96 1_555 1_555
H122 C96 1_555 1_555
C97 O10 1_555 1_555
H123 C97 1_555 1_555
H124 C97 1_555 1_555
C98 O11 1_555 1_555
H125 C98 1_555 1_555
H126 C98 1_555 1_555
C99 O11 1_555 1_555
H127 C99 1_555 1_555
H128 C99 1_555 1_555
C100 O12 1_555 1_555
H129 C100 1_555 1_555
H130 C100 1_555 1_555
C101 O12 1_555 1_555
H131 C101 1_555 1_555
H132 C101 1_555 1_555
C102 O13 1_555 1_555
H133 C102 1_555 1_555
H134 C102 1_555 1_555
C103 O13 1_555 1_555
H135 C103 1_555 1_555
H136 C103 1_555 1_555
C104 O14 1_555 1_555
H137 C104 1_555 1_555
H138 C104 1_555 1_555
N1 C109 1_555 1_555
C108 H148 1_555 1_555
H149 C108 1_555 1_555
H150 C108 1_555 1_555
C109 C108 1_555 1_555
N2 C111 1_555 1_555
C110 H151 1_555 1_555
H152 C110 1_555 1_555
H153 C110 1_555 1_555
C111 C110 1_555 1_555
N3 C113 1_555 1_555
C112 H154 1_555 1_555
H155 C112 1_555 1_555
H156 C112 1_555 1_555
C113 C112 1_555 1_555
N4 C115 1_555 1_555
C114 H157 1_555 1_555
H158 C114 1_555 1_555
H159 C114 1_555 1_555
C115 C114 1_555 1_555
O3 C9 1_555 1_555
O7 C23 1_555 1_555
C1 C2 1_555 1_555
C1 C6 1_555 1_555
C2 C3 1_555 1_555
C3 C4 1_555 1_555
C4 C5 1_555 1_555
C5 C6 1_555 1_555
C7 C8 1_555 1_555
C8 C9 1_555 1_555
C8 C13 1_555 1_555
C9 C10 1_555 1_555
C10 C11 1_555 1_555
C11 C12 1_555 1_555
C12 C13 1_555 1_555
C15 C16 1_555 1_555
C19 C20 1_555 1_555
C21 C22 1_555 1_555
C22 C23 1_555 1_555
C22 C27 1_555 1_555
C23 C24 1_555 1_555
C24 C25 1_555 1_555
C24 C28 1_555 1_555
C25 C26 1_555 1_555
C26 C27 1_555 1_555
C45 C46 1_555 1_555
C47 C48 1_555 1_555
C49 C50 1_555 1_555
C51 C52 1_555 1_555
O10 C75 1_555 1_555
O14 C61 1_555 1_555
C53 C54 1_555 1_555
C53 C58 1_555 1_555
C54 C55 1_555 1_555
C55 C56 1_555 1_555
C56 C57 1_555 1_555
C57 C58 1_555 1_555
C59 C60 1_555 1_555
C60 C61 1_555 1_555
C60 C65 1_555 1_555
C61 C62 1_555 1_555
C62 C63 1_555 1_555
C63 C64 1_555 1_555
C64 C65 1_555 1_555
C67 C68 1_555 1_555
C71 C72 1_555 1_555
C73 C74 1_555 1_555
C74 C75 1_555 1_555
C74 C79 1_555 1_555
C75 C76 1_555 1_555
C76 C77 1_555 1_555
C76 C80 1_555 1_555
C77 C78 1_555 1_555
C78 C79 1_555 1_555
C97 C98 1_555 1_555
C99 C100 1_555 1_555
C101 C102 1_555 1_555
C103 C104 1_555 1_555

#END
