
#######################################################################
#
#                 Cambridge Crystallographic Data Centre
#                                CCDC 
#
#######################################################################
#
# If this CIF has been generated from an entry in the Cambridge 
# Structural Database, then it will include bibliographic, chemical, 
# crystal, experimental, refinement or atomic coordinate data resulting 
# from the CCDC's data processing and validation procedures.
#
#######################################################################

data_EMUKAZ
_chemical_formula_moiety         'C20 H15 Br2 N1 O3'
_chemical_name_systematic        
'1-(2-Bromophenyl)-2-(4,5-dimethyl-1,3-oxazol-2-yl)vinyl 2-bromobenzoate'
_symmetry_cell_setting           triclinic
_symmetry_space_group_name_H-M   'P -1'
_symmetry_Int_Tables_number      2
_space_group_name_Hall           '-P 1'
loop_
_symmetry_equiv_pos_site_id
_symmetry_equiv_pos_as_xyz
1 x,y,z
2 -x,-y,-z
_cell_length_a                   8.0284(5)
_cell_length_b                   10.9067(7)
_cell_length_c                   11.7129(7)
_cell_angle_alpha                108.134(4)
_cell_angle_beta                 91.052(4)
_cell_angle_gamma                109.037(4)
_cell_volume                     913.132
_exptl_crystal_colour            yellow
_chemical_melting_point          '365-368 K'
_cell_formula_units_Z            2
_chemical_properties_physical    moisture-sensitive
_exptl_crystal_recrystallization_method hexane/acetone
loop_
_atom_site_label
_atom_site_type_symbol
_atom_site_fract_x
_atom_site_fract_y
_atom_site_fract_z
Br1 Br 1.14069(6) 0.31442(4) 0.29666(4)
Br2 Br 0.51858(5) -0.03336(4) -0.26538(3)
O1 O 0.6451(4) 0.5569(3) 0.1532(3)
O2 O 0.7312(3) 0.1856(2) -0.0286(2)
O3 O 1.0098(3) 0.3238(3) 0.0581(2)
N1 N 0.6748(4) 0.3722(3) 0.1783(2)
C1 C 0.6118(6) 0.6928(4) 0.3602(4)
H1 H 0.4903 0.6866 0.3488
H2 H 0.6878 0.7735 0.3457
H3 H 0.6426 0.6987 0.4418
C2 C 0.6348(5) 0.5684(4) 0.2740(3)
C3 C 0.6706(5) 0.4387(4) 0.1015(4)
C4 C 0.6917(5) 0.3938(4) -0.0244(3)
H4 H 0.6818 0.4497 -0.0681
C5 C 0.7243(5) 0.2801(4) -0.0853(3)
C6 C 0.8866(5) 0.2206(4) 0.0440(3)
C7 C 0.8790(5) 0.1100(4) 0.0951(3)
C8 C 0.7668(5) -0.0246(4) 0.0341(4)
H5 H 0.6893 -0.0430 -0.0340
C9 C 0.7689(5) -0.1314(4) 0.0734(4)
H6 H 0.6942 -0.2210 0.0312
C10 C 0.8822(5) -0.1048(4) 0.1752(4)
H7 H 0.8852 -0.1768 0.2008
C11 C 0.6553(6) 0.4126(4) 0.3967(4)
H8 H 0.6524 0.4853 0.4676
H9 H 0.7620 0.3930 0.4060
H10 H 0.5537 0.3316 0.3864
C12 C 0.6521(5) 0.4557(4) 0.2892(3)
C13 C 0.9894(5) 0.1355(4) 0.1997(3)
C14 C 0.9909(5) 0.0284(4) 0.2393(4)
H11 H 1.0651 0.0463 0.3089
C15 C 0.7596(5) 0.2454(4) -0.2128(3)
C16 C 0.8723(5) 0.3501(4) -0.2501(3)
H12 H 0.9239 0.4383 -0.1941
C17 C 0.9083(5) 0.3252(4) -0.3684(3)
H13 H 0.9815 0.3968 -0.3913
C18 C 0.8363(5) 0.1944(4) -0.4528(4)
H14 H 0.8634 0.1774 -0.5318
C19 C 0.7241(5) 0.0892(4) -0.4193(3)
H15 H 0.6742 0.0012 -0.4760
C20 C 0.6857(5) 0.1147(4) -0.3005(3)
loop_
_geom_bond_atom_site_label_1
_geom_bond_atom_site_label_2
_geom_bond_site_symmetry_1
_geom_bond_site_symmetry_2
Br1 C13 1_555 1_555
Br2 C20 1_555 1_555
O1 C2 1_555 1_555
O2 C5 1_555 1_555
O3 C6 1_555 1_555
N1 C3 1_555 1_555
C1 H1 1_555 1_555
H2 C1 1_555 1_555
H3 C1 1_555 1_555
C2 C1 1_555 1_555
C3 O1 1_555 1_555
C4 C3 1_555 1_555
H4 C4 1_555 1_555
C5 C4 1_555 1_555
C6 O2 1_555 1_555
C7 C6 1_555 1_555
C8 C7 1_555 1_555
H5 C8 1_555 1_555
C9 C8 1_555 1_555
H6 C9 1_555 1_555
C10 C9 1_555 1_555
H7 C10 1_555 1_555
C11 H8 1_555 1_555
H9 C11 1_555 1_555
H10 C11 1_555 1_555
C12 N1 1_555 1_555
C13 C7 1_555 1_555
C14 C10 1_555 1_555
H11 C14 1_555 1_555
C15 C5 1_555 1_555
C16 C15 1_555 1_555
H12 C16 1_555 1_555
C17 C16 1_555 1_555
H13 C17 1_555 1_555
C18 C17 1_555 1_555
H14 C18 1_555 1_555
C19 C18 1_555 1_555
H15 C19 1_555 1_555
C20 C15 1_555 1_555
C2 C12 1_555 1_555
C11 C12 1_555 1_555
C13 C14 1_555 1_555
C19 C20 1_555 1_555

#END
