
#######################################################################
#
#                 Cambridge Crystallographic Data Centre
#                                CCDC 
#
#######################################################################
#
# If this CIF has been generated from an entry in the Cambridge 
# Structural Database, then it will include bibliographic, chemical, 
# crystal, experimental, refinement or atomic coordinate data resulting 
# from the CCDC's data processing and validation procedures.
#
#######################################################################

data_EMUKUU
_chemical_formula_moiety         'C23 H16 O1'
_chemical_name_systematic        trans-3-(9-anthryl)-1-phenylprop-2-en-1-one
_symmetry_cell_setting           monoclinic
_symmetry_space_group_name_H-M   'C 2/c'
_symmetry_Int_Tables_number      15
_space_group_name_Hall           '-C 2yn'
loop_
_symmetry_equiv_pos_site_id
_symmetry_equiv_pos_as_xyz
1 x,y,z
2 -x,y,1/2-z
3 1/2+x,1/2+y,z
4 1/2-x,1/2+y,1/2-z
5 -x,-y,-z
6 x,-y,1/2+z
7 1/2-x,1/2-y,-z
8 1/2+x,1/2-y,1/2+z
_cell_length_a                   27.135(5)
_cell_length_b                   5.8300(12)
_cell_length_c                   20.776(4)
_cell_angle_alpha                90
_cell_angle_beta                 98.03(3)
_cell_angle_gamma                90
_cell_volume                     3254.48
_exptl_crystal_colour            yellow
_exptl_crystal_description       rod
_cell_formula_units_Z            8
loop_
_atom_site_label
_atom_site_type_symbol
_atom_site_fract_x
_atom_site_fract_y
_atom_site_fract_z
O1 O 0.11567(9) 0.3488(4) 0.02677(12)
C1 C 0.04649(13) 0.3959(7) -0.08489(18)
H1 H 0.0650 0.2611 -0.0808
C2 C 0.00730(15) 0.4188(8) -0.13476(19)
H2 H -0.0002 0.2998 -0.1643
C3 C -0.02030(15) 0.6136(8) -0.14083(19)
H3 H -0.0467 0.6276 -0.1743
C4 C -0.00914(15) 0.7900(7) -0.09749(19)
H4 H -0.0282 0.9232 -0.1015
C5 C 0.03041(13) 0.7701(7) -0.04779(16)
H5 H 0.0381 0.8908 -0.0189
C6 C 0.05820(12) 0.5734(6) -0.04115(15)
C7 C 0.09977(12) 0.5410(6) 0.01279(16)
C8 C 0.12123(13) 0.7439(6) 0.04855(16)
H6 H 0.1128 0.8873 0.0307
C9 C 0.15035(13) 0.7371(6) 0.10194(17)
H7 H 0.1581 0.5925 0.1193
C10 C 0.17336(13) 0.9360(6) 0.13971(17)
C11 C 0.15150(14) 1.0221(6) 0.19263(18)
C12 C 0.11051(15) 0.9115(7) 0.21502(19)
H8 H 0.0976 0.7783 0.1947
C13 C 0.08992(16) 0.9982(10) 0.2659(2)
H9 H 0.0635 0.9221 0.2806
C14 C 0.10845(19) 1.2030(10) 0.2967(2)
H10 H 0.0935 1.2628 0.3307
C15 C 0.14756(17) 1.3126(8) 0.27725(19)
H11 H 0.1594 1.4468 0.2982
C16 C 0.17104(14) 1.2257(7) 0.22516(17)
C17 C 0.21225(14) 1.3326(6) 0.20589(16)
H12 H 0.2246 1.4657 0.2270
C18 C 0.23526(14) 1.2449(6) 0.15602(17)
C19 C 0.27745(16) 1.3547(7) 0.13645(19)
H13 H 0.2895 1.4886 0.1573
C20 C 0.30038(16) 1.2682(8) 0.0881(2)
H14 H 0.3280 1.3420 0.0759
C21 C 0.28213(16) 1.0649(8) 0.05599(19)
H15 H 0.2983 1.0043 0.0232
C22 C 0.24177(15) 0.9586(7) 0.07241(18)
H16 H 0.2304 0.8258 0.0504
C23 C 0.21580(14) 1.0433(6) 0.12257(16)
loop_
_geom_bond_atom_site_label_1
_geom_bond_atom_site_label_2
_geom_bond_site_symmetry_1
_geom_bond_site_symmetry_2
O1 C7 1_555 1_555
C1 H1 1_555 1_555
C2 C1 1_555 1_555
H2 C2 1_555 1_555
C3 C2 1_555 1_555
H3 C3 1_555 1_555
C4 C3 1_555 1_555
H4 C4 1_555 1_555
C5 C4 1_555 1_555
H5 C5 1_555 1_555
C6 C1 1_555 1_555
C7 C6 1_555 1_555
C8 C7 1_555 1_555
H6 C8 1_555 1_555
C9 C8 1_555 1_555
H7 C9 1_555 1_555
C10 C9 1_555 1_555
C11 C10 1_555 1_555
C12 C11 1_555 1_555
H8 C12 1_555 1_555
C13 C12 1_555 1_555
H9 C13 1_555 1_555
C14 C13 1_555 1_555
H10 C14 1_555 1_555
C15 C14 1_555 1_555
H11 C15 1_555 1_555
C16 C11 1_555 1_555
C17 C16 1_555 1_555
H12 C17 1_555 1_555
C18 C17 1_555 1_555
C19 C18 1_555 1_555
H13 C19 1_555 1_555
C20 C19 1_555 1_555
H14 C20 1_555 1_555
C21 C20 1_555 1_555
H15 C21 1_555 1_555
C22 C21 1_555 1_555
H16 C22 1_555 1_555
C23 C10 1_555 1_555
C5 C6 1_555 1_555
C15 C16 1_555 1_555
C18 C23 1_555 1_555
C22 C23 1_555 1_555

#END
