
#######################################################################
#
#                 Cambridge Crystallographic Data Centre
#                                CCDC 
#
#######################################################################
#
# If this CIF has been generated from an entry in the Cambridge 
# Structural Database, then it will include bibliographic, chemical, 
# crystal, experimental, refinement or atomic coordinate data resulting 
# from the CCDC's data processing and validation procedures.
#
#######################################################################

data_EMUKED
_chemical_formula_moiety         'C20 H15 Br2 N1 O2 S1'
_chemical_name_systematic        
'1-(3-Bromophenyl)-2-(4,5-dimethyl-1,3-thiazol-2-yl)vinyl 3-bromobenzoate'
_symmetry_cell_setting           triclinic
_symmetry_space_group_name_H-M   'P -1'
_symmetry_Int_Tables_number      2
_space_group_name_Hall           '-P 1'
loop_
_symmetry_equiv_pos_site_id
_symmetry_equiv_pos_as_xyz
1 x,y,z
2 -x,-y,-z
_cell_length_a                   8.6468(7)
_cell_length_b                   10.8191(9)
_cell_length_c                   11.2267(9)
_cell_angle_alpha                111.363(3)
_cell_angle_beta                 93.099(3)
_cell_angle_gamma                104.084(3)
_cell_volume                     936.786
_exptl_crystal_colour            yellow
_cell_formula_units_Z            2
_chemical_properties_physical    moisture-sensitive
_exptl_crystal_recrystallization_method hexane/acetone
loop_
_atom_site_label
_atom_site_type_symbol
_atom_site_fract_x
_atom_site_fract_y
_atom_site_fract_z
Br1 Br 0.854055(15) 0.188973(15) 0.698572(13)
Br2 Br 0.018861(16) 0.281078(14) 1.451141(12)
S1 S 0.36000(4) -0.16860(3) 0.79297(3)
O1 O 0.34344(11) 0.10878(9) 0.92368(8)
O2 O 0.11807(12) 0.09513(10) 0.80154(10)
N1 N 0.22773(15) -0.28410(11) 0.93957(11)
C1 C 0.2542(2) -0.52164(15) 0.84961(16)
H1 H 0.2349 -0.5918 0.7612
H2 H 0.1609 -0.5415 0.8924
H3 H 0.3509 -0.5232 0.8982
C2 C 0.27880(17) -0.38143(13) 0.84501(13)
C3 C 0.26151(15) -0.16610(13) 0.92421(12)
C4 C 0.21735(16) -0.04863(13) 1.01266(12)
H4 H 0.1575 -0.0648 1.0767
C5 C 0.25077(15) 0.07983(13) 1.01497(12)
C6 C 0.26131(15) 0.11178(12) 0.81755(12)
C7 C 0.37159(15) 0.13833(12) 0.72686(12)
C8 C 0.30552(16) 0.14195(13) 0.61226(12)
H5 H 0.1927 0.1286 0.5940
C9 C 0.40536(17) 0.16513(14) 0.52524(13)
H6 H 0.3609 0.1697 0.4482
C10 C 0.57013(17) 0.18176(13) 0.55016(13)
H7 H 0.6385 0.1967 0.4903
C11 C 0.63294(15) 0.17616(13) 0.66399(12)
C12 C 0.53655(15) 0.15574(13) 0.75382(12)
H8 H 0.5819 0.1537 0.8318
C13 C 0.35128(16) -0.33944(13) 0.75595(12)
C14 C 0.41804(18) -0.41989(14) 0.64128(13)
H9 H 0.4036 -0.5141 0.6372
H10 H 0.5333 -0.3744 0.6501
H11 H 0.3608 -0.4236 0.5618
C15 C 0.21214(15) 0.19893(13) 1.11012(12)
C16 C 0.14344(15) 0.18703(13) 1.21716(12)
H12 H 0.1221 0.1023 1.2291
C17 C 0.10702(16) 0.30037(14) 1.30533(12)
C18 C 0.13508(19) 0.42551(14) 1.29132(14)
H13 H 0.1078 0.5015 1.3524
C19 C 0.2040(2) 0.43706(15) 1.18589(14)
H14 H 0.2240 0.5219 1.1741
C20 C 0.24408(19) 0.32546(14) 1.09707(13)
H15 H 0.2939 0.3358 1.0266
loop_
_geom_bond_atom_site_label_1
_geom_bond_atom_site_label_2
_geom_bond_site_symmetry_1
_geom_bond_site_symmetry_2
Br1 C11 1_555 1_555
Br2 C17 1_555 1_555
S1 C3 1_555 1_555
O1 C5 1_555 1_555
O2 C6 1_555 1_555
N1 C2 1_555 1_555
C1 H1 1_555 1_555
H2 C1 1_555 1_555
H3 C1 1_555 1_555
C2 C1 1_555 1_555
C3 N1 1_555 1_555
C4 C3 1_555 1_555
H4 C4 1_555 1_555
C5 C4 1_555 1_555
C6 O1 1_555 1_555
C7 C6 1_555 1_555
C8 C7 1_555 1_555
H5 C8 1_555 1_555
C9 C8 1_555 1_555
H6 C9 1_555 1_555
C10 C9 1_555 1_555
H7 C10 1_555 1_555
C11 C10 1_555 1_555
C12 C7 1_555 1_555
H8 C12 1_555 1_555
C13 S1 1_555 1_555
C14 C13 1_555 1_555
H9 C14 1_555 1_555
H10 C14 1_555 1_555
H11 C14 1_555 1_555
C15 C5 1_555 1_555
C16 C15 1_555 1_555
H12 C16 1_555 1_555
C17 C16 1_555 1_555
C18 C17 1_555 1_555
H13 C18 1_555 1_555
C19 C18 1_555 1_555
H14 C19 1_555 1_555
C20 C15 1_555 1_555
H15 C20 1_555 1_555
C2 C13 1_555 1_555
C11 C12 1_555 1_555
C19 C20 1_555 1_555

#END
