
#######################################################################
#
#                 Cambridge Crystallographic Data Centre
#                                CCDC 
#
#######################################################################
#
# If this CIF has been generated from an entry in the Cambridge 
# Structural Database, then it will include bibliographic, chemical, 
# crystal, experimental, refinement or atomic coordinate data resulting 
# from the CCDC's data processing and validation procedures.
#
#######################################################################

data_EMULAB01
_chemical_formula_moiety         'C26 H18 O2'
_chemical_name_systematic        
trans-1-(4-methoxyphenyl)-3-(pyren-1-yl)prop-2-en-1-one
_symmetry_cell_setting           monoclinic
_symmetry_space_group_name_H-M   'C 2/c'
_symmetry_Int_Tables_number      15
_space_group_name_Hall           '-C 2yn'
loop_
_symmetry_equiv_pos_site_id
_symmetry_equiv_pos_as_xyz
1 x,y,z
2 -x,y,1/2-z
3 1/2+x,1/2+y,z
4 1/2-x,1/2+y,1/2-z
5 -x,-y,-z
6 x,-y,1/2+z
7 1/2-x,1/2-y,-z
8 1/2+x,1/2-y,1/2+z
_cell_length_a                   29.981(6)
_cell_length_b                   5.7400(11)
_cell_length_c                   21.533(4)
_cell_angle_alpha                90
_cell_angle_beta                 91.25(3)
_cell_angle_gamma                90
_cell_volume                     3704.75
_exptl_crystal_colour            orange
_exptl_crystal_description       rod
_cell_formula_units_Z            8
loop_
_atom_site_label
_atom_site_type_symbol
_atom_site_fract_x
_atom_site_fract_y
_atom_site_fract_z
O1 O 0.76229(9) 0.7787(6) 0.34056(14)
O2 O 0.91170(12) 0.5034(7) 0.1558(2)
C1 C 0.75874(17) 0.9635(9) 0.3835(3)
H1 H 0.7326 0.9415 0.4079
H2 H 0.7847 0.9659 0.4103
H3 H 0.7564 1.1085 0.3615
C2 C 0.79738(13) 0.7763(8) 0.30103(18)
C3 C 0.82915(14) 0.9517(8) 0.2994(2)
H4 H 0.8266 1.0825 0.3246
C4 C 0.86497(14) 0.9292(8) 0.2595(2)
H5 H 0.8863 1.0467 0.2581
C5 C 0.86926(12) 0.7380(8) 0.22236(19)
C6 C 0.83659(13) 0.5593(8) 0.22472(18)
H6 H 0.8390 0.4265 0.2003
C7 C 0.80132(13) 0.5865(8) 0.26387(19)
H7 H 0.7795 0.4714 0.2649
C8 C 0.90725(15) 0.6975(9) 0.1795(2)
C9 C 0.94062(14) 0.8800(8) 0.1719(2)
H8 H 0.9376 1.0198 0.1933
C10 C 0.97520(13) 0.8508(8) 0.13535(19)
H9 H 0.9762 0.7118 0.1133
C11 C 1.01186(13) 1.0130(9) 0.12600(18)
C12 C 1.01677(15) 1.2062(9) 0.1633(2)
H10 H 0.9952 1.2362 0.1926
C13 C 1.05212(15) 1.3564(9) 0.1589(2)
H11 H 1.0546 1.4830 0.1857
C14 C 1.08462(14) 1.3187(9) 0.1138(2)
C15 C 1.07966(13) 1.1314(8) 0.07377(18)
C16 C 1.12256(16) 1.4711(10) 0.1091(2)
H12 H 1.1261 1.5952 0.1365
C17 C 1.15250(17) 1.4337(10) 0.0654(3)
H13 H 1.1766 1.5348 0.0630
C18 C 1.14923(14) 1.2467(10) 0.0226(2)
C19 C 1.11185(13) 1.0931(9) 0.0256(2)
C20 C 1.18023(16) 1.2056(13) -0.0235(3)
H14 H 1.2052 1.3008 -0.0260
C21 C 1.17439(19) 1.0244(13) -0.0657(3)
H15 H 1.1952 1.0030 -0.0965
C22 C 1.13852(15) 0.8763(11) -0.0628(2)
H16 H 1.1353 0.7550 -0.0912
C23 C 1.10676(15) 0.9088(10) -0.0169(2)
C24 C 1.06869(14) 0.7602(9) -0.0120(2)
H17 H 1.0648 0.6392 -0.0404
C25 C 1.03829(14) 0.7903(9) 0.03240(19)
H18 H 1.0141 0.6892 0.0342
C26 C 1.04239(13) 0.9746(8) 0.07693(19)
loop_
_geom_bond_atom_site_label_1
_geom_bond_atom_site_label_2
_geom_bond_site_symmetry_1
_geom_bond_site_symmetry_2
O1 C1 1_555 1_555
O2 C8 1_555 1_555
C1 H1 1_555 1_555
H2 C1 1_555 1_555
H3 C1 1_555 1_555
C2 O1 1_555 1_555
C3 C2 1_555 1_555
H4 C3 1_555 1_555
C4 C3 1_555 1_555
H5 C4 1_555 1_555
C5 C4 1_555 1_555
C6 C5 1_555 1_555
H6 C6 1_555 1_555
C7 C2 1_555 1_555
H7 C7 1_555 1_555
C8 C5 1_555 1_555
C9 C8 1_555 1_555
H8 C9 1_555 1_555
C10 C9 1_555 1_555
H9 C10 1_555 1_555
C11 C10 1_555 1_555
C12 C11 1_555 1_555
H10 C12 1_555 1_555
C13 C12 1_555 1_555
H11 C13 1_555 1_555
C14 C13 1_555 1_555
C15 C14 1_555 1_555
C16 C14 1_555 1_555
H12 C16 1_555 1_555
C17 C16 1_555 1_555
H13 C17 1_555 1_555
C18 C17 1_555 1_555
C19 C15 1_555 1_555
C20 C18 1_555 1_555
H14 C20 1_555 1_555
C21 C20 1_555 1_555
H15 C21 1_555 1_555
C22 C21 1_555 1_555
H16 C22 1_555 1_555
C23 C19 1_555 1_555
C24 C23 1_555 1_555
H17 C24 1_555 1_555
C25 C24 1_555 1_555
H18 C25 1_555 1_555
C26 C11 1_555 1_555
C6 C7 1_555 1_555
C15 C26 1_555 1_555
C18 C19 1_555 1_555
C22 C23 1_555 1_555
C25 C26 1_555 1_555

#END
