
#######################################################################
#
#                 Cambridge Crystallographic Data Centre
#                                CCDC 
#
#######################################################################
#
# If this CIF has been generated from an entry in the Cambridge 
# Structural Database, then it will include bibliographic, chemical, 
# crystal, experimental, refinement or atomic coordinate data resulting 
# from the CCDC's data processing and validation procedures.
#
#######################################################################

data_EMUPOR
_chemical_formula_moiety         '2(C6 H15 Cl1 N1 O1 1+),C4 H4 O6 2-'
_chemical_name_systematic        
'bis(S-3-Chloro-2-hydroxypropyl(trimethyl)ammonium) R,R-tartrate'
_symmetry_cell_setting           orthorhombic
_symmetry_space_group_name_H-M   'P 21 21 21'
_symmetry_Int_Tables_number      19
_space_group_name_Hall           'P 2ac 2ab'
loop_
_symmetry_equiv_pos_site_id
_symmetry_equiv_pos_as_xyz
1 x,y,z
2 1/2-x,-y,1/2+z
3 -x,1/2+y,1/2-z
4 1/2+x,1/2-y,-z
_cell_length_a                   8.3227(17)
_cell_length_b                   10.203(2)
_cell_length_c                   26.178(5)
_cell_angle_alpha                90
_cell_angle_beta                 90
_cell_angle_gamma                90
_cell_volume                     2222.94
_exptl_crystal_colour            colorless
_exptl_crystal_description       prismatic
_chemical_melting_point          158-164deg.C
_cell_formula_units_Z            4
_exptl_crystal_recrystallization_method methanol/ethanol
loop_
_atom_site_label
_atom_site_type_symbol
_atom_site_fract_x
_atom_site_fract_y
_atom_site_fract_z
Cl1 Cl 0.72742(13) 0.13509(9) 0.97760(3)
N1 N 0.7584(3) 0.5697(2) 1.01328(9)
C5 C 0.7059(5) 0.2558(4) 0.92830(12)
H3 H 0.8059 0.2619 0.9094
H4 H 0.6228 0.2278 0.9047
C6 C 0.6625(4) 0.3924(4) 0.94930(12)
H5 H 0.5592 0.3879 0.9672
C7 C 0.7914(4) 0.4417(3) 0.98576(11)
H6 H 0.8862 0.3953 0.9910
C8 C 0.6028(4) 0.5614(4) 1.04230(15)
H7 H 0.6058 0.4874 1.0649
H8 H 0.5154 0.5515 1.0187
H9 H 0.5878 0.6402 1.0618
C9 C 0.8915(4) 0.5914(4) 1.05121(13)
H10 H 0.8956 0.5188 1.0745
H11 H 0.8716 0.6707 1.0699
H12 H 0.9920 0.5984 1.0335
C10 C 0.7561(5) 0.6846(3) 0.97781(13)
H13 H 0.6720 0.6733 0.9531
H14 H 0.8576 0.6910 0.9606
H15 H 0.7372 0.7633 0.9970
O7 O 0.6476(4) 0.4738(3) 0.90606(10)
H32 H 0.564(6) 0.520(5) 0.9054(18)
Cl2 Cl 0.77879(11) 0.92134(11) 0.86851(3)
N2 N 1.2993(3) 0.8143(3) 0.75853(9)
C11 C 0.8918(4) 0.8146(4) 0.82794(13)
H16 H 0.9251 0.7382 0.8473
H17 H 0.8239 0.7850 0.8001
C12 C 1.0407(4) 0.8831(3) 0.80594(12)
H18 H 1.1081 0.9164 0.8338
C13 C 1.1320(4) 0.7802(3) 0.77575(13)
H19 H 1.0863 0.6993 0.7682
C14 C 1.3625(5) 0.6978(4) 0.72921(18)
H20 H 1.2937 0.6806 0.7005
H21 H 1.3647 0.6224 0.7512
H22 H 1.4692 0.7162 0.7173
C15 C 1.3035(5) 0.9312(4) 0.72377(16)
H23 H 1.2356 0.9155 0.6948
H24 H 1.4117 0.9458 0.7124
H25 H 1.2659 1.0070 0.7419
C16 C 1.4054(5) 0.8415(7) 0.80298(18)
H26 H 1.4043 0.7677 0.8257
H27 H 1.3673 0.9178 0.8207
H28 H 1.5131 0.8565 0.7912
O8 O 0.9886(3) 0.9882(2) 0.77481(9)
H29 H 1.057(6) 1.063(6) 0.7830(19)
C1 C 0.2180(4) 0.5550(3) 0.90514(12)
C2 C 0.1768(4) 0.4141(4) 0.88782(12)
H1 H 0.1897 0.3558 0.9173
C3 C 0.2847(4) 0.3631(3) 0.84462(10)
H2 H 0.3958 0.3658 0.8570
C4 C 0.2439(4) 0.2189(3) 0.83315(11)
O1 O 0.1043(4) 0.6332(3) 0.90622(12)
O2 O 0.3602(3) 0.5797(3) 0.91746(12)
O3 O 0.0138(3) 0.4067(3) 0.87144(13)
O4 O 0.2751(3) 0.4462(2) 0.80134(8)
O5 O 0.1768(3) 0.1966(3) 0.79072(9)
O6 O 0.2775(4) 0.1370(3) 0.86588(10)
H30 H -0.025(6) 0.466(5) 0.8770(19)
H31 H 0.187(6) 0.433(5) 0.7870(17)
loop_
_geom_bond_atom_site_label_1
_geom_bond_atom_site_label_2
_geom_bond_site_symmetry_1
_geom_bond_site_symmetry_2
Cl1 C5 1_555 1_555
Cl2 C11 1_555 1_555
N1 C7 1_555 1_555
N2 C13 1_555 1_555
C1 C2 1_555 1_555
C2 H1 1_555 1_555
C3 C2 1_555 1_555
H2 C3 1_555 1_555
C4 C3 1_555 1_555
C5 H3 1_555 1_555
H4 C5 1_555 1_555
C6 C5 1_555 1_555
H5 C6 1_555 1_555
C7 C6 1_555 1_555
H6 C7 1_555 1_555
C8 N1 1_555 1_555
H7 C8 1_555 1_555
H8 C8 1_555 1_555
H9 C8 1_555 1_555
C9 N1 1_555 1_555
H10 C9 1_555 1_555
H11 C9 1_555 1_555
H12 C9 1_555 1_555
C10 N1 1_555 1_555
H13 C10 1_555 1_555
H14 C10 1_555 1_555
H15 C10 1_555 1_555
C11 H16 1_555 1_555
H17 C11 1_555 1_555
C12 C11 1_555 1_555
H18 C12 1_555 1_555
C13 C12 1_555 1_555
H19 C13 1_555 1_555
C14 N2 1_555 1_555
H20 C14 1_555 1_555
H21 C14 1_555 1_555
H22 C14 1_555 1_555
C15 N2 1_555 1_555
H23 C15 1_555 1_555
H24 C15 1_555 1_555
H25 C15 1_555 1_555
C16 N2 1_555 1_555
H26 C16 1_555 1_555
H27 C16 1_555 1_555
H28 C16 1_555 1_555
O1 C1 1_555 1_555
O2 C1 1_555 1_555
O3 C2 1_555 1_555
O4 C3 1_555 1_555
O5 C4 1_555 1_555
O6 C4 1_555 1_555
O7 C6 1_555 1_555
O8 C12 1_555 1_555
H29 O8 1_555 1_555
H30 O3 1_555 1_555
H31 O4 1_555 1_555
H32 O7 1_555 1_555

#END
