
#######################################################################
#
#                 Cambridge Crystallographic Data Centre
#                                CCDC 
#
#######################################################################
#
# If this CIF has been generated from an entry in the Cambridge 
# Structural Database, then it will include bibliographic, chemical, 
# crystal, experimental, refinement or atomic coordinate data resulting 
# from the CCDC's data processing and validation procedures.
#
#######################################################################

data_EMUQUZ
_chemical_formula_moiety         'C51 H45 N5 O5,2(H2 O1)'
_chemical_name_systematic        
"6-((3-(((3',6'-bis(ethylamino)-2',7'-dimethyl-3-oxospiro[isoindole-1,9'-xanthen]-2(3H)-yl)imino)methyl)-4-hydroxyphenyl)ethynyl)-2-butyl-1H-benzo[de]isoquinoline-1,3(2H)-dione dihydrate"
_symmetry_cell_setting           monoclinic
_symmetry_space_group_name_H-M   'C 2/c'
_symmetry_Int_Tables_number      15
_space_group_name_Hall           '-C 2yn'
loop_
_symmetry_equiv_pos_site_id
_symmetry_equiv_pos_as_xyz
1 x,y,z
2 -x,y,1/2-z
3 1/2+x,1/2+y,z
4 1/2-x,1/2+y,1/2-z
5 -x,-y,-z
6 x,-y,1/2+z
7 1/2-x,1/2-y,-z
8 1/2+x,1/2-y,1/2+z
_cell_length_a                   42.254(11)
_cell_length_b                   12.259(3)
_cell_length_c                   17.952(4)
_cell_angle_alpha                90
_cell_angle_beta                 92.200(5)
_cell_angle_gamma                90
_cell_volume                     9292.13
_cell_formula_units_Z            8
loop_
_atom_site_label
_atom_site_type_symbol
_atom_site_fract_x
_atom_site_fract_y
_atom_site_fract_z
C1 C -0.05916(16) 0.4101(5) -0.2388(4)
C2 C -0.04827(13) 0.2976(5) -0.2175(3)
C3 C -0.02129(13) 0.2828(5) -0.1692(3)
C4 C -0.00453(14) 0.3776(5) -0.1401(3)
C5 C -0.01534(17) 0.4880(5) -0.1623(4)
C6 C 0.02143(14) 0.3628(5) -0.0939(3)
H1 H 0.0321 0.4235 -0.0747
C7 C 0.03231(14) 0.2591(5) -0.0749(3)
H2 H 0.0505 0.2511 -0.0447
C8 C 0.01612(14) 0.1677(5) -0.1007(3)
C9 C -0.01112(13) 0.1788(4) -0.1493(3)
C10 C -0.02802(15) 0.0883(5) -0.1775(3)
H3 H -0.0217 0.0180 -0.1644
C11 C -0.05459(14) 0.1051(5) -0.2256(3)
H4 H -0.0660 0.0456 -0.2444
C12 C -0.06389(13) 0.2093(5) -0.2451(3)
H5 H -0.0813 0.2190 -0.2779
C13 C -0.05123(18) 0.6085(5) -0.2303(4)
H6 H -0.0639 0.6060 -0.2765
H7 H -0.0325 0.6519 -0.2391
C14 C -0.06994(16) 0.6636(5) -0.1725(4)
H8 H -0.0916 0.6375 -0.1768
H9 H -0.0614 0.6428 -0.1237
C15 C -0.0701(2) 0.7845(6) -0.1777(5)
H10 H -0.0483 0.8090 -0.1766
H11 H -0.0795 0.8042 -0.2260
C16 C -0.0869(2) 0.8466(6) -0.1202(5)
H12 H -0.1042 0.8040 -0.1030
H13 H -0.0948 0.9136 -0.1413
H14 H -0.0724 0.8625 -0.0790
C17 C 0.02712(14) 0.0618(5) -0.0788(3)
C18 C 0.03761(13) -0.0246(5) -0.0585(3)
C19 C 0.04922(13) -0.1275(5) -0.0306(3)
C20 C 0.07562(12) -0.1329(4) 0.0181(3)
H15 H 0.0862 -0.0687 0.0311
C21 C 0.08673(12) -0.2302(4) 0.0476(3)
C22 C 0.07047(15) -0.3251(5) 0.0281(3)
C23 C 0.04379(15) -0.3214(5) -0.0207(3)
H16 H 0.0328 -0.3851 -0.0328
C24 C 0.03401(15) -0.2245(5) -0.0504(3)
H17 H 0.0169 -0.2231 -0.0845
C25 C 0.11472(12) -0.2314(4) 0.0967(3)
H18 H 0.1251 -0.1662 0.1080
C26 C 0.16190(14) -0.4249(5) 0.1966(3)
C27 C 0.19268(13) -0.4035(5) 0.2343(3)
C28 C 0.21231(17) -0.4760(5) 0.2748(3)
H19 H 0.2060 -0.5478 0.2821
C29 C 0.24071(17) -0.4398(6) 0.3033(3)
H20 H 0.2540 -0.4868 0.3304
C30 C 0.24972(14) -0.3330(6) 0.2917(3)
H21 H 0.2694 -0.3093 0.3103
C31 C 0.22996(14) -0.2602(5) 0.2526(3)
H22 H 0.2360 -0.1880 0.2462
C32 C 0.20146(13) -0.2969(4) 0.2236(3)
C33 C 0.17611(12) -0.2354(4) 0.1788(3)
C34 C 0.18773(11) -0.1989(4) 0.1041(3)
C35 C 0.19738(12) -0.2739(4) 0.0506(3)
H23 H 0.1964 -0.3478 0.0621
C36 C 0.20795(12) -0.2455(4) -0.0169(3)
C37 C 0.20992(12) -0.1361(5) -0.0356(3)
C38 C 0.20030(12) -0.0584(5) 0.0170(3)
H24 H 0.2011 0.0156 0.0059
C39 C 0.18967(11) -0.0922(4) 0.0850(3)
C40 C 0.16749(12) -0.0328(4) 0.1971(3)
C41 C 0.15746(13) 0.0556(4) 0.2369(3)
H25 H 0.1607 0.1258 0.2191
C42 C 0.14263(13) 0.0406(5) 0.3032(3)
C43 C 0.13851(12) -0.0653(5) 0.3303(3)
C44 C 0.14928(12) -0.1524(4) 0.2894(3)
H26 H 0.1467 -0.2227 0.3076
C45 C 0.16383(11) -0.1386(4) 0.2220(3)
C46 C 0.21775(13) -0.3305(4) -0.0722(3)
H27 H 0.2057 -0.3210 -0.1183
H28 H 0.2138 -0.4019 -0.0527
H29 H 0.2399 -0.3227 -0.0810
C47 C 0.12221(14) -0.0831(5) 0.4038(3)
H30 H 0.1208 -0.1599 0.4136
H31 H 0.1013 -0.0523 0.4004
H32 H 0.1343 -0.0484 0.4435
C48 C 0.22341(15) 0.0106(5) -0.1248(3)
H33 H 0.2048 0.0498 -0.1094
H34 H 0.2240 0.0158 -0.1787
C49 C 0.25262(17) 0.0653(5) -0.0907(4)
H35 H 0.2527 0.0579 -0.0375
H36 H 0.2525 0.1412 -0.1038
H37 H 0.2712 0.0314 -0.1094
C50 C 0.13937(15) 0.2424(5) 0.3216(3)
H38 H 0.1300 0.2565 0.2724
H39 H 0.1621 0.2513 0.3191
C51 C 0.12674(17) 0.3234(5) 0.3762(4)
H40 H 0.1040 0.3196 0.3751
H41 H 0.1332 0.3956 0.3627
H42 H 0.1350 0.3067 0.4254
N1 N -0.04132(13) 0.4980(4) -0.2107(3)
N2 N 0.12538(10) -0.3204(3) 0.1246(2)
N3 N 0.15253(10) -0.3231(3) 0.1694(2)
N4 N 0.22030(11) -0.1027(4) -0.1044(3)
H43 H 0.2251 -0.1517 -0.1363
N5 N 0.13232(11) 0.1313(4) 0.3434(2)
H44 H 0.1215 0.1206 0.3823
O1 O -0.08252(11) 0.4240(3) -0.2807(2)
O2 O -0.00227(11) 0.5700(3) -0.1394(3)
O3 O 0.07933(11) -0.4258(3) 0.0554(2)
H45 H 0.0935 -0.4184 0.0875
O4 O 0.14726(9) -0.5087(3) 0.1879(2)
O5 O 0.18099(9) -0.0068(3) 0.1305(2)
O6 O 0.82728(13) 0.7586(4) 0.9371(3)
O7 O 0.1795(2) 0.3772(7) 0.9438(5)
O8 O 0.1147(2) 0.6067(8) 0.4379(5)
loop_
_geom_bond_atom_site_label_1
_geom_bond_atom_site_label_2
_geom_bond_site_symmetry_1
_geom_bond_site_symmetry_2
C1 C2 1_555 1_555
C2 C3 1_555 1_555
C3 C4 1_555 1_555
C4 C5 1_555 1_555
C5 N1 1_555 1_555
C6 C4 1_555 1_555
H1 C6 1_555 1_555
C7 C6 1_555 1_555
H2 C7 1_555 1_555
C8 C7 1_555 1_555
C9 C3 1_555 1_555
C10 C9 1_555 1_555
H3 C10 1_555 1_555
C11 C10 1_555 1_555
H4 C11 1_555 1_555
C12 C2 1_555 1_555
H5 C12 1_555 1_555
C13 H6 1_555 1_555
H7 C13 1_555 1_555
C14 C13 1_555 1_555
H8 C14 1_555 1_555
H9 C14 1_555 1_555
C15 C14 1_555 1_555
H10 C15 1_555 1_555
H11 C15 1_555 1_555
C16 C15 1_555 1_555
H12 C16 1_555 1_555
H13 C16 1_555 1_555
H14 C16 1_555 1_555
C17 C8 1_555 1_555
C18 C17 1_555 1_555
C19 C18 1_555 1_555
C20 C19 1_555 1_555
H15 C20 1_555 1_555
C21 C20 1_555 1_555
C22 C21 1_555 1_555
C23 C22 1_555 1_555
H16 C23 1_555 1_555
C24 C19 1_555 1_555
H17 C24 1_555 1_555
C25 C21 1_555 1_555
H18 C25 1_555 1_555
C26 C27 1_555 1_555
C27 C28 1_555 1_555
C28 H19 1_555 1_555
C29 C28 1_555 1_555
H20 C29 1_555 1_555
C30 C29 1_555 1_555
H21 C30 1_555 1_555
C31 C30 1_555 1_555
H22 C31 1_555 1_555
C32 C27 1_555 1_555
C33 C32 1_555 1_555
C34 C33 1_555 1_555
C35 C34 1_555 1_555
H23 C35 1_555 1_555
C36 C35 1_555 1_555
C37 C36 1_555 1_555
C38 C37 1_555 1_555
H24 C38 1_555 1_555
C39 C34 1_555 1_555
C40 C41 1_555 1_555
C41 H25 1_555 1_555
C42 C41 1_555 1_555
C43 C42 1_555 1_555
C44 C43 1_555 1_555
H26 C44 1_555 1_555
C45 C33 1_555 1_555
C46 C36 1_555 1_555
H27 C46 1_555 1_555
H28 C46 1_555 1_555
H29 C46 1_555 1_555
C47 C43 1_555 1_555
H30 C47 1_555 1_555
H31 C47 1_555 1_555
H32 C47 1_555 1_555
C48 H33 1_555 1_555
H34 C48 1_555 1_555
C49 C48 1_555 1_555
H35 C49 1_555 1_555
H36 C49 1_555 1_555
H37 C49 1_555 1_555
C50 H38 1_555 1_555
H39 C50 1_555 1_555
C51 C50 1_555 1_555
H40 C51 1_555 1_555
H41 C51 1_555 1_555
H42 C51 1_555 1_555
N1 C1 1_555 1_555
N2 C25 1_555 1_555
N3 C26 1_555 1_555
N4 C37 1_555 1_555
H43 N4 1_555 1_555
N5 C42 1_555 1_555
H44 N5 1_555 1_555
O1 C1 1_555 1_555
O2 C5 1_555 1_555
O3 C22 1_555 1_555
H45 O3 1_555 1_555
O4 C26 1_555 1_555
O5 C39 1_555 1_555
C8 C9 1_555 1_555
C11 C12 1_555 1_555
C13 N1 1_555 1_555
C23 C24 1_555 1_555
C31 C32 1_555 1_555
C33 N3 1_555 1_555
C38 C39 1_555 1_555
C40 C45 1_555 1_555
C40 O5 1_555 1_555
C44 C45 1_555 1_555
C48 N4 1_555 1_555
C50 N5 1_555 1_555
N2 N3 1_555 1_555

#END
