
#######################################################################
#
#                 Cambridge Crystallographic Data Centre
#                                CCDC 
#
#######################################################################
#
# If this CIF has been generated from an entry in the Cambridge 
# Structural Database, then it will include bibliographic, chemical, 
# crystal, experimental, refinement or atomic coordinate data resulting 
# from the CCDC's data processing and validation procedures.
#
#######################################################################

data_EMUSAI
_chemical_formula_moiety         'C25 H22 O2'
_chemical_name_systematic        
10b-methyl-6-(2-naphthyl)-6a,7a,9,10,10a,10b-hexahydrofuro[2,3-b]naphtho[1,2-d]furan
_symmetry_cell_setting           monoclinic
_symmetry_space_group_name_H-M   'P 21'
_symmetry_Int_Tables_number      4
_space_group_name_Hall           'P 2yb'
loop_
_symmetry_equiv_pos_site_id
_symmetry_equiv_pos_as_xyz
1 x,y,z
2 -x,1/2+y,-z
_cell_length_a                   10.0693(4)
_cell_length_b                   9.5783(3)
_cell_length_c                   10.3350(5)
_cell_angle_alpha                90
_cell_angle_beta                 107.536(5)
_cell_angle_gamma                90
_cell_volume                     950.455
_exptl_crystal_colour            colorless
_exptl_crystal_description       block
_cell_formula_units_Z            2
loop_
_atom_site_label
_atom_site_type_symbol
_atom_site_fract_x
_atom_site_fract_y
_atom_site_fract_z
O1 O 0.93233(17) 0.42839(17) 0.86716(19)
C1 C 0.7282(2) 0.3116(3) 0.8845(3)
C2 C 0.7172(3) 0.2982(3) 1.0097(3)
H1 H 0.6798 0.2160 1.0317
C3 C 0.7608(3) 0.4056(3) 1.1131(3)
C4 C 0.7731(3) 0.3747(4) 1.2485(3)
H2 H 0.7505 0.2859 1.2714
C5 C 0.8181(3) 0.4742(5) 1.3481(3)
H3 H 0.8276 0.4520 1.4380
C6 C 0.8491(4) 0.6062(5) 1.3147(3)
H4 H 0.8784 0.6738 1.3819
C7 C 0.8370(3) 0.6392(4) 1.1813(3)
H5 H 0.8576 0.7293 1.1598
C8 C 0.7947(2) 0.5406(3) 1.0792(3)
C9 C 0.7756(2) 0.5764(3) 0.9310(2)
C10 C 0.7854(2) 0.4464(2) 0.8480(2)
H6 H 0.7390 0.4662 0.7520
C11 C 0.9903(3) 0.5623(3) 0.8690(3)
H7 H 1.0859 0.5643 0.9303
C12 C 0.8857(4) 0.7071(4) 0.6869(3)
H8 H 0.7979 0.6650 0.6359
H9 H 0.9141 0.7723 0.6285
C13 C 0.8717(3) 0.7792(3) 0.8091(3)
H10 H 0.7787 0.8172 0.7924
H11 H 0.9389 0.8543 0.8366
C14 C 0.8997(3) 0.6663(3) 0.9157(2)
H12 H 0.9521 0.7052 1.0040
C15 C 0.6316(3) 0.6440(3) 0.8754(3)
H13 H 0.6301 0.7307 0.9215
H14 H 0.5621 0.5824 0.8899
H15 H 0.6123 0.6611 0.7800
C16 C 0.6916(2) 0.2002(2) 0.7821(3)
C17 C 0.5852(3) 0.1013(3) 0.7785(3)
H16 H 0.5404 0.1042 0.8452
C18 C 0.5475(3) 0.0024(3) 0.6795(3)
H17 H 0.4774 -0.0606 0.6803
C19 C 0.6111(3) -0.0073(3) 0.5760(3)
C20 C 0.5732(3) -0.1068(3) 0.4699(3)
H18 H 0.5017 -0.1694 0.4665
C21 C 0.6386(3) -0.1126(4) 0.3735(3)
H19 H 0.6114 -0.1785 0.3045
C22 C 0.7468(3) -0.0201(3) 0.3771(3)
H20 H 0.7922 -0.0254 0.3111
C23 C 0.7860(3) 0.0778(3) 0.4770(3)
H21 H 0.8578 0.1393 0.4778
C24 C 0.7199(3) 0.0879(3) 0.5792(3)
C25 C 0.7562(2) 0.1901(3) 0.6821(3)
H22 H 0.8266 0.2532 0.6827
O2 O 0.9875(3) 0.6047(3) 0.7353(3)
loop_
_geom_bond_atom_site_label_1
_geom_bond_atom_site_label_2
_geom_bond_site_symmetry_1
_geom_bond_site_symmetry_2
O1 C10 1_555 1_555
C1 C2 1_555 1_555
C2 H1 1_555 1_555
C3 C2 1_555 1_555
C4 C3 1_555 1_555
H2 C4 1_555 1_555
C5 C4 1_555 1_555
H3 C5 1_555 1_555
C6 C5 1_555 1_555
H4 C6 1_555 1_555
C7 C6 1_555 1_555
H5 C7 1_555 1_555
C8 C3 1_555 1_555
C9 C8 1_555 1_555
C10 C1 1_555 1_555
H6 C10 1_555 1_555
C11 O1 1_555 1_555
H7 C11 1_555 1_555
C12 H8 1_555 1_555
H9 C12 1_555 1_555
C13 C12 1_555 1_555
H10 C13 1_555 1_555
H11 C13 1_555 1_555
C14 C9 1_555 1_555
H12 C14 1_555 1_555
C15 C9 1_555 1_555
H13 C15 1_555 1_555
H14 C15 1_555 1_555
H15 C15 1_555 1_555
C16 C1 1_555 1_555
C17 C16 1_555 1_555
H16 C17 1_555 1_555
C18 C17 1_555 1_555
H17 C18 1_555 1_555
C19 C18 1_555 1_555
C20 C19 1_555 1_555
H18 C20 1_555 1_555
C21 C20 1_555 1_555
H19 C21 1_555 1_555
C22 C21 1_555 1_555
H20 C22 1_555 1_555
C23 C22 1_555 1_555
H21 C23 1_555 1_555
C24 C19 1_555 1_555
C25 C16 1_555 1_555
H22 C25 1_555 1_555
O2 C11 1_555 1_555
C7 C8 1_555 1_555
C9 C10 1_555 1_555
C11 C14 1_555 1_555
C12 O2 1_555 1_555
C13 C14 1_555 1_555
C23 C24 1_555 1_555
C24 C25 1_555 1_555

#END
