
#######################################################################
#
#                 Cambridge Crystallographic Data Centre
#                                CCDC 
#
#######################################################################
#
# If this CIF has been generated from an entry in the Cambridge 
# Structural Database, then it will include bibliographic, chemical, 
# crystal, experimental, refinement or atomic coordinate data resulting 
# from the CCDC's data processing and validation procedures.
#
#######################################################################

data_EMUXEQ
_chemical_formula_moiety         'C20 H16 Br1 N1 O5'
_chemical_name_systematic        
'Methyl 3-(2-bromophenyl)-1,6-dioxo-2,3,4,4a-tetrahydro-1H,6H-pyrido[1,2-a][3,1]benzoxazine-2-carboxylate'
_symmetry_cell_setting           monoclinic
_symmetry_space_group_name_H-M   'P 21'
_symmetry_Int_Tables_number      4
_space_group_name_Hall           'P 2yb'
loop_
_symmetry_equiv_pos_site_id
_symmetry_equiv_pos_as_xyz
1 x,y,z
2 -x,1/2+y,-z
_cell_length_a                   8.2259(12)
_cell_length_b                   12.3386(17)
_cell_length_c                   9.1136(13)
_cell_angle_alpha                90
_cell_angle_beta                 97.552(2)
_cell_angle_gamma                90
_cell_volume                     916.971
_exptl_crystal_colour            colorless
_exptl_crystal_description       prismatic
_cell_formula_units_Z            2
loop_
_atom_site_label
_atom_site_type_symbol
_atom_site_fract_x
_atom_site_fract_y
_atom_site_fract_z
Br1 Br 0.49094(7) 0.27141(7) 0.75669(6)
O1 O 0.0579(4) 0.2191(3) 0.2001(4)
O2 O 0.0614(4) 0.3100(2) 0.4080(3)
O3 O 0.1417(4) 0.6481(2) 0.3724(3)
O4 O 0.3496(5) 0.7240(3) 0.6754(4)
O5 O 0.4626(4) 0.5795(3) 0.5827(4)
N1 N -0.0050(4) 0.4959(2) 0.4032(3)
C1 C 0.0182(5) 0.3011(3) 0.2582(5)
C2 C -0.0241(5) 0.3942(3) 0.4776(4)
H1 H -0.1410 0.3760 0.4682
C3 C -0.0748(5) 0.4917(3) 0.2517(4)
C4 C -0.0673(5) 0.3927(3) 0.1817(4)
C5 C -0.1352(5) 0.3824(4) 0.0337(5)
H2 H -0.1299 0.3164 -0.0149
C6 C -0.2096(6) 0.4698(5) -0.0398(5)
H3 H -0.2560 0.4630 -0.1381
C7 C -0.2158(6) 0.5684(5) 0.0321(5)
H4 H -0.2659 0.6276 -0.0183
C8 C -0.1489(6) 0.5790(4) 0.1763(5)
H5 H -0.1534 0.6454 0.2239
C9 C 0.0443(5) 0.3958(3) 0.6394(4)
H6 H 0.0543 0.3219 0.6758
H7 H -0.0319 0.4335 0.6942
C10 C 0.2103(5) 0.4506(3) 0.6675(4)
H8 H 0.2851 0.4133 0.6091
C11 C 0.1867(5) 0.5680(3) 0.6096(4)
H9 H 0.1107 0.6034 0.6687
C12 C 0.1095(5) 0.5742(3) 0.4500(4)
C13 C 0.2809(5) 0.4438(3) 0.8285(4)
C14 C 0.3944(5) 0.3668(4) 0.8852(5)
C15 C 0.4466(6) 0.3564(5) 1.0334(6)
H10 H 0.5182 0.3007 1.0669
C16 C 0.3939(7) 0.4273(5) 1.1325(5)
H11 H 0.4318 0.4220 1.2329
C17 C 0.2843(7) 0.5064(5) 1.0807(5)
H12 H 0.2471 0.5549 1.1470
C18 C 0.2285(6) 0.5151(4) 0.9325(5)
H13 H 0.1541 0.5696 0.9003
C19 C 0.3399(6) 0.6339(4) 0.6272(5)
C20 C 0.6204(7) 0.6345(6) 0.6032(7)
H14 H 0.6120 0.7014 0.5491
H15 H 0.7015 0.5891 0.5674
H16 H 0.6517 0.6491 0.7065
loop_
_geom_bond_atom_site_label_1
_geom_bond_atom_site_label_2
_geom_bond_site_symmetry_1
_geom_bond_site_symmetry_2
Br1 C14 1_555 1_555
O1 C1 1_555 1_555
O2 C1 1_555 1_555
O3 C12 1_555 1_555
O4 C19 1_555 1_555
O5 C19 1_555 1_555
N1 C2 1_555 1_555
C1 C4 1_555 1_555
C2 O2 1_555 1_555
H1 C2 1_555 1_555
C3 N1 1_555 1_555
C4 C3 1_555 1_555
C5 C4 1_555 1_555
H2 C5 1_555 1_555
C6 C5 1_555 1_555
H3 C6 1_555 1_555
C7 C6 1_555 1_555
H4 C7 1_555 1_555
C8 C3 1_555 1_555
H5 C8 1_555 1_555
C9 C2 1_555 1_555
H6 C9 1_555 1_555
H7 C9 1_555 1_555
C10 C9 1_555 1_555
H8 C10 1_555 1_555
C11 C10 1_555 1_555
H9 C11 1_555 1_555
C12 N1 1_555 1_555
C13 C10 1_555 1_555
C14 C13 1_555 1_555
C15 C14 1_555 1_555
H10 C15 1_555 1_555
C16 C15 1_555 1_555
H11 C16 1_555 1_555
C17 C16 1_555 1_555
H12 C17 1_555 1_555
C18 C13 1_555 1_555
H13 C18 1_555 1_555
C19 C11 1_555 1_555
C20 O5 1_555 1_555
H14 C20 1_555 1_555
H15 C20 1_555 1_555
H16 C20 1_555 1_555
C7 C8 1_555 1_555
C11 C12 1_555 1_555
C17 C18 1_555 1_555

#END
