
#######################################################################
#
#                 Cambridge Crystallographic Data Centre
#                                CCDC 
#
#######################################################################
#
# If this CIF has been generated from an entry in the Cambridge 
# Structural Database, then it will include bibliographic, chemical, 
# crystal, experimental, refinement or atomic coordinate data resulting 
# from the CCDC's data processing and validation procedures.
#
#######################################################################

data_EMUXUG
_chemical_formula_moiety         'C25 H21 Cl1 N2 O3'
_chemical_name_systematic        
"(2'R,3S,4'R,5'R)-Methyl 2'-(4-chlorophenyl)-2-oxo-4'-phenyl-1,2-dihydrospiro[indole-3,3'-pyrrolidine]-5'-carboxylate"
_symmetry_cell_setting           orthorhombic
_symmetry_space_group_name_H-M   'P 21 21 21'
_symmetry_Int_Tables_number      19
_space_group_name_Hall           'P 2ac 2ab'
loop_
_symmetry_equiv_pos_site_id
_symmetry_equiv_pos_as_xyz
1 x,y,z
2 1/2-x,-y,1/2+z
3 -x,1/2+y,1/2-z
4 1/2+x,1/2-y,-z
_cell_length_a                   10.270(3)
_cell_length_b                   11.202(3)
_cell_length_c                   18.897(6)
_cell_angle_alpha                90
_cell_angle_beta                 90
_cell_angle_gamma                90
_cell_volume                     2174
_exptl_crystal_colour            colorless
_exptl_crystal_description       block
_cell_formula_units_Z            4
loop_
_atom_site_label
_atom_site_type_symbol
_atom_site_fract_x
_atom_site_fract_y
_atom_site_fract_z
C1 C 0.4901(2) -0.16392(17) -0.11718(11)
C2 C 0.4248(2) -0.20394(19) -0.05875(11)
H1 H 0.3501 -0.2501 -0.0637
C3 C 0.4709(2) -0.17505(17) 0.00762(11)
H2 H 0.4275 -0.2036 0.0474
C4 C 0.58066(17) -0.10432(14) 0.01635(9)
C5 C 0.64574(19) -0.06751(18) -0.04394(10)
H3 H 0.7207 -0.0215 -0.0397
C6 C 0.6007(2) -0.09834(19) -0.11062(11)
H4 H 0.6461 -0.0742 -0.1507
C7 C 0.61738(15) -0.06455(14) 0.09028(9)
H5 H 0.6018 -0.1319 0.1223
C8 C 0.53501(15) 0.04360(13) 0.11789(8)
C9 C 0.62140(16) 0.09212(14) 0.17905(8)
H6 H 0.6099 0.1788 0.1823
C10 C 0.76101(17) 0.06525(15) 0.15210(9)
H7 H 0.8118 0.0344 0.1920
C11 C 0.83174(18) 0.17323(17) 0.12268(9)
C12 C 0.8945(4) 0.3723(3) 0.14396(15)
H8 H 0.9829 0.3516 0.1329
H9 H 0.8936 0.4296 0.1817
H10 H 0.8536 0.4061 0.1029
C13 C 0.59120(17) 0.03703(15) 0.25051(8)
C14 C 0.5056(2) 0.09377(19) 0.29542(10)
H11 H 0.4678 0.1656 0.2817
C15 C 0.4750(3) 0.0450(2) 0.36104(11)
H12 H 0.4170 0.0840 0.3909
C16 C 0.5310(3) -0.0617(2) 0.38174(11)
H13 H 0.5110 -0.0948 0.4255
C17 C 0.6152(2) -0.11765(19) 0.33773(11)
H14 H 0.6531 -0.1893 0.3517
C18 C 0.64605(19) -0.07002(16) 0.27216(9)
H15 H 0.7038 -0.1100 0.2426
C19 C 0.52520(16) 0.14013(13) 0.06028(8)
C20 C 0.31833(16) 0.07575(15) 0.08287(8)
C21 C 0.18549(18) 0.06072(19) 0.07819(10)
H16 H 0.1355 0.1056 0.0469
C22 C 0.12947(19) -0.0242(2) 0.12211(12)
H17 H 0.0401 -0.0372 0.1200
C23 C 0.20389(18) -0.09000(19) 0.16898(10)
H18 H 0.1642 -0.1472 0.1973
C24 C 0.33656(17) -0.07167(16) 0.17414(9)
H19 H 0.3860 -0.1151 0.2063
C25 C 0.39485(16) 0.01249(14) 0.13061(8)
Cl1 Cl 0.42927(8) -0.19584(6) -0.20143(3)
N1 N 0.75302(14) -0.02807(13) 0.09888(9)
H20 H 0.8180 -0.0573 0.0760
N2 N 0.39810(13) 0.15124(12) 0.04260(7)
H21 H 0.3696 0.1989 0.0105
O1 O 0.89268(12) 0.17171(12) 0.06821(7)
O2 O 0.82385(19) 0.26555(14) 0.16576(7)
O3 O 0.61534(12) 0.19754(11) 0.03597(6)
loop_
_geom_bond_atom_site_label_1
_geom_bond_atom_site_label_2
_geom_bond_site_symmetry_1
_geom_bond_site_symmetry_2
C1 C2 1_555 1_555
C2 H1 1_555 1_555
C3 C2 1_555 1_555
H2 C3 1_555 1_555
C4 C3 1_555 1_555
C5 C4 1_555 1_555
H3 C5 1_555 1_555
C6 C1 1_555 1_555
H4 C6 1_555 1_555
C7 C4 1_555 1_555
H5 C7 1_555 1_555
C8 C7 1_555 1_555
C9 C8 1_555 1_555
H6 C9 1_555 1_555
C10 C9 1_555 1_555
H7 C10 1_555 1_555
C11 C10 1_555 1_555
C12 H8 1_555 1_555
H9 C12 1_555 1_555
H10 C12 1_555 1_555
C13 C9 1_555 1_555
C14 C13 1_555 1_555
H11 C14 1_555 1_555
C15 C14 1_555 1_555
H12 C15 1_555 1_555
C16 C15 1_555 1_555
H13 C16 1_555 1_555
C17 C16 1_555 1_555
H14 C17 1_555 1_555
C18 C13 1_555 1_555
H15 C18 1_555 1_555
C19 C8 1_555 1_555
C20 C21 1_555 1_555
C21 H16 1_555 1_555
C22 C21 1_555 1_555
H17 C22 1_555 1_555
C23 C22 1_555 1_555
H18 C23 1_555 1_555
C24 C23 1_555 1_555
H19 C24 1_555 1_555
C25 C8 1_555 1_555
Cl1 C1 1_555 1_555
N1 C7 1_555 1_555
H20 N1 1_555 1_555
N2 C19 1_555 1_555
H21 N2 1_555 1_555
O1 C11 1_555 1_555
O2 C11 1_555 1_555
O3 C19 1_555 1_555
C5 C6 1_555 1_555
C10 N1 1_555 1_555
C12 O2 1_555 1_555
C17 C18 1_555 1_555
C20 C25 1_555 1_555
C20 N2 1_555 1_555
C24 C25 1_555 1_555

#END
