
#######################################################################
#
#                 Cambridge Crystallographic Data Centre
#                                CCDC 
#
#######################################################################
#
# If this CIF has been generated from an entry in the Cambridge 
# Structural Database, then it will include bibliographic, chemical, 
# crystal, experimental, refinement or atomic coordinate data resulting 
# from the CCDC's data processing and validation procedures.
#
#######################################################################

data_EMUYUH
_chemical_formula_moiety         'C14 H18 F3 N1 O2 S1'
_chemical_name_systematic        
(S)-2-methyl-N-((S)-1,1,1-trifluoro-4-oxo-4-phenylbutan-2-yl)propane-2-sulfinamide
_symmetry_cell_setting           orthorhombic
_symmetry_space_group_name_H-M   'P 21 21 21'
_symmetry_Int_Tables_number      19
_space_group_name_Hall           'P 2ac 2ab'
loop_
_symmetry_equiv_pos_site_id
_symmetry_equiv_pos_as_xyz
1 x,y,z
2 1/2-x,-y,1/2+z
3 -x,1/2+y,1/2-z
4 1/2+x,1/2-y,-z
_cell_length_a                   10.9351(14)
_cell_length_b                   11.7459(15)
_cell_length_c                   24.978(3)
_cell_angle_alpha                90
_cell_angle_beta                 90
_cell_angle_gamma                90
_cell_volume                     3208.24
_exptl_crystal_colour            colorless
_exptl_crystal_description       block
_chemical_melting_point          146-148deg.C
_cell_formula_units_Z            8
loop_
_atom_site_label
_atom_site_type_symbol
_atom_site_fract_x
_atom_site_fract_y
_atom_site_fract_z
C1 C 0.4375(2) 0.0450(2) 0.22532(9)
C2 C 0.3776(3) 0.1351(2) 0.24914(11)
H1 H 0.3971 0.2090 0.2389
C3 C 0.2896(3) 0.1179(4) 0.28776(13)
H2 H 0.2493 0.1796 0.3030
C4 C 0.2623(3) 0.0104(4) 0.30332(12)
H3 H 0.2031 -0.0014 0.3294
C5 C 0.3212(3) -0.0816(3) 0.28091(12)
H4 H 0.3027 -0.1551 0.2921
C6 C 0.4079(2) -0.0637(2) 0.24166(10)
H5 H 0.4469 -0.1257 0.2260
C7 C 0.5289(3) 0.0687(2) 0.18343(10)
C8 C 0.6031(2) -0.02757(19) 0.16098(8)
H6 H 0.5492 -0.0911 0.1535
H7 H 0.6615 -0.0523 0.1878
C9 C 0.6721(2) 0.0036(2) 0.10994(8)
H8 H 0.7028 0.0815 0.1140
C10 C 0.7809(3) -0.0737(3) 0.10194(12)
C11 C 0.4504(2) 0.1046(2) -0.00784(9)
C12 C 0.4084(2) -0.0093(2) -0.02903(10)
H9 H 0.4066 -0.0636 -0.0003
H10 H 0.4639 -0.0349 -0.0562
H11 H 0.3279 -0.0017 -0.0440
C13 C 0.3726(3) 0.1468(2) 0.03834(10)
H12 H 0.2935 0.1685 0.0252
H13 H 0.4114 0.2113 0.0547
H14 H 0.3637 0.0872 0.0643
C14 C 0.4548(3) 0.1917(2) -0.05294(10)
H15 H 0.4996 0.1609 -0.0826
H16 H 0.4944 0.2597 -0.0405
H17 H 0.3730 0.2096 -0.0642
F1 F 0.85771(15) -0.06701(17) 0.14399(6)
F2 F 0.75070(17) -0.18204(17) 0.09754(7)
F3 F 0.84571(15) -0.04745(17) 0.05933(6)
N1 N 0.59146(16) 0.00174(15) 0.06450(7)
H35 H 0.5336 -0.0477 0.0628
O1 O 0.5457(2) 0.16509(15) 0.16772(8)
O2 O 0.67787(13) 0.04476(12) -0.03007(6)
S1 S 0.60989(6) 0.09436(5) 0.01563(2)
C15 C 0.1792(2) 0.34940(19) 0.18694(8)
C16 C 0.0896(3) 0.3811(2) 0.22328(10)
H18 H 0.0960 0.4505 0.2410
C17 C -0.0076(3) 0.3121(3) 0.23342(12)
H19 H -0.0673 0.3354 0.2576
C18 C -0.0185(3) 0.2093(3) 0.20863(12)
H20 H -0.0849 0.1624 0.2159
C19 C 0.0694(3) 0.1756(2) 0.17278(12)
H21 H 0.0627 0.1055 0.1557
C20 C 0.1674(2) 0.24549(19) 0.16213(9)
H22 H 0.2266 0.2221 0.1378
C21 C 0.2837(2) 0.42748(19) 0.17781(9)
C22 C 0.36487(19) 0.40710(17) 0.12979(8)
H23 H 0.3150 0.3827 0.0998
H24 H 0.4223 0.3465 0.1379
C23 C 0.43525(18) 0.51380(17) 0.11422(8)
H25 H 0.4722 0.5455 0.1467
C24 C 0.5356(2) 0.4875(2) 0.07553(11)
C25 C 0.1960(2) 0.76597(18) 0.09976(9)
C26 C 0.1172(2) 0.6891(2) 0.13428(10)
H26 H 0.0347 0.7171 0.1345
H27 H 0.1486 0.6884 0.1702
H28 H 0.1185 0.6132 0.1200
C27 C 0.1861(3) 0.88976(19) 0.11837(11)
H29 H 0.1036 0.9158 0.1137
H30 H 0.2403 0.9364 0.0975
H31 H 0.2082 0.8947 0.1555
C28 C 0.1657(2) 0.75623(19) 0.04061(9)
H32 H 0.1658 0.6775 0.0303
H33 H 0.2258 0.7968 0.0201
H34 H 0.0863 0.7883 0.0341
F4 F 0.60962(13) 0.40459(12) 0.09200(5)
F5 F 0.49430(14) 0.45545(13) 0.02782(6)
F6 F 0.60708(14) 0.57840(13) 0.06697(6)
N2 N 0.35337(16) 0.59759(13) 0.09234(6)
H36 H 0.3014 0.5776 0.0683
O3 O 0.30356(15) 0.50561(14) 0.20844(6)
O4 O 0.42801(15) 0.80277(13) 0.07541(8)
S2 S 0.35695(6) 0.72982(5) 0.11225(3)
loop_
_geom_bond_atom_site_label_1
_geom_bond_atom_site_label_2
_geom_bond_site_symmetry_1
_geom_bond_site_symmetry_2
C1 C2 1_555 1_555
C2 H1 1_555 1_555
C3 C2 1_555 1_555
H2 C3 1_555 1_555
C4 C3 1_555 1_555
H3 C4 1_555 1_555
C5 C4 1_555 1_555
H4 C5 1_555 1_555
C6 C1 1_555 1_555
H5 C6 1_555 1_555
C7 C1 1_555 1_555
C8 C7 1_555 1_555
H6 C8 1_555 1_555
H7 C8 1_555 1_555
C9 C8 1_555 1_555
H8 C9 1_555 1_555
C10 C9 1_555 1_555
C11 C12 1_555 1_555
C12 H9 1_555 1_555
H10 C12 1_555 1_555
H11 C12 1_555 1_555
C13 C11 1_555 1_555
H12 C13 1_555 1_555
H13 C13 1_555 1_555
H14 C13 1_555 1_555
C14 C11 1_555 1_555
H15 C14 1_555 1_555
H16 C14 1_555 1_555
H17 C14 1_555 1_555
C15 C16 1_555 1_555
C16 H18 1_555 1_555
C17 C16 1_555 1_555
H19 C17 1_555 1_555
C18 C17 1_555 1_555
H20 C18 1_555 1_555
C19 C18 1_555 1_555
H21 C19 1_555 1_555
C20 C15 1_555 1_555
H22 C20 1_555 1_555
C21 C15 1_555 1_555
C22 C21 1_555 1_555
H23 C22 1_555 1_555
H24 C22 1_555 1_555
C23 C22 1_555 1_555
H25 C23 1_555 1_555
C24 C23 1_555 1_555
C25 C26 1_555 1_555
C26 H26 1_555 1_555
H27 C26 1_555 1_555
H28 C26 1_555 1_555
C27 C25 1_555 1_555
H29 C27 1_555 1_555
H30 C27 1_555 1_555
H31 C27 1_555 1_555
C28 C25 1_555 1_555
H32 C28 1_555 1_555
H33 C28 1_555 1_555
H34 C28 1_555 1_555
F1 C10 1_555 1_555
F2 C10 1_555 1_555
F3 C10 1_555 1_555
F4 C24 1_555 1_555
F5 C24 1_555 1_555
F6 C24 1_555 1_555
N1 C9 1_555 1_555
H35 N1 1_555 1_555
N2 C23 1_555 1_555
H36 N2 1_555 1_555
O1 C7 1_555 1_555
O2 S1 1_555 1_555
O3 C21 1_555 1_555
O4 S2 1_555 1_555
S1 C11 1_555 1_555
S2 C25 1_555 1_555
C5 C6 1_555 1_555
C19 C20 1_555 1_555
N1 S1 1_555 1_555
N2 S2 1_555 1_555

#END
