
#######################################################################
#
#                 Cambridge Crystallographic Data Centre
#                                CCDC 
#
#######################################################################
#
# If this CIF has been generated from an entry in the Cambridge 
# Structural Database, then it will include bibliographic, chemical, 
# crystal, experimental, refinement or atomic coordinate data resulting 
# from the CCDC's data processing and validation procedures.
#
#######################################################################

data_EMUZUI
_chemical_formula_moiety         'C31 H34 O13'
_chemical_name_systematic        
'Hexamethyl 19-oxotetracyclo[8.8.1.0^3,8^.0^12,17^]nonadeca-3(8),5,12(17),14-tetraene-1,5,6,10,14,15-hexacarboxylate'
_symmetry_cell_setting           monoclinic
_symmetry_space_group_name_H-M   'P 21/n'
_symmetry_Int_Tables_number      14
_space_group_name_Hall           '-P 2yn'
loop_
_symmetry_equiv_pos_site_id
_symmetry_equiv_pos_as_xyz
1 x,y,z
2 1/2-x,1/2+y,1/2-z
3 -x,-y,-z
4 1/2+x,1/2-y,1/2+z
_cell_length_a                   12.624(3)
_cell_length_b                   10.895(2)
_cell_length_c                   21.852(4)
_cell_angle_alpha                90
_cell_angle_beta                 104.90(3)
_cell_angle_gamma                90
_cell_volume                     2904.43
_cell_formula_units_Z            4
loop_
_atom_site_label
_atom_site_type_symbol
_atom_site_fract_x
_atom_site_fract_y
_atom_site_fract_z
C1 C 0.0939(3) 0.5949(3) 0.90893(14)
C2 C 0.1781(3) 0.5301(3) 0.96401(14)
H1 H 0.1973 0.5855 0.9999
H2 H 0.1437 0.4584 0.9769
C3 C 0.2825(3) 0.4904(3) 0.94720(14)
C4 C 0.3531(3) 0.5725(3) 0.93602(15)
C5 C 0.3298(3) 0.7102(3) 0.94116(15)
H3 H 0.3961 0.7562 0.9425
H4 H 0.3098 0.7251 0.9805
C6 C 0.2372(3) 0.7575(3) 0.88560(14)
C7 C 0.1748(3) 0.8725(3) 0.90321(14)
H5 H 0.2193 0.9448 0.9024
H6 H 0.1071 0.8827 0.8705
C8 C 0.1470(3) 0.8682(3) 0.96706(15)
C9 C 0.0830(3) 0.7836(3) 0.98226(15)
C10 C 0.0229(3) 0.6891(3) 0.93518(15)
H7 H -0.0234 0.7326 0.8994
H8 H -0.0251 0.6432 0.9550
C11 C 0.1515(3) 0.6560(3) 0.86151(16)
C12 C 0.4576(3) 0.5370(3) 0.91825(15)
H9 H 0.4607 0.5815 0.8803
H10 H 0.5198 0.5628 0.9519
C13 C 0.4685(3) 0.4026(3) 0.90675(15)
C14 C 0.3984(3) 0.3201(3) 0.92034(15)
C15 C 0.3009(3) 0.3535(3) 0.94414(15)
H11 H 0.3104 0.3191 0.9861
H12 H 0.2361 0.3165 0.9167
C16 C 0.0643(3) 0.7768(4) 1.04638(15)
H13 H 0.0985 0.7026 1.0668
H14 H -0.0139 0.7699 1.0421
C17 C 0.1073(3) 0.8840(3) 1.08871(14)
C18 C 0.1635(3) 0.9750(3) 1.07176(15)
C19 C 0.1941(3) 0.9733(3) 1.01055(15)
H15 H 0.2734 0.9701 1.0193
H16 H 0.1703 1.0497 0.9885
C20 C 0.0191(3) 0.5002(4) 0.86781(16)
C21 C 0.2836(3) 0.7915(3) 0.82989(16)
C22 C 0.4049(4) 0.1846(4) 0.9054(2)
C23 C 0.5582(3) 0.3726(4) 0.87566(17)
C24 C 0.0848(3) 0.8748(3) 1.15159(17)
C25 C 0.1951(3) 1.0838(3) 1.11382(16)
C26 C -0.1444(3) 0.4679(4) 0.78930(16)
H17 H -0.1726 0.4041 0.8109
H18 H -0.1025 0.4321 0.7629
H19 H -0.2041 0.5142 0.7636
C27 C 0.2547(3) 0.9002(3) 0.73422(13)
H20 H 0.2497 0.8300 0.7071
H21 H 0.3294 0.9276 0.7471
H22 H 0.2094 0.9650 0.7117
C28 C 0.5145(4) 0.0236(5) 0.8827(3)
H23 H 0.4651 0.0184 0.8413
H24 H 0.4955 -0.0377 0.9096
H25 H 0.5882 0.0100 0.8797
C29 C 0.5960(4) 0.2912(5) 0.78395(17)
H26 H 0.6480 0.2345 0.8086
H27 H 0.6337 0.3633 0.7755
H28 H 0.5586 0.2534 0.7447
C30 C 0.2978(3) 1.2670(4) 1.13451(16)
H29 H 0.3182 1.2426 1.1782
H30 H 0.2386 1.3249 1.1278
H31 H 0.3595 1.3043 1.1237
C31 C -0.0538(3) 0.8780(4) 1.20703(14)
H32 H -0.0071 0.9250 1.2405
H33 H -0.0469 0.7924 1.2177
H34 H -0.1285 0.9033 1.2016
O1 O 0.1272(2) 0.6267(2) 0.80687(10)
O2 O 0.0453(2) 0.3927(2) 0.86430(11)
O3 O -0.0745(2) 0.5487(2) 0.83542(10)
O4 O 0.2178(2) 0.8670(2) 0.78986(10)
O5 O 0.3693(2) 0.7523(3) 0.82276(11)
O6 O 0.3260(3) 0.1209(3) 0.88952(16)
O7 O 0.5065(2) 0.1459(3) 0.90942(14)
O8 O 0.6521(2) 0.3977(3) 0.89652(11)
O9 O 0.5167(2) 0.3254(3) 0.81893(12)
O10 O 0.1628(2) 1.1020(2) 1.16003(10)
O11 O 0.2628(2) 1.1590(2) 1.09452(11)
O12 O -0.0218(2) 0.8985(2) 1.14821(10)
O13 O 0.1507(2) 0.8419(2) 1.19927(11)
loop_
_geom_bond_atom_site_label_1
_geom_bond_atom_site_label_2
_geom_bond_site_symmetry_1
_geom_bond_site_symmetry_2
C1 C2 1_555 1_555
C2 H1 1_555 1_555
H2 C2 1_555 1_555
C3 C2 1_555 1_555
C4 C3 1_555 1_555
C5 C4 1_555 1_555
H3 C5 1_555 1_555
H4 C5 1_555 1_555
C6 C5 1_555 1_555
C7 C6 1_555 1_555
H5 C7 1_555 1_555
H6 C7 1_555 1_555
C8 C7 1_555 1_555
C9 C8 1_555 1_555
C10 C1 1_555 1_555
H7 C10 1_555 1_555
H8 C10 1_555 1_555
C11 C1 1_555 1_555
C12 C4 1_555 1_555
H9 C12 1_555 1_555
H10 C12 1_555 1_555
C13 C12 1_555 1_555
C14 C13 1_555 1_555
C15 C3 1_555 1_555
H11 C15 1_555 1_555
H12 C15 1_555 1_555
C16 C9 1_555 1_555
H13 C16 1_555 1_555
H14 C16 1_555 1_555
C17 C16 1_555 1_555
C18 C17 1_555 1_555
C19 C8 1_555 1_555
H15 C19 1_555 1_555
H16 C19 1_555 1_555
C20 C1 1_555 1_555
C21 C6 1_555 1_555
C22 C14 1_555 1_555
C23 C13 1_555 1_555
C24 C17 1_555 1_555
C25 C18 1_555 1_555
C26 H17 1_555 1_555
H18 C26 1_555 1_555
H19 C26 1_555 1_555
C27 H20 1_555 1_555
H21 C27 1_555 1_555
H22 C27 1_555 1_555
C28 H23 1_555 1_555
H24 C28 1_555 1_555
H25 C28 1_555 1_555
C29 H26 1_555 1_555
H27 C29 1_555 1_555
H28 C29 1_555 1_555
C30 H29 1_555 1_555
H30 C30 1_555 1_555
H31 C30 1_555 1_555
C31 H32 1_555 1_555
H33 C31 1_555 1_555
H34 C31 1_555 1_555
O1 C11 1_555 1_555
O2 C20 1_555 1_555
O3 C20 1_555 1_555
O4 C21 1_555 1_555
O5 C21 1_555 1_555
O6 C22 1_555 1_555
O7 C22 1_555 1_555
O8 C23 1_555 1_555
O9 C23 1_555 1_555
O10 C25 1_555 1_555
O11 C25 1_555 1_555
O12 C24 1_555 1_555
O13 C24 1_555 1_555
C6 C11 1_555 1_555
C9 C10 1_555 1_555
C14 C15 1_555 1_555
C18 C19 1_555 1_555
C26 O3 1_555 1_555
C27 O4 1_555 1_555
C28 O7 1_555 1_555
C29 O9 1_555 1_555
C30 O11 1_555 1_555
C31 O12 1_555 1_555

#END
