
#######################################################################
#
#                 Cambridge Crystallographic Data Centre
#                                CCDC 
#
#######################################################################
#
# If this CIF has been generated from an entry in the Cambridge 
# Structural Database, then it will include bibliographic, chemical, 
# crystal, experimental, refinement or atomic coordinate data resulting 
# from the CCDC's data processing and validation procedures.
#
#######################################################################

data_EMXPEA
_chemical_name_common            4-Ethyl-2,5-dimethoxy-amphetamine
_chemical_formula_moiety         'C13 H21 N1 O2'
_chemical_name_systematic        
2-(4-Ethyl-2,5-dimethoxyphenyl)-1-methyl-ethylamine
_symmetry_cell_setting           triclinic
_symmetry_space_group_name_H-M   'P -1'
_symmetry_Int_Tables_number      2
_space_group_name_Hall           '-P 1'
loop_
_symmetry_equiv_pos_site_id
_symmetry_equiv_pos_as_xyz
1 x,y,z
2 -x,-y,-z
_cell_length_a                   7.43(4)
_cell_length_b                   16.73(4)
_cell_length_c                   5.25(6)
_cell_angle_alpha                93.50
_cell_angle_beta                 87.50
_cell_angle_gamma                96.50
_cell_volume                     646.748
_cell_formula_units_Z            2
loop_
_atom_site_label
_atom_site_type_symbol
_atom_site_fract_x
_atom_site_fract_y
_atom_site_fract_z
C1 C -0.08030 0.27560 -0.07720
C2 C -0.27110 0.14140 -0.59280
C3 C 0.30350 0.09790 -0.12080
C4 C 0.26560 0.03980 0.09280
C5 C 0.36560 0.29560 0.40220
C6 C -0.33530 0.45390 -0.24000
C7 C -0.09590 0.21020 -0.24630
C8 C 0.02750 0.15400 -0.26600
C9 C 0.17320 0.16070 -0.10620
C10 C 0.18890 0.22620 0.06060
C11 C 0.06740 0.28460 0.08260
C12 C -0.21370 0.33740 -0.05410
C13 C -0.19510 0.39620 -0.26970
H1 H -0.28200 0.08600 -0.51200
H2 H -0.16200 0.14600 -0.72200
H3 H -0.38800 0.14700 -0.68500
H4 H 0.43400 0.12600 -0.11300
H5 H 0.28900 0.06500 -0.29200
H6 H 0.28100 0.07200 0.26600
H7 H 0.13600 0.01100 0.08600
H8 H 0.35800 -0.00200 0.07200
H9 H 0.25700 0.29300 0.53200
H10 H 0.37800 0.35000 0.31800
H11 H 0.48200 0.29000 0.49400
H12 H -0.32100 0.48700 -0.06900
H13 H -0.32000 0.49300 -0.38700
H14 H -0.46200 0.42200 -0.24200
H15 H 0.01100 0.10600 -0.39800
H16 H 0.08500 0.33300 0.21200
H17 H -0.19500 0.37000 0.11600
H18 H -0.34300 0.30800 -0.05300
H19 H -0.21100 0.36300 -0.44000
H20 H 0.09200 0.41600 -0.28600
H21 H -0.00300 0.50000 -0.25600
N1 N -0.01370 0.44320 -0.27080
O1 O -0.24770 0.20490 -0.39890
O2 O 0.33950 0.23180 0.21360
loop_
_geom_bond_atom_site_label_1
_geom_bond_atom_site_label_2
_geom_bond_site_symmetry_1
_geom_bond_site_symmetry_2
C1 C7 1_555 1_555
C2 H1 1_555 1_555
C3 C4 1_555 1_555
C4 H6 1_555 1_555
C5 H9 1_555 1_555
C6 C13 1_555 1_555
C7 C8 1_555 1_555
C8 C9 1_555 1_555
C9 C3 1_555 1_555
C10 C9 1_555 1_555
C11 C1 1_555 1_555
C12 C1 1_555 1_555
C13 C12 1_555 1_555
H2 C2 1_555 1_555
H3 C2 1_555 1_555
H4 C3 1_555 1_555
H5 C3 1_555 1_555
H7 C4 1_555 1_555
H8 C4 1_555 1_555
H10 C5 1_555 1_555
H11 C5 1_555 1_555
H12 C6 1_555 1_555
H13 C6 1_555 1_555
H14 C6 1_555 1_555
H15 C8 1_555 1_555
H16 C11 1_555 1_555
H17 C12 1_555 1_555
H18 C12 1_555 1_555
H19 C13 1_555 1_555
H20 N1 1_555 1_555
H21 N1 1_555 1_555
N1 C13 1_555 1_555
O1 C2 1_555 1_555
O2 C5 1_555 1_555
C7 O1 1_555 1_555
C10 C11 1_555 1_555
C10 O2 1_555 1_555

#END
