
#######################################################################
#
#                 Cambridge Crystallographic Data Centre
#                                CCDC 
#
#######################################################################
#
# If this CIF has been generated from an entry in the Cambridge 
# Structural Database, then it will include bibliographic, chemical, 
# crystal, experimental, refinement or atomic coordinate data resulting 
# from the CCDC's data processing and validation procedures.
#
#######################################################################

data_ENALAI
_chemical_formula_moiety         'C86 H82 B10 N2'
_chemical_name_systematic        
'1,2-bis(4-[(4-{[4-(3,6-di-t-butyl-9H-carbazol-9-yl)phenyl]ethynyl}phenyl)ethynyl]phenyl)-1,2-dicarba-closo-dodecaborane unknown solvate'
_symmetry_cell_setting           monoclinic
_symmetry_space_group_name_H-M   'C 2/c'
_symmetry_Int_Tables_number      15
_space_group_name_Hall           '-C 2yn'
loop_
_symmetry_equiv_pos_site_id
_symmetry_equiv_pos_as_xyz
1 x,y,z
2 -x,y,1/2-z
3 1/2+x,1/2+y,z
4 1/2-x,1/2+y,1/2-z
5 -x,-y,-z
6 x,-y,1/2+z
7 1/2-x,1/2-y,-z
8 1/2+x,1/2-y,1/2+z
_cell_length_a                   20.1102(8)
_cell_length_b                   26.5248(7)
_cell_length_c                   21.3634(5)
_cell_angle_alpha                90
_cell_angle_beta                 93.228(3)
_cell_angle_gamma                90
_cell_volume                     11377.6
_exptl_crystal_colour            colorless
_exptl_crystal_description       block
_cell_formula_units_Z            4
loop_
_atom_site_label
_atom_site_type_symbol
_atom_site_fract_x
_atom_site_fract_y
_atom_site_fract_z
B1 B 1.06350(13) 0.08474(9) 0.72352(10)
H1 H 1.1045 0.1074 0.7063
B2 B 0.92796(16) 0.05153(9) 0.70452(11)
H2 H 0.8813 0.0518 0.6751
B3 B 1.00756(15) 0.05152(9) 0.67181(10)
H3 H 1.0125 0.0519 0.6208
B4 B 0.98067(19) -0.00265(10) 0.71176(12)
H4 H 0.9683 -0.0380 0.6869
B5 B 0.93592(17) 0.01840(9) 0.77686(11)
H5 H 0.8941 -0.0031 0.7944
C1 C 0.98070(10) 0.10202(7) 0.71310(8)
C2 C 0.96717(10) 0.15224(7) 0.68237(9)
C3 C 1.00632(12) 0.16828(9) 0.63436(10)
H6 H 1.0400 0.1475 0.6211
C4 C 0.99566(12) 0.21462(9) 0.60634(11)
H7 H 1.0224 0.2247 0.5745
C5 C 0.94571(12) 0.24643(8) 0.62487(11)
C6 C 0.90589(13) 0.23005(8) 0.67190(12)
H8 H 0.8717 0.2506 0.6847
C7 C 0.91644(12) 0.18338(8) 0.70008(10)
H9 H 0.8890 0.1729 0.7312
C8 C 0.93484(13) 0.29484(9) 0.59580(12)
C9 C 0.92589(13) 0.33481(9) 0.57179(12)
C10 C 0.91381(13) 0.38357(8) 0.54363(11)
C11 C 0.95941(13) 0.40435(8) 0.50444(11)
H10 H 0.9979 0.3868 0.4960
C12 C 0.94723(13) 0.45136(8) 0.47793(12)
H11 H 0.9778 0.4650 0.4516
C13 C 0.89076(13) 0.47827(8) 0.48982(12)
C14 C 0.84455(15) 0.45687(10) 0.52812(15)
H12 H 0.8059 0.4743 0.5362
C15 C 0.85604(15) 0.40983(11) 0.55401(16)
H13 H 0.8245 0.3956 0.5788
C16 C 0.87857(13) 0.52789(9) 0.46484(13)
C17 C 0.86699(13) 0.56985(9) 0.44650(13)
C18 C 0.85269(12) 0.62082(8) 0.42797(12)
C19 C 0.88877(14) 0.64454(9) 0.38237(14)
H14 H 0.9223 0.6271 0.3634
C20 C 0.87484(13) 0.69387(9) 0.36535(12)
H15 H 0.8991 0.7094 0.3350
C21 C 0.82529(11) 0.72005(7) 0.39317(10)
C22 C 0.78946(13) 0.69695(9) 0.43846(13)
H16 H 0.7561 0.7146 0.4574
C23 C 0.80326(14) 0.64761(9) 0.45563(13)
H17 H 0.7790 0.6323 0.4862
C24 C 0.78507(11) 0.79032(7) 0.32144(9)
C25 C 0.76121(13) 0.76477(8) 0.26814(11)
H18 H 0.7623 0.7298 0.2661
C26 C 0.73576(14) 0.79326(10) 0.21836(11)
H19 H 0.7198 0.7766 0.1823
C27 C 0.73280(14) 0.84598(10) 0.21947(11)
C28 C 0.75655(12) 0.87088(8) 0.27318(10)
H20 H 0.7551 0.9059 0.2750
C29 C 0.78265(10) 0.84348(7) 0.32459(9)
C30 C 0.81058(10) 0.85754(7) 0.38628(8)
C31 C 0.82428(11) 0.90355(7) 0.41584(9)
H21 H 0.8132 0.9335 0.3953
C32 C 0.85441(11) 0.90472(8) 0.47582(9)
C33 C 0.87005(11) 0.85870(8) 0.50567(9)
H22 H 0.8896 0.8594 0.5462
C34 C 0.85774(11) 0.81235(8) 0.47777(9)
H23 H 0.8692 0.7825 0.4985
C35 C 0.82759(10) 0.81211(7) 0.41764(9)
C36 C 0.7042(2) 0.87473(13) 0.16140(14)
C37 C 0.6366(3) 0.8560(2) 0.1439(3)
H24 H 0.6371 0.8198 0.1424
H25 H 0.6222 0.8691 0.1035
H26 H 0.6065 0.8669 0.1745
C38 C 0.7506(3) 0.8642(2) 0.10642(16)
H27 H 0.7955 0.8735 0.1191
H28 H 0.7357 0.8836 0.0704
H29 H 0.7490 0.8289 0.0961
C39 C 0.7060(2) 0.93126(14) 0.16982(17)
H30 H 0.6793 0.9405 0.2038
H31 H 0.6887 0.9473 0.1320
H32 H 0.7511 0.9419 0.1790
C40 C 0.87142(13) 0.95424(9) 0.51041(11)
C41 C 0.86129(17) 1.00051(9) 0.46834(13)
H33 H 0.8881 0.9973 0.4327
H34 H 0.8742 1.0303 0.4915
H35 H 0.8152 1.0030 0.4543
C42 C 0.94430(15) 0.95308(11) 0.53532(12)
H36 H 0.9506 0.9262 0.5651
H37 H 0.9555 0.9846 0.5554
H38 H 0.9725 0.9478 0.5011
C43 C 0.82566(17) 0.95957(12) 0.56601(13)
H39 H 0.7801 0.9614 0.5503
H40 H 0.8371 0.9897 0.5891
H41 H 0.8315 0.9309 0.5931
N1 N 0.81240(9) 0.77159(6) 0.37795(8)
B1A B 0.93650(13) 0.08474(9) 0.77648(10)
H1A H 0.8955 0.1074 0.7937
B2A B 1.07204(16) 0.05153(9) 0.79548(11)
H2A H 1.1187 0.0518 0.8249
B3A B 0.99244(15) 0.05152(9) 0.82819(10)
H3A H 0.9875 0.0519 0.8792
B4A B 1.01933(19) -0.00265(10) 0.78824(12)
H4A H 1.0317 -0.0380 0.8131
B5A B 1.06408(17) 0.01840(9) 0.72314(11)
H5A H 1.1059 -0.0031 0.7056
C1A C 1.01930(10) 0.10202(7) 0.78690(8)
C2A C 1.03283(10) 0.15224(7) 0.81763(9)
C3A C 0.99368(12) 0.16828(9) 0.86564(10)
H6A H 0.9600 0.1475 0.8789
C4A C 1.00434(12) 0.21462(9) 0.89366(11)
H7A H 0.9776 0.2247 0.9255
C5A C 1.05429(12) 0.24643(8) 0.87513(11)
C6A C 1.09411(13) 0.23005(8) 0.82810(12)
H8A H 1.1283 0.2506 0.8153
C7A C 1.08356(12) 0.18338(8) 0.79992(10)
H9A H 1.1110 0.1729 0.7688
C8A C 1.06516(13) 0.29484(9) 0.90420(12)
C9A C 1.07411(13) 0.33481(9) 0.92821(12)
C10A C 1.08619(13) 0.38357(8) 0.95637(11)
C11A C 1.04059(13) 0.40435(8) 0.99556(11)
H10A H 1.0021 0.3868 1.0040
C12A C 1.05277(13) 0.45136(8) 1.02207(12)
H11A H 1.0222 0.4650 1.0484
C13A C 1.10924(13) 0.47827(8) 1.01018(12)
C14A C 1.15545(15) 0.45687(10) 0.97188(15)
H12A H 1.1941 0.4743 0.9638
C15A C 1.14396(15) 0.40983(11) 0.94599(16)
H13A H 1.1755 0.3956 0.9212
C16A C 1.12143(13) 0.52789(9) 1.03516(13)
C17A C 1.13301(13) 0.56985(9) 1.05350(13)
C18A C 1.14731(12) 0.62082(8) 1.07203(12)
C19A C 1.11123(14) 0.64454(9) 1.11763(14)
H14A H 1.0777 0.6271 1.1366
C20A C 1.12516(13) 0.69387(9) 1.13465(12)
H15A H 1.1009 0.7094 1.1650
C21A C 1.17471(11) 0.72005(7) 1.10683(10)
C22A C 1.21054(13) 0.69695(9) 1.06154(13)
H16A H 1.2439 0.7146 1.0426
C23A C 1.19674(14) 0.64761(9) 1.04437(13)
H17A H 1.2210 0.6323 1.0138
C24A C 1.21493(11) 0.79032(7) 1.17856(9)
C25A C 1.23879(13) 0.76477(8) 1.23186(11)
H18A H 1.2377 0.7298 1.2339
C26A C 1.26424(14) 0.79326(10) 1.28164(11)
H19A H 1.2802 0.7766 1.3177
C27A C 1.26720(14) 0.84598(10) 1.28053(11)
C28A C 1.24345(12) 0.87088(8) 1.22682(10)
H20A H 1.2449 0.9059 1.2250
C29A C 1.21735(10) 0.84348(7) 1.17541(9)
C30A C 1.18942(10) 0.85754(7) 1.11372(8)
C31A C 1.17572(11) 0.90355(7) 1.08416(9)
H21A H 1.1868 0.9335 1.1047
C32A C 1.14559(11) 0.90472(8) 1.02418(9)
C33A C 1.12995(11) 0.85870(8) 0.99433(9)
H22A H 1.1104 0.8594 0.9538
C34A C 1.14226(11) 0.81235(8) 1.02223(9)
H23A H 1.1308 0.7825 1.0015
C35A C 1.17241(10) 0.81211(7) 1.08236(9)
C36A C 1.2958(2) 0.87473(13) 1.33860(14)
C37A C 1.3634(3) 0.8560(2) 1.3561(3)
H24A H 1.3629 0.8198 1.3576
H25A H 1.3778 0.8691 1.3965
H26A H 1.3935 0.8669 1.3255
C38A C 1.2494(3) 0.8642(2) 1.39358(16)
H27A H 1.2045 0.8735 1.3809
H28A H 1.2643 0.8836 1.4296
H29A H 1.2510 0.8289 1.4039
C39A C 1.2940(2) 0.93126(14) 1.33018(17)
H30A H 1.3207 0.9405 1.2962
H31A H 1.3113 0.9473 1.3680
H32A H 1.2489 0.9419 1.3210
C40A C 1.12858(13) 0.95424(9) 0.98959(11)
C41A C 1.13871(17) 1.00051(9) 1.03166(13)
H33A H 1.1119 0.9973 1.0673
H34A H 1.1258 1.0303 1.0085
H35A H 1.1848 1.0030 1.0457
C42A C 1.05570(15) 0.95308(11) 0.96468(12)
H36A H 1.0494 0.9262 0.9349
H37A H 1.0445 0.9846 0.9446
H38A H 1.0275 0.9478 0.9989
C43A C 1.17434(17) 0.95957(12) 0.93399(13)
H39A H 1.2199 0.9614 0.9497
H40A H 1.1629 0.9897 0.9109
H41A H 1.1685 0.9309 0.9069
N1A N 1.18760(9) 0.77159(6) 1.12205(8)
loop_
_geom_bond_atom_site_label_1
_geom_bond_atom_site_label_2
_geom_bond_site_symmetry_1
_geom_bond_site_symmetry_2
B1 H1 1_555 1_555
B2 H2 1_555 1_555
B3 B1 1_555 1_555
H3 B3 1_555 1_555
B4 B2 1_555 1_555
H4 B4 1_555 1_555
B5 B2 1_555 1_555
H5 B5 1_555 1_555
C1 B1 1_555 1_555
C2 C1 1_555 1_555
C3 C2 1_555 1_555
H6 C3 1_555 1_555
C4 C3 1_555 1_555
H7 C4 1_555 1_555
C5 C4 1_555 1_555
C6 C5 1_555 1_555
H8 C6 1_555 1_555
C7 C2 1_555 1_555
H9 C7 1_555 1_555
C8 C5 1_555 1_555
C9 C8 1_555 1_555
C10 C9 1_555 1_555
C11 C10 1_555 1_555
H10 C11 1_555 1_555
C12 C11 1_555 1_555
H11 C12 1_555 1_555
C13 C12 1_555 1_555
C14 C13 1_555 1_555
H12 C14 1_555 1_555
C15 C10 1_555 1_555
H13 C15 1_555 1_555
C16 C13 1_555 1_555
C17 C16 1_555 1_555
C18 C17 1_555 1_555
C19 C18 1_555 1_555
H14 C19 1_555 1_555
C20 C19 1_555 1_555
H15 C20 1_555 1_555
C21 C20 1_555 1_555
C22 C21 1_555 1_555
H16 C22 1_555 1_555
C23 C18 1_555 1_555
H17 C23 1_555 1_555
C24 C25 1_555 1_555
C25 H18 1_555 1_555
C26 C25 1_555 1_555
H19 C26 1_555 1_555
C27 C26 1_555 1_555
C28 C27 1_555 1_555
H20 C28 1_555 1_555
C29 C24 1_555 1_555
C30 C29 1_555 1_555
C31 C30 1_555 1_555
H21 C31 1_555 1_555
C32 C31 1_555 1_555
C33 C32 1_555 1_555
H22 C33 1_555 1_555
C34 C33 1_555 1_555
H23 C34 1_555 1_555
C35 C30 1_555 1_555
C36 C27 1_555 1_555
C37 C36 1_555 1_555
H24 C37 1_555 1_555
H25 C37 1_555 1_555
H26 C37 1_555 1_555
C38 C36 1_555 1_555
H27 C38 1_555 1_555
H28 C38 1_555 1_555
H29 C38 1_555 1_555
C39 C36 1_555 1_555
H30 C39 1_555 1_555
H31 C39 1_555 1_555
H32 C39 1_555 1_555
C40 C32 1_555 1_555
C41 C40 1_555 1_555
H33 C41 1_555 1_555
H34 C41 1_555 1_555
H35 C41 1_555 1_555
C42 C40 1_555 1_555
H36 C42 1_555 1_555
H37 C42 1_555 1_555
H38 C42 1_555 1_555
C43 C40 1_555 1_555
H39 C43 1_555 1_555
H40 C43 1_555 1_555
H41 C43 1_555 1_555
N1 C21 1_555 1_555
B1A B2 1_555 1_555
H1A B1A 1_555 1_555
B2A B1 1_555 1_555
H2A B2A 1_555 1_555
B3A B5 1_555 1_555
H3A B3A 1_555 1_555
B4A B4 1_555 1_555
H4A B4A 1_555 1_555
B5A B1 1_555 1_555
H5A B5A 1_555 1_555
C1A B1 1_555 1_555
C2A C1A 1_555 1_555
C3A C2A 1_555 1_555
H6A C3A 1_555 1_555
C4A C3A 1_555 1_555
H7A C4A 1_555 1_555
C5A C4A 1_555 1_555
C6A C5A 1_555 1_555
H8A C6A 1_555 1_555
C7A C2A 1_555 1_555
H9A C7A 1_555 1_555
C8A C5A 1_555 1_555
C9A C8A 1_555 1_555
C10A C9A 1_555 1_555
C11A C10A 1_555 1_555
H10A C11A 1_555 1_555
C12A C11A 1_555 1_555
H11A C12A 1_555 1_555
C13A C12A 1_555 1_555
C14A C13A 1_555 1_555
H12A C14A 1_555 1_555
C15A C10A 1_555 1_555
H13A C15A 1_555 1_555
C16A C13A 1_555 1_555
C17A C16A 1_555 1_555
C18A C17A 1_555 1_555
C19A C18A 1_555 1_555
H14A C19A 1_555 1_555
C20A C19A 1_555 1_555
H15A C20A 1_555 1_555
C21A C20A 1_555 1_555
C22A C21A 1_555 1_555
H16A C22A 1_555 1_555
C23A C18A 1_555 1_555
H17A C23A 1_555 1_555
C24A C25A 1_555 1_555
C25A H18A 1_555 1_555
C26A C25A 1_555 1_555
H19A C26A 1_555 1_555
C27A C26A 1_555 1_555
C28A C27A 1_555 1_555
H20A C28A 1_555 1_555
C29A C24A 1_555 1_555
C30A C29A 1_555 1_555
C31A C30A 1_555 1_555
H21A C31A 1_555 1_555
C32A C31A 1_555 1_555
C33A C32A 1_555 1_555
H22A C33A 1_555 1_555
C34A C33A 1_555 1_555
H23A C34A 1_555 1_555
C35A C30A 1_555 1_555
C36A C27A 1_555 1_555
C37A C36A 1_555 1_555
H24A C37A 1_555 1_555
H25A C37A 1_555 1_555
H26A C37A 1_555 1_555
C38A C36A 1_555 1_555
H27A C38A 1_555 1_555
H28A C38A 1_555 1_555
H29A C38A 1_555 1_555
C39A C36A 1_555 1_555
H30A C39A 1_555 1_555
H31A C39A 1_555 1_555
H32A C39A 1_555 1_555
C40A C32A 1_555 1_555
C41A C40A 1_555 1_555
H33A C41A 1_555 1_555
H34A C41A 1_555 1_555
H35A C41A 1_555 1_555
C42A C40A 1_555 1_555
H36A C42A 1_555 1_555
H37A C42A 1_555 1_555
H38A C42A 1_555 1_555
C43A C40A 1_555 1_555
H39A C43A 1_555 1_555
H40A C43A 1_555 1_555
H41A C43A 1_555 1_555
N1A C21A 1_555 1_555
B2 B3 1_555 1_555
B2 C1 1_555 1_555
B3 B4 1_555 1_555
B3 C1 1_555 1_555
B3 B5A 1_555 1_555
B4 B5 1_555 1_555
B4 B5A 1_555 1_555
B5 B1A 1_555 1_555
B5 B4A 1_555 1_555
C1 B1A 1_555 1_555
C1 C1A 1_555 1_555
C6 C7 1_555 1_555
C14 C15 1_555 1_555
C22 C23 1_555 1_555
C24 N1 1_555 1_555
C28 C29 1_555 1_555
C34 C35 1_555 1_555
C35 N1 1_555 1_555
B1A B3A 1_555 1_555
B1A C1A 1_555 1_555
B2A B3A 1_555 1_555
B2A B4A 1_555 1_555
B2A B5A 1_555 1_555
B2A C1A 1_555 1_555
B3A B4A 1_555 1_555
B3A C1A 1_555 1_555
B4A B5A 1_555 1_555
C6A C7A 1_555 1_555
C14A C15A 1_555 1_555
C22A C23A 1_555 1_555
C24A N1A 1_555 1_555
C28A C29A 1_555 1_555
C34A C35A 1_555 1_555
C35A N1A 1_555 1_555

#END
