
#######################################################################
#
#                 Cambridge Crystallographic Data Centre
#                                CCDC 
#
#######################################################################
#
# If this CIF has been generated from an entry in the Cambridge 
# Structural Database, then it will include bibliographic, chemical, 
# crystal, experimental, refinement or atomic coordinate data resulting 
# from the CCDC's data processing and validation procedures.
#
#######################################################################

data_ENAMAJ
_chemical_formula_moiety         'C27 H23 F6 N7 S2'
_chemical_name_systematic        
2,8,14,20-tetramethyl-12,22-bis((trifluoromethyl)sulfanyl)-2,8,14,20,25,26,27-heptaazapentacyclo[19.3.1.1^3,7^.1^9,13^.1^15,19^]octacosa-1(25),3(28),4,6,9(27),10,12,15(26),16,18,21,23-dodecaene
_symmetry_cell_setting           triclinic
_symmetry_space_group_name_H-M   'P -1'
_symmetry_Int_Tables_number      2
_space_group_name_Hall           '-P 1'
loop_
_symmetry_equiv_pos_site_id
_symmetry_equiv_pos_as_xyz
1 x,y,z
2 -x,-y,-z
_cell_length_a                   9.817(2)
_cell_length_b                   11.968(2)
_cell_length_c                   13.149(3)
_cell_angle_alpha                102.73(3)
_cell_angle_beta                 99.17(3)
_cell_angle_gamma                104.43(3)
_cell_volume                     1421.32
_exptl_crystal_colour            colorless
_exptl_crystal_description       plate
_cell_formula_units_Z            2
loop_
_atom_site_label
_atom_site_type_symbol
_atom_site_fract_x
_atom_site_fract_y
_atom_site_fract_z
S1 S 0.81920(5) 0.03979(4) 0.40216(4)
S2 S 0.72087(6) 0.24309(6) 1.07237(4)
F1 F 0.92878(17) 0.16330(17) 0.27755(12)
F2 F 1.07624(14) 0.10378(13) 0.37604(12)
F3 F 1.00329(15) 0.25317(12) 0.44227(13)
F4 F 0.7054(2) 0.05404(15) 0.91868(16)
F5 F 0.88200(19) 0.20315(15) 0.93421(13)
F6 F 0.8840(2) 0.1074(2) 1.05253(14)
N1 N 0.56753(15) 0.24254(12) 0.49471(11)
N2 N 0.74809(15) 0.18982(12) 0.59528(11)
N3 N 0.74794(15) 0.30987(13) 0.76185(11)
N4 N 0.73716(18) 0.41491(14) 0.92756(12)
N5 N 0.49273(17) 0.33817(13) 0.83993(12)
N6 N 0.25461(16) 0.27332(14) 0.74788(12)
N7 N 0.38282(16) 0.29981(14) 0.40749(12)
C1 C 0.48334(18) 0.23802(15) 0.40164(13)
C2 C 0.4980(2) 0.17342(16) 0.30247(14)
H1 H 0.4400 0.1717 0.2385
C3 C 0.6006(2) 0.11294(16) 0.30286(15)
H2 H 0.6110 0.0685 0.2385
C4 C 0.68896(19) 0.11802(15) 0.39931(14)
C5 C 0.66666(17) 0.18451(14) 0.49358(13)
C6 C 0.9617(2) 0.14498(19) 0.37348(16)
C7 C 0.6857(2) 0.08735(16) 0.63401(15)
H3 H 0.5953 0.0921 0.6506
H4 H 0.7508 0.0883 0.6972
H5 H 0.6703 0.0143 0.5796
C8 C 0.79029(17) 0.30400(14) 0.67075(13)
C9 C 0.88081(18) 0.40194(16) 0.64848(14)
H6 H 0.9067 0.3952 0.5829
C10 C 0.92972(19) 0.50850(16) 0.72780(16)
H7 H 0.9927 0.5747 0.7169
C11 C 0.88619(19) 0.51824(16) 0.82390(15)
H8 H 0.9187 0.5900 0.8779
C12 C 0.79182(18) 0.41643(16) 0.83658(13)
C13 C 0.7676(3) 0.5273(2) 1.01004(16)
H9 H 0.8697 0.5585 1.0399
H10 H 0.7182 0.5132 1.0655
H11 H 0.7350 0.5842 0.9790
C14 C 0.5990(2) 0.33136(16) 0.91257(14)
C15 C 0.5791(2) 0.25158(19) 0.97573(15)
C16 C 0.4392(2) 0.1775(2) 0.96155(16)
H12 H 0.4215 0.1241 1.0030
C17 C 0.3274(2) 0.18261(19) 0.88714(16)
H13 H 0.2339 0.1338 0.8779
C18 C 0.35850(19) 0.26419(16) 0.82478(14)
C19 C 0.8006(3) 0.1484(2) 0.99039(18)
C20 C 0.1009(2) 0.21773(17) 0.73952(16)
H14 H 0.0841 0.1342 0.7355
H15 H 0.0451 0.2261 0.6762
H16 H 0.0727 0.2565 0.8013
C21 C 0.28858(17) 0.34274(15) 0.67409(14)
C22 C 0.2638(2) 0.45391(16) 0.68756(15)
H17 H 0.2350 0.4875 0.7482
C23 C 0.2825(2) 0.51383(17) 0.61004(16)
H18 H 0.2645 0.5876 0.6183
C24 C 0.32774(19) 0.46596(16) 0.52027(15)
H19 H 0.3418 0.5083 0.4695
C25 C 0.35224(17) 0.35391(16) 0.50581(14)
C26 C 0.33318(18) 0.29265(15) 0.58405(14)
H20 H 0.3503 0.2185 0.5759
C27 C 0.3081(2) 0.3161(2) 0.30889(17)
H21 H 0.3762 0.3661 0.2806
H22 H 0.2349 0.3534 0.3240
H23 H 0.2642 0.2395 0.2574
loop_
_geom_bond_atom_site_label_1
_geom_bond_atom_site_label_2
_geom_bond_site_symmetry_1
_geom_bond_site_symmetry_2
S1 C4 1_555 1_555
S2 C15 1_555 1_555
F1 C6 1_555 1_555
F2 C6 1_555 1_555
F3 C6 1_555 1_555
F4 C19 1_555 1_555
F5 C19 1_555 1_555
F6 C19 1_555 1_555
N1 C1 1_555 1_555
N2 C5 1_555 1_555
N3 C8 1_555 1_555
N4 C12 1_555 1_555
N5 C14 1_555 1_555
N6 C18 1_555 1_555
N7 C1 1_555 1_555
C1 C2 1_555 1_555
C2 H1 1_555 1_555
C3 C2 1_555 1_555
H2 C3 1_555 1_555
C4 C3 1_555 1_555
C5 N1 1_555 1_555
C6 S1 1_555 1_555
C7 N2 1_555 1_555
H3 C7 1_555 1_555
H4 C7 1_555 1_555
H5 C7 1_555 1_555
C8 N2 1_555 1_555
C9 C8 1_555 1_555
H6 C9 1_555 1_555
C10 C9 1_555 1_555
H7 C10 1_555 1_555
C11 C10 1_555 1_555
H8 C11 1_555 1_555
C12 N3 1_555 1_555
C13 N4 1_555 1_555
H9 C13 1_555 1_555
H10 C13 1_555 1_555
H11 C13 1_555 1_555
C14 N4 1_555 1_555
C15 C14 1_555 1_555
C16 C15 1_555 1_555
H12 C16 1_555 1_555
C17 C16 1_555 1_555
H13 C17 1_555 1_555
C18 N5 1_555 1_555
C19 S2 1_555 1_555
C20 N6 1_555 1_555
H14 C20 1_555 1_555
H15 C20 1_555 1_555
H16 C20 1_555 1_555
C21 N6 1_555 1_555
C22 C21 1_555 1_555
H17 C22 1_555 1_555
C23 C22 1_555 1_555
H18 C23 1_555 1_555
C24 C23 1_555 1_555
H19 C24 1_555 1_555
C25 N7 1_555 1_555
C26 C21 1_555 1_555
H20 C26 1_555 1_555
C27 N7 1_555 1_555
H21 C27 1_555 1_555
H22 C27 1_555 1_555
H23 C27 1_555 1_555
C4 C5 1_555 1_555
C11 C12 1_555 1_555
C17 C18 1_555 1_555
C24 C25 1_555 1_555
C25 C26 1_555 1_555

#END
