
#######################################################################
#
#                 Cambridge Crystallographic Data Centre
#                                CCDC 
#
#######################################################################
#
# If this CIF has been generated from an entry in the Cambridge 
# Structural Database, then it will include bibliographic, chemical, 
# crystal, experimental, refinement or atomic coordinate data resulting 
# from the CCDC's data processing and validation procedures.
#
#######################################################################

data_ENAMEN
_chemical_formula_moiety         'C27 H23 F6 N7 S2'
_chemical_name_systematic        
2,8,14,20-tetramethyl-10,22-bis((trifluoromethyl)sulfanyl)-2,8,14,20,25,26,27-heptaazapentacyclo[19.3.1.1^3,7^.1^9,13^.1^15,19^]octacosa-1(25),3(28),4,6,9(27),10,12,15(26),16,18,21,23-dodecaene
_symmetry_cell_setting           monoclinic
_symmetry_space_group_name_H-M   'P 21/c'
_symmetry_Int_Tables_number      14
_space_group_name_Hall           '-P 2ybc'
loop_
_symmetry_equiv_pos_site_id
_symmetry_equiv_pos_as_xyz
1 x,y,z
2 -x,1/2+y,1/2-z
3 -x,-y,-z
4 x,1/2-y,1/2+z
_cell_length_a                   14.717(3)
_cell_length_b                   15.564(3)
_cell_length_c                   12.282(3)
_cell_angle_alpha                90
_cell_angle_beta                 103.48(3)
_cell_angle_gamma                90
_cell_volume                     2735.76
_exptl_crystal_colour            'light yellow'
_exptl_crystal_description       plate
_cell_formula_units_Z            4
loop_
_atom_site_label
_atom_site_type_symbol
_atom_site_fract_x
_atom_site_fract_y
_atom_site_fract_z
S1 S 0.30267(5) 0.60495(4) 0.82702(6)
S2 S 0.11865(5) 0.05035(4) 0.65126(6)
F1 F 0.30754(13) 0.76664(11) 0.85682(18)
F2 F 0.23951(17) 0.73087(12) 0.68919(18)
F3 F 0.16837(13) 0.71743(12) 0.8190(2)
F4 F 0.17960(16) -0.08853(12) 0.76614(18)
F5 F 0.21060(14) -0.08573(12) 0.60624(18)
F6 F 0.06911(15) -0.10535(13) 0.6186(2)
N1 N 0.33301(14) 0.50269(14) 0.62732(19)
N2 N 0.18475(13) 0.44065(12) 0.58407(16)
N3 N 0.04245(14) 0.37177(14) 0.53250(17)
N4 N 0.14943(15) 0.25678(14) 0.53534(17)
N5 N 0.25844(15) 0.14525(13) 0.54618(17)
N6 N 0.34448(14) 0.20069(13) 0.71403(16)
N7 N 0.43437(16) 0.26439(16) 0.87221(18)
C1 C 0.24266(16) 0.49458(15) 0.6499(2)
C2 C 0.21844(16) 0.54097(15) 0.7360(2)
C3 C 0.12773(17) 0.53003(15) 0.7514(2)
H1 H 0.1092 0.5595 0.8085
C4 C 0.06638(16) 0.47625(15) 0.6830(2)
H2 H 0.0053 0.4705 0.6908
C5 C 0.09790(16) 0.42968(15) 0.60037(18)
C6 C -0.05528(17) 0.36041(19) 0.5355(2)
H3 H -0.0589 0.3346 0.6054
H4 H -0.0855 0.3239 0.4749
H5 H -0.0858 0.4153 0.5282
C7 C 0.08324(16) 0.30829(15) 0.47334(19)
C8 C 0.05231(18) 0.30104(16) 0.3588(2)
H6 H 0.0055 0.3366 0.3187
C9 C 0.09358(19) 0.23881(17) 0.3057(2)
H7 H 0.0742 0.2324 0.2285
C10 C 0.16261(18) 0.18651(15) 0.3653(2)
H8 H 0.1906 0.1454 0.3289
C11 C 0.19024(16) 0.19613(15) 0.48200(19)
C12 C 0.2988(2) 0.07350(17) 0.4988(2)
H9 H 0.2517 0.0308 0.4731
H10 H 0.3486 0.0490 0.5549
H11 H 0.3229 0.0932 0.4369
C13 C 0.27572(17) 0.14908(15) 0.66537(19)
C14 C 0.22465(18) 0.09852(15) 0.7235(2)
C15 C 0.25235(19) 0.10028(17) 0.8406(2)
H12 H 0.2212 0.0667 0.8829
C16 C 0.32536(19) 0.15141(17) 0.8928(2)
H13 H 0.3466 0.1505 0.9703
C17 C 0.36742(17) 0.20512(17) 0.8270(2)
C18 C 0.1465(2) -0.06159(19) 0.6607(3)
C19 C 0.4755(2) 0.2638(2) 0.9929(2)
H14 H 0.4280 0.2760 1.0325
H15 H 0.5235 0.3068 1.0105
H16 H 0.5021 0.2084 1.0147
C20 C 0.45680(18) 0.33384(18) 0.8062(2)
C21 C 0.54948(18) 0.3504(2) 0.8061(3)
H17 H 0.5974 0.3161 0.8465
C22 C 0.56838(19) 0.4193(2) 0.7442(3)
H18 H 0.6301 0.4313 0.7434
C23 C 0.49875(18) 0.47077(19) 0.6837(3)
H19 H 0.5129 0.5167 0.6422
C24 C 0.40609(16) 0.45263(16) 0.6859(2)
C25 C 0.38659(16) 0.38439(16) 0.7477(2)
H20 H 0.3250 0.3726 0.7496
C26 C 0.3497(2) 0.57603(19) 0.5614(3)
H21 H 0.2912 0.6024 0.5265
H22 H 0.3805 0.5572 0.5048
H23 H 0.3885 0.6170 0.6094
C27 C 0.2513(2) 0.70883(18) 0.7960(3)
loop_
_geom_bond_atom_site_label_1
_geom_bond_atom_site_label_2
_geom_bond_site_symmetry_1
_geom_bond_site_symmetry_2
S1 C2 1_555 1_555
S2 C14 1_555 1_555
F1 C27 1_555 1_555
F2 C27 1_555 1_555
F3 C27 1_555 1_555
F4 C18 1_555 1_555
F5 C18 1_555 1_555
F6 C18 1_555 1_555
N1 C1 1_555 1_555
N2 C1 1_555 1_555
N3 C5 1_555 1_555
N4 C7 1_555 1_555
N5 C11 1_555 1_555
N6 C13 1_555 1_555
N7 C17 1_555 1_555
C1 C2 1_555 1_555
C2 C3 1_555 1_555
C3 H1 1_555 1_555
C4 C3 1_555 1_555
H2 C4 1_555 1_555
C5 N2 1_555 1_555
C6 N3 1_555 1_555
H3 C6 1_555 1_555
H4 C6 1_555 1_555
H5 C6 1_555 1_555
C7 N3 1_555 1_555
C8 C7 1_555 1_555
H6 C8 1_555 1_555
C9 C8 1_555 1_555
H7 C9 1_555 1_555
C10 C9 1_555 1_555
H8 C10 1_555 1_555
C11 N4 1_555 1_555
C12 N5 1_555 1_555
H9 C12 1_555 1_555
H10 C12 1_555 1_555
H11 C12 1_555 1_555
C13 N5 1_555 1_555
C14 C13 1_555 1_555
C15 C14 1_555 1_555
H12 C15 1_555 1_555
C16 C15 1_555 1_555
H13 C16 1_555 1_555
C17 N6 1_555 1_555
C18 S2 1_555 1_555
C19 N7 1_555 1_555
H14 C19 1_555 1_555
H15 C19 1_555 1_555
H16 C19 1_555 1_555
C20 N7 1_555 1_555
C21 C20 1_555 1_555
H17 C21 1_555 1_555
C22 C21 1_555 1_555
H18 C22 1_555 1_555
C23 C22 1_555 1_555
H19 C23 1_555 1_555
C24 N1 1_555 1_555
C25 C20 1_555 1_555
H20 C25 1_555 1_555
C26 N1 1_555 1_555
H21 C26 1_555 1_555
H22 C26 1_555 1_555
H23 C26 1_555 1_555
C27 S1 1_555 1_555
C4 C5 1_555 1_555
C10 C11 1_555 1_555
C16 C17 1_555 1_555
C23 C24 1_555 1_555
C24 C25 1_555 1_555

#END
