
#######################################################################
#
#                 Cambridge Crystallographic Data Centre
#                                CCDC 
#
#######################################################################
#
# If this CIF has been generated from an entry in the Cambridge 
# Structural Database, then it will include bibliographic, chemical, 
# crystal, experimental, refinement or atomic coordinate data resulting 
# from the CCDC's data processing and validation procedures.
#
#######################################################################

data_ENAMEL
_chemical_formula_moiety         'C16 H19 N1 O1'
_chemical_name_systematic        4-(4-(4-Aminophenyl)butyl)phenol
_symmetry_cell_setting           monoclinic
_symmetry_space_group_name_H-M   'P c'
_symmetry_Int_Tables_number      7
_space_group_name_Hall           'P -2yc'
loop_
_symmetry_equiv_pos_site_id
_symmetry_equiv_pos_as_xyz
1 x,y,z
2 x,-y,1/2+z
_cell_length_a                   15.7888(16)
_cell_length_b                   5.2088(6)
_cell_length_c                   8.3399(8)
_cell_angle_alpha                90
_cell_angle_beta                 100.912(5)
_cell_angle_gamma                90
_cell_volume                     673.478
_exptl_crystal_colour            brown
_exptl_crystal_description       cone
_chemical_melting_point          '185.97 deg.C'
_cell_formula_units_Z            2
loop_
_atom_site_label
_atom_site_type_symbol
_atom_site_fract_x
_atom_site_fract_y
_atom_site_fract_z
N1 N 0.25025(13) 0.2900(4) 0.3231(3)
H1 H 0.2308(17) 0.455(5) 0.271(3)
H2 H 0.2365(17) 0.258(5) 0.421(3)
O1 O 1.18620(12) 0.1547(4) 0.6491(2)
H3 H 1.201(4) -0.002(12) 0.681(7)
C1 C 1.09940(16) 0.1972(5) 0.6492(3)
C2 C 1.05156(17) 0.0372(5) 0.7324(3)
H4 H 1.080(2) -0.117(6) 0.793(4)
C3 C 0.96518(16) 0.0871(5) 0.7286(3)
H5 H 0.930(2) -0.029(6) 0.780(4)
C4 C 0.92365(16) 0.2979(5) 0.6437(3)
C5 C 0.97281(18) 0.4570(6) 0.5608(4)
H6 H 0.9481(19) 0.596(6) 0.504(4)
C6 C 1.05985(17) 0.4087(5) 0.5631(3)
H7 H 1.0954(17) 0.529(5) 0.497(3)
C7 C 0.82835(17) 0.3506(6) 0.6369(3)
H8 H 0.809(2) 0.297(5) 0.745(4)
H9 H 0.8202(16) 0.545(5) 0.620(3)
C8 C 0.76909(18) 0.2193(6) 0.4928(4)
H10 H 0.776(2) 0.029(7) 0.490(4)
H11 H 0.7895(19) 0.273(5) 0.390(4)
C9 C 0.67391(19) 0.2942(5) 0.4786(4)
H12 H 0.6683(17) 0.484(5) 0.459(3)
H13 H 0.6550(19) 0.255(5) 0.581(4)
C10 C 0.61505(17) 0.1651(6) 0.3318(4)
H14 H 0.6275(18) -0.017(6) 0.319(4)
H15 H 0.6288(19) 0.242(5) 0.232(4)
C11 C 0.34182(15) 0.2711(5) 0.3313(3)
C12 C 0.38826(17) 0.0705(5) 0.4188(3)
H16 H 0.3624(19) -0.048(6) 0.475(4)
C13 C 0.47526(17) 0.0414(5) 0.4168(3)
H17 H 0.506(2) -0.106(6) 0.472(4)
C14 C 0.51931(17) 0.2067(5) 0.3295(3)
C15 C 0.47279(17) 0.4079(5) 0.2431(3)
H18 H 0.4997(19) 0.531(5) 0.176(4)
C16 C 0.38432(16) 0.4405(5) 0.2438(3)
H19 H 0.3548(19) 0.588(5) 0.190(4)
loop_
_geom_bond_atom_site_label_1
_geom_bond_atom_site_label_2
_geom_bond_site_symmetry_1
_geom_bond_site_symmetry_2
N1 H1 1_555 1_555
H2 N1 1_555 1_555
O1 H3 1_555 1_555
C1 O1 1_555 1_555
C2 C1 1_555 1_555
H4 C2 1_555 1_555
C3 C2 1_555 1_555
H5 C3 1_555 1_555
C4 C3 1_555 1_555
C5 C4 1_555 1_555
H6 C5 1_555 1_555
C6 C1 1_555 1_555
H7 C6 1_555 1_555
C7 C4 1_555 1_555
H8 C7 1_555 1_555
H9 C7 1_555 1_555
C8 C7 1_555 1_555
H10 C8 1_555 1_555
H11 C8 1_555 1_555
C9 C8 1_555 1_555
H12 C9 1_555 1_555
H13 C9 1_555 1_555
C10 C9 1_555 1_555
H14 C10 1_555 1_555
H15 C10 1_555 1_555
C11 N1 1_555 1_555
C12 C11 1_555 1_555
H16 C12 1_555 1_555
C13 C12 1_555 1_555
H17 C13 1_555 1_555
C14 C10 1_555 1_555
C15 C14 1_555 1_555
H18 C15 1_555 1_555
C16 C11 1_555 1_555
H19 C16 1_555 1_555
C5 C6 1_555 1_555
C13 C14 1_555 1_555
C15 C16 1_555 1_555

#END
