
#######################################################################
#
#                 Cambridge Crystallographic Data Centre
#                                CCDC 
#
#######################################################################
#
# If this CIF has been generated from an entry in the Cambridge 
# Structural Database, then it will include bibliographic, chemical, 
# crystal, experimental, refinement or atomic coordinate data resulting 
# from the CCDC's data processing and validation procedures.
#
#######################################################################

data_ENANIQ
_chemical_formula_moiety         'C14 H15 N1 O1 S1'
_chemical_name_systematic        4-((2-(4-Aminophenyl)ethyl)sulfanyl)phenol
_symmetry_cell_setting           monoclinic
_symmetry_space_group_name_H-M   'P c'
_symmetry_Int_Tables_number      7
_space_group_name_Hall           'P -2yc'
loop_
_symmetry_equiv_pos_site_id
_symmetry_equiv_pos_as_xyz
1 x,y,z
2 x,-y,1/2+z
_cell_length_a                   12.6341(9)
_cell_length_b                   5.8636(4)
_cell_length_c                   8.5671(5)
_cell_angle_alpha                90
_cell_angle_beta                 90.351(3)
_cell_angle_gamma                90
_cell_volume                     634.65
_exptl_crystal_colour            colorless
_exptl_crystal_description       block
_chemical_melting_point          '116-118 deg.C'
_cell_formula_units_Z            2
loop_
_atom_site_label
_atom_site_type_symbol
_atom_site_fract_x
_atom_site_fract_y
_atom_site_fract_z
O1 O 0.80851(11) 0.7481(2) 0.18798(17)
H1 H 0.820(3) 0.835(6) 0.111(4)
C1 C 0.70440(14) 0.7568(3) 0.2291(2)
C2 C 0.63450(13) 0.9240(3) 0.1732(2)
H2 H 0.6578 1.0343 0.0998
C3 C 0.53014(13) 0.9265(3) 0.2265(2)
H3 H 0.4827 1.0401 0.1893
C4 C 0.49455(13) 0.7645(3) 0.3339(2)
C5 C 0.56502(14) 0.5968(3) 0.3871(2)
H4 H 0.5415 0.4848 0.4591
C6 C 0.66911(13) 0.5930(3) 0.3354(2)
H5 H 0.7164 0.4788 0.3724
S1 S 0.36349(3) 0.77648(6) 0.40807(4)
C7 C 0.29585(14) 0.5733(4) 0.2813(2)
H6 H 0.2852 0.6411 0.1765
H7 H 0.3395 0.4342 0.2697
C8 C 0.18934(13) 0.5115(3) 0.35132(19)
H8 H 0.2018 0.4282 0.4503
H9 H 0.1512 0.6540 0.3769
C9 C 0.11918(12) 0.3671(3) 0.24700(17)
C10 C 0.02004(13) 0.4484(3) 0.19895(18)
H10 H -0.0026 0.5944 0.2334
C11 C -0.04645(13) 0.3211(3) 0.10182(19)
H11 H -0.1135 0.3801 0.0716
C12 C -0.01422(12) 0.1062(3) 0.04888(17)
C13 C 0.08394(12) 0.0201(3) 0.09740(18)
H12 H 0.1061 -0.1266 0.0637
C14 C 0.14958(12) 0.1493(3) 0.19544(18)
H13 H 0.2159 0.0887 0.2277
N1 N -0.08444(11) -0.0267(3) -0.04489(16)
H14 H -0.1145(18) 0.053(4) -0.111(3)
H15 H -0.0531(19) -0.138(4) -0.100(3)
loop_
_geom_bond_atom_site_label_1
_geom_bond_atom_site_label_2
_geom_bond_site_symmetry_1
_geom_bond_site_symmetry_2
O1 H1 1_555 1_555
C1 O1 1_555 1_555
C2 C1 1_555 1_555
H2 C2 1_555 1_555
C3 C2 1_555 1_555
H3 C3 1_555 1_555
C4 C3 1_555 1_555
C5 C4 1_555 1_555
H4 C5 1_555 1_555
C6 C1 1_555 1_555
H5 C6 1_555 1_555
S1 C4 1_555 1_555
C7 S1 1_555 1_555
H6 C7 1_555 1_555
H7 C7 1_555 1_555
C8 C7 1_555 1_555
H8 C8 1_555 1_555
H9 C8 1_555 1_555
C9 C8 1_555 1_555
C10 C9 1_555 1_555
H10 C10 1_555 1_555
C11 C10 1_555 1_555
H11 C11 1_555 1_555
C12 C11 1_555 1_555
C13 C12 1_555 1_555
H12 C13 1_555 1_555
C14 C9 1_555 1_555
H13 C14 1_555 1_555
N1 C12 1_555 1_555
H14 N1 1_555 1_555
H15 N1 1_555 1_555
C5 C6 1_555 1_555
C13 C14 1_555 1_555

#END
