
#######################################################################
#
#                 Cambridge Crystallographic Data Centre
#                                CCDC 
#
#######################################################################
#
# If this CIF has been generated from an entry in the Cambridge 
# Structural Database, then it will include bibliographic, chemical, 
# crystal, experimental, refinement or atomic coordinate data resulting 
# from the CCDC's data processing and validation procedures.
#
#######################################################################

data_ENASET
_chemical_formula_moiety         'C20 H17 O1 P1'
_chemical_name_systematic        1-(4-(diphenylphosphino)phenyl)ethanone
_symmetry_cell_setting           triclinic
_symmetry_space_group_name_H-M   'P -1'
_symmetry_Int_Tables_number      2
_space_group_name_Hall           '-P 1'
loop_
_symmetry_equiv_pos_site_id
_symmetry_equiv_pos_as_xyz
1 x,y,z
2 -x,-y,-z
_cell_length_a                   8.5525(14)
_cell_length_b                   10.3525(17)
_cell_length_c                   10.5874(17)
_cell_angle_alpha                114.517(16)
_cell_angle_beta                 99.585(14)
_cell_angle_gamma                90.156(13)
_cell_volume                     838.282
_exptl_crystal_colour            colorless
_exptl_crystal_description       block
_cell_formula_units_Z            2
loop_
_atom_site_label
_atom_site_type_symbol
_atom_site_fract_x
_atom_site_fract_y
_atom_site_fract_z
P1 P 0.08480(7) 0.25203(6) 0.16440(6)
O1 O 0.3623(2) 0.0257(2) 0.6676(2)
C1 C 0.1500(4) 0.1357(3) 0.7785(3)
H1 H 0.0634 0.1868 0.7576
H2 H 0.1087 0.0525 0.7845
H3 H 0.2161 0.1959 0.8669
C2 C 0.2469(3) 0.0916(3) 0.6631(3)
C3 C 0.1994(3) 0.1328(2) 0.5433(2)
C4 C 0.2985(3) 0.1056(2) 0.4445(2)
H4 H 0.3919 0.0620 0.4541
C5 C 0.2598(3) 0.1423(2) 0.3330(2)
H5 H 0.3272 0.1230 0.2680
C6 C 0.1218(2) 0.2079(2) 0.3161(2)
C7 C 0.0218(3) 0.2333(3) 0.4141(2)
H6 H -0.0725 0.2755 0.4038
C8 C 0.0610(3) 0.1967(3) 0.5262(2)
H7 H -0.0066 0.2154 0.5909
C9 C -0.4508(4) 0.3031(5) 0.0964(4)
H8 H -0.5598 0.3106 0.0796
C10 C -0.3901(4) 0.1784(4) 0.0253(4)
H9 H -0.4577 0.1004 -0.0400
C11 C -0.2294(3) 0.1664(3) 0.0490(3)
H10 H -0.1890 0.0802 -0.0007
C12 C -0.1265(3) 0.2808(2) 0.1460(2)
C13 C -0.1899(3) 0.4074(3) 0.2178(3)
H11 H -0.1230 0.4857 0.2833
C14 C -0.3519(4) 0.4185(4) 0.1933(4)
H12 H -0.3939 0.5041 0.2423
C15 C 0.3269(4) 0.7026(3) 0.3261(4)
H13 H 0.3771 0.7928 0.3555
C16 C 0.3340(3) 0.6405(3) 0.4185(3)
H14 H 0.3893 0.6885 0.5106
C17 C 0.2592(3) 0.5067(3) 0.3754(3)
H15 H 0.2638 0.4658 0.4392
C18 C 0.1776(3) 0.4331(2) 0.2388(2)
C19 C 0.1730(3) 0.4984(3) 0.1469(3)
H16 H 0.1194 0.4505 0.0542
C20 C 0.2457(4) 0.6317(3) 0.1902(4)
H17 H 0.2399 0.6739 0.1275
loop_
_geom_bond_atom_site_label_1
_geom_bond_atom_site_label_2
_geom_bond_site_symmetry_1
_geom_bond_site_symmetry_2
P1 C6 1_555 1_555
O1 C2 1_555 1_555
C1 H1 1_555 1_555
H2 C1 1_555 1_555
H3 C1 1_555 1_555
C2 C1 1_555 1_555
C3 C2 1_555 1_555
C4 C3 1_555 1_555
H4 C4 1_555 1_555
C5 C4 1_555 1_555
H5 C5 1_555 1_555
C6 C5 1_555 1_555
C7 C6 1_555 1_555
H6 C7 1_555 1_555
C8 C3 1_555 1_555
H7 C8 1_555 1_555
C9 H8 1_555 1_555
C10 C9 1_555 1_555
H9 C10 1_555 1_555
C11 C10 1_555 1_555
H10 C11 1_555 1_555
C12 P1 1_555 1_555
C13 C12 1_555 1_555
H11 C13 1_555 1_555
C14 C9 1_555 1_555
H12 C14 1_555 1_555
C15 H13 1_555 1_555
C16 C15 1_555 1_555
H14 C16 1_555 1_555
C17 C16 1_555 1_555
H15 C17 1_555 1_555
C18 P1 1_555 1_555
C19 C18 1_555 1_555
H16 C19 1_555 1_555
C20 C15 1_555 1_555
H17 C20 1_555 1_555
C7 C8 1_555 1_555
C11 C12 1_555 1_555
C13 C14 1_555 1_555
C17 C18 1_555 1_555
C19 C20 1_555 1_555

#END
