
#######################################################################
#
#                 Cambridge Crystallographic Data Centre
#                                CCDC 
#
#######################################################################
#
# If this CIF has been generated from an entry in the Cambridge 
# Structural Database, then it will include bibliographic, chemical, 
# crystal, experimental, refinement or atomic coordinate data resulting 
# from the CCDC's data processing and validation procedures.
#
#######################################################################

data_ENATUK
_chemical_formula_moiety         'C10 H8 F3 N1 O2 S1'
_chemical_name_systematic        
'2-methyl-3-(2,2,2-trifluoroethylidene)-2,3-dihydro-1,2-benzothiazole 1,1-dioxide'
_symmetry_cell_setting           triclinic
_symmetry_space_group_name_H-M   'P -1'
_symmetry_Int_Tables_number      2
_space_group_name_Hall           '-P 1'
loop_
_symmetry_equiv_pos_site_id
_symmetry_equiv_pos_as_xyz
1 x,y,z
2 -x,-y,-z
_cell_length_a                   7.688(5)
_cell_length_b                   7.750(5)
_cell_length_c                   9.555(6)
_cell_angle_alpha                79.495(10)
_cell_angle_beta                 89.867(9)
_cell_angle_gamma                70.438(8)
_cell_volume                     526.394
_exptl_crystal_colour            colorless
_exptl_crystal_description       block
_cell_formula_units_Z            2
loop_
_atom_site_label
_atom_site_type_symbol
_atom_site_fract_x
_atom_site_fract_y
_atom_site_fract_z
S1 S 0.33272(8) 0.04711(8) 0.72471(7)
N1 N 0.1453(3) 0.1569(3) 0.8038(2)
F1 F -0.2246(2) 0.4955(2) 0.8064(2)
F2 F -0.4531(2) 0.4011(3) 0.8583(2)
F3 F -0.2277(2) 0.3367(2) 1.01393(16)
O1 O 0.3648(3) 0.1717(3) 0.6056(2)
O2 O 0.4849(3) -0.0454(3) 0.8273(2)
C1 C 0.2327(3) -0.1028(3) 0.6709(2)
C2 C 0.3169(3) -0.2470(3) 0.6000(3)
H1 H 0.4411 -0.2734 0.5738
C3 C 0.2113(4) -0.3515(3) 0.5688(3)
H2 H 0.2648 -0.4546 0.5234
C4 C 0.0285(4) -0.3061(3) 0.6038(3)
H3 H -0.0417 -0.3778 0.5795
C5 C -0.0555(3) -0.1597(3) 0.6729(2)
H4 H -0.1813 -0.1302 0.6953
C6 C 0.0501(3) -0.0573(3) 0.7086(2)
C7 C -0.0067(3) 0.1027(3) 0.7836(2)
C8 C -0.1819(3) 0.1766(3) 0.8203(2)
H5 H -0.2605 0.1074 0.8091
C9 C -0.2690(3) 0.3498(3) 0.8753(3)
C10 C 0.1691(4) 0.2696(4) 0.9050(3)
H6 H 0.1138 0.4023 0.8622
H7 H 0.3013 0.2398 0.9282
H8 H 0.1082 0.2421 0.9922
loop_
_geom_bond_atom_site_label_1
_geom_bond_atom_site_label_2
_geom_bond_site_symmetry_1
_geom_bond_site_symmetry_2
S1 N1 1_555 1_555
N1 C7 1_555 1_555
F1 C9 1_555 1_555
F2 C9 1_555 1_555
F3 C9 1_555 1_555
O1 S1 1_555 1_555
O2 S1 1_555 1_555
C1 S1 1_555 1_555
C2 C1 1_555 1_555
H1 C2 1_555 1_555
C3 C2 1_555 1_555
H2 C3 1_555 1_555
C4 C3 1_555 1_555
H3 C4 1_555 1_555
C5 C4 1_555 1_555
H4 C5 1_555 1_555
C6 C1 1_555 1_555
C7 C6 1_555 1_555
C8 C7 1_555 1_555
H5 C8 1_555 1_555
C9 C8 1_555 1_555
C10 N1 1_555 1_555
H6 C10 1_555 1_555
H7 C10 1_555 1_555
H8 C10 1_555 1_555
C5 C6 1_555 1_555

#END
