
#######################################################################
#
#                 Cambridge Crystallographic Data Centre
#                                CCDC 
#
#######################################################################
#
# If this CIF has been generated from an entry in the Cambridge 
# Structural Database, then it will include bibliographic, chemical, 
# crystal, experimental, refinement or atomic coordinate data resulting 
# from the CCDC's data processing and validation procedures.
#
#######################################################################

data_ENAZUO
_chemical_name_common            
'C-Methylcalix(4)resorcinarene bis(trans-1,2-bis(4-pyridyl)ethylene) benzil ethanol clathrate'
_chemical_formula_moiety         'C32 H32 O8,2(C12 H10 N2),C14 H10 O2,C2 H6 O1'
_chemical_name_systematic        
'2,8,14,20-Tetramethyl-4,6,10,12,16,18,22,24-octahydroxycalix(4)arene bis(trans-1,2-bis(4-pyridyl)ethylene) benzil ethanol clathrate'
_symmetry_cell_setting           triclinic
_symmetry_space_group_name_H-M   'P -1'
_symmetry_Int_Tables_number      2
_space_group_name_Hall           '-P 1'
loop_
_symmetry_equiv_pos_site_id
_symmetry_equiv_pos_as_xyz
1 x,y,z
2 -x,-y,-z
_cell_length_a                   13.4358(5)
_cell_length_b                   13.7350(5)
_cell_length_c                   16.6613(6)
_cell_angle_alpha                93.1920(10)
_cell_angle_beta                 100.5270(10)
_cell_angle_gamma                103.1870(10)
_cell_volume                     2927.96
_exptl_crystal_colour            yellow
_exptl_crystal_description       block
_cell_formula_units_Z            2
loop_
_atom_site_label
_atom_site_type_symbol
_atom_site_fract_x
_atom_site_fract_y
_atom_site_fract_z
C1 C -0.18595(13) 0.58213(12) 0.20174(10)
C2 C -0.10371(13) 0.55489(12) 0.25225(10)
C3 C -0.06295(14) 0.60169(13) 0.33080(11)
C4 C -0.10227(13) 0.67817(12) 0.36113(10)
C5 C -0.18543(13) 0.70750(12) 0.31369(10)
C6 C -0.22457(13) 0.65838(12) 0.23504(10)
C7 C -0.22808(13) 0.79052(13) 0.34845(10)
C8 C -0.32993(15) 0.80164(15) 0.29563(12)
C9 C -0.14919(13) 0.89161(12) 0.36532(10)
C10 C -0.15157(13) 0.96096(13) 0.42933(10)
C11 C -0.08147(13) 1.05376(13) 0.44511(10)
C12 C -0.00556(13) 1.07843(12) 0.39856(10)
C13 C 0.00066(13) 1.01144(12) 0.33440(10)
C14 C -0.07270(13) 0.91927(13) 0.31962(10)
C15 C 0.08507(13) 1.03950(12) 0.28440(10)
C16 C 0.05245(16) 1.10524(14) 0.21797(11)
C17 C 0.11546(13) 0.94793(12) 0.25048(10)
C18 C 0.17682(13) 0.89995(13) 0.30365(10)
C19 C 0.20539(14) 0.81530(13) 0.27514(11)
C20 C 0.17369(13) 0.77807(12) 0.19293(10)
C21 C 0.11321(13) 0.82414(12) 0.13733(10)
C22 C 0.08532(13) 0.90814(12) 0.16882(10)
C23 C 0.08439(14) 0.78524(12) 0.04686(10)
C24 C 0.05397(16) 0.86344(14) -0.00847(11)
C25 C 0.00014(13) 0.68725(12) 0.02715(10)
C26 C -0.00968(13) 0.62567(13) -0.04525(10)
C27 C -0.08582(13) 0.53663(12) -0.06515(10)
C28 C -0.15439(13) 0.50713(12) -0.01303(10)
C29 C -0.14834(13) 0.56603(12) 0.05945(10)
C30 C -0.07005(13) 0.65493(12) 0.07735(10)
C31 C -0.22669(13) 0.53406(13) 0.11429(10)
C32 C -0.33218(15) 0.55340(15) 0.07591(12)
O1 O -0.06486(10) 0.47907(9) 0.22202(7)
O2 O -0.06153(10) 0.72573(9) 0.43857(7)
O3 O -0.22590(10) 0.93320(9) 0.47611(8)
O4 O 0.06567(10) 1.16952(9) 0.41336(8)
O5 O 0.20827(10) 0.93855(9) 0.38436(7)
O6 O 0.20170(10) 0.69421(9) 0.16377(7)
O7 O 0.05969(9) 0.65613(9) -0.09532(7)
O8 O -0.22850(9) 0.41689(9) -0.03135(7)
H1 H -0.0813(14) 1.0989(13) 0.4914(11)
H2 H -0.0637(13) 0.6983(13) 0.1271(11)
H3 H -0.0078(13) 0.5819(12) 0.3662(10)
H4 H -0.2859(14) 0.6767(14) 0.1987(11)
H5 H 0.0446(14) 0.9425(13) 0.1307(11)
H6 H -0.2379(13) 0.4588(14) 0.1157(10)
H7 H -0.0699(13) 0.8714(13) 0.2750(11)
H8 H -0.0889(13) 0.4925(13) -0.1140(11)
H9 H -0.0115(15) 0.8802(14) -0.0002(11)
H10 H -0.3882(15) 0.5299(14) 0.1095(12)
H11 H -0.3537(15) 0.8556(15) 0.3222(12)
H12 H 0.1485(14) 0.7725(13) 0.0347(10)
H13 H -0.2425(14) 0.7714(14) 0.4002(12)
H14 H -0.2071(16) 0.9712(16) 0.5223(13)
H15 H -0.3223(15) 0.8219(14) 0.2424(13)
H16 H -0.0134(15) 1.0703(14) 0.1799(12)
H17 H 0.1477(14) 1.0794(13) 0.3237(11)
H18 H 0.2494(15) 0.7825(14) 0.3131(12)
H19 H 0.0417(13) 0.8358(13) -0.0622(11)
H20 H 0.0424(14) 1.1677(15) 0.2436(12)
H21 H 0.0534(16) 0.6039(16) -0.1290(13)
H22 H -0.3862(14) 0.7381(14) 0.2876(11)
H23 H 0.1084(16) 0.9280(16) 0.0000(12)
H24 H 0.1108(15) 1.1258(15) 0.1848(12)
H25 H -0.3241(15) 0.6255(16) 0.0716(12)
H26 H 0.001(2) 0.7122(19) 0.4580(16)
H27 H 0.270(2) 0.9209(19) 0.4078(16)
H28 H -0.0113(18) 0.4665(18) 0.2560(15)
H29 H -0.3585(16) 0.5182(15) 0.0227(13)
H30 H -0.2121(19) 0.3781(19) -0.0727(16)
H31 H 0.252(2) 0.6772(19) 0.2003(16)
H32 H 0.0727(18) 1.1988(18) 0.4618(15)
C33 C 0.54040(15) 0.11817(14) 0.56552(12)
C34 C 0.46256(15) 0.15916(15) 0.52459(13)
C35 C 0.46919(15) 0.19112(14) 0.44755(12)
C36 C 0.55148(16) 0.17437(15) 0.41414(13)
C37 C 0.62537(15) 0.13358(16) 0.45888(12)
C38 C 0.39577(16) 0.24294(15) 0.40005(13)
C39 C 0.33101(16) 0.28382(16) 0.43226(13)
C40 C 0.25682(15) 0.33609(14) 0.38789(13)
C41 C 0.19838(15) 0.37888(15) 0.43304(13)
C42 C 0.12285(15) 0.42163(15) 0.39349(12)
C43 C 0.15981(16) 0.38747(15) 0.26861(13)
C44 C 0.23710(16) 0.34179(15) 0.30367(13)
N1 N 0.62231(12) 0.10710(11) 0.53416(9)
N2 N 0.10155(12) 0.42628(11) 0.31291(10)
H33 H 0.0815(15) 0.4497(14) 0.4267(12)
H34 H 0.397(2) 0.256(2) 0.3350(17)
H35 H 0.6845(16) 0.1244(14) 0.4376(12)
H36 H 0.332(2) 0.276(2) 0.4994(18)
H37 H 0.2750(18) 0.3181(17) 0.2675(14)
H38 H 0.5591(15) 0.1937(15) 0.3605(13)
H39 H 0.4063(17) 0.1638(16) 0.5498(14)
H40 H 0.5401(16) 0.0920(16) 0.6199(14)
H41 H 0.1451(16) 0.3900(16) 0.2113(14)
H42 H 0.2128(16) 0.3772(15) 0.4929(13)
C45 C 0.81434(15) 0.34537(14) 0.51833(12)
C46 C 0.73610(15) 0.38495(14) 0.47750(12)
C47 C 0.72465(14) 0.39061(13) 0.39321(11)
C48 C 0.79298(15) 0.35277(14) 0.35429(12)
C49 C 0.86912(15) 0.31381(14) 0.39988(11)
C50 C 0.64462(15) 0.43287(14) 0.34580(12)
C51 C 0.58316(15) 0.48067(14) 0.37862(12)
C52 C 0.50167(14) 0.52342(13) 0.33420(11)
C53 C 0.45922(15) 0.58801(14) 0.37768(12)
C54 C 0.38315(15) 0.63009(14) 0.33655(12)
C55 C 0.38524(16) 0.54836(15) 0.21424(12)
C56 C 0.46216(15) 0.50345(14) 0.25020(12)
N3 N 0.88206(12) 0.31132(12) 0.48134(9)
N4 N 0.34525(12) 0.61166(12) 0.25593(9)
H43 H 0.5929(15) 0.4913(15) 0.4403(13)
H44 H 0.8229(16) 0.3422(16) 0.5751(14)
H45 H 0.4892(15) 0.4577(15) 0.2168(12)
H46 H 0.7861(14) 0.3547(14) 0.2974(12)
H47 H 0.6892(15) 0.4050(14) 0.5064(12)
H48 H 0.3581(15) 0.5377(14) 0.1569(13)
H49 H 0.6370(15) 0.4245(14) 0.2865(13)
H50 H 0.4827(15) 0.6032(15) 0.4357(13)
H51 H 0.3532(15) 0.6752(15) 0.3659(12)
H52 H 0.9170(16) 0.2906(15) 0.3741(13)
C57 C 0.72750(16) -0.19152(16) -0.03530(13)
C58 C 0.77903(16) -0.16073(16) 0.04428(14)
C59 C 0.76026(16) -0.07935(16) 0.08716(14)
C60 C 0.68930(17) -0.02840(16) 0.04958(14)
C61 C 0.63831(16) -0.05886(15) -0.03060(13)
C62 C 0.65635(15) -0.14085(15) -0.07354(12)
C63 C 0.59643(16) -0.17554(15) -0.15736(13)
C64 C 0.52759(16) -0.11051(15) -0.20048(12)
C65 C 0.41469(16) -0.13670(14) -0.19865(12)
C66 C 0.34739(17) -0.08881(15) -0.24588(12)
C67 C 0.24271(17) -0.11206(16) -0.24389(12)
C68 C 0.20443(16) -0.18216(15) -0.19298(12)
C69 C 0.27102(16) -0.22909(15) -0.14446(13)
C70 C 0.37621(16) -0.20782(15) -0.14769(12)
O9 O 0.59921(12) -0.25235(12) -0.19640(9)
O10 O 0.56793(12) -0.04408(12) -0.23766(9)
H53 H 0.4271(18) -0.2503(18) -0.1103(15)
H54 H 0.1274(17) -0.1994(16) -0.1918(13)
H55 H 0.3809(16) -0.0330(16) -0.2821(13)
H56 H 0.7327(16) -0.2526(16) -0.0716(13)
H57 H 0.2510(16) -0.2767(16) -0.1057(13)
H58 H 0.5868(16) -0.0207(16) -0.0581(13)
H59 H 0.1973(19) -0.0801(18) -0.2741(15)
H60 H 0.7989(18) -0.0558(17) 0.1452(15)
H61 H 0.8342(18) -0.1971(17) 0.0705(14)
H62 H 0.6773(17) 0.0291(18) 0.0827(14)
C71 C -0.4438(2) 0.1750(2) -0.1019(2)
C72 C -0.49272(18) 0.25951(17) -0.08523(14)
O11 O -0.43840(12) 0.32222(11) -0.01192(9)
H63 H -0.4997(18) 0.3080(18) -0.1402(15)
H64 H -0.574(2) 0.224(2) -0.0757(16)
H65 H -0.481(2) 0.122(2) -0.1641(18)
H66 H -0.342(4) 0.360(4) -0.023(3)
H67 H -0.433(3) 0.131(3) -0.049(2)
H68 H -0.370(3) 0.200(3) -0.115(2)
loop_
_geom_bond_atom_site_label_1
_geom_bond_atom_site_label_2
_geom_bond_site_symmetry_1
_geom_bond_site_symmetry_2
C1 C2 1_555 1_555
C2 C3 1_555 1_555
C3 C4 1_555 1_555
C4 C5 1_555 1_555
C5 C6 1_555 1_555
C6 C1 1_555 1_555
C7 C5 1_555 1_555
C8 C7 1_555 1_555
C9 C7 1_555 1_555
C10 C9 1_555 1_555
C11 C10 1_555 1_555
C12 C11 1_555 1_555
C13 C12 1_555 1_555
C14 C9 1_555 1_555
C15 C13 1_555 1_555
C16 C15 1_555 1_555
C17 C15 1_555 1_555
C18 C17 1_555 1_555
C19 C18 1_555 1_555
C20 C19 1_555 1_555
C21 C20 1_555 1_555
C22 C17 1_555 1_555
C23 C21 1_555 1_555
C24 C23 1_555 1_555
C25 C23 1_555 1_555
C26 C25 1_555 1_555
C27 C26 1_555 1_555
C28 C27 1_555 1_555
C29 C28 1_555 1_555
C30 C25 1_555 1_555
C31 C1 1_555 1_555
C32 C31 1_555 1_555
O1 C2 1_555 1_555
O2 C4 1_555 1_555
O3 C10 1_555 1_555
O4 C12 1_555 1_555
O5 C18 1_555 1_555
O6 C20 1_555 1_555
O7 C26 1_555 1_555
O8 C28 1_555 1_555
H1 C11 1_555 1_555
H2 C30 1_555 1_555
H3 C3 1_555 1_555
H4 C6 1_555 1_555
H5 C22 1_555 1_555
H6 C31 1_555 1_555
H7 C14 1_555 1_555
H8 C27 1_555 1_555
H9 C24 1_555 1_555
H10 C32 1_555 1_555
H11 C8 1_555 1_555
H12 C23 1_555 1_555
H13 C7 1_555 1_555
H14 O3 1_555 1_555
H15 C8 1_555 1_555
H16 C16 1_555 1_555
H17 C15 1_555 1_555
H18 C19 1_555 1_555
H19 C24 1_555 1_555
H20 C16 1_555 1_555
H21 O7 1_555 1_555
H22 C8 1_555 1_555
H23 C24 1_555 1_555
H24 C16 1_555 1_555
H25 C32 1_555 1_555
H26 O2 1_555 1_555
H27 O5 1_555 1_555
H28 O1 1_555 1_555
H29 C32 1_555 1_555
H30 O8 1_555 1_555
H31 O6 1_555 1_555
H32 O4 1_555 1_555
C33 C34 1_555 1_555
C34 C35 1_555 1_555
C35 C36 1_555 1_555
C36 C37 1_555 1_555
C37 N1 1_555 1_555
C38 C35 1_555 1_555
C39 C38 1_555 1_555
C40 C39 1_555 1_555
C41 C40 1_555 1_555
C42 C41 1_555 1_555
C43 C44 1_555 1_555
C44 C40 1_555 1_555
N1 C33 1_555 1_555
N2 C42 1_555 1_555
H33 C42 1_555 1_555
H34 C38 1_555 1_555
H35 C37 1_555 1_555
H36 C39 1_555 1_555
H37 C44 1_555 1_555
H38 C36 1_555 1_555
H39 C34 1_555 1_555
H40 C33 1_555 1_555
H41 C43 1_555 1_555
H42 C41 1_555 1_555
C45 C46 1_555 1_555
C46 C47 1_555 1_555
C47 C48 1_555 1_555
C48 C49 1_555 1_555
C49 N3 1_555 1_555
C50 C47 1_555 1_555
C51 C50 1_555 1_555
C52 C51 1_555 1_555
C53 C52 1_555 1_555
C54 C53 1_555 1_555
C55 C56 1_555 1_555
C56 C52 1_555 1_555
N3 C45 1_555 1_555
N4 C54 1_555 1_555
H43 C51 1_555 1_555
H44 C45 1_555 1_555
H45 C56 1_555 1_555
H46 C48 1_555 1_555
H47 C46 1_555 1_555
H48 C55 1_555 1_555
H49 C50 1_555 1_555
H50 C53 1_555 1_555
H51 C54 1_555 1_555
H52 C49 1_555 1_555
C57 C58 1_555 1_555
C58 C59 1_555 1_555
C59 C60 1_555 1_555
C60 C61 1_555 1_555
C61 C62 1_555 1_555
C62 C57 1_555 1_555
C63 C62 1_555 1_555
C64 C63 1_555 1_555
C65 C64 1_555 1_555
C66 C65 1_555 1_555
C67 C66 1_555 1_555
C68 C67 1_555 1_555
C69 C68 1_555 1_555
C70 C65 1_555 1_555
O9 C63 1_555 1_555
O10 C64 1_555 1_555
H53 C70 1_555 1_555
H54 C68 1_555 1_555
H55 C66 1_555 1_555
H56 C57 1_555 1_555
H57 C69 1_555 1_555
H58 C61 1_555 1_555
H59 C67 1_555 1_555
H60 C59 1_555 1_555
H61 C58 1_555 1_555
H62 C60 1_555 1_555
C71 C72 1_555 1_555
C72 O11 1_555 1_555
O11 H66 1_555 1_555
H63 C72 1_555 1_555
H64 C72 1_555 1_555
H65 C71 1_555 1_555
H67 C71 1_555 1_555
H68 C71 1_555 1_555
C13 C14 1_555 1_555
C21 C22 1_555 1_555
C29 C30 1_555 1_555
C29 C31 1_555 1_555
C43 N2 1_555 1_555
C55 N4 1_555 1_555
C69 C70 1_555 1_555

#END
