
#######################################################################
#
#                 Cambridge Crystallographic Data Centre
#                                CCDC 
#
#######################################################################
#
# If this CIF has been generated from an entry in the Cambridge 
# Structural Database, then it will include bibliographic, chemical, 
# crystal, experimental, refinement or atomic coordinate data resulting 
# from the CCDC's data processing and validation procedures.
#
#######################################################################

data_ENBZAM
_chemical_formula_moiety         'C14 H17 N1 O1'
_chemical_name_systematic        exo-N-(2-Norbornyl)benzamide
_symmetry_cell_setting           orthorhombic
_symmetry_space_group_name_H-M   'P b c a'
_symmetry_Int_Tables_number      61
_space_group_name_Hall           '-P 2ac 2ab'
loop_
_symmetry_equiv_pos_site_id
_symmetry_equiv_pos_as_xyz
1 x,y,z
2 1/2-x,-y,1/2+z
3 1/2+x,1/2-y,-z
4 -x,1/2+y,1/2-z
5 -x,-y,-z
6 1/2+x,y,1/2-z
7 1/2-x,1/2+y,z
8 x,1/2-y,1/2+z
_cell_length_a                   11.774(4)
_cell_length_b                   10.151(7)
_cell_length_c                   20.0(3)
_cell_angle_alpha                90
_cell_angle_beta                 90
_cell_angle_gamma                90
_cell_volume                     2390.36
_cell_formula_units_Z            8
loop_
_atom_site_label
_atom_site_type_symbol
_atom_site_fract_x
_atom_site_fract_y
_atom_site_fract_z
C1 C 0.29073 0.15798 -0.47102
C2 C 0.35996 0.16093 -0.53370
C3 C 0.44796 0.27260 -0.52059
C4 C 0.41867 0.31853 -0.45061
C5 C 0.45286 0.20871 -0.40024
C6 C 0.36867 0.09697 -0.41538
C7 C 0.28822 0.30368 -0.45088
C8 C 0.24027 0.09035 -0.62718
C9 C 0.17577 0.12576 -0.68804
C10 C 0.19793 0.23928 -0.72443
C11 C 0.13396 0.26728 -0.78119
C12 C 0.04873 0.18362 -0.80135
C13 C 0.02680 0.07007 -0.76556
C14 C 0.09050 0.04130 -0.70974
O1 O 0.24796 -0.02658 -0.60858
N1 N 0.29062 0.18795 -0.59282
H1 H 0.20420 0.10960 -0.47670
H2 H 0.40490 0.06870 -0.53960
H3 H 0.53050 0.23710 -0.52520
H4 H 0.43510 0.35460 -0.55590
H5 H 0.45160 0.40390 -0.43940
H6 H 0.53270 0.17090 -0.41200
H7 H 0.44440 0.24010 -0.35070
H8 H 0.31390 0.07540 -0.36400
H9 H 0.41630 0.01350 -0.43380
H10 H 0.25310 0.32190 -0.40180
H11 H 0.24710 0.35760 -0.48650
H12 H 0.25720 0.29500 -0.70900
H13 H 0.15700 0.34880 -0.80700
H14 H 0.00140 0.20050 -0.84560
H15 H -0.04310 0.00960 -0.78170
H16 H 0.07420 -0.02900 -0.68080
H17 H 0.27800 0.26180 -0.60580
loop_
_geom_bond_atom_site_label_1
_geom_bond_atom_site_label_2
_geom_bond_site_symmetry_1
_geom_bond_site_symmetry_2
C1 C2 1_555 1_555
C2 C3 1_555 1_555
C3 C4 1_555 1_555
C4 C5 1_555 1_555
C5 C6 1_555 1_555
C6 C1 1_555 1_555
C7 C1 1_555 1_555
C8 C9 1_555 1_555
C9 C10 1_555 1_555
C10 C11 1_555 1_555
C11 C12 1_555 1_555
C12 C13 1_555 1_555
C13 C14 1_555 1_555
C14 C9 1_555 1_555
O1 C8 1_555 1_555
N1 C2 1_555 1_555
H1 C1 1_555 1_555
H2 C2 1_555 1_555
H3 C3 1_555 1_555
H4 C3 1_555 1_555
H5 C4 1_555 1_555
H6 C5 1_555 1_555
H7 C5 1_555 1_555
H8 C6 1_555 1_555
H9 C6 1_555 1_555
H10 C7 1_555 1_555
H11 C7 1_555 1_555
H12 C10 1_555 1_555
H13 C11 1_555 1_555
H14 C12 1_555 1_555
H15 C13 1_555 1_555
H16 C14 1_555 1_555
H17 N1 1_555 1_555
C4 C7 1_555 1_555
C8 N1 1_555 1_555

#END
