
#######################################################################
#
#                 Cambridge Crystallographic Data Centre
#                                CCDC 
#
#######################################################################
#
# If this CIF has been generated from an entry in the Cambridge 
# Structural Database, then it will include bibliographic, chemical, 
# crystal, experimental, refinement or atomic coordinate data resulting 
# from the CCDC's data processing and validation procedures.
#
#######################################################################

data_ENEBAA
_chemical_name_common            
'C-Methylcalix(4)resorcinarene bis(trans-1,2-bis(4-pyridyl)ethylene) benzil dihydrate clathrate'
_chemical_formula_moiety         'C32 H32 O8,2(C12 H10 N2),C14 H10 O2,2(H2 O1)'
_chemical_name_systematic        
'2,8,14,20-Tetramethyl-4,6,10,12,16,18,22,24-octahydroxycalix(4)arene bis(trans-1,2-bis(4-pyridyl)ethylene) benzil dihydrate clathrate'
_symmetry_cell_setting           triclinic
_symmetry_space_group_name_H-M   'P -1'
_symmetry_Int_Tables_number      2
_space_group_name_Hall           '-P 1'
loop_
_symmetry_equiv_pos_site_id
_symmetry_equiv_pos_as_xyz
1 x,y,z
2 -x,-y,-z
_cell_length_a                   12.9310(3)
_cell_length_b                   14.9070(3)
_cell_length_c                   16.7803(4)
_cell_angle_alpha                99.5190(10)
_cell_angle_beta                 91.9840(10)
_cell_angle_gamma                98.5320(10)
_cell_volume                     3148.96
_exptl_crystal_colour            yellow
_exptl_crystal_description       block
_cell_formula_units_Z            2
loop_
_atom_site_label
_atom_site_type_symbol
_atom_site_fract_x
_atom_site_fract_y
_atom_site_fract_z
O1 O 0.95663(8) 0.96826(7) 0.22838(6)
O2 O 1.19321(9) 0.96318(8) 0.45275(6)
H1 H 1.1595(15) 1.0203(13) 0.4784(11)
O3 O 1.42294(9) 0.79188(8) 0.49021(6)
H2 H 1.4592(13) 0.7953(11) 0.5215(9)
O4 O 1.67380(8) 1.03127(9) 0.41705(6)
H3 H 1.7145(12) 1.0342(10) 0.4656(9)
O5 O 1.43214(9) 1.19692(8) 0.38319(6)
H4 H 1.4107(13) 1.2626(12) 0.3969(10)
O6 O 1.19094(8) 1.19456(8) 0.16011(6)
H5 H 1.189(2) 1.2901(18) 0.1829(16)
O7 O 1.17169(8) 1.04019(8) -0.09311(6)
H6 H 1.1183(12) 1.0346(10) -0.1264(9)
O8 O 0.92267(9) 0.80044(8) -0.01977(6)
C1 C 1.03349(12) 0.92977(11) 0.26219(9)
C2 C 1.07468(12) 0.96715(11) 0.34079(9)
C3 C 1.15167(12) 0.92686(11) 0.37586(9)
C4 C 1.18857(13) 0.85013(12) 0.33435(9)
C5 C 1.14469(13) 0.81535(12) 0.25589(9)
C6 C 1.06643(12) 0.85339(11) 0.21887(9)
C7 C 1.27314(14) 0.80883(12) 0.37279(9)
C8 C 1.28434(16) 0.71367(13) 0.32815(12)
H7 H 1.3389 0.6906 0.3551
H8 H 1.3017 0.7175 0.2735
H9 H 1.2194 0.6728 0.3276
C9 C 1.37864(12) 0.86885(12) 0.38445(9)
C10 C 1.45253(12) 0.85687(11) 0.44329(9)
C11 C 1.55073(13) 0.90993(12) 0.45338(9)
C12 C 1.57719(13) 0.97610(13) 0.40602(9)
C13 C 1.50608(12) 0.99013(12) 0.34620(9)
C14 C 1.40976(12) 0.93584(12) 0.33775(8)
C15 C 1.53935(12) 1.06417(13) 0.29575(9)
C16 C 1.61464(13) 1.03417(15) 0.23228(10)
H10 H 1.6723 1.0138 0.2579
H11 H 1.6405 1.0852 0.2064
H12 H 1.5785 0.9846 0.1925
C17 C 1.44568(12) 1.09773(12) 0.25885(9)
C18 C 1.39596(12) 1.16326(11) 0.30447(8)
C19 C 1.31115(12) 1.19333(11) 0.27168(9)
C20 C 1.27508(12) 1.16174(11) 0.19238(9)
C21 C 1.32320(12) 1.09671(12) 0.14316(9)
C22 C 1.40596(12) 1.06709(13) 0.17879(9)
C23 C 1.28920(12) 1.06882(13) 0.05331(9)
C24 C 1.37907(13) 1.03787(15) 0.00320(10)
H13 H 1.4401 1.0842 0.0151
H14 H 1.3584 1.0291 -0.0534
H15 H 1.3948 0.9810 0.0167
C25 C 1.19131(12) 0.99618(12) 0.03567(9)
C26 C 1.13648(12) 0.98444(12) -0.03951(9)
C27 C 1.04788(12) 0.91826(12) -0.05803(8)
C28 C 1.01120(12) 0.86376(11) -0.00387(9)
C29 C 1.06417(12) 0.87354(12) 0.07310(9)
C30 C 1.15339(12) 0.94065(11) 0.08987(9)
C31 C 1.02097(13) 0.81476(12) 0.13283(9)
C32 C 1.03429(17) 0.71416(13) 0.10578(11)
H16 H 1.0049 0.6932 0.0514
H17 H 0.9989 0.6770 0.1412
H18 H 1.1075 0.7091 0.1078
H19 H 1.1916(12) 0.7613(10) 0.2225(9)
H20 H 1.0107(12) 0.9184(10) -0.1049(9)
H21 H 1.2818(11) 1.2346(10) 0.3057(9)
H22 H 1.0425(11) 1.0298(10) 0.3776(8)
H23 H 1.3632(11) 0.9511(9) 0.2972(8)
H24 H 1.1904(10) 0.9530(9) 0.1432(8)
H25 H 1.2517(12) 0.8061(11) 0.4216(10)
H26 H 1.4375(11) 1.0380(10) 0.1478(8)
H27 H 0.9440(11) 0.8059(10) 0.1304(8)
H28 H 1.5866(15) 1.1306(13) 0.3322(11)
H29 H 0.9394(16) 1.0374(13) 0.2672(12)
H30 H 1.2766(12) 1.1357(11) 0.0261(9)
H31 H 1.6025(10) 0.8963(9) 0.4912(8)
H32 H 0.8892(17) 0.7995(15) -0.0582(13)
O9 O 1.5656(5) 0.5614(4) 0.3122(5)
O10 O 1.7352(4) 0.4759(2) 0.2346(3)
C33 C 1.7268(2) 0.72919(19) 0.12369(19)
C34 C 1.6799(2) 0.8015(2) 0.16974(17)
C35 C 1.6171(3) 0.7882(2) 0.23205(18)
C36 C 1.5994(3) 0.7163(3) 0.2582(3)
C37 C 1.6405(4) 0.6388(2) 0.2172(2)
C38 C 1.7069(2) 0.64075(19) 0.1451(2)
C39 C 1.6406(14) 0.5879(11) 0.2376(10)
C40 C 1.6373(4) 0.4866(4) 0.2235(3)
C41 C 1.5587(4) 0.4092(4) 0.1927(3)
C42 C 1.4719(4) 0.4334(4) 0.1552(3)
C43 C 1.4098(4) 0.3696(4) 0.0965(3)
C44 C 1.4344(4) 0.2815(4) 0.0751(3)
C45 C 1.5212(4) 0.2572(4) 0.1126(3)
C46 C 1.5834(4) 0.3210(4) 0.1713(3)
O11 O 1.3009(4) 0.5352(4) 0.1867(3)
C47 C 0.9072(3) 1.20176(16) 0.25562(15)
H33 H 0.9371 1.1972 0.2058
C48 C 0.8643(3) 1.27972(16) 0.28217(16)
H34 H 0.8665 1.3259 0.2509
C49 C 0.81756(17) 1.28923(14) 0.35586(13)
C50 C 0.81393(18) 1.21628(15) 0.39320(14)
H35 H 0.7792 1.2164 0.4408
C51 C 0.86005(17) 1.14097(15) 0.36333(14)
H36 H 0.8561 1.0931 0.3929
C52 C 0.77773(19) 1.37574(16) 0.38559(15)
H37 H 0.7939 1.4236 0.3567
C53 C 0.72325(18) 1.39158(16) 0.44699(16)
H38 H 0.7032 1.3425 0.4738
C54 C 0.68866(17) 1.48036(14) 0.47998(16)
C55 C 0.7094(2) 1.55830(15) 0.44499(19)
H39 H 0.7462 1.5570 0.3983
C56 C 0.6748(2) 1.63816(17) 0.48033(17)
H40 H 0.6879 1.6893 0.4550
C57 C 0.6007(2) 1.56948(16) 0.57863(16)
H41 H 0.5623 1.5734 0.6246
C58 C 0.6287(2) 1.48564(17) 0.54797(17)
H42 H 0.6085 1.4341 0.5717
N1 N 0.90895(13) 1.13228(10) 0.29630(9)
N2 N 0.62540(14) 1.64644(11) 0.54629(12)
C59 C 1.1356(2) 1.3742(2) 0.32262(16)
H43 H 1.1665 1.3389 0.3547
C60 C 1.0965(2) 1.4497(2) 0.3616(2)
H44 H 1.1023 1.4638 0.4178
C61 C 1.0497(2) 1.50351(16) 0.31878(18)
C62 C 1.0502(2) 1.47963(18) 0.2354(2)
H45 H 1.0233 1.5162 0.2026
C63 C 1.0908(2) 1.40057(17) 0.19939(17)
H46 H 1.0882 1.3849 0.1433
C64 C 1.0091(2) 1.5835(2) 0.3666(2)
H47 H 1.0185 1.5941 0.4228
C65 C 0.9668(2) 1.6318(2) 0.33568(19)
H48 H 0.9546 1.6192 0.2797
C66 C 0.92649(19) 1.72320(18) 0.38684(17)
C67 C 0.9420(2) 1.73970(18) 0.4744(2)
H49 H 0.9750 1.7014 0.5018
C68 C 0.9038(2) 1.81779(17) 0.51562(17)
H50 H 0.9129 1.8312 0.5718
C69 C 0.84189(17) 1.84956(14) 0.39566(13)
H51 H 0.8083 1.8878 0.3687
C70 C 0.87264(19) 1.77597(15) 0.34985(15)
H52 H 0.8568 1.7625 0.2943
N3 N 1.13285(15) 1.34840(13) 0.24472(12)
N4 N 0.85555(13) 1.87284(12) 0.47746(10)
O12? O 1.7961(3) 0.57885(19) -0.00438(18)
O13? O 1.8109(3) 0.4722(3) 0.1628(3)
O14? O 1.3851(4) 0.4186(4) 0.1470(3)
C71? C 1.7794(4) 0.5685(3) 0.0698(4)
C72? C 1.7778(5) 0.4770(7) 0.0906(5)
C73? C 1.7651(7) 0.3960(4) 0.0340(3)
C74? C 1.7748(4) 0.3063(3) 0.0574(3)
C75? C 1.7304(4) 0.2278(3) 0.0110(3)
C76? C 1.6665(4) 0.2296(3) -0.0518(3)
C77? C 1.6484(5) 0.3200(4) -0.0797(3)
C78? C 1.7049(6) 0.3987(3) -0.0304(3)
loop_
_geom_bond_atom_site_label_1
_geom_bond_atom_site_label_2
_geom_bond_site_symmetry_1
_geom_bond_site_symmetry_2
O1 C1 1_555 1_555
O2 H1 1_555 1_555
O3 H2 1_555 1_555
O4 H3 1_555 1_555
O5 H4 1_555 1_555
O6 H5 1_555 1_555
O7 H6 1_555 1_555
O8 C28 1_555 1_555
C1 C2 1_555 1_555
C2 C3 1_555 1_555
C3 O2 1_555 1_555
C4 C3 1_555 1_555
C5 C4 1_555 1_555
C6 C1 1_555 1_555
C7 C4 1_555 1_555
C8 C7 1_555 1_555
H7 C8 1_555 1_555
H8 C8 1_555 1_555
H9 C8 1_555 1_555
C9 C7 1_555 1_555
C10 O3 1_555 1_555
C11 C10 1_555 1_555
C12 O4 1_555 1_555
C13 C12 1_555 1_555
C14 C9 1_555 1_555
C15 C13 1_555 1_555
C16 C15 1_555 1_555
H10 C16 1_555 1_555
H11 C16 1_555 1_555
H12 C16 1_555 1_555
C17 C15 1_555 1_555
C18 O5 1_555 1_555
C19 C18 1_555 1_555
C20 O6 1_555 1_555
C21 C20 1_555 1_555
C22 C17 1_555 1_555
C23 C21 1_555 1_555
C24 C23 1_555 1_555
H13 C24 1_555 1_555
H14 C24 1_555 1_555
H15 C24 1_555 1_555
C25 C23 1_555 1_555
C26 O7 1_555 1_555
C27 C26 1_555 1_555
C28 C27 1_555 1_555
C29 C28 1_555 1_555
C30 C25 1_555 1_555
C31 C6 1_555 1_555
C32 C31 1_555 1_555
H16 C32 1_555 1_555
H17 C32 1_555 1_555
H18 C32 1_555 1_555
H19 C5 1_555 1_555
H20 C27 1_555 1_555
H21 C19 1_555 1_555
H22 C2 1_555 1_555
H23 C14 1_555 1_555
H24 C30 1_555 1_555
H25 C7 1_555 1_555
H26 C22 1_555 1_555
H27 C31 1_555 1_555
H28 C15 1_555 1_555
H29 O1 1_555 1_555
H30 C23 1_555 1_555
H31 C11 1_555 1_555
H32 O8 1_555 1_555
O9 C39 1_555 1_555
O10 C40 1_555 1_555
C33 C34 1_555 1_555
C34 C35 1_555 1_555
C35 C36 1_555 1_555
C36 C37 1_555 1_555
C37 C38 1_555 1_555
C38 C33 1_555 1_555
C39 C37 1_555 1_555
C40 C39 1_555 1_555
C41 C40 1_555 1_555
C42 C41 1_555 1_555
C43 C42 1_555 1_555
C44 C43 1_555 1_555
C45 C44 1_555 1_555
C46 C41 1_555 1_555
C47 H33 1_555 1_555
C48 C47 1_555 1_555
H34 C48 1_555 1_555
C49 C48 1_555 1_555
C50 C49 1_555 1_555
H35 C50 1_555 1_555
C51 C50 1_555 1_555
H36 C51 1_555 1_555
C52 C49 1_555 1_555
H37 C52 1_555 1_555
C53 C52 1_555 1_555
H38 C53 1_555 1_555
C54 C53 1_555 1_555
C55 C54 1_555 1_555
H39 C55 1_555 1_555
C56 C55 1_555 1_555
H40 C56 1_555 1_555
C57 H41 1_555 1_555
C58 C54 1_555 1_555
H42 C58 1_555 1_555
N1 C47 1_555 1_555
N2 C56 1_555 1_555
C59 H43 1_555 1_555
C60 C59 1_555 1_555
H44 C60 1_555 1_555
C61 C60 1_555 1_555
C62 C61 1_555 1_555
H45 C62 1_555 1_555
C63 C62 1_555 1_555
H46 C63 1_555 1_555
C64 C61 1_555 1_555
H47 C64 1_555 1_555
C65 C64 1_555 1_555
H48 C65 1_555 1_555
C66 C65 1_555 1_555
C67 C66 1_555 1_555
H49 C67 1_555 1_555
C68 C67 1_555 1_555
H50 C68 1_555 1_555
C69 H51 1_555 1_555
C70 C66 1_555 1_555
H52 C70 1_555 1_555
N3 C59 1_555 1_555
N4 C68 1_555 1_555
C5 C6 1_555 1_555
C9 C10 1_555 1_555
C11 C12 1_555 1_555
C13 C14 1_555 1_555
C17 C18 1_555 1_555
C19 C20 1_555 1_555
C21 C22 1_555 1_555
C25 C26 1_555 1_555
C29 C30 1_555 1_555
C29 C31 1_555 1_555
C45 C46 1_555 1_555
C51 N1 1_555 1_555
C57 C58 1_555 1_555
C57 N2 1_555 1_555
C63 N3 1_555 1_555
C69 C70 1_555 1_555
C69 N4 1_555 1_555

#END
