
#######################################################################
#
#                 Cambridge Crystallographic Data Centre
#                                CCDC 
#
#######################################################################
#
# If this CIF has been generated from an entry in the Cambridge 
# Structural Database, then it will include bibliographic, chemical, 
# crystal, experimental, refinement or atomic coordinate data resulting 
# from the CCDC's data processing and validation procedures.
#
#######################################################################

data_ENEBII
_chemical_name_common            
'C-Ethylcalix(4)resorcinarene bis(trans-1,2-bis(4-pyridyl)ethylene) benzil clathrate'
_chemical_formula_moiety         'C36 H40 O8,2(C12 H10 N2),C14 H10 O2'
_chemical_name_systematic        
'2,8,14,20-Tetraethyl-4,6,10,12,16,18,22,24-octahydroxycalix(4)arene bis(trans-1,2-bis(4-pyridyl)ethylene) benzil clathrate'
_symmetry_cell_setting           monoclinic
_symmetry_space_group_name_H-M   'P 21/n'
_symmetry_Int_Tables_number      14
_space_group_name_Hall           '-P 2yn'
loop_
_symmetry_equiv_pos_site_id
_symmetry_equiv_pos_as_xyz
1 x,y,z
2 1/2-x,1/2+y,1/2-z
3 -x,-y,-z
4 1/2+x,1/2-y,1/2+z
_cell_length_a                   13.9383(15)
_cell_length_b                   14.2150(13)
_cell_length_c                   30.064(3)
_cell_angle_alpha                90
_cell_angle_beta                 92.134(4)
_cell_angle_gamma                90
_cell_volume                     5952.54
_exptl_crystal_colour            yellow
_exptl_crystal_description       block
_cell_formula_units_Z            4
loop_
_atom_site_label
_atom_site_type_symbol
_atom_site_fract_x
_atom_site_fract_y
_atom_site_fract_z
O1 O 0.5546(2) 0.2387(2) -0.24706(10)
O2 O 0.7092(3) 0.4804(3) -0.32942(10)
O3 O 0.6351(3) 0.5529(3) -0.40818(12)
O4 O 0.3540(3) 0.5985(2) -0.49509(9)
O5 O 0.1602(2) 0.5618(2) -0.49581(9)
O6 O 0.0059(2) 0.3276(2) -0.40836(10)
O7 O 0.0893(2) 0.2048(2) -0.34990(9)
H1 H 0.0661 0.2446 -0.3669
O8 O 0.3767(3) 0.1574(2) -0.26899(11)
C1 C 0.4739(3) 0.3837(3) -0.26161(12)
C2 C 0.5534(3) 0.3272(3) -0.26640(12)
C3 C 0.6321(4) 0.3595(3) -0.28874(13)
C4 C 0.6315(4) 0.4478(3) -0.30751(13)
C5 C 0.5515(4) 0.5068(3) -0.30394(13)
C6 C 0.4745(4) 0.4717(3) -0.28139(13)
C7 C 0.5464(5) 0.6050(3) -0.32432(15)
C8 C 0.5053(5) 0.6774(3) -0.29220(15)
H2 H 0.5002 0.7378 -0.3071
H3 H 0.4412 0.6581 -0.2847
C9 C 0.5656(6) 0.6887(5) -0.2501(2)
C10 C 0.4945(5) 0.6044(3) -0.37004(14)
C11 C 0.5406(4) 0.5806(4) -0.40836(16)
C12 C 0.4930(5) 0.5814(4) -0.44935(15)
C13 C 0.3969(4) 0.6024(3) -0.45318(14)
C14 C 0.3468(4) 0.6281(3) -0.41593(13)
C15 C 0.3979(5) 0.6274(3) -0.37532(15)
C16 C 0.2404(4) 0.6522(3) -0.42021(15)
C17 C 0.2083(6) 0.7310(3) -0.38852(17)
H4 H 0.1473 0.7123 -0.3767
H5 H 0.2545 0.7336 -0.3636
C18 C 0.1994(13) 0.8073(8) -0.4027(2)
H6 H 0.1775 0.8483 -0.3798
H7 H 0.1533 0.8069 -0.4272
H8 H 0.2600 0.8294 -0.4127
C19 C 0.1788(3) 0.5658(3) -0.41720(13)
C20 C 0.1386(3) 0.5234(3) -0.45532(12)
C21 C 0.0812(3) 0.4452(3) -0.45227(14)
C22 C 0.0629(3) 0.4066(3) -0.41137(13)
C23 C 0.1006(3) 0.4461(3) -0.37211(13)
C24 C 0.1576(4) 0.5249(3) -0.37633(15)
C25 C 0.0758(3) 0.4050(3) -0.32690(13)
C26 C 0.0489(4) 0.4818(3) -0.29394(14)
C27 C 0.0079(4) 0.4406(4) -0.25210(17)
C28 C 0.1569(3) 0.3397(3) -0.30988(12)
C29 C 0.1582(3) 0.2451(3) -0.32281(13)
C30 C 0.2323(3) 0.1865(3) -0.30829(14)
C31 C 0.3055(3) 0.2213(3) -0.28109(13)
C32 C 0.3071(3) 0.3141(3) -0.26624(12)
C33 C 0.2315(3) 0.3709(3) -0.28229(12)
C34 C 0.3880(3) 0.3512(3) -0.23586(12)
C35 C 0.3558(4) 0.4263(4) -0.20278(14)
C36 C 0.4354(5) 0.4574(4) -0.17112(17)
H9 H 0.462(3) 0.395(3) -0.1562(13)
H10 H 0.637(3) 0.714(2) -0.2663(11)
H11 H 0.111(3) 0.520(3) -0.2866(12)
H12 H 0.234(2) 0.442(3) -0.2704(12)
H13 H 0.426(4) 0.495(4) -0.1480(19)
H14 H 0.689(3) 0.321(2) -0.2924(11)
H15 H 0.188(3) 0.553(3) -0.3538(13)
H16 H 0.234(3) 0.118(3) -0.3193(12)
H17 H 0.488(3) 0.492(3) -0.1846(14)
H18 H 0.408(2) 0.298(2) -0.2156(10)
H19 H 0.561(4) 0.609(4) -0.232(2)
H20 H 0.057(3) 0.420(3) -0.4811(14)
H21 H 0.063(4) 0.403(3) -0.2343(16)
H22 H -0.015(3) 0.519(3) -0.3027(13)
H23 H 0.232(2) 0.680(2) -0.4476(11)
H24 H 0.341(3) 0.480(3) -0.2177(13)
H25 H 0.297(3) 0.395(3) -0.1853(12)
H26 H 0.364(3) 0.646(3) -0.3470(14)
H27 H 0.529(2) 0.555(2) -0.4756(12)
H28 H 0.609(3) 0.626(3) -0.3310(12)
H29 H 0.741(3) 0.434(3) -0.3367(13)
H30 H 0.014(3) 0.358(3) -0.3322(14)
H31 H -0.011(4) 0.492(4) -0.231(2)
H32 H 0.581(6) 0.213(6) -0.260(3)
H33 H 0.421(3) 0.511(3) -0.2792(12)
H34 H 0.274(5) 0.558(5) -0.495(2)
H35 H 0.649(3) 0.538(3) -0.3844(15)
H36 H 0.436(3) 0.189(3) -0.2607(14)
H37 H 0.152(3) 0.526(3) -0.5206(17)
H38 H 0.018(4) 0.286(4) -0.436(2)
H39 H 0.531(6) 0.738(6) -0.225(3)
H40 H -0.076(5) 0.407(4) -0.262(2)
O9 O 0.1013(2) 0.3872(3) 0.02468(10)
O10 O -0.1210(2) 0.3684(2) -0.01977(10)
C37 C 0.1309(4) 0.4774(4) -0.05723(17)
C38 C 0.1490(5) 0.5144(4) -0.09843(18)
C39 C 0.1019(5) 0.4767(4) -0.13581(18)
C40 C 0.0388(4) 0.4023(4) -0.13157(16)
C41 C 0.0193(4) 0.3665(3) -0.09022(14)
C42 C 0.0641(4) 0.4047(3) -0.05211(15)
C43 C 0.0450(3) 0.3728(3) -0.00688(14)
C44 C -0.0538(3) 0.3337(3) 0.00268(14)
C45 C -0.0704(3) 0.2665(3) 0.03886(13)
C46 C -0.1644(3) 0.2509(3) 0.05114(14)
C47 C -0.1826(4) 0.1871(3) 0.08491(15)
C48 C -0.1081(4) 0.1421(3) 0.10661(16)
C49 C -0.0152(4) 0.1565(4) 0.09433(18)
C50 C 0.0041(4) 0.2188(4) 0.06155(16)
H41 H -0.120(4) 0.107(4) 0.1302(18)
H42 H -0.010(4) 0.384(4) -0.157(2)
H43 H 0.039(3) 0.136(3) 0.1146(16)
H44 H 0.205(3) 0.566(3) -0.1052(15)
H45 H 0.100(3) 0.513(3) -0.1655(17)
H46 H 0.165(3) 0.514(3) -0.0263(17)
H47 H -0.255(3) 0.170(3) 0.0909(15)
H48 H -0.235(5) 0.304(4) 0.033(2)
H49 H -0.037(3) 0.315(3) -0.0866(16)
H50 H 0.064(4) 0.238(3) 0.0524(15)
C51 C -0.4046(4) 0.3585(5) 0.0412(2)
C52 C -0.3787(4) 0.4350(5) 0.0144(2)
C53 C -0.4128(4) 0.4372(4) -0.02962(16)
C54 C -0.4691(5) 0.3646(4) -0.0442(2)
C55 C -0.4877(5) 0.2949(5) -0.01637(18)
C56 C -0.3923(4) 0.5185(4) -0.05924(18)
C57 C -0.3411(4) 0.5906(4) -0.04858(19)
C58 C -0.3244(3) 0.6735(3) -0.07881(15)
C59 C -0.2769(4) 0.7513(4) -0.06125(17)
C60 C -0.2582(3) 0.8278(4) -0.08720(15)
C61 C -0.3329(3) 0.7593(4) -0.14724(17)
C62 C -0.3529(3) 0.6796(4) -0.12276(17)
N1 N -0.4580(3) 0.2888(3) 0.02592(14)
N2 N -0.2862(3) 0.8336(3) -0.12988(11)
H51 H -0.353(3) 0.765(3) -0.1791(14)
H52 H -0.378(3) 0.357(3) 0.0703(13)
H53 H -0.340(3) 0.473(3) 0.0355(13)
H54 H -0.310(3) 0.581(3) -0.0179(16)
H55 H -0.255(3) 0.743(3) -0.0348(16)
H56 H -0.383(3) 0.631(3) -0.1390(14)
H57 H -0.223(3) 0.879(3) -0.0774(15)
H58 H -0.487(5) 0.365(5) -0.077(3)
H59 H -0.520(4) 0.244(4) -0.0262(17)
H60 H -0.413(3) 0.510(3) -0.0917(18)
C63 C 0.7049(3) 0.1432(3) -0.04230(14)
C64 C 0.7254(3) 0.2231(3) -0.06603(14)
C65 C 0.6874(3) 0.2339(3) -0.10911(12)
C66 C 0.6285(3) 0.1613(3) -0.12539(15)
C67 C 0.6102(4) 0.0860(4) -0.09870(15)
C68 C 0.7077(3) 0.3153(3) -0.13688(14)
C69 C 0.7591(3) 0.3900(3) -0.12459(14)
C70 C 0.7840(3) 0.4699(3) -0.15232(12)
C71 C 0.8441(3) 0.5399(3) -0.13531(15)
C72 C 0.8715(3) 0.6132(3) -0.16193(14)
C73 C 0.7836(3) 0.5532(3) -0.22117(14)
C74 C 0.7526(3) 0.4800(3) -0.19687(13)
N3 N 0.6476(2) 0.0744(2) -0.05789(11)
N4 N 0.8436(2) 0.6212(2) -0.20466(11)
H61 H 0.913(3) 0.664(3) -0.1506(12)
H62 H 0.687(3) 0.310(3) -0.1640(14)
H63 H 0.774(2) 0.557(2) -0.2519(12)
H64 H 0.871(3) 0.538(3) -0.1094(14)
H65 H 0.567(4) 0.047(3) -0.1083(16)
H66 H 0.594(3) 0.173(3) -0.1555(15)
H67 H 0.766(3) 0.267(3) -0.0520(14)
H68 H 0.716(3) 0.434(3) -0.2129(15)
H69 H 0.729(2) 0.135(2) -0.0107(12)
H70 H 0.785(3) 0.393(3) -0.0947(13)
loop_
_geom_bond_atom_site_label_1
_geom_bond_atom_site_label_2
_geom_bond_site_symmetry_1
_geom_bond_site_symmetry_2
O1 C2 1_555 1_555
O2 C4 1_555 1_555
O3 C11 1_555 1_555
O4 C13 1_555 1_555
O5 C20 1_555 1_555
O6 C22 1_555 1_555
O7 H1 1_555 1_555
O8 C31 1_555 1_555
C1 C2 1_555 1_555
C2 C3 1_555 1_555
C3 C4 1_555 1_555
C4 C5 1_555 1_555
C5 C6 1_555 1_555
C6 C1 1_555 1_555
C7 C5 1_555 1_555
C8 C7 1_555 1_555
H2 C8 1_555 1_555
H3 C8 1_555 1_555
C9 C8 1_555 1_555
C10 C7 1_555 1_555
C11 C10 1_555 1_555
C12 C11 1_555 1_555
C13 C12 1_555 1_555
C14 C13 1_555 1_555
C15 C10 1_555 1_555
C16 C14 1_555 1_555
C17 C16 1_555 1_555
H4 C17 1_555 1_555
H5 C17 1_555 1_555
C18 C17 1_555 1_555
H6 C18 1_555 1_555
H7 C18 1_555 1_555
H8 C18 1_555 1_555
C19 C16 1_555 1_555
C20 C19 1_555 1_555
C21 C20 1_555 1_555
C22 C21 1_555 1_555
C23 C22 1_555 1_555
C24 C19 1_555 1_555
C25 C23 1_555 1_555
C26 C25 1_555 1_555
C27 C26 1_555 1_555
C28 C25 1_555 1_555
C29 O7 1_555 1_555
C30 C29 1_555 1_555
C31 C30 1_555 1_555
C32 C31 1_555 1_555
C33 C28 1_555 1_555
C34 C1 1_555 1_555
C35 C34 1_555 1_555
C36 C35 1_555 1_555
H9 C36 1_555 1_555
H10 C9 1_555 1_555
H11 C26 1_555 1_555
H12 C33 1_555 1_555
H13 C36 1_555 1_555
H14 C3 1_555 1_555
H15 C24 1_555 1_555
H16 C30 1_555 1_555
H17 C36 1_555 1_555
H18 C34 1_555 1_555
H19 C9 1_555 1_555
H20 C21 1_555 1_555
H21 C27 1_555 1_555
H22 C26 1_555 1_555
H23 C16 1_555 1_555
H24 C35 1_555 1_555
H25 C35 1_555 1_555
H26 C15 1_555 1_555
H27 C12 1_555 1_555
H28 C7 1_555 1_555
H29 O2 1_555 1_555
H30 C25 1_555 1_555
H31 C27 1_555 1_555
H32 O1 1_555 1_555
H33 C6 1_555 1_555
H34 O4 1_555 1_555
H35 O3 1_555 1_555
H36 O8 1_555 1_555
H37 O5 1_555 1_555
H38 O6 1_555 1_555
H39 C9 1_555 1_555
H40 C27 1_555 1_555
O9 C43 1_555 1_555
O10 C44 1_555 1_555
C37 C38 1_555 1_555
C38 C39 1_555 1_555
C39 C40 1_555 1_555
C40 C41 1_555 1_555
C41 C42 1_555 1_555
C42 C37 1_555 1_555
C43 C42 1_555 1_555
C44 C43 1_555 1_555
C45 C44 1_555 1_555
C46 C45 1_555 1_555
C47 C46 1_555 1_555
C48 C47 1_555 1_555
C49 C48 1_555 1_555
C50 C45 1_555 1_555
H41 C48 1_555 1_555
H42 C40 1_555 1_555
H43 C49 1_555 1_555
H44 C38 1_555 1_555
H45 C39 1_555 1_555
H46 C37 1_555 1_555
H47 C47 1_555 1_555
H48 C46 1_555 1_555
H49 C41 1_555 1_555
H50 C50 1_555 1_555
C51 C52 1_555 1_555
C52 C53 1_555 1_555
C53 C54 1_555 1_555
C54 C55 1_555 1_555
C55 N1 1_555 1_555
C56 C53 1_555 1_555
C57 C56 1_555 1_555
C58 C57 1_555 1_555
C59 C58 1_555 1_555
C60 C59 1_555 1_555
C61 C62 1_555 1_555
C62 C58 1_555 1_555
N1 C51 1_555 1_555
N2 C60 1_555 1_555
H51 C61 1_555 1_555
H52 C51 1_555 1_555
H53 C52 1_555 1_555
H54 C57 1_555 1_555
H55 C59 1_555 1_555
H56 C62 1_555 1_555
H57 C60 1_555 1_555
H58 C54 1_555 1_555
H59 C55 1_555 1_555
H60 C56 1_555 1_555
C63 C64 1_555 1_555
C64 C65 1_555 1_555
C65 C66 1_555 1_555
C66 C67 1_555 1_555
C67 N3 1_555 1_555
C68 C65 1_555 1_555
C69 C68 1_555 1_555
C70 C69 1_555 1_555
C71 C70 1_555 1_555
C72 C71 1_555 1_555
C73 C74 1_555 1_555
C74 C70 1_555 1_555
N3 C63 1_555 1_555
N4 C72 1_555 1_555
H61 C72 1_555 1_555
H62 C68 1_555 1_555
H63 C73 1_555 1_555
H64 C71 1_555 1_555
H65 C67 1_555 1_555
H66 C66 1_555 1_555
H67 C64 1_555 1_555
H68 C74 1_555 1_555
H69 C63 1_555 1_555
H70 C69 1_555 1_555
C14 C15 1_555 1_555
C23 C24 1_555 1_555
C28 C29 1_555 1_555
C32 C33 1_555 1_555
C32 C34 1_555 1_555
C49 C50 1_555 1_555
C61 N2 1_555 1_555
C73 N4 1_555 1_555

#END
