
#######################################################################
#
#                 Cambridge Crystallographic Data Centre
#                                CCDC 
#
#######################################################################
#
# If this CIF has been generated from an entry in the Cambridge 
# Structural Database, then it will include bibliographic, chemical, 
# crystal, experimental, refinement or atomic coordinate data resulting 
# from the CCDC's data processing and validation procedures.
#
#######################################################################

data_ENECUX
_chemical_formula_moiety         'C17 H13 F3 O2 S1'
_chemical_name_systematic        
5-(Biphenyl-4-yl)-4-((trifluoromethyl)sulfanyl)dihydrofuran-2(3H)-one
_symmetry_cell_setting           orthorhombic
_symmetry_space_group_name_H-M   'P 21 21 21'
_symmetry_Int_Tables_number      19
_space_group_name_Hall           'P 2ac 2ab'
loop_
_symmetry_equiv_pos_site_id
_symmetry_equiv_pos_as_xyz
1 x,y,z
2 1/2-x,-y,1/2+z
3 -x,1/2+y,1/2-z
4 1/2+x,1/2-y,-z
_cell_length_a                   5.4185(2)
_cell_length_b                   7.7928(3)
_cell_length_c                   34.9038(17)
_cell_angle_alpha                90
_cell_angle_beta                 90
_cell_angle_gamma                90
_cell_volume                     1473.82
_exptl_crystal_colour            colorless
_exptl_crystal_description       needle
_cell_formula_units_Z            4
loop_
_atom_site_label
_atom_site_type_symbol
_atom_site_fract_x
_atom_site_fract_y
_atom_site_fract_z
S1 S -0.55665(13) -0.66731(9) -0.06546(2)
F1 F -0.4944(4) -0.9900(2) -0.06864(5)
C1 C -0.7674(5) -0.3751(3) -0.21046(8)
O1 O -1.0403(4) -0.2859(2) -0.07408(5)
F2 F -0.7863(4) -0.9021(2) -0.10528(5)
C2 C -0.7507(5) -0.3753(3) -0.25323(8)
F3 F -0.8467(4) -0.9180(2) -0.04509(5)
C3 C -0.7247(5) -0.3765(3) -0.33365(9)
H1 H -0.7158 -0.3766 -0.3603
C4 C -0.6798(6) -0.8786(4) -0.07154(8)
O2 O -1.3124(4) -0.3051(3) -0.02622(6)
C5 C -0.5509(6) -0.2919(4) -0.31228(9)
H2 H -0.4233 -0.2340 -0.3246
C6 C -0.9628(5) -0.4528(4) -0.19133(8)
H3 H -1.0856 -0.5067 -0.2055
C7 C -0.8154(5) -0.3748(3) -0.08667(8)
H4 H -0.6703 -0.3171 -0.0759
C8 C -0.5878(5) -0.2967(4) -0.18775(8)
H5 H -0.4539 -0.2436 -0.1995
C9 C -0.8456(5) -0.5517(3) -0.06796(8)
H6 H -0.9621 -0.6190 -0.0833
C10 C -0.9797(5) -0.4521(4) -0.15190(8)
H7 H -1.1137 -0.5047 -0.1401
C11 C -0.7999(5) -0.3741(3) -0.12957(8)
C12 C -0.9122(6) -0.4613(4) -0.31511(8)
H8 H -1.0312 -0.5193 -0.3293
C13 C -0.6045(5) -0.2962(4) -0.14816(8)
H9 H -0.4822 -0.2425 -0.1338
C14 C -0.5625(6) -0.2914(4) -0.27277(8)
H10 H -0.4417 -0.2335 -0.2589
C15 C -0.9255(6) -0.4611(4) -0.27555(8)
H11 H -1.0537 -0.5193 -0.2635
C16 C -0.9682(5) -0.5068(4) -0.03003(8)
H12 H -1.0660 -0.6017 -0.0204
H13 H -0.8473 -0.4741 -0.0109
C17 C -1.1277(5) -0.3579(4) -0.04114(8)
loop_
_geom_bond_atom_site_label_1
_geom_bond_atom_site_label_2
_geom_bond_site_symmetry_1
_geom_bond_site_symmetry_2
S1 C4 1_555 1_555
F1 C4 1_555 1_555
C1 C2 1_555 1_555
O1 C7 1_555 1_555
F2 C4 1_555 1_555
C2 C14 1_555 1_555
F3 C4 1_555 1_555
C3 H1 1_555 1_555
O2 C17 1_555 1_555
C5 C3 1_555 1_555
H2 C5 1_555 1_555
C6 C1 1_555 1_555
H3 C6 1_555 1_555
C7 H4 1_555 1_555
C8 C1 1_555 1_555
H5 C8 1_555 1_555
C9 S1 1_555 1_555
H6 C9 1_555 1_555
C10 C6 1_555 1_555
H7 C10 1_555 1_555
C11 C7 1_555 1_555
C12 C3 1_555 1_555
H8 C12 1_555 1_555
C13 C8 1_555 1_555
H9 C13 1_555 1_555
C14 C5 1_555 1_555
H10 C14 1_555 1_555
C15 C2 1_555 1_555
H11 C15 1_555 1_555
C16 C9 1_555 1_555
H12 C16 1_555 1_555
H13 C16 1_555 1_555
C17 O1 1_555 1_555
C7 C9 1_555 1_555
C10 C11 1_555 1_555
C11 C13 1_555 1_555
C12 C15 1_555 1_555
C16 C17 1_555 1_555

#END
