
#######################################################################
#
#                 Cambridge Crystallographic Data Centre
#                                CCDC 
#
#######################################################################
#
# If this CIF has been generated from an entry in the Cambridge 
# Structural Database, then it will include bibliographic, chemical, 
# crystal, experimental, refinement or atomic coordinate data resulting 
# from the CCDC's data processing and validation procedures.
#
#######################################################################

data_ENEQAR
_chemical_formula_moiety         'C19 H24 N2,0.5(C1 H1 Cl3)'
_chemical_name_systematic        'Ibogamine chloroform solvate'
_symmetry_cell_setting           monoclinic
_symmetry_space_group_name_H-M   'P 21/c'
_symmetry_Int_Tables_number      14
_space_group_name_Hall           '-P 2ybc'
loop_
_symmetry_equiv_pos_site_id
_symmetry_equiv_pos_as_xyz
1 x,y,z
2 -x,1/2+y,1/2-z
3 -x,-y,-z
4 x,1/2-y,1/2+z
_cell_length_a                   13.0230(11)
_cell_length_b                   21.0779(16)
_cell_length_c                   12.8028(9)
_cell_angle_alpha                90
_cell_angle_beta                 90.541(8)
_cell_angle_gamma                90
_cell_volume                     3514.18
_exptl_crystal_colour            'light yellow'
_cell_formula_units_Z            8
_exptl_crystal_recrystallization_method acetone/chloroform
loop_
_atom_site_label
_atom_site_type_symbol
_atom_site_fract_x
_atom_site_fract_y
_atom_site_fract_z
Cl1 Cl 0.13453(13) 0.48946(8) 0.31241(14)
Cl2 Cl 0.24518(15) 0.45005(9) 0.12899(13)
Cl3 Cl 0.33252(18) 0.54136(13) 0.26923(18)
C1 C 0.2167(5) 0.5130(3) 0.2130(5)
H1 H 0.1835 0.5479 0.1719
N1 N 0.0785(3) 0.68554(16) 0.2154(3)
H2 H 0.0975 0.7113 0.2661
N2 N 0.1545(3) 0.73632(16) -0.1142(3)
C2 C 0.1134(3) 0.68756(19) 0.1130(3)
C3 C 0.1859(3) 0.7390(2) 0.0806(3)
H3 H 0.1911 0.7703 0.1391
C4 C 0.0008(3) 0.60676(19) 0.1248(3)
C5 C 0.0670(3) 0.6400(2) 0.0552(3)
C6 C 0.0088(3) 0.63630(19) 0.2240(3)
C7 C 0.1476(4) 0.7744(2) -0.0170(3)
C8 C 0.3320(4) 0.7427(2) -0.0468(3)
C9 C 0.0852(4) 0.6269(2) -0.0581(3)
H4 H 0.0340 0.5954 -0.0827
H5 H 0.1541 0.6076 -0.0655
C10 C -0.1208(4) 0.5349(2) 0.1989(4)
H6 H -0.1644 0.4990 0.1923
C11 C 0.0788(3) 0.6854(2) -0.1284(3)
H7 H 0.0831 0.6707 -0.2016
H8 H 0.0098 0.7043 -0.1196
C12 C -0.1139(4) 0.5664(2) 0.2950(4)
H9 H -0.1548 0.5525 0.3517
C13 C -0.0661(4) 0.5548(2) 0.1145(4)
H10 H -0.0732 0.5336 0.0493
C14 C 0.2961(3) 0.7149(2) 0.0566(3)
H11 H 0.3437 0.7278 0.1134
H12 H 0.2961 0.6680 0.0525
C15 C 0.1990(4) 0.8849(2) 0.0533(4)
H13 H 0.2288 0.8677 0.1189
H14 H 0.2399 0.9226 0.0338
C16 C 0.2104(3) 0.8347(2) -0.0326(3)
H15 H 0.1881 0.8543 -0.1003
C17 C -0.0484(3) 0.61755(19) 0.3087(3)
H16 H -0.0430 0.6389 0.3739
C18 C 0.3244(3) 0.8147(2) -0.0431(4)
H17 H 0.3532 0.8329 -0.1078
H18 H 0.3646 0.8310 0.0170
C19 C 0.2621(3) 0.7171(2) -0.1324(3)
H19 H 0.2848 0.7335 -0.2008
H20 H 0.2668 0.6703 -0.1341
C20 C 0.0895(4) 0.9059(3) 0.0742(4)
H21 H 0.0570 0.9194 0.0085
H22 H 0.0901 0.9413 0.1237
H23 H 0.0507 0.8704 0.1037
H24 H 0.090(3) 0.781(2) -0.009(3)
H25 H 0.400(4) 0.731(2) -0.063(4)
N3 N 0.4213(3) 0.32122(17) 1.1457(3)
H26 H 0.4007 0.2986 1.1993
C21 C 0.3179(3) 0.2609(2) 1.0135(3)
H27 H 0.3134 0.2318 1.0750
N4 N 0.3486(3) 0.25436(17) 0.8211(3)
C22 C 0.3558(3) 0.2213(2) 0.9216(3)
H28 H 0.4291 0.2093 0.9348
C23 C 0.3895(3) 0.3130(2) 1.0432(3)
C24 C 0.6290(4) 0.4666(2) 1.1136(4)
H29 H 0.6773 0.4996 1.1020
C25 C 0.5753(4) 0.44225(19) 1.0307(4)
H30 H 0.5856 0.4583 0.9623
C26 C 0.4909(3) 0.3707(2) 1.1504(3)
C27 C 0.4267(4) 0.3038(2) 0.8013(3)
H31 H 0.4219 0.3155 0.7265
H32 H 0.4952 0.2845 0.8127
C28 C 0.5050(3) 0.39342(18) 1.0478(3)
C29 C 0.4375(3) 0.35684(19) 0.9803(3)
C30 C 0.3041(4) 0.1129(2) 1.0012(4)
H33 H 0.2817 0.1340 1.0662
H34 H 0.2570 0.0768 0.9884
C31 C 0.1782(4) 0.1800(2) 0.8943(4)
H35 H 0.1506 0.1597 0.8302
H36 H 0.1366 0.1656 0.9541
C32 C 0.6147(4) 0.4442(2) 1.2152(4)
H37 H 0.6527 0.4626 1.2712
C33 C 0.2914(4) 0.1599(2) 0.9112(3)
H38 H 0.3139 0.1379 0.8462
C34 C 0.1703(3) 0.2523(2) 0.8841(3)
C35 C 0.2064(3) 0.2830(2) 0.9870(4)
H39 H 0.1597 0.2706 1.0440
H40 H 0.2045 0.3298 0.9802
C36 C 0.2410(3) 0.2740(2) 0.7975(3)
H41 H 0.2184 0.2550 0.7304
H42 H 0.2375 0.3207 0.7907
C37 C 0.4225(4) 0.3646(2) 0.8647(3)
H43 H 0.4760 0.3938 0.8386
H44 H 0.3551 0.3850 0.8521
C38 C 0.5462(4) 0.3958(2) 1.2353(4)
H45 H 0.5369 0.3801 1.3042
C39 C 0.4117(5) 0.0864(3) 1.0196(5)
H46 H 0.4359 0.0660 0.9556
H47 H 0.4100 0.0552 1.0763
H48 H 0.4584 0.1211 1.0388
H49 H 0.098(4) 0.267(2) 0.857(3)
loop_
_geom_bond_atom_site_label_1
_geom_bond_atom_site_label_2
_geom_bond_site_symmetry_1
_geom_bond_site_symmetry_2
Cl1 C1 1_555 1_555
Cl2 C1 1_555 1_555
Cl3 C1 1_555 1_555
C1 H1 1_555 1_555
N1 H2 1_555 1_555
N2 C7 1_555 1_555
C2 N1 1_555 1_555
C3 C2 1_555 1_555
H3 C3 1_555 1_555
C4 C5 1_555 1_555
C5 C2 1_555 1_555
C6 N1 1_555 1_555
C7 C3 1_555 1_555
C8 C14 1_555 1_555
C9 C5 1_555 1_555
H4 C9 1_555 1_555
H5 C9 1_555 1_555
C10 H6 1_555 1_555
C11 N2 1_555 1_555
H7 C11 1_555 1_555
H8 C11 1_555 1_555
C12 C10 1_555 1_555
H9 C12 1_555 1_555
C13 C4 1_555 1_555
H10 C13 1_555 1_555
C14 C3 1_555 1_555
H11 C14 1_555 1_555
H12 C14 1_555 1_555
C15 H13 1_555 1_555
H14 C15 1_555 1_555
C16 C7 1_555 1_555
H15 C16 1_555 1_555
C17 C6 1_555 1_555
H16 C17 1_555 1_555
C18 C8 1_555 1_555
H17 C18 1_555 1_555
H18 C18 1_555 1_555
C19 N2 1_555 1_555
H19 C19 1_555 1_555
H20 C19 1_555 1_555
C20 C15 1_555 1_555
H21 C20 1_555 1_555
H22 C20 1_555 1_555
H23 C20 1_555 1_555
H24 C7 1_555 1_555
H25 C8 1_555 1_555
N3 H26 1_555 1_555
C21 H27 1_555 1_555
N4 C22 1_555 1_555
C22 C21 1_555 1_555
H28 C22 1_555 1_555
C23 N3 1_555 1_555
C24 H29 1_555 1_555
C25 C24 1_555 1_555
H30 C25 1_555 1_555
C26 N3 1_555 1_555
C27 N4 1_555 1_555
H31 C27 1_555 1_555
H32 C27 1_555 1_555
C28 C25 1_555 1_555
C29 C23 1_555 1_555
C30 H33 1_555 1_555
H34 C30 1_555 1_555
C31 H35 1_555 1_555
H36 C31 1_555 1_555
C32 C24 1_555 1_555
H37 C32 1_555 1_555
C33 C22 1_555 1_555
H38 C33 1_555 1_555
C34 C31 1_555 1_555
C35 C21 1_555 1_555
H39 C35 1_555 1_555
H40 C35 1_555 1_555
C36 N4 1_555 1_555
H41 C36 1_555 1_555
H42 C36 1_555 1_555
C37 C27 1_555 1_555
H43 C37 1_555 1_555
H44 C37 1_555 1_555
C38 C26 1_555 1_555
H45 C38 1_555 1_555
C39 C30 1_555 1_555
H46 C39 1_555 1_555
H47 C39 1_555 1_555
H48 C39 1_555 1_555
H49 C34 1_555 1_555
C4 C6 1_555 1_555
C8 C19 1_555 1_555
C9 C11 1_555 1_555
C10 C13 1_555 1_555
C12 C17 1_555 1_555
C15 C16 1_555 1_555
C16 C18 1_555 1_555
C21 C23 1_555 1_555
C26 C28 1_555 1_555
C28 C29 1_555 1_555
C29 C37 1_555 1_555
C30 C33 1_555 1_555
C31 C33 1_555 1_555
C32 C38 1_555 1_555
C34 C35 1_555 1_555
C34 C36 1_555 1_555

#END
