
#######################################################################
#
#                 Cambridge Crystallographic Data Centre
#                                CCDC 
#
#######################################################################
#
# If this CIF has been generated from an entry in the Cambridge 
# Structural Database, then it will include bibliographic, chemical, 
# crystal, experimental, refinement or atomic coordinate data resulting 
# from the CCDC's data processing and validation procedures.
#
#######################################################################

data_ENEWAW
_chemical_formula_moiety         'C27 H41 N1 O3,H2 O1'
_chemical_name_systematic        
"2,2'-(((3-hydroxypropyl)imino)bis(methylene))bis(6-t-butyl-4-methylphenol) monohydrate"
_symmetry_cell_setting           triclinic
_symmetry_space_group_name_H-M   'P -1'
_symmetry_Int_Tables_number      2
_space_group_name_Hall           '-P 1'
loop_
_symmetry_equiv_pos_site_id
_symmetry_equiv_pos_as_xyz
1 x,y,z
2 -x,-y,-z
_cell_length_a                   10.527(2)
_cell_length_b                   11.318(2)
_cell_length_c                   12.379(3)
_cell_angle_alpha                98.61(3)
_cell_angle_beta                 110.32(3)
_cell_angle_gamma                102.46(3)
_cell_volume                     1309.26
_exptl_crystal_colour            white
_exptl_crystal_description       block
_cell_formula_units_Z            2
loop_
_atom_site_label
_atom_site_type_symbol
_atom_site_fract_x
_atom_site_fract_y
_atom_site_fract_z
O4 O -0.0038(7) 1.0650(5) -0.0201(6)
O4A O 0.0038(7) 0.9350(5) 0.0201(6)
O1 O 0.02803(17) 0.94502(16) 0.27464(16)
H1 H -0.0355 0.9170 0.2082
N1 N -0.29927(18) 0.89735(16) 0.21404(17)
O2 O -0.25139(17) 0.79302(16) 0.02564(16)
H2 H -0.2277 0.8260 0.0960
C1 C -0.4612(2) 0.70697(19) 0.0547(2)
C2 C -0.1071(2) 0.86496(19) 0.3832(2)
C3 C 0.0060(2) 0.87024(18) 0.3476(2)
C4 C 0.1010(2) 0.80026(19) 0.3856(2)
C5 C -0.3876(2) 0.71701(19) -0.0190(2)
C6 C -0.6008(2) 0.6323(2) 0.0085(2)
H3 H -0.6503 0.6262 0.0577
C7 C 0.0772(3) 0.7271(2) 0.4615(2)
H4 H 0.1389 0.6802 0.4883
C8 C -0.1234(2) 0.7905(2) 0.4595(2)
H5 H -0.1976 0.7879 0.4844
C9 C -0.3881(2) 0.7676(2) 0.1859(2)
H6 H -0.4592 0.7670 0.2192
H7 H -0.3293 0.7183 0.2239
O3 O -0.10090(19) 1.09650(18) 0.1584(2)
H8 H -0.0645 1.0866 0.1103
C10 C -0.2086(2) 0.9403(2) 0.3415(2)
H9 H -0.2683 0.9364 0.3863
H10 H -0.1549 1.0268 0.3585
C11 C -0.4502(3) 0.6507(2) -0.1396(2)
C12 C -0.0329(3) 0.7199(2) 0.4997(2)
C13 C -0.5894(3) 0.5769(2) -0.1799(2)
H11 H -0.6329 0.5315 -0.2588
C14 C -0.6671(2) 0.5668(2) -0.1098(2)
C15 C -0.3901(3) 0.9787(2) 0.1775(3)
H12 H -0.4418 0.9838 0.2286
H13 H -0.4590 0.9393 0.0971
C16 C 0.2240(2) 0.8040(2) 0.3449(2)
C17 C -0.3676(3) 0.6593(3) -0.2202(3)
C18 C -0.3147(3) 1.1110(2) 0.1807(3)
H14 H -0.3846 1.1559 0.1570
H15 H -0.2504 1.1527 0.2620
C19 C -0.8190(3) 0.4851(3) -0.1584(3)
H16 H -0.8543 0.4900 -0.0965
H17 H -0.8229 0.4002 -0.1869
H18 H -0.8761 0.5135 -0.2225
C20 C 0.3187(3) 0.9373(3) 0.3780(3)
H19 H 0.3557 0.9696 0.4626
H20 H 0.2646 0.9883 0.3394
H21 H 0.3954 0.9380 0.3530
C21 C -0.0530(4) 0.6383(3) 0.5815(3)
H22 H -0.1342 0.6449 0.5979
H23 H 0.0295 0.6648 0.6545
H24 H -0.0669 0.5531 0.5444
C22 C 0.3174(4) 0.7272(4) 0.4037(4)
H25 H 0.3570 0.7597 0.4884
H26 H 0.3923 0.7316 0.3759
H27 H 0.2617 0.6419 0.3841
C23 C -0.2325(3) 1.1197(3) 0.1027(3)
H28 H -0.2866 1.0592 0.0270
H29 H -0.2163 1.2023 0.0878
C24 C 0.1649(4) 0.7512(4) 0.2098(3)
H30 H 0.2418 0.7532 0.1847
H31 H 0.1091 0.8008 0.1707
H32 H 0.1070 0.6667 0.1897
C25 C -0.2317(4) 0.6203(3) -0.1672(3)
H33 H -0.1748 0.6725 -0.0889
H34 H -0.1792 0.6292 -0.2168
H35 H -0.2564 0.5348 -0.1631
C26 C -0.3308(4) 0.7929(3) -0.2347(4)
H36 H -0.4161 0.8160 -0.2676
H37 H -0.2816 0.7974 -0.2871
H38 H -0.2714 0.8489 -0.1586
C27 C -0.4540(4) 0.5735(3) -0.3442(3)
H39 H -0.5395 0.5955 -0.3799
H40 H -0.4772 0.4885 -0.3384
H41 H -0.3997 0.5824 -0.3923
loop_
_geom_bond_atom_site_label_1
_geom_bond_atom_site_label_2
_geom_bond_site_symmetry_1
_geom_bond_site_symmetry_2
O1 H1 1_555 1_555
N1 C9 1_555 1_555
O2 H2 1_555 1_555
C1 C5 1_555 1_555
C2 C3 1_555 1_555
C3 O1 1_555 1_555
C4 C3 1_555 1_555
C5 O2 1_555 1_555
C6 C1 1_555 1_555
H3 C6 1_555 1_555
C7 C4 1_555 1_555
H4 C7 1_555 1_555
C8 C2 1_555 1_555
H5 C8 1_555 1_555
C9 C1 1_555 1_555
H6 C9 1_555 1_555
H7 C9 1_555 1_555
O3 H8 1_555 1_555
C10 N1 1_555 1_555
H9 C10 1_555 1_555
H10 C10 1_555 1_555
C11 C5 1_555 1_555
C12 C7 1_555 1_555
C13 C11 1_555 1_555
H11 C13 1_555 1_555
C14 C6 1_555 1_555
C15 N1 1_555 1_555
H12 C15 1_555 1_555
H13 C15 1_555 1_555
C16 C4 1_555 1_555
C17 C11 1_555 1_555
C18 C15 1_555 1_555
H14 C18 1_555 1_555
H15 C18 1_555 1_555
C19 C14 1_555 1_555
H16 C19 1_555 1_555
H17 C19 1_555 1_555
H18 C19 1_555 1_555
C20 C16 1_555 1_555
H19 C20 1_555 1_555
H20 C20 1_555 1_555
H21 C20 1_555 1_555
C21 C12 1_555 1_555
H22 C21 1_555 1_555
H23 C21 1_555 1_555
H24 C21 1_555 1_555
C22 C16 1_555 1_555
H25 C22 1_555 1_555
H26 C22 1_555 1_555
H27 C22 1_555 1_555
C23 O3 1_555 1_555
H28 C23 1_555 1_555
H29 C23 1_555 1_555
C24 C16 1_555 1_555
H30 C24 1_555 1_555
H31 C24 1_555 1_555
H32 C24 1_555 1_555
C25 C17 1_555 1_555
H33 C25 1_555 1_555
H34 C25 1_555 1_555
H35 C25 1_555 1_555
C26 C17 1_555 1_555
H36 C26 1_555 1_555
H37 C26 1_555 1_555
H38 C26 1_555 1_555
C27 C17 1_555 1_555
H39 C27 1_555 1_555
H40 C27 1_555 1_555
H41 C27 1_555 1_555
O4 O4A 1_555 1_555
C2 C10 1_555 1_555
C8 C12 1_555 1_555
C13 C14 1_555 1_555
C18 C23 1_555 1_555

#END
