
#######################################################################
#
#                 Cambridge Crystallographic Data Centre
#                                CCDC 
#
#######################################################################
#
# If this CIF has been generated from an entry in the Cambridge 
# Structural Database, then it will include bibliographic, chemical, 
# crystal, experimental, refinement or atomic coordinate data resulting 
# from the CCDC's data processing and validation procedures.
#
#######################################################################

data_ENEZAA
_chemical_formula_moiety         'C37 H42 N3 O3 P1'
_chemical_name_systematic        
'benzyl 2-(((1,3-diisopropyl-2-oxido-4,5-diphenyl-1,3,2-diazaphospholidin-2-yl)amino)(phenyl)methyl)acrylate'
_symmetry_cell_setting           orthorhombic
_symmetry_space_group_name_H-M   'P 21 21 21'
_symmetry_Int_Tables_number      19
_space_group_name_Hall           'P 2ac 2ab'
loop_
_symmetry_equiv_pos_site_id
_symmetry_equiv_pos_as_xyz
1 x,y,z
2 1/2-x,-y,1/2+z
3 -x,1/2+y,1/2-z
4 1/2+x,1/2-y,-z
_cell_length_a                   14.6046(11)
_cell_length_b                   18.9580(15)
_cell_length_c                   23.9068(19)
_cell_angle_alpha                90
_cell_angle_beta                 90
_cell_angle_gamma                90
_cell_volume                     6619.17
_cell_formula_units_Z            8
loop_
_atom_site_label
_atom_site_type_symbol
_atom_site_fract_x
_atom_site_fract_y
_atom_site_fract_z
N1 N 0.6808(3) 0.3638(2) 0.28736(19)
N2 N 0.6389(3) 0.2732(3) 0.35248(17)
N3 N 0.6214(3) 0.2392(2) 0.24608(16)
H1 H 0.6469 0.2134 0.2209
O1 O 0.7779(2) 0.24771(18) 0.28438(14)
O2 O 0.3431(4) 0.1323(3) 0.3058(2)
O3 O 0.3639(3) 0.2488(3) 0.3112(2)
P1 P 0.68582(11) 0.27789(9) 0.29040(6)
C1 C 0.6403(4) 0.3403(3) 0.3807(2)
H2 H 0.7003 0.3447 0.3987
C2 C 0.6357(4) 0.3959(3) 0.3351(2)
H3 H 0.5711 0.4024 0.3253
C3 C 0.6923(5) 0.4067(4) 0.2368(2)
H4 H 0.7202 0.4503 0.2507
C4 C 0.6039(5) 0.4307(3) 0.2121(3)
H5 H 0.6154 0.4678 0.1857
H6 H 0.5647 0.4480 0.2413
H7 H 0.5748 0.3919 0.1935
C5 C 0.7595(5) 0.3793(4) 0.1988(3)
H8 H 0.8177 0.3766 0.2174
H9 H 0.7644 0.4099 0.1670
H10 H 0.7415 0.3331 0.1868
C6 C 0.6499(4) 0.2077(3) 0.3840(2)
H11 H 0.6639 0.1710 0.3565
C7 C 0.5650(4) 0.1835(3) 0.4145(2)
H12 H 0.5512 0.2161 0.4440
H13 H 0.5754 0.1375 0.4300
H14 H 0.5146 0.1816 0.3888
C8 C 0.7309(4) 0.2108(3) 0.4231(2)
H15 H 0.7848 0.2237 0.4024
H16 H 0.7399 0.1654 0.4400
H17 H 0.7197 0.2453 0.4517
C9 C 0.5704(5) 0.3517(3) 0.4244(3)
C10 C 0.5928(5) 0.3694(3) 0.4778(3)
H18 H 0.6543 0.3732 0.4875
C11 C 0.5277(7) 0.3816(4) 0.5177(3)
H19 H 0.5453 0.3939 0.5538
C12 C 0.4372(6) 0.3759(4) 0.5048(3)
H20 H 0.3926 0.3840 0.5317
C13 C 0.4134(5) 0.3581(4) 0.4514(3)
H21 H 0.3519 0.3552 0.4417
C14 C 0.4782(5) 0.3446(3) 0.4125(3)
H22 H 0.4604 0.3303 0.3769
C15 C 0.6718(6) 0.4650(4) 0.3531(3)
C16 C 0.7631(6) 0.4718(4) 0.3614(3)
H23 H 0.8027 0.4350 0.3528
C17 C 0.7967(6) 0.5346(5) 0.3830(3)
H24 H 0.8592 0.5399 0.3891
C18 C 0.7404(9) 0.5865(5) 0.3948(3)
H25 H 0.7636 0.6278 0.4104
C19 C 0.6484(8) 0.5813(5) 0.3847(4)
H26 H 0.6092 0.6191 0.3911
C20 C 0.6160(6) 0.5175(5) 0.3645(3)
H27 H 0.5534 0.5117 0.3589
C21 C 0.3872(6) 0.1916(5) 0.2967(3)
C22 C 0.4770(5) 0.1793(4) 0.2670(3)
C23 C 0.5211(4) 0.2452(3) 0.2458(2)
H28 H 0.5047 0.2832 0.2717
C24 C 0.4837(5) 0.2647(4) 0.1897(3)
C25 C 0.4021(5) 0.3022(4) 0.1864(3)
H29 H 0.3715 0.3146 0.2191
C26 C 0.3673(5) 0.3207(4) 0.1372(4)
H30 H 0.3155 0.3493 0.1366
C27 C 0.4029(6) 0.3002(4) 0.0894(3)
H31 H 0.3730 0.3096 0.0558
C28 C 0.4844(6) 0.2651(4) 0.0897(3)
H32 H 0.5138 0.2532 0.0565
C29 C 0.5218(5) 0.2476(3) 0.1408(3)
H33 H 0.5766 0.2226 0.1413
C30 C 0.5079(6) 0.1170(4) 0.2600(3)
H34 H 0.5620 0.1100 0.2403
H35 H 0.4762 0.0786 0.2746
C31 C 0.2613(5) 0.1383(4) 0.3404(3)
H36 H 0.2144 0.1061 0.3271
H37 H 0.2372 0.1859 0.3386
C32 C 0.2865(5) 0.1208(7) 0.3985(4)
C33 C 0.3217(6) 0.1724(5) 0.4313(5)
H38 H 0.3267 0.2182 0.4177
C34 C 0.3494(6) 0.1571(7) 0.4838(5)
H39 H 0.3719 0.1929 0.5065
C35 C 0.3449(7) 0.0918(8) 0.5036(4)
H40 H 0.3684 0.0821 0.5389
C36 C 0.3080(7) 0.0405(6) 0.4742(6)
H41 H 0.3014 -0.0044 0.4894
C37 C 0.2792(6) 0.0545(7) 0.4203(5)
H42 H 0.2547 0.0185 0.3986
N4 N 0.1927(3) 0.5112(3) 0.3290(2)
N5 N 0.1603(3) 0.6036(3) 0.39343(18)
N6 N 0.1479(3) 0.6305(3) 0.28142(17)
H43 H 0.1718 0.6657 0.2640
O4 O 0.2975(2) 0.6278(2) 0.32814(14)
O5 O 0.0196(4) 0.5012(3) 0.1354(3)
O6 O -0.0417(4) 0.4913(3) 0.2184(2)
P2 P 0.20528(12) 0.59760(10) 0.33216(7)
C38 C 0.1198(5) 0.5388(3) 0.4144(2)
H44 H 0.0552 0.5379 0.4034
C39 C 0.1690(4) 0.4813(3) 0.3831(2)
H45 H 0.2260 0.4707 0.4031
C40 C 0.2525(6) 0.4697(5) 0.2935(3)
H46 H 0.2260 0.4225 0.2980
C41 C 0.3462(5) 0.4582(4) 0.3172(3)
H47 H 0.3796 0.4262 0.2936
H48 H 0.3412 0.4385 0.3541
H49 H 0.3781 0.5024 0.3191
C42 C 0.2502(14) 0.4779(17) 0.2369(7)
H50 H 0.2990 0.4513 0.2202
H51 H 0.2575 0.5269 0.2278
H52 H 0.1926 0.4614 0.2228
C43 C 0.1291(5) 0.6690(4) 0.4199(3)
H53 H 0.1471 0.6648 0.4592
C44 C 0.1752(5) 0.7328(3) 0.3994(3)
H54 H 0.2402 0.7253 0.3992
H55 H 0.1608 0.7717 0.4236
H56 H 0.1547 0.7430 0.3622
C45 C 0.0252(5) 0.6772(3) 0.4206(2)
H57 H 0.0038 0.6871 0.3834
H58 H 0.0087 0.7153 0.4450
H59 H -0.0023 0.6343 0.4338
C46 C 0.1249(6) 0.5305(3) 0.4759(3)
C47 C 0.0498(6) 0.5178(3) 0.5067(3)
H60 H -0.0069 0.5164 0.4889
C48 C 0.0536(7) 0.5068(4) 0.5633(4)
H61 H 0.0002 0.5002 0.5839
C49 C 0.1348(9) 0.5059(4) 0.5884(4)
H62 H 0.1373 0.4978 0.6267
C50 C 0.2130(7) 0.5161(4) 0.5606(4)
H63 H 0.2693 0.5151 0.5788
C51 C 0.2066(6) 0.5283(3) 0.5029(3)
H64 H 0.2601 0.5352 0.4824
C52 C 0.1122(5) 0.4148(4) 0.3811(3)
C53 C 0.0331(6) 0.4114(4) 0.3491(3)
H65 H 0.0163 0.4488 0.3262
C54 C -0.0199(5) 0.3517(5) 0.3518(3)
H66 H -0.0727 0.3485 0.3302
C55 C 0.0032(6) 0.2983(4) 0.3850(4)
H67 H -0.0344 0.2588 0.3869
C56 C 0.0804(7) 0.3006(4) 0.4158(3)
H68 H 0.0970 0.2622 0.4378
C57 C 0.1332(5) 0.3585(5) 0.4147(3)
H69 H 0.1850 0.3605 0.4372
C58 C 0.0097(6) 0.5206(5) 0.1877(4)
C59 C 0.0663(5) 0.5810(4) 0.2027(3)
C60 C 0.0586(5) 0.6059(4) 0.2622(3)
H70 H 0.0417 0.5651 0.2851
C61 C -0.0156(5) 0.6589(5) 0.2675(3)
C62 C 0.0011(5) 0.7286(5) 0.2592(3)
H71 H 0.0597 0.7436 0.2496
C63 C -0.0692(7) 0.7777(5) 0.2648(3)
H72 H -0.0567 0.8255 0.2602
C64 C -0.1539(7) 0.7570(6) 0.2767(4)
H73 H -0.2012 0.7898 0.2785
C65 C -0.1708(6) 0.6885(6) 0.2859(3)
H74 H -0.2294 0.6744 0.2961
C66 C -0.1025(6) 0.6387(5) 0.2806(3)
H75 H -0.1158 0.5912 0.2859
C67 C 0.1189(5) 0.6077(4) 0.1657(3)
H76 H 0.1208 0.5886 0.1299
H77 H 0.1555 0.6463 0.1746
C68 C -0.0271(7) 0.4389(5) 0.1163(4)
H78 H -0.0358 0.4069 0.1475
H79 H -0.0870 0.4517 0.1020
C69 C 0.0242(11) 0.4043(9) 0.0733(9)
C70 C 0.0913(15) 0.3534(11) 0.0827(7)
H80 H 0.1045 0.3382 0.1188
C71 C 0.1372(10) 0.3262(8) 0.0377(12)
H81 H 0.1797 0.2904 0.0438
C72 C 0.1238(13) 0.3484(11) -0.0131(10)
H82 H 0.1577 0.3298 -0.0425
C73 C 0.0621(16) 0.3974(11) -0.0227(8)
H83 H 0.0513 0.4123 -0.0591
C74 C 0.0144(9) 0.4261(6) 0.0198(11)
H84 H -0.0269 0.4621 0.0121
H85? H 0.2695 0.5081 0.2681
C75? C 0.2106(15) 0.4290(14) 0.2547(11)
H86? H 0.1568 0.4526 0.2413
H87? H 0.1937 0.3847 0.2712
H88? H 0.2517 0.4209 0.2240
loop_
_geom_bond_atom_site_label_1
_geom_bond_atom_site_label_2
_geom_bond_site_symmetry_1
_geom_bond_site_symmetry_2
N1 P1 1_555 1_555
N2 P1 1_555 1_555
N3 H1 1_555 1_555
O1 P1 1_555 1_555
O2 C21 1_555 1_555
O3 C21 1_555 1_555
P1 N3 1_555 1_555
C1 N2 1_555 1_555
H2 C1 1_555 1_555
C2 N1 1_555 1_555
H3 C2 1_555 1_555
C3 N1 1_555 1_555
H4 C3 1_555 1_555
C4 C3 1_555 1_555
H5 C4 1_555 1_555
H6 C4 1_555 1_555
H7 C4 1_555 1_555
C5 C3 1_555 1_555
H8 C5 1_555 1_555
H9 C5 1_555 1_555
H10 C5 1_555 1_555
C6 N2 1_555 1_555
H11 C6 1_555 1_555
C7 C6 1_555 1_555
H12 C7 1_555 1_555
H13 C7 1_555 1_555
H14 C7 1_555 1_555
C8 C6 1_555 1_555
H15 C8 1_555 1_555
H16 C8 1_555 1_555
H17 C8 1_555 1_555
C9 C1 1_555 1_555
C10 C9 1_555 1_555
H18 C10 1_555 1_555
C11 C10 1_555 1_555
H19 C11 1_555 1_555
C12 C11 1_555 1_555
H20 C12 1_555 1_555
C13 C12 1_555 1_555
H21 C13 1_555 1_555
C14 C9 1_555 1_555
H22 C14 1_555 1_555
C15 C2 1_555 1_555
C16 C15 1_555 1_555
H23 C16 1_555 1_555
C17 C16 1_555 1_555
H24 C17 1_555 1_555
C18 C17 1_555 1_555
H25 C18 1_555 1_555
C19 C18 1_555 1_555
H26 C19 1_555 1_555
C20 C15 1_555 1_555
H27 C20 1_555 1_555
C21 C22 1_555 1_555
C22 C23 1_555 1_555
C23 N3 1_555 1_555
H28 C23 1_555 1_555
C24 C23 1_555 1_555
C25 C24 1_555 1_555
H29 C25 1_555 1_555
C26 C25 1_555 1_555
H30 C26 1_555 1_555
C27 C26 1_555 1_555
H31 C27 1_555 1_555
C28 C27 1_555 1_555
H32 C28 1_555 1_555
C29 C24 1_555 1_555
H33 C29 1_555 1_555
C30 C22 1_555 1_555
H34 C30 1_555 1_555
H35 C30 1_555 1_555
C31 O2 1_555 1_555
H36 C31 1_555 1_555
H37 C31 1_555 1_555
C32 C31 1_555 1_555
C33 C32 1_555 1_555
H38 C33 1_555 1_555
C34 C33 1_555 1_555
H39 C34 1_555 1_555
C35 C34 1_555 1_555
H40 C35 1_555 1_555
C36 C35 1_555 1_555
H41 C36 1_555 1_555
C37 C32 1_555 1_555
H42 C37 1_555 1_555
N4 P2 1_555 1_555
N5 P2 1_555 1_555
N6 H43 1_555 1_555
O4 P2 1_555 1_555
O5 C58 1_555 1_555
O6 C58 1_555 1_555
P2 N6 1_555 1_555
C38 N5 1_555 1_555
H44 C38 1_555 1_555
C39 N4 1_555 1_555
H45 C39 1_555 1_555
C40 N4 1_555 1_555
H46 C40 1_555 1_555
C41 C40 1_555 1_555
H47 C41 1_555 1_555
H48 C41 1_555 1_555
H49 C41 1_555 1_555
C42 C40 1_555 1_555
H50 C42 1_555 1_555
H51 C42 1_555 1_555
H52 C42 1_555 1_555
C43 N5 1_555 1_555
H53 C43 1_555 1_555
C44 C43 1_555 1_555
H54 C44 1_555 1_555
H55 C44 1_555 1_555
H56 C44 1_555 1_555
C45 C43 1_555 1_555
H57 C45 1_555 1_555
H58 C45 1_555 1_555
H59 C45 1_555 1_555
C46 C38 1_555 1_555
C47 C46 1_555 1_555
H60 C47 1_555 1_555
C48 C47 1_555 1_555
H61 C48 1_555 1_555
C49 C48 1_555 1_555
H62 C49 1_555 1_555
C50 C49 1_555 1_555
H63 C50 1_555 1_555
C51 C46 1_555 1_555
H64 C51 1_555 1_555
C52 C39 1_555 1_555
C53 C52 1_555 1_555
H65 C53 1_555 1_555
C54 C53 1_555 1_555
H66 C54 1_555 1_555
C55 C54 1_555 1_555
H67 C55 1_555 1_555
C56 C55 1_555 1_555
H68 C56 1_555 1_555
C57 C52 1_555 1_555
H69 C57 1_555 1_555
C58 C59 1_555 1_555
C59 C60 1_555 1_555
C60 N6 1_555 1_555
H70 C60 1_555 1_555
C61 C60 1_555 1_555
C62 C61 1_555 1_555
H71 C62 1_555 1_555
C63 C62 1_555 1_555
H72 C63 1_555 1_555
C64 C63 1_555 1_555
H73 C64 1_555 1_555
C65 C64 1_555 1_555
H74 C65 1_555 1_555
C66 C61 1_555 1_555
H75 C66 1_555 1_555
C67 C59 1_555 1_555
H76 C67 1_555 1_555
H77 C67 1_555 1_555
C68 O5 1_555 1_555
H78 C68 1_555 1_555
H79 C68 1_555 1_555
C69 C68 1_555 1_555
C70 C69 1_555 1_555
H80 C70 1_555 1_555
C71 C70 1_555 1_555
H81 C71 1_555 1_555
C72 C71 1_555 1_555
H82 C72 1_555 1_555
C73 C72 1_555 1_555
H83 C73 1_555 1_555
C74 C69 1_555 1_555
H84 C74 1_555 1_555
C1 C2 1_555 1_555
C13 C14 1_555 1_555
C19 C20 1_555 1_555
C28 C29 1_555 1_555
C36 C37 1_555 1_555
C38 C39 1_555 1_555
C50 C51 1_555 1_555
C56 C57 1_555 1_555
C65 C66 1_555 1_555
C73 C74 1_555 1_555

#END
