
#######################################################################
#
#                 Cambridge Crystallographic Data Centre
#                                CCDC 
#
#######################################################################
#
# If this CIF has been generated from an entry in the Cambridge 
# Structural Database, then it will include bibliographic, chemical, 
# crystal, experimental, refinement or atomic coordinate data resulting 
# from the CCDC's data processing and validation procedures.
#
#######################################################################

data_ENIDAH
_chemical_formula_moiety         'C7 H10 N2 O2'
_chemical_name_systematic        1,3-Diazaspiro[4.4]nonane-2,4-dione
_symmetry_cell_setting           triclinic
_symmetry_space_group_name_H-M   'P -1'
_symmetry_Int_Tables_number      2
_space_group_name_Hall           '-P 1'
loop_
_symmetry_equiv_pos_site_id
_symmetry_equiv_pos_as_xyz
1 x,y,z
2 -x,-y,-z
_cell_length_a                   6.028(2)
_cell_length_b                   6.086(2)
_cell_length_c                   11.003(4)
_cell_angle_alpha                91.834(4)
_cell_angle_beta                 93.626(4)
_cell_angle_gamma                115.228(4)
_cell_volume                     363.65
_exptl_crystal_colour            colorless
_exptl_crystal_description       needle
_cell_formula_units_Z            2
loop_
_atom_site_label
_atom_site_type_symbol
_atom_site_fract_x
_atom_site_fract_y
_atom_site_fract_z
O1 O 0.51336(17) 0.05765(17) 0.67430(8)
O2 O 0.11006(17) 0.33904(17) 0.40029(8)
C1 C 0.1858(2) 0.3010(2) 0.49973(10)
N1 N 0.1490(2) 0.3651(2) 0.61167(9)
C2 C 0.3903(2) 0.1592(2) 0.63414(10)
N2 N 0.33233(18) 0.17506(18) 0.51422(9)
C3 C 0.1005(3) 0.1335(2) 0.80013(12)
C4 C 0.4604(2) 0.5094(2) 0.79069(11)
C5 C 0.2743(2) 0.2918(2) 0.70866(10)
C6 C 0.2975(3) 0.5618(3) 0.87717(12)
C7 C 0.0913(3) 0.3134(3) 0.89773(15)
H1 H 0.064(4) 0.460(4) 0.6207(17)
H2 H 0.579(4) 0.452(4) 0.8359(17)
H3 H 0.554(4) 0.645(4) 0.7444(18)
H4 H 0.397(4) 0.652(4) 0.9554(19)
H5 H 0.378(4) 0.106(4) 0.4496(19)
H6 H 0.185(4) 0.037(4) 0.8341(19)
H7 H 0.217(4) 0.652(4) 0.834(2)
H8 H -0.060(4) 0.025(4) 0.7608(19)
H9 H 0.111(5) 0.260(5) 0.977(3)
H10 H -0.084(6) 0.311(6) 0.892(3)
loop_
_geom_bond_atom_site_label_1
_geom_bond_atom_site_label_2
_geom_bond_site_symmetry_1
_geom_bond_site_symmetry_2
O1 C2 1_555 1_555
O2 C1 1_555 1_555
C1 N1 1_555 1_555
N1 C5 1_555 1_555
C2 N2 1_555 1_555
N2 C1 1_555 1_555
C3 C5 1_555 1_555
C4 C5 1_555 1_555
C5 C2 1_555 1_555
C6 C4 1_555 1_555
C7 C3 1_555 1_555
H1 N1 1_555 1_555
H2 C4 1_555 1_555
H3 C4 1_555 1_555
H4 C6 1_555 1_555
H5 N2 1_555 1_555
H6 C3 1_555 1_555
H7 C6 1_555 1_555
H8 C3 1_555 1_555
H9 C7 1_555 1_555
H10 C7 1_555 1_555
C6 C7 1_555 1_555

#END
