
#######################################################################
#
#                 Cambridge Crystallographic Data Centre
#                                CCDC 
#
#######################################################################
#
# If this CIF has been generated from an entry in the Cambridge 
# Structural Database, then it will include bibliographic, chemical, 
# crystal, experimental, refinement or atomic coordinate data resulting 
# from the CCDC's data processing and validation procedures.
#
#######################################################################

data_ENIDEL
_chemical_formula_moiety         'C11 H20 N2 O2'
_chemical_name_systematic        5,5-Dibutylimidazolidine-2,4-dione
_symmetry_cell_setting           monoclinic
_symmetry_space_group_name_H-M   'P c'
_symmetry_Int_Tables_number      7
_space_group_name_Hall           'P -2yc'
loop_
_symmetry_equiv_pos_site_id
_symmetry_equiv_pos_as_xyz
1 x,y,z
2 x,-y,1/2+z
_cell_length_a                   9.3072(12)
_cell_length_b                   9.5775(12)
_cell_length_c                   7.5116(9)
_cell_angle_alpha                90
_cell_angle_beta                 113.7350(10)
_cell_angle_gamma                90
_cell_volume                     612.947
_exptl_crystal_colour            colorless
_exptl_crystal_description       needle
_cell_formula_units_Z            2
loop_
_atom_site_label
_atom_site_type_symbol
_atom_site_fract_x
_atom_site_fract_y
_atom_site_fract_z
O1 O 0.1430(3) 0.0080(2) 0.2737(3)
O2 O 0.2365(3) 0.3867(2) 0.6711(3)
C1 C 0.2118(4) 0.2483(2) 0.2242(3)
C2 C 0.1761(3) 0.1280(3) 0.3322(4)
N1 N 0.1886(3) 0.1772(2) 0.5079(3)
H1 H 0.1749 0.1269 0.5947
C3 C 0.2265(3) 0.3196(3) 0.5303(4)
N2 N 0.2451(3) 0.3605(2) 0.3694(3)
H2 H 0.2735 0.4434 0.3532
C4 C 0.3536(4) 0.2151(3) 0.1779(4)
H3 H 0.3240 0.1417 0.0807
H4 H 0.3779 0.2973 0.1199
C5 C 0.5026(4) 0.1695(3) 0.3484(5)
H5 H 0.5362 0.2437 0.4444
H6 H 0.4796 0.0881 0.4091
C6 C 0.6329(5) 0.1355(5) 0.2879(6)
H7 H 0.6562 0.2184 0.2300
H8 H 0.5961 0.0645 0.1875
C7 C 0.7825(4) 0.0851(5) 0.4453(7)
H9 H 0.7712 -0.0110 0.4736
H10 H 0.8056 0.1403 0.5602
H11 H 0.8666 0.0938 0.4029
C8 C 0.0682(4) 0.2814(3) 0.0342(4)
H12 H 0.0971 0.3546 -0.0342
H13 H 0.0431 0.1989 -0.0476
C9 C -0.0785(4) 0.3269(3) 0.0602(5)
H14 H -0.1111 0.2527 0.1236
H15 H -0.0541 0.4082 0.1443
C10 C -0.2120(4) 0.3618(5) -0.1301(5)
H16 H -0.1760 0.4337 -0.1934
H17 H -0.2346 0.2795 -0.2121
C11 C -0.3618(5) 0.4103(5) -0.1237(7)
H18 H -0.3396 0.4762 -0.0197
H19 H -0.4172 0.3319 -0.1025
H20 H -0.4254 0.4542 -0.2450
loop_
_geom_bond_atom_site_label_1
_geom_bond_atom_site_label_2
_geom_bond_site_symmetry_1
_geom_bond_site_symmetry_2
O1 C2 1_555 1_555
O2 C3 1_555 1_555
C1 C2 1_555 1_555
C2 N1 1_555 1_555
N1 H1 1_555 1_555
C3 N1 1_555 1_555
N2 C1 1_555 1_555
H2 N2 1_555 1_555
C4 C1 1_555 1_555
H3 C4 1_555 1_555
H4 C4 1_555 1_555
C5 C4 1_555 1_555
H5 C5 1_555 1_555
H6 C5 1_555 1_555
C6 C5 1_555 1_555
H7 C6 1_555 1_555
H8 C6 1_555 1_555
C7 C6 1_555 1_555
H9 C7 1_555 1_555
H10 C7 1_555 1_555
H11 C7 1_555 1_555
C8 C1 1_555 1_555
H12 C8 1_555 1_555
H13 C8 1_555 1_555
C9 C8 1_555 1_555
H14 C9 1_555 1_555
H15 C9 1_555 1_555
C10 C9 1_555 1_555
H16 C10 1_555 1_555
H17 C10 1_555 1_555
C11 C10 1_555 1_555
H18 C11 1_555 1_555
H19 C11 1_555 1_555
H20 C11 1_555 1_555
C3 N2 1_555 1_555

#END
