
#######################################################################
#
#                 Cambridge Crystallographic Data Centre
#                                CCDC 
#
#######################################################################
#
# If this CIF has been generated from an entry in the Cambridge 
# Structural Database, then it will include bibliographic, chemical, 
# crystal, experimental, refinement or atomic coordinate data resulting 
# from the CCDC's data processing and validation procedures.
#
#######################################################################

data_ENIFUE
_chemical_formula_moiety         'C11 H9 N1 O2'
_chemical_name_systematic        (E)-3-benzylidenepyrrolidine-2,5-dione
_symmetry_cell_setting           triclinic
_symmetry_space_group_name_H-M   'P -1'
_symmetry_Int_Tables_number      2
_space_group_name_Hall           '-P 1'
loop_
_symmetry_equiv_pos_site_id
_symmetry_equiv_pos_as_xyz
1 x,y,z
2 -x,-y,-z
_cell_length_a                   5.0425(2)
_cell_length_b                   9.0386(3)
_cell_length_c                   10.1045(4)
_cell_angle_alpha                91.6608(10)
_cell_angle_beta                 97.6593(10)
_cell_angle_gamma                101.0806(10)
_cell_volume                     447.21
_exptl_crystal_colour            colorless
_exptl_crystal_description       prism
_cell_formula_units_Z            2
loop_
_atom_site_label
_atom_site_type_symbol
_atom_site_fract_x
_atom_site_fract_y
_atom_site_fract_z
C1 C 1.1903(2) 0.09080(11) 0.90788(10)
C2 C 0.9696(2) 0.13733(11) 0.81631(9)
C3 C 0.9183(2) 0.03532(11) 0.69148(10)
H1 H 0.9358 0.0945 0.6111
H2 H 0.7342 -0.0298 0.6813
C4 C 1.1390(2) -0.05791(11) 0.71356(10)
C5 C 0.8686(2) 0.25668(11) 0.85214(10)
H3 H 0.9403 0.3000 0.9394
C6 C 0.6663(2) 0.33106(11) 0.77899(10)
C7 C 0.5253(2) 0.28215(12) 0.65164(10)
H4 H 0.5585 0.1945 0.6077
C8 C 0.3372(2) 0.36079(12) 0.58897(11)
H5 H 0.2418 0.3262 0.5028
C9 C 0.2879(2) 0.48933(13) 0.65142(12)
H6 H 0.1590 0.5426 0.6081
C10 C 0.4267(3) 0.53995(13) 0.77686(12)
H7 H 0.3943 0.6285 0.8196
C11 C 0.6131(2) 0.46118(12) 0.84012(11)
H8 H 0.7064 0.4962 0.9266
N1 N 1.27662(18) -0.02234(10) 0.84148(8)
O1 O 1.28589(15) 0.14120(8) 1.02149(7)
O2 O 1.19282(17) -0.14728(9) 0.63475(8)
H9 H 1.419(3) -0.0655(17) 0.8788(15)
loop_
_geom_bond_atom_site_label_1
_geom_bond_atom_site_label_2
_geom_bond_site_symmetry_1
_geom_bond_site_symmetry_2
C1 C2 1_555 1_555
C2 C3 1_555 1_555
C3 H1 1_555 1_555
H2 C3 1_555 1_555
C4 C3 1_555 1_555
C5 C2 1_555 1_555
H3 C5 1_555 1_555
C6 C5 1_555 1_555
C7 C6 1_555 1_555
H4 C7 1_555 1_555
C8 C7 1_555 1_555
H5 C8 1_555 1_555
C9 C8 1_555 1_555
H6 C9 1_555 1_555
C10 C9 1_555 1_555
H7 C10 1_555 1_555
C11 C6 1_555 1_555
H8 C11 1_555 1_555
N1 C1 1_555 1_555
O1 C1 1_555 1_555
O2 C4 1_555 1_555
H9 N1 1_555 1_555
C4 N1 1_555 1_555
C10 C11 1_555 1_555

#END
