
#######################################################################
#
#                 Cambridge Crystallographic Data Centre
#                                CCDC 
#
#######################################################################
#
# If this CIF has been generated from an entry in the Cambridge 
# Structural Database, then it will include bibliographic, chemical, 
# crystal, experimental, refinement or atomic coordinate data resulting 
# from the CCDC's data processing and validation procedures.
#
#######################################################################

data_ENIGAL
_chemical_formula_moiety         'C12 H11 N1 O2'
_chemical_name_systematic        
(E)-3-benzylidene-1-methylpyrrolidine-2,5-dione
_symmetry_cell_setting           monoclinic
_symmetry_space_group_name_H-M   'P 21/n'
_symmetry_Int_Tables_number      14
_space_group_name_Hall           '-P 2yn'
loop_
_symmetry_equiv_pos_site_id
_symmetry_equiv_pos_as_xyz
1 x,y,z
2 1/2-x,1/2+y,1/2-z
3 -x,-y,-z
4 1/2+x,1/2-y,1/2+z
_cell_length_a                   7.5977(4)
_cell_length_b                   18.2537(9)
_cell_length_c                   8.0187(4)
_cell_angle_alpha                90
_cell_angle_beta                 116.727(1)
_cell_angle_gamma                90
_cell_volume                     993.267
_exptl_crystal_colour            colorless
_exptl_crystal_description       'part of a plate'
_cell_formula_units_Z            4
loop_
_atom_site_label
_atom_site_type_symbol
_atom_site_fract_x
_atom_site_fract_y
_atom_site_fract_z
C1 C 0.50222(17) 1.10435(6) 0.09662(16)
C2 C 0.52368(16) 1.03432(6) 0.19853(15)
C3 C 0.73937(16) 1.01798(7) 0.30244(16)
H1 H 0.7717 0.9714 0.2590
H2 H 0.7818 1.0146 0.4384
C4 C 0.83624(17) 1.08221(7) 0.25761(16)
C5 C 0.7309(2) 1.19886(7) 0.07720(19)
H3 H 0.7210 1.2390 0.1538
H4 H 0.6348 1.2065 -0.0533
H5 H 0.8640 1.1978 0.0867
C6 C 0.36379(16) 1.00024(6) 0.18933(15)
H6 H 0.2422 1.0235 0.1122
C7 C 0.34682(16) 0.93296(6) 0.27917(15)
C8 C 0.50773(17) 0.89385(7) 0.41127(16)
H7 H 0.6379 0.9105 0.4454
C9 C 0.47829(19) 0.83109(7) 0.49242(17)
H8 H 0.5886 0.8054 0.5832
C10 C 0.2892(2) 0.80520(7) 0.44260(18)
H9 H 0.2702 0.7617 0.4976
C11 C 0.12847(19) 0.84332(7) 0.31191(18)
H10 H -0.0013 0.8260 0.2772
C12 C 0.15702(17) 0.90641(7) 0.23218(17)
H11 H 0.0458 0.9324 0.1437
N1 N 0.69048(14) 1.12976(5) 0.14293(13)
O1 O 0.35222(13) 1.13563(5) -0.00940(13)
O2 O 1.01060(14) 1.09208(6) 0.31004(15)
loop_
_geom_bond_atom_site_label_1
_geom_bond_atom_site_label_2
_geom_bond_site_symmetry_1
_geom_bond_site_symmetry_2
C1 C2 1_555 1_555
C2 C3 1_555 1_555
C3 H1 1_555 1_555
H2 C3 1_555 1_555
C4 C3 1_555 1_555
C5 H3 1_555 1_555
H4 C5 1_555 1_555
H5 C5 1_555 1_555
C6 C2 1_555 1_555
H6 C6 1_555 1_555
C7 C6 1_555 1_555
C8 C7 1_555 1_555
H7 C8 1_555 1_555
C9 C8 1_555 1_555
H8 C9 1_555 1_555
C10 C9 1_555 1_555
H9 C10 1_555 1_555
C11 C10 1_555 1_555
H10 C11 1_555 1_555
C12 C7 1_555 1_555
H11 C12 1_555 1_555
N1 C1 1_555 1_555
O1 C1 1_555 1_555
O2 C4 1_555 1_555
C4 N1 1_555 1_555
C5 N1 1_555 1_555
C11 C12 1_555 1_555

#END
