
#######################################################################
#
#                 Cambridge Crystallographic Data Centre
#                                CCDC 
#
#######################################################################
#
# If this CIF has been generated from an entry in the Cambridge 
# Structural Database, then it will include bibliographic, chemical, 
# crystal, experimental, refinement or atomic coordinate data resulting 
# from the CCDC's data processing and validation procedures.
#
#######################################################################

data_ENIHUF
_chemical_formula_moiety         'C26 H18 O3'
_chemical_name_systematic        
11-Methyl-8-methylene-12b-phenyl-8a,12b-dihydro-5H-indeno[2',1':2,3]indeno[2,1-b]furan-5,7(8H)-dione
_symmetry_cell_setting           monoclinic
_symmetry_space_group_name_H-M   'P 21/n'
_symmetry_Int_Tables_number      14
_space_group_name_Hall           '-P 2yn'
loop_
_symmetry_equiv_pos_site_id
_symmetry_equiv_pos_as_xyz
1 x,y,z
2 1/2-x,1/2+y,1/2-z
3 -x,-y,-z
4 1/2+x,1/2-y,1/2+z
_cell_length_a                   9.1254(2)
_cell_length_b                   21.5910(5)
_cell_length_c                   10.0847(3)
_cell_angle_alpha                90
_cell_angle_beta                 105.9510(10)
_cell_angle_gamma                90
_cell_volume                     1910.45
_exptl_crystal_colour            colorless
_exptl_crystal_description       block
_cell_formula_units_Z            4
loop_
_atom_site_label
_atom_site_type_symbol
_atom_site_fract_x
_atom_site_fract_y
_atom_site_fract_z
O1 O 0.01007(14) 0.20428(6) 0.91807(13)
O2 O 0.04304(11) 0.14172(5) 0.68207(11)
O3 O -0.08763(13) 0.18417(5) 0.48280(12)
C1 C 0.34472(17) 0.11600(7) 0.99839(15)
C2 C 0.47592(18) 0.09441(7) 1.09209(17)
H1 H 0.5401 0.0667 1.0648
C3 C 0.5094(2) 0.11500(8) 1.22713(18)
H2 H 0.5964 0.1004 1.2912
C4 C 0.4157(2) 0.15712(9) 1.26886(18)
H3 H 0.4404 0.1702 1.3602
C5 C 0.2868(2) 0.17957(8) 1.17617(17)
H4 H 0.2243 0.2080 1.2034
C6 C 0.25216(18) 0.15865(7) 1.04053(16)
C7 C 0.12699(18) 0.17725(7) 0.92089(16)
C8 C 0.17363(16) 0.15520(7) 0.79448(15)
C9 C 0.02346(17) 0.18490(7) 0.57976(16)
C10 C 0.15658(17) 0.22703(7) 0.61045(16)
C11 C 0.1680(2) 0.27411(8) 0.5303(2)
H5 H 0.0903 0.2820 0.4506
H6 H 0.2537 0.2994 0.5536
C12 C 0.26810(17) 0.20431(7) 0.73983(15)
H7 H 0.3038 0.2379 0.8064
C13 C 0.39921(16) 0.16699(7) 0.71639(15)
C14 C 0.50535(17) 0.18519(8) 0.64850(16)
H8 H 0.5017 0.2247 0.6112
C15 C 0.61682(18) 0.14362(8) 0.63708(17)
H9 H 0.6892 0.1559 0.5931
C16 C 0.62303(17) 0.08373(8) 0.69004(17)
C17 C 0.7408(2) 0.03802(10) 0.6713(2)
H10 H 0.8054 0.0576 0.6229
H11 H 0.6907 0.0031 0.6192
H12 H 0.8014 0.0243 0.7600
C18 C 0.51563(17) 0.06629(7) 0.75811(16)
H13 H 0.5181 0.0266 0.7947
C19 C 0.40537(16) 0.10801(7) 0.77127(15)
C20 C 0.28388(16) 0.09903(7) 0.84604(15)
C21 C 0.20617(16) 0.03592(6) 0.82299(16)
C22 C 0.16654(18) 0.01010(7) 0.69128(17)
H14 H 0.1873 0.0317 0.6188
C23 C 0.09678(19) -0.04725(8) 0.6668(2)
H15 H 0.0701 -0.0637 0.5781
C24 C 0.0665(2) -0.08025(8) 0.7738(2)
H16 H 0.0208 -0.1190 0.7575
C25 C 0.1045(2) -0.05542(8) 0.9046(2)
H17 H 0.0841 -0.0775 0.9768
C26 C 0.17326(18) 0.00266(7) 0.92912(17)
H18 H 0.1974 0.0193 1.0175
loop_
_geom_bond_atom_site_label_1
_geom_bond_atom_site_label_2
_geom_bond_site_symmetry_1
_geom_bond_site_symmetry_2
O1 C7 1_555 1_555
O2 C8 1_555 1_555
O3 C9 1_555 1_555
C1 C2 1_555 1_555
C2 H1 1_555 1_555
C3 C2 1_555 1_555
H2 C3 1_555 1_555
C4 C3 1_555 1_555
H3 C4 1_555 1_555
C5 C4 1_555 1_555
H4 C5 1_555 1_555
C6 C1 1_555 1_555
C7 C6 1_555 1_555
C8 C7 1_555 1_555
C9 O2 1_555 1_555
C10 C9 1_555 1_555
C11 C10 1_555 1_555
H5 C11 1_555 1_555
H6 C11 1_555 1_555
C12 C8 1_555 1_555
H7 C12 1_555 1_555
C13 C12 1_555 1_555
C14 C13 1_555 1_555
H8 C14 1_555 1_555
C15 C14 1_555 1_555
H9 C15 1_555 1_555
C16 C15 1_555 1_555
C17 C16 1_555 1_555
H10 C17 1_555 1_555
H11 C17 1_555 1_555
H12 C17 1_555 1_555
C18 C16 1_555 1_555
H13 C18 1_555 1_555
C19 C13 1_555 1_555
C20 C1 1_555 1_555
C21 C20 1_555 1_555
C22 C21 1_555 1_555
H14 C22 1_555 1_555
C23 C22 1_555 1_555
H15 C23 1_555 1_555
C24 C23 1_555 1_555
H16 C24 1_555 1_555
C25 C24 1_555 1_555
H17 C25 1_555 1_555
C26 C21 1_555 1_555
H18 C26 1_555 1_555
C5 C6 1_555 1_555
C8 C20 1_555 1_555
C10 C12 1_555 1_555
C18 C19 1_555 1_555
C19 C20 1_555 1_555
C25 C26 1_555 1_555

#END
