
#######################################################################
#
#                 Cambridge Crystallographic Data Centre
#                                CCDC 
#
#######################################################################
#
# If this CIF has been generated from an entry in the Cambridge 
# Structural Database, then it will include bibliographic, chemical, 
# crystal, experimental, refinement or atomic coordinate data resulting 
# from the CCDC's data processing and validation procedures.
#
#######################################################################

data_ENIHAL
_chemical_formula_moiety         'C22 H19 N3 O4'
_chemical_name_systematic        
'Dimethyl 2-amino-1-cyano-10-methyl-6,11-dihydro-5H-benzo[a]carbazole-3,4-dicarboxylate'
_symmetry_cell_setting           triclinic
_symmetry_space_group_name_H-M   'P -1'
_symmetry_Int_Tables_number      2
_space_group_name_Hall           '-P 1'
loop_
_symmetry_equiv_pos_site_id
_symmetry_equiv_pos_as_xyz
1 x,y,z
2 -x,-y,-z
_cell_length_a                   8.3980(9)
_cell_length_b                   8.7590(10)
_cell_length_c                   13.5703(15)
_cell_angle_alpha                107.0236(14)
_cell_angle_beta                 99.9571(14)
_cell_angle_gamma                98.2135(15)
_cell_volume                     920.038
_exptl_crystal_colour            red
_exptl_crystal_description       block
_cell_formula_units_Z            2
loop_
_atom_site_label
_atom_site_type_symbol
_atom_site_fract_x
_atom_site_fract_y
_atom_site_fract_z
C1 C 0.42057(15) 1.01550(15) -0.31718(9)
H1 H 0.4987 1.0066 -0.3635
H2 H 0.4590 1.1175 -0.2576
H3 H 0.3115 1.0151 -0.3572
C2 C 0.40907(12) 0.87360(13) -0.27615(8)
C3 C 0.29019(13) 0.73166(14) -0.32741(8)
H4 H 0.2166 0.7237 -0.3912
C4 C 0.27427(13) 0.59911(13) -0.28868(8)
H5 H 0.1925 0.5035 -0.3276
C5 C 0.37521(12) 0.60532(12) -0.19516(8)
H6 H 0.3635 0.5160 -0.1689
C6 C 0.49603(11) 0.74814(11) -0.14000(7)
C7 C 0.51349(11) 0.87761(11) -0.18230(7)
C8 C 0.70324(11) 0.95226(11) -0.02972(7)
C9 C 0.61605(11) 0.79874(11) -0.04254(7)
C10 C 0.64382(11) 0.71918(11) 0.04019(7)
H7 H 0.6183 0.5992 0.0066
H8 H 0.5696 0.7480 0.0890
C11 C 0.82378(12) 0.77592(11) 0.10211(8)
H9 H 0.8333 0.7479 0.1682
H10 H 0.8929 0.7148 0.0596
C12 C 0.89198(11) 0.95714(11) 0.13049(7)
C13 C 1.01915(11) 1.03964(11) 0.21890(7)
C14 C 1.09456(11) 1.20566(11) 0.24505(7)
C15 C 1.04048(12) 1.29199(11) 0.17630(7)
C16 C 0.90864(11) 1.20765(11) 0.08661(7)
C17 C 0.83491(11) 1.04291(11) 0.06214(7)
C18 C 1.08420(12) 0.93401(11) 0.27986(7)
C19 C 1.06324(15) 0.82245(14) 0.41530(9)
H11 H 1.0519 0.7118 0.3668
H12 H 0.9976 0.8191 0.4680
H13 H 1.1796 0.8673 0.4512
C20 C 1.22575(12) 1.29336(12) 0.34124(8)
C21 C 1.39457(14) 1.28065(14) 0.49538(8)
H14 H 1.4967 1.3155 0.4751
H15 H 1.4123 1.2045 0.5347
H16 H 1.3629 1.3761 0.5401
C22 C 0.85022(12) 1.30197(11) 0.02342(7)
N1 N 0.63922(10) 1.00192(10) -0.11398(6)
H17 H 0.6895(17) 1.0776(16) -0.1338(11)
N2 N 0.80954(11) 1.38262(10) -0.02597(7)
N3 N 1.10555(12) 1.45149(10) 0.19428(7)
H18 H 1.091(2) 1.493(2) 0.1401(12)
H19 H 1.1968(18) 1.494(2) 0.2454(12)
O1 O 1.29380(12) 1.43583(10) 0.36700(7)
O2 O 1.26412(10) 1.20056(9) 0.40118(6)
O3 O 1.00501(9) 0.92473(9) 0.35608(6)
O4 O 1.18832(9) 0.85712(9) 0.25676(6)
loop_
_geom_bond_atom_site_label_1
_geom_bond_atom_site_label_2
_geom_bond_site_symmetry_1
_geom_bond_site_symmetry_2
C1 H1 1_555 1_555
H2 C1 1_555 1_555
H3 C1 1_555 1_555
C2 C1 1_555 1_555
C3 C2 1_555 1_555
H4 C3 1_555 1_555
C4 C3 1_555 1_555
H5 C4 1_555 1_555
C5 C4 1_555 1_555
H6 C5 1_555 1_555
C6 C5 1_555 1_555
C7 C2 1_555 1_555
C8 C9 1_555 1_555
C9 C6 1_555 1_555
C10 C9 1_555 1_555
H7 C10 1_555 1_555
H8 C10 1_555 1_555
C11 C10 1_555 1_555
H9 C11 1_555 1_555
H10 C11 1_555 1_555
C12 C11 1_555 1_555
C13 C12 1_555 1_555
C14 C13 1_555 1_555
C15 C14 1_555 1_555
C16 C15 1_555 1_555
C17 C8 1_555 1_555
C18 C13 1_555 1_555
C19 H11 1_555 1_555
H12 C19 1_555 1_555
H13 C19 1_555 1_555
C20 C14 1_555 1_555
C21 H14 1_555 1_555
H15 C21 1_555 1_555
H16 C21 1_555 1_555
C22 C16 1_555 1_555
N1 C7 1_555 1_555
H17 N1 1_555 1_555
N2 C22 1_555 1_555
N3 C15 1_555 1_555
H18 N3 1_555 1_555
H19 N3 1_555 1_555
O1 C20 1_555 1_555
O2 C20 1_555 1_555
O3 C18 1_555 1_555
O4 C18 1_555 1_555
C6 C7 1_555 1_555
C8 N1 1_555 1_555
C12 C17 1_555 1_555
C16 C17 1_555 1_555
C19 O3 1_555 1_555
C21 O2 1_555 1_555

#END
