
#######################################################################
#
#                 Cambridge Crystallographic Data Centre
#                                CCDC 
#
#######################################################################
#
# If this CIF has been generated from an entry in the Cambridge 
# Structural Database, then it will include bibliographic, chemical, 
# crystal, experimental, refinement or atomic coordinate data resulting 
# from the CCDC's data processing and validation procedures.
#
#######################################################################

data_ENIKOC
_chemical_formula_moiety         'C11 H11 N5'
_chemical_name_systematic        
4-Amino-2,2,6-trimethylpyridine-3,3,5(2H)-tricarbonitrile
_symmetry_cell_setting           monoclinic
_symmetry_space_group_name_H-M   'P 21/n'
_symmetry_Int_Tables_number      14
_space_group_name_Hall           '-P 2yn'
loop_
_symmetry_equiv_pos_site_id
_symmetry_equiv_pos_as_xyz
1 x,y,z
2 1/2-x,1/2+y,1/2-z
3 -x,-y,-z
4 1/2+x,1/2-y,1/2+z
_cell_length_a                   7.3190(10)
_cell_length_b                   10.9610(10)
_cell_length_c                   14.646(2)
_cell_angle_alpha                90
_cell_angle_beta                 99.220(10)
_cell_angle_gamma                90
_cell_volume                     1159.77
_cell_formula_units_Z            4
loop_
_atom_site_label
_atom_site_type_symbol
_atom_site_fract_x
_atom_site_fract_y
_atom_site_fract_z
C1 C 0.7325(4) 0.1674(3) 0.6317(2)
C2 C 0.6348(4) 0.2134(3) 0.7835(2)
C3 C 0.7980(4) 0.1465(3) 0.8283(2)
C4 C 0.9435(4) 0.1201(3) 0.7845(2)
C5 C 0.9356(4) 0.1726(3) 0.6866(2)
C6 C 0.5016(5) 0.2570(4) 0.8416(3)
H1 H 0.4014 0.2984 0.8036
H2 H 0.5625 0.3123 0.8875
H3 H 0.4539 0.1888 0.8716
C7 C 0.8038(4) 0.1057(3) 0.9213(2)
C8 C 1.0005(5) 0.3019(4) 0.6973(2)
C9 C 1.0648(5) 0.1087(3) 0.6354(2)
C10 C 0.6760(5) 0.0340(3) 0.6170(2)
H4 H 0.68 -0.0052 0.6759
H5 H 0.7598 -0.0063 0.5827
H6 H 0.5525 0.0295 0.5831
C11 C 0.7248(6) 0.2298(4) 0.5377(2)
H7 H 0.7596 0.3139 0.5468
H8 H 0.6013 0.2247 0.5039
H9 H 0.8088 0.1898 0.5034
N1 N 0.6084(5) 0.2309(4) 0.6906(2)
N2 N 0.8075(5) 0.0731(3) 0.9958(2)
N3 N 1.0952(4) 0.0565(3) 0.81950(18)
H10 H 1.1067 0.028 0.8748
H11 H 1.1808 0.0442 0.7866
N4 N 1.0551(5) 0.3990(3) 0.7052(2)
N5 N 1.1625(5) 0.0598(3) 0.5955(2)
loop_
_geom_bond_atom_site_label_1
_geom_bond_atom_site_label_2
_geom_bond_site_symmetry_1
_geom_bond_site_symmetry_2
C1 C5 1_555 1_555
C2 C3 1_555 1_555
C3 C4 1_555 1_555
C4 C5 1_555 1_555
C5 C8 1_555 1_555
C6 C2 1_555 1_555
H1 C6 1_555 1_555
H2 C6 1_555 1_555
H3 C6 1_555 1_555
C7 C3 1_555 1_555
C8 N4 1_555 1_555
C9 C5 1_555 1_555
C10 C1 1_555 1_555
H4 C10 1_555 1_555
H5 C10 1_555 1_555
H6 C10 1_555 1_555
C11 C1 1_555 1_555
H7 C11 1_555 1_555
H8 C11 1_555 1_555
H9 C11 1_555 1_555
N1 C1 1_555 1_555
N2 C7 1_555 1_555
N3 C4 1_555 1_555
H10 N3 1_555 1_555
H11 N3 1_555 1_555
N5 C9 1_555 1_555
C2 N1 1_555 1_555

#END
