
#######################################################################
#
#                 Cambridge Crystallographic Data Centre
#                                CCDC 
#
#######################################################################
#
# If this CIF has been generated from an entry in the Cambridge 
# Structural Database, then it will include bibliographic, chemical, 
# crystal, experimental, refinement or atomic coordinate data resulting 
# from the CCDC's data processing and validation procedures.
#
#######################################################################

data_ENIRIC
_chemical_formula_moiety         'C16 H12 N2 O3'
_chemical_name_systematic        
5-(2-Acetyloxyphenyl)-3-phenyl-1,2,4-oxadiazole
_symmetry_cell_setting           monoclinic
_symmetry_space_group_name_H-M   'P 21/n'
_symmetry_Int_Tables_number      14
_space_group_name_Hall           '-P 2yn'
loop_
_symmetry_equiv_pos_site_id
_symmetry_equiv_pos_as_xyz
1 x,y,z
2 1/2+x,1/2-y,1/2+z
3 -x,-y,-z
4 1/2-x,1/2+y,1/2-z
_cell_length_a                   14.5489(8)
_cell_length_b                   5.4293(3)
_cell_length_c                   17.2806(13)
_cell_angle_alpha                90
_cell_angle_beta                 105.955(2)
_cell_angle_gamma                90
_cell_volume                     1312.42
_exptl_crystal_colour            colorless
_exptl_crystal_description       plate
_cell_formula_units_Z            4
loop_
_atom_site_label
_atom_site_type_symbol
_atom_site_fract_x
_atom_site_fract_y
_atom_site_fract_z
O1 O 0.36315(9) 0.1997(3) 0.47966(8)
O2 O 0.40604(9) 0.8256(2) 0.63287(8)
O3 O 0.32320(10) 0.5874(3) 0.69702(8)
N1 N 0.26830(12) 0.1909(3) 0.42934(10)
N2 N 0.28702(12) 0.5148(3) 0.51459(10)
C1 C 0.22805(14) 0.3803(4) 0.45294(12)
C2 C 0.12611(14) 0.4404(4) 0.41766(12)
C3 C 0.08606(15) 0.6498(4) 0.44173(14)
C4 C -0.01027(16) 0.6980(4) 0.41092(14)
C5 C -0.06761(16) 0.5400(4) 0.35593(13)
C6 C -0.02829(15) 0.3340(4) 0.33032(13)
C7 C 0.06807(6) 0.28393(16) 0.36106(6)
C8 C 0.36779(6) 0.39670(16) 0.52839(6)
C9 C 0.45964(6) 0.44165(16) 0.58771(6)
C10 C 0.47561(6) 0.64254(16) 0.63986(6)
C11 C 0.56304(6) 0.68026(16) 0.69527(6)
C12 C 0.63707(16) 0.5166(4) 0.69884(13)
C13 C 0.62340(15) 0.3155(4) 0.64745(13)
C14 C 0.53525(14) 0.2775(4) 0.59298(12)
C15 C 0.32925(15) 0.7744(4) 0.66144(12)
C16 C 0.25979(15) 0.9807(4) 0.64235(13)
H1 H 0.1252 0.7598 0.4795
H2 H -0.0372 0.8410 0.4277
H3 H -0.1341 0.5724 0.3356
H4 H -0.0675 0.2269 0.2916
H5 H 0.0948 0.1420 0.3435
H6 H 0.5723 0.8175 0.7307
H7 H 0.6975 0.5422 0.7366
H8 H 0.6745 0.2043 0.6497
H9 H 0.5258 0.1377 0.5586
H10 H 0.2064 0.9463 0.6651
H11 H 0.2356 0.9984 0.5838
H12 H 0.2915 1.1336 0.6655
loop_
_geom_bond_atom_site_label_1
_geom_bond_atom_site_label_2
_geom_bond_site_symmetry_1
_geom_bond_site_symmetry_2
O1 N1 1_555 1_555
O2 C10 1_555 1_555
O3 C15 1_555 1_555
N1 C1 1_555 1_555
N2 C1 1_555 1_555
C1 C2 1_555 1_555
C2 C3 1_555 1_555
C3 C4 1_555 1_555
C4 C5 1_555 1_555
C5 C6 1_555 1_555
C6 C7 1_555 1_555
C7 C2 1_555 1_555
C8 O1 1_555 1_555
C9 C8 1_555 1_555
C10 C9 1_555 1_555
C11 C10 1_555 1_555
C12 C11 1_555 1_555
C13 C12 1_555 1_555
C14 C9 1_555 1_555
C15 O2 1_555 1_555
C16 C15 1_555 1_555
H1 C3 1_555 1_555
H2 C4 1_555 1_555
H3 C5 1_555 1_555
H4 C6 1_555 1_555
H5 C7 1_555 1_555
H6 C11 1_555 1_555
H7 C12 1_555 1_555
H8 C13 1_555 1_555
H9 C14 1_555 1_555
H10 C16 1_555 1_555
H11 C16 1_555 1_555
H12 C16 1_555 1_555
N2 C8 1_555 1_555
C13 C14 1_555 1_555

#END
