
#######################################################################
#
#                 Cambridge Crystallographic Data Centre
#                                CCDC 
#
#######################################################################
#
# If this CIF has been generated from an entry in the Cambridge 
# Structural Database, then it will include bibliographic, chemical, 
# crystal, experimental, refinement or atomic coordinate data resulting 
# from the CCDC's data processing and validation procedures.
#
#######################################################################

data_ENIRUO
_chemical_formula_moiety         'C22 H17 Cl2 N1 O3'
_chemical_name_systematic        
'Ethyl 2-amino-4-(2,4-dichlorophenyl)-4H-benzo(f)chromene-3-carboxylate'
_symmetry_cell_setting           monoclinic
_symmetry_space_group_name_H-M   'P 21/n'
_symmetry_Int_Tables_number      14
_space_group_name_Hall           '-P 2yn'
loop_
_symmetry_equiv_pos_site_id
_symmetry_equiv_pos_as_xyz
1 x,y,z
2 1/2+x,1/2-y,1/2+z
3 -x,-y,-z
4 1/2-x,1/2+y,1/2-z
_cell_length_a                   14.505(2)
_cell_length_b                   9.0370(10)
_cell_length_c                   14.913(2)
_cell_angle_alpha                90
_cell_angle_beta                 101.210(10)
_cell_angle_gamma                90
_cell_volume                     1917.53
_exptl_crystal_colour            colorless
_exptl_crystal_description       block
_chemical_melting_point          '468-473 K'
_cell_formula_units_Z            4
_exptl_crystal_recrystallization_method dimethylformamide/water
loop_
_atom_site_label
_atom_site_type_symbol
_atom_site_fract_x
_atom_site_fract_y
_atom_site_fract_z
Cl1 Cl 0.27601(4) 0.20229(9) 0.73019(5)
Cl2 Cl 0.33548(6) -0.14702(11) 1.02538(6)
O1 O 0.64487(11) -0.0676(2) 0.68554(12)
O2 O 0.48020(13) 0.3596(2) 0.73399(17)
O3 O 0.63744(12) 0.3694(2) 0.77851(13)
N1 N 0.73094(15) 0.1149(3) 0.75533(17)
C1 C 0.64353(16) 0.0722(3) 0.71910(16)
C2 C 0.56205(15) 0.1485(3) 0.71608(16)
C3 C 0.46768(15) 0.0718(3) 0.68748(16)
H1 H 0.4230 0.1422 0.6530
C4 C 0.47798(16) -0.0580(3) 0.62602(16)
C5 C 0.56438(17) -0.1187(3) 0.62734(17)
C6 C 0.5804(2) -0.2364(3) 0.57188(19)
H2 H 0.6409 -0.2722 0.5744
C7 C 0.5066(2) -0.2978(3) 0.5144(2)
H3 H 0.5171 -0.3755 0.4767
C8 C 0.4145(2) -0.2461(3) 0.51043(17)
C9 C 0.3371(3) -0.3114(4) 0.4523(2)
H4 H 0.3467 -0.3936 0.4177
C10 C 0.2493(3) -0.2571(5) 0.4458(2)
H5 H 0.1989 -0.3025 0.4077
C11 C 0.2347(2) -0.1333(4) 0.4961(2)
H6 H 0.1744 -0.0944 0.4896
C12 C 0.30750(19) -0.0667(4) 0.55543(19)
H7 H 0.2958 0.0150 0.5894
C13 C 0.39960(18) -0.1224(3) 0.56469(17)
C14 C 0.56613(18) 0.2983(3) 0.74640(18)
C15 C 0.4700(2) 0.5032(4) 0.7747(3)
H8 H 0.4170 0.5558 0.7392
H9 H 0.5262 0.5620 0.7760
C16 C 0.4551(4) 0.4784(5) 0.8672(4)
H10 H 0.4047 0.4090 0.8659
H11 H 0.4392 0.5703 0.8927
H12 H 0.5115 0.4395 0.9042
C17 C 0.43043(15) 0.0218(3) 0.77191(16)
C18 C 0.34755(16) 0.0723(3) 0.79615(17)
C19 C 0.31869(18) 0.0218(3) 0.87436(18)
H13 H 0.2631 0.0564 0.8891
C20 C 0.37229(19) -0.0785(3) 0.92902(18)
C21 C 0.45559(19) -0.1282(3) 0.90977(18)
H14 H 0.4931 -0.1939 0.9489
C22 C 0.48283(17) -0.0789(3) 0.83091(18)
H15 H 0.5385 -0.1148 0.8170
H16 H 0.7381(19) 0.2053(15) 0.7733(18)
H17 H 0.7763(13) 0.063(3) 0.7440(18)
loop_
_geom_bond_atom_site_label_1
_geom_bond_atom_site_label_2
_geom_bond_site_symmetry_1
_geom_bond_site_symmetry_2
Cl1 C18 1_555 1_555
Cl2 C20 1_555 1_555
O1 C1 1_555 1_555
O2 C14 1_555 1_555
O3 C14 1_555 1_555
N1 C1 1_555 1_555
C1 C2 1_555 1_555
C2 C3 1_555 1_555
C3 H1 1_555 1_555
C4 C3 1_555 1_555
C5 O1 1_555 1_555
C6 C5 1_555 1_555
H2 C6 1_555 1_555
C7 C6 1_555 1_555
H3 C7 1_555 1_555
C8 C7 1_555 1_555
C9 C8 1_555 1_555
H4 C9 1_555 1_555
C10 C9 1_555 1_555
H5 C10 1_555 1_555
C11 C10 1_555 1_555
H6 C11 1_555 1_555
C12 C11 1_555 1_555
H7 C12 1_555 1_555
C13 C4 1_555 1_555
C14 C2 1_555 1_555
C15 O2 1_555 1_555
H8 C15 1_555 1_555
H9 C15 1_555 1_555
C16 C15 1_555 1_555
H10 C16 1_555 1_555
H11 C16 1_555 1_555
H12 C16 1_555 1_555
C17 C3 1_555 1_555
C18 C17 1_555 1_555
C19 C18 1_555 1_555
H13 C19 1_555 1_555
C20 C19 1_555 1_555
C21 C20 1_555 1_555
H14 C21 1_555 1_555
C22 C17 1_555 1_555
H15 C22 1_555 1_555
H16 N1 1_555 1_555
H17 N1 1_555 1_555
C4 C5 1_555 1_555
C8 C13 1_555 1_555
C12 C13 1_555 1_555
C21 C22 1_555 1_555

#END
