
#######################################################################
#
#                 Cambridge Crystallographic Data Centre
#                                CCDC 
#
#######################################################################
#
# If this CIF has been generated from an entry in the Cambridge 
# Structural Database, then it will include bibliographic, chemical, 
# crystal, experimental, refinement or atomic coordinate data resulting 
# from the CCDC's data processing and validation procedures.
#
#######################################################################

data_ENISEZ
_chemical_formula_moiety         'C19 H24 O4 S2'
_chemical_name_systematic        1,5-bis(Benzylsulfonyl)pentane
_symmetry_cell_setting           monoclinic
_symmetry_space_group_name_H-M   'C 2/c'
_symmetry_Int_Tables_number      15
_space_group_name_Hall           '-C 2yn'
loop_
_symmetry_equiv_pos_site_id
_symmetry_equiv_pos_as_xyz
1 x,y,z
2 1/2+x,1/2+y,z
3 x,-y,1/2+z
4 1/2+x,1/2-y,1/2+z
5 -x,-y,-z
6 1/2-x,1/2-y,-z
7 -x,y,1/2-z
8 1/2-x,1/2+y,1/2-z
_cell_length_a                   38.562(13)
_cell_length_b                   4.7679(16)
_cell_length_c                   10.344(4)
_cell_angle_alpha                90
_cell_angle_beta                 103.357(6)
_cell_angle_gamma                90
_cell_volume                     1850.4
_exptl_crystal_colour            colorless
_exptl_crystal_description       prism
_cell_formula_units_Z            4
_exptl_crystal_recrystallization_method chloroform
loop_
_atom_site_label
_atom_site_type_symbol
_atom_site_fract_x
_atom_site_fract_y
_atom_site_fract_z
S1 S 0.088217(14) 0.15400(12) 0.12154(6)
O1 O 0.07100(4) 0.3183(4) 0.00845(17)
O2 O 0.10514(5) 0.2996(4) 0.23712(18)
C1 C 0.18422(6) 0.0650(5) 0.1538(3)
H1 H 0.1859 -0.0586 0.2245
C2 C 0.21359(7) 0.2186(6) 0.1416(3)
H2 H 0.2351 0.1960 0.2036
C3 C 0.21136(7) 0.4026(6) 0.0400(3)
H3 H 0.2313 0.5064 0.0329
C4 C 0.17976(7) 0.4355(5) -0.0524(3)
H4 H 0.1782 0.5621 -0.1219
C5 C 0.15038(7) 0.2803(5) -0.0420(2)
H5 H 0.1291 0.3015 -0.1051
C6 C 0.15235(5) 0.0935(4) 0.0617(2)
C7 C 0.12004(6) -0.0729(5) 0.0742(2)
H6 H 0.1270 -0.2188 0.1405
H7 H 0.1094 -0.1618 -0.0100
C8 C 0.05618(6) -0.0745(5) 0.1629(2)
H8 H 0.0454 -0.1883 0.0864
H9 H 0.0676 -0.1989 0.2343
C9 C 0.02760(6) 0.0979(5) 0.2064(3)
H10 H 0.0389 0.2192 0.2793
H11 H 0.0157 0.2163 0.1332
C10 C 0.0000 -0.0828(7) 0.2500
H12 H 0.0117 -0.2023 0.3230
H13 H -0.0117 -0.2023 0.1770
C9F C -0.02760(6) 0.0979(5) 0.2936(3)
C8F C -0.05618(6) -0.0745(5) 0.3371(2)
S1F S -0.088217(14) 0.15400(12) 0.37846(6)
O1F O -0.07100(4) 0.3183(4) 0.49155(17)
O2F O -0.10514(5) 0.2996(4) 0.26288(18)
C7F C -0.12004(6) -0.0729(5) 0.4258(2)
C6F C -0.15235(5) 0.0935(4) 0.4383(2)
C1F C -0.18422(6) 0.0650(5) 0.3462(3)
H1F H -0.1859 -0.0586 0.2755
C2F C -0.21359(7) 0.2186(6) 0.3584(3)
H2F H -0.2351 0.1960 0.2964
C3F C -0.21136(7) 0.4026(6) 0.4600(3)
H3F H -0.2313 0.5064 0.4671
C4F C -0.17976(7) 0.4355(5) 0.5524(3)
H4F H -0.1782 0.5621 0.6219
C5F C -0.15038(7) 0.2803(5) 0.5420(2)
H5F H -0.1291 0.3015 0.6051
H6F H -0.1270 -0.2188 0.3595
H7F H -0.1094 -0.1618 0.5100
H8F H -0.0454 -0.1883 0.4136
H9F H -0.0676 -0.1989 0.2657
H10F H -0.0389 0.2192 0.2207
H11F H -0.0157 0.2163 0.3668
loop_
_geom_bond_atom_site_label_1
_geom_bond_atom_site_label_2
_geom_bond_site_symmetry_1
_geom_bond_site_symmetry_2
S1 O1 1_555 1_555
O2 S1 1_555 1_555
C1 H1 1_555 1_555
C2 C1 1_555 1_555
H2 C2 1_555 1_555
C3 C2 1_555 1_555
H3 C3 1_555 1_555
C4 C3 1_555 1_555
H4 C4 1_555 1_555
C5 C4 1_555 1_555
H5 C5 1_555 1_555
C6 C1 1_555 1_555
C7 S1 1_555 1_555
H6 C7 1_555 1_555
H7 C7 1_555 1_555
C8 S1 1_555 1_555
H8 C8 1_555 1_555
H9 C8 1_555 1_555
C9 C8 1_555 1_555
H10 C9 1_555 1_555
H11 C9 1_555 1_555
C10 C9 1_555 1_555
H12 C10 1_555 1_555
H13 C10 1_555 1_555
C9F C10 1_555 1_555
C8F C9F 1_555 1_555
S1F C8F 1_555 1_555
O1F S1F 1_555 1_555
O2F S1F 1_555 1_555
C7F S1F 1_555 1_555
C6F C7F 1_555 1_555
C1F C6F 1_555 1_555
H1F C1F 1_555 1_555
C2F C1F 1_555 1_555
H2F C2F 1_555 1_555
C3F C2F 1_555 1_555
H3F C3F 1_555 1_555
C4F C3F 1_555 1_555
H4F C4F 1_555 1_555
C5F C6F 1_555 1_555
H5F C5F 1_555 1_555
H6F C7F 1_555 1_555
H7F C7F 1_555 1_555
H8F C8F 1_555 1_555
H9F C8F 1_555 1_555
H10F C9F 1_555 1_555
H11F C9F 1_555 1_555
C5 C6 1_555 1_555
C6 C7 1_555 1_555
C4F C5F 1_555 1_555

#END
