
#######################################################################
#
#                 Cambridge Crystallographic Data Centre
#                                CCDC 
#
#######################################################################
#
# If this CIF has been generated from an entry in the Cambridge 
# Structural Database, then it will include bibliographic, chemical, 
# crystal, experimental, refinement or atomic coordinate data resulting 
# from the CCDC's data processing and validation procedures.
#
#######################################################################

data_ENIVIG01
_chemical_compound_source        
'isolated from the marine fungus Pseudallescheria ellipsoidea F42-3'
_chemical_formula_moiety         'C9 H7 N1 O2'
_chemical_name_systematic        '1H-indole-3-carboxylic acid'
_symmetry_cell_setting           monoclinic
_symmetry_space_group_name_H-M   'P 21/n'
_symmetry_Int_Tables_number      14
_space_group_name_Hall           '-P 2yn'
loop_
_symmetry_equiv_pos_site_id
_symmetry_equiv_pos_as_xyz
1 x,y,z
2 1/2-x,1/2+y,1/2-z
3 -x,-y,-z
4 1/2+x,1/2-y,1/2+z
_cell_length_a                   4.41890(5)
_cell_length_b                   10.48312(13)
_cell_length_c                   16.03096(17)
_cell_angle_alpha                90
_cell_angle_beta                 95.3299(10)
_cell_angle_gamma                90
_cell_volume                     739.405
_exptl_crystal_colour            colorless
_exptl_crystal_description       prism
_cell_formula_units_Z            4
_exptl_crystal_recrystallization_method methanol
loop_
_atom_site_label
_atom_site_type_symbol
_atom_site_fract_x
_atom_site_fract_y
_atom_site_fract_z
O1 O 0.07539(19) 0.02163(8) 0.90150(5)
O2 O -0.1774(2) -0.14156(8) 0.95351(5)
H1 H -0.1474 -0.0995 0.9966
N1 N -0.2911(2) -0.28073(9) 0.71231(6)
H2 H -0.3934 -0.3421 0.6879
C1 C 0.0246(2) -0.11232(11) 0.73498(7)
C2 C -0.0236(3) -0.19875(12) 0.59155(7)
H3 H -0.1061 -0.2577 0.5525
C3 C -0.2943(3) -0.24841(11) 0.79367(7)
H4 H -0.4075 -0.2891 0.8319
C4 C -0.0599(3) -0.08166(11) 0.89154(7)
C5 C 0.2305(3) -0.01989(11) 0.71179(7)
H5 H 0.3162 0.0386 0.7507
C6 C -0.1040(2) -0.14569(10) 0.81152(7)
C7 C 0.1778(3) -0.10624(12) 0.57029(7)
H6 H 0.2317 -0.1024 0.5156
C8 C -0.0977(2) -0.19987(11) 0.67414(7)
C9 C 0.3033(3) -0.01766(12) 0.62973(7)
H7 H 0.4380 0.0437 0.6135
loop_
_geom_bond_atom_site_label_1
_geom_bond_atom_site_label_2
_geom_bond_site_symmetry_1
_geom_bond_site_symmetry_2
O1 C4 1_555 1_555
O2 H1 1_555 1_555
N1 H2 1_555 1_555
C1 C5 1_555 1_555
C2 H3 1_555 1_555
C3 N1 1_555 1_555
H4 C3 1_555 1_555
C4 O2 1_555 1_555
C5 H5 1_555 1_555
C6 C1 1_555 1_555
C7 C2 1_555 1_555
H6 C7 1_555 1_555
C8 N1 1_555 1_555
C9 C5 1_555 1_555
H7 C9 1_555 1_555
C1 C8 1_555 1_555
C2 C8 1_555 1_555
C3 C6 1_555 1_555
C4 C6 1_555 1_555
C7 C9 1_555 1_555

#END
