
#######################################################################
#
#                 Cambridge Crystallographic Data Centre
#                                CCDC 
#
#######################################################################
#
# If this CIF has been generated from an entry in the Cambridge 
# Structural Database, then it will include bibliographic, chemical, 
# crystal, experimental, refinement or atomic coordinate data resulting 
# from the CCDC's data processing and validation procedures.
#
#######################################################################

data_ENOBOY
_chemical_formula_moiety         'C54 H54 S6'
_chemical_name_systematic        1,2,3,4,5,6-hexakis(benzylthiomethyl)benzene
_symmetry_cell_setting           monoclinic
_symmetry_space_group_name_H-M   'P 21/n'
_symmetry_Int_Tables_number      14
_space_group_name_Hall           '-P 2yn'
loop_
_symmetry_equiv_pos_site_id
_symmetry_equiv_pos_as_xyz
1 x,y,z
2 1/2+x,1/2-y,1/2+z
3 -x,-y,-z
4 1/2-x,1/2+y,1/2-z
_cell_length_a                   12.2412(3)
_cell_length_b                   9.8042(2)
_cell_length_c                   20.2394(5)
_cell_angle_alpha                90
_cell_angle_beta                 101.990(2)
_cell_angle_gamma                90
_cell_volume                     2376.04
_exptl_crystal_colour            colorless
_exptl_crystal_description       plates
_cell_formula_units_Z            2
loop_
_atom_site_label
_atom_site_type_symbol
_atom_site_fract_x
_atom_site_fract_y
_atom_site_fract_z
C1 C -0.03618(10) 0.38654(13) 0.03195(6)
C2 C 0.07843(10) 0.40777(13) 0.03562(6)
C3 C -0.11426(10) 0.48057(13) -0.00256(6)
C4 C -0.07450(11) 0.26267(14) 0.06558(7)
H1 H -0.0232 0.1853 0.0638
H2 H -0.1503 0.2357 0.0416
S1 S -0.07566(3) 0.30448(4) 0.153159(18)
C5 C -0.09781(11) 0.13449(14) 0.18442(7)
H3 H -0.1157 0.1432 0.2297
H4 H -0.1633 0.0929 0.1541
C6 C 0.00041(11) 0.04031(14) 0.18925(7)
C7 C -0.00314(14) -0.06877(15) 0.14516(8)
H5 H -0.0678 -0.0829 0.1107
C8 C 0.08654(17) -0.15732(17) 0.15083(9)
H6 H 0.0829 -0.2318 0.1204
C9 C 0.18079(15) -0.13787(17) 0.20030(9)
H7 H 0.2422 -0.1988 0.2041
C10 C 0.18591(13) -0.02944(17) 0.24442(8)
H8 H 0.2511 -0.0155 0.2785
C11 C 0.09654(12) 0.05870(15) 0.23904(7)
H9 H 0.1007 0.1328 0.2697
C12 C 0.16249(11) 0.30809(13) 0.07359(7)
H10 H 0.1341 0.2669 0.1114
H11 H 0.2337 0.3552 0.0923
S2 S 0.18390(3) 0.17702(4) 0.013989(18)
C13 C 0.28345(11) 0.06759(14) 0.06901(8)
H12 H 0.2516 0.0401 0.1081
H13 H 0.2951 -0.0161 0.0440
C14 C 0.39442(11) 0.13538(13) 0.09437(7)
C15 C 0.47213(12) 0.14689(14) 0.05349(8)
H14 H 0.4541 0.1151 0.0082
C16 C 0.57617(12) 0.20480(15) 0.07858(9)
H15 H 0.6298 0.2095 0.0508
C17 C 0.60190(12) 0.25534(15) 0.14347(9)
H16 H 0.6732 0.2945 0.1605
C18 C 0.52366(12) 0.24889(15) 0.18375(8)
H17 H 0.5402 0.2862 0.2280
C19 C 0.42095(11) 0.18780(14) 0.15934(7)
H18 H 0.3681 0.1818 0.1876
C20 C -0.23708(10) 0.46363(14) -0.00261(6)
H19 H -0.2457 0.4198 0.0401
H20 H -0.2731 0.5544 -0.0052
S3 S -0.30590(3) 0.35946(4) -0.074110(17)
C21 C -0.44837(10) 0.41186(14) -0.07434(7)
H21 H -0.4584 0.5071 -0.0908
H22 H -0.4595 0.4108 -0.0273
C22 C -0.53729(11) 0.32422(13) -0.11718(7)
C23 C -0.51722(12) 0.19500(14) -0.13981(8)
H23 H -0.4434 0.1596 -0.1306
C24 C -0.60435(13) 0.11685(15) -0.17589(8)
H24 H -0.5897 0.0285 -0.1913
C25 C -0.71213(12) 0.16701(15) -0.18945(8)
H25 H -0.7716 0.1131 -0.2138
C26 C -0.73315(12) 0.29608(16) -0.16744(8)
H26 H -0.8071 0.3311 -0.1766
C27 C -0.64635(11) 0.37373(15) -0.13212(7)
H27 H -0.6612 0.4628 -0.1177
C3B C 0.11426(10) 0.51943(13) 0.00256(6)
C1B C 0.03618(10) 0.61346(13) -0.03195(6)
C2B C -0.07843(10) 0.59223(13) -0.03562(6)
C12B C -0.16249(11) 0.69191(13) -0.07359(7)
H10B H -0.1341 0.7331 -0.1114
H11B H -0.2337 0.6448 -0.0923
S2B S -0.18390(3) 0.82298(4) -0.013989(18)
C13B C -0.28345(11) 0.93241(14) -0.06901(8)
H12B H -0.2516 0.9599 -0.1081
H13B H -0.2951 1.0161 -0.0440
C14B C -0.39442(11) 0.86462(13) -0.09437(7)
C15B C -0.47213(12) 0.85311(14) -0.05349(8)
H14B H -0.4541 0.8849 -0.0082
C16B C -0.57617(12) 0.79520(15) -0.07858(9)
H15B H -0.6298 0.7905 -0.0508
C17B C -0.60190(12) 0.74466(15) -0.14347(9)
H16B H -0.6732 0.7055 -0.1605
C18B C -0.52366(12) 0.75111(15) -0.18375(8)
H17B H -0.5402 0.7138 -0.2280
C19B C -0.42095(11) 0.81220(14) -0.15934(7)
H18B H -0.3681 0.8182 -0.1876
C4B C 0.07450(11) 0.73733(14) -0.06558(7)
H1B H 0.0232 0.8147 -0.0638
H2B H 0.1503 0.7643 -0.0416
S1B S 0.07566(3) 0.69552(4) -0.153159(18)
C5B C 0.09781(11) 0.86551(14) -0.18442(7)
H3B H 0.1157 0.8568 -0.2297
H4B H 0.1633 0.9071 -0.1541
C6B C -0.00041(11) 0.95969(14) -0.18925(7)
C7B C 0.00314(14) 1.06877(15) -0.14516(8)
H5B H 0.0678 1.0829 -0.1107
C8B C -0.08654(17) 1.15732(17) -0.15083(9)
H6B H -0.0829 1.2318 -0.1204
C9B C -0.18079(15) 1.13787(17) -0.20030(9)
H7B H -0.2422 1.1988 -0.2041
C10B C -0.18591(13) 1.02944(17) -0.24442(8)
H8B H -0.2511 1.0155 -0.2785
C11B C -0.09654(12) 0.94130(15) -0.23904(7)
H9B H -0.1007 0.8672 -0.2697
C20B C 0.23708(10) 0.53637(14) 0.00261(6)
H19B H 0.2457 0.5802 -0.0401
H20B H 0.2731 0.4456 0.0052
S3B S 0.30590(3) 0.64054(4) 0.074110(17)
C21B C 0.44837(10) 0.58814(14) 0.07434(7)
H21B H 0.4584 0.4929 0.0908
H22B H 0.4595 0.5892 0.0273
C22B C 0.53729(11) 0.67578(13) 0.11718(7)
C23B C 0.51722(12) 0.80500(14) 0.13981(8)
H23B H 0.4434 0.8404 0.1306
C24B C 0.60435(13) 0.88315(15) 0.17589(8)
H24B H 0.5897 0.9715 0.1913
C25B C 0.71213(12) 0.83299(15) 0.18945(8)
H25B H 0.7716 0.8869 0.2138
C26B C 0.73315(12) 0.70392(16) 0.16744(8)
H26B H 0.8071 0.6689 0.1766
C27B C 0.64635(11) 0.62627(15) 0.13212(7)
H27B H 0.6612 0.5372 0.1177
loop_
_geom_bond_atom_site_label_1
_geom_bond_atom_site_label_2
_geom_bond_site_symmetry_1
_geom_bond_site_symmetry_2
C1 C2 1_555 1_555
C2 C12 1_555 1_555
C3 C1 1_555 1_555
C4 C1 1_555 1_555
H1 C4 1_555 1_555
H2 C4 1_555 1_555
S1 C4 1_555 1_555
C5 S1 1_555 1_555
H3 C5 1_555 1_555
H4 C5 1_555 1_555
C6 C5 1_555 1_555
C7 C6 1_555 1_555
H5 C7 1_555 1_555
C8 C7 1_555 1_555
H6 C8 1_555 1_555
C9 C8 1_555 1_555
H7 C9 1_555 1_555
C10 C9 1_555 1_555
H8 C10 1_555 1_555
C11 C6 1_555 1_555
H9 C11 1_555 1_555
C12 H10 1_555 1_555
H11 C12 1_555 1_555
S2 C12 1_555 1_555
C13 S2 1_555 1_555
H12 C13 1_555 1_555
H13 C13 1_555 1_555
C14 C13 1_555 1_555
C15 C14 1_555 1_555
H14 C15 1_555 1_555
C16 C15 1_555 1_555
H15 C16 1_555 1_555
C17 C16 1_555 1_555
H16 C17 1_555 1_555
C18 C17 1_555 1_555
H17 C18 1_555 1_555
C19 C14 1_555 1_555
H18 C19 1_555 1_555
C20 C3 1_555 1_555
H19 C20 1_555 1_555
H20 C20 1_555 1_555
S3 C20 1_555 1_555
C21 S3 1_555 1_555
H21 C21 1_555 1_555
H22 C21 1_555 1_555
C22 C21 1_555 1_555
C23 C22 1_555 1_555
H23 C23 1_555 1_555
C24 C23 1_555 1_555
H24 C24 1_555 1_555
C25 C24 1_555 1_555
H25 C25 1_555 1_555
C26 C25 1_555 1_555
H26 C26 1_555 1_555
C27 C22 1_555 1_555
H27 C27 1_555 1_555
C3B C2 1_555 1_555
C1B C3B 1_555 1_555
C2B C3 1_555 1_555
C12B C2B 1_555 1_555
H10B C12B 1_555 1_555
H11B C12B 1_555 1_555
S2B C12B 1_555 1_555
C13B S2B 1_555 1_555
H12B C13B 1_555 1_555
H13B C13B 1_555 1_555
C14B C13B 1_555 1_555
C15B C14B 1_555 1_555
H14B C15B 1_555 1_555
C16B C15B 1_555 1_555
H15B C16B 1_555 1_555
C17B C16B 1_555 1_555
H16B C17B 1_555 1_555
C18B C17B 1_555 1_555
H17B C18B 1_555 1_555
C19B C14B 1_555 1_555
H18B C19B 1_555 1_555
C4B C1B 1_555 1_555
H1B C4B 1_555 1_555
H2B C4B 1_555 1_555
S1B C4B 1_555 1_555
C5B S1B 1_555 1_555
H3B C5B 1_555 1_555
H4B C5B 1_555 1_555
C6B C5B 1_555 1_555
C7B C6B 1_555 1_555
H5B C7B 1_555 1_555
C8B C7B 1_555 1_555
H6B C8B 1_555 1_555
C9B C8B 1_555 1_555
H7B C9B 1_555 1_555
C10B C9B 1_555 1_555
H8B C10B 1_555 1_555
C11B C6B 1_555 1_555
H9B C11B 1_555 1_555
C20B C3B 1_555 1_555
H19B C20B 1_555 1_555
H20B C20B 1_555 1_555
S3B C20B 1_555 1_555
C21B S3B 1_555 1_555
H21B C21B 1_555 1_555
H22B C21B 1_555 1_555
C22B C21B 1_555 1_555
C23B C22B 1_555 1_555
H23B C23B 1_555 1_555
C24B C23B 1_555 1_555
H24B C24B 1_555 1_555
C25B C24B 1_555 1_555
H25B C25B 1_555 1_555
C26B C25B 1_555 1_555
H26B C26B 1_555 1_555
C27B C22B 1_555 1_555
H27B C27B 1_555 1_555
C10 C11 1_555 1_555
C18 C19 1_555 1_555
C26 C27 1_555 1_555
C1B C2B 1_555 1_555
C18B C19B 1_555 1_555
C10B C11B 1_555 1_555
C26B C27B 1_555 1_555

#END
