
#######################################################################
#
#                 Cambridge Crystallographic Data Centre
#                                CCDC 
#
#######################################################################
#
# If this CIF has been generated from an entry in the Cambridge 
# Structural Database, then it will include bibliographic, chemical, 
# crystal, experimental, refinement or atomic coordinate data resulting 
# from the CCDC's data processing and validation procedures.
#
#######################################################################

data_ENOCUG
_chemical_name_common            'PDB Chemical Component code: MFW'
_chemical_formula_moiety         'C5 H8 O1'
_chemical_name_systematic        cyclopentanone
_symmetry_cell_setting           monoclinic
_symmetry_space_group_name_H-M   'C 2/c'
_symmetry_Int_Tables_number      15
_space_group_name_Hall           '-C 2yn'
loop_
_symmetry_equiv_pos_site_id
_symmetry_equiv_pos_as_xyz
1 x,y,z
2 -x,y,1/2-z
3 1/2+x,1/2+y,z
4 1/2-x,1/2+y,1/2-z
5 -x,-y,-z
6 x,-y,1/2+z
7 1/2-x,1/2-y,-z
8 1/2+x,1/2-y,1/2+z
_cell_length_a                   16.7421(16)
_cell_length_b                   9.7941(8)
_cell_length_c                   8.8898(7)
_cell_angle_alpha                90
_cell_angle_beta                 93.69(2)
_cell_angle_gamma                90
_cell_volume                     1454.67
_exptl_crystal_colour            colorless
_exptl_crystal_description       cylinder
_chemical_melting_point          '218 K'
_cell_formula_units_Z            12
loop_
_atom_site_label
_atom_site_type_symbol
_atom_site_fract_x
_atom_site_fract_y
_atom_site_fract_z
O1 O 0.17244(6) 0.63157(9) 0.50785(12)
C1 C 0.16762(6) 0.70397(11) 0.39723(15)
C2 C 0.20281(7) 0.67435(12) 0.24876(16)
C3 C 0.19157(7) 0.80501(11) 0.15710(17)
C4 C 0.11695(7) 0.86947(11) 0.21755(14)
C5 C 0.12532(7) 0.84020(12) 0.38500(14)
H1 H 0.1714(8) 0.5987(15) 0.2000(18)
H2 H 0.2574(9) 0.6471(14) 0.2676(17)
H3 H 0.2383(8) 0.8620(13) 0.1776(16)
H4 H 0.1873(8) 0.7885(14) 0.0485(19)
H5 H 0.0689(8) 0.8226(13) 0.1728(16)
H6 H 0.1128(7) 0.9662(14) 0.1943(15)
H7 H 0.1617(8) 0.9040(14) 0.4380(17)
H8 H 0.0766(9) 0.8365(15) 0.4355(18)
O2 O 0.0000 0.58323(9) 0.2500
C6 C 0.0000 0.45920(13) 0.2500
C7 C 0.04221(7) 0.36976(10) 0.36852(14)
C8 C 0.03880(7) 0.22685(10) 0.29943(14)
H9 H 0.0958(8) 0.4046(14) 0.3968(16)
H10 H 0.0096(8) 0.3744(13) 0.4567(17)
H11 H 0.0836(8) 0.2158(13) 0.2380(15)
H12 H 0.0412(8) 0.1537(14) 0.3772(16)
C7A C -0.04221(7) 0.36976(10) 0.13148(14)
C8A C -0.03880(7) 0.22685(10) 0.20057(14)
H9A H -0.0958(8) 0.4046(14) 0.1032(16)
H10A H -0.0096(8) 0.3744(13) 0.0433(17)
H11A H -0.0836(8) 0.2158(13) 0.2620(15)
H12A H -0.0412(8) 0.1537(14) 0.1228(16)
loop_
_geom_bond_atom_site_label_1
_geom_bond_atom_site_label_2
_geom_bond_site_symmetry_1
_geom_bond_site_symmetry_2
O1 C1 1_555 1_555
C1 C2 1_555 1_555
C2 C3 1_555 1_555
C3 C4 1_555 1_555
C4 C5 1_555 1_555
C5 C1 1_555 1_555
H1 C2 1_555 1_555
H2 C2 1_555 1_555
H3 C3 1_555 1_555
H4 C3 1_555 1_555
H5 C4 1_555 1_555
H6 C4 1_555 1_555
H7 C5 1_555 1_555
H8 C5 1_555 1_555
O2 C6 1_555 1_555
C6 C7 1_555 1_555
C7 C8 1_555 1_555
C8 H11 1_555 1_555
H9 C7 1_555 1_555
H10 C7 1_555 1_555
H12 C8 1_555 1_555
C7A C6 1_555 1_555
C8A C8 1_555 1_555
H9A C7A 1_555 1_555
H10A C7A 1_555 1_555
H11A C8A 1_555 1_555
H12A C8A 1_555 1_555
C7A C8A 1_555 1_555

#END
