
#######################################################################
#
#                 Cambridge Crystallographic Data Centre
#                                CCDC 
#
#######################################################################
#
# If this CIF has been generated from an entry in the Cambridge 
# Structural Database, then it will include bibliographic, chemical, 
# crystal, experimental, refinement or atomic coordinate data resulting 
# from the CCDC's data processing and validation procedures.
#
#######################################################################

data_ENOHAR
_chemical_name_common            
6-Methylthio-5-trimethylsilyl-2H-thiopyran-2-thione
_chemical_formula_moiety         'C9 H14 S3 Si1'
_chemical_name_systematic        
6-(Methylsulfanyl)-5-(trimethylsilyl)-2H-thiopyran-2-thione
_symmetry_cell_setting           monoclinic
_symmetry_space_group_name_H-M   'P 21/c'
_symmetry_Int_Tables_number      14
_space_group_name_Hall           '-P 2ybc'
loop_
_symmetry_equiv_pos_site_id
_symmetry_equiv_pos_as_xyz
1 x,y,z
2 -x,1/2+y,1/2-z
3 -x,-y,-z
4 x,1/2-y,1/2+z
_cell_length_a                   7.251(1)
_cell_length_b                   19.321(2)
_cell_length_c                   18.290(1)
_cell_angle_alpha                90
_cell_angle_beta                 93.96(1)
_cell_angle_gamma                90
_cell_volume                     2556.25
_cell_formula_units_Z            8
loop_
_atom_site_label
_atom_site_type_symbol
_atom_site_fract_x
_atom_site_fract_y
_atom_site_fract_z
S1 S 0.3487(2) 0.16762(5) 0.15454(6)
S2 S 0.3176(2) 0.03530(7) 0.08329(9)
S3 S 0.3773(2) 0.31339(6) 0.20120(6)
Si1 Si 0.3403(2) 0.37153(6) 0.03099(7)
C1 C 0.3248(6) 0.1199(2) 0.0742(3)
C2 C 0.3122(8) 0.1575(3) 0.0076(3)
C3 C 0.3196(7) 0.2266(3) 0.0012(2)
C4 C 0.3375(6) 0.2775(2) 0.0582(2)
C5 C 0.3529(5) 0.2534(2) 0.1289(2)
C6 C 0.330(1) 0.3763(3) -0.0710(3)
C7 C 0.5584(8) 0.4140(3) 0.0667(3)
C8 C 0.1350(8) 0.4165(3) 0.0651(4)
C9 C 0.3903(7) 0.2639(3) 0.2841(2)
H1 H 0.322(7) 0.129(3) -0.042(3)
H2 H 0.333(7) 0.249(3) -0.049(3)
H5 H 0.265(8) 0.364(3) -0.088(3)
H6 H 0.353(8) 0.434(3) -0.083(3)
H7 H 0.426(9) 0.349(4) -0.094(4)
H8 H 0.545(8) 0.465(3) 0.046(3)
H9 H 0.583(9) 0.415(4) 0.118(4)
H10 H 0.633(9) 0.397(3) 0.047(4)
H11 H 0.134(7) 0.468(3) 0.055(3)
H12 H 0.126(8) 0.415(3) 0.118(3)
H13 H 0.03(1) 0.410(4) 0.044(4)
H14 H 0.300(6) 0.242(2) 0.290(2)
H15 H 0.477(6) 0.229(2) 0.289(2)
H16 H 0.388(9) 0.309(3) 0.323(3)
S4 S 0.1502(2) -0.24575(5) -0.09946(6)
S5 S 0.1867(3) -0.26229(8) 0.05627(7)
S6 S 0.1222(2) -0.20573(6) -0.25469(6)
Si2 Si 0.1552(2) -0.03842(6) -0.2160(6)
C10 C 0.1761(7) -0.2064(2) -0.0142(2)
C11 C 0.1882(8) -0.1358(3) -0.0108(2)
C12 C 0.1805(7) -0.0919(2) -0.0700(2)
C13 C 0.1605(6) -0.1108(2) -0.1452(2)
C14 C 0.1453(6) -0.1791(2) -0.1630(2)
C15 C 0.1892(9) 0.0448(3) -0.1663(3)
C16 C -0.0726(8) -0.0362(3) -0.2692(3)
C17 C 0.3448(8) -0.0492(3) -0.2786(3)
C18 C 0.1164(8) -0.2982(3) -0.2533(3)
H3 H 0.180(9) -0.104(3) 0.043(3)
H4 H 0.187(6) -0.047(2) -0.054(2)
H17 H 0.199(8) 0.083(3) -0.201(3)
H18 H 0.310(8) 0.045(3) -0.143(3)
H19 H 0.080(9) 0.058(3) -0.137(4)
H20 H -0.068(7) 0.009(3) -0.308(3)
H21 H -0.17(1) -0.024(4) -0.244(4)
H22 H -0.073(9) -0.087(4) -0.299(4)
H23 H 0.356(7) -0.007(3) -0.309(3)
H24 H 0.303(8) -0.091(3) -0.310(3)
H25 H 0.437(9) -0.048(3) -0.268(4)
H26 H 0.039(8) -0.320(3) -0.232(3)
H27 H 0.21(1) -0.341(4) -0.243(4)
H28 H 0.10(1) -0.321(4) -0.315(4)
loop_
_geom_bond_atom_site_label_1
_geom_bond_atom_site_label_2
_geom_bond_site_symmetry_1
_geom_bond_site_symmetry_2
S1 C1 1_555 1_555
S2 C1 1_555 1_555
S3 C5 1_555 1_555
S4 C10 1_555 1_555
S5 C10 1_555 1_555
S6 C14 1_555 1_555
Si1 C4 1_555 1_555
Si2 C13 1_555 1_555
C1 C2 1_555 1_555
C2 C3 1_555 1_555
C3 C4 1_555 1_555
C4 C5 1_555 1_555
C5 S1 1_555 1_555
C6 Si1 1_555 1_555
C7 Si1 1_555 1_555
C8 Si1 1_555 1_555
C9 S3 1_555 1_555
C10 C11 1_555 1_555
C11 C12 1_555 1_555
C12 C13 1_555 1_555
C13 C14 1_555 1_555
C14 S4 1_555 1_555
C15 Si2 1_555 1_555
C16 Si2 1_555 1_555
C17 Si2 1_555 1_555
C18 S6 1_555 1_555
H1 C2 1_555 1_555
H2 C3 1_555 1_555
H3 C11 1_555 1_555
H4 C12 1_555 1_555
H5 C6 1_555 1_555
H6 C6 1_555 1_555
H7 C6 1_555 1_555
H8 C7 1_555 1_555
H9 C7 1_555 1_555
H10 C7 1_555 1_555
H11 C8 1_555 1_555
H12 C8 1_555 1_555
H13 C8 1_555 1_555
H14 C9 1_555 1_555
H15 C9 1_555 1_555
H16 C9 1_555 1_555
H17 C15 1_555 1_555
H18 C15 1_555 1_555
H19 C15 1_555 1_555
H20 C16 1_555 1_555
H21 C16 1_555 1_555
H22 C16 1_555 1_555
H23 C17 1_555 1_555
H24 C17 1_555 1_555
H25 C17 1_555 1_555
H26 C18 1_555 1_555
H27 C18 1_555 1_555
H28 C18 1_555 1_555

#END
