
#######################################################################
#
#                 Cambridge Crystallographic Data Centre
#                                CCDC 
#
#######################################################################
#
# If this CIF has been generated from an entry in the Cambridge 
# Structural Database, then it will include bibliographic, chemical, 
# crystal, experimental, refinement or atomic coordinate data resulting 
# from the CCDC's data processing and validation procedures.
#
#######################################################################

data_ENOHUL
_chemical_formula_moiety         'C26 H31 N1 S2'
_chemical_name_systematic        
4-((E)-1-Benzyliden-2,2-dimethylpropyl)-2-((E)-2,2-dimethylpropyliden)-6-phenyl-1,3,5-dithiazine
_symmetry_cell_setting           triclinic
_symmetry_space_group_name_H-M   'P -1'
_symmetry_Int_Tables_number      2
_space_group_name_Hall           '-P 1'
loop_
_symmetry_equiv_pos_site_id
_symmetry_equiv_pos_as_xyz
1 x,y,z
2 -x,-y,-z
_cell_length_a                   6.346(1)
_cell_length_b                   10.204(1)
_cell_length_c                   19.033(1)
_cell_angle_alpha                91.64(1)
_cell_angle_beta                 91.04(1)
_cell_angle_gamma                102.15(1)
_cell_volume                     1204
_cell_formula_units_Z            2
loop_
_atom_site_label
_atom_site_type_symbol
_atom_site_fract_x
_atom_site_fract_y
_atom_site_fract_z
S1 S 0.6436(1) 0.05357(7) 0.64625(3)
S2 S 0.4535(1) 0.16690(8) 0.77292(3)
N1 N 0.7730(3) 0.0296(2) 0.7823(1)
C1 C 0.4853(4) 0.1611(3) 0.6805(1)
C2 C 0.6878(4) 0.1209(3) 0.8082(1)
C3 C 0.6634(4) -0.0484(3) 0.7224(1)
C4 C 0.3879(4) 0.2390(2) 0.6427(1)
C5 C 0.3657(4) 0.2482(3) 0.5639(1)
C6 C 0.2314(6) 0.1193(3) 0.5317(2)
C7 C 0.5876(5) 0.2799(3) 0.5290(2)
C8 C 0.2537(6) 0.3642(3) 0.5491(2)
C9 C 0.7618(4) 0.1948(2) 0.8757(1)
C10 C 0.9009(5) 0.3360(3) 0.8718(1)
C11 C 0.9867(6) 0.3644(3) 0.7977(2)
C12 C 0.7688(6) 0.4419(3) 0.8906(2)
C13 C 1.0968(7) 0.3544(4) 0.9217(2)
C14 C 0.6920(5) 0.1285(3) 0.9322(1)
C15 C 0.7769(4) -0.1573(3) 0.6981(1)
C16 C 0.6717(5) -0.2892(3) 0.6968(2)
C17 C 0.7735(6) -0.3897(3) 0.6736(2)
C18 C 0.9812(5) -0.3554(3) 0.6504(2)
C19 C 1.0864(5) -0.2255(3) 0.6510(2)
C20 C 0.9887(5) -0.1245(3) 0.6753(2)
C21 C 0.7165(5) 0.1704(3) 1.0080(1)
C22 C 0.5756(5) 0.2390(3) 1.0398(2)
C23 C 0.5919(6) 0.2701(3) 1.1110(2)
C24 C 0.7470(6) 0.2335(3) 1.1521(2)
C25 C 0.8850(6) 0.1634(4) 1.1218(2)
C26 C 0.8689(6) 0.1326(3) 1.0509(2)
H1 H 0.519(4) -0.088(3) 0.737(1)
H2 H 0.341(4) 0.298(3) 0.668(1)
H3 H 0.617(4) 0.039(3) 0.923(1)
H4 H 0.530(5) -0.318(3) 0.715(2)
H5 H 0.691(6) -0.492(3) 0.677(2)
H6 H 1.038(6) -0.431(4) 0.633(2)
H7 H 1.222(6) -0.193(3) 0.632(2)
H8 H 1.065(4) -0.032(3) 0.675(1)
H9 H 0.294(5) 0.039(3) 0.540(2)
H10 H 0.217(5) 0.134(3) 0.478(2)
H11 H 0.106(6) 0.095(4) 0.551(2)
H12 H 0.559(5) 0.297(3) 0.476(2)
H13 H 0.657(5) 0.200(3) 0.538(2)
H14 H 0.672(6) 0.381(4) 0.551(2)
H15 H 0.240(5) 0.378(3) 0.494(2)
H16 H 0.352(6) 0.460(4) 0.571(2)
H17 H 0.141(5) 0.346(3) 0.568(2)
H18 H 0.859(5) 0.363(3) 0.759(2)
H19 H 1.075(5) 0.469(3) 0.798(2)
H20 H 1.026(5) 0.302(3) 0.782(2)
H21 H 0.752(6) 0.428(4) 0.944(2)
H22 H 0.867(6) 0.539(3) 0.887(2)
H23 H 0.648(7) 0.427(4) 0.849(2)
H24 H 1.141(5) 0.279(3) 0.916(2)
H25 H 1.039(6) 0.355(4) 0.977(2)
H26 H 1.188(6) 0.463(4) 0.918(2)
H27 H 0.493(5) 0.272(3) 1.011(2)
H28 H 0.522(6) 0.327(4) 1.129(2)
H29 H 0.774(5) 0.261(3) 1.205(2)
H30 H 0.982(6) 0.136(4) 1.154(2)
H31 H 0.936(6) 0.080(4) 1.031(2)
loop_
_geom_bond_atom_site_label_1
_geom_bond_atom_site_label_2
_geom_bond_site_symmetry_1
_geom_bond_site_symmetry_2
S1 C1 1_555 1_555
S2 C1 1_555 1_555
N1 C2 1_555 1_555
C1 C4 1_555 1_555
C2 S2 1_555 1_555
C3 S1 1_555 1_555
C4 C5 1_555 1_555
C5 C6 1_555 1_555
C6 H9 1_555 1_555
C7 C5 1_555 1_555
C8 C5 1_555 1_555
C9 C2 1_555 1_555
C10 C9 1_555 1_555
C11 C10 1_555 1_555
C12 C10 1_555 1_555
C13 C10 1_555 1_555
C14 C9 1_555 1_555
C15 C3 1_555 1_555
C16 C15 1_555 1_555
C17 C16 1_555 1_555
C18 C17 1_555 1_555
C19 C18 1_555 1_555
C20 C15 1_555 1_555
C21 C14 1_555 1_555
C22 C21 1_555 1_555
C23 C22 1_555 1_555
C24 C23 1_555 1_555
C25 C24 1_555 1_555
C26 C21 1_555 1_555
H1 C3 1_555 1_555
H2 C4 1_555 1_555
H3 C14 1_555 1_555
H4 C16 1_555 1_555
H5 C17 1_555 1_555
H6 C18 1_555 1_555
H7 C19 1_555 1_555
H8 C20 1_555 1_555
H10 C6 1_555 1_555
H11 C6 1_555 1_555
H12 C7 1_555 1_555
H13 C7 1_555 1_555
H14 C7 1_555 1_555
H15 C8 1_555 1_555
H16 C8 1_555 1_555
H17 C8 1_555 1_555
H18 C11 1_555 1_555
H19 C11 1_555 1_555
H20 C11 1_555 1_555
H21 C12 1_555 1_555
H22 C12 1_555 1_555
H23 C12 1_555 1_555
H24 C13 1_555 1_555
H25 C13 1_555 1_555
H26 C13 1_555 1_555
H27 C22 1_555 1_555
H28 C23 1_555 1_555
H29 C24 1_555 1_555
H30 C25 1_555 1_555
H31 C26 1_555 1_555
N1 C3 1_555 1_555
C19 C20 1_555 1_555
C25 C26 1_555 1_555

#END
