
#######################################################################
#
#                 Cambridge Crystallographic Data Centre
#                                CCDC 
#
#######################################################################
#
# If this CIF has been generated from an entry in the Cambridge 
# Structural Database, then it will include bibliographic, chemical, 
# crystal, experimental, refinement or atomic coordinate data resulting 
# from the CCDC's data processing and validation procedures.
#
#######################################################################

data_ENOHIZ
_chemical_name_common            
1-Benzyl-3-(1-(benzylamino)-3-(trimethylsilyl)prop-2-yn-1-yl)-3-methyl-4-((trimethylsilyl)ethynyl)azetidine-2-thione
_chemical_formula_moiety         'C29 H38 N2 S1 Si2'
_chemical_name_systematic        
rel-(1'R,3S,4R)-1-benzyl-3-(N-benzylamino(trimethylsilylethinyl)methyl)-3-methyl-4-trimethylsilylethinyl-2-azetidinthione
_symmetry_cell_setting           triclinic
_symmetry_space_group_name_H-M   'P -1'
_symmetry_Int_Tables_number      2
_space_group_name_Hall           '-P 1'
loop_
_symmetry_equiv_pos_site_id
_symmetry_equiv_pos_as_xyz
1 x,y,z
2 -x,-y,-z
_cell_length_a                   10.231(1)
_cell_length_b                   11.439(1)
_cell_length_c                   14.661(1)
_cell_angle_alpha                67.72(1)
_cell_angle_beta                 78.44(1)
_cell_angle_gamma                87.65(1)
_cell_volume                     1554.35
_cell_formula_units_Z            2
loop_
_atom_site_label
_atom_site_type_symbol
_atom_site_fract_x
_atom_site_fract_y
_atom_site_fract_z
S1 S 0.5474(1) 0.24704(8) 0.93691(5)
Si1 Si 0.2602(1) -0.15148(8) 1.51084(6)
Si2 Si 0.2904(1) 0.46133(7) 1.37250(6)
N1 N 0.5607(2) 0.3123(2) 1.0947(2)
N2 N 0.6178(2) 0.0092(2) 1.1722(2)
C1 C 0.5183(3) 0.2410(2) 1.0521(2)
C2 C 0.4327(3) 0.1552(2) 1.1512(2)
C3 C 0.4956(3) 0.2356(2) 1.1993(2)
C4 C 0.6481(3) 0.4261(3) 1.0536(2)
C5 C 0.7701(3) 0.4070(3) 1.0997(2)
C6 C 0.8336(3) 0.2932(3) 1.1264(2)
C7 C 0.9482(3) 0.2802(3) 1.1660(3)
C8 C 0.9997(3) 0.3806(3) 1.1783(3)
C9 C 0.9376(4) 0.4926(3) 1.1529(3)
C10 C 0.8221(4) 0.5064(3) 1.1139(3)
C11 C 0.4710(3) 0.0155(2) 1.1879(2)
C12 C 0.4082(3) -0.0467(2) 1.2947(2)
C13 C 0.3518(3) -0.0919(3) 1.3805(2)
C14 C 0.0861(5) -0.1766(6) 1.5089(4)
C15 C 0.2802(7) -0.0357(4) 1.5653(3)
C16 C 0.3238(5) -0.3009(4) 1.5839(3)
C17 C 0.6618(3) -0.1206(3) 1.2167(3)
C18 C 0.2839(3) 0.1690(3) 1.1524(2)
C19 C 0.4121(3) 0.3060(2) 1.2521(2)
C20 C 0.3542(3) 0.3660(2) 1.2974(2)
C21 C 0.2552(4) 0.3549(3) 1.5060(3)
C22 C 0.1370(5) 0.5377(4) 1.3353(3)
C23 C 0.4237(4) 0.5812(3) 1.3457(2)
C24 C 0.8105(3) -0.1252(2) 1.1838(2)
C25 C 0.8620(4) -0.1534(3) 1.1024(3)
C26 C 0.9973(5) -0.1587(4) 1.0736(3)
C27 C 1.0798(4) -0.1391(4) 1.1265(4)
C28 C 1.0324(4) -0.1112(4) 1.2078(3)
C29 C 0.8964(4) -0.1033(3) 1.2369(2)
H1 H 0.563(2) 0.189(2) 1.243(2)
H2 H 0.800(3) 0.222(2) 1.118(2)
H3 H 0.991(3) 0.198(2) 1.188(2)
H4 H 1.079(3) 0.370(3) 1.206(2)
H5 H 0.967(3) 0.558(3) 1.171(2)
H6 H 0.775(3) 0.586(2) 1.099(2)
H7 H 0.4311(2) -0.026(2) 1.145(2)
loop_
_geom_bond_atom_site_label_1
_geom_bond_atom_site_label_2
_geom_bond_site_symmetry_1
_geom_bond_site_symmetry_2
S1 C1 1_555 1_555
Si1 C13 1_555 1_555
Si2 C20 1_555 1_555
N1 C1 1_555 1_555
N2 C11 1_555 1_555
C1 C2 1_555 1_555
C2 C3 1_555 1_555
C3 N1 1_555 1_555
C4 N1 1_555 1_555
C5 C4 1_555 1_555
C6 C5 1_555 1_555
C7 C6 1_555 1_555
C8 C7 1_555 1_555
C9 C8 1_555 1_555
C10 C5 1_555 1_555
C11 C2 1_555 1_555
C12 C11 1_555 1_555
C13 C12 1_555 1_555
C14 Si1 1_555 1_555
C15 Si1 1_555 1_555
C16 Si1 1_555 1_555
C17 N2 1_555 1_555
C18 C2 1_555 1_555
C19 C3 1_555 1_555
C20 C19 1_555 1_555
C21 Si2 1_555 1_555
C22 Si2 1_555 1_555
C23 Si2 1_555 1_555
C24 C17 1_555 1_555
C25 C24 1_555 1_555
C26 C25 1_555 1_555
C27 C26 1_555 1_555
C28 C27 1_555 1_555
C29 C24 1_555 1_555
H1 C3 1_555 1_555
H2 C6 1_555 1_555
H3 C7 1_555 1_555
H4 C8 1_555 1_555
H5 C9 1_555 1_555
H6 C10 1_555 1_555
H7 C11 1_555 1_555
C9 C10 1_555 1_555
C28 C29 1_555 1_555

#END
