
#######################################################################
#
#                 Cambridge Crystallographic Data Centre
#                                CCDC 
#
#######################################################################
#
# If this CIF has been generated from an entry in the Cambridge 
# Structural Database, then it will include bibliographic, chemical, 
# crystal, experimental, refinement or atomic coordinate data resulting 
# from the CCDC's data processing and validation procedures.
#
#######################################################################

data_ENONOM
_chemical_name_common            'Daedatrin A'
_chemical_formula_moiety         'C15 H19 N1 O4'
_chemical_name_systematic        
'4-(5-(2-Hydroxy-2-methylpropylidene)-2-oxo-2,5-dihydro-1H-pyrrol-3-yl)cyclohex-1-ene-1-carboxylic acid'
_symmetry_cell_setting           triclinic
_symmetry_space_group_name_H-M   'P -1'
_symmetry_Int_Tables_number      2
_space_group_name_Hall           '-P 1'
loop_
_symmetry_equiv_pos_site_id
_symmetry_equiv_pos_as_xyz
1 x,y,z
2 -x,-y,-z
_cell_length_a                   7.7149(2)
_cell_length_b                   9.7181(3)
_cell_length_c                   9.7739(3)
_cell_angle_alpha                95.4840(10)
_cell_angle_beta                 91.2320(10)
_cell_angle_gamma                108.2790(10)
_cell_volume                     691.601
_exptl_crystal_colour            colorless
_exptl_crystal_description       block
_cell_formula_units_Z            2
loop_
_atom_site_label
_atom_site_type_symbol
_atom_site_fract_x
_atom_site_fract_y
_atom_site_fract_z
O1 O 1.0603(3) 0.1789(3) 0.4560(3)
O2 O 0.0698(4) 0.6977(3) 0.0291(3)
H1 H -0.0250 0.7136 0.0006
O3 O 0.7898(3) 0.0021(3) 0.4455(3)
O4 O 0.2492(4) 0.2909(3) 0.0871(3)
C1 C 0.8859(5) 0.1318(4) 0.4329(4)
C2 C 0.7945(5) 0.2350(4) 0.3904(4)
C3 C 0.6026(5) 0.1946(4) 0.3986(4)
H2 H 0.5351 0.1026 0.4261
C4 C 0.5084(5) 0.3015(4) 0.3623(5)
H3 H 0.5054 0.3671 0.4455
H4 H 0.3807 0.2480 0.3288
C5 C 0.6082(5) 0.3921(4) 0.2508(4)
H5 H 0.6113 0.3225 0.1694
C6 C 0.5041(5) 0.4880(4) 0.2054(4)
C7 C 0.5352(5) 0.6324(4) 0.2246(4)
H6 H 0.6401 0.7017 0.2716
C8 C 0.3812(5) 0.6667(4) 0.1613(4)
C9 C 0.3561(5) 0.7968(4) 0.1591(4)
H7 H 0.4525 0.8785 0.2006
C10 C 0.1935(5) 0.8296(4) 0.0987(4)
C11 C 0.3257(5) 0.4210(4) 0.1258(4)
N1 N 0.2616(4) 0.5325(3) 0.1041(3)
H8 H 0.1571 0.5215 0.0593
C12 C 0.0964(5) 0.8860(4) 0.2152(4)
H9 H -0.0068 0.9109 0.1765
H10 H 0.1823 0.9730 0.2667
H11 H 0.0515 0.8104 0.2771
C13 C 0.2530(5) 0.9420(4) -0.0043(4)
H12 H 0.3228 0.9077 -0.0749
H13 H 0.3298 1.0351 0.0438
H14 H 0.1448 0.9554 -0.0481
C14 C 0.8047(5) 0.4716(4) 0.3021(4)
H15 H 0.8707 0.5278 0.2293
H16 H 0.8062 0.5414 0.3833
C15 C 0.9007(5) 0.3671(4) 0.3409(4)
H17 H 1.0287 0.3885 0.3327
loop_
_geom_bond_atom_site_label_1
_geom_bond_atom_site_label_2
_geom_bond_site_symmetry_1
_geom_bond_site_symmetry_2
O1 C1 1_555 1_555
O2 H1 1_555 1_555
O3 C1 1_555 1_555
O4 C11 1_555 1_555
C1 C2 1_555 1_555
C2 C3 1_555 1_555
C3 H2 1_555 1_555
C4 C3 1_555 1_555
H3 C4 1_555 1_555
H4 C4 1_555 1_555
C5 C4 1_555 1_555
H5 C5 1_555 1_555
C6 C5 1_555 1_555
C7 C6 1_555 1_555
H6 C7 1_555 1_555
C8 C7 1_555 1_555
C9 C8 1_555 1_555
H7 C9 1_555 1_555
C10 O2 1_555 1_555
C11 C6 1_555 1_555
N1 C8 1_555 1_555
H8 N1 1_555 1_555
C12 C10 1_555 1_555
H9 C12 1_555 1_555
H10 C12 1_555 1_555
H11 C12 1_555 1_555
C13 C10 1_555 1_555
H12 C13 1_555 1_555
H13 C13 1_555 1_555
H14 C13 1_555 1_555
C14 C5 1_555 1_555
H15 C14 1_555 1_555
H16 C14 1_555 1_555
C15 C2 1_555 1_555
H17 C15 1_555 1_555
C9 C10 1_555 1_555
C11 N1 1_555 1_555
C14 C15 1_555 1_555

#END
