
#######################################################################
#
#                 Cambridge Crystallographic Data Centre
#                                CCDC 
#
#######################################################################
#
# If this CIF has been generated from an entry in the Cambridge 
# Structural Database, then it will include bibliographic, chemical, 
# crystal, experimental, refinement or atomic coordinate data resulting 
# from the CCDC's data processing and validation procedures.
#
#######################################################################

data_ENOXUC
_chemical_formula_moiety         'C31 H23 B1 F2 N2 O2'
_chemical_name_systematic        
7,7-difluoro-5,9-bis(4-methoxyphenyl)-7H-8\l^5^,7\l^5^-isoindolo[2',1':3,4][1,3,2]diazaborinino[6,1-a]isoindole
_symmetry_cell_setting           triclinic
_symmetry_space_group_name_H-M   'P -1'
_symmetry_Int_Tables_number      2
_space_group_name_Hall           '-P 1'
loop_
_symmetry_equiv_pos_site_id
_symmetry_equiv_pos_as_xyz
1 x,y,z
2 -x,-y,-z
_cell_length_a                   10.2591(10)
_cell_length_b                   10.3442(10)
_cell_length_c                   12.7331(12)
_cell_angle_alpha                96.5350(10)
_cell_angle_beta                 104.5740(10)
_cell_angle_gamma                104.6180(10)
_cell_volume                     1242.56
_exptl_crystal_colour            colorless
_exptl_crystal_description       Prism
_cell_formula_units_Z            2
loop_
_atom_site_label
_atom_site_type_symbol
_atom_site_fract_x
_atom_site_fract_y
_atom_site_fract_z
B1 B 0.2291(3) 0.8698(2) 0.94247(17)
C1 C 0.4911(2) 0.3237(2) 1.1531(2)
H1 H 0.4731 0.3258 1.0757
H2 H 0.4948 0.2346 1.1651
H3 H 0.5795 0.3894 1.1933
F1 F 0.11145(17) 0.76018(12) 0.88898(10)
N1 N 0.22171(14) 0.91009(14) 1.06326(11)
O1 O 0.38117(15) 0.35551(13) 1.19064(12)
C2 C 0.34872(19) 0.47152(17) 1.16992(15)
F2 F 0.34879(17) 0.84016(17) 0.94136(12)
N2 N 0.22108(14) 0.99421(14) 0.88336(11)
O2 O 0.37156(17) 0.63647(16) 0.49967(13)
C3 C 0.42949(19) 0.57479(18) 1.13291(15)
H4 H 0.5107 0.5659 1.1168
C4 C 0.38911(18) 0.69166(18) 1.11983(14)
H5 H 0.4442 0.7608 1.0953
C5 C 0.26801(18) 0.70735(17) 1.14267(14)
C6 C 0.1866(2) 0.60035(19) 1.17752(17)
H6 H 0.1041 0.6077 1.1921
C7 C 0.2261(2) 0.48462(19) 1.19064(18)
H7 H 0.1701 0.4145 1.2136
C8 C 0.22882(17) 0.83440(17) 1.14351(14)
C9 C 0.19296(17) 0.89949(17) 1.23261(14)
C10 C 0.1873(2) 0.86707(19) 1.33612(15)
H8 H 0.2093 0.7900 1.3570
C11 C 0.1489(2) 0.9516(2) 1.40497(16)
H9 H 0.1439 0.9313 1.4734
C12 C 0.1166(2) 1.0687(2) 1.37446(15)
H10 H 0.0893 1.1235 1.4227
C13 C 0.12451(19) 1.10386(18) 1.27514(15)
H11 H 0.1048 1.1825 1.2561
C14 C 0.16303(17) 1.01817(17) 1.20324(14)
C15 C 0.18076(17) 1.02338(16) 1.09645(14)
C16 C 0.16300(17) 1.11660(17) 1.02925(14)
H12 H 0.1336 1.1895 1.0537
C17 C 0.18693(17) 1.10660(16) 0.92724(14)
C18 C 0.19174(17) 1.19912(17) 0.85278(14)
C19 C 0.16620(18) 1.32629(18) 0.85396(16)
H13 H 0.1425 1.3668 0.9126
C20 C 0.1773(2) 1.38897(19) 0.76585(17)
H14 H 0.1601 1.4730 0.7648
C21 C 0.2139(2) 1.3291(2) 0.67727(17)
H15 H 0.2197 1.3739 0.6186
C22 C 0.24134(19) 1.20607(19) 0.67530(16)
H16 H 0.2661 1.1674 0.6164
C23 C 0.23107(17) 1.13994(17) 0.76456(14)
C24 C 0.24824(17) 1.01225(17) 0.78659(14)
C25 C 0.28319(18) 0.91298(17) 0.71441(14)
C26 C 0.19533(19) 0.78066(18) 0.67263(15)
H17 H 0.1138 0.7515 0.6936
C27 C 0.2276(2) 0.69243(19) 0.60073(16)
H18 H 0.1670 0.6049 0.5725
C28 C 0.3501(2) 0.7334(2) 0.57026(16)
C29 C 0.4389(2) 0.8636(2) 0.61066(17)
H19 H 0.5213 0.8916 0.5906
C30 C 0.4043(2) 0.9526(2) 0.68150(16)
H20 H 0.4637 1.0409 0.7076
C31 C 0.4940(3) 0.6725(3) 0.4635(3)
H21 H 0.4935 0.7492 0.4276
H22 H 0.4946 0.5970 0.4125
H23 H 0.5764 0.6958 0.5260
loop_
_geom_bond_atom_site_label_1
_geom_bond_atom_site_label_2
_geom_bond_site_symmetry_1
_geom_bond_site_symmetry_2
B1 F1 1_555 1_555
C1 H1 1_555 1_555
H2 C1 1_555 1_555
H3 C1 1_555 1_555
N1 B1 1_555 1_555
O1 C1 1_555 1_555
C2 O1 1_555 1_555
F2 B1 1_555 1_555
N2 B1 1_555 1_555
O2 C28 1_555 1_555
C3 C2 1_555 1_555
H4 C3 1_555 1_555
C4 C3 1_555 1_555
H5 C4 1_555 1_555
C5 C4 1_555 1_555
C6 C5 1_555 1_555
H6 C6 1_555 1_555
C7 C2 1_555 1_555
H7 C7 1_555 1_555
C8 N1 1_555 1_555
C9 C8 1_555 1_555
C10 C9 1_555 1_555
H8 C10 1_555 1_555
C11 C10 1_555 1_555
H9 C11 1_555 1_555
C12 C11 1_555 1_555
H10 C12 1_555 1_555
C13 C12 1_555 1_555
H11 C13 1_555 1_555
C14 C9 1_555 1_555
C15 N1 1_555 1_555
C16 C15 1_555 1_555
H12 C16 1_555 1_555
C17 N2 1_555 1_555
C18 C17 1_555 1_555
C19 C18 1_555 1_555
H13 C19 1_555 1_555
C20 C19 1_555 1_555
H14 C20 1_555 1_555
C21 C20 1_555 1_555
H15 C21 1_555 1_555
C22 C21 1_555 1_555
H16 C22 1_555 1_555
C23 C18 1_555 1_555
C24 N2 1_555 1_555
C25 C24 1_555 1_555
C26 C25 1_555 1_555
H17 C26 1_555 1_555
C27 C26 1_555 1_555
H18 C27 1_555 1_555
C28 C27 1_555 1_555
C29 C28 1_555 1_555
H19 C29 1_555 1_555
C30 C25 1_555 1_555
H20 C30 1_555 1_555
C31 O2 1_555 1_555
H21 C31 1_555 1_555
H22 C31 1_555 1_555
H23 C31 1_555 1_555
C5 C8 1_555 1_555
C6 C7 1_555 1_555
C13 C14 1_555 1_555
C14 C15 1_555 1_555
C16 C17 1_555 1_555
C22 C23 1_555 1_555
C23 C24 1_555 1_555
C29 C30 1_555 1_555

#END
