
#######################################################################
#
#                 Cambridge Crystallographic Data Centre
#                                CCDC 
#
#######################################################################
#
# If this CIF has been generated from an entry in the Cambridge 
# Structural Database, then it will include bibliographic, chemical, 
# crystal, experimental, refinement or atomic coordinate data resulting 
# from the CCDC's data processing and validation procedures.
#
#######################################################################

data_ENOXIQ
_chemical_formula_moiety         'C31 H23 B1 F2 N2 O2'
_chemical_name_systematic        
7,7-difluoro-5,9-bis(3-methoxyphenyl)-7H-8\l^5^,7\l^5^-isoindolo[2',1':3,4][1,3,2]diazaborinino[6,1-a]isoindole
_symmetry_cell_setting           triclinic
_symmetry_space_group_name_H-M   'P -1'
_symmetry_Int_Tables_number      2
_space_group_name_Hall           '-P 1'
loop_
_symmetry_equiv_pos_site_id
_symmetry_equiv_pos_as_xyz
1 x,y,z
2 -x,-y,-z
_cell_length_a                   7.683(4)
_cell_length_b                   12.170(6)
_cell_length_c                   13.064(6)
_cell_angle_alpha                85.699(6)
_cell_angle_beta                 81.017(7)
_cell_angle_gamma                86.489(6)
_cell_volume                     1201.61
_exptl_crystal_colour            colorless
_exptl_crystal_description       block
_cell_formula_units_Z            2
loop_
_atom_site_label
_atom_site_type_symbol
_atom_site_fract_x
_atom_site_fract_y
_atom_site_fract_z
B1 B 0.2433(4) 0.1854(3) 0.0439(2)
C1 C 0.3259(3) 0.1011(2) 0.2240(2)
C2 C 0.3578(3) -0.0066(2) 0.2716(2)
C3 C 0.3992(4) -0.0438(3) 0.3701(2)
H1 H 0.4146 0.0057 0.4184
C4 C 0.4161(4) -0.1559(3) 0.3925(2)
H2 H 0.4418 -0.1821 0.4575
C5 C 0.3954(4) -0.2318(3) 0.3197(2)
H3 H 0.4041 -0.3070 0.3381
C6 C 0.3628(4) -0.1965(2) 0.2225(2)
H4 H 0.3535 -0.2471 0.1739
C7 C 0.3437(3) -0.0832(2) 0.1972(2)
C8 C 0.3051(3) -0.0207(2) 0.1068(2)
C9 C 0.2717(3) -0.0545(2) 0.0139(2)
H5 H 0.2867 -0.1293 0.0029
C10 C 0.2172(3) 0.0159(2) -0.0637(2)
C11 C 0.1858(3) -0.0033(2) -0.1645(2)
C12 C 0.1961(4) -0.1004(2) -0.2186(2)
H6 H 0.2282 -0.1686 -0.1879
C13 C 0.1572(4) -0.0907(3) -0.3179(2)
H7 H 0.1683 -0.1530 -0.3559
C14 C 0.1011(4) 0.0104(3) -0.3636(2)
H8 H 0.0713 0.0132 -0.4301
C15 C 0.0892(4) 0.1056(2) -0.3119(2)
H9 H 0.0520 0.1727 -0.3425
C16 C 0.1354(3) 0.0984(2) -0.2113(2)
C17 C 0.1382(3) 0.1797(2) -0.13837(18)
C18 C 0.3278(3) 0.2052(2) 0.27587(19)
C19 C 0.4084(3) 0.2989(2) 0.2251(2)
H10 H 0.4579 0.2984 0.1555
C20 C 0.4139(4) 0.3924(2) 0.2791(2)
C21 C 0.3421(4) 0.3935(3) 0.3826(2)
H11 H 0.3477 0.4561 0.4185
C22 C 0.2615(4) 0.3017(3) 0.4330(2)
H12 H 0.2125 0.3025 0.5027
C23 C 0.2540(4) 0.2083(2) 0.3795(2)
H13 H 0.1987 0.1470 0.4135
C24 C 0.5584(5) 0.4929(3) 0.1301(2)
H14 H 0.6541 0.4386 0.1178
H15 H 0.6007 0.5650 0.1093
H16 H 0.4680 0.4785 0.0905
C25 C 0.0950(3) 0.2986(2) -0.15895(19)
C26 C 0.1652(4) 0.3466(2) -0.2544(2)
H17 H 0.2415 0.3047 -0.3004
C27 C 0.1244(4) 0.4560(2) -0.2831(2)
C28 C 0.0095(4) 0.5186(3) -0.2154(2)
H18 H -0.0201 0.5918 -0.2340
C29 C -0.0597(4) 0.4711(3) -0.1206(2)
H19 H -0.1357 0.5135 -0.0749
C30 C -0.0201(4) 0.3617(2) -0.0905(2)
H20 H -0.0695 0.3311 -0.0260
C31 C 0.1936(6) 0.6088(3) -0.4060(3)
H21 H 0.0750 0.6312 -0.4157
H22 H 0.2725 0.6258 -0.4690
H23 H 0.2257 0.6475 -0.3508
F1 F 0.3876(2) 0.24656(13) 0.00501(12)
F2 F 0.1087(2) 0.25029(13) 0.09254(12)
N1 N 0.2963(3) 0.09159(17) 0.12541(15)
N2 N 0.1875(3) 0.12929(16) -0.05024(15)
O1 O 0.4889(3) 0.48761(18) 0.23631(16)
O2 O 0.2049(3) 0.49299(17) -0.38001(16)
loop_
_geom_bond_atom_site_label_1
_geom_bond_atom_site_label_2
_geom_bond_site_symmetry_1
_geom_bond_site_symmetry_2
B1 F1 1_555 1_555
C1 C2 1_555 1_555
C2 C3 1_555 1_555
C3 H1 1_555 1_555
C4 C3 1_555 1_555
H2 C4 1_555 1_555
C5 C4 1_555 1_555
H3 C5 1_555 1_555
C6 C5 1_555 1_555
H4 C6 1_555 1_555
C7 C2 1_555 1_555
C8 C7 1_555 1_555
C9 C8 1_555 1_555
H5 C9 1_555 1_555
C10 C9 1_555 1_555
C11 C10 1_555 1_555
C12 C11 1_555 1_555
H6 C12 1_555 1_555
C13 C12 1_555 1_555
H7 C13 1_555 1_555
C14 C13 1_555 1_555
H8 C14 1_555 1_555
C15 C14 1_555 1_555
H9 C15 1_555 1_555
C16 C11 1_555 1_555
C17 C16 1_555 1_555
C18 C1 1_555 1_555
C19 C18 1_555 1_555
H10 C19 1_555 1_555
C20 C19 1_555 1_555
C21 C20 1_555 1_555
H11 C21 1_555 1_555
C22 C21 1_555 1_555
H12 C22 1_555 1_555
C23 C18 1_555 1_555
H13 C23 1_555 1_555
C24 H14 1_555 1_555
H15 C24 1_555 1_555
H16 C24 1_555 1_555
C25 C17 1_555 1_555
C26 C25 1_555 1_555
H17 C26 1_555 1_555
C27 C26 1_555 1_555
C28 C27 1_555 1_555
H18 C28 1_555 1_555
C29 C28 1_555 1_555
H19 C29 1_555 1_555
C30 C25 1_555 1_555
H20 C30 1_555 1_555
C31 H21 1_555 1_555
H22 C31 1_555 1_555
H23 C31 1_555 1_555
F2 B1 1_555 1_555
N1 B1 1_555 1_555
N2 B1 1_555 1_555
O1 C20 1_555 1_555
O2 C27 1_555 1_555
C1 N1 1_555 1_555
C6 C7 1_555 1_555
C8 N1 1_555 1_555
C10 N2 1_555 1_555
C15 C16 1_555 1_555
C17 N2 1_555 1_555
C22 C23 1_555 1_555
C24 O1 1_555 1_555
C29 C30 1_555 1_555
C31 O2 1_555 1_555

#END
