
#######################################################################
#
#                 Cambridge Crystallographic Data Centre
#                                CCDC 
#
#######################################################################
#
# If this CIF has been generated from an entry in the Cambridge 
# Structural Database, then it will include bibliographic, chemical, 
# crystal, experimental, refinement or atomic coordinate data resulting 
# from the CCDC's data processing and validation procedures.
#
#######################################################################

data_ENUGUQ
_chemical_formula_moiety         'C22 H22 N2 O2'
_chemical_name_systematic        2,2'-Cyclohexane-1,2-diyldiisoindolin-1-one
_symmetry_cell_setting           monoclinic
_symmetry_space_group_name_H-M   'P 21/n'
_symmetry_Int_Tables_number      14
_space_group_name_Hall           '-P 2yn'
loop_
_symmetry_equiv_pos_site_id
_symmetry_equiv_pos_as_xyz
1 x,y,z
2 1/2-x,1/2+y,1/2-z
3 -x,-y,-z
4 1/2+x,1/2-y,1/2+z
_cell_length_a                   11.7852(4)
_cell_length_b                   10.1276(4)
_cell_length_c                   15.4341(7)
_cell_angle_alpha                90
_cell_angle_beta                 92.278(4)
_cell_angle_gamma                90
_cell_volume                     1840.69
_exptl_crystal_colour            colorless
_exptl_crystal_description       block
_cell_formula_units_Z            4
loop_
_atom_site_label
_atom_site_type_symbol
_atom_site_fract_x
_atom_site_fract_y
_atom_site_fract_z
C1 C 0.43084(17) 0.6098(3) 0.41176(14)
H1 H 0.4823 0.6370 0.3712
N1 N 0.25424(10) 0.14790(12) 0.67381(9)
C2 C 0.38764(14) 0.4850(2) 0.40781(11)
H2 H 0.4097 0.4259 0.3656
N2 N 0.18155(10) 0.33594(13) 0.54436(8)
O1 O 0.29751(9) 0.28849(13) 0.78653(9)
C3 C -0.06749(13) 0.1112(2) 0.67771(14)
H3 H -0.1146 0.0358 0.6907
H4 H -0.0834 0.1807 0.7187
C4 C 0.30906(11) 0.04511(15) 0.62368(10)
H5 H 0.3100 0.0681 0.5627
H6 H 0.2717 -0.0395 0.6299
O2 O 0.25678(10) 0.22435(12) 0.43091(8)
C5 C 0.24946(12) 0.32361(18) 0.47612(10)
C6 C -0.09613(14) 0.1585(2) 0.58730(15)
H7 H -0.1746 0.1874 0.5835
H8 H -0.0879 0.0861 0.5469
C7 C 0.42685(11) 0.04375(15) 0.66475(10)
C8 C 0.39912(18) 0.6951(2) 0.47488(16)
H9 H 0.4295 0.7798 0.4764
C9 C 0.32379(13) 0.20202(17) 0.73529(12)
C10 C 0.43432(11) 0.13639(15) 0.72915(10)
C11 C 0.10546(11) 0.23182(16) 0.57117(11)
H10 H 0.1158 0.1567 0.5322
C12 C 0.31021(12) 0.44885(16) 0.46823(10)
C13 C 0.19385(14) 0.46379(16) 0.58654(11)
H11 H 0.2225 0.4545 0.6460
H12 H 0.1222 0.5109 0.5859
C14 C 0.13437(11) 0.18428(16) 0.66245(10)
H13 H 0.1209 0.2581 0.7018
C15 C 0.53437(14) 0.15686(18) 0.77743(11)
H14 H 0.5386 0.2201 0.8211
C16 C 0.52020(13) -0.03301(17) 0.64649(11)
H15 H 0.5159 -0.0966 0.6030
C17 C 0.27840(13) 0.53280(16) 0.53194(10)
C18 C 0.05681(11) 0.07234(17) 0.68757(12)
H16 H 0.0743 0.0474 0.7473
H17 H 0.0705 -0.0037 0.6513
C19 C -0.01929(13) 0.27216(19) 0.56218(12)
H18 H -0.0325 0.3476 0.5992
H19 H -0.0375 0.2980 0.5027
C20 C 0.32267(17) 0.65891(18) 0.53695(13)
H20 H 0.3022 0.7173 0.5801
C21 C 0.62719(14) 0.0812(2) 0.75898(13)
H21 H 0.6954 0.0934 0.7903
C22 C 0.61975(14) -0.0124(2) 0.69459(13)
H22 H 0.6833 -0.0630 0.6832
loop_
_geom_bond_atom_site_label_1
_geom_bond_atom_site_label_2
_geom_bond_site_symmetry_1
_geom_bond_site_symmetry_2
C1 H1 1_555 1_555
N1 C4 1_555 1_555
C2 C1 1_555 1_555
H2 C2 1_555 1_555
N2 C5 1_555 1_555
O1 C9 1_555 1_555
C3 H3 1_555 1_555
H4 C3 1_555 1_555
C4 H5 1_555 1_555
H6 C4 1_555 1_555
O2 C5 1_555 1_555
C5 C12 1_555 1_555
C6 C3 1_555 1_555
H7 C6 1_555 1_555
H8 C6 1_555 1_555
C7 C4 1_555 1_555
C8 C1 1_555 1_555
H9 C8 1_555 1_555
C9 N1 1_555 1_555
C10 C7 1_555 1_555
C11 N2 1_555 1_555
H10 C11 1_555 1_555
C12 C2 1_555 1_555
C13 N2 1_555 1_555
H11 C13 1_555 1_555
H12 C13 1_555 1_555
C14 N1 1_555 1_555
H13 C14 1_555 1_555
C15 C10 1_555 1_555
H14 C15 1_555 1_555
C16 C7 1_555 1_555
H15 C16 1_555 1_555
C17 C12 1_555 1_555
C18 C3 1_555 1_555
H16 C18 1_555 1_555
H17 C18 1_555 1_555
C19 C6 1_555 1_555
H18 C19 1_555 1_555
H19 C19 1_555 1_555
C20 C8 1_555 1_555
H20 C20 1_555 1_555
C21 C15 1_555 1_555
H21 C21 1_555 1_555
C22 C16 1_555 1_555
H22 C22 1_555 1_555
C9 C10 1_555 1_555
C11 C14 1_555 1_555
C11 C19 1_555 1_555
C13 C17 1_555 1_555
C14 C18 1_555 1_555
C17 C20 1_555 1_555
C21 C22 1_555 1_555

#END
