
#######################################################################
#
#                 Cambridge Crystallographic Data Centre
#                                CCDC 
#
#######################################################################
#
# If this CIF has been generated from an entry in the Cambridge 
# Structural Database, then it will include bibliographic, chemical, 
# crystal, experimental, refinement or atomic coordinate data resulting 
# from the CCDC's data processing and validation procedures.
#
#######################################################################

data_ENUGOK
_chemical_name_common            
(S)-6,6'-Dibromo-2,2'-diethoxy-1,1'-binaphthyl
_chemical_formula_moiety         'C24 H20 Br2 O2'
_chemical_name_systematic        6,6'-Dibromo-2,2'-diethoxy-1,1'-binaphthalene
_symmetry_cell_setting           orthorhombic
_symmetry_space_group_name_H-M   'P 21 21 21'
_symmetry_Int_Tables_number      19
_space_group_name_Hall           'P 2ac 2ab'
loop_
_symmetry_equiv_pos_site_id
_symmetry_equiv_pos_as_xyz
1 x,y,z
2 1/2-x,-y,1/2+z
3 -x,1/2+y,1/2-z
4 1/2+x,1/2-y,-z
_cell_length_a                   7.4020(8)
_cell_length_b                   16.6206(18)
_cell_length_c                   17.3609(18)
_cell_angle_alpha                90
_cell_angle_beta                 90
_cell_angle_gamma                90
_cell_volume                     2135.84
_exptl_crystal_colour            colorless
_exptl_crystal_description       prism
_cell_formula_units_Z            4
loop_
_atom_site_label
_atom_site_type_symbol
_atom_site_fract_x
_atom_site_fract_y
_atom_site_fract_z
Br1 Br 0.84982(11) 0.20023(4) 0.85437(4)
Br2 Br 1.26130(13) 0.67535(4) 0.39040(5)
C1 C 0.8064(8) 0.2513(3) 0.7545(4)
C2 C 0.8118(7) 0.2115(3) 0.6831(4)
H1 H 0.8334 0.1564 0.6833
C3 C 0.7872(7) 0.2487(3) 0.6122(3)
C4 C 0.7973(7) 0.2090(3) 0.5348(4)
H2 H 0.8186 0.1538 0.5341
C5 C 0.7786(8) 0.2455(3) 0.4663(4)
H3 H 0.7893 0.2166 0.4207
C6 C 0.7427(7) 0.3275(3) 0.4652(3)
C7 C 0.7318(8) 0.3681(3) 0.5338(3)
C8 C 0.7542(7) 0.3301(3) 0.6097(3)
C9 C 0.7506(9) 0.3685(3) 0.6835(3)
H4 H 0.7290 0.4236 0.6838
C10 C 0.7760(9) 0.3318(3) 0.7560(4)
H5 H 0.7723 0.3608 0.8018
C11 C 0.7002(7) 0.4529(3) 0.5304(3)
C12 C 0.8325(9) 0.5040(3) 0.4976(3)
C13 C 0.9993(8) 0.4776(3) 0.4677(4)
H6 H 1.0254 0.4229 0.4703
C14 C 1.1243(9) 0.5268(3) 0.4352(4)
H7 H 1.2323 0.5070 0.4154
C15 C 1.0831(10) 0.6075(3) 0.4332(4)
C16 C 0.9313(10) 0.6352(3) 0.4644(4)
H8 H 0.9125 0.6906 0.4648
C17 C 0.7980(8) 0.5858(3) 0.4965(4)
C18 C 0.6350(10) 0.6138(3) 0.5260(4)
H9 H 0.6117 0.6688 0.5236
C19 C 0.5105(10) 0.5662(4) 0.5574(4)
H10 H 0.4043 0.5880 0.5770
C20 C 0.5398(9) 0.4845(3) 0.5608(4)
C21 C 0.2601(17) 0.4580(7) 0.6386(5)
H11 H 0.2109 0.5075 0.6177
H12 H 0.1679 0.4169 0.6330
C22 C 0.291(2) 0.4698(9) 0.7189(6)
H13 H 0.3795 0.4317 0.7367
H14 H 0.1806 0.4624 0.7467
H15 H 0.3355 0.5235 0.7274
C23 C 0.7786(11) 0.3333(5) 0.3214(4)
H16 H 0.7056 0.2873 0.3069
H17 H 0.9028 0.3155 0.3269
C24 C 0.7665(16) 0.3984(6) 0.2591(5)
H18 H 0.6419 0.4091 0.2476
H19 H 0.8269 0.3802 0.2134
H20 H 0.8231 0.4468 0.2773
O1 O 0.4149(6) 0.4346(2) 0.5911(3)
O2 O 0.7139(6) 0.3664(2) 0.3944(2)
loop_
_geom_bond_atom_site_label_1
_geom_bond_atom_site_label_2
_geom_bond_site_symmetry_1
_geom_bond_site_symmetry_2
Br1 C1 1_555 1_555
Br2 C15 1_555 1_555
C1 C2 1_555 1_555
C2 H1 1_555 1_555
C3 C2 1_555 1_555
C4 C3 1_555 1_555
H2 C4 1_555 1_555
C5 C4 1_555 1_555
H3 C5 1_555 1_555
C6 C5 1_555 1_555
C7 C6 1_555 1_555
C8 C3 1_555 1_555
C9 C8 1_555 1_555
H4 C9 1_555 1_555
C10 C1 1_555 1_555
H5 C10 1_555 1_555
C11 C7 1_555 1_555
C12 C11 1_555 1_555
C13 C12 1_555 1_555
H6 C13 1_555 1_555
C14 C13 1_555 1_555
H7 C14 1_555 1_555
C15 C14 1_555 1_555
C16 C15 1_555 1_555
H8 C16 1_555 1_555
C17 C12 1_555 1_555
C18 C17 1_555 1_555
H9 C18 1_555 1_555
C19 C18 1_555 1_555
H10 C19 1_555 1_555
C20 C11 1_555 1_555
C21 H11 1_555 1_555
H12 C21 1_555 1_555
C22 C21 1_555 1_555
H13 C22 1_555 1_555
H14 C22 1_555 1_555
H15 C22 1_555 1_555
C23 H16 1_555 1_555
H17 C23 1_555 1_555
C24 C23 1_555 1_555
H18 C24 1_555 1_555
H19 C24 1_555 1_555
H20 C24 1_555 1_555
O1 C20 1_555 1_555
O2 C6 1_555 1_555
C7 C8 1_555 1_555
C9 C10 1_555 1_555
C16 C17 1_555 1_555
C19 C20 1_555 1_555
C21 O1 1_555 1_555
C23 O2 1_555 1_555

#END
