
#######################################################################
#
#                 Cambridge Crystallographic Data Centre
#                                CCDC 
#
#######################################################################
#
# If this CIF has been generated from an entry in the Cambridge 
# Structural Database, then it will include bibliographic, chemical, 
# crystal, experimental, refinement or atomic coordinate data resulting 
# from the CCDC's data processing and validation procedures.
#
#######################################################################

data_ENUJED
_chemical_name_common            
"N'-(3-Phenylprop-2-en-1-ylidene)isonicotinohydrazide hemihydrate"
_chemical_formula_moiety         'C15 H13 N3 O1,0.5(H2 O1)'
_chemical_name_systematic        
"N'-(3-Phenylallylidene)isonicotinohydrazide hemihydrate"
_symmetry_cell_setting           monoclinic
_symmetry_space_group_name_H-M   'P c'
_symmetry_Int_Tables_number      7
_space_group_name_Hall           'P -2yc'
loop_
_symmetry_equiv_pos_site_id
_symmetry_equiv_pos_as_xyz
1 x,y,z
2 x,-y,1/2+z
_cell_length_a                   12.7035(13)
_cell_length_b                   11.0116(11)
_cell_length_c                   10.0708(10)
_cell_angle_alpha                90
_cell_angle_beta                 105.4380(10)
_cell_angle_gamma                90
_cell_volume                     1357.93
_exptl_crystal_colour            colorless
_exptl_crystal_description       block
_cell_formula_units_Z            4
loop_
_atom_site_label
_atom_site_type_symbol
_atom_site_fract_x
_atom_site_fract_y
_atom_site_fract_z
C1 C 0.4950(3) 0.2723(3) -0.4881(3)
H1 H 0.4506 0.2045 -0.5137
C2 C 0.5756(2) 0.2716(3) -0.3658(3)
H2 H 0.5855 0.2030 -0.3100
C3 C 0.6425(2) 0.3722(2) -0.3246(3)
C4 C 0.6252(2) 0.4736(3) -0.4096(3)
H3 H 0.6677 0.5427 -0.3833
C5 C 0.5449(3) 0.4725(3) -0.5332(3)
H4 H 0.5350 0.5402 -0.5903
C6 C 0.7272(2) 0.3698(2) -0.1934(3)
H5 H 0.7299 0.3007 -0.1396
N1 N 0.93311(17) 0.54420(19) 0.0374(2)
N2 N 0.99984(17) 0.53563(18) 0.1705(2)
H6 H 1.0103 0.4668 0.2123
C7 C 1.0477(2) 0.6361(2) 0.2326(3)
C8 C 1.1166(2) 0.6210(2) 0.3772(3)
C9 C 1.1917(2) 0.5285(2) 0.4169(3)
H7 H 1.1980 0.4681 0.3549
C10 C 1.2573(3) 0.5273(3) 0.5506(3)
H8 H 1.3085 0.4654 0.5759
C11 C 0.4797(2) 0.3721(4) -0.5723(3)
H9 H 0.4257 0.3719 -0.6553
C12 C 1.1774(3) 0.6965(3) 0.6050(3)
H10 H 1.1714 0.7544 0.6698
C13 C 1.1093(2) 0.7064(2) 0.4740(3)
H11 H 1.0593 0.7697 0.4513
N3 N 1.2515(2) 0.6089(3) 0.6444(2)
C14 C 0.8001(2) 0.4549(2) -0.1433(3)
H12 H 0.8037 0.5212 -0.1991
C15 C 0.8742(2) 0.4513(2) -0.0079(3)
H13 H 0.8792 0.3820 0.0463
O1 O 1.03652(18) 0.73642(16) 0.1771(2)
C16 C -0.2696(2) -0.2208(3) -0.1203(3)
H14 H -0.2880 -0.2983 -0.0972
C17 C -0.1950(2) -0.1553(2) -0.0211(3)
H15 H -0.1630 -0.1894 0.0647
C18 C -0.1685(2) -0.0392(2) -0.0508(3)
C19 C -0.2177(2) 0.0056(3) -0.1806(3)
H16 H -0.2032 0.0840 -0.2052
C20 C -0.2885(3) -0.0684(4) -0.2724(3)
H17 H -0.3194 -0.0377 -0.3602
C21 C -0.0965(2) 0.0449(2) 0.0501(3)
C22 C 0.1208(2) 0.0106(2) 0.3435(3)
H18 H 0.1401 -0.0679 0.3257
C23 C 0.1830(2) 0.0734(2) 0.4644(3)
H19 H 0.1638 0.1525 0.4804
C24 C 0.2670(2) 0.0215(2) 0.5537(3)
H20 H 0.2839 -0.0569 0.5322
C25 C 0.3363(2) 0.0718(3) 0.6814(3)
C26 C 0.4249(2) 0.0054(3) 0.7568(3)
H21 H 0.4383 -0.0710 0.7255
C27 C 0.4934(3) 0.0494(3) 0.8767(3)
H22 H 0.5529 0.0035 0.9245
C28 C 0.4740(3) 0.1617(3) 0.9263(3)
H23 H 0.5199 0.1920 1.0074
C29 C 0.3854(2) 0.2283(3) 0.8534(3)
H24 H 0.3712 0.3037 0.8865
C30 C 0.3176(2) 0.1848(3) 0.7326(3)
H25 H 0.2586 0.2314 0.6846
N4 N -0.3164(2) -0.1806(3) -0.2459(3)
N5 N -0.01905(17) -0.00833(18) 0.1528(2)
H26 H -0.0064 -0.0849 0.1507
N6 N 0.03889(17) 0.06215(18) 0.2603(2)
O2 O -0.10853(18) 0.15431(16) 0.0411(2)
O3 O 0.99102(18) 0.31965(16) 0.3141(2)
H27 H 0.9895 0.3190 0.3964
H28 H 0.9809 0.2497 0.2811
loop_
_geom_bond_atom_site_label_1
_geom_bond_atom_site_label_2
_geom_bond_site_symmetry_1
_geom_bond_site_symmetry_2
C1 H1 1_555 1_555
C2 C1 1_555 1_555
H2 C2 1_555 1_555
C3 C2 1_555 1_555
C4 C3 1_555 1_555
H3 C4 1_555 1_555
C5 C4 1_555 1_555
H4 C5 1_555 1_555
C6 C3 1_555 1_555
H5 C6 1_555 1_555
N1 N2 1_555 1_555
N2 H6 1_555 1_555
C7 N2 1_555 1_555
C8 C7 1_555 1_555
C9 C8 1_555 1_555
H7 C9 1_555 1_555
C10 C9 1_555 1_555
H8 C10 1_555 1_555
C11 C1 1_555 1_555
H9 C11 1_555 1_555
C12 H10 1_555 1_555
C13 C8 1_555 1_555
H11 C13 1_555 1_555
N3 C10 1_555 1_555
C14 C6 1_555 1_555
H12 C14 1_555 1_555
C15 N1 1_555 1_555
H13 C15 1_555 1_555
O1 C7 1_555 1_555
C16 H14 1_555 1_555
C17 C16 1_555 1_555
H15 C17 1_555 1_555
C18 C17 1_555 1_555
C19 C18 1_555 1_555
H16 C19 1_555 1_555
C20 C19 1_555 1_555
H17 C20 1_555 1_555
C21 C18 1_555 1_555
C22 H18 1_555 1_555
C23 C22 1_555 1_555
H19 C23 1_555 1_555
C24 C23 1_555 1_555
H20 C24 1_555 1_555
C25 C24 1_555 1_555
C26 C25 1_555 1_555
H21 C26 1_555 1_555
C27 C26 1_555 1_555
H22 C27 1_555 1_555
C28 C27 1_555 1_555
H23 C28 1_555 1_555
C29 C28 1_555 1_555
H24 C29 1_555 1_555
C30 C25 1_555 1_555
H25 C30 1_555 1_555
N4 C16 1_555 1_555
N5 C21 1_555 1_555
H26 N5 1_555 1_555
N6 C22 1_555 1_555
O2 C21 1_555 1_555
O3 H27 1_555 1_555
H28 O3 1_555 1_555
C5 C11 1_555 1_555
C12 C13 1_555 1_555
C12 N3 1_555 1_555
C14 C15 1_555 1_555
C20 N4 1_555 1_555
C29 C30 1_555 1_555
N5 N6 1_555 1_555

#END
