
#######################################################################
#
#                 Cambridge Crystallographic Data Centre
#                                CCDC 
#
#######################################################################
#
# If this CIF has been generated from an entry in the Cambridge 
# Structural Database, then it will include bibliographic, chemical, 
# crystal, experimental, refinement or atomic coordinate data resulting 
# from the CCDC's data processing and validation procedures.
#
#######################################################################

data_ENUXER
_chemical_formula_moiety         'C14 H14 O7,C4 H8 O1'
_chemical_name_systematic        
'6,7-Dihydroxy-2-methyl-4,12-dioxatetracyclo[7.3.3.0^1,9^.0^2,6^]pentadec-13-ene-5,11,15-trione tetrahydrofuran solvate'
_symmetry_cell_setting           orthorhombic
_symmetry_space_group_name_H-M   'P 21 21 21'
_symmetry_Int_Tables_number      19
_space_group_name_Hall           'P 2ac 2ab'
loop_
_symmetry_equiv_pos_site_id
_symmetry_equiv_pos_as_xyz
1 x,y,z
2 1/2-x,-y,1/2+z
3 -x,1/2+y,1/2-z
4 1/2+x,1/2-y,-z
_cell_length_a                   6.9000(7)
_cell_length_b                   11.8068(11)
_cell_length_c                   20.662(2)
_cell_angle_alpha                90
_cell_angle_beta                 90
_cell_angle_gamma                90
_cell_volume                     1683.27
_exptl_crystal_colour            colorless
_exptl_crystal_description       needle
_cell_formula_units_Z            4
_exptl_crystal_recrystallization_method hexanes/tetrahydrofuran
loop_
_atom_site_label
_atom_site_type_symbol
_atom_site_fract_x
_atom_site_fract_y
_atom_site_fract_z
O1 O 0.3369(3) 0.08021(18) 0.85105(10)
O2 O 0.1011(3) 0.02904(18) 0.78340(10)
O3 O -0.0714(3) 0.23900(18) 0.81509(10)
H1 H -0.1212 0.1883 0.7919
O4 O 0.2082(3) 0.21678(18) 0.70018(10)
H2 H 0.2089 0.2539 0.6655
O5 O 0.4373(3) 0.39659(18) 0.93373(9)
O6 O 0.3360(3) 0.58807(19) 0.74776(10)
O7 O 0.7316(3) 0.4653(2) 0.95534(10)
C1 C 0.1857(4) 0.1021(3) 0.81143(14)
C2 C 0.1337(4) 0.2288(3) 0.81346(14)
C3 C 0.2273(4) 0.2656(2) 0.87862(14)
C4 C 0.3985(5) 0.1814(3) 0.88473(15)
H3 H 0.5169 0.2131 0.8646
H4 H 0.4259 0.1646 0.9308
C5 C 0.0879(5) 0.2453(3) 0.93524(14)
H5 H 0.0530 0.1649 0.9370
H6 H -0.0293 0.2909 0.9291
H7 H 0.1511 0.2672 0.9759
C6 C 0.2129(4) 0.2925(3) 0.75350(14)
H8 H 0.1222 0.3564 0.7438
C7 C 0.4163(4) 0.3425(3) 0.76252(14)
H9 H 0.5094 0.2811 0.7723
H10 H 0.4581 0.3801 0.7220
C8 C 0.4155(4) 0.4282(2) 0.81777(14)
C9 C 0.3023(4) 0.3884(3) 0.87919(14)
C10 C 0.1496(4) 0.4775(3) 0.88975(15)
H11 H 0.0605 0.4763 0.9248
C11 C 0.1524(4) 0.5580(3) 0.84500(15)
H12 H 0.0688 0.6220 0.8443
C12 C 0.3029(4) 0.5344(3) 0.79672(14)
C13 C 0.6175(4) 0.4602(3) 0.84326(14)
H13 H 0.7179 0.4109 0.8238
H14 H 0.6480 0.5400 0.8327
C14 C 0.6096(4) 0.4436(3) 0.91533(14)
O8 O 0.1305(4) 0.2897(2) 0.57743(11)
C15 C 0.0753(5) 0.4069(3) 0.57486(18)
H15 H -0.0111 0.4261 0.6115
H16 H 0.0072 0.4239 0.5338
C16 C 0.2645(5) 0.4734(3) 0.57921(17)
H17 H 0.2845 0.5027 0.6236
H18 H 0.2639 0.5379 0.5486
C17 C 0.4224(6) 0.3883(3) 0.56135(17)
H19 H 0.5035 0.4167 0.5253
H20 H 0.5064 0.3712 0.5989
C18 C 0.3056(6) 0.2847(3) 0.54094(19)
H21 H 0.2777 0.2869 0.4940
H22 H 0.3777 0.2142 0.5508
loop_
_geom_bond_atom_site_label_1
_geom_bond_atom_site_label_2
_geom_bond_site_symmetry_1
_geom_bond_site_symmetry_2
O1 C1 1_555 1_555
O2 C1 1_555 1_555
O3 H1 1_555 1_555
O4 H2 1_555 1_555
O5 C9 1_555 1_555
O6 C12 1_555 1_555
O7 C14 1_555 1_555
C1 C2 1_555 1_555
C2 O3 1_555 1_555
C3 C2 1_555 1_555
C4 O1 1_555 1_555
H3 C4 1_555 1_555
H4 C4 1_555 1_555
C5 C3 1_555 1_555
H5 C5 1_555 1_555
H6 C5 1_555 1_555
H7 C5 1_555 1_555
C6 O4 1_555 1_555
H8 C6 1_555 1_555
C7 C6 1_555 1_555
H9 C7 1_555 1_555
H10 C7 1_555 1_555
C8 C7 1_555 1_555
C9 C3 1_555 1_555
C10 C9 1_555 1_555
H11 C10 1_555 1_555
C11 C10 1_555 1_555
H12 C11 1_555 1_555
C12 C8 1_555 1_555
C13 C8 1_555 1_555
H13 C13 1_555 1_555
H14 C13 1_555 1_555
C14 O5 1_555 1_555
O8 C15 1_555 1_555
C15 H15 1_555 1_555
H16 C15 1_555 1_555
C16 C15 1_555 1_555
H17 C16 1_555 1_555
H18 C16 1_555 1_555
C17 C16 1_555 1_555
H19 C17 1_555 1_555
H20 C17 1_555 1_555
C18 O8 1_555 1_555
H21 C18 1_555 1_555
H22 C18 1_555 1_555
C2 C6 1_555 1_555
C3 C4 1_555 1_555
C8 C9 1_555 1_555
C11 C12 1_555 1_555
C13 C14 1_555 1_555
C17 C18 1_555 1_555

#END
