
#######################################################################
#
#                 Cambridge Crystallographic Data Centre
#                                CCDC 
#
#######################################################################
#
# If this CIF has been generated from an entry in the Cambridge 
# Structural Database, then it will include bibliographic, chemical, 
# crystal, experimental, refinement or atomic coordinate data resulting 
# from the CCDC's data processing and validation procedures.
#
#######################################################################

data_EPACUV
_chemical_formula_moiety         'C24 H20 N2 O2'
_chemical_name_systematic        
3-benzoyl-1-phenyl-1,5,6,10b-tetrahydropyrazolo[5,1-a]isoquinolin-2(3H)-one
_symmetry_cell_setting           orthorhombic
_symmetry_space_group_name_H-M   'P 21 21 21'
_symmetry_Int_Tables_number      19
_space_group_name_Hall           'P 2ac 2ab'
loop_
_symmetry_equiv_pos_site_id
_symmetry_equiv_pos_as_xyz
1 x,y,z
2 1/2-x,-y,1/2+z
3 1/2+x,1/2-y,-z
4 -x,1/2+y,1/2-z
_cell_length_a                   7.6135(8)
_cell_length_b                   13.282(2)
_cell_length_c                   18.5374(11)
_cell_angle_alpha                90
_cell_angle_beta                 90
_cell_angle_gamma                90
_cell_volume                     1874.55
_exptl_crystal_colour            colorless
_exptl_crystal_description       block
_chemical_melting_point          '568.15 K'
_cell_formula_units_Z            4
loop_
_atom_site_label
_atom_site_type_symbol
_atom_site_fract_x
_atom_site_fract_y
_atom_site_fract_z
O1 O 0.7821(6) 0.7445(4) 0.00936(17)
O2 O 0.5300(5) 0.4726(2) -0.03810(15)
N1 N 0.5804(5) 0.6470(3) 0.10307(17)
N2 N 0.6051(5) 0.6136(3) 0.03010(17)
C1 C 0.7288(6) 0.6138(4) 0.1477(2)
H1 H 0.8376 0.6419 0.1295
H2 H 0.7379 0.5409 0.1468
C2 C 0.6961(7) 0.6500(4) 0.2243(2)
H3 H 0.7840 0.6210 0.2560
H4 H 0.7090 0.7226 0.2259
C3 C 0.5172(8) 0.6222(4) 0.2513(2)
C4 C 0.4791(8) 0.6241(4) 0.3252(2)
H5 H 0.5673 0.6403 0.3579
C5 C 0.3130(8) 0.6022(4) 0.3503(3)
H6 H 0.2891 0.6050 0.3994
C6 C 0.1841(8) 0.5765(4) 0.3028(2)
H7 H 0.0727 0.5600 0.3196
C7 C 0.2191(7) 0.5748(4) 0.2299(2)
H8 H 0.1299 0.5582 0.1977
C8 C 0.3838(6) 0.5973(4) 0.2038(2)
C9 C 0.4146(7) 0.5971(4) 0.1230(2)
H9 H 0.3185 0.6349 0.1006
C10 C 0.4232(7) 0.4933(4) 0.0861(2)
H10 H 0.4982 0.4491 0.1151
C11 C 0.5198(6) 0.5197(4) 0.0175(2)
C12 C 0.7018(8) 0.6743(4) -0.0156(3)
C13 C 0.7028(8) 0.6539(4) -0.0945(2)
C14 C 0.8620(8) 0.6422(4) -0.1281(3)
H11 H 0.9650 0.6412 -0.1011
C15 C 0.8689(9) 0.6319(5) -0.2030(3)
H12 H 0.9762 0.6217 -0.2259
C16 C 0.7187(10) 0.6367(4) -0.2424(3)
H13 H 0.7245 0.6321 -0.2924
C17 C 0.5588(9) 0.6483(4) -0.2095(3)
H14 H 0.4571 0.6514 -0.2373
C18 C 0.5481(8) 0.6553(4) -0.1344(2)
H15 H 0.4397 0.6608 -0.1116
C19 C 0.2524(7) 0.4405(4) 0.0727(2)
C20 C 0.1200(6) 0.4838(4) 0.0317(2)
H16 H 0.1354 0.5477 0.0121
C21 C -0.0366(8) 0.4314(5) 0.0198(3)
H17 H -0.1257 0.4616 -0.0069
C22 C -0.0609(9) 0.3368(5) 0.0467(3)
H18 H -0.1649 0.3022 0.0380
C23 C 0.0695(10) 0.2936(5) 0.0867(3)
H19 H 0.0536 0.2293 0.1054
C24 C 0.2255(8) 0.3445(4) 0.0999(3)
H20 H 0.3129 0.3139 0.1272
loop_
_geom_bond_atom_site_label_1
_geom_bond_atom_site_label_2
_geom_bond_site_symmetry_1
_geom_bond_site_symmetry_2
O1 C12 1_555 1_555
O2 C11 1_555 1_555
N1 N2 1_555 1_555
N2 C11 1_555 1_555
C1 N1 1_555 1_555
H1 C1 1_555 1_555
H2 C1 1_555 1_555
C2 C1 1_555 1_555
H3 C2 1_555 1_555
H4 C2 1_555 1_555
C3 C2 1_555 1_555
C4 C3 1_555 1_555
H5 C4 1_555 1_555
C5 C4 1_555 1_555
H6 C5 1_555 1_555
C6 C5 1_555 1_555
H7 C6 1_555 1_555
C7 C6 1_555 1_555
H8 C7 1_555 1_555
C8 C3 1_555 1_555
C9 N1 1_555 1_555
H9 C9 1_555 1_555
C10 C9 1_555 1_555
H10 C10 1_555 1_555
C11 C10 1_555 1_555
C12 N2 1_555 1_555
C13 C12 1_555 1_555
C14 C13 1_555 1_555
H11 C14 1_555 1_555
C15 C14 1_555 1_555
H12 C15 1_555 1_555
C16 C15 1_555 1_555
H13 C16 1_555 1_555
C17 C16 1_555 1_555
H14 C17 1_555 1_555
C18 C13 1_555 1_555
H15 C18 1_555 1_555
C19 C10 1_555 1_555
C20 C19 1_555 1_555
H16 C20 1_555 1_555
C21 C20 1_555 1_555
H17 C21 1_555 1_555
C22 C21 1_555 1_555
H18 C22 1_555 1_555
C23 C22 1_555 1_555
H19 C23 1_555 1_555
C24 C19 1_555 1_555
H20 C24 1_555 1_555
C7 C8 1_555 1_555
C8 C9 1_555 1_555
C17 C18 1_555 1_555
C23 C24 1_555 1_555

#END
