
#######################################################################
#
#                 Cambridge Crystallographic Data Centre
#                                CCDC 
#
#######################################################################
#
# If this CIF has been generated from an entry in the Cambridge 
# Structural Database, then it will include bibliographic, chemical, 
# crystal, experimental, refinement or atomic coordinate data resulting 
# from the CCDC's data processing and validation procedures.
#
#######################################################################

data_EPAMUE03
_chemical_formula_moiety         'C24 H33 N1 O1'
_chemical_name_systematic        
1-(4-(decyloxy)phenyl)-N-(4-methylphenyl)methanimine
_symmetry_cell_setting           triclinic
_symmetry_space_group_name_H-M   'P -1'
_symmetry_Int_Tables_number      2
_space_group_name_Hall           '-P 1'
loop_
_symmetry_equiv_pos_site_id
_symmetry_equiv_pos_as_xyz
1 x,y,z
2 -x,-y,-z
_cell_length_a                   5.886(4)
_cell_length_b                   8.244(6)
_cell_length_c                   22.856(15)
_cell_angle_alpha                91.490(14)
_cell_angle_beta                 93.117(13)
_cell_angle_gamma                103.342(15)
_cell_volume                     1076.69
_exptl_crystal_description       plate
_cell_formula_units_Z            2
loop_
_atom_site_label
_atom_site_type_symbol
_atom_site_fract_x
_atom_site_fract_y
_atom_site_fract_z
O1 O 0.4243(6) 0.7306(4) 0.02932(13)
N1 N -0.2699(7) 0.4730(5) -0.19268(16)
C1 C -0.4348(9) 0.4435(7) -0.24034(19)
C2 C -0.6194(10) 0.5178(7) -0.2498(2)
H1 H -0.6421 0.5974 -0.2226
C3 C -0.7718(10) 0.4770(8) -0.2989(2)
H2 H -0.8936 0.5307 -0.3044
C4 C -0.7453(11) 0.3565(8) -0.3402(2)
C5 C -0.5635(11) 0.2854(8) -0.3308(2)
H3 H -0.5391 0.2072 -0.3584
C6 C -0.4118(10) 0.3243(7) -0.2816(2)
H4 H -0.2916 0.2691 -0.2763
C7 C -0.9143(11) 0.3159(9) -0.3941(2)
H5 H -1.0722 0.2934 -0.3823
H6 H -0.8889 0.2196 -0.4149
H7 H -0.8885 0.4092 -0.4192
C8 C -0.2620(9) 0.5883(7) -0.1548(2)
H8 H -0.3728 0.6522 -0.1583
C9 C -0.0884(8) 0.6258(6) -0.10603(18)
C10 C -0.0907(9) 0.7490(6) -0.0643(2)
H9 H -0.2076 0.8079 -0.0674
C11 C 0.0752(9) 0.7870(6) -0.01819(19)
H10 H 0.0689 0.8698 0.0097
C12 C 0.2498(8) 0.7023(6) -0.01362(16)
C13 C 0.2526(8) 0.5774(6) -0.05450(18)
H11 H 0.3690 0.5181 -0.0510
C14 C 0.0884(8) 0.5393(6) -0.09982(18)
H12 H 0.0938 0.4547 -0.1270
C15 C 0.4305(8) 0.8522(6) 0.07481(18)
H13 H 0.2893 0.8241 0.0961
H14 H 0.4416 0.9611 0.0586
C16 C 0.6412(8) 0.8541(6) 0.11510(18)
H15 H 0.6264 0.7440 0.1307
H16 H 0.7791 0.8771 0.0925
C17 C 0.6763(9) 0.9793(6) 0.16514(19)
H17 H 0.5403 0.9552 0.1884
H18 H 0.6893 1.0895 0.1498
C18 C 0.8921(9) 0.9796(7) 0.20404(19)
H19 H 0.8815 0.8674 0.2173
H20 H 1.0274 1.0078 0.1807
C19 C 0.9320(10) 1.0966(7) 0.2566(2)
H21 H 0.7931 1.0735 0.2788
H22 H 0.9542 1.2099 0.2435
C20 C 1.1407(10) 1.0853(7) 0.2967(2)
H23 H 1.2827 1.1316 0.2774
H24 H 1.1359 0.9687 0.3030
C21 C 1.151(4) 1.176(3) 0.3561(7)
H25 H 1.1598 1.2934 0.3498
H26 H 1.0073 1.1320 0.3749
C22 C 1.354(4) 1.162(3) 0.3965(7)
H27 H 1.3398 1.0449 0.4036
H28 H 1.4957 1.2005 0.3763
C23 C 1.381(4) 1.247(3) 0.4504(8)
H29 H 1.2481 1.1953 0.4720
H30 H 1.3636 1.3592 0.4426
C24 C 1.593(3) 1.268(2) 0.4918(8)
H31 H 1.7260 1.3340 0.4744
H32 H 1.6203 1.1600 0.4999
H33 H 1.5670 1.3220 0.5277
H34? H 1.1112 0.9744 0.3121
H35? H 1.2758 1.0975 0.2733
C25? C 1.202(3) 1.210(3) 0.3475(7)
H36? H 1.0700 1.1983 0.3719
H37? H 1.2350 1.3220 0.3329
C26? C 1.417(4) 1.186(3) 0.3849(9)
H38? H 1.5552 1.2117 0.3623
H39? H 1.3931 1.0706 0.3960
C27? C 1.455(4) 1.302(3) 0.4405(7)
H40? H 1.3195 1.2806 0.4641
H41? H 1.4945 1.4192 0.4312
C28? C 1.679(5) 1.242(3) 0.4724(11)
H42? H 1.7576 1.1938 0.4433
H43? H 1.6239 1.1615 0.5009
H44? H 1.7858 1.3373 0.4914
loop_
_geom_bond_atom_site_label_1
_geom_bond_atom_site_label_2
_geom_bond_site_symmetry_1
_geom_bond_site_symmetry_2
O1 C12 1_555 1_555
N1 C1 1_555 1_555
C1 C2 1_555 1_555
C2 H1 1_555 1_555
C3 C2 1_555 1_555
H2 C3 1_555 1_555
C4 C3 1_555 1_555
C5 C4 1_555 1_555
H3 C5 1_555 1_555
C6 C1 1_555 1_555
H4 C6 1_555 1_555
C7 C4 1_555 1_555
H5 C7 1_555 1_555
H6 C7 1_555 1_555
H7 C7 1_555 1_555
C8 N1 1_555 1_555
H8 C8 1_555 1_555
C9 C8 1_555 1_555
C10 C9 1_555 1_555
H9 C10 1_555 1_555
C11 C10 1_555 1_555
H10 C11 1_555 1_555
C12 C11 1_555 1_555
C13 C12 1_555 1_555
H11 C13 1_555 1_555
C14 C9 1_555 1_555
H12 C14 1_555 1_555
C15 O1 1_555 1_555
H13 C15 1_555 1_555
H14 C15 1_555 1_555
C16 C15 1_555 1_555
H15 C16 1_555 1_555
H16 C16 1_555 1_555
C17 C16 1_555 1_555
H17 C17 1_555 1_555
H18 C17 1_555 1_555
C18 C17 1_555 1_555
H19 C18 1_555 1_555
H20 C18 1_555 1_555
C19 C18 1_555 1_555
H21 C19 1_555 1_555
H22 C19 1_555 1_555
C20 C19 1_555 1_555
H23 C20 1_555 1_555
H24 C20 1_555 1_555
C21 C20 1_555 1_555
H25 C21 1_555 1_555
H26 C21 1_555 1_555
C22 C21 1_555 1_555
H27 C22 1_555 1_555
H28 C22 1_555 1_555
C23 C22 1_555 1_555
H29 C23 1_555 1_555
H30 C23 1_555 1_555
C24 C23 1_555 1_555
H31 C24 1_555 1_555
H32 C24 1_555 1_555
H33 C24 1_555 1_555
C5 C6 1_555 1_555
C13 C14 1_555 1_555

#END
