
#######################################################################
#
#                 Cambridge Crystallographic Data Centre
#                                CCDC 
#
#######################################################################
#
# If this CIF has been generated from an entry in the Cambridge 
# Structural Database, then it will include bibliographic, chemical, 
# crystal, experimental, refinement or atomic coordinate data resulting 
# from the CCDC's data processing and validation procedures.
#
#######################################################################

data_EPAMUE02
_chemical_formula_moiety         'C24 H33 N1 O1'
_chemical_name_systematic        
1-(4-(decyloxy)phenyl)-N-(4-methylphenyl)methanimine
_symmetry_cell_setting           triclinic
_symmetry_space_group_name_H-M   'P -1'
_symmetry_Int_Tables_number      2
_space_group_name_Hall           '-P 1'
loop_
_symmetry_equiv_pos_site_id
_symmetry_equiv_pos_as_xyz
1 x,y,z
2 -x,-y,-z
_cell_length_a                   5.8984(2)
_cell_length_b                   8.2787(3)
_cell_length_c                   22.8131(8)
_cell_angle_alpha                91.021(2)
_cell_angle_beta                 92.938(2)
_cell_angle_gamma                103.360(2)
_cell_volume                     1081.91
_exptl_crystal_colour            colorless
_exptl_crystal_description       plate
_cell_formula_units_Z            2
loop_
_atom_site_label
_atom_site_type_symbol
_atom_site_fract_x
_atom_site_fract_y
_atom_site_fract_z
O1 O 0.4255(2) 0.72970(16) 0.02946(6)
N1 N -0.2672(3) 0.4769(2) -0.19286(7)
C1 C -0.4340(3) 0.4447(2) -0.24068(8)
C2 C -0.6192(4) 0.5188(3) -0.25033(10)
H1 H -0.6422 0.5979 -0.2232
C3 C -0.7699(4) 0.4786(3) -0.29899(10)
H2 H -0.8928 0.5310 -0.3040
C4 C -0.7438(4) 0.3628(3) -0.34047(9)
C5 C -0.5604(4) 0.2865(3) -0.33047(10)
H3 H -0.5391 0.2063 -0.3574
C6 C -0.4091(4) 0.3264(3) -0.28179(10)
H4 H -0.2877 0.2728 -0.2764
C7 C -0.2610(3) 0.5899(2) -0.15517(9)
H5 H -0.3721 0.6531 -0.1587
C8 C -0.0875(3) 0.6268(2) -0.10608(8)
C9 C -0.0909(3) 0.7490(2) -0.06409(9)
H6 H -0.2086 0.8067 -0.0670
C10 C 0.0752(4) 0.7876(2) -0.01810(9)
H7 H 0.0696 0.8706 0.0094
C11 C 0.2505(3) 0.7017(2) -0.01329(8)
C12 C 0.2546(3) 0.5765(2) -0.05461(8)
H8 H 0.3712 0.5179 -0.0514
C13 C 0.0883(3) 0.5394(2) -0.09987(8)
H9 H 0.0922 0.4548 -0.1269
C14 C 0.4308(4) 0.8509(2) 0.07541(9)
H10 H 0.2906 0.8215 0.0971
H11 H 0.4399 0.9594 0.0591
C15 C 0.6405(4) 0.8537(2) 0.11492(8)
H12 H 0.7776 0.8775 0.0919
H13 H 0.6274 0.7442 0.1308
C16 C 0.6753(4) 0.9794(2) 0.16521(9)
H14 H 0.5388 0.9562 0.1884
H15 H 0.6907 1.0894 0.1496
C17 C 0.8896(4) 0.9770(3) 0.20442(9)
H16 H 0.8761 0.8651 0.2181
H17 H 1.0255 1.0034 0.1811
C18 C 0.9305(4) 1.0949(3) 0.25700(9)
H18 H 0.7923 1.0721 0.2796
H19 H 0.9524 1.2076 0.2434
C19 C 1.1386(4) 1.0838(3) 0.29664(9)
H20 H 1.1216 0.9691 0.3074
H21 H 1.2774 1.1141 0.2745
C20 C 1.1766(5) 1.1904(3) 0.35199(11)
H22 H 1.179(8) 1.302(5) 0.3413(18)
H23 H 1.034(7) 1.139(5) 0.3770(18)
C21 C -0.9090(5) 0.3213(4) -0.39430(11)
H24 H -1.0634 0.3257 -0.3842
H25 H -0.9099 0.2117 -0.4089
H26 H -0.8584 0.4003 -0.4240
C22 C 1.6616(19) 1.2627(9) 0.4772(5)
H27 H 1.7925 1.2868 0.4529
H28 H 1.6332 1.1487 0.4883
H29 H 1.6947 1.3336 0.5119
C23 C 1.4401(14) 1.2935(11) 0.4424(3)
H30 H 1.3045 1.2653 0.4658
H31 H 1.4639 1.4091 0.4320
C24 C 1.4072(15) 1.1823(9) 0.3879(3)
H32 H 1.4004 1.0688 0.3991
H33 H 1.5392 1.2171 0.3637
H34? H 1.2262 1.3054 0.3411
H35? H 1.0274 1.1779 0.3695
C25? C 1.344(2) 1.1586(12) 0.3966(4)
H36? H 1.3023 1.0404 0.4035
H37? H 1.4945 1.1809 0.3793
C26? C 1.380(2) 1.241(2) 0.4529(5)
H38? H 1.2470 1.1891 0.4748
H39? H 1.3658 1.3536 0.4462
C27? C 1.582(2) 1.2560(10) 0.4930(5)
H40? H 1.7113 1.3358 0.4788
H41? H 1.6221 1.1502 0.4958
H42? H 1.5478 1.2920 0.5311
loop_
_geom_bond_atom_site_label_1
_geom_bond_atom_site_label_2
_geom_bond_site_symmetry_1
_geom_bond_site_symmetry_2
O1 C11 1_555 1_555
N1 C1 1_555 1_555
C1 C2 1_555 1_555
C2 H1 1_555 1_555
C3 C2 1_555 1_555
H2 C3 1_555 1_555
C4 C3 1_555 1_555
C5 C4 1_555 1_555
H3 C5 1_555 1_555
C6 C1 1_555 1_555
H4 C6 1_555 1_555
C7 N1 1_555 1_555
H5 C7 1_555 1_555
C8 C7 1_555 1_555
C9 C8 1_555 1_555
H6 C9 1_555 1_555
C10 C9 1_555 1_555
H7 C10 1_555 1_555
C11 C10 1_555 1_555
C12 C11 1_555 1_555
H8 C12 1_555 1_555
C13 C8 1_555 1_555
H9 C13 1_555 1_555
C14 O1 1_555 1_555
H10 C14 1_555 1_555
H11 C14 1_555 1_555
C15 C14 1_555 1_555
H12 C15 1_555 1_555
H13 C15 1_555 1_555
C16 C15 1_555 1_555
H14 C16 1_555 1_555
H15 C16 1_555 1_555
C17 C16 1_555 1_555
H16 C17 1_555 1_555
H17 C17 1_555 1_555
C18 C17 1_555 1_555
H18 C18 1_555 1_555
H19 C18 1_555 1_555
C19 C18 1_555 1_555
H20 C19 1_555 1_555
H21 C19 1_555 1_555
C20 C19 1_555 1_555
H22 C20 1_555 1_555
H23 C20 1_555 1_555
C21 C4 1_555 1_555
H24 C21 1_555 1_555
H25 C21 1_555 1_555
H26 C21 1_555 1_555
C22 H27 1_555 1_555
H28 C22 1_555 1_555
H29 C22 1_555 1_555
C23 C22 1_555 1_555
H30 C23 1_555 1_555
H31 C23 1_555 1_555
C24 C20 1_555 1_555
H32 C24 1_555 1_555
H33 C24 1_555 1_555
C5 C6 1_555 1_555
C12 C13 1_555 1_555
C23 C24 1_555 1_555

#END
