
#######################################################################
#
#                 Cambridge Crystallographic Data Centre
#                                CCDC 
#
#######################################################################
#
# If this CIF has been generated from an entry in the Cambridge 
# Structural Database, then it will include bibliographic, chemical, 
# crystal, experimental, refinement or atomic coordinate data resulting 
# from the CCDC's data processing and validation procedures.
#
#######################################################################

data_EPEHUD
_chemical_formula_moiety         'C72 H84 S10,3(C1 H1 Cl3)'
_chemical_name_systematic        
'1^3^,1^4^,4^3^,4^4^,6^3^,6^4^,9^3^,9^4^-octabutyl-1,2,3,4,5,6,7,8,9,10(2,5)-decathiophenacyclodecaphane chloroform solvate'
_symmetry_cell_setting           triclinic
_symmetry_space_group_name_H-M   'P -1'
_symmetry_Int_Tables_number      2
_space_group_name_Hall           '-P 1'
loop_
_symmetry_equiv_pos_site_id
_symmetry_equiv_pos_as_xyz
1 x,y,z
2 -x,-y,-z
_cell_length_a                   11.0629(4)
_cell_length_b                   13.6610(5)
_cell_length_c                   15.0564(6)
_cell_angle_alpha                93.282(2)
_cell_angle_beta                 107.469(2)
_cell_angle_gamma                106.870(2)
_cell_volume                     2050.98
_exptl_crystal_colour            red
_exptl_crystal_description       triangular
_cell_formula_units_Z            1
_exptl_crystal_recrystallization_method n-heptane/chloroform/tetrachloroethane
loop_
_atom_site_label
_atom_site_type_symbol
_atom_site_fract_x
_atom_site_fract_y
_atom_site_fract_z
S1 S 1.34731(18) 0.73598(14) 0.39903(13)
C1 C 1.4840(7) 0.8443(5) 0.4599(5)
C2 C 1.5099(7) 0.9117(5) 0.3991(5)
H1 H 1.5803 0.9739 0.4177
C3 C 1.4211(7) 0.8790(6) 0.3062(5)
H2 H 1.4274 0.9170 0.2575
C4 C 1.3244(7) 0.7854(6) 0.2945(5)
S2 S 1.06423(18) 0.65318(14) 0.22258(12)
C5 C 1.2123(7) 0.7285(5) 0.2103(5)
C6 C 1.2007(7) 0.7245(6) 0.1177(5)
H3 H 1.2695 0.7610 0.0970
C7 C 1.0761(7) 0.6607(5) 0.0562(5)
H4 H 1.0543 0.6508 -0.0091
C8 C 0.9897(7) 0.6145(5) 0.1017(5)
S3 S 0.81266(18) 0.44832(14) 0.13687(13)
C9 C 0.8549(7) 0.5388(6) 0.0662(5)
C10 C 0.7518(7) 0.5281(6) -0.0150(5)
C11 C 0.6328(7) 0.4427(6) -0.0204(5)
C12 C 0.6517(7) 0.3959(5) 0.0576(5)
C13 C 0.7581(8) 0.5976(6) -0.0876(5)
H5 H 0.8219 0.6651 -0.0569
H6 H 0.6711 0.6063 -0.1138
C14 C 0.7982(9) 0.5591(6) -0.1688(5)
H7 H 0.8798 0.5421 -0.1429
H8 H 0.7284 0.4963 -0.2054
C15 C 0.8204(13) 0.6383(9) -0.2333(7)
H9 H 0.7366 0.6508 -0.2628
H10 H 0.8842 0.7029 -0.1954
C16 C 0.8705(14) 0.6078(10) -0.3085(8)
H11 H 0.9519 0.5927 -0.2803
H12 H 0.8875 0.6637 -0.3437
H13 H 0.8044 0.5475 -0.3500
C17 C 0.5002(7) 0.4186(6) -0.0980(5)
H14 H 0.4952 0.4821 -0.1223
H15 H 0.4294 0.3966 -0.0708
C18 C 0.4729(7) 0.3357(6) -0.1807(5)
H16 H 0.5430 0.3563 -0.2088
H17 H 0.4739 0.2708 -0.1581
C19 C 0.3388(8) 0.3207(7) -0.2543(6)
H18 H 0.2700 0.3053 -0.2249
H19 H 0.3404 0.3846 -0.2797
C20 C 0.3048(10) 0.2362(10) -0.3320(8)
H20 H 0.3740 0.2501 -0.3602
H21 H 0.2213 0.2314 -0.3786
H22 H 0.2971 0.1719 -0.3078
S4 S 0.58082(17) 0.32233(14) 0.20717(13)
C21 C 0.5572(7) 0.3170(6) 0.0873(5)
C22 C 0.4476(7) 0.2339(6) 0.0378(5)
H23 H 0.4173 0.2182 -0.0276
C23 C 0.3851(8) 0.1748(6) 0.0942(6)
H24 H 0.3096 0.1164 0.0696
C24 C 0.4460(7) 0.2111(5) 0.1897(5)
S5 S 0.55511(17) 0.20293(14) 0.37572(13)
C25 C 0.4194(7) 0.1718(5) 0.2722(5)
C26 C 0.3025(7) 0.1192(5) 0.2869(5)
C27 C 0.3216(7) 0.1072(6) 0.3825(5)
C28 C 1.5468(7) 0.8506(5) 0.5597(5)
C29 C 0.1688(7) 0.0787(6) 0.2091(5)
H25 H 0.1672 0.1245 0.1622
H26 H 0.0990 0.0803 0.2352
C30 C 0.1376(8) -0.0315(6) 0.1609(6)
H27 H 0.1936 -0.0297 0.1218
H28 H 0.1615 -0.0734 0.2090
C31 C -0.0075(8) -0.0837(7) 0.1001(7)
H29 H -0.0143 -0.1436 0.0588
H30 H -0.0385 -0.0360 0.0611
C32 C -0.0970(9) -0.1181(8) 0.1611(8)
H31 H -0.0709 -0.1695 0.1960
H32 H -0.1887 -0.1469 0.1212
H33 H -0.0871 -0.0594 0.2041
C33 C 0.2111(7) 0.0577(6) 0.4217(6)
H34 H 0.1309 0.0723 0.3865
H35 H 0.2374 0.0898 0.4867
C34 C 0.1768(8) -0.0604(6) 0.4184(6)
H36 H 0.2588 -0.0773 0.4427
H37 H 0.1319 -0.0946 0.3536
C35 C 0.0839(8) -0.1009(6) 0.4786(8)
H38 H 0.1273 -0.0637 0.5426
H39 H 0.0008 -0.0861 0.4525
C36 C 0.0526(10) -0.2155(8) 0.4810(8)
H40 H 0.0151 -0.2525 0.4177
H41 H -0.0105 -0.2373 0.5137
H42 H 0.1334 -0.2296 0.5132
S1A S 0.65269(18) 0.26402(14) 0.60097(13)
C1A C 0.5160(7) 0.1557(5) 0.5401(5)
C2A C 0.4901(7) 0.0883(5) 0.6009(5)
H1A H 0.4197 0.0261 0.5823
C3A C 0.5789(7) 0.1210(6) 0.6938(5)
H2A H 0.5726 0.0830 0.7425
C4A C 0.6756(7) 0.2146(6) 0.7055(5)
S2A S 0.93577(18) 0.34682(14) 0.77742(12)
C5A C 0.7877(7) 0.2715(5) 0.7897(5)
C6A C 0.7993(7) 0.2755(6) 0.8823(5)
H3A H 0.7305 0.2390 0.9030
C7A C 0.9239(7) 0.3393(5) 0.9438(5)
H4A H 0.9457 0.3492 1.0091
C8A C 1.0103(7) 0.3855(5) 0.8983(5)
S3A S 1.18734(18) 0.55168(14) 0.86313(13)
C9A C 1.1451(7) 0.4612(6) 0.9338(5)
C10A C 1.2482(7) 0.4719(6) 1.0150(5)
C11A C 1.3672(7) 0.5573(6) 1.0204(5)
C12A C 1.3483(7) 0.6041(5) 0.9424(5)
C13A C 1.2419(8) 0.4024(6) 1.0876(5)
H5A H 1.1781 0.3349 1.0569
H6A H 1.3289 0.3937 1.1138
C14A C 1.2018(9) 0.4409(6) 1.1688(5)
H7A H 1.1202 0.4579 1.1429
H8A H 1.2716 0.5037 1.2054
C15A C 1.1796(13) 0.3617(9) 1.2333(7)
H9A H 1.2634 0.3492 1.2628
H10A H 1.1158 0.2971 1.1954
C16A C 1.1295(14) 0.3922(10) 1.3085(8)
H11A H 1.0481 0.4073 1.2803
H12A H 1.1125 0.3363 1.3437
H13A H 1.1956 0.4525 1.3500
C17A C 1.4998(7) 0.5814(6) 1.0980(5)
H14A H 1.5048 0.5179 1.1223
H15A H 1.5706 0.6034 1.0708
C18A C 1.5271(7) 0.6643(6) 1.1807(5)
H16A H 1.4570 0.6437 1.2088
H17A H 1.5261 0.7292 1.1581
C19A C 1.6612(8) 0.6793(7) 1.2543(6)
H18A H 1.7300 0.6947 1.2249
H19A H 1.6596 0.6154 1.2797
C20A C 1.6952(10) 0.7638(10) 1.3320(8)
H20A H 1.6260 0.7499 1.3602
H21A H 1.7787 0.7686 1.3786
H22A H 1.7029 0.8281 1.3078
S4A S 1.41918(17) 0.67767(14) 0.79283(13)
C21A C 1.4428(7) 0.6830(6) 0.9127(5)
C22A C 1.5524(7) 0.7661(6) 0.9622(5)
H23A H 1.5827 0.7818 1.0276
C23A C 1.6149(8) 0.8252(6) 0.9058(6)
H24A H 1.6904 0.8836 0.9304
C24A C 1.5540(7) 0.7889(5) 0.8103(5)
S5A S 1.44489(17) 0.79707(14) 0.62428(13)
C25A C 1.5806(7) 0.8282(5) 0.7278(5)
C26A C 1.6975(7) 0.8808(5) 0.7131(5)
C27A C 1.6784(7) 0.8928(6) 0.6175(5)
C28A C 0.4532(7) 0.1494(5) 0.4403(5)
C29A C 1.8312(7) 0.9213(6) 0.7909(5)
H25A H 1.8328 0.8755 0.8378
H26A H 1.9010 0.9197 0.7648
C30A C 1.8624(8) 1.0315(6) 0.8391(6)
H27A H 1.8064 1.0297 0.8782
H28A H 1.8385 1.0734 0.7910
C31A C 2.0075(8) 1.0837(7) 0.8999(7)
H29A H 2.0143 1.1436 0.9412
H30A H 2.0385 1.0360 0.9389
C32A C 2.0970(9) 1.1181(8) 0.8389(8)
H31A H 2.0709 1.1695 0.8040
H32A H 2.1887 1.1469 0.8788
H33A H 2.0871 1.0594 0.7959
C33A C 1.7889(7) 0.9423(6) 0.5783(6)
H34A H 1.8691 0.9277 0.6135
H35A H 1.7626 0.9102 0.5133
C34A C 1.8232(8) 1.0604(6) 0.5816(6)
H36A H 1.7412 1.0773 0.5573
H37A H 1.8681 1.0946 0.6464
C35A C 1.9161(8) 1.1009(6) 0.5214(8)
H38A H 1.8727 1.0637 0.4574
H39A H 1.9992 1.0861 0.5475
C36A C 1.9474(10) 1.2155(8) 0.5190(8)
H40A H 1.9849 1.2525 0.5823
H41A H 2.0105 1.2373 0.4863
H42A H 1.8666 1.2296 0.4868
C37 C 0.7035(10) 0.1100(7) 0.1503(6)
H43 H 0.6501 0.1569 0.1391
Cl1 Cl 0.7828(3) 0.1157(2) 0.06659(18)
Cl2 Cl 0.8177(4) 0.1487(4) 0.2627(2)
Cl3 Cl 0.5957(4) -0.0157(2) 0.1389(4)
C38? C 0.0000 -0.5000 0.5000
Cl4? Cl -0.032(2) -0.4641(18) 0.6022(11)
Cl5? Cl 0.0992(10) -0.4957(9) 0.6035(7)
Cl6? Cl 0.1487(10) -0.4606(9) 0.5406(10)
C39? C 0.2628(19) -0.5195(14) 0.5265(14)
C40? C 0.497(2) -0.427(2) 0.5645(15)
Cl7? Cl 0.3588(8) -0.6473(6) 0.4853(5)
Cl8? Cl 0.4902(9) -0.4767(8) 0.6210(8)
Cl9? Cl 0.452(3) -0.514(3) 0.543(2)
loop_
_geom_bond_atom_site_label_1
_geom_bond_atom_site_label_2
_geom_bond_site_symmetry_1
_geom_bond_site_symmetry_2
S1 C1 1_555 1_555
C1 C2 1_555 1_555
C2 H1 1_555 1_555
C3 C2 1_555 1_555
H2 C3 1_555 1_555
C4 S1 1_555 1_555
S2 C5 1_555 1_555
C5 C4 1_555 1_555
C6 C5 1_555 1_555
H3 C6 1_555 1_555
C7 C6 1_555 1_555
H4 C7 1_555 1_555
C8 S2 1_555 1_555
S3 C9 1_555 1_555
C9 C8 1_555 1_555
C10 C9 1_555 1_555
C11 C10 1_555 1_555
C12 S3 1_555 1_555
C13 C10 1_555 1_555
H5 C13 1_555 1_555
H6 C13 1_555 1_555
C14 C13 1_555 1_555
H7 C14 1_555 1_555
H8 C14 1_555 1_555
C15 C14 1_555 1_555
H9 C15 1_555 1_555
H10 C15 1_555 1_555
C16 C15 1_555 1_555
H11 C16 1_555 1_555
H12 C16 1_555 1_555
H13 C16 1_555 1_555
C17 C11 1_555 1_555
H14 C17 1_555 1_555
H15 C17 1_555 1_555
C18 C17 1_555 1_555
H16 C18 1_555 1_555
H17 C18 1_555 1_555
C19 C18 1_555 1_555
H18 C19 1_555 1_555
H19 C19 1_555 1_555
C20 C19 1_555 1_555
H20 C20 1_555 1_555
H21 C20 1_555 1_555
H22 C20 1_555 1_555
S4 C21 1_555 1_555
C21 C12 1_555 1_555
C22 C21 1_555 1_555
H23 C22 1_555 1_555
C23 C22 1_555 1_555
H24 C23 1_555 1_555
C24 S4 1_555 1_555
S5 C25 1_555 1_555
C25 C24 1_555 1_555
C26 C25 1_555 1_555
C27 C26 1_555 1_555
C28 C1 1_555 1_555
C29 C26 1_555 1_555
H25 C29 1_555 1_555
H26 C29 1_555 1_555
C30 C29 1_555 1_555
H27 C30 1_555 1_555
H28 C30 1_555 1_555
C31 C30 1_555 1_555
H29 C31 1_555 1_555
H30 C31 1_555 1_555
C32 C31 1_555 1_555
H31 C32 1_555 1_555
H32 C32 1_555 1_555
H33 C32 1_555 1_555
C33 C27 1_555 1_555
H34 C33 1_555 1_555
H35 C33 1_555 1_555
C34 C33 1_555 1_555
H36 C34 1_555 1_555
H37 C34 1_555 1_555
C35 C34 1_555 1_555
H38 C35 1_555 1_555
H39 C35 1_555 1_555
C36 C35 1_555 1_555
H40 C36 1_555 1_555
H41 C36 1_555 1_555
H42 C36 1_555 1_555
C37 H43 1_555 1_555
Cl1 C37 1_555 1_555
Cl2 C37 1_555 1_555
Cl3 C37 1_555 1_555
S1A C1A 1_555 1_555
C1A C2A 1_555 1_555
C2A H1A 1_555 1_555
C3A C2A 1_555 1_555
H2A C3A 1_555 1_555
C4A S1A 1_555 1_555
S2A C5A 1_555 1_555
C5A C4A 1_555 1_555
C6A C5A 1_555 1_555
H3A C6A 1_555 1_555
C7A C6A 1_555 1_555
H4A C7A 1_555 1_555
C8A S2A 1_555 1_555
S3A C9A 1_555 1_555
C9A C8A 1_555 1_555
C10A C9A 1_555 1_555
C11A C10A 1_555 1_555
C12A S3A 1_555 1_555
C13A C10A 1_555 1_555
H5A C13A 1_555 1_555
H6A C13A 1_555 1_555
C14A C13A 1_555 1_555
H7A C14A 1_555 1_555
H8A C14A 1_555 1_555
C15A C14A 1_555 1_555
H9A C15A 1_555 1_555
H10A C15A 1_555 1_555
C16A C15A 1_555 1_555
H11A C16A 1_555 1_555
H12A C16A 1_555 1_555
H13A C16A 1_555 1_555
C17A C11A 1_555 1_555
H14A C17A 1_555 1_555
H15A C17A 1_555 1_555
C18A C17A 1_555 1_555
H16A C18A 1_555 1_555
H17A C18A 1_555 1_555
C19A C18A 1_555 1_555
H18A C19A 1_555 1_555
H19A C19A 1_555 1_555
C20A C19A 1_555 1_555
H20A C20A 1_555 1_555
H21A C20A 1_555 1_555
H22A C20A 1_555 1_555
S4A C21A 1_555 1_555
C21A C12A 1_555 1_555
C22A C21A 1_555 1_555
H23A C22A 1_555 1_555
C23A C22A 1_555 1_555
H24A C23A 1_555 1_555
C24A S4A 1_555 1_555
S5A C28 1_555 1_555
C25A C24A 1_555 1_555
C26A C25A 1_555 1_555
C27A C28 1_555 1_555
C28A S5 1_555 1_555
C29A C26A 1_555 1_555
H25A C29A 1_555 1_555
H26A C29A 1_555 1_555
C30A C29A 1_555 1_555
H27A C30A 1_555 1_555
H28A C30A 1_555 1_555
C31A C30A 1_555 1_555
H29A C31A 1_555 1_555
H30A C31A 1_555 1_555
C32A C31A 1_555 1_555
H31A C32A 1_555 1_555
H32A C32A 1_555 1_555
H33A C32A 1_555 1_555
C33A C27A 1_555 1_555
H34A C33A 1_555 1_555
H35A C33A 1_555 1_555
C34A C33A 1_555 1_555
H36A C34A 1_555 1_555
H37A C34A 1_555 1_555
C35A C34A 1_555 1_555
H38A C35A 1_555 1_555
H39A C35A 1_555 1_555
C36A C35A 1_555 1_555
H40A C36A 1_555 1_555
H41A C36A 1_555 1_555
H42A C36A 1_555 1_555
C3 C4 1_555 1_555
C7 C8 1_555 1_555
C11 C12 1_555 1_555
C23 C24 1_555 1_555
C27 C28A 1_555 1_555
C1A C28A 1_555 1_555
C3A C4A 1_555 1_555
C7A C8A 1_555 1_555
C11A C12A 1_555 1_555
C23A C24A 1_555 1_555
S5A C25A 1_555 1_555
C26A C27A 1_555 1_555

#END
