
#######################################################################
#
#                 Cambridge Crystallographic Data Centre
#                                CCDC 
#
#######################################################################
#
# If this CIF has been generated from an entry in the Cambridge 
# Structural Database, then it will include bibliographic, chemical, 
# crystal, experimental, refinement or atomic coordinate data resulting 
# from the CCDC's data processing and validation procedures.
#
#######################################################################

data_EPEHOX01
_chemical_formula_moiety         'C6 H7 N2 O2 1+,0.5(O4 S1 2-),1.5(H2 O1)'
_chemical_name_systematic        
'2-amino-3-carboxypyridinium hemikis(sulfate) sesquihydrate'
_symmetry_cell_setting           monoclinic
_symmetry_space_group_name_H-M   'P 21/c'
_symmetry_Int_Tables_number      14
_space_group_name_Hall           '-P 2ybc'
loop_
_symmetry_equiv_pos_site_id
_symmetry_equiv_pos_as_xyz
1 x,y,z
2 -x,1/2+y,1/2-z
3 -x,-y,-z
4 x,1/2-y,1/2+z
_cell_length_a                   6.6710(13)
_cell_length_b                   12.370(3)
_cell_length_c                   23.048(5)
_cell_angle_alpha                90
_cell_angle_beta                 94.62(3)
_cell_angle_gamma                90
_cell_volume                     1895.75
_exptl_crystal_colour            colorless
_exptl_crystal_description       block
_cell_formula_units_Z            8
loop_
_atom_site_label
_atom_site_type_symbol
_atom_site_fract_x
_atom_site_fract_y
_atom_site_fract_z
S1 S 0.19135(12) 0.27196(6) 0.26279(3)
O1 O 0.1985(4) 0.39132(16) 0.26734(8)
O2 O 0.2313(4) 0.22598(18) 0.32072(9)
O3 O 0.3483(3) 0.23795(18) 0.22470(10)
O4 O -0.0045(4) 0.23805(19) 0.23700(11)
O5 O 0.7496(4) -0.12577(18) 0.50670(9)
N1 N 0.7470(4) -0.0006(2) 0.33551(10)
H1 H 0.7526 -0.0404 0.3051
O6 O 0.7464(4) 0.04452(17) 0.53778(9)
H2 H 0.7632 0.0156 0.5698
C1 C 0.7427(4) 0.0180(2) 0.43753(12)
N2 N 0.7479(5) -0.1566(2) 0.38964(11)
H3 H 0.7498 -0.1928 0.3578
H4 H 0.7472 -0.1900 0.4224
C2 C 0.7469(5) -0.0300(3) 0.49668(13)
C3 C 0.7459(4) -0.0505(2) 0.38824(12)
C4 C 0.7337(6) 0.1267(3) 0.42907(14)
H5 H 0.7283 0.1716 0.4613
C5 C 0.7399(5) 0.1069(3) 0.32828(14)
H6 H 0.7402 0.1357 0.2910
C6 C 0.7323(6) 0.1737(3) 0.37411(15)
H7 H 0.7263 0.2483 0.3693
O7 O 0.7225(4) 0.63614(18) 0.45431(9)
O8 O 0.7277(4) 0.46630(17) 0.42217(9)
H8 H 0.7019 0.4953 0.3904
N3 N 0.7580(4) 0.6667(2) 0.57159(11)
H9 H 0.7647 0.7025 0.6037
H10 H 0.7446 0.7004 0.5389
C7 C 0.7683(4) 0.5609(2) 0.57257(12)
C8 C 0.7585(4) 0.4924(2) 0.52285(12)
N4 N 0.7896(4) 0.5111(2) 0.62539(10)
H11 H 0.7943 0.5508 0.6561
C9 C 0.7335(5) 0.5401(2) 0.46345(12)
C10 C 0.8037(5) 0.4040(3) 0.63228(14)
H12 H 0.8194 0.3754 0.6697
C11 C 0.7722(5) 0.3835(2) 0.53096(14)
H13 H 0.7658 0.3387 0.4984
C12 C 0.7955(6) 0.3364(3) 0.58619(15)
H14 H 0.8049 0.2619 0.5910
O9 O 0.6811(4) 0.37813(18) 0.23176(11)
H15 H 0.7909 0.3430 0.2333
H16 H 0.5827 0.3342 0.2287
O10 O 0.7580(5) -0.0176(2) 0.64229(9)
H17 H 0.7449 0.0280 0.6693
H18 H 0.7608 -0.0811 0.6564
O11 O 0.3360(6) 0.4699(2) 0.68125(10)
H19 H 0.3302 0.5185 0.7071
H20 H 0.3357 0.4079 0.6971
loop_
_geom_bond_atom_site_label_1
_geom_bond_atom_site_label_2
_geom_bond_site_symmetry_1
_geom_bond_site_symmetry_2
S1 O1 1_555 1_555
O2 S1 1_555 1_555
O3 S1 1_555 1_555
O4 S1 1_555 1_555
O5 C2 1_555 1_555
N1 H1 1_555 1_555
O6 H2 1_555 1_555
C1 C2 1_555 1_555
N2 H3 1_555 1_555
H4 N2 1_555 1_555
C2 O6 1_555 1_555
C3 N1 1_555 1_555
C4 C1 1_555 1_555
H5 C4 1_555 1_555
C5 N1 1_555 1_555
H6 C5 1_555 1_555
C6 C4 1_555 1_555
H7 C6 1_555 1_555
O7 C9 1_555 1_555
O8 H8 1_555 1_555
N3 H9 1_555 1_555
H10 N3 1_555 1_555
C7 N3 1_555 1_555
C8 C7 1_555 1_555
N4 C7 1_555 1_555
H11 N4 1_555 1_555
C9 O8 1_555 1_555
C10 N4 1_555 1_555
H12 C10 1_555 1_555
C11 C8 1_555 1_555
H13 C11 1_555 1_555
C12 C10 1_555 1_555
H14 C12 1_555 1_555
O9 H15 1_555 1_555
H16 O9 1_555 1_555
O10 H17 1_555 1_555
H18 O10 1_555 1_555
O11 H19 1_555 1_555
H20 O11 1_555 1_555
C1 C3 1_555 1_555
N2 C3 1_555 1_555
C5 C6 1_555 1_555
C8 C9 1_555 1_555
C11 C12 1_555 1_555

#END
