
#######################################################################
#
#                 Cambridge Crystallographic Data Centre
#                                CCDC 
#
#######################################################################
#
# If this CIF has been generated from an entry in the Cambridge 
# Structural Database, then it will include bibliographic, chemical, 
# crystal, experimental, refinement or atomic coordinate data resulting 
# from the CCDC's data processing and validation procedures.
#
#######################################################################

data_EPEKUG
_chemical_compound_source        
'Root of the Ziziphus mauritiana, grown in Thailand'
_chemical_name_common            
'1-((1-(10-Benzyl-16-methoxy-8,11-dioxo-2-oxa-6,9,12-triazatricyclo[13.3.1.0$3,7!]nonadeca-1(19),13,15,17-tetraen-6-yl)-3-methyl-1-oxobutan-2-yl)amino)-N,N,N-trimethyl-1-oxopropan-2-aminium iodide'
_chemical_formula_moiety         'C34 H46 N5 O6 1+,I1 1-'
_chemical_name_systematic        'Nummularine B methiodide'
_chemical_properties_biological  
'Exhibited potent antiplasmodial activity against the parasite Plasmodium falciparum'
_symmetry_cell_setting           orthorhombic
_symmetry_space_group_name_H-M   'P 21 21 21'
_symmetry_Int_Tables_number      19
_space_group_name_Hall           'P 2ac 2ab'
loop_
_symmetry_equiv_pos_site_id
_symmetry_equiv_pos_as_xyz
1 x,y,z
2 1/2-x,-y,1/2+z
3 1/2+x,1/2-y,-z
4 -x,1/2+y,1/2-z
_cell_length_a                   11.0721(2)
_cell_length_b                   17.4815(5)
_cell_length_c                   19.5641(6)
_cell_angle_alpha                90
_cell_angle_beta                 90
_cell_angle_gamma                90
_cell_volume                     3786.77
_exptl_crystal_colour            colorless
_exptl_crystal_description       rod
_chemical_melting_point          '190-192 deg.C'
_cell_formula_units_Z            4
loop_
_atom_site_label
_atom_site_type_symbol
_atom_site_fract_x
_atom_site_fract_y
_atom_site_fract_z
I1 I 0.49833(4) 0.67428(2) -0.08790(2)
O1 O 0.2847(4) 0.4712(2) 0.0440(2)
N1 N 0.4801(4) 0.5684(2) 0.0742(2)
O2 O 0.0176(4) 0.4192(3) 0.1195(2)
N2 N 0.0969(4) 0.3334(3) 0.0444(2)
N3 N 0.2774(4) 0.4447(3) 0.1549(2)
C1 C -0.0629(5) 0.2391(4) 0.0153(3)
O3 O -0.1604(4) 0.2204(3) -0.0086(2)
N4 N 0.7780(4) 0.6070(3) 0.0680(3)
C2 C 0.3089(5) 0.4880(3) 0.1025(3)
O4 O 0.5973(4) 0.5029(3) 0.1479(2)
N5 N 0.0105(5) 0.1916(3) 0.0501(3)
C3 C 0.5842(5) 0.5374(3) 0.0933(3)
C4 C 0.7478(6) 0.4678(4) 0.0312(4)
C5 C 0.1016(5) 0.3798(3) 0.1008(3)
C6 C 0.2153(5) 0.3712(3) 0.1426(3)
C7 C 0.1586(6) 0.1845(4) 0.1770(3)
C8 C 0.1820(6) 0.3408(3) 0.2143(3)
O5 O 0.2676(5) 0.2850(3) 0.2377(2)
C9 C 0.1539(6) 0.1078(4) 0.1528(4)
C10 C 0.2575(6) 0.2116(4) 0.2130(3)
C11 C 0.2489(7) 0.0591(4) 0.1703(4)
O6 O 0.2456(6) -0.0136(3) 0.1470(3)
C12 C 0.3523(6) 0.1654(4) 0.2285(3)
C13 C 0.0526(6) 0.0779(4) 0.1133(4)
C14 C 0.3747(4) 0.5644(3) 0.1175(3)
C15 C -0.0101(6) 0.3447(3) -0.0677(3)
C16 C 0.2889(5) 0.6335(3) 0.1038(4)
C17 C -0.0134(7) 0.1152(3) 0.0677(3)
C18 C 0.0867(6) 0.3048(4) -0.1089(3)
C19 C 0.1714(6) 0.6242(5) 0.1422(5)
C20 C 0.2992(7) 0.4557(4) 0.2298(3)
C21 C -0.0166(4) 0.3216(3) 0.0076(3)
C22 C 0.6885(5) 0.5454(3) 0.0430(3)
C23 C 0.1867(7) 0.3432(5) -0.1325(4)
C24 C 0.8464(6) 0.5843(5) 0.1293(4)
C25 C 0.3514(7) 0.7067(4) 0.1255(5)
C26 C 0.1960(8) 0.4110(4) 0.2606(4)
C27 C 0.8637(8) 0.6246(6) 0.0108(5)
C28 C 0.3462(7) 0.0870(5) 0.2064(4)
C29 C 0.7099(6) 0.6792(4) 0.0824(4)
C30 C 0.0756(8) 0.2268(4) -0.1247(4)
C31 C 0.2635(10) 0.2300(6) -0.1868(5)
C32 C 0.2744(9) 0.3072(7) -0.1710(4)
C33 C 0.1669(11) 0.1909(6) -0.1630(5)
C34 C 0.3013(16) -0.0714(6) 0.1831(6)
H1 H 0.4727 0.5939 0.0310
H2 H 0.1684 0.3078 0.0288
H3 H 0.0879 0.2091 0.0657
H4 H 0.6883 0.4317 0.0160
H5 H 0.8092 0.4732 -0.0031
H6 H 0.7836 0.4500 0.0729
H7 H 0.2694 0.3365 0.1201
H8 H 0.0927 0.2188 0.1685
H9 H 0.1021 0.3195 0.2143
H10 H 0.4196 0.1860 0.2534
H11 H 0.0255 0.0264 0.1208
H12 H 0.3984 0.5655 0.1647
H13 H -0.0881 0.3335 -0.0866
H14 H 0.0037 0.3989 -0.0689
H15 H 0.2742 0.6363 0.0555
H16 H -0.0779 0.0885 0.0451
H17 H 0.1207 0.6673 0.1325
H18 H 0.1321 0.5781 0.1275
H19 H 0.1862 0.6215 0.1905
H20 H 0.2983 0.5093 0.2408
H21 H 0.3768 0.4346 0.2410
H22 H -0.0725 0.3568 0.0281
H23 H 0.6577 0.5621 -0.0003
H24 H 0.1984 0.3958 -0.1201
H25 H 0.9010 0.6240 0.1433
H26 H 0.7899 0.5742 0.1654
H27 H 0.8912 0.5387 0.1192
H28 H 0.3007 0.7503 0.1176
H29 H 0.3699 0.7032 0.1734
H30 H 0.4250 0.7121 0.1000
H31 H 0.2129 0.3940 0.3063
H32 H 0.1223 0.4399 0.2604
H33 H 0.9198 0.6631 0.0255
H34 H 0.9068 0.5788 -0.0010
H35 H 0.8201 0.6427 -0.0284
H36 H 0.4122 0.0535 0.2170
H37 H 0.7654 0.7178 0.0978
H38 H 0.6709 0.6962 0.0413
H39 H 0.6503 0.6703 0.1171
H40 H 0.0088 0.1970 -0.1082
H41 H 0.3290 0.2075 -0.2119
H42 H 0.3416 0.3344 -0.1902
H43 H 0.1577 0.1380 -0.1750
H44 H 0.2881 -0.1187 0.1594
H45 H 0.3861 -0.0599 0.1835
H46 H 0.2724 -0.0758 0.2292
loop_
_geom_bond_atom_site_label_1
_geom_bond_atom_site_label_2
_geom_bond_site_symmetry_1
_geom_bond_site_symmetry_2
O1 C2 1_555 1_555
N1 C3 1_555 1_555
O2 C5 1_555 1_555
N2 C5 1_555 1_555
N3 C2 1_555 1_555
C1 O3 1_555 1_555
N4 C22 1_555 1_555
C2 C14 1_555 1_555
O4 C3 1_555 1_555
N5 C1 1_555 1_555
C3 C22 1_555 1_555
C4 C22 1_555 1_555
C5 C6 1_555 1_555
C6 N3 1_555 1_555
C7 C9 1_555 1_555
C8 C6 1_555 1_555
O5 C8 1_555 1_555
C9 C11 1_555 1_555
C10 C7 1_555 1_555
C11 O6 1_555 1_555
O6 C34 1_555 1_555
C12 C10 1_555 1_555
C13 C9 1_555 1_555
C14 N1 1_555 1_555
C15 C18 1_555 1_555
C16 C14 1_555 1_555
C17 N5 1_555 1_555
C18 C23 1_555 1_555
C19 C16 1_555 1_555
C20 N3 1_555 1_555
C21 N2 1_555 1_555
C22 H23 1_555 1_555
C23 C32 1_555 1_555
C24 N4 1_555 1_555
C25 C16 1_555 1_555
C26 C8 1_555 1_555
C27 N4 1_555 1_555
C28 C11 1_555 1_555
C29 N4 1_555 1_555
C30 C18 1_555 1_555
C31 C32 1_555 1_555
C32 H42 1_555 1_555
C33 C30 1_555 1_555
C34 H44 1_555 1_555
H1 N1 1_555 1_555
H2 N2 1_555 1_555
H3 N5 1_555 1_555
H4 C4 1_555 1_555
H5 C4 1_555 1_555
H6 C4 1_555 1_555
H7 C6 1_555 1_555
H8 C7 1_555 1_555
H9 C8 1_555 1_555
H10 C12 1_555 1_555
H11 C13 1_555 1_555
H12 C14 1_555 1_555
H13 C15 1_555 1_555
H14 C15 1_555 1_555
H15 C16 1_555 1_555
H16 C17 1_555 1_555
H17 C19 1_555 1_555
H18 C19 1_555 1_555
H19 C19 1_555 1_555
H20 C20 1_555 1_555
H21 C20 1_555 1_555
H22 C21 1_555 1_555
H24 C23 1_555 1_555
H25 C24 1_555 1_555
H26 C24 1_555 1_555
H27 C24 1_555 1_555
H28 C25 1_555 1_555
H29 C25 1_555 1_555
H30 C25 1_555 1_555
H31 C26 1_555 1_555
H32 C26 1_555 1_555
H33 C27 1_555 1_555
H34 C27 1_555 1_555
H35 C27 1_555 1_555
H36 C28 1_555 1_555
H37 C29 1_555 1_555
H38 C29 1_555 1_555
H39 C29 1_555 1_555
H40 C30 1_555 1_555
H41 C31 1_555 1_555
H43 C33 1_555 1_555
H45 C34 1_555 1_555
H46 C34 1_555 1_555
C1 C21 1_555 1_555
O5 C10 1_555 1_555
C12 C28 1_555 1_555
C13 C17 1_555 1_555
C15 C21 1_555 1_555
C20 C26 1_555 1_555
C31 C33 1_555 1_555

#END
