
#######################################################################
#
#                 Cambridge Crystallographic Data Centre
#                                CCDC 
#
#######################################################################
#
# If this CIF has been generated from an entry in the Cambridge 
# Structural Database, then it will include bibliographic, chemical, 
# crystal, experimental, refinement or atomic coordinate data resulting 
# from the CCDC's data processing and validation procedures.
#
#######################################################################

data_EPETCR
_chemical_formula_moiety         '2(C16 H22 N2 2+),4(C12 H4 N4 1-),C12 H4 N4'
_chemical_name_systematic        
'bis(1,2-Di-(N-ethyl-4-pyridinium)ethane) pentakis(7,7,8,8-tetracyanoquinodimethanide)'
_symmetry_cell_setting           triclinic
_symmetry_space_group_name_H-M   'P -1'
_symmetry_Int_Tables_number      2
_space_group_name_Hall           '-P 1'
loop_
_symmetry_equiv_pos_site_id
_symmetry_equiv_pos_as_xyz
1 x,y,z
2 -x,-y,-z
_cell_length_a                   8.194(8)
_cell_length_b                   14.956(4)
_cell_length_c                   16.238(7)
_cell_angle_alpha                107.563(7)
_cell_angle_beta                 97.25(3)
_cell_angle_gamma                88.26(4)
_cell_volume                     1881.97
_cell_formula_units_Z            1
loop_
_atom_site_label
_atom_site_type_symbol
_atom_site_fract_x
_atom_site_fract_y
_atom_site_fract_z
C1 C 0.00700 0.05690 0.11270
C2 C -0.05990 -0.03330 0.10450
C3 C 0.03510 -0.10980 0.09400
C4 C 0.20640 -0.10460 0.08930
C5 C 0.27410 -0.01480 0.09730
C6 C 0.17790 0.06160 0.10820
C7 C -0.09290 0.13570 0.12230
C8 C -0.03460 0.22560 0.12590
C9 C -0.26520 0.13150 0.12490
C10 C 0.30730 -0.18420 0.07860
C11 C 0.24350 -0.27400 0.06850
C12 C 0.47790 -0.18010 0.07390
N1 N 0.00780 0.29780 0.12790
N2 N -0.40440 0.13040 0.12780
N3 N 0.19370 -0.34790 0.05940
N4 N 0.61740 -0.18080 0.06930
C13 C 0.17270 0.14430 0.31890
C14 C 0.10610 0.05580 0.31220
C15 C 0.20200 -0.02190 0.30220
C16 C 0.37250 -0.01670 0.29740
C17 C 0.44010 0.07250 0.30490
C18 C 0.34440 0.14950 0.31560
C19 C 0.07310 0.22490 0.32960
C20 C 0.13660 0.31380 0.33360
C21 C -0.09500 0.22340 0.33760
C22 C 0.47320 -0.09630 0.28720
C23 C 0.41130 -0.18610 0.28020
C24 C 0.64610 -0.09240 0.28490
N5 N 0.18440 0.38550 0.33680
N6 N -0.23410 0.22590 0.34490
N7 N 0.36630 -0.26000 0.27490
N8 N 0.78420 -0.09260 0.28360
C25 C 0.40020 0.07970 -0.48900
C26 C 0.57130 0.08630 -0.49490
C27 C 0.33290 -0.00950 -0.49510
C28 C 0.29930 0.15850 -0.47820
C29 C 0.12890 0.15310 -0.47380
C30 C 0.36310 0.24860 -0.46620
N9 N -0.00930 0.15130 -0.46820
N10 N 0.41500 0.32270 -0.45490
C27A C 0.66710 0.00950 -0.50490
C26A C 0.42870 -0.08630 -0.50510
C25A C 0.59980 -0.07970 -0.51100
C28A C 0.70070 -0.15850 -0.52180
C29A C 0.87110 -0.15310 -0.52620
C30A C 0.63690 -0.24860 -0.53380
N9A N 1.00930 -0.15130 -0.53180
N10A N 0.58500 -0.32270 -0.54510
C31 C 0.19200 0.40830 -0.13100
C32 C 0.15350 0.31940 -0.18740
C33 C 0.04420 0.30750 -0.26160
C34 C 0.00520 0.46950 -0.22680
C35 C 0.11540 0.48410 -0.15240
C36 C -0.14070 0.36810 -0.36290
C37 C -0.05130 0.38770 -0.43390
C38 C 0.30690 0.42280 -0.04960
C39 C 0.22470 0.39940 0.02090
C40 C 0.33790 0.41420 0.10450
C41 C 0.40700 0.33820 0.12800
C42 C 0.51100 0.35230 0.20350
C43 C 0.47820 0.51340 0.23600
C44 C 0.37660 0.50260 0.16100
C45 C 0.67650 0.45620 0.33830
C46 C 0.58370 0.44220 0.40560
N11 N -0.02560 0.38230 -0.28100
N12 N 0.54670 0.43920 0.25580
loop_
_geom_bond_atom_site_label_1
_geom_bond_atom_site_label_2
_geom_bond_site_symmetry_1
_geom_bond_site_symmetry_2
C1 C2 1_555 1_555
C2 C3 1_555 1_555
C3 C4 1_555 1_555
C4 C5 1_555 1_555
C5 C6 1_555 1_555
C6 C1 1_555 1_555
C7 C1 1_555 1_555
C8 C7 1_555 1_555
C9 C7 1_555 1_555
C10 C4 1_555 1_555
C11 C10 1_555 1_555
C12 C10 1_555 1_555
N1 C8 1_555 1_555
N2 C9 1_555 1_555
N3 C11 1_555 1_555
N4 C12 1_555 1_555
C13 C14 1_555 1_555
C14 C15 1_555 1_555
C15 C16 1_555 1_555
C16 C17 1_555 1_555
C17 C18 1_555 1_555
C18 C13 1_555 1_555
C19 C13 1_555 1_555
C20 C19 1_555 1_555
C21 C19 1_555 1_555
C22 C16 1_555 1_555
C23 C22 1_555 1_555
C24 C22 1_555 1_555
N5 C20 1_555 1_555
N6 C21 1_555 1_555
N7 C23 1_555 1_555
N8 C24 1_555 1_555
C25 C26 1_555 1_555
C26 C27A 1_555 1_555
C27 C25 1_555 1_555
C28 C25 1_555 1_555
C29 C28 1_555 1_555
C30 C28 1_555 1_555
N9 C29 1_555 1_555
N10 C30 1_555 1_555
C31 C32 1_555 1_555
C32 C33 1_555 1_555
C33 N11 1_555 1_555
C34 C35 1_555 1_555
C35 C31 1_555 1_555
C36 C37 1_555 1_555
C38 C31 1_555 1_555
C39 C38 1_555 1_555
C40 C39 1_555 1_555
C41 C40 1_555 1_555
C42 C41 1_555 1_555
C43 C44 1_555 1_555
C44 C40 1_555 1_555
C45 C46 1_555 1_555
N11 C34 1_555 1_555
N12 C42 1_555 1_555
C27A C25A 1_555 1_555
C26A C27 1_555 1_555
C25A C26A 1_555 1_555
C28A C25A 1_555 1_555
C29A C28A 1_555 1_555
C30A C28A 1_555 1_555
N9A C29A 1_555 1_555
N10A C30A 1_555 1_555
C36 N11 1_555 1_555
C43 N12 1_555 1_555
C45 N12 1_555 1_555

#END
