
#######################################################################
#
#                 Cambridge Crystallographic Data Centre
#                                CCDC 
#
#######################################################################
#
# If this CIF has been generated from an entry in the Cambridge 
# Structural Database, then it will include bibliographic, chemical, 
# crystal, experimental, refinement or atomic coordinate data resulting 
# from the CCDC's data processing and validation procedures.
#
#######################################################################

data_EPEWIH
_chemical_formula_moiety         'C37 H31 N5 O1,C1 H2 Cl2'
_chemical_name_systematic        
'3-(2,6-bis(2-(4-(dimethylamino)phenyl)vinyl)-4H-pyran-4-ylidene)-2-phenylprop-1-ene-1,1,3-tricarbonitrile dichloromethane solvate'
_symmetry_cell_setting           monoclinic
_symmetry_space_group_name_H-M   'P 21/n'
_symmetry_Int_Tables_number      14
_space_group_name_Hall           '-P 2yn'
loop_
_symmetry_equiv_pos_site_id
_symmetry_equiv_pos_as_xyz
1 x,y,z
2 1/2-x,1/2+y,1/2-z
3 -x,-y,-z
4 1/2+x,1/2-y,1/2+z
_cell_length_a                   8.7921(9)
_cell_length_b                   19.2348(19)
_cell_length_c                   20.091(2)
_cell_angle_alpha                90
_cell_angle_beta                 98.119(2)
_cell_angle_gamma                90
_cell_volume                     3363.62
_exptl_crystal_colour            black
_exptl_crystal_description       prismatic
_cell_formula_units_Z            4
loop_
_atom_site_label
_atom_site_type_symbol
_atom_site_fract_x
_atom_site_fract_y
_atom_site_fract_z
N1 N 1.0009(5) 0.5958(2) 0.5177(2)
N2 N 0.9044(4) 0.69608(17) 0.64253(17)
N3 N 0.7866(5) 0.88266(19) 0.53425(19)
N4 N 0.6973(4) 0.05584(15) 0.40657(17)
N5 N -0.5040(4) 0.53557(19) 0.22536(18)
O1 O 0.4262(3) 0.47800(11) 0.39150(11)
C1 C 0.3716(4) 0.54485(17) 0.39308(17)
C2 C 0.4652(4) 0.59636(17) 0.41944(16)
H1 H 0.4249 0.6410 0.4209
C3 C 0.6229(4) 0.58573(17) 0.44524(15)
C4 C 0.6708(4) 0.51544(16) 0.44218(16)
H2 H 0.7722 0.5043 0.4585
C5 C 0.5756(4) 0.46425(17) 0.41667(16)
C6 C 0.7258(4) 0.63719(17) 0.47434(16)
C7 C 0.6971(4) 0.71041(16) 0.47989(16)
C8 C 0.7731(4) 0.74907(17) 0.53274(16)
C9 C 0.5966(4) 0.74814(17) 0.42657(16)
C10 C 0.4911(4) 0.79673(18) 0.4416(2)
H3 H 0.4764 0.8039 0.4861
C11 C 0.4071(5) 0.8348(2) 0.3907(3)
H4 H 0.3359 0.8674 0.4010
C12 C 0.4285(6) 0.8248(3) 0.3252(3)
H5 H 0.3729 0.8511 0.2913
C13 C 0.5310(6) 0.7764(2) 0.3095(2)
H6 H 0.5449 0.7694 0.2649
C14 C 0.6138(5) 0.73781(19) 0.35982(18)
H7 H 0.6823 0.7043 0.3488
C15 C 0.8777(5) 0.61395(19) 0.49936(19)
C16 C 0.8488(4) 0.71868(18) 0.59262(19)
C17 C 0.7770(4) 0.8236(2) 0.53212(18)
C18 C 0.6205(4) 0.39321(17) 0.41374(17)
H8 H 0.7205 0.3827 0.4328
C19 C 0.5354(4) 0.33995(17) 0.38670(17)
H9 H 0.4361 0.3500 0.3664
C20 C 0.5843(4) 0.26796(17) 0.38630(17)
C21 C 0.4809(4) 0.21601(18) 0.36123(17)
H10 H 0.3834 0.2287 0.3406
C22 C 0.5187(4) 0.14675(18) 0.36601(18)
H11 H 0.4469 0.1138 0.3481
C23 C 0.6622(4) 0.12466(18) 0.39713(18)
C24 C 0.7694(4) 0.17688(18) 0.41958(19)
H12 H 0.8686 0.1646 0.4383
C25 C 0.7292(4) 0.24584(19) 0.41414(18)
H13 H 0.8024 0.2791 0.4298
C26 C 0.5814(6) 0.0033(2) 0.3885(3)
H14 H 0.5005 0.0087 0.4155
H15 H 0.6265 -0.0420 0.3960
H16 H 0.5400 0.0082 0.3419
C27 C 0.8441(6) 0.0336(2) 0.4406(3)
H17 H 0.9239 0.0503 0.4166
H18 H 0.8472 -0.0162 0.4423
H19 H 0.8592 0.0519 0.4855
C28 C 0.2150(4) 0.55291(18) 0.36583(18)
H20 H 0.1766 0.5980 0.3640
C29 C 0.1162(4) 0.50276(18) 0.34237(17)
H21 H 0.1532 0.4574 0.3460
C30 C -0.0410(4) 0.51140(17) 0.31214(17)
C31 C -0.1062(4) 0.57637(19) 0.29509(18)
H22 H -0.0458 0.6159 0.3038
C32 C -0.2564(5) 0.5840(2) 0.26596(18)
H23 H -0.2945 0.6283 0.2552
C33 C -0.3533(4) 0.5264(2) 0.25206(18)
C34 C -0.2870(4) 0.46161(19) 0.26685(18)
H24 H -0.3458 0.4218 0.2568
C35 C -0.1373(4) 0.45486(18) 0.29590(18)
H25 H -0.0983 0.4104 0.3052
C36 C -0.5708(5) 0.6036(2) 0.2142(2)
H26 H -0.5663 0.6276 0.2563
H27 H -0.6760 0.5992 0.1939
H28 H -0.5147 0.6295 0.1848
C37 C -0.6038(5) 0.4771(3) 0.2096(3)
H29 H -0.5785 0.4544 0.1701
H30 H -0.7085 0.4928 0.2016
H31 H -0.5913 0.4451 0.2466
Cl1? Cl 0.4500(10) 0.2536(4) 0.1974(4)
Cl2? Cl 0.5299(5) 0.2809(2) 0.21400(18)
Cl3? Cl 0.4442(4) 0.23042(17) 0.08059(15)
C38? C 0.5097(18) 0.3029(7) 0.1319(5)
H32? H 0.6075 0.3188 0.1205
H33? H 0.4366 0.3408 0.1235
Cl4? Cl 0.5268(4) 0.3395(2) 0.09030(19)
C39? C 0.458(2) 0.2609(7) 0.1153(7)
H34? H 0.3557 0.2537 0.0912
H35? H 0.5231 0.2240 0.1022
loop_
_geom_bond_atom_site_label_1
_geom_bond_atom_site_label_2
_geom_bond_site_symmetry_1
_geom_bond_site_symmetry_2
N1 C15 1_555 1_555
N2 C16 1_555 1_555
N3 C17 1_555 1_555
N4 C23 1_555 1_555
N5 C33 1_555 1_555
O1 C1 1_555 1_555
C1 C2 1_555 1_555
C2 H1 1_555 1_555
C3 C2 1_555 1_555
C4 C3 1_555 1_555
H2 C4 1_555 1_555
C5 O1 1_555 1_555
C6 C3 1_555 1_555
C7 C6 1_555 1_555
C8 C7 1_555 1_555
C9 C7 1_555 1_555
C10 C9 1_555 1_555
H3 C10 1_555 1_555
C11 C10 1_555 1_555
H4 C11 1_555 1_555
C12 C11 1_555 1_555
H5 C12 1_555 1_555
C13 C12 1_555 1_555
H6 C13 1_555 1_555
C14 C9 1_555 1_555
H7 C14 1_555 1_555
C15 C6 1_555 1_555
C16 C8 1_555 1_555
C17 C8 1_555 1_555
C18 C5 1_555 1_555
H8 C18 1_555 1_555
C19 C18 1_555 1_555
H9 C19 1_555 1_555
C20 C19 1_555 1_555
C21 C20 1_555 1_555
H10 C21 1_555 1_555
C22 C21 1_555 1_555
H11 C22 1_555 1_555
C23 C22 1_555 1_555
C24 C23 1_555 1_555
H12 C24 1_555 1_555
C25 C20 1_555 1_555
H13 C25 1_555 1_555
C26 N4 1_555 1_555
H14 C26 1_555 1_555
H15 C26 1_555 1_555
H16 C26 1_555 1_555
C27 N4 1_555 1_555
H17 C27 1_555 1_555
H18 C27 1_555 1_555
H19 C27 1_555 1_555
C28 C1 1_555 1_555
H20 C28 1_555 1_555
C29 C28 1_555 1_555
H21 C29 1_555 1_555
C30 C29 1_555 1_555
C31 C30 1_555 1_555
H22 C31 1_555 1_555
C32 C31 1_555 1_555
H23 C32 1_555 1_555
C33 C32 1_555 1_555
C34 C33 1_555 1_555
H24 C34 1_555 1_555
C35 C30 1_555 1_555
H25 C35 1_555 1_555
C36 N5 1_555 1_555
H26 C36 1_555 1_555
H27 C36 1_555 1_555
H28 C36 1_555 1_555
C37 N5 1_555 1_555
H29 C37 1_555 1_555
H30 C37 1_555 1_555
H31 C37 1_555 1_555
C4 C5 1_555 1_555
C13 C14 1_555 1_555
C24 C25 1_555 1_555
C34 C35 1_555 1_555

#END
