
#######################################################################
#
#                 Cambridge Crystallographic Data Centre
#                                CCDC 
#
#######################################################################
#
# If this CIF has been generated from an entry in the Cambridge 
# Structural Database, then it will include bibliographic, chemical, 
# crystal, experimental, refinement or atomic coordinate data resulting 
# from the CCDC's data processing and validation procedures.
#
#######################################################################

data_EPIDUE
_chemical_formula_moiety         'C40 H30 N8 4+,10(H2 O1),4(Cl1 1-)'
_chemical_name_systematic        
"4,4',4'',4'''-(porphyrin-5,10,15,20-tetrayl)tetra(pyridin-1-ium) tetrakis(chloride) decahydrate"
_symmetry_cell_setting           triclinic
_symmetry_space_group_name_H-M   'P -1'
_symmetry_Int_Tables_number      2
_space_group_name_Hall           '-P 1'
loop_
_symmetry_equiv_pos_site_id
_symmetry_equiv_pos_as_xyz
1 x,y,z
2 -x,-y,-z
_cell_length_a                   5.6982(4)
_cell_length_b                   13.6181(16)
_cell_length_c                   14.3180(13)
_cell_angle_alpha                79.003(9)
_cell_angle_beta                 88.852(7)
_cell_angle_gamma                84.498(8)
_cell_volume                     1085.63
_exptl_crystal_colour            colorless
_exptl_crystal_description       block
_cell_formula_units_Z            1
loop_
_atom_site_label
_atom_site_type_symbol
_atom_site_fract_x
_atom_site_fract_y
_atom_site_fract_z
N1 N 0.2593(5) 0.1247(2) 0.97973(19)
N2 N 0.6889(5) 0.0539(2) 0.87826(19)
H1 H 0.6155 0.0295 0.9292
C1 C 0.6339(6) 0.1456(3) 0.8226(3)
C2 C 0.4466(6) 0.2169(3) 0.8372(2)
N3 N 0.3859(6) 0.4884(3) 0.6376(2)
H2 H 0.3703 0.5445 0.5977
C3 C 0.0846(6) 0.1514(3) 1.0388(2)
C4 C 0.2825(6) 0.2077(3) 0.9108(2)
C5 C 0.4278(6) 0.3134(3) 0.7664(2)
C6 C -0.0050(7) 0.2540(3) 1.0071(3)
H3 H -0.1234 0.2898 1.0359
C7 C 0.8783(6) 0.0070(3) 0.8403(2)
C8 C -0.1689(6) 0.1332(3) 1.1828(3)
C9 C 0.0156(6) 0.0899(3) 1.1237(2)
C10 C -0.5446(7) 0.2208(4) 1.2040(4)
H4 H -0.6896 0.2508 1.1796
C11 C -0.1215(7) 0.1339(3) 1.2784(3)
H5 H 0.0213 0.1043 1.3055
C12 C 0.1158(7) 0.2888(3) 0.9272(3)
H6 H 0.0950 0.3530 0.8901
C13 C -0.3847(7) 0.1770(3) 1.1466(3)
H7 H -0.4226 0.1771 1.0837
C14 C 0.7967(7) 0.1581(3) 0.7463(3)
H8 H 0.7979 0.2138 0.6974
C15 C 0.9499(7) 0.0747(3) 0.7571(3)
H9 H 1.0779 0.0632 0.7180
N4 N -0.4916(7) 0.2201(3) 1.2933(3)
H10 H -0.5932 0.2476 1.3280
C16 C -0.2876(8) 0.1787(3) 1.3315(3)
H11 H -0.2565 0.1800 1.3948
C17 C 0.2653(8) 0.3303(4) 0.6947(3)
H12 H 0.1656 0.2814 0.6896
C18 C 0.5695(8) 0.3875(3) 0.7713(4)
H13 H 0.6805 0.3790 0.8196
C19 C 0.2487(8) 0.4195(4) 0.6299(3)
H14 H 0.1394 0.4304 0.5808
C20 C 0.5472(10) 0.4756(4) 0.7037(4)
H15 H 0.6466 0.5255 0.7055
N1A N 0.7407(5) -0.1247(2) 1.02027(19)
N2A N 0.3111(5) -0.0539(2) 1.12174(19)
H1A H 0.3845 -0.0295 1.0708
C1A C 0.3661(6) -0.1456(3) 1.1774(3)
C2A C 0.5534(6) -0.2169(3) 1.1628(2)
N3A N 0.6141(6) -0.4884(3) 1.3624(2)
H2A H 0.6297 -0.5445 1.4023
C3A C 0.9154(6) -0.1514(3) 0.9612(2)
C4A C 0.7175(6) -0.2077(3) 1.0892(2)
C5A C 0.5722(6) -0.3134(3) 1.2336(2)
C6A C 1.0050(7) -0.2540(3) 0.9929(3)
H3A H 1.1234 -0.2898 0.9641
C7A C 0.1217(6) -0.0070(3) 1.1597(2)
C8A C 1.1689(6) -0.1332(3) 0.8172(3)
C9A C 0.9844(6) -0.0899(3) 0.8763(2)
C10A C 1.5446(7) -0.2208(4) 0.7960(4)
H4A H 1.6896 -0.2508 0.8204
C11A C 1.1215(7) -0.1339(3) 0.7216(3)
H5A H 0.9787 -0.1043 0.6945
C12A C 0.8842(7) -0.2888(3) 1.0728(3)
H6A H 0.9050 -0.3530 1.1099
C13A C 1.3847(7) -0.1770(3) 0.8534(3)
H7A H 1.4226 -0.1771 0.9163
C14A C 0.2033(7) -0.1581(3) 1.2537(3)
H8A H 0.2021 -0.2138 1.3026
C15A C 0.0501(7) -0.0747(3) 1.2429(3)
H9A H -0.0779 -0.0632 1.2820
N4A N 1.4916(7) -0.2201(3) 0.7067(3)
H10A H 1.5932 -0.2476 0.6720
C16A C 1.2876(8) -0.1787(3) 0.6685(3)
H11A H 1.2565 -0.1800 0.6052
C17A C 0.7347(8) -0.3303(4) 1.3053(3)
H12A H 0.8344 -0.2814 1.3104
C18A C 0.4305(8) -0.3875(3) 1.2287(4)
H13A H 0.3195 -0.3790 1.1804
C19A C 0.7513(8) -0.4195(4) 1.3701(3)
H14A H 0.8606 -0.4304 1.4192
C20A C 0.4528(10) -0.4756(4) 1.2963(4)
H15A H 0.3534 -0.5255 1.2945
Cl1 Cl 0.0207(3) 0.57546(13) 0.81583(11)
O1 O 0.1721(9) 0.3270(4) 0.3718(5)
H16 H 0.1956 0.3030 0.4305
H17 H 0.2843 0.3036 0.3400
Cl2 Cl 0.2376(2) 0.67022(8) 0.48374(7)
O2 O 0.2092(16) 0.0334(6) 0.4611(6)
O3 O 0.4170(19) 0.1249(9) 0.5716(7)
O4 O 0.5044(17) 0.4330(9) 0.0841(9)
O5 O 0.7469(19) 0.4955(8) -0.0145(9)
loop_
_geom_bond_atom_site_label_1
_geom_bond_atom_site_label_2
_geom_bond_site_symmetry_1
_geom_bond_site_symmetry_2
N1 C3 1_555 1_555
N2 H1 1_555 1_555
C1 N2 1_555 1_555
C2 C1 1_555 1_555
N3 H2 1_555 1_555
C3 C6 1_555 1_555
C4 N1 1_555 1_555
C5 C2 1_555 1_555
C6 H3 1_555 1_555
C7 N2 1_555 1_555
C8 C9 1_555 1_555
C9 C3 1_555 1_555
C10 H4 1_555 1_555
C11 C8 1_555 1_555
H5 C11 1_555 1_555
C12 C4 1_555 1_555
H6 C12 1_555 1_555
C13 C8 1_555 1_555
H7 C13 1_555 1_555
C14 C1 1_555 1_555
H8 C14 1_555 1_555
C15 C7 1_555 1_555
H9 C15 1_555 1_555
N4 C10 1_555 1_555
H10 N4 1_555 1_555
C16 C11 1_555 1_555
H11 C16 1_555 1_555
C17 C5 1_555 1_555
H12 C17 1_555 1_555
C18 C5 1_555 1_555
H13 C18 1_555 1_555
C19 N3 1_555 1_555
H14 C19 1_555 1_555
C20 N3 1_555 1_555
H15 C20 1_555 1_555
O1 H16 1_555 1_555
H17 O1 1_555 1_555
N1A C3A 1_555 1_555
N2A H1A 1_555 1_555
C1A N2A 1_555 1_555
C2A C1A 1_555 1_555
N3A H2A 1_555 1_555
C3A C6A 1_555 1_555
C4A N1A 1_555 1_555
C5A C2A 1_555 1_555
C6A H3A 1_555 1_555
C7A C9 1_555 1_555
C8A C9A 1_555 1_555
C9A C7 1_555 1_555
C10A H4A 1_555 1_555
C11A C8A 1_555 1_555
H5A C11A 1_555 1_555
C12A C4A 1_555 1_555
H6A C12A 1_555 1_555
C13A C8A 1_555 1_555
H7A C13A 1_555 1_555
C14A C1A 1_555 1_555
H8A C14A 1_555 1_555
C15A C7A 1_555 1_555
H9A C15A 1_555 1_555
N4A C10A 1_555 1_555
H10A N4A 1_555 1_555
C16A C11A 1_555 1_555
H11A C16A 1_555 1_555
C17A C5A 1_555 1_555
H12A C17A 1_555 1_555
C18A C5A 1_555 1_555
H13A C18A 1_555 1_555
C19A N3A 1_555 1_555
H14A C19A 1_555 1_555
C20A N3A 1_555 1_555
H15A C20A 1_555 1_555
C2 C4 1_555 1_555
C6 C12 1_555 1_555
C10 C13 1_555 1_555
C14 C15 1_555 1_555
N4 C16 1_555 1_555
C17 C19 1_555 1_555
C18 C20 1_555 1_555
N2A C7A 1_555 1_555
C2A C4A 1_555 1_555
C3A C9A 1_555 1_555
C6A C12A 1_555 1_555
C10A C13A 1_555 1_555
C14A C15A 1_555 1_555
N4A C16A 1_555 1_555
C17A C19A 1_555 1_555
C18A C20A 1_555 1_555

#END
