
#######################################################################
#
#                 Cambridge Crystallographic Data Centre
#                                CCDC 
#
#######################################################################
#
# If this CIF has been generated from an entry in the Cambridge 
# Structural Database, then it will include bibliographic, chemical, 
# crystal, experimental, refinement or atomic coordinate data resulting 
# from the CCDC's data processing and validation procedures.
#
#######################################################################

data_EPIFAM
_chemical_formula_moiety         'C28 H24 N2 O4'
_chemical_name_systematic        
2,2'-(hydrazine-1,2-diylidenebis(phenylmethylylidene))bis(5-methoxyphenol)
_symmetry_cell_setting           monoclinic
_symmetry_space_group_name_H-M   'C 2/c'
_symmetry_Int_Tables_number      15
_space_group_name_Hall           '-C 2yn'
loop_
_symmetry_equiv_pos_site_id
_symmetry_equiv_pos_as_xyz
1 x,y,z
2 -x,y,1/2-z
3 1/2+x,1/2+y,z
4 1/2-x,1/2+y,1/2-z
5 -x,-y,-z
6 x,-y,1/2+z
7 1/2-x,1/2-y,-z
8 1/2+x,1/2-y,1/2+z
_cell_length_a                   19.228(4)
_cell_length_b                   12.9020(14)
_cell_length_c                   21.509(3)
_cell_angle_alpha                90
_cell_angle_beta                 118.55(2)
_cell_angle_gamma                90
_cell_volume                     4687.1
_exptl_crystal_colour            yellow
_exptl_crystal_description       prism
_cell_formula_units_Z            8
loop_
_atom_site_label
_atom_site_type_symbol
_atom_site_fract_x
_atom_site_fract_y
_atom_site_fract_z
N1 N 0.36845(18) 0.8250(2) 0.24155(15)
O1 O 0.37967(19) 1.12399(19) 0.24106(14)
H1 H 0.3727 1.0629 0.2291
C1 C 0.3688(2) 1.1373(3) 0.29859(18)
C2 C 0.35780(19) 0.9459(3) 0.31446(16)
C3 C 0.35607(19) 1.0533(2) 0.33327(16)
C4 C 0.3869(2) 0.7040(3) 0.16889(17)
N2 N 0.35904(17) 0.9288(2) 0.25498(14)
C5 C 0.3745(2) 0.8091(3) 0.18401(18)
C6 C 0.3626(2) 0.8600(2) 0.36242(17)
C7 C 0.3735(2) 1.2379(3) 0.32250(18)
H2 H 0.3848 1.2916 0.2999
C8 C 0.3825(2) 0.6176(3) 0.20683(19)
C9 C 0.3616(2) 1.2591(3) 0.37952(19)
O2 O 0.36623(16) 1.35480(19) 0.40724(14)
C10 C 0.3439(2) 1.0782(3) 0.39110(18)
H3 H 0.3342 1.0247 0.4149
C11 C 0.3935(2) 0.5181(3) 0.18926(19)
H4 H 0.3880 0.4618 0.2136
O3 O 0.3659(2) 0.62666(19) 0.26096(15)
H5 H 0.3631 0.6882 0.2691
C12 C 0.3662(2) 0.8957(2) 0.13555(17)
C13 C 0.4063(2) 0.6835(3) 0.11483(18)
H6 H 0.4106 0.7389 0.0892
C14 C 0.4128(2) 0.5018(3) 0.1355(2)
C15 C 0.3486(2) 1.0570(3) 0.0423(2)
H7 H 0.3429 1.1103 0.0111
C16 C 0.4192(2) 0.5852(3) 0.0983(2)
H8 H 0.4321 0.5748 0.0622
C17 C 0.3459(2) 1.1780(3) 0.4139(2)
H9 H 0.3368 1.1914 0.4519
C18 C 0.4318(2) 0.8414(3) 0.42507(18)
H10 H 0.4754 0.8844 0.4378
C19 C 0.3725(3) 0.6992(3) 0.4529(2)
H11 H 0.3754 0.6462 0.4834
C20 C 0.4298(2) 0.9555(3) 0.1442(2)
H12 H 0.4799 0.9408 0.1812
O4 O 0.42576(18) 0.4069(2) 0.11560(15)
C21 C 0.4205(2) 1.0358(3) 0.0992(2)
H13 H 0.4639 1.0767 0.1076
C22 C 0.2851(2) 0.9974(3) 0.03259(19)
H14 H 0.2352 1.0124 -0.0047
C23 C 0.3038(3) 0.7172(3) 0.3919(2)
H15 H 0.2602 0.6746 0.3798
C24 C 0.2986(2) 0.7975(3) 0.34838(19)
H16 H 0.2506 0.8102 0.3081
C25 C 0.4366(3) 0.7602(3) 0.4684(2)
H17 H 0.4843 0.7468 0.5089
C26 C 0.2938(2) 0.9161(3) 0.0769(2)
H18 H 0.2505 0.8741 0.0674
C27 C 0.4095(3) 0.3171(3) 0.1449(3)
H19 H 0.4173 0.2562 0.1234
H20 H 0.3556 0.3193 0.1362
H21 H 0.4445 0.3151 0.1950
C28 C 0.3761(3) 1.4419(3) 0.3702(3)
H22 H 0.3324 1.4447 0.3231
H23 H 0.4246 1.4342 0.3681
H24 H 0.3779 1.5047 0.3949
loop_
_geom_bond_atom_site_label_1
_geom_bond_atom_site_label_2
_geom_bond_site_symmetry_1
_geom_bond_site_symmetry_2
N1 N2 1_555 1_555
O1 H1 1_555 1_555
C1 O1 1_555 1_555
C2 C3 1_555 1_555
C3 C1 1_555 1_555
C4 C5 1_555 1_555
N2 C2 1_555 1_555
C5 N1 1_555 1_555
C6 C2 1_555 1_555
C7 C1 1_555 1_555
H2 C7 1_555 1_555
C8 C4 1_555 1_555
C9 C7 1_555 1_555
O2 C9 1_555 1_555
C10 C3 1_555 1_555
H3 C10 1_555 1_555
C11 C8 1_555 1_555
H4 C11 1_555 1_555
O3 C8 1_555 1_555
H5 O3 1_555 1_555
C12 C5 1_555 1_555
C13 C4 1_555 1_555
H6 C13 1_555 1_555
C14 C11 1_555 1_555
C15 H7 1_555 1_555
C16 C13 1_555 1_555
H8 C16 1_555 1_555
C17 C9 1_555 1_555
H9 C17 1_555 1_555
C18 C6 1_555 1_555
H10 C18 1_555 1_555
C19 H11 1_555 1_555
C20 C12 1_555 1_555
H12 C20 1_555 1_555
O4 C14 1_555 1_555
C21 C15 1_555 1_555
H13 C21 1_555 1_555
C22 C15 1_555 1_555
H14 C22 1_555 1_555
C23 C19 1_555 1_555
H15 C23 1_555 1_555
C24 C6 1_555 1_555
H16 C24 1_555 1_555
C25 C18 1_555 1_555
H17 C25 1_555 1_555
C26 C12 1_555 1_555
H18 C26 1_555 1_555
C27 O4 1_555 1_555
H19 C27 1_555 1_555
H20 C27 1_555 1_555
H21 C27 1_555 1_555
C28 O2 1_555 1_555
H22 C28 1_555 1_555
H23 C28 1_555 1_555
H24 C28 1_555 1_555
C10 C17 1_555 1_555
C14 C16 1_555 1_555
C19 C25 1_555 1_555
C20 C21 1_555 1_555
C22 C26 1_555 1_555
C23 C24 1_555 1_555

#END
