
#######################################################################
#
#                 Cambridge Crystallographic Data Centre
#                                CCDC 
#
#######################################################################
#
# If this CIF has been generated from an entry in the Cambridge 
# Structural Database, then it will include bibliographic, chemical, 
# crystal, experimental, refinement or atomic coordinate data resulting 
# from the CCDC's data processing and validation procedures.
#
#######################################################################

data_EPINOS
_chemical_formula_moiety         'C6 H12 O6'
_chemical_name_systematic        epi-Inositol
_symmetry_cell_setting           monoclinic
_symmetry_space_group_name_H-M   'P 21/c'
_symmetry_Int_Tables_number      14
_space_group_name_Hall           '-P 2ybc'
loop_
_symmetry_equiv_pos_site_id
_symmetry_equiv_pos_as_xyz
1 x,y,z
2 -x,1/2+y,1/2-z
3 -x,-y,-z
4 x,1/2-y,1/2+z
_cell_length_a                   4.841(3)
_cell_length_b                   14.727(4)
_cell_length_c                   11.236(4)
_cell_angle_alpha                90
_cell_angle_beta                 115.85
_cell_angle_gamma                90
_cell_volume                     720.898
_cell_formula_units_Z            4
loop_
_atom_site_label
_atom_site_type_symbol
_atom_site_fract_x
_atom_site_fract_y
_atom_site_fract_z
C1 C 0.10750 0.37060 0.38960
C2 C 0.13430 0.46090 0.32800
C3 C -0.11020 0.46360 0.18460
C4 C -0.07530 0.38330 0.10680
C5 C -0.12180 0.29500 0.16700
C6 C 0.11390 0.28640 0.31130
H1 H -0.08800 0.37000 0.39200
H2 H -0.24100 0.41000 -0.06600
H3 H 0.04000 0.21000 0.10300
H4 H 0.50200 0.23200 0.36700
H5 H 0.09200 0.51200 0.38100
H6 H -0.30600 0.45700 0.18200
H7 H 0.13800 0.38600 0.10800
H8 H -0.31900 0.30200 0.16000
H9 H 0.06700 0.23200 0.35500
H10 H 0.47600 0.34400 0.52600
H11 H 0.50100 0.52100 0.37200
H12 H -0.23500 0.56600 0.09500
O1 O 0.33300 0.36410 0.52480
O2 O 0.43280 0.47240 0.33350
O3 O -0.09070 0.54760 0.12490
O4 O -0.30230 0.38710 -0.02870
O5 O -0.11230 0.21790 0.09300
O6 O 0.40470 0.27230 0.31070
loop_
_geom_bond_atom_site_label_1
_geom_bond_atom_site_label_2
_geom_bond_site_symmetry_1
_geom_bond_site_symmetry_2
C1 C2 1_555 1_555
C2 C3 1_555 1_555
C3 C4 1_555 1_555
C4 C5 1_555 1_555
C5 C6 1_555 1_555
C6 C1 1_555 1_555
H1 C1 1_555 1_555
H2 O4 1_555 1_555
H3 O5 1_555 1_555
H4 O6 1_555 1_555
H5 C2 1_555 1_555
H6 C3 1_555 1_555
H7 C4 1_555 1_555
H8 C5 1_555 1_555
H9 C6 1_555 1_555
H10 O1 1_555 1_555
H11 O2 1_555 1_555
H12 O3 1_555 1_555
O1 C1 1_555 1_555
O2 C2 1_555 1_555
O3 C3 1_555 1_555
O4 C4 1_555 1_555
O5 C5 1_555 1_555
O6 C6 1_555 1_555

#END
