
#######################################################################
#
#                 Cambridge Crystallographic Data Centre
#                                CCDC 
#
#######################################################################
#
# If this CIF has been generated from an entry in the Cambridge 
# Structural Database, then it will include bibliographic, chemical, 
# crystal, experimental, refinement or atomic coordinate data resulting 
# from the CCDC's data processing and validation procedures.
#
#######################################################################

data_EPIQUR
_chemical_formula_moiety         'C84 H86 Mg3 N16 O6,0.5(C4 H8 O1)'
_chemical_name_systematic        
"bis(\m-2,2'-(((2-(piperidin-1-yl)ethyl)imino)bis(methylene))bis(6-(2H-benzotriazol-2-yl)-4-methylphenolato))-bis(\m-phenylmethanolato)-tri-magnesium tetrahydrofuran solvate"
_symmetry_cell_setting           monoclinic
_symmetry_space_group_name_H-M   'P 21/c'
_symmetry_Int_Tables_number      14
_space_group_name_Hall           '-P 2ybc'
loop_
_symmetry_equiv_pos_site_id
_symmetry_equiv_pos_as_xyz
1 x,y,z
2 -x,1/2+y,1/2-z
3 -x,-y,-z
4 x,1/2-y,1/2+z
_cell_length_a                   12.8610(2)
_cell_length_b                   22.5964(5)
_cell_length_c                   29.0187(6)
_cell_angle_alpha                90
_cell_angle_beta                 106.3330(10)
_cell_angle_gamma                90
_cell_volume                     8092.86
_exptl_crystal_colour            yellow
_exptl_crystal_description       block
_cell_formula_units_Z            4
loop_
_atom_site_label
_atom_site_type_symbol
_atom_site_fract_x
_atom_site_fract_y
_atom_site_fract_z
Mg1 Mg 0.76965(13) -0.23191(7) 0.05313(6)
Mg2 Mg 0.70438(12) -0.27745(6) -0.05021(6)
Mg3 Mg 0.64994(12) -0.30091(7) -0.15843(6)
O1 O 0.8946(2) -0.25983(12) 0.10127(12)
O2 O 0.6915(3) -0.20446(14) -0.01223(13)
O3 O 0.5470(2) -0.35792(13) -0.19455(12)
O4 O 0.6997(2) -0.23538(13) -0.11191(12)
O5 O 0.7373(2) -0.30805(12) 0.01662(11)
O6 O 0.6910(2) -0.34466(12) -0.09608(11)
N1 N 1.0198(3) -0.36476(18) 0.17715(19)
N2 N 0.9718(3) -0.31700(15) 0.18726(15)
N3 N 0.8816(3) -0.32495(17) 0.19980(17)
N4 N 0.5155(3) -0.25410(19) -0.07534(16)
N5 N 0.4750(3) -0.2009(2) -0.06936(16)
N6 N 0.3682(4) -0.1985(2) -0.07917(18)
N7 N 0.8390(4) -0.13720(16) 0.06277(17)
N8 N 0.6824(3) -0.19388(18) 0.10309(17)
N9 N 0.4692(3) -0.49127(17) -0.21820(15)
N10 N 0.5120(3) -0.46184(17) -0.24754(14)
N11 N 0.6021(3) -0.48358(19) -0.25547(16)
N12 N 0.8859(3) -0.24046(16) -0.03764(15)
N13 N 0.9105(3) -0.19592(17) -0.06407(15)
N14 N 1.0151(3) -0.18572(18) -0.05770(16)
N15 N 0.5571(3) -0.22829(17) -0.20859(15)
N16 N 0.7664(3) -0.2834(2) -0.20108(16)
C1 C 0.9639(4) -0.2323(2) 0.13621(19)
C2 C 1.0083(4) -0.25839(19) 0.18098(19)
C3 C 1.0814(4) -0.2308(2) 0.2191(2)
H1 H 1.1101 -0.2513 0.2485
C4 C 1.1125(4) -0.1731(2) 0.2140(2)
C5 C 1.0688(5) -0.1454(2) 0.1706(2)
H2 H 1.0894 -0.1057 0.1671
C6 C 0.9962(4) -0.1725(2) 0.1316(2)
C7 C 0.9584(4) -0.1424(2) 0.0835(2)
H3 H 0.9899 -0.1021 0.0866
H4 H 0.9879 -0.1643 0.0605
C8 C 0.8203(5) -0.1044(2) 0.0164(2)
H5 H 0.8500 -0.0639 0.0235
H6 H 0.8616 -0.1242 -0.0033
C9 C 0.7059(5) -0.0998(2) -0.0123(2)
C10 C 0.6449(5) -0.1526(2) -0.0272(2)
C11 C 0.5391(5) -0.1487(2) -0.0558(2)
C12 C 0.4915(5) -0.0938(3) -0.0709(2)
H7 H 0.4189 -0.0919 -0.0907
C13 C 0.5495(6) -0.0426(3) -0.0571(3)
C14 C 0.6556(5) -0.0462(3) -0.0281(3)
H8 H 0.6952 -0.0106 -0.0186
C15 C 0.9555(4) -0.4087(2) 0.1855(2)
C16 C 0.9629(5) -0.4707(2) 0.1811(3)
H9 H 1.0196 -0.4883 0.1708
C17 C 0.8860(5) -0.5039(2) 0.1923(3)
H10 H 0.8893 -0.5457 0.1896
C18 C 0.8016(4) -0.4790(2) 0.2076(2)
H11 H 0.7505 -0.5042 0.2158
C19 C 0.7917(4) -0.4200(2) 0.2108(2)
H12 H 0.7328 -0.4031 0.2200
C20 C 0.8707(4) -0.3841(2) 0.20016(19)
C21 C 0.4269(4) -0.2883(3) -0.09118(19)
C22 C 0.4162(4) -0.3476(3) -0.1044(2)
H13 H 0.4780 -0.3707 -0.1042
C23 C 0.3147(4) -0.3720(3) -0.1177(2)
H14 H 0.3057 -0.4125 -0.1269
C24 C 0.2238(5) -0.3377(4) -0.1179(3)
H15 H 0.1545 -0.3559 -0.1260
C25 C 0.2316(5) -0.2779(4) -0.1065(3)
H16 H 0.1694 -0.2545 -0.1079
C26 C 0.3359(4) -0.2540(3) -0.0930(2)
C27 C 1.1917(5) -0.1413(3) 0.2554(2)
H17 H 1.2419 -0.1176 0.2430
H18 H 1.2327 -0.1705 0.2784
H19 H 1.1517 -0.1153 0.2714
C28 C 0.4987(6) 0.0182(3) -0.0730(3)
H20 H 0.4464 0.0147 -0.1048
H21 H 0.5556 0.0463 -0.0745
H22 H 0.4616 0.0322 -0.0498
C29 C 0.7880(5) -0.1040(2) 0.0949(2)
H23 H 0.7247 -0.0819 0.0751
H24 H 0.8406 -0.0749 0.1137
C30 C 0.7520(5) -0.1438(2) 0.1288(2)
H25 H 0.7106 -0.1203 0.1465
H26 H 0.8165 -0.1602 0.1526
C31 C 0.6741(4) -0.2358(2) 0.14086(19)
H27 H 0.6401 -0.2157 0.1632
H28 H 0.7478 -0.2483 0.1594
C32 C 0.6090(4) -0.2892(2) 0.12048(19)
H29 H 0.6042 -0.3157 0.1470
H30 H 0.6459 -0.3111 0.1000
C33 C 0.4959(4) -0.2725(2) 0.0909(2)
H31 H 0.4546 -0.2564 0.1122
H32 H 0.4576 -0.3081 0.0748
C34 C 0.5023(4) -0.2254(2) 0.0526(2)
H33 H 0.5334 -0.2435 0.0284
H34 H 0.4286 -0.2110 0.0360
C35 C 0.5722(4) -0.1741(2) 0.0766(2)
H35 H 0.5773 -0.1448 0.0519
H36 H 0.5380 -0.1544 0.0991
C36 C 0.4849(4) -0.3564(2) -0.23896(19)
C37 C 0.4656(3) -0.4066(2) -0.26843(17)
C38 C 0.4041(4) -0.4060(2) -0.31561(19)
H37 H 0.3949 -0.4413 -0.3340
C39 C 0.3553(4) -0.3538(3) -0.3366(2)
C40 C 0.3698(4) -0.3039(2) -0.3074(2)
H38 H 0.3349 -0.2682 -0.3207
C41 C 0.4323(3) -0.3034(2) -0.26017(19)
C42 C 0.4438(4) -0.2491(2) -0.2300(2)
H39 H 0.4106 -0.2568 -0.2037
H40 H 0.4022 -0.2168 -0.2500
C43 C 0.5517(4) -0.1720(2) -0.18297(19)
H41 H 0.5086 -0.1787 -0.1600
H42 H 0.5128 -0.1423 -0.2067
C44 C 0.6609(4) -0.1467(2) -0.15576(19)
C45 C 0.7303(4) -0.18158(19) -0.12026(18)
C46 C 0.8316(4) -0.15936(19) -0.09677(18)
C47 C 0.8627(4) -0.1031(2) -0.1072(2)
H43 H 0.9324 -0.0886 -0.0904
C48 C 0.7949(4) -0.0683(2) -0.1412(2)
C49 C 0.6928(4) -0.0910(2) -0.1659(2)
H44 H 0.6449 -0.0677 -0.1900
C50 C 0.5393(3) -0.5378(2) -0.20446(18)
C51 C 0.5386(4) -0.5846(2) -0.1721(2)
H45 H 0.4827 -0.5882 -0.1568
C52 C 0.6215(4) -0.6243(2) -0.1640(2)
H46 H 0.6232 -0.6563 -0.1426
C53 C 0.7044(4) -0.6191(2) -0.1865(2)
H47 H 0.7611 -0.6475 -0.1796
C54 C 0.7061(4) -0.5748(2) -0.2178(2)
H48 H 0.7628 -0.5720 -0.2328
C55 C 0.6202(4) -0.5325(2) -0.22756(19)
C56 C 0.9853(4) -0.2597(2) -0.01101(18)
C57 C 1.0126(4) -0.3039(2) 0.02439(19)
H49 H 0.9590 -0.3259 0.0338
C58 C 1.1202(4) -0.3134(2) 0.0444(2)
H50 H 1.1425 -0.3425 0.0688
C59 C 1.2013(4) -0.2807(3) 0.0298(2)
H51 H 1.2754 -0.2903 0.0437
C60 C 1.1755(4) -0.2363(3) -0.0033(2)
H52 H 1.2297 -0.2140 -0.0121
C61 C 1.0646(4) -0.2253(2) -0.02368(19)
C62 C 0.2864(4) -0.3524(3) -0.3886(2)
H53 H 0.2181 -0.3319 -0.3907
H54 H 0.2711 -0.3930 -0.4004
H55 H 0.3255 -0.3315 -0.4081
C63 C 0.8312(5) -0.0072(2) -0.1517(3)
H56 H 0.9106 -0.0054 -0.1417
H57 H 0.8023 0.0225 -0.1340
H58 H 0.8043 0.0007 -0.1862
C64 C 0.6124(4) -0.2203(2) -0.24631(18)
H59 H 0.5951 -0.1805 -0.2606
H60 H 0.5841 -0.2498 -0.2720
C65 C 0.7311(5) -0.2267(2) -0.2284(2)
H61 H 0.7607 -0.1928 -0.2071
H62 H 0.7621 -0.2252 -0.2559
C66 C 0.7639(4) -0.3332(3) -0.2328(2)
H63 H 0.8073 -0.3235 -0.2551
H64 H 0.6883 -0.3402 -0.2522
C67 C 0.8082(4) -0.3890(2) -0.2053(2)
H65 H 0.8085 -0.4214 -0.2282
H66 H 0.7609 -0.4010 -0.1853
C68 C 0.9228(5) -0.3789(2) -0.1734(2)
H67 H 0.9730 -0.3739 -0.1935
H68 H 0.9469 -0.4134 -0.1522
C69 C 0.9240(4) -0.3231(3) -0.1431(2)
H69 H 0.8809 -0.3301 -0.1202
H70 H 0.9993 -0.3139 -0.1244
C70 C 0.8787(4) -0.2730(2) -0.1740(2)
H71 H 0.8829 -0.2371 -0.1541
H72 H 0.9223 -0.2660 -0.1967
C71 C 0.7574(4) -0.3645(2) 0.03732(19)
H73 H 0.8077 -0.3606 0.0700
H74 H 0.7941 -0.3888 0.0181
C72 C 0.6557(4) -0.3971(2) 0.04067(18)
C73 C 0.6640(5) -0.4425(2) 0.0735(2)
H75 H 0.7330 -0.4536 0.0938
C74 C 0.5711(6) -0.4719(3) 0.0769(3)
H76 H 0.5776 -0.5031 0.0996
C75 C 0.4693(6) -0.4565(3) 0.0479(2)
H77 H 0.4064 -0.4767 0.0503
C76 C 0.4615(5) -0.4114(3) 0.0156(2)
H78 H 0.3926 -0.4002 -0.0047
C77 C 0.5536(4) -0.3820(2) 0.0123(2)
H79 H 0.5465 -0.3506 -0.0101
C78 C 0.6838(4) -0.4069(2) -0.09095(19)
H80 H 0.6318 -0.4230 -0.1202
H81 H 0.6545 -0.4152 -0.0635
C79 C 0.7911(4) -0.4388(2) -0.08293(18)
C80 C 0.7937(5) -0.4952(2) -0.1001(2)
H82 H 0.7285 -0.5141 -0.1174
C81 C 0.8922(6) -0.5245(2) -0.0919(3)
H83 H 0.8934 -0.5631 -0.1047
C82 C 0.9887(5) -0.4991(3) -0.0656(2)
H84 H 1.0555 -0.5197 -0.0603
C83 C 0.9846(4) -0.4439(3) -0.0478(2)
H85 H 1.0496 -0.4258 -0.0292
C84 C 0.8887(4) -0.4138(2) -0.0561(2)
H86 H 0.8885 -0.3751 -0.0433
O7 O 0.2295(7) -0.0402(4) -0.1251(4)
C85 C 0.1570(8) -0.0759(5) -0.1095(4)
H87 H 0.1033 -0.0515 -0.0994
H88 H 0.1959 -0.1014 -0.0823
C86 C 0.1006(10) -0.1143(6) -0.1554(6)
H89 H 0.0899 -0.1556 -0.1463
H90 H 0.0294 -0.0973 -0.1728
C87 C 0.1701(14) -0.1119(5) -0.1823(5)
H91 H 0.1301 -0.1154 -0.2167
H92 H 0.2224 -0.1450 -0.1738
C88 C 0.2292(11) -0.0540(9) -0.1731(5)
H93 H 0.3040 -0.0580 -0.1758
H94 H 0.1907 -0.0232 -0.1959
loop_
_geom_bond_atom_site_label_1
_geom_bond_atom_site_label_2
_geom_bond_site_symmetry_1
_geom_bond_site_symmetry_2
Mg1 O1 1_555 1_555
Mg2 O2 1_555 1_555
Mg3 O3 1_555 1_555
O1 C1 1_555 1_555
O2 Mg1 1_555 1_555
O3 C36 1_555 1_555
O4 Mg2 1_555 1_555
O5 Mg1 1_555 1_555
O6 Mg2 1_555 1_555
N1 N2 1_555 1_555
N2 N3 1_555 1_555
N3 C20 1_555 1_555
N4 Mg2 1_555 1_555
N5 N4 1_555 1_555
N6 N5 1_555 1_555
N7 Mg1 1_555 1_555
N8 Mg1 1_555 1_555
N9 N10 1_555 1_555
N10 N11 1_555 1_555
N11 C55 1_555 1_555
N12 Mg2 1_555 1_555
N13 N12 1_555 1_555
N14 N13 1_555 1_555
N15 Mg3 1_555 1_555
N16 Mg3 1_555 1_555
C1 C2 1_555 1_555
C2 N2 1_555 1_555
C3 C2 1_555 1_555
H1 C3 1_555 1_555
C4 C3 1_555 1_555
C5 C4 1_555 1_555
H2 C5 1_555 1_555
C6 C1 1_555 1_555
C7 N7 1_555 1_555
H3 C7 1_555 1_555
H4 C7 1_555 1_555
C8 N7 1_555 1_555
H5 C8 1_555 1_555
H6 C8 1_555 1_555
C9 C8 1_555 1_555
C10 O2 1_555 1_555
C11 N5 1_555 1_555
C12 C11 1_555 1_555
H7 C12 1_555 1_555
C13 C12 1_555 1_555
C14 C9 1_555 1_555
H8 C14 1_555 1_555
C15 N1 1_555 1_555
C16 C15 1_555 1_555
H9 C16 1_555 1_555
C17 C16 1_555 1_555
H10 C17 1_555 1_555
C18 C17 1_555 1_555
H11 C18 1_555 1_555
C19 C18 1_555 1_555
H12 C19 1_555 1_555
C20 C15 1_555 1_555
C21 N4 1_555 1_555
C22 C21 1_555 1_555
H13 C22 1_555 1_555
C23 C22 1_555 1_555
H14 C23 1_555 1_555
C24 C23 1_555 1_555
H15 C24 1_555 1_555
C25 C24 1_555 1_555
H16 C25 1_555 1_555
C26 N6 1_555 1_555
C27 C4 1_555 1_555
H17 C27 1_555 1_555
H18 C27 1_555 1_555
H19 C27 1_555 1_555
C28 C13 1_555 1_555
H20 C28 1_555 1_555
H21 C28 1_555 1_555
H22 C28 1_555 1_555
C29 N7 1_555 1_555
H23 C29 1_555 1_555
H24 C29 1_555 1_555
C30 N8 1_555 1_555
H25 C30 1_555 1_555
H26 C30 1_555 1_555
C31 N8 1_555 1_555
H27 C31 1_555 1_555
H28 C31 1_555 1_555
C32 C31 1_555 1_555
H29 C32 1_555 1_555
H30 C32 1_555 1_555
C33 C32 1_555 1_555
H31 C33 1_555 1_555
H32 C33 1_555 1_555
C34 C33 1_555 1_555
H33 C34 1_555 1_555
H34 C34 1_555 1_555
C35 N8 1_555 1_555
H35 C35 1_555 1_555
H36 C35 1_555 1_555
C36 C37 1_555 1_555
C37 N10 1_555 1_555
C38 C37 1_555 1_555
H37 C38 1_555 1_555
C39 C38 1_555 1_555
C40 C39 1_555 1_555
H38 C40 1_555 1_555
C41 C36 1_555 1_555
C42 N15 1_555 1_555
H39 C42 1_555 1_555
H40 C42 1_555 1_555
C43 N15 1_555 1_555
H41 C43 1_555 1_555
H42 C43 1_555 1_555
C44 C43 1_555 1_555
C45 O4 1_555 1_555
C46 N13 1_555 1_555
C47 C46 1_555 1_555
H43 C47 1_555 1_555
C48 C47 1_555 1_555
C49 C44 1_555 1_555
H44 C49 1_555 1_555
C50 N9 1_555 1_555
C51 C50 1_555 1_555
H45 C51 1_555 1_555
C52 C51 1_555 1_555
H46 C52 1_555 1_555
C53 C52 1_555 1_555
H47 C53 1_555 1_555
C54 C53 1_555 1_555
H48 C54 1_555 1_555
C55 C50 1_555 1_555
C56 N12 1_555 1_555
C57 C56 1_555 1_555
H49 C57 1_555 1_555
C58 C57 1_555 1_555
H50 C58 1_555 1_555
C59 C58 1_555 1_555
H51 C59 1_555 1_555
C60 C59 1_555 1_555
H52 C60 1_555 1_555
C61 N14 1_555 1_555
C62 C39 1_555 1_555
H53 C62 1_555 1_555
H54 C62 1_555 1_555
H55 C62 1_555 1_555
C63 C48 1_555 1_555
H56 C63 1_555 1_555
H57 C63 1_555 1_555
H58 C63 1_555 1_555
C64 N15 1_555 1_555
H59 C64 1_555 1_555
H60 C64 1_555 1_555
C65 N16 1_555 1_555
H61 C65 1_555 1_555
H62 C65 1_555 1_555
C66 N16 1_555 1_555
H63 C66 1_555 1_555
H64 C66 1_555 1_555
C67 C66 1_555 1_555
H65 C67 1_555 1_555
H66 C67 1_555 1_555
C68 C67 1_555 1_555
H67 C68 1_555 1_555
H68 C68 1_555 1_555
C69 C68 1_555 1_555
H69 C69 1_555 1_555
H70 C69 1_555 1_555
C70 N16 1_555 1_555
H71 C70 1_555 1_555
H72 C70 1_555 1_555
C71 O5 1_555 1_555
H73 C71 1_555 1_555
H74 C71 1_555 1_555
C72 C71 1_555 1_555
C73 C72 1_555 1_555
H75 C73 1_555 1_555
C74 C73 1_555 1_555
H76 C74 1_555 1_555
C75 C74 1_555 1_555
H77 C75 1_555 1_555
C76 C75 1_555 1_555
H78 C76 1_555 1_555
C77 C72 1_555 1_555
H79 C77 1_555 1_555
C78 O6 1_555 1_555
H80 C78 1_555 1_555
H81 C78 1_555 1_555
C79 C78 1_555 1_555
C80 C79 1_555 1_555
H82 C80 1_555 1_555
C81 C80 1_555 1_555
H83 C81 1_555 1_555
C82 C81 1_555 1_555
H84 C82 1_555 1_555
C83 C82 1_555 1_555
H85 C83 1_555 1_555
C84 C79 1_555 1_555
H86 C84 1_555 1_555
O7 C85 1_555 1_555
C85 H87 1_555 1_555
H88 C85 1_555 1_555
C86 C85 1_555 1_555
H89 C86 1_555 1_555
H90 C86 1_555 1_555
C87 C86 1_555 1_555
H91 C87 1_555 1_555
H92 C87 1_555 1_555
C88 O7 1_555 1_555
H93 C88 1_555 1_555
H94 C88 1_555 1_555
Mg2 O5 1_555 1_555
Mg3 O4 1_555 1_555
Mg3 O6 1_555 1_555
C5 C6 1_555 1_555
C6 C7 1_555 1_555
C9 C10 1_555 1_555
C10 C11 1_555 1_555
C13 C14 1_555 1_555
C19 C20 1_555 1_555
C21 C26 1_555 1_555
C25 C26 1_555 1_555
C29 C30 1_555 1_555
C34 C35 1_555 1_555
C40 C41 1_555 1_555
C41 C42 1_555 1_555
C44 C45 1_555 1_555
C45 C46 1_555 1_555
C48 C49 1_555 1_555
C54 C55 1_555 1_555
C56 C61 1_555 1_555
C60 C61 1_555 1_555
C64 C65 1_555 1_555
C69 C70 1_555 1_555
C76 C77 1_555 1_555
C83 C84 1_555 1_555
C87 C88 1_555 1_555

#END
