
#######################################################################
#
#                 Cambridge Crystallographic Data Centre
#                                CCDC 
#
#######################################################################
#
# If this CIF has been generated from an entry in the Cambridge 
# Structural Database, then it will include bibliographic, chemical, 
# crystal, experimental, refinement or atomic coordinate data resulting 
# from the CCDC's data processing and validation procedures.
#
#######################################################################

data_EPIRUR
_chemical_formula_moiety         'C60 H60 N6 O6,6(C1 H2 Cl2)'
_chemical_name_systematic        
'7,16,23,30,39,46-Hexamethoxy-10,13,33,36,48,51-hexaazadecacyclo[22.22.6.3^8,41^.3^18,31^.1^15,19^.1^38,42^.0^3,44^.0^5,55^.0^21,26^.0^28,58^]hexaconta-1(46),2,5,7,9,13,15(60),16,18,21,23,25,28,30,32,36,38(53),39,41,44,47,51,55,57-tetracosaene dichloromethane solvate'
_symmetry_cell_setting           rhombohedral
_symmetry_space_group_name_H-M   'R 3 2'
_symmetry_Int_Tables_number      155
_space_group_name_Hall           'R 3 2"'
loop_
_symmetry_equiv_pos_site_id
_symmetry_equiv_pos_as_xyz
1 x,y,z
2 -y,x-y,z
3 -x+y,-x,z
4 y,x,-z
5 x-y,-y,-z
6 -x,-x+y,-z
7 2/3+x,1/3+y,1/3+z
8 2/3-y,1/3+x-y,1/3+z
9 2/3-x+y,1/3-x,1/3+z
10 2/3+y,1/3+x,1/3-z
11 2/3+x-y,1/3-y,1/3-z
12 2/3-x,1/3-x+y,1/3-z
13 1/3+x,2/3+y,2/3+z
14 1/3-y,2/3+x-y,2/3+z
15 1/3-x+y,2/3-x,2/3+z
16 1/3+y,2/3+x,2/3-z
17 1/3+x-y,2/3-y,2/3-z
18 1/3-x,2/3-x+y,2/3-z
_cell_length_a                   16.2073(7)
_cell_length_b                   16.2073(7)
_cell_length_c                   23.4757(18)
_cell_angle_alpha                90
_cell_angle_beta                 90
_cell_angle_gamma                120
_cell_volume                     5340.36
_exptl_crystal_colour            colorless
_exptl_crystal_description       lath
_cell_formula_units_Z            3
loop_
_atom_site_label
_atom_site_type_symbol
_atom_site_fract_x
_atom_site_fract_y
_atom_site_fract_z
N1 N -0.35417(16) -0.31877(23) -0.05979(10)
O1 O -0.32745(13) -0.05875(18) -0.06791(8)
C1 C -0.26253(17) -0.06940(24) -0.09972(10)
C2 C -0.26862(17) -0.15904(24) -0.09745(11)
C3 C -0.20547(17) -0.17265(24) -0.13028(11)
H1 H -0.2096 -0.2332 -0.1292
C4 C -0.13632(17) -0.10224(24) -0.16475(11)
C5 C -0.12975(16) -0.01308(23) -0.16576(10)
C6 C -0.19381(17) 0.00210(24) -0.13380(11)
H2 H -0.1903 0.0623 -0.1354
C7 C -0.3230(2) 0.03081(28) -0.07152(14)
H3 H -0.3722 0.0304 -0.0470
H4 H -0.3337 0.0426 -0.1110
H5 H -0.2601 0.0812 -0.0590
C8 C -0.34051(17) -0.23420(25) -0.06069(11)
H6 H -0.3782 -0.2190 -0.0367
C9 C -0.42671(18) -0.38451(27) -0.02020(13)
H7 H -0.4799 -0.4364 -0.0418
H8 H -0.4524 -0.3503 0.0019
C10 C -0.07180(18) -0.12653(25) -0.19945(10)
H9 H -0.0480 -0.0840 -0.2331
H10 H -0.1097 -0.1928 -0.2135
N1A N 0.31877(23) -0.03540(28) -0.05979(10)
N1E N 0.35417(16) 0.03540(28) 0.05979(10)
N1C N -0.31877(23) -0.35417(16) 0.05979(10)
N1D N -0.03540(28) 0.31877(23) 0.05979(10)
N1B N 0.03540(28) 0.35417(16) -0.05979(10)
O1A O 0.05875(18) -0.26870(22) -0.06791(8)
O1E O 0.32745(13) 0.26870(22) 0.06791(8)
O1C O -0.05875(18) -0.32745(13) 0.06791(8)
O1D O -0.26870(22) 0.05875(18) 0.06791(8)
O1B O 0.26870(22) 0.32745(13) -0.06791(8)
C1A C 0.06940(24) -0.19313(29) -0.09972(10)
C1E C 0.26253(17) 0.19313(29) 0.09972(10)
C1C C -0.06940(24) -0.26253(17) 0.09972(10)
C1D C -0.19313(29) 0.06940(24) 0.09972(10)
C1B C 0.19313(29) 0.26253(17) -0.09972(10)
C2A C 0.15904(24) -0.10958(29) -0.09745(11)
C2E C 0.26862(17) 0.10958(29) 0.09745(11)
C2C C -0.15904(24) -0.26862(17) 0.09745(11)
C2D C -0.10958(29) 0.15904(24) 0.09745(11)
C2B C 0.10958(29) 0.26862(17) -0.09745(11)
C3A C 0.17265(24) -0.03282(29) -0.13028(11)
C3E C 0.20547(17) 0.03282(29) 0.13028(11)
C3C C -0.17265(24) -0.20547(17) 0.13028(11)
C3D C -0.03282(29) 0.17265(24) 0.13028(11)
C3B C 0.03282(29) 0.20547(17) -0.13028(11)
H1E H 0.2096 -0.0236 0.1292
H1C H -0.2332 -0.2096 0.1292
H1B H -0.0236 0.2096 -0.1292
H1D H 0.0236 0.2332 0.1292
H1A H 0.2332 0.0236 -0.1292
C4A C 0.10224(24) -0.03408(29) -0.16475(11)
C4E C 0.13632(17) 0.03408(29) 0.16475(11)
C4C C -0.10224(24) -0.13632(17) 0.16475(11)
C4D C -0.03408(29) 0.10224(24) 0.16475(11)
C4B C 0.03408(29) 0.13632(17) -0.16475(11)
C5A C 0.01308(23) -0.11667(28) -0.16576(10)
C5E C 0.12975(16) 0.11667(28) 0.16576(10)
C5C C -0.01308(23) -0.12975(16) 0.16576(10)
C5D C -0.11667(28) 0.01308(23) 0.16576(10)
C5B C 0.11667(28) 0.12975(16) -0.16576(10)
C6A C -0.00210(24) -0.19591(29) -0.13380(11)
C6E C 0.19381(17) 0.19591(29) 0.13380(11)
C6C C 0.00210(24) -0.19381(17) 0.13380(11)
C6D C -0.19591(29) -0.00210(24) 0.13380(11)
C6B C 0.19591(29) 0.19381(17) -0.13380(11)
H2A H -0.0623 -0.2526 -0.1354
H2C H 0.0623 -0.1903 0.1354
H2D H -0.2526 -0.0623 0.1354
H2B H 0.2526 0.1903 -0.1354
H2E H 0.1903 0.2526 0.1354
C7A C -0.03081(28) -0.35381(34) -0.07152(14)
C7E C 0.3230(2) 0.35381(34) 0.07152(14)
C7C C 0.03081(28) -0.3230(2) 0.07152(14)
C7D C -0.35381(34) -0.03081(28) 0.07152(14)
C7B C 0.35381(34) 0.3230(2) -0.07152(14)
H3A H -0.0304 -0.4026 -0.0470
H3E H 0.3722 0.4026 0.0470
H3C H 0.0304 -0.3722 0.0470
H3D H -0.4026 -0.0304 0.0470
H3B H 0.4026 0.3722 -0.0470
H4A H -0.0426 -0.3763 -0.1110
H4E H 0.3337 0.3763 0.1110
H4C H 0.0426 -0.3337 0.1110
H4D H -0.3763 -0.0426 0.1110
H4B H 0.3763 0.3337 -0.1110
H5A H -0.0812 -0.3413 -0.0590
H5E H 0.2601 0.3413 0.0590
H5C H 0.0812 -0.2601 0.0590
H5D H -0.3413 -0.0812 0.0590
H5B H 0.3413 0.2601 -0.0590
C8A C 0.23420(25) -0.10631(30) -0.06069(11)
C8E C 0.34051(17) 0.10631(30) 0.06069(11)
C8C C -0.23420(25) -0.34051(17) 0.06069(11)
C8D C -0.10631(30) 0.23420(25) 0.06069(11)
C8B C 0.10631(30) 0.34051(17) -0.06069(11)
H6C H -0.2190 -0.3782 0.0367
H6B H 0.1592 0.3782 -0.0367
H6D H -0.1592 0.2190 0.0367
H6E H 0.3782 0.1592 0.0367
H6A H 0.2190 -0.1592 -0.0367
C9A C 0.38451(27) -0.04220(32) -0.02020(13)
C9E C 0.42671(18) 0.04220(32) 0.02020(13)
C9C C -0.38451(27) -0.42671(18) 0.02020(13)
C9D C -0.04220(32) 0.38451(27) 0.02020(13)
C9B C 0.04220(32) 0.42671(18) -0.02020(13)
H7C H -0.4364 -0.4799 0.0418
H7B H 0.0435 0.4799 -0.0418
H7D H -0.0435 0.4364 0.0418
H7E H 0.4799 0.0435 0.0418
H7A H 0.4364 -0.0435 -0.0418
H8C H -0.3503 -0.4524 -0.0019
H8B H 0.1021 0.4524 0.0019
H8D H -0.1021 0.3503 -0.0019
H8E H 0.4524 0.1021 -0.0019
H8A H 0.3503 -0.1021 0.0019
C10E C 0.07180(18) -0.05473(31) 0.19945(10)
C10C C -0.12653(25) -0.07180(18) 0.19945(10)
C10B C -0.05473(31) 0.07180(18) -0.19945(10)
C10A C 0.12653(25) 0.05473(31) -0.19945(10)
C10D C 0.05473(31) 0.12653(25) 0.19945(10)
H9B H -0.0360 0.0480 -0.2331
H9A H 0.0840 0.0360 -0.2331
H9D H 0.0360 0.0840 0.2331
H9C H -0.0840 -0.0480 0.2331
H9E H 0.0480 -0.0360 0.2331
H10B H -0.0831 0.1097 -0.2135
H10A H 0.1928 0.0831 -0.2135
H10D H 0.0831 0.1928 0.2135
H10C H -0.1928 -0.1097 0.2135
H10E H 0.1097 -0.0831 0.2135
C11 C 0.0993(2) 0.4326(2) 0.1667
H11 H 0.0678 0.3923 0.1329
Cl1 Cl 0.21028(7) 0.44272(9) 0.17600(6)
H11I H 0.0590 0.4011 0.2004
Cl1I Cl 0.10939(9) 0.54361(7) 0.15733(6)
C12? C 0.3333 0.6667 0.0639(3)
H12? H 0.2805 0.6763 0.0457
H13? H 0.3333 0.6667 0.0963
Cl2? Cl 0.4362(5) 0.7614(4) 0.0248(4)
Cl3? Cl 0.3076(5) 0.5591(7) 0.0258(4)
C13? C 0.0000 0.0000 0.0319(5)
H14? H -0.0276 -0.0553 0.0568
H15? H 0.0276 0.0553 0.0568
Cl4? Cl -0.0756(10) 0.0229(8) -0.0069(5)
Cl5? Cl 0.0989(8) 0.0232(6) -0.0024(5)
loop_
_geom_bond_atom_site_label_1
_geom_bond_atom_site_label_2
_geom_bond_site_symmetry_1
_geom_bond_site_symmetry_2
N1 C8 1_555 1_555
O1 C1 1_555 1_555
C1 C2 1_555 1_555
C2 C3 1_555 1_555
C3 H1 1_555 1_555
C4 C3 1_555 1_555
C5 C4 1_555 1_555
C6 C1 1_555 1_555
H2 C6 1_555 1_555
C7 O1 1_555 1_555
H3 C7 1_555 1_555
H4 C7 1_555 1_555
H5 C7 1_555 1_555
C8 C2 1_555 1_555
H6 C8 1_555 1_555
C9 N1 1_555 1_555
H7 C9 1_555 1_555
H8 C9 1_555 1_555
C10 C4 1_555 1_555
H9 C10 1_555 1_555
H10 C10 1_555 1_555
C11 H11 1_555 1_555
Cl1 C11 1_555 1_555
N1A C8A 1_555 1_555
N1E C8E 1_555 1_555
N1C C8C 1_555 1_555
N1D C8D 1_555 1_555
N1B C8B 1_555 1_555
O1A C1A 1_555 1_555
O1E C1E 1_555 1_555
O1C C1C 1_555 1_555
O1D C1D 1_555 1_555
O1B C1B 1_555 1_555
C1A C2A 1_555 1_555
C1E C2E 1_555 1_555
C1C C2C 1_555 1_555
C1D C2D 1_555 1_555
C1B C2B 1_555 1_555
C2A C3A 1_555 1_555
C2E C3E 1_555 1_555
C2C C3C 1_555 1_555
C2D C3D 1_555 1_555
C2B C3B 1_555 1_555
C3A H1A 1_555 1_555
C3E H1E 1_555 1_555
C3C H1C 1_555 1_555
C3D H1D 1_555 1_555
C3B H1B 1_555 1_555
C4A C3A 1_555 1_555
C4E C3E 1_555 1_555
C4C C3C 1_555 1_555
C4D C3D 1_555 1_555
C4B C3B 1_555 1_555
C5A C10 1_555 1_555
C5E C4E 1_555 1_555
C5C C4C 1_555 1_555
C5D C4D 1_555 1_555
C5B C4B 1_555 1_555
C6A C1A 1_555 1_555
C6E C1E 1_555 1_555
C6C C1C 1_555 1_555
C6D C1D 1_555 1_555
C6B C1B 1_555 1_555
H2A C6A 1_555 1_555
H2C C6C 1_555 1_555
H2D C6D 1_555 1_555
H2B C6B 1_555 1_555
H2E C6E 1_555 1_555
C7A O1A 1_555 1_555
C7E O1E 1_555 1_555
C7C O1C 1_555 1_555
C7D O1D 1_555 1_555
C7B O1B 1_555 1_555
H3A C7A 1_555 1_555
H3E C7E 1_555 1_555
H3C C7C 1_555 1_555
H3D C7D 1_555 1_555
H3B C7B 1_555 1_555
H4A C7A 1_555 1_555
H4E C7E 1_555 1_555
H4C C7C 1_555 1_555
H4D C7D 1_555 1_555
H4B C7B 1_555 1_555
H5A C7A 1_555 1_555
H5E C7E 1_555 1_555
H5C C7C 1_555 1_555
H5D C7D 1_555 1_555
H5B C7B 1_555 1_555
C8A C2A 1_555 1_555
C8E C2E 1_555 1_555
C8C C2C 1_555 1_555
C8D C2D 1_555 1_555
C8B C2B 1_555 1_555
H6C C8C 1_555 1_555
H6B C8B 1_555 1_555
H6D C8D 1_555 1_555
H6E C8E 1_555 1_555
H6A C8A 1_555 1_555
C9A N1A 1_555 1_555
C9E N1E 1_555 1_555
C9C C9 1_555 1_555
C9D N1D 1_555 1_555
C9B N1B 1_555 1_555
H7C C9C 1_555 1_555
H7B C9B 1_555 1_555
H7D C9D 1_555 1_555
H7E C9E 1_555 1_555
H7A C9A 1_555 1_555
H8C C9C 1_555 1_555
H8B C9B 1_555 1_555
H8D C9D 1_555 1_555
H8E C9E 1_555 1_555
H8A C9A 1_555 1_555
C10E C4E 1_555 1_555
C10C C4C 1_555 1_555
C10B C5 1_555 1_555
C10A C4A 1_555 1_555
C10D C4D 1_555 1_555
H9B C10B 1_555 1_555
H9A C10A 1_555 1_555
H9D C10D 1_555 1_555
H9C C10C 1_555 1_555
H9E C10E 1_555 1_555
H10B C10B 1_555 1_555
H10A C10A 1_555 1_555
H10D C10D 1_555 1_555
H10C C10C 1_555 1_555
H10E C10E 1_555 1_555
H11I C11 1_555 1_555
Cl1I C11 1_555 1_555
C5 C6 1_555 1_555
N1C C9C 1_555 1_555
C4A C5A 1_555 1_555
C4B C10B 1_555 1_555
C5A C6A 1_555 1_555
C5E C6E 1_555 1_555
C5E C10D 1_555 1_555
C5C C6C 1_555 1_555
C5C C10E 1_555 1_555
C5D C6D 1_555 1_555
C5D C10C 1_555 1_555
C5B C6B 1_555 1_555
C5B C10A 1_555 1_555
C9A C9E 1_555 1_555
C9D C9B 1_555 1_555

#END
