
#######################################################################
#
#                 Cambridge Crystallographic Data Centre
#                                CCDC 
#
#######################################################################
#
# If this CIF has been generated from an entry in the Cambridge 
# Structural Database, then it will include bibliographic, chemical, 
# crystal, experimental, refinement or atomic coordinate data resulting 
# from the CCDC's data processing and validation procedures.
#
#######################################################################

data_EPIROL
_chemical_formula_moiety         'C17 H10 N6'
_chemical_name_systematic        
3-(4-(Dimethylamino)phenyl)buta-1,3-diene-1,1,2,4,4-pentacarbonitrile
_symmetry_cell_setting           tetragonal
_symmetry_space_group_name_H-M   'P 43'
_symmetry_Int_Tables_number      78
_space_group_name_Hall           'P 4cw'
loop_
_symmetry_equiv_pos_site_id
_symmetry_equiv_pos_as_xyz
1 x,y,z
2 -y,x,3/4+z
3 -x,-y,1/2+z
4 y,-x,1/4+z
_cell_length_a                   11.5737(3)
_cell_length_b                   11.5737(3)
_cell_length_c                   11.5001(5)
_cell_angle_alpha                90
_cell_angle_beta                 90
_cell_angle_gamma                90
_cell_volume                     1540.44
_exptl_crystal_colour            black
_exptl_crystal_description       cube
_cell_formula_units_Z            4
loop_
_atom_site_label
_atom_site_type_symbol
_atom_site_fract_x
_atom_site_fract_y
_atom_site_fract_z
N1 N -0.27362(17) 0.20644(18) 0.30277(19)
N2 N 0.4398(2) 0.1391(2) -0.0086(4)
N3 N 0.16427(19) -0.10136(18) 0.0524(3)
N4 N 0.1286(5) 0.4287(4) -0.1070(5)
N5 N 0.3927(5) 0.5670(5) 0.1154(5)
N6 N 0.3840(4) 0.2951(5) 0.3203(4)
C1 C 0.0536(2) 0.20524(19) 0.1466(2)
C2 C -0.02358(19) 0.11095(19) 0.1355(2)
H1 H -0.001(2) 0.034(2) 0.093(2)
C3 C -0.1304(2) 0.1111(2) 0.1846(2)
H2 H -0.180(2) 0.044(2) 0.173(2)
C4 C -0.17000(18) 0.20746(19) 0.2500(2)
C5 C -0.0952(2) 0.3050(2) 0.2574(2)
H3 H -0.122(2) 0.370(3) 0.298(3)
C6 C 0.0106(2) 0.3028(2) 0.2071(2)
H4 H 0.066(3) 0.380(2) 0.213(3)
C7 C -0.3498(3) 0.1072(3) 0.2934(3)
H5 H -0.310(4) 0.047(4) 0.317(5)
H6 H -0.385(4) 0.097(4) 0.225(5)
H7 H -0.414(3) 0.111(3) 0.353(3)
C8 C -0.3111(2) 0.3035(3) 0.3743(3)
H8 H -0.249(3) 0.314(3) 0.420(3)
H9 H -0.328(3) 0.370(3) 0.321(3)
H10 H -0.385(4) 0.295(3) 0.398(4)
C9 C 0.1696(2) 0.20212(19) 0.1056(3)
C10 C 0.2312(2) 0.10969(19) 0.0646(2)
C11 C 0.3472(3) 0.1253(2) 0.0232(3)
C12 C 0.1926(2) -0.0073(2) 0.0588(2)
C13 C 0.2515(4) 0.3026(4) 0.1378(4)
C14 C 0.3249(6) 0.3026(5) 0.2410(6)
C15 C 0.2552(3) 0.3987(4) 0.0694(4)
C16 C 0.1833(6) 0.4093(5) -0.0327(6)
C17 C 0.3356(5) 0.4917(5) 0.0944(5)
C18? C 0.2149(4) 0.3199(4) 0.0761(5)
C19? C 0.1626(6) 0.3987(5) -0.0062(6)
C20? C 0.3066(4) 0.3607(4) 0.1385(5)
C21? C 0.3559(6) 0.2904(5) 0.2271(5)
C22? C 0.3556(6) 0.4728(6) 0.1184(6)
N7? N 0.4054(5) 0.2472(6) 0.3029(5)
N8? N 0.1066(5) 0.4486(5) -0.0748(6)
N9? N 0.4092(7) 0.5567(7) 0.1069(8)
loop_
_geom_bond_atom_site_label_1
_geom_bond_atom_site_label_2
_geom_bond_site_symmetry_1
_geom_bond_site_symmetry_2
N1 C4 1_555 1_555
N2 C11 1_555 1_555
N3 C12 1_555 1_555
N4 C16 1_555 1_555
N5 C17 1_555 1_555
N6 C14 1_555 1_555
C1 C2 1_555 1_555
C2 H1 1_555 1_555
C3 C2 1_555 1_555
H2 C3 1_555 1_555
C4 C3 1_555 1_555
C5 C4 1_555 1_555
H3 C5 1_555 1_555
C6 C1 1_555 1_555
H4 C6 1_555 1_555
C7 N1 1_555 1_555
H5 C7 1_555 1_555
H6 C7 1_555 1_555
H7 C7 1_555 1_555
C8 N1 1_555 1_555
H8 C8 1_555 1_555
H9 C8 1_555 1_555
H10 C8 1_555 1_555
C9 C1 1_555 1_555
C10 C9 1_555 1_555
C11 C10 1_555 1_555
C12 C10 1_555 1_555
C13 C9 1_555 1_555
C14 C13 1_555 1_555
C15 C13 1_555 1_555
C16 C15 1_555 1_555
C17 C15 1_555 1_555
C5 C6 1_555 1_555

#END
