
#######################################################################
#
#                 Cambridge Crystallographic Data Centre
#                                CCDC 
#
#######################################################################
#
# If this CIF has been generated from an entry in the Cambridge 
# Structural Database, then it will include bibliographic, chemical, 
# crystal, experimental, refinement or atomic coordinate data resulting 
# from the CCDC's data processing and validation procedures.
#
#######################################################################

data_EPIRIF
_chemical_formula_moiety         'C27 H21 N7'
_chemical_name_systematic        
3,5-bis(4-(dimethylamino)phenyl)cyclohexa-2,5-diene-1,1,2,4,4-pentacarbonitrile
_symmetry_cell_setting           monoclinic
_symmetry_space_group_name_H-M   'P 21/c'
_symmetry_Int_Tables_number      14
_space_group_name_Hall           '-P 2ybc'
loop_
_symmetry_equiv_pos_site_id
_symmetry_equiv_pos_as_xyz
1 x,y,z
2 -x,1/2+y,1/2-z
3 -x,-y,-z
4 x,1/2-y,1/2+z
_cell_length_a                   23.1039(7)
_cell_length_b                   6.0491(2)
_cell_length_c                   15.7821(5)
_cell_angle_alpha                90
_cell_angle_beta                 92.218(2)
_cell_angle_gamma                90
_cell_volume                     2204.02
_exptl_crystal_colour            'red brown'
_exptl_crystal_description       plate
_cell_formula_units_Z            4
loop_
_atom_site_label
_atom_site_type_symbol
_atom_site_fract_x
_atom_site_fract_y
_atom_site_fract_z
N1 N 0.26641(8) 0.4574(3) 0.31796(14)
N2 N 0.26804(8) 1.0805(4) 0.45567(12)
N3 N 0.39934(10) 0.6492(4) 0.49464(13)
N4 N 0.45086(8) 0.2013(3) 0.84893(12)
N5 N 0.19434(7) 0.5860(3) 0.77822(14)
N6 N 0.20394(8) 0.0071(4) 0.63070(12)
N7 N -0.06622(8) 0.5867(3) 0.64718(12)
C1 C 0.24975(9) 0.6515(4) 0.46378(13)
C2 C 0.29306(9) 0.5710(3) 0.53195(14)
C3 C 0.27922(9) 0.4823(3) 0.60551(14)
C4 C 0.21558(9) 0.4409(3) 0.62546(14)
C5 C 0.17081(9) 0.5371(3) 0.56063(14)
C6 C 0.18771(9) 0.6180(4) 0.48788(15)
H1 H 0.1574(8) 0.682(3) 0.4452(12)
C7 C 0.25986(9) 0.5429(4) 0.38150(17)
C8 C 0.25972(9) 0.8940(5) 0.45495(13)
C9 C 0.35282(11) 0.6096(4) 0.51328(14)
C10 C 0.32420(9) 0.4092(3) 0.66940(13)
C11 C 0.33654(9) 0.5321(4) 0.74180(14)
H2 H 0.3171(10) 0.669(4) 0.7528(14)
C12 C 0.37808(9) 0.4645(4) 0.80096(16)
H3 H 0.3850(9) 0.556(4) 0.8490(14)
C13 C 0.40916(9) 0.2673(4) 0.79003(14)
C14 C 0.39703(10) 0.1443(4) 0.71578(14)
H4 H 0.4175(10) 0.004(4) 0.7057(14)
C15 C 0.35536(9) 0.2151(4) 0.65711(16)
H5 H 0.3478(9) 0.131(3) 0.6069(14)
C16 C 0.46247(13) 0.3308(5) 0.92488(18)
H6 H 0.4777(10) 0.483(5) 0.9081(15)
H7 H 0.4887(11) 0.247(4) 0.9609(16)
H8 H 0.4283(12) 0.353(4) 0.9587(16)
C17 C 0.48658(12) 0.0110(5) 0.8330(2)
H9 H 0.4645(11) -0.130(5) 0.8293(16)
H10 H 0.5134(12) 0.002(4) 0.8767(17)
H11 H 0.5045(11) 0.024(4) 0.7765(18)
C18 C 0.20423(9) 0.5247(4) 0.71187(16)
C19 C 0.20884(9) 0.1952(5) 0.62861(14)
C20 C 0.10933(9) 0.5427(4) 0.58414(14)
C21 C 0.08366(10) 0.3853(4) 0.63472(15)
H12 H 0.1054(9) 0.266(4) 0.6578(13)
C22 C 0.02634(10) 0.3983(4) 0.65584(15)
H13 H 0.0099(9) 0.286(4) 0.6917(14)
C23 C -0.00901(10) 0.5731(4) 0.62671(14)
C24 C 0.01663(10) 0.7337(4) 0.57667(15)
H14 H -0.0048(10) 0.859(4) 0.5558(15)
C25 C 0.07393(10) 0.7184(4) 0.55638(15)
H15 H 0.0898(9) 0.840(4) 0.5262(13)
C26 C -0.08940(12) 0.4341(5) 0.70686(19)
H16 H -0.0896(9) 0.271(4) 0.6831(15)
H17 H -0.1303(12) 0.470(4) 0.7151(15)
H18 H -0.0670(9) 0.440(3) 0.7626(14)
C27 C -0.10033(11) 0.7757(4) 0.61905(19)
H19 H -0.0987(10) 0.785(4) 0.5522(17)
H20 H -0.1392(11) 0.755(4) 0.6388(14)
H21 H -0.0842(10) 0.921(4) 0.6443(16)
loop_
_geom_bond_atom_site_label_1
_geom_bond_atom_site_label_2
_geom_bond_site_symmetry_1
_geom_bond_site_symmetry_2
N1 C7 1_555 1_555
N2 C8 1_555 1_555
N3 C9 1_555 1_555
N4 C13 1_555 1_555
N5 C18 1_555 1_555
N6 C19 1_555 1_555
N7 C23 1_555 1_555
C1 C2 1_555 1_555
C2 C3 1_555 1_555
C3 C4 1_555 1_555
C4 C5 1_555 1_555
C5 C6 1_555 1_555
C6 C1 1_555 1_555
H1 C6 1_555 1_555
C7 C1 1_555 1_555
C8 C1 1_555 1_555
C9 C2 1_555 1_555
C10 C3 1_555 1_555
C11 C10 1_555 1_555
H2 C11 1_555 1_555
C12 C11 1_555 1_555
H3 C12 1_555 1_555
C13 C12 1_555 1_555
C14 C13 1_555 1_555
H4 C14 1_555 1_555
C15 C10 1_555 1_555
H5 C15 1_555 1_555
C16 N4 1_555 1_555
H6 C16 1_555 1_555
H7 C16 1_555 1_555
H8 C16 1_555 1_555
C17 N4 1_555 1_555
H9 C17 1_555 1_555
H10 C17 1_555 1_555
H11 C17 1_555 1_555
C18 C4 1_555 1_555
C19 C4 1_555 1_555
C20 C5 1_555 1_555
C21 C20 1_555 1_555
H12 C21 1_555 1_555
C22 C21 1_555 1_555
H13 C22 1_555 1_555
C23 C22 1_555 1_555
C24 C23 1_555 1_555
H14 C24 1_555 1_555
C25 C20 1_555 1_555
H15 C25 1_555 1_555
C26 N7 1_555 1_555
H16 C26 1_555 1_555
H17 C26 1_555 1_555
H18 C26 1_555 1_555
C27 N7 1_555 1_555
H19 C27 1_555 1_555
H20 C27 1_555 1_555
H21 C27 1_555 1_555
C14 C15 1_555 1_555
C24 C25 1_555 1_555

#END
