
#######################################################################
#
#                 Cambridge Crystallographic Data Centre
#                                CCDC 
#
#######################################################################
#
# If this CIF has been generated from an entry in the Cambridge 
# Structural Database, then it will include bibliographic, chemical, 
# crystal, experimental, refinement or atomic coordinate data resulting 
# from the CCDC's data processing and validation procedures.
#
#######################################################################

data_EPISUS
_chemical_formula_moiety         'C30 H36 N4 O2,C1 H2 Cl2'
_chemical_name_systematic        
'cis-5,10,10,15,20,20-Hexamethyl-5,15-diacetyl-5,10,15,20,22,24-hexahydroporphyrin dichloromethane solvate'
_symmetry_cell_setting           monoclinic
_symmetry_space_group_name_H-M   'P 21/n'
_symmetry_Int_Tables_number      14
_space_group_name_Hall           '-P 2yn'
loop_
_symmetry_equiv_pos_site_id
_symmetry_equiv_pos_as_xyz
1 x,y,z
2 1/2-x,1/2+y,1/2-z
3 -x,-y,-z
4 1/2+x,1/2-y,1/2+z
_cell_length_a                   10.2397(12)
_cell_length_b                   12.4463(13)
_cell_length_c                   24.466(3)
_cell_angle_alpha                90
_cell_angle_beta                 101.040(13)
_cell_angle_gamma                90
_cell_volume                     3060.4
_exptl_crystal_colour            colorless
_exptl_crystal_description       block
_cell_formula_units_Z            4
loop_
_atom_site_label
_atom_site_type_symbol
_atom_site_fract_x
_atom_site_fract_y
_atom_site_fract_z
C1 C 1.0999(6) 0.5843(5) 0.3518(3)
C2 C 1.1119(8) 0.5154(6) 0.3948(3)
H1 H 1.1266 0.4419 0.3932
C3 C 1.0984(8) 0.5742(6) 0.4432(3)
H2 H 1.1013 0.5460 0.4786
C4 C 1.0807(6) 0.6782(5) 0.4285(3)
C5 C 1.0484(7) 0.7767(5) 0.4603(3)
C6 C 0.9042(7) 0.8030(5) 0.4446(2)
C7 C 0.8353(7) 0.8949(5) 0.4317(3)
H3 H 0.8721 0.9631 0.4311
C8 C 0.6982(7) 0.8705(6) 0.4193(3)
H4 H 0.6295 0.9197 0.4092
C9 C 0.6837(7) 0.7627(6) 0.4246(3)
C10 C 0.5609(7) 0.6921(6) 0.4192(3)
C11 C 0.5711(6) 0.6018(6) 0.3779(3)
C12 C 0.5452(7) 0.4971(6) 0.3802(3)
H5 H 0.5224 0.4607 0.4102
C13 C 0.5587(7) 0.4506(5) 0.3277(3)
H6 H 0.5474 0.3786 0.3179
C14 C 0.5906(6) 0.5302(5) 0.2954(3)
C15 C 0.6077(6) 0.5317(5) 0.2356(3)
C16 C 0.7451(7) 0.5693(4) 0.2305(3)
C17 C 0.7927(7) 0.6122(5) 0.1875(3)
H7 H 0.7416 0.6317 0.1533
C18 C 0.9317(8) 0.6226(5) 0.2025(3)
H8 H 0.9878 0.6507 0.1803
C19 C 0.9696(7) 0.5839(5) 0.2555(3)
C20 C 1.1043(7) 0.5676(5) 0.2912(3)
C21 C 1.1310(6) 0.8765(5) 0.4485(3)
H9 H 1.1094 0.8940 0.4096
H10 H 1.2242 0.8605 0.4587
H11 H 1.1101 0.9365 0.4700
C22 C 1.0895(8) 0.7535(6) 0.5231(3)
C23 C 1.2339(8) 0.7340(8) 0.5467(3)
H12 H 1.2420 0.6801 0.5752
H13 H 1.2743 0.7995 0.5624
H14 H 1.2779 0.7100 0.5176
C24 C 0.5511(8) 0.6427(6) 0.4755(3)
H15 H 0.4703 0.6020 0.4719
H16 H 0.5511 0.6988 0.5024
H17 H 0.6259 0.5962 0.4875
C25 C 0.4389(7) 0.7608(6) 0.3971(3)
H18 H 0.4481 0.7928 0.3624
H19 H 0.4310 0.8162 0.4236
H20 H 0.3607 0.7165 0.3915
C26 C 0.5036(6) 0.6051(5) 0.1998(3)
H21 H 0.5116 0.6766 0.2148
H22 H 0.4159 0.5781 0.2001
H23 H 0.5184 0.6063 0.1622
C27 C 0.5864(8) 0.4160(5) 0.2133(3)
C28 C 0.7017(7) 0.3403(4) 0.2202(3)
H24 H 0.7456 0.3389 0.2585
H25 H 0.7631 0.3639 0.1975
H26 H 0.6704 0.2696 0.2089
C29 C 1.2069(6) 0.6450(6) 0.2730(3)
H27 H 1.2108 0.6320 0.2347
H28 H 1.2931 0.6328 0.2957
H29 H 1.1804 0.7180 0.2774
C31 C 1.1505(7) 0.4517(5) 0.2826(3)
H32 H 1.0963 0.4019 0.2983
H33 H 1.2418 0.4435 0.3007
H34 H 1.1420 0.4378 0.2435
H35 H 0.856(7) 0.529(5) 0.306(3)
H36 H 0.607(7) 0.686(5) 0.314(3)
H37 H 1.044(7) 0.729(5) 0.353(3)
H38 H 0.828(7) 0.655(5) 0.447(3)
N1 N 0.5972(5) 0.6232(4) 0.3258(2)
N2 N 0.8097(6) 0.7222(4) 0.4397(2)
N3 N 1.0808(5) 0.6845(4) 0.3727(2)
N4 N 0.8550(6) 0.5526(4) 0.2723(2)
O1 O 0.4774(5) 0.3879(4) 0.1913(2)
O2 O 1.0095(6) 0.7588(6) 0.5527(2)
C30 C 0.2250(7) 0.6419(5) 0.0745(3)
H30 H 0.2493 0.6686 0.0405
H31 H 0.2970 0.5968 0.0933
Cl1 Cl 0.2046(2) 0.74950(16) 0.11703(8)
Cl2 Cl 0.0844(3) 0.56711(18) 0.05795(12)
loop_
_geom_bond_atom_site_label_1
_geom_bond_atom_site_label_2
_geom_bond_site_symmetry_1
_geom_bond_site_symmetry_2
C1 C2 1_555 1_555
C2 H1 1_555 1_555
C3 C2 1_555 1_555
H2 C3 1_555 1_555
C4 C3 1_555 1_555
C5 C4 1_555 1_555
C6 C5 1_555 1_555
C7 C6 1_555 1_555
H3 C7 1_555 1_555
C8 C7 1_555 1_555
H4 C8 1_555 1_555
C9 C8 1_555 1_555
C10 C9 1_555 1_555
C11 C10 1_555 1_555
C12 C11 1_555 1_555
H5 C12 1_555 1_555
C13 C12 1_555 1_555
H6 C13 1_555 1_555
C14 C13 1_555 1_555
C15 C14 1_555 1_555
C16 C15 1_555 1_555
C17 C16 1_555 1_555
H7 C17 1_555 1_555
C18 C17 1_555 1_555
H8 C18 1_555 1_555
C19 C18 1_555 1_555
C20 C1 1_555 1_555
C21 C5 1_555 1_555
H9 C21 1_555 1_555
H10 C21 1_555 1_555
H11 C21 1_555 1_555
C22 C5 1_555 1_555
C23 C22 1_555 1_555
H12 C23 1_555 1_555
H13 C23 1_555 1_555
H14 C23 1_555 1_555
C24 C10 1_555 1_555
H15 C24 1_555 1_555
H16 C24 1_555 1_555
H17 C24 1_555 1_555
C25 C10 1_555 1_555
H18 C25 1_555 1_555
H19 C25 1_555 1_555
H20 C25 1_555 1_555
C26 C15 1_555 1_555
H21 C26 1_555 1_555
H22 C26 1_555 1_555
H23 C26 1_555 1_555
C27 C15 1_555 1_555
C28 C27 1_555 1_555
H24 C28 1_555 1_555
H25 C28 1_555 1_555
H26 C28 1_555 1_555
C29 C20 1_555 1_555
H27 C29 1_555 1_555
H28 C29 1_555 1_555
H29 C29 1_555 1_555
C30 H30 1_555 1_555
H31 C30 1_555 1_555
C31 C20 1_555 1_555
H32 C31 1_555 1_555
H33 C31 1_555 1_555
H34 C31 1_555 1_555
Cl1 C30 1_555 1_555
Cl2 C30 1_555 1_555
H35 N4 1_555 1_555
H36 N1 1_555 1_555
H37 N3 1_555 1_555
H38 N2 1_555 1_555
N1 C11 1_555 1_555
N2 C6 1_555 1_555
N3 C1 1_555 1_555
N4 C16 1_555 1_555
O1 C27 1_555 1_555
O2 C22 1_555 1_555
C4 N3 1_555 1_555
C9 N2 1_555 1_555
C14 N1 1_555 1_555
C19 C20 1_555 1_555
C19 N4 1_555 1_555

#END
