
#######################################################################
#
#                 Cambridge Crystallographic Data Centre
#                                CCDC 
#
#######################################################################
#
# If this CIF has been generated from an entry in the Cambridge 
# Structural Database, then it will include bibliographic, chemical, 
# crystal, experimental, refinement or atomic coordinate data resulting 
# from the CCDC's data processing and validation procedures.
#
#######################################################################

data_EPITED
_chemical_formula_moiety         'C30 H36 N4 O2'
_chemical_name_systematic        
trans-5,10,10,15,20,20-Hexamethyl-5,15-diacetyl-5,10,15,20,22,24-hexahydroporphyrin
_symmetry_cell_setting           tetragonal
_symmetry_space_group_name_H-M   'I 41/a'
_symmetry_Int_Tables_number      88
_space_group_name_Hall           '-I 4ad'
loop_
_symmetry_equiv_pos_site_id
_symmetry_equiv_pos_as_xyz
1 x,y,z
2 1/2-x,-y,1/2+z
3 3/4-y,1/4+x,1/4+z
4 3/4+y,3/4-x,3/4+z
5 1/2+x,1/2+y,1/2+z
6 -x,1/2-y,z
7 1/4-y,3/4+x,3/4+z
8 1/4+y,1/4-x,1/4+z
9 -x,-y,-z
10 1/2+x,y,1/2-z
11 1/4+y,3/4-x,3/4-z
12 1/4-y,1/4+x,1/4-z
13 1/2-x,1/2-y,1/2-z
14 x,1/2+y,-z
15 3/4+y,1/4-x,1/4-z
16 3/4-y,3/4+x,3/4-z
_cell_length_a                   21.3560(19)
_cell_length_b                   21.3560(19)
_cell_length_c                   11.329(2)
_cell_angle_alpha                90
_cell_angle_beta                 90
_cell_angle_gamma                90
_cell_volume                     5166.92
_exptl_crystal_colour            colorless
_exptl_crystal_description       needle
_cell_formula_units_Z            8
_exptl_crystal_recrystallization_method 'ethyl acetate'
loop_
_atom_site_label
_atom_site_type_symbol
_atom_site_fract_x
_atom_site_fract_y
_atom_site_fract_z
N1 N 0.53628(17) 0.42261(17) 0.1281(3)
N2 N 0.41620(18) 0.52075(17) 0.1229(3)
C1 C 0.49167(18) 0.39408(18) 0.1965(3)
C2 C 0.39967(19) 0.46518(18) 0.1764(4)
C3 C 0.4414(2) 0.42968(19) 0.2613(4)
C4 C 0.5749(2) 0.37906(18) 0.0772(4)
C5 C 0.36819(19) 0.54183(19) 0.0522(4)
C6 C 0.3412(2) 0.4522(2) 0.1368(4)
H1 H 0.3177 0.4172 0.1574
C7 C 0.3219(2) 0.4996(2) 0.0604(4)
H2 H 0.2836 0.5015 0.0218
C8 C 0.6418(2) 0.3441(2) -0.0845(5)
O1 O 0.68690(17) 0.30919(18) -0.0824(4)
C9 C 0.5532(2) 0.32236(19) 0.1134(4)
H3 H 0.5697 0.2837 0.0921
C10 C 0.4703(2) 0.4750(2) 0.3512(4)
H4 H 0.4960 0.4521 0.4055
H5 H 0.4375 0.4960 0.3937
H6 H 0.4954 0.5054 0.3105
C11 C 0.5019(2) 0.33208(18) 0.1881(4)
H7 H 0.4789 0.3010 0.2256
C12 C 0.6338(2) 0.3948(2) 0.0087(4)
C13 C 0.4003(3) 0.3824(2) 0.3292(5)
H8 H 0.3812 0.3539 0.2744
H9 H 0.3683 0.4045 0.3718
H10 H 0.4259 0.3593 0.3837
C14 C 0.5927(2) 0.3384(2) -0.1762(5)
H11 H 0.6049 0.3618 -0.2448
H12 H 0.5539 0.3545 -0.1463
H13 H 0.5875 0.2951 -0.1971
C15 C 0.6909(2) 0.3915(3) 0.0954(5)
H14 H 0.6870 0.4237 0.1541
H15 H 0.7291 0.3974 0.0520
H16 H 0.6917 0.3512 0.1332
H17 H 0.450(2) 0.5383(19) 0.140(4)
H18 H 0.5425(19) 0.459(2) 0.123(4)
N1H N 0.46372(17) 0.57739(17) -0.1281(3)
N2H N 0.58380(18) 0.47925(17) -0.1229(3)
C1H C 0.50833(18) 0.60592(18) -0.1965(3)
C2H C 0.60033(19) 0.53482(18) -0.1764(4)
C3H C 0.5586(2) 0.57032(19) -0.2613(4)
C4H C 0.4251(2) 0.62094(18) -0.0772(4)
C5H C 0.63181(19) 0.45817(19) -0.0522(4)
C6H C 0.6588(2) 0.5478(2) -0.1368(4)
H1H H 0.6823 0.5828 -0.1574
C7H C 0.6781(2) 0.5004(2) -0.0604(4)
H2H H 0.7164 0.4985 -0.0218
C8H C 0.3582(2) 0.6559(2) 0.0845(5)
O1H O 0.31310(17) 0.69081(18) 0.0824(4)
C9H C 0.4468(2) 0.67764(19) -0.1134(4)
H3H H 0.4303 0.7163 -0.0921
C10H C 0.5297(2) 0.5250(2) -0.3512(4)
H4H H 0.5040 0.5479 -0.4055
H5H H 0.5625 0.5040 -0.3937
H6H H 0.5046 0.4946 -0.3105
C11H C 0.4981(2) 0.66792(18) -0.1881(4)
H7H H 0.5211 0.6990 -0.2256
C12H C 0.3662(2) 0.6052(2) -0.0087(4)
C13H C 0.5997(3) 0.6176(2) -0.3292(5)
H8H H 0.6188 0.6461 -0.2744
H9H H 0.6317 0.5955 -0.3718
H10H H 0.5741 0.6407 -0.3837
C14H C 0.4073(2) 0.6616(2) 0.1762(5)
H11H H 0.3951 0.6382 0.2448
H12H H 0.4461 0.6455 0.1463
H13H H 0.4125 0.7049 0.1971
C15H C 0.3091(2) 0.6085(3) -0.0954(5)
H14H H 0.3130 0.5763 -0.1541
H15H H 0.2709 0.6026 -0.0520
H16H H 0.3083 0.6488 -0.1332
H17H H 0.550(2) 0.4617(19) -0.140(4)
H18H H 0.4575(19) 0.541(2) -0.123(4)
loop_
_geom_bond_atom_site_label_1
_geom_bond_atom_site_label_2
_geom_bond_site_symmetry_1
_geom_bond_site_symmetry_2
N1 C1 1_555 1_555
N2 C2 1_555 1_555
C1 C3 1_555 1_555
C2 C3 1_555 1_555
C3 C10 1_555 1_555
C4 N1 1_555 1_555
C5 N2 1_555 1_555
C6 C2 1_555 1_555
H1 C6 1_555 1_555
C7 C5 1_555 1_555
H2 C7 1_555 1_555
C8 O1 1_555 1_555
C9 C4 1_555 1_555
H3 C9 1_555 1_555
C10 H4 1_555 1_555
H5 C10 1_555 1_555
H6 C10 1_555 1_555
C11 C1 1_555 1_555
H7 C11 1_555 1_555
C12 C4 1_555 1_555
C13 C3 1_555 1_555
H8 C13 1_555 1_555
H9 C13 1_555 1_555
H10 C13 1_555 1_555
C14 C8 1_555 1_555
H11 C14 1_555 1_555
H12 C14 1_555 1_555
H13 C14 1_555 1_555
C15 C12 1_555 1_555
H14 C15 1_555 1_555
H15 C15 1_555 1_555
H16 C15 1_555 1_555
H17 N2 1_555 1_555
H18 N1 1_555 1_555
N1H C1H 1_555 1_555
N2H C2H 1_555 1_555
C1H C3H 1_555 1_555
C2H C3H 1_555 1_555
C3H C10H 1_555 1_555
C4H N1H 1_555 1_555
C5H C12 1_555 1_555
C6H C2H 1_555 1_555
H1H C6H 1_555 1_555
C7H C5H 1_555 1_555
H2H C7H 1_555 1_555
C8H O1H 1_555 1_555
C9H C4H 1_555 1_555
H3H C9H 1_555 1_555
C10H H4H 1_555 1_555
H5H C10H 1_555 1_555
H6H C10H 1_555 1_555
C11H C1H 1_555 1_555
H7H C11H 1_555 1_555
C12H C5 1_555 1_555
C13H C3H 1_555 1_555
H8H C13H 1_555 1_555
H9H C13H 1_555 1_555
H10H C13H 1_555 1_555
C14H C8H 1_555 1_555
H11H C14H 1_555 1_555
H12H C14H 1_555 1_555
H13H C14H 1_555 1_555
C15H C12H 1_555 1_555
H14H C15H 1_555 1_555
H15H C15H 1_555 1_555
H16H C15H 1_555 1_555
H17H N2H 1_555 1_555
H18H N1H 1_555 1_555
C6 C7 1_555 1_555
C8 C12 1_555 1_555
C9 C11 1_555 1_555
N2H C5H 1_555 1_555
C4H C12H 1_555 1_555
C6H C7H 1_555 1_555
C8H C12H 1_555 1_555
C9H C11H 1_555 1_555

#END
