
#######################################################################
#
#                 Cambridge Crystallographic Data Centre
#                                CCDC 
#
#######################################################################
#
# If this CIF has been generated from an entry in the Cambridge 
# Structural Database, then it will include bibliographic, chemical, 
# crystal, experimental, refinement or atomic coordinate data resulting 
# from the CCDC's data processing and validation procedures.
#
#######################################################################

data_EPITON
_chemical_formula_moiety         'C12 H14 N2 O1'
_chemical_name_systematic        3,3-bis(1H-pyrrol-2-yl)butan-2-one
_symmetry_cell_setting           monoclinic
_symmetry_space_group_name_H-M   'P 21/c'
_symmetry_Int_Tables_number      14
_space_group_name_Hall           '-P 2ybc'
loop_
_symmetry_equiv_pos_site_id
_symmetry_equiv_pos_as_xyz
1 x,y,z
2 -x,1/2+y,1/2-z
3 -x,-y,-z
4 x,1/2-y,1/2+z
_cell_length_a                   7.0771(7)
_cell_length_b                   19.1132(19)
_cell_length_c                   8.2747(8)
_cell_angle_alpha                90
_cell_angle_beta                 103.131(2)
_cell_angle_gamma                90
_cell_volume                     1090.02
_exptl_crystal_colour            colorless
_exptl_crystal_description       plate
_cell_formula_units_Z            4
loop_
_atom_site_label
_atom_site_type_symbol
_atom_site_fract_x
_atom_site_fract_y
_atom_site_fract_z
O1 O 0.25622(18) 0.50813(6) 0.44936(16)
C1 C 0.2418(2) 0.37437(7) 0.56622(19)
N1 N 0.0544(2) 0.29897(8) 0.20409(19)
N2 N 0.0785(2) 0.39496(8) 0.61371(19)
C2 C 0.3627(2) 0.34554(9) 0.7031(2)
H1 H 0.4845 0.3264 0.7076
C3 C 0.2975(2) 0.46393(8) 0.35907(19)
C4 C 0.0855(2) 0.36496(8) 0.26480(18)
C5 C 0.2677(2) 0.38542(7) 0.39193(18)
C6 C 0.4462(2) 0.34382(9) 0.3689(2)
H2 H 0.5613 0.3632 0.4389
H3 H 0.4555 0.3466 0.2551
H4 H 0.4331 0.2958 0.3982
C7 C -0.0747(2) 0.40318(9) 0.1948(2)
H5 H -0.0937 0.4504 0.2130
C8 C 0.0954(3) 0.38084(9) 0.7771(2)
H6 H 0.0032 0.3906 0.8381
C9 C -0.2066(2) 0.35842(11) 0.0899(2)
H7 H -0.3282 0.3706 0.0265
C10 C -0.1240(3) 0.29518(11) 0.0988(2)
H8 H -0.1789 0.2554 0.0426
C11 C 0.2693(3) 0.35014(10) 0.8357(2)
H9 H 0.3183 0.3349 0.9438
C12 C 0.3755(3) 0.48339(10) 0.2113(2)
H10 H 0.3412 0.5309 0.1805
H11 H 0.3211 0.4530 0.1203
H12 H 0.5142 0.4787 0.2383
H13 H -0.018(3) 0.4156(11) 0.556(2)
H14 H 0.130(3) 0.2638(11) 0.232(2)
loop_
_geom_bond_atom_site_label_1
_geom_bond_atom_site_label_2
_geom_bond_site_symmetry_1
_geom_bond_site_symmetry_2
O1 C3 1_555 1_555
C1 N2 1_555 1_555
N1 C4 1_555 1_555
N2 C8 1_555 1_555
C2 C1 1_555 1_555
H1 C2 1_555 1_555
C3 C5 1_555 1_555
C4 C5 1_555 1_555
C5 C1 1_555 1_555
C6 C5 1_555 1_555
H2 C6 1_555 1_555
H3 C6 1_555 1_555
H4 C6 1_555 1_555
C7 C4 1_555 1_555
H5 C7 1_555 1_555
C8 H6 1_555 1_555
C9 C7 1_555 1_555
H7 C9 1_555 1_555
C10 N1 1_555 1_555
H8 C10 1_555 1_555
C11 C2 1_555 1_555
H9 C11 1_555 1_555
C12 C3 1_555 1_555
H10 C12 1_555 1_555
H11 C12 1_555 1_555
H12 C12 1_555 1_555
H13 N2 1_555 1_555
H14 N1 1_555 1_555
C8 C11 1_555 1_555
C9 C10 1_555 1_555

#END
