
#######################################################################
#
#                 Cambridge Crystallographic Data Centre
#                                CCDC 
#
#######################################################################
#
# If this CIF has been generated from an entry in the Cambridge 
# Structural Database, then it will include bibliographic, chemical, 
# crystal, experimental, refinement or atomic coordinate data resulting 
# from the CCDC's data processing and validation procedures.
#
#######################################################################

data_EPIYAF
_chemical_formula_moiety         'C56 H48 Li4 N4 O4 S4'
_chemical_name_systematic        
'tetrakis(\m-2-(((2-(methylsulfanyl)phenyl)imino)methyl)phenolato)-tetra-lithium unknown solvate'
_symmetry_cell_setting           cubic
_symmetry_space_group_name_H-M   'I -4 3 d'
_symmetry_Int_Tables_number      220
_space_group_name_Hall           'I -4bd 2c 3'
loop_
_symmetry_equiv_pos_site_id
_symmetry_equiv_pos_as_xyz
1 x,y,z
2 1/2-x,-y,1/2+z
3 -x,1/2+y,1/2-z
4 1/2+x,1/2-y,-z
5 z,x,y
6 1/2+z,1/2-x,-y
7 1/2-z,-x,1/2+y
8 -z,1/2+x,1/2-y
9 y,z,x
10 -y,1/2+z,1/2-x
11 1/2+y,1/2-z,-x
12 1/2-y,-z,1/2+x
13 1/4+y,1/4+x,1/4+z
14 1/4-y,3/4-x,3/4+z
15 3/4+y,1/4-x,3/4-z
16 3/4-y,3/4+x,1/4-z
17 1/4+x,1/4+z,1/4+y
18 3/4-x,3/4+z,1/4-y
19 1/4-x,3/4-z,3/4+y
20 3/4+x,1/4-z,3/4-y
21 1/4+z,1/4+y,1/4+x
22 3/4+z,1/4-y,3/4-x
23 3/4-z,3/4+y,1/4-x
24 1/4-z,3/4-y,3/4+x
25 1/2+x,1/2+y,1/2+z
26 -x,1/2-y,z
27 1/2-x,y,-z
28 x,-y,1/2-z
29 1/2+z,1/2+x,1/2+y
30 z,-x,1/2-y
31 -z,1/2-x,y
32 1/2-z,x,-y
33 1/2+y,1/2+z,1/2+x
34 1/2-y,z,-x
35 y,-z,1/2-x
36 -y,1/2-z,x
37 3/4+y,3/4+x,3/4+z
38 3/4-y,1/4-x,1/4+z
39 1/4+y,3/4-x,1/4-z
40 1/4-y,1/4+x,3/4-z
41 3/4+x,3/4+z,3/4+y
42 1/4-x,1/4+z,3/4-y
43 3/4-x,1/4-z,1/4+y
44 1/4+x,3/4-z,1/4-y
45 3/4+z,3/4+y,3/4+x
46 1/4+z,3/4-y,1/4-x
47 1/4-z,1/4+y,3/4-x
48 3/4-z,1/4-y,1/4+x
_cell_length_a                   25.6289(2)
_cell_length_b                   25.6289(2)
_cell_length_c                   25.6289(2)
_cell_angle_alpha                90
_cell_angle_beta                 90
_cell_angle_gamma                90
_cell_volume                     16834.1
_exptl_crystal_colour            colorless
_exptl_crystal_description       cubic
_cell_formula_units_Z            12
loop_
_atom_site_label
_atom_site_type_symbol
_atom_site_fract_x
_atom_site_fract_y
_atom_site_fract_z
Li1 Li 0.6979(4) 1.0878(4) -0.0132(4)
O1 O 0.69577(14) 1.16315(14) -0.01327(13)
N1 N 0.62804(17) 1.08647(18) -0.06036(18)
C1 C 0.6568(2) 1.1948(2) -0.0196(2)
C2 C 0.6584(2) 1.2470(2) 0.0000(2)
H1 H 0.6880 1.2583 0.0177
C3 C 0.6175(3) 1.2809(2) -0.0066(2)
H2 H 0.6194 1.3142 0.0078
C4 C 0.5735(2) 1.2665(3) -0.0341(3)
H3 H 0.5465 1.2902 -0.0396
C5 C 0.5702(2) 1.2156(2) -0.0538(2)
H4 H 0.5403 1.2054 -0.0716
C6 C 0.6109(2) 1.1796(2) -0.0473(2)
C7 C 0.6015(2) 1.1268(2) -0.0676(2)
H5 H 0.5721 1.1229 -0.0884
C8 C 0.6101(2) 1.0399(2) -0.0838(2)
C9 C 0.5903(2) 1.0391(3) -0.1349(3)
H6 H 0.5896 1.0696 -0.1546
C10 C 0.5723(2) 0.9939(3) -0.1554(3)
H7 H 0.5580 0.9939 -0.1888
C11 C 0.5749(2) 0.9479(3) -0.1277(3)
H8 H 0.5624 0.9172 -0.1426
C12 C 0.5954(2) 0.9466(3) -0.0784(3)
H9 H 0.5974 0.9153 -0.0602
C13 C 0.61325(19) 0.9924(2) -0.0557(2)
S1 S 0.63841(6) 0.99743(7) 0.00799(6)
C14 C 0.6545(3) 0.9298(2) 0.0221(3)
H10 H 0.6229 0.9103 0.0273
H11 H 0.6754 0.9282 0.0531
H12 H 0.6736 0.9153 -0.0067
Li1U Li 0.7368(4) 1.1622(4) 0.0521(4)
O1U O 0.73673(13) 1.08685(14) 0.05423(14)
N1U N 0.68964(18) 1.16353(18) 0.12196(17)
C1U C 0.7304(2) 1.0552(2) 0.0932(2)
C2U C 0.7500(2) 1.0030(2) 0.0916(2)
H1U H 0.7677 0.9917 0.0620
C3U C 0.7434(2) 0.9691(2) 0.1325(3)
H2U H 0.7578 0.9358 0.1306
C4U C 0.7159(3) 0.9835(3) 0.1765(2)
H3U H 0.7104 0.9598 0.2035
C5U C 0.6962(2) 1.0344(2) 0.1798(2)
H4U H 0.6784 1.0446 0.2097
C6U C 0.7027(2) 1.0704(2) 0.1391(2)
C7U C 0.6824(2) 1.1232(2) 0.1485(2)
H5U H 0.6616 1.1271 0.1779
C8U C 0.6662(2) 1.2101(2) 0.1399(2)
C9U C 0.6151(3) 1.2109(3) 0.1597(2)
H6U H 0.5954 1.1804 0.1604
C10U C 0.5946(3) 1.2561(3) 0.1777(2)
H7U H 0.5612 1.2561 0.1920
C11U C 0.6223(3) 1.3021(3) 0.1751(2)
H8U H 0.6074 1.3328 0.1876
C12U C 0.6716(3) 1.3034(3) 0.1546(2)
H9U H 0.6898 1.3347 0.1526
C13U C 0.6943(2) 1.2576(2) 0.13675(19)
S1U S 0.75799(6) 1.25257(7) 0.11159(6)
C14U C 0.7721(3) 1.3202(2) 0.0955(3)
H10U H 0.7773 1.3397 0.1271
H11U H 0.8031 1.3218 0.0746
H12U H 0.7433 1.3347 0.0764
Li1Z Li 0.8021(4) 1.0878(4) 0.0132(4)
O1Z O 0.80423(14) 1.16315(14) 0.01327(13)
N1Z N 0.87196(17) 1.08647(18) 0.06036(18)
C1Z C 0.8432(2) 1.1948(2) 0.0196(2)
C2Z C 0.8416(2) 1.2470(2) 0.0000(2)
H1Z H 0.8120 1.2583 -0.0177
C3Z C 0.8825(3) 1.2809(2) 0.0066(2)
H2Z H 0.8806 1.3142 -0.0078
C4Z C 0.9265(2) 1.2665(3) 0.0341(3)
H3Z H 0.9535 1.2902 0.0396
C5Z C 0.9298(2) 1.2156(2) 0.0538(2)
H4Z H 0.9597 1.2054 0.0716
C6Z C 0.8891(2) 1.1796(2) 0.0473(2)
C7Z C 0.8985(2) 1.1268(2) 0.0676(2)
H5Z H 0.9279 1.1229 0.0884
C8Z C 0.8899(2) 1.0399(2) 0.0838(2)
C9Z C 0.9097(2) 1.0391(3) 0.1349(3)
H6Z H 0.9104 1.0696 0.1546
C10Z C 0.9277(2) 0.9939(3) 0.1554(3)
H7Z H 0.9420 0.9939 0.1888
C11Z C 0.9251(2) 0.9479(3) 0.1277(3)
H8Z H 0.9376 0.9172 0.1426
C12Z C 0.9046(2) 0.9466(3) 0.0784(3)
H9Z H 0.9026 0.9153 0.0602
C13Z C 0.88675(19) 0.9924(2) 0.0557(2)
S1Z S 0.86159(6) 0.99743(7) -0.00799(6)
C14Z C 0.8455(3) 0.9298(2) -0.0221(3)
H10Z H 0.8771 0.9103 -0.0273
H11Z H 0.8246 0.9282 -0.0531
H12Z H 0.8264 0.9153 0.0067
Li1UA Li 0.7632(4) 1.1622(4) -0.0521(4)
O1UA O 0.76327(13) 1.08685(14) -0.05423(14)
N1UA N 0.81036(18) 1.16353(18) -0.12196(17)
C1UA C 0.7696(2) 1.0552(2) -0.0932(2)
C2UA C 0.7500(2) 1.0030(2) -0.0916(2)
H1UA H 0.7323 0.9917 -0.0620
C3UA C 0.7566(2) 0.9691(2) -0.1325(3)
H2UA H 0.7422 0.9358 -0.1306
C4UA C 0.7841(3) 0.9835(3) -0.1765(2)
H3UA H 0.7896 0.9598 -0.2035
C5UA C 0.8038(2) 1.0344(2) -0.1798(2)
H4UA H 0.8216 1.0446 -0.2097
C6UA C 0.7973(2) 1.0704(2) -0.1391(2)
C7UA C 0.8176(2) 1.1232(2) -0.1485(2)
H5UA H 0.8384 1.1271 -0.1779
C8UA C 0.8338(2) 1.2101(2) -0.1399(2)
C9UA C 0.8849(3) 1.2109(3) -0.1597(2)
H6UA H 0.9046 1.1804 -0.1604
C10UA C 0.9054(3) 1.2561(3) -0.1777(2)
H7UA H 0.9388 1.2561 -0.1920
C11UA C 0.8777(3) 1.3021(3) -0.1751(2)
H8UA H 0.8926 1.3328 -0.1876
C12UA C 0.8284(3) 1.3034(3) -0.1546(2)
H9UA H 0.8102 1.3347 -0.1526
C13UA C 0.8057(2) 1.2576(2) -0.13675(19)
S1UA S 0.74201(6) 1.25257(7) -0.11159(6)
C14UA C 0.7279(3) 1.3202(2) -0.0955(3)
H10UA H 0.7227 1.3397 -0.1271
H11UA H 0.6969 1.3218 -0.0746
H12UA H 0.7567 1.3347 -0.0764
loop_
_geom_bond_atom_site_label_1
_geom_bond_atom_site_label_2
_geom_bond_site_symmetry_1
_geom_bond_site_symmetry_2
Li1 O1 1_555 1_555
O1 C1 1_555 1_555
N1 Li1 1_555 1_555
C1 C2 1_555 1_555
C2 H1 1_555 1_555
C3 C2 1_555 1_555
H2 C3 1_555 1_555
C4 C3 1_555 1_555
H3 C4 1_555 1_555
C5 C4 1_555 1_555
H4 C5 1_555 1_555
C6 C1 1_555 1_555
C7 N1 1_555 1_555
H5 C7 1_555 1_555
C8 N1 1_555 1_555
C9 C8 1_555 1_555
H6 C9 1_555 1_555
C10 C9 1_555 1_555
H7 C10 1_555 1_555
C11 C10 1_555 1_555
H8 C11 1_555 1_555
C12 C11 1_555 1_555
H9 C12 1_555 1_555
C13 C8 1_555 1_555
S1 C13 1_555 1_555
C14 S1 1_555 1_555
H10 C14 1_555 1_555
H11 C14 1_555 1_555
H12 C14 1_555 1_555
Li1U O1 1_555 1_555
O1U Li1 1_555 1_555
N1U Li1U 1_555 1_555
C1U O1U 1_555 1_555
C2U C1U 1_555 1_555
H1U C2U 1_555 1_555
C3U C2U 1_555 1_555
H2U C3U 1_555 1_555
C4U C3U 1_555 1_555
H3U C4U 1_555 1_555
C5U C4U 1_555 1_555
H4U C5U 1_555 1_555
C6U C1U 1_555 1_555
C7U N1U 1_555 1_555
H5U C7U 1_555 1_555
C8U N1U 1_555 1_555
C9U C8U 1_555 1_555
H6U C9U 1_555 1_555
C10U C9U 1_555 1_555
H7U C10U 1_555 1_555
C11U C10U 1_555 1_555
H8U C11U 1_555 1_555
C12U C11U 1_555 1_555
H9U C12U 1_555 1_555
C13U C8U 1_555 1_555
S1U C13U 1_555 1_555
C14U S1U 1_555 1_555
H10U C14U 1_555 1_555
H11U C14U 1_555 1_555
H12U C14U 1_555 1_555
Li1Z O1U 1_555 1_555
O1Z Li1U 1_555 1_555
N1Z Li1Z 1_555 1_555
C1Z O1Z 1_555 1_555
C2Z C1Z 1_555 1_555
H1Z C2Z 1_555 1_555
C3Z C2Z 1_555 1_555
H2Z C3Z 1_555 1_555
C4Z C3Z 1_555 1_555
H3Z C4Z 1_555 1_555
C5Z C4Z 1_555 1_555
H4Z C5Z 1_555 1_555
C6Z C1Z 1_555 1_555
C7Z N1Z 1_555 1_555
H5Z C7Z 1_555 1_555
C8Z N1Z 1_555 1_555
C9Z C8Z 1_555 1_555
H6Z C9Z 1_555 1_555
C10Z C9Z 1_555 1_555
H7Z C10Z 1_555 1_555
C11Z C10Z 1_555 1_555
H8Z C11Z 1_555 1_555
C12Z C11Z 1_555 1_555
H9Z C12Z 1_555 1_555
C13Z C8Z 1_555 1_555
S1Z C13Z 1_555 1_555
C14Z S1Z 1_555 1_555
H10Z C14Z 1_555 1_555
H11Z C14Z 1_555 1_555
H12Z C14Z 1_555 1_555
Li1UA O1 1_555 1_555
O1UA Li1 1_555 1_555
N1UA Li1UA 1_555 1_555
C1UA O1UA 1_555 1_555
C2UA C1UA 1_555 1_555
H1UA C2UA 1_555 1_555
C3UA C2UA 1_555 1_555
H2UA C3UA 1_555 1_555
C4UA C3UA 1_555 1_555
H3UA C4UA 1_555 1_555
C5UA C4UA 1_555 1_555
H4UA C5UA 1_555 1_555
C6UA C1UA 1_555 1_555
C7UA N1UA 1_555 1_555
H5UA C7UA 1_555 1_555
C8UA N1UA 1_555 1_555
C9UA C8UA 1_555 1_555
H6UA C9UA 1_555 1_555
C10UA C9UA 1_555 1_555
H7UA C10UA 1_555 1_555
C11UA C10UA 1_555 1_555
H8UA C11UA 1_555 1_555
C12UA C11UA 1_555 1_555
H9UA C12UA 1_555 1_555
C13UA C8UA 1_555 1_555
S1UA C13UA 1_555 1_555
C14UA S1UA 1_555 1_555
H10UA C14UA 1_555 1_555
H11UA C14UA 1_555 1_555
H12UA C14UA 1_555 1_555
C5 C6 1_555 1_555
C6 C7 1_555 1_555
C12 C13 1_555 1_555
Li1U O1U 1_555 1_555
C5U C6U 1_555 1_555
C6U C7U 1_555 1_555
C12U C13U 1_555 1_555
Li1Z O1Z 1_555 1_555
Li1Z O1UA 1_555 1_555
O1Z Li1UA 1_555 1_555
C5Z C6Z 1_555 1_555
C6Z C7Z 1_555 1_555
C12Z C13Z 1_555 1_555
Li1UA O1UA 1_555 1_555
C5UA C6UA 1_555 1_555
C6UA C7UA 1_555 1_555
C12UA C13UA 1_555 1_555

#END
