
#######################################################################
#
#                 Cambridge Crystallographic Data Centre
#                                CCDC 
#
#######################################################################
#
# If this CIF has been generated from an entry in the Cambridge 
# Structural Database, then it will include bibliographic, chemical, 
# crystal, experimental, refinement or atomic coordinate data resulting 
# from the CCDC's data processing and validation procedures.
#
#######################################################################

data_EPOBUH
_chemical_formula_moiety         
'C48 H48 N32 O16,C10 H13 Br3 N1 1+,25.5(H2 O1),0.5(Cl1 1-),0.5(Br1 1-)'
_chemical_name_systematic        
'Cucurbit(8)uril 1-(3-bromo-2,2-bis(bromomethyl)propyl)pyridinium clathrate hemichloride hemibromide hydrate'
_symmetry_cell_setting           orthorhombic
_symmetry_space_group_name_H-M   'P 21 21 2'
_symmetry_Int_Tables_number      18
_space_group_name_Hall           'P 2 2ab'
loop_
_symmetry_equiv_pos_site_id
_symmetry_equiv_pos_as_xyz
1 x,y,z
2 -x,-y,z
3 1/2+x,1/2-y,-z
4 1/2-x,1/2+y,-z
_cell_length_a                   25.514(4)
_cell_length_b                   27.351(4)
_cell_length_c                   12.6917(18)
_cell_angle_alpha                90
_cell_angle_beta                 90
_cell_angle_gamma                90
_cell_volume                     8856.69
_cell_formula_units_Z            4
loop_
_atom_site_label
_atom_site_type_symbol
_atom_site_fract_x
_atom_site_fract_y
_atom_site_fract_z
O1 O 0.5000 1.0000 0.3544(7)
Br1 Br 0.5000 1.0000 -0.02093(13)
Cl1 Cl 0.98561(15) 0.95227(13) 0.6666(3)
C1 C 0.8758(3) 0.5689(3) 0.4121(7)
C2 C 0.9452(3) 0.5788(3) 0.2890(6)
H1 H 0.9800 0.5632 0.2974
C3 C 0.9021(3) 0.5426(3) 0.2458(6)
H2 H 0.9169 0.5097 0.2329
C4 C 0.9141(3) 0.6064(3) 0.1272(6)
C5 C 0.8218(3) 0.5062(3) 0.3295(6)
H3 H 0.8361 0.4740 0.3110
H4 H 0.8090 0.5043 0.4022
C6 C 0.8571(3) 0.5379(3) 0.0697(6)
H5 H 0.8656 0.5521 0.0009
H6 H 0.8699 0.5041 0.0695
C7 C 0.7299(3) 0.5279(3) 0.3015(8)
C8 C 0.7755(3) 0.5024(3) 0.1531(6)
H7 H 0.7886 0.4687 0.1423
C9 C 0.7177(3) 0.5063(3) 0.1231(6)
H8 H 0.7029 0.4744 0.1015
C10 C 0.7660(3) 0.5576(3) 0.0166(6)
C11 C 0.6382(3) 0.5298(3) 0.2338(7)
H9 H 0.6208 0.5006 0.2060
H10 H 0.6315 0.5308 0.3097
C12 C 0.6740(3) 0.5476(3) -0.0338(6)
H11 H 0.6562 0.5160 -0.0406
H12 H 0.6869 0.5568 -0.1038
C13 C 0.5956(3) 0.6091(3) 0.2417(7)
C14 C 0.5968(3) 0.5717(3) 0.0799(6)
H13 H 0.5775 0.5414 0.0623
C15 C 0.5613(3) 0.6169(3) 0.0753(6)
H14 H 0.5248 0.6072 0.0588
C16 C 0.6256(3) 0.6250(3) -0.0536(6)
C17 C 0.5231(3) 0.6672(3) 0.2227(6)
H15 H 0.5240 0.6650 0.2997
H16 H 0.4890 0.6550 0.1987
C18 C 0.5538(3) 0.6887(3) -0.0554(6)
H17 H 0.5700 0.6969 -0.1232
H18 H 0.5176 0.6788 -0.0693
C19 C 0.5333(3) 0.7556(3) 0.2658(6)
C20 C 0.5116(3) 0.7382(3) 0.0900(5)
H19 H 0.4769 0.7253 0.0685
C21 C 0.5119(3) 0.7931(3) 0.1059(5)
H20 H 0.4771 0.8075 0.0907
C22 C 0.5722(3) 0.7734(3) -0.0264(6)
C23 C 0.5123(3) 0.8437(3) 0.2752(6)
H21 H 0.4801 0.8582 0.2469
H22 H 0.5058 0.8347 0.3488
C24 C 0.5613(3) 0.8614(3) 0.0116(6)
H23 H 0.5278 0.8783 0.0015
H24 H 0.5810 0.8637 -0.0546
C25 C 0.5832(3) 0.8941(3) 0.3630(7)
C26 C 0.5655(3) 0.9098(3) 0.1848(6)
H25 H 0.5331 0.9266 0.1616
C27 C 0.6060(3) 0.9472(3) 0.2199(6)
H26 H 0.5929 0.9811 0.2134
C28 C 0.6386(3) 0.9077(3) 0.0744(7)
C29 C 0.6374(3) 0.9625(3) 0.4076(6)
H27 H 0.6254 0.9538 0.4785
H28 H 0.6265 0.9962 0.3939
C30 C 0.6919(3) 0.9743(3) 0.1480(6)
H29 H 0.6768 1.0070 0.1563
H30 H 0.7075 0.9724 0.0775
C31 C 0.7221(4) 0.9308(3) 0.4755(6)
C32 C 0.7289(3) 0.9877(2) 0.3379(6)
H31 H 0.7193 1.0227 0.3363
C33 C 0.7840(3) 0.9795(3) 0.3839(6)
H32 H 0.7989 1.0093 0.4165
C34 C 0.7844(3) 0.9556(2) 0.2065(6)
C35 C 0.8135(4) 0.9279(3) 0.5395(7)
H33 H 0.7959 0.9139 0.6011
H34 H 0.8318 0.9576 0.5619
C36 C 0.8707(3) 0.9613(3) 0.2904(7)
H35 H 0.8829 0.9650 0.2176
H36 H 0.8843 0.9891 0.3307
C37 C 0.8580(4) 0.8462(3) 0.5426(6)
C38 C 0.8993(3) 0.9101(3) 0.4472(6)
H37 H 0.9134 0.9397 0.4819
C39 C 0.9378(3) 0.8666(3) 0.4532(5)
H38 H 0.9705 0.8753 0.4907
C40 C 0.9225(3) 0.8869(3) 0.2748(8)
C41 C 0.9322(3) 0.7892(3) 0.5611(6)
H39 H 0.9103 0.7787 0.6205
H40 H 0.9656 0.8005 0.5901
C42 C 0.9910(3) 0.8254(2) 0.3122(7)
H41 H 1.0221 0.8359 0.3513
H42 H 0.9973 0.8318 0.2373
C43 C 0.9282(3) 0.7006(3) 0.5215(6)
C44 C 0.9895(3) 0.7477(3) 0.4258(5)
H43 H 1.0209 0.7586 0.4653
C45 C 0.9926(3) 0.6918(3) 0.3934(6)
H44 H 1.0286 0.6788 0.4015
C46 C 0.9731(3) 0.7412(3) 0.2408(7)
C47 C 0.9524(3) 0.6165(3) 0.4765(6)
H45 H 0.9343 0.6100 0.5432
H46 H 0.9872 0.6016 0.4803
C48 C 0.9841(3) 0.6552(3) 0.2101(6)
H47 H 1.0182 0.6404 0.2255
H48 H 0.9857 0.6683 0.1383
N1 N 0.9222(2) 0.5937(2) 0.3879(5)
N2 N 0.8630(2) 0.5413(2) 0.3247(5)
N3 N 0.9450(3) 0.6172(2) 0.2126(5)
N4 N 0.8854(2) 0.5649(2) 0.1503(5)
N5 N 0.7789(2) 0.5164(2) 0.2625(4)
N6 N 0.6938(2) 0.5243(2) 0.2180(5)
N7 N 0.8013(3) 0.5369(2) 0.0807(5)
N8 N 0.7177(2) 0.5420(2) 0.0353(5)
N9 N 0.6148(2) 0.5715(2) 0.1870(5)
N10 N 0.5641(2) 0.6375(2) 0.1789(5)
N11 N 0.6364(2) 0.5835(2) 0.0003(5)
N12 N 0.5823(2) 0.6470(2) -0.0086(5)
N13 N 0.5292(3) 0.7196(2) 0.1901(5)
N14 N 0.5253(2) 0.7989(2) 0.2140(5)
N15 N 0.5534(2) 0.7306(2) 0.0086(5)
N16 N 0.5512(2) 0.8112(2) 0.0333(5)
N17 N 0.5545(3) 0.8796(2) 0.2708(5)
N18 N 0.6126(3) 0.9318(2) 0.3349(5)
N19 N 0.5908(2) 0.8863(2) 0.0945(5)
N20 N 0.6515(2) 0.9390(2) 0.1565(5)
N21 N 0.6954(2) 0.9603(2) 0.4057(5)
N22 N 0.7752(2) 0.9400(2) 0.4603(4)
N23 N 0.7343(2) 0.9670(2) 0.2299(4)
N24 N 0.8130(2) 0.9635(2) 0.2911(5)
N25 N 0.8519(3) 0.8924(2) 0.4978(5)
N26 N 0.9073(2) 0.8291(2) 0.5107(5)
N27 N 0.8929(2) 0.9167(2) 0.3335(4)
N28 N 0.9476(2) 0.8530(2) 0.3458(5)
N29 N 0.9424(2) 0.7460(2) 0.4924(5)
N30 N 0.9577(2) 0.6688(2) 0.4622(4)
N31 N 0.9838(3) 0.7729(2) 0.3274(5)
N32 N 0.9767(2) 0.6938(2) 0.2788(5)
O2 O 0.8520(2) 0.57116(17) 0.4982(4)
O3 O 0.7191(2) 0.5385(2) 0.3924(4)
O4 O 0.6024(2) 0.61670(19) 0.3393(4)
O5 O 0.5442(2) 0.74992(18) 0.3570(4)
O6 O 0.5779(2) 0.8765(2) 0.4452(4)
O7 O 0.7032(2) 0.90243(19) 0.5381(4)
O8 O 0.8271(2) 0.8249(2) 0.5980(5)
O9 O 0.8960(2) 0.68942(18) 0.5882(4)
O10 O 0.9117(2) 0.63057(19) 0.0433(4)
O11 O 0.7789(2) 0.58611(19) -0.0561(4)
O12 O 0.6495(2) 0.6415(2) -0.1293(4)
O13 O 0.6041(2) 0.77975(19) -0.1003(4)
O14 O 0.6673(2) 0.8990(2) -0.0021(4)
O15 O 0.8000(2) 0.94244(18) 0.1194(4)
O16 O 0.9287(2) 0.8859(2) 0.1791(4)
O17 O 0.96586(19) 0.75377(18) 0.1518(4)
C49 C 0.7306(3) 0.7375(3) 0.3098(6)
C50 C 0.7355(3) 0.7294(3) 0.1902(6)
H49 H 0.7724 0.7325 0.1698
H50 H 0.7157 0.7549 0.1533
C51 C 0.7598(4) 0.7842(3) 0.3343(7)
H51 H 0.7962 0.7809 0.3103
H52 H 0.7605 0.7889 0.4109
C52 C 0.7545(3) 0.6971(3) 0.3707(7)
H53 H 0.7338 0.6673 0.3596
H54 H 0.7529 0.7051 0.4458
C53 C 0.6701(3) 0.7406(3) 0.3340(6)
H55 H 0.6554 0.7693 0.2985
H56 H 0.6528 0.7115 0.3055
C54 C 0.6476(3) 0.7032(3) 0.5056(7)
H57 H 0.6457 0.6729 0.4708
C55 C 0.6384(3) 0.7061(4) 0.6185(7)
H58 H 0.6313 0.6783 0.6595
C56 C 0.6406(4) 0.7519(4) 0.6612(8)
H59 H 0.6352 0.7553 0.7341
C57 C 0.6504(4) 0.7938(3) 0.6016(8)
H60 H 0.6496 0.8247 0.6340
C58 C 0.6612(3) 0.7901(3) 0.4972(7)
H61 H 0.6700 0.8178 0.4572
N33 N 0.6589(3) 0.7441(2) 0.4511(5)
Br2 Br 0.70942(4) 0.66495(4) 0.14579(8)
Br3 Br 0.72863(5) 0.84235(3) 0.26810(9)
Br4 Br 0.82832(4) 0.68352(4) 0.33193(9)
Cl2? Cl 1.0000 1.0000 0.7877(8)
loop_
_geom_bond_atom_site_label_1
_geom_bond_atom_site_label_2
_geom_bond_site_symmetry_1
_geom_bond_site_symmetry_2
C1 N1 1_555 1_555
C2 H1 1_555 1_555
C3 C2 1_555 1_555
H2 C3 1_555 1_555
C4 N3 1_555 1_555
C5 H3 1_555 1_555
H4 C5 1_555 1_555
C6 H5 1_555 1_555
H6 C6 1_555 1_555
C7 N5 1_555 1_555
C8 H7 1_555 1_555
C9 C8 1_555 1_555
H8 C9 1_555 1_555
C10 N7 1_555 1_555
C11 H9 1_555 1_555
H10 C11 1_555 1_555
C12 H11 1_555 1_555
H12 C12 1_555 1_555
C13 N9 1_555 1_555
C14 H13 1_555 1_555
C15 C14 1_555 1_555
H14 C15 1_555 1_555
C16 N11 1_555 1_555
C17 H15 1_555 1_555
H16 C17 1_555 1_555
C18 H17 1_555 1_555
H18 C18 1_555 1_555
C19 N13 1_555 1_555
C20 H19 1_555 1_555
C21 C20 1_555 1_555
H20 C21 1_555 1_555
C22 N15 1_555 1_555
C23 H21 1_555 1_555
H22 C23 1_555 1_555
C24 H23 1_555 1_555
H24 C24 1_555 1_555
C25 N17 1_555 1_555
C26 H25 1_555 1_555
C27 C26 1_555 1_555
H26 C27 1_555 1_555
C28 N19 1_555 1_555
C29 H27 1_555 1_555
H28 C29 1_555 1_555
C30 H29 1_555 1_555
H30 C30 1_555 1_555
C31 N21 1_555 1_555
C32 H31 1_555 1_555
C33 C32 1_555 1_555
H32 C33 1_555 1_555
C34 N23 1_555 1_555
C35 H33 1_555 1_555
H34 C35 1_555 1_555
C36 H35 1_555 1_555
H36 C36 1_555 1_555
C37 N25 1_555 1_555
C38 H37 1_555 1_555
C39 C38 1_555 1_555
H38 C39 1_555 1_555
C40 N27 1_555 1_555
C41 H39 1_555 1_555
H40 C41 1_555 1_555
C42 H41 1_555 1_555
H42 C42 1_555 1_555
C43 N29 1_555 1_555
C44 H43 1_555 1_555
C45 C44 1_555 1_555
H44 C45 1_555 1_555
C46 N31 1_555 1_555
C47 H45 1_555 1_555
H46 C47 1_555 1_555
C48 H47 1_555 1_555
H48 C48 1_555 1_555
C49 C50 1_555 1_555
C50 H49 1_555 1_555
H50 C50 1_555 1_555
C51 C49 1_555 1_555
H51 C51 1_555 1_555
H52 C51 1_555 1_555
C52 C49 1_555 1_555
H53 C52 1_555 1_555
H54 C52 1_555 1_555
C53 C49 1_555 1_555
H55 C53 1_555 1_555
H56 C53 1_555 1_555
C54 H57 1_555 1_555
C55 C54 1_555 1_555
H58 C55 1_555 1_555
C56 C55 1_555 1_555
H59 C56 1_555 1_555
C57 C56 1_555 1_555
H60 C57 1_555 1_555
C58 C57 1_555 1_555
H61 C58 1_555 1_555
N1 C2 1_555 1_555
N2 C1 1_555 1_555
N3 C2 1_555 1_555
N4 C3 1_555 1_555
N5 C5 1_555 1_555
N6 C7 1_555 1_555
N7 C6 1_555 1_555
N8 C9 1_555 1_555
N9 C11 1_555 1_555
N10 C13 1_555 1_555
N11 C12 1_555 1_555
N12 C15 1_555 1_555
N13 C17 1_555 1_555
N14 C19 1_555 1_555
N15 C18 1_555 1_555
N16 C21 1_555 1_555
N17 C23 1_555 1_555
N18 C25 1_555 1_555
N19 C24 1_555 1_555
N20 C27 1_555 1_555
N21 C29 1_555 1_555
N22 C31 1_555 1_555
N23 C30 1_555 1_555
N24 C33 1_555 1_555
N25 C35 1_555 1_555
N26 C37 1_555 1_555
N27 C36 1_555 1_555
N28 C39 1_555 1_555
N29 C41 1_555 1_555
N30 C43 1_555 1_555
N31 C42 1_555 1_555
N32 C45 1_555 1_555
N33 C53 1_555 1_555
O2 C1 1_555 1_555
O3 C7 1_555 1_555
O4 C13 1_555 1_555
O5 C19 1_555 1_555
O6 C25 1_555 1_555
O7 C31 1_555 1_555
O8 C37 1_555 1_555
O9 C43 1_555 1_555
O10 C4 1_555 1_555
O11 C10 1_555 1_555
O12 C16 1_555 1_555
O13 C22 1_555 1_555
O14 C28 1_555 1_555
O15 C34 1_555 1_555
O16 C40 1_555 1_555
O17 C46 1_555 1_555
Br2 C50 1_555 1_555
Br3 C51 1_555 1_555
Br4 C52 1_555 1_555
C3 N2 1_555 1_555
C4 N4 1_555 1_555
C5 N2 1_555 1_555
C6 N4 1_555 1_555
C8 N5 1_555 1_555
C8 N7 1_555 1_555
C9 N6 1_555 1_555
C10 N8 1_555 1_555
C11 N6 1_555 1_555
C12 N8 1_555 1_555
C14 N9 1_555 1_555
C14 N11 1_555 1_555
C15 N10 1_555 1_555
C16 N12 1_555 1_555
C17 N10 1_555 1_555
C18 N12 1_555 1_555
C20 N13 1_555 1_555
C20 N15 1_555 1_555
C21 N14 1_555 1_555
C22 N16 1_555 1_555
C23 N14 1_555 1_555
C24 N16 1_555 1_555
C26 N17 1_555 1_555
C26 N19 1_555 1_555
C27 N18 1_555 1_555
C28 N20 1_555 1_555
C29 N18 1_555 1_555
C30 N20 1_555 1_555
C32 N21 1_555 1_555
C32 N23 1_555 1_555
C33 N22 1_555 1_555
C34 N24 1_555 1_555
C35 N22 1_555 1_555
C36 N24 1_555 1_555
C38 N25 1_555 1_555
C38 N27 1_555 1_555
C39 N26 1_555 1_555
C40 N28 1_555 1_555
C41 N26 1_555 1_555
C42 N28 1_555 1_555
C44 N29 1_555 1_555
C44 N31 1_555 1_555
C45 N30 1_555 1_555
C46 N32 1_555 1_555
C47 N1 1_555 1_555
C47 N30 1_555 1_555
C48 N3 1_555 1_555
C48 N32 1_555 1_555
C54 N33 1_555 1_555
C58 N33 1_555 1_555

#END
