
#######################################################################
#
#                 Cambridge Crystallographic Data Centre
#                                CCDC 
#
#######################################################################
#
# If this CIF has been generated from an entry in the Cambridge 
# Structural Database, then it will include bibliographic, chemical, 
# crystal, experimental, refinement or atomic coordinate data resulting 
# from the CCDC's data processing and validation procedures.
#
#######################################################################

data_EPOFIA
_chemical_formula_moiety         'C48 H30,C1 H2 Cl2'
_chemical_name_systematic        
"9,9',9''-benzene-1,3,5-triyltrianthracene dichloromethane solvate"
_symmetry_cell_setting           monoclinic
_symmetry_space_group_name_H-M   'P 21/c'
_symmetry_Int_Tables_number      14
_space_group_name_Hall           '-P 2ybc'
loop_
_symmetry_equiv_pos_site_id
_symmetry_equiv_pos_as_xyz
1 x,y,z
2 -x,1/2+y,1/2-z
3 -x,-y,-z
4 x,1/2-y,1/2+z
_cell_length_a                   11.849(3)
_cell_length_b                   17.350(5)
_cell_length_c                   21.055(4)
_cell_angle_alpha                90
_cell_angle_beta                 121.146(11)
_cell_angle_gamma                90
_cell_volume                     3704.55
_exptl_crystal_colour            colorless
_exptl_crystal_description       block
_cell_formula_units_Z            4
loop_
_atom_site_label
_atom_site_type_symbol
_atom_site_fract_x
_atom_site_fract_y
_atom_site_fract_z
Cl1 Cl 1.0259(4) 0.8352(2) 0.5289(2)
C1 C 0.9721(11) 0.8998(7) 0.5714(11)
H1 H 0.8890 0.9217 0.5334
H2 H 0.9550 0.8709 0.6050
Cl2 Cl 1.0739(3) 0.9720(2) 0.61882(18)
C2 C -0.2222(5) 0.8201(3) 0.1882(3)
C3 C 0.1936(5) 0.8138(3) 0.3390(3)
H3 H 0.2844 0.8122 0.3714
C4 C 0.1932(5) 0.6691(3) 0.3407(3)
C5 C -0.0752(5) 0.8187(3) 0.2413(3)
C6 C -0.0101(4) 0.7487(3) 0.2639(3)
H4 H -0.0575 0.7032 0.2451
C7 C -0.4946(6) 0.8200(3) 0.0906(4)
H5 H -0.5854 0.8197 0.0579
C8 C -0.2722(5) 0.8117(3) 0.1120(3)
C9 C 0.2081(5) 0.9580(3) 0.3475(3)
C10 C 0.1315(4) 0.8849(3) 0.3174(3)
C11 C 0.1246(5) 0.7452(3) 0.3140(3)
C12 C -0.0034(5) 0.8861(3) 0.2689(3)
H6 H -0.0469 0.9332 0.2545
C13 C 0.2677(4) 0.9752(3) 0.4234(3)
C14 C -0.4127(5) 0.8114(3) 0.0621(3)
C15 C 0.2676(5) 0.6390(3) 0.3118(3)
C16 C -0.4466(5) 0.8290(3) 0.1655(4)
C17 C -0.3066(5) 0.8295(3) 0.2159(3)
C18 C 0.3402(5) 1.0446(4) 0.4525(4)
C19 C -0.1919(6) 0.8026(3) 0.0807(3)
H7 H -0.1008 0.8015 0.1122
C20 C -0.4619(7) 0.8036(3) -0.0159(4)
H8 H -0.5526 0.8039 -0.0491
C21 C 0.3515(6) 1.0939(4) 0.4057(6)
H9 H 0.3994 1.1392 0.4251
C22 C 0.3361(6) 0.5672(4) 0.3385(4)
C23 C 0.2951(6) 1.0798(3) 0.3308(5)
C24 C 0.2195(5) 1.0091(3) 0.2998(4)
C25 C 0.1856(5) 0.6305(3) 0.3965(3)
C26 C -0.2596(6) 0.8366(3) 0.2932(4)
H10 H -0.1693 0.8363 0.3270
C27 C 0.4002(6) 1.0603(5) 0.5306(5)
H11 H 0.4481 1.1055 0.5501
C28 C -0.2428(7) 0.7955(4) 0.0066(3)
H12 H -0.1870 0.7905 -0.0119
C29 C 0.2583(5) 0.9271(4) 0.4749(3)
H13 H 0.2095 0.8818 0.4579
C30 C -0.5304(6) 0.8373(3) 0.1952(5)
H14 H -0.6213 0.8381 0.1630
C31 C 0.2851(6) 0.6770(4) 0.2580(4)
H15 H 0.2416 0.7233 0.2380
C32 C -0.3805(8) 0.7959(4) -0.0420(4)
H16 H -0.4154 0.7907 -0.0928
C33 C 0.2563(8) 0.5561(4) 0.4231(4)
C34 C 0.3240(7) 0.5297(4) 0.3907(5)
H17 H 0.3649 0.4819 0.4061
C35 C 0.4150(7) 0.5380(5) 0.3112(6)
H18 H 0.4569 0.4907 0.3281
C36 C 0.1193(7) 0.6606(4) 0.4310(4)
H19 H 0.0746 0.7072 0.4144
C37 C 0.1630(7) 0.9950(4) 0.2231(4)
H20 H 0.1166 0.9495 0.2026
C38 C -0.3428(8) 0.8436(4) 0.3181(4)
H21 H -0.3090 0.8482 0.3688
C39 C -0.4814(8) 0.8440(4) 0.2685(5)
H22 H -0.5379 0.8489 0.2867
C40 C 0.4297(10) 0.5776(6) 0.2619(7)
H23 H 0.4839 0.5586 0.2457
C41 C 0.3167(7) 0.9443(5) 0.5467(4)
H24 H 0.3090 0.9102 0.5783
C42 C 0.3087(9) 1.1297(5) 0.2837(7)
H25 H 0.3588 1.1741 0.3035
C43 C 0.2530(11) 1.1165(5) 0.2114(8)
H26 H 0.2639 1.1520 0.1819
C44 C 0.3882(8) 1.0109(6) 0.5756(5)
H27 H 0.4278 1.0216 0.6260
C45 C 0.2496(11) 0.5217(7) 0.4801(7)
H28 H 0.2933 0.4749 0.4979
C46 C 0.3643(8) 0.6472(5) 0.2346(5)
H29 H 0.3747 0.6741 0.1997
C47 C 0.1761(9) 1.0482(5) 0.1780(5)
H30 H 0.1358 1.0398 0.1272
C48 C 0.1193(9) 0.6231(7) 0.4877(5)
H31 H 0.0770 0.6445 0.5104
C49 C 0.1853(13) 0.5499(8) 0.5122(6)
H32 H 0.1835 0.5226 0.5496
loop_
_geom_bond_atom_site_label_1
_geom_bond_atom_site_label_2
_geom_bond_site_symmetry_1
_geom_bond_site_symmetry_2
Cl1 C1 1_555 1_555
C1 H1 1_555 1_555
H2 C1 1_555 1_555
Cl2 C1 1_555 1_555
C2 C5 1_555 1_555
C3 H3 1_555 1_555
C4 C11 1_555 1_555
C5 C6 1_555 1_555
C6 H4 1_555 1_555
C7 H5 1_555 1_555
C8 C2 1_555 1_555
C9 C10 1_555 1_555
C10 C3 1_555 1_555
C11 C3 1_555 1_555
C12 C5 1_555 1_555
H6 C12 1_555 1_555
C13 C9 1_555 1_555
C14 C7 1_555 1_555
C15 C4 1_555 1_555
C16 C7 1_555 1_555
C17 C2 1_555 1_555
C18 C13 1_555 1_555
C19 C8 1_555 1_555
H7 C19 1_555 1_555
C20 C14 1_555 1_555
H8 C20 1_555 1_555
C21 C18 1_555 1_555
H9 C21 1_555 1_555
C22 C15 1_555 1_555
C23 C21 1_555 1_555
C24 C9 1_555 1_555
C25 C4 1_555 1_555
C26 C17 1_555 1_555
H10 C26 1_555 1_555
C27 C18 1_555 1_555
H11 C27 1_555 1_555
C28 C19 1_555 1_555
H12 C28 1_555 1_555
C29 C13 1_555 1_555
H13 C29 1_555 1_555
C30 C16 1_555 1_555
H14 C30 1_555 1_555
C31 C15 1_555 1_555
H15 C31 1_555 1_555
C32 C20 1_555 1_555
H16 C32 1_555 1_555
C33 C25 1_555 1_555
C34 C22 1_555 1_555
H17 C34 1_555 1_555
C35 C22 1_555 1_555
H18 C35 1_555 1_555
C36 C25 1_555 1_555
H19 C36 1_555 1_555
C37 C24 1_555 1_555
H20 C37 1_555 1_555
C38 C26 1_555 1_555
H21 C38 1_555 1_555
C39 C30 1_555 1_555
H22 C39 1_555 1_555
C40 C35 1_555 1_555
H23 C40 1_555 1_555
C41 C29 1_555 1_555
H24 C41 1_555 1_555
C42 C23 1_555 1_555
H25 C42 1_555 1_555
C43 C42 1_555 1_555
H26 C43 1_555 1_555
C44 C27 1_555 1_555
H27 C44 1_555 1_555
C45 C33 1_555 1_555
H28 C45 1_555 1_555
C46 C31 1_555 1_555
H29 C46 1_555 1_555
C47 C37 1_555 1_555
H30 C47 1_555 1_555
C48 C36 1_555 1_555
H31 C48 1_555 1_555
C49 C45 1_555 1_555
H32 C49 1_555 1_555
C6 C11 1_555 1_555
C8 C14 1_555 1_555
C10 C12 1_555 1_555
C16 C17 1_555 1_555
C23 C24 1_555 1_555
C28 C32 1_555 1_555
C33 C34 1_555 1_555
C38 C39 1_555 1_555
C40 C46 1_555 1_555
C41 C44 1_555 1_555
C43 C47 1_555 1_555
C48 C49 1_555 1_555

#END
