
#######################################################################
#
#                 Cambridge Crystallographic Data Centre
#                                CCDC 
#
#######################################################################
#
# If this CIF has been generated from an entry in the Cambridge 
# Structural Database, then it will include bibliographic, chemical, 
# crystal, experimental, refinement or atomic coordinate data resulting 
# from the CCDC's data processing and validation procedures.
#
#######################################################################

data_EPOFAS
_chemical_formula_moiety         'C33 H30 F6 N2'
_chemical_name_systematic        
2-(3',5'-bis(trifluoromethyl)biphenyl-4-yl)-3-(1,1,7,7-tetramethyl-2,3,6,7-tetrahydro-1H,5H-pyrido[3,2,1-ij]quinolin-9-yl)acrylonitrile
_symmetry_cell_setting           monoclinic
_symmetry_space_group_name_H-M   'P c'
_symmetry_Int_Tables_number      7
_space_group_name_Hall           'P -2yc'
loop_
_symmetry_equiv_pos_site_id
_symmetry_equiv_pos_as_xyz
1 x,y,z
2 x,-y,1/2+z
_cell_length_a                   6.2952(13)
_cell_length_b                   13.290(3)
_cell_length_c                   17.297(4)
_cell_angle_alpha                90
_cell_angle_beta                 101.40(3)
_cell_angle_gamma                90
_cell_volume                     1418.57
_exptl_crystal_colour            red
_exptl_crystal_description       block
_cell_formula_units_Z            2
loop_
_atom_site_label
_atom_site_type_symbol
_atom_site_fract_x
_atom_site_fract_y
_atom_site_fract_z
F1 F 1.6587(15) -0.1607(6) 0.3843(5)
F2 F 1.8364(10) -0.0457(5) 0.4351(3)
F3 F 1.9324(15) -0.1144(8) 0.3422(4)
F4 F 1.628(4) -0.0176(13) 0.0744(9)
F5 F 1.356(4) 0.066(2) 0.0448(10)
F6 F 1.591(8) 0.1364(17) 0.0738(16)
C1 C 1.766(2) -0.0823(8) 0.3673(7)
C2 C 1.578(5) 0.0673(19) 0.1043(10)
C3 C 1.6624(11) -0.0052(5) 0.2354(4)
H1 H 1.7747 -0.0405 0.2201
C4 C 1.5365(13) 0.0588(6) 0.1838(4)
C5 C 1.3652(13) 0.1118(5) 0.2072(5)
H2 H 1.2778 0.1536 0.1711
C6 C 1.3247(9) 0.1029(4) 0.2826(4)
C7 C 1.4568(12) 0.0376(5) 0.3323(4)
H3 H 1.4342 0.0298 0.3835
C8 C 1.6224(11) -0.0170(5) 0.3094(4)
C9 C 1.1494(10) 0.1582(4) 0.3076(4)
C10 C 1.0135(16) 0.2207(7) 0.2578(6)
H4 H 1.0342 0.2291 0.2064
C11 C 0.8457(16) 0.2718(7) 0.2819(6)
H5 H 0.7571 0.3131 0.2458
C12 C 0.8058(10) 0.2641(4) 0.3556(4)
C13 C 0.9386(13) 0.2017(8) 0.4043(5)
H6 H 0.9139 0.1910 0.4549
C14 C 1.1096(12) 0.1535(7) 0.3814(4)
H7 H 1.2027 0.1156 0.4188
C15 C 0.6271(10) 0.3202(4) 0.3807(4)
C16 C 0.5051(13) 0.3859(6) 0.3228(5)
C17 C 0.5698(10) 0.3053(5) 0.4499(4)
H8 H 0.6515 0.2560 0.4804
C18 C 0.4058(11) 0.3501(4) 0.4873(4)
C19 C 0.2980(10) 0.4394(4) 0.4642(4)
H9 H 0.3289 0.4731 0.4206
C20 C 0.1461(10) 0.4805(4) 0.5032(3)
C21 C 0.0442(10) 0.5814(5) 0.4805(4)
C22 C -0.1832(15) 0.5821(7) 0.5043(7)
H10 H -0.2492 0.6479 0.4933
H11 H -0.2764 0.5329 0.4729
C23 C -0.1641(15) 0.5584(6) 0.5892(5)
H12 H -0.0822 0.6110 0.6208
H13 H -0.3072 0.5558 0.6019
C24 C 0.0939(10) 0.4260(5) 0.5682(4)
C25 C 0.2038(9) 0.3341(4) 0.5932(3)
C26 C 0.3569(10) 0.3020(5) 0.5525(4)
H14 H 0.4334 0.2438 0.5700
C27 C 0.1585(10) 0.2782(5) 0.6643(4)
C28 C -0.0592(14) 0.3059(6) 0.6807(6)
H15 H -0.1715 0.2743 0.6418
H16 H -0.0714 0.2805 0.7323
C29 C -0.0928(14) 0.4159(6) 0.6786(4)
H17 H -0.2400 0.4298 0.6846
H18 H 0.0044 0.4458 0.7233
C30 C 0.1537(18) 0.1618(6) 0.6472(6)
H19 H 0.2827 0.1428 0.6291
H20 H 0.0289 0.1459 0.6074
H21 H 0.1466 0.1257 0.6947
C31 C 0.3410(11) 0.2962(7) 0.7338(4)
H22 H 0.3458 0.3663 0.7476
H23 H 0.4759 0.2770 0.7202
H24 H 0.3173 0.2569 0.7779
C32 C 0.189(2) 0.6591(6) 0.5174(13)
H25 H 0.2433 0.6961 0.4778
H26 H 0.3076 0.6292 0.5535
H27 H 0.1120 0.7040 0.5457
C33 C -0.019(3) 0.5918(9) 0.3935(7)
H28 H 0.0320 0.6552 0.3777
H29 H -0.1735 0.5886 0.3779
H30 H 0.0453 0.5381 0.3687
N1 N 0.4140(14) 0.4348(7) 0.2739(5)
N2 N -0.0570(9) 0.4634(4) 0.6072(3)
F7? F 1.621(4) 0.1809(17) 0.0913(14)
F8? F 1.8121(19) 0.0666(17) 0.1101(8)
F9? F 1.503(5) 0.035(5) 0.0554(16)
loop_
_geom_bond_atom_site_label_1
_geom_bond_atom_site_label_2
_geom_bond_site_symmetry_1
_geom_bond_site_symmetry_2
F1 C1 1_555 1_555
F2 C1 1_555 1_555
F3 C1 1_555 1_555
F4 C2 1_555 1_555
F5 C2 1_555 1_555
F6 C2 1_555 1_555
C1 C8 1_555 1_555
C2 C4 1_555 1_555
C3 H1 1_555 1_555
C4 C3 1_555 1_555
C5 C4 1_555 1_555
H2 C5 1_555 1_555
C6 C5 1_555 1_555
C7 C6 1_555 1_555
H3 C7 1_555 1_555
C8 C3 1_555 1_555
C9 C6 1_555 1_555
C10 C9 1_555 1_555
H4 C10 1_555 1_555
C11 C10 1_555 1_555
H5 C11 1_555 1_555
C12 C11 1_555 1_555
C13 C12 1_555 1_555
H6 C13 1_555 1_555
C14 C9 1_555 1_555
H7 C14 1_555 1_555
C15 C12 1_555 1_555
C16 C15 1_555 1_555
C17 C15 1_555 1_555
H8 C17 1_555 1_555
C18 C17 1_555 1_555
C19 C18 1_555 1_555
H9 C19 1_555 1_555
C20 C19 1_555 1_555
C21 C20 1_555 1_555
C22 C21 1_555 1_555
H10 C22 1_555 1_555
H11 C22 1_555 1_555
C23 C22 1_555 1_555
H12 C23 1_555 1_555
H13 C23 1_555 1_555
C24 C20 1_555 1_555
C25 C24 1_555 1_555
C26 C18 1_555 1_555
H14 C26 1_555 1_555
C27 C25 1_555 1_555
C28 C27 1_555 1_555
H15 C28 1_555 1_555
H16 C28 1_555 1_555
C29 C28 1_555 1_555
H17 C29 1_555 1_555
H18 C29 1_555 1_555
C30 C27 1_555 1_555
H19 C30 1_555 1_555
H20 C30 1_555 1_555
H21 C30 1_555 1_555
C31 C27 1_555 1_555
H22 C31 1_555 1_555
H23 C31 1_555 1_555
H24 C31 1_555 1_555
C32 C21 1_555 1_555
H25 C32 1_555 1_555
H26 C32 1_555 1_555
H27 C32 1_555 1_555
C33 C21 1_555 1_555
H28 C33 1_555 1_555
H29 C33 1_555 1_555
H30 C33 1_555 1_555
N1 C16 1_555 1_555
N2 C23 1_555 1_555
C7 C8 1_555 1_555
C13 C14 1_555 1_555
C24 N2 1_555 1_555
C25 C26 1_555 1_555
C29 N2 1_555 1_555

#END
