
#######################################################################
#
#                 Cambridge Crystallographic Data Centre
#                                CCDC 
#
#######################################################################
#
# If this CIF has been generated from an entry in the Cambridge 
# Structural Database, then it will include bibliographic, chemical, 
# crystal, experimental, refinement or atomic coordinate data resulting 
# from the CCDC's data processing and validation procedures.
#
#######################################################################

data_EPRHOD
_chemical_formula_moiety         'C15 H18 Br1 Cl1 O2'
_chemical_name_systematic        Epoxy-rhodophytin
_symmetry_cell_setting           orthorhombic
_symmetry_space_group_name_H-M   'P 21 21 21'
_symmetry_Int_Tables_number      19
_space_group_name_Hall           'P 2ac 2ab'
loop_
_symmetry_equiv_pos_site_id
_symmetry_equiv_pos_as_xyz
1 x,y,z
2 1/2+x,1/2-y,-z
3 -x,1/2+y,1/2-z
4 1/2-x,-y,1/2+z
_cell_length_a                   5.235(2)
_cell_length_b                   9.555(5)
_cell_length_c                   32.210(15)
_cell_angle_alpha                90
_cell_angle_beta                 90
_cell_angle_gamma                90
_cell_volume                     1611.16
_chemical_melting_point          54-55deg.C
_cell_formula_units_Z            4
loop_
_atom_site_label
_atom_site_type_symbol
_atom_site_fract_x
_atom_site_fract_y
_atom_site_fract_z
C1 C 0.71260 -0.32120 0.59070
C2 C 0.64030 -0.24600 0.56330
C3 C 0.55750 -0.15740 0.53140
C4 C 0.36930 -0.06450 0.53490
C5 C 0.20990 -0.04010 0.57320
C6 C 0.28600 0.09020 0.59750
C7 C 0.31840 0.22070 0.57060
C8 C 0.37140 0.35440 0.59420
C9 C 0.58640 0.33310 0.62390
C10 C 0.54370 0.28710 0.66700
C11 C 0.28670 0.25610 0.68420
C12 C 0.18140 0.11830 0.67050
C13 C 0.14760 0.00430 0.69330
C14 C 0.03010 -0.13020 0.68050
C15 C 0.20630 -0.25510 0.68000
O1 O 0.10020 0.11450 0.62910
Cl1 Cl 0.04120 0.24760 0.53800
O2 O 0.60710 0.43230 0.65800
Br1 Br 0.24830 0.00670 0.75000
H1 H 0.82100 -0.38800 0.61700
H2 H 0.59200 -0.16100 0.50200
H3 H 0.34400 -0.01500 0.51700
H4 H 0.00500 -0.03200 0.56600
H5 H 0.27400 -0.12100 0.59300
H6 H 0.44800 0.07600 0.60800
H7 H 0.44200 0.19800 0.55500
H8 H 0.43100 0.43300 0.57300
H9 H 0.21100 0.38100 0.60600
H10 H 0.73000 0.30400 0.60900
H11 H 0.67700 0.24100 0.68200
H12 H 0.31200 0.26700 0.71600
H13 H 0.20300 0.31500 0.67600
H14 H -0.12500 -0.13900 0.69900
H15 H -0.03100 -0.11700 0.65100
H16 H 0.33700 -0.23700 0.65200
H17 H 0.28400 -0.27000 0.71100
H18 H 0.15900 -0.37600 0.68100
loop_
_geom_bond_atom_site_label_1
_geom_bond_atom_site_label_2
_geom_bond_site_symmetry_1
_geom_bond_site_symmetry_2
C1 C2 1_555 1_555
C2 C3 1_555 1_555
C3 C4 1_555 1_555
C4 C5 1_555 1_555
C5 C6 1_555 1_555
C6 C7 1_555 1_555
C7 C8 1_555 1_555
C8 C9 1_555 1_555
C9 C10 1_555 1_555
C10 C11 1_555 1_555
C11 C12 1_555 1_555
C12 C13 1_555 1_555
C13 C14 1_555 1_555
C14 C15 1_555 1_555
C15 H16 1_555 1_555
O1 C6 1_555 1_555
Cl1 C7 1_555 1_555
O2 C9 1_555 1_555
Br1 C13 1_555 1_555
H1 C1 1_555 1_555
H2 C3 1_555 1_555
H3 C4 1_555 1_555
H4 C5 1_555 1_555
H5 C5 1_555 1_555
H6 C6 1_555 1_555
H7 C7 1_555 1_555
H8 C8 1_555 1_555
H9 C8 1_555 1_555
H10 C9 1_555 1_555
H11 C10 1_555 1_555
H12 C11 1_555 1_555
H13 C11 1_555 1_555
H14 C14 1_555 1_555
H15 C14 1_555 1_555
H17 C15 1_555 1_555
H18 C15 1_555 1_555
C10 O2 1_555 1_555
C12 O1 1_555 1_555

#END
