
#######################################################################
#
#                 Cambridge Crystallographic Data Centre
#                                CCDC 
#
#######################################################################
#
# If this CIF has been generated from an entry in the Cambridge 
# Structural Database, then it will include bibliographic, chemical, 
# crystal, experimental, refinement or atomic coordinate data resulting 
# from the CCDC's data processing and validation procedures.
#
#######################################################################

data_EPSCPR
_chemical_formula_moiety         'C11 H14 O2 S1'
_chemical_name_systematic        cis-2-Ethoxy-1-phenylsulfinyl-cyclopropane
_symmetry_cell_setting           monoclinic
_symmetry_space_group_name_H-M   'P 21/a'
_symmetry_Int_Tables_number      14
_space_group_name_Hall           '-P 2yab'
loop_
_symmetry_equiv_pos_site_id
_symmetry_equiv_pos_as_xyz
1 x,y,z
2 1/2-x,1/2+y,-z
3 -x,-y,-z
4 1/2+x,1/2-y,z
_cell_length_a                   13.479(4)
_cell_length_b                   7.159(1)
_cell_length_c                   11.482(4)
_cell_angle_alpha                90
_cell_angle_beta                 99.58(2)
_cell_angle_gamma                90
_cell_volume                     1092.52
_cell_formula_units_Z            4
loop_
_atom_site_label
_atom_site_type_symbol
_atom_site_fract_x
_atom_site_fract_y
_atom_site_fract_z
C1 C 0.32710 0.66680 0.87030
C2 C 0.36490 0.80780 0.78760
C3 C 0.39800 0.82710 0.91750
S1 S 0.38100 0.44070 0.88700
C4 C 0.20960 0.23010 0.80470
C5 C 0.14360 0.15110 0.72180
C6 C 0.15580 0.15750 0.60370
C7 C 0.23330 0.25790 0.57500
C8 C 0.30400 0.34160 0.66010
O1 O 0.43140 0.74750 0.72320
C9 C 0.49780 0.90410 0.69950
C10 C 0.57170 0.83350 0.63170
H1 H 0.25000 0.66900 0.88300
H2 H 0.31400 0.90800 0.74100
H3 H 0.36300 0.91400 0.95000
H4 H 0.46600 0.76600 0.94200
H5 H 0.20200 0.21200 0.89600
H6 H 0.07900 0.08000 0.74600
H7 H 0.10500 0.08400 0.53700
H8 H 0.24000 0.27300 0.48300
H9 H 0.36200 0.42700 0.64100
H10 H 0.45300 1.01100 0.65000
H11 H 0.53600 0.96100 0.78200
H12 H 0.62500 0.74400 0.68500
H13 H 0.61100 0.94900 0.60100
H14 H 0.53400 0.75600 0.55700
O2 O 0.36160 0.35910 1.00230
C11 C 0.28990 0.33670 0.77740
loop_
_geom_bond_atom_site_label_1
_geom_bond_atom_site_label_2
_geom_bond_site_symmetry_1
_geom_bond_site_symmetry_2
C1 C2 1_555 1_555
C2 C3 1_555 1_555
C3 C1 1_555 1_555
S1 C1 1_555 1_555
C4 C5 1_555 1_555
C5 C6 1_555 1_555
C6 C7 1_555 1_555
C7 C8 1_555 1_555
C8 H9 1_555 1_555
O1 C2 1_555 1_555
C9 O1 1_555 1_555
C10 C9 1_555 1_555
H1 C1 1_555 1_555
H2 C2 1_555 1_555
H3 C3 1_555 1_555
H4 C3 1_555 1_555
H5 C4 1_555 1_555
H6 C5 1_555 1_555
H7 C6 1_555 1_555
H8 C7 1_555 1_555
H10 C9 1_555 1_555
H11 C9 1_555 1_555
H12 C10 1_555 1_555
H13 C10 1_555 1_555
H14 C10 1_555 1_555
O2 S1 1_555 1_555
C11 S1 1_555 1_555
C4 C11 1_555 1_555
C8 C11 1_555 1_555

#END
