
#######################################################################
#
#                 Cambridge Crystallographic Data Centre
#                                CCDC 
#
#######################################################################
#
# If this CIF has been generated from an entry in the Cambridge 
# Structural Database, then it will include bibliographic, chemical, 
# crystal, experimental, refinement or atomic coordinate data resulting 
# from the CCDC's data processing and validation procedures.
#
#######################################################################

data_EPUGON
_chemical_formula_moiety         'C59 H49 N1 O5,C2 H4 O2'
_chemical_name_systematic        
'19-(2,6-bis(3-t-butylphenoxy)phenyl)-1,16-diphenyl-19-azahexacyclo[14.5.1.0^2,15^.0^3,8^.0^9,14^.0^17,21^]docosa-2(15),3,5,7,9,11,13-heptaene-18,20,22-trione acetic acid solvate'
_symmetry_cell_setting           triclinic
_symmetry_space_group_name_H-M   'P -1'
_symmetry_Int_Tables_number      2
_space_group_name_Hall           '-P 1'
loop_
_symmetry_equiv_pos_site_id
_symmetry_equiv_pos_as_xyz
1 x,y,z
2 -x,-y,-z
_cell_length_a                   9.6459(4)
_cell_length_b                   15.8179(6)
_cell_length_c                   16.7943(6)
_cell_angle_alpha                76.6830(10)
_cell_angle_beta                 74.9210(10)
_cell_angle_gamma                72.4830(10)
_cell_volume                     2327.09
_exptl_crystal_colour            colorless
_exptl_crystal_description       block
_cell_formula_units_Z            2
loop_
_atom_site_label
_atom_site_type_symbol
_atom_site_fract_x
_atom_site_fract_y
_atom_site_fract_z
O1 O 0.31106(11) -0.00068(6) 0.53296(6)
O2 O 0.55946(10) 0.12003(6) 0.20130(6)
O3 O 0.19215(10) 0.33210(6) 0.33148(5)
O4 O 0.29708(11) 0.19319(6) 0.12295(6)
O5 O 0.43613(10) 0.39844(6) 0.22856(5)
N1 N 0.37449(11) 0.23856(7) 0.24972(6)
C1 C 0.29934(13) 0.04888(8) 0.46853(8)
C2 C 0.36929(13) 0.03347(8) 0.37660(7)
C3 C 0.44777(13) 0.11215(8) 0.35056(7)
H1 H 0.5437 0.0933 0.3702
C4 C 0.47140(13) 0.15238(8) 0.25846(7)
C5 C 0.28873(13) 0.26289(8) 0.32544(7)
C6 C 0.33656(13) 0.18873(8) 0.39555(7)
H2 H 0.3850 0.2097 0.4306
C7 C 0.20686(13) 0.14792(8) 0.45089(7)
C8 C 0.12768(13) 0.13174(8) 0.38994(7)
C9 C 0.22318(13) 0.06691(8) 0.34565(7)
C10 C 0.18279(14) 0.03916(8) 0.28099(8)
C11 C 0.28460(15) -0.01838(9) 0.22672(8)
H3 H 0.3859 -0.0392 0.2312
C12 C 0.23806(17) -0.04446(9) 0.16745(9)
H4 H 0.3075 -0.0817 0.1302
C13 C 0.08806(18) -0.01587(10) 0.16227(9)
H5 H 0.0553 -0.0363 0.1232
C14 C -0.01193(16) 0.04128(9) 0.21312(9)
H6 H -0.1134 0.0595 0.2090
C15 C 0.03284(14) 0.07362(9) 0.27146(8)
C16 C -0.06799(14) 0.14336(8) 0.31752(8)
C17 C -0.21353(15) 0.18445(9) 0.30349(8)
H7 H -0.2484 0.1633 0.2657
C18 C -0.30549(15) 0.25389(10) 0.34293(9)
H8 H -0.4037 0.2792 0.3335
C19 C -0.25520(15) 0.28774(9) 0.39709(9)
H9 H -0.3182 0.3371 0.4231
C20 C -0.11469(14) 0.24959(9) 0.41258(8)
H10 H -0.0811 0.2730 0.4492
C21 C -0.01927(13) 0.17591(8) 0.37474(7)
C22 C 0.46113(14) -0.06035(8) 0.36735(8)
C23 C 0.60549(15) -0.07892(9) 0.32014(8)
H11 H 0.6515 -0.0313 0.2944
C24 C 0.68232(16) -0.16674(10) 0.31053(9)
H12 H 0.7804 -0.1790 0.2779
C25 C 0.61637(18) -0.23668(10) 0.34847(10)
H13 H 0.6691 -0.2966 0.3414
C26 C 0.47365(18) -0.21931(10) 0.39670(10)
H14 H 0.4288 -0.2673 0.4230
C27 C 0.39649(16) -0.13156(9) 0.40637(9)
H15 H 0.2990 -0.1198 0.4398
C28 C 0.11616(14) 0.18908(9) 0.52618(7)
C29 C 0.01792(15) 0.14422(9) 0.58417(8)
H16 H 0.0146 0.0869 0.5774
C30 C -0.07478(16) 0.18332(10) 0.65169(9)
H17 H -0.1419 0.1529 0.6908
C31 C -0.06961(16) 0.26674(11) 0.66215(9)
H18 H -0.1336 0.2935 0.7082
C32 C 0.02875(16) 0.31119(10) 0.60554(9)
H19 H 0.0323 0.3683 0.6128
C33 C 0.12231(15) 0.27199(9) 0.53801(8)
H20 H 0.1908 0.3021 0.4998
C34 C 0.36947(13) 0.29785(8) 0.17169(7)
C35 C 0.33305(13) 0.27386(8) 0.10624(8)
C36 C 0.33211(14) 0.33150(9) 0.02984(8)
H21 H 0.3121 0.3143 -0.0158
C37 C 0.36068(14) 0.41420(9) 0.02129(8)
H22 H 0.3577 0.4541 -0.0304
C38 C 0.39359(14) 0.44041(8) 0.08611(8)
H23 H 0.4109 0.4979 0.0794
C39 C 0.40073(13) 0.38097(8) 0.16102(7)
C40 C 0.24749(15) 0.17216(8) 0.06005(8)
C41 C 0.09851(15) 0.20386(8) 0.05682(8)
H24 H 0.0328 0.2405 0.0958
C42 C 0.04408(14) 0.18242(8) -0.00325(8)
C43 C 0.14600(16) 0.12778(10) -0.05853(8)
H25 H 0.1122 0.1120 -0.1001
C44 C 0.29507(16) 0.09597(10) -0.05430(9)
H26 H 0.3614 0.0588 -0.0926
C45 C 0.34804(15) 0.11823(9) 0.00567(9)
H27 H 0.4499 0.0970 0.0090
C46 C -0.12117(15) 0.21421(9) -0.00764(8)
C47 C -0.20756(16) 0.28772(11) 0.04536(10)
H28 H -0.2028 0.2641 0.1042
H29 H -0.3115 0.3070 0.0395
H30 H -0.1637 0.3391 0.0263
C48 C -0.13898(17) 0.25169(10) -0.09867(9)
H31 H -0.0913 0.3013 -0.1208
H32 H -0.2448 0.2736 -0.1003
H33 H -0.0921 0.2040 -0.1328
C49 C -0.19158(16) 0.13426(10) 0.02482(9)
H34 H -0.1369 0.0859 -0.0076
H35 H -0.2954 0.1535 0.0188
H36 H -0.1873 0.1125 0.0839
C50 C 0.49687(14) 0.47154(8) 0.21727(7)
C51 C 0.65007(14) 0.45394(8) 0.20405(7)
H37 H 0.7099 0.3949 0.1985
C52 C 0.71690(13) 0.52256(8) 0.19880(7)
C53 C 0.62410(14) 0.60878(9) 0.20593(8)
H38 H 0.6668 0.6569 0.2018
C54 C 0.47088(15) 0.62530(9) 0.21894(9)
H39 H 0.4102 0.6844 0.2236
C55 C 0.40511(15) 0.55618(9) 0.22526(9)
H40 H 0.3002 0.5670 0.2348
C56 C 0.88552(14) 0.50540(9) 0.18621(8)
C57 C 0.96604(15) 0.40699(9) 0.18006(10)
H41 H 0.9302 0.3685 0.2312
H42 H 1.0731 0.3986 0.1732
H43 H 0.9464 0.3909 0.1319
C58 C 0.92298(17) 0.52976(12) 0.25993(10)
H44 H 0.8782 0.5938 0.2623
H45 H 1.0310 0.5171 0.2525
H46 H 0.8837 0.4940 0.3121
C59 C 0.94335(16) 0.56340(10) 0.10487(10)
H47 H 0.9175 0.5489 0.0578
H48 H 1.0516 0.5513 0.0961
H49 H 0.8980 0.6271 0.1087
O6 O 0.17792(13) 0.47585(8) 0.40084(8)
H50 H 0.190(3) 0.4191(17) 0.3741(16)
O7 O 0.38941(13) 0.39175(8) 0.43880(8)
C60 C 0.29309(18) 0.46088(10) 0.43734(10)
C61 C 0.2858(3) 0.53908(14) 0.47514(16)
H51 H 0.3127 0.5873 0.4307
H52 H 0.3554 0.5205 0.5131
H53 H 0.1847 0.5609 0.5064
loop_
_geom_bond_atom_site_label_1
_geom_bond_atom_site_label_2
_geom_bond_site_symmetry_1
_geom_bond_site_symmetry_2
O1 C1 1_555 1_555
O2 C4 1_555 1_555
O3 C5 1_555 1_555
O4 C35 1_555 1_555
O5 C39 1_555 1_555
N1 C4 1_555 1_555
C1 C2 1_555 1_555
C2 C3 1_555 1_555
C3 H1 1_555 1_555
C4 C3 1_555 1_555
C5 N1 1_555 1_555
C6 C3 1_555 1_555
H2 C6 1_555 1_555
C7 C1 1_555 1_555
C8 C7 1_555 1_555
C9 C2 1_555 1_555
C10 C9 1_555 1_555
C11 C10 1_555 1_555
H3 C11 1_555 1_555
C12 C11 1_555 1_555
H4 C12 1_555 1_555
C13 C12 1_555 1_555
H5 C13 1_555 1_555
C14 C13 1_555 1_555
H6 C14 1_555 1_555
C15 C10 1_555 1_555
C16 C15 1_555 1_555
C17 C16 1_555 1_555
H7 C17 1_555 1_555
C18 C17 1_555 1_555
H8 C18 1_555 1_555
C19 C18 1_555 1_555
H9 C19 1_555 1_555
C20 C19 1_555 1_555
H10 C20 1_555 1_555
C21 C8 1_555 1_555
C22 C2 1_555 1_555
C23 C22 1_555 1_555
H11 C23 1_555 1_555
C24 C23 1_555 1_555
H12 C24 1_555 1_555
C25 C24 1_555 1_555
H13 C25 1_555 1_555
C26 C25 1_555 1_555
H14 C26 1_555 1_555
C27 C22 1_555 1_555
H15 C27 1_555 1_555
C28 C7 1_555 1_555
C29 C28 1_555 1_555
H16 C29 1_555 1_555
C30 C29 1_555 1_555
H17 C30 1_555 1_555
C31 C30 1_555 1_555
H18 C31 1_555 1_555
C32 C31 1_555 1_555
H19 C32 1_555 1_555
C33 C28 1_555 1_555
H20 C33 1_555 1_555
C34 N1 1_555 1_555
C35 C34 1_555 1_555
C36 C35 1_555 1_555
H21 C36 1_555 1_555
C37 C36 1_555 1_555
H22 C37 1_555 1_555
C38 C37 1_555 1_555
H23 C38 1_555 1_555
C39 C34 1_555 1_555
C40 O4 1_555 1_555
C41 C40 1_555 1_555
H24 C41 1_555 1_555
C42 C41 1_555 1_555
C43 C42 1_555 1_555
H25 C43 1_555 1_555
C44 C43 1_555 1_555
H26 C44 1_555 1_555
C45 C40 1_555 1_555
H27 C45 1_555 1_555
C46 C42 1_555 1_555
C47 C46 1_555 1_555
H28 C47 1_555 1_555
H29 C47 1_555 1_555
H30 C47 1_555 1_555
C48 C46 1_555 1_555
H31 C48 1_555 1_555
H32 C48 1_555 1_555
H33 C48 1_555 1_555
C49 C46 1_555 1_555
H34 C49 1_555 1_555
H35 C49 1_555 1_555
H36 C49 1_555 1_555
C50 O5 1_555 1_555
C51 C50 1_555 1_555
H37 C51 1_555 1_555
C52 C51 1_555 1_555
C53 C52 1_555 1_555
H38 C53 1_555 1_555
C54 C53 1_555 1_555
H39 C54 1_555 1_555
C55 C50 1_555 1_555
H40 C55 1_555 1_555
C56 C52 1_555 1_555
C57 C56 1_555 1_555
H41 C57 1_555 1_555
H42 C57 1_555 1_555
H43 C57 1_555 1_555
C58 C56 1_555 1_555
H44 C58 1_555 1_555
H45 C58 1_555 1_555
H46 C58 1_555 1_555
C59 C56 1_555 1_555
H47 C59 1_555 1_555
H48 C59 1_555 1_555
H49 C59 1_555 1_555
O6 H50 1_555 1_555
O7 C60 1_555 1_555
C60 O6 1_555 1_555
C61 C60 1_555 1_555
H51 C61 1_555 1_555
H52 C61 1_555 1_555
H53 C61 1_555 1_555
C5 C6 1_555 1_555
C6 C7 1_555 1_555
C8 C9 1_555 1_555
C14 C15 1_555 1_555
C16 C21 1_555 1_555
C20 C21 1_555 1_555
C26 C27 1_555 1_555
C32 C33 1_555 1_555
C38 C39 1_555 1_555
C44 C45 1_555 1_555
C54 C55 1_555 1_555

#END
