
#######################################################################
#
#                 Cambridge Crystallographic Data Centre
#                                CCDC 
#
#######################################################################
#
# If this CIF has been generated from an entry in the Cambridge 
# Structural Database, then it will include bibliographic, chemical, 
# crystal, experimental, refinement or atomic coordinate data resulting 
# from the CCDC's data processing and validation procedures.
#
#######################################################################

data_EPUGAZ
_chemical_formula_moiety         'C59 H49 N1 O5,1.5(C3 H6 O1)'
_chemical_name_systematic        
'19-(2,6-bis(4-t-butylphenoxy)phenyl)-1,16-diphenyl-19-azahexacyclo[14.5.1.0^2,15^.0^3,8^.0^9,14^.0^17,21^]docosa-2(15),3,5,7,9,11,13-heptaene-18,20,22-trione acetone solvate'
_symmetry_cell_setting           triclinic
_symmetry_space_group_name_H-M   'P -1'
_symmetry_Int_Tables_number      2
_space_group_name_Hall           '-P 1'
loop_
_symmetry_equiv_pos_site_id
_symmetry_equiv_pos_as_xyz
1 x,y,z
2 -x,-y,-z
_cell_length_a                   18.4497(12)
_cell_length_b                   18.9282(12)
_cell_length_c                   18.9389(13)
_cell_angle_alpha                90.852(2)
_cell_angle_beta                 116.693(2)
_cell_angle_gamma                110.498(2)
_cell_volume                     5416.44
_exptl_crystal_colour            colorless
_exptl_crystal_description       irregular
_cell_formula_units_Z            4
loop_
_atom_site_label
_atom_site_type_symbol
_atom_site_fract_x
_atom_site_fract_y
_atom_site_fract_z
O1 O -0.00280(8) 0.36483(8) 0.54983(8)
O2 O 0.10067(8) 0.12502(7) 0.54296(8)
O3 O 0.32574(8) 0.36367(8) 0.63322(9)
O4 O 0.26727(9) 0.25007(9) 0.46705(9)
O5 O 0.29143(9) 0.15850(8) 0.70186(9)
N1 N 0.22558(10) 0.23706(9) 0.58862(9)
C1 C 0.04442(12) 0.34116(11) 0.53940(11)
C2 C 0.02643(12) 0.25883(10) 0.50331(11)
C3 C 0.09957(11) 0.24808(10) 0.58169(11)
H1 H 0.0774 0.2326 0.6209
C4 C 0.13758(12) 0.19370(11) 0.56768(11)
C5 C 0.25318(12) 0.31585(11) 0.61468(11)
C6 C 0.17750(12) 0.32842(10) 0.61699(11)
H2 H 0.1938 0.3471 0.6739
C7 C 0.14323(12) 0.38304(11) 0.56179(11)
C8 C 0.13145(12) 0.35515(10) 0.47958(11)
C9 C 0.06577(12) 0.28241(11) 0.44710(11)
C10 C 0.04589(12) 0.23753(11) 0.37402(11)
C11 C -0.01282(12) 0.15935(11) 0.34525(11)
H3 H -0.0414 0.1346 0.3746
C12 C -0.02934(13) 0.11840(12) 0.27548(12)
H4 H -0.0687 0.0656 0.2571
C13 C 0.01156(13) 0.15423(12) 0.23155(12)
H5 H -0.0010 0.1261 0.1826
C14 C 0.06992(13) 0.23009(12) 0.25887(12)
H6 H 0.0974 0.2537 0.2283
C15 C 0.09010(12) 0.27369(11) 0.33086(11)
C16 C 0.15677(12) 0.35207(11) 0.36353(12)
C17 C 0.20167(13) 0.38971(12) 0.32231(13)
H7 H 0.1859 0.3640 0.2709
C18 C 0.26742(14) 0.46231(13) 0.35451(13)
H8 H 0.2961 0.4866 0.3251
C19 C 0.29230(14) 0.50060(13) 0.43017(13)
H9 H 0.3386 0.5506 0.4528
C20 C 0.24998(13) 0.46613(12) 0.47229(13)
H10 H 0.2677 0.4925 0.5241
C21 C 0.18079(12) 0.39241(11) 0.43974(12)
C22 C -0.06850(12) 0.20419(11) 0.47052(11)
C23 C -0.09416(13) 0.14064(11) 0.50286(12)
H11 H -0.0505 0.1274 0.5439
C24 C -0.18339(13) 0.09631(12) 0.47556(13)
H12 H -0.2001 0.0528 0.4979
C25 C -0.24764(13) 0.11490(12) 0.41649(14)
H13 H -0.3084 0.0852 0.3989
C26 C -0.22265(13) 0.17778(12) 0.38278(13)
H14 H -0.2666 0.1905 0.3413
C27 C -0.13404(12) 0.22176(11) 0.40960(12)
H15 H -0.1176 0.2645 0.3862
C28 C 0.18113(12) 0.46714(11) 0.59776(12)
C29 C 0.13958(13) 0.51294(11) 0.55297(13)
H16 H 0.0905 0.4907 0.5003
C30 C 0.16902(14) 0.58987(12) 0.58436(14)
H17 H 0.1410 0.6205 0.5529
C31 C 0.23954(14) 0.62248(12) 0.66185(15)
H18 H 0.2595 0.6753 0.6839
C32 C 0.28070(14) 0.57768(12) 0.70683(14)
H19 H 0.3289 0.5999 0.7600
C33 C 0.25209(12) 0.50042(11) 0.67474(12)
H20 H 0.2814 0.4703 0.7058
C34 C 0.28103(12) 0.20192(11) 0.58394(12)
C35 C 0.30281(12) 0.20911(12) 0.52229(12)
C36 C 0.35418(14) 0.17325(13) 0.51648(14)
H21 H 0.3693 0.1783 0.4745
C37 C 0.38324(14) 0.12975(13) 0.57278(14)
H22 H 0.4180 0.1046 0.5686
C38 C 0.36269(13) 0.12226(12) 0.63471(13)
H23 H 0.3833 0.0924 0.6730
C39 C 0.31177(13) 0.15870(11) 0.64037(12)
C40 C 0.31587(13) 0.28618(12) 0.42871(12)
C41 C 0.28733(13) 0.25555(12) 0.35024(12)
H24 H 0.2365 0.2087 0.3226
C42 C 0.33358(12) 0.29379(12) 0.31136(12)
H25 H 0.3135 0.2727 0.2569
C43 C 0.40868(13) 0.36237(12) 0.35065(13)
C44 C 0.43553(14) 0.39082(14) 0.43064(14)
H26 H 0.4868 0.4372 0.4591
C45 C 0.38994(14) 0.35359(14) 0.46990(13)
H27 H 0.4095 0.3742 0.5244
C46 C 0.29671(13) 0.10032(12) 0.74606(12)
C47 C 0.35379(13) 0.12107(12) 0.82821(13)
H28 H 0.3936 0.1733 0.8527
C48 C 0.35269(13) 0.06526(12) 0.87490(13)
H29 H 0.3911 0.0799 0.9316
C49 C 0.29614(13) -0.01207(12) 0.84002(13)
C50 C 0.24196(13) -0.03128(12) 0.75681(13)
H30 H 0.2046 -0.0838 0.7315
C51 C 0.24087(13) 0.02426(12) 0.70961(13)
H31 H 0.2022 0.0100 0.6529
C52 C 0.29303(14) -0.07153(13) 0.89457(15)
C53 C 0.23704(17) -0.15416(14) 0.84514(17)
H32 H 0.1757 -0.1602 0.8109
H33 H 0.2387 -0.1903 0.8818
H34 H 0.2608 -0.1648 0.8111
C54 C 0.25314(17) -0.05383(16) 0.94499(17)
H35 H 0.2912 -0.0024 0.9796
H36 H 0.2487 -0.0922 0.9787
H37 H 0.1941 -0.0556 0.9089
C55 C 0.38632(16) -0.06556(16) 0.95177(18)
H38 H 0.4131 -0.0754 0.9202
H39 H 0.3833 -0.1037 0.9859
H40 H 0.4224 -0.0137 0.9859
C56 C 0.4682(6) 0.3993(5) 0.3132(6)
C57 C 0.4191(18) 0.3732(15) 0.2220(8)
H41 H 0.3980 0.3171 0.2078
H42 H 0.4590 0.3978 0.2005
H43 H 0.3684 0.3880 0.1988
C58 C 0.5004(4) 0.4861(3) 0.3387(4)
H44 H 0.4494 0.5001 0.3200
H45 H 0.5371 0.5126 0.3148
H46 H 0.5354 0.5014 0.3977
C59 C 0.5480(3) 0.3769(4) 0.3491(4)
H47 H 0.5783 0.3913 0.4082
H48 H 0.5891 0.4039 0.3295
H49 H 0.5277 0.3211 0.3326
O6 O 0.93013(9) 0.97951(7) 0.10011(8)
O7 O 0.62609(9) 0.71027(8) -0.03729(8)
O8 O 0.79288(9) 0.74760(8) 0.23593(8)
O9 O 0.74706(9) 0.60138(8) 0.09045(10)
O10 O 0.53370(9) 0.67885(8) 0.09581(9)
N2 N 0.69391(10) 0.71515(9) 0.09964(9)
C64 C 0.89475(11) 0.91365(11) 0.10139(11)
C65 C 0.82408(12) 0.84385(11) 0.03025(11)
C66 C 0.75114(12) 0.82681(11) 0.05657(11)
H59 H 0.7212 0.8633 0.0391
C67 C 0.68255(12) 0.74481(11) 0.03033(11)
C68 C 0.76658(12) 0.76482(11) 0.17064(11)
C69 C 0.80299(11) 0.84185(10) 0.14998(11)
H60 H 0.7912 0.8813 0.1738
C70 C 0.90305(12) 0.87298(10) 0.17364(11)
C71 C 0.91762(11) 0.80663(10) 0.14314(11)
C72 C 0.87103(11) 0.78907(10) 0.06062(11)
C73 C 0.87133(12) 0.72775(11) 0.01498(12)
C74 C 0.81607(13) 0.70219(12) -0.06902(12)
H61 H 0.7761 0.7254 -0.0973
C75 C 0.81899(15) 0.64419(13) -0.11070(13)
H62 H 0.7809 0.6272 -0.1674
C76 C 0.87820(15) 0.61019(13) -0.06954(14)
H63 H 0.8814 0.5710 -0.0985
C77 C 0.93147(14) 0.63327(12) 0.01234(14)
H64 H 0.9712 0.6095 0.0394
C78 C 0.92911(12) 0.69133(11) 0.05762(12)
C79 C 0.98080(12) 0.71210(11) 0.14539(12)
C80 C 1.03907(14) 0.67759(12) 0.19017(13)
H65 H 1.0487 0.6427 0.1623
C81 C 1.08195(14) 0.69309(13) 0.27269(14)
H66 H 1.1214 0.6695 0.3012
C82 C 1.06823(13) 0.74329(12) 0.31558(13)
H67 H 1.0962 0.7521 0.3729
C83 C 1.01401(12) 0.77966(11) 0.27419(12)
H68 H 1.0053 0.8143 0.3033
C84 C 0.97097(12) 0.76654(11) 0.18909(12)
C85 C 0.80390(12) 0.86296(11) -0.05158(11)
C86 C 0.72003(13) 0.85537(12) -0.10897(12)
H69 H 0.6721 0.8356 -0.0980
C87 C 0.70593(14) 0.87657(12) -0.18251(13)
H70 H 0.6483 0.8711 -0.2215
C88 C 0.77486(14) 0.90545(12) -0.19933(13)
H71 H 0.7649 0.9201 -0.2496
C89 C 0.85884(14) 0.91299(12) -0.14257(13)
H72 H 0.9065 0.9323 -0.1541
C90 C 0.87308(13) 0.89240(12) -0.06926(12)
H73 H 0.9310 0.8984 -0.0303
C91 C 0.97050(12) 0.92503(10) 0.25478(11)
C92 C 1.05660(12) 0.96572(11) 0.26869(12)
H74 H 1.0714 0.9583 0.2280
C93 C 1.12045(13) 1.01656(11) 0.34092(12)
H75 H 1.1790 1.0435 0.3498
C94 C 1.09938(13) 1.02841(11) 0.40065(12)
H76 H 1.1430 1.0643 0.4499
C95 C 1.01453(13) 0.98763(11) 0.38800(12)
H77 H 1.0000 0.9950 0.4290
C96 C 0.95035(12) 0.93588(11) 0.31539(11)
H78 H 0.8924 0.9078 0.3072
C97 C 0.64145(12) 0.63786(11) 0.09807(11)
C98 C 0.67138(13) 0.58009(11) 0.09709(12)
C99 C 0.62480(14) 0.50580(12) 0.10000(12)
H79 H 0.6457 0.4665 0.0999
C100 C 0.54695(13) 0.48972(12) 0.10311(12)
H80 H 0.5147 0.4389 0.1054
C101 C 0.51544(13) 0.54604(12) 0.10300(12)
H81 H 0.4618 0.5340 0.1047
C102 C 0.56281(12) 0.62025(11) 0.10032(12)
C103 C 0.79732(13) 0.55751(12) 0.12308(13)
C104 C 0.79795(15) 0.50504(13) 0.07284(14)
H82 H 0.7637 0.4972 0.0159
C105 C 0.84979(15) 0.46343(13) 0.10692(14)
H83 H 0.8509 0.4273 0.0725
C106 C 0.90004(14) 0.47354(12) 0.19015(14)
C107 C 0.89717(14) 0.52711(13) 0.23883(14)
H84 H 0.9303 0.5348 0.2959
C108 C 0.84696(14) 0.56928(12) 0.20564(14)
H85 H 0.8466 0.6064 0.2397
C109 C 0.95864(16) 0.42936(14) 0.22883(15)
C110 C 0.9610(3) 0.3773(3) 0.1690(3)
H86 H 0.9014 0.3376 0.1346
H87 H 1.0014 0.3527 0.1983
H88 H 0.9816 0.4080 0.1353
C111 C 1.0568(2) 0.4904(2) 0.2838(3)
H89 H 1.0775 0.5208 0.2501
H90 H 1.0952 0.4635 0.3110
H91 H 1.0584 0.5247 0.3242
C112 C 0.9318(2) 0.3820(2) 0.2839(2)
H92 H 0.9353 0.4161 0.3258
H93 H 0.9718 0.3560 0.3093
H94 H 0.8710 0.3434 0.2521
C113 C 0.48514(13) 0.67752(11) 0.13571(13)
C114 C 0.51968(13) 0.67695(12) 0.21639(13)
H95 H 0.5762 0.6751 0.2457
C115 C 0.47242(14) 0.67904(12) 0.25518(14)
H96 H 0.4969 0.6781 0.3111
C116 C 0.39076(15) 0.68246(13) 0.21512(15)
C117 C 0.35818(16) 0.68447(17) 0.13373(17)
H97 H 0.3026 0.6881 0.1048
C118 C 0.40414(15) 0.68133(16) 0.09284(15)
H98 H 0.3800 0.6818 0.0368
C119 C 0.33698(19) 0.68396(16) 0.25735(19)
C120 C 0.24593(19) 0.6180(2) 0.2119(2)
H99 H 0.2130 0.6272 0.1581
H100 H 0.2136 0.6151 0.2418
H101 H 0.2527 0.5694 0.2067
C121 C 0.3293(3) 0.7622(2) 0.2597(3)
H102 H 0.3886 0.8037 0.2860
H103 H 0.2988 0.7646 0.2902
H104 H 0.2955 0.7680 0.2045
C122 C 0.3810(2) 0.67380(17) 0.34458(17)
H105 H 0.3899 0.6257 0.3454
H106 H 0.3429 0.6719 0.3682
H107 H 0.4383 0.7173 0.3760
O11 O 0.44799(13) 0.13070(12) 0.07489(12)
C126 C 0.5554(2) 0.24489(19) 0.0743(2)
H117 H 0.5410 0.2156 0.0234
H118 H 0.6191 0.2634 0.1115
H119 H 0.5387 0.2890 0.0640
C127 C 0.50611(16) 0.19451(16) 0.11091(16)
C128 C 0.5305(2) 0.2271(2) 0.19288(17)
H120 H 0.4931 0.1905 0.2110
H121 H 0.5220 0.2754 0.1931
H122 H 0.5927 0.2373 0.2294
O12 O 0.5849(2) 0.1910(2) 0.36422(18)
C129 C 0.5163(3) 0.2148(4) 0.4337(3)
H123 H 0.4830 0.2383 0.3921
H124 H 0.5340 0.2416 0.4871
H125 H 0.4790 0.1604 0.4250
C130 C 0.5985(3) 0.2215(3) 0.4287(2)
C131 C 0.6891(2) 0.2685(2) 0.4912(2)
H126 H 0.7237 0.2367 0.5065
H127 H 0.6884 0.2890 0.5387
H128 H 0.7160 0.3113 0.4705
O13 O 0.1744(3) 0.7792(3) 0.0671(3)
C132 C 0.1333(4) 0.8656(3) 0.1141(3)
H129 H 0.1932 0.9060 0.1437
H130 H 0.1198 0.8355 0.1515
H131 H 0.0907 0.8893 0.0893
C133 C 0.1275(3) 0.8141(3) 0.0501(3)
C134 C 0.0627(3) 0.8083(3) -0.0342(3)
H132 H 0.0199 0.7547 -0.0577
H133 H 0.0936 0.8250 -0.0655
H134 H 0.0316 0.8412 -0.0352
C60? C 0.4557(6) 0.4103(5) 0.3070(6)
C61? C 0.4261(19) 0.3637(15) 0.2253(9)
H50? H 0.4347 0.3156 0.2328
H51? H 0.4612 0.3938 0.2015
H52? H 0.3633 0.3519 0.1894
C62? C 0.4430(4) 0.4857(3) 0.2912(4)
H53? H 0.3806 0.4738 0.2536
H54? H 0.4795 0.5140 0.2678
H55? H 0.4608 0.5174 0.3422
C63? C 0.5556(3) 0.4323(4) 0.3575(3)
H56? H 0.5785 0.4660 0.4091
H57? H 0.5853 0.4595 0.3281
H58? H 0.5668 0.3856 0.3677
C123? C 1.0164(7) 0.4397(8) 0.1916(7)
H108? H 0.9797 0.4188 0.1333
H109? H 1.0552 0.4125 0.2157
H110? H 1.0524 0.4948 0.2011
C124? C 1.0028(7) 0.4492(7) 0.3192(5)
H111? H 1.0413 0.5042 0.3382
H112? H 1.0383 0.4189 0.3421
H113? H 0.9577 0.4374 0.3363
C125? C 0.8893(6) 0.3437(5) 0.2033(8)
H114? H 0.8496 0.3391 0.2258
H115? H 0.9203 0.3097 0.2238
H116? H 0.8546 0.3290 0.1442
O14? O 0.2131(5) 0.8347(5) 0.0927(5)
C135? C 0.1235(6) 0.9046(5) 0.0605(6)
H135? H 0.1690 0.9516 0.0613
H136? H 0.1239 0.9086 0.1124
H137? H 0.0653 0.8983 0.0169
C136? C 0.1420(6) 0.8377(5) 0.0470(5)
C137? C 0.0783(6) 0.7784(5) -0.0326(5)
H138? H 0.0604 0.7266 -0.0212
H139? H 0.1080 0.7809 -0.0649
H140? H 0.0259 0.7897 -0.0626
loop_
_geom_bond_atom_site_label_1
_geom_bond_atom_site_label_2
_geom_bond_site_symmetry_1
_geom_bond_site_symmetry_2
O1 C1 1_555 1_555
O2 C4 1_555 1_555
O3 C5 1_555 1_555
O4 C35 1_555 1_555
O5 C39 1_555 1_555
N1 C4 1_555 1_555
C1 C2 1_555 1_555
C2 C3 1_555 1_555
C3 H1 1_555 1_555
C4 C3 1_555 1_555
C5 N1 1_555 1_555
C6 C3 1_555 1_555
H2 C6 1_555 1_555
C7 C1 1_555 1_555
C8 C7 1_555 1_555
C9 C2 1_555 1_555
C10 C9 1_555 1_555
C11 C10 1_555 1_555
H3 C11 1_555 1_555
C12 C11 1_555 1_555
H4 C12 1_555 1_555
C13 C12 1_555 1_555
H5 C13 1_555 1_555
C14 C13 1_555 1_555
H6 C14 1_555 1_555
C15 C10 1_555 1_555
C16 C15 1_555 1_555
C17 C16 1_555 1_555
H7 C17 1_555 1_555
C18 C17 1_555 1_555
H8 C18 1_555 1_555
C19 C18 1_555 1_555
H9 C19 1_555 1_555
C20 C19 1_555 1_555
H10 C20 1_555 1_555
C21 C8 1_555 1_555
C22 C2 1_555 1_555
C23 C22 1_555 1_555
H11 C23 1_555 1_555
C24 C23 1_555 1_555
H12 C24 1_555 1_555
C25 C24 1_555 1_555
H13 C25 1_555 1_555
C26 C25 1_555 1_555
H14 C26 1_555 1_555
C27 C22 1_555 1_555
H15 C27 1_555 1_555
C28 C7 1_555 1_555
C29 C28 1_555 1_555
H16 C29 1_555 1_555
C30 C29 1_555 1_555
H17 C30 1_555 1_555
C31 C30 1_555 1_555
H18 C31 1_555 1_555
C32 C31 1_555 1_555
H19 C32 1_555 1_555
C33 C28 1_555 1_555
H20 C33 1_555 1_555
C34 N1 1_555 1_555
C35 C34 1_555 1_555
C36 C35 1_555 1_555
H21 C36 1_555 1_555
C37 C36 1_555 1_555
H22 C37 1_555 1_555
C38 C37 1_555 1_555
H23 C38 1_555 1_555
C39 C34 1_555 1_555
C40 O4 1_555 1_555
C41 C40 1_555 1_555
H24 C41 1_555 1_555
C42 C41 1_555 1_555
H25 C42 1_555 1_555
C43 C42 1_555 1_555
C44 C43 1_555 1_555
H26 C44 1_555 1_555
C45 C40 1_555 1_555
H27 C45 1_555 1_555
C46 O5 1_555 1_555
C47 C46 1_555 1_555
H28 C47 1_555 1_555
C48 C47 1_555 1_555
H29 C48 1_555 1_555
C49 C48 1_555 1_555
C50 C49 1_555 1_555
H30 C50 1_555 1_555
C51 C46 1_555 1_555
H31 C51 1_555 1_555
C52 C49 1_555 1_555
C53 C52 1_555 1_555
H32 C53 1_555 1_555
H33 C53 1_555 1_555
H34 C53 1_555 1_555
C54 C52 1_555 1_555
H35 C54 1_555 1_555
H36 C54 1_555 1_555
H37 C54 1_555 1_555
C55 C52 1_555 1_555
H38 C55 1_555 1_555
H39 C55 1_555 1_555
H40 C55 1_555 1_555
C56 C43 1_555 1_555
C57 C56 1_555 1_555
H41 C57 1_555 1_555
H42 C57 1_555 1_555
H43 C57 1_555 1_555
C58 C56 1_555 1_555
H44 C58 1_555 1_555
H45 C58 1_555 1_555
H46 C58 1_555 1_555
C59 C56 1_555 1_555
H47 C59 1_555 1_555
H48 C59 1_555 1_555
H49 C59 1_555 1_555
O6 C64 1_555 1_555
O7 C67 1_555 1_555
O8 C68 1_555 1_555
O9 C98 1_555 1_555
O10 C102 1_555 1_555
N2 C67 1_555 1_555
C64 C65 1_555 1_555
C65 C66 1_555 1_555
C66 H59 1_555 1_555
C67 C66 1_555 1_555
C68 N2 1_555 1_555
C69 C66 1_555 1_555
H60 C69 1_555 1_555
C70 C64 1_555 1_555
C71 C70 1_555 1_555
C72 C65 1_555 1_555
C73 C72 1_555 1_555
C74 C73 1_555 1_555
H61 C74 1_555 1_555
C75 C74 1_555 1_555
H62 C75 1_555 1_555
C76 C75 1_555 1_555
H63 C76 1_555 1_555
C77 C76 1_555 1_555
H64 C77 1_555 1_555
C78 C73 1_555 1_555
C79 C78 1_555 1_555
C80 C79 1_555 1_555
H65 C80 1_555 1_555
C81 C80 1_555 1_555
H66 C81 1_555 1_555
C82 C81 1_555 1_555
H67 C82 1_555 1_555
C83 C82 1_555 1_555
H68 C83 1_555 1_555
C84 C71 1_555 1_555
C85 C65 1_555 1_555
C86 C85 1_555 1_555
H69 C86 1_555 1_555
C87 C86 1_555 1_555
H70 C87 1_555 1_555
C88 C87 1_555 1_555
H71 C88 1_555 1_555
C89 C88 1_555 1_555
H72 C89 1_555 1_555
C90 C85 1_555 1_555
H73 C90 1_555 1_555
C91 C70 1_555 1_555
C92 C91 1_555 1_555
H74 C92 1_555 1_555
C93 C92 1_555 1_555
H75 C93 1_555 1_555
C94 C93 1_555 1_555
H76 C94 1_555 1_555
C95 C94 1_555 1_555
H77 C95 1_555 1_555
C96 C91 1_555 1_555
H78 C96 1_555 1_555
C97 N2 1_555 1_555
C98 C97 1_555 1_555
C99 C98 1_555 1_555
H79 C99 1_555 1_555
C100 C99 1_555 1_555
H80 C100 1_555 1_555
C101 C100 1_555 1_555
H81 C101 1_555 1_555
C102 C97 1_555 1_555
C103 O9 1_555 1_555
C104 C103 1_555 1_555
H82 C104 1_555 1_555
C105 C104 1_555 1_555
H83 C105 1_555 1_555
C106 C105 1_555 1_555
C107 C106 1_555 1_555
H84 C107 1_555 1_555
C108 C103 1_555 1_555
H85 C108 1_555 1_555
C109 C106 1_555 1_555
C110 C109 1_555 1_555
H86 C110 1_555 1_555
H87 C110 1_555 1_555
H88 C110 1_555 1_555
C111 C109 1_555 1_555
H89 C111 1_555 1_555
H90 C111 1_555 1_555
H91 C111 1_555 1_555
C112 C109 1_555 1_555
H92 C112 1_555 1_555
H93 C112 1_555 1_555
H94 C112 1_555 1_555
C113 O10 1_555 1_555
C114 C113 1_555 1_555
H95 C114 1_555 1_555
C115 C114 1_555 1_555
H96 C115 1_555 1_555
C116 C115 1_555 1_555
C117 C116 1_555 1_555
H97 C117 1_555 1_555
C118 C113 1_555 1_555
H98 C118 1_555 1_555
C119 C116 1_555 1_555
C120 C119 1_555 1_555
H99 C120 1_555 1_555
H100 C120 1_555 1_555
H101 C120 1_555 1_555
C121 C119 1_555 1_555
H102 C121 1_555 1_555
H103 C121 1_555 1_555
H104 C121 1_555 1_555
C122 C119 1_555 1_555
H105 C122 1_555 1_555
H106 C122 1_555 1_555
H107 C122 1_555 1_555
O11 C127 1_555 1_555
C126 H117 1_555 1_555
H118 C126 1_555 1_555
H119 C126 1_555 1_555
C127 C126 1_555 1_555
C128 C127 1_555 1_555
H120 C128 1_555 1_555
H121 C128 1_555 1_555
H122 C128 1_555 1_555
O12 C130 1_555 1_555
C129 H123 1_555 1_555
H124 C129 1_555 1_555
H125 C129 1_555 1_555
C130 C129 1_555 1_555
C131 C130 1_555 1_555
H126 C131 1_555 1_555
H127 C131 1_555 1_555
H128 C131 1_555 1_555
O13 C133 1_555 1_555
C132 H129 1_555 1_555
H130 C132 1_555 1_555
H131 C132 1_555 1_555
C133 C132 1_555 1_555
C134 C133 1_555 1_555
H132 C134 1_555 1_555
H133 C134 1_555 1_555
H134 C134 1_555 1_555
C5 C6 1_555 1_555
C6 C7 1_555 1_555
C8 C9 1_555 1_555
C14 C15 1_555 1_555
C16 C21 1_555 1_555
C20 C21 1_555 1_555
C26 C27 1_555 1_555
C32 C33 1_555 1_555
C38 C39 1_555 1_555
C44 C45 1_555 1_555
C50 C51 1_555 1_555
C68 C69 1_555 1_555
C69 C70 1_555 1_555
C71 C72 1_555 1_555
C77 C78 1_555 1_555
C79 C84 1_555 1_555
C83 C84 1_555 1_555
C89 C90 1_555 1_555
C95 C96 1_555 1_555
C101 C102 1_555 1_555
C107 C108 1_555 1_555
C117 C118 1_555 1_555

#END
