
#######################################################################
#
#                 Cambridge Crystallographic Data Centre
#                                CCDC 
#
#######################################################################
#
# If this CIF has been generated from an entry in the Cambridge 
# Structural Database, then it will include bibliographic, chemical, 
# crystal, experimental, refinement or atomic coordinate data resulting 
# from the CCDC's data processing and validation procedures.
#
#######################################################################

data_EPUGIH
_chemical_formula_moiety         'C53 H37 N1 O5,C2 H6 O1 S1'
_chemical_name_systematic        
'19-(2,6-bis(4-methylphenoxy)phenyl)-1,16-diphenyl-19-azahexacyclo[14.5.1.0^2,15^.0^3,8^.0^9,14^.0^17,21^]docosa-2(15),3,5,7,9,11,13-heptaene-18,20,22-trione dimethyl sulfoxide solvate'
_symmetry_cell_setting           triclinic
_symmetry_space_group_name_H-M   'P -1'
_symmetry_Int_Tables_number      2
_space_group_name_Hall           '-P 1'
loop_
_symmetry_equiv_pos_site_id
_symmetry_equiv_pos_as_xyz
1 x,y,z
2 -x,-y,-z
_cell_length_a                   12.5500(5)
_cell_length_b                   16.5096(7)
_cell_length_c                   22.0834(7)
_cell_angle_alpha                70.0020(10)
_cell_angle_beta                 87.0370(10)
_cell_angle_gamma                83.0050(10)
_cell_volume                     4267.44
_exptl_crystal_colour            colorless
_exptl_crystal_description       plate
_cell_formula_units_Z            4
loop_
_atom_site_label
_atom_site_type_symbol
_atom_site_fract_x
_atom_site_fract_y
_atom_site_fract_z
O1 O 0.67165(10) 0.70425(8) 0.30075(6)
O2 O 0.26408(11) 0.67116(10) 0.41686(7)
O3 O 0.26212(11) 0.75433(9) 0.19769(6)
O4 O 0.15605(12) 0.87069(10) 0.30303(9)
O5 O 0.10540(12) 0.59327(9) 0.30481(8)
N1 N 0.23952(12) 0.71130(10) 0.30761(8)
C1 C 0.57696(14) 0.72213(11) 0.30196(9)
C2 C 0.49748(14) 0.71833(11) 0.35950(9)
C3 C 0.41598(14) 0.66398(12) 0.34422(9)
H1 H 0.4409 0.6007 0.3633
C4 C 0.30060(15) 0.68161(12) 0.36365(9)
C5 C 0.29972(15) 0.72403(12) 0.25083(9)
C6 C 0.41549(14) 0.69196(12) 0.26974(9)
H2 H 0.4407 0.6413 0.2557
C7 C 0.49561(14) 0.76214(11) 0.24572(9)
C8 C 0.45098(14) 0.83912(11) 0.26669(9)
C9 C 0.45168(13) 0.81388(11) 0.33244(8)
C10 C 0.41662(14) 0.87310(12) 0.36637(9)
C11 C 0.40690(15) 0.84762(12) 0.43424(9)
H3 H 0.4173 0.7878 0.4595
C12 C 0.38267(16) 0.90823(13) 0.46381(10)
H4 H 0.3755 0.8903 0.5094
C13 C 0.36852(16) 0.99642(13) 0.42713(10)
H5 H 0.3569 1.0384 0.4480
C14 C 0.37124(15) 1.02253(12) 0.36134(9)
H6 H 0.3586 1.0826 0.3371
C15 C 0.39244(14) 0.96216(12) 0.32856(9)
C16 C 0.38851(14) 0.98870(11) 0.25854(9)
C17 C 0.35588(14) 1.07512(12) 0.21978(9)
H7 H 0.3396 1.1180 0.2397
C18 C 0.34714(15) 1.09881(12) 0.15427(9)
H8 H 0.3259 1.1576 0.1293
C19 C 0.36951(15) 1.03656(12) 0.12422(9)
H9 H 0.3617 1.0527 0.0789
C20 C 0.40276(15) 0.95218(12) 0.16009(9)
H10 H 0.4184 0.9104 0.1392
C21 C 0.41418(14) 0.92644(11) 0.22735(9)
C22 C 0.55033(14) 0.68367(11) 0.42445(9)
C23 C 0.51155(16) 0.61831(12) 0.47601(9)
H11 H 0.4487 0.5945 0.4710
C24 C 0.56354(17) 0.58736(12) 0.53483(9)
H12 H 0.5357 0.5432 0.5700
C25 C 0.65590(17) 0.62080(13) 0.54223(10)
H13 H 0.6925 0.5987 0.5821
C26 C 0.69492(16) 0.68663(13) 0.49123(10)
H14 H 0.7578 0.7102 0.4964
C27 C 0.64228(15) 0.71802(12) 0.43283(9)
H15 H 0.6691 0.7634 0.3982
C28 C 0.54398(15) 0.77741(12) 0.17954(9)
C29 C 0.63178(17) 0.82489(13) 0.16134(10)
H16 H 0.6602 0.8481 0.1902
C30 C 0.67796(19) 0.83812(16) 0.09981(12)
H17 H 0.7382 0.8700 0.0871
C31 C 0.6360(2) 0.80491(17) 0.05775(11)
H18 H 0.6681 0.8136 0.0164
C32 C 0.5491(2) 0.76001(16) 0.07510(11)
H19 H 0.5199 0.7383 0.0456
C33 C 0.50287(17) 0.74570(13) 0.13574(9)
H20 H 0.4424 0.7139 0.1476
C34 C 0.12557(14) 0.73189(12) 0.30857(9)
C35 C 0.08247(15) 0.81267(13) 0.30974(10)
C36 C -0.02756(16) 0.83226(14) 0.31412(11)
H21 H -0.0572 0.8872 0.3158
C37 C -0.09340(16) 0.77000(15) 0.31596(11)
H22 H -0.1689 0.7828 0.3192
C38 C -0.05227(16) 0.68993(15) 0.31328(11)
H23 H -0.0988 0.6485 0.3137
C39 C 0.05831(16) 0.67087(13) 0.30999(10)
C40 C 0.12893(15) 0.93663(13) 0.32957(11)
C41 C 0.10927(16) 1.02083(14) 0.28810(11)
H24 H 0.1083 1.0335 0.2428
C42 C 0.09107(16) 1.08611(13) 0.31441(11)
H25 H 0.0782 1.1445 0.2864
C43 C 0.09101(16) 1.06913(14) 0.38016(11)
C44 C 0.11045(17) 0.98276(14) 0.42021(11)
H26 H 0.1104 0.9692 0.4656
C45 C 0.12970(16) 0.91696(14) 0.39470(11)
H27 H 0.1434 0.8584 0.4223
C46 C 0.0689(2) 1.14130(16) 0.40759(13)
H28 H 0.1310 1.1744 0.3997
H29 H 0.0557 1.1168 0.4541
H30 H 0.0055 1.1798 0.3869
C47 C 0.07452(15) 0.51796(13) 0.35181(10)
C48 C 0.08506(16) 0.50492(15) 0.41634(11)
H31 H 0.1118 0.5475 0.4296
C49 C 0.05638(17) 0.42948(15) 0.46133(11)
H32 H 0.0635 0.4206 0.5058
C50 C 0.01717(17) 0.36593(14) 0.44323(11)
C51 C 0.00935(17) 0.38025(13) 0.37767(11)
H33 H -0.0164 0.3375 0.3641
C52 C 0.03850(16) 0.45611(13) 0.33154(10)
H34 H 0.0336 0.4650 0.2869
C53 C -0.0194(2) 0.28605(16) 0.49392(13)
H35 H 0.0430 0.2491 0.5171
H36 H -0.0565 0.2538 0.4731
H37 H -0.0686 0.3035 0.5243
O6 O 0.72616(11) 0.01640(9) 0.20411(7)
O7 O 0.73192(11) 0.37117(9) 0.08465(7)
O8 O 0.84452(11) 0.27016(9) 0.29348(7)
O9 O 0.60214(11) 0.42922(9) 0.19714(8)
O10 O 0.98226(11) 0.41959(9) 0.18260(7)
N2 N 0.79153(12) 0.33930(10) 0.18826(8)
C54 C 0.71690(14) 0.09080(12) 0.20035(9)
C55 C 0.69623(14) 0.17533(12) 0.14121(9)
C56 C 0.79195(14) 0.22199(12) 0.15108(9)
H38 H 0.8570 0.2084 0.1266
C57 C 0.76597(14) 0.31875(12) 0.13434(9)
C58 C 0.81891(14) 0.26689(12) 0.24245(9)
C59 C 0.81357(14) 0.18706(12) 0.22431(9)
H39 H 0.8837 0.1494 0.2334
C60 C 0.71874(14) 0.13164(12) 0.25408(9)
C61 C 0.61180(14) 0.18949(11) 0.23573(9)
C62 C 0.59738(14) 0.21325(12) 0.17069(9)
C63 C 0.50340(14) 0.26673(12) 0.13926(9)
C64 C 0.49132(15) 0.29914(12) 0.07182(9)
H40 H 0.5487 0.2881 0.0449
C65 C 0.39742(16) 0.34652(13) 0.04447(10)
H41 H 0.3901 0.3676 -0.0010
C66 C 0.31312(15) 0.36371(13) 0.08328(10)
H42 H 0.2476 0.3950 0.0643
C67 C 0.32428(15) 0.33562(12) 0.14879(9)
H43 H 0.2666 0.3492 0.1746
C68 C 0.41892(14) 0.28717(11) 0.17895(9)
C69 C 0.43326(14) 0.26006(12) 0.24858(9)
C70 C 0.35054(15) 0.27843(12) 0.28948(10)
H44 H 0.2826 0.3055 0.2718
C71 C 0.36653(16) 0.25791(13) 0.35412(10)
H45 H 0.3092 0.2696 0.3808
C72 C 0.46648(16) 0.21987(13) 0.38110(10)
H46 H 0.4783 0.2086 0.4255
C73 C 0.54770(15) 0.19880(12) 0.34290(9)
H47 H 0.6153 0.1724 0.3615
C74 C 0.53218(14) 0.21581(12) 0.27674(9)
C75 C 0.69251(15) 0.16046(12) 0.07803(9)
C76 C 0.75283(16) 0.20376(14) 0.02468(10)
H48 H 0.7939 0.2475 0.0267
C77 C 0.75351(17) 0.18362(15) -0.03138(11)
H49 H 0.7945 0.2139 -0.0677
C78 C 0.69480(17) 0.11962(15) -0.03463(11)
H50 H 0.6970 0.1048 -0.0727
C79 C 0.63280(16) 0.07717(14) 0.01773(11)
H51 H 0.5914 0.0339 0.0154
C80 C 0.63120(15) 0.09782(13) 0.07342(10)
H52 H 0.5878 0.0690 0.1090
C81 C 0.73204(15) 0.06464(12) 0.32004(9)
C82 C 0.65524(16) 0.00639(13) 0.34195(10)
H53 H 0.5952 0.0117 0.3158
C83 C 0.66527(17) -0.05878(13) 0.40103(10)
H54 H 0.6114 -0.0970 0.4158
C84 C 0.75342(17) -0.06856(13) 0.43878(10)
H55 H 0.7613 -0.1142 0.4791
C85 C 0.83017(16) -0.01129(14) 0.41735(10)
H56 H 0.8911 -0.0179 0.4431
C86 C 0.81913(15) 0.05570(13) 0.35864(9)
H57 H 0.8714 0.0955 0.3449
C87 C 0.78833(15) 0.42689(12) 0.18664(9)
C88 C 0.68978(16) 0.47450(13) 0.18856(10)
C89 C 0.68457(17) 0.56029(13) 0.18491(10)
H58 H 0.6170 0.5929 0.1856
C90 C 0.77784(18) 0.59784(13) 0.18029(11)
H59 H 0.7743 0.6565 0.1782
C91 C 0.87699(17) 0.55152(13) 0.17856(10)
H60 H 0.9410 0.5781 0.1756
C92 C 0.88210(16) 0.46617(13) 0.18124(10)
C93 C 0.50141(16) 0.47708(12) 0.18005(11)
C94 C 0.42995(16) 0.48269(13) 0.22827(11)
H61 H 0.4509 0.4595 0.2721
C95 C 0.32690(16) 0.52271(13) 0.21159(11)
H62 H 0.2767 0.5262 0.2445
C96 C 0.29574(17) 0.55775(13) 0.14760(12)
C97 C 0.37055(18) 0.55321(14) 0.10012(12)
H63 H 0.3509 0.5783 0.0561
C98 C 0.47384(18) 0.51251(14) 0.11594(11)
H64 H 0.5246 0.5091 0.0832
C99 C 0.18086(19) 0.59602(17) 0.13096(14)
H65 H 0.1348 0.5492 0.1412
H66 H 0.1763 0.6298 0.0849
H67 H 0.1571 0.6339 0.1560
C100 C 1.00303(15) 0.37742(13) 0.13763(11)
C101 C 0.97093(17) 0.41457(15) 0.07446(11)
H68 H 0.9326 0.4709 0.0599
C102 C 0.99533(19) 0.36865(17) 0.03239(13)
H69 H 0.9730 0.3943 -0.0111
C103 C 1.05108(19) 0.28674(18) 0.05206(15)
C104 C 1.08315(18) 0.25138(16) 0.11569(16)
H70 H 1.1221 0.1953 0.1303
C105 C 1.05973(16) 0.29589(15) 0.15856(13)
H71 H 1.0825 0.2705 0.2020
C106 C 1.0752(3) 0.2378(2) 0.00518(19)
H72 H 1.0080 0.2227 -0.0067
H73 H 1.1230 0.1847 0.0255
H74 H 1.1100 0.2744 -0.0336
S1 S 0.70301(4) 0.48359(4) 0.34923(3)
O11 O 0.58725(11) 0.52055(10) 0.34069(7)
C107 C 0.74883(18) 0.50021(14) 0.41891(11)
H75 H 0.7454 0.5626 0.4112
H76 H 0.8231 0.4736 0.4277
H77 H 0.7031 0.4736 0.4560
C108 C 0.7020(2) 0.36847(15) 0.38308(15)
H78 H 0.6603 0.3541 0.4234
H79 H 0.7758 0.3406 0.3918
H80 H 0.6694 0.3477 0.3526
S2 S 0.96682(9) -0.01888(8) 0.15082(6)
O12 O 0.969(3) 0.0732(16) 0.1471(17)
C109 C 0.9192(6) -0.0070(6) 0.0712(4)
H81 H 0.8412 0.0082 0.0695
H82 H 0.9372 -0.0617 0.0629
H83 H 0.9537 0.0391 0.0384
C110 C 1.1000(13) -0.0557(16) 0.1354(14)
H84 H 1.1264 -0.0146 0.0956
H85 H 1.1020 -0.1128 0.1308
H86 H 1.1456 -0.0601 0.1714
S3? S 1.00717(15) 0.02318(10) 0.10141(7)
O13? O 0.971(3) 0.0701(17) 0.1473(18)
C111? C 0.8967(7) -0.0392(6) 0.1031(4)
H87? H 0.8782 -0.0712 0.1480
H88? H 0.9180 -0.0803 0.0803
H89? H 0.8342 0.0001 0.0821
C112? C 1.0961(14) -0.0662(16) 0.1429(14)
H90? H 1.1565 -0.0463 0.1583
H91? H 1.1228 -0.0980 0.1141
H92? H 1.0588 -0.1044 0.1798
loop_
_geom_bond_atom_site_label_1
_geom_bond_atom_site_label_2
_geom_bond_site_symmetry_1
_geom_bond_site_symmetry_2
O1 C1 1_555 1_555
O2 C4 1_555 1_555
O3 C5 1_555 1_555
O4 C35 1_555 1_555
O5 C39 1_555 1_555
N1 C4 1_555 1_555
C1 C2 1_555 1_555
C2 C3 1_555 1_555
C3 H1 1_555 1_555
C4 C3 1_555 1_555
C5 N1 1_555 1_555
C6 C3 1_555 1_555
H2 C6 1_555 1_555
C7 C1 1_555 1_555
C8 C7 1_555 1_555
C9 C2 1_555 1_555
C10 C9 1_555 1_555
C11 C10 1_555 1_555
H3 C11 1_555 1_555
C12 C11 1_555 1_555
H4 C12 1_555 1_555
C13 C12 1_555 1_555
H5 C13 1_555 1_555
C14 C13 1_555 1_555
H6 C14 1_555 1_555
C15 C10 1_555 1_555
C16 C15 1_555 1_555
C17 C16 1_555 1_555
H7 C17 1_555 1_555
C18 C17 1_555 1_555
H8 C18 1_555 1_555
C19 C18 1_555 1_555
H9 C19 1_555 1_555
C20 C19 1_555 1_555
H10 C20 1_555 1_555
C21 C8 1_555 1_555
C22 C2 1_555 1_555
C23 C22 1_555 1_555
H11 C23 1_555 1_555
C24 C23 1_555 1_555
H12 C24 1_555 1_555
C25 C24 1_555 1_555
H13 C25 1_555 1_555
C26 C25 1_555 1_555
H14 C26 1_555 1_555
C27 C22 1_555 1_555
H15 C27 1_555 1_555
C28 C7 1_555 1_555
C29 C28 1_555 1_555
H16 C29 1_555 1_555
C30 C29 1_555 1_555
H17 C30 1_555 1_555
C31 C30 1_555 1_555
H18 C31 1_555 1_555
C32 C31 1_555 1_555
H19 C32 1_555 1_555
C33 C28 1_555 1_555
H20 C33 1_555 1_555
C34 N1 1_555 1_555
C35 C34 1_555 1_555
C36 C35 1_555 1_555
H21 C36 1_555 1_555
C37 C36 1_555 1_555
H22 C37 1_555 1_555
C38 C37 1_555 1_555
H23 C38 1_555 1_555
C39 C34 1_555 1_555
C40 O4 1_555 1_555
C41 C40 1_555 1_555
H24 C41 1_555 1_555
C42 C41 1_555 1_555
H25 C42 1_555 1_555
C43 C42 1_555 1_555
C44 C43 1_555 1_555
H26 C44 1_555 1_555
C45 C40 1_555 1_555
H27 C45 1_555 1_555
C46 C43 1_555 1_555
H28 C46 1_555 1_555
H29 C46 1_555 1_555
H30 C46 1_555 1_555
C47 O5 1_555 1_555
C48 C47 1_555 1_555
H31 C48 1_555 1_555
C49 C48 1_555 1_555
H32 C49 1_555 1_555
C50 C49 1_555 1_555
C51 C50 1_555 1_555
H33 C51 1_555 1_555
C52 C47 1_555 1_555
H34 C52 1_555 1_555
C53 C50 1_555 1_555
H35 C53 1_555 1_555
H36 C53 1_555 1_555
H37 C53 1_555 1_555
O6 C54 1_555 1_555
O7 C57 1_555 1_555
O8 C58 1_555 1_555
O9 C88 1_555 1_555
O10 C92 1_555 1_555
N2 C57 1_555 1_555
C54 C55 1_555 1_555
C55 C56 1_555 1_555
C56 H38 1_555 1_555
C57 C56 1_555 1_555
C58 N2 1_555 1_555
C59 C56 1_555 1_555
H39 C59 1_555 1_555
C60 C54 1_555 1_555
C61 C60 1_555 1_555
C62 C55 1_555 1_555
C63 C62 1_555 1_555
C64 C63 1_555 1_555
H40 C64 1_555 1_555
C65 C64 1_555 1_555
H41 C65 1_555 1_555
C66 C65 1_555 1_555
H42 C66 1_555 1_555
C67 C66 1_555 1_555
H43 C67 1_555 1_555
C68 C63 1_555 1_555
C69 C68 1_555 1_555
C70 C69 1_555 1_555
H44 C70 1_555 1_555
C71 C70 1_555 1_555
H45 C71 1_555 1_555
C72 C71 1_555 1_555
H46 C72 1_555 1_555
C73 C72 1_555 1_555
H47 C73 1_555 1_555
C74 C61 1_555 1_555
C75 C55 1_555 1_555
C76 C75 1_555 1_555
H48 C76 1_555 1_555
C77 C76 1_555 1_555
H49 C77 1_555 1_555
C78 C77 1_555 1_555
H50 C78 1_555 1_555
C79 C78 1_555 1_555
H51 C79 1_555 1_555
C80 C75 1_555 1_555
H52 C80 1_555 1_555
C81 C60 1_555 1_555
C82 C81 1_555 1_555
H53 C82 1_555 1_555
C83 C82 1_555 1_555
H54 C83 1_555 1_555
C84 C83 1_555 1_555
H55 C84 1_555 1_555
C85 C84 1_555 1_555
H56 C85 1_555 1_555
C86 C81 1_555 1_555
H57 C86 1_555 1_555
C87 N2 1_555 1_555
C88 C87 1_555 1_555
C89 C88 1_555 1_555
H58 C89 1_555 1_555
C90 C89 1_555 1_555
H59 C90 1_555 1_555
C91 C90 1_555 1_555
H60 C91 1_555 1_555
C92 C87 1_555 1_555
C93 O9 1_555 1_555
C94 C93 1_555 1_555
H61 C94 1_555 1_555
C95 C94 1_555 1_555
H62 C95 1_555 1_555
C96 C95 1_555 1_555
C97 C96 1_555 1_555
H63 C97 1_555 1_555
C98 C93 1_555 1_555
H64 C98 1_555 1_555
C99 C96 1_555 1_555
H65 C99 1_555 1_555
H66 C99 1_555 1_555
H67 C99 1_555 1_555
C100 O10 1_555 1_555
C101 C100 1_555 1_555
H68 C101 1_555 1_555
C102 C101 1_555 1_555
H69 C102 1_555 1_555
C103 C102 1_555 1_555
C104 C103 1_555 1_555
H70 C104 1_555 1_555
C105 C100 1_555 1_555
H71 C105 1_555 1_555
C106 C103 1_555 1_555
H72 C106 1_555 1_555
H73 C106 1_555 1_555
H74 C106 1_555 1_555
S1 O11 1_555 1_555
C107 S1 1_555 1_555
H75 C107 1_555 1_555
H76 C107 1_555 1_555
H77 C107 1_555 1_555
C108 S1 1_555 1_555
H78 C108 1_555 1_555
H79 C108 1_555 1_555
H80 C108 1_555 1_555
S2 O12 1_555 1_555
C109 S2 1_555 1_555
H81 C109 1_555 1_555
H82 C109 1_555 1_555
H83 C109 1_555 1_555
C110 S2 1_555 1_555
H84 C110 1_555 1_555
H85 C110 1_555 1_555
H86 C110 1_555 1_555
C5 C6 1_555 1_555
C6 C7 1_555 1_555
C8 C9 1_555 1_555
C14 C15 1_555 1_555
C16 C21 1_555 1_555
C20 C21 1_555 1_555
C26 C27 1_555 1_555
C32 C33 1_555 1_555
C38 C39 1_555 1_555
C44 C45 1_555 1_555
C51 C52 1_555 1_555
C58 C59 1_555 1_555
C59 C60 1_555 1_555
C61 C62 1_555 1_555
C67 C68 1_555 1_555
C69 C74 1_555 1_555
C73 C74 1_555 1_555
C79 C80 1_555 1_555
C85 C86 1_555 1_555
C91 C92 1_555 1_555
C97 C98 1_555 1_555
C104 C105 1_555 1_555

#END
