
#######################################################################
#
#                 Cambridge Crystallographic Data Centre
#                                CCDC 
#
#######################################################################
#
# If this CIF has been generated from an entry in the Cambridge 
# Structural Database, then it will include bibliographic, chemical, 
# crystal, experimental, refinement or atomic coordinate data resulting 
# from the CCDC's data processing and validation procedures.
#
#######################################################################

data_EPUPEM
_chemical_formula_moiety         'C40 H28 O2'
_chemical_name_systematic        
((2,2-diphenylethene-1,1-diyl)bis(4,1-phenylene))bis(phenylmethanone)
_symmetry_cell_setting           monoclinic
_symmetry_space_group_name_H-M   'C 2/c'
_symmetry_Int_Tables_number      15
_space_group_name_Hall           '-C 2yn'
loop_
_symmetry_equiv_pos_site_id
_symmetry_equiv_pos_as_xyz
1 x,y,z
2 -x,y,1/2-z
3 1/2+x,1/2+y,z
4 1/2-x,1/2+y,1/2-z
5 -x,-y,-z
6 x,-y,1/2+z
7 1/2-x,1/2-y,-z
8 1/2+x,1/2-y,1/2+z
_cell_length_a                   16.698(3)
_cell_length_b                   10.5516(19)
_cell_length_c                   16.706(3)
_cell_angle_alpha                90
_cell_angle_beta                 98.437(2)
_cell_angle_gamma                90
_cell_volume                     2911.59
_cell_formula_units_Z            4
loop_
_atom_site_label
_atom_site_type_symbol
_atom_site_fract_x
_atom_site_fract_y
_atom_site_fract_z
C1 C 0.0000 0.40870(15) 0.2500
C2 C 0.05465(7) 0.33388(10) 0.20511(7)
C3 C 0.02777(7) 0.22654(11) 0.16075(7)
H1 H -0.0260 0.2018 0.1580
C4 C 0.07924(7) 0.15580(12) 0.12059(7)
H2 H 0.0594 0.0858 0.0901
C5 C 0.13649(7) 0.36509(12) 0.21045(8)
H3 H 0.1564 0.4355 0.2404
C6 C 0.03394(7) 0.61405(11) 0.18809(7)
C7 C 0.0000 0.53725(15) 0.2500
C8 C 0.16029(7) 0.18853(12) 0.12549(7)
C9 C 0.19648(8) 0.05791(12) 0.00418(8)
C10 C 0.21994(8) 0.11305(13) 0.08655(9)
C11 C 0.13156(8) 0.10219(13) -0.04935(8)
H4 H 0.1001 0.1680 -0.0339
C12 C 0.08722(8) 0.71312(12) 0.20961(8)
H5 H 0.1061 0.7282 0.2639
C13 C 0.18803(8) 0.29326(13) 0.17201(8)
H6 H 0.2425 0.3151 0.1772
C14 C 0.08525(10) 0.76840(15) 0.07057(10)
H7 H 0.1021 0.8203 0.0312
O1 O 0.28805(7) 0.09726(14) 0.12249(8)
C15 C 0.00692(9) 0.59409(13) 0.10658(8)
H8 H -0.0292 0.5286 0.0908
C16 C 0.24314(9) -0.03884(15) -0.02142(10)
H9 H 0.2877 -0.0692 0.0132
C17 C 0.11264(9) 0.78972(14) 0.15108(10)
H10 H 0.1484 0.8559 0.1662
C18 C 0.15948(11) -0.04624(17) -0.14933(10)
H11 H 0.1471 -0.0813 -0.2007
C19 C 0.03312(10) 0.67032(15) 0.04883(9)
H12 H 0.0151 0.6549 -0.0057
C20 C 0.11285(9) 0.04967(15) -0.12570(9)
H13 H 0.0686 0.0795 -0.1610
C21 C 0.22389(11) -0.08992(17) -0.09744(12)
H14 H 0.2553 -0.1552 -0.1136
C2A C -0.05465(7) 0.33388(10) 0.29489(7)
C3A C -0.02777(7) 0.22654(11) 0.33925(7)
H1A H 0.0260 0.2018 0.3420
C4A C -0.07924(7) 0.15580(12) 0.37941(7)
H2A H -0.0594 0.0858 0.4099
C5A C -0.13649(7) 0.36509(12) 0.28955(8)
H3A H -0.1564 0.4355 0.2596
C6A C -0.03394(7) 0.61405(11) 0.31191(7)
C8A C -0.16029(7) 0.18853(12) 0.37451(7)
C9A C -0.19648(8) 0.05791(12) 0.49582(8)
C10A C -0.21994(8) 0.11305(13) 0.41345(9)
C11A C -0.13156(8) 0.10219(13) 0.54935(8)
H4A H -0.1001 0.1680 0.5339
C12A C -0.08722(8) 0.71312(12) 0.29039(8)
H5A H -0.1061 0.7282 0.2361
C13A C -0.18803(8) 0.29326(13) 0.32799(8)
H6A H -0.2425 0.3151 0.3228
C14A C -0.08525(10) 0.76840(15) 0.42943(10)
H7A H -0.1021 0.8203 0.4688
O1A O -0.28805(7) 0.09726(14) 0.37751(8)
C15A C -0.00692(9) 0.59409(13) 0.39342(8)
H8A H 0.0292 0.5286 0.4092
C16A C -0.24314(9) -0.03884(15) 0.52142(10)
H9A H -0.2877 -0.0692 0.4868
C17A C -0.11264(9) 0.78972(14) 0.34892(10)
H10A H -0.1484 0.8559 0.3338
C18A C -0.15948(11) -0.04624(17) 0.64933(10)
H11A H -0.1471 -0.0813 0.7007
C19A C -0.03312(10) 0.67032(15) 0.45117(9)
H12A H -0.0151 0.6549 0.5057
C20A C -0.11285(9) 0.04967(15) 0.62570(9)
H13A H -0.0686 0.0795 0.6610
C21A C -0.22389(11) -0.08992(17) 0.59744(12)
H14A H -0.2553 -0.1552 0.6136
loop_
_geom_bond_atom_site_label_1
_geom_bond_atom_site_label_2
_geom_bond_site_symmetry_1
_geom_bond_site_symmetry_2
C1 C2 1_555 1_555
C2 C3 1_555 1_555
C3 H1 1_555 1_555
C4 C3 1_555 1_555
H2 C4 1_555 1_555
C5 C2 1_555 1_555
H3 C5 1_555 1_555
C6 C7 1_555 1_555
C7 C1 1_555 1_555
C8 C4 1_555 1_555
C9 C10 1_555 1_555
C10 C8 1_555 1_555
C11 C9 1_555 1_555
H4 C11 1_555 1_555
C12 C6 1_555 1_555
H5 C12 1_555 1_555
C13 C5 1_555 1_555
H6 C13 1_555 1_555
C14 H7 1_555 1_555
O1 C10 1_555 1_555
C15 C6 1_555 1_555
H8 C15 1_555 1_555
C16 C9 1_555 1_555
H9 C16 1_555 1_555
C17 C12 1_555 1_555
H10 C17 1_555 1_555
C18 H11 1_555 1_555
C19 C14 1_555 1_555
H12 C19 1_555 1_555
C20 C11 1_555 1_555
H13 C20 1_555 1_555
C21 C16 1_555 1_555
H14 C21 1_555 1_555
C2A C1 1_555 1_555
C3A C2A 1_555 1_555
H1A C3A 1_555 1_555
C4A C3A 1_555 1_555
H2A C4A 1_555 1_555
C5A C2A 1_555 1_555
H3A C5A 1_555 1_555
C6A C7 1_555 1_555
C8A C4A 1_555 1_555
C9A C10A 1_555 1_555
C10A C8A 1_555 1_555
C11A C9A 1_555 1_555
H4A C11A 1_555 1_555
C12A C6A 1_555 1_555
H5A C12A 1_555 1_555
C13A C5A 1_555 1_555
H6A C13A 1_555 1_555
C14A H7A 1_555 1_555
O1A C10A 1_555 1_555
C15A C6A 1_555 1_555
H8A C15A 1_555 1_555
C16A C9A 1_555 1_555
H9A C16A 1_555 1_555
C17A C12A 1_555 1_555
H10A C17A 1_555 1_555
C18A H11A 1_555 1_555
C19A C14A 1_555 1_555
H12A C19A 1_555 1_555
C20A C11A 1_555 1_555
H13A C20A 1_555 1_555
C21A C16A 1_555 1_555
H14A C21A 1_555 1_555
C8 C13 1_555 1_555
C14 C17 1_555 1_555
C15 C19 1_555 1_555
C18 C20 1_555 1_555
C18 C21 1_555 1_555
C8A C13A 1_555 1_555
C14A C17A 1_555 1_555
C15A C19A 1_555 1_555
C18A C20A 1_555 1_555
C18A C21A 1_555 1_555

#END
