
#######################################################################
#
#                 Cambridge Crystallographic Data Centre
#                                CCDC 
#
#######################################################################
#
# If this CIF has been generated from an entry in the Cambridge 
# Structural Database, then it will include bibliographic, chemical, 
# crystal, experimental, refinement or atomic coordinate data resulting 
# from the CCDC's data processing and validation procedures.
#
#######################################################################

data_EPUPUB01
_chemical_formula_moiety         'C10 H8 N2,2(C7 H6 O3)'
_chemical_name_systematic        "bis(4-Hydroxybenzoic acid) 4,4'-bipyridine"
_symmetry_cell_setting           monoclinic
_symmetry_space_group_name_H-M   'C 2/c'
_symmetry_Int_Tables_number      15
_space_group_name_Hall           '-C 2yn'
loop_
_symmetry_equiv_pos_site_id
_symmetry_equiv_pos_as_xyz
1 x,y,z
2 -x,y,1/2-z
3 1/2+x,1/2+y,z
4 1/2-x,1/2+y,1/2-z
5 -x,-y,-z
6 x,-y,1/2+z
7 1/2-x,1/2-y,-z
8 1/2+x,1/2-y,1/2+z
_cell_length_a                   13.983(2)
_cell_length_b                   11.6119(19)
_cell_length_c                   13.524(2)
_cell_angle_alpha                90
_cell_angle_beta                 114.143(8)
_cell_angle_gamma                90
_cell_volume                     2003.8
_exptl_crystal_colour            colorless
_exptl_crystal_description       block
_cell_formula_units_Z            4
loop_
_atom_site_label
_atom_site_type_symbol
_atom_site_fract_x
_atom_site_fract_y
_atom_site_fract_z
C1 C 0.30560(9) 0.90096(10) 0.41518(9)
C2 C 0.27894(9) 0.78966(10) 0.37467(10)
H1 H 0.2480 0.7380 0.4076
C3 C 0.29749(9) 0.75455(10) 0.28653(9)
H2 H 0.2803 0.6782 0.2600
C4 C 0.34108(9) 0.82968(10) 0.23591(9)
C5 C 0.36587(10) 0.94135(10) 0.27585(10)
H3 H 0.3944 0.9938 0.2412
C6 C 0.34940(10) 0.97692(10) 0.36533(10)
H4 H 0.3679 1.0528 0.3927
C7 C 0.36054(9) 0.79415(10) 0.14017(9)
O1 O 0.36440(7) 0.68289(7) 0.12745(7)
H5 H 0.3781 0.6695 0.0736
O2 O 0.37303(8) 0.86420(8) 0.07861(7)
O3 O 0.28873(8) 0.93067(8) 0.50394(8)
H6 H 0.3136 0.9965 0.5250
C8 C -0.00370(9) 0.77230(10) 0.13653(10)
H7 H -0.0406 0.7080 0.1470
C9 C 0.03052(9) 0.77168(11) 0.05388(10)
H8 H 0.0151 0.7065 0.0075
C10 C 0.01640(8) 0.86785(10) 0.20419(9)
C11 C 0.06920(9) 0.96036(10) 0.18395(9)
H9 H 0.0823 1.0284 0.2265
C12 C 0.10241(9) 0.95161(10) 0.10057(10)
H10 H 0.1398 1.0144 0.0883
N1 N 0.08435(8) 0.85887(9) 0.03651(8)
C8A C 0.00370(9) 0.77230(10) 0.36347(10)
H7A H 0.0406 0.7080 0.3530
C9A C -0.03052(9) 0.77168(11) 0.44612(10)
H8A H -0.0151 0.7065 0.4925
C10A C -0.01640(8) 0.86785(10) 0.29581(9)
C11A C -0.06920(9) 0.96036(10) 0.31605(9)
H9A H -0.0823 1.0284 0.2735
C12A C -0.10241(9) 0.95161(10) 0.39943(10)
H10A H -0.1398 1.0144 0.4117
N1A N -0.08435(8) 0.85887(9) 0.46349(8)
loop_
_geom_bond_atom_site_label_1
_geom_bond_atom_site_label_2
_geom_bond_site_symmetry_1
_geom_bond_site_symmetry_2
C1 C2 1_555 1_555
C2 H1 1_555 1_555
C3 C2 1_555 1_555
H2 C3 1_555 1_555
C4 C3 1_555 1_555
C5 C4 1_555 1_555
H3 C5 1_555 1_555
C6 C1 1_555 1_555
H4 C6 1_555 1_555
C7 C4 1_555 1_555
O1 C7 1_555 1_555
H5 O1 1_555 1_555
O2 C7 1_555 1_555
O3 C1 1_555 1_555
H6 O3 1_555 1_555
C8 H7 1_555 1_555
C9 C8 1_555 1_555
H8 C9 1_555 1_555
C10 C8 1_555 1_555
C11 C10 1_555 1_555
H9 C11 1_555 1_555
C12 C11 1_555 1_555
H10 C12 1_555 1_555
N1 C9 1_555 1_555
C8A H7A 1_555 1_555
C9A C8A 1_555 1_555
H8A C9A 1_555 1_555
C10A C10 1_555 1_555
C11A C10A 1_555 1_555
H9A C11A 1_555 1_555
C12A C11A 1_555 1_555
H10A C12A 1_555 1_555
N1A C9A 1_555 1_555
C5 C6 1_555 1_555
C12 N1 1_555 1_555
C8A C10A 1_555 1_555
C12A N1A 1_555 1_555

#END
