
#######################################################################
#
#                 Cambridge Crystallographic Data Centre
#                                CCDC 
#
#######################################################################
#
# If this CIF has been generated from an entry in the Cambridge 
# Structural Database, then it will include bibliographic, chemical, 
# crystal, experimental, refinement or atomic coordinate data resulting 
# from the CCDC's data processing and validation procedures.
#
#######################################################################

data_EPUQIQ
_chemical_formula_moiety         '2(C11 H9 N1),C7 H6 O3'
_chemical_name_systematic        '4-Hydroxybenzoic acid bis(4-phenylpyridine)'
_symmetry_cell_setting           triclinic
_symmetry_space_group_name_H-M   'P -1'
_symmetry_Int_Tables_number      2
_space_group_name_Hall           '-P 1'
loop_
_symmetry_equiv_pos_site_id
_symmetry_equiv_pos_as_xyz
1 x,y,z
2 -x,-y,-z
_cell_length_a                   7.5084(7)
_cell_length_b                   18.0404(16)
_cell_length_c                   19.0238(17)
_cell_angle_alpha                66.060(5)
_cell_angle_beta                 84.424(6)
_cell_angle_gamma                83.795(6)
_cell_volume                     2337.34
_exptl_crystal_colour            colorless
_exptl_crystal_description       block
_cell_formula_units_Z            4
loop_
_atom_site_label
_atom_site_type_symbol
_atom_site_fract_x
_atom_site_fract_y
_atom_site_fract_z
H1 H 0.370(3) 0.8941(12) 0.4401(13)
H6 H 0.575(3) 1.0196(12) 0.1778(12)
H12 H 0.154(3) 0.9397(13) 0.3411(13)
H17 H 0.775(3) 0.9776(14) 0.2748(13)
H47 H 0.188(5) 1.066(2) 0.083(2)
H48 H 0.669(4) 0.8765(19) 0.4750(19)
O1 O 0.7146(2) 0.90767(10) 0.41998(9)
O2 O 0.2851(2) 1.04158(10) 0.11920(9)
O3 O 0.0559(2) 1.00399(13) 0.20593(10)
C2 C 0.5913(3) 0.93169(13) 0.36602(12)
C3 C 0.2896(3) 0.94668(13) 0.32773(13)
C4 C 0.3492(3) 0.98280(13) 0.25044(12)
C6 C 0.2161(3) 1.00993(14) 0.19082(13)
C8 C 0.4095(3) 0.92091(13) 0.38533(13)
C10 C 0.6517(3) 0.96859(14) 0.28907(13)
C11 C 0.5306(3) 0.99341(13) 0.23206(13)
H2 H 0.352(3) 0.0611(14) 0.4308(13)
H3 H 0.417(3) 0.1632(15) 0.1737(13)
H4 H 0.387(3) 0.3364(14) 0.2807(13)
H9 H 0.194(3) 0.3733(15) 0.1835(14)
H13 H 0.317(3) 0.1109(14) 0.2982(13)
H15 H 0.421(3) 0.2835(15) 0.4140(14)
H26 H 0.252(3) 0.3473(14) -0.0248(14)
H31 H 0.374(3) 0.2139(14) 0.0397(14)
H39 H 0.162(3) 0.4280(16) 0.0470(14)
N3 N 0.3932(3) 0.16654(12) 0.43252(11)
C37 C 0.3423(3) 0.22977(13) 0.27362(12)
C38 C 0.3130(3) 0.26315(13) 0.19015(12)
C39 C 0.2347(3) 0.34174(14) 0.15207(13)
C40 C 0.3620(3) 0.21596(15) 0.14771(13)
C41 C 0.4011(3) 0.24573(15) 0.38850(14)
C42 C 0.3369(3) 0.14732(14) 0.31944(13)
C43 C 0.3376(3) 0.24650(15) 0.06978(14)
C44 C 0.3763(3) 0.27929(15) 0.31037(13)
C45 C 0.2101(3) 0.37207(15) 0.07389(14)
C46 C 0.2625(3) 0.32462(16) 0.03222(14)
C47 C 0.3624(3) 0.11899(15) 0.39695(13)
H5 H -0.425(3) 1.3159(14) -0.1235(13)
H20 H -0.663(3) 1.3680(15) -0.2050(14)
H21 H -0.492(3) 1.0874(15) -0.1156(13)
H23 H -0.815(3) 1.2820(15) -0.2435(14)
H25 H -0.118(3) 1.2544(14) -0.1243(14)
H32 H -0.384(3) 1.0597(14) 0.0159(14)
H33 H -0.725(4) 1.1438(16) -0.1999(16)
H37 H 0.133(3) 1.2013(15) -0.0477(14)
H38 H -0.129(3) 1.0105(16) 0.0899(15)
C1 C -0.4369(3) 1.19555(13) -0.11106(12)
N1 N 0.0200(3) 1.10120(13) 0.02602(11)
C5 C 0.0193(3) 1.17251(16) -0.03517(13)
C7 C -0.7183(3) 1.26038(16) -0.20878(14)
C9 C -0.5271(3) 1.14566(15) -0.13317(13)
C12 C -0.2800(3) 1.16267(13) -0.06282(12)
C13 C -0.6314(3) 1.30990(16) -0.18687(14)
C14 C -0.4908(3) 1.27828(14) -0.13801(13)
C15 C -0.2792(4) 1.08869(16) 0.00068(14)
C16 C -0.1264(3) 1.20452(15) -0.08038(14)
C17 C -0.1282(3) 1.06122(17) 0.04298(15)
C18 C -0.6671(3) 1.17796(16) -0.18200(14)
H7 H 1.362(3) 0.5579(14) -0.0996(13)
H10 H 1.075(3) 0.6846(15) -0.3173(13)
H18 H 1.283(3) 0.6263(15) -0.2276(15)
H30 H 1.012(3) 0.7579(15) -0.4513(15)
H35 H 1.208(3) 0.8947(14) -0.3081(14)
H40 H 1.114(3) 0.8249(16) -0.1805(14)
H41 H 1.193(3) 0.7503(15) -0.0543(15)
H44 H 1.149(4) 0.9656(18) -0.4367(17)
H46 H 1.047(4) 0.8993(18) -0.5096(18)
N2 N 1.2828(3) 0.64811(13) -0.06569(11)
C24 C 1.1910(3) 0.73522(14) -0.21864(13)
C26 C 1.1640(3) 0.77010(16) -0.16505(14)
C27 C 1.2625(3) 0.65511(15) -0.19286(14)
C29 C 1.1487(3) 0.78194(14) -0.30052(13)
C30 C 1.3066(3) 0.61437(16) -0.11715(14)
C31 C 1.0945(3) 0.74326(17) -0.34383(14)
C32 C 1.0574(3) 0.78583(19) -0.42032(15)
C33 C 1.1662(3) 0.86565(16) -0.33636(16)
C34 C 1.0737(3) 0.86857(19) -0.45471(16)
C35 C 1.2112(3) 0.72478(17) -0.09049(15)
C36 C 1.1293(4) 0.90825(19) -0.41326(17)
H8 H 0.719(3) 0.2846(13) 0.5445(12)
H16 H 0.445(3) 0.2422(15) 0.6214(15)
H19 H 0.028(3) 0.4331(16) 0.5969(14)
H24 H 0.159(3) 0.1967(14) 0.6293(13)
H27 H -0.241(3) 0.3936(15) 0.6749(14)
H29 H -0.298(3) 0.2576(14) 0.7327(14)
H34 H 0.188(4) 0.4531(15) 0.4752(14)
H36 H -0.097(4) 0.1562(17) 0.7125(15)
H42 H 0.471(4) 0.4839(17) 0.4046(16)
N4 N 0.6120(3) 0.38795(13) 0.47112(11)
C48 C 0.1169(3) 0.31898(13) 0.60438(12)
C49 C 0.2865(3) 0.34286(14) 0.55727(13)
C50 C -0.0744(3) 0.21490(16) 0.68729(14)
C51 C 0.0777(3) 0.23801(14) 0.63882(14)
C52 C -0.0028(3) 0.37689(15) 0.61839(14)
C53 C 0.6019(3) 0.31772(16) 0.53260(14)
C54 C -0.1565(3) 0.35360(17) 0.66625(15)
C55 C 0.4448(3) 0.29320(15) 0.57622(14)
C56 C -0.1919(3) 0.27235(17) 0.70057(14)
C57 C 0.2974(3) 0.41538(16) 0.49268(14)
C58 C 0.4597(4) 0.43532(17) 0.45202(16)
H11 H 1.207(3) 0.4613(13) 0.3196(13)
H14 H 1.062(3) 0.5810(13) 0.0599(13)
H22 H 1.437(3) 0.5078(13) 0.2210(13)
H28 H 0.829(3) 0.5363(14) 0.1570(13)
H43 H 1.362(4) 0.6022(19) 0.0238(19)
H45 H 0.791(4) 0.4148(18) 0.4150(18)
O4 O 0.9005(2) 0.43729(10) 0.37952(9)
O5 O 1.4047(2) 0.57229(10) 0.07645(10)
O6 O 0.6932(2) 0.47856(10) 0.29219(9)
C19 C 1.1773(3) 0.48768(13) 0.26537(13)
C20 C 0.8499(3) 0.47046(13) 0.30751(12)
C21 C 0.9985(3) 0.49610(13) 0.24770(12)
C22 C 1.3115(3) 0.51349(14) 0.20786(13)
C23 C 0.9571(3) 0.53072(14) 0.17034(13)
C25 C 1.2689(3) 0.54830(13) 0.13091(12)
C28 C 1.0902(3) 0.55679(14) 0.11252(13)
loop_
_geom_bond_atom_site_label_1
_geom_bond_atom_site_label_2
_geom_bond_site_symmetry_1
_geom_bond_site_symmetry_2
H1 C8 1_555 1_555
H2 C47 1_555 1_555
H3 C40 1_555 1_555
H4 C44 1_555 1_555
H5 C14 1_555 1_555
H6 C11 1_555 1_555
H7 C30 1_555 1_555
H8 C53 1_555 1_555
H9 C39 1_555 1_555
H10 C31 1_555 1_555
H11 C19 1_555 1_555
H12 C3 1_555 1_555
H13 C42 1_555 1_555
H14 C28 1_555 1_555
H15 C41 1_555 1_555
H16 C55 1_555 1_555
H17 C10 1_555 1_555
H18 C27 1_555 1_555
H19 C52 1_555 1_555
H20 C13 1_555 1_555
H21 C9 1_555 1_555
H22 C22 1_555 1_555
H23 C7 1_555 1_555
H24 C51 1_555 1_555
H25 C16 1_555 1_555
H26 C46 1_555 1_555
H27 C54 1_555 1_555
H28 C23 1_555 1_555
H29 C56 1_555 1_555
H30 C32 1_555 1_555
H31 C43 1_555 1_555
H32 C15 1_555 1_555
H33 C18 1_555 1_555
H34 C57 1_555 1_555
H35 C33 1_555 1_555
H36 C50 1_555 1_555
H37 C5 1_555 1_555
H38 C17 1_555 1_555
H39 C45 1_555 1_555
H40 C26 1_555 1_555
H41 C35 1_555 1_555
H42 C58 1_555 1_555
H43 O5 1_555 1_555
H44 C36 1_555 1_555
H45 O4 1_555 1_555
H46 C34 1_555 1_555
H47 O2 1_555 1_555
H48 O1 1_555 1_555
O1 C2 1_555 1_555
O2 C6 1_555 1_555
C1 C9 1_555 1_555
O3 C6 1_555 1_555
C2 C8 1_555 1_555
C3 C4 1_555 1_555
N1 C5 1_555 1_555
C4 C6 1_555 1_555
C5 C16 1_555 1_555
C7 C13 1_555 1_555
C8 C3 1_555 1_555
C9 C18 1_555 1_555
C10 C2 1_555 1_555
C11 C4 1_555 1_555
C12 C1 1_555 1_555
C13 C14 1_555 1_555
C14 C1 1_555 1_555
C15 C12 1_555 1_555
C16 C12 1_555 1_555
C17 N1 1_555 1_555
C18 C7 1_555 1_555
O4 C20 1_555 1_555
O5 C25 1_555 1_555
O6 C20 1_555 1_555
C19 C21 1_555 1_555
C20 C21 1_555 1_555
C21 C23 1_555 1_555
C22 C19 1_555 1_555
C23 C28 1_555 1_555
N2 C30 1_555 1_555
C24 C26 1_555 1_555
C25 C22 1_555 1_555
C26 C35 1_555 1_555
C27 C24 1_555 1_555
C28 C25 1_555 1_555
C29 C24 1_555 1_555
C30 C27 1_555 1_555
C31 C29 1_555 1_555
C32 C31 1_555 1_555
C33 C29 1_555 1_555
C34 C32 1_555 1_555
C35 N2 1_555 1_555
C36 C33 1_555 1_555
N3 C41 1_555 1_555
C37 C38 1_555 1_555
C38 C39 1_555 1_555
C39 C45 1_555 1_555
C40 C38 1_555 1_555
C41 C44 1_555 1_555
C42 C37 1_555 1_555
C43 C40 1_555 1_555
C44 C37 1_555 1_555
C45 C46 1_555 1_555
C46 C43 1_555 1_555
C47 N3 1_555 1_555
N4 C53 1_555 1_555
C48 C49 1_555 1_555
C49 C55 1_555 1_555
C50 C51 1_555 1_555
C51 C48 1_555 1_555
C52 C48 1_555 1_555
C53 C55 1_555 1_555
C54 C52 1_555 1_555
C56 C50 1_555 1_555
C57 C49 1_555 1_555
C58 N4 1_555 1_555
C10 C11 1_555 1_555
C15 C17 1_555 1_555
C34 C36 1_555 1_555
C42 C47 1_555 1_555
C54 C56 1_555 1_555
C57 C58 1_555 1_555

#END
