
#######################################################################
#
#                 Cambridge Crystallographic Data Centre
#                                CCDC 
#
#######################################################################
#
# If this CIF has been generated from an entry in the Cambridge 
# Structural Database, then it will include bibliographic, chemical, 
# crystal, experimental, refinement or atomic coordinate data resulting 
# from the CCDC's data processing and validation procedures.
#
#######################################################################

data_EQABOO
_chemical_formula_moiety         'C10 H15 Br3 O1'
_chemical_name_systematic        
(3S,6S,7R)-6,7-Dibromo-3-(bromomethyl)-1,3-dimethyl-2-oxabicyclo[2.2.2]octane
_symmetry_cell_setting           orthorhombic
_symmetry_space_group_name_H-M   'P 21 21 21'
_symmetry_Int_Tables_number      19
_space_group_name_Hall           'P 2ac 2ab'
loop_
_symmetry_equiv_pos_site_id
_symmetry_equiv_pos_as_xyz
1 x,y,z
2 1/2-x,-y,1/2+z
3 -x,1/2+y,1/2-z
4 1/2+x,1/2-y,-z
_cell_length_a                   8.9051(17)
_cell_length_b                   11.483(2)
_cell_length_c                   12.345(3)
_cell_angle_alpha                90
_cell_angle_beta                 90
_cell_angle_gamma                90
_cell_volume                     1262.37
_exptl_crystal_description       needle
_cell_formula_units_Z            4
loop_
_atom_site_label
_atom_site_type_symbol
_atom_site_fract_x
_atom_site_fract_y
_atom_site_fract_z
Br1 Br 1.09144(8) 0.89339(6) 0.20588(7)
Br2 Br 0.76251(8) 0.69861(5) 0.21464(6)
Br3 Br 0.62465(8) 1.32020(5) 0.08474(6)
O1 O 0.7315(6) 0.9794(3) 0.0030(3)
C1 C 0.6483(8) 1.0702(5) 0.0630(5)
C2 C 0.6826(7) 1.0544(5) 0.1829(5)
H1 H 0.6292 1.1135 0.2254
C3 C 0.8507(8) 1.0648(6) 0.2021(6)
H2 H 0.8738 1.0479 0.2772
H3 H 0.8839 1.1434 0.1862
C4 C 0.9317(8) 0.9773(5) 0.1273(6)
H4 H 0.9818 1.0235 0.0712
C5 C 0.8190(7) 0.8995(6) 0.0691(5)
C6 C 0.6993(8) 0.8438(5) 0.1420(5)
H5 H 0.6162 0.8222 0.0941
C7 C 0.6360(8) 0.9321(5) 0.2205(6)
H6 H 0.6743 0.9174 0.2928
H7 H 0.5273 0.9261 0.2226
C8 C 0.4826(9) 1.0539(6) 0.0361(6)
H8 H 0.4680 1.0623 -0.0405
H9 H 0.4243 1.1114 0.0737
H10 H 0.4512 0.9775 0.0583
C9 C 0.7056(8) 1.1819(5) 0.0141(6)
H11 H 0.6792 1.1837 -0.0621
H12 H 0.8143 1.1833 0.0192
C10 C 0.8899(9) 0.8160(6) -0.0104(6)
H13 H 0.9592 0.8574 -0.0558
H14 H 0.8131 0.7813 -0.0544
H15 H 0.9425 0.7562 0.0285
loop_
_geom_bond_atom_site_label_1
_geom_bond_atom_site_label_2
_geom_bond_site_symmetry_1
_geom_bond_site_symmetry_2
Br1 C4 1_555 1_555
Br2 C6 1_555 1_555
Br3 C9 1_555 1_555
O1 C1 1_555 1_555
C1 C2 1_555 1_555
C2 H1 1_555 1_555
C3 C2 1_555 1_555
H2 C3 1_555 1_555
H3 C3 1_555 1_555
C4 C3 1_555 1_555
H4 C4 1_555 1_555
C5 O1 1_555 1_555
C6 C5 1_555 1_555
H5 C6 1_555 1_555
C7 C2 1_555 1_555
H6 C7 1_555 1_555
H7 C7 1_555 1_555
C8 C1 1_555 1_555
H8 C8 1_555 1_555
H9 C8 1_555 1_555
H10 C8 1_555 1_555
C9 C1 1_555 1_555
H11 C9 1_555 1_555
H12 C9 1_555 1_555
C10 C5 1_555 1_555
H13 C10 1_555 1_555
H14 C10 1_555 1_555
H15 C10 1_555 1_555
C4 C5 1_555 1_555
C6 C7 1_555 1_555

#END
