
#######################################################################
#
#                 Cambridge Crystallographic Data Centre
#                                CCDC 
#
#######################################################################
#
# If this CIF has been generated from an entry in the Cambridge 
# Structural Database, then it will include bibliographic, chemical, 
# crystal, experimental, refinement or atomic coordinate data resulting 
# from the CCDC's data processing and validation procedures.
#
#######################################################################

data_EQAFEJ
_chemical_formula_moiety         'C25 H38 O6'
_chemical_name_systematic        
2,15,15-trimethyl-10,10-dipropyl-17-(prop-2-yn-1-yloxy)-5,9,11,16-tetraoxapentacyclo[12.2.1.0^1,7^.0^4,8^.0^7,12^]heptadecan-2-ol
_chemical_properties_biological  
'insecticidal acticity against third-instar larvae of M. separata'
_symmetry_cell_setting           orthorhombic
_symmetry_space_group_name_H-M   'P 21 21 21'
_symmetry_Int_Tables_number      19
_space_group_name_Hall           'P 2ac 2ab'
loop_
_symmetry_equiv_pos_site_id
_symmetry_equiv_pos_as_xyz
1 x,y,z
2 1/2-x,-y,1/2+z
3 -x,1/2+y,1/2-z
4 1/2+x,1/2-y,-z
_cell_length_a                   8.313(2)
_cell_length_b                   16.817(4)
_cell_length_c                   17.345(5)
_cell_angle_alpha                90
_cell_angle_beta                 90
_cell_angle_gamma                90
_cell_volume                     2424.83
_exptl_crystal_colour            white
_chemical_melting_point          '393-395 K'
_cell_formula_units_Z            4
_exptl_crystal_recrystallization_method 'acetone/ethyl acetate 20 : 1'
loop_
_atom_site_label
_atom_site_type_symbol
_atom_site_fract_x
_atom_site_fract_y
_atom_site_fract_z
O1 O 0.44020(18) 0.36535(8) 0.82300(8)
O2 O 0.28560(17) 0.39703(8) 0.93217(8)
O3 O 0.59012(19) 0.49994(9) 0.75109(8)
O4 O 0.84941(16) 0.58579(9) 0.95096(9)
H1 H 0.8270 0.5603 0.9898
O5 O 0.56618(16) 0.68106(7) 0.98747(8)
O6 O 0.60201(15) 0.50325(8) 0.99669(7)
C1 C 0.4615(4) 0.12240(15) 0.91932(16)
H2 H 0.5648 0.1344 0.9412
H3 H 0.4704 0.0763 0.8869
H4 H 0.3859 0.1121 0.9599
C2 C 0.4047(3) 0.19170(13) 0.87227(14)
H5 H 0.3055 0.1772 0.8464
H6 H 0.4842 0.2032 0.8329
C3 C 0.3760(3) 0.26625(12) 0.91968(13)
H7 H 0.4758 0.2804 0.9452
H8 H 0.2979 0.2540 0.9595
C4 C 0.3167(3) 0.33808(12) 0.87495(12)
C5 C 0.1720(3) 0.32165(13) 0.82398(14)
H9 H 0.1380 0.3715 0.8010
H10 H 0.2059 0.2870 0.7823
C6 C 0.0282(3) 0.28424(15) 0.86305(16)
H11 H -0.0216 0.3233 0.8966
H12 H 0.0648 0.2405 0.8950
C7 C -0.0966(3) 0.25356(17) 0.8071(2)
H13 H -0.1220 0.2943 0.7704
H14 H -0.1921 0.2390 0.8349
H15 H -0.0550 0.2078 0.7807
C8 C 0.5481(3) 0.41944(11) 0.85914(11)
H16 H 0.5957 0.3973 0.9062
C9 C 0.6737(3) 0.44765(14) 0.80273(13)
H17 H 0.7209 0.4028 0.7747
C10 C 0.8020(3) 0.49236(14) 0.84851(13)
H18 H 0.8870 0.5085 0.8136
H19 H 0.8487 0.4564 0.8861
C11 C 0.7381(2) 0.56678(12) 0.89102(12)
C12 C 0.5688(2) 0.54928(11) 0.92773(11)
C13 C 0.4605(2) 0.49722(11) 0.87400(11)
C14 C 0.2905(2) 0.47891(12) 0.90700(12)
H20 H 0.2127 0.4849 0.8649
C15 C 0.2339(2) 0.53090(12) 0.97422(13)
H21 H 0.1783 0.4973 1.0110
H22 H 0.1565 0.5691 0.9546
C16 C 0.3669(2) 0.57670(12) 1.01721(12)
H23 H 0.3194 0.6153 1.0529
C17 C 0.4689(2) 0.61949(11) 0.95636(11)
H24 H 0.4005 0.6401 0.9149
C18 C 0.4916(3) 0.52479(12) 1.05926(11)
C19 C 0.4282(3) 0.44839(13) 1.09449(13)
H25 H 0.3782 0.4167 1.0551
H26 H 0.3505 0.4609 1.1336
H27 H 0.5156 0.4192 1.1170
C20 C 0.5857(3) 0.56963(14) 1.12055(12)
H28 H 0.6705 0.5364 1.1399
H29 H 0.5150 0.5839 1.1621
H30 H 0.6310 0.6169 1.0984
C21 C 0.4838(3) 0.75565(12) 0.99412(13)
H31 H 0.5335 0.7870 1.0346
H32 H 0.3727 0.7461 1.0085
C22 C 0.4884(3) 0.80002(13) 0.92206(15)
C23 C 0.4979(4) 0.83417(18) 0.86431(17)
H33 H 0.5056 0.8616 0.8179
C24 C 0.4514(3) 0.52933(13) 0.79108(11)
H34 H 0.3538 0.5110 0.7661
H35 H 0.4513 0.5870 0.7913
C25 C 0.7441(3) 0.63871(13) 0.83764(13)
H36 H 0.6871 0.6822 0.8609
H37 H 0.6948 0.6255 0.7892
H38 H 0.8540 0.6538 0.8292
loop_
_geom_bond_atom_site_label_1
_geom_bond_atom_site_label_2
_geom_bond_site_symmetry_1
_geom_bond_site_symmetry_2
O1 C4 1_555 1_555
O2 C4 1_555 1_555
O3 C9 1_555 1_555
O4 H1 1_555 1_555
O5 C17 1_555 1_555
O6 C12 1_555 1_555
C1 H2 1_555 1_555
H3 C1 1_555 1_555
H4 C1 1_555 1_555
C2 C1 1_555 1_555
H5 C2 1_555 1_555
H6 C2 1_555 1_555
C3 C2 1_555 1_555
H7 C3 1_555 1_555
H8 C3 1_555 1_555
C4 C3 1_555 1_555
C5 C4 1_555 1_555
H9 C5 1_555 1_555
H10 C5 1_555 1_555
C6 C5 1_555 1_555
H11 C6 1_555 1_555
H12 C6 1_555 1_555
C7 C6 1_555 1_555
H13 C7 1_555 1_555
H14 C7 1_555 1_555
H15 C7 1_555 1_555
C8 O1 1_555 1_555
H16 C8 1_555 1_555
C9 C8 1_555 1_555
H17 C9 1_555 1_555
C10 C9 1_555 1_555
H18 C10 1_555 1_555
H19 C10 1_555 1_555
C11 O4 1_555 1_555
C12 C11 1_555 1_555
C13 C8 1_555 1_555
C14 O2 1_555 1_555
H20 C14 1_555 1_555
C15 C14 1_555 1_555
H21 C15 1_555 1_555
H22 C15 1_555 1_555
C16 C15 1_555 1_555
H23 C16 1_555 1_555
C17 C12 1_555 1_555
H24 C17 1_555 1_555
C18 O6 1_555 1_555
C19 C18 1_555 1_555
H25 C19 1_555 1_555
H26 C19 1_555 1_555
H27 C19 1_555 1_555
C20 C18 1_555 1_555
H28 C20 1_555 1_555
H29 C20 1_555 1_555
H30 C20 1_555 1_555
C21 O5 1_555 1_555
H31 C21 1_555 1_555
H32 C21 1_555 1_555
C22 C21 1_555 1_555
C23 C22 1_555 1_555
H33 C23 1_555 1_555
C24 O3 1_555 1_555
H34 C24 1_555 1_555
H35 C24 1_555 1_555
C25 C11 1_555 1_555
H36 C25 1_555 1_555
H37 C25 1_555 1_555
H38 C25 1_555 1_555
C10 C11 1_555 1_555
C12 C13 1_555 1_555
C13 C14 1_555 1_555
C13 C24 1_555 1_555
C16 C17 1_555 1_555
C16 C18 1_555 1_555

#END
