
#######################################################################
#
#                 Cambridge Crystallographic Data Centre
#                                CCDC 
#
#######################################################################
#
# If this CIF has been generated from an entry in the Cambridge 
# Structural Database, then it will include bibliographic, chemical, 
# crystal, experimental, refinement or atomic coordinate data resulting 
# from the CCDC's data processing and validation procedures.
#
#######################################################################

data_EQALOY
_chemical_formula_moiety         'C14 H18 N2 O3 S1,C1 H1 Cl3'
_chemical_name_systematic        
'N-Hydroxy-6-((4-methylphenyl)sulfonyl)-6-azabicyclo[3.2.1]octan-4-imine chloroform solvate'
_symmetry_cell_setting           monoclinic
_symmetry_space_group_name_H-M   'P 21/n'
_symmetry_Int_Tables_number      14
_space_group_name_Hall           '-P 2yn'
loop_
_symmetry_equiv_pos_site_id
_symmetry_equiv_pos_as_xyz
1 x,y,z
2 1/2-x,1/2+y,1/2-z
3 -x,-y,-z
4 1/2+x,1/2-y,1/2+z
_cell_length_a                   11.0349(17)
_cell_length_b                   10.4165(16)
_cell_length_c                   16.485(3)
_cell_angle_alpha                90
_cell_angle_beta                 104.065(2)
_cell_angle_gamma                90
_cell_volume                     1838.06
_exptl_crystal_colour            colorless
_exptl_crystal_description       plate
_cell_formula_units_Z            4
loop_
_atom_site_label
_atom_site_type_symbol
_atom_site_fract_x
_atom_site_fract_y
_atom_site_fract_z
Cl1 Cl 0.68703(6) 0.25476(7) 0.21071(5)
C15 C 0.5781(2) 0.3805(2) 0.20329(15)
H18 H 0.4957 0.3415 0.2044
Cl2 Cl 0.62062(7) 0.48531(6) 0.28867(4)
Cl3 Cl 0.55923(10) 0.46361(9) 0.10807(5)
C1 C 0.26556(19) 0.3999(2) 0.43395(13)
C2 C 0.2007(2) 0.2942(2) 0.46903(14)
H1 H 0.2379 0.2864 0.5298
H2 H 0.2138 0.2118 0.4425
C3 C 0.0597(2) 0.3193(3) 0.45429(18)
H3 H 0.0165 0.2373 0.4589
H4 H 0.0450 0.3779 0.4982
C4 C 0.0046(2) 0.3784(3) 0.36874(18)
H5 H -0.0877 0.3905 0.3592
C5 C 0.0698(2) 0.5059(3) 0.35975(16)
H6 H 0.0256 0.5539 0.3094
H7 H 0.0782 0.5609 0.4098
C6 C 0.19608(19) 0.45574(19) 0.35132(13)
H8 H 0.2457 0.5225 0.3300
C7 C 0.0364(2) 0.2961(3) 0.29842(16)
H9 H 0.0410 0.2039 0.3134
H10 H -0.0268 0.3080 0.2450
C8 C 0.07560(19) 0.4688(2) 0.14395(13)
C9 C -0.0376(2) 0.4248(2) 0.09482(13)
H11 H -0.0524 0.3355 0.0860
C10 C -0.1285(2) 0.5135(2) 0.05891(14)
H12 H -0.2057 0.4840 0.0247
C11 C -0.1094(2) 0.6450(2) 0.07182(14)
C12 C 0.0061(2) 0.6866(2) 0.12026(14)
H13 H 0.0213 0.7760 0.1286
C13 C 0.0987(2) 0.5999(2) 0.15627(13)
H14 H 0.1769 0.6293 0.1889
C14 C -0.2107(2) 0.7392(2) 0.03442(17)
H15 H -0.2498 0.7705 0.0780
H16 H -0.2737 0.6968 -0.0096
H17 H -0.1746 0.8116 0.0105
N1 N 0.37310(17) 0.44638(18) 0.46648(11)
N2 N 0.16096(16) 0.34551(17) 0.29239(11)
O1 O 0.42938(16) 0.38908(17) 0.54364(10)
H19 H 0.5000 0.4221 0.5629
O2 O 0.15576(18) 0.23378(17) 0.16118(11)
O3 O 0.30802(15) 0.4101(2) 0.20921(11)
S1 S 0.18492(5) 0.35755(5) 0.19893(3)
loop_
_geom_bond_atom_site_label_1
_geom_bond_atom_site_label_2
_geom_bond_site_symmetry_1
_geom_bond_site_symmetry_2
Cl1 C15 1_555 1_555
C1 C2 1_555 1_555
C2 H1 1_555 1_555
H2 C2 1_555 1_555
C3 C2 1_555 1_555
H3 C3 1_555 1_555
H4 C3 1_555 1_555
C4 C3 1_555 1_555
H5 C4 1_555 1_555
C5 C4 1_555 1_555
H6 C5 1_555 1_555
H7 C5 1_555 1_555
C6 C1 1_555 1_555
H8 C6 1_555 1_555
C7 C4 1_555 1_555
H9 C7 1_555 1_555
H10 C7 1_555 1_555
C8 C9 1_555 1_555
C9 H11 1_555 1_555
C10 C9 1_555 1_555
H12 C10 1_555 1_555
C11 C10 1_555 1_555
C12 C11 1_555 1_555
H13 C12 1_555 1_555
C13 C8 1_555 1_555
H14 C13 1_555 1_555
C14 C11 1_555 1_555
H15 C14 1_555 1_555
H16 C14 1_555 1_555
H17 C14 1_555 1_555
C15 H18 1_555 1_555
Cl2 C15 1_555 1_555
N1 C1 1_555 1_555
N2 C6 1_555 1_555
O1 N1 1_555 1_555
H19 O1 1_555 1_555
O2 S1 1_555 1_555
O3 S1 1_555 1_555
Cl3 C15 1_555 1_555
S1 C8 1_555 1_555
C5 C6 1_555 1_555
C7 N2 1_555 1_555
C12 C13 1_555 1_555
N2 S1 1_555 1_555

#END
