
#######################################################################
#
#                 Cambridge Crystallographic Data Centre
#                                CCDC 
#
#######################################################################
#
# If this CIF has been generated from an entry in the Cambridge 
# Structural Database, then it will include bibliographic, chemical, 
# crystal, experimental, refinement or atomic coordinate data resulting 
# from the CCDC's data processing and validation procedures.
#
#######################################################################

data_EQALUE
_chemical_formula_moiety         'C23 H25 N1 O7 S2'
_chemical_name_systematic        
'Methyl 4-((((4-methylphenyl)sulfonyl)oxy)imino)-6-(phenylsulfonyl)bicyclo[3.2.1]octane-6-carboxylate'
_symmetry_cell_setting           monoclinic
_symmetry_space_group_name_H-M   'P 21/n'
_symmetry_Int_Tables_number      14
_space_group_name_Hall           '-P 2yn'
loop_
_symmetry_equiv_pos_site_id
_symmetry_equiv_pos_as_xyz
1 x,y,z
2 1/2-x,1/2+y,1/2-z
3 -x,-y,-z
4 1/2+x,1/2-y,1/2+z
_cell_length_a                   15.327(5)
_cell_length_b                   7.905(3)
_cell_length_c                   19.504(7)
_cell_angle_alpha                90
_cell_angle_beta                 96.912(10)
_cell_angle_gamma                90
_cell_volume                     2345.93
_exptl_crystal_colour            colorless
_exptl_crystal_description       block
_cell_formula_units_Z            4
loop_
_atom_site_label
_atom_site_type_symbol
_atom_site_fract_x
_atom_site_fract_y
_atom_site_fract_z
C1 C 0.5782(2) 1.1889(5) 0.0705(2)
H1 H 0.5472 1.1263 0.0352
C2 C 0.6024(3) 1.3540(5) 0.0588(2)
H2 H 0.5879 1.4028 0.0155
C3 C 0.6481(3) 1.4462(5) 0.1115(3)
H3 H 0.6642 1.5573 0.1037
C4 C 0.6698(3) 1.3743(6) 0.1755(3)
H4 H 0.7008 1.4371 0.2106
C5 C 0.6460(2) 1.2105(5) 0.1880(2)
H5 H 0.6604 1.1624 0.2314
C6 C 0.6001(2) 1.1178(4) 0.13451(19)
C7 C 0.4165(2) 1.0530(5) 0.1607(2)
C8 C 0.3371(3) 1.1757(6) 0.0624(2)
H6 H 0.2825 1.1830 0.0818
H7 H 0.3255 1.1567 0.0135
H8 H 0.3691 1.2796 0.0708
C9 C 0.4707(2) 0.9004(4) 0.18882(17)
C10 C 0.4882(2) 0.8963(5) 0.26910(18)
H9 H 0.5503 0.9109 0.2845
H10 H 0.4558 0.9855 0.2890
C11 C 0.4566(3) 0.7212(5) 0.29036(19)
H11 H 0.4937 0.6799 0.3314
C12 C 0.3602(3) 0.7210(5) 0.30271(19)
H12 H 0.3533 0.7918 0.3423
H13 H 0.3432 0.6068 0.3135
C13 C 0.2990(2) 0.7852(5) 0.24039(17)
H14 H 0.2400 0.7436 0.2431
H15 H 0.2972 0.9078 0.2414
C14 C 0.3290(2) 0.7284(4) 0.17418(17)
C15 C 0.4267(2) 0.7242(4) 0.16913(18)
H16 H 0.4397 0.6842 0.1239
C16 C 0.4681(2) 0.6110(5) 0.2281(2)
H17 H 0.4370 0.5045 0.2296
H18 H 0.5297 0.5890 0.2245
C17 C 0.1362(2) 0.7817(5) 0.00719(19)
C18 C 0.1631(2) 0.7633(5) -0.0567(2)
H19 H 0.1805 0.6578 -0.0711
C19 C 0.1643(3) 0.9016(6) -0.0997(2)
H20 H 0.1826 0.8879 -0.1432
C20 C 0.1391(2) 1.0592(6) -0.0797(2)
C21 C 0.1122(3) 1.0756(5) -0.0152(2)
H21 H 0.0950 1.1811 -0.0005
C22 C 0.1102(3) 0.9376(5) 0.0277(2)
H22 H 0.0912 0.9504 0.0710
C23 C 0.1406(3) 1.2105(7) -0.1271(2)
H23 H 0.1926 1.2067 -0.1499
H24 H 0.1404 1.3126 -0.1005
H25 H 0.0896 1.2080 -0.1609
N1 N 0.28229(19) 0.6723(4) 0.12103(15)
O1 O 0.55817(15) 0.8238(3) 0.08208(12)
O2 O 0.64291(15) 0.8338(3) 0.19768(13)
O3 O 0.38880(16) 1.0367(3) 0.09430(14)
O4 O 0.40089(19) 1.1722(3) 0.19518(14)
O5 O 0.18982(16) 0.6637(3) 0.13111(13)
O6 O 0.1695(2) 0.4639(4) 0.03199(17)
O7 O 0.04624(18) 0.5945(4) 0.08327(16)
S1 S 0.57480(6) 0.90312(11) 0.14846(5)
S2 S 0.13100(7) 0.60650(14) 0.06103(6)
H26? H 0.3012 0.5683 0.1111
H27? H 0.2885 0.7401 0.0849
loop_
_geom_bond_atom_site_label_1
_geom_bond_atom_site_label_2
_geom_bond_site_symmetry_1
_geom_bond_site_symmetry_2
C1 H1 1_555 1_555
C2 C1 1_555 1_555
H2 C2 1_555 1_555
C3 C2 1_555 1_555
H3 C3 1_555 1_555
C4 C3 1_555 1_555
H4 C4 1_555 1_555
C5 C4 1_555 1_555
H5 C5 1_555 1_555
C6 C1 1_555 1_555
C7 C9 1_555 1_555
C8 H6 1_555 1_555
H7 C8 1_555 1_555
H8 C8 1_555 1_555
C9 C10 1_555 1_555
C10 H9 1_555 1_555
H10 C10 1_555 1_555
C11 C10 1_555 1_555
H11 C11 1_555 1_555
C12 C11 1_555 1_555
H12 C12 1_555 1_555
H13 C12 1_555 1_555
C13 C12 1_555 1_555
H14 C13 1_555 1_555
H15 C13 1_555 1_555
C14 C13 1_555 1_555
C15 C9 1_555 1_555
H16 C15 1_555 1_555
C16 C11 1_555 1_555
H17 C16 1_555 1_555
H18 C16 1_555 1_555
C17 C18 1_555 1_555
C18 H19 1_555 1_555
C19 C18 1_555 1_555
H20 C19 1_555 1_555
C20 C19 1_555 1_555
C21 C20 1_555 1_555
H21 C21 1_555 1_555
C22 C17 1_555 1_555
H22 C22 1_555 1_555
C23 C20 1_555 1_555
H23 C23 1_555 1_555
H24 C23 1_555 1_555
H25 C23 1_555 1_555
N1 C14 1_555 1_555
O1 S1 1_555 1_555
O2 S1 1_555 1_555
O3 C7 1_555 1_555
O4 C7 1_555 1_555
O5 N1 1_555 1_555
O6 S2 1_555 1_555
O7 S2 1_555 1_555
S1 C6 1_555 1_555
S2 C17 1_555 1_555
C5 C6 1_555 1_555
C8 O3 1_555 1_555
C9 S1 1_555 1_555
C14 C15 1_555 1_555
C15 C16 1_555 1_555
C21 C22 1_555 1_555
O5 S2 1_555 1_555

#END
