
#######################################################################
#
#                 Cambridge Crystallographic Data Centre
#                                CCDC 
#
#######################################################################
#
# If this CIF has been generated from an entry in the Cambridge 
# Structural Database, then it will include bibliographic, chemical, 
# crystal, experimental, refinement or atomic coordinate data resulting 
# from the CCDC's data processing and validation procedures.
#
#######################################################################

data_EQALAK
_chemical_formula_moiety         'C36 H48 O9'
_chemical_name_systematic        
1,1',1''-(2,4-Dimethylhept-1-ene-1,3,5-triyl)tris(2,4,5-trimethoxybenzene)
_symmetry_cell_setting           monoclinic
_symmetry_space_group_name_H-M   'P 21'
_symmetry_Int_Tables_number      4
_space_group_name_Hall           'P 2yb'
loop_
_symmetry_equiv_pos_site_id
_symmetry_equiv_pos_as_xyz
1 x,y,z
2 -x,1/2+y,-z
_cell_length_a                   10.969(7)
_cell_length_b                   8.042(8)
_cell_length_c                   19.434(12)
_cell_angle_alpha                90
_cell_angle_beta                 95.39(1)
_cell_angle_gamma                90
_cell_volume                     1706.75
_exptl_crystal_colour            colorless
_exptl_crystal_description       prism
_cell_formula_units_Z            2
loop_
_atom_site_label
_atom_site_type_symbol
_atom_site_fract_x
_atom_site_fract_y
_atom_site_fract_z
O1 O -0.9510(2) -0.0988(4) -0.23335(11)
O2 O -0.8991(3) 0.1652(4) -0.00809(14)
O3 O -0.6871(3) -0.0100(4) 0.01983(13)
O4 O -0.47693(19) -0.2764(3) -0.27507(12)
O5 O -0.14016(19) -0.6080(4) -0.17054(13)
O6 O -0.2926(2) -0.8558(4) -0.15388(15)
O7 O -0.5158(2) -0.5395(4) -0.40037(12)
O8 O -0.8036(4) -0.4257(5) -0.59923(16)
O9 O -0.9544(4) -0.6439(5) -0.5559(2)
C1 C -0.7821(3) -0.1614(5) -0.15536(15)
C2 C -0.8886(3) -0.0694(4) -0.17037(15)
C3 C -0.9298(3) 0.0421(5) -0.12275(17)
H1 H -1.0019 0.1013 -0.1336
C4 C -0.8630(3) 0.0646(5) -0.05897(17)
C5 C -0.7533(3) -0.0202(5) -0.04407(17)
C6 C -0.7145(3) -0.1305(5) -0.09211(16)
H2 H -0.6407 -0.1861 -0.0819
C7 C -0.7395(2) -0.2775(5) -0.20696(15)
H3 H -0.7411 -0.2366 -0.2518
C8 C -0.6991(2) -0.4335(5) -0.19784(14)
C9 C -0.6998(3) -0.5260(5) -0.13069(16)
H4 H -0.7348 -0.4568 -0.0974
H5 H -0.6174 -0.5548 -0.1139
H6 H -0.7477 -0.6254 -0.1379
C10 C -1.0634(3) -0.0156(6) -0.2494(2)
H7 H -1.0973 -0.0472 -0.2949
H8 H -1.0500 0.1023 -0.2480
H9 H -1.1194 -0.0455 -0.2164
C11 C -1.0246(5) 0.2064(8) -0.0112(3)
H10 H -1.0388 0.2759 0.0274
H11 H -1.0721 0.1065 -0.0096
H12 H -1.0481 0.2648 -0.0534
C12 C -0.6273(5) 0.1391(8) 0.0357(3)
H13 H -0.5841 0.1318 0.0809
H14 H -0.6863 0.2275 0.0350
H15 H -0.5703 0.1612 0.0023
C13 C -0.5116(2) -0.5505(4) -0.23797(14)
C14 C -0.4292(3) -0.4214(4) -0.24558(15)
C15 C -0.3045(3) -0.4375(5) -0.22486(16)
H16 H -0.2512 -0.3505 -0.2319
C16 C -0.2602(3) -0.5837(5) -0.19376(16)
C17 C -0.3408(3) -0.7125(5) -0.18419(16)
C18 C -0.4637(3) -0.6944(5) -0.20669(16)
H17 H -0.5164 -0.7826 -0.2006
C19 C -0.6475(2) -0.5222(4) -0.25753(14)
H18 H -0.6543 -0.4450 -0.2967
C20 C -0.7213(3) -0.6813(5) -0.28128(15)
H19 H -0.7115 -0.7608 -0.2429
C21 C -0.8574(3) -0.6386(6) -0.2928(2)
H20 H -0.9030 -0.7365 -0.3071
H21 H -0.8698 -0.5550 -0.3281
H22 H -0.8849 -0.5973 -0.2506
C22 C -0.3990(4) -0.1370(6) -0.2776(3)
H23 H -0.4441 -0.0456 -0.2991
H24 H -0.3318 -0.1643 -0.3038
H25 H -0.3680 -0.1063 -0.2315
C23 C -0.0643(3) -0.4671(6) -0.1639(2)
H26 H 0.0174 -0.5002 -0.1476
H27 H -0.0949 -0.3912 -0.1314
H28 H -0.0637 -0.4135 -0.2080
C24 C -0.3462(6) -0.9102(9) -0.0963(4)
H29 H -0.3054 -1.0089 -0.0785
H30 H -0.4311 -0.9342 -0.1088
H31 H -0.3393 -0.8251 -0.0615
C25 C -0.7056(3) -0.6776(5) -0.41329(16)
C26 C -0.6254(3) -0.5632(5) -0.43824(15)
C27 C -0.6554(4) -0.4752(5) -0.50044(17)
H32 H -0.6012 -0.3979 -0.5159
C28 C -0.7656(4) -0.5057(5) -0.53767(19)
C29 C -0.8452(4) -0.6217(6) -0.5160(2)
C30 C -0.8142(3) -0.7055(5) -0.45394(18)
H33 H -0.8688 -0.7835 -0.4393
C31 C -0.6744(3) -0.7678(4) -0.34489(15)
H34 H -0.5848 -0.7687 -0.3369
C32 C -0.7151(3) -0.9508(5) -0.34625(18)
H35 H -0.6861 -1.0012 -0.3024
H36 H -0.8039 -0.9538 -0.3500
C33 C -0.6720(4) -1.0561(5) -0.4035(2)
H37 H -0.7024 -1.1674 -0.3998
H38 H -0.5841 -1.0579 -0.3996
H39 H -0.7020 -1.0100 -0.4474
C34 C -1.0113(6) -0.7799(9) -0.5590(4)
H40 H -1.0856 -0.7683 -0.5889
H41 H -1.0307 -0.8109 -0.5136
H42 H -0.9611 -0.8644 -0.5769
C35 C -0.7405(8) -0.2821(8) -0.6161(3)
H43 H -0.7745 -0.2410 -0.6602
H44 H -0.6556 -0.3080 -0.6182
H45 H -0.7483 -0.1987 -0.5814
C36 C -0.4332(4) -0.4179(6) -0.4218(2)
H46 H -0.3606 -0.4165 -0.3901
H47 H -0.4715 -0.3105 -0.4225
H48 H -0.4119 -0.4447 -0.4673
loop_
_geom_bond_atom_site_label_1
_geom_bond_atom_site_label_2
_geom_bond_site_symmetry_1
_geom_bond_site_symmetry_2
O1 C2 1_555 1_555
O2 C4 1_555 1_555
O3 C5 1_555 1_555
O4 C14 1_555 1_555
O5 C16 1_555 1_555
O6 C17 1_555 1_555
O7 C26 1_555 1_555
O8 C28 1_555 1_555
O9 C29 1_555 1_555
C1 C2 1_555 1_555
C2 C3 1_555 1_555
C3 H1 1_555 1_555
C4 C3 1_555 1_555
C5 C4 1_555 1_555
C6 C1 1_555 1_555
H2 C6 1_555 1_555
C7 C1 1_555 1_555
H3 C7 1_555 1_555
C8 C7 1_555 1_555
C9 C8 1_555 1_555
H4 C9 1_555 1_555
H5 C9 1_555 1_555
H6 C9 1_555 1_555
C10 O1 1_555 1_555
H7 C10 1_555 1_555
H8 C10 1_555 1_555
H9 C10 1_555 1_555
C11 O2 1_555 1_555
H10 C11 1_555 1_555
H11 C11 1_555 1_555
H12 C11 1_555 1_555
C12 O3 1_555 1_555
H13 C12 1_555 1_555
H14 C12 1_555 1_555
H15 C12 1_555 1_555
C13 C14 1_555 1_555
C14 C15 1_555 1_555
C15 H16 1_555 1_555
C16 C15 1_555 1_555
C17 C16 1_555 1_555
C18 C13 1_555 1_555
H17 C18 1_555 1_555
C19 C8 1_555 1_555
H18 C19 1_555 1_555
C20 C19 1_555 1_555
H19 C20 1_555 1_555
C21 C20 1_555 1_555
H20 C21 1_555 1_555
H21 C21 1_555 1_555
H22 C21 1_555 1_555
C22 O4 1_555 1_555
H23 C22 1_555 1_555
H24 C22 1_555 1_555
H25 C22 1_555 1_555
C23 O5 1_555 1_555
H26 C23 1_555 1_555
H27 C23 1_555 1_555
H28 C23 1_555 1_555
C24 O6 1_555 1_555
H29 C24 1_555 1_555
H30 C24 1_555 1_555
H31 C24 1_555 1_555
C25 C26 1_555 1_555
C26 C27 1_555 1_555
C27 H32 1_555 1_555
C28 C27 1_555 1_555
C29 C28 1_555 1_555
C30 C25 1_555 1_555
H33 C30 1_555 1_555
C31 C20 1_555 1_555
H34 C31 1_555 1_555
C32 C31 1_555 1_555
H35 C32 1_555 1_555
H36 C32 1_555 1_555
C33 C32 1_555 1_555
H37 C33 1_555 1_555
H38 C33 1_555 1_555
H39 C33 1_555 1_555
C34 O9 1_555 1_555
H40 C34 1_555 1_555
H41 C34 1_555 1_555
H42 C34 1_555 1_555
C35 O8 1_555 1_555
H43 C35 1_555 1_555
H44 C35 1_555 1_555
H45 C35 1_555 1_555
C36 O7 1_555 1_555
H46 C36 1_555 1_555
H47 C36 1_555 1_555
H48 C36 1_555 1_555
C5 C6 1_555 1_555
C13 C19 1_555 1_555
C17 C18 1_555 1_555
C25 C31 1_555 1_555
C29 C30 1_555 1_555

#END
