
#######################################################################
#
#                 Cambridge Crystallographic Data Centre
#                                CCDC 
#
#######################################################################
#
# If this CIF has been generated from an entry in the Cambridge 
# Structural Database, then it will include bibliographic, chemical, 
# crystal, experimental, refinement or atomic coordinate data resulting 
# from the CCDC's data processing and validation procedures.
#
#######################################################################

data_EQAPAP
_chemical_formula_moiety         'C11 H16 O1 S2'
_chemical_name_systematic        
7a-methyl-5-(prop-1-en-2-yl)hexahydro-1,3-benzoxathiole-2-thione
_symmetry_cell_setting           orthorhombic
_symmetry_space_group_name_H-M   'P 21 21 21'
_symmetry_Int_Tables_number      19
_space_group_name_Hall           'P 2ac 2ab'
loop_
_symmetry_equiv_pos_site_id
_symmetry_equiv_pos_as_xyz
1 x,y,z
2 1/2+x,1/2-y,-z
3 -x,1/2+y,1/2-z
4 1/2-x,-y,1/2+z
_cell_length_a                   8.4952(2)
_cell_length_b                   9.1213(2)
_cell_length_c                   14.9630(3)
_cell_angle_alpha                90
_cell_angle_beta                 90
_cell_angle_gamma                90
_cell_volume                     1159.44
_exptl_crystal_colour            yellow
_exptl_crystal_description       prism
_cell_formula_units_Z            4
_exptl_crystal_recrystallization_method 'diethyl ether'
loop_
_atom_site_label
_atom_site_type_symbol
_atom_site_fract_x
_atom_site_fract_y
_atom_site_fract_z
C1 C 1.0300(2) 1.08513(16) 0.67370(10)
C2 C 0.77181(18) 0.95993(17) 0.64869(9)
H1 H 0.8121 0.8923 0.6013
C3 C 0.78036(19) 1.11439(17) 0.61040(11)
C4 C 0.7130(2) 1.2367(2) 0.66839(14)
H2 H 0.7548 1.2281 0.7292
H3 H 0.5980 1.2288 0.6700
H4 H 0.7429 1.3320 0.6433
C5 C 0.7074(2) 1.1106(2) 0.51793(11)
H5 H 0.7702 1.0461 0.4784
H6 H 0.7068 1.2104 0.4919
C6 C 0.5376(2) 1.0522(2) 0.52487(12)
H7 H 0.4724 1.1270 0.5553
H8 H 0.4952 1.0399 0.4637
C7 C 0.5199(2) 0.90593(18) 0.57512(11)
H9 H 0.4050 0.8939 0.5877
C8 C 0.60314(19) 0.91520(18) 0.66733(10)
H10 H 0.5508 0.9887 0.7058
H11 H 0.6000 0.8190 0.6979
C9 C 0.5704(2) 0.77097(19) 0.52319(12)
C10 C 0.6081(2) 0.7738(2) 0.43675(14)
H12 H 0.6344 0.6855 0.4067
H13 H 0.6085 0.8643 0.4052
C11 C 0.5695(3) 0.6283(2) 0.57311(15)
H14 H 0.5761 0.5469 0.5305
H15 H 0.4719 0.6201 0.6077
H16 H 0.6600 0.6248 0.6137
O1 O 0.95213(14) 1.14327(13) 0.60441(8)
S1 S 1.21504(5) 1.12257(5) 0.69392(3)
S2 S 0.91887(5) 0.96258(4) 0.73695(2)
loop_
_geom_bond_atom_site_label_1
_geom_bond_atom_site_label_2
_geom_bond_site_symmetry_1
_geom_bond_site_symmetry_2
C1 O1 1_555 1_555
C2 H1 1_555 1_555
C3 C2 1_555 1_555
C4 C3 1_555 1_555
H2 C4 1_555 1_555
H3 C4 1_555 1_555
H4 C4 1_555 1_555
C5 C3 1_555 1_555
H5 C5 1_555 1_555
H6 C5 1_555 1_555
C6 C5 1_555 1_555
H7 C6 1_555 1_555
H8 C6 1_555 1_555
C7 C6 1_555 1_555
H9 C7 1_555 1_555
C8 C2 1_555 1_555
H10 C8 1_555 1_555
H11 C8 1_555 1_555
C9 C7 1_555 1_555
C10 C9 1_555 1_555
H12 C10 1_555 1_555
H13 C10 1_555 1_555
C11 C9 1_555 1_555
H14 C11 1_555 1_555
H15 C11 1_555 1_555
H16 C11 1_555 1_555
O1 C3 1_555 1_555
S1 C1 1_555 1_555
S2 C1 1_555 1_555
C2 S2 1_555 1_555
C7 C8 1_555 1_555

#END
