
#######################################################################
#
#                 Cambridge Crystallographic Data Centre
#                                CCDC 
#
#######################################################################
#
# If this CIF has been generated from an entry in the Cambridge 
# Structural Database, then it will include bibliographic, chemical, 
# crystal, experimental, refinement or atomic coordinate data resulting 
# from the CCDC's data processing and validation procedures.
#
#######################################################################

data_EQAPET
_chemical_formula_moiety         'C16 H18 N2 O3'
_chemical_name_systematic        
'ethyl 2-(4-methoxyphenyl)-2-phenylhydrazinecarboxylate'
_symmetry_cell_setting           orthorhombic
_symmetry_space_group_name_H-M   'P c 21 b'
_symmetry_Int_Tables_number      29
_space_group_name_Hall           'P -2bc -2c'
loop_
_symmetry_equiv_pos_site_id
_symmetry_equiv_pos_as_xyz
1 x,y,z
2 -x,1/2+y,-z
3 -x,y,1/2+z
4 x,1/2+y,1/2-z
_cell_length_a                   9.7693(4)
_cell_length_b                   16.4783(7)
_cell_length_c                   19.4329(7)
_cell_angle_alpha                90
_cell_angle_beta                 90
_cell_angle_gamma                90
_cell_volume                     3128.34
_exptl_crystal_colour            colorless
_exptl_crystal_description       block
_cell_formula_units_Z            8
loop_
_atom_site_label
_atom_site_type_symbol
_atom_site_fract_x
_atom_site_fract_y
_atom_site_fract_z
O1 O 0.7391(2) 0.47773(19) 0.52948(14)
O2 O 0.5673(3) 0.5530(2) 0.57516(17)
O3 O 0.6234(3) 0.11721(19) 0.64285(16)
N1 N 0.5452(3) 0.3832(2) 0.46864(15)
N2 N 0.5174(3) 0.4547(2) 0.50535(18)
H1 H 0.4353 0.4733 0.5077
C1 C 0.5768(3) 0.3878(3) 0.39922(18)
C2 C 0.5851(4) 0.4619(3) 0.3647(2)
H2 H 0.5732 0.5102 0.3888
C3 C 0.6103(5) 0.4635(4) 0.2968(2)
H3 H 0.6183 0.5138 0.2755
C4 C 0.6249(4) 0.3955(4) 0.2571(2)
H4 H 0.6405 0.3985 0.2099
C5 C 0.6152(4) 0.3221(4) 0.2912(2)
H5 H 0.6254 0.2742 0.2665
C6 C 0.5909(3) 0.3180(3) 0.3604(2)
H6 H 0.5839 0.2676 0.3817
C7 C 0.5685(3) 0.3123(2) 0.51142(18)
C8 C 0.6939(3) 0.2726(2) 0.5116(2)
H7 H 0.781(3) 0.2860(19) 0.4817(14)
C9 C 0.7152(3) 0.2070(2) 0.55350(18)
H8 H 0.7984 0.1796 0.5524
C10 C 0.6125(3) 0.1817(2) 0.59734(19)
C11 C 0.4876(4) 0.2222(3) 0.5974(2)
H9 H 0.4182 0.2050 0.6267
C12 C 0.4660(3) 0.2865(3) 0.55523(19)
H10 H 0.3821 0.3132 0.5558
C13 C 0.7467(5) 0.0706(3) 0.6425(3)
H11 H 0.7404 0.0283 0.6763
H12 H 0.8229 0.1051 0.6531
H13 H 0.7595 0.0469 0.5978
C14 C 0.6186(4) 0.4930(3) 0.5361(2)
C15 C 0.6640(6) 0.6074(4) 0.6066(3)
H14 H 0.7562 0.5882 0.5978
H15 H 0.6549 0.6608 0.5862
C16 C 0.6443(10) 0.6129(6) 0.6751(3)
H16 H 0.7082 0.6510 0.6942
H17 H 0.6580 0.5607 0.6958
H18 H 0.5526 0.6311 0.6840
O4 O 0.2416(2) 0.4643(2) 0.54945(15)
O5 O 0.0717(3) 0.54818(19) 0.58556(15)
O6 O 0.1375(3) 0.3913(2) 0.22295(12)
N3 N 0.0424(3) 0.35953(19) 0.50381(15)
N4 N 0.0172(3) 0.43357(18) 0.53748(15)
H19 H -0.0654 0.4486 0.5459
C17 C 0.0707(3) 0.2918(2) 0.54508(17)
C18 C 0.0863(3) 0.2160(2) 0.51542(18)
H20 H 0.102(4) 0.207(2) 0.4667(16)
C19 C 0.1090(4) 0.1491(3) 0.5563(2)
H21 H 0.1220 0.0986 0.5359
C20 C 0.1127(4) 0.1557(3) 0.6268(2)
H22 H 0.1274 0.1102 0.6542
C21 C 0.0944(4) 0.2298(3) 0.6557(2)
H23 H 0.0947 0.2346 0.7034
C22 C 0.0755(4) 0.2982(3) 0.61607(18)
H24 H 0.0660 0.3486 0.6370
C23 C 0.0716(3) 0.3652(2) 0.43190(17)
C24 C -0.0262(3) 0.3975(3) 0.3890(2)
H25 H -0.104(3) 0.409(2) 0.4045(18)
C25 C -0.0027(4) 0.4062(3) 0.3192(2)
H26 H -0.096(4) 0.425(3) 0.289(2)
C26 C 0.1207(3) 0.3803(3) 0.29236(18)
C27 C 0.2203(3) 0.3477(2) 0.33515(17)
H27 H 0.3031 0.3298 0.3171
C28 C 0.1946(3) 0.3421(2) 0.40456(18)
H28 H 0.266(3) 0.325(2) 0.4277(15)
C29 C 0.2572(5) 0.3575(4) 0.1919(2)
H29 H 0.2569 0.3690 0.1435
H30 H 0.2579 0.2998 0.1988
H31 H 0.3373 0.3808 0.2126
C30 C 0.1212(4) 0.4800(3) 0.55624(19)
C31 C 0.1709(5) 0.6021(3) 0.6153(3)
H32 H 0.2512 0.5714 0.6289
H33 H 0.1988 0.6418 0.5812
C32 C 0.1191(9) 0.6406(5) 0.6705(3)
H34 H 0.1866 0.6769 0.6890
H35 H 0.0941 0.6014 0.7049
H36 H 0.0396 0.6709 0.6571
loop_
_geom_bond_atom_site_label_1
_geom_bond_atom_site_label_2
_geom_bond_site_symmetry_1
_geom_bond_site_symmetry_2
O1 C14 1_555 1_555
O2 C14 1_555 1_555
O3 C10 1_555 1_555
N1 N2 1_555 1_555
N2 H1 1_555 1_555
C1 N1 1_555 1_555
C2 C1 1_555 1_555
H2 C2 1_555 1_555
C3 C2 1_555 1_555
H3 C3 1_555 1_555
C4 C3 1_555 1_555
H4 C4 1_555 1_555
C5 C4 1_555 1_555
H5 C5 1_555 1_555
C6 C1 1_555 1_555
H6 C6 1_555 1_555
C7 N1 1_555 1_555
C8 C7 1_555 1_555
H7 C8 1_555 1_555
C9 C8 1_555 1_555
H8 C9 1_555 1_555
C10 C9 1_555 1_555
C11 C10 1_555 1_555
H9 C11 1_555 1_555
C12 C7 1_555 1_555
H10 C12 1_555 1_555
C13 O3 1_555 1_555
H11 C13 1_555 1_555
H12 C13 1_555 1_555
H13 C13 1_555 1_555
C14 N2 1_555 1_555
C15 O2 1_555 1_555
H14 C15 1_555 1_555
H15 C15 1_555 1_555
C16 C15 1_555 1_555
H16 C16 1_555 1_555
H17 C16 1_555 1_555
H18 C16 1_555 1_555
O4 C30 1_555 1_555
O5 C30 1_555 1_555
O6 C26 1_555 1_555
N3 N4 1_555 1_555
N4 H19 1_555 1_555
C17 N3 1_555 1_555
C18 C17 1_555 1_555
H20 C18 1_555 1_555
C19 C18 1_555 1_555
H21 C19 1_555 1_555
C20 C19 1_555 1_555
H22 C20 1_555 1_555
C21 C20 1_555 1_555
H23 C21 1_555 1_555
C22 C17 1_555 1_555
H24 C22 1_555 1_555
C23 N3 1_555 1_555
C24 C23 1_555 1_555
H25 C24 1_555 1_555
C25 C24 1_555 1_555
H26 C25 1_555 1_555
C26 C25 1_555 1_555
C27 C26 1_555 1_555
H27 C27 1_555 1_555
C28 C23 1_555 1_555
H28 C28 1_555 1_555
C29 O6 1_555 1_555
H29 C29 1_555 1_555
H30 C29 1_555 1_555
H31 C29 1_555 1_555
C30 N4 1_555 1_555
C31 O5 1_555 1_555
H32 C31 1_555 1_555
H33 C31 1_555 1_555
C32 C31 1_555 1_555
H34 C32 1_555 1_555
H35 C32 1_555 1_555
H36 C32 1_555 1_555
C5 C6 1_555 1_555
C11 C12 1_555 1_555
C21 C22 1_555 1_555
C27 C28 1_555 1_555

#END
