
#######################################################################
#
#                 Cambridge Crystallographic Data Centre
#                                CCDC 
#
#######################################################################
#
# If this CIF has been generated from an entry in the Cambridge 
# Structural Database, then it will include bibliographic, chemical, 
# crystal, experimental, refinement or atomic coordinate data resulting 
# from the CCDC's data processing and validation procedures.
#
#######################################################################

data_EQATEW
_chemical_formula_moiety         'C23 H27 N1 O7 S1'
_chemical_name_systematic        
'Dimethyl 3-methoxy-3-methyl-1-((4-methylphenyl)sulfonyl)-5-phenylpyrrolidine-2,2-dicarboxylate'
_symmetry_cell_setting           monoclinic
_symmetry_space_group_name_H-M   'P 21/n'
_symmetry_Int_Tables_number      14
_space_group_name_Hall           '-P 2yn'
loop_
_symmetry_equiv_pos_site_id
_symmetry_equiv_pos_as_xyz
1 x,y,z
2 1/2-x,1/2+y,1/2-z
3 -x,-y,-z
4 1/2+x,1/2-y,1/2+z
_cell_length_a                   10.2984(3)
_cell_length_b                   12.7982(3)
_cell_length_c                   17.1922(5)
_cell_angle_alpha                90
_cell_angle_beta                 93.1090(10)
_cell_angle_gamma                90
_cell_volume                     2262.61
_exptl_crystal_colour            colorless
_exptl_crystal_description       block
_cell_formula_units_Z            4
loop_
_atom_site_label
_atom_site_type_symbol
_atom_site_fract_x
_atom_site_fract_y
_atom_site_fract_z
S1 S 0.46714(4) 0.63372(4) 0.24528(3)
O1 O 0.40167(16) 0.69312(13) 0.30134(9)
O2 O 0.56841(13) 0.56292(11) 0.27000(8)
O3 O 0.81461(13) 0.59929(12) 0.09980(9)
O4 O 0.60629(11) 0.55332(9) 0.09944(7)
O5 O 0.72179(15) 0.77070(12) 0.29888(8)
O6 O 0.85832(13) 0.65658(11) 0.24924(8)
O7 O 0.65124(14) 0.78192(10) 0.04469(7)
N1 N 0.53120(14) 0.71522(10) 0.18370(8)
C1 C 0.0390(2) 0.38566(19) 0.07658(13)
H1 H -0.0373 0.4285 0.0694
H2 H 0.0195 0.3257 0.1074
H3 H 0.0663 0.3633 0.0267
C2 C 0.14630(19) 0.44778(16) 0.11769(11)
C3 C 0.26767(19) 0.40401(16) 0.13469(12)
H4 H 0.2825 0.3350 0.1208
C4 C 0.36675(18) 0.46033(14) 0.17161(11)
H5 H 0.4476 0.4297 0.1823
C5 C 0.34511(17) 0.56262(14) 0.19265(10)
C6 C 0.22404(19) 0.60712(16) 0.17748(13)
H6 H 0.2087 0.6756 0.1925
C7 C 0.12633(19) 0.54988(17) 0.14016(14)
H7 H 0.0453 0.5805 0.1299
C8 C 0.36485(17) 0.83832(13) 0.12326(10)
C9 C 0.27250(19) 0.91160(15) 0.14084(12)
H8 H 0.2832 0.9499 0.1867
C10 C 0.1645(2) 0.92888(17) 0.09135(15)
H9 H 0.1032 0.9785 0.1041
C11 C 0.1477(2) 0.87311(18) 0.02355(14)
H10 H 0.0752 0.8849 -0.0099
C12 C 0.2386(2) 0.79972(19) 0.00527(13)
H11 H 0.2273 0.7616 -0.0407
C13 C 0.34626(19) 0.78222(17) 0.05456(12)
H12 H 0.4071 0.7323 0.0417
C14 C 0.67026(16) 0.70749(13) 0.16940(10)
C15 C 0.69537(18) 0.81011(15) 0.12240(11)
C16 C 0.6032(2) 0.88683(15) 0.15738(13)
H13 H 0.5788 0.9411 0.1200
H14 H 0.6444 0.9194 0.2033
C17 C 0.48283(19) 0.82514(13) 0.17915(11)
H15 H 0.4594 0.8470 0.2312
C18 C 0.70662(16) 0.61407(14) 0.11947(10)
C19 C 0.6388(2) 0.45983(15) 0.05718(12)
H16 H 0.5612 0.4201 0.0451
H17 H 0.6989 0.4184 0.0887
H18 H 0.6777 0.4790 0.0098
C20 C 0.75186(18) 0.71423(14) 0.24747(11)
C21 C 0.9436(2) 0.6680(2) 0.31794(14)
H19 H 1.0183 0.6240 0.3137
H20 H 0.8982 0.6482 0.3630
H21 H 0.9710 0.7395 0.3229
C22 C 0.8368(2) 0.84524(18) 0.12589(14)
H22 H 0.8446 0.9080 0.0959
H23 H 0.8896 0.7914 0.1049
H24 H 0.8654 0.8584 0.1791
C23 C 0.6622(3) 0.8591(2) -0.01326(15)
H25 H 0.6303 0.8318 -0.0627
H26 H 0.7518 0.8787 -0.0162
H27 H 0.6120 0.9192 -0.0004
loop_
_geom_bond_atom_site_label_1
_geom_bond_atom_site_label_2
_geom_bond_site_symmetry_1
_geom_bond_site_symmetry_2
S1 O1 1_555 1_555
O2 S1 1_555 1_555
O3 C18 1_555 1_555
O4 C18 1_555 1_555
O5 C20 1_555 1_555
O6 C20 1_555 1_555
O7 C15 1_555 1_555
N1 S1 1_555 1_555
C1 H1 1_555 1_555
H2 C1 1_555 1_555
H3 C1 1_555 1_555
C2 C1 1_555 1_555
C3 C2 1_555 1_555
H4 C3 1_555 1_555
C4 C3 1_555 1_555
H5 C4 1_555 1_555
C5 S1 1_555 1_555
C6 C5 1_555 1_555
H6 C6 1_555 1_555
C7 C2 1_555 1_555
H7 C7 1_555 1_555
C8 C9 1_555 1_555
C9 H8 1_555 1_555
C10 C9 1_555 1_555
H9 C10 1_555 1_555
C11 C10 1_555 1_555
H10 C11 1_555 1_555
C12 C11 1_555 1_555
H11 C12 1_555 1_555
C13 C8 1_555 1_555
H12 C13 1_555 1_555
C14 N1 1_555 1_555
C15 C14 1_555 1_555
C16 C15 1_555 1_555
H13 C16 1_555 1_555
H14 C16 1_555 1_555
C17 N1 1_555 1_555
H15 C17 1_555 1_555
C18 C14 1_555 1_555
C19 O4 1_555 1_555
H16 C19 1_555 1_555
H17 C19 1_555 1_555
H18 C19 1_555 1_555
C20 C14 1_555 1_555
C21 O6 1_555 1_555
H19 C21 1_555 1_555
H20 C21 1_555 1_555
H21 C21 1_555 1_555
C22 C15 1_555 1_555
H22 C22 1_555 1_555
H23 C22 1_555 1_555
H24 C22 1_555 1_555
C23 O7 1_555 1_555
H25 C23 1_555 1_555
H26 C23 1_555 1_555
H27 C23 1_555 1_555
C4 C5 1_555 1_555
C6 C7 1_555 1_555
C8 C17 1_555 1_555
C12 C13 1_555 1_555
C16 C17 1_555 1_555

#END
