
#######################################################################
#
#                 Cambridge Crystallographic Data Centre
#                                CCDC 
#
#######################################################################
#
# If this CIF has been generated from an entry in the Cambridge 
# Structural Database, then it will include bibliographic, chemical, 
# crystal, experimental, refinement or atomic coordinate data resulting 
# from the CCDC's data processing and validation procedures.
#
#######################################################################

data_EQAYOM
_chemical_formula_moiety         'C6 H9 Cl1 N3 1+,C6 H3 O4 S1 1-'
_chemical_name_systematic        
'4-amino-5-chloro-2,6-dimethylpyrimidin-1-ium 5-carboxythiophene-2-carboxylate'
_symmetry_cell_setting           monoclinic
_symmetry_space_group_name_H-M   'P 21/n'
_symmetry_Int_Tables_number      14
_space_group_name_Hall           '-P 2yn'
loop_
_symmetry_equiv_pos_site_id
_symmetry_equiv_pos_as_xyz
1 x,y,z
2 1/2-x,1/2+y,1/2-z
3 -x,-y,-z
4 1/2+x,1/2-y,1/2+z
_cell_length_a                   7.9948(3)
_cell_length_b                   11.3928(4)
_cell_length_c                   15.7757(6)
_cell_angle_alpha                90
_cell_angle_beta                 98.520(2)
_cell_angle_gamma                90
_cell_volume                     1421.04
_exptl_crystal_colour            colorless
_exptl_crystal_description       plate
_cell_formula_units_Z            4
loop_
_atom_site_label
_atom_site_type_symbol
_atom_site_fract_x
_atom_site_fract_y
_atom_site_fract_z
S1 S 0.83375(7) 0.63795(4) 0.43028(4)
O1 O 0.6790(2) 0.57301(14) 0.58125(10)
O2 O 0.6743(2) 0.75418(14) 0.63699(10)
O3 O 1.0617(2) 0.81066(15) 0.26723(10)
H1 H 1.110(5) 0.780(3) 0.214(2)
O4 O 0.9244(3) 0.63757(15) 0.25678(12)
C1 C 0.7104(3) 0.6802(2) 0.58237(14)
C2 C 0.7953(3) 0.7287(2) 0.51203(14)
C3 C 0.8446(3) 0.84283(19) 0.49963(15)
H2 H 0.8325 0.9054 0.5381
C4 C 0.9151(3) 0.85594(18) 0.42313(15)
H3 H 0.9568 0.9282 0.4046
C5 C 0.9166(3) 0.75252(19) 0.37866(14)
C6 C 0.9689(3) 0.7288(2) 0.29484(14)
Cl1 Cl 0.43554(7) 0.14586(5) 0.77201(3)
N1 N 0.6246(2) 0.34003(17) 0.60286(13)
H4 H 0.639(4) 0.413(3) 0.5956(19)
N2 N 0.6059(2) 0.14982(16) 0.54703(13)
N3 N 0.5127(3) -0.00013(17) 0.62434(14)
H5 H 0.512(4) -0.043(3) 0.5793(19)
H6 H 0.478(4) -0.039(3) 0.671(2)
C7 C 0.6450(3) 0.2616(2) 0.54118(15)
C8 C 0.5460(3) 0.1121(2) 0.61845(15)
C9 C 0.5201(3) 0.1938(2) 0.68398(14)
C10 C 0.5592(3) 0.3099(2) 0.67489(15)
C11 C 0.7142(3) 0.3044(2) 0.46395(15)
H7 H 0.6941 0.2453 0.4185
H8 H 0.8360 0.3181 0.4787
H9 H 0.6579 0.3778 0.4439
C12 C 0.5357(3) 0.4046(2) 0.73702(15)
H10 H 0.4198 0.4019 0.7502
H11 H 0.5563 0.4810 0.7120
H12 H 0.6156 0.3931 0.7898
loop_
_geom_bond_atom_site_label_1
_geom_bond_atom_site_label_2
_geom_bond_site_symmetry_1
_geom_bond_site_symmetry_2
S1 C2 1_555 1_555
O1 C1 1_555 1_555
O2 C1 1_555 1_555
O3 H1 1_555 1_555
O4 C6 1_555 1_555
C1 C2 1_555 1_555
C2 C3 1_555 1_555
C3 H2 1_555 1_555
C4 C3 1_555 1_555
H3 C4 1_555 1_555
C5 S1 1_555 1_555
C6 O3 1_555 1_555
Cl1 C9 1_555 1_555
N1 H4 1_555 1_555
N2 C7 1_555 1_555
N3 H5 1_555 1_555
H6 N3 1_555 1_555
C7 N1 1_555 1_555
C8 N2 1_555 1_555
C9 C8 1_555 1_555
C10 N1 1_555 1_555
C11 C7 1_555 1_555
H7 C11 1_555 1_555
H8 C11 1_555 1_555
H9 C11 1_555 1_555
C12 C10 1_555 1_555
H10 C12 1_555 1_555
H11 C12 1_555 1_555
H12 C12 1_555 1_555
C4 C5 1_555 1_555
C5 C6 1_555 1_555
N3 C8 1_555 1_555
C9 C10 1_555 1_555

#END
