
#######################################################################
#
#                 Cambridge Crystallographic Data Centre
#                                CCDC 
#
#######################################################################
#
# If this CIF has been generated from an entry in the Cambridge 
# Structural Database, then it will include bibliographic, chemical, 
# crystal, experimental, refinement or atomic coordinate data resulting 
# from the CCDC's data processing and validation procedures.
#
#######################################################################

data_EQAZUT
_chemical_formula_moiety         'C58 H46 N2 O8,2(C1 H2 Cl2)'
_chemical_name_systematic        
"dimethyl 5',24'-bis(4-methylphenyl)-1,1'',3,3''-tetraoxo-1,1'',3,3''-tetrahydrodispiro[indene-2,23'-[3,26]diazaheptacyclo[13.6.5.0^2,14^.0^3,7^.0^8,13^.0^16,21^.0^22,26^]hexacosa[8,10,12,16,18,20]hexaene-6',2''-indene]-4',25'-dicarboxylate dichloromethane unknown solvate"
_symmetry_cell_setting           triclinic
_symmetry_space_group_name_H-M   'P -1'
_symmetry_Int_Tables_number      2
_space_group_name_Hall           '-P 1'
loop_
_symmetry_equiv_pos_site_id
_symmetry_equiv_pos_as_xyz
1 x,y,z
2 -x,-y,-z
_cell_length_a                   10.7475(5)
_cell_length_b                   15.2939(6)
_cell_length_c                   18.4528(8)
_cell_angle_alpha                106.4990(12)
_cell_angle_beta                 91.8576(13)
_cell_angle_gamma                101.3248(13)
_cell_volume                     2839.02
_exptl_crystal_colour            colorless
_exptl_crystal_description       block
_cell_formula_units_Z            2
loop_
_atom_site_label
_atom_site_type_symbol
_atom_site_fract_x
_atom_site_fract_y
_atom_site_fract_z
C1 C 0.9081(3) 1.2519(2) 0.4057(2)
C2 C 0.9406(4) 1.3307(2) 0.4767(2)
C3 C 0.8699(5) 1.3958(3) 0.5100(3)
H1 H 0.7887 1.3932 0.4892
C4 C 0.9261(7) 1.4656(3) 0.5760(3)
H2 H 0.8813 1.5103 0.5998
C5 C 1.0468(7) 1.4697(3) 0.6069(3)
H3 H 1.0811 1.5169 0.6511
C6 C 1.1166(6) 1.4062(3) 0.5740(2)
H4 H 1.1981 1.4099 0.5947
C7 C 1.0621(4) 1.3354(2) 0.5081(2)
C8 C 1.1164(4) 1.2589(2) 0.4609(2)
C9 C 1.0167(3) 1.2008(2) 0.39530(19)
C10 C 1.0751(3) 1.1875(2) 0.31815(18)
H5 H 1.1591 1.1739 0.3257
C11 C 1.0958(3) 1.2701(2) 0.28730(19)
C12 C 1.0006(4) 1.2895(3) 0.2442(2)
H6 H 0.9195 1.2511 0.2348
C13 C 1.0258(5) 1.3650(3) 0.2154(2)
H7 H 0.9612 1.3760 0.1866
C14 C 1.1453(5) 1.4247(3) 0.2286(2)
C15 C 1.1712(7) 1.5053(4) 0.1955(4)
H8 H 1.2615 1.5269 0.1966
H9 H 1.1350 1.5551 0.2249
H10 H 1.1335 1.4852 0.1440
C16 C 1.2373(4) 1.4067(3) 0.2724(2)
H11 H 1.3173 1.4465 0.2831
C17 C 1.2150(4) 1.3312(3) 0.3012(2)
H12 H 1.2802 1.3211 0.3302
C18 C 0.9758(3) 1.0945(2) 0.39279(18)
H13 H 1.0550 1.0741 0.4000
C19 C 0.8944(3) 1.0732(2) 0.45280(19)
C20 C 0.9480(4) 1.1038(3) 0.5283(2)
H14 H 1.0317 1.1376 0.5400
C21 C 0.8779(5) 1.0843(3) 0.5857(2)
H15 H 0.9139 1.1056 0.6358
C22 C 0.7541(5) 1.0330(3) 0.5679(2)
H16 H 0.7064 1.0192 0.6059
C23 C 0.7016(4) 1.0021(3) 0.4934(2)
H17 H 0.6180 0.9681 0.4820
C24 C 0.7711(4) 1.0208(2) 0.43471(19)
C25 C 0.7077(3) 0.9843(2) 0.35504(19)
H18 H 0.6312 1.0105 0.3562
C26 C 0.7857(3) 1.0155(2) 0.29353(18)
H19 H 0.7546 1.0671 0.2829
C27 C 0.9894(3) 1.0958(2) 0.26561(18)
H20 H 0.9261 1.1113 0.2346
C28 C 1.0698(3) 1.0380(2) 0.2139(2)
C29 C 1.2299(4) 0.9508(3) 0.2095(3)
H21 H 1.1776 0.9035 0.1681
H22 H 1.2677 0.9218 0.2419
H23 H 1.2959 0.9874 0.1900
C30 C 0.6377(3) 0.7636(2) 0.08547(18)
C31 C 0.6582(3) 0.7831(2) 0.0124(2)
C32 C 0.7344(4) 0.7470(3) -0.0430(2)
H24 H 0.7818 0.7044 -0.0367
C33 C 0.7379(5) 0.7754(3) -0.1067(2)
H25 H 0.7905 0.7535 -0.1436
C34 C 0.6635(5) 0.8370(3) -0.1175(2)
H26 H 0.6661 0.8538 -0.1621
C35 C 0.5866(4) 0.8733(3) -0.0638(2)
H27 H 0.5374 0.9143 -0.0711
C36 C 0.5855(3) 0.8458(2) 0.0024(2)
C37 C 0.5164(3) 0.8745(2) 0.0702(2)
C38 C 0.5534(3) 0.8272(2) 0.12822(19)
C39 C 0.4349(3) 0.7717(2) 0.1537(2)
H28 H 0.3761 0.8141 0.1673
C40 C 0.3612(3) 0.6855(3) 0.0950(2)
C41 C 0.3942(4) 0.5990(3) 0.0765(2)
H29 H 0.4650 0.5913 0.1024
C42 C 0.3223(4) 0.5240(3) 0.0196(2)
H30 H 0.3466 0.4668 0.0078
C43 C 0.2155(4) 0.5321(3) -0.0198(3)
C44 C 0.1380(5) 0.4505(4) -0.0808(4)
H31 H 0.0490 0.4498 -0.0767
H32 H 0.1559 0.3937 -0.0750
H33 H 0.1595 0.4559 -0.1296
C45 C 0.1840(5) 0.6179(4) -0.0016(3)
H34 H 0.1133 0.6253 -0.0279
C46 C 0.2542(4) 0.6937(3) 0.0547(3)
H35 H 0.2297 0.7508 0.0658
C47 C 0.6138(3) 0.9004(2) 0.20467(18)
H36 H 0.5815 0.9570 0.2083
C48 C 0.7605(3) 0.9303(2) 0.21967(18)
H37 H 0.7984 0.9481 0.1769
C49 C 0.8178(3) 0.8562(2) 0.23779(18)
C50 C 0.9137(3) 0.8175(2) 0.2027(2)
H38 H 0.9491 0.8362 0.1628
C51 C 0.9571(4) 0.7497(3) 0.2276(2)
H39 H 1.0227 0.7239 0.2048
C52 C 0.9024(4) 0.7209(3) 0.2863(2)
H40 H 0.9311 0.6752 0.3022
C53 C 0.8054(4) 0.7594(3) 0.3217(2)
H41 H 0.7685 0.7395 0.3608
C54 C 0.7644(4) 0.8281(2) 0.29791(19)
C55 C 0.6594(4) 0.8765(2) 0.32733(19)
H42 H 0.6227 0.8541 0.3684
C56 C 0.4910(4) 0.7645(3) 0.2287(2)
H43 H 0.5470 0.7199 0.2212
C57 C 0.3838(8) 0.7436(6) 0.2773(5)
C58 C 0.3156(8) 0.7017(6) 0.3811(5)
H44 H 0.3415 0.7496 0.4286
H45 H 0.3022 0.6415 0.3895
H46 H 0.2377 0.7093 0.3591
N1 N 0.9238(3) 1.04508(19) 0.31494(15)
N2 N 0.5594(3) 0.8611(2) 0.26514(16)
O1 O 0.8116(3) 1.23194(19) 0.36314(17)
O2 O 1.2211(3) 1.2451(2) 0.47142(17)
O3 O 1.0612(3) 1.0206(2) 0.14591(16)
O4 O 1.1525(3) 1.0105(2) 0.25266(15)
O5 O 0.6762(2) 0.70402(17) 0.10532(14)
O6 O 0.4419(3) 0.9254(2) 0.07941(17)
O7 O 0.2810(5) 0.7589(4) 0.2735(3)
O8 O 0.4192(5) 0.7090(4) 0.3272(3)
C59 C 0.5027(9) 0.2180(9) 0.3956(6)
H47 H 0.5671 0.2701 0.3914
H48 H 0.4274 0.2415 0.4117
Cl1 Cl 0.5565(3) 0.1760(3) 0.4617(2)
Cl2 Cl 0.4656(4) 0.1377(3) 0.3091(2)
C60 C 0.8473(7) 0.0680(4) 0.0263(4)
H49 H 0.8996 0.0279 0.0381
H50 H 0.7961 0.0337 -0.0212
Cl3 Cl 0.74575(13) 0.09375(11) 0.09830(8)
Cl4 Cl 0.94548(16) 0.16619(13) 0.01494(10)
loop_
_geom_bond_atom_site_label_1
_geom_bond_atom_site_label_2
_geom_bond_site_symmetry_1
_geom_bond_site_symmetry_2
C1 C2 1_555 1_555
C2 C3 1_555 1_555
C3 H1 1_555 1_555
C4 C3 1_555 1_555
H2 C4 1_555 1_555
C5 C4 1_555 1_555
H3 C5 1_555 1_555
C6 C5 1_555 1_555
H4 C6 1_555 1_555
C7 C2 1_555 1_555
C8 C7 1_555 1_555
C9 C1 1_555 1_555
C10 C9 1_555 1_555
H5 C10 1_555 1_555
C11 C10 1_555 1_555
C12 C11 1_555 1_555
H6 C12 1_555 1_555
C13 C12 1_555 1_555
H7 C13 1_555 1_555
C14 C13 1_555 1_555
C15 C14 1_555 1_555
H8 C15 1_555 1_555
H9 C15 1_555 1_555
H10 C15 1_555 1_555
C16 C14 1_555 1_555
H11 C16 1_555 1_555
C17 C11 1_555 1_555
H12 C17 1_555 1_555
C18 C9 1_555 1_555
H13 C18 1_555 1_555
C19 C18 1_555 1_555
C20 C19 1_555 1_555
H14 C20 1_555 1_555
C21 C20 1_555 1_555
H15 C21 1_555 1_555
C22 C21 1_555 1_555
H16 C22 1_555 1_555
C23 C22 1_555 1_555
H17 C23 1_555 1_555
C24 C19 1_555 1_555
C25 C24 1_555 1_555
H18 C25 1_555 1_555
C26 C25 1_555 1_555
H19 C26 1_555 1_555
C27 C10 1_555 1_555
H20 C27 1_555 1_555
C28 C27 1_555 1_555
C29 H21 1_555 1_555
H22 C29 1_555 1_555
H23 C29 1_555 1_555
C30 C31 1_555 1_555
C31 C32 1_555 1_555
C32 H24 1_555 1_555
C33 C32 1_555 1_555
H25 C33 1_555 1_555
C34 C33 1_555 1_555
H26 C34 1_555 1_555
C35 C34 1_555 1_555
H27 C35 1_555 1_555
C36 C31 1_555 1_555
C37 C36 1_555 1_555
C38 C30 1_555 1_555
C39 C38 1_555 1_555
H28 C39 1_555 1_555
C40 C39 1_555 1_555
C41 C40 1_555 1_555
H29 C41 1_555 1_555
C42 C41 1_555 1_555
H30 C42 1_555 1_555
C43 C42 1_555 1_555
C44 C43 1_555 1_555
H31 C44 1_555 1_555
H32 C44 1_555 1_555
H33 C44 1_555 1_555
C45 C43 1_555 1_555
H34 C45 1_555 1_555
C46 C40 1_555 1_555
H35 C46 1_555 1_555
C47 C38 1_555 1_555
H36 C47 1_555 1_555
C48 C26 1_555 1_555
H37 C48 1_555 1_555
C49 C48 1_555 1_555
C50 C49 1_555 1_555
H38 C50 1_555 1_555
C51 C50 1_555 1_555
H39 C51 1_555 1_555
C52 C51 1_555 1_555
H40 C52 1_555 1_555
C53 C52 1_555 1_555
H41 C53 1_555 1_555
C54 C49 1_555 1_555
C55 C25 1_555 1_555
H42 C55 1_555 1_555
C56 C39 1_555 1_555
H43 C56 1_555 1_555
C57 C56 1_555 1_555
C58 H44 1_555 1_555
H45 C58 1_555 1_555
H46 C58 1_555 1_555
N1 C18 1_555 1_555
N2 C47 1_555 1_555
O1 C1 1_555 1_555
O2 C8 1_555 1_555
O3 C28 1_555 1_555
O4 C28 1_555 1_555
O5 C30 1_555 1_555
O6 C37 1_555 1_555
O7 C57 1_555 1_555
O8 C57 1_555 1_555
C59 H47 1_555 1_555
H48 C59 1_555 1_555
Cl1 C59 1_555 1_555
Cl2 C59 1_555 1_555
C60 H49 1_555 1_555
H50 C60 1_555 1_555
Cl3 C60 1_555 1_555
Cl4 C60 1_555 1_555
C6 C7 1_555 1_555
C8 C9 1_555 1_555
C16 C17 1_555 1_555
C23 C24 1_555 1_555
C26 N1 1_555 1_555
C27 N1 1_555 1_555
C29 O4 1_555 1_555
C35 C36 1_555 1_555
C37 C38 1_555 1_555
C45 C46 1_555 1_555
C47 C48 1_555 1_555
C53 C54 1_555 1_555
C54 C55 1_555 1_555
C55 N2 1_555 1_555
C56 N2 1_555 1_555
C58 O8 1_555 1_555

#END
