
#######################################################################
#
#                 Cambridge Crystallographic Data Centre
#                                CCDC 
#
#######################################################################
#
# If this CIF has been generated from an entry in the Cambridge 
# Structural Database, then it will include bibliographic, chemical, 
# crystal, experimental, refinement or atomic coordinate data resulting 
# from the CCDC's data processing and validation procedures.
#
#######################################################################

data_EQEBAF
_chemical_formula_moiety         'C58 H44 Cl2 N2 O8,C1 H2 Cl2'
_chemical_name_systematic        
"diethyl 5',24'-bis(3-chlorophenyl)-1,1'',3,3''-tetraoxo-1,1'',3,3''-tetrahydrodispiro[indene-2,23'-[3,26]diazaheptacyclo[13.6.5.0^2,14^.0^3,7^.0^8,13^.0^16,21^.0^22,26^]hexacosa[8,10,12,16,18,20]hexaene-6',2''-indene]-4',25'-dicarboxylate dichloromethane solvate"
_symmetry_cell_setting           triclinic
_symmetry_space_group_name_H-M   'P -1'
_symmetry_Int_Tables_number      2
_space_group_name_Hall           '-P 1'
loop_
_symmetry_equiv_pos_site_id
_symmetry_equiv_pos_as_xyz
1 x,y,z
2 -x,-y,-z
_cell_length_a                   12.1561(12)
_cell_length_b                   12.5142(14)
_cell_length_c                   18.372(2)
_cell_angle_alpha                72.952(4)
_cell_angle_beta                 80.265(3)
_cell_angle_gamma                86.171(4)
_cell_volume                     2633.1
_exptl_crystal_colour            'light yellow'
_exptl_crystal_description       block
_cell_formula_units_Z            2
loop_
_atom_site_label
_atom_site_type_symbol
_atom_site_fract_x
_atom_site_fract_y
_atom_site_fract_z
C1 C 0.1970(2) 0.7210(2) 0.79413(15)
H1 H 0.2281 0.7960 0.7795
C2 C 0.0682(2) 0.7329(2) 0.79810(16)
H2 H 0.0519 0.8130 0.7780
C3 C -0.0016(2) 0.6948(2) 0.87693(16)
C4 C -0.1185(2) 0.6950(2) 0.88422(17)
H3 H -0.1519 0.7182 0.8400
C5 C -0.1848(3) 0.6620(3) 0.95500(19)
H4 H -0.2621 0.6629 0.9583
C6 C -0.1366(2) 0.6273(2) 1.02132(18)
H5 H -0.1813 0.6042 1.0693
C7 C -0.0226(2) 0.6270(2) 1.01618(17)
H6 H 0.0097 0.6032 1.0608
C8 C 0.0459(2) 0.6624(2) 0.94383(16)
C9 C 0.1696(2) 0.6559(2) 0.94146(15)
H7 H 0.1848 0.5834 0.9773
C10 C 0.3500(2) 0.6814(2) 0.86897(16)
H8 H 0.3742 0.7470 0.8258
C11 C 0.4295(2) 0.5836(3) 0.86520(18)
C12 C 0.6011(4) 0.5314(4) 0.7997(3)
H9 H 0.5743 0.4758 0.7799
H10 H 0.6239 0.4940 0.8492
C13 C 0.6960(3) 0.5925(4) 0.7449(3)
H11 H 0.6716 0.6308 0.6967
H12 H 0.7551 0.5404 0.7366
H13 H 0.7228 0.6459 0.7658
C14 C 0.1998(2) 0.8674(2) 0.92726(16)
C15 C 0.1641(2) 0.9243(2) 0.98721(16)
C16 C 0.1341(2) 1.0363(2) 0.97797(19)
H14 H 0.1347 1.0863 0.9292
C17 C 0.1036(2) 1.0708(3) 1.0431(2)
H15 H 0.0837 1.1454 1.0382
C18 C 0.1020(3) 0.9956(3) 1.1170(2)
H16 H 0.0808 1.0208 1.1603
C19 C 0.1317(3) 0.8845(3) 1.12613(18)
H17 H 0.1311 0.8346 1.1750
C20 C 0.1625(2) 0.8493(2) 1.06047(16)
C21 C 0.1995(2) 0.7365(2) 1.05334(16)
C22 C 0.2269(2) 0.7446(2) 0.96732(15)
C23 C 0.3497(2) 0.7080(2) 0.94609(16)
H18 H 0.3614 0.6366 0.9843
C24 C 0.4386(2) 0.7850(2) 0.94830(16)
C25 C 0.4827(2) 0.7646(2) 1.01593(17)
H19 H 0.4594 0.7033 1.0576
C26 C 0.5617(2) 0.8359(3) 1.02133(18)
C27 C 0.5992(3) 0.9257(3) 0.9607(2)
H20 H 0.6523 0.9726 0.9652
C28 C 0.5570(3) 0.9452(3) 0.8930(2)
H21 H 0.5830 1.0051 0.8512
C29 C 0.4763(3) 0.8772(3) 0.88584(18)
H22 H 0.4473 0.8926 0.8400
C30 C 0.0347(2) 0.6767(3) 0.74033(16)
H23 H -0.0467 0.6784 0.7435
C31 C 0.0787(2) 0.5580(3) 0.75674(15)
C32 C 0.0176(3) 0.4617(3) 0.77412(16)
H24 H -0.0598 0.4658 0.7783
C33 C 0.0727(3) 0.3595(3) 0.78507(18)
H25 H 0.0322 0.2947 0.7960
C34 C 0.1870(3) 0.3524(3) 0.78004(19)
H26 H 0.2232 0.2831 0.7870
C35 C 0.2489(3) 0.4483(3) 0.76463(17)
H27 H 0.3259 0.4433 0.7633
C36 C 0.1944(2) 0.5514(2) 0.75136(15)
C37 C 0.2456(2) 0.6639(2) 0.73072(16)
H28 H 0.3271 0.6572 0.7258
C38 C 0.2094(2) 0.7397(3) 0.65499(16)
H29 H 0.2354 0.8152 0.6476
C39 C 0.0495(3) 0.7277(4) 0.59715(19)
H30 H 0.0389 0.6470 0.6093
C40 C -0.0597(8) 0.7936(11) 0.5805(6)
O1 O -0.1064(5) 0.8443(6) 0.6341(3)
O2 O -0.1171(6) 0.7836(10) 0.5366(5)
C41 C -0.2061(7) 0.9188(9) 0.6250(4)
H31 H -0.2658 0.8822 0.6131
H32 H -0.1884 0.9875 0.5842
C42 C -0.2394(9) 0.9423(9) 0.7029(5)
H33 H -0.2646 0.8747 0.7415
H34 H -0.2985 0.9976 0.6996
H35 H -0.1762 0.9695 0.7167
C43 C 0.2734(3) 0.5855(3) 0.58630(18)
C44 C 0.4043(4) 0.5892(5) 0.5772(5)
C45 C 0.4791(6) 0.4992(5) 0.5905(4)
H36 H 0.4527 0.4267 0.6104
C46 C 0.5933(6) 0.5176(6) 0.5742(4)
H37 H 0.6433 0.4574 0.5831
C47 C 0.6327(4) 0.6260(8) 0.5445(4)
H38 H 0.7092 0.6383 0.5335
C48 C 0.5580(4) 0.7160(6) 0.5311(4)
H39 H 0.5843 0.7885 0.5113
C49 C 0.4437(4) 0.6976(5) 0.5475(4)
C50 C 0.3602(3) 0.7652(4) 0.5421(2)
C51 C 0.2479(3) 0.7098(3) 0.57748(16)
C52 C 0.1507(3) 0.7563(3) 0.53281(17)
H40 H 0.1565 0.8379 0.5162
C53 C 0.1491(3) 0.7204(3) 0.46134(18)
C54 C 0.2333(3) 0.7570(3) 0.39854(17)
H41 H 0.2888 0.8027 0.4013
C55 C 0.2348(3) 0.7260(3) 0.33235(18)
C56 C 0.1536(3) 0.6597(3) 0.32540(19)
H42 H 0.1555 0.6399 0.2802
C57 C 0.0697(3) 0.6235(3) 0.38668(19)
H43 H 0.0134 0.5795 0.3829
C58 C 0.0687(3) 0.6525(3) 0.4544(2)
H44 H 0.0127 0.6255 0.4960
Cl1 Cl 0.61313(8) 0.80799(8) 1.10818(6)
Cl2 Cl 0.34355(10) 0.76833(10) 0.25555(5)
N1 N 0.23446(18) 0.65479(18) 0.86709(13)
N2 N 0.0869(2) 0.7458(2) 0.66387(14)
O3 O 0.4204(2) 0.4918(2) 0.90740(17)
O4 O 0.51388(19) 0.6152(2) 0.80768(15)
O5 O 0.2070(2) 0.91143(17) 0.85853(12)
O6 O 0.20885(17) 0.65224(17) 1.10581(11)
O7 O 0.2069(3) 0.5164(2) 0.58917(13)
O8 O 0.3721(3) 0.8650(3) 0.51220(16)
C68 C 0.5603(6) 0.9997(5) 0.3734(3)
H55 H 0.6396 0.9987 0.3753
H56 H 0.5211 0.9770 0.4259
Cl3 Cl 0.51718(10) 1.13656(12) 0.32685(6)
Cl4 Cl 0.53351(13) 0.90533(13) 0.32525(8)
H45? H 0.0167 0.6546 0.6059
C59? C -0.0361(11) 0.8392(12) 0.5698(9)
O9? O -0.1242(8) 0.7997(10) 0.6096(6)
O10? O -0.0128(6) 0.9248(7) 0.5223(4)
C60? C -0.2049(12) 0.8951(14) 0.5898(9)
H46? H -0.2748 0.8701 0.5821
H47? H -0.1742 0.9522 0.5437
C61? C -0.2212(15) 0.9387(14) 0.6607(11)
H48? H -0.2261 0.8766 0.7065
H49? H -0.2888 0.9828 0.6620
H50? H -0.1591 0.9838 0.6581
C62? C 0.3829(4) 0.5502(9) 0.5890(6)
C63? C 0.4341(6) 0.4452(8) 0.6087(5)
H51? H 0.3910 0.3813 0.6263
C64? C 0.5497(6) 0.4357(10) 0.6021(5)
H52? H 0.5839 0.3655 0.6153
C65? C 0.6141(4) 0.5312(11) 0.5758(6)
H53? H 0.6914 0.5248 0.5714
C66? C 0.5629(5) 0.6361(10) 0.5561(5)
H54? H 0.6059 0.7000 0.5385
C67? C 0.4473(6) 0.6456(9) 0.5627(5)
loop_
_geom_bond_atom_site_label_1
_geom_bond_atom_site_label_2
_geom_bond_site_symmetry_1
_geom_bond_site_symmetry_2
C1 H1 1_555 1_555
C2 C1 1_555 1_555
H2 C2 1_555 1_555
C3 C2 1_555 1_555
C4 C3 1_555 1_555
H3 C4 1_555 1_555
C5 C4 1_555 1_555
H4 C5 1_555 1_555
C6 C5 1_555 1_555
H5 C6 1_555 1_555
C7 C6 1_555 1_555
H6 C7 1_555 1_555
C8 C3 1_555 1_555
C9 C8 1_555 1_555
H7 C9 1_555 1_555
C10 H8 1_555 1_555
C11 C10 1_555 1_555
C12 H9 1_555 1_555
H10 C12 1_555 1_555
C13 C12 1_555 1_555
H11 C13 1_555 1_555
H12 C13 1_555 1_555
H13 C13 1_555 1_555
C14 C15 1_555 1_555
C15 C16 1_555 1_555
C16 H14 1_555 1_555
C17 C16 1_555 1_555
H15 C17 1_555 1_555
C18 C17 1_555 1_555
H16 C18 1_555 1_555
C19 C18 1_555 1_555
H17 C19 1_555 1_555
C20 C15 1_555 1_555
C21 C20 1_555 1_555
C22 C9 1_555 1_555
C23 C10 1_555 1_555
H18 C23 1_555 1_555
C24 C23 1_555 1_555
C25 C24 1_555 1_555
H19 C25 1_555 1_555
C26 C25 1_555 1_555
C27 C26 1_555 1_555
H20 C27 1_555 1_555
C28 C27 1_555 1_555
H21 C28 1_555 1_555
C29 C24 1_555 1_555
H22 C29 1_555 1_555
C30 C2 1_555 1_555
H23 C30 1_555 1_555
C31 C30 1_555 1_555
C32 C31 1_555 1_555
H24 C32 1_555 1_555
C33 C32 1_555 1_555
H25 C33 1_555 1_555
C34 C33 1_555 1_555
H26 C34 1_555 1_555
C35 C34 1_555 1_555
H27 C35 1_555 1_555
C36 C31 1_555 1_555
C37 C1 1_555 1_555
H28 C37 1_555 1_555
C38 C37 1_555 1_555
H29 C38 1_555 1_555
C39 H30 1_555 1_555
C40 C39 1_555 1_555
O1 C40 1_555 1_555
O2 C40 1_555 1_555
C41 O1 1_555 1_555
H31 C41 1_555 1_555
H32 C41 1_555 1_555
C42 C41 1_555 1_555
H33 C42 1_555 1_555
H34 C42 1_555 1_555
H35 C42 1_555 1_555
C43 C44 1_555 1_555
C44 C45 1_555 1_555
C45 H36 1_555 1_555
C46 C45 1_555 1_555
H37 C46 1_555 1_555
C47 C46 1_555 1_555
H38 C47 1_555 1_555
C48 C47 1_555 1_555
H39 C48 1_555 1_555
C49 C44 1_555 1_555
C50 C49 1_555 1_555
C51 C38 1_555 1_555
C52 C39 1_555 1_555
H40 C52 1_555 1_555
C53 C52 1_555 1_555
C54 C53 1_555 1_555
H41 C54 1_555 1_555
C55 C54 1_555 1_555
C56 C55 1_555 1_555
H42 C56 1_555 1_555
C57 C56 1_555 1_555
H43 C57 1_555 1_555
C58 C53 1_555 1_555
H44 C58 1_555 1_555
Cl1 C26 1_555 1_555
Cl2 C55 1_555 1_555
N1 C1 1_555 1_555
N2 C30 1_555 1_555
O3 C11 1_555 1_555
O4 C11 1_555 1_555
O5 C14 1_555 1_555
O6 C21 1_555 1_555
O7 C43 1_555 1_555
O8 C50 1_555 1_555
C68 H55 1_555 1_555
H56 C68 1_555 1_555
Cl3 C68 1_555 1_555
Cl4 C68 1_555 1_555
C7 C8 1_555 1_555
C9 N1 1_555 1_555
C10 N1 1_555 1_555
C12 O4 1_555 1_555
C14 C22 1_555 1_555
C19 C20 1_555 1_555
C21 C22 1_555 1_555
C22 C23 1_555 1_555
C28 C29 1_555 1_555
C35 C36 1_555 1_555
C36 C37 1_555 1_555
C38 N2 1_555 1_555
C39 N2 1_555 1_555
C43 C51 1_555 1_555
C48 C49 1_555 1_555
C50 C51 1_555 1_555
C51 C52 1_555 1_555
C57 C58 1_555 1_555

#END
