
#######################################################################
#
#                 Cambridge Crystallographic Data Centre
#                                CCDC 
#
#######################################################################
#
# If this CIF has been generated from an entry in the Cambridge 
# Structural Database, then it will include bibliographic, chemical, 
# crystal, experimental, refinement or atomic coordinate data resulting 
# from the CCDC's data processing and validation procedures.
#
#######################################################################

data_EQEBEJ
_chemical_formula_moiety         'C60 H50 N2 O8'
_chemical_name_systematic        
"diethyl 5',24'-bis(4-methylphenyl)-1,1'',3,3''-tetraoxo-1,1'',3,3''-tetrahydrodispiro[indene-2,23'-[3,26]diazaheptacyclo[13.6.5.0^2,14^.0^3,7^.0^8,13^.0^16,21^.0^22,26^]hexacosa[8,10,12,16,18,20]hexaene-6',2''-indene]-4',25'-dicarboxylate"
_symmetry_cell_setting           triclinic
_symmetry_space_group_name_H-M   'P -1'
_symmetry_Int_Tables_number      2
_space_group_name_Hall           '-P 1'
loop_
_symmetry_equiv_pos_site_id
_symmetry_equiv_pos_as_xyz
1 x,y,z
2 -x,-y,-z
_cell_length_a                   13.2141(7)
_cell_length_b                   14.5785(8)
_cell_length_c                   15.5709(9)
_cell_angle_alpha                86.9983(16)
_cell_angle_beta                 65.9210(15)
_cell_angle_gamma                64.2557(15)
_cell_volume                     2438.17
_exptl_crystal_colour            'light green'
_exptl_crystal_description       block
_cell_formula_units_Z            2
loop_
_atom_site_label
_atom_site_type_symbol
_atom_site_fract_x
_atom_site_fract_y
_atom_site_fract_z
C1 C 0.07564(19) 0.12972(16) 0.52630(18)
C2 C 0.0775(2) 0.10491(17) 0.61927(18)
C3 C 0.0176(2) 0.05566(19) 0.68423(19)
H1 H -0.0320 0.0330 0.6724
C4 C 0.0339(3) 0.0414(2) 0.7668(2)
H2 H -0.0048 0.0080 0.8109
C5 C 0.1074(3) 0.07613(19) 0.78538(19)
H3 H 0.1160 0.0664 0.8420
C6 C 0.1673(2) 0.12464(18) 0.72058(17)
H4 H 0.2162 0.1479 0.7327
C7 C 0.1526(2) 0.13776(17) 0.63678(17)
C8 C 0.21065(19) 0.18121(17) 0.55388(16)
C9 C 0.17083(18) 0.17008(16) 0.47720(16)
C10 C 0.28717(19) 0.09929(17) 0.38582(16)
H5 H 0.3556 0.1130 0.3808
C11 C 0.33268(19) -0.01582(17) 0.38296(17)
C12 C 0.44258(19) -0.07630(17) 0.39027(16)
H6 H 0.4879 -0.0454 0.3971
C13 C 0.4869(2) -0.18220(18) 0.38763(18)
H7 H 0.5619 -0.2209 0.3917
C14 C 0.4215(2) -0.23104(18) 0.37907(19)
C15 C 0.4687(3) -0.34577(19) 0.3760(2)
H8 H 0.5531 -0.3802 0.3284
H9 H 0.4178 -0.3667 0.3606
H10 H 0.4655 -0.3635 0.4370
C16 C 0.3111(2) -0.1706(2) 0.3726(2)
H11 H 0.2651 -0.2013 0.3668
C17 C 0.2678(2) -0.06581(19) 0.3747(2)
H12 H 0.1930 -0.0274 0.3704
C18 C 0.12164(18) 0.27177(16) 0.43508(16)
H13 H 0.1788 0.3014 0.4251
C19 C -0.00610(18) 0.35435(16) 0.49709(16)
C20 C -0.0212(2) 0.41403(17) 0.57273(17)
H14 H 0.0477 0.4015 0.5834
C21 C -0.1357(2) 0.49105(18) 0.63185(18)
H15 H -0.1448 0.5297 0.6825
C22 C -0.2371(2) 0.50977(18) 0.61448(18)
H16 H -0.3151 0.5616 0.6539
C23 C -0.2242(2) 0.45276(17) 0.53957(17)
H17 H -0.2935 0.4668 0.5289
C24 C -0.10785(18) 0.37364(16) 0.47895(16)
C25 C -0.09690(18) 0.30917(16) 0.39948(16)
H18 H -0.1357 0.2649 0.4297
C26 C 0.03767(18) 0.23665(16) 0.32654(16)
H19 H 0.0485 0.1658 0.3286
C27 C 0.25357(19) 0.14353(18) 0.30219(17)
H20 H 0.2394 0.0946 0.2735
O1 O 0.4697(3) 0.0951(3) 0.2027(3)
O2 O 0.3425(3) 0.2501(3) 0.2078(3)
C28 C 0.3639(4) 0.1550(4) 0.2288(4)
C29 C 0.4456(6) 0.2729(5) 0.1375(5)
H21 H 0.4202 0.3464 0.1420
H22 H 0.5205 0.2387 0.1474
C30 C 0.4639(6) 0.2302(6) 0.0453(5)
H23 H 0.5017 0.1564 0.0386
H24 H 0.5171 0.2512 -0.0056
H25 H 0.3850 0.2553 0.0429
C31 C -0.01626(19) 0.33293(17) 0.05822(16)
C32 C 0.1130(2) 0.28405(17) -0.01642(16)
C33 C 0.1860(2) 0.3293(2) -0.07050(18)
H26 H 0.1548 0.4006 -0.0645
C34 C 0.3065(3) 0.2656(2) -0.1336(2)
H27 H 0.3577 0.2943 -0.1703
C35 C 0.3532(3) 0.1586(2) -0.1433(2)
H28 H 0.4352 0.1173 -0.1858
C36 C 0.2795(2) 0.1132(2) -0.09087(18)
H29 H 0.3101 0.0420 -0.0982
C37 C 0.1587(2) 0.17713(17) -0.02699(16)
C38 C 0.0607(2) 0.15108(17) 0.03833(16)
C39 C -0.04498(18) 0.24776(16) 0.10848(16)
C40 C -0.17976(18) 0.26630(17) 0.13891(16)
H30 H -0.1818 0.2010 0.1547
C41 C -0.22867(19) 0.29749(18) 0.06347(17)
C42 C -0.2012(2) 0.2220(2) -0.0037(2)
H31 H -0.1577 0.1532 0.0005
C43 C -0.2372(3) 0.2467(3) -0.0773(2)
H32 H -0.2167 0.1940 -0.1218
C44 C -0.3029(2) 0.3479(3) -0.0859(2)
C45 C -0.3386(3) 0.3734(4) -0.1688(2)
H33 H -0.3918 0.3438 -0.1662
H34 H -0.2649 0.3456 -0.2277
H35 H -0.3816 0.4468 -0.1647
C46 C -0.3331(2) 0.4226(2) -0.0180(2)
H36 H -0.3791 0.4912 -0.0212
C47 C -0.2969(2) 0.3986(2) 0.0560(2)
H37 H -0.3190 0.4514 0.1011
C48 C -0.16840(18) 0.37419(16) 0.34276(16)
H38 H -0.2547 0.4201 0.3862
C49 C -0.10420(19) 0.43606(16) 0.28757(16)
C50 C -0.1524(2) 0.54220(17) 0.29558(18)
H39 H -0.2340 0.5840 0.3385
C51 C -0.0779(2) 0.58551(19) 0.23902(19)
H40 H -0.1099 0.6568 0.2439
C52 C 0.0430(2) 0.5240(2) 0.17575(19)
H41 H 0.0918 0.5540 0.1377
C53 C 0.0925(2) 0.41771(19) 0.16827(17)
H42 H 0.1747 0.3764 0.1260
C54 C 0.01860(18) 0.37336(16) 0.22444(16)
C55 C 0.05341(18) 0.26114(16) 0.22454(15)
H43 H 0.1389 0.2190 0.1774
C56 C -0.03800(18) 0.23613(16) 0.20655(16)
H44 H -0.0177 0.1643 0.2157
C57 C -0.24945(18) 0.33956(17) 0.23251(16)
H45 H -0.2633 0.4096 0.2199
C58 C -0.37154(19) 0.34041(17) 0.30083(17)
C59 C -0.4661(2) 0.23335(18) 0.3731(2)
H46 H -0.5381 0.2600 0.3593
H47 H -0.4898 0.2690 0.4342
C60 C -0.4180(2) 0.11996(18) 0.3746(2)
H48 H -0.3982 0.0861 0.3146
H49 H -0.4803 0.1067 0.4247
H50 H -0.3445 0.0942 0.3854
N1 N 0.13912(15) 0.24056(13) 0.34126(13)
N2 N -0.16433(14) 0.29968(13) 0.27913(13)
O3 O 0.00835(13) 0.12061(12) 0.49617(12)
O4 O 0.28075(13) 0.21732(12) 0.54636(11)
O5 O -0.08995(13) 0.42392(11) 0.07402(11)
O6 O 0.06344(15) 0.06605(12) 0.04012(12)
O7 O -0.45948(16) 0.41404(13) 0.35507(18)
O8 O -0.36567(14) 0.24731(12) 0.29929(13)
H51? H 0.2330 0.0953 0.2796
O9? O 0.4098(6) 0.0928(5) 0.1434(5)
O10? O 0.3905(5) 0.2085(4) 0.2382(4)
C61? C 0.3589(7) 0.1482(7) 0.2186(6)
C62? C 0.4892(6) 0.2213(6) 0.1565(7)
H52? H 0.5276 0.1656 0.1049
H53? H 0.5528 0.2166 0.1751
C63? C 0.4409(8) 0.3227(7) 0.1214(7)
H54? H 0.3857 0.3771 0.1748
H55? H 0.3967 0.3202 0.0863
H56? H 0.5093 0.3356 0.0809
loop_
_geom_bond_atom_site_label_1
_geom_bond_atom_site_label_2
_geom_bond_site_symmetry_1
_geom_bond_site_symmetry_2
C1 C2 1_555 1_555
C2 C3 1_555 1_555
C3 H1 1_555 1_555
C4 C3 1_555 1_555
H2 C4 1_555 1_555
C5 C4 1_555 1_555
H3 C5 1_555 1_555
C6 C5 1_555 1_555
H4 C6 1_555 1_555
C7 C2 1_555 1_555
C8 C7 1_555 1_555
C9 C1 1_555 1_555
C10 C9 1_555 1_555
H5 C10 1_555 1_555
C11 C10 1_555 1_555
C12 C11 1_555 1_555
H6 C12 1_555 1_555
C13 C12 1_555 1_555
H7 C13 1_555 1_555
C14 C13 1_555 1_555
C15 C14 1_555 1_555
H8 C15 1_555 1_555
H9 C15 1_555 1_555
H10 C15 1_555 1_555
C16 C14 1_555 1_555
H11 C16 1_555 1_555
C17 C11 1_555 1_555
H12 C17 1_555 1_555
C18 C9 1_555 1_555
H13 C18 1_555 1_555
C19 C18 1_555 1_555
C20 C19 1_555 1_555
H14 C20 1_555 1_555
C21 C20 1_555 1_555
H15 C21 1_555 1_555
C22 C21 1_555 1_555
H16 C22 1_555 1_555
C23 C22 1_555 1_555
H17 C23 1_555 1_555
C24 C19 1_555 1_555
C25 C24 1_555 1_555
H18 C25 1_555 1_555
C26 C25 1_555 1_555
H19 C26 1_555 1_555
C27 C10 1_555 1_555
H20 C27 1_555 1_555
O1 C28 1_555 1_555
O2 C28 1_555 1_555
C28 C27 1_555 1_555
C29 O2 1_555 1_555
H21 C29 1_555 1_555
H22 C29 1_555 1_555
C30 C29 1_555 1_555
H23 C30 1_555 1_555
H24 C30 1_555 1_555
H25 C30 1_555 1_555
C31 C32 1_555 1_555
C32 C33 1_555 1_555
C33 H26 1_555 1_555
C34 C33 1_555 1_555
H27 C34 1_555 1_555
C35 C34 1_555 1_555
H28 C35 1_555 1_555
C36 C35 1_555 1_555
H29 C36 1_555 1_555
C37 C32 1_555 1_555
C38 C37 1_555 1_555
C39 C31 1_555 1_555
C40 C39 1_555 1_555
H30 C40 1_555 1_555
C41 C40 1_555 1_555
C42 C41 1_555 1_555
H31 C42 1_555 1_555
C43 C42 1_555 1_555
H32 C43 1_555 1_555
C44 C43 1_555 1_555
C45 C44 1_555 1_555
H33 C45 1_555 1_555
H34 C45 1_555 1_555
H35 C45 1_555 1_555
C46 C44 1_555 1_555
H36 C46 1_555 1_555
C47 C41 1_555 1_555
H37 C47 1_555 1_555
C48 C25 1_555 1_555
H38 C48 1_555 1_555
C49 C48 1_555 1_555
C50 C49 1_555 1_555
H39 C50 1_555 1_555
C51 C50 1_555 1_555
H40 C51 1_555 1_555
C52 C51 1_555 1_555
H41 C52 1_555 1_555
C53 C52 1_555 1_555
H42 C53 1_555 1_555
C54 C49 1_555 1_555
C55 C26 1_555 1_555
H43 C55 1_555 1_555
C56 C39 1_555 1_555
H44 C56 1_555 1_555
C57 C40 1_555 1_555
H45 C57 1_555 1_555
C58 C57 1_555 1_555
C59 H46 1_555 1_555
H47 C59 1_555 1_555
C60 C59 1_555 1_555
H48 C60 1_555 1_555
H49 C60 1_555 1_555
H50 C60 1_555 1_555
N1 C18 1_555 1_555
N2 C48 1_555 1_555
O3 C1 1_555 1_555
O4 C8 1_555 1_555
O5 C31 1_555 1_555
O6 C38 1_555 1_555
O7 C58 1_555 1_555
O8 C58 1_555 1_555
C6 C7 1_555 1_555
C8 C9 1_555 1_555
C16 C17 1_555 1_555
C23 C24 1_555 1_555
C26 N1 1_555 1_555
C27 N1 1_555 1_555
C36 C37 1_555 1_555
C38 C39 1_555 1_555
C46 C47 1_555 1_555
C53 C54 1_555 1_555
C54 C55 1_555 1_555
C55 C56 1_555 1_555
C56 N2 1_555 1_555
C57 N2 1_555 1_555
C59 O8 1_555 1_555

#END
