
#######################################################################
#
#                 Cambridge Crystallographic Data Centre
#                                CCDC 
#
#######################################################################
#
# If this CIF has been generated from an entry in the Cambridge 
# Structural Database, then it will include bibliographic, chemical, 
# crystal, experimental, refinement or atomic coordinate data resulting 
# from the CCDC's data processing and validation procedures.
#
#######################################################################

data_EQECOU
_chemical_formula_moiety         'C31 H36 Cl1 N3 O2 S1'
_chemical_name_systematic        
N-(4-chloro-2-((diphenylmethylene)amino)-4-methyl-1-oxo-1-(piperidin-1-yl)pentan-3-yl)-4-methylbenzenesulfinamide
_symmetry_cell_setting           monoclinic
_symmetry_space_group_name_H-M   'P 21'
_symmetry_Int_Tables_number      4
_space_group_name_Hall           'P 2yb'
loop_
_symmetry_equiv_pos_site_id
_symmetry_equiv_pos_as_xyz
1 x,y,z
2 -x,1/2+y,-z
_cell_length_a                   10.4511(7)
_cell_length_b                   9.1426(6)
_cell_length_c                   16.1139(11)
_cell_angle_alpha                90
_cell_angle_beta                 105.8580(10)
_cell_angle_gamma                90
_cell_volume                     1481.09
_exptl_crystal_colour            colorless
_exptl_crystal_description       prism
_cell_formula_units_Z            2
loop_
_atom_site_label
_atom_site_type_symbol
_atom_site_fract_x
_atom_site_fract_y
_atom_site_fract_z
S1 S 0.75136(8) 0.22670(8) 0.07398(4)
Cl1 Cl 0.60076(7) 0.77285(7) 0.07693(4)
N1 N 0.78339(17) 0.3798(2) 0.13052(10)
H1 H 0.847(3) 0.388(4) 0.166(2)
O1 O 0.7973(4) 0.2381(4) -0.00478(14)
C1 C 0.7214(2) 0.6276(2) 0.07531(14)
N2 N 0.80683(14) 0.54064(19) 0.27438(9)
O2 O 0.66013(15) 0.31327(18) 0.30108(10)
C2 C 0.68575(18) 0.4941(2) 0.12423(11)
H2 H 0.5983 0.4552 0.0891
N3 N 0.46536(16) 0.3905(2) 0.21162(12)
C3 C 0.8788(2) 0.1239(3) 0.14818(15)
C4 C 0.9814(3) 0.0666(3) 0.11981(16)
H3 H 0.9844 0.0817 0.0621
C5 C 1.0807(2) -0.0140(3) 0.17705(17)
H4 H 1.1522 -0.0526 0.1581
C6 C 1.0765(2) -0.0386(2) 0.26132(15)
C7 C 0.9693(2) 0.0181(3) 0.28739(16)
H5 H 0.9640 0.0002 0.3444
C8 C 0.8709(2) 0.0997(3) 0.23190(16)
H6 H 0.7991 0.1385 0.2506
C9 C 1.1844(2) -0.1224(3) 0.32378(19)
H7 H 1.1446 -0.1999 0.3506
H8 H 1.2351 -0.0560 0.3685
H9 H 1.2439 -0.1660 0.2930
C10 C 0.67223(17) 0.5267(2) 0.21588(11)
H10 H 0.6224 0.6203 0.2152
C11 C 0.82202(16) 0.6020(2) 0.34786(11)
C12 C 0.95694(16) 0.6103(2) 0.40860(11)
C13 C 1.05794(16) 0.5149(2) 0.40030(11)
H11 H 1.0402 0.4446 0.3552
C14 C 1.18409(17) 0.5231(2) 0.45813(12)
H12 H 1.2520 0.4578 0.4526
C15 C 1.21090(17) 0.6265(2) 0.52378(12)
H13 H 1.2974 0.6322 0.5627
C16 C 1.11222(18) 0.7211(2) 0.53275(12)
H14 H 1.1308 0.7918 0.5777
C17 C 0.98469(17) 0.7123(2) 0.47537(12)
H15 H 0.9166 0.7763 0.4821
C18 C 0.70977(16) 0.6647(2) 0.37869(11)
C19 C 0.6672(2) 0.5902(2) 0.44153(14)
H16 H 0.7094 0.5013 0.4646
C20 C 0.5633(2) 0.6449(3) 0.47080(17)
H17 H 0.5342 0.5932 0.5134
C21 C 0.50211(19) 0.7754(3) 0.43757(15)
H18 H 0.4311 0.8130 0.4575
C22 C 0.5447(2) 0.8503(2) 0.37546(14)
H19 H 0.5026 0.9394 0.3528
C23 C 0.64911(18) 0.7960(2) 0.34574(12)
H20 H 0.6785 0.8482 0.3034
C24 C 0.59853(18) 0.4008(2) 0.24705(11)
C25 C 0.38158(18) 0.4935(2) 0.15055(12)
H21 H 0.3362 0.4414 0.0967
H22 H 0.4378 0.5712 0.1361
C26 C 0.2782(3) 0.5619(3) 0.18953(16)
H23 H 0.3234 0.6230 0.2397
H24 H 0.2183 0.6258 0.1463
C27 C 0.1974(3) 0.4440(5) 0.2180(2)
H25 H 0.1452 0.3894 0.1668
H26 H 0.1344 0.4898 0.2461
C28 C 0.2876(3) 0.3387(4) 0.28049(18)
H27 H 0.3325 0.3911 0.3343
H28 H 0.2335 0.2591 0.2953
C29 C 0.3912(2) 0.2741(3) 0.24097(13)
H29 H 0.4536 0.2126 0.2843
H30 H 0.3468 0.2111 0.1915
C30 C 0.8589(3) 0.6910(3) 0.11471(19)
H31 H 0.9262 0.6156 0.1164
H32 H 0.8655 0.7247 0.1735
H33 H 0.8737 0.7736 0.0797
C31 C 0.7022(4) 0.5885(4) -0.01922(16)
H34 H 0.7277 0.6720 -0.0494
H35 H 0.6086 0.5643 -0.0458
H36 H 0.7579 0.5040 -0.0233
loop_
_geom_bond_atom_site_label_1
_geom_bond_atom_site_label_2
_geom_bond_site_symmetry_1
_geom_bond_site_symmetry_2
S1 N1 1_555 1_555
Cl1 C1 1_555 1_555
N1 H1 1_555 1_555
O1 S1 1_555 1_555
C1 C2 1_555 1_555
N2 C10 1_555 1_555
O2 C24 1_555 1_555
C2 N1 1_555 1_555
H2 C2 1_555 1_555
N3 C24 1_555 1_555
C3 S1 1_555 1_555
C4 C3 1_555 1_555
H3 C4 1_555 1_555
C5 C4 1_555 1_555
H4 C5 1_555 1_555
C6 C5 1_555 1_555
C7 C6 1_555 1_555
H5 C7 1_555 1_555
C8 C3 1_555 1_555
H6 C8 1_555 1_555
C9 C6 1_555 1_555
H7 C9 1_555 1_555
H8 C9 1_555 1_555
H9 C9 1_555 1_555
C10 C2 1_555 1_555
H10 C10 1_555 1_555
C11 N2 1_555 1_555
C12 C11 1_555 1_555
C13 C12 1_555 1_555
H11 C13 1_555 1_555
C14 C13 1_555 1_555
H12 C14 1_555 1_555
C15 C14 1_555 1_555
H13 C15 1_555 1_555
C16 C15 1_555 1_555
H14 C16 1_555 1_555
C17 C12 1_555 1_555
H15 C17 1_555 1_555
C18 C11 1_555 1_555
C19 C18 1_555 1_555
H16 C19 1_555 1_555
C20 C19 1_555 1_555
H17 C20 1_555 1_555
C21 C20 1_555 1_555
H18 C21 1_555 1_555
C22 C21 1_555 1_555
H19 C22 1_555 1_555
C23 C18 1_555 1_555
H20 C23 1_555 1_555
C24 C10 1_555 1_555
C25 N3 1_555 1_555
H21 C25 1_555 1_555
H22 C25 1_555 1_555
C26 C25 1_555 1_555
H23 C26 1_555 1_555
H24 C26 1_555 1_555
C27 C26 1_555 1_555
H25 C27 1_555 1_555
H26 C27 1_555 1_555
C28 C27 1_555 1_555
H27 C28 1_555 1_555
H28 C28 1_555 1_555
C29 N3 1_555 1_555
H29 C29 1_555 1_555
H30 C29 1_555 1_555
C30 C1 1_555 1_555
H31 C30 1_555 1_555
H32 C30 1_555 1_555
H33 C30 1_555 1_555
C31 C1 1_555 1_555
H34 C31 1_555 1_555
H35 C31 1_555 1_555
H36 C31 1_555 1_555
C7 C8 1_555 1_555
C16 C17 1_555 1_555
C22 C23 1_555 1_555
C28 C29 1_555 1_555

#END
