
#######################################################################
#
#                 Cambridge Crystallographic Data Centre
#                                CCDC 
#
#######################################################################
#
# If this CIF has been generated from an entry in the Cambridge 
# Structural Database, then it will include bibliographic, chemical, 
# crystal, experimental, refinement or atomic coordinate data resulting 
# from the CCDC's data processing and validation procedures.
#
#######################################################################

data_EQESOJ
_chemical_formula_moiety         'C27 H25 N1 O5'
_chemical_name_systematic        
1'-Benzyl-5'',6''-dimethoxy-2'H,4H-dispiro[cyclohexa-2,5-diene-1,4'-piperidine-3',2''-indene]-1'',2',4(3''H)-trione
_symmetry_cell_setting           monoclinic
_symmetry_space_group_name_H-M   'P 21/c'
_symmetry_Int_Tables_number      14
_space_group_name_Hall           '-P 2ybc'
loop_
_symmetry_equiv_pos_site_id
_symmetry_equiv_pos_as_xyz
1 x,y,z
2 -x,1/2+y,1/2-z
3 -x,-y,-z
4 x,1/2-y,1/2+z
_cell_length_a                   15.443(4)
_cell_length_b                   12.425(3)
_cell_length_c                   11.835(3)
_cell_angle_alpha                90
_cell_angle_beta                 96.774(4)
_cell_angle_gamma                90
_cell_volume                     2255.04
_exptl_crystal_colour            colorless
_exptl_crystal_description       block
_cell_formula_units_Z            4
loop_
_atom_site_label
_atom_site_type_symbol
_atom_site_fract_x
_atom_site_fract_y
_atom_site_fract_z
N1 N 0.1946(2) 0.0785(2) 0.4604(2)
O1 O 0.56682(17) 0.1912(2) 1.0054(2)
O2 O 0.26950(17) 0.19570(19) 0.7038(2)
O3 O 0.33750(18) 0.1061(2) 0.4483(2)
O4 O 0.2415(2) -0.3590(2) 0.8051(2)
C1 C 0.6974(3) -0.0535(3) 0.8910(4)
H1 H 0.6684 -0.1207 0.9006
H2 H 0.7539 -0.0544 0.9346
H3 H 0.7038 -0.0433 0.8121
C2 C 0.2338(3) -0.0529(3) 0.6596(3)
C3 C 0.2508(3) -0.0758(3) 0.7847(3)
H4 H 0.2591 -0.0170 0.8334
C4 C 0.2332(3) -0.2537(3) 0.6397(3)
H5 H 0.2284 -0.3141 0.5929
C5 C 0.1448(2) 0.0028(3) 0.6352(3)
H6 H 0.1000 -0.0435 0.6597
H7 H 0.1454 0.0690 0.6787
C6 C 0.2428(3) -0.2682(3) 0.7631(3)
C7 C 0.2310(3) -0.1569(3) 0.5928(3)
H8 H 0.2276 -0.1525 0.5140
C8 C 0.1226(3) 0.0282(3) 0.5103(3)
H9 H 0.1064 -0.0378 0.4695
H10 H 0.0726 0.0760 0.5009
C9 C 0.2550(3) -0.1719(3) 0.8311(3)
H11 H 0.2661 -0.1780 0.9098
C10 C 0.4415(3) 0.1694(3) 0.8623(3)
H12 H 0.4117 0.2275 0.8885
C11 C 0.3206(3) 0.1206(3) 0.7023(3)
C12 C 0.5670(3) 0.0531(3) 0.8712(3)
C13 C 0.5220(3) 0.1411(3) 0.9130(3)
C14 C 0.3051(2) 0.0221(3) 0.6198(3)
C15 C 0.3955(2) -0.0329(3) 0.6289(3)
H13 H 0.3905 -0.1094 0.6429
H14 H 0.4224 -0.0227 0.5596
C16 C 0.4482(3) 0.0219(3) 0.7283(3)
C17 C 0.4048(2) 0.1077(3) 0.7689(3)
C18 C 0.5313(3) -0.0066(3) 0.7783(3)
H15 H 0.5615 -0.0636 0.7504
C19 C 0.2796(3) 0.0703(3) 0.5006(3)
C20 C 0.1052(3) 0.2137(3) 0.3461(3)
C21 C 0.1708(3) 0.1251(3) 0.3464(3)
H16 H 0.1473 0.0688 0.2949
H17 H 0.2230 0.1529 0.3183
C22 C 0.1114(3) 0.2898(4) 0.4288(4)
H18 H 0.1559 0.2849 0.4888
C23 C 0.0410(3) 0.2246(4) 0.2564(4)
H19 H 0.0369 0.1743 0.1978
C24 C -0.0126(5) 0.3817(6) 0.3343(7)
H20 H -0.0530 0.4375 0.3311
C25 C 0.0528(5) 0.3747(5) 0.4259(6)
H21 H 0.0571 0.4258 0.4837
C26 C -0.0174(4) 0.3084(6) 0.2511(6)
H22 H -0.0605 0.3141 0.1894
C27 C 0.5208(3) 0.2658(3) 1.0667(3)
H23 H 0.4994 0.3235 1.0171
H24 H 0.5593 0.2943 1.1292
H25 H 0.4727 0.2302 1.0952
O5 O 0.64676(18) 0.0327(2) 0.9296(2)
loop_
_geom_bond_atom_site_label_1
_geom_bond_atom_site_label_2
_geom_bond_site_symmetry_1
_geom_bond_site_symmetry_2
N1 C8 1_555 1_555
O1 C13 1_555 1_555
O2 C11 1_555 1_555
O3 C19 1_555 1_555
O4 C6 1_555 1_555
C1 H1 1_555 1_555
H2 C1 1_555 1_555
H3 C1 1_555 1_555
C2 C3 1_555 1_555
C3 H4 1_555 1_555
C4 H5 1_555 1_555
C5 C2 1_555 1_555
H6 C5 1_555 1_555
H7 C5 1_555 1_555
C6 C4 1_555 1_555
C7 C2 1_555 1_555
H8 C7 1_555 1_555
C8 C5 1_555 1_555
H9 C8 1_555 1_555
H10 C8 1_555 1_555
C9 C3 1_555 1_555
H11 C9 1_555 1_555
C10 H12 1_555 1_555
C11 C14 1_555 1_555
C12 C13 1_555 1_555
C13 C10 1_555 1_555
C14 C2 1_555 1_555
C15 C14 1_555 1_555
H13 C15 1_555 1_555
H14 C15 1_555 1_555
C16 C15 1_555 1_555
C17 C10 1_555 1_555
C18 C12 1_555 1_555
H15 C18 1_555 1_555
C19 N1 1_555 1_555
C20 C21 1_555 1_555
C21 N1 1_555 1_555
H16 C21 1_555 1_555
H17 C21 1_555 1_555
C22 C20 1_555 1_555
H18 C22 1_555 1_555
C23 C20 1_555 1_555
H19 C23 1_555 1_555
C24 H20 1_555 1_555
C25 C22 1_555 1_555
H21 C25 1_555 1_555
C26 C23 1_555 1_555
H22 C26 1_555 1_555
C27 O1 1_555 1_555
H23 C27 1_555 1_555
H24 C27 1_555 1_555
H25 C27 1_555 1_555
O5 C1 1_555 1_555
C4 C7 1_555 1_555
C6 C9 1_555 1_555
C11 C17 1_555 1_555
C12 O5 1_555 1_555
C14 C19 1_555 1_555
C16 C17 1_555 1_555
C16 C18 1_555 1_555
C24 C25 1_555 1_555
C24 C26 1_555 1_555

#END
