
#######################################################################
#
#                 Cambridge Crystallographic Data Centre
#                                CCDC 
#
#######################################################################
#
# If this CIF has been generated from an entry in the Cambridge 
# Structural Database, then it will include bibliographic, chemical, 
# crystal, experimental, refinement or atomic coordinate data resulting 
# from the CCDC's data processing and validation procedures.
#
#######################################################################

data_EQEXUV
_chemical_formula_moiety         'C110 H60 N2 O2,C6 H6'
_chemical_name_systematic        
'1,28-bis(4-methoxyphenyl)-83,84-diazatetradecacyclo[26.26.26.2^2,5^.2^24,27^.2^29,32^.2^51,54^.2^55,58^.2^77,80^.1^8,12^.1^17,21^.1^35,39^.1^44,48^.1^61,65^.1^70,74^]octanonaconta-2,4,8(96),9,11,17(95),18,20,24,26,29,31,35(90),36,38,44(89),45,47,51,53,55,57,61(84),62,64,70(83),71,73,77,79,81,85,87,91,93,97-hexatriacontaene-6,13,15,22,33,40,42,49,59,66,68,75-dodecayne benzene solvate'
_symmetry_cell_setting           tetragonal
_symmetry_space_group_name_H-M   'I 41/a c d'
_symmetry_Int_Tables_number      142
_space_group_name_Hall           '-I 4bd 2c'
loop_
_symmetry_equiv_pos_site_id
_symmetry_equiv_pos_as_xyz
1 x,y,z
2 1/4-y,3/4+x,1/4+z
3 -x,1/2-y,z
4 1/4+y,1/4-x,3/4+z
5 x,-y,1/2-z
6 1/2-x,y,-z
7 3/4+y,1/4+x,1/4-z
8 1/4-y,1/4-x,1/4-z
9 1/2+x,1/2+y,1/2+z
10 3/4-y,1/4+x,3/4+z
11 1/2-x,-y,1/2+z
12 3/4+y,3/4-x,1/4+z
13 1/2+x,1/2-y,-z
14 -x,1/2+y,1/2-z
15 1/4+y,3/4+x,3/4-z
16 3/4-y,3/4-x,3/4-z
17 -x,-y,-z
18 3/4+y,1/4-x,3/4-z
19 x,1/2+y,-z
20 3/4-y,3/4+x,1/4-z
21 -x,y,1/2+z
22 1/2+x,-y,z
23 1/4-y,3/4-x,3/4+z
24 3/4+y,3/4+x,3/4+z
25 1/2-x,1/2-y,1/2-z
26 1/4+y,3/4-x,1/4-z
27 1/2+x,y,1/2-z
28 1/4-y,1/4+x,3/4-z
29 1/2-x,1/2+y,z
30 x,1/2-y,1/2+z
31 3/4-y,1/4-x,1/4+z
32 1/4+y,1/4+x,1/4+z
_cell_length_a                   39.280(6)
_cell_length_b                   39.280(6)
_cell_length_c                   39.780(8)
_cell_angle_alpha                90
_cell_angle_beta                 90
_cell_angle_gamma                90
_cell_volume                     61377.3
_exptl_crystal_colour            colorless
_exptl_crystal_description       rod
_cell_formula_units_Z            16
loop_
_atom_site_label
_atom_site_type_symbol
_atom_site_fract_x
_atom_site_fract_y
_atom_site_fract_z
C1 C 0.49516(15) 0.41751(16) 0.22870(9)
H1 H 0.5059 0.4197 0.2508
H2 H 0.4800 0.4370 0.2249
H3 H 0.4819 0.3964 0.2279
O1 O 0.52020(7) 0.41683(6) 0.20383(5)
C2 C 0.50917(8) 0.41384(6) 0.17099(5)
C3 C 0.53431(7) 0.41175(7) 0.14764(6)
H4 H 0.5574 0.4131 0.1545
C4 C 0.52655(6) 0.40761(6) 0.11379(5)
H5 H 0.5445 0.4060 0.0978
C5 C 0.49300(5) 0.40573(4) 0.10300(4)
C6 C 0.46793(5) 0.40794(4) 0.12738(4)
H6 H 0.4447 0.4064 0.1208
C7 C 0.47576(7) 0.41235(5) 0.16115(5)
H7 H 0.4581 0.4143 0.1773
C8 C 0.48313(4) 0.39693(4) 0.06648(4)
C9 C 0.51344(4) 0.40114(4) 0.04201(4)
C10 C 0.52949(5) 0.43287(5) 0.04040(5)
H8 H 0.5237 0.4499 0.0564
C11 C 0.55333(5) 0.44000(5) 0.01623(5)
H9 H 0.5644 0.4615 0.0161
C12 C 0.56152(4) 0.41584(5) -0.00823(4)
C13 C 0.54639(5) 0.38387(5) -0.00627(4)
H10 H 0.5524 0.3668 -0.0221
C14 C 0.52258(5) 0.37668(4) 0.01861(4)
H11 H 0.5125 0.3547 0.0196
C15 C 0.58361(4) 0.42471(5) -0.03533(4)
C16 C 0.60087(5) 0.43347(5) -0.05846(4)
C17 C 0.62092(4) 0.44470(4) -0.08661(4)
C18 C 0.64484(5) 0.47034(5) -0.08315(5)
H12 H 0.6482 0.4809 -0.0619
C19 C 0.66391(5) 0.48055(5) -0.11061(5)
H13 H 0.6805 0.4980 -0.1083
C20 C 0.65866(5) 0.46515(5) -0.14120(5)
H14 H 0.6718 0.4718 -0.1601
C21 C 0.63410(4) 0.43997(4) -0.14443(4)
C22 C 0.61510(4) 0.42954(4) -0.11724(4)
H15 H 0.5983 0.4123 -0.1196
C23 C 0.62711(5) 0.42417(5) -0.17597(4)
C24 C 0.62026(5) 0.41036(5) -0.20195(4)
C25 C 0.45653(4) 0.42152(4) 0.05132(4)
C26 C 0.44785(4) 0.45205(4) 0.06604(4)
H16 H 0.4573 0.4579 0.0873
C27 C 0.42556(5) 0.47439(4) 0.05033(5)
H17 H 0.4203 0.4956 0.0607
C28 C 0.41087(4) 0.46597(4) 0.01950(4)
C29 C 0.42023(5) 0.43581(5) 0.00405(4)
H18 H 0.4109 0.4300 -0.0172
C30 C 0.44317(5) 0.41418(5) 0.01950(4)
H19 H 0.4500 0.3939 0.0083
C31 C 0.38613(5) 0.48779(5) 0.00423(5)
C32 C 0.36486(5) 0.50534(5) -0.00820(5)
C33 C 0.33793(6) 0.52584(5) -0.02132(6)
C34 C 0.32987(9) 0.55724(7) -0.00680(9)
H20 H 0.3427 0.5655 0.0117
C35 C 0.30343(11) 0.57600(9) -0.01940(12)
H21 H 0.2983 0.5976 -0.0099
C36 C 0.28420(11) 0.56369(8) -0.04586(12)
H22 H 0.2657 0.5766 -0.0544
C37 C 0.29208(8) 0.53241(6) -0.05981(8)
C38 C 0.27324(7) 0.51870(6) -0.08775(7)
C39 C 0.25949(6) 0.50584(6) -0.11131(6)
C40 C 0.47007(4) 0.35995(4) 0.06784(4)
C41 C 0.43677(5) 0.35056(4) 0.06123(4)
H23 H 0.4207 0.3676 0.0554
C42 C 0.42637(5) 0.31680(5) 0.06299(4)
H24 H 0.4035 0.3109 0.0579
C43 C 0.44935(5) 0.29161(4) 0.07222(4)
C44 C 0.48247(5) 0.30115(5) 0.08041(5)
H25 H 0.4983 0.2843 0.0876
C45 C 0.49255(5) 0.33444(4) 0.07830(4)
H26 H 0.5153 0.3403 0.0840
C46 C 0.43866(5) 0.25661(5) 0.07305(4)
C47 C 0.42860(5) 0.22794(5) 0.07254(4)
C48 C 0.41488(4) 0.19418(4) 0.07042(4)
C49 C 0.41447(5) 0.17272(5) 0.09840(4)
H27 H 0.4246 0.1797 0.1189
C50 C 0.39917(5) 0.14117(5) 0.09591(4)
H28 H 0.3987 0.1264 0.1148
C51 C 0.38468(5) 0.13111(5) 0.06625(4)
H29 H 0.3742 0.1094 0.0644
C52 C 0.38555(5) 0.15321(4) 0.03857(4)
C53 C 0.40078(4) 0.18432(4) 0.04065(4)
H30 H 0.4016 0.1989 0.0216
C54 C 0.36963(5) 0.14428(5) 0.00753(4)
C55 C 0.35578(5) 0.13768(5) -0.01843(4)
N1 N 0.31904(5) 0.51350(5) -0.04804(5)
C1O C 0.33249(16) 0.25484(15) -0.47870(9)
H1O H 0.3303 0.2441 -0.5008
H2O H 0.3130 0.2700 -0.4749
H3O H 0.3536 0.2681 -0.4779
O1O O 0.33317(6) 0.22980(7) -0.45383(5)
C2O C 0.33616(6) 0.24083(8) -0.42099(5)
C3O C 0.33825(7) 0.21569(7) -0.39764(6)
H4O H 0.3369 0.1926 -0.4045
C4O C 0.34239(6) 0.22345(6) -0.36379(5)
H5O H 0.3440 0.2055 -0.3478
C5O C 0.34427(4) 0.25700(5) -0.35300(4)
C6O C 0.34206(4) 0.28207(5) -0.37738(4)
H6O H 0.3436 0.3053 -0.3708
C7O C 0.33765(5) 0.27424(7) -0.41115(5)
H7O H 0.3357 0.2919 -0.4273
C8O C 0.35307(4) 0.26687(4) -0.31648(4)
C9O C 0.34886(4) 0.23656(4) -0.29201(4)
C10O C 0.31713(5) 0.22051(5) -0.29040(5)
H8O H 0.3001 0.2263 -0.3064
C11O C 0.31000(5) 0.19667(5) -0.26623(5)
H9O H 0.2885 0.1856 -0.2661
C12O C 0.33416(5) 0.18848(4) -0.24177(4)
C13O C 0.36613(5) 0.20361(5) -0.24373(4)
H10O H 0.3832 0.1976 -0.2279
C14O C 0.37332(4) 0.22742(5) -0.26861(4)
H11O H 0.3953 0.2375 -0.2696
C15O C 0.32529(5) 0.16639(4) -0.21467(4)
C16O C 0.31653(5) 0.14913(5) -0.19154(4)
C17O C 0.30530(4) 0.12908(4) -0.16339(4)
C18O C 0.27966(5) 0.10516(5) -0.16685(5)
H12O H 0.2691 0.1018 -0.1881
C19O C 0.26945(5) 0.08609(5) -0.13939(5)
H13O H 0.2520 0.0695 -0.1417
C20O C 0.28485(5) 0.09134(5) -0.10880(5)
H14O H 0.2782 0.0782 -0.0899
C21O C 0.31003(4) 0.11590(4) -0.10557(4)
C22O C 0.32046(4) 0.13490(4) -0.13276(4)
H15O H 0.3377 0.1517 -0.1304
C23O C 0.32583(5) 0.12289(5) -0.07403(4)
C24O C 0.33964(5) 0.12974(5) -0.04805(4)
C25O C 0.32848(4) 0.29347(4) -0.30132(4)
C26O C 0.29795(4) 0.30215(4) -0.31604(4)
H16O H 0.2921 0.2927 -0.3373
C27O C 0.27561(4) 0.32444(5) -0.30033(5)
H17O H 0.2544 0.3297 -0.3107
C28O C 0.28403(4) 0.33913(4) -0.26950(4)
C29O C 0.31419(5) 0.32977(5) -0.25405(4)
H18O H 0.3200 0.3391 -0.2328
C30O C 0.33582(5) 0.30683(5) -0.26950(4)
H19O H 0.3561 0.3000 -0.2583
C31O C 0.26221(5) 0.36387(5) -0.25423(5)
C32O C 0.24466(5) 0.38514(5) -0.24180(5)
C33O C 0.22416(5) 0.41207(6) -0.22868(6)
C34O C 0.19276(7) 0.42013(9) -0.24320(9)
H20O H 0.1845 0.4073 -0.2617
C35O C 0.17400(9) 0.44657(11) -0.23060(12)
H21O H 0.1524 0.4517 -0.2401
C36O C 0.18631(8) 0.46580(11) -0.20414(12)
H22O H 0.1734 0.4843 -0.1956
C37O C 0.21759(6) 0.45792(8) -0.19019(8)
C38O C 0.23130(6) 0.47676(7) -0.16225(7)
C39O C 0.24416(6) 0.49051(6) -0.13869(6)
C40O C 0.39005(4) 0.27993(4) -0.31784(4)
C41O C 0.39944(4) 0.31323(5) -0.31123(4)
H23O H 0.3824 0.3293 -0.3054
C42O C 0.43320(5) 0.32363(5) -0.31299(4)
H24O H 0.4391 0.3465 -0.3079
C43O C 0.45839(4) 0.30065(5) -0.32222(4)
C44O C 0.44885(5) 0.26753(5) -0.33041(5)
H25O H 0.4657 0.2517 -0.3376
C45O C 0.41556(4) 0.25745(5) -0.32830(4)
H26O H 0.4097 0.2347 -0.3340
C46O C 0.49339(5) 0.31134(5) -0.32305(4)
C47O C 0.52206(5) 0.32140(5) -0.32254(4)
C48O C 0.55582(4) 0.33512(4) -0.32042(4)
C49O C 0.57728(5) 0.33553(5) -0.34840(4)
H27O H 0.5703 0.3254 -0.3689
C50O C 0.60883(5) 0.35083(5) -0.34591(4)
H28O H 0.6236 0.3513 -0.3648
C51O C 0.61889(5) 0.36532(5) -0.31625(4)
H29O H 0.6406 0.3758 -0.3144
C52O C 0.59679(4) 0.36445(5) -0.28857(4)
C53O C 0.56568(4) 0.34922(4) -0.29065(4)
H30O H 0.5511 0.3484 -0.2716
C54O C 0.60572(5) 0.38037(5) -0.25753(4)
C55O C 0.61232(5) 0.39422(5) -0.23157(4)
N1O N 0.23650(5) 0.43096(5) -0.20196(5)
C56 C 0.14219(14) 0.40863(17) -0.0760(2)
H31 H 0.1254 0.4120 -0.0591
C57 C 0.14120(13) 0.42671(15) -0.1005(2)
H32 H 0.1239 0.4435 -0.1021
C58 C 0.16287(15) 0.42393(14) -0.1245(2)
H33 H 0.1613 0.4389 -0.1432
C59 C 0.18815(13) 0.39994(15) -0.12387(15)
H34 H 0.2032 0.3982 -0.1425
C60 C 0.19205(14) 0.37965(16) -0.09875(17)
H35 H 0.2100 0.3635 -0.0980
C61 C 0.16661(19) 0.38293(18) -0.07061(16)
H36 H 0.1670 0.3690 -0.0511
N2? N 0.61510(4) 0.42954(4) -0.11724(4)
N3? N 0.40078(4) 0.18432(4) 0.04065(4)
C62? C 0.31904(5) 0.51350(5) -0.04804(5)
H37? H 0.3246 0.4923 -0.0581
loop_
_geom_bond_atom_site_label_1
_geom_bond_atom_site_label_2
_geom_bond_site_symmetry_1
_geom_bond_site_symmetry_2
C1 H1 1_555 1_555
H2 C1 1_555 1_555
H3 C1 1_555 1_555
O1 C1 1_555 1_555
C2 O1 1_555 1_555
C3 C2 1_555 1_555
H4 C3 1_555 1_555
C4 C3 1_555 1_555
H5 C4 1_555 1_555
C5 C4 1_555 1_555
C6 C5 1_555 1_555
H6 C6 1_555 1_555
C7 C2 1_555 1_555
H7 C7 1_555 1_555
C8 C5 1_555 1_555
C9 C8 1_555 1_555
C10 C9 1_555 1_555
H8 C10 1_555 1_555
C11 C10 1_555 1_555
H9 C11 1_555 1_555
C12 C11 1_555 1_555
C13 C12 1_555 1_555
H10 C13 1_555 1_555
C14 C9 1_555 1_555
H11 C14 1_555 1_555
C15 C12 1_555 1_555
C16 C15 1_555 1_555
C17 C16 1_555 1_555
C18 C17 1_555 1_555
H12 C18 1_555 1_555
C19 C18 1_555 1_555
H13 C19 1_555 1_555
C20 C19 1_555 1_555
H14 C20 1_555 1_555
C21 C20 1_555 1_555
C22 C17 1_555 1_555
H15 C22 1_555 1_555
C23 C21 1_555 1_555
C24 C23 1_555 1_555
C25 C8 1_555 1_555
C26 C25 1_555 1_555
H16 C26 1_555 1_555
C27 C26 1_555 1_555
H17 C27 1_555 1_555
C28 C27 1_555 1_555
C29 C28 1_555 1_555
H18 C29 1_555 1_555
C30 C25 1_555 1_555
H19 C30 1_555 1_555
C31 C28 1_555 1_555
C32 C31 1_555 1_555
C33 C32 1_555 1_555
C34 C33 1_555 1_555
H20 C34 1_555 1_555
C35 C34 1_555 1_555
H21 C35 1_555 1_555
C36 C35 1_555 1_555
H22 C36 1_555 1_555
C37 C36 1_555 1_555
C38 C37 1_555 1_555
C39 C38 1_555 1_555
C40 C8 1_555 1_555
C41 C40 1_555 1_555
H23 C41 1_555 1_555
C42 C41 1_555 1_555
H24 C42 1_555 1_555
C43 C42 1_555 1_555
C44 C43 1_555 1_555
H25 C44 1_555 1_555
C45 C40 1_555 1_555
H26 C45 1_555 1_555
C46 C43 1_555 1_555
C47 C46 1_555 1_555
C48 C47 1_555 1_555
C49 C48 1_555 1_555
H27 C49 1_555 1_555
C50 C49 1_555 1_555
H28 C50 1_555 1_555
C51 C50 1_555 1_555
H29 C51 1_555 1_555
C52 C51 1_555 1_555
C53 C48 1_555 1_555
H30 C53 1_555 1_555
C54 C52 1_555 1_555
C55 C54 1_555 1_555
N1 C33 1_555 1_555
C56 H31 1_555 1_555
C57 C56 1_555 1_555
H32 C57 1_555 1_555
C58 C57 1_555 1_555
H33 C58 1_555 1_555
C59 C58 1_555 1_555
H34 C59 1_555 1_555
C60 C59 1_555 1_555
H35 C60 1_555 1_555
C61 C56 1_555 1_555
H36 C61 1_555 1_555
C1O H1O 1_555 1_555
H2O C1O 1_555 1_555
H3O C1O 1_555 1_555
O1O C1O 1_555 1_555
C2O O1O 1_555 1_555
C3O C2O 1_555 1_555
H4O C3O 1_555 1_555
C4O C3O 1_555 1_555
H5O C4O 1_555 1_555
C5O C4O 1_555 1_555
C6O C5O 1_555 1_555
H6O C6O 1_555 1_555
C7O C2O 1_555 1_555
H7O C7O 1_555 1_555
C8O C5O 1_555 1_555
C9O C8O 1_555 1_555
C10O C9O 1_555 1_555
H8O C10O 1_555 1_555
C11O C10O 1_555 1_555
H9O C11O 1_555 1_555
C12O C11O 1_555 1_555
C13O C12O 1_555 1_555
H10O C13O 1_555 1_555
C14O C9O 1_555 1_555
H11O C14O 1_555 1_555
C15O C12O 1_555 1_555
C16O C15O 1_555 1_555
C17O C16O 1_555 1_555
C18O C17O 1_555 1_555
H12O C18O 1_555 1_555
C19O C18O 1_555 1_555
H13O C19O 1_555 1_555
C20O C19O 1_555 1_555
H14O C20O 1_555 1_555
C21O C20O 1_555 1_555
C22O C17O 1_555 1_555
H15O C22O 1_555 1_555
C23O C21O 1_555 1_555
C24O C55 1_555 1_555
C25O C8O 1_555 1_555
C26O C25O 1_555 1_555
H16O C26O 1_555 1_555
C27O C26O 1_555 1_555
H17O C27O 1_555 1_555
C28O C27O 1_555 1_555
C29O C28O 1_555 1_555
H18O C29O 1_555 1_555
C30O C25O 1_555 1_555
H19O C30O 1_555 1_555
C31O C28O 1_555 1_555
C32O C31O 1_555 1_555
C33O C32O 1_555 1_555
C34O C33O 1_555 1_555
H20O C34O 1_555 1_555
C35O C34O 1_555 1_555
H21O C35O 1_555 1_555
C36O C35O 1_555 1_555
H22O C36O 1_555 1_555
C37O C36O 1_555 1_555
C38O C37O 1_555 1_555
C39O C39 1_555 1_555
C40O C8O 1_555 1_555
C41O C40O 1_555 1_555
H23O C41O 1_555 1_555
C42O C41O 1_555 1_555
H24O C42O 1_555 1_555
C43O C42O 1_555 1_555
C44O C43O 1_555 1_555
H25O C44O 1_555 1_555
C45O C40O 1_555 1_555
H26O C45O 1_555 1_555
C46O C43O 1_555 1_555
C47O C46O 1_555 1_555
C48O C47O 1_555 1_555
C49O C48O 1_555 1_555
H27O C49O 1_555 1_555
C50O C49O 1_555 1_555
H28O C50O 1_555 1_555
C51O C50O 1_555 1_555
H29O C51O 1_555 1_555
C52O C51O 1_555 1_555
C53O C48O 1_555 1_555
H30O C53O 1_555 1_555
C54O C52O 1_555 1_555
C55O C24 1_555 1_555
N1O C33O 1_555 1_555
C6 C7 1_555 1_555
C13 C14 1_555 1_555
C21 C22 1_555 1_555
C29 C30 1_555 1_555
C37 N1 1_555 1_555
C44 C45 1_555 1_555
C52 C53 1_555 1_555
C60 C61 1_555 1_555
C6O C7O 1_555 1_555
C13O C14O 1_555 1_555
C21O C22O 1_555 1_555
C23O C24O 1_555 1_555
C29O C30O 1_555 1_555
C37O N1O 1_555 1_555
C38O C39O 1_555 1_555
C44O C45O 1_555 1_555
C52O C53O 1_555 1_555
C54O C55O 1_555 1_555

#END
