
#######################################################################
#
#                 Cambridge Crystallographic Data Centre
#                                CCDC 
#
#######################################################################
#
# If this CIF has been generated from an entry in the Cambridge 
# Structural Database, then it will include bibliographic, chemical, 
# crystal, experimental, refinement or atomic coordinate data resulting 
# from the CCDC's data processing and validation procedures.
#
#######################################################################

data_EQIDOZ
_chemical_formula_moiety         'C18 H21 N1 O1'
_chemical_name_systematic        (3S,6R)-1-benzyl-6-phenylpiperidin-3-ol
_symmetry_cell_setting           tetragonal
_symmetry_space_group_name_H-M   'P 41'
_symmetry_Int_Tables_number      76
_space_group_name_Hall           'P 4w'
loop_
_symmetry_equiv_pos_site_id
_symmetry_equiv_pos_as_xyz
1 x,y,z
2 -y,x,1/4+z
3 y,-x,3/4+z
4 -x,-y,1/2+z
_cell_length_a                   16.4446(10)
_cell_length_b                   16.4446(10)
_cell_length_c                   5.8149(5)
_cell_angle_alpha                90
_cell_angle_beta                 90
_cell_angle_gamma                90
_cell_volume                     1572.49
_exptl_crystal_colour            colorless
_exptl_crystal_description       prismatic
_chemical_melting_point          '398-399 K'
_cell_formula_units_Z            4
_exptl_crystal_recrystallization_method dichloromethane/n-hexane
loop_
_atom_site_label
_atom_site_type_symbol
_atom_site_fract_x
_atom_site_fract_y
_atom_site_fract_z
N1 N 0.71770(12) 0.87528(11) 0.8704(4)
O1 O 0.92730(10) 0.93552(13) 0.7107(6)
H1 H 0.9237 0.9788 0.6412
C1 C 0.79407(15) 0.92089(15) 0.8762(6)
H2 H 0.8191 0.9145 1.0263
H3 H 0.7827 0.9782 0.8539
C2 C 0.85257(15) 0.89269(17) 0.6941(7)
H4 H 0.8287 0.9023 0.5421
C3 C 0.86948(16) 0.80311(17) 0.7218(9)
H5 H 0.8998 0.7940 0.8625
H6 H 0.9022 0.7840 0.5939
C4 C 0.79002(17) 0.75604(17) 0.7301(7)
H7 H 0.8016 0.6993 0.7612
H8 H 0.7637 0.7593 0.5811
C5 C 0.73243(15) 0.78846(14) 0.9135(6)
H9 H 0.7588 0.7829 1.0638
C6 C 0.65407(15) 0.74002(14) 0.9165(5)
C7 C 0.63542(18) 0.68933(17) 1.0976(6)
H10 H 0.6715 0.6849 1.2202
C8 C 0.5639(2) 0.64481(19) 1.1004(7)
H11 H 0.5524 0.6111 1.2246
C9 C 0.51044(19) 0.65017(18) 0.9218(8)
H12 H 0.4622 0.6207 0.9246
C10 C 0.52839(17) 0.69927(17) 0.7382(7)
H13 H 0.4925 0.7026 0.6150
C11 C 0.59965(16) 0.74389(16) 0.7357(6)
H14 H 0.6111 0.7770 0.6103
C12 C 0.66107(17) 0.91130(16) 1.0365(6)
H15 H 0.6885 0.9179 1.1829
H16 H 0.6156 0.8746 1.0595
C13 C 0.62919(14) 0.99306(15) 0.9572(5)
C14 C 0.59374(17) 1.00222(17) 0.7442(6)
H17 H 0.5914 0.9582 0.6440
C15 C 0.56155(16) 1.07661(19) 0.6782(6)
H18 H 0.5375 1.0821 0.5342
C16 C 0.56498(19) 1.14147(19) 0.8227(7)
H19 H 0.5432 1.1913 0.7784
C17 C 0.6002(2) 1.13305(19) 1.0313(7)
H20 H 0.6030 1.1774 1.1301
C18 C 0.63212(16) 1.05913(17) 1.0994(6)
H21 H 0.6559 1.0543 1.2438
loop_
_geom_bond_atom_site_label_1
_geom_bond_atom_site_label_2
_geom_bond_site_symmetry_1
_geom_bond_site_symmetry_2
N1 C1 1_555 1_555
O1 H1 1_555 1_555
C1 H2 1_555 1_555
H3 C1 1_555 1_555
C2 O1 1_555 1_555
H4 C2 1_555 1_555
C3 C2 1_555 1_555
H5 C3 1_555 1_555
H6 C3 1_555 1_555
C4 C3 1_555 1_555
H7 C4 1_555 1_555
H8 C4 1_555 1_555
C5 N1 1_555 1_555
H9 C5 1_555 1_555
C6 C5 1_555 1_555
C7 C6 1_555 1_555
H10 C7 1_555 1_555
C8 C7 1_555 1_555
H11 C8 1_555 1_555
C9 C8 1_555 1_555
H12 C9 1_555 1_555
C10 C9 1_555 1_555
H13 C10 1_555 1_555
C11 C6 1_555 1_555
H14 C11 1_555 1_555
C12 N1 1_555 1_555
H15 C12 1_555 1_555
H16 C12 1_555 1_555
C13 C12 1_555 1_555
C14 C13 1_555 1_555
H17 C14 1_555 1_555
C15 C14 1_555 1_555
H18 C15 1_555 1_555
C16 C15 1_555 1_555
H19 C16 1_555 1_555
C17 C16 1_555 1_555
H20 C17 1_555 1_555
C18 C13 1_555 1_555
H21 C18 1_555 1_555
C1 C2 1_555 1_555
C4 C5 1_555 1_555
C10 C11 1_555 1_555
C17 C18 1_555 1_555

#END
