
#######################################################################
#
#                 Cambridge Crystallographic Data Centre
#                                CCDC 
#
#######################################################################
#
# If this CIF has been generated from an entry in the Cambridge 
# Structural Database, then it will include bibliographic, chemical, 
# crystal, experimental, refinement or atomic coordinate data resulting 
# from the CCDC's data processing and validation procedures.
#
#######################################################################

data_EQIFAN
_chemical_formula_moiety         'C41 H47 N1 O5'
_chemical_name_systematic        
't-butyl 3-((3,5-di-t-butyl-4-hydroxyphenyl)(2-methoxyphenyl)methyl)-2-oxo-3-phenylindoline-1-carboxylate'
_symmetry_cell_setting           orthorhombic
_symmetry_space_group_name_H-M   'P 21 21 21'
_symmetry_Int_Tables_number      19
_space_group_name_Hall           'P 2ac 2ab'
loop_
_symmetry_equiv_pos_site_id
_symmetry_equiv_pos_as_xyz
1 x,y,z
2 1/2-x,-y,1/2+z
3 -x,1/2+y,1/2-z
4 1/2+x,1/2-y,-z
_cell_length_a                   9.79440(10)
_cell_length_b                   14.3829(2)
_cell_length_c                   25.1046(4)
_cell_angle_alpha                90
_cell_angle_beta                 90
_cell_angle_gamma                90
_cell_volume                     3536.53
_exptl_crystal_colour            colorless
_exptl_crystal_description       block
_cell_formula_units_Z            4
loop_
_atom_site_label
_atom_site_type_symbol
_atom_site_fract_x
_atom_site_fract_y
_atom_site_fract_z
O1 O 0.33808(15) 0.61020(11) 0.61774(6)
O2 O 0.26034(16) 0.63613(12) 0.51932(6)
O3 O 0.38715(17) 0.57302(14) 0.45424(7)
O4 O 0.20888(14) 0.43557(11) 0.68170(6)
O5 O 0.81870(16) 0.20073(11) 0.78018(6)
H1 H 0.7816 0.1984 0.8103
N1 N 0.45859(17) 0.56823(13) 0.54085(7)
C1 C 0.7633(2) 0.44381(15) 0.57978(9)
H2 H 0.8048 0.4266 0.6125
C2 C 0.8230(2) 0.41869(16) 0.53171(9)
H3 H 0.9060 0.3845 0.5315
C3 C 0.7618(2) 0.44337(17) 0.48396(9)
H4 H 0.8034 0.4253 0.4514
C4 C 0.6407(2) 0.49391(16) 0.48265(9)
H5 H 0.5989 0.5107 0.4499
C5 C 0.5835(2) 0.51882(14) 0.53127(9)
C6 C 0.6425(2) 0.49424(15) 0.57953(9)
C7 C 0.5543(2) 0.52568(14) 0.62539(9)
C8 C 0.4354(2) 0.57478(14) 0.59651(8)
C9 C 0.3660(2) 0.59202(15) 0.49998(9)
C10 C 0.1377(2) 0.65286(19) 0.48529(11)
C11 C 0.1711(3) 0.72388(19) 0.44305(12)
H6 H 0.2045 0.7809 0.4600
H7 H 0.0888 0.7379 0.4223
H8 H 0.2418 0.6991 0.4194
C12 C 0.0371(3) 0.6919(3) 0.52519(15)
H9 H 0.0203 0.6458 0.5532
H10 H -0.0489 0.7066 0.5071
H11 H 0.0748 0.7486 0.5411
C13 C 0.0902(3) 0.5615(2) 0.46206(15)
H12 H 0.1512 0.5432 0.4329
H13 H -0.0030 0.5684 0.4484
H14 H 0.0915 0.5135 0.4898
C14 C 0.6243(2) 0.59423(14) 0.66359(8)
C15 C 0.5488(2) 0.63874(15) 0.70322(9)
H15 H 0.4541 0.6258 0.7066
C16 C 0.6098(2) 0.70166(17) 0.73789(9)
H16 H 0.5565 0.7316 0.7644
C17 C 0.7477(3) 0.72077(16) 0.73381(10)
H17 H 0.7897 0.7635 0.7576
C18 C 0.8240(2) 0.67688(17) 0.69473(10)
H18 H 0.9191 0.6892 0.6919
C19 C 0.7624(2) 0.61503(16) 0.65971(9)
H19 H 0.8157 0.5865 0.6326
C20 C 0.4840(2) 0.44237(15) 0.65692(8)
H20 H 0.4276 0.4725 0.6853
C21 C 0.3823(2) 0.38967(15) 0.62182(8)
C22 C 0.2433(2) 0.39012(15) 0.63566(8)
C23 C 0.1466(2) 0.34576(17) 0.60380(10)
H21 H 0.0530 0.3464 0.6138
C24 C 0.1868(3) 0.30069(18) 0.55759(11)
H22 H 0.1208 0.2701 0.5361
C25 C 0.3219(2) 0.30015(17) 0.54282(9)
H23 H 0.3493 0.2701 0.5108
C26 C 0.4185(2) 0.34371(15) 0.57487(9)
H24 H 0.5118 0.3422 0.5645
C27 C 0.0697(2) 0.4620(2) 0.68830(12)
H25 H 0.0387 0.4956 0.6566
H26 H 0.0611 0.5022 0.7196
H27 H 0.0136 0.4062 0.6932
C28 C 0.5859(2) 0.38057(14) 0.68655(8)
C29 C 0.6398(2) 0.29882(15) 0.66595(8)
H28 H 0.6188 0.2824 0.6302
C30 C 0.7239(2) 0.23952(15) 0.69567(9)
C31 C 0.7504(2) 0.26483(15) 0.74855(8)
C32 C 0.7114(2) 0.35235(15) 0.76907(8)
C33 C 0.6262(2) 0.40705(15) 0.73725(8)
H29 H 0.5946 0.4647 0.7509
C34 C 0.7814(2) 0.14965(16) 0.67046(9)
C35 C 0.9373(2) 0.14484(18) 0.67803(11)
H30 H 0.9586 0.1422 0.7161
H31 H 0.9796 0.2002 0.6623
H32 H 0.9729 0.0891 0.6604
C36 C 0.7556(3) 0.14740(19) 0.61027(10)
H33 H 0.8011 0.0930 0.5948
H34 H 0.7921 0.2041 0.5940
H35 H 0.6572 0.1436 0.6035
C37 C 0.7143(2) 0.06373(16) 0.69522(10)
H36 H 0.6155 0.0663 0.6894
H37 H 0.7332 0.0624 0.7335
H38 H 0.7514 0.0075 0.6785
C38 C 0.7589(2) 0.38861(15) 0.82420(8)
C39 C 0.6909(3) 0.3357(2) 0.86976(10)
H39 H 0.7076 0.3684 0.9034
H40 H 0.7291 0.2728 0.8718
H41 H 0.5924 0.3319 0.8633
C40 C 0.7225(3) 0.49164(17) 0.83113(10)
H42 H 0.6231 0.4985 0.8331
H43 H 0.7574 0.5271 0.8007
H44 H 0.7638 0.5152 0.8640
C41 C 0.9152(2) 0.3824(2) 0.82890(11)
H45 H 0.9441 0.4075 0.8634
H46 H 0.9575 0.4184 0.8002
H47 H 0.9437 0.3172 0.8261
loop_
_geom_bond_atom_site_label_1
_geom_bond_atom_site_label_2
_geom_bond_site_symmetry_1
_geom_bond_site_symmetry_2
O1 C8 1_555 1_555
O2 C9 1_555 1_555
O3 C9 1_555 1_555
O4 C22 1_555 1_555
O5 H1 1_555 1_555
N1 C5 1_555 1_555
C1 H2 1_555 1_555
C2 C1 1_555 1_555
H3 C2 1_555 1_555
C3 C2 1_555 1_555
H4 C3 1_555 1_555
C4 C3 1_555 1_555
H5 C4 1_555 1_555
C5 C4 1_555 1_555
C6 C1 1_555 1_555
C7 C6 1_555 1_555
C8 N1 1_555 1_555
C9 N1 1_555 1_555
C10 O2 1_555 1_555
C11 C10 1_555 1_555
H6 C11 1_555 1_555
H7 C11 1_555 1_555
H8 C11 1_555 1_555
C12 C10 1_555 1_555
H9 C12 1_555 1_555
H10 C12 1_555 1_555
H11 C12 1_555 1_555
C13 C10 1_555 1_555
H12 C13 1_555 1_555
H13 C13 1_555 1_555
H14 C13 1_555 1_555
C14 C7 1_555 1_555
C15 C14 1_555 1_555
H15 C15 1_555 1_555
C16 C15 1_555 1_555
H16 C16 1_555 1_555
C17 C16 1_555 1_555
H17 C17 1_555 1_555
C18 C17 1_555 1_555
H18 C18 1_555 1_555
C19 C14 1_555 1_555
H19 C19 1_555 1_555
C20 C7 1_555 1_555
H20 C20 1_555 1_555
C21 C20 1_555 1_555
C22 C21 1_555 1_555
C23 C22 1_555 1_555
H21 C23 1_555 1_555
C24 C23 1_555 1_555
H22 C24 1_555 1_555
C25 C24 1_555 1_555
H23 C25 1_555 1_555
C26 C21 1_555 1_555
H24 C26 1_555 1_555
C27 O4 1_555 1_555
H25 C27 1_555 1_555
H26 C27 1_555 1_555
H27 C27 1_555 1_555
C28 C20 1_555 1_555
C29 C28 1_555 1_555
H28 C29 1_555 1_555
C30 C29 1_555 1_555
C31 O5 1_555 1_555
C32 C31 1_555 1_555
C33 C28 1_555 1_555
H29 C33 1_555 1_555
C34 C30 1_555 1_555
C35 C34 1_555 1_555
H30 C35 1_555 1_555
H31 C35 1_555 1_555
H32 C35 1_555 1_555
C36 C34 1_555 1_555
H33 C36 1_555 1_555
H34 C36 1_555 1_555
H35 C36 1_555 1_555
C37 C34 1_555 1_555
H36 C37 1_555 1_555
H37 C37 1_555 1_555
H38 C37 1_555 1_555
C38 C32 1_555 1_555
C39 C38 1_555 1_555
H39 C39 1_555 1_555
H40 C39 1_555 1_555
H41 C39 1_555 1_555
C40 C38 1_555 1_555
H42 C40 1_555 1_555
H43 C40 1_555 1_555
H44 C40 1_555 1_555
C41 C38 1_555 1_555
H45 C41 1_555 1_555
H46 C41 1_555 1_555
H47 C41 1_555 1_555
C5 C6 1_555 1_555
C7 C8 1_555 1_555
C18 C19 1_555 1_555
C25 C26 1_555 1_555
C30 C31 1_555 1_555
C32 C33 1_555 1_555

#END
