
#######################################################################
#
#                 Cambridge Crystallographic Data Centre
#                                CCDC 
#
#######################################################################
#
# If this CIF has been generated from an entry in the Cambridge 
# Structural Database, then it will include bibliographic, chemical, 
# crystal, experimental, refinement or atomic coordinate data resulting 
# from the CCDC's data processing and validation procedures.
#
#######################################################################

data_EQIGUI
_chemical_formula_moiety         'C17 H17 Br1 O2'
_chemical_name_systematic        
4-(4-bromophenyl)-4-hydroxy-1-(4-methylphenyl)butan-1-one
_symmetry_cell_setting           triclinic
_symmetry_space_group_name_H-M   'P -1'
_symmetry_Int_Tables_number      2
_space_group_name_Hall           '-P 1'
loop_
_symmetry_equiv_pos_site_id
_symmetry_equiv_pos_as_xyz
1 x,y,z
2 -x,-y,-z
_cell_length_a                   9.5598(6)
_cell_length_b                   9.6393(7)
_cell_length_c                   18.0624(12)
_cell_angle_alpha                75.207(6)
_cell_angle_beta                 81.884(6)
_cell_angle_gamma                72.871(6)
_cell_volume                     1533.97
_exptl_crystal_colour            colorless
_exptl_crystal_description       block
_cell_formula_units_Z            4
loop_
_atom_site_label
_atom_site_type_symbol
_atom_site_fract_x
_atom_site_fract_y
_atom_site_fract_z
Br1 Br 0.63796(11) -0.35230(11) 0.41883(4)
O1 O 0.6324(4) -0.1261(4) -0.0818(2)
O2 O 0.9266(4) -0.1862(5) 0.0519(2)
H1 H 0.929(5) -0.127(5) 0.063(3)
C1 C 0.9123(5) -0.2594(5) -0.2205(3)
H2 H 0.9880 -0.3080 -0.1881
C2 C 0.9410(6) -0.2465(6) -0.2984(3)
H3 H 1.0362 -0.2841 -0.3180
C3 C 0.8313(6) -0.1790(6) -0.3475(3)
C4 C 0.6906(6) -0.1217(6) -0.3171(3)
H4 H 0.6148 -0.0757 -0.3497
C5 C 0.6618(5) -0.1321(5) -0.2395(3)
H5 H 0.5670 -0.0922 -0.2202
C6 C 0.7728(5) -0.2015(5) -0.1894(3)
C7 C 0.8644(9) -0.1667(9) -0.4339(3)
H6 H 0.8789 -0.0705 -0.4580
H7 H 0.7834 -0.1793 -0.4551
H8 H 0.9515 -0.2428 -0.4430
C8 C 0.7395(5) -0.2117(5) -0.1056(3)
C9 C 0.8419(5) -0.3288(5) -0.0514(3)
H9 H 0.9360 -0.3060 -0.0595
H10 H 0.8572 -0.4237 -0.0647
C10 C 0.7931(5) -0.3470(5) 0.0338(3)
H11 H 0.6962 -0.3633 0.0414
H12 H 0.8593 -0.4361 0.0618
C11 C 0.7875(5) -0.2193(5) 0.0689(2)
H13 H 0.7114 -0.1317 0.0458
C12 C 0.7535(4) -0.2555(5) 0.1543(2)
C13 C 0.8619(5) -0.3325(5) 0.2055(3)
H14 H 0.9586 -0.3648 0.1865
C14 C 0.8285(6) -0.3614(6) 0.2833(3)
H15 H 0.9023 -0.4112 0.3167
C15 C 0.6851(6) -0.3163(6) 0.3116(3)
C16 C 0.5761(5) -0.2436(5) 0.2626(3)
H16 H 0.4792 -0.2146 0.2819
C17 C 0.6102(5) -0.2135(5) 0.1847(2)
H17 H 0.5356 -0.1640 0.1518
Br2 Br 0.61222(11) 0.20172(12) 0.43374(4)
O3 O 0.6590(5) 0.4532(5) -0.0737(3)
O4 O 0.9161(3) 0.0884(4) 0.08292(17)
H18 H 0.9636 0.1153 0.0431
C18 C 0.7981(5) 0.1849(5) -0.1926(3)
H19 H 0.8125 0.0970 -0.1548
C19 C 0.8366(5) 0.1780(6) -0.2684(3)
H20 H 0.8773 0.0858 -0.2809
C20 C 0.8154(6) 0.3061(7) -0.3259(3)
C21 C 0.7558(6) 0.4412(6) -0.3049(3)
H21 H 0.7411 0.5290 -0.3427
C22 C 0.7180(6) 0.4484(6) -0.2295(3)
H22 H 0.6780 0.5408 -0.2173
C23 C 0.7383(4) 0.3208(5) -0.1717(3)
C24 C 0.8587(9) 0.2973(9) -0.4089(3)
H23 H 0.9139 0.1974 -0.4111
H24 H 0.9178 0.3644 -0.4320
H25 H 0.7720 0.3245 -0.4363
C25 C 0.6946(5) 0.3322(5) -0.0905(3)
C26 C 0.6933(6) 0.1942(6) -0.0299(3)
H26 H 0.7876 0.1223 -0.0347
H27 H 0.6196 0.1530 -0.0412
C27 C 0.6639(6) 0.2065(8) 0.0537(3)
H28 H 0.5874 0.2977 0.0560
H29 H 0.6255 0.1242 0.0825
C28 C 0.7847(6) 0.2066(7) 0.0919(3)
H30 H 0.8091 0.3010 0.0689
C29 C 0.7472(5) 0.2013(5) 0.1764(2)
C30 C 0.7793(5) 0.0703(5) 0.2324(3)
H31 H 0.8280 -0.0187 0.2179
C31 C 0.7409(6) 0.0687(6) 0.3086(3)
H32 H 0.7619 -0.0201 0.3457
C32 C 0.6702(6) 0.2023(6) 0.3291(3)
C33 C 0.6375(5) 0.3327(6) 0.2756(3)
H33 H 0.5898 0.4217 0.2902
C34 C 0.6761(5) 0.3311(5) 0.1993(3)
H34 H 0.6533 0.4200 0.1624
loop_
_geom_bond_atom_site_label_1
_geom_bond_atom_site_label_2
_geom_bond_site_symmetry_1
_geom_bond_site_symmetry_2
Br1 C15 1_555 1_555
O1 C8 1_555 1_555
O2 H1 1_555 1_555
C1 H2 1_555 1_555
C2 C1 1_555 1_555
H3 C2 1_555 1_555
C3 C2 1_555 1_555
C4 C3 1_555 1_555
H4 C4 1_555 1_555
C5 C4 1_555 1_555
H5 C5 1_555 1_555
C6 C1 1_555 1_555
C7 C3 1_555 1_555
H6 C7 1_555 1_555
H7 C7 1_555 1_555
H8 C7 1_555 1_555
C8 C6 1_555 1_555
C9 C8 1_555 1_555
H9 C9 1_555 1_555
H10 C9 1_555 1_555
C10 C9 1_555 1_555
H11 C10 1_555 1_555
H12 C10 1_555 1_555
C11 O2 1_555 1_555
H13 C11 1_555 1_555
C12 C11 1_555 1_555
C13 C12 1_555 1_555
H14 C13 1_555 1_555
C14 C13 1_555 1_555
H15 C14 1_555 1_555
C15 C14 1_555 1_555
C16 C15 1_555 1_555
H16 C16 1_555 1_555
C17 C12 1_555 1_555
H17 C17 1_555 1_555
Br2 C32 1_555 1_555
O3 C25 1_555 1_555
O4 H18 1_555 1_555
C18 H19 1_555 1_555
C19 C18 1_555 1_555
H20 C19 1_555 1_555
C20 C19 1_555 1_555
C21 C20 1_555 1_555
H21 C21 1_555 1_555
C22 C21 1_555 1_555
H22 C22 1_555 1_555
C23 C18 1_555 1_555
C24 C20 1_555 1_555
H23 C24 1_555 1_555
H24 C24 1_555 1_555
H25 C24 1_555 1_555
C25 C23 1_555 1_555
C26 C25 1_555 1_555
H26 C26 1_555 1_555
H27 C26 1_555 1_555
C27 C26 1_555 1_555
H28 C27 1_555 1_555
H29 C27 1_555 1_555
C28 O4 1_555 1_555
H30 C28 1_555 1_555
C29 C28 1_555 1_555
C30 C29 1_555 1_555
H31 C30 1_555 1_555
C31 C30 1_555 1_555
H32 C31 1_555 1_555
C32 C31 1_555 1_555
C33 C32 1_555 1_555
H33 C33 1_555 1_555
C34 C29 1_555 1_555
H34 C34 1_555 1_555
C5 C6 1_555 1_555
C10 C11 1_555 1_555
C16 C17 1_555 1_555
C22 C23 1_555 1_555
C27 C28 1_555 1_555
C33 C34 1_555 1_555

#END
