
#######################################################################
#
#                 Cambridge Crystallographic Data Centre
#                                CCDC 
#
#######################################################################
#
# If this CIF has been generated from an entry in the Cambridge 
# Structural Database, then it will include bibliographic, chemical, 
# crystal, experimental, refinement or atomic coordinate data resulting 
# from the CCDC's data processing and validation procedures.
#
#######################################################################

data_EQIJEV
_chemical_formula_moiety         'C33 H29 F3 O1 Si1'
_chemical_name_systematic        
((4-(diphenylmethylene)-2,3-diphenyl-1-(trifluoromethyl)cyclobut-2-en-1-yl)oxy)(trimethyl)silane
_symmetry_cell_setting           orthorhombic
_symmetry_space_group_name_H-M   'P b c a'
_symmetry_Int_Tables_number      61
_space_group_name_Hall           '-P 2ac 2ab'
loop_
_symmetry_equiv_pos_site_id
_symmetry_equiv_pos_as_xyz
1 x,y,z
2 1/2-x,-y,1/2+z
3 -x,1/2+y,1/2-z
4 1/2+x,1/2-y,-z
5 -x,-y,-z
6 1/2+x,y,1/2-z
7 x,1/2-y,1/2+z
8 1/2-x,1/2+y,z
_cell_length_a                   10.9930(13)
_cell_length_b                   14.8065(18)
_cell_length_c                   34.562(4)
_cell_angle_alpha                90
_cell_angle_beta                 90
_cell_angle_gamma                90
_cell_volume                     5625.58
_exptl_crystal_colour            yellow
_exptl_crystal_description       block
_cell_formula_units_Z            8
loop_
_atom_site_label
_atom_site_type_symbol
_atom_site_fract_x
_atom_site_fract_y
_atom_site_fract_z
Si1 Si 0.61273(6) 1.07966(5) 0.423551(18)
O1 O 0.61438(12) 0.99545(10) 0.39147(4)
C1 C 0.7116(4) 1.1715(3) 0.40592(11)
H1 H 0.7908 1.1477 0.4001
H2 H 0.7184 1.2172 0.4255
H3 H 0.6769 1.1973 0.3829
C2 C 0.6787(4) 1.0340(2) 0.46857(8)
H4 H 0.6219 0.9932 0.4804
H5 H 0.6959 1.0827 0.4861
H6 H 0.7526 1.0023 0.4627
C3 C 0.4581(3) 1.1220(3) 0.43183(11)
H7 H 0.4252 1.1446 0.4080
H8 H 0.4603 1.1698 0.4506
H9 H 0.4077 1.0739 0.4413
C4 C 0.53048(18) 0.96853(15) 0.36367(6)
C5 C 0.3572(2) 1.01124(15) 0.34674(6)
C6 C 0.4694(2) 1.04113(15) 0.33775(6)
C7 C 0.3944(2) 0.82530(15) 0.42821(6)
C8 C 0.5142(2) 0.82807(19) 0.44053(6)
H10 H 0.5665 0.8713 0.4303
C9 C 0.5574(3) 0.7677(2) 0.46775(7)
H11 H 0.6382 0.7708 0.4756
C10 C 0.4822(3) 0.70299(19) 0.48333(7)
H12 H 0.5112 0.6626 0.5018
C11 C 0.3639(3) 0.69917(19) 0.47116(8)
H13 H 0.3124 0.6551 0.4811
C12 C 0.3203(2) 0.75970(17) 0.44439(7)
H14 H 0.2391 0.7565 0.4370
C13 C 0.39720(19) 0.94338(15) 0.37461(6)
C14 C 0.3392(2) 0.88968(15) 0.39969(6)
C15 C 0.20217(19) 0.89709(16) 0.39979(6)
C16 C 0.0059(2) 0.8666(2) 0.37183(8)
H15 H -0.0407 0.8392 0.3527
C17 C 0.1310(2) 0.85722(19) 0.37144(7)
H16 H 0.1678 0.8237 0.3519
C18 C -0.0495(2) 0.9159(2) 0.40018(8)
H17 H -0.1336 0.9223 0.4003
C19 C 0.0196(2) 0.9561(2) 0.42850(8)
H18 H -0.0179 0.9899 0.4478
C20 C 0.1448(2) 0.94641(19) 0.42841(7)
H19 H 0.1908 0.9734 0.4478
C21 C 0.6849(3) 1.1995(2) 0.28856(9)
H20 H 0.7684 1.2076 0.2859
C22 C 0.6071(3) 1.2581(2) 0.27076(8)
H21 H 0.6378 1.3059 0.2563
C23 C 0.4847(3) 1.24673(19) 0.27409(7)
H22 H 0.4321 1.2867 0.2618
C24 C 0.4381(2) 1.17599(17) 0.29566(7)
H23 H 0.3544 1.1687 0.2979
C25 C 0.5173(2) 1.11510(16) 0.31416(5)
C26 C 0.5936(2) 0.89493(17) 0.33999(6)
C27 C 0.2345(2) 1.03615(18) 0.33120(7)
C28 C 0.1969(3) 1.0006(2) 0.29589(8)
H24 H 0.2500 0.9646 0.2817
C29 C 0.1578(3) 1.0926(2) 0.35077(10)
H25 H 0.1823 1.1187 0.3740
C30 C 0.6417(3) 1.1290(2) 0.31028(7)
H26 H 0.6961 1.0902 0.3225
C31 C 0.0404(3) 1.1113(3) 0.33548(14)
H27 H -0.0128 1.1497 0.3484
C32 C 0.0070(4) 1.0713(4) 0.30109(15)
H28 H -0.0704 1.0820 0.2912
C33 C 0.0822(4) 1.0180(3) 0.28176(11)
H29 H 0.0575 0.9922 0.2585
F1 F 0.62562(16) 0.82419(11) 0.36091(4)
F2 F 0.52275(17) 0.86404(13) 0.31168(5)
F3 F 0.69482(17) 0.92410(12) 0.32309(5)
loop_
_geom_bond_atom_site_label_1
_geom_bond_atom_site_label_2
_geom_bond_site_symmetry_1
_geom_bond_site_symmetry_2
Si1 O1 1_555 1_555
O1 C4 1_555 1_555
C1 Si1 1_555 1_555
H1 C1 1_555 1_555
H2 C1 1_555 1_555
H3 C1 1_555 1_555
C2 Si1 1_555 1_555
H4 C2 1_555 1_555
H5 C2 1_555 1_555
H6 C2 1_555 1_555
C3 Si1 1_555 1_555
H7 C3 1_555 1_555
H8 C3 1_555 1_555
H9 C3 1_555 1_555
C4 C6 1_555 1_555
C5 C6 1_555 1_555
C6 C25 1_555 1_555
C7 C8 1_555 1_555
C8 H10 1_555 1_555
C9 C8 1_555 1_555
H11 C9 1_555 1_555
C10 C9 1_555 1_555
H12 C10 1_555 1_555
C11 C10 1_555 1_555
H13 C11 1_555 1_555
C12 C7 1_555 1_555
H14 C12 1_555 1_555
C13 C4 1_555 1_555
C14 C7 1_555 1_555
C15 C14 1_555 1_555
C16 H15 1_555 1_555
C17 C15 1_555 1_555
H16 C17 1_555 1_555
C18 C16 1_555 1_555
H17 C18 1_555 1_555
C19 C18 1_555 1_555
H18 C19 1_555 1_555
C20 C15 1_555 1_555
H19 C20 1_555 1_555
C21 H20 1_555 1_555
C22 C21 1_555 1_555
H21 C22 1_555 1_555
C23 C22 1_555 1_555
H22 C23 1_555 1_555
C24 C23 1_555 1_555
H23 C24 1_555 1_555
C25 C24 1_555 1_555
C26 C4 1_555 1_555
C27 C5 1_555 1_555
C28 C27 1_555 1_555
H24 C28 1_555 1_555
C29 C27 1_555 1_555
H25 C29 1_555 1_555
C30 C21 1_555 1_555
H26 C30 1_555 1_555
C31 C29 1_555 1_555
H27 C31 1_555 1_555
C32 C31 1_555 1_555
H28 C32 1_555 1_555
C33 C28 1_555 1_555
H29 C33 1_555 1_555
F1 C26 1_555 1_555
F2 C26 1_555 1_555
F3 C26 1_555 1_555
C5 C13 1_555 1_555
C11 C12 1_555 1_555
C13 C14 1_555 1_555
C16 C17 1_555 1_555
C19 C20 1_555 1_555
C25 C30 1_555 1_555
C32 C33 1_555 1_555

#END
