
#######################################################################
#
#                 Cambridge Crystallographic Data Centre
#                                CCDC 
#
#######################################################################
#
# If this CIF has been generated from an entry in the Cambridge 
# Structural Database, then it will include bibliographic, chemical, 
# crystal, experimental, refinement or atomic coordinate data resulting 
# from the CCDC's data processing and validation procedures.
#
#######################################################################

data_EQIMAT
_chemical_formula_moiety         'C18 H18 O4'
_chemical_name_systematic        
3,3'-(1,4-Phenylenedimethylylidene)dipentane-2,4-dione
_symmetry_cell_setting           triclinic
_symmetry_space_group_name_H-M   'P -1'
_symmetry_Int_Tables_number      2
_space_group_name_Hall           '-P 1'
loop_
_symmetry_equiv_pos_site_id
_symmetry_equiv_pos_as_xyz
1 x,y,z
2 -x,-y,-z
_cell_length_a                   5.9813(7)
_cell_length_b                   6.5028(8)
_cell_length_c                   10.2477(12)
_cell_angle_alpha                80.560(4)
_cell_angle_beta                 83.616(4)
_cell_angle_gamma                79.105(4)
_cell_volume                     384.776
_exptl_crystal_colour            colorless
_exptl_crystal_description       block
_cell_formula_units_Z            1
loop_
_atom_site_label
_atom_site_type_symbol
_atom_site_fract_x
_atom_site_fract_y
_atom_site_fract_z
O1 O 0.48697(17) 0.41093(18) 0.75042(11)
O2 O 0.15885(19) 0.81863(16) 0.61562(11)
C1 C 0.1809(2) 0.0516(2) 0.91216(13)
H1 H 0.3037 0.0846 0.8536
C2 C -0.0151(2) 0.2060(2) 0.92575(12)
C3 C -0.0491(2) 0.4215(2) 0.85300(12)
H2 H -0.1852 0.5070 0.8776
C4 C 0.0846(2) 0.5157(2) 0.75643(12)
C5 C 0.0187(2) 0.7392(2) 0.69386(13)
C6 C -0.2137(3) 0.8629(2) 0.72589(15)
H3 H -0.2258 1.0035 0.6774
H4 H -0.2358 0.8702 0.8194
H5 H -0.3282 0.7943 0.7014
C7 C -0.1946(2) 0.1476(2) 1.01597(13)
H6 H -0.3266 0.2467 1.0275
C8 C 0.3141(2) 0.4129(2) 0.69881(13)
C9 C 0.3121(3) 0.3204(2) 0.57513(14)
H7 H 0.4651 0.2594 0.5466
H8 H 0.2514 0.4296 0.5068
H9 H 0.2184 0.2126 0.5923
O1A O -0.48697(17) -0.41093(18) 1.24958(11)
O2A O -0.15885(19) -0.81863(16) 1.38438(11)
C1A C -0.1809(2) -0.0516(2) 1.08784(13)
H1A H -0.3037 -0.0846 1.1464
C2A C 0.0151(2) -0.2060(2) 1.07425(12)
C3A C 0.0491(2) -0.4215(2) 1.14700(12)
H2A H 0.1852 -0.5070 1.1224
C4A C -0.0846(2) -0.5157(2) 1.24357(12)
C5A C -0.0187(2) -0.7392(2) 1.30614(13)
C6A C 0.2137(3) -0.8629(2) 1.27411(15)
H3A H 0.2258 -1.0035 1.3226
H4A H 0.2358 -0.8702 1.1806
H5A H 0.3282 -0.7943 1.2986
C7A C 0.1946(2) -0.1476(2) 0.98403(13)
H6A H 0.3266 -0.2467 0.9725
C8A C -0.3141(2) -0.4129(2) 1.30119(13)
C9A C -0.3121(3) -0.3204(2) 1.42487(14)
H7A H -0.4651 -0.2594 1.4534
H8A H -0.2514 -0.4296 1.4932
H9A H -0.2184 -0.2126 1.4077
loop_
_geom_bond_atom_site_label_1
_geom_bond_atom_site_label_2
_geom_bond_site_symmetry_1
_geom_bond_site_symmetry_2
O1 C8 1_555 1_555
O2 C5 1_555 1_555
C1 H1 1_555 1_555
C2 C1 1_555 1_555
C3 C2 1_555 1_555
H2 C3 1_555 1_555
C4 C3 1_555 1_555
C5 C4 1_555 1_555
C6 C5 1_555 1_555
H3 C6 1_555 1_555
H4 C6 1_555 1_555
H5 C6 1_555 1_555
C7 C2 1_555 1_555
H6 C7 1_555 1_555
C8 C4 1_555 1_555
C9 C8 1_555 1_555
H7 C9 1_555 1_555
H8 C9 1_555 1_555
H9 C9 1_555 1_555
O1A C8A 1_555 1_555
O2A C5A 1_555 1_555
C1A C7 1_555 1_555
H1A C1A 1_555 1_555
C2A C1A 1_555 1_555
C3A C2A 1_555 1_555
H2A C3A 1_555 1_555
C4A C3A 1_555 1_555
C5A C4A 1_555 1_555
C6A C5A 1_555 1_555
H3A C6A 1_555 1_555
H4A C6A 1_555 1_555
H5A C6A 1_555 1_555
C7A C1 1_555 1_555
H6A C7A 1_555 1_555
C8A C4A 1_555 1_555
C9A C8A 1_555 1_555
H7A C9A 1_555 1_555
H8A C9A 1_555 1_555
H9A C9A 1_555 1_555
C2A C7A 1_555 1_555

#END
