
#######################################################################
#
#                 Cambridge Crystallographic Data Centre
#                                CCDC 
#
#######################################################################
#
# If this CIF has been generated from an entry in the Cambridge 
# Structural Database, then it will include bibliographic, chemical, 
# crystal, experimental, refinement or atomic coordinate data resulting 
# from the CCDC's data processing and validation procedures.
#
#######################################################################

data_EQIXUZ
_chemical_formula_moiety         'C14 H10 Br1 F3 N2 O1'
_chemical_name_systematic        
(R)-4-(4-bromophenyl)-1,1,1-trifluoro-2-(1-methyl-1H-imidazol-2-yl)but-3-yn-2-ol
_symmetry_cell_setting           orthorhombic
_symmetry_space_group_name_H-M   'P 21 21 21'
_symmetry_Int_Tables_number      19
_space_group_name_Hall           'P 2ac 2ab'
loop_
_symmetry_equiv_pos_site_id
_symmetry_equiv_pos_as_xyz
1 x,y,z
2 1/2-x,-y,1/2+z
3 -x,1/2+y,1/2-z
4 1/2+x,1/2-y,-z
_cell_length_a                   10.9456(3)
_cell_length_b                   12.5890(4)
_cell_length_c                   21.7213(6)
_cell_angle_alpha                90
_cell_angle_beta                 90
_cell_angle_gamma                90
_cell_volume                     2993.07
_exptl_crystal_colour            colorless
_exptl_crystal_description       needle
_cell_formula_units_Z            8
loop_
_atom_site_label
_atom_site_type_symbol
_atom_site_fract_x
_atom_site_fract_y
_atom_site_fract_z
F1 F 0.9271(2) 0.0505(2) 0.36869(11)
F2 F 0.8373(2) -0.0764(2) 0.41653(10)
F3 F 0.7748(2) 0.0843(2) 0.42790(10)
O1 O 0.7863(2) -0.0738(2) 0.29371(12)
N1 N 0.6170(3) 0.1714(2) 0.31224(13)
N2 N 0.7834(3) 0.1475(3) 0.25577(14)
C1 C 0.7297(4) 0.0012(3) 0.33224(17)
C2 C 0.6123(4) -0.0387(3) 0.35556(16)
C3 C 0.5198(4) -0.0798(3) 0.37095(17)
C4 C 0.4156(17) -0.1420(17) 0.3939(16)
C5 C 0.4347(14) -0.2478(16) 0.4086(12)
H1 H 0.5142 -0.2774 0.4050
C6 C 0.3397(11) -0.3105(12) 0.4284(9)
H2 H 0.3528 -0.3836 0.4372
C7 C 0.2263(11) -0.2668(10) 0.4353(7)
C8 C 0.2030(12) -0.1599(11) 0.4220(6)
H3 H 0.1240 -0.1302 0.4275
C9 C 0.2989(16) -0.0998(13) 0.4008(10)
H4 H 0.2851 -0.0274 0.3906
Br1 Br 0.0964(4) -0.3507(5) 0.46514(11)
C10 C 0.8183(4) 0.0152(3) 0.38697(19)
C11 C 0.7106(3) 0.1079(3) 0.30065(16)
C12 C 0.6316(4) 0.2559(3) 0.27273(16)
H5 H 0.5785 0.3156 0.2704
C13 C 0.7324(4) 0.2417(3) 0.23766(17)
H6 H 0.7620 0.2880 0.2065
C14 C 0.8946(4) 0.1034(3) 0.2269(2)
H7 H 0.8715 0.0489 0.1968
H8 H 0.9466 0.0716 0.2587
H9 H 0.9395 0.1603 0.2061
H10 H 0.740(4) -0.084(3) 0.2621(19)
Br3 Br 0.11314(4) -0.07505(3) 0.01928(2)
F4 F 0.1390(2) 0.32629(18) 0.37575(10)
F5 F 0.2494(2) 0.29635(18) 0.45595(10)
F6 F 0.16141(19) 0.16630(18) 0.40926(10)
O2 O 0.4065(3) 0.1702(2) 0.38808(11)
N3 N 0.3735(3) 0.4186(2) 0.30574(13)
N4 N 0.4826(3) 0.3897(2) 0.39054(14)
C21 C 0.3322(3) 0.2456(3) 0.35875(16)
C22 C 0.2893(4) 0.2066(3) 0.29857(17)
C23 C 0.2582(3) 0.1659(3) 0.25181(17)
C24 C 0.2226(3) 0.1118(3) 0.19615(17)
C25 C 0.1874(3) 0.0037(3) 0.19985(18)
H15 H 0.1868 -0.0314 0.2386
C26 C 0.1541(3) -0.0503(3) 0.14775(16)
H16 H 0.1289 -0.1223 0.1503
C27 C 0.1575(3) 0.0009(3) 0.09157(17)
C28 C 0.1919(4) 0.1061(3) 0.08669(18)
H17 H 0.1935 0.1400 0.0476
C29 C 0.2239(3) 0.1618(3) 0.13912(17)
H18 H 0.2469 0.2343 0.1361
C30 C 0.2195(4) 0.2585(3) 0.40067(17)
C31 C 0.3949(3) 0.3522(3) 0.35195(15)
C32 C 0.4513(3) 0.5027(3) 0.31560(18)
H19 H 0.4571 0.5639 0.2901
C33 C 0.5185(4) 0.4854(3) 0.36705(19)
H20 H 0.5791 0.5312 0.3837
C34 C 0.5377(4) 0.3416(3) 0.44581(18)
H21 H 0.4730 0.3149 0.4729
H22 H 0.5859 0.3952 0.4678
H23 H 0.5910 0.2827 0.4336
H24 H 0.469(4) 0.161(4) 0.369(2)
C15? C 0.410(3) -0.134(3) 0.386(3)
C16? C 0.417(2) -0.242(3) 0.400(2)
H11? H 0.4905 -0.2799 0.3936
C17? C 0.3154(19) -0.2934(19) 0.4235(15)
H12? H 0.3203 -0.3659 0.4354
C18? C 0.2077(14) -0.2387(17) 0.4293(10)
C19? C 0.1972(19) -0.1335(16) 0.4104(10)
H13? H 0.1204 -0.0985 0.4113
C20? C 0.299(2) -0.082(2) 0.3907(15)
H14? H 0.2935 -0.0089 0.3797
Br2? Br 0.0741(10) -0.3173(12) 0.4600(4)
loop_
_geom_bond_atom_site_label_1
_geom_bond_atom_site_label_2
_geom_bond_site_symmetry_1
_geom_bond_site_symmetry_2
F1 C10 1_555 1_555
F2 C10 1_555 1_555
F3 C10 1_555 1_555
O1 C1 1_555 1_555
N1 C11 1_555 1_555
N2 C11 1_555 1_555
C1 C2 1_555 1_555
C2 C3 1_555 1_555
C3 C4 1_555 1_555
C4 C5 1_555 1_555
C5 H1 1_555 1_555
C6 C5 1_555 1_555
H2 C6 1_555 1_555
C7 C6 1_555 1_555
C8 C7 1_555 1_555
H3 C8 1_555 1_555
C9 C4 1_555 1_555
H4 C9 1_555 1_555
Br1 C7 1_555 1_555
C10 C1 1_555 1_555
C11 C1 1_555 1_555
C12 N1 1_555 1_555
H5 C12 1_555 1_555
C13 N2 1_555 1_555
H6 C13 1_555 1_555
C14 N2 1_555 1_555
H7 C14 1_555 1_555
H8 C14 1_555 1_555
H9 C14 1_555 1_555
H10 O1 1_555 1_555
Br3 C27 1_555 1_555
F4 C30 1_555 1_555
F5 C30 1_555 1_555
F6 C30 1_555 1_555
O2 C21 1_555 1_555
N3 C31 1_555 1_555
N4 C31 1_555 1_555
C21 C22 1_555 1_555
C22 C23 1_555 1_555
C23 C24 1_555 1_555
C24 C25 1_555 1_555
C25 H15 1_555 1_555
C26 C25 1_555 1_555
H16 C26 1_555 1_555
C27 C26 1_555 1_555
C28 C27 1_555 1_555
H17 C28 1_555 1_555
C29 C24 1_555 1_555
H18 C29 1_555 1_555
C30 C21 1_555 1_555
C31 C21 1_555 1_555
C32 N3 1_555 1_555
H19 C32 1_555 1_555
C33 N4 1_555 1_555
H20 C33 1_555 1_555
C34 N4 1_555 1_555
H21 C34 1_555 1_555
H22 C34 1_555 1_555
H23 C34 1_555 1_555
H24 O2 1_555 1_555
C8 C9 1_555 1_555
C12 C13 1_555 1_555
C28 C29 1_555 1_555
C32 C33 1_555 1_555

#END
