
#######################################################################
#
#                 Cambridge Crystallographic Data Centre
#                                CCDC 
#
#######################################################################
#
# If this CIF has been generated from an entry in the Cambridge 
# Structural Database, then it will include bibliographic, chemical, 
# crystal, experimental, refinement or atomic coordinate data resulting 
# from the CCDC's data processing and validation procedures.
#
#######################################################################

data_EQOGIA
_chemical_formula_moiety         'C23 H18 S5'
_chemical_name_systematic        
1,3-bis(4-Methyl-5-phenyl-1,2-dithiol-3-ylidene)propane-2-thione
_symmetry_cell_setting           monoclinic
_symmetry_space_group_name_H-M   'C 2/c'
_symmetry_Int_Tables_number      15
_space_group_name_Hall           '-C 2yn'
loop_
_symmetry_equiv_pos_site_id
_symmetry_equiv_pos_as_xyz
1 x,y,z
2 1/2+x,1/2+y,z
3 x,-y,1/2+z
4 1/2+x,1/2-y,1/2+z
5 -x,-y,-z
6 1/2-x,1/2-y,-z
7 -x,y,1/2-z
8 1/2-x,1/2+y,1/2-z
_cell_length_a                   26.434(5)
_cell_length_b                   7.235(5)
_cell_length_c                   11.203(5)
_cell_angle_alpha                90
_cell_angle_beta                 105.957(5)
_cell_angle_gamma                90
_cell_volume                     2060.02
_exptl_crystal_colour            red
_exptl_crystal_description       needle-shaped
_cell_formula_units_Z            4
_exptl_crystal_recrystallization_method cyclohexane
loop_
_atom_site_label
_atom_site_type_symbol
_atom_site_fract_x
_atom_site_fract_y
_atom_site_fract_z
C1 C 0.3792(4) 0.4495(11) 0.0118(9)
C2 C 0.4071(4) 0.5375(11) -0.0615(9)
C3 C 0.4416(4) 0.4259(11) -0.1095(8)
C4 C 0.4699(4) 0.4985(10) -0.1838(8)
H1 H 0.4697 0.6291 -0.1924
C5 C 0.50000 0.3953(16) -0.25
C6 C 0.3404(4) 0.5354(11) 0.0698(9)
C7 C 0.2919(4) 0.4546(12) 0.0500(9)
H2 H 0.2842 0.345 0.0017
C8 C 0.2536(4) 0.5308(12) 0.0998(9)
H3 H 0.2199 0.4758 0.0854
C9 C 0.2667(4) 0.6905(13) 0.1713(9)
H4 H 0.2417 0.7432 0.208
C10 C 0.3157(4) 0.7744(13) 0.1900(9)
H5 H 0.3235 0.8846 0.2377
C11 C 0.3527(4) 0.6976(12) 0.1394(8)
H6 H 0.3862 0.7541 0.1516
C12 C 0.3998(4) 0.7357(12) -0.0952(9)
H7 H 0.3662 0.7787 -0.0845
H8 H 0.3999 0.7519 -0.1821
H9 H 0.4286 0.8077 -0.0415
S1 S 0.39195(11) 0.2155(3) 0.0398(2)
S2 S 0.44258(10) 0.1882(3) -0.0757(2)
S3 S 0.50000 0.1611(4) -0.25
C4F C 0.5301(4) 0.4985(10) -0.3162(8)
C3F C 0.5584(4) 0.4259(11) -0.3905(8)
C2F C 0.5929(4) 0.5375(11) -0.4385(9)
C1F C 0.6208(4) 0.4495(11) -0.5118(9)
C6F C 0.6596(4) 0.5354(11) -0.5698(9)
C7F C 0.7081(4) 0.4546(12) -0.5500(9)
H2F H 0.7158 0.345 -0.5017
C8F C 0.7464(4) 0.5308(12) -0.5998(9)
H3F H 0.7801 0.4758 -0.5854
C9F C 0.7333(4) 0.6905(13) -0.6713(9)
H4F H 0.7583 0.7432 -0.708
C10F C 0.6843(4) 0.7744(13) -0.6900(9)
H5F H 0.6765 0.8846 -0.7377
C11F C 0.6473(4) 0.6976(12) -0.6394(8)
H6F H 0.6138 0.7541 -0.6516
S1F S 0.60805(11) 0.2155(3) -0.5398(2)
S2F S 0.55742(10) 0.1882(3) -0.4243(2)
C12F C 0.6002(4) 0.7357(12) -0.4048(9)
H7F H 0.6338 0.7787 -0.4155
H8F H 0.6001 0.7519 -0.3179
H9F H 0.5714 0.8077 -0.4585
H1F H 0.5303 0.6291 -0.3076
loop_
_geom_bond_atom_site_label_1
_geom_bond_atom_site_label_2
_geom_bond_site_symmetry_1
_geom_bond_site_symmetry_2
C1 C2 1_555 1_555
C2 C3 1_555 1_555
C3 C4 1_555 1_555
C4 H1 1_555 1_555
C5 C4 1_555 1_555
C6 C1 1_555 1_555
C7 C6 1_555 1_555
H2 C7 1_555 1_555
C8 C7 1_555 1_555
H3 C8 1_555 1_555
C9 C8 1_555 1_555
H4 C9 1_555 1_555
C10 C9 1_555 1_555
H5 C10 1_555 1_555
C11 C6 1_555 1_555
H6 C11 1_555 1_555
C12 C2 1_555 1_555
H7 C12 1_555 1_555
H8 C12 1_555 1_555
H9 C12 1_555 1_555
S1 C1 1_555 1_555
S2 C3 1_555 1_555
S3 C5 1_555 1_555
C4F C5 1_555 1_555
C3F C4F 1_555 1_555
C2F C3F 1_555 1_555
C1F C2F 1_555 1_555
C6F C1F 1_555 1_555
C7F C6F 1_555 1_555
H2F C7F 1_555 1_555
C8F C7F 1_555 1_555
H3F C8F 1_555 1_555
C9F C8F 1_555 1_555
H4F C9F 1_555 1_555
C10F C9F 1_555 1_555
H5F C10F 1_555 1_555
C11F C6F 1_555 1_555
H6F C11F 1_555 1_555
S1F C1F 1_555 1_555
S2F C3F 1_555 1_555
C12F C2F 1_555 1_555
H7F C12F 1_555 1_555
H8F C12F 1_555 1_555
H9F C12F 1_555 1_555
H1F C4F 1_555 1_555
C10 C11 1_555 1_555
S1 S2 1_555 1_555
C10F C11F 1_555 1_555
S1F S2F 1_555 1_555

#END
