
#######################################################################
#
#                 Cambridge Crystallographic Data Centre
#                                CCDC 
#
#######################################################################
#
# If this CIF has been generated from an entry in the Cambridge 
# Structural Database, then it will include bibliographic, chemical, 
# crystal, experimental, refinement or atomic coordinate data resulting 
# from the CCDC's data processing and validation procedures.
#
#######################################################################

data_EQOJIF
_chemical_formula_moiety         'C22 H20 Cl1 N1 O5'
_chemical_name_systematic        
'ethyl 4-(1-acetyl-6-chloro-3-oxo-2,3-dihydro-1H-indol-2-yl)-2-oxo-4-phenylbutanoate'
_symmetry_cell_setting           monoclinic
_symmetry_space_group_name_H-M   'P 21'
_symmetry_Int_Tables_number      4
_space_group_name_Hall           'P 2yb'
loop_
_symmetry_equiv_pos_site_id
_symmetry_equiv_pos_as_xyz
1 x,y,z
2 -x,1/2+y,-z
_cell_length_a                   10.451(2)
_cell_length_b                   34.794(7)
_cell_length_c                   11.219(2)
_cell_angle_alpha                90
_cell_angle_beta                 104.42(3)
_cell_angle_gamma                90
_cell_volume                     3951.07
_exptl_crystal_colour            colorless
_exptl_crystal_description       prism
_cell_formula_units_Z            8
loop_
_atom_site_label
_atom_site_type_symbol
_atom_site_fract_x
_atom_site_fract_y
_atom_site_fract_z
Cl1 Cl -0.30999(9) 0.00419(3) 0.21931(9)
O1 O 0.1001(3) 0.15582(7) 0.4335(2)
O2 O 0.1777(3) 0.00626(7) 0.2423(3)
O3 O 0.5002(2) 0.13024(7) 0.3572(2)
O4 O 0.4792(3) 0.22906(8) 0.3716(3)
O5 O 0.6588(2) 0.19131(7) 0.3971(2)
N1 N 0.1529(3) 0.06838(8) 0.2917(3)
C1 C 0.0174(3) 0.06589(10) 0.2937(3)
C2 C -0.0712(3) 0.03615(10) 0.2504(3)
H1 H -0.0468 0.0138 0.2128
C3 C -0.1981(3) 0.04150(11) 0.2663(3)
C4 C -0.2375(4) 0.07355(11) 0.3201(3)
H2 H -0.3253 0.0754 0.3291
C5 C -0.1480(4) 0.10317(11) 0.3609(3)
H3 H -0.1736 0.1257 0.3968
C6 C -0.0195(3) 0.09882(10) 0.3478(3)
C7 C 0.0925(4) 0.12450(10) 0.3812(3)
C8 C 0.2041(3) 0.10677(9) 0.3332(3)
H4 H 0.2866 0.1047 0.4009
C9 C 0.2278(4) 0.03768(10) 0.2690(4)
C10 C 0.3721(4) 0.04476(11) 0.2798(5)
H5 H 0.4137 0.0210 0.2617
H6 H 0.4146 0.0532 0.3636
H7 H 0.3819 0.0647 0.2211
C11 C 0.2286(3) 0.13190(9) 0.2253(3)
H8 H 0.2847 0.1164 0.1829
C12 C 0.0991(3) 0.13960(9) 0.1320(3)
C13 C 0.0264(4) 0.17329(10) 0.1349(3)
H9 H 0.0617 0.1928 0.1931
C14 C -0.0961(4) 0.17847(11) 0.0543(3)
H10 H -0.1441 0.2014 0.0577
C15 C -0.1491(4) 0.15057(12) -0.0310(3)
H11 H -0.2336 0.1542 -0.0856
C16 C -0.0784(4) 0.11726(11) -0.0368(3)
H12 H -0.1140 0.0981 -0.0960
C17 C 0.0448(3) 0.11190(10) 0.0444(3)
H13 H 0.0927 0.0890 0.0400
C18 C 0.3065(3) 0.16820(9) 0.2745(3)
H14 H 0.3007 0.1863 0.2053
H15 H 0.2643 0.1807 0.3344
C19 C 0.4493(3) 0.16136(9) 0.3357(3)
C20 C 0.5309(4) 0.19833(10) 0.3701(3)
C21 C 0.7446(4) 0.22510(11) 0.4314(4)
H16 H 0.8107 0.2203 0.5101
H17 H 0.6913 0.2478 0.4420
C22 C 0.8125(11) 0.2324(3) 0.3311(9)
H18 H 0.8707 0.2548 0.3523
H19 H 0.7464 0.2373 0.2538
H20 H 0.8651 0.2098 0.3213
Cl2 Cl 0.70699(8) 0.07025(2) 0.63766(9)
O6 O 0.3226(3) 0.22523(6) 0.6860(3)
O7 O 0.2190(3) 0.06332(7) 0.6302(3)
O8 O -0.0636(2) 0.19007(7) 0.7169(2)
O9 O -0.0146(3) 0.26843(7) 0.9147(3)
O10 O -0.2025(2) 0.24357(7) 0.7973(3)
N2 N 0.2581(3) 0.12548(7) 0.6832(2)
C24 C 0.3885(3) 0.12711(9) 0.6667(3)
C25 C 0.4707(3) 0.09654(9) 0.6531(3)
H26 H 0.4418 0.0706 0.6483
C26 C 0.5967(3) 0.10667(9) 0.6472(3)
C27 C 0.6424(3) 0.14464(9) 0.6506(3)
H27 H 0.7303 0.1500 0.6463
C28 C 0.5577(3) 0.17397(9) 0.6603(3)
H28 H 0.5855 0.2000 0.6613
C29 C 0.4304(3) 0.16495(9) 0.6687(3)
C30 C 0.3249(3) 0.19035(9) 0.6856(3)
C31 C 0.2155(3) 0.16454(8) 0.7079(3)
H29 H 0.1297 0.1710 0.6485
C32 C 0.1784(3) 0.09350(9) 0.6620(3)
C33 C 0.0416(3) 0.09629(9) 0.6794(3)
H30 H -0.0029 0.0714 0.6609
H31 H -0.0079 0.1159 0.6238
H32 H 0.0457 0.1034 0.7647
C34 C 0.2025(3) 0.16892(9) 0.8423(3)
H33 H 0.1410 0.1483 0.8561
C35 C 0.3341(3) 0.16234(10) 0.9345(3)
C36 C 0.3764(4) 0.12483(10) 0.9679(3)
H34 H 0.3206 0.1038 0.9358
C37 C 0.5001(4) 0.11807(13) 1.0480(3)
H35 H 0.5277 0.0924 1.0697
C38 C 0.5820(4) 0.14810(13) 1.0954(3)
H36 H 0.6665 0.1434 1.1489
C39 C 0.5400(4) 0.18557(13) 1.0642(4)
H37 H 0.5951 0.2066 1.0983
C40 C 0.4175(4) 0.19239(11) 0.9832(3)
H38 H 0.3909 0.2181 0.9611
C41 C 0.1399(3) 0.20772(9) 0.8614(3)
H39 H 0.1508 0.2117 0.9507
H40 H 0.1887 0.2285 0.8314
C42 C -0.0033(3) 0.21119(9) 0.7981(3)
C43 C -0.0742(4) 0.24479(9) 0.8432(3)
C44 C -0.2730(5) 0.27456(12) 0.8368(6)
H41 H -0.2086 0.2947 0.8739
H42 H -0.3342 0.2858 0.7634
C45 C -0.3463(10) 0.2646(2) 0.9224(9)
H43 H -0.3905 0.2875 0.9436
H44 H -0.2867 0.2541 0.9969
H45 H -0.4127 0.2452 0.8860
Cl3 Cl 0.53015(10) 1.02694(3) 0.89135(9)
O11 O 0.8684(3) 0.86687(7) 0.7966(2)
O12 O 1.0138(3) 1.02580(7) 0.9091(2)
O13 O 1.2967(2) 0.90083(7) 0.8183(2)
O14 O 1.3236(7) 0.80409(16) 0.8876(7)
O15 O 1.4541(3) 0.83682(9) 0.8325(4)
N3 N 0.9754(3) 0.96170(7) 0.8798(3)
C47 C 0.8384(3) 0.96334(9) 0.8720(3)
C48 C 0.7625(3) 0.99470(10) 0.8895(3)
H51 H 0.8008 1.0193 0.9117
C49 C 0.6286(4) 0.98840(11) 0.8729(3)
C50 C 0.5691(4) 0.95262(11) 0.8432(3)
H52 H 0.4768 0.9495 0.8338
C51 C 0.6457(3) 0.92201(10) 0.8278(3)
H53 H 0.6075 0.8973 0.8083
C52 C 0.7805(3) 0.92761(9) 0.8411(3)
C53 C 0.8814(3) 0.90043(9) 0.8253(3)
C54 C 1.0133(3) 0.92196(9) 0.8567(3)
H54 H 1.0536 0.9215 0.7847
C55 C 1.0552(3) 0.99424(9) 0.8900(3)
C56 C 1.1947(4) 0.98942(11) 0.8785(4)
H55 H 1.2389 1.0145 0.8877
H56 H 1.1935 0.9787 0.7975
H57 H 1.2425 0.9720 0.9429
C57 C 1.1094(3) 0.90321(9) 0.9708(3)
H58 H 1.1832 0.9217 1.0032
C58 C 1.0370(3) 0.89636(9) 1.0718(3)
C59 C 1.0247(3) 0.92664(10) 1.1503(3)
H59 H 1.0666 0.9505 1.1441
C60 C 0.9512(4) 0.92195(11) 1.2376(3)
H60 H 0.9436 0.9426 1.2907
C61 C 0.8893(4) 0.88732(10) 1.2471(3)
H61 H 0.8383 0.8843 1.3058
C62 C 0.9024(4) 0.85695(11) 1.1702(3)
H62 H 0.8609 0.8330 1.1771
C63 C 0.9755(3) 0.86139(9) 1.0835(3)
H63 H 0.9839 0.8405 1.0316
C64 C 1.1693(4) 0.86579(10) 0.9342(3)
H64 H 1.2113 0.8516 1.0103
H65 H 1.0965 0.8496 0.8864
C65 C 1.2694(4) 0.87080(10) 0.8604(3)
C66 C 1.3358(5) 0.83373(12) 0.8368(5)
C67 C 1.5279(5) 0.80254(16) 0.8115(5)
H66 H 1.4765 0.7791 0.8182
H67 H 1.5428 0.8034 0.7278
C68 C 1.6552(5) 0.80149(14) 0.9037(6)
H68 H 1.7037 0.7783 0.8919
H69 H 1.6398 0.8012 0.9864
H70 H 1.7071 0.8243 0.8944
Cl4 Cl 0.92076(8) 0.99930(2) 0.55547(8)
O17 O 0.5283(3) 0.84241(7) 0.5486(3)
O18 O 0.4378(3) 1.00566(7) 0.5464(3)
O19 O 0.1263(2) 0.87531(7) 0.5456(2)
O20 O 0.0691(3) 0.78961(7) 0.3820(2)
O21 O -0.0412(3) 0.81667(7) 0.5092(3)
N4 N 0.4537(3) 0.94145(7) 0.5253(2)
C69 C 0.5898(3) 0.94067(9) 0.5286(3)
C70 C 0.6756(3) 0.97151(9) 0.5336(3)
H71 H 0.6465 0.9974 0.5320
C71 C 0.8067(3) 0.96203(10) 0.5411(3)
C72 C 0.8530(3) 0.92466(10) 0.5397(3)
H72 H 0.9429 0.9199 0.5413
C73 C 0.7660(3) 0.89462(10) 0.5361(3)
H73 H 0.7954 0.8688 0.5366
C74 C 0.6343(3) 0.90275(9) 0.5316(3)
C75 C 0.5256(3) 0.87717(9) 0.5365(3)
C76 C 0.4023(3) 0.90164(9) 0.5202(3)
H74 H 0.3587 0.8970 0.5887
C77 C 0.3848(3) 0.97433(9) 0.5403(3)
C78 C 0.2442(4) 0.97008(10) 0.5487(4)
H75 H 0.2078 0.9955 0.5590
H76 H 0.2415 0.9539 0.6195
H77 H 0.1916 0.9582 0.4732
C79 C 0.3048(3) 0.89281(9) 0.3928(3)
H78 H 0.2348 0.9131 0.3771
C80 C 0.3779(3) 0.89568(9) 0.2914(3)
C81 C 0.3802(3) 0.93045(10) 0.2309(3)
H79 H 0.3312 0.9517 0.2491
C82 C 0.4540(4) 0.93435(11) 0.1434(3)
H80 H 0.4546 0.9583 0.1026
C83 C 0.5260(4) 0.90385(12) 0.1157(3)
H81 H 0.5775 0.9068 0.0574
C84 C 0.5221(4) 0.86892(11) 0.1739(3)
H82 H 0.5700 0.8476 0.1543
C85 C 0.4489(3) 0.86483(10) 0.2604(3)
H83 H 0.4469 0.8407 0.2994
C86 C 0.2363(3) 0.85367(9) 0.3927(3)
H84 H 0.1895 0.8473 0.3069
H85 H 0.3049 0.8338 0.4212
C87 C 0.1393(3) 0.85151(9) 0.4710(3)
C88 C 0.0513(3) 0.81501(9) 0.4486(3)
C89 C -0.1368(5) 0.78464(12) 0.4911(5)
H86 H -0.0947 0.7608 0.4713
H87 H -0.2136 0.7905 0.4217
C90 C -0.1812(5) 0.77928(12) 0.6061(5)
H88 H -0.2451 0.7582 0.5950
H89 H -0.2227 0.8030 0.6251
H90 H -0.1048 0.7731 0.6741
H21? H 0.7758 0.2272 0.5221
H22? H 0.6962 0.2489 0.3994
C23? C 0.8580(9) 0.2193(3) 0.3755(11)
H23? H 0.9186 0.2412 0.3960
H24? H 0.8255 0.2174 0.2859
H25? H 0.9047 0.1956 0.4078
H46? H -0.2626 0.2982 0.7910
H47? H -0.2350 0.2795 0.9255
C46? C -0.4145(6) 0.2655(2) 0.8160(9)
H48? H -0.4603 0.2871 0.8430
H49? H -0.4251 0.2424 0.8631
H50? H -0.4524 0.2607 0.7282
O16? O 1.2509(5) 0.80662(15) 0.7657(7)
loop_
_geom_bond_atom_site_label_1
_geom_bond_atom_site_label_2
_geom_bond_site_symmetry_1
_geom_bond_site_symmetry_2
Cl1 C3 1_555 1_555
O1 C7 1_555 1_555
O2 C9 1_555 1_555
O3 C19 1_555 1_555
O4 C20 1_555 1_555
O5 C20 1_555 1_555
N1 C1 1_555 1_555
C1 C2 1_555 1_555
C2 H1 1_555 1_555
C3 C2 1_555 1_555
C4 C3 1_555 1_555
H2 C4 1_555 1_555
C5 C4 1_555 1_555
H3 C5 1_555 1_555
C6 C1 1_555 1_555
C7 C6 1_555 1_555
C8 N1 1_555 1_555
H4 C8 1_555 1_555
C9 N1 1_555 1_555
C10 C9 1_555 1_555
H5 C10 1_555 1_555
H6 C10 1_555 1_555
H7 C10 1_555 1_555
C11 C8 1_555 1_555
H8 C11 1_555 1_555
C12 C11 1_555 1_555
C13 C12 1_555 1_555
H9 C13 1_555 1_555
C14 C13 1_555 1_555
H10 C14 1_555 1_555
C15 C14 1_555 1_555
H11 C15 1_555 1_555
C16 C15 1_555 1_555
H12 C16 1_555 1_555
C17 C12 1_555 1_555
H13 C17 1_555 1_555
C18 C11 1_555 1_555
H14 C18 1_555 1_555
H15 C18 1_555 1_555
C19 C18 1_555 1_555
C20 C19 1_555 1_555
C21 O5 1_555 1_555
H16 C21 1_555 1_555
H17 C21 1_555 1_555
C22 C21 1_555 1_555
H18 C22 1_555 1_555
H19 C22 1_555 1_555
H20 C22 1_555 1_555
Cl2 C26 1_555 1_555
O6 C30 1_555 1_555
O7 C32 1_555 1_555
O8 C42 1_555 1_555
O9 C43 1_555 1_555
O10 C43 1_555 1_555
N2 C24 1_555 1_555
C24 C25 1_555 1_555
C25 H26 1_555 1_555
C26 C25 1_555 1_555
C27 C26 1_555 1_555
H27 C27 1_555 1_555
C28 C27 1_555 1_555
H28 C28 1_555 1_555
C29 C24 1_555 1_555
C30 C29 1_555 1_555
C31 N2 1_555 1_555
H29 C31 1_555 1_555
C32 N2 1_555 1_555
C33 C32 1_555 1_555
H30 C33 1_555 1_555
H31 C33 1_555 1_555
H32 C33 1_555 1_555
C34 C31 1_555 1_555
H33 C34 1_555 1_555
C35 C34 1_555 1_555
C36 C35 1_555 1_555
H34 C36 1_555 1_555
C37 C36 1_555 1_555
H35 C37 1_555 1_555
C38 C37 1_555 1_555
H36 C38 1_555 1_555
C39 C38 1_555 1_555
H37 C39 1_555 1_555
C40 C35 1_555 1_555
H38 C40 1_555 1_555
C41 C34 1_555 1_555
H39 C41 1_555 1_555
H40 C41 1_555 1_555
C42 C41 1_555 1_555
C43 C42 1_555 1_555
C44 O10 1_555 1_555
H41 C44 1_555 1_555
H42 C44 1_555 1_555
C45 C44 1_555 1_555
H43 C45 1_555 1_555
H44 C45 1_555 1_555
H45 C45 1_555 1_555
Cl3 C49 1_555 1_555
O11 C53 1_555 1_555
O12 C55 1_555 1_555
O13 C65 1_555 1_555
O14 C66 1_555 1_555
O15 C66 1_555 1_555
N3 C47 1_555 1_555
C47 C48 1_555 1_555
C48 H51 1_555 1_555
C49 C48 1_555 1_555
C50 C49 1_555 1_555
H52 C50 1_555 1_555
C51 C50 1_555 1_555
H53 C51 1_555 1_555
C52 C47 1_555 1_555
C53 C52 1_555 1_555
C54 N3 1_555 1_555
H54 C54 1_555 1_555
C55 N3 1_555 1_555
C56 C55 1_555 1_555
H55 C56 1_555 1_555
H56 C56 1_555 1_555
H57 C56 1_555 1_555
C57 C54 1_555 1_555
H58 C57 1_555 1_555
C58 C57 1_555 1_555
C59 C58 1_555 1_555
H59 C59 1_555 1_555
C60 C59 1_555 1_555
H60 C60 1_555 1_555
C61 C60 1_555 1_555
H61 C61 1_555 1_555
C62 C61 1_555 1_555
H62 C62 1_555 1_555
C63 C58 1_555 1_555
H63 C63 1_555 1_555
C64 C57 1_555 1_555
H64 C64 1_555 1_555
H65 C64 1_555 1_555
C65 C64 1_555 1_555
C66 C65 1_555 1_555
C67 O15 1_555 1_555
H66 C67 1_555 1_555
H67 C67 1_555 1_555
C68 C67 1_555 1_555
H68 C68 1_555 1_555
H69 C68 1_555 1_555
H70 C68 1_555 1_555
Cl4 C71 1_555 1_555
O17 C75 1_555 1_555
O18 C77 1_555 1_555
O19 C87 1_555 1_555
O20 C88 1_555 1_555
O21 C88 1_555 1_555
N4 C69 1_555 1_555
C69 C70 1_555 1_555
C70 H71 1_555 1_555
C71 C70 1_555 1_555
C72 C71 1_555 1_555
H72 C72 1_555 1_555
C73 C72 1_555 1_555
H73 C73 1_555 1_555
C74 C69 1_555 1_555
C75 C74 1_555 1_555
C76 N4 1_555 1_555
H74 C76 1_555 1_555
C77 N4 1_555 1_555
C78 C77 1_555 1_555
H75 C78 1_555 1_555
H76 C78 1_555 1_555
H77 C78 1_555 1_555
C79 C76 1_555 1_555
H78 C79 1_555 1_555
C80 C79 1_555 1_555
C81 C80 1_555 1_555
H79 C81 1_555 1_555
C82 C81 1_555 1_555
H80 C82 1_555 1_555
C83 C82 1_555 1_555
H81 C83 1_555 1_555
C84 C83 1_555 1_555
H82 C84 1_555 1_555
C85 C80 1_555 1_555
H83 C85 1_555 1_555
C86 C79 1_555 1_555
H84 C86 1_555 1_555
H85 C86 1_555 1_555
C87 C86 1_555 1_555
C88 C87 1_555 1_555
C89 O21 1_555 1_555
H86 C89 1_555 1_555
H87 C89 1_555 1_555
C90 C89 1_555 1_555
H88 C90 1_555 1_555
H89 C90 1_555 1_555
H90 C90 1_555 1_555
C5 C6 1_555 1_555
C7 C8 1_555 1_555
C16 C17 1_555 1_555
C28 C29 1_555 1_555
C30 C31 1_555 1_555
C39 C40 1_555 1_555
C51 C52 1_555 1_555
C53 C54 1_555 1_555
C62 C63 1_555 1_555
C73 C74 1_555 1_555
C75 C76 1_555 1_555
C84 C85 1_555 1_555

#END
