
#######################################################################
#
#                 Cambridge Crystallographic Data Centre
#                                CCDC 
#
#######################################################################
#
# If this CIF has been generated from an entry in the Cambridge 
# Structural Database, then it will include bibliographic, chemical, 
# crystal, experimental, refinement or atomic coordinate data resulting 
# from the CCDC's data processing and validation procedures.
#
#######################################################################

data_EQORUY
_chemical_name_common            
1,3,5,7-tetramethyl-4,4-difluoro-8-(4-methylphenyl)-4-bora-3a,4a-diaza-s-indacene
_chemical_formula_moiety         'C20 H21 B1 F2 N2'
_chemical_name_systematic        
5,5-Difluoro-1,3,7,9-tetramethyl-10-(4-methylphenyl)-5H-6\l^5^,5\l^5^-dipyrrolo[1,2-c:2',1'-f][1,3,2]diazaborinine
_symmetry_cell_setting           monoclinic
_symmetry_space_group_name_H-M   'P 21'
_symmetry_Int_Tables_number      4
_space_group_name_Hall           'P 2yb'
loop_
_symmetry_equiv_pos_site_id
_symmetry_equiv_pos_as_xyz
1 x,y,z
2 -x,1/2+y,-z
_cell_length_a                   11.882(3)
_cell_length_b                   8.409(2)
_cell_length_c                   44.412(10)
_cell_angle_alpha                90
_cell_angle_beta                 91.766(4)
_cell_angle_gamma                90
_cell_volume                     4435.35
_exptl_crystal_colour            red
_exptl_crystal_description       block
_cell_formula_units_Z            10
loop_
_atom_site_label
_atom_site_type_symbol
_atom_site_fract_x
_atom_site_fract_y
_atom_site_fract_z
C1 C 0.5515(6) 1.3334(10) 0.17648(14)
H1 H 0.6290 1.3293 0.1710
H2 H 0.5446 1.2928 0.1965
H3 H 0.5257 1.4416 0.1757
C2 C 0.1374(5) 1.0083(9) 0.02275(14)
C3 C 0.1934(6) 1.1538(10) 0.02522(15)
H4 H 0.1892 1.2350 0.0110
C4 C 0.2554(5) 1.1591(9) 0.05173(14)
C5 C 0.2388(5) 1.0077(7) 0.06553(12)
C6 C 0.0588(5) 0.9499(9) -0.00128(14)
H5 H 0.0366 0.8429 0.0032
H6 H 0.0954 0.9521 -0.0202
H7 H -0.0067 1.0169 -0.0024
C7 C 0.3310(5) 1.2946(8) 0.06114(14)
H8 H 0.3658 1.2717 0.0805
H9 H 0.2874 1.3903 0.0624
H10 H 0.3882 1.3083 0.0466
C8 C 0.2789(4) 0.9497(8) 0.09321(13)
C9 C 0.2476(4) 0.7957(7) 0.10292(12)
C10 C 0.2752(5) 0.7094(9) 0.12932(13)
C11 C 0.2134(5) 0.5738(9) 0.12770(13)
H11 H 0.2120 0.4952 0.1424
C12 C 0.1517(5) 0.5712(8) 0.10021(13)
C13 C 0.0707(5) 0.4422(9) 0.08873(15)
H12 H 0.0414 0.4707 0.0691
H13 H 0.0098 0.4321 0.1023
H14 H 0.1100 0.3428 0.0876
C14 C 0.3555(5) 0.7455(9) 0.15485(13)
H15 H 0.3885 0.8483 0.1519
H16 H 0.4136 0.6663 0.1557
H17 H 0.3160 0.7453 0.1734
C15 C 0.4668(5) 1.0620(8) 0.11147(12)
H18 H 0.5020 1.0102 0.0959
C16 C 0.3504(5) 1.0485(8) 0.11391(12)
C17 C 0.3020(5) 1.1299(9) 0.13682(13)
H19 H 0.2245 1.1250 0.1389
C18 C 0.3667(6) 1.2192(8) 0.15696(13)
H20 H 0.3314 1.2713 0.1725
C19 C 0.4812(5) 1.2338(8) 0.15476(13)
C20 C 0.5301(5) 1.1501(8) 0.13161(13)
H21 H 0.6078 1.1540 0.1297
N1 N 0.1712(4) 0.7056(6) 0.08519(9)
N2 N 0.1669(4) 0.9194(6) 0.04751(11)
F1 F 0.1720(3) 0.6433(5) 0.03234(7)
F2 F 0.0106(2) 0.7378(4) 0.05183(7)
B1 B 0.1276(6) 0.7469(10) 0.05320(15)
C21 C 0.0755(6) 0.9327(10) 0.39311(15)
H22 H 0.0469 0.8288 0.3976
H23 H 0.1221 0.9267 0.3759
H24 H 0.0138 1.0038 0.3889
C22 C 0.1432(5) 0.9924(10) 0.41939(16)
C23 C 0.1973(6) 1.1429(10) 0.42237(17)
H25 H 0.1965 1.2223 0.4078
C24 C 0.2507(5) 1.1522(9) 0.45005(16)
C25 C 0.3184(5) 1.2942(9) 0.46041(15)
H26 H 0.3461 1.2772 0.4807
H27 H 0.2716 1.3873 0.4597
H28 H 0.3808 1.3087 0.4475
C26 C 0.2288(5) 1.0030(8) 0.46464(15)
C27 C 0.2634(5) 0.9477(9) 0.49306(14)
C28 C 0.2314(5) 0.7953(9) 0.50213(14)
C29 C 0.2532(5) 0.7071(9) 0.52899(14)
C30 C 0.3344(5) 0.7463(11) 0.55525(14)
H29 H 0.3682 0.8482 0.5519
H30 H 0.3920 0.6664 0.5567
H31 H 0.2939 0.7489 0.5736
C31 C 0.1916(6) 0.5710(10) 0.52684(14)
H32 H 0.1882 0.4926 0.5415
C32 C 0.1350(5) 0.5685(9) 0.49930(15)
C33 C 0.0561(5) 0.4429(10) 0.48674(16)
H33 H 0.0285 0.4745 0.4671
H34 H -0.0060 0.4305 0.4998
H35 H 0.0956 0.3438 0.4853
C34 C 0.3347(5) 1.0479(8) 0.51374(13)
C35 C 0.4512(5) 1.0585(9) 0.51178(13)
H36 H 0.4873 1.0038 0.4966
C36 C 0.5126(5) 1.1478(8) 0.53176(13)
H37 H 0.5904 1.1530 0.5301
C37 C 0.4632(6) 1.2301(9) 0.55422(14)
C38 C 0.3468(6) 1.2217(9) 0.55634(15)
H38 H 0.3115 1.2783 0.5714
C39 C 0.2832(6) 1.1304(9) 0.53645(14)
H39 H 0.2055 1.1244 0.5383
C40 C 0.5300(6) 1.3349(11) 0.57640(14)
H40 H 0.6086 1.3294 0.5721
H41 H 0.5189 1.2983 0.5966
H42 H 0.5045 1.4429 0.5745
N3 N 0.1636(4) 0.9106(7) 0.44487(12)
N4 N 0.1577(4) 0.7020(7) 0.48428(11)
F3 F 0.1654(4) 0.6333(5) 0.43163(8)
F4 F 0.0027(3) 0.7359(5) 0.44832(8)
B2 B 0.1197(6) 0.7408(12) 0.45131(19)
C41 C 0.0901(7) 0.8707(12) 0.19269(15)
H43 H 0.0640 0.9751 0.1978
H44 H 0.0270 0.8049 0.1870
H45 H 0.1402 0.8780 0.1762
C42 C 0.1506(6) 0.8001(9) 0.21911(15)
C43 C 0.2040(6) 0.6500(9) 0.22239(15)
H46 H 0.2004 0.5690 0.2081
C44 C 0.2617(5) 0.6415(9) 0.24960(14)
C45 C 0.3288(6) 0.5031(9) 0.26061(15)
H47 H 0.3608 0.5263 0.2802
H48 H 0.3881 0.4821 0.2470
H49 H 0.2810 0.4115 0.2617
C46 C 0.2403(5) 0.7892(8) 0.26447(13)
C47 C 0.2722(5) 0.8497(9) 0.29271(13)
C48 C 0.2384(5) 0.9988(9) 0.30240(14)
C49 C 0.2629(5) 1.0866(10) 0.32871(14)
C50 C 0.2000(5) 1.2247(9) 0.32619(15)
H50 H 0.1982 1.3050 0.3406
C51 C 0.1403(6) 1.2248(10) 0.29903(14)
C52 C 0.0644(6) 1.3491(10) 0.28644(16)
H51 H 0.0366 1.3170 0.2668
H52 H 0.1051 1.4472 0.2848
H53 H 0.0023 1.3637 0.2995
C53 C 0.3405(5) 0.7487(8) 0.31361(14)
C54 C 0.4560(5) 0.7394(9) 0.31180(14)
H54 H 0.4926 0.7964 0.2971
C55 C 0.5187(5) 0.6431(10) 0.33241(15)
H55 H 0.5962 0.6347 0.3305
C56 C 0.4674(6) 0.5612(9) 0.35533(14)
C57 C 0.3519(6) 0.5734(10) 0.35650(15)
H56 H 0.3149 0.5164 0.3712
C58 C 0.2888(6) 0.6674(9) 0.33663(14)
H57 H 0.2114 0.6760 0.3387
C59 C 0.5356(7) 0.4632(12) 0.37708(16)
H58 H 0.4869 0.4143 0.3912
H59 H 0.5891 0.5300 0.3877
H60 H 0.5750 0.3824 0.3664
C60 C 0.3413(6) 1.0426(11) 0.35477(14)
H61 H 0.3748 0.9409 0.3510
H62 H 0.2997 1.0374 0.3729
H63 H 0.3994 1.1214 0.3570
N5 N 0.1712(5) 0.8833(7) 0.24502(13)
N6 N 0.1661(4) 1.0919(7) 0.28375(11)
F5 F 0.1743(4) 1.1587(5) 0.23148(8)
F6 F 0.0123(3) 1.0543(6) 0.24824(8)
B3 B 0.1276(6) 1.0510(10) 0.25146(16)
C61 C 0.8663(6) 0.3018(10) 0.38097(16)
C62 C 0.9305(7) 0.3734(12) 0.40718(16)
H64 H 0.9531 0.4795 0.4022
H65 H 0.9961 0.3102 0.4118
H66 H 0.8835 0.3763 0.4244
C63 C 0.8153(6) 0.1518(10) 0.37668(15)
H67 H 0.8213 0.0689 0.3905
C64 C 0.7577(6) 0.1424(9) 0.35069(14)
C65 C 0.7768(5) 0.2900(9) 0.33532(14)
C66 C 0.7437(5) 0.3501(10) 0.30766(13)
C67 C 0.7778(5) 0.5001(8) 0.29773(14)
C68 C 0.7521(6) 0.5854(10) 0.27092(14)
C69 C 0.8159(5) 0.7262(10) 0.27420(15)
H68 H 0.8178 0.8071 0.2599
C70 C 0.8743(5) 0.7274(10) 0.30112(14)
C71 C 0.9514(6) 0.8514(10) 0.31307(15)
H69 H 0.9803 0.8202 0.3326
H70 H 0.9113 0.9500 0.3147
H71 H 1.0127 0.8645 0.2997
C72 C 0.6750(6) 0.5436(10) 0.24565(14)
H72 H 0.6409 0.4424 0.2495
H73 H 0.7162 0.5378 0.2274
H74 H 0.6174 0.6233 0.2435
C73 C 0.6884(6) 0.0030(9) 0.33970(16)
H75 H 0.6567 0.0260 0.3200
H76 H 0.6289 -0.0163 0.3534
H77 H 0.7354 -0.0896 0.3387
C74 C 0.6765(5) 0.2500(8) 0.28619(14)
C75 C 0.7271(6) 0.1663(9) 0.26381(14)
H78 H 0.8049 0.1706 0.2622
C76 C 0.6636(5) 0.0754(9) 0.24360(13)
H79 H 0.6999 0.0213 0.2284
C77 C 0.5484(6) 0.0625(10) 0.24528(14)
C78 C 0.4978(5) 0.1447(9) 0.26806(14)
H80 H 0.4201 0.1383 0.2698
C79 C 0.5607(5) 0.2380(9) 0.28874(13)
H81 H 0.5249 0.2914 0.3041
C80 C 0.4792(6) -0.0359(11) 0.22335(14)
H82 H 0.5279 -0.0865 0.2094
H83 H 0.4268 0.0314 0.2125
H84 H 0.4388 -0.1155 0.2341
N7 N 0.8526(4) 0.5938(8) 0.31639(11)
N8 N 0.8450(4) 0.3863(6) 0.35525(13)
F7 F 1.0057(3) 0.5550(6) 0.35154(8)
F8 F 0.8434(4) 0.6588(6) 0.36870(9)
B4 B 0.8887(6) 0.5540(11) 0.34883(17)
C81 C 0.9630(5) -0.0482(9) 0.11508(15)
H85 H 0.9857 -0.0178 0.1352
H86 H 1.0285 -0.0613 0.1032
H87 H 0.9222 -0.1467 0.1156
C82 C 0.8889(5) 0.0787(9) 0.10134(14)
C83 C 0.8391(5) 0.0859(9) 0.07304(13)
H88 H 0.8486 0.0107 0.0580
C84 C 0.7741(5) 0.2182(8) 0.07013(12)
C85 C 0.7026(6) 0.2594(10) 0.04276(14)
H89 H 0.6678 0.3611 0.0456
H90 H 0.6454 0.1799 0.0397
H91 H 0.7489 0.2636 0.0254
C86 C 0.7899(5) 0.3036(9) 0.09824(13)
C87 C 0.7539(5) 0.4514(8) 0.10762(14)
C88 C 0.7859(5) 0.5109(8) 0.13638(14)
C89 C 0.7649(5) 0.6580(8) 0.15015(14)
C90 C 0.8174(6) 0.6478(11) 0.17893(15)
H92 H 0.8153 0.7253 0.1938
C91 C 0.8726(5) 0.5043(9) 0.18135(15)
C92 C 0.9374(6) 0.4391(10) 0.20833(13)
H93 H 0.9648 0.3347 0.2038
H94 H 0.8888 0.4333 0.2252
H95 H 0.9998 0.5078 0.2132
C93 C 0.6828(5) 0.5521(8) 0.08696(12)
C94 C 0.7316(5) 0.6522(9) 0.06707(15)
H96 H 0.8095 0.6599 0.0664
C95 C 0.6631(5) 0.7424(9) 0.04782(14)
H97 H 0.6970 0.8118 0.0346
C96 C 0.5495(5) 0.7342(9) 0.04742(12)
C97 C 0.5018(4) 0.6373(8) 0.06821(13)
H98 H 0.4238 0.6325 0.0691
C98 C 0.5659(5) 0.5477(8) 0.08760(13)
H99 H 0.5311 0.4828 0.1015
C99 C 0.4792(6) 0.8354(11) 0.02535(15)
H100 H 0.4007 0.8144 0.0280
H101 H 0.4984 0.8093 0.0051
H102 H 0.4943 0.9459 0.0291
C100 C 0.6955(5) 0.7961(8) 0.13957(15)
H103 H 0.6994 0.8789 0.1544
H104 H 0.6186 0.7630 0.1365
H105 H 0.7237 0.8352 0.1210
N9 N 0.8546(4) 0.4182(7) 0.15632(12)
N10 N 0.8606(4) 0.2087(6) 0.11685(9)
F9 F 1.0119(3) 0.2410(5) 0.15380(7)
F10 F 0.8474(3) 0.1405(5) 0.16931(8)
B5 B 0.8957(6) 0.2517(10) 0.15009(17)
loop_
_geom_bond_atom_site_label_1
_geom_bond_atom_site_label_2
_geom_bond_site_symmetry_1
_geom_bond_site_symmetry_2
C1 H1 1_555 1_555
H2 C1 1_555 1_555
H3 C1 1_555 1_555
C2 C3 1_555 1_555
C3 H4 1_555 1_555
C4 C3 1_555 1_555
C5 C4 1_555 1_555
C6 C2 1_555 1_555
H5 C6 1_555 1_555
H6 C6 1_555 1_555
H7 C6 1_555 1_555
C7 C4 1_555 1_555
H8 C7 1_555 1_555
H9 C7 1_555 1_555
H10 C7 1_555 1_555
C8 C5 1_555 1_555
C9 C8 1_555 1_555
C10 C9 1_555 1_555
C11 C10 1_555 1_555
H11 C11 1_555 1_555
C12 C11 1_555 1_555
C13 C12 1_555 1_555
H12 C13 1_555 1_555
H13 C13 1_555 1_555
H14 C13 1_555 1_555
C14 C10 1_555 1_555
H15 C14 1_555 1_555
H16 C14 1_555 1_555
H17 C14 1_555 1_555
C15 H18 1_555 1_555
C16 C8 1_555 1_555
C17 C16 1_555 1_555
H19 C17 1_555 1_555
C18 C17 1_555 1_555
H20 C18 1_555 1_555
C19 C1 1_555 1_555
C20 C15 1_555 1_555
H21 C20 1_555 1_555
N1 C9 1_555 1_555
N2 C2 1_555 1_555
F1 B1 1_555 1_555
F2 B1 1_555 1_555
B1 N1 1_555 1_555
C21 H22 1_555 1_555
H23 C21 1_555 1_555
H24 C21 1_555 1_555
C22 C21 1_555 1_555
C23 C22 1_555 1_555
H25 C23 1_555 1_555
C24 C23 1_555 1_555
C25 C24 1_555 1_555
H26 C25 1_555 1_555
H27 C25 1_555 1_555
H28 C25 1_555 1_555
C26 C24 1_555 1_555
C27 C26 1_555 1_555
C28 C27 1_555 1_555
C29 C28 1_555 1_555
C30 C29 1_555 1_555
H29 C30 1_555 1_555
H30 C30 1_555 1_555
H31 C30 1_555 1_555
C31 C29 1_555 1_555
H32 C31 1_555 1_555
C32 C31 1_555 1_555
C33 C32 1_555 1_555
H33 C33 1_555 1_555
H34 C33 1_555 1_555
H35 C33 1_555 1_555
C34 C27 1_555 1_555
C35 C34 1_555 1_555
H36 C35 1_555 1_555
C36 C35 1_555 1_555
H37 C36 1_555 1_555
C37 C36 1_555 1_555
C38 C37 1_555 1_555
H38 C38 1_555 1_555
C39 C34 1_555 1_555
H39 C39 1_555 1_555
C40 C37 1_555 1_555
H40 C40 1_555 1_555
H41 C40 1_555 1_555
H42 C40 1_555 1_555
N3 C22 1_555 1_555
N4 C28 1_555 1_555
F3 B2 1_555 1_555
F4 B2 1_555 1_555
B2 N3 1_555 1_555
C41 H43 1_555 1_555
H44 C41 1_555 1_555
H45 C41 1_555 1_555
C42 C41 1_555 1_555
C43 C42 1_555 1_555
H46 C43 1_555 1_555
C44 C43 1_555 1_555
C45 C44 1_555 1_555
H47 C45 1_555 1_555
H48 C45 1_555 1_555
H49 C45 1_555 1_555
C46 C44 1_555 1_555
C47 C46 1_555 1_555
C48 C47 1_555 1_555
C49 C48 1_555 1_555
C50 C49 1_555 1_555
H50 C50 1_555 1_555
C51 C50 1_555 1_555
C52 C51 1_555 1_555
H51 C52 1_555 1_555
H52 C52 1_555 1_555
H53 C52 1_555 1_555
C53 C47 1_555 1_555
C54 C53 1_555 1_555
H54 C54 1_555 1_555
C55 C54 1_555 1_555
H55 C55 1_555 1_555
C56 C55 1_555 1_555
C57 C56 1_555 1_555
H56 C57 1_555 1_555
C58 C53 1_555 1_555
H57 C58 1_555 1_555
C59 C56 1_555 1_555
H58 C59 1_555 1_555
H59 C59 1_555 1_555
H60 C59 1_555 1_555
C60 C49 1_555 1_555
H61 C60 1_555 1_555
H62 C60 1_555 1_555
H63 C60 1_555 1_555
N5 C42 1_555 1_555
N6 C48 1_555 1_555
F5 B3 1_555 1_555
F6 B3 1_555 1_555
B3 N5 1_555 1_555
C61 C62 1_555 1_555
C62 H64 1_555 1_555
H65 C62 1_555 1_555
H66 C62 1_555 1_555
C63 C61 1_555 1_555
H67 C63 1_555 1_555
C64 C63 1_555 1_555
C65 C64 1_555 1_555
C66 C65 1_555 1_555
C67 C66 1_555 1_555
C68 C67 1_555 1_555
C69 C68 1_555 1_555
H68 C69 1_555 1_555
C70 C69 1_555 1_555
C71 C70 1_555 1_555
H69 C71 1_555 1_555
H70 C71 1_555 1_555
H71 C71 1_555 1_555
C72 C68 1_555 1_555
H72 C72 1_555 1_555
H73 C72 1_555 1_555
H74 C72 1_555 1_555
C73 C64 1_555 1_555
H75 C73 1_555 1_555
H76 C73 1_555 1_555
H77 C73 1_555 1_555
C74 C66 1_555 1_555
C75 C74 1_555 1_555
H78 C75 1_555 1_555
C76 C75 1_555 1_555
H79 C76 1_555 1_555
C77 C76 1_555 1_555
C78 C77 1_555 1_555
H80 C78 1_555 1_555
C79 C74 1_555 1_555
H81 C79 1_555 1_555
C80 C77 1_555 1_555
H82 C80 1_555 1_555
H83 C80 1_555 1_555
H84 C80 1_555 1_555
N7 C67 1_555 1_555
N8 C61 1_555 1_555
F7 B4 1_555 1_555
F8 B4 1_555 1_555
B4 N7 1_555 1_555
C81 H85 1_555 1_555
H86 C81 1_555 1_555
H87 C81 1_555 1_555
C82 C81 1_555 1_555
C83 C82 1_555 1_555
H88 C83 1_555 1_555
C84 C83 1_555 1_555
C85 C84 1_555 1_555
H89 C85 1_555 1_555
H90 C85 1_555 1_555
H91 C85 1_555 1_555
C86 C84 1_555 1_555
C87 C86 1_555 1_555
C88 C87 1_555 1_555
C89 C88 1_555 1_555
C90 C89 1_555 1_555
H92 C90 1_555 1_555
C91 C90 1_555 1_555
C92 C91 1_555 1_555
H93 C92 1_555 1_555
H94 C92 1_555 1_555
H95 C92 1_555 1_555
C93 C87 1_555 1_555
C94 C93 1_555 1_555
H96 C94 1_555 1_555
C95 C94 1_555 1_555
H97 C95 1_555 1_555
C96 C95 1_555 1_555
C97 C96 1_555 1_555
H98 C97 1_555 1_555
C98 C93 1_555 1_555
H99 C98 1_555 1_555
C99 C96 1_555 1_555
H100 C99 1_555 1_555
H101 C99 1_555 1_555
H102 C99 1_555 1_555
C100 C89 1_555 1_555
H103 C100 1_555 1_555
H104 C100 1_555 1_555
H105 C100 1_555 1_555
N9 C88 1_555 1_555
N10 C82 1_555 1_555
F9 B5 1_555 1_555
F10 B5 1_555 1_555
B5 N9 1_555 1_555
C5 N2 1_555 1_555
C12 N1 1_555 1_555
C15 C16 1_555 1_555
C18 C19 1_555 1_555
C19 C20 1_555 1_555
N2 B1 1_555 1_555
C26 N3 1_555 1_555
C32 N4 1_555 1_555
C38 C39 1_555 1_555
N4 B2 1_555 1_555
C46 N5 1_555 1_555
C51 N6 1_555 1_555
C57 C58 1_555 1_555
N6 B3 1_555 1_555
C65 N8 1_555 1_555
C70 N7 1_555 1_555
C78 C79 1_555 1_555
N8 B4 1_555 1_555
C86 N10 1_555 1_555
C91 N9 1_555 1_555
C97 C98 1_555 1_555
N10 B5 1_555 1_555

#END
