
#######################################################################
#
#                 Cambridge Crystallographic Data Centre
#                                CCDC 
#
#######################################################################
#
# If this CIF has been generated from an entry in the Cambridge 
# Structural Database, then it will include bibliographic, chemical, 
# crystal, experimental, refinement or atomic coordinate data resulting 
# from the CCDC's data processing and validation procedures.
#
#######################################################################

data_EQOROS01
_chemical_formula_moiety         'C19 H20 B1 F2 N3'
_chemical_name_systematic        
4-(5,5-difluoro-1,3,7,9-tetramethyl-5H-4,5-dipyrrolo[1,2-c:2',1'-f][1,3,2]diazaborinin-10-yl)aniline
_symmetry_cell_setting           monoclinic
_symmetry_space_group_name_H-M   'P 21/n'
_symmetry_Int_Tables_number      14
_space_group_name_Hall           '-P 2yn'
loop_
_symmetry_equiv_pos_site_id
_symmetry_equiv_pos_as_xyz
1 x,y,z
2 1/2-x,1/2+y,1/2-z
3 -x,-y,-z
4 1/2+x,1/2-y,1/2+z
_cell_length_a                   10.8093(4)
_cell_length_b                   11.5942(4)
_cell_length_c                   14.0953(4)
_cell_angle_alpha                90
_cell_angle_beta                 104.6620(10)
_cell_angle_gamma                90
_cell_volume                     1708.97
_exptl_crystal_colour            red
_cell_formula_units_Z            4
loop_
_atom_site_label
_atom_site_type_symbol
_atom_site_fract_x
_atom_site_fract_y
_atom_site_fract_z
B1 B 0.9146(4) 0.6682(3) -0.0480(3)
N1 N 0.8753(3) 0.5958(2) -0.1421(2)
N2 N 1.0598(3) 0.6741(2) -0.01830(19)
N3 N 1.3990(3) 0.4916(3) -0.4314(2)
H1 H 1.4071 0.5413 -0.4767
H2 H 1.4403 0.4255 -0.4253
F1 F 0.8645(2) 0.62121(19) 0.02514(14)
F2 F 0.8651(2) 0.78147(18) -0.06742(15)
C1 C 1.3209(3) 0.5177(3) -0.3693(2)
C2 C 1.3122(4) 0.4424(3) -0.2942(3)
H3 H 1.3576 0.3714 -0.2868
C3 C 1.2379(4) 0.4699(3) -0.2298(3)
H4 H 1.2336 0.4176 -0.1789
C4 C 1.1703(3) 0.5722(3) -0.2390(2)
C5 C 1.1790(3) 0.6474(3) -0.3143(2)
H5 H 1.1322 0.7176 -0.3225
C6 C 1.2548(3) 0.6216(3) -0.3776(3)
H6 H 1.2615 0.6754 -0.4269
C7 C 1.0864(3) 0.5996(3) -0.1735(2)
C8 C 1.1377(3) 0.6511(3) -0.0827(2)
C9 C 1.2658(3) 0.6840(3) -0.0332(3)
C10 C 1.2610(4) 0.7240(3) 0.0584(3)
H7 H 1.3317 0.7521 0.1075
C11 C 1.1342(3) 0.7163(3) 0.0667(2)
C12 C 0.7582(3) 0.5521(3) -0.1840(3)
C13 C 0.7624(3) 0.4976(3) -0.2724(3)
H8 H 0.6927 0.4597 -0.3159
C14 C 0.8841(3) 0.5083(3) -0.2858(2)
C15 C 0.9567(3) 0.5702(3) -0.2028(2)
C16 C 1.3842(4) 0.6765(4) -0.0689(3)
H9 H 1.4572 0.7051 -0.0180
H10 H 1.3738 0.7235 -0.1282
H11 H 1.3993 0.5960 -0.0841
C17 C 1.0844(4) 0.7495(3) 0.1515(2)
H12 H 0.9922 0.7346 0.1361
H13 H 1.1003 0.8317 0.1654
H14 H 1.1276 0.7042 0.2090
C18 C 0.6470(4) 0.5654(4) -0.1420(3)
H15 H 0.6729 0.6076 -0.0798
H16 H 0.6148 0.4890 -0.1302
H17 H 0.5795 0.6083 -0.1879
C19 C 0.9253(4) 0.4606(4) -0.3713(3)
H18 H 0.8530 0.4212 -0.4155
H19 H 0.9953 0.4056 -0.3481
H20 H 0.9546 0.5236 -0.4065
loop_
_geom_bond_atom_site_label_1
_geom_bond_atom_site_label_2
_geom_bond_site_symmetry_1
_geom_bond_site_symmetry_2
B1 N1 1_555 1_555
N1 C12 1_555 1_555
N2 B1 1_555 1_555
N3 H1 1_555 1_555
H2 N3 1_555 1_555
F1 B1 1_555 1_555
F2 B1 1_555 1_555
C1 N3 1_555 1_555
C2 C1 1_555 1_555
H3 C2 1_555 1_555
C3 C2 1_555 1_555
H4 C3 1_555 1_555
C4 C3 1_555 1_555
C5 C4 1_555 1_555
H5 C5 1_555 1_555
C6 C1 1_555 1_555
H6 C6 1_555 1_555
C7 C4 1_555 1_555
C8 N2 1_555 1_555
C9 C8 1_555 1_555
C10 C9 1_555 1_555
H7 C10 1_555 1_555
C11 N2 1_555 1_555
C12 C13 1_555 1_555
C13 H8 1_555 1_555
C14 C13 1_555 1_555
C15 N1 1_555 1_555
C16 C9 1_555 1_555
H9 C16 1_555 1_555
H10 C16 1_555 1_555
H11 C16 1_555 1_555
C17 C11 1_555 1_555
H12 C17 1_555 1_555
H13 C17 1_555 1_555
H14 C17 1_555 1_555
C18 C12 1_555 1_555
H15 C18 1_555 1_555
H16 C18 1_555 1_555
H17 C18 1_555 1_555
C19 C14 1_555 1_555
H18 C19 1_555 1_555
H19 C19 1_555 1_555
H20 C19 1_555 1_555
C5 C6 1_555 1_555
C7 C8 1_555 1_555
C7 C15 1_555 1_555
C10 C11 1_555 1_555
C14 C15 1_555 1_555

#END
