
#######################################################################
#
#                 Cambridge Crystallographic Data Centre
#                                CCDC 
#
#######################################################################
#
# If this CIF has been generated from an entry in the Cambridge 
# Structural Database, then it will include bibliographic, chemical, 
# crystal, experimental, refinement or atomic coordinate data resulting 
# from the CCDC's data processing and validation procedures.
#
#######################################################################

data_EQOSIN
_chemical_name_common            
'1,3,5,7-tetramethyl-4,4-difluoro-8-(4-nitrophenyl)-4-bora-3a,4a-diaza-s-indacene dichloromethane solvate'
_chemical_formula_moiety         'C19 H18 B1 F2 N3 O2,C1 H2 Cl2'
_chemical_name_systematic        
"5,5-Difluoro-1,3,7,9-tetramethyl-10-(4-nitrophenyl)-5H-4\l^5^,5\l^5^-dipyrrolo[1,2-c:2',1'-f][1,3,2]diazaborinine dichloromethane solvate"
_symmetry_cell_setting           triclinic
_symmetry_space_group_name_H-M   'P -1'
_symmetry_Int_Tables_number      2
_space_group_name_Hall           '-P 1'
loop_
_symmetry_equiv_pos_site_id
_symmetry_equiv_pos_as_xyz
1 x,y,z
2 -x,-y,-z
_cell_length_a                   8.3449(7)
_cell_length_b                   11.6005(8)
_cell_length_c                   12.0810(8)
_cell_angle_alpha                100.343(6)
_cell_angle_beta                 97.027(6)
_cell_angle_gamma                111.076(7)
_cell_volume                     1051.05
_exptl_crystal_colour            'black red'
_exptl_crystal_description       block
_cell_formula_units_Z            2
loop_
_atom_site_label
_atom_site_type_symbol
_atom_site_fract_x
_atom_site_fract_y
_atom_site_fract_z
F1 F 0.4220(2) 0.07703(18) 0.17306(16)
F2 F 0.2032(3) -0.04903(17) 0.02131(16)
N1 N 0.1251(3) 0.0378(2) 0.1936(2)
C1 C 0.0890(3) 0.2351(2) 0.1944(2)
N2 N 0.2662(3) 0.1754(2) 0.06851(19)
N3 N -0.2352(4) 0.5789(2) 0.3309(2)
C2 C 0.0157(4) 0.5173(3) 0.3538(2)
H1 H 0.0748 0.5903 0.4128
C3 C 0.0049(3) 0.3246(2) 0.2340(2)
C4 C 0.1958(3) 0.2621(3) 0.1138(2)
C5 C -0.1516(4) 0.4898(2) 0.2978(2)
C6 C 0.0524(3) 0.1240(2) 0.2328(2)
O1 O -0.1568(4) 0.6706(2) 0.4120(3)
C7 C -0.0551(4) 0.0738(3) 0.3101(2)
C8 C 0.2420(4) 0.3632(3) 0.0562(3)
C9 C 0.0944(4) 0.4341(3) 0.3204(2)
H2 H 0.2086 0.4519 0.3563
C10 C -0.2449(4) 0.3810(3) 0.2118(3)
H3 H -0.3587 0.3641 0.1757
O2 O -0.3794(4) 0.5581(3) 0.2764(2)
C11 C 0.3496(4) 0.2179(3) -0.0133(2)
C12 C 0.0678(4) -0.0614(3) 0.2418(3)
C13 C -0.1657(4) 0.2983(3) 0.1808(2)
H4 H -0.2270 0.2240 0.1236
B1 B 0.2573(4) 0.0566(3) 0.1120(3)
C14 C 0.2037(5) 0.4801(4) 0.0731(4)
H5 H 0.0805 0.4573 0.0705
H6 H 0.2372 0.5227 0.0134
H7 H 0.2687 0.5358 0.1465
C15 C -0.1664(5) 0.1271(3) 0.3736(3)
H8 H -0.1002 0.2157 0.4092
H9 H -0.2018 0.0820 0.4315
H10 H -0.2685 0.1177 0.3206
C16 C 0.1170(5) -0.1741(3) 0.2167(4)
H11 H 0.0445 -0.2316 0.1459
H12 H 0.1003 -0.2168 0.2780
H13 H 0.2379 -0.1460 0.2102
C17 C 0.3367(4) 0.3336(3) -0.0224(3)
H14 H 0.3839 0.3819 -0.0729
C18 C -0.0425(4) -0.0415(3) 0.3140(3)
H15 H -0.0984 -0.0963 0.3575
C19 C 0.4410(5) 0.1502(4) -0.0813(3)
H16 H 0.5003 0.1153 -0.0321
H17 H 0.5249 0.2091 -0.1132
H18 H 0.3565 0.0827 -0.1423
Cl1 Cl 0.50080(17) 0.65804(13) 0.56505(11)
C20 C 0.5860(6) 0.8059(4) 0.5376(4)
Cl2 Cl 0.46730(18) 0.81793(14) 0.41482(12)
H19 H 0.708(8) 0.838(5) 0.539(4)
H20 H 0.570(8) 0.869(5) 0.593(5)
loop_
_geom_bond_atom_site_label_1
_geom_bond_atom_site_label_2
_geom_bond_site_symmetry_1
_geom_bond_site_symmetry_2
F1 B1 1_555 1_555
F2 B1 1_555 1_555
N1 C6 1_555 1_555
C1 C3 1_555 1_555
N2 C4 1_555 1_555
N3 C5 1_555 1_555
C2 H1 1_555 1_555
C3 C9 1_555 1_555
C4 C1 1_555 1_555
C5 C2 1_555 1_555
C6 C1 1_555 1_555
O1 N3 1_555 1_555
C7 C6 1_555 1_555
C8 C4 1_555 1_555
C9 C2 1_555 1_555
H2 C9 1_555 1_555
C10 C5 1_555 1_555
H3 C10 1_555 1_555
O2 N3 1_555 1_555
C11 N2 1_555 1_555
C12 N1 1_555 1_555
C13 C3 1_555 1_555
H4 C13 1_555 1_555
B1 N1 1_555 1_555
C14 C8 1_555 1_555
H5 C14 1_555 1_555
H6 C14 1_555 1_555
H7 C14 1_555 1_555
C15 C7 1_555 1_555
H8 C15 1_555 1_555
H9 C15 1_555 1_555
H10 C15 1_555 1_555
C16 C12 1_555 1_555
H11 C16 1_555 1_555
H12 C16 1_555 1_555
H13 C16 1_555 1_555
C17 C8 1_555 1_555
H14 C17 1_555 1_555
C18 C7 1_555 1_555
H15 C18 1_555 1_555
C19 C11 1_555 1_555
H16 C19 1_555 1_555
H17 C19 1_555 1_555
H18 C19 1_555 1_555
Cl1 C20 1_555 1_555
C20 Cl2 1_555 1_555
H19 C20 1_555 1_555
H20 C20 1_555 1_555
N2 B1 1_555 1_555
C10 C13 1_555 1_555
C11 C17 1_555 1_555
C12 C18 1_555 1_555

#END
