
#######################################################################
#
#                 Cambridge Crystallographic Data Centre
#                                CCDC 
#
#######################################################################
#
# If this CIF has been generated from an entry in the Cambridge 
# Structural Database, then it will include bibliographic, chemical, 
# crystal, experimental, refinement or atomic coordinate data resulting 
# from the CCDC's data processing and validation procedures.
#
#######################################################################

data_EQOSEJ
_chemical_name_common            
3,5-dimethyl-4,4-difluoro-8-(4-nitrophenyl)-4-bora-3a,4a-diaza-s-indacene
_chemical_formula_moiety         'C17 H14 B1 F2 N3 O2'
_chemical_name_systematic        
5,5-Difluoro-3,7-dimethyl-10-(4-nitrophenyl)-5H-6\l^5^,5\l^5^-dipyrrolo[1,2-c:2',1'-f][1,3,2]diazaborinine
_symmetry_cell_setting           triclinic
_symmetry_space_group_name_H-M   'P -1'
_symmetry_Int_Tables_number      2
_space_group_name_Hall           '-P 1'
loop_
_symmetry_equiv_pos_site_id
_symmetry_equiv_pos_as_xyz
1 x,y,z
2 -x,-y,-z
_cell_length_a                   6.4804(7)
_cell_length_b                   8.3217(9)
_cell_length_c                   14.6304(16)
_cell_angle_alpha                80.583(2)
_cell_angle_beta                 84.666(2)
_cell_angle_gamma                85.576(2)
_cell_volume                     773.443
_exptl_crystal_colour            red
_exptl_crystal_description       block
_cell_formula_units_Z            2
loop_
_atom_site_label
_atom_site_type_symbol
_atom_site_fract_x
_atom_site_fract_y
_atom_site_fract_z
F1 F 0.83956(18) 0.40825(12) 0.14408(8)
N1 N 0.9268(2) 0.12522(15) 0.13381(9)
N2 N 0.5847(2) 0.21635(15) 0.20785(9)
C1 C 0.7567(2) -0.04494(18) 0.26564(10)
F2 F 0.67390(18) 0.29231(14) 0.04399(7)
C2 C 0.9253(2) -0.01558(18) 0.20028(11)
O1 O 0.7448(2) -0.65365(17) 0.59378(9)
C3 C 0.7574(2) -0.49743(19) 0.44729(11)
N3 N 0.7619(2) -0.65511(19) 0.50992(11)
C4 C 0.7555(2) -0.20264(18) 0.33040(11)
C5 C 0.7727(3) -0.34870(19) 0.29455(11)
H1 H 0.7845 -0.3462 0.2305
C6 C 0.5872(2) 0.06868(18) 0.26904(11)
C7 C 0.7725(3) -0.49692(19) 0.35279(12)
H2 H 0.7824 -0.5942 0.3287
C8 C 0.7365(2) -0.20737(19) 0.42638(11)
H3 H 0.7229 -0.1105 0.4510
O2 O 0.7849(3) -0.78008(16) 0.47529(11)
C9 C 0.7378(2) -0.3554(2) 0.48527(11)
H4 H 0.7257 -0.3591 0.5494
C10 C 1.1066(3) 0.1189(2) 0.07939(11)
C11 C 0.3973(3) 0.0634(2) 0.32437(12)
H5 H 0.3561 -0.0211 0.3707
C12 C 0.4020(3) 0.3000(2) 0.22542(12)
C13 C 1.1137(3) -0.1078(2) 0.18558(12)
H6 H 1.1552 -0.2067 0.2205
C14 C 0.3476(3) 0.4667(2) 0.17586(15)
H7 H 0.4018 0.4755 0.1120
H8 H 0.4066 0.5461 0.2047
H9 H 0.1993 0.4860 0.1789
C15 C 1.2241(3) -0.0256(2) 0.11094(13)
H10 H 1.3540 -0.0590 0.0854
C16 C 0.2844(3) 0.2069(2) 0.29690(13)
H11 H 0.1523 0.2370 0.3216
C17 C 1.1600(3) 0.2468(2) -0.00095(13)
H12 H 1.1050 0.3515 0.0127
H13 H 1.1013 0.2241 -0.0550
H14 H 1.3082 0.2475 -0.0125
B1 B 0.7557(3) 0.2672(2) 0.12921(13)
loop_
_geom_bond_atom_site_label_1
_geom_bond_atom_site_label_2
_geom_bond_site_symmetry_1
_geom_bond_site_symmetry_2
F1 B1 1_555 1_555
N1 C2 1_555 1_555
N2 C6 1_555 1_555
C1 C2 1_555 1_555
F2 B1 1_555 1_555
C2 C13 1_555 1_555
O1 N3 1_555 1_555
C3 N3 1_555 1_555
N3 O2 1_555 1_555
C4 C1 1_555 1_555
C5 C4 1_555 1_555
H1 C5 1_555 1_555
C6 C1 1_555 1_555
C7 C3 1_555 1_555
H2 C7 1_555 1_555
C8 C4 1_555 1_555
H3 C8 1_555 1_555
C9 C3 1_555 1_555
H4 C9 1_555 1_555
C10 N1 1_555 1_555
C11 C6 1_555 1_555
H5 C11 1_555 1_555
C12 N2 1_555 1_555
C13 H6 1_555 1_555
C14 C12 1_555 1_555
H7 C14 1_555 1_555
H8 C14 1_555 1_555
H9 C14 1_555 1_555
C15 C10 1_555 1_555
H10 C15 1_555 1_555
C16 C11 1_555 1_555
H11 C16 1_555 1_555
C17 C10 1_555 1_555
H12 C17 1_555 1_555
H13 C17 1_555 1_555
H14 C17 1_555 1_555
B1 N1 1_555 1_555
N2 B1 1_555 1_555
C5 C7 1_555 1_555
C8 C9 1_555 1_555
C12 C16 1_555 1_555
C13 C15 1_555 1_555

#END
