
#######################################################################
#
#                 Cambridge Crystallographic Data Centre
#                                CCDC 
#
#######################################################################
#
# If this CIF has been generated from an entry in the Cambridge 
# Structural Database, then it will include bibliographic, chemical, 
# crystal, experimental, refinement or atomic coordinate data resulting 
# from the CCDC's data processing and validation procedures.
#
#######################################################################

data_EQOZUH
_chemical_compound_source        'stems of Dendrobium nobile (Orchidaceae)'
_chemical_name_common            'Denobilone B sesquihydrate'
_chemical_formula_moiety         'C15 H16 O4,1.5(H2 O1)'
_chemical_name_systematic        
'(4aR,10aR)-4a,5-dihydroxy-4-methoxy-4a,9,10,10a-tetrahydrophenanthren-2(1H)-one sesquihydrate'
_symmetry_cell_setting           orthorhombic
_symmetry_space_group_name_H-M   'C 2 2 21'
_symmetry_Int_Tables_number      20
_space_group_name_Hall           'C 2n 2'
loop_
_symmetry_equiv_pos_site_id
_symmetry_equiv_pos_as_xyz
1 x,y,z
2 -x,-y,1/2+z
3 x,-y,-z
4 -x,y,1/2-z
5 1/2+x,1/2+y,z
6 1/2-x,1/2-y,1/2+z
7 1/2+x,1/2-y,-z
8 1/2-x,1/2+y,1/2-z
_cell_length_a                   11.0841(2)
_cell_length_b                   20.4600(4)
_cell_length_c                   12.6447(2)
_cell_angle_alpha                90
_cell_angle_beta                 90
_cell_angle_gamma                90
_cell_volume                     2867.57
_exptl_crystal_colour            colorless
_exptl_crystal_description       block
_chemical_melting_point          '176.1-178.4 deg.C'
_cell_formula_units_Z            8
loop_
_atom_site_label
_atom_site_type_symbol
_atom_site_fract_x
_atom_site_fract_y
_atom_site_fract_z
C1 C 0.37946(14) 0.10479(7) 0.48582(12)
C2 C 0.42613(14) 0.13187(7) 0.59111(12)
C3 C 0.34182(14) 0.18247(8) 0.64081(12)
C4 C 0.24045(14) 0.16274(9) 0.69924(13)
C5 C 0.16830(19) 0.20750(11) 0.75079(16)
H1 H 0.1024 0.1935 0.7902
C6 C 0.1947(2) 0.27339(11) 0.74349(17)
H2 H 0.1458 0.3039 0.7773
C7 C 0.2925(2) 0.29373(10) 0.68676(15)
H3 H 0.3093 0.3382 0.6822
C8 C 0.36780(16) 0.24918(8) 0.63549(13)
C9 C 0.4786(2) 0.27516(9) 0.57945(16)
H4 H 0.4544 0.3105 0.5329
H5 H 0.5332 0.2932 0.6318
C10 C 0.54569(18) 0.22462(9) 0.51528(14)
H6 H 0.6267 0.2401 0.5005
H7 H 0.5048 0.2179 0.4483
C11 C 0.55207(14) 0.16008(8) 0.57561(13)
H8 H 0.5852 0.1694 0.6458
C12 C 0.63434(16) 0.10975(10) 0.52325(14)
H9 H 0.7110 0.1303 0.5069
H10 H 0.6498 0.0747 0.5730
C13 C 0.58260(16) 0.08104(8) 0.42335(13)
C14 C 0.45309(15) 0.08148(8) 0.40996(12)
H11 H 0.4199 0.0653 0.3477
C15 C 0.20148(17) 0.07030(10) 0.39672(15)
H12 H 0.2270 0.0886 0.3305
H13 H 0.1155 0.0745 0.4034
H14 H 0.2233 0.0249 0.3993
O1 O 0.25914(10) 0.10444(6) 0.48189(10)
O2 O 0.43624(11) 0.07551(5) 0.65923(9)
H15 H 0.3675 0.0646 0.6753
O3 O 0.21515(12) 0.09761(7) 0.70925(13)
H16 H 0.1717 0.0869 0.7592
O4 O 0.64901(12) 0.05649(7) 0.35612(11)
O5 O 0.89256(16) 0.03062(12) 0.40300(18)
H17 H 0.8190 0.0383 0.3887
H18 H 0.9278 0.0661 0.4192
O6 O 0.0000 0.04394(14) 0.7500
H19 H 0.0268 0.0580 0.8093
H19C H -0.0268 0.0580 0.6907
loop_
_geom_bond_atom_site_label_1
_geom_bond_atom_site_label_2
_geom_bond_site_symmetry_1
_geom_bond_site_symmetry_2
C1 C2 1_555 1_555
C2 C3 1_555 1_555
C3 C4 1_555 1_555
C4 C5 1_555 1_555
C5 H1 1_555 1_555
C6 C5 1_555 1_555
H2 C6 1_555 1_555
C7 C6 1_555 1_555
H3 C7 1_555 1_555
C8 C3 1_555 1_555
C9 C8 1_555 1_555
H4 C9 1_555 1_555
H5 C9 1_555 1_555
C10 C9 1_555 1_555
H6 C10 1_555 1_555
H7 C10 1_555 1_555
C11 C2 1_555 1_555
H8 C11 1_555 1_555
C12 C11 1_555 1_555
H9 C12 1_555 1_555
H10 C12 1_555 1_555
C13 C12 1_555 1_555
C14 C1 1_555 1_555
H11 C14 1_555 1_555
C15 H12 1_555 1_555
H13 C15 1_555 1_555
H14 C15 1_555 1_555
O1 C1 1_555 1_555
O2 C2 1_555 1_555
H15 O2 1_555 1_555
O3 C4 1_555 1_555
H16 O3 1_555 1_555
O4 C13 1_555 1_555
O5 H17 1_555 1_555
H18 O5 1_555 1_555
O6 H19 1_555 1_555
H19C O6 1_555 1_555
C7 C8 1_555 1_555
C10 C11 1_555 1_555
C13 C14 1_555 1_555
C15 O1 1_555 1_555

#END
