
#######################################################################
#
#                 Cambridge Crystallographic Data Centre
#                                CCDC 
#
#######################################################################
#
# If this CIF has been generated from an entry in the Cambridge 
# Structural Database, then it will include bibliographic, chemical, 
# crystal, experimental, refinement or atomic coordinate data resulting 
# from the CCDC's data processing and validation procedures.
#
#######################################################################

data_EQUBID
_chemical_name_common            
14-methoxy-5-((4-methylphenyl)sulfonyl)-15-oxa-5-azatetracyclo[10.4.1.0$1,9!.0$9,14!]heptadec-10-ene-2,13-dione
_chemical_formula_moiety         'C23 H27 N1 O6 S1'
_chemical_name_systematic        
(7aR,9aS,11R)-9a-methoxy-4-tosyl-3,4,5,6,9a,11-hexahydro-1H-7a,11-methanobenzofuro[3,3a-e]azonine-7,10(2H,8H)-dione
_symmetry_cell_setting           monoclinic
_symmetry_space_group_name_H-M   'P 21/n'
_symmetry_Int_Tables_number      14
_space_group_name_Hall           '-P 2yn'
loop_
_symmetry_equiv_pos_site_id
_symmetry_equiv_pos_as_xyz
1 x,y,z
2 1/2-x,1/2+y,1/2-z
3 -x,-y,-z
4 1/2+x,1/2-y,1/2+z
_cell_length_a                   8.2306(9)
_cell_length_b                   9.8924(12)
_cell_length_c                   26.999(4)
_cell_angle_alpha                90
_cell_angle_beta                 98.152(13)
_cell_angle_gamma                90
_cell_volume                     2176.06
_exptl_crystal_colour            colorless
_exptl_crystal_description       block
_chemical_melting_point          '481-483 K'
_cell_formula_units_Z            4
loop_
_atom_site_label
_atom_site_type_symbol
_atom_site_fract_x
_atom_site_fract_y
_atom_site_fract_z
S1 S -0.3861(3) -0.4744(3) -0.75090(10)
O1 O -0.7005(10) -0.8036(8) -0.6429(3)
O2 O -0.5430(8) -0.3689(7) -0.5803(3)
O3 O -0.7842(11) -0.3288(9) -0.5060(3)
O4 O -0.7821(9) -0.2532(7) -0.6102(3)
O5 O -0.2413(9) -0.5108(9) -0.7185(3)
O6 O -0.4489(10) -0.3402(7) -0.7489(3)
N1 N -0.5276(10) -0.5746(8) -0.7382(3)
C1 C -0.6217(11) -0.5894(9) -0.6056(4)
C2 C -0.5953(14) -0.7137(11) -0.6387(4)
C3 C -0.4503(13) -0.7271(11) -0.6649(4)
H1 H -0.4000 -0.8146 -0.6568
H2 H -0.3709 -0.6584 -0.6524
C4 C -0.4877(14) -0.7140(10) -0.7212(4)
H3 H -0.3934 -0.7450 -0.7359
H4 H -0.5794 -0.7724 -0.7333
C5 C -0.6986(12) -0.5504(10) -0.7606(4)
H5 H -0.7317 -0.6206 -0.7851
H6 H -0.7047 -0.4646 -0.7782
C6 C -0.8165(12) -0.5482(11) -0.7231(4)
H7 H -0.8201 -0.6372 -0.7083
H8 H -0.9255 -0.5277 -0.7402
C7 C -0.7691(13) -0.4424(10) -0.6808(3)
H9 H -0.6608 -0.4077 -0.6840
H10 H -0.8453 -0.3673 -0.6864
C8 C -0.7674(12) -0.4926(9) -0.6271(4)
C9 C -0.6561(15) -0.6406(12) -0.5538(4)
H11 H -0.5580 -0.6307 -0.5295
H12 H -0.6848 -0.7357 -0.5560
C10 C -0.7992(14) -0.5585(11) -0.5363(4)
H13 H -0.8173 -0.5852 -0.5026
C11 C -0.7682(13) -0.4103(12) -0.5391(4)
C12 C -0.7175(12) -0.3730(10) -0.5899(4)
C13 C -0.4789(12) -0.4907(10) -0.6002(4)
H14 H -0.3869 -0.5258 -0.5774
H15 H -0.4434 -0.4732 -0.6323
C14 C -0.9518(15) -0.5802(13) -0.5737(5)
H16 H -1.0503 -0.6128 -0.5654
C15 C -0.9293(11) -0.5479(11) -0.6189(4)
H17 H -1.0130 -0.5592 -0.6456
C16 C -0.7287(18) -0.1303(12) -0.5865(5)
H18 H -0.8151 -0.0931 -0.5702
H19 H -0.7005 -0.0674 -0.6110
H20 H -0.6342 -0.1469 -0.5620
C17 C -0.3506(11) -0.5037(10) -0.8123(4)
C18 C -0.2465(15) -0.6072(12) -0.8225(4)
H21 H -0.1936 -0.6596 -0.7965
C19 C -0.2212(17) -0.6325(16) -0.8708(5)
H22 H -0.1544 -0.7041 -0.8774
C20 C -0.2958(16) -0.5509(14) -0.9104(5)
C21 C -0.3937(14) -0.4465(13) -0.8997(4)
H23 H -0.4422 -0.3916 -0.9256
C22 C -0.4230(13) -0.4196(11) -0.8509(4)
H24 H -0.4892 -0.3475 -0.8443
C23 C -0.274(3) -0.5835(18) -0.9635(5)
H25 H -0.1856 -0.5310 -0.9729
H26 H -0.3737 -0.5625 -0.9853
H27 H -0.2501 -0.6780 -0.9661
loop_
_geom_bond_atom_site_label_1
_geom_bond_atom_site_label_2
_geom_bond_site_symmetry_1
_geom_bond_site_symmetry_2
S1 O5 1_555 1_555
O1 C2 1_555 1_555
O2 C12 1_555 1_555
O3 C11 1_555 1_555
O4 C12 1_555 1_555
O6 S1 1_555 1_555
N1 S1 1_555 1_555
C1 C2 1_555 1_555
C2 C3 1_555 1_555
C3 H1 1_555 1_555
H2 C3 1_555 1_555
C4 N1 1_555 1_555
H3 C4 1_555 1_555
H4 C4 1_555 1_555
C5 N1 1_555 1_555
H5 C5 1_555 1_555
H6 C5 1_555 1_555
C6 C5 1_555 1_555
H7 C6 1_555 1_555
H8 C6 1_555 1_555
C7 C6 1_555 1_555
H9 C7 1_555 1_555
H10 C7 1_555 1_555
C8 C1 1_555 1_555
C9 C1 1_555 1_555
H11 C9 1_555 1_555
H12 C9 1_555 1_555
C10 C9 1_555 1_555
H13 C10 1_555 1_555
C11 C10 1_555 1_555
C12 C8 1_555 1_555
C13 O2 1_555 1_555
H14 C13 1_555 1_555
H15 C13 1_555 1_555
C14 C10 1_555 1_555
H16 C14 1_555 1_555
C15 C8 1_555 1_555
H17 C15 1_555 1_555
C16 O4 1_555 1_555
H18 C16 1_555 1_555
H19 C16 1_555 1_555
H20 C16 1_555 1_555
C17 S1 1_555 1_555
C18 C17 1_555 1_555
H21 C18 1_555 1_555
C19 C18 1_555 1_555
H22 C19 1_555 1_555
C20 C19 1_555 1_555
C21 C20 1_555 1_555
H23 C21 1_555 1_555
C22 C17 1_555 1_555
H24 C22 1_555 1_555
C23 C20 1_555 1_555
H25 C23 1_555 1_555
H26 C23 1_555 1_555
H27 C23 1_555 1_555
C1 C13 1_555 1_555
C3 C4 1_555 1_555
C7 C8 1_555 1_555
C11 C12 1_555 1_555
C14 C15 1_555 1_555
C21 C22 1_555 1_555

#END
