
#######################################################################
#
#                 Cambridge Crystallographic Data Centre
#                                CCDC 
#
#######################################################################
#
# If this CIF has been generated from an entry in the Cambridge 
# Structural Database, then it will include bibliographic, chemical, 
# crystal, experimental, refinement or atomic coordinate data resulting 
# from the CCDC's data processing and validation procedures.
#
#######################################################################

data_EQUGUU
_chemical_formula_moiety         'C48 H76 N12 8+,8(Cl1 1-),9(H2 O1)'
_chemical_name_systematic        
'57,58,59,60-tetraaza-3,9,17,23,31,37,45,51-octaazonianonacyclo[51.3.1.1^11,15^.1^25,29^.1^39,43^.0^4,8^.0^18,22^.0^32,36^.0^46,50^]hexaconta-1(57),11(60),12,14,25(59),26,28,39(58),40,42,53,55-dodecaene octachloride nonahydrate'
_symmetry_cell_setting           monoclinic
_symmetry_space_group_name_H-M   'P 2/n'
_symmetry_Int_Tables_number      13
_space_group_name_Hall           '-P 2yac'
loop_
_symmetry_equiv_pos_site_id
_symmetry_equiv_pos_as_xyz
1 x,y,z
2 1/2-x,y,1/2-z
3 -x,-y,-z
4 1/2+x,-y,1/2+z
_cell_length_a                   13.699(4)
_cell_length_b                   14.041(4)
_cell_length_c                   16.705(5)
_cell_angle_alpha                90
_cell_angle_beta                 94.07(3)
_cell_angle_gamma                90
_cell_volume                     3205.06
_exptl_crystal_colour            colorless
_exptl_crystal_description       plate
_cell_formula_units_Z            2
loop_
_atom_site_label
_atom_site_type_symbol
_atom_site_fract_x
_atom_site_fract_y
_atom_site_fract_z
Cl1 Cl 0.75703(10) 0.67036(11) 0.35674(9)
Cl2 Cl 0.91225(11) 0.76072(14) 0.65294(10)
Cl3 Cl 0.46943(10) 0.60671(11) 0.41226(9)
Cl4 Cl 1.0000 0.5000 0.5000
Cl5 Cl 0.5526(3) 0.9650(4) 0.3493(3)
O1 O 0.5844(11) 1.1727(9) 0.5529(9)
N1 N 0.8425(5) 0.8967(4) 0.4351(4)
N2 N 0.7438(3) 0.7782(3) 0.5229(3)
H1 H 0.7970 0.7743 0.5585
H2 H 0.7636 0.7631 0.4736
N3 N 0.6794(3) 0.5388(4) 0.4932(3)
H3 H 0.6163 0.5265 0.5037
H4 H 0.6782 0.5676 0.4444
N4 N 0.6621(3) 0.4472(4) 0.3537(3)
N5 N 0.5726(3) 0.5690(4) 0.2488(3)
H5 H 0.5439 0.5658 0.2962
H6 H 0.6315 0.5986 0.2581
N6 N 0.5445(4) 0.7913(4) 0.1495(4)
H7 H 0.6101 0.7802 0.1504
H8 H 0.5176 0.7711 0.1010
C1 C 0.9086(6) 0.9480(5) 0.4020(5)
C2 C 0.9191(5) 1.0451(5) 0.4118(5)
H9 H 0.9664 1.0797 0.3848
C3 C 0.8593(5) 1.0894(5) 0.4615(5)
H10 H 0.8649 1.1561 0.4702
C4 C 0.7895(5) 1.0371(5) 0.4996(5)
H11 H 0.7469 1.0672 0.5343
C5 C 0.7843(5) 0.9404(5) 0.4855(5)
C6 C 0.7087(5) 0.8779(5) 0.5208(5)
H12 H 0.6976 0.8995 0.5758
H13 H 0.6460 0.8823 0.4878
C7 C 0.6704(4) 0.7052(4) 0.5453(4)
H14 H 0.6164 0.7010 0.5019
C8 C 0.6273(4) 0.7272(5) 0.6256(4)
H15 H 0.6739 0.7642 0.6614
H16 H 0.5651 0.7630 0.6174
C9 C 0.6105(4) 0.6278(5) 0.6595(4)
H17 H 0.6032 0.6302 0.7180
H18 H 0.5517 0.5976 0.6325
C10 C 0.7034(4) 0.5749(5) 0.6409(4)
H19 H 0.6937 0.5051 0.6432
H20 H 0.7588 0.5928 0.6792
C11 C 0.7221(4) 0.6069(4) 0.5552(4)
H21 H 0.7939 0.6142 0.5499
C12 C 0.7323(4) 0.4460(4) 0.4883(4)
H22 H 0.8034 0.4577 0.4866
H23 H 0.7220 0.4071 0.5364
C13 C 0.6951(4) 0.3938(4) 0.4148(4)
C14 C 0.6939(5) 0.2943(5) 0.4112(4)
H24 H 0.7156 0.2569 0.4564
C15 C 0.6600(5) 0.2515(5) 0.3391(4)
H25 H 0.6599 0.1841 0.3343
C16 C 0.6267(5) 0.3069(5) 0.2750(4)
H26 H 0.6030 0.2788 0.2256
C17 C 0.6286(4) 0.4052(4) 0.2846(4)
C18 C 0.5886(4) 0.4705(4) 0.2185(4)
H27 H 0.6350 0.4729 0.1758
H28 H 0.5258 0.4447 0.1948
C19 C 0.5096(4) 0.6260(4) 0.1903(4)
H29 H 0.5370 0.6221 0.1365
C20 C 0.4035(4) 0.5884(5) 0.1832(4)
H30 H 0.3938 0.5415 0.1391
H31 H 0.3862 0.5584 0.2340
C21 C 0.3426(4) 0.6785(5) 0.1652(4)
H32 H 0.3444 0.6975 0.1082
H33 H 0.2737 0.6691 0.1777
C22 C 0.3932(4) 0.7515(5) 0.2206(4)
H34 H 0.3746 0.7432 0.2764
H35 H 0.3764 0.8171 0.2027
C23 C 0.5027(4) 0.7314(4) 0.2146(4)
H36 H 0.5398 0.7428 0.2674
C24 C 0.5289(7) 0.8959(6) 0.1553(7)
H37 H 0.5463 0.9174 0.2109
H38 H 0.4590 0.9108 0.1420
N1A N 0.6575(5) 0.8967(4) 0.0649(4)
N2A N 0.7562(3) 0.7782(3) -0.0229(3)
H1A H 0.7030 0.7743 -0.0585
H2A H 0.7364 0.7631 0.0264
N3A N 0.8206(3) 0.5388(4) 0.0068(3)
H3A H 0.8837 0.5265 -0.0037
H4A H 0.8218 0.5676 0.0556
N4A N 0.8379(3) 0.4472(4) 0.1463(3)
N5A N 0.9274(3) 0.5690(4) 0.2512(3)
H5A H 0.9561 0.5658 0.2038
H6A H 0.8685 0.5986 0.2419
N6A N 0.9555(4) 0.7913(4) 0.3505(4)
H7A H 0.8899 0.7802 0.3496
H8A H 0.9824 0.7711 0.3990
C1A C 0.5914(6) 0.9480(5) 0.0980(5)
C2A C 0.5809(5) 1.0451(5) 0.0882(5)
H9A H 0.5336 1.0797 0.1152
C3A C 0.6407(5) 1.0894(5) 0.0385(5)
H10A H 0.6351 1.1561 0.0298
C4A C 0.7105(5) 1.0371(5) 0.0004(5)
H11A H 0.7531 1.0672 -0.0343
C5A C 0.7157(5) 0.9404(5) 0.0145(5)
C6A C 0.7913(5) 0.8779(5) -0.0208(5)
H12A H 0.8024 0.8995 -0.0758
H13A H 0.8540 0.8823 0.0122
C7A C 0.8296(4) 0.7052(4) -0.0453(4)
H14A H 0.8836 0.7010 -0.0019
C8A C 0.8727(4) 0.7272(5) -0.1256(4)
H15A H 0.8261 0.7642 -0.1614
H16A H 0.9349 0.7630 -0.1174
C9A C 0.8895(4) 0.6278(5) -0.1595(4)
H17A H 0.8968 0.6302 -0.2180
H18A H 0.9483 0.5976 -0.1325
C10A C 0.7966(4) 0.5749(5) -0.1409(4)
H19A H 0.8063 0.5051 -0.1432
H20A H 0.7412 0.5928 -0.1792
C11A C 0.7779(4) 0.6069(4) -0.0552(4)
H21A H 0.7061 0.6142 -0.0499
C12A C 0.7677(4) 0.4460(4) 0.0117(4)
H22A H 0.6966 0.4577 0.0134
H23A H 0.7780 0.4071 -0.0364
C13A C 0.8049(4) 0.3938(4) 0.0852(4)
C14A C 0.8061(5) 0.2943(5) 0.0888(4)
H24A H 0.7844 0.2569 0.0436
C15A C 0.8400(5) 0.2515(5) 0.1609(4)
H25A H 0.8401 0.1841 0.1657
C16A C 0.8733(5) 0.3069(5) 0.2250(4)
H26A H 0.8970 0.2788 0.2744
C17A C 0.8714(4) 0.4052(4) 0.2154(4)
C18A C 0.9114(4) 0.4705(4) 0.2815(4)
H27A H 0.8650 0.4729 0.3242
H28A H 0.9742 0.4447 0.3052
C19A C 0.9904(4) 0.6260(4) 0.3097(4)
H29A H 0.9630 0.6221 0.3635
C20A C 1.0965(4) 0.5884(5) 0.3168(4)
H30A H 1.1062 0.5415 0.3609
H31A H 1.1138 0.5584 0.2660
C21A C 1.1574(4) 0.6785(5) 0.3348(4)
H32A H 1.1556 0.6975 0.3918
H33A H 1.2263 0.6691 0.3223
C22A C 1.1068(4) 0.7515(5) 0.2794(4)
H34A H 1.1254 0.7432 0.2236
H35A H 1.1236 0.8171 0.2973
C23A C 0.9973(4) 0.7314(4) 0.2854(4)
H36A H 0.9602 0.7428 0.2326
C24A C 0.9711(7) 0.8959(6) 0.3447(7)
H37A H 0.9537 0.9174 0.2891
H38A H 1.0410 0.9108 0.3580
O2 O 0.4782(4) 0.7167(4) 0.0011(3)
H39 H 0.5033 0.7417 -0.0383
H40 H 0.4814 0.6571 -0.0016
O3 O 0.3632(10) 1.0432(10) 0.2525(9)
Cl6? Cl 0.6278(16) 0.8876(16) 0.3456(13)
O4? O 0.5256(11) 1.0855(12) 0.5001(11)
O5? O 0.6525(12) 1.1956(10) 0.5874(8)
O6? O 0.341(3) 1.025(3) 0.211(3)
O7? O 0.4608(12) 1.0700(12) 0.2707(10)
O8? O 0.3077(14) 0.9512(14) 0.2991(11)
O9? O 0.7109(8) 0.8628(9) 0.2517(9)
O10? O 0.5497(9) 1.0588(10) 0.4169(9)
loop_
_geom_bond_atom_site_label_1
_geom_bond_atom_site_label_2
_geom_bond_site_symmetry_1
_geom_bond_site_symmetry_2
N1 C1 1_555 1_555
N2 H1 1_555 1_555
H2 N2 1_555 1_555
N3 H3 1_555 1_555
H4 N3 1_555 1_555
N4 C13 1_555 1_555
N5 H5 1_555 1_555
H6 N5 1_555 1_555
N6 H7 1_555 1_555
H8 N6 1_555 1_555
C1 C2 1_555 1_555
C2 H9 1_555 1_555
C3 C2 1_555 1_555
H10 C3 1_555 1_555
C4 C3 1_555 1_555
H11 C4 1_555 1_555
C5 N1 1_555 1_555
C6 N2 1_555 1_555
H12 C6 1_555 1_555
H13 C6 1_555 1_555
C7 N2 1_555 1_555
H14 C7 1_555 1_555
C8 C7 1_555 1_555
H15 C8 1_555 1_555
H16 C8 1_555 1_555
C9 C8 1_555 1_555
H17 C9 1_555 1_555
H18 C9 1_555 1_555
C10 C9 1_555 1_555
H19 C10 1_555 1_555
H20 C10 1_555 1_555
C11 N3 1_555 1_555
H21 C11 1_555 1_555
C12 N3 1_555 1_555
H22 C12 1_555 1_555
H23 C12 1_555 1_555
C13 C12 1_555 1_555
C14 C13 1_555 1_555
H24 C14 1_555 1_555
C15 C14 1_555 1_555
H25 C15 1_555 1_555
C16 C15 1_555 1_555
H26 C16 1_555 1_555
C17 N4 1_555 1_555
C18 N5 1_555 1_555
H27 C18 1_555 1_555
H28 C18 1_555 1_555
C19 N5 1_555 1_555
H29 C19 1_555 1_555
C20 C19 1_555 1_555
H30 C20 1_555 1_555
H31 C20 1_555 1_555
C21 C20 1_555 1_555
H32 C21 1_555 1_555
H33 C21 1_555 1_555
C22 C21 1_555 1_555
H34 C22 1_555 1_555
H35 C22 1_555 1_555
C23 N6 1_555 1_555
H36 C23 1_555 1_555
C24 N6 1_555 1_555
H37 C24 1_555 1_555
H38 C24 1_555 1_555
O2 H39 1_555 1_555
H40 O2 1_555 1_555
N1A C1A 1_555 1_555
N2A H1A 1_555 1_555
H2A N2A 1_555 1_555
N3A H3A 1_555 1_555
H4A N3A 1_555 1_555
N4A C13A 1_555 1_555
N5A H5A 1_555 1_555
H6A N5A 1_555 1_555
N6A H7A 1_555 1_555
H8A N6A 1_555 1_555
C1A C24 1_555 1_555
C2A C1A 1_555 1_555
H9A C2A 1_555 1_555
C3A C2A 1_555 1_555
H10A C3A 1_555 1_555
C4A C3A 1_555 1_555
H11A C4A 1_555 1_555
C5A N1A 1_555 1_555
C6A N2A 1_555 1_555
H12A C6A 1_555 1_555
H13A C6A 1_555 1_555
C7A N2A 1_555 1_555
H14A C7A 1_555 1_555
C8A C7A 1_555 1_555
H15A C8A 1_555 1_555
H16A C8A 1_555 1_555
C9A C8A 1_555 1_555
H17A C9A 1_555 1_555
H18A C9A 1_555 1_555
C10A C9A 1_555 1_555
H19A C10A 1_555 1_555
H20A C10A 1_555 1_555
C11A N3A 1_555 1_555
H21A C11A 1_555 1_555
C12A N3A 1_555 1_555
H22A C12A 1_555 1_555
H23A C12A 1_555 1_555
C13A C12A 1_555 1_555
C14A C13A 1_555 1_555
H24A C14A 1_555 1_555
C15A C14A 1_555 1_555
H25A C15A 1_555 1_555
C16A C15A 1_555 1_555
H26A C16A 1_555 1_555
C17A N4A 1_555 1_555
C18A N5A 1_555 1_555
H27A C18A 1_555 1_555
H28A C18A 1_555 1_555
C19A N5A 1_555 1_555
H29A C19A 1_555 1_555
C20A C19A 1_555 1_555
H30A C20A 1_555 1_555
H31A C20A 1_555 1_555
C21A C20A 1_555 1_555
H32A C21A 1_555 1_555
H33A C21A 1_555 1_555
C22A C21A 1_555 1_555
H34A C22A 1_555 1_555
H35A C22A 1_555 1_555
C23A N6A 1_555 1_555
H36A C23A 1_555 1_555
C24A C1 1_555 1_555
H37A C24A 1_555 1_555
H38A C24A 1_555 1_555
C4 C5 1_555 1_555
C5 C6 1_555 1_555
C7 C11 1_555 1_555
C10 C11 1_555 1_555
C16 C17 1_555 1_555
C17 C18 1_555 1_555
C19 C23 1_555 1_555
C22 C23 1_555 1_555
N6A C24A 1_555 1_555
C4A C5A 1_555 1_555
C5A C6A 1_555 1_555
C7A C11A 1_555 1_555
C10A C11A 1_555 1_555
C16A C17A 1_555 1_555
C17A C18A 1_555 1_555
C19A C23A 1_555 1_555
C22A C23A 1_555 1_555

#END
