
#######################################################################
#
#                 Cambridge Crystallographic Data Centre
#                                CCDC 
#
#######################################################################
#
# If this CIF has been generated from an entry in the Cambridge 
# Structural Database, then it will include bibliographic, chemical, 
# crystal, experimental, refinement or atomic coordinate data resulting 
# from the CCDC's data processing and validation procedures.
#
#######################################################################

data_EQUQIS
_chemical_formula_moiety         'C47 H36 B1 N3'
_chemical_name_systematic        
4-(6-(4-(diphenylamino)phenyl)-6H-5,6-pyrido[1,2-b][2,1]benzazaborol-6-yl)-N,N-diphenylaniline
_symmetry_cell_setting           triclinic
_symmetry_space_group_name_H-M   'P -1'
_symmetry_Int_Tables_number      2
_space_group_name_Hall           '-P 1'
loop_
_symmetry_equiv_pos_site_id
_symmetry_equiv_pos_as_xyz
1 x,y,z
2 -x,-y,-z
_cell_length_a                   10.8639(4)
_cell_length_b                   10.8923(3)
_cell_length_c                   17.1352(6)
_cell_angle_alpha                102.745(3)
_cell_angle_beta                 99.585(2)
_cell_angle_gamma                111.200(2)
_cell_volume                     1774.94
_exptl_crystal_colour            yellow
_exptl_crystal_description       Needles
_cell_formula_units_Z            2
loop_
_atom_site_label
_atom_site_type_symbol
_atom_site_fract_x
_atom_site_fract_y
_atom_site_fract_z
N1 N 0.6830(3) 0.3284(3) -0.25415(16)
N2 N 0.6829(4) 0.3217(3) 0.31411(15)
N3 N 0.2367(3) 0.0266(3) -0.06701(18)
C1 C 0.7243(5) 0.6512(4) -0.3583(3)
H1 H 0.7313 0.7228 -0.3829
C2 C 0.6934(4) 0.6584(3) -0.2838(2)
H2 H 0.6806 0.7367 -0.2561
C3 C 0.6806(3) 0.5540(3) -0.2479(2)
H3 H 0.6610 0.5622 -0.1954
C4 C 0.6959(4) 0.4381(3) -0.28775(19)
C5 C 0.5982(3) 0.2949(3) -0.20019(17)
C6 C 0.6362(3) 0.2414(3) -0.13816(17)
H4 H 0.7173 0.2257 -0.1332
C7 C 0.5576(3) 0.2110(3) -0.08386(16)
H5 H 0.5871 0.1756 -0.0419
C8 C 0.4364(3) 0.2301(3) -0.08790(15)
B1 B 0.3451(3) 0.1859(3) -0.0248(2)
C9 C 0.4358(3) 0.2171(3) 0.06763(16)
C10 C 0.5452(3) 0.3466(3) 0.10800(16)
H6 H 0.5653 0.4135 0.0792
C11 C 0.6253(3) 0.3811(3) 0.18789(17)
H7 H 0.6982 0.4704 0.2127
C12 C 0.5997(3) 0.2854(3) 0.23268(17)
C13 C 0.7517(4) 0.4623(3) 0.36530(18)
C14 C 0.6821(5) 0.5453(4) 0.3753(2)
H8 H 0.5872 0.5094 0.3477
C15 C 0.7507(6) 0.6823(4) 0.4260(2)
H9 H 0.7024 0.7396 0.4325
C16 C 0.8869(6) 0.7348(4) 0.4663(3)
H10 H 0.9331 0.8279 0.5012
C17 C 0.7000(7) 0.0252(4) 0.4305(3)
H11 H 0.7076 -0.0392 0.4583
C18 C 0.6566(6) 0.1218(4) 0.4644(3)
H12 H 0.6319 0.1232 0.5151
C19 C 0.6482(5) 0.2179(4) 0.4253(2)
H13 H 0.6171 0.2848 0.4490
C20 C 0.6851(4) 0.2169(3) 0.35167(19)
C21 C 0.2610(3) -0.0890(3) -0.0862(2)
H14 H 0.3527 -0.0809 -0.0727
C22 C 0.1553(4) -0.2174(4) -0.1249(4)
H15 H 0.1737 -0.2974 -0.1373
C23 C 0.0231(5) -0.2292(5) -0.1457(6)
H16 H -0.0504 -0.3174 -0.1732
C24 C -0.0028(5) -0.1125(5) -0.1264(6)
H17 H -0.0941 -0.1198 -0.1404
C25 C 0.1050(4) 0.0145(4) -0.0868(3)
C26 C 0.1030(4) 0.1501(4) -0.0617(3)
C27 C 0.2338(3) 0.2508(3) -0.02510(18)
C28 C 0.2523(4) 0.3858(4) 0.0036(2)
H18 H 0.3421 0.4556 0.0305
C29 C 0.1445(5) 0.4213(5) -0.0058(4)
H19 H 0.1587 0.5152 0.0145
C30 C -0.0080(5) 0.1839(6) -0.0728(6)
H20 H -0.0981 0.1143 -0.0992
C31 C 0.7449(5) 0.5387(4) -0.3971(3)
H21 H 0.7692 0.5335 -0.4481
C32 C 0.7307(5) 0.4333(4) -0.3625(2)
H22 H 0.7449 0.3559 -0.3903
C33 C 0.7547(4) 0.2452(4) -0.2758(2)
C34 C 0.6821(5) 0.1032(4) -0.3084(2)
H23 H 0.5856 0.0629 -0.3166
C35 C 0.7489(8) 0.0205(6) -0.3290(3)
H24 H 0.6986 -0.0770 -0.3503
C36 C 0.8856(9) 0.0767(8) -0.3192(5)
H25 H 0.9309 0.0186 -0.3340
C37 C 0.9596(8) 0.2176(8) -0.2879(5)
H26 H 1.0558 0.2564 -0.2812
C38 C 0.8940(6) 0.3037(5) -0.2661(4)
H27 H 0.9446 0.4012 -0.2449
C39 C 0.4766(3) 0.3124(3) -0.20708(18)
H28 H 0.4466 0.3458 -0.2500
C40 C 0.3990(3) 0.2815(3) -0.15182(17)
H29 H 0.3171 0.2957 -0.1575
C41 C 0.4136(3) 0.1241(3) 0.11387(17)
H30 H 0.3406 0.0347 0.0893
C42 C 0.4931(3) 0.1560(3) 0.19392(18)
H31 H 0.4742 0.0886 0.2224
C43 C 0.8896(4) 0.5153(4) 0.4057(2)
H32 H 0.9385 0.4586 0.3991
C44 C 0.9564(5) 0.6517(5) 0.4560(3)
H33 H 1.0512 0.6881 0.4837
C45 C 0.7251(5) 0.1161(4) 0.3165(3)
H34 H 0.7474 0.1119 0.2650
C46 C 0.7324(6) 0.0205(4) 0.3571(3)
H35 H 0.7604 -0.0488 0.3331
C47 C 0.0150(6) 0.3208(6) -0.0448(6)
H36 H -0.0601 0.3460 -0.0526
loop_
_geom_bond_atom_site_label_1
_geom_bond_atom_site_label_2
_geom_bond_site_symmetry_1
_geom_bond_site_symmetry_2
N1 C4 1_555 1_555
N2 C12 1_555 1_555
N3 B1 1_555 1_555
C1 H1 1_555 1_555
C2 C1 1_555 1_555
H2 C2 1_555 1_555
C3 C2 1_555 1_555
H3 C3 1_555 1_555
C4 C3 1_555 1_555
C5 N1 1_555 1_555
C6 C5 1_555 1_555
H4 C6 1_555 1_555
C7 C6 1_555 1_555
H5 C7 1_555 1_555
C8 C7 1_555 1_555
B1 C8 1_555 1_555
C9 B1 1_555 1_555
C10 C9 1_555 1_555
H6 C10 1_555 1_555
C11 C10 1_555 1_555
H7 C11 1_555 1_555
C12 C11 1_555 1_555
C13 N2 1_555 1_555
C14 C13 1_555 1_555
H8 C14 1_555 1_555
C15 C14 1_555 1_555
H9 C15 1_555 1_555
C16 C15 1_555 1_555
H10 C16 1_555 1_555
C17 H11 1_555 1_555
C18 C17 1_555 1_555
H12 C18 1_555 1_555
C19 C18 1_555 1_555
H13 C19 1_555 1_555
C20 N2 1_555 1_555
C21 N3 1_555 1_555
H14 C21 1_555 1_555
C22 C21 1_555 1_555
H15 C22 1_555 1_555
C23 C22 1_555 1_555
H16 C23 1_555 1_555
C24 C23 1_555 1_555
H17 C24 1_555 1_555
C25 N3 1_555 1_555
C26 C25 1_555 1_555
C27 B1 1_555 1_555
C28 C27 1_555 1_555
H18 C28 1_555 1_555
C29 C28 1_555 1_555
H19 C29 1_555 1_555
C30 C26 1_555 1_555
H20 C30 1_555 1_555
C31 C1 1_555 1_555
H21 C31 1_555 1_555
C32 C4 1_555 1_555
H22 C32 1_555 1_555
C33 N1 1_555 1_555
C34 C33 1_555 1_555
H23 C34 1_555 1_555
C35 C34 1_555 1_555
H24 C35 1_555 1_555
C36 C35 1_555 1_555
H25 C36 1_555 1_555
C37 C36 1_555 1_555
H26 C37 1_555 1_555
C38 C33 1_555 1_555
H27 C38 1_555 1_555
C39 C5 1_555 1_555
H28 C39 1_555 1_555
C40 C8 1_555 1_555
H29 C40 1_555 1_555
C41 C9 1_555 1_555
H30 C41 1_555 1_555
C42 C12 1_555 1_555
H31 C42 1_555 1_555
C43 C13 1_555 1_555
H32 C43 1_555 1_555
C44 C16 1_555 1_555
H33 C44 1_555 1_555
C45 C20 1_555 1_555
H34 C45 1_555 1_555
C46 C17 1_555 1_555
H35 C46 1_555 1_555
C47 C29 1_555 1_555
H36 C47 1_555 1_555
C19 C20 1_555 1_555
C24 C25 1_555 1_555
C26 C27 1_555 1_555
C30 C47 1_555 1_555
C31 C32 1_555 1_555
C37 C38 1_555 1_555
C39 C40 1_555 1_555
C41 C42 1_555 1_555
C43 C44 1_555 1_555
C45 C46 1_555 1_555

#END
