
#######################################################################
#
#                 Cambridge Crystallographic Data Centre
#                                CCDC 
#
#######################################################################
#
# If this CIF has been generated from an entry in the Cambridge 
# Structural Database, then it will include bibliographic, chemical, 
# crystal, experimental, refinement or atomic coordinate data resulting 
# from the CCDC's data processing and validation procedures.
#
#######################################################################

data_EQUWEU
_chemical_formula_moiety         'C23 H21 Cl1 N2 O1'
_chemical_name_systematic        
1-(biphenyl-4-ylcarbonyl)-5-chloro-3-methyl-1,2,3,3a,4,5-hexahydro-7aH-indole-7a-carbonitrile
_symmetry_cell_setting           orthorhombic
_symmetry_space_group_name_H-M   'P b c a'
_symmetry_Int_Tables_number      61
_space_group_name_Hall           '-P 2ac 2ab'
loop_
_symmetry_equiv_pos_site_id
_symmetry_equiv_pos_as_xyz
1 x,y,z
2 1/2-x,-y,1/2+z
3 -x,1/2+y,1/2-z
4 1/2+x,1/2-y,-z
5 -x,-y,-z
6 1/2+x,y,1/2-z
7 x,1/2-y,1/2+z
8 1/2-x,1/2+y,z
_cell_length_a                   9.4441(17)
_cell_length_b                   9.3924(18)
_cell_length_c                   44.328(8)
_cell_angle_alpha                90
_cell_angle_beta                 90
_cell_angle_gamma                90
_cell_volume                     3932.02
_exptl_crystal_colour            colorless
_exptl_crystal_description       blade
_cell_formula_units_Z            8
loop_
_atom_site_label
_atom_site_type_symbol
_atom_site_fract_x
_atom_site_fract_y
_atom_site_fract_z
O1 O 0.7175(2) 0.0291(2) 0.38446(4)
N1 N 0.5809(2) 0.2278(2) 0.39119(4)
C1 C 0.7624(3) 0.2443(3) 0.43117(5)
N2 N 0.8786(3) 0.2497(3) 0.43906(5)
C2 C 0.6067(3) 0.2391(3) 0.42429(6)
C3 C 0.5419(9) 0.1144(7) 0.44140(12)
H1 H 0.5573 0.0206 0.4341
C4 C 0.4643(7) 0.1318(6) 0.46623(12)
H2 H 0.4276 0.0489 0.4757
C5 C 0.4307(5) 0.2738(6) 0.48039(16)
H3 H 0.4560 0.2700 0.5023
Cl1 Cl 0.23465(8) 0.29723(9) 0.47686(2)
C6 C 0.507(3) 0.400(2) 0.46589(17)
H4 H 0.4501 0.4870 0.4691
H5 H 0.5990 0.4140 0.4763
C7 C 0.5358(3) 0.3836(3) 0.43208(5)
H6 H 0.6023 0.4612 0.4259
C8 C 0.4074(3) 0.3869(3) 0.41016(6)
H7 H 0.3358 0.3151 0.4169
C9 C 0.4767(3) 0.3358(3) 0.38082(6)
H8 H 0.4058 0.2927 0.3671
H9 H 0.5244 0.4153 0.3703
C10 C 0.3356(3) 0.5328(3) 0.40725(6)
H10 H 0.4063 0.6044 0.4016
H11 H 0.2928 0.5591 0.4266
H12 H 0.2619 0.5282 0.3917
C11 C 0.6432(3) 0.1255(3) 0.37377(6)
C12 C 0.6232(3) 0.1419(3) 0.34015(6)
C13 C 0.5641(3) 0.0318(3) 0.32289(6)
H13 H 0.5266 -0.0502 0.3326
C14 C 0.5604(3) 0.0426(3) 0.29141(6)
H14 H 0.5189 -0.0319 0.2799
C15 C 0.6170(3) 0.1621(3) 0.27639(6)
C16 C 0.6736(3) 0.2719(3) 0.29425(6)
H15 H 0.7116 0.3540 0.2847
C17 C 0.6750(3) 0.2626(3) 0.32568(6)
H16 H 0.7115 0.3393 0.3373
C18 C 0.6217(3) 0.1713(3) 0.24267(6)
C19 C 0.7311(3) 0.2463(3) 0.22809(6)
H17 H 0.8021 0.2919 0.2398
C20 C 0.7369(3) 0.2549(4) 0.19668(6)
H18 H 0.8109 0.3069 0.1872
C21 C 0.6340(3) 0.1872(3) 0.17912(6)
H19 H 0.6386 0.1919 0.1577
C22 C 0.5251(3) 0.1131(4) 0.19317(6)
H20 H 0.4544 0.0678 0.1813
C23 C 0.5191(3) 0.1048(3) 0.22462(6)
H21 H 0.4443 0.0534 0.2339
C24? C 0.552(14) 0.119(9) 0.445(2)
H22? H 0.6339 0.0603 0.4523
Cl2? Cl 0.4392(15) 0.0037(16) 0.4114(3)
C25? C 0.458(11) 0.157(10) 0.471(2)
H23? H 0.4356 0.0813 0.4844
C26? C 0.401(10) 0.283(9) 0.478(2)
H24? H 0.3154 0.2995 0.4890
C27? C 0.51(4) 0.39(3) 0.466(2)
H25? H 0.4674 0.4899 0.4704
H26? H 0.5962 0.3844 0.4771
H27? H 0.6022 0.4621 0.4264
loop_
_geom_bond_atom_site_label_1
_geom_bond_atom_site_label_2
_geom_bond_site_symmetry_1
_geom_bond_site_symmetry_2
O1 C11 1_555 1_555
N1 C2 1_555 1_555
C1 N2 1_555 1_555
C2 C1 1_555 1_555
C3 C2 1_555 1_555
H1 C3 1_555 1_555
C4 C3 1_555 1_555
H2 C4 1_555 1_555
C5 C4 1_555 1_555
H3 C5 1_555 1_555
Cl1 C5 1_555 1_555
C6 C5 1_555 1_555
H4 C6 1_555 1_555
H5 C6 1_555 1_555
C7 C2 1_555 1_555
H6 C7 1_555 1_555
C8 C7 1_555 1_555
H7 C8 1_555 1_555
C9 N1 1_555 1_555
H8 C9 1_555 1_555
H9 C9 1_555 1_555
C10 C8 1_555 1_555
H10 C10 1_555 1_555
H11 C10 1_555 1_555
H12 C10 1_555 1_555
C11 N1 1_555 1_555
C12 C11 1_555 1_555
C13 C12 1_555 1_555
H13 C13 1_555 1_555
C14 C13 1_555 1_555
H14 C14 1_555 1_555
C15 C14 1_555 1_555
C16 C15 1_555 1_555
H15 C16 1_555 1_555
C17 C12 1_555 1_555
H16 C17 1_555 1_555
C18 C15 1_555 1_555
C19 C18 1_555 1_555
H17 C19 1_555 1_555
C20 C19 1_555 1_555
H18 C20 1_555 1_555
C21 C20 1_555 1_555
H19 C21 1_555 1_555
C22 C21 1_555 1_555
H20 C22 1_555 1_555
C23 C18 1_555 1_555
H21 C23 1_555 1_555
C6 C7 1_555 1_555
C8 C9 1_555 1_555
C16 C17 1_555 1_555
C22 C23 1_555 1_555

#END
