
#######################################################################
#
#                 Cambridge Crystallographic Data Centre
#                                CCDC 
#
#######################################################################
#
# If this CIF has been generated from an entry in the Cambridge 
# Structural Database, then it will include bibliographic, chemical, 
# crystal, experimental, refinement or atomic coordinate data resulting 
# from the CCDC's data processing and validation procedures.
#
#######################################################################

data_ERAFAG
_chemical_formula_moiety         'C6 H18 N3 S1 1+,C1 H1 N3 P1 1-'
_chemical_name_systematic        
'tris(dimethylamino)sulfonium 1,2,3,4-triazaphosphol-4-ide'
_symmetry_cell_setting           triclinic
_symmetry_space_group_name_H-M   'P -1'
_symmetry_Int_Tables_number      2
_space_group_name_Hall           '-P 1'
loop_
_symmetry_equiv_pos_site_id
_symmetry_equiv_pos_as_xyz
1 x,y,z
2 -x,-y,-z
_cell_length_a                   6.0072(5)
_cell_length_b                   10.1348(9)
_cell_length_c                   10.3082(9)
_cell_angle_alpha                90.002(2)
_cell_angle_beta                 89.996(2)
_cell_angle_gamma                83.296(2)
_cell_volume                     623.29
_exptl_crystal_colour            colorless
_exptl_crystal_description       plate
_cell_formula_units_Z            2
loop_
_atom_site_label
_atom_site_type_symbol
_atom_site_fract_x
_atom_site_fract_y
_atom_site_fract_z
S1 S 0.52581(4) 0.67557(2) 0.75003(2)
N1 N 0.27535(16) 0.61411(9) 0.74996(9)
C1 C 0.2476(2) 0.53385(12) 0.86812(11)
H1 H 0.1014 0.5000 0.8657
H2 H 0.2563 0.5895 0.9453
H3 H 0.3667 0.4591 0.8714
C2 C 0.2473(2) 0.53381(12) 0.63192(11)
H4 H 0.3669 0.4593 0.6283
H5 H 0.2551 0.5895 0.5547
H6 H 0.1014 0.4995 0.6347
N2 N 0.49900(16) 0.75930(9) 0.61567(9)
C3 C 0.71179(19) 0.78305(12) 0.55386(11)
H7 H 0.6914 0.7886 0.4596
H8 H 0.8275 0.7097 0.5747
H9 H 0.7581 0.8666 0.5862
C4 C 0.31007(19) 0.86225(11) 0.59084(11)
H10 H 0.3504 0.9488 0.6186
H11 H 0.1784 0.8414 0.6395
H12 H 0.2756 0.8650 0.4979
N3 N 0.49890(16) 0.75935(9) 0.88421(9)
C5 C 0.31004(19) 0.86241(11) 0.90914(11)
H13 H 0.2757 0.8652 1.0021
H14 H 0.1783 0.8416 0.8606
H15 H 0.3504 0.9490 0.8813
C6 C 0.71171(19) 0.78313(12) 0.94626(11)
H16 H 0.7574 0.8671 0.9145
H17 H 0.8277 0.7102 0.9249
H18 H 0.6914 0.7880 1.0405
P1 P 0.20524(5) 0.69701(3) 0.24999(3)
C7 C 0.0343(2) 0.84570(12) 0.24991(11)
H19 H -0.122(2) 0.8658(15) 0.2492(15)
N4 N 0.15214(18) 0.95011(10) 0.25002(10)
N5 N 0.37434(19) 0.91147(10) 0.24996(10)
N6 N 0.43126(17) 0.78086(10) 0.25002(10)
loop_
_geom_bond_atom_site_label_1
_geom_bond_atom_site_label_2
_geom_bond_site_symmetry_1
_geom_bond_site_symmetry_2
S1 N1 1_555 1_555
N1 C1 1_555 1_555
C1 H1 1_555 1_555
H2 C1 1_555 1_555
H3 C1 1_555 1_555
C2 N1 1_555 1_555
H4 C2 1_555 1_555
H5 C2 1_555 1_555
H6 C2 1_555 1_555
N2 S1 1_555 1_555
C3 N2 1_555 1_555
H7 C3 1_555 1_555
H8 C3 1_555 1_555
H9 C3 1_555 1_555
C4 N2 1_555 1_555
H10 C4 1_555 1_555
H11 C4 1_555 1_555
H12 C4 1_555 1_555
N3 S1 1_555 1_555
C5 N3 1_555 1_555
H13 C5 1_555 1_555
H14 C5 1_555 1_555
H15 C5 1_555 1_555
C6 N3 1_555 1_555
H16 C6 1_555 1_555
H17 C6 1_555 1_555
H18 C6 1_555 1_555
P1 C7 1_555 1_555
C7 H19 1_555 1_555
N4 C7 1_555 1_555
N5 N4 1_555 1_555
N6 P1 1_555 1_555
N5 N6 1_555 1_555

#END
