
#######################################################################
#
#                 Cambridge Crystallographic Data Centre
#                                CCDC 
#
#######################################################################
#
# If this CIF has been generated from an entry in the Cambridge 
# Structural Database, then it will include bibliographic, chemical, 
# crystal, experimental, refinement or atomic coordinate data resulting 
# from the CCDC's data processing and validation procedures.
#
#######################################################################

data_ERALIS
_chemical_compound_source        'fruit bodies of Fomes cajanderi'
_chemical_formula_moiety         'C31 H46 O4'
_chemical_name_systematic        'Fomlactone C'
_symmetry_cell_setting           orthorhombic
_symmetry_space_group_name_H-M   'P 21 21 21'
_symmetry_Int_Tables_number      19
_space_group_name_Hall           'P 2ac 2ab'
loop_
_symmetry_equiv_pos_site_id
_symmetry_equiv_pos_as_xyz
1 x,y,z
2 1/2-x,-y,1/2+z
3 1/2+x,1/2-y,-z
4 -x,1/2+y,1/2-z
_cell_length_a                   7.572(1)
_cell_length_b                   9.924(1)
_cell_length_c                   36.434(1)
_cell_angle_alpha                90
_cell_angle_beta                 90
_cell_angle_gamma                90
_cell_volume                     2737.82
_exptl_crystal_colour            white
_chemical_melting_point          246-250deg.C
_cell_formula_units_Z            4
_exptl_crystal_recrystallization_method methanol
loop_
_atom_site_label
_atom_site_type_symbol
_atom_site_fract_x
_atom_site_fract_y
_atom_site_fract_z
O1 O 0.2622(9) 0.6995(9) 0.8099(1)
O2 O -0.3470(7) 0.1679(5) 0.9396(1)
O3 O -0.3342(7) -0.0690(5) 0.9402(1)
O4 O -0.1994(9) -0.2556(6) 0.9601(1)
C1 C -0.0162(12) 0.5262(10) 0.8708(2)
C2 C 0.0898(13) 0.6578(10) 0.8627(2)
C3 C 0.1192(12) 0.6740(10) 0.8221(2)
C4 C -0.0441(12) 0.6611(9) 0.7968(1)
C5 C -0.1597(11) 0.5376(8) 0.8091(1)
C6 C -0.3382(12) 0.5333(9) 0.7885(1)
C7 C -0.4338(13) 0.3998(10) 0.7952(2)
C8 C -0.3977(10) 0.3328(8) 0.8317(1)
C9 C -0.2809(10) 0.3847(8) 0.8570(1)
C10 C -0.1926(11) 0.5215(8) 0.8513(1)
C11 C -0.2509(11) 0.3175(10) 0.8934(1)
C12 C -0.3394(10) 0.1790(9) 0.8996(1)
C13 C -0.5227(9) 0.1769(8) 0.8811(1)
C14 C -0.4804(10) 0.1990(9) 0.8387(1)
C15 C -0.6699(12) 0.1693(10) 0.8227(2)
C16 C -0.7457(12) 0.0524(11) 0.8463(2)
C17 C -0.6170(10) 0.0401(9) 0.8806(1)
C18 C -0.6422(11) 0.2912(8) 0.8956(1)
C19 C -0.3168(14) 0.6290(10) 0.8686(2)
C20 C -0.7027(11) -0.0190(9) 0.9162(1)
C21 C -0.9031(11) 0.0063(10) 0.9208(2)
C22 C -0.6195(10) 0.0381(9) 0.9525(1)
C23 C -0.4176(10) 0.0544(9) 0.9559(1)
C24 C -0.3494(10) 0.0540(9) 0.9964(1)
C25 C -0.3189(11) -0.0921(9) 1.0050(1)
C26 C -0.2734(10) -0.1524(9) 0.9671(2)
C27 C -0.1742(14) -0.1203(10) 1.0336(2)
C28 C -0.3568(13) 0.0881(10) 0.8213(2)
C29 C -0.1361(14) 0.7980(10) 0.7977(3)
C30 C 0.0254(16) 0.6334(12) 0.7572(2)
C31 C -0.4683(13) 0.1303(9) 1.0236(2)
H1 H 0.066 0.439 0.862
H2 H -0.034 0.514 0.901
H3 H 0.015 0.745 0.873
H4 H 0.217 0.659 0.878
H5 H -0.087 0.447 0.80
H6 H -0.423 0.615 0.798
H7 H -0.318 0.545 0.759
H8 H -0.397 0.331 0.773
H9 H -0.576 0.419 0.793
H10 H -0.107 0.302 0.897
H11 H -0.294 0.382 0.916
H12 H -0.253 0.100 0.888
H13 H -0.662 0.143 0.794
H14 H -0.752 0.260 0.825
H15 H -0.751 -0.042 0.830
H16 H -0.880 0.073 0.856
H17 H -0.513 -0.036 0.872
H18 H -0.603 0.387 0.884
H19 H -0.778 0.271 0.888
H20 H -0.626 0.291 0.925
H21 H -0.451 0.593 0.865
H22 H -0.288 0.634 0.898
H23 H -0.292 0.724 0.854
H24 H -0.681 -0.128 0.916
H25 H -0.981 -0.056 0.902
H26 H -0.948 -0.017 0.949
H27 H -0.922 0.111 0.915
H28 H -0.675 0.139 0.957
H29 H -0.664 -0.026 0.975
H30 H -0.220 0.107 0.996
H31 H -0.442 -0.140 1.015
H32 H -0.102 -0.213 1.026
H33 H -0.075 -0.038 1.032
H34 H -0.231 -0.126 1.060
H35 H -0.221 0.118 0.826
H36 H -0.379 -0.007 0.837
H37 H -0.391 0.079 0.793
H38 H -0.049 0.881 0.789
H39 H -0.254 0.802 0.781
H40 H -0.171 0.814 0.827
H41 H 0.123 0.553 0.757
H42 H -0.081 0.606 0.739
H43 H 0.086 0.728 0.748
H44 H -0.589 0.072 1.028
H45 H -0.401 0.136 1.050
H46 H -0.493 0.227 1.012
loop_
_geom_bond_atom_site_label_1
_geom_bond_atom_site_label_2
_geom_bond_site_symmetry_1
_geom_bond_site_symmetry_2
O1 C3 1_555 1_555
O2 C12 1_555 1_555
O3 C23 1_555 1_555
O4 C26 1_555 1_555
C1 C2 1_555 1_555
C2 C3 1_555 1_555
C3 C4 1_555 1_555
C4 C5 1_555 1_555
C5 C6 1_555 1_555
C6 C7 1_555 1_555
C7 C8 1_555 1_555
C8 C9 1_555 1_555
C9 C10 1_555 1_555
C10 C1 1_555 1_555
C11 C9 1_555 1_555
C12 C11 1_555 1_555
C13 C12 1_555 1_555
C14 C8 1_555 1_555
C15 C14 1_555 1_555
C16 C15 1_555 1_555
C17 C13 1_555 1_555
C18 C13 1_555 1_555
C19 C10 1_555 1_555
C20 C17 1_555 1_555
C21 C20 1_555 1_555
C22 C20 1_555 1_555
C23 O2 1_555 1_555
C24 C23 1_555 1_555
C25 C24 1_555 1_555
C26 O3 1_555 1_555
C27 C25 1_555 1_555
C28 C14 1_555 1_555
C29 C4 1_555 1_555
C30 C4 1_555 1_555
C31 C24 1_555 1_555
H1 C1 1_555 1_555
H2 C1 1_555 1_555
H3 C2 1_555 1_555
H4 C2 1_555 1_555
H5 C5 1_555 1_555
H6 C6 1_555 1_555
H7 C6 1_555 1_555
H8 C7 1_555 1_555
H9 C7 1_555 1_555
H10 C11 1_555 1_555
H11 C11 1_555 1_555
H12 C12 1_555 1_555
H13 C15 1_555 1_555
H14 C15 1_555 1_555
H15 C16 1_555 1_555
H16 C16 1_555 1_555
H17 C17 1_555 1_555
H18 C18 1_555 1_555
H19 C18 1_555 1_555
H20 C18 1_555 1_555
H21 C19 1_555 1_555
H22 C19 1_555 1_555
H23 C19 1_555 1_555
H24 C20 1_555 1_555
H25 C21 1_555 1_555
H26 C21 1_555 1_555
H27 C21 1_555 1_555
H28 C22 1_555 1_555
H29 C22 1_555 1_555
H30 C24 1_555 1_555
H31 C25 1_555 1_555
H32 C27 1_555 1_555
H33 C27 1_555 1_555
H34 C27 1_555 1_555
H35 C28 1_555 1_555
H36 C28 1_555 1_555
H37 C28 1_555 1_555
H38 C29 1_555 1_555
H39 C29 1_555 1_555
H40 C29 1_555 1_555
H41 C30 1_555 1_555
H42 C30 1_555 1_555
H43 C30 1_555 1_555
H44 C31 1_555 1_555
H45 C31 1_555 1_555
H46 C31 1_555 1_555
C5 C10 1_555 1_555
C13 C14 1_555 1_555
C16 C17 1_555 1_555
C22 C23 1_555 1_555
C25 C26 1_555 1_555

#END
