
#######################################################################
#
#                 Cambridge Crystallographic Data Centre
#                                CCDC 
#
#######################################################################
#
# If this CIF has been generated from an entry in the Cambridge 
# Structural Database, then it will include bibliographic, chemical, 
# crystal, experimental, refinement or atomic coordinate data resulting 
# from the CCDC's data processing and validation procedures.
#
#######################################################################

data_ERALEO
_chemical_compound_source        'roots of Parepigynum funingense'
_chemical_formula_moiety         'C44 H66 O19,2(C1 H4 O1),0.8(C2 H6 O1)'
_chemical_name_systematic        'Funingenoside A methanol ethanol solvate'
_symmetry_cell_setting           orthorhombic
_symmetry_space_group_name_H-M   'P 21 21 21'
_symmetry_Int_Tables_number      19
_space_group_name_Hall           'P 2ac 2ab'
loop_
_symmetry_equiv_pos_site_id
_symmetry_equiv_pos_as_xyz
1 x,y,z
2 1/2-x,-y,1/2+z
3 1/2+x,1/2-y,-z
4 -x,1/2+y,1/2-z
_cell_length_a                   8.584(1)
_cell_length_b                   12.426(1)
_cell_length_c                   49.504(2)
_cell_angle_alpha                90
_cell_angle_beta                 90
_cell_angle_gamma                90
_cell_volume                     5280.33
_exptl_crystal_colour            colorless
_exptl_crystal_description       needles
_cell_formula_units_Z            4
_exptl_crystal_recrystallization_method methanol
loop_
_atom_site_label
_atom_site_type_symbol
_atom_site_fract_x
_atom_site_fract_y
_atom_site_fract_z
O1 O 0.3739(9) 0.4841(6) 0.8168(1)
O2 O 0.6406(9) 0.3722(6) 0.8062(1)
O3 O 1.0372(9) 0.3228(6) 0.7232(2)
O4 O 1.2285(11) 0.3179(9) 0.6172(2)
O5 O 1.1837(12) 0.1520(9) 0.6298(2)
O6 O 0.5190(17) 0.2202(7) 0.8134(2)
C1 C 0.6584(14) 0.6174(8) 0.7681(2)
C2 C 0.5727(13) 0.5992(8) 0.7958(2)
C3 C 0.4574(13) 0.5101(8) 0.7929(2)
C4 C 0.5373(13) 0.4035(8) 0.7842(2)
C5 C 0.6266(12) 0.4231(8) 0.7578(2)
C6 C 0.6989(16) 0.3183(8) 0.7458(2)
C7 C 0.7230(18) 0.3363(10) 0.7155(2)
C8 C 0.8284(13) 0.4348(8) 0.7094(2)
C9 C 0.7839(12) 0.5381(7) 0.7261(2)
C10 C 0.7407(11) 0.5155(7) 0.7571(1)
C11 C 0.8976(17) 0.6297(9) 0.7215(2)
C12 C 1.0739(16) 0.5957(10) 0.7186(2)
C13 C 1.1114(14) 0.4888(9) 0.7036(2)
C14 C 0.9973(11) 0.4059(8) 0.7136(2)
C15 C 0.8030(13) 0.4567(10) 0.6785(2)
C16 C 0.9215(16) 0.5296(10) 0.6653(2)
C17 C 1.0914(14) 0.5018(9) 0.6723(2)
C18 C 0.8921(13) 0.4961(10) 0.7737(2)
C19 C 1.2798(15) 0.4579(14) 0.7099(2)
C20 C 1.1377(13) 0.4033(10) 0.6555(3)
C21 C 1.1183(16) 0.2989(10) 0.6587(3)
C22 C 1.1792(14) 0.2463(12) 0.6341(3)
C23 C 1.2078(20) 0.4225(13) 0.6275(3)
C24 C 0.6117(19) 0.2798(10) 0.8204(2)
C25 C 0.702(3) 0.2846(12) 0.8449(3)
O7 O 0.2851(8) 0.6480(5) 0.8344(1)
O8 O 0.2975(9) 0.4044(6) 0.8725(1)
O9 O 0.2659(7) 0.5809(5) 0.9064(1)
C26 C 0.2435(13) 0.5507(9) 0.8218(2)
C27 C 0.1233(13) 0.4852(9) 0.8382(2)
C28 C 0.1704(13) 0.4716(8) 0.8684(2)
C29 C 0.2148(11) 0.5868(8) 0.8787(2)
C30 C 0.3451(12) 0.6366(7) 0.8616(2)
C31 C 0.3826(16) 0.7465(9) 0.8707(2)
C32 C 0.2667(20) 0.2963(9) 0.8657(3)
O10 O 0.1104(7) 0.6962(4) 0.9299(1)
O11 O 0.2153(9) 0.4204(5) 0.9462(1)
O12 O 0.0838(9) 0.4944(5) 0.9958(1)
O13 O -0.1559(8) 0.6605(6) 0.9870(1)
O14 O 0.0366(8) 0.8814(5) 0.9648(1)
C33 C 0.1392(11) 0.5865(7) 0.9247(2)
C34 C 0.1850(12) 0.5300(7) 0.9509(2)
C35 C 0.0475(12) 0.5373(7) 0.9701(2)
C36 C -0.0077(11) 0.6560(7) 0.9734(2)
C37 C -0.0300(12) 0.7062(7) 0.9458(2)
C38 C -0.0739(12) 0.8272(7) 0.9478(2)
O15 O -0.0180(8) 1.0510(5) 0.9506(1)
O16 O 0.0725(8) 0.9571(5) 1.0188(1)
O17 O 0.1081(9) 1.1855(5) 1.0234(1)
O18 O -0.0772(9) 1.3071(5) 0.9870(1)
O19 O 0.0472(15) 1.2441(9) 0.9213(2)
C39 C -0.0246(11) 0.9799(7) 0.9732(2)
C40 C 0.0756(11) 1.0240(7) 0.9956(2)
C41 C 0.0075(12) 1.1328(7) 1.0041(2)
C42 C -0.0043(12) 1.2087(7) 0.9798(2)
C43 C -0.0941(12) 1.1529(8) 0.9567(2)
C44 C -0.0952(15) 1.2185(8) 0.9302(2)
H1 H 0.745 0.680 0.771
H2 H 0.573 0.644 0.753
H3 H 0.514 0.672 0.802
H4 H 0.658 0.578 0.811
H5 H 0.375 0.532 0.777
H6 H 0.449 0.343 0.781
H7 H 0.538 0.445 0.743
H8 H 0.619 0.251 0.749
H9 H 0.808 0.301 0.756
H10 H 0.611 0.351 0.706
H11 H 0.776 0.266 0.707
H12 H 0.676 0.565 0.717
H13 H 0.864 0.670 0.703
H14 H 0.888 0.686 0.738
H15 H 1.120 0.588 0.739
H16 H 1.133 0.660 0.708
H17 H 0.689 0.493 0.676
H18 H 0.805 0.380 0.668
H19 H 0.909 0.523 0.644
H20 H 0.899 0.612 0.671
H21 H 1.164 0.568 0.666
H22 H 0.971 0.439 0.764
H23 H 0.869 0.466 0.794
H24 H 0.946 0.573 0.775
H25 H 1.292 0.449 0.731
H26 H 1.355 0.523 0.703
H27 H 1.300 0.384 0.699
H28 H 1.069 0.259 0.676
H29 H 1.322 0.463 0.629
H30 H 1.134 0.470 0.615
H31 H 0.816 0.249 0.841
H32 H 0.644 0.238 0.861
H33 H 0.711 0.368 0.850
H34 H 0.188 0.570 0.803
H35 H 0.013 0.527 0.837
H36 H 0.113 0.407 0.829
H37 H 0.070 0.444 0.879
H38 H 0.113 0.637 0.877
H39 H 0.447 0.586 0.862
H40 H 0.278 0.795 0.871
H41 H 0.467 0.783 0.858
H42 H 0.430 0.737 0.891
H43 H 0.359 0.245 0.873
H44 H 0.255 0.287 0.844
H45 H 0.158 0.277 0.876
H46 H 0.283 0.410 0.932
H47 H 0.026 0.427 0.998
H48 H -0.122 0.649 1.006
H49 H 0.038 0.548 0.916
H50 H 0.284 0.570 0.960
H51 H -0.049 0.493 0.961
H52 H 0.080 0.701 0.984
H53 H -0.124 0.664 0.936
H54 H -0.190 0.835 0.956
H55 H -0.071 0.862 0.928
H56 H 0.163 0.900 1.016
H57 H 0.095 1.162 1.039
H58 H -0.162 1.310 0.998
H59 H -0.144 0.971 0.980
H60 H 0.193 1.035 0.988
H61 H -0.107 1.121 1.013
H62 H 0.113 1.225 0.973
H63 H -0.213 1.139 0.963
H64 H -0.158 1.293 0.934
H65 H -0.153 1.174 0.915
O20 O -0.1252(11) 0.6850(12) 0.0413(2)
C45 C -0.0089(18) 0.7315(14) 0.0533(1)
H66 H -0.245 0.698 0.048
H67 H -0.040 0.777 0.071
H68 H 0.055 0.787 0.040
H69 H 0.068 0.671 0.059
O21 O 0.5340(1) 0.3968(8) 0.9223(2)
C46 C 0.6272(17) 0.4757(11) 0.9125(2)
H70 H 0.435 0.397 0.919
H71 H 0.581 0.508 0.894
H72 H 0.744 0.444 0.909
H73 H 0.635 0.537 0.928
O22 O 0.9222(10) 0.3936(9) 0.0582(2)
C47 C 0.8012(9) 0.4810(10) 0.0973(2)
C48 C 0.9462(9) 0.4210(9) 0.0866(2)
H74 H 0.841 0.352 0.058
H75 H 0.778 0.552 0.085
H76 H 0.816 0.503 0.118
H77 H 0.708 0.423 0.095
H78 H 0.964 0.348 0.098
H79 H 1.047 0.472 0.089
loop_
_geom_bond_atom_site_label_1
_geom_bond_atom_site_label_2
_geom_bond_site_symmetry_1
_geom_bond_site_symmetry_2
O1 C3 1_555 1_555
O2 C4 1_555 1_555
O3 C14 1_555 1_555
O4 C22 1_555 1_555
O5 C22 1_555 1_555
O6 C24 1_555 1_555
C1 C2 1_555 1_555
C2 C3 1_555 1_555
C3 C4 1_555 1_555
C4 C5 1_555 1_555
C5 C6 1_555 1_555
C6 C7 1_555 1_555
C7 C8 1_555 1_555
C8 C9 1_555 1_555
C9 C10 1_555 1_555
C10 C1 1_555 1_555
C11 C9 1_555 1_555
C12 C11 1_555 1_555
C13 C12 1_555 1_555
C14 C8 1_555 1_555
C15 C8 1_555 1_555
C16 C15 1_555 1_555
C17 C13 1_555 1_555
C18 C10 1_555 1_555
C19 C13 1_555 1_555
C20 C17 1_555 1_555
C21 C20 1_555 1_555
C22 C21 1_555 1_555
C23 O4 1_555 1_555
C24 O2 1_555 1_555
C25 C24 1_555 1_555
O7 C26 1_555 1_555
O8 C28 1_555 1_555
O9 C29 1_555 1_555
C26 O1 1_555 1_555
C27 C26 1_555 1_555
C28 C27 1_555 1_555
C29 C28 1_555 1_555
C30 O7 1_555 1_555
C31 C30 1_555 1_555
C32 O8 1_555 1_555
O10 C33 1_555 1_555
O11 C34 1_555 1_555
O12 C35 1_555 1_555
O13 C36 1_555 1_555
O14 C38 1_555 1_555
C33 O9 1_555 1_555
C34 C33 1_555 1_555
C35 C34 1_555 1_555
C36 C35 1_555 1_555
C37 O10 1_555 1_555
C38 C37 1_555 1_555
O15 C39 1_555 1_555
O16 C40 1_555 1_555
O17 C41 1_555 1_555
O18 C42 1_555 1_555
O19 C44 1_555 1_555
C39 O14 1_555 1_555
C40 C39 1_555 1_555
C41 C40 1_555 1_555
C42 C41 1_555 1_555
C43 O15 1_555 1_555
C44 C43 1_555 1_555
H1 C1 1_555 1_555
H2 C1 1_555 1_555
H3 C2 1_555 1_555
H4 C2 1_555 1_555
H5 C3 1_555 1_555
H6 C4 1_555 1_555
H7 C5 1_555 1_555
H8 C6 1_555 1_555
H9 C6 1_555 1_555
H10 C7 1_555 1_555
H11 C7 1_555 1_555
H12 C9 1_555 1_555
H13 C11 1_555 1_555
H14 C11 1_555 1_555
H15 C12 1_555 1_555
H16 C12 1_555 1_555
H17 C15 1_555 1_555
H18 C15 1_555 1_555
H19 C16 1_555 1_555
H20 C16 1_555 1_555
H21 C17 1_555 1_555
H22 C18 1_555 1_555
H23 C18 1_555 1_555
H24 C18 1_555 1_555
H25 C19 1_555 1_555
H26 C19 1_555 1_555
H27 C19 1_555 1_555
H28 C21 1_555 1_555
H29 C23 1_555 1_555
H30 C23 1_555 1_555
H31 C25 1_555 1_555
H32 C25 1_555 1_555
H33 C25 1_555 1_555
H34 C26 1_555 1_555
H35 C27 1_555 1_555
H36 C27 1_555 1_555
H37 C28 1_555 1_555
H38 C29 1_555 1_555
H39 C30 1_555 1_555
H40 C31 1_555 1_555
H41 C31 1_555 1_555
H42 C31 1_555 1_555
H43 C32 1_555 1_555
H44 C32 1_555 1_555
H45 C32 1_555 1_555
H46 O11 1_555 1_555
H47 O12 1_555 1_555
H48 O13 1_555 1_555
H49 C33 1_555 1_555
H50 C34 1_555 1_555
H51 C35 1_555 1_555
H52 C36 1_555 1_555
H53 C37 1_555 1_555
H54 C38 1_555 1_555
H55 C38 1_555 1_555
H56 O16 1_555 1_555
H57 O17 1_555 1_555
H58 O18 1_555 1_555
H59 C39 1_555 1_555
H60 C40 1_555 1_555
H61 C41 1_555 1_555
H62 C42 1_555 1_555
H63 C43 1_555 1_555
H64 C44 1_555 1_555
H65 C44 1_555 1_555
O20 C45 1_555 1_555
C45 H67 1_555 1_555
H66 O20 1_555 1_555
H68 C45 1_555 1_555
H69 C45 1_555 1_555
O21 C46 1_555 1_555
C46 H71 1_555 1_555
H70 O21 1_555 1_555
H72 C46 1_555 1_555
H73 C46 1_555 1_555
O22 C48 1_555 1_555
C47 C48 1_555 1_555
C48 H78 1_555 1_555
H74 O22 1_555 1_555
H75 C47 1_555 1_555
H76 C47 1_555 1_555
H77 C47 1_555 1_555
H79 C48 1_555 1_555
C5 C10 1_555 1_555
C13 C14 1_555 1_555
C16 C17 1_555 1_555
C20 C23 1_555 1_555
C29 C30 1_555 1_555
C36 C37 1_555 1_555
C42 C43 1_555 1_555

#END
