
#######################################################################
#
#                 Cambridge Crystallographic Data Centre
#                                CCDC 
#
#######################################################################
#
# If this CIF has been generated from an entry in the Cambridge 
# Structural Database, then it will include bibliographic, chemical, 
# crystal, experimental, refinement or atomic coordinate data resulting 
# from the CCDC's data processing and validation procedures.
#
#######################################################################

data_ERANEQ
_chemical_formula_moiety         'C25 H23 N3 O2'
_chemical_name_systematic        
2,3-bis(2',N-Dimethyl-3'-indolyl)-N-methylmaleimide
_symmetry_cell_setting           triclinic
_symmetry_space_group_name_H-M   'P -1'
_symmetry_Int_Tables_number      2
_space_group_name_Hall           '-P 1'
loop_
_symmetry_equiv_pos_site_id
_symmetry_equiv_pos_as_xyz
1 x,y,z
2 -x,-y,-z
_cell_length_a                   8.344(3)
_cell_length_b                   10.043(3)
_cell_length_c                   12.731(4)
_cell_angle_alpha                82.65(3)
_cell_angle_beta                 88.36(3)
_cell_angle_gamma                74.72(2)
_cell_volume                     1020.66
_exptl_crystal_colour            red
_exptl_crystal_description       prism
_cell_formula_units_Z            2
_exptl_crystal_preparation       luminescent
loop_
_atom_site_label
_atom_site_type_symbol
_atom_site_fract_x
_atom_site_fract_y
_atom_site_fract_z
C1 C 0.7165(5) -0.0242(4) 0.4515(3)
C2 C 0.7528(6) 0.0751(4) 0.5055(3)
H1 H 0.7988 0.0518 0.5732
C3 C 0.7190(6) 0.2085(5) 0.4564(4)
H2 H 0.7427 0.2774 0.4908
C4 C 0.6494(6) 0.2423(4) 0.3550(4)
H3 H 0.6295 0.3336 0.3226
C5 C 0.6095(5) 0.1456(4) 0.3019(3)
H4 H 0.5616 0.1705 0.2348
C6 C 0.6424(4) 0.0074(4) 0.3510(3)
C7 C 0.6266(4) -0.1203(3) 0.3196(3)
C8 C 0.6902(4) -0.2231(4) 0.4020(3)
C9 C 0.7001(6) -0.3733(4) 0.4129(3)
H5 H 0.7522 -0.4174 0.4792
H6 H 0.7645 -0.4141 0.3558
H7 H 0.5902 -0.3859 0.4107
C10 C 0.8153(6) -0.2391(5) 0.5819(3)
H8 H 0.8208 -0.3361 0.5845
H9 H 0.7477 -0.2016 0.6389
H10 H 0.9252 -0.2279 0.5885
C11 C 1.0540(4) -0.4650(4) 0.1780(3)
C12 C 1.2215(5) -0.4957(4) 0.2056(3)
H11 H 1.2946 -0.5809 0.1964
C13 C 1.2725(5) -0.3966(5) 0.2460(4)
H12 H 1.3836 -0.4148 0.2654
C14 C 1.1664(5) -0.2677(5) 0.2600(3)
H13 H 1.2071 -0.2031 0.2897
C15 C 1.0008(5) -0.2347(4) 0.2303(3)
H14 H 0.9308 -0.1472 0.2368
C16 C 0.9419(4) -0.3349(3) 0.1907(2)
C17 C 0.7837(4) -0.3421(3) 0.1543(2)
C18 C 0.8049(4) -0.4723(3) 0.1231(2)
C19 C 0.6841(5) -0.5406(4) 0.0862(3)
H15 H 0.7413 -0.6321 0.0706
H16 H 0.629 -0.4867 0.0235
H17 H 0.6035 -0.5475 0.1406
C20 C 1.0363(5) -0.6882(4) 0.1160(3)
H18 H 1.1531 -0.717 0.132
H19 H 1.0196 -0.6941 0.0427
H20 H 0.9809 -0.7478 0.1593
C21 C 0.5658(4) -0.1391(3) 0.2186(3)
C22 C 0.4027(4) -0.0493(3) 0.1738(3)
C23 C 0.5134(4) -0.1999(3) 0.0567(3)
C24 C 0.6279(4) -0.2329(3) 0.1509(3)
C25 C 0.2315(5) -0.0388(4) 0.0129(3)
H21 H 0.2457 -0.084 -0.0501
H22 H 0.2123 0.0597 -0.0064
H23 H 0.1381 -0.0576 0.0519
N1 N 0.7424(4) -0.1652(3) 0.4809(2)
N2 N 0.3808(3) -0.0911(3) 0.0782(2)
N3 N 0.9687(4) -0.5453(3) 0.1376(2)
O1 O 0.5304(3) -0.2513(3) -0.02425(19)
O2 O 0.3039(3) 0.0403(3) 0.2142(2)
loop_
_geom_bond_atom_site_label_1
_geom_bond_atom_site_label_2
_geom_bond_site_symmetry_1
_geom_bond_site_symmetry_2
C1 C2 1_555 1_555
C2 H1 1_555 1_555
C3 C2 1_555 1_555
H2 C3 1_555 1_555
C4 C3 1_555 1_555
H3 C4 1_555 1_555
C5 C4 1_555 1_555
H4 C5 1_555 1_555
C6 C1 1_555 1_555
C7 C6 1_555 1_555
C8 C7 1_555 1_555
C9 C8 1_555 1_555
H5 C9 1_555 1_555
H6 C9 1_555 1_555
H7 C9 1_555 1_555
C10 H8 1_555 1_555
H9 C10 1_555 1_555
H10 C10 1_555 1_555
C11 C12 1_555 1_555
C12 H11 1_555 1_555
C13 C12 1_555 1_555
H12 C13 1_555 1_555
C14 C13 1_555 1_555
H13 C14 1_555 1_555
C15 C14 1_555 1_555
H14 C15 1_555 1_555
C16 C11 1_555 1_555
C17 C16 1_555 1_555
C18 C17 1_555 1_555
C19 C18 1_555 1_555
H15 C19 1_555 1_555
H16 C19 1_555 1_555
H17 C19 1_555 1_555
C20 H18 1_555 1_555
H19 C20 1_555 1_555
H20 C20 1_555 1_555
C21 C7 1_555 1_555
C22 C21 1_555 1_555
C23 C24 1_555 1_555
C24 C17 1_555 1_555
C25 H21 1_555 1_555
H22 C25 1_555 1_555
H23 C25 1_555 1_555
N1 C1 1_555 1_555
N2 C22 1_555 1_555
N3 C11 1_555 1_555
O1 C23 1_555 1_555
O2 C22 1_555 1_555
C5 C6 1_555 1_555
C8 N1 1_555 1_555
C10 N1 1_555 1_555
C15 C16 1_555 1_555
C18 N3 1_555 1_555
C20 N3 1_555 1_555
C21 C24 1_555 1_555
C23 N2 1_555 1_555
C25 N2 1_555 1_555

#END
