
#######################################################################
#
#                 Cambridge Crystallographic Data Centre
#                                CCDC 
#
#######################################################################
#
# If this CIF has been generated from an entry in the Cambridge 
# Structural Database, then it will include bibliographic, chemical, 
# crystal, experimental, refinement or atomic coordinate data resulting 
# from the CCDC's data processing and validation procedures.
#
#######################################################################

data_ERANIU
_chemical_formula_moiety         'C28 H29 N3 O2'
_chemical_name_systematic        
2,3-bis(N-Ethyl-2'-methyl-3'-indolyl)-N-ethylmaleimide
_symmetry_cell_setting           monoclinic
_symmetry_space_group_name_H-M   'P 21/n'
_symmetry_Int_Tables_number      14
_space_group_name_Hall           '-P 2yn'
loop_
_symmetry_equiv_pos_site_id
_symmetry_equiv_pos_as_xyz
1 x,y,z
2 1/2-x,1/2+y,1/2-z
3 -x,-y,-z
4 1/2+x,1/2-y,1/2+z
_cell_length_a                   11.958(3)
_cell_length_b                   15.402(2)
_cell_length_c                   13.430(3)
_cell_angle_alpha                90
_cell_angle_beta                 92.249(15)
_cell_angle_gamma                90
_cell_volume                     2471.59
_cell_formula_units_Z            4
_exptl_crystal_preparation       luminescent
loop_
_atom_site_label
_atom_site_type_symbol
_atom_site_fract_x
_atom_site_fract_y
_atom_site_fract_z
C1 C 0.9447(3) 0.9213(2) 0.8354(2)
C2 C 1.0086(3) 0.8505(3) 0.8102(2)
C3 C 0.9537(4) 0.7776(3) 0.7794(3)
C4 C 0.8373(4) 0.7733(2) 0.7737(2)
C5 C 0.7724(3) 0.8438(2) 0.7992(2)
C6 C 0.8270(2) 0.9201(2) 0.8304(2)
C7 C 0.7908(2) 1.0043(2) 0.8612(2)
C8 C 0.8859(2) 1.0529(2) 0.8821(2)
C9 C 0.6763(2) 1.0359(2) 0.8655(2)
C10 C 0.6358(2) 1.0836(2) 0.9544(2)
C11 C 0.4887(2) 1.0679(2) 0.8438(2)
C12 C 0.5876(2) 1.0239(2) 0.8011(2)
C13 C 0.5775(2) 0.9799(2) 0.7055(2)
C14 C 0.4908(2) 0.9199(2) 0.6736(2)
C15 C 0.3971(2) 0.8845(2) 0.7177(2)
C16 C 0.3324(3) 0.8250(2) 0.6653(3)
C17 C 0.3587(3) 0.8000(3) 0.5696(3)
C18 C 0.4491(3) 0.8323(2) 0.5243(3)
C19 C 0.5159(3) 0.8925(2) 0.5778(2)
C20 C 0.6511(2) 0.9864(2) 0.6288(2)
C21 C 0.8965(3) 1.1461(2) 0.9089(2)
C22 C 0.7544(2) 1.0395(2) 0.6217(2)
C23 C 1.0941(2) 1.0343(3) 0.8671(3)
C24 C 1.1239(3) 1.0656(4) 0.7653(3)
C25 C 0.4506(2) 1.1467(2) 1.0035(2)
C26 C 0.4559(3) 1.2425(2) 0.9935(4)
C27 C 0.6670(3) 0.9211(2) 0.4564(2)
C28 C 0.7452(4) 0.8443(3) 0.4608(3)
N1 N 0.9784(2) 1.0028(2) 0.8680(2)
N2 N 0.5232(2) 1.1007(2) 0.9362(2)
N3 N 0.6131(2) 0.9345(2) 0.5509(2)
O1 O 0.6870(2) 1.1019(1) 1.0311(2)
O2 O 0.3960(2) 1.0770(2) 0.8065(2)
loop_
_geom_bond_atom_site_label_1
_geom_bond_atom_site_label_2
_geom_bond_site_symmetry_1
_geom_bond_site_symmetry_2
C1 C2 1_555 1_555
C2 C3 1_555 1_555
C3 C4 1_555 1_555
C4 C5 1_555 1_555
C5 C6 1_555 1_555
C6 C1 1_555 1_555
C7 C6 1_555 1_555
C8 C7 1_555 1_555
C9 C7 1_555 1_555
C10 C9 1_555 1_555
C11 C12 1_555 1_555
C12 C9 1_555 1_555
C13 C12 1_555 1_555
C14 C13 1_555 1_555
C15 C14 1_555 1_555
C16 C15 1_555 1_555
C17 C16 1_555 1_555
C18 C17 1_555 1_555
C19 C14 1_555 1_555
C20 C13 1_555 1_555
C21 C8 1_555 1_555
C22 C20 1_555 1_555
C23 C24 1_555 1_555
C25 C26 1_555 1_555
C27 C28 1_555 1_555
N1 C1 1_555 1_555
N2 C10 1_555 1_555
N3 C19 1_555 1_555
O1 C10 1_555 1_555
O2 C11 1_555 1_555
C8 N1 1_555 1_555
C11 N2 1_555 1_555
C18 C19 1_555 1_555
C20 N3 1_555 1_555
C23 N1 1_555 1_555
C25 N2 1_555 1_555
C27 N3 1_555 1_555

#END
