
#######################################################################
#
#                 Cambridge Crystallographic Data Centre
#                                CCDC 
#
#######################################################################
#
# If this CIF has been generated from an entry in the Cambridge 
# Structural Database, then it will include bibliographic, chemical, 
# crystal, experimental, refinement or atomic coordinate data resulting 
# from the CCDC's data processing and validation procedures.
#
#######################################################################

data_ERAPIY
_chemical_formula_moiety         'C28 H26'
_chemical_name_systematic        
2-methyl-10-(4-methylphenyl)-5-phenyl-6,7,8,9-tetrahydrobenzo[a]azulene
_symmetry_cell_setting           orthorhombic
_symmetry_space_group_name_H-M   'P c a 21'
_symmetry_Int_Tables_number      29
_space_group_name_Hall           'P 2c -2ac'
loop_
_symmetry_equiv_pos_site_id
_symmetry_equiv_pos_as_xyz
1 x,y,z
2 -x,-y,1/2+z
3 1/2+x,-y,z
4 1/2-x,y,1/2+z
_cell_length_a                   20.325(4)
_cell_length_b                   11.622(2)
_cell_length_c                   8.5200(17)
_cell_angle_alpha                90
_cell_angle_beta                 90
_cell_angle_gamma                90
_cell_volume                     2012.57
_exptl_crystal_colour            yellow
_exptl_crystal_description       block
_cell_formula_units_Z            4
loop_
_atom_site_label
_atom_site_type_symbol
_atom_site_fract_x
_atom_site_fract_y
_atom_site_fract_z
C1 C -0.36142(11) -0.1267(2) -0.2443(3)
C2 C -0.47896(11) 0.1233(2) -0.2312(3)
C3 C -0.30583(11) 0.1124(2) -0.1129(3)
H1 H -0.2740 0.0526 -0.1097
C4 C -0.41681(11) 0.1772(2) -0.1763(3)
C5 C -0.39879(11) -0.0190(2) -0.2234(3)
C6 C -0.30285(12) -0.1281(2) -0.3320(4)
H2 H -0.2862 -0.0582 -0.3738
C7 C -0.40088(11) 0.2865(2) -0.1213(3)
H3 H -0.4329 0.3461 -0.1222
C8 C -0.46348(11) 0.0004(2) -0.2567(3)
C9 C -0.53986(11) 0.1717(2) -0.2474(3)
C10 C -0.26906(12) -0.2294(2) -0.3583(4)
H4 H -0.2301 -0.2280 -0.4198
C11 C -0.51032(11) -0.0828(2) -0.3307(3)
H5 H -0.4864 -0.1552 -0.3529
H6 H -0.5250 -0.0507 -0.4325
C12 C -0.28916(12) 0.2220(2) -0.0608(3)
C13 C -0.33779(12) 0.3079(2) -0.0651(4)
H7 H -0.3273 0.3829 -0.0285
C14 C -0.38342(13) -0.2315(2) -0.1828(4)
H8 H -0.4229 -0.2336 -0.1233
C15 C -0.34832(14) -0.3325(2) -0.2076(3)
H9 H -0.3638 -0.4023 -0.1627
C16 C -0.29090(13) -0.3334(3) -0.2968(4)
C17 C -0.52186(13) 0.3737(2) -0.3435(4)
H10 H -0.4950 0.3441 -0.4254
C18 C -0.36890(11) 0.0895(2) -0.1699(3)
C19 C -0.54985(11) 0.2982(2) -0.2348(3)
C20 C -0.57122(12) -0.1115(2) -0.2326(4)
H11 H -0.6019 -0.1571 -0.2978
H12 H -0.5577 -0.1602 -0.1429
C21 C -0.22061(14) 0.2496(3) -0.0045(4)
H13 H -0.1976 0.2948 -0.0847
H14 H -0.1965 0.1779 0.0146
H15 H -0.2231 0.2940 0.0930
C22 C -0.58886(12) 0.3442(2) -0.1159(4)
H16 H -0.6091 0.2943 -0.0418
C23 C -0.57087(14) 0.5356(3) -0.2126(4)
H17 H -0.5778 0.6163 -0.2048
C24 C -0.60241(11) 0.1019(2) -0.2689(4)
H18 H -0.6061 0.0802 -0.3809
H19 H -0.6405 0.1518 -0.2437
C25 C -0.59843(14) 0.4622(3) -0.1047(4)
H20 H -0.6243 0.4925 -0.0215
C26 C -0.25331(18) -0.4435(3) -0.3271(5)
H21 H -0.2078 -0.4347 -0.2907
H22 H -0.2534 -0.4602 -0.4399
H23 H -0.2743 -0.5071 -0.2704
C27 C -0.53268(14) 0.4907(3) -0.3333(4)
H24 H -0.5139 0.5408 -0.4093
C28 C -0.60738(13) -0.0072(3) -0.1700(4)
H25 H -0.5903 0.0101 -0.0637
H26 H -0.6545 -0.0273 -0.1588
loop_
_geom_bond_atom_site_label_1
_geom_bond_atom_site_label_2
_geom_bond_site_symmetry_1
_geom_bond_site_symmetry_2
C1 C5 1_555 1_555
C2 C4 1_555 1_555
C3 H1 1_555 1_555
C4 C7 1_555 1_555
C5 C8 1_555 1_555
C6 C1 1_555 1_555
H2 C6 1_555 1_555
C7 H3 1_555 1_555
C8 C2 1_555 1_555
C9 C2 1_555 1_555
C10 C6 1_555 1_555
H4 C10 1_555 1_555
C11 C8 1_555 1_555
H5 C11 1_555 1_555
H6 C11 1_555 1_555
C12 C3 1_555 1_555
C13 C7 1_555 1_555
H7 C13 1_555 1_555
C14 C1 1_555 1_555
H8 C14 1_555 1_555
C15 C14 1_555 1_555
H9 C15 1_555 1_555
C16 C10 1_555 1_555
C17 H10 1_555 1_555
C18 C3 1_555 1_555
C19 C9 1_555 1_555
C20 C11 1_555 1_555
H11 C20 1_555 1_555
H12 C20 1_555 1_555
C21 C12 1_555 1_555
H13 C21 1_555 1_555
H14 C21 1_555 1_555
H15 C21 1_555 1_555
C22 C19 1_555 1_555
H16 C22 1_555 1_555
C23 H17 1_555 1_555
C24 C9 1_555 1_555
H18 C24 1_555 1_555
H19 C24 1_555 1_555
C25 C22 1_555 1_555
H20 C25 1_555 1_555
C26 C16 1_555 1_555
H21 C26 1_555 1_555
H22 C26 1_555 1_555
H23 C26 1_555 1_555
C27 C17 1_555 1_555
H24 C27 1_555 1_555
C28 C20 1_555 1_555
H25 C28 1_555 1_555
H26 C28 1_555 1_555
C4 C18 1_555 1_555
C5 C18 1_555 1_555
C12 C13 1_555 1_555
C15 C16 1_555 1_555
C17 C19 1_555 1_555
C23 C25 1_555 1_555
C23 C27 1_555 1_555
C24 C28 1_555 1_555

#END
