
#######################################################################
#
#                 Cambridge Crystallographic Data Centre
#                                CCDC 
#
#######################################################################
#
# If this CIF has been generated from an entry in the Cambridge 
# Structural Database, then it will include bibliographic, chemical, 
# crystal, experimental, refinement or atomic coordinate data resulting 
# from the CCDC's data processing and validation procedures.
#
#######################################################################

data_EREFUD
_chemical_formula_moiety         'C58 H60 Li2 N10 Si2'
_chemical_name_systematic        
bis(\m~2~-[(dimethylamino)(methyl)([phenyl(phenylimino)methyl]amino)silyl]-[phenyl(phenylimino)methyl]aminato)-di-lithium
_symmetry_cell_setting           triclinic
_symmetry_space_group_name_H-M   'P -1'
_symmetry_Int_Tables_number      2
_space_group_name_Hall           '-P 1'
loop_
_symmetry_equiv_pos_site_id
_symmetry_equiv_pos_as_xyz
1 x,y,z
2 -x,-y,-z
_cell_length_a                   10.660(4)
_cell_length_b                   11.667(6)
_cell_length_c                   12.924(7)
_cell_angle_alpha                115.39(4)
_cell_angle_beta                 97.71(3)
_cell_angle_gamma                105.45(4)
_cell_volume                     1341.48
_exptl_crystal_colour            colorless
_exptl_crystal_description       block
_cell_formula_units_Z            1
loop_
_atom_site_label
_atom_site_type_symbol
_atom_site_fract_x
_atom_site_fract_y
_atom_site_fract_z
Li1 Li 0.4070(5) 0.5814(5) 0.4990(4)
N1 N 0.2632(2) 0.4708(2) 0.3311(2)
N2 N 0.1187(2) 0.3272(2) 0.3761(2)
H1 H 0.0355 0.2809 0.3642
N3 N 0.2959(2) 0.5102(2) 0.5985(2)
N4 N 0.6180(2) 0.6830(2) 0.5433(2)
N5 N 0.4695(2) 0.7887(2) 0.6013(2)
Si1 Si 0.24012(7) 0.33931(8) 0.49135(7)
C1 C 0.3049(3) 0.5091(3) 0.2476(2)
C2 C 0.3755(3) 0.6466(3) 0.2876(3)
H2 H 0.3897 0.7108 0.3664
C3 C 0.4241(3) 0.6873(3) 0.2107(3)
H3 H 0.4703 0.7792 0.2379
C4 C 0.4052(3) 0.5942(4) 0.0946(3)
H4 H 0.4381 0.6229 0.0433
C5 C 0.3372(3) 0.4578(4) 0.0541(3)
H5 H 0.3242 0.3945 -0.0247
C6 C 0.2883(3) 0.4147(3) 0.1301(3)
H6 H 0.2442 0.3224 0.1027
C7 C 0.1424(3) 0.3833(3) 0.3041(2)
C8 C 0.0241(3) 0.3404(3) 0.2023(2)
C9 C 0.0048(3) 0.4334(3) 0.1665(3)
H7 H 0.0682 0.5216 0.2040
C10 C -0.1074(3) 0.3947(3) 0.0762(3)
H8 H -0.1193 0.4573 0.0531
C11 C -0.2024(3) 0.2650(4) 0.0194(3)
H9 H -0.2775 0.2393 -0.0424
C12 C -0.1851(3) 0.1729(3) 0.0553(3)
H10 H -0.2498 0.0854 0.0184
C13 C -0.0729(3) 0.2099(3) 0.1452(3)
H11 H -0.0618 0.1468 0.1679
C14 C 0.1403(3) 0.2257(3) 0.5410(3)
H12 H 0.1015 0.1342 0.4757
H13 H 0.0690 0.2558 0.5668
H14 H 0.1989 0.2285 0.6060
C15 C 0.3924(4) 0.5527(4) 0.7119(3)
H15 H 0.4396 0.6494 0.7520
H16 H 0.4567 0.5078 0.6964
H17 H 0.3442 0.5285 0.7615
C16 C 0.1935(3) 0.5734(3) 0.6211(3)
H18 H 0.1308 0.5293 0.6512
H19 H 0.1452 0.5642 0.5480
H20 H 0.2374 0.6682 0.6789
C17 C 0.5967(3) 0.7978(3) 0.6072(2)
C18 C 0.7153(3) 0.9309(3) 0.6742(2)
C19 C 0.8221(3) 0.9519(3) 0.7616(3)
H21 H 0.8173 0.8864 0.7854
C20 C 0.9365(3) 1.0694(4) 0.8144(3)
H22 H 1.0073 1.0832 0.8741
C21 C 0.9457(4) 1.1666(4) 0.7782(4)
H23 H 1.0237 1.2442 0.8116
C22 C 0.8393(4) 1.1476(4) 0.6930(4)
H24 H 0.8447 1.2130 0.6691
C23 C 0.7228(3) 1.0308(3) 0.6417(3)
H25 H 0.6498 1.0199 0.5855
C24 C 0.4291(3) 0.8902(3) 0.6792(3)
C25 C 0.4869(3) 0.9634(3) 0.8030(3)
H26 H 0.5628 0.9526 0.8366
C26 C 0.4330(3) 1.0515(3) 0.8766(3)
H27 H 0.4730 1.0991 0.9588
C27 C 0.3214(4) 1.0694(3) 0.8294(4)
H28 H 0.2860 1.1294 0.8792
C28 C 0.2624(3) 0.9983(3) 0.7084(4)
H29 H 0.1861 1.0096 0.6762
C29 C 0.3154(3) 0.9092(3) 0.6332(3)
H30 H 0.2743 0.8618 0.5512
Li1A Li 0.5930(5) 0.4186(5) 0.5010(4)
N1A N 0.7368(2) 0.5292(2) 0.6689(2)
N2A N 0.8813(2) 0.6728(2) 0.6239(2)
H1A H 0.9645 0.7191 0.6358
N3A N 0.7041(2) 0.4898(2) 0.4015(2)
N4A N 0.3820(2) 0.3170(2) 0.4567(2)
N5A N 0.5305(2) 0.2113(2) 0.3987(2)
Si1A Si 0.75988(7) 0.66069(8) 0.50865(7)
C1A C 0.6951(3) 0.4909(3) 0.7524(2)
C2A C 0.6245(3) 0.3534(3) 0.7124(3)
H2A H 0.6103 0.2892 0.6336
C3A C 0.5759(3) 0.3127(3) 0.7893(3)
H3A H 0.5297 0.2208 0.7621
C4A C 0.5948(3) 0.4058(4) 0.9054(3)
H4A H 0.5619 0.3771 0.9567
C5A C 0.6628(3) 0.5422(4) 0.9459(3)
H5A H 0.6758 0.6055 1.0247
C6A C 0.7117(3) 0.5853(3) 0.8699(3)
H6A H 0.7558 0.6776 0.8973
C7A C 0.8576(3) 0.6167(3) 0.6959(2)
C8A C 0.9759(3) 0.6596(3) 0.7977(2)
C9A C 0.9952(3) 0.5666(3) 0.8335(3)
H7A H 0.9318 0.4784 0.7960
C10A C 1.1074(3) 0.6053(3) 0.9238(3)
H8A H 1.1193 0.5427 0.9469
C11A C 1.2024(3) 0.7350(4) 0.9806(3)
H9A H 1.2775 0.7607 1.0424
C12A C 1.1851(3) 0.8271(3) 0.9447(3)
H10A H 1.2498 0.9146 0.9816
C13A C 1.0729(3) 0.7901(3) 0.8548(3)
H11A H 1.0618 0.8532 0.8321
C14A C 0.8597(3) 0.7743(3) 0.4590(3)
H12A H 0.8985 0.8658 0.5243
H13A H 0.9310 0.7442 0.4332
H14A H 0.8011 0.7715 0.3940
C15A C 0.6076(4) 0.4473(4) 0.2881(3)
H15A H 0.5604 0.3506 0.2480
H16A H 0.5433 0.4922 0.3036
H17A H 0.6558 0.4715 0.2385
C16A C 0.8065(3) 0.4266(3) 0.3789(3)
H18A H 0.8692 0.4707 0.3488
H19A H 0.8548 0.4358 0.4520
H20A H 0.7626 0.3318 0.3211
C17A C 0.4033(3) 0.2022(3) 0.3928(2)
C18A C 0.2847(3) 0.0691(3) 0.3258(2)
C19A C 0.1779(3) 0.0481(3) 0.2384(3)
H21A H 0.1827 0.1136 0.2146
C20A C 0.0635(3) -0.0694(4) 0.1856(3)
H22A H -0.0073 -0.0832 0.1259
C21A C 0.0543(4) -0.1666(4) 0.2218(4)
H23A H -0.0237 -0.2442 0.1884
C22A C 0.1607(4) -0.1476(4) 0.3070(4)
H24A H 0.1553 -0.2130 0.3309
C23A C 0.2772(3) -0.0308(3) 0.3583(3)
H25A H 0.3502 -0.0199 0.4145
C24A C 0.5709(3) 0.1098(3) 0.3208(3)
C25A C 0.5131(3) 0.0366(3) 0.1970(3)
H26A H 0.4372 0.0474 0.1634
C26A C 0.5670(3) -0.0515(3) 0.1234(3)
H27A H 0.5270 -0.0991 0.0412
C27A C 0.6786(4) -0.0694(3) 0.1706(4)
H28A H 0.7140 -0.1294 0.1208
C28A C 0.7376(3) 0.0017(3) 0.2916(4)
H29A H 0.8139 -0.0096 0.3238
C29A C 0.6846(3) 0.0908(3) 0.3668(3)
H30A H 0.7257 0.1382 0.4488
loop_
_geom_bond_atom_site_label_1
_geom_bond_atom_site_label_2
_geom_bond_site_symmetry_1
_geom_bond_site_symmetry_2
Li1 N1 1_555 1_555
N1 C1 1_555 1_555
N2 H1 1_555 1_555
N3 Li1 1_555 1_555
N4 Li1 1_555 1_555
N5 Li1 1_555 1_555
Si1 N2 1_555 1_555
C1 C2 1_555 1_555
C2 H2 1_555 1_555
C3 C2 1_555 1_555
H3 C3 1_555 1_555
C4 C3 1_555 1_555
H4 C4 1_555 1_555
C5 C4 1_555 1_555
H5 C5 1_555 1_555
C6 C1 1_555 1_555
H6 C6 1_555 1_555
C7 N1 1_555 1_555
C8 C7 1_555 1_555
C9 C8 1_555 1_555
H7 C9 1_555 1_555
C10 C9 1_555 1_555
H8 C10 1_555 1_555
C11 C10 1_555 1_555
H9 C11 1_555 1_555
C12 C11 1_555 1_555
H10 C12 1_555 1_555
C13 C8 1_555 1_555
H11 C13 1_555 1_555
C14 Si1 1_555 1_555
H12 C14 1_555 1_555
H13 C14 1_555 1_555
H14 C14 1_555 1_555
C15 N3 1_555 1_555
H15 C15 1_555 1_555
H16 C15 1_555 1_555
H17 C15 1_555 1_555
C16 N3 1_555 1_555
H18 C16 1_555 1_555
H19 C16 1_555 1_555
H20 C16 1_555 1_555
C17 N4 1_555 1_555
C18 C17 1_555 1_555
C19 C18 1_555 1_555
H21 C19 1_555 1_555
C20 C19 1_555 1_555
H22 C20 1_555 1_555
C21 C20 1_555 1_555
H23 C21 1_555 1_555
C22 C21 1_555 1_555
H24 C22 1_555 1_555
C23 C18 1_555 1_555
H25 C23 1_555 1_555
C24 N5 1_555 1_555
C25 C24 1_555 1_555
H26 C25 1_555 1_555
C26 C25 1_555 1_555
H27 C26 1_555 1_555
C27 C26 1_555 1_555
H28 C27 1_555 1_555
C28 C27 1_555 1_555
H29 C28 1_555 1_555
C29 C24 1_555 1_555
H30 C29 1_555 1_555
Li1A N1A 1_555 1_555
N1A C1A 1_555 1_555
N2A H1A 1_555 1_555
N3A Li1A 1_555 1_555
N4A Si1 1_555 1_555
N5A Li1A 1_555 1_555
Si1A N4 1_555 1_555
C1A C2A 1_555 1_555
C2A H2A 1_555 1_555
C3A C2A 1_555 1_555
H3A C3A 1_555 1_555
C4A C3A 1_555 1_555
H4A C4A 1_555 1_555
C5A C4A 1_555 1_555
H5A C5A 1_555 1_555
C6A C1A 1_555 1_555
H6A C6A 1_555 1_555
C7A N1A 1_555 1_555
C8A C7A 1_555 1_555
C9A C8A 1_555 1_555
H7A C9A 1_555 1_555
C10A C9A 1_555 1_555
H8A C10A 1_555 1_555
C11A C10A 1_555 1_555
H9A C11A 1_555 1_555
C12A C11A 1_555 1_555
H10A C12A 1_555 1_555
C13A C8A 1_555 1_555
H11A C13A 1_555 1_555
C14A Si1A 1_555 1_555
H12A C14A 1_555 1_555
H13A C14A 1_555 1_555
H14A C14A 1_555 1_555
C15A N3A 1_555 1_555
H15A C15A 1_555 1_555
H16A C15A 1_555 1_555
H17A C15A 1_555 1_555
C16A N3A 1_555 1_555
H18A C16A 1_555 1_555
H19A C16A 1_555 1_555
H20A C16A 1_555 1_555
C17A N4A 1_555 1_555
C18A C17A 1_555 1_555
C19A C18A 1_555 1_555
H21A C19A 1_555 1_555
C20A C19A 1_555 1_555
H22A C20A 1_555 1_555
C21A C20A 1_555 1_555
H23A C21A 1_555 1_555
C22A C21A 1_555 1_555
H24A C22A 1_555 1_555
C23A C18A 1_555 1_555
H25A C23A 1_555 1_555
C24A N5A 1_555 1_555
C25A C24A 1_555 1_555
H26A C25A 1_555 1_555
C26A C25A 1_555 1_555
H27A C26A 1_555 1_555
C27A C26A 1_555 1_555
H28A C27A 1_555 1_555
C28A C27A 1_555 1_555
H29A C28A 1_555 1_555
C29A C24A 1_555 1_555
H30A C29A 1_555 1_555
N2 C7 1_555 1_555
N3 Si1 1_555 1_555
N5 C17 1_555 1_555
C5 C6 1_555 1_555
C12 C13 1_555 1_555
C22 C23 1_555 1_555
C28 C29 1_555 1_555
Li1A N4A 1_555 1_555
N2A Si1A 1_555 1_555
N2A C7A 1_555 1_555
N3A Si1A 1_555 1_555
N5A C17A 1_555 1_555
C5A C6A 1_555 1_555
C12A C13A 1_555 1_555
C22A C23A 1_555 1_555
C28A C29A 1_555 1_555

#END
