
#######################################################################
#
#                 Cambridge Crystallographic Data Centre
#                                CCDC 
#
#######################################################################
#
# If this CIF has been generated from an entry in the Cambridge 
# Structural Database, then it will include bibliographic, chemical, 
# crystal, experimental, refinement or atomic coordinate data resulting 
# from the CCDC's data processing and validation procedures.
#
#######################################################################

data_EREGUD
_chemical_formula_moiety         
'2(C33 H57 N11 6+),C4 H1 O8 2-,C2 O4 2-,8(Cl1 O4 1-),5(H2 O1)'
_chemical_name_systematic        
'bis(1,15,42,43,44-Pentaaza-4,12,18,26,31,39-hexaazoniapentacyclo[13.13.13.1^6,10^.1^20,24^.1^33,37^]tetratetraconta-6,8,10(44),20,22,24(43),33,35,37(42)-nonaene) (hydrogen dioxalate) oxalate clathrate octaperchlorate pentahydrate'
_symmetry_cell_setting           triclinic
_symmetry_space_group_name_H-M   'P -1'
_symmetry_Int_Tables_number      2
_space_group_name_Hall           '-P 1'
loop_
_symmetry_equiv_pos_site_id
_symmetry_equiv_pos_as_xyz
1 x,y,z
2 -x,-y,-z
_cell_length_a                   11.259(3)
_cell_length_b                   13.592(2)
_cell_length_c                   18.579(5)
_cell_angle_alpha                84.229(5)
_cell_angle_beta                 83.296(4)
_cell_angle_gamma                68.635(6)
_cell_volume                     2624.52
_exptl_crystal_colour            colorless
_exptl_crystal_description       block
_cell_formula_units_Z            1
_exptl_crystal_recrystallization_method methanol/water
loop_
_atom_site_label
_atom_site_type_symbol
_atom_site_fract_x
_atom_site_fract_y
_atom_site_fract_z
O1 O 0.4993(4) 1.0053(3) -0.4339(2)
H1 H 0.5000 1.0000 -0.5000
O2 O 0.5871(4) 0.8280(3) -0.4257(2)
C1 C 0.5454(6) 0.9148(5) -0.4003(3)
C2 C 0.5500(5) 0.9171(5) -0.3152(3)
O3 O 0.5974(4) 0.8304(3) -0.2817(2)
O4 O 0.5089(4) 1.0063(3) -0.2885(2)
O1A O 0.5007(4) 0.9947(3) -0.5661(2)
C1A C 0.4546(6) 1.0852(5) -0.5997(3)
O2A O 0.4129(4) 1.1720(3) -0.5743(2)
C2A C 0.4500(5) 1.0829(5) -0.6848(3)
O3A O 0.4026(4) 1.1696(3) -0.7183(2)
O4A O 0.4911(4) 0.9937(3) -0.7115(2)
O5 O 0.5450(4) 0.5385(4) 0.4119(2)
C3 C 0.5110(6) 0.4833(6) 0.4612(3)
O6 O 0.4952(4) 0.3964(4) 0.4513(2)
C3A C 0.4890(6) 0.5167(6) 0.5388(3)
O5A O 0.4550(4) 0.4615(4) 0.5881(2)
O6A O 0.5048(4) 0.6036(4) 0.5487(2)
N1 N 0.4099(5) 1.2186(4) -0.2132(3)
C4 C 0.2682(6) 1.2539(5) -0.2035(4)
H2 H 0.2331 1.3286 -0.1906
H3 H 0.2429 1.2109 -0.1626
C5 C 0.2102(6) 1.2444(5) -0.2705(4)
H4 H 0.1160 1.2793 -0.2637
H5 H 0.2422 1.2812 -0.3127
N2 N 0.2428(5) 1.1312(4) -0.2856(3)
H6 H 0.3302 1.0971 -0.2880
H7 H 0.2069 1.0984 -0.2483
C6 C 0.1950(6) 1.1233(5) -0.3548(4)
H8 H 0.2433 1.1494 -0.3953
H9 H 0.1039 1.1698 -0.3549
C7 C 0.2070(6) 1.0126(5) -0.3677(3)
C8 C 0.1493(6) 0.9965(5) -0.4260(3)
H10 H 0.1055 1.0543 -0.4578
C9 C 0.1573(6) 0.8957(5) -0.4362(3)
H11 H 0.1178 0.8823 -0.4747
C10 C 0.2236(6) 0.8147(5) -0.3895(3)
H12 H 0.2308 0.7442 -0.3959
C11 C 0.2799(5) 0.8349(5) -0.3333(3)
N3 N 0.2719(5) 0.9339(4) -0.3225(3)
C12 C 0.3476(5) 0.7472(5) -0.2792(3)
H13 H 0.3534 0.7784 -0.2344
H14 H 0.2970 0.7009 -0.2662
N4 N 0.4800(4) 0.6820(4) -0.3092(3)
H15 H 0.4788 0.6753 -0.3579
H16 H 0.5347 0.7170 -0.3047
C13 C 0.5301(6) 0.5744(5) -0.2720(3)
H17 H 0.4785 0.5327 -0.2819
H18 H 0.5228 0.5805 -0.2188
C14 C 0.6687(5) 0.5185(5) -0.2986(3)
H19 H 0.6952 0.4425 -0.2825
H20 H 0.6782 0.5243 -0.3523
C15 C 0.4620(6) 1.1998(5) -0.1418(3)
H21 H 0.4082 1.2574 -0.1106
H22 H 0.5493 1.2026 -0.1485
C16 C 0.4682(7) 1.0942(5) -0.1033(3)
H23 H 0.4978 1.0892 -0.0545
H24 H 0.3812 1.0907 -0.0969
N5 N 0.5558(5) 1.0033(4) -0.1442(3)
H25 H 0.5457 0.9424 -0.1230
H26 H 0.5319 1.0119 -0.1908
C17 C 0.6929(6) 0.9895(5) -0.1477(4)
H27 H 0.7007 1.0576 -0.1394
H28 H 0.7338 0.9690 -0.1968
C18 C 0.7615(6) 0.9060(5) -0.0918(3)
C19 C 0.8681(6) 0.9087(5) -0.0626(3)
H29 H 0.8967 0.9666 -0.0742
C20 C 0.9321(7) 0.8242(6) -0.0156(4)
H30 H 1.0065 0.8224 0.0047
C21 C 0.8853(6) 0.7436(5) 0.0006(3)
H31 H 0.9276 0.6852 0.0325
C22 C 0.7764(6) 0.7473(5) -0.0294(3)
N6 N 0.7136(5) 0.8295(4) -0.0757(3)
C23 C 0.7239(6) 0.6602(5) -0.0151(3)
H32 H 0.6294 0.6909 -0.0141
H33 H 0.7462 0.6246 0.0332
N7 N 0.7739(5) 0.5797(4) -0.0710(2)
H34 H 0.8608 0.5472 -0.0686
H35 H 0.7377 0.5289 -0.0593
C24 C 0.7498(6) 0.6211(5) -0.1474(3)
H36 H 0.8085 0.6588 -0.1663
H37 H 0.6608 0.6716 -0.1493
C25 C 0.7715(6) 0.5284(5) -0.1940(3)
H38 H 0.8598 0.4771 -0.1906
H39 H 0.7115 0.4918 -0.1753
C26 C 0.4535(6) 1.2955(5) -0.2589(3)
H40 H 0.4573 1.3495 -0.2281
H41 H 0.3907 1.3319 -0.2948
C27 C 0.5845(6) 1.2435(5) -0.2986(3)
H42 H 0.6136 1.2990 -0.3246
H43 H 0.6465 1.2045 -0.2628
N8 N 0.5823(4) 1.1698(4) -0.3511(2)
H44 H 0.5215 1.2063 -0.3827
H45 H 0.5567 1.1180 -0.3261
C28 C 0.7058(5) 1.1173(5) -0.3947(3)
H46 H 0.7413 1.1717 -0.4159
H47 H 0.6894 1.0833 -0.4353
C29 C 0.8030(5) 1.0352(5) -0.3501(3)
C30 C 0.8769(5) 1.0649(5) -0.3075(3)
H48 H 0.8685 1.1371 -0.3078
C31 C 0.9631(6) 0.9884(5) -0.2647(3)
H49 H 1.0128 1.0076 -0.2347
C32 C 0.9749(6) 0.8853(5) -0.2667(3)
H50 H 1.0304 0.8317 -0.2365
C33 C 0.9041(6) 0.8596(5) -0.3138(3)
N9 N 0.8182(4) 0.9325(4) -0.3539(3)
C34 C 0.9263(6) 0.7445(5) -0.3208(3)
H51 H 1.0129 0.7102 -0.3451
H52 H 0.9238 0.7094 -0.2716
N10 N 0.8318(4) 0.7279(4) -0.3620(3)
H53 H 0.8230 0.7707 -0.4042
H54 H 0.7538 0.7485 -0.3351
C35 C 0.8659(6) 0.6160(5) -0.3811(3)
H55 H 0.9491 0.5937 -0.4107
H56 H 0.8004 0.6122 -0.4108
C36 C 0.8747(6) 0.5403(5) -0.3148(3)
H57 H 0.9020 0.4673 -0.3304
H58 H 0.9405 0.5436 -0.2851
N11 N 0.7520(5) 0.5652(4) -0.2702(2)
O7 O 0.5904(4) 0.7318(3) 0.4525(2)
O8 O 0.8438(5) 0.9450(4) 0.1539(2)
O9 O 0.8250(7) 0.5977(7) 0.4126(4)
O10 O 0.7869(6) 0.4445(5) 0.3343(4)
O11 O 0.3738(7) 0.5442(5) 0.0302(4)
Cl1 Cl 0.10339(17) 0.67313(13) 0.46349(9)
O12 O 0.1042(4) 0.7091(4) 0.3885(2)
O13 O 0.0022(5) 0.7498(4) 0.5044(2)
O14 O 0.2259(5) 0.6599(4) 0.4878(3)
O15 O 0.0830(5) 0.5741(3) 0.4714(3)
Cl2 Cl 0.15386(17) 0.75044(14) 0.15301(9)
O16 O 0.1281(5) 0.6924(4) 0.1017(2)
O17 O 0.1146(5) 0.8601(4) 0.1269(3)
O18 O 0.2867(5) 0.7096(4) 0.1626(3)
O19 O 0.0836(6) 0.7415(4) 0.2209(3)
Cl3 Cl 0.35704(17) 0.81270(16) -0.06550(10)
O20 O 0.4420(10) 0.7309(8) -0.1113(6)
O21 O 0.2315(8) 0.8371(9) -0.0868(6)
O22 O 0.3775(8) 0.7667(7) 0.0069(4)
O23 O 0.3931(9) 0.9040(7) -0.0684(6)
Cl5 Cl 0.87749(18) 0.43658(15) 0.13495(11)
O28 O 0.9590(8) 0.3378(6) 0.1638(5)
O29 O 0.8394(8) 0.4160(7) 0.0637(4)
O30 O 0.9482(7) 0.5051(6) 0.1165(5)
O31 O 0.7628(8) 0.4887(7) 0.1761(5)
Cl4? Cl 0.35704(17) 0.81270(16) -0.06550(10)
O24? O 0.4060(15) 0.7021(9) -0.0779(10)
O25? O 0.2172(9) 0.8535(11) -0.0608(8)
O26? O 0.3912(14) 0.8452(14) -0.0037(7)
O27? O 0.4044(10) 0.8670(9) -0.1265(6)
Cl6? Cl 0.87749(18) 0.43658(15) 0.13495(11)
O32? O 0.9220(15) 0.3258(8) 0.1518(9)
O33? O 0.7419(9) 0.4765(10) 0.1355(8)
O34? O 0.9406(10) 0.4769(9) 0.0769(6)
O35? O 0.9017(13) 0.4804(11) 0.2018(6)
loop_
_geom_bond_atom_site_label_1
_geom_bond_atom_site_label_2
_geom_bond_site_symmetry_1
_geom_bond_site_symmetry_2
O1 H1 1_555 1_555
H1 O1A 1_555 1_555
O2 C1 1_555 1_555
C1 O1 1_555 1_555
C2 C1 1_555 1_555
O3 C2 1_555 1_555
O4 C2 1_555 1_555
O5 C3 1_555 1_555
C3 O6 1_555 1_555
N1 C4 1_555 1_555
C4 H2 1_555 1_555
H3 C4 1_555 1_555
C5 C4 1_555 1_555
H4 C5 1_555 1_555
H5 C5 1_555 1_555
N2 C5 1_555 1_555
H6 N2 1_555 1_555
H7 N2 1_555 1_555
C6 N2 1_555 1_555
H8 C6 1_555 1_555
H9 C6 1_555 1_555
C7 C6 1_555 1_555
C8 C7 1_555 1_555
H10 C8 1_555 1_555
C9 C8 1_555 1_555
H11 C9 1_555 1_555
C10 C9 1_555 1_555
H12 C10 1_555 1_555
C11 C10 1_555 1_555
N3 C7 1_555 1_555
C12 C11 1_555 1_555
H13 C12 1_555 1_555
H14 C12 1_555 1_555
N4 C12 1_555 1_555
H15 N4 1_555 1_555
H16 N4 1_555 1_555
C13 N4 1_555 1_555
H17 C13 1_555 1_555
H18 C13 1_555 1_555
C14 C13 1_555 1_555
H19 C14 1_555 1_555
H20 C14 1_555 1_555
C15 N1 1_555 1_555
H21 C15 1_555 1_555
H22 C15 1_555 1_555
C16 C15 1_555 1_555
H23 C16 1_555 1_555
H24 C16 1_555 1_555
N5 C16 1_555 1_555
H25 N5 1_555 1_555
H26 N5 1_555 1_555
C17 N5 1_555 1_555
H27 C17 1_555 1_555
H28 C17 1_555 1_555
C18 C17 1_555 1_555
C19 C18 1_555 1_555
H29 C19 1_555 1_555
C20 C19 1_555 1_555
H30 C20 1_555 1_555
C21 C20 1_555 1_555
H31 C21 1_555 1_555
C22 C21 1_555 1_555
N6 C18 1_555 1_555
C23 C22 1_555 1_555
H32 C23 1_555 1_555
H33 C23 1_555 1_555
N7 C23 1_555 1_555
H34 N7 1_555 1_555
H35 N7 1_555 1_555
C24 N7 1_555 1_555
H36 C24 1_555 1_555
H37 C24 1_555 1_555
C25 C24 1_555 1_555
H38 C25 1_555 1_555
H39 C25 1_555 1_555
C26 N1 1_555 1_555
H40 C26 1_555 1_555
H41 C26 1_555 1_555
C27 C26 1_555 1_555
H42 C27 1_555 1_555
H43 C27 1_555 1_555
N8 C27 1_555 1_555
H44 N8 1_555 1_555
H45 N8 1_555 1_555
C28 N8 1_555 1_555
H46 C28 1_555 1_555
H47 C28 1_555 1_555
C29 C28 1_555 1_555
C30 C29 1_555 1_555
H48 C30 1_555 1_555
C31 C30 1_555 1_555
H49 C31 1_555 1_555
C32 C31 1_555 1_555
H50 C32 1_555 1_555
C33 C32 1_555 1_555
N9 C29 1_555 1_555
C34 C33 1_555 1_555
H51 C34 1_555 1_555
H52 C34 1_555 1_555
N10 C34 1_555 1_555
H53 N10 1_555 1_555
H54 N10 1_555 1_555
C35 N10 1_555 1_555
H55 C35 1_555 1_555
H56 C35 1_555 1_555
C36 C35 1_555 1_555
H57 C36 1_555 1_555
H58 C36 1_555 1_555
N11 C14 1_555 1_555
Cl1 O12 1_555 1_555
O13 Cl1 1_555 1_555
O14 Cl1 1_555 1_555
O15 Cl1 1_555 1_555
Cl2 O16 1_555 1_555
O17 Cl2 1_555 1_555
O18 Cl2 1_555 1_555
O19 Cl2 1_555 1_555
Cl3 O20 1_555 1_555
O21 Cl3 1_555 1_555
O22 Cl3 1_555 1_555
O23 Cl3 1_555 1_555
Cl5 O28 1_555 1_555
O29 Cl5 1_555 1_555
O30 Cl5 1_555 1_555
O31 Cl5 1_555 1_555
O1A C1A 1_555 1_555
C1A O2A 1_555 1_555
C2A C1A 1_555 1_555
O3A C2A 1_555 1_555
O4A C2A 1_555 1_555
C3A C3 1_555 1_555
O5A C3A 1_555 1_555
O6A C3A 1_555 1_555
C11 N3 1_555 1_555
C22 N6 1_555 1_555
C25 N11 1_555 1_555
C33 N9 1_555 1_555
C36 N11 1_555 1_555

#END
