
#######################################################################
#
#                 Cambridge Crystallographic Data Centre
#                                CCDC 
#
#######################################################################
#
# If this CIF has been generated from an entry in the Cambridge 
# Structural Database, then it will include bibliographic, chemical, 
# crystal, experimental, refinement or atomic coordinate data resulting 
# from the CCDC's data processing and validation procedures.
#
#######################################################################

data_EREJIW
_chemical_formula_moiety         'C34 H23 N3 O3,C1 H2 Cl2'
_chemical_name_systematic        
"10aH,21aH-spiro[dibenzo[b,f]dibenzo[2',3':6',7'][1,4]oxazepino[4',5':3,4]imidazo[1,2-d][1,4]oxazepine-21,3'-indol]-2'(1'H)-one dichloromethane solvate"
_symmetry_cell_setting           triclinic
_symmetry_space_group_name_H-M   'P -1'
_symmetry_Int_Tables_number      2
_space_group_name_Hall           '-P 1'
loop_
_symmetry_equiv_pos_site_id
_symmetry_equiv_pos_as_xyz
1 x,y,z
2 -x,-y,-z
_cell_length_a                   10.3217(5)
_cell_length_b                   11.4473(6)
_cell_length_c                   13.4221(6)
_cell_angle_alpha                80.913(4)
_cell_angle_beta                 71.960(4)
_cell_angle_gamma                83.344(4)
_cell_volume                     1485.21
_exptl_crystal_colour            colorless
_exptl_crystal_description       block
_cell_formula_units_Z            2
loop_
_atom_site_label
_atom_site_type_symbol
_atom_site_fract_x
_atom_site_fract_y
_atom_site_fract_z
O1 O 0.4493(2) 0.26395(17) 0.39662(16)
O2 O 0.4833(2) 0.30961(16) -0.12048(16)
O3 O 0.81615(19) 0.52026(16) 0.00304(16)
N1 N 0.4765(2) 0.32844(18) 0.18664(17)
N2 N 0.6348(2) 0.3218(2) 0.02753(18)
N3 N 0.9325(2) 0.3719(2) 0.08609(19)
C1 C 0.5871(3) 0.4006(2) 0.1836(2)
H1 H 0.5682 0.4821 0.1511
C2 C 0.6112(3) 0.4083(2) 0.2870(2)
C3 C 0.7026(3) 0.4897(2) 0.2865(2)
H2 H 0.7400 0.5401 0.2240
C4 C 0.7392(3) 0.4976(3) 0.3757(3)
H3 H 0.8030 0.5513 0.3729
C5 C 0.6820(4) 0.4266(3) 0.4691(3)
H4 H 0.7086 0.4302 0.5294
C6 C 0.5867(3) 0.3513(3) 0.4732(3)
H5 H 0.5451 0.3053 0.5374
C7 C 0.5503(3) 0.3417(2) 0.3832(2)
C8 C 0.3359(3) 0.3136(2) 0.3663(2)
C9 C 0.2101(4) 0.3208(3) 0.4434(3)
H6 H 0.2035 0.2954 0.5148
C10 C 0.0939(3) 0.3661(3) 0.4142(3)
H7 H 0.0084 0.3713 0.4658
C11 C 0.1052(3) 0.4026(3) 0.3102(3)
H8 H 0.0271 0.4335 0.2903
C12 C 0.2306(3) 0.3947(3) 0.2336(3)
H9 H 0.2367 0.4205 0.1623
C13 C 0.3466(3) 0.3494(2) 0.2606(2)
C14 C 0.4851(3) 0.3260(2) 0.0776(2)
H10 H 0.4422 0.4009 0.0500
C15 C 0.4229(3) 0.2220(2) 0.0592(2)
C16 C 0.3708(3) 0.1290(2) 0.1360(2)
H11 H 0.3724 0.1281 0.2058
C17 C 0.3162(3) 0.0375(3) 0.1091(3)
H12 H 0.2832 -0.0265 0.1607
C18 C 0.3097(3) 0.0389(3) 0.0084(3)
H13 H 0.2684 -0.0217 -0.0078
C19 C 0.3644(3) 0.1301(3) -0.0696(3)
H14 H 0.3627 0.1311 -0.1394
C20 C 0.4213(3) 0.2190(2) -0.0426(2)
C21 C 0.6260(3) 0.2944(2) -0.1479(2)
C22 C 0.6940(4) 0.2776(3) -0.2521(2)
H15 H 0.6437 0.2777 -0.2997
C23 C 0.8338(4) 0.2610(3) -0.2862(3)
H16 H 0.8793 0.2527 -0.3574
C24 C 0.9068(4) 0.2566(3) -0.2156(3)
H17 H 1.0023 0.2418 -0.2380
C25 C 0.8406(3) 0.2738(3) -0.1119(2)
H18 H 0.8922 0.2699 -0.0645
C26 C 0.6982(3) 0.2970(2) -0.0752(2)
C27 C 0.7052(3) 0.3386(2) 0.1015(2)
C28 C 0.7750(3) 0.2309(2) 0.1497(2)
C29 C 0.7283(3) 0.1224(2) 0.1993(2)
H19 H 0.6393 0.1042 0.2058
C30 C 0.8157(3) 0.0406(3) 0.2393(3)
H20 H 0.7859 -0.0341 0.2729
C31 C 0.9458(4) 0.0678(3) 0.2303(3)
H21 H 1.0031 0.0107 0.2578
C32 C 0.9949(3) 0.1776(3) 0.1816(3)
H22 H 1.0832 0.1964 0.1764
C33 C 0.9069(3) 0.2570(2) 0.1414(2)
C34 C 0.8229(3) 0.4225(2) 0.0555(2)
C35 C 0.3323(7) 0.9726(5) 0.4763(5)
H23 H 0.3486 1.0470 0.4965
H24 H 0.3324 0.9100 0.5352
Cl1 Cl 0.46212(18) 0.93940(13) 0.36749(12)
Cl2 Cl 0.1750(2) 0.9867(3) 0.4555(2)
loop_
_geom_bond_atom_site_label_1
_geom_bond_atom_site_label_2
_geom_bond_site_symmetry_1
_geom_bond_site_symmetry_2
O1 C7 1_555 1_555
O2 C20 1_555 1_555
O3 C34 1_555 1_555
N1 C1 1_555 1_555
N2 C14 1_555 1_555
N3 C33 1_555 1_555
C1 H1 1_555 1_555
C2 C1 1_555 1_555
C3 C2 1_555 1_555
H2 C3 1_555 1_555
C4 C3 1_555 1_555
H3 C4 1_555 1_555
C5 C4 1_555 1_555
H4 C5 1_555 1_555
C6 C5 1_555 1_555
H5 C6 1_555 1_555
C7 C2 1_555 1_555
C8 O1 1_555 1_555
C9 C8 1_555 1_555
H6 C9 1_555 1_555
C10 C9 1_555 1_555
H7 C10 1_555 1_555
C11 C10 1_555 1_555
H8 C11 1_555 1_555
C12 C11 1_555 1_555
H9 C12 1_555 1_555
C13 N1 1_555 1_555
C14 N1 1_555 1_555
H10 C14 1_555 1_555
C15 C14 1_555 1_555
C16 C15 1_555 1_555
H11 C16 1_555 1_555
C17 C16 1_555 1_555
H12 C17 1_555 1_555
C18 C17 1_555 1_555
H13 C18 1_555 1_555
C19 C18 1_555 1_555
H14 C19 1_555 1_555
C20 C15 1_555 1_555
C21 O2 1_555 1_555
C22 C21 1_555 1_555
H15 C22 1_555 1_555
C23 C22 1_555 1_555
H16 C23 1_555 1_555
C24 C23 1_555 1_555
H17 C24 1_555 1_555
C25 C24 1_555 1_555
H18 C25 1_555 1_555
C26 N2 1_555 1_555
C27 N2 1_555 1_555
C28 C27 1_555 1_555
C29 C28 1_555 1_555
H19 C29 1_555 1_555
C30 C29 1_555 1_555
H20 C30 1_555 1_555
C31 C30 1_555 1_555
H21 C31 1_555 1_555
C32 C31 1_555 1_555
H22 C32 1_555 1_555
C33 C28 1_555 1_555
C34 N3 1_555 1_555
C35 H23 1_555 1_555
H24 C35 1_555 1_555
Cl1 C35 1_555 1_555
Cl2 C35 1_555 1_555
C1 C27 1_555 1_555
C6 C7 1_555 1_555
C8 C13 1_555 1_555
C12 C13 1_555 1_555
C19 C20 1_555 1_555
C21 C26 1_555 1_555
C25 C26 1_555 1_555
C27 C34 1_555 1_555
C32 C33 1_555 1_555

#END
