
#######################################################################
#
#                 Cambridge Crystallographic Data Centre
#                                CCDC 
#
#######################################################################
#
# If this CIF has been generated from an entry in the Cambridge 
# Structural Database, then it will include bibliographic, chemical, 
# crystal, experimental, refinement or atomic coordinate data resulting 
# from the CCDC's data processing and validation procedures.
#
#######################################################################

data_ERENUM
_chemical_formula_moiety         'C20 H46 N8 Na2 O4 S8'
_chemical_name_systematic        
bis(\m-4,7,10-triaza-1-azoniacyclododecane-4,10-bis(carbodithioato))-tetraaqua-di-sodium
_symmetry_cell_setting           triclinic
_symmetry_space_group_name_H-M   'P -1'
_symmetry_Int_Tables_number      2
_space_group_name_Hall           '-P 1'
loop_
_symmetry_equiv_pos_site_id
_symmetry_equiv_pos_as_xyz
1 x,y,z
2 -x,-y,-z
_cell_length_a                   8.4971(10)
_cell_length_b                   8.8070(11)
_cell_length_c                   12.0942(11)
_cell_angle_alpha                101.244(9)
_cell_angle_beta                 90.881(9)
_cell_angle_gamma                107.292(11)
_cell_volume                     844.961
_exptl_crystal_colour            'light colorless'
_exptl_crystal_description       block
_cell_formula_units_Z            1
loop_
_atom_site_label
_atom_site_type_symbol
_atom_site_fract_x
_atom_site_fract_y
_atom_site_fract_z
S1 S -0.06249(13) 0.23132(15) 0.93154(10)
S2 S 0.26439(14) 0.37418(15) 1.06569(10)
S3 S 0.42571(14) 0.22260(15) 0.32334(10)
S4 S 0.74094(13) 0.24703(15) 0.44794(10)
Na1 Na 0.0365(2) 0.5389(2) 0.86418(15)
O1 O 0.0107(4) 0.4837(5) 0.6705(3)
O2 O 0.3194(5) 0.5862(6) 0.8443(4)
N1 N 0.1822(4) 0.1022(4) 0.9059(3)
N2 N 0.1868(4) 0.1575(4) 0.6854(3)
H1 H 0.186(5) 0.247(5) 0.730(3)
N3 N 0.4789(4) 0.3034(4) 0.5478(3)
N4 N 0.4703(4) 0.1088(5) 0.7538(3)
H2 H 0.468(5) 0.015(5) 0.743(4)
H3 H 0.365(5) 0.121(5) 0.719(4)
C1 C 0.0741(5) -0.0262(5) 0.8166(4)
H4 H -0.0318 -0.0689 0.8463
H5 H 0.1223 -0.1142 0.7990
C2 C 0.0435(5) 0.0257(5) 0.7068(3)
H6 H 0.0218 -0.0671 0.6442
H7 H -0.0535 0.0626 0.7113
C3 C 0.1783(5) 0.1808(5) 0.5684(3)
H8 H 0.0726 0.1951 0.5508
H9 H 0.1862 0.0845 0.5168
C4 C 0.3166(5) 0.3279(5) 0.5517(4)
H10 H 0.2905 0.3566 0.4817
H11 H 0.3215 0.4189 0.6130
C5 C 0.5790(5) 0.3434(5) 0.6565(3)
H12 H 0.5242 0.3961 0.7147
H13 H 0.6853 0.4208 0.6503
C6 C 0.6085(5) 0.1991(5) 0.6937(4)
H14 H 0.6251 0.1247 0.6277
H15 H 0.7093 0.2368 0.7433
C7 C 0.4852(5) 0.1748(6) 0.8772(3)
H16 H 0.4887 0.2880 0.8904
H17 H 0.5884 0.1702 0.9097
C8 C 0.3431(4) 0.0820(5) 0.9360(3)
H18 H 0.3338 -0.0327 0.9168
H19 H 0.3682 0.1183 1.0171
C9 C 0.1343(4) 0.2263(5) 0.9624(3)
C10 C 0.5430(5) 0.2619(5) 0.4481(4)
H20 H 0.407(5) 0.614(8) 0.797(4)
H21 H 0.088(4) 0.550(6) 0.630(3)
H22 H -0.076(4) 0.424(5) 0.613(3)
H23 H 0.374(7) 0.564(15) 0.906(5)
S1A S 0.06249(13) 0.76868(15) 1.06846(10)
S2A S -0.26439(14) 0.62582(15) 0.93431(10)
S3A S -0.42571(14) 0.77740(15) 1.67666(10)
S4A S -0.74094(13) 0.75297(15) 1.55206(10)
Na1A Na -0.0365(2) 0.4611(2) 1.13582(15)
O1A O -0.0107(4) 0.5163(5) 1.3295(3)
O2A O -0.3194(5) 0.4138(6) 1.1557(4)
N1A N -0.1822(4) 0.8978(4) 1.0941(3)
N2A N -0.1868(4) 0.8425(4) 1.3146(3)
H1A H -0.186(5) 0.753(5) 1.270(3)
N3A N -0.4789(4) 0.6966(4) 1.4522(3)
N4A N -0.4703(4) 0.8912(5) 1.2462(3)
H2A H -0.468(5) 0.985(5) 1.257(4)
H3A H -0.365(5) 0.879(5) 1.281(4)
C1A C -0.0741(5) 1.0262(5) 1.1834(4)
H4A H 0.0318 1.0689 1.1537
H5A H -0.1223 1.1142 1.2010
C2A C -0.0435(5) 0.9743(5) 1.2932(3)
H6A H -0.0218 1.0671 1.3558
H7A H 0.0535 0.9374 1.2887
C3A C -0.1783(5) 0.8192(5) 1.4316(3)
H8A H -0.0726 0.8049 1.4492
H9A H -0.1862 0.9155 1.4832
C4A C -0.3166(5) 0.6721(5) 1.4483(4)
H10A H -0.2905 0.6434 1.5183
H11A H -0.3215 0.5811 1.3870
C5A C -0.5790(5) 0.6566(5) 1.3435(3)
H12A H -0.5242 0.6039 1.2853
H13A H -0.6853 0.5792 1.3497
C6A C -0.6085(5) 0.8009(5) 1.3063(4)
H14A H -0.6251 0.8753 1.3723
H15A H -0.7093 0.7632 1.2567
C7A C -0.4852(5) 0.8252(6) 1.1228(3)
H16A H -0.4887 0.7120 1.1096
H17A H -0.5884 0.8298 1.0903
C8A C -0.3431(4) 0.9180(5) 1.0640(3)
H18A H -0.3338 1.0327 1.0832
H19A H -0.3682 0.8817 0.9829
C9A C -0.1343(4) 0.7737(5) 1.0376(3)
C10A C -0.5430(5) 0.7381(5) 1.5519(4)
H20A H -0.407(5) 0.386(8) 1.203(4)
H21A H -0.088(4) 0.450(6) 1.370(3)
H22A H 0.076(4) 0.576(5) 1.387(3)
H23A H -0.374(7) 0.436(15) 1.094(5)
loop_
_geom_bond_atom_site_label_1
_geom_bond_atom_site_label_2
_geom_bond_site_symmetry_1
_geom_bond_site_symmetry_2
S1 Na1 1_555 1_555
S2 C9 1_555 1_555
S3 C10 1_555 1_555
S4 C10 1_555 1_555
Na1 O1 1_555 1_555
O1 H21 1_555 1_555
O2 Na1 1_555 1_555
N1 C1 1_555 1_555
N2 H1 1_555 1_555
N3 C4 1_555 1_555
N4 H2 1_555 1_555
H3 N4 1_555 1_555
C1 H4 1_555 1_555
H5 C1 1_555 1_555
C2 N2 1_555 1_555
H6 C2 1_555 1_555
H7 C2 1_555 1_555
C3 N2 1_555 1_555
H8 C3 1_555 1_555
H9 C3 1_555 1_555
C4 C3 1_555 1_555
H10 C4 1_555 1_555
H11 C4 1_555 1_555
C5 N3 1_555 1_555
H12 C5 1_555 1_555
H13 C5 1_555 1_555
C6 N4 1_555 1_555
H14 C6 1_555 1_555
H15 C6 1_555 1_555
C7 N4 1_555 1_555
H16 C7 1_555 1_555
H17 C7 1_555 1_555
C8 N1 1_555 1_555
H18 C8 1_555 1_555
H19 C8 1_555 1_555
C9 S1 1_555 1_555
C10 N3 1_555 1_555
H20 O2 1_555 1_555
H22 O1 1_555 1_555
H23 O2 1_555 1_555
S1A Na1 1_555 1_555
S2A Na1 1_555 1_555
S3A C10A 1_555 1_555
S4A C10A 1_555 1_555
Na1A S1 1_555 1_555
O1A Na1A 1_555 1_555
O2A Na1A 1_555 1_555
N1A C1A 1_555 1_555
N2A H1A 1_555 1_555
N3A C4A 1_555 1_555
N4A H2A 1_555 1_555
H3A N4A 1_555 1_555
C1A H4A 1_555 1_555
H5A C1A 1_555 1_555
C2A N2A 1_555 1_555
H6A C2A 1_555 1_555
H7A C2A 1_555 1_555
C3A N2A 1_555 1_555
H8A C3A 1_555 1_555
H9A C3A 1_555 1_555
C4A C3A 1_555 1_555
H10A C4A 1_555 1_555
H11A C4A 1_555 1_555
C5A N3A 1_555 1_555
H12A C5A 1_555 1_555
H13A C5A 1_555 1_555
C6A N4A 1_555 1_555
H14A C6A 1_555 1_555
H15A C6A 1_555 1_555
C7A N4A 1_555 1_555
H16A C7A 1_555 1_555
H17A C7A 1_555 1_555
C8A N1A 1_555 1_555
H18A C8A 1_555 1_555
H19A C8A 1_555 1_555
C9A S1A 1_555 1_555
C10A N3A 1_555 1_555
H20A O2A 1_555 1_555
H21A O1A 1_555 1_555
H22A O1A 1_555 1_555
H23A O2A 1_555 1_555
S2 Na1A 1_555 1_555
N1 C9 1_555 1_555
C1 C2 1_555 1_555
C5 C6 1_555 1_555
C7 C8 1_555 1_555
S1A Na1A 1_555 1_555
S2A C9A 1_555 1_555
N1A C9A 1_555 1_555
C1A C2A 1_555 1_555
C5A C6A 1_555 1_555
C7A C8A 1_555 1_555

#END
