
#######################################################################
#
#                 Cambridge Crystallographic Data Centre
#                                CCDC 
#
#######################################################################
#
# If this CIF has been generated from an entry in the Cambridge 
# Structural Database, then it will include bibliographic, chemical, 
# crystal, experimental, refinement or atomic coordinate data resulting 
# from the CCDC's data processing and validation procedures.
#
#######################################################################

data_ERIKOH
_chemical_formula_moiety         'C34 H26 N2 2+,2(F6 P1 1-),2(C2 H3 N1)'
_chemical_name_systematic        
"4,4'-(1,4-phenylenediethyne-2,1-diyl)bis(1-benzylpyridinium) bis(hexafluorophosphate) acetonitrile solvate"
_symmetry_cell_setting           triclinic
_symmetry_space_group_name_H-M   'P -1'
_symmetry_Int_Tables_number      2
_space_group_name_Hall           '-P 1'
loop_
_symmetry_equiv_pos_site_id
_symmetry_equiv_pos_as_xyz
1 x,y,z
2 -x,-y,-z
_cell_length_a                   8.8259(14)
_cell_length_b                   9.7216(8)
_cell_length_c                   12.7688(13)
_cell_angle_alpha                104.695(8)
_cell_angle_beta                 100.791(11)
_cell_angle_gamma                108.868(11)
_cell_volume                     958.433
_exptl_crystal_colour            colorless
_exptl_crystal_description       block
_cell_formula_units_Z            1
_exptl_crystal_recrystallization_method acetonitrile
_exptl_crystal_preparation       Luminescent
loop_
_atom_site_label
_atom_site_type_symbol
_atom_site_fract_x
_atom_site_fract_y
_atom_site_fract_z
P1 P 0.3520(2) -0.04374(16) 0.69464(13)
F1 F 0.4843(10) 0.1117(7) 0.7133(9)
F2 F 0.2198(8) -0.1906(5) 0.6936(10)
F3 F 0.4892(7) -0.1090(8) 0.7165(7)
F4 F 0.2212(9) 0.0187(9) 0.6604(9)
F5 F 0.3508(19) 0.0280(11) 0.8091(6)
F6 F 0.3426(18) -0.1177(17) 0.5792(5)
N1 N 0.4070(5) 0.4889(4) 0.6788(3)
C1 C 0.2172(7) 0.3514(6) 0.9391(5)
H1 H 0.1726 0.2487 0.9348
C2 C 0.1878(7) 0.4601(8) 1.0156(4)
H2 H 0.1246 0.4324 1.0631
C3 C 0.2539(8) 0.6100(7) 1.0198(5)
H3 H 0.2367 0.6857 1.0717
C4 C 0.0702(6) 0.0806(5) 0.1159(3)
C5 C 0.3759(6) 0.5403(5) 0.8718(3)
C6 C 0.2668(6) 0.3132(5) 0.4526(4)
C7 C 0.3463(7) 0.6508(6) 0.9478(4)
H4 H 0.3886 0.7530 0.9506
C8 C 0.1468(6) -0.0046(5) 0.0572(4)
H5 H 0.2454 -0.0075 0.0959
C9 C 0.1969(6) 0.4068(6) 0.5084(4)
H6 H 0.0995 0.4106 0.4686
C10 C 0.4756(6) 0.3966(6) 0.6279(4)
H7 H 0.5717 0.3934 0.6700
C11 C -0.0781(6) 0.0847(5) 0.0577(4)
H8 H -0.1303 0.1411 0.0961
C12 C 0.3102(7) 0.3905(5) 0.8695(4)
H9 H 0.3296 0.3145 0.8196
C13 C 0.4089(7) 0.3075(6) 0.5165(4)
H10 H 0.4581 0.2434 0.4835
C14 C 0.4831(7) 0.5883(6) 0.7983(4)
H11 H 0.5014 0.6941 0.8039
H12 H 0.5914 0.5847 0.8260
C15 C 0.2661(6) 0.4919(5) 0.6181(4)
H13 H 0.2164 0.5541 0.6531
C16 C 0.1413(6) 0.1626(5) 0.2339(4)
C17 C 0.2008(6) 0.2316(5) 0.3348(3)
N1A N -0.4070(5) -0.4889(4) -0.6788(3)
C1A C -0.2172(7) -0.3514(6) -0.9391(5)
H1A H -0.1726 -0.2487 -0.9348
C2A C -0.1878(7) -0.4601(8) -1.0156(4)
H2A H -0.1246 -0.4324 -1.0631
C3A C -0.2539(8) -0.6100(7) -1.0198(5)
H3A H -0.2367 -0.6857 -1.0717
C4A C -0.0702(6) -0.0806(5) -0.1159(3)
C5A C -0.3759(6) -0.5403(5) -0.8718(3)
C6A C -0.2668(6) -0.3132(5) -0.4526(4)
C7A C -0.3463(7) -0.6508(6) -0.9478(4)
H4A H -0.3886 -0.7530 -0.9506
C8A C -0.1468(6) 0.0046(5) -0.0572(4)
H5A H -0.2454 0.0075 -0.0959
C9A C -0.1969(6) -0.4068(6) -0.5084(4)
H6A H -0.0995 -0.4106 -0.4686
C10A C -0.4756(6) -0.3966(6) -0.6279(4)
H7A H -0.5717 -0.3934 -0.6700
C11A C 0.0781(6) -0.0847(5) -0.0577(4)
H8A H 0.1303 -0.1411 -0.0961
C12A C -0.3102(7) -0.3905(5) -0.8695(4)
H9A H -0.3296 -0.3145 -0.8196
C13A C -0.4089(7) -0.3075(6) -0.5165(4)
H10A H -0.4581 -0.2434 -0.4835
C14A C -0.4831(7) -0.5883(6) -0.7983(4)
H11A H -0.5014 -0.6941 -0.8039
H12A H -0.5914 -0.5847 -0.8260
C15A C -0.2661(6) -0.4919(5) -0.6181(4)
H13A H -0.2164 -0.5541 -0.6531
C16A C -0.1413(6) -0.1626(5) -0.2339(4)
C17A C -0.2008(6) -0.2316(5) -0.3348(3)
C18 C -0.1163(8) 0.3064(8) 0.6853(5)
N2 N -0.1124(9) 0.4269(8) 0.6995(6)
C19 C -0.1192(12) 0.1556(8) 0.6657(7)
H14 H -0.1984 0.1005 0.6979
H15 H -0.0098 0.1616 0.7003
H16 H -0.1515 0.1022 0.5857
loop_
_geom_bond_atom_site_label_1
_geom_bond_atom_site_label_2
_geom_bond_site_symmetry_1
_geom_bond_site_symmetry_2
P1 F1 1_555 1_555
F2 P1 1_555 1_555
F3 P1 1_555 1_555
F4 P1 1_555 1_555
F5 P1 1_555 1_555
F6 P1 1_555 1_555
N1 C10 1_555 1_555
C1 H1 1_555 1_555
C2 C1 1_555 1_555
H2 C2 1_555 1_555
C3 C2 1_555 1_555
H3 C3 1_555 1_555
C4 C8 1_555 1_555
C5 C7 1_555 1_555
C6 C9 1_555 1_555
C7 C3 1_555 1_555
H4 C7 1_555 1_555
C8 H5 1_555 1_555
C9 H6 1_555 1_555
C10 H7 1_555 1_555
C11 C4 1_555 1_555
H8 C11 1_555 1_555
C12 C1 1_555 1_555
H9 C12 1_555 1_555
C13 C6 1_555 1_555
H10 C13 1_555 1_555
C14 N1 1_555 1_555
H11 C14 1_555 1_555
H12 C14 1_555 1_555
C15 N1 1_555 1_555
H13 C15 1_555 1_555
C16 C4 1_555 1_555
C17 C6 1_555 1_555
C18 N2 1_555 1_555
C19 C18 1_555 1_555
H14 C19 1_555 1_555
H15 C19 1_555 1_555
H16 C19 1_555 1_555
N1A C10A 1_555 1_555
C1A H1A 1_555 1_555
C2A C1A 1_555 1_555
H2A C2A 1_555 1_555
C3A C2A 1_555 1_555
H3A C3A 1_555 1_555
C4A C8A 1_555 1_555
C5A C7A 1_555 1_555
C6A C9A 1_555 1_555
C7A C3A 1_555 1_555
H4A C7A 1_555 1_555
C8A C11 1_555 1_555
H5A C8A 1_555 1_555
C9A H6A 1_555 1_555
C10A H7A 1_555 1_555
C11A C8 1_555 1_555
H8A C11A 1_555 1_555
C12A C1A 1_555 1_555
H9A C12A 1_555 1_555
C13A C6A 1_555 1_555
H10A C13A 1_555 1_555
C14A N1A 1_555 1_555
H11A C14A 1_555 1_555
H12A C14A 1_555 1_555
C15A N1A 1_555 1_555
H13A C15A 1_555 1_555
C16A C4A 1_555 1_555
C17A C6A 1_555 1_555
C5 C12 1_555 1_555
C5 C14 1_555 1_555
C9 C15 1_555 1_555
C10 C13 1_555 1_555
C16 C17 1_555 1_555
C4A C11A 1_555 1_555
C5A C12A 1_555 1_555
C5A C14A 1_555 1_555
C9A C15A 1_555 1_555
C10A C13A 1_555 1_555
C16A C17A 1_555 1_555

#END
