
#######################################################################
#
#                 Cambridge Crystallographic Data Centre
#                                CCDC 
#
#######################################################################
#
# If this CIF has been generated from an entry in the Cambridge 
# Structural Database, then it will include bibliographic, chemical, 
# crystal, experimental, refinement or atomic coordinate data resulting 
# from the CCDC's data processing and validation procedures.
#
#######################################################################

data_ERILOI
_chemical_formula_moiety         'C19 H18 N2 O5'
_chemical_name_systematic        
2-(4-(diethylamino)phenyl)-3-hydroxy-6-nitro-4H-chromen-4-one
_symmetry_cell_setting           triclinic
_symmetry_space_group_name_H-M   'P -1'
_symmetry_Int_Tables_number      2
_space_group_name_Hall           '-P 1'
loop_
_symmetry_equiv_pos_site_id
_symmetry_equiv_pos_as_xyz
1 x,y,z
2 -x,-y,-z
_cell_length_a                   7.0399(7)
_cell_length_b                   7.3275(7)
_cell_length_c                   17.4123(17)
_cell_angle_alpha                89.658(8)
_cell_angle_beta                 82.561(8)
_cell_angle_gamma                76.168(8)
_cell_volume                     864.532
_cell_formula_units_Z            2
loop_
_atom_site_label
_atom_site_type_symbol
_atom_site_fract_x
_atom_site_fract_y
_atom_site_fract_z
O1 O 0.70795(17) 0.66873(17) 0.02772(7)
C1 C 0.7758(2) 0.5284(3) 0.07757(11)
C2 C 0.8001(2) 0.2910(3) -0.02479(11)
O2 O 0.8387(2) 0.12236(19) -0.04607(8)
O3 O 0.8943(2) 0.20528(19) 0.10017(8)
H1 H 0.9470 0.1086 0.0747
C3 C 0.8236(3) 0.3445(3) 0.05203(11)
C4 C 0.7334(2) 0.4453(3) -0.07547(11)
C5 C 0.6581(3) 0.5667(3) -0.19843(12)
C6 C 0.6925(2) 0.6292(3) -0.04709(11)
C7 C 0.7878(3) 0.6039(3) 0.15305(11)
C8 C 0.7146(3) 0.4156(3) -0.15337(12)
H2 H 0.7403 0.2941 -0.1741
C9 C 0.6181(3) 0.7511(3) -0.16966(12)
H3 H 0.5808 0.8515 -0.2018
C10 C 0.7733(3) 0.7962(3) 0.16439(11)
H4 H 0.7521 0.8757 0.1229
N1 N 0.6420(3) 0.5355(4) -0.28032(12)
C11 C 0.7893(3) 0.8710(3) 0.23435(12)
H5 H 0.7821 0.9990 0.2387
C12 C 0.8155(3) 0.4922(3) 0.21825(12)
H6 H 0.8265 0.3637 0.2133
C13 C 0.6344(3) 0.7830(3) -0.09330(12)
H7 H 0.6071 0.9049 -0.0729
C14 C 0.8165(3) 0.7594(3) 0.29994(12)
N2 N 0.8331(3) 0.8324(3) 0.37013(11)
O4 O 0.5862(3) 0.6722(3) -0.31910(10)
O5 O 0.6826(3) 0.3741(3) -0.30575(10)
C15 C 0.8268(3) 0.5667(3) 0.28923(12)
H8 H 0.8416 0.4880 0.3312
C16 C 0.8624(5) 0.7109(4) 0.43681(14)
H9 H 0.9260 0.7680 0.4731
H10 H 0.9500 0.5909 0.4194
C17 C 0.8448(4) 1.0296(4) 0.38026(15)
H11 H 0.8028 1.0684 0.4342
H12 H 0.7546 1.1096 0.3495
C18 C 1.0486(5) 1.0572(4) 0.3570(2)
H13 H 1.0853 1.0328 0.3023
H14 H 1.1403 0.9722 0.3847
H15 H 1.0507 1.1843 0.3691
C19 C 0.6736(6) 0.6779(6) 0.47762(18)
H16 H 0.6058 0.6287 0.4413
H17 H 0.5919 0.7945 0.4999
H18 H 0.7019 0.5895 0.5179
loop_
_geom_bond_atom_site_label_1
_geom_bond_atom_site_label_2
_geom_bond_site_symmetry_1
_geom_bond_site_symmetry_2
O1 C1 1_555 1_555
C1 C3 1_555 1_555
C2 O2 1_555 1_555
O3 H1 1_555 1_555
C3 C2 1_555 1_555
C4 C2 1_555 1_555
C5 C8 1_555 1_555
C6 O1 1_555 1_555
C7 C1 1_555 1_555
C8 C4 1_555 1_555
H2 C8 1_555 1_555
C9 C5 1_555 1_555
H3 C9 1_555 1_555
C10 C7 1_555 1_555
H4 C10 1_555 1_555
N1 C5 1_555 1_555
C11 C10 1_555 1_555
H5 C11 1_555 1_555
C12 C7 1_555 1_555
H6 C12 1_555 1_555
C13 C6 1_555 1_555
H7 C13 1_555 1_555
C14 C11 1_555 1_555
N2 C14 1_555 1_555
O4 N1 1_555 1_555
O5 N1 1_555 1_555
C15 C12 1_555 1_555
H8 C15 1_555 1_555
C16 N2 1_555 1_555
H9 C16 1_555 1_555
H10 C16 1_555 1_555
C17 N2 1_555 1_555
H11 C17 1_555 1_555
H12 C17 1_555 1_555
C18 C17 1_555 1_555
H13 C18 1_555 1_555
H14 C18 1_555 1_555
H15 C18 1_555 1_555
C19 C16 1_555 1_555
H16 C19 1_555 1_555
H17 C19 1_555 1_555
H18 C19 1_555 1_555
O3 C3 1_555 1_555
C4 C6 1_555 1_555
C9 C13 1_555 1_555
C14 C15 1_555 1_555

#END
