
#######################################################################
#
#                 Cambridge Crystallographic Data Centre
#                                CCDC 
#
#######################################################################
#
# If this CIF has been generated from an entry in the Cambridge 
# Structural Database, then it will include bibliographic, chemical, 
# crystal, experimental, refinement or atomic coordinate data resulting 
# from the CCDC's data processing and validation procedures.
#
#######################################################################

data_ERILIC
_chemical_formula_moiety         'C19 H18 Br1 N1 O3'
_chemical_name_systematic        
6-bromo-2-(4-(diethylamino)phenyl)-3-hydroxy-4H-chromen-4-one
_symmetry_cell_setting           monoclinic
_symmetry_space_group_name_H-M   'P 21/c'
_symmetry_Int_Tables_number      14
_space_group_name_Hall           '-P 2ybc'
loop_
_symmetry_equiv_pos_site_id
_symmetry_equiv_pos_as_xyz
1 x,y,z
2 -x,1/2+y,1/2-z
3 -x,-y,-z
4 x,1/2-y,1/2+z
_cell_length_a                   13.3522(19)
_cell_length_b                   13.823(3)
_cell_length_c                   9.515(2)
_cell_angle_alpha                90
_cell_angle_beta                 92.847(18)
_cell_angle_gamma                90
_cell_volume                     1753.99
_cell_formula_units_Z            4
loop_
_atom_site_label
_atom_site_type_symbol
_atom_site_fract_x
_atom_site_fract_y
_atom_site_fract_z
Br1 Br 0.32819(4) 0.35003(6) 0.24232(7)
O1 O 0.0056(3) 0.3329(3) 0.6585(4)
C1 C -0.0407(4) 0.2484(4) 0.6975(5)
O2 O -0.0529(3) 0.0778(3) 0.6841(4)
H1 H -0.0484 0.0373 0.6219
C2 C 0.1110(4) 0.2470(4) 0.5029(5)
C3 C -0.1180(3) 0.2667(4) 0.7967(5)
C4 C 0.1874(4) 0.2542(5) 0.4060(5)
H2 H 0.2108 0.1987 0.3632
C5 C -0.0096(4) 0.1634(4) 0.6428(5)
C6 C 0.0795(4) 0.3328(5) 0.5643(5)
C7 C -0.1461(4) 0.3632(5) 0.8232(5)
H3 H -0.1128 0.4136 0.7805
C8 C 0.2264(4) 0.3407(5) 0.3751(6)
C9 C 0.0657(4) 0.1557(4) 0.5400(5)
C10 C -0.1672(4) 0.1936(5) 0.8662(5)
H4 H -0.1494 0.1293 0.8526
C11 C -0.2738(4) 0.3102(5) 0.9801(5)
O3 O 0.0895(3) 0.0776(3) 0.4864(4)
N1 N -0.3522(3) 0.3315(4) 1.0643(5)
C12 C 0.1934(4) 0.4247(5) 0.4364(7)
H5 H 0.2211 0.4839 0.4126
C13 C -0.3431(6) 0.4909(7) 1.1838(9)
H6 H -0.3772 0.5520 1.1863
H7 H -0.2744 0.5013 1.1625
H8 H -0.3458 0.4598 1.2737
C14 C 0.1195(4) 0.4216(5) 0.5326(6)
H9 H 0.0973 0.4778 0.5749
C15 C -0.2219(4) 0.3838(5) 0.9112(5)
H10 H -0.2395 0.4481 0.9257
C16 C -0.3994(4) 0.2541(6) 1.1435(6)
H11 H -0.4277 0.2817 1.2265
H12 H -0.3484 0.2077 1.1748
C17 C -0.2423(4) 0.2160(5) 0.9553(5)
H13 H -0.2734 0.1656 1.0010
C18 C -0.3936(5) 0.4272(6) 1.0714(7)
H14 H -0.4643 0.4221 1.0893
H15 H -0.3883 0.4583 0.9807
C19 C -0.4816(5) 0.2015(7) 1.0578(7)
H16 H -0.4528 0.1678 0.9813
H17 H -0.5299 0.2475 1.0211
H18 H -0.5139 0.1559 1.1167
loop_
_geom_bond_atom_site_label_1
_geom_bond_atom_site_label_2
_geom_bond_site_symmetry_1
_geom_bond_site_symmetry_2
Br1 C8 1_555 1_555
O1 C1 1_555 1_555
C1 C3 1_555 1_555
O2 H1 1_555 1_555
C2 C4 1_555 1_555
C3 C7 1_555 1_555
C4 H2 1_555 1_555
C5 C1 1_555 1_555
C6 O1 1_555 1_555
C7 H3 1_555 1_555
C8 C4 1_555 1_555
C9 C2 1_555 1_555
C10 C3 1_555 1_555
H4 C10 1_555 1_555
C11 N1 1_555 1_555
O3 C9 1_555 1_555
N1 C16 1_555 1_555
C12 C8 1_555 1_555
H5 C12 1_555 1_555
C13 H6 1_555 1_555
H7 C13 1_555 1_555
H8 C13 1_555 1_555
C14 C6 1_555 1_555
H9 C14 1_555 1_555
C15 C7 1_555 1_555
H10 C15 1_555 1_555
C16 H11 1_555 1_555
H12 C16 1_555 1_555
C17 C10 1_555 1_555
H13 C17 1_555 1_555
C18 N1 1_555 1_555
H14 C18 1_555 1_555
H15 C18 1_555 1_555
C19 C16 1_555 1_555
H16 C19 1_555 1_555
H17 C19 1_555 1_555
H18 C19 1_555 1_555
O2 C5 1_555 1_555
C2 C6 1_555 1_555
C5 C9 1_555 1_555
C11 C15 1_555 1_555
C11 C17 1_555 1_555
C12 C14 1_555 1_555
C13 C18 1_555 1_555

#END
