
#######################################################################
#
#                 Cambridge Crystallographic Data Centre
#                                CCDC 
#
#######################################################################
#
# If this CIF has been generated from an entry in the Cambridge 
# Structural Database, then it will include bibliographic, chemical, 
# crystal, experimental, refinement or atomic coordinate data resulting 
# from the CCDC's data processing and validation procedures.
#
#######################################################################

data_ERILEW
_chemical_formula_moiety         'C28 H28 N2 O8'
_chemical_name_systematic        
'Diethyl 2,5-bis(2-methoxybenzoylamino)benzene-1,4-dicarboxylate'
_symmetry_cell_setting           triclinic
_symmetry_space_group_name_H-M   'P -1'
_symmetry_Int_Tables_number      2
_space_group_name_Hall           '-P 1'
loop_
_symmetry_equiv_pos_site_id
_symmetry_equiv_pos_as_xyz
1 x,y,z
2 -x,-y,-z
_cell_length_a                   7.3659(12)
_cell_length_b                   13.482(2)
_cell_length_c                   13.783(2)
_cell_angle_alpha                108.707(3)
_cell_angle_beta                 104.395(3)
_cell_angle_gamma                90.589(4)
_cell_volume                     1249.68
_exptl_crystal_colour            colorless
_chemical_melting_point          218-220deg.C
_cell_formula_units_Z            2
_exptl_crystal_recrystallization_method chloroform
loop_
_atom_site_label
_atom_site_type_symbol
_atom_site_fract_x
_atom_site_fract_y
_atom_site_fract_z
N1 N -0.0759(3) 0.33476(15) 0.16202(14)
N2 N 0.1854(3) 0.09900(14) 0.43231(14)
O1 O 0.0904(3) 0.50312(12) 0.33629(12)
O2 O 0.2406(2) 0.47192(11) 0.48187(11)
O3 O -0.0050(2) -0.06832(12) 0.26218(12)
O4 O -0.1598(2) -0.03598(11) 0.11797(11)
O5 O -0.1859(3) 0.20529(13) 0.00377(13)
O6 O -0.2277(2) 0.51296(12) 0.15422(12)
O7 O 0.3713(3) 0.22690(12) 0.57413(13)
O8 O 0.1838(2) -0.08906(11) 0.45513(11)
C1 C -0.0114(3) 0.27576(16) 0.22914(16)
C2 C -0.0526(3) 0.16788(18) 0.19572(18)
C3 C 0.0096(3) 0.10779(16) 0.26062(16)
C4 C 0.1206(3) 0.15711(16) 0.36545(16)
C5 C 0.1568(3) 0.26551(17) 0.39899(17)
C6 C 0.0936(3) 0.32546(16) 0.33477(16)
C7 C 0.1388(3) 0.44118(17) 0.38102(17)
C8 C 0.2945(4) 0.58432(18) 0.53506(19)
C9 C 0.3893(5) 0.5987(3) 0.6478(2)
C10 C -0.0494(3) -0.00665(17) 0.21657(17)
C11 C -0.2286(5) -0.14584(19) 0.0682(2)
C12 C -0.3438(6) -0.1590(3) -0.0411(3)
C13 C -0.1569(3) 0.29808(18) 0.05581(18)
C14 C -0.2035(3) 0.37856(17) 0.00160(17)
C15 C -0.2146(3) 0.3442(2) -0.10643(18)
C16 C -0.2529(4) 0.4101(2) -0.1655(2)
C17 C -0.2854(4) 0.5112(2) -0.1174(2)
C18 C -0.2776(3) 0.5479(2) -0.0110(2)
C19 C -0.2357(3) 0.48213(18) 0.04912(17)
C20 C -0.2452(5) 0.6205(2) 0.2078(3)
C21 C 0.3054(3) 0.13545(17) 0.53195(17)
C22 C 0.3569(3) 0.05933(17) 0.59090(16)
C23 C 0.4751(3) 0.1021(2) 0.69262(18)
C24 C 0.5367(4) 0.0424(2) 0.75642(19)
C25 C 0.4766(4) -0.0620(2) 0.7191(2)
C26 C 0.3603(4) -0.1082(2) 0.61896(19)
C27 C 0.2993(3) -0.04791(17) 0.55438(16)
C28 C 0.1415(5) -0.2001(2) 0.4089(2)
H1 H -0.116(3) 0.1317(15) 0.1273(17)
H2 H 0.230(2) 0.3017(13) 0.4653(12)
H3 H 0.382(3) 0.6078(14) 0.4998(14)
H4 H 0.182(3) 0.6195(17) 0.5248(17)
H5 H 0.495(3) 0.554(2) 0.652(2)
H6 H 0.309(4) 0.5825(19) 0.688(2)
H7 H 0.446(4) 0.665(2) 0.691(2)
H8 H -0.125(4) -0.1896(19) 0.0627(19)
H9 H -0.291(4) -0.1664(19) 0.115(2)
H10 H -0.387(4) -0.2352(15) -0.077(2)
H11 H -0.258(4) -0.135(2) -0.075(2)
H12 H -0.452(3) -0.1261(19) -0.034(2)
H13 H -0.179(3) 0.2738(17) -0.1368(17)
H14 H -0.261(3) 0.3823(16) -0.2398(13)
H15 H -0.311(3) 0.5572(17) -0.1573(17)
H16 H -0.308(3) 0.6143(14) 0.0199(17)
H17 H -0.373(3) 0.6392(19) 0.1826(19)
H18 H -0.152(3) 0.6691(17) 0.2005(18)
H19 H -0.228(4) 0.625(2) 0.280(2)
H20 H 0.514(3) 0.1739(16) 0.7119(16)
H21 H 0.621(3) 0.0801(18) 0.823(2)
H22 H 0.521(3) -0.1123(16) 0.7541(18)
H23 H 0.325(3) -0.1841(13) 0.5873(17)
H24 H 0.078(3) -0.2146(17) 0.3321(14)
H25 H 0.266(3) -0.2303(17) 0.4138(18)
H26 H 0.076(4) -0.2315(19) 0.4478(19)
H27 H -0.053(3) 0.4056(13) 0.1949(17)
H28 H 0.139(3) 0.0308(13) 0.4016(16)
loop_
_geom_bond_atom_site_label_1
_geom_bond_atom_site_label_2
_geom_bond_site_symmetry_1
_geom_bond_site_symmetry_2
N1 C1 1_555 1_555
N2 C4 1_555 1_555
O1 C7 1_555 1_555
O2 C7 1_555 1_555
O3 C10 1_555 1_555
O4 C10 1_555 1_555
O5 C13 1_555 1_555
O6 C19 1_555 1_555
O7 C21 1_555 1_555
O8 C27 1_555 1_555
C1 C2 1_555 1_555
C2 C3 1_555 1_555
C3 C4 1_555 1_555
C4 C5 1_555 1_555
C5 C6 1_555 1_555
C6 C1 1_555 1_555
C7 C6 1_555 1_555
C8 O2 1_555 1_555
C9 C8 1_555 1_555
C10 C3 1_555 1_555
C11 O4 1_555 1_555
C12 C11 1_555 1_555
C13 N1 1_555 1_555
C14 C13 1_555 1_555
C15 C14 1_555 1_555
C16 C15 1_555 1_555
C17 C16 1_555 1_555
C18 C17 1_555 1_555
C19 C14 1_555 1_555
C20 O6 1_555 1_555
C21 N2 1_555 1_555
C22 C21 1_555 1_555
C23 C22 1_555 1_555
C24 C23 1_555 1_555
C25 C24 1_555 1_555
C26 C25 1_555 1_555
C27 C22 1_555 1_555
C28 O8 1_555 1_555
H1 C2 1_555 1_555
H2 C5 1_555 1_555
H3 C8 1_555 1_555
H4 C8 1_555 1_555
H5 C9 1_555 1_555
H6 C9 1_555 1_555
H7 C9 1_555 1_555
H8 C11 1_555 1_555
H9 C11 1_555 1_555
H10 C12 1_555 1_555
H11 C12 1_555 1_555
H12 C12 1_555 1_555
H13 C15 1_555 1_555
H14 C16 1_555 1_555
H15 C17 1_555 1_555
H16 C18 1_555 1_555
H17 C20 1_555 1_555
H18 C20 1_555 1_555
H19 C20 1_555 1_555
H20 C23 1_555 1_555
H21 C24 1_555 1_555
H22 C25 1_555 1_555
H23 C26 1_555 1_555
H24 C28 1_555 1_555
H25 C28 1_555 1_555
H26 C28 1_555 1_555
H27 N1 1_555 1_555
H28 N2 1_555 1_555
C18 C19 1_555 1_555
C26 C27 1_555 1_555

#END
