
#######################################################################
#
#                 Cambridge Crystallographic Data Centre
#                                CCDC 
#
#######################################################################
#
# If this CIF has been generated from an entry in the Cambridge 
# Structural Database, then it will include bibliographic, chemical, 
# crystal, experimental, refinement or atomic coordinate data resulting 
# from the CCDC's data processing and validation procedures.
#
#######################################################################

data_ERIMAV
_chemical_formula_moiety         'C56 H40 N2,C1 H2 Cl2,H2 O1'
_chemical_name_systematic        
'2,5-bis(4-(triphenylvinyl)phenyl)pyrimidine dichloromethane solvate monohydrate'
_symmetry_cell_setting           monoclinic
_symmetry_space_group_name_H-M   'C c'
_symmetry_Int_Tables_number      9
_space_group_name_Hall           'C -2yc'
loop_
_symmetry_equiv_pos_site_id
_symmetry_equiv_pos_as_xyz
1 x,y,z
2 x,-y,1/2+z
3 1/2+x,1/2+y,z
4 1/2+x,1/2-y,1/2+z
_cell_length_a                   45.0139(16)
_cell_length_b                   5.6150(2)
_cell_length_c                   19.2525(7)
_cell_angle_alpha                90
_cell_angle_beta                 112.628(2)
_cell_angle_gamma                90
_cell_volume                     4491.54
_exptl_crystal_colour            colorless
_exptl_crystal_description       block
_cell_formula_units_Z            4
loop_
_atom_site_label
_atom_site_type_symbol
_atom_site_fract_x
_atom_site_fract_y
_atom_site_fract_z
C1 C 0.15687(14) 0.9456(15) -0.0757(4)
H1 H 0.1554 1.0780 -0.0465
C2 C 0.13321(16) 0.9081(18) -0.1448(4)
H2 H 0.1162 1.0203 -0.1641
C3 C 0.13342(18) 0.7151(18) -0.1865(4)
H3 H 0.1166 0.6905 -0.2343
C4 C 0.1580(2) 0.5565(18) -0.1591(4)
H4 H 0.1580 0.4173 -0.1872
C5 C 0.18326(18) 0.5962(14) -0.0902(4)
H5 H 0.2007 0.4875 -0.0723
C6 C 0.18278(14) 0.7949(12) -0.0477(3)
C7 C 0.20832(14) 0.8388(11) 0.0292(3)
C8 C 0.19579(14) 0.8733(12) 0.0913(3)
C9 C 0.17499(14) 0.7082(13) 0.0995(3)
H6 H 0.1691 0.5726 0.0676
C10 C 0.1624(2) 0.7400(16) 0.1553(4)
H7 H 0.1487 0.6233 0.1630
C11 C 0.1706(2) 0.950(2) 0.2000(5)
H8 H 0.1623 0.9754 0.2380
C12 C 0.1909(2) 1.1178(16) 0.1877(5)
H9 H 0.1964 1.2597 0.2168
C13 C 0.20280(18) 1.0764(15) 0.1337(4)
H10 H 0.2164 1.1923 0.1252
C14 C 0.24001(14) 0.8457(12) 0.0415(4)
C15 C 0.25148(15) 0.8384(13) -0.0200(3)
C16 C 0.24123(16) 0.9981(14) -0.0794(3)
H11 H 0.2254 1.1129 -0.0811
C17 C 0.2528(2) 0.9987(17) -0.1359(5)
H12 H 0.2457 1.1156 -0.1745
C18 C 0.2745(2) 0.830(2) -0.1361(5)
H13 H 0.2817 0.8209 -0.1764
C19 C 0.2860(4) 0.673(2) -0.0764(8)
H14 H 0.3018 0.5596 -0.0754
C20 C 0.2751(2) 0.6737(19) -0.0177(6)
H15 H 0.2835 0.5648 0.0229
C21 C 0.26562(14) 0.8595(12) 0.1202(3)
C22 C 0.28854(18) 1.0348(13) 0.1386(4)
H16 H 0.2880 1.1511 0.1024
C23 C 0.31275(19) 1.0423(14) 0.2109(4)
H17 H 0.3271 1.1740 0.2247
C24 C 0.31616(16) 0.8699(11) 0.2607(3)
C25 C 0.29287(15) 0.6875(12) 0.2437(3)
H18 H 0.2944 0.5681 0.2798
C26 C 0.26742(16) 0.6842(12) 0.1728(3)
H19 H 0.2515 0.5629 0.1608
C27 C 0.34261(18) 0.8703(13) 0.3369(4)
C28 C 0.3551(2) 1.0801(12) 0.3706(4)
C29 C 0.3542(3) 0.6585(14) 0.3705(4)
C30 C 0.39189(19) 0.8708(13) 0.4718(4)
C31 C 0.41953(17) 0.8646(12) 0.5447(4)
C32 C 0.4218(2) 1.0448(15) 0.6003(5)
H20 H 0.4061 1.1674 0.5887
C33 C 0.44636(17) 1.0391(16) 0.6688(4)
H21 H 0.4481 1.1635 0.7036
C34 C 0.46920(15) 0.8565(12) 0.6900(4)
C35 C 0.46652(14) 0.6873(14) 0.6342(4)
H22 H 0.4824 0.5661 0.6452
C36 C 0.44195(16) 0.6900(14) 0.5647(3)
H23 H 0.4406 0.5668 0.5299
C37 C 0.49451(14) 0.8473(11) 0.7659(3)
C38 C 0.48226(14) 0.8393(13) 0.8287(3)
C39 C 0.4598(2) 0.6752(18) 0.8273(5)
H24 H 0.4524 0.5636 0.7871
C40 C 0.4472(2) 0.667(2) 0.8843(5)
H25 H 0.4316 0.5507 0.8831
C41 C 0.4576(3) 0.825(2) 0.9390(7)
H26 H 0.4488 0.8234 0.9767
C42 C 0.4813(2) 0.9960(17) 0.9443(4)
H27 H 0.4890 1.1037 0.9854
C43 C 0.49301(18) 1.0015(14) 0.8869(4)
H28 H 0.5085 1.1178 0.8880
C44 C 0.52613(15) 0.8374(12) 0.7789(3)
C45 C 0.55132(13) 0.7915(12) 0.8549(3)
C46 C 0.55079(19) 0.5949(15) 0.8973(4)
H29 H 0.5335 0.4848 0.8787
C47 C 0.5756(2) 0.5565(17) 0.9675(4)
H30 H 0.5746 0.4215 0.9964
C48 C 0.6012(2) 0.709(2) 0.9957(4)
H31 H 0.6180 0.6794 1.0432
C49 C 0.60248(17) 0.9106(18) 0.9534(4)
H32 H 0.6201 1.0180 0.9719
C50 C 0.57740(14) 0.9506(14) 0.8837(3)
H33 H 0.5780 1.0877 0.8554
C51 C 0.53846(13) 0.8788(11) 0.7181(3)
C52 C 0.55962(14) 0.7129(15) 0.7066(3)
H34 H 0.5653 0.5723 0.7362
C53 C 0.5720(2) 0.7535(17) 0.6528(4)
H35 H 0.5859 0.6379 0.6453
C54 C 0.5652(2) 0.9503(17) 0.6106(4)
H36 H 0.5744 0.9746 0.5744
C55 C 0.5452(2) 1.1133(16) 0.6195(4)
H37 H 0.5405 1.2528 0.5893
C56 C 0.53085(18) 1.0827(14) 0.6732(4)
H38 H 0.5164 1.1984 0.6783
H39 H 0.346(2) 1.210(9) 0.362(4)
H40 H 0.3551(14) 0.514(12) 0.336(3)
N1 N 0.37976(19) 1.0762(14) 0.4392(5)
N2 N 0.3803(3) 0.6639(14) 0.4370(4)
C57 C 0.3771(2) 0.4354(14) 0.1463(6)
H41 H 0.3933 0.3173 0.1763
H42 H 0.3879 0.5342 0.1204
Cl1 Cl 0.3450(2) 0.253(3) 0.0672(7)
Cl2 Cl 0.3722(5) 0.593(4) 0.2012(14)
O1 O 0.39401(12) 0.8198(9) 0.2572(3)
Cl3? Cl 0.3549(2) 0.5741(19) 0.1531(6)
loop_
_geom_bond_atom_site_label_1
_geom_bond_atom_site_label_2
_geom_bond_site_symmetry_1
_geom_bond_site_symmetry_2
C1 H1 1_555 1_555
C2 C1 1_555 1_555
H2 C2 1_555 1_555
C3 C2 1_555 1_555
H3 C3 1_555 1_555
C4 C3 1_555 1_555
H4 C4 1_555 1_555
C5 C4 1_555 1_555
H5 C5 1_555 1_555
C6 C1 1_555 1_555
C7 C6 1_555 1_555
C8 C7 1_555 1_555
C9 C8 1_555 1_555
H6 C9 1_555 1_555
C10 C9 1_555 1_555
H7 C10 1_555 1_555
C11 C10 1_555 1_555
H8 C11 1_555 1_555
C12 C11 1_555 1_555
H9 C12 1_555 1_555
C13 C8 1_555 1_555
H10 C13 1_555 1_555
C14 C7 1_555 1_555
C15 C14 1_555 1_555
C16 C15 1_555 1_555
H11 C16 1_555 1_555
C17 C16 1_555 1_555
H12 C17 1_555 1_555
C18 C17 1_555 1_555
H13 C18 1_555 1_555
C19 C18 1_555 1_555
H14 C19 1_555 1_555
C20 C15 1_555 1_555
H15 C20 1_555 1_555
C21 C14 1_555 1_555
C22 C21 1_555 1_555
H16 C22 1_555 1_555
C23 C22 1_555 1_555
H17 C23 1_555 1_555
C24 C23 1_555 1_555
C25 C24 1_555 1_555
H18 C25 1_555 1_555
C26 C21 1_555 1_555
H19 C26 1_555 1_555
C27 C24 1_555 1_555
C28 C27 1_555 1_555
C29 C27 1_555 1_555
C30 C31 1_555 1_555
C31 C32 1_555 1_555
C32 H20 1_555 1_555
C33 C32 1_555 1_555
H21 C33 1_555 1_555
C34 C33 1_555 1_555
C35 C34 1_555 1_555
H22 C35 1_555 1_555
C36 C31 1_555 1_555
H23 C36 1_555 1_555
C37 C34 1_555 1_555
C38 C37 1_555 1_555
C39 C38 1_555 1_555
H24 C39 1_555 1_555
C40 C39 1_555 1_555
H25 C40 1_555 1_555
C41 C40 1_555 1_555
H26 C41 1_555 1_555
C42 C41 1_555 1_555
H27 C42 1_555 1_555
C43 C38 1_555 1_555
H28 C43 1_555 1_555
C44 C37 1_555 1_555
C45 C44 1_555 1_555
C46 C45 1_555 1_555
H29 C46 1_555 1_555
C47 C46 1_555 1_555
H30 C47 1_555 1_555
C48 C47 1_555 1_555
H31 C48 1_555 1_555
C49 C48 1_555 1_555
H32 C49 1_555 1_555
C50 C45 1_555 1_555
H33 C50 1_555 1_555
C51 C44 1_555 1_555
C52 C51 1_555 1_555
H34 C52 1_555 1_555
C53 C52 1_555 1_555
H35 C53 1_555 1_555
C54 C53 1_555 1_555
H36 C54 1_555 1_555
C55 C54 1_555 1_555
H37 C55 1_555 1_555
C56 C51 1_555 1_555
H38 C56 1_555 1_555
H39 C28 1_555 1_555
H40 C29 1_555 1_555
N1 C28 1_555 1_555
N2 C29 1_555 1_555
C57 H41 1_555 1_555
H42 C57 1_555 1_555
Cl1 C57 1_555 1_555
Cl2 C57 1_555 1_555
C5 C6 1_555 1_555
C12 C13 1_555 1_555
C19 C20 1_555 1_555
C25 C26 1_555 1_555
C30 N1 1_555 1_555
C30 N2 1_555 1_555
C35 C36 1_555 1_555
C42 C43 1_555 1_555
C49 C50 1_555 1_555
C55 C56 1_555 1_555

#END
