
#######################################################################
#
#                 Cambridge Crystallographic Data Centre
#                                CCDC 
#
#######################################################################
#
# If this CIF has been generated from an entry in the Cambridge 
# Structural Database, then it will include bibliographic, chemical, 
# crystal, experimental, refinement or atomic coordinate data resulting 
# from the CCDC's data processing and validation procedures.
#
#######################################################################

data_ERIPOM
_chemical_formula_moiety         'C72 H60 N8 Na4 O4'
_chemical_name_systematic        
'tetrakis(\m-2-(((2,6-dimethylphenyl)imino)methyl)quinolin-8-olato)-tetra-sodium unknown solvate'
_symmetry_cell_setting           triclinic
_symmetry_space_group_name_H-M   'P -1'
_symmetry_Int_Tables_number      2
_space_group_name_Hall           '-P 1'
loop_
_symmetry_equiv_pos_site_id
_symmetry_equiv_pos_as_xyz
1 x,y,z
2 -x,-y,-z
_cell_length_a                   14.787(3)
_cell_length_b                   15.067(3)
_cell_length_c                   18.853(4)
_cell_angle_alpha                81.79(3)
_cell_angle_beta                 71.41(3)
_cell_angle_gamma                89.01(3)
_cell_volume                     3938.62
_exptl_crystal_colour            red
_exptl_crystal_description       Plate
_cell_formula_units_Z            2
loop_
_atom_site_label
_atom_site_type_symbol
_atom_site_fract_x
_atom_site_fract_y
_atom_site_fract_z
O1 O 0.61462(16) 0.21682(15) 0.38891(13)
O2 O 0.67807(16) 0.39283(15) 0.26317(14)
O3 O 0.75678(16) 0.20660(16) 0.20601(13)
O4 O 0.52367(16) 0.23485(16) 0.24948(13)
N1 N 0.56889(19) 0.30034(19) 0.09910(15)
N2 N 0.6699(2) -0.03413(19) 0.26237(15)
N3 N 0.7346(2) 0.4052(2) 0.02774(17)
N4 N 0.6342(2) 0.03742(19) 0.39533(15)
N5 N 0.8909(2) 0.3086(2) 0.37362(18)
N6 N 0.51839(18) 0.48193(17) 0.32683(14)
N7 N 0.91136(18) 0.22235(19) 0.25153(15)
N8 N 0.36119(19) 0.38369(19) 0.42669(15)
C1 C 0.6789(2) 0.4799(2) 0.24543(19)
C2 C 0.4698(2) 0.2122(2) 0.21200(19)
C3 C 0.9031(3) 0.4249(3) -0.0422(3)
C4 C 0.8348(2) 0.1711(2) 0.17017(19)
C5 C 0.3355(4) 0.3924(4) 0.5848(3)
H1 H 0.3998 0.3757 0.5608
H2 H 0.3204 0.3790 0.6387
H3 H 0.3295 0.4555 0.5709
C6 C 0.9205(2) 0.1795(2) 0.19314(18)
C7 C 0.3590(2) 0.4686(2) 0.4147(2)
H4 H 0.3052 0.4970 0.4415
C8 C 0.4398(2) 0.5242(2) 0.3593(2)
C9 C 0.6618(3) -0.0845(2) 0.3234(2)
H5 H 0.6679 -0.1460 0.3226
C10 C 0.6982(3) -0.0729(2) 0.19368(19)
C11 C 1.0080(2) 0.1396(2) 0.15368(19)
C12 C 0.5923(2) 0.6228(2) 0.25676(19)
C13 C 0.2802(2) 0.3379(2) 0.4839(2)
C14 C 0.5074(3) 0.6653(2) 0.2916(2)
H6 H 0.5031 0.7269 0.2798
C15 C 0.6102(2) 0.1694(2) 0.45423(18)
C16 C 0.5933(2) 0.5293(2) 0.27753(18)
C17 C 0.6192(2) 0.0718(2) 0.45914(18)
C18 C 0.5953(3) 0.2048(2) 0.5207(2)
H7 H 0.5872 0.2662 0.5203
C19 C 0.4315(3) 0.6169(2) 0.3425(2)
H8 H 0.3754 0.6448 0.3657
C20 C 0.9713(3) 0.2792(3) 0.3389(2)
H9 H 1.0232 0.2891 0.3549
C21 C 0.6430(2) -0.0502(2) 0.39683(18)
C22 C 0.6620(3) -0.1011(3) 0.0837(2)
H10 H 0.6199 -0.0998 0.0560
C23 C 0.4928(2) 0.2434(2) 0.13161(19)
C24 C 0.8445(3) 0.1249(3) 0.1098(2)
H11 H 0.7918 0.1173 0.0942
C25 C 0.7904(2) -0.1068(2) 0.16490(19)
C26 C 1.0856(3) 0.1499(3) 0.1795(2)
H12 H 1.1439 0.1252 0.1564
C27 C 0.9852(3) 0.2311(2) 0.2755(2)
C28 C 0.5902(3) 0.3350(3) 0.0260(2)
C29 C 0.2680(3) 0.3408(3) 0.5599(2)
C30 C 0.6242(3) -0.0734(2) 0.5289(2)
H13 H 0.6221 -0.1108 0.5731
C31 C 0.4335(3) 0.2172(3) 0.0895(2)
C32 C 0.8152(3) 0.4626(2) -0.0123(2)
C33 C 0.8854(3) 0.3538(3) 0.4376(3)
C34 C 0.9336(3) 0.0886(2) 0.0710(2)
H14 H 0.9378 0.0605 0.0293
C35 C 0.5922(3) 0.1514(3) 0.5880(2)
H15 H 0.5832 0.1785 0.6310
C36 C 0.3356(3) 0.1260(3) 0.2015(2)
H16 H 0.2843 0.0857 0.2250
C37 C 0.6752(3) 0.6712(3) 0.2071(2)
H17 H 0.6751 0.7330 0.1937
C38 C 0.6351(3) -0.0668(2) 0.1521(2)
C39 C 0.6017(3) 0.0618(3) 0.5932(2)
H18 H 0.6004 0.0283 0.6389
C40 C 0.6376(3) -0.1091(2) 0.4632(2)
H19 H 0.6429 -0.1706 0.4627
C41 C 1.0127(3) 0.0937(3) 0.0931(2)
H20 H 1.0689 0.0671 0.0681
C42 C 0.7559(3) 0.6234(3) 0.1795(2)
H21 H 0.8112 0.6543 0.1478
C43 C 0.1399(3) 0.2435(3) 0.5177(3)
H22 H 0.0973 0.2106 0.5038
C44 C 0.4603(3) 0.2550(3) 0.0137(2)
H23 H 0.4253 0.2395 -0.0161
C45 C 0.7580(3) 0.5308(3) 0.1970(2)
H24 H 0.8142 0.5019 0.1758
C46 C 0.1885(3) 0.2922(3) 0.6140(2)
H25 H 0.1790 0.2920 0.6652
C47 C 0.8981(3) 0.4462(3) 0.4253(3)
C48 C 0.3568(3) 0.1579(3) 0.1265(3)
H26 H 0.3192 0.1395 0.0997
C49 C 1.0757(3) 0.1961(3) 0.2386(2)
H27 H 1.1276 0.2048 0.2548
C50 C 0.8627(3) 0.3029(3) 0.5103(2)
C51 C 0.2166(3) 0.2895(2) 0.4619(2)
C52 C 0.7511(3) -0.1368(3) 0.0568(2)
H28 H 0.7680 -0.1605 0.0116
C53 C 0.5362(3) 0.3140(3) -0.0184(2)
H29 H 0.5516 0.3396 -0.0688
C54 C 0.8898(3) 0.4881(3) 0.4889(3)
H30 H 0.8982 0.5501 0.4827
C55 C 0.8146(3) -0.1378(2) 0.0961(2)
H31 H 0.8752 -0.1598 0.0761
C56 C 0.6767(3) 0.3929(3) -0.0080(2)
H32 H 0.6896 0.4216 -0.0573
C57 C 0.8625(3) -0.1053(3) 0.2071(2)
H33 H 0.8702 -0.0453 0.2163
H34 H 0.9227 -0.1253 0.1771
H35 H 0.8400 -0.1444 0.2544
C58 C 0.1259(4) 0.2458(3) 0.5928(3)
H36 H 0.0734 0.2156 0.6293
C59 C 0.8488(4) 0.2023(3) 0.5204(3)
H37 H 0.8204 0.1868 0.4845
H38 H 0.8077 0.1815 0.5708
H39 H 0.9096 0.1746 0.5125
C60 C 0.8694(3) 0.4397(4) 0.5611(3)
H40 H 0.8648 0.4685 0.6025
C61 C 0.2316(3) 0.2895(3) 0.3793(2)
H41 H 0.2137 0.3462 0.3581
H42 H 0.1930 0.2424 0.3733
H43 H 0.2976 0.2800 0.3537
C62 C 0.7112(4) 0.5979(3) 0.0120(3)
H44 H 0.6680 0.5819 -0.0132
H45 H 0.7191 0.6620 0.0049
H46 H 0.6857 0.5760 0.0650
C63 C 0.8868(4) 0.6099(3) -0.0589(3)
H47 H 0.8818 0.6720 -0.0642
C64 C 0.9199(4) 0.4960(3) 0.3473(3)
H48 H 0.9750 0.4715 0.3142
H49 H 0.9324 0.5582 0.3477
H50 H 0.8663 0.4904 0.3297
C65 C 0.8564(3) 0.3499(4) 0.5696(3)
H51 H 0.8424 0.3178 0.6179
C66 C 0.5384(3) -0.0264(4) 0.1815(3)
H52 H 0.5053 -0.0564 0.2314
H53 H 0.5021 -0.0333 0.1485
H54 H 0.5466 0.0362 0.1834
C67 C 0.8082(3) 0.5563(3) -0.0212(3)
C68 C 0.3894(2) 0.1527(2) 0.2434(2)
H55 H 0.3718 0.1305 0.2947
C69 C 0.6136(3) 0.0194(2) 0.52941(19)
Na1 Na 0.76031(9) 0.28527(9) 0.31146(8)
Na2 Na 0.62524(10) 0.13159(9) 0.28623(7)
Na3 Na 0.67568(9) 0.32038(9) 0.16545(7)
Na4 Na 0.52587(9) 0.32085(8) 0.34275(7)
C70 C 0.9835(4) 0.4814(4) -0.0796(4)
H56 H 1.0432 0.4570 -0.0978
C71 C 0.9131(4) 0.3238(4) -0.0310(4)
H57 H 0.8693 0.2983 0.0170
H58 H 0.9772 0.3101 -0.0323
H59 H 0.8991 0.2991 -0.0707
C72 C 0.9742(5) 0.5724(5) -0.0892(4)
H60 H 1.0272 0.6094 -0.1164
loop_
_geom_bond_atom_site_label_1
_geom_bond_atom_site_label_2
_geom_bond_site_symmetry_1
_geom_bond_site_symmetry_2
O1 C15 1_555 1_555
O2 C1 1_555 1_555
O3 C4 1_555 1_555
O4 C2 1_555 1_555
N1 C23 1_555 1_555
N2 C9 1_555 1_555
N3 C32 1_555 1_555
N4 C17 1_555 1_555
N5 C20 1_555 1_555
N6 C8 1_555 1_555
N7 C6 1_555 1_555
N8 C7 1_555 1_555
C1 C16 1_555 1_555
C2 C23 1_555 1_555
C3 C32 1_555 1_555
C4 C6 1_555 1_555
C5 H1 1_555 1_555
H2 C5 1_555 1_555
H3 C5 1_555 1_555
C6 C11 1_555 1_555
C7 H4 1_555 1_555
C8 C7 1_555 1_555
C9 H5 1_555 1_555
C10 N2 1_555 1_555
C11 C26 1_555 1_555
C12 C14 1_555 1_555
C13 N8 1_555 1_555
C14 H6 1_555 1_555
C15 C17 1_555 1_555
C16 N6 1_555 1_555
C17 C69 1_555 1_555
C18 C15 1_555 1_555
H7 C18 1_555 1_555
C19 C8 1_555 1_555
H8 C19 1_555 1_555
C20 H9 1_555 1_555
C21 N4 1_555 1_555
C22 H10 1_555 1_555
C23 C31 1_555 1_555
C24 C4 1_555 1_555
H11 C24 1_555 1_555
C25 C10 1_555 1_555
C26 H12 1_555 1_555
C27 N7 1_555 1_555
C28 N1 1_555 1_555
C29 C5 1_555 1_555
C30 H13 1_555 1_555
C31 C44 1_555 1_555
C32 C67 1_555 1_555
C33 N5 1_555 1_555
C34 C24 1_555 1_555
H14 C34 1_555 1_555
C35 C18 1_555 1_555
H15 C35 1_555 1_555
C36 H16 1_555 1_555
C37 C12 1_555 1_555
H17 C37 1_555 1_555
C38 C10 1_555 1_555
C39 C35 1_555 1_555
H18 C39 1_555 1_555
C40 C21 1_555 1_555
H19 C40 1_555 1_555
C41 C11 1_555 1_555
H20 C41 1_555 1_555
C42 C37 1_555 1_555
H21 C42 1_555 1_555
C43 H22 1_555 1_555
C44 H23 1_555 1_555
C45 C1 1_555 1_555
H24 C45 1_555 1_555
C46 C29 1_555 1_555
H25 C46 1_555 1_555
C47 C33 1_555 1_555
C48 C31 1_555 1_555
H26 C48 1_555 1_555
C49 C26 1_555 1_555
H27 C49 1_555 1_555
C50 C33 1_555 1_555
C51 C13 1_555 1_555
C52 C22 1_555 1_555
H28 C52 1_555 1_555
C53 C28 1_555 1_555
H29 C53 1_555 1_555
C54 C47 1_555 1_555
H30 C54 1_555 1_555
C55 C25 1_555 1_555
H31 C55 1_555 1_555
C56 N3 1_555 1_555
H32 C56 1_555 1_555
C57 C25 1_555 1_555
H33 C57 1_555 1_555
H34 C57 1_555 1_555
H35 C57 1_555 1_555
C58 C43 1_555 1_555
H36 C58 1_555 1_555
C59 C50 1_555 1_555
H37 C59 1_555 1_555
H38 C59 1_555 1_555
H39 C59 1_555 1_555
C60 C54 1_555 1_555
H40 C60 1_555 1_555
C61 C51 1_555 1_555
H41 C61 1_555 1_555
H42 C61 1_555 1_555
H43 C61 1_555 1_555
C62 H44 1_555 1_555
H45 C62 1_555 1_555
H46 C62 1_555 1_555
C63 H47 1_555 1_555
C64 C47 1_555 1_555
H48 C64 1_555 1_555
H49 C64 1_555 1_555
H50 C64 1_555 1_555
C65 C50 1_555 1_555
H51 C65 1_555 1_555
C66 C38 1_555 1_555
H52 C66 1_555 1_555
H53 C66 1_555 1_555
H54 C66 1_555 1_555
C67 C62 1_555 1_555
C68 C2 1_555 1_555
H55 C68 1_555 1_555
C69 C30 1_555 1_555
Na1 O1 1_555 1_555
Na2 O1 1_555 1_555
Na3 O2 1_555 1_555
Na4 O1 1_555 1_555
C70 C3 1_555 1_555
H56 C70 1_555 1_555
C71 C3 1_555 1_555
H57 C71 1_555 1_555
H58 C71 1_555 1_555
H59 C71 1_555 1_555
C72 C63 1_555 1_555
H60 C72 1_555 1_555
O2 Na1 1_555 1_555
O2 Na4 1_555 1_555
O3 Na1 1_555 1_555
O3 Na2 1_555 1_555
O3 Na3 1_555 1_555
O4 Na2 1_555 1_555
O4 Na3 1_555 1_555
O4 Na4 1_555 1_555
N1 Na3 1_555 1_555
N2 Na2 1_555 1_555
N3 Na3 1_555 1_555
N4 Na2 1_555 1_555
N5 Na1 1_555 1_555
N6 Na4 1_555 1_555
N7 Na1 1_555 1_555
N8 Na4 1_555 1_555
C9 C21 1_555 1_555
C12 C16 1_555 1_555
C13 C29 1_555 1_555
C14 C19 1_555 1_555
C20 C27 1_555 1_555
C22 C38 1_555 1_555
C27 C49 1_555 1_555
C28 C56 1_555 1_555
C30 C40 1_555 1_555
C34 C41 1_555 1_555
C36 C48 1_555 1_555
C36 C68 1_555 1_555
C39 C69 1_555 1_555
C42 C45 1_555 1_555
C43 C51 1_555 1_555
C44 C53 1_555 1_555
C46 C58 1_555 1_555
C52 C55 1_555 1_555
C60 C65 1_555 1_555
C63 C67 1_555 1_555
C70 C72 1_555 1_555

#END
