
#######################################################################
#
#                 Cambridge Crystallographic Data Centre
#                                CCDC 
#
#######################################################################
#
# If this CIF has been generated from an entry in the Cambridge 
# Structural Database, then it will include bibliographic, chemical, 
# crystal, experimental, refinement or atomic coordinate data resulting 
# from the CCDC's data processing and validation procedures.
#
#######################################################################

data_ERISON
_chemical_formula_moiety         'C26 H22 O1 P1 1+,C4 H3 O4 1-'
_chemical_name_systematic        
'Benzoylmethyltriphenylphosphonium hydrogen maleate'
_symmetry_cell_setting           orthorhombic
_symmetry_space_group_name_H-M   'P b c a'
_symmetry_Int_Tables_number      61
_space_group_name_Hall           '-P 2ac 2ab'
loop_
_symmetry_equiv_pos_site_id
_symmetry_equiv_pos_as_xyz
1 x,y,z
2 1/2+x,y,1/2-z
3 x,1/2-y,1/2+z
4 1/2-x,1/2+y,z
5 -x,-y,-z
6 1/2-x,-y,1/2+z
7 -x,1/2+y,1/2-z
8 1/2+x,1/2-y,-z
_cell_length_a                   10.5582(5)
_cell_length_b                   19.5961(8)
_cell_length_c                   24.0030(11)
_cell_angle_alpha                90
_cell_angle_beta                 90
_cell_angle_gamma                90
_cell_volume                     4966.21
_exptl_crystal_colour            colorless
_exptl_crystal_description       block
_chemical_melting_point          '413 K'
_cell_formula_units_Z            8
_exptl_crystal_recrystallization_method methanol
loop_
_atom_site_label
_atom_site_type_symbol
_atom_site_fract_x
_atom_site_fract_y
_atom_site_fract_z
P1 P 0.07926(4) 0.08182(2) 0.668013(17)
C1 C 0.12537(15) -0.05703(8) 0.79639(7)
C2 C 0.20776(17) -0.05985(10) 0.84150(8)
H1 H 0.277(2) -0.0297(11) 0.8435(9)
C3 C 0.18939(18) -0.10682(11) 0.88364(8)
H2 H 0.246(2) -0.1095(10) 0.9141(9)
C4 C 0.08858(19) -0.15212(9) 0.88077(8)
H3 H 0.0750(18) -0.1864(9) 0.9096(8)
C5 C 0.0062(2) -0.14953(10) 0.83594(8)
H4 H -0.067(2) -0.1793(11) 0.8332(10)
C6 C 0.02354(17) -0.10196(9) 0.79383(8)
H5 H -0.0353(18) -0.1012(9) 0.7623(8)
C7 C 0.14983(14) -0.00508(8) 0.75298(7)
C8 C 0.05025(15) 0.00587(8) 0.70838(7)
H6 H -0.0353(18) 0.0105(9) 0.7243(8)
H7 H 0.047(2) -0.0345(11) 0.6831(9)
C9 C -0.05591(15) 0.09462(8) 0.62374(7)
C10 C -0.0781(2) 0.04718(10) 0.58145(8)
H8 H -0.023(2) 0.0102(11) 0.5773(9)
C11 C -0.1790(2) 0.05661(12) 0.54539(10)
H9 H -0.192(2) 0.0248(12) 0.5178(10)
C12 C -0.25651(19) 0.11300(12) 0.55126(9)
H10 H -0.325(2) 0.1194(11) 0.5241(10)
C13 C -0.2350(2) 0.15959(13) 0.59294(10)
H11 H -0.290(2) 0.1981(12) 0.5972(11)
C14 C -0.13463(18) 0.15106(11) 0.62964(8)
H12 H -0.119(2) 0.1856(12) 0.6584(10)
C15 C 0.09654(15) 0.15199(8) 0.71576(7)
C16 C 0.01554(18) 0.15627(10) 0.76133(9)
H13 H -0.051(2) 0.1243(10) 0.7644(9)
C17 C 0.03165(19) 0.20852(11) 0.79980(10)
H14 H -0.023(2) 0.2102(12) 0.8326(11)
C18 C 0.12595(19) 0.25625(10) 0.79270(9)
H15 H 0.1354(19) 0.2917(10) 0.8194(9)
C19 C 0.20586(19) 0.25250(9) 0.74757(9)
H16 H 0.269(2) 0.2850(11) 0.7412(10)
C20 C 0.19149(17) 0.20035(9) 0.70861(8)
H17 H 0.249(2) 0.1979(10) 0.6772(9)
C21 C 0.21235(14) 0.07272(8) 0.62209(7)
C22 C 0.22264(18) 0.11835(9) 0.57764(7)
H18 H 0.1616(19) 0.1536(10) 0.5732(8)
C23 C 0.3218(2) 0.11160(9) 0.53999(8)
H19 H 0.326(2) 0.1429(11) 0.5081(9)
C24 C 0.40862(18) 0.05970(10) 0.54626(8)
H20 H 0.477(2) 0.0556(11) 0.5197(10)
C25 C 0.39807(18) 0.01380(11) 0.58970(8)
H21 H 0.458(2) -0.0218(11) 0.5930(9)
C26 C 0.29967(16) 0.01984(9) 0.62795(8)
H22 H 0.2923(18) -0.0142(10) 0.6578(8)
O1 O 0.24667(11) 0.02886(6) 0.75232(5)
C27 C 1.00604(18) 0.21784(9) 0.48101(8)
C28 C 0.87176(18) 0.21626(9) 0.46199(8)
H23 H 0.8221(18) 0.2422(10) 0.4850(9)
C29 C 0.81817(18) 0.18673(9) 0.41798(8)
H24 H 0.729(2) 0.1930(10) 0.4135(9)
C30 C 0.87435(17) 0.14243(9) 0.37351(8)
O2 O 1.08911(13) 0.18012(8) 0.45561(7)
H25 H 1.043(3) 0.1521(16) 0.4232(14)
O3 O 1.03557(14) 0.25455(8) 0.51998(7)
O4 O 0.80859(13) 0.12865(7) 0.33260(6)
O5 O 0.98781(12) 0.11955(7) 0.37990(6)
loop_
_geom_bond_atom_site_label_1
_geom_bond_atom_site_label_2
_geom_bond_site_symmetry_1
_geom_bond_site_symmetry_2
P1 C8 1_555 1_555
C1 C2 1_555 1_555
C2 H1 1_555 1_555
C3 C2 1_555 1_555
H2 C3 1_555 1_555
C4 C3 1_555 1_555
H3 C4 1_555 1_555
C5 C4 1_555 1_555
H4 C5 1_555 1_555
C6 C1 1_555 1_555
H5 C6 1_555 1_555
C7 C1 1_555 1_555
C8 C7 1_555 1_555
H6 C8 1_555 1_555
H7 C8 1_555 1_555
C9 P1 1_555 1_555
C10 C9 1_555 1_555
H8 C10 1_555 1_555
C11 C10 1_555 1_555
H9 C11 1_555 1_555
C12 C11 1_555 1_555
H10 C12 1_555 1_555
C13 C12 1_555 1_555
H11 C13 1_555 1_555
C14 C9 1_555 1_555
H12 C14 1_555 1_555
C15 P1 1_555 1_555
C16 C15 1_555 1_555
H13 C16 1_555 1_555
C17 C16 1_555 1_555
H14 C17 1_555 1_555
C18 C17 1_555 1_555
H15 C18 1_555 1_555
C19 C18 1_555 1_555
H16 C19 1_555 1_555
C20 C15 1_555 1_555
H17 C20 1_555 1_555
C21 P1 1_555 1_555
C22 C21 1_555 1_555
H18 C22 1_555 1_555
C23 C22 1_555 1_555
H19 C23 1_555 1_555
C24 C23 1_555 1_555
H20 C24 1_555 1_555
C25 C24 1_555 1_555
H21 C25 1_555 1_555
C26 C21 1_555 1_555
H22 C26 1_555 1_555
C27 C28 1_555 1_555
C28 H23 1_555 1_555
C29 C28 1_555 1_555
H24 C29 1_555 1_555
C30 C29 1_555 1_555
O1 C7 1_555 1_555
O2 C27 1_555 1_555
H25 O2 1_555 1_555
O3 C27 1_555 1_555
O4 C30 1_555 1_555
O5 C30 1_555 1_555
C5 C6 1_555 1_555
C13 C14 1_555 1_555
C19 C20 1_555 1_555
C25 C26 1_555 1_555

#END
