
#######################################################################
#
#                 Cambridge Crystallographic Data Centre
#                                CCDC 
#
#######################################################################
#
# If this CIF has been generated from an entry in the Cambridge 
# Structural Database, then it will include bibliographic, chemical, 
# crystal, experimental, refinement or atomic coordinate data resulting 
# from the CCDC's data processing and validation procedures.
#
#######################################################################

data_ERISII
_chemical_formula_moiety         'C21 H28 O5,H2 O1'
_chemical_name_systematic        
'11,20-Dihydroxy-3-oxopregna-1,4-dien-21-oic acid monohydrate'
_symmetry_cell_setting           orthorhombic
_symmetry_space_group_name_H-M   'P 21 21 21'
_symmetry_Int_Tables_number      19
_space_group_name_Hall           'P 2ac 2ab'
loop_
_symmetry_equiv_pos_site_id
_symmetry_equiv_pos_as_xyz
1 x,y,z
2 1/2-x,-y,1/2+z
3 -x,1/2+y,1/2-z
4 1/2+x,1/2-y,-z
_cell_length_a                   11.801(2)
_cell_length_b                   12.526(3)
_cell_length_c                   12.884(3)
_cell_angle_alpha                90
_cell_angle_beta                 90
_cell_angle_gamma                90
_cell_volume                     1904.5
_exptl_crystal_colour            colorless
_exptl_crystal_description       block
_cell_formula_units_Z            4
_exptl_crystal_recrystallization_method methanol/acetone
loop_
_atom_site_label
_atom_site_type_symbol
_atom_site_fract_x
_atom_site_fract_y
_atom_site_fract_z
O1 O 0.30262(15) 0.07528(11) 0.89120(11)
O2 O 0.06804(6) 0.10188(5) 0.41310(5)
H1 H 0.0958 0.0443 0.3967
O3 O 0.15678(6) 0.53818(5) 0.12731(5)
H2 H 0.1016 0.5765 0.1169
O4 O 0.29729(6) 0.36129(5) 0.13021(5)
H3 H 0.3291 0.3118 0.1004
O5 O 0.14172(6) 0.27905(5) 0.07258(5)
C1 C 0.17278(6) 0.04907(5) 0.64360(5)
H6 H 0.1791 0.0060 0.5851
C2 C 0.2366(2) 0.02545(16) 0.72564(16)
H7 H 0.2822 -0.0351 0.7241
C3 C 0.2363(2) 0.09259(17) 0.81752(17)
C4 C 0.1569(2) 0.18171(17) 0.82009(17)
H8 H 0.1530 0.2240 0.8793
C5 C 0.0899(2) 0.20402(17) 0.73978(16)
C6 C 0.0106(2) 0.29859(16) 0.74117(17)
H9 H 0.0172 0.3356 0.8070
H10 H -0.0670 0.2740 0.7340
C7 C 0.0390(2) 0.37501(17) 0.65283(16)
H11 H 0.1116 0.4084 0.6669
H12 H -0.0178 0.4309 0.6503
C8 C 0.0444(2) 0.31972(16) 0.54711(16)
H13 H -0.0314 0.2940 0.5284
C9 C 0.12720(19) 0.22354(16) 0.55283(15)
H14 H 0.1988 0.2540 0.5775
C10 C 0.09127(19) 0.14101(16) 0.63966(16)
C11 C 0.15618(19) 0.17277(15) 0.44709(16)
H15 H 0.2245 0.1295 0.4572
C12 C 0.18324(19) 0.25475(16) 0.36265(16)
H16 H 0.1871 0.2185 0.2962
H17 H 0.2573 0.2853 0.3764
C13 C 0.09600(19) 0.34550(16) 0.35520(16)
C14 C 0.0867(2) 0.39593(16) 0.46352(16)
H18 H 0.1635 0.4173 0.4837
C15 C 0.0199(2) 0.49927(16) 0.44477(17)
H19 H 0.0346 0.5513 0.4989
H20 H -0.0609 0.4854 0.4416
C16 C 0.0655(2) 0.53830(17) 0.33857(17)
H21 H 0.1135 0.6004 0.3478
H22 H 0.0032 0.5574 0.2930
C17 C 0.1345(2) 0.44450(16) 0.29164(16)
H23 H 0.2148 0.4572 0.3068
C18 C -0.0186(2) 0.30495(17) 0.31488(17)
H24 H -0.0077 0.2683 0.2502
H25 H -0.0687 0.3644 0.3046
H26 H -0.0511 0.2568 0.3647
C19 C -0.0274(2) 0.08996(18) 0.62344(17)
H27 H -0.0211 0.0305 0.5768
H28 H -0.0780 0.1421 0.5946
H29 H -0.0564 0.0657 0.6889
C20 C 0.1205(2) 0.43974(17) 0.17282(16)
H30 H 0.0400 0.4298 0.1570
C21 C 0.1867(2) 0.35143(18) 0.12036(17)
O6 O 0.41158(6) 0.22413(5) 1.01436(5)
H4 H 0.3671 0.1799 0.9832
H5 H 0.4755 0.2338 0.9842
loop_
_geom_bond_atom_site_label_1
_geom_bond_atom_site_label_2
_geom_bond_site_symmetry_1
_geom_bond_site_symmetry_2
O1 C3 1_555 1_555
O2 H1 1_555 1_555
O3 H2 1_555 1_555
O4 H3 1_555 1_555
O5 C21 1_555 1_555
O6 H4 1_555 1_555
H5 O6 1_555 1_555
C1 H6 1_555 1_555
C2 C1 1_555 1_555
H7 C2 1_555 1_555
C3 C2 1_555 1_555
C4 C3 1_555 1_555
H8 C4 1_555 1_555
C5 C4 1_555 1_555
C6 C5 1_555 1_555
H9 C6 1_555 1_555
H10 C6 1_555 1_555
C7 C6 1_555 1_555
H11 C7 1_555 1_555
H12 C7 1_555 1_555
C8 C7 1_555 1_555
H13 C8 1_555 1_555
C9 C8 1_555 1_555
H14 C9 1_555 1_555
C10 C1 1_555 1_555
C11 O2 1_555 1_555
H15 C11 1_555 1_555
C12 C11 1_555 1_555
H16 C12 1_555 1_555
H17 C12 1_555 1_555
C13 C12 1_555 1_555
C14 C8 1_555 1_555
H18 C14 1_555 1_555
C15 C14 1_555 1_555
H19 C15 1_555 1_555
H20 C15 1_555 1_555
C16 C15 1_555 1_555
H21 C16 1_555 1_555
H22 C16 1_555 1_555
C17 C13 1_555 1_555
H23 C17 1_555 1_555
C18 C13 1_555 1_555
H24 C18 1_555 1_555
H25 C18 1_555 1_555
H26 C18 1_555 1_555
C19 C10 1_555 1_555
H27 C19 1_555 1_555
H28 C19 1_555 1_555
H29 C19 1_555 1_555
C20 O3 1_555 1_555
H30 C20 1_555 1_555
C21 O4 1_555 1_555
C5 C10 1_555 1_555
C9 C10 1_555 1_555
C9 C11 1_555 1_555
C13 C14 1_555 1_555
C16 C17 1_555 1_555
C17 C20 1_555 1_555
C20 C21 1_555 1_555

#END
