
#######################################################################
#
#                 Cambridge Crystallographic Data Centre
#                                CCDC 
#
#######################################################################
#
# If this CIF has been generated from an entry in the Cambridge 
# Structural Database, then it will include bibliographic, chemical, 
# crystal, experimental, refinement or atomic coordinate data resulting 
# from the CCDC's data processing and validation procedures.
#
#######################################################################

data_ERITAB
_chemical_formula_moiety         'C14 H10 F1 N3 O1'
_chemical_name_systematic        
5-Fluoro-3-(2-phenylhydrazinylidene)indolin-2-one
_symmetry_cell_setting           triclinic
_symmetry_space_group_name_H-M   'P -1'
_symmetry_Int_Tables_number      2
_space_group_name_Hall           '-P 1'
loop_
_symmetry_equiv_pos_site_id
_symmetry_equiv_pos_as_xyz
1 x,y,z
2 -x,-y,-z
_cell_length_a                   6.4840(13)
_cell_length_b                   8.7250(17)
_cell_length_c                   11.672(2)
_cell_angle_alpha                69.98(3)
_cell_angle_beta                 75.43(3)
_cell_angle_gamma                88.33(3)
_cell_volume                     599.286
_exptl_crystal_colour            yellow
_exptl_crystal_description       block
_chemical_melting_point          '543 K'
_cell_formula_units_Z            2
_exptl_crystal_recrystallization_method 'acetone/ethyl acetate'
loop_
_atom_site_label
_atom_site_type_symbol
_atom_site_fract_x
_atom_site_fract_y
_atom_site_fract_z
O1 O -0.3760(2) 0.63511(17) 1.06116(14)
F1 F 0.5373(2) 0.7060(2) 0.55092(14)
N1 N -0.2569(2) 0.5813(2) 0.87432(15)
H1 H -0.3724 0.5353 0.8743
C1 C -0.2376(3) 0.6408(2) 0.96456(18)
N2 N 0.0754(2) 0.77749(18) 0.98762(14)
C2 C -0.0150(3) 0.7110(2) 0.92643(17)
N3 N -0.0413(2) 0.78890(19) 1.09465(15)
H2 H -0.1751 0.7592 1.1191
C3 C 0.2929(3) 0.7207(2) 0.73265(18)
H3 H 0.3971 0.7736 0.7502
C4 C 0.3360(3) 0.6740(3) 0.6286(2)
C5 C 0.1875(4) 0.5940(3) 0.5986(2)
H4 H 0.2252 0.5640 0.5273
C6 C -0.0170(4) 0.5592(3) 0.6761(2)
H5 H -0.1202 0.5065 0.6576
C7 C -0.0645(3) 0.6043(2) 0.78105(18)
C8 C 0.0879(3) 0.6855(2) 0.81030(17)
C9 C 0.0503(3) 0.8486(2) 1.16853(17)
C10 C 0.2649(3) 0.8988(2) 1.13266(19)
H6 H 0.3526 0.8928 1.0580
C11 C 0.3471(4) 0.9576(3) 1.2088(2)
H7 H 0.4906 0.9929 1.1841
C12 C 0.2208(4) 0.9652(3) 1.3206(2)
H8 H 0.2783 1.0050 1.3711
C13 C 0.0094(4) 0.9132(3) 1.3566(2)
H9 H -0.0764 0.9169 1.4324
C14 C -0.0778(3) 0.8555(2) 1.28156(19)
H10 H -0.2218 0.8213 1.3066
loop_
_geom_bond_atom_site_label_1
_geom_bond_atom_site_label_2
_geom_bond_site_symmetry_1
_geom_bond_site_symmetry_2
O1 C1 1_555 1_555
F1 C4 1_555 1_555
N1 H1 1_555 1_555
C1 N1 1_555 1_555
N2 C2 1_555 1_555
C2 C1 1_555 1_555
N3 N2 1_555 1_555
H2 N3 1_555 1_555
C3 H3 1_555 1_555
C4 C3 1_555 1_555
C5 C4 1_555 1_555
H4 C5 1_555 1_555
C6 C5 1_555 1_555
H5 C6 1_555 1_555
C7 N1 1_555 1_555
C8 C2 1_555 1_555
C9 N3 1_555 1_555
C10 C9 1_555 1_555
H6 C10 1_555 1_555
C11 C10 1_555 1_555
H7 C11 1_555 1_555
C12 C11 1_555 1_555
H8 C12 1_555 1_555
C13 C12 1_555 1_555
H9 C13 1_555 1_555
C14 C9 1_555 1_555
H10 C14 1_555 1_555
C3 C8 1_555 1_555
C6 C7 1_555 1_555
C7 C8 1_555 1_555
C13 C14 1_555 1_555

#END
