
#######################################################################
#
#                 Cambridge Crystallographic Data Centre
#                                CCDC 
#
#######################################################################
#
# If this CIF has been generated from an entry in the Cambridge 
# Structural Database, then it will include bibliographic, chemical, 
# crystal, experimental, refinement or atomic coordinate data resulting 
# from the CCDC's data processing and validation procedures.
#
#######################################################################

data_ERIWIN
_chemical_compound_source        
'fungal mutant from the diethyl sulfate (DES) mutagenesis of marine-derived Penicillium purpurogenum G59'
_chemical_name_common            'Penicimutamide A'
_chemical_formula_moiety         'C21 H23 N3 O3'
_chemical_name_systematic        
(1S,11R,13R,19S)-10,10-dimethyl-22-oxa-8,17,20-triazahexacyclo[17.3.1.0^1,9^.0^2,7^.0^11,19^.0^13,17^]tricosa-2,4,6,8-tetraene-18,21-dione
_symmetry_cell_setting           orthorhombic
_symmetry_space_group_name_H-M   'P 21 21 21'
_symmetry_Int_Tables_number      19
_space_group_name_Hall           'P 2ac 2ab'
loop_
_symmetry_equiv_pos_site_id
_symmetry_equiv_pos_as_xyz
1 x,y,z
2 1/2-x,-y,1/2+z
3 1/2+x,1/2-y,-z
4 -x,1/2+y,1/2-z
_cell_length_a                   11.3978(10)
_cell_length_b                   14.6540(12)
_cell_length_c                   21.3097(19)
_cell_angle_alpha                90
_cell_angle_beta                 90
_cell_angle_gamma                90
_cell_volume                     3559.22
_exptl_crystal_colour            colorless
_exptl_crystal_description       needles
_chemical_melting_point          '441-443 K'
_cell_formula_units_Z            8
loop_
_atom_site_label
_atom_site_type_symbol
_atom_site_fract_x
_atom_site_fract_y
_atom_site_fract_z
O1 O 0.0804(2) 0.37393(18) 0.11276(12)
O2 O 0.22680(19) 0.30043(19) 0.15663(11)
C1 C 0.5334(4) 0.2526(5) 0.3170(2)
H1 H 0.5791 0.2499 0.3542
N1 N 0.3196(2) 0.1965(2) -0.07527(13)
C2 C 0.2415(3) 0.0884(3) 0.11026(17)
C3 C 0.2746(3) 0.1025(3) -0.06990(17)
H2 H 0.3428 0.0595 -0.0687
C4 C 0.1074(3) 0.0934(3) 0.12007(17)
H3 H 0.0828 0.1575 0.1213
H4 H 0.0867 0.0637 0.1598
H5 H 0.0676 0.0623 0.0854
C5 C 0.3410(3) 0.2216(3) -0.14099(16)
H6 H 0.4258 0.2307 -0.1489
H7 H 0.2985 0.2783 -0.1521
C6 C 0.4649(3) 0.3404(3) 0.22726(19)
H8 H 0.4615 0.3954 0.2038
O3 O 0.3791(2) 0.33259(18) -0.03857(12)
C7 C 0.2803(3) 0.1241(3) 0.04406(16)
H9 H 0.3594 0.0965 0.0366
C8 C 0.2043(3) 0.0909(3) -0.01027(17)
H10 H 0.1832 0.0260 -0.0043
H11 H 0.1311 0.1272 -0.0126
N2 N 0.1908(2) 0.2823(2) 0.05002(13)
H12 H 0.1583 0.3033 0.0166
C9 C 0.2992(3) 0.2282(2) 0.03889(16)
C10 C 0.3378(3) 0.2558(2) -0.02886(16)
C11 C 0.2788(3) -0.0117(3) 0.11594(18)
H13 H 0.2576 -0.0347 0.1576
H14 H 0.3639 -0.0164 0.1102
H15 H 0.2389 -0.0479 0.0837
C12 C 0.3891(3) 0.2586(3) 0.08713(16)
H16 H 0.4616 0.2217 0.0835
H17 H 0.4095 0.3236 0.0810
N3 N 0.3457(3) 0.1095(3) 0.21179(14)
C13 C 0.3039(3) 0.1431(3) 0.16011(16)
C14 C 0.4058(3) 0.2626(3) 0.20796(17)
C15 C 0.1621(3) 0.3218(2) 0.10528(16)
C16 C 0.2939(4) 0.1401(3) -0.17851(18)
H18 H 0.2508 0.1609 -0.2162
H19 H 0.3586 0.0993 -0.1917
C17 C 0.4088(3) 0.1827(3) 0.24221(17)
C18 C 0.4718(4) 0.1746(4) 0.29779(19)
H20 H 0.4731 0.1196 0.3214
C19 C 0.5298(4) 0.3340(4) 0.2830(2)
H21 H 0.5718 0.3857 0.2978
C20 C 0.2118(4) 0.0917(4) -0.13282(18)
H22 H 0.2025 0.0265 -0.1440
H23 H 0.1336 0.1211 -0.1320
C21 C 0.3324(3) 0.2444(3) 0.15080(17)
O4 O 0.2588(2) 0.56990(19) 0.10808(11)
O5 O 0.0956(2) 0.40251(18) -0.04943(11)
C22 C 0.2339(3) 0.6309(2) -0.05283(15)
H24 H 0.1609 0.6552 -0.0728
N4 N 0.1782(2) 0.7793(2) 0.08238(14)
O6 O 0.4085(2) 0.47581(18) 0.10025(12)
C23 C 0.2797(3) 0.7089(3) -0.00868(17)
N5 N 0.1727(2) 0.4852(2) -0.12840(13)
C24 C 0.0865(3) 0.6541(3) 0.13157(16)
C25 C 0.1345(3) 0.4216(3) -0.17753(17)
H25 H 0.0525 0.4343 -0.1902
H26 H 0.1399 0.3577 -0.1628
N6 N 0.2963(2) 0.4975(2) 0.01315(13)
H27 H 0.3247 0.4493 -0.0041
C26 C 0.3254(3) 0.5112(3) 0.07361(17)
C27 C -0.0223(3) 0.7588(3) 0.22123(17)
H28 H -0.0586 0.7936 0.2534
C28 C 0.1614(3) 0.6186(3) 0.07894(16)
C29 C 0.3159(3) 0.6071(3) -0.10680(16)
H29 H 0.3513 0.6633 -0.1241
H30 H 0.3798 0.5670 -0.0916
C30 C 0.1055(3) 0.7481(3) 0.13364(16)
C31 C 0.3124(3) 0.5046(3) -0.20684(17)
H31 H 0.3791 0.4710 -0.1882
H32 H 0.3422 0.5452 -0.2404
C32 C 0.2195(4) 0.4386(3) -0.23247(18)
H33 H 0.2563 0.3807 -0.2462
H34 H 0.1777 0.4660 -0.2686
C33 C 0.2084(3) 0.7080(3) 0.05129(16)
C34 C 0.2462(3) 0.5588(3) -0.15699(16)
H35 H 0.1937 0.6040 -0.1782
C35 C 0.1032(3) 0.5595(3) 0.02943(15)
H36 H 0.0356 0.5917 0.0105
H37 H 0.0751 0.5016 0.0481
C36 C 0.0528(3) 0.8023(3) 0.17920(17)
H38 H 0.0674 0.8660 0.1816
C37 C -0.0450(4) 0.6670(3) 0.21726(18)
H39 H -0.1000 0.6402 0.2452
C38 C 0.0115(3) 0.6123(3) 0.17260(17)
H40 H -0.0018 0.5483 0.1709
C39 C 0.1971(3) 0.5408(2) -0.01992(16)
C40 C 0.1514(3) 0.4704(2) -0.06806(17)
C41 C 0.2635(3) 0.8011(3) -0.04204(17)
H41 H 0.3076 0.8009 -0.0815
H42 H 0.2924 0.8502 -0.0150
H43 H 0.1800 0.8108 -0.0509
C42 C 0.4116(3) 0.6988(3) 0.00791(18)
H44 H 0.4236 0.6422 0.0316
H45 H 0.4366 0.7509 0.0334
H46 H 0.4579 0.6969 -0.0308
loop_
_geom_bond_atom_site_label_1
_geom_bond_atom_site_label_2
_geom_bond_site_symmetry_1
_geom_bond_site_symmetry_2
O1 C15 1_555 1_555
O2 C15 1_555 1_555
C1 H1 1_555 1_555
N1 C3 1_555 1_555
C2 C4 1_555 1_555
C3 H2 1_555 1_555
C4 H3 1_555 1_555
H4 C4 1_555 1_555
H5 C4 1_555 1_555
C5 N1 1_555 1_555
H6 C5 1_555 1_555
H7 C5 1_555 1_555
C6 H8 1_555 1_555
O3 C10 1_555 1_555
C7 C2 1_555 1_555
H9 C7 1_555 1_555
C8 C3 1_555 1_555
H10 C8 1_555 1_555
H11 C8 1_555 1_555
N2 H12 1_555 1_555
C9 C7 1_555 1_555
C10 N1 1_555 1_555
C11 C2 1_555 1_555
H13 C11 1_555 1_555
H14 C11 1_555 1_555
H15 C11 1_555 1_555
C12 C9 1_555 1_555
H16 C12 1_555 1_555
H17 C12 1_555 1_555
N3 C13 1_555 1_555
C13 C2 1_555 1_555
C14 C6 1_555 1_555
C15 N2 1_555 1_555
C16 C5 1_555 1_555
H18 C16 1_555 1_555
H19 C16 1_555 1_555
C17 N3 1_555 1_555
C18 C1 1_555 1_555
H20 C18 1_555 1_555
C19 C1 1_555 1_555
H21 C19 1_555 1_555
C20 C3 1_555 1_555
H22 C20 1_555 1_555
H23 C20 1_555 1_555
C21 O2 1_555 1_555
O4 C26 1_555 1_555
O5 C40 1_555 1_555
C22 H24 1_555 1_555
N4 C30 1_555 1_555
O6 C26 1_555 1_555
C23 C22 1_555 1_555
N5 C25 1_555 1_555
C24 C28 1_555 1_555
C25 H25 1_555 1_555
H26 C25 1_555 1_555
N6 H27 1_555 1_555
C26 N6 1_555 1_555
C27 H28 1_555 1_555
C28 O4 1_555 1_555
C29 C22 1_555 1_555
H29 C29 1_555 1_555
H30 C29 1_555 1_555
C30 C24 1_555 1_555
C31 H31 1_555 1_555
H32 C31 1_555 1_555
C32 C25 1_555 1_555
H33 C32 1_555 1_555
H34 C32 1_555 1_555
C33 N4 1_555 1_555
C34 N5 1_555 1_555
H35 C34 1_555 1_555
C35 C28 1_555 1_555
H36 C35 1_555 1_555
H37 C35 1_555 1_555
C36 C27 1_555 1_555
H38 C36 1_555 1_555
C37 C27 1_555 1_555
H39 C37 1_555 1_555
C38 C24 1_555 1_555
H40 C38 1_555 1_555
C39 C22 1_555 1_555
C40 N5 1_555 1_555
C41 C23 1_555 1_555
H41 C41 1_555 1_555
H42 C41 1_555 1_555
H43 C41 1_555 1_555
C42 C23 1_555 1_555
H44 C42 1_555 1_555
H45 C42 1_555 1_555
H46 C42 1_555 1_555
C6 C19 1_555 1_555
C7 C8 1_555 1_555
N2 C9 1_555 1_555
C9 C10 1_555 1_555
C12 C21 1_555 1_555
C13 C21 1_555 1_555
C14 C17 1_555 1_555
C14 C21 1_555 1_555
C16 C20 1_555 1_555
C17 C18 1_555 1_555
C23 C33 1_555 1_555
N6 C39 1_555 1_555
C28 C33 1_555 1_555
C29 C34 1_555 1_555
C30 C36 1_555 1_555
C31 C32 1_555 1_555
C31 C34 1_555 1_555
C35 C39 1_555 1_555
C37 C38 1_555 1_555
C39 C40 1_555 1_555

#END
