
#######################################################################
#
#                 Cambridge Crystallographic Data Centre
#                                CCDC 
#
#######################################################################
#
# If this CIF has been generated from an entry in the Cambridge 
# Structural Database, then it will include bibliographic, chemical, 
# crystal, experimental, refinement or atomic coordinate data resulting 
# from the CCDC's data processing and validation procedures.
#
#######################################################################

data_ERIXAF
_chemical_formula_moiety         'C21 H22 N2 O8'
_chemical_name_systematic        
3,9-Dimethyl-3,9-bis(4-nitrophenyl)-2,4,8,10-tetraoxaspiro[5.5]undecane
_symmetry_cell_setting           triclinic
_symmetry_space_group_name_H-M   'P -1'
_symmetry_Int_Tables_number      2
_space_group_name_Hall           '-P 1'
loop_
_symmetry_equiv_pos_site_id
_symmetry_equiv_pos_as_xyz
1 x,y,z
2 -x,-y,-z
_cell_length_a                   7.4215(12)
_cell_length_b                   11.8790(18)
_cell_length_c                   13.522(3)
_cell_angle_alpha                115.280(4)
_cell_angle_beta                 94.426(4)
_cell_angle_gamma                103.444(3)
_cell_volume                     1027.08
_exptl_crystal_colour            colorless
_exptl_crystal_description       block
_cell_formula_units_Z            2
loop_
_atom_site_label
_atom_site_type_symbol
_atom_site_fract_x
_atom_site_fract_y
_atom_site_fract_z
N1 N 1.2247(3) 0.6344(2) 0.63022(16)
N2 N 0.1620(3) 0.14798(18) -0.42929(16)
O1 O 1.2782(3) 0.5766(2) 0.67765(15)
O2 O 1.1755(3) 0.73336(19) 0.67867(14)
O3 O 0.2195(3) 0.18113(19) -0.49758(15)
O4 O -0.0012(2) 0.13861(17) -0.41184(15)
O5 O 1.2135(2) 0.31399(14) 0.10612(12)
O6 O 1.1156(2) 0.48954(14) 0.11022(12)
O7 O 0.86957(19) 0.10427(13) -0.16096(12)
O8 O 0.6406(2) 0.06651(14) -0.06059(12)
C1 C 1.2214(3) 0.5840(2) 0.51053(18)
C2 C 1.2715(3) 0.4717(2) 0.45462(19)
H1 H 1.3038 0.4270 0.4920
C3 C 1.2728(3) 0.4269(2) 0.34267(18)
H2 H 1.3069 0.3515 0.3041
C4 C 1.2233(3) 0.4939(2) 0.28631(17)
C5 C 1.1707(3) 0.6059(2) 0.34539(18)
H3 H 1.1353 0.6501 0.3083
C6 C 1.1703(3) 0.6524(2) 0.45800(18)
H4 H 1.1366 0.7278 0.4973
C7 C 1.2414(3) 0.4498(2) 0.16478(17)
C8 C 1.4377(3) 0.5140(2) 0.15867(19)
H5 H 1.5284 0.4917 0.1958
H6 H 1.4615 0.6069 0.1944
H7 H 1.4484 0.4846 0.0819
C9 C 1.0213(3) 0.2363(2) 0.08616(17)
H8 H 0.9863 0.2480 0.1568
H9 H 1.0111 0.1449 0.0421
C10 C 0.9207(3) 0.4212(2) 0.09267(17)
H10 H 0.8431 0.4507 0.0534
H11 H 0.8844 0.4397 0.1641
C11 C 0.8872(3) 0.2752(2) 0.02479(17)
C12 C 0.9199(3) 0.2421(2) -0.09323(17)
H12 H 0.8447 0.2786 -0.1264
H13 H 1.0520 0.2806 -0.0901
C13 C 0.6814(3) 0.2026(2) 0.01311(18)
H14 H 0.6576 0.2144 0.0859
H15 H 0.5984 0.2386 -0.0156
C14 C 0.6799(3) 0.0390(2) -0.16773(17)
C15 C 0.6618(3) -0.1047(2) -0.22524(19)
H16 H 0.7513 -0.1229 -0.1834
H17 H 0.6865 -0.1289 -0.2991
H18 H 0.5360 -0.1537 -0.2298
C16 C 0.5415(3) 0.07090(19) -0.23489(17)
C17 C 0.5956(3) 0.0991(2) -0.31997(17)
H19 H 0.7169 0.1014 -0.3338
C18 C 0.4722(3) 0.1238(2) -0.38398(17)
H20 H 0.5097 0.1443 -0.4398
C19 C 0.2916(3) 0.1176(2) -0.36354(17)
C20 C 0.2302(3) 0.0863(2) -0.28153(18)
H21 H 0.1073 0.0812 -0.2699
C21 C 0.3573(3) 0.0631(2) -0.21751(18)
H22 H 0.3192 0.0419 -0.1621
loop_
_geom_bond_atom_site_label_1
_geom_bond_atom_site_label_2
_geom_bond_site_symmetry_1
_geom_bond_site_symmetry_2
N1 O1 1_555 1_555
N2 O3 1_555 1_555
O2 N1 1_555 1_555
O4 N2 1_555 1_555
O5 C7 1_555 1_555
O6 C7 1_555 1_555
O7 C12 1_555 1_555
O8 C13 1_555 1_555
C1 N1 1_555 1_555
C2 C1 1_555 1_555
H1 C2 1_555 1_555
C3 C2 1_555 1_555
H2 C3 1_555 1_555
C4 C3 1_555 1_555
C5 C4 1_555 1_555
H3 C5 1_555 1_555
C6 C1 1_555 1_555
H4 C6 1_555 1_555
C7 C4 1_555 1_555
C8 C7 1_555 1_555
H5 C8 1_555 1_555
H6 C8 1_555 1_555
H7 C8 1_555 1_555
C9 O5 1_555 1_555
H8 C9 1_555 1_555
H9 C9 1_555 1_555
C10 O6 1_555 1_555
H10 C10 1_555 1_555
H11 C10 1_555 1_555
C11 C9 1_555 1_555
C12 C11 1_555 1_555
H12 C12 1_555 1_555
H13 C12 1_555 1_555
C13 C11 1_555 1_555
H14 C13 1_555 1_555
H15 C13 1_555 1_555
C14 O7 1_555 1_555
C15 C14 1_555 1_555
H16 C15 1_555 1_555
H17 C15 1_555 1_555
H18 C15 1_555 1_555
C16 C14 1_555 1_555
C17 C16 1_555 1_555
H19 C17 1_555 1_555
C18 C17 1_555 1_555
H20 C18 1_555 1_555
C19 N2 1_555 1_555
C20 C19 1_555 1_555
H21 C20 1_555 1_555
C21 C16 1_555 1_555
H22 C21 1_555 1_555
O8 C14 1_555 1_555
C5 C6 1_555 1_555
C10 C11 1_555 1_555
C18 C19 1_555 1_555
C20 C21 1_555 1_555

#END
