
#######################################################################
#
#                 Cambridge Crystallographic Data Centre
#                                CCDC 
#
#######################################################################
#
# If this CIF has been generated from an entry in the Cambridge 
# Structural Database, then it will include bibliographic, chemical, 
# crystal, experimental, refinement or atomic coordinate data resulting 
# from the CCDC's data processing and validation procedures.
#
#######################################################################

data_EROBOC
_chemical_formula_moiety         'C24 H36 Ca2 N4 O14 S2,2(C2 H6 O1 S1)'
_chemical_name_systematic        
"bis((\m~2~-2-(Salicylic acid hydrazono)propionato-N,O,O,O')-diaqua-(dimethylsulfoxide-O)-calcium(ii)) dimethylsulfoxide solvate"
_symmetry_cell_setting           monoclinic
_symmetry_space_group_name_H-M   'P 21/c'
_symmetry_Int_Tables_number      14
_space_group_name_Hall           '-P 2ybc'
loop_
_symmetry_equiv_pos_site_id
_symmetry_equiv_pos_as_xyz
1 x,y,z
2 -x,1/2+y,1/2-z
3 -x,-y,-z
4 x,1/2-y,1/2+z
_cell_length_a                   10.634(3)
_cell_length_b                   17.035(5)
_cell_length_c                   12.183(3)
_cell_angle_alpha                90
_cell_angle_beta                 106.180(5)
_cell_angle_gamma                90
_cell_volume                     2119.54
_exptl_crystal_colour            yellow
_cell_formula_units_Z            2
loop_
_atom_site_label
_atom_site_type_symbol
_atom_site_fract_x
_atom_site_fract_y
_atom_site_fract_z
Ca1 Ca 0.6491(1) -0.0531(1) 0.5992(1)
N1 N 0.8296(5) 0.0396(2) 0.5916(4)
N2 N 0.9538(5) 0.0201(3) 0.6505(4)
O1 O 0.5833(4) 0.0652(2) 0.4769(3)
O2 O 0.6399(5) 0.1818(2) 0.4244(4)
O3 O 0.8710(5) -0.0896(2) 0.7103(4)
O4 O 1.1944(4) 0.0404(2) 0.7013(4)
O5 O 0.6185(6) -0.1698(2) 0.6876(4)
O6 O 0.6891(6) -0.1151(3) 0.4422(4)
O7 O 0.6222(5) 0.0256(2) 0.7490(4)
S1 S 0.6218(3) 0.1137(1) 0.7543(2)
C1 C 0.6652(6) 0.1178(3) 0.4696(5)
C2 C 0.8067(6) 0.1018(3) 0.5275(5)
C3 C 0.9132(7) 0.1571(3) 0.5158(6)
C4 C 0.9663(6) -0.0499(3) 0.7062(5)
C5 C 1.1059(7) -0.0749(3) 0.7603(5)
C6 C 1.2044(7) -0.0270(4) 0.7486(5)
C7 C 1.3340(7) -0.0602(4) 0.7911(6)
C8 C 1.3579(7) -0.1313(4) 0.8440(5)
C9 C 1.2513(8) -0.1716(4) 0.8578(6)
C10 C 1.1243(8) -0.1429(4) 0.8145(6)
C11 C 0.5164(8) 0.1329(5) 0.8476(8)
C12 C 0.7806(11) 0.1417(6) 0.8451(9)
Ca1B Ca 0.3509(1) 0.0531(1) 0.4008(1)
N1B N 0.1704(5) -0.0396(2) 0.4084(4)
N2B N 0.0462(5) -0.0201(3) 0.3495(4)
C4B C 0.0337(6) 0.0499(3) 0.2938(5)
O3B O 0.1290(5) 0.0896(2) 0.2897(4)
O1B O 0.4167(4) -0.0652(2) 0.5231(3)
C1B C 0.3348(6) -0.1178(3) 0.5304(5)
O2B O 0.3601(5) -0.1818(2) 0.5756(4)
C2B C 0.1933(6) -0.1018(3) 0.4725(5)
C3B C 0.0868(7) -0.1571(3) 0.4842(6)
O5B O 0.3815(6) 0.1698(2) 0.3124(4)
O6B O 0.3109(6) 0.1151(3) 0.5578(4)
O7B O 0.3778(5) -0.0256(2) 0.2510(4)
S1B S 0.3782(3) -0.1137(1) 0.2457(2)
C11B C 0.4836(8) -0.1329(5) 0.1524(8)
C12B C 0.2194(11) -0.1417(6) 0.1549(9)
C5B C -0.1059(7) 0.0749(3) 0.2397(5)
C6B C -0.2044(7) 0.0270(4) 0.2514(5)
O4B O -0.1944(4) -0.0404(2) 0.2987(4)
C7B C -0.3340(7) 0.0602(4) 0.2089(6)
C8B C -0.3579(7) 0.1313(4) 0.1560(5)
C9B C -0.2513(8) 0.1716(4) 0.1422(6)
C10B C -0.1243(8) 0.1429(4) 0.1855(6)
O8 O 0.7266(7) 0.7756(3) -0.0900(5)
S2 S 0.7756(8) 0.8264(2) 0.0028(3)
C13 C 0.8490(9) 0.7929(5) 0.1272(7)
C14 C 0.8150(17) 0.9137(5) -0.0132(10)
loop_
_geom_bond_atom_site_label_1
_geom_bond_atom_site_label_2
_geom_bond_site_symmetry_1
_geom_bond_site_symmetry_2
Ca1 N1 1_555 1_555
N1 N2 1_555 1_555
N2 C4 1_555 1_555
O1 Ca1 1_555 1_555
O2 C1 1_555 1_555
O3 Ca1 1_555 1_555
O4 C6 1_555 1_555
O5 Ca1 1_555 1_555
O6 Ca1 1_555 1_555
O7 Ca1 1_555 1_555
S1 O7 1_555 1_555
C1 O1 1_555 1_555
C2 N1 1_555 1_555
C3 C2 1_555 1_555
C4 O3 1_555 1_555
C5 C4 1_555 1_555
C6 C5 1_555 1_555
C7 C6 1_555 1_555
C8 C7 1_555 1_555
C9 C8 1_555 1_555
C10 C5 1_555 1_555
C11 S1 1_555 1_555
C12 S1 1_555 1_555
O8 S2 1_555 1_555
S2 C13 1_555 1_555
C14 S2 1_555 1_555
Ca1B O1 1_555 1_555
N1B Ca1B 1_555 1_555
N2B N1B 1_555 1_555
C4B N2B 1_555 1_555
O3B Ca1B 1_555 1_555
O1B Ca1 1_555 1_555
C1B O1B 1_555 1_555
O2B C1B 1_555 1_555
C2B N1B 1_555 1_555
C3B C2B 1_555 1_555
O5B Ca1B 1_555 1_555
O6B Ca1B 1_555 1_555
O7B Ca1B 1_555 1_555
S1B O7B 1_555 1_555
C11B S1B 1_555 1_555
C12B S1B 1_555 1_555
C5B C4B 1_555 1_555
C6B C5B 1_555 1_555
O4B C6B 1_555 1_555
C7B C6B 1_555 1_555
C8B C7B 1_555 1_555
C9B C8B 1_555 1_555
C10B C5B 1_555 1_555
C1 C2 1_555 1_555
C9 C10 1_555 1_555
Ca1B O1B 1_555 1_555
C4B O3B 1_555 1_555
C1B C2B 1_555 1_555
C9B C10B 1_555 1_555

#END
