
#######################################################################
#
#                 Cambridge Crystallographic Data Centre
#                                CCDC 
#
#######################################################################
#
# If this CIF has been generated from an entry in the Cambridge 
# Structural Database, then it will include bibliographic, chemical, 
# crystal, experimental, refinement or atomic coordinate data resulting 
# from the CCDC's data processing and validation procedures.
#
#######################################################################

data_ERODIZ
_chemical_formula_moiety         'C11 H11 N3'
_chemical_name_systematic        N-(Pyridin-2-ylmethyl)pyridin-2-amine
_symmetry_cell_setting           orthorhombic
_symmetry_space_group_name_H-M   'P c a 21'
_symmetry_Int_Tables_number      29
_space_group_name_Hall           'P 2c -2ac'
loop_
_symmetry_equiv_pos_site_id
_symmetry_equiv_pos_as_xyz
1 x,y,z
2 -x,-y,1/2+z
3 1/2+x,-y,z
4 1/2-x,y,1/2+z
_cell_length_a                   14.5434(14)
_cell_length_b                   5.8198(6)
_cell_length_c                   23.045(2)
_cell_angle_alpha                90
_cell_angle_beta                 90
_cell_angle_gamma                90
_cell_volume                     1950.52
_exptl_crystal_colour            colorless
_exptl_crystal_description       block
_cell_formula_units_Z            8
_exptl_crystal_recrystallization_method methanol
loop_
_atom_site_label
_atom_site_type_symbol
_atom_site_fract_x
_atom_site_fract_y
_atom_site_fract_z
N1 N 0.4906(2) 0.8350(5) 0.22165(14)
N2 N 0.3345(2) 0.2870(6) 0.38908(15)
N3 N 0.4145(3) 0.5075(5) 0.24813(15)
H1 H 0.3691 0.5445 0.2242
C1 C 0.5596(3) 0.9839(7) 0.2290(2)
H2 H 0.5633 1.1100 0.2029
C2 C 0.6248(3) 0.9682(8) 0.2711(2)
H3 H 0.6728 1.0781 0.2741
C3 C 0.6183(3) 0.7845(8) 0.30973(18)
H4 H 0.6617 0.7693 0.3403
C4 C 0.5493(3) 0.6254(7) 0.30356(17)
H5 H 0.5449 0.4978 0.3291
C5 C 0.4854(2) 0.6557(6) 0.25870(16)
C6 C 0.3857(3) 0.3394(6) 0.29081(18)
H6 H 0.4400 0.2470 0.3021
H7 H 0.3411 0.2340 0.2723
C7 C 0.3424(2) 0.4366(6) 0.34538(18)
C8 C 0.3101(3) 0.6580(6) 0.3489(2)
H8 H 0.3184 0.7623 0.3176
C9 C 0.2650(4) 0.7265(7) 0.3993(2)
H9 H 0.2412 0.8779 0.4026
C10 C 0.2553(3) 0.5742(7) 0.4439(2)
H10 H 0.2245 0.6160 0.4787
C11 C 0.2916(3) 0.3591(8) 0.43671(19)
H11 H 0.2857 0.2537 0.4680
N4 N 0.2551(2) 0.6738(5) 0.17549(13)
N5 N 0.4108(2) 1.2720(5) 0.01448(14)
N6 N 0.3312(3) 1.0014(5) 0.14957(16)
H12 H 0.3770 0.9641 0.1761
C12 C 0.1866(3) 0.5246(7) 0.1674(2)
H13 H 0.1807 0.4016 0.1943
C13 C 0.1236(3) 0.5373(7) 0.1227(2)
H14 H 0.0763 0.4260 0.1184
C14 C 0.1323(3) 0.7189(8) 0.08444(18)
H15 H 0.0906 0.7338 0.0529
C15 C 0.2011(3) 0.8777(7) 0.09179(17)
H16 H 0.2072 1.0033 0.0657
C16 C 0.2625(2) 0.8514(6) 0.13870(17)
C17 C 0.3582(3) 1.1827(6) 0.11029(17)
H17 H 0.4007 1.2869 0.1311
H18 H 0.3027 1.2728 0.1001
C18 C 0.4040(2) 1.1067(6) 0.05466(17)
C19 C 0.4391(3) 0.8888(6) 0.0460(2)
H19 H 0.4316 0.7733 0.0747
C20 C 0.4848(3) 0.8417(7) -0.0045(2)
H20 H 0.5108 0.6939 -0.0106
C21 C 0.4930(4) 1.0085(8) -0.0462(2)
H21 H 0.5244 0.9797 -0.0816
C22 C 0.4541(3) 1.2192(7) -0.03478(18)
H22 H 0.4583 1.3345 -0.0639
loop_
_geom_bond_atom_site_label_1
_geom_bond_atom_site_label_2
_geom_bond_site_symmetry_1
_geom_bond_site_symmetry_2
N1 C1 1_555 1_555
N2 C7 1_555 1_555
N3 H1 1_555 1_555
C1 H2 1_555 1_555
C2 C1 1_555 1_555
H3 C2 1_555 1_555
C3 C2 1_555 1_555
H4 C3 1_555 1_555
C4 C3 1_555 1_555
H5 C4 1_555 1_555
C5 N1 1_555 1_555
C6 N3 1_555 1_555
H6 C6 1_555 1_555
H7 C6 1_555 1_555
C7 C6 1_555 1_555
C8 C7 1_555 1_555
H8 C8 1_555 1_555
C9 C8 1_555 1_555
H9 C9 1_555 1_555
C10 C9 1_555 1_555
H10 C10 1_555 1_555
C11 N2 1_555 1_555
H11 C11 1_555 1_555
N4 C12 1_555 1_555
N5 C18 1_555 1_555
N6 H12 1_555 1_555
C12 H13 1_555 1_555
C13 C12 1_555 1_555
H14 C13 1_555 1_555
C14 C13 1_555 1_555
H15 C14 1_555 1_555
C15 C14 1_555 1_555
H16 C15 1_555 1_555
C16 N4 1_555 1_555
C17 N6 1_555 1_555
H17 C17 1_555 1_555
H18 C17 1_555 1_555
C18 C17 1_555 1_555
C19 C18 1_555 1_555
H19 C19 1_555 1_555
C20 C19 1_555 1_555
H20 C20 1_555 1_555
C21 C20 1_555 1_555
H21 C21 1_555 1_555
C22 N5 1_555 1_555
H22 C22 1_555 1_555
N3 C5 1_555 1_555
C4 C5 1_555 1_555
C10 C11 1_555 1_555
N6 C16 1_555 1_555
C15 C16 1_555 1_555
C21 C22 1_555 1_555

#END
