
#######################################################################
#
#                 Cambridge Crystallographic Data Centre
#                                CCDC 
#
#######################################################################
#
# If this CIF has been generated from an entry in the Cambridge 
# Structural Database, then it will include bibliographic, chemical, 
# crystal, experimental, refinement or atomic coordinate data resulting 
# from the CCDC's data processing and validation procedures.
#
#######################################################################

data_EROGUP
_chemical_formula_moiety         'C40 H32 S2'
_chemical_name_systematic        
4'-(methylsulfanyl)-2-(2-(4'-(methylsulfanyl)biphenyl-2-yl)-1,2-diphenylvinyl)biphenyl
_symmetry_cell_setting           monoclinic
_symmetry_space_group_name_H-M   'P 21/c'
_symmetry_Int_Tables_number      14
_space_group_name_Hall           '-P 2ybc'
loop_
_symmetry_equiv_pos_site_id
_symmetry_equiv_pos_as_xyz
1 x,y,z
2 -x,1/2+y,1/2-z
3 -x,-y,-z
4 x,1/2-y,1/2+z
_cell_length_a                   9.6317(6)
_cell_length_b                   9.5173(5)
_cell_length_c                   33.0419(18)
_cell_angle_alpha                90
_cell_angle_beta                 96.269(2)
_cell_angle_gamma                90
_cell_volume                     3010.77
_exptl_crystal_description       block
_cell_formula_units_Z            4
loop_
_atom_site_label
_atom_site_type_symbol
_atom_site_fract_x
_atom_site_fract_y
_atom_site_fract_z
C1 C 0.6348(2) 0.8594(2) 0.36155(6)
C2 C 0.5037(2) 0.8095(2) 0.35100(6)
C3 C 0.6794(2) 0.9136(2) 0.40349(6)
C4 C 0.6138(2) 1.0272(2) 0.42159(6)
C5 C 0.6614(2) 1.0620(3) 0.46191(7)
H1 H 0.6171 1.1363 0.4748
C6 C 0.7710(2) 0.9914(3) 0.48348(7)
H2 H 0.7991 1.0157 0.5110
C7 C 0.8396(2) 0.8860(2) 0.46516(7)
H3 H 0.9174 0.8399 0.4796
C8 C 0.7937(2) 0.8480(2) 0.42546(6)
H4 H 0.8412 0.7754 0.4128
C9 C 0.2854(2) 1.2796(2) 0.35854(7)
C10 C 0.2907(2) 1.2551(2) 0.40017(7)
H5 H 0.2215 1.2948 0.4151
C11 C 0.3958(2) 1.1735(2) 0.41998(7)
H6 H 0.3961 1.1567 0.4483
C12 C 0.5013(2) 1.1150(2) 0.39957(7)
C13 C 0.4992(2) 1.1474(2) 0.35831(7)
H7 H 0.5725 1.1144 0.3438
C14 C 0.3925(2) 1.2266(2) 0.33805(7)
H8 H 0.3927 1.2448 0.3098
C15 C 0.0999(3) 1.5058(3) 0.36192(8)
H9 H 0.0623 1.4666 0.3859
H10 H 0.0294 1.5662 0.3470
H11 H 0.1835 1.5613 0.3706
C16 C 0.7468(2) 0.8569(2) 0.33385(6)
C17 C 0.8445(2) 0.9649(3) 0.33439(7)
H12 H 0.8362 1.0434 0.3517
C18 C 0.9534(3) 0.9609(3) 0.31027(7)
H13 H 1.0181 1.0364 0.3111
C19 C 0.9680(3) 0.8483(3) 0.28531(8)
H14 H 1.0427 0.8454 0.2688
C20 C 0.8733(3) 0.7385(3) 0.28427(8)
H15 H 0.8831 0.6602 0.2670
C21 C 0.7640(3) 0.7423(3) 0.30837(7)
H16 H 0.7001 0.6661 0.3075
C22 C 0.4021(2) 0.7878(2) 0.38152(6)
C23 C 0.4275(2) 0.6969(2) 0.41513(6)
C24 C 0.3261(3) 0.6863(3) 0.44219(7)
H17 H 0.3437 0.6279 0.4655
C25 C 0.2014(3) 0.7582(3) 0.43601(7)
H18 H 0.1338 0.7480 0.4547
C26 C 0.1749(2) 0.8453(2) 0.40254(7)
H19 H 0.0891 0.8950 0.3981
C27 C 0.2741(2) 0.8594(2) 0.37577(7)
H20 H 0.2553 0.9191 0.3528
C28 C 0.7947(2) 0.4410(2) 0.44143(7)
C29 C 0.7451(2) 0.5234(2) 0.47111(7)
H21 H 0.7928 0.5238 0.4978
C30 C 0.6271(2) 0.6052(2) 0.46249(7)
H22 H 0.5941 0.6600 0.4835
C31 C 0.5554(2) 0.6086(2) 0.42339(6)
C32 C 0.6049(2) 0.5247(2) 0.39389(7)
H23 H 0.5571 0.5238 0.3672
C33 C 0.7231(2) 0.4417(2) 0.40253(7)
H24 H 0.7553 0.3852 0.3818
C34 C 0.9431(3) 0.2086(2) 0.41815(8)
H25 H 0.8508 0.1641 0.4155
H26 H 1.0148 0.1380 0.4264
H27 H 0.9606 0.2494 0.3920
C35 C 0.4433(2) 0.7839(2) 0.30813(6)
C36 C 0.3618(2) 0.6655(2) 0.29800(7)
H28 H 0.3510 0.5968 0.3183
C37 C 0.2962(3) 0.6461(3) 0.25899(7)
H29 H 0.2426 0.5637 0.2525
C38 C 0.3088(3) 0.7469(3) 0.22940(7)
H30 H 0.2619 0.7356 0.2028
C39 C 0.3904(3) 0.8640(3) 0.23896(7)
H31 H 0.4009 0.9326 0.2186
C40 C 0.4569(2) 0.8827(2) 0.27777(7)
H32 H 0.5127 0.9639 0.2838
S1 S 0.14453(7) 1.36507(7) 0.329335(19)
S2 S 0.94882(7) 0.34415(7) 0.455829(19)
loop_
_geom_bond_atom_site_label_1
_geom_bond_atom_site_label_2
_geom_bond_site_symmetry_1
_geom_bond_site_symmetry_2
C1 C2 1_555 1_555
C2 C22 1_555 1_555
C3 C1 1_555 1_555
C4 C3 1_555 1_555
C5 C4 1_555 1_555
H1 C5 1_555 1_555
C6 C5 1_555 1_555
H2 C6 1_555 1_555
C7 C6 1_555 1_555
H3 C7 1_555 1_555
C8 C3 1_555 1_555
H4 C8 1_555 1_555
C9 C10 1_555 1_555
C10 H5 1_555 1_555
C11 C10 1_555 1_555
H6 C11 1_555 1_555
C12 C4 1_555 1_555
C13 C12 1_555 1_555
H7 C13 1_555 1_555
C14 C9 1_555 1_555
H8 C14 1_555 1_555
C15 H9 1_555 1_555
H10 C15 1_555 1_555
H11 C15 1_555 1_555
C16 C1 1_555 1_555
C17 C16 1_555 1_555
H12 C17 1_555 1_555
C18 C17 1_555 1_555
H13 C18 1_555 1_555
C19 C18 1_555 1_555
H14 C19 1_555 1_555
C20 C19 1_555 1_555
H15 C20 1_555 1_555
C21 C16 1_555 1_555
H16 C21 1_555 1_555
C22 C23 1_555 1_555
C23 C24 1_555 1_555
C24 H17 1_555 1_555
C25 C24 1_555 1_555
H18 C25 1_555 1_555
C26 C25 1_555 1_555
H19 C26 1_555 1_555
C27 C22 1_555 1_555
H20 C27 1_555 1_555
C28 C29 1_555 1_555
C29 H21 1_555 1_555
C30 C29 1_555 1_555
H22 C30 1_555 1_555
C31 C23 1_555 1_555
C32 C31 1_555 1_555
H23 C32 1_555 1_555
C33 C28 1_555 1_555
H24 C33 1_555 1_555
C34 H25 1_555 1_555
H26 C34 1_555 1_555
H27 C34 1_555 1_555
C35 C2 1_555 1_555
C36 C35 1_555 1_555
H28 C36 1_555 1_555
C37 C36 1_555 1_555
H29 C37 1_555 1_555
C38 C37 1_555 1_555
H30 C38 1_555 1_555
C39 C38 1_555 1_555
H31 C39 1_555 1_555
C40 C35 1_555 1_555
H32 C40 1_555 1_555
S1 C9 1_555 1_555
S2 C28 1_555 1_555
C7 C8 1_555 1_555
C11 C12 1_555 1_555
C13 C14 1_555 1_555
C15 S1 1_555 1_555
C20 C21 1_555 1_555
C26 C27 1_555 1_555
C30 C31 1_555 1_555
C32 C33 1_555 1_555
C34 S2 1_555 1_555
C39 C40 1_555 1_555

#END
