
#######################################################################
#
#                 Cambridge Crystallographic Data Centre
#                                CCDC 
#
#######################################################################
#
# If this CIF has been generated from an entry in the Cambridge 
# Structural Database, then it will include bibliographic, chemical, 
# crystal, experimental, refinement or atomic coordinate data resulting 
# from the CCDC's data processing and validation procedures.
#
#######################################################################

data_EROGOJ
_chemical_formula_moiety         'C36 H26 N2,C1 H2 Cl2'
_chemical_name_systematic        
'4-(2-(1,2-diphenyl-2-(2-(pyridin-4-yl)phenyl)vinyl)phenyl)pyridine dichloromethane solvate'
_symmetry_cell_setting           monoclinic
_symmetry_space_group_name_H-M   'P 21/n'
_symmetry_Int_Tables_number      14
_space_group_name_Hall           '-P 2yn'
loop_
_symmetry_equiv_pos_site_id
_symmetry_equiv_pos_as_xyz
1 x,y,z
2 1/2-x,1/2+y,1/2-z
3 -x,-y,-z
4 1/2+x,1/2-y,1/2+z
_cell_length_a                   10.2875(10)
_cell_length_b                   9.5469(8)
_cell_length_c                   30.516(3)
_cell_angle_alpha                90
_cell_angle_beta                 90.739(2)
_cell_angle_gamma                90
_cell_volume                     2996.84
_exptl_crystal_description       block
_cell_formula_units_Z            4
loop_
_atom_site_label
_atom_site_type_symbol
_atom_site_fract_x
_atom_site_fract_y
_atom_site_fract_z
C1 C 0.5724(2) 0.7110(2) 0.15260(7)
C2 C 0.4537(2) 0.7358(3) 0.16960(7)
C3 C 0.6060(2) 0.7266(3) 0.10533(8)
C4 C 0.5367(2) 0.6642(3) 0.07039(8)
C5 C 0.5769(3) 0.6897(3) 0.02745(8)
H1 H 0.5298 0.6484 0.0038
C6 C 0.6825(3) 0.7727(3) 0.01856(9)
H2 H 0.7069 0.7894 -0.0109
C7 C 0.7528(3) 0.8316(3) 0.05254(8)
H3 H 0.8267 0.8879 0.0467
C8 C 0.7151(2) 0.8082(3) 0.09520(8)
H4 H 0.7646 0.8487 0.1184
C9 C 0.2157(3) 0.4791(3) 0.05945(10)
H5 H 0.1376 0.4892 0.0428
C10 C 0.3144(3) 0.5754(3) 0.05295(8)
H6 H 0.3038 0.6479 0.0319
C11 C 0.4280(3) 0.5655(3) 0.07717(8)
C12 C 0.4383(3) 0.4544(3) 0.10641(8)
H7 H 0.5155 0.4416 0.1233
C13 C 0.3357(3) 0.3631(3) 0.11060(9)
H8 H 0.3448 0.2885 0.1310
C14 C 0.6886(2) 0.6758(3) 0.18050(8)
C15 C 0.7649(3) 0.5594(3) 0.17087(9)
H9 H 0.7392 0.4984 0.1477
C16 C 0.8773(3) 0.5316(4) 0.19451(10)
H10 H 0.9264 0.4498 0.1883
C17 C 0.9183(3) 0.6217(4) 0.22689(10)
H11 H 0.9969 0.6037 0.2426
C18 C 0.8454(3) 0.7378(4) 0.23649(10)
H12 H 0.8736 0.8001 0.2590
C19 C 0.7309(3) 0.7650(3) 0.21363(8)
H13 H 0.6809 0.8453 0.2207
C20 C 0.3382(2) 0.7885(3) 0.14433(8)
C21 C 0.3393(2) 0.9096(3) 0.11804(8)
C22 C 0.2256(3) 0.9472(3) 0.09555(8)
H14 H 0.2267 1.0272 0.0770
C23 C 0.1121(3) 0.8725(3) 0.09923(9)
H15 H 0.0360 0.9011 0.0837
C24 C 0.1100(3) 0.7555(3) 0.12576(9)
H16 H 0.0321 0.7031 0.1287
C25 C 0.2217(3) 0.7147(3) 0.14796(8)
H17 H 0.2191 0.6341 0.1662
C26 C 0.6001(3) 1.1437(3) 0.07337(10)
H18 H 0.6261 1.1781 0.0456
C27 C 0.4942(3) 1.0545(3) 0.07442(9)
H19 H 0.4501 1.0286 0.0481
C28 C 0.4530(3) 1.0031(3) 0.11477(8)
C29 C 0.5228(3) 1.0470(3) 0.15141(9)
H20 H 0.4985 1.0159 0.1797
C30 C 0.6274(3) 1.1354(3) 0.14687(10)
H21 H 0.6735 1.1633 0.1726
C31 C 0.4256(3) 0.7101(3) 0.21694(8)
C32 C 0.3570(3) 0.8079(3) 0.24111(8)
H22 H 0.3275 0.8914 0.2272
C33 C 0.3306(3) 0.7867(3) 0.28492(9)
H23 H 0.2852 0.8561 0.3010
C34 C 0.3699(3) 0.6653(4) 0.30527(10)
H24 H 0.3527 0.6511 0.3355
C35 C 0.4346(3) 0.5639(4) 0.28177(9)
H25 H 0.4604 0.4790 0.2956
C36 C 0.4619(3) 0.5864(3) 0.23781(9)
H26 H 0.5061 0.5161 0.2218
N1 N 0.2244(3) 0.3724(3) 0.08787(8)
N2 N 0.6679(2) 1.1845(3) 0.10838(9)
C37 C 0.9282(3) 0.2887(3) 0.06842(10)
H27 H 0.8733 0.2378 0.0895
H28 H 1.0149 0.3029 0.0822
Cl1 Cl 0.85748(9) 0.45283(10) 0.05665(3)
Cl2 Cl 0.94432(10) 0.18747(11) 0.02034(3)
loop_
_geom_bond_atom_site_label_1
_geom_bond_atom_site_label_2
_geom_bond_site_symmetry_1
_geom_bond_site_symmetry_2
C1 C2 1_555 1_555
C2 C20 1_555 1_555
C3 C1 1_555 1_555
C4 C3 1_555 1_555
C5 C4 1_555 1_555
H1 C5 1_555 1_555
C6 C5 1_555 1_555
H2 C6 1_555 1_555
C7 C6 1_555 1_555
H3 C7 1_555 1_555
C8 C3 1_555 1_555
H4 C8 1_555 1_555
C9 H5 1_555 1_555
C10 C9 1_555 1_555
H6 C10 1_555 1_555
C11 C4 1_555 1_555
C12 C11 1_555 1_555
H7 C12 1_555 1_555
C13 C12 1_555 1_555
H8 C13 1_555 1_555
C14 C1 1_555 1_555
C15 C14 1_555 1_555
H9 C15 1_555 1_555
C16 C15 1_555 1_555
H10 C16 1_555 1_555
C17 C16 1_555 1_555
H11 C17 1_555 1_555
C18 C17 1_555 1_555
H12 C18 1_555 1_555
C19 C14 1_555 1_555
H13 C19 1_555 1_555
C20 C21 1_555 1_555
C21 C22 1_555 1_555
C22 H14 1_555 1_555
C23 C22 1_555 1_555
H15 C23 1_555 1_555
C24 C23 1_555 1_555
H16 C24 1_555 1_555
C25 C20 1_555 1_555
H17 C25 1_555 1_555
C26 H18 1_555 1_555
C27 C26 1_555 1_555
H19 C27 1_555 1_555
C28 C21 1_555 1_555
C29 C28 1_555 1_555
H20 C29 1_555 1_555
C30 C29 1_555 1_555
H21 C30 1_555 1_555
C31 C2 1_555 1_555
C32 C31 1_555 1_555
H22 C32 1_555 1_555
C33 C32 1_555 1_555
H23 C33 1_555 1_555
C34 C33 1_555 1_555
H24 C34 1_555 1_555
C35 C34 1_555 1_555
H25 C35 1_555 1_555
C36 C31 1_555 1_555
H26 C36 1_555 1_555
N1 C9 1_555 1_555
N2 C26 1_555 1_555
C37 H27 1_555 1_555
H28 C37 1_555 1_555
Cl1 C37 1_555 1_555
Cl2 C37 1_555 1_555
C7 C8 1_555 1_555
C10 C11 1_555 1_555
C13 N1 1_555 1_555
C18 C19 1_555 1_555
C24 C25 1_555 1_555
C27 C28 1_555 1_555
C30 N2 1_555 1_555
C35 C36 1_555 1_555

#END
