
#######################################################################
#
#                 Cambridge Crystallographic Data Centre
#                                CCDC 
#
#######################################################################
#
# If this CIF has been generated from an entry in the Cambridge 
# Structural Database, then it will include bibliographic, chemical, 
# crystal, experimental, refinement or atomic coordinate data resulting 
# from the CCDC's data processing and validation procedures.
#
#######################################################################

data_EROJIF
_chemical_name_common            
13-Benzyl-6-methoxy-12H,14H-[1,3,2]benzoxazaborinino[2,3-b][1,3,2]benzoxazaborinin-6-ide-13-ium
_chemical_formula_moiety         'C22 H22 B1 N1 O3'
_chemical_name_systematic        
(2,2'-((Benzylazanediyl)dimethylene)diphenolato)-(methanolato)-boron
_symmetry_cell_setting           monoclinic
_symmetry_space_group_name_H-M   'P 21/c'
_symmetry_Int_Tables_number      14
_space_group_name_Hall           '-P 2ybc'
loop_
_symmetry_equiv_pos_site_id
_symmetry_equiv_pos_as_xyz
1 x,y,z
2 -x,1/2+y,1/2-z
3 -x,-y,-z
4 x,1/2-y,1/2+z
_cell_length_a                   12.5041(14)
_cell_length_b                   10.6029(12)
_cell_length_c                   17.1420(14)
_cell_angle_alpha                90
_cell_angle_beta                 124.054(5)
_cell_angle_gamma                90
_cell_volume                     1882.94
_exptl_crystal_colour            colorless
_exptl_crystal_description       block
_cell_formula_units_Z            4
_exptl_crystal_recrystallization_method methanol
loop_
_atom_site_label
_atom_site_type_symbol
_atom_site_fract_x
_atom_site_fract_y
_atom_site_fract_z
B1 B 0.2232(2) 0.32181(19) 0.40625(14)
N1 N 0.20528(12) 0.47562(12) 0.39796(8)
O1 O 0.11650(13) 0.26732(11) 0.40506(9)
O2 O 0.34523(13) 0.29948(12) 0.49191(9)
O3 O 0.21491(12) 0.28152(10) 0.32141(8)
C1 C 0.31610(16) 0.53161(17) 0.39892(12)
H1 H 0.3922 0.5319 0.4630
H2 H 0.2959 0.6184 0.3776
C2 C 0.34535(16) 0.45969(17) 0.33689(12)
C3 C 0.29429(17) 0.34032(18) 0.30145(12)
C4 C 0.3203(2) 0.27914(19) 0.24196(14)
H3 H 0.2839 0.2008 0.2167
C5 C 0.4007(2) 0.3356(2) 0.22079(16)
H4 H 0.4182 0.2947 0.1811
C6 C 0.4551(2) 0.4515(2) 0.25773(15)
H5 H 0.5105 0.4880 0.2442
C7 C 0.42708(19) 0.51334(19) 0.31478(14)
H6 H 0.4632 0.5922 0.3390
C8 C 0.20248(18) 0.52595(15) 0.47992(11)
H7 H 0.1326 0.4849 0.4792
H8 H 0.2825 0.5025 0.5382
C9 C 0.18550(18) 0.66690(17) 0.48009(11)
C10 C 0.2926(2) 0.74533(18) 0.52878(14)
H9 H 0.3750 0.7106 0.5607
C11 C 0.2782(3) 0.8744(2) 0.53036(17)
H10 H 0.3508 0.9256 0.5632
C12 C 0.1563(3) 0.9279(2) 0.48346(17)
H11 H 0.1467 1.0148 0.4836
C13 C 0.0494(3) 0.8508(2) 0.43666(15)
H12 H -0.0328 0.8858 0.4059
C14 C 0.0638(2) 0.7210(2) 0.43516(14)
H13 H -0.0090 0.6698 0.4037
C15 C 0.08093(15) 0.50238(15) 0.30599(11)
H14 H 0.0898 0.4816 0.2548
H15 H 0.0613 0.5916 0.3019
C16 C -0.02795(16) 0.42715(15) 0.29604(11)
C17 C -0.15376(18) 0.47161(18) 0.23826(13)
H16 H -0.1697 0.5459 0.2046
C18 C -0.2553(2) 0.4070(2) 0.23014(16)
H17 H -0.3390 0.4377 0.1913
C19 C -0.2323(2) 0.2971(2) 0.27968(17)
H18 H -0.3006 0.2543 0.2750
C20 C -0.1073(2) 0.24931(18) 0.33692(15)
H19 H -0.0925 0.1742 0.3696
C21 C -0.00545(18) 0.31408(16) 0.34496(12)
C22 C 0.4118(2) 0.18849(19) 0.50173(16)
H20 H 0.3651 0.1176 0.5031
H21 H 0.4961 0.1915 0.5593
H22 H 0.4199 0.1800 0.4495
loop_
_geom_bond_atom_site_label_1
_geom_bond_atom_site_label_2
_geom_bond_site_symmetry_1
_geom_bond_site_symmetry_2
B1 N1 1_555 1_555
N1 C1 1_555 1_555
O1 B1 1_555 1_555
O2 B1 1_555 1_555
O3 B1 1_555 1_555
C1 H1 1_555 1_555
H2 C1 1_555 1_555
C2 C1 1_555 1_555
C3 O3 1_555 1_555
C4 C3 1_555 1_555
H3 C4 1_555 1_555
C5 C4 1_555 1_555
H4 C5 1_555 1_555
C6 C5 1_555 1_555
H5 C6 1_555 1_555
C7 C2 1_555 1_555
H6 C7 1_555 1_555
C8 N1 1_555 1_555
H7 C8 1_555 1_555
H8 C8 1_555 1_555
C9 C8 1_555 1_555
C10 C9 1_555 1_555
H9 C10 1_555 1_555
C11 C10 1_555 1_555
H10 C11 1_555 1_555
C12 C11 1_555 1_555
H11 C12 1_555 1_555
C13 C12 1_555 1_555
H12 C13 1_555 1_555
C14 C9 1_555 1_555
H13 C14 1_555 1_555
C15 N1 1_555 1_555
H14 C15 1_555 1_555
H15 C15 1_555 1_555
C16 C15 1_555 1_555
C17 C16 1_555 1_555
H16 C17 1_555 1_555
C18 C17 1_555 1_555
H17 C18 1_555 1_555
C19 C18 1_555 1_555
H18 C19 1_555 1_555
C20 C19 1_555 1_555
H19 C20 1_555 1_555
C21 O1 1_555 1_555
C22 O2 1_555 1_555
H20 C22 1_555 1_555
H21 C22 1_555 1_555
H22 C22 1_555 1_555
C2 C3 1_555 1_555
C6 C7 1_555 1_555
C13 C14 1_555 1_555
C16 C21 1_555 1_555
C20 C21 1_555 1_555

#END
