
#######################################################################
#
#                 Cambridge Crystallographic Data Centre
#                                CCDC 
#
#######################################################################
#
# If this CIF has been generated from an entry in the Cambridge 
# Structural Database, then it will include bibliographic, chemical, 
# crystal, experimental, refinement or atomic coordinate data resulting 
# from the CCDC's data processing and validation procedures.
#
#######################################################################

data_EROLAA
_chemical_name_common            
'N-(2,3,4-Tri-O-acetyl-6-deoxy-alpha-L-mannopyranos -1-yl) thiourea'
_chemical_formula_moiety         'C13 H20 N2 O7 S1'
_chemical_name_systematic        
'2-(carbamothioylamino)-6-methyltetrahydro-2H-pyran-3,4,5-triyl triacetate'
_symmetry_cell_setting           orthorhombic
_symmetry_space_group_name_H-M   'P 21 21 21'
_symmetry_Int_Tables_number      19
_space_group_name_Hall           'P 2ac 2ab'
loop_
_symmetry_equiv_pos_site_id
_symmetry_equiv_pos_as_xyz
1 x,y,z
2 1/2-x,-y,1/2+z
3 -x,1/2+y,1/2-z
4 1/2+x,1/2-y,-z
_cell_length_a                   8.984(5)
_cell_length_b                   10.648(6)
_cell_length_c                   18.894(10)
_cell_angle_alpha                90
_cell_angle_beta                 90
_cell_angle_gamma                90
_cell_volume                     1807.43
_exptl_crystal_colour            colorless
_exptl_crystal_description       prism
_cell_formula_units_Z            4
_exptl_crystal_recrystallization_method dichloromethane/n-hexane
loop_
_atom_site_label
_atom_site_type_symbol
_atom_site_fract_x
_atom_site_fract_y
_atom_site_fract_z
S1 S -0.06617(9) 1.17228(7) -0.07721(4)
N1 N 0.1421(3) 1.1593(2) 0.02365(13)
H1 H 0.222(3) 1.188(3) 0.0469(15)
N2 N 0.1461(4) 1.3324(3) -0.04513(16)
H2 H 0.111(4) 1.371(3) -0.0803(17)
H3 H 0.232(4) 1.355(3) -0.0244(16)
O1 O -0.0348(2) 1.05568(17) 0.09654(9)
O2 O 0.1609(2) 0.83467(16) 0.07740(11)
O3 O 0.3877(4) 0.7722(3) 0.04381(16)
O4 O 0.3330(2) 0.89936(19) 0.18869(11)
O5 O 0.5440(3) 0.9862(3) 0.15210(16)
O6 O 0.1576(3) 1.0630(2) 0.26678(11)
O7 O 0.0203(6) 0.9231(3) 0.32543(17)
C1 C 0.0845(3) 1.0412(2) 0.04927(14)
H4 H 0.0463 0.9956 0.0081
C2 C 0.2111(3) 0.9633(2) 0.07970(15)
H5 H 0.3002 0.9730 0.0503
C3 C 0.2471(3) 0.9981(3) 0.15617(14)
H6 H 0.3044 1.0764 0.1570
C4 C 0.1082(4) 1.0139(3) 0.19942(14)
H7 H 0.0575 0.9332 0.2057
C5 C 0.0063(3) 1.1081(3) 0.16419(14)
H8 H 0.0595 1.1875 0.1571
C6 C 0.0810(3) 1.2251(3) -0.03021(14)
C7 C 0.2605(5) 0.7479(3) 0.0562(2)
C8 C 0.1914(5) 0.6213(3) 0.0525(3)
H9 H 0.2665 0.5601 0.0416
H10 H 0.1166 0.6206 0.0162
H11 H 0.1467 0.6013 0.0972
C9 C 0.4815(4) 0.9058(4) 0.18312(18)
C10 C 0.5534(5) 0.7963(4) 0.2192(2)
H12 H 0.5416 0.7225 0.1906
H13 H 0.5072 0.7830 0.2644
H14 H 0.6574 0.8131 0.2258
C11 C 0.1122(6) 1.0028(5) 0.3251(2)
C12 C 0.1938(7) 1.0532(6) 0.3881(2)
H15 H 0.1621 1.0093 0.4298
H16 H 0.1727 1.1412 0.3932
H17 H 0.2988 1.0415 0.3816
C13 C -0.1362(4) 1.1320(3) 0.20444(17)
H18 H -0.1964 1.1910 0.1788
H19 H -0.1131 1.1656 0.2503
H20 H -0.1898 1.0546 0.2098
loop_
_geom_bond_atom_site_label_1
_geom_bond_atom_site_label_2
_geom_bond_site_symmetry_1
_geom_bond_site_symmetry_2
S1 C6 1_555 1_555
N1 H1 1_555 1_555
N2 H2 1_555 1_555
H3 N2 1_555 1_555
O1 C1 1_555 1_555
O2 C2 1_555 1_555
O3 C7 1_555 1_555
O4 C3 1_555 1_555
O5 C9 1_555 1_555
O6 C4 1_555 1_555
O7 C11 1_555 1_555
C1 N1 1_555 1_555
H4 C1 1_555 1_555
C2 C1 1_555 1_555
H5 C2 1_555 1_555
C3 C2 1_555 1_555
H6 C3 1_555 1_555
C4 C3 1_555 1_555
H7 C4 1_555 1_555
C5 O1 1_555 1_555
H8 C5 1_555 1_555
C6 N1 1_555 1_555
C7 O2 1_555 1_555
C8 C7 1_555 1_555
H9 C8 1_555 1_555
H10 C8 1_555 1_555
H11 C8 1_555 1_555
C9 O4 1_555 1_555
C10 C9 1_555 1_555
H12 C10 1_555 1_555
H13 C10 1_555 1_555
H14 C10 1_555 1_555
C11 O6 1_555 1_555
C12 C11 1_555 1_555
H15 C12 1_555 1_555
H16 C12 1_555 1_555
H17 C12 1_555 1_555
C13 C5 1_555 1_555
H18 C13 1_555 1_555
H19 C13 1_555 1_555
H20 C13 1_555 1_555
N2 C6 1_555 1_555
C4 C5 1_555 1_555

#END
