
#######################################################################
#
#                 Cambridge Crystallographic Data Centre
#                                CCDC 
#
#######################################################################
#
# If this CIF has been generated from an entry in the Cambridge 
# Structural Database, then it will include bibliographic, chemical, 
# crystal, experimental, refinement or atomic coordinate data resulting 
# from the CCDC's data processing and validation procedures.
#
#######################################################################

data_ERONUV
_chemical_formula_moiety         'C16 H18 N4 O3,2(H2 O1)'
_chemical_name_systematic        
'Ethyl 5-([(E)-2-(isonicotinoyl)hydrazinylidene]methyl)-3,4-dimethyl-1H-pyrrole-2-carboxylate dihydrate'
_symmetry_cell_setting           monoclinic
_symmetry_space_group_name_H-M   'P 21/n'
_symmetry_Int_Tables_number      14
_space_group_name_Hall           '-P 2yn'
loop_
_symmetry_equiv_pos_site_id
_symmetry_equiv_pos_as_xyz
1 x,y,z
2 1/2-x,1/2+y,1/2-z
3 -x,-y,-z
4 1/2+x,1/2-y,1/2+z
_cell_length_a                   8.297(4)
_cell_length_b                   18.120(6)
_cell_length_c                   11.834(4)
_cell_angle_alpha                90
_cell_angle_beta                 91.814(4)
_cell_angle_gamma                90
_cell_volume                     1778.25
_exptl_crystal_colour            yellow
_exptl_crystal_description       prism
_cell_formula_units_Z            4
loop_
_atom_site_label
_atom_site_type_symbol
_atom_site_fract_x
_atom_site_fract_y
_atom_site_fract_z
O1 O 0.6319(3) 0.46189(12) 0.4160(2)
O2 O 1.1091(4) 0.29040(14) 0.9756(2)
O3 O 0.9696(3) 0.27423(12) 0.8122(2)
N1 N 0.4775(4) 0.68078(16) 0.1780(2)
N2 N 0.7766(3) 0.55247(14) 0.5019(2)
H1 H 0.8043 0.5982 0.5024
N3 N 0.8374(3) 0.50452(14) 0.5828(2)
N4 N 0.9761(3) 0.41573(14) 0.7584(2)
H2 H 0.9158 0.3892 0.7141
C1 C 0.4299(4) 0.6106(2) 0.1836(3)
H3 H 0.3507 0.5946 0.1319
C2 C 0.4901(4) 0.56074(19) 0.2606(3)
H4 H 0.4522 0.5124 0.2604
C3 C 0.6076(4) 0.58255(17) 0.3388(3)
C4 C 0.6579(5) 0.65506(18) 0.3348(3)
H5 H 0.7355 0.6730 0.3861
C5 C 0.5898(5) 0.70012(19) 0.2527(3)
H6 H 0.6267 0.7485 0.2500
C6 C 0.6727(4) 0.52615(16) 0.4219(3)
C7 C 0.9388(4) 0.53192(17) 0.6540(3)
H7 H 0.9686 0.5811 0.6471
C8 C 1.0084(4) 0.48875(17) 0.7448(3)
C9 C 1.1112(4) 0.51125(18) 0.8322(3)
C10 C 1.1406(4) 0.44984(18) 0.9021(3)
C11 C 1.0555(4) 0.39167(17) 0.8543(3)
C12 C 1.1778(5) 0.5870(2) 0.8501(3)
H8 H 1.1754 0.6131 0.7795
H9 H 1.2870 0.5837 0.8789
H10 H 1.1137 0.6129 0.9033
C13 C 1.2480(5) 0.4481(2) 1.0061(3)
H11 H 1.1894 0.4654 1.0695
H12 H 1.3398 0.4792 0.9954
H13 H 1.2835 0.3984 1.0201
C14 C 1.0502(4) 0.31492(18) 0.8893(3)
C15 C 0.9548(5) 0.19650(18) 0.8342(3)
H14 H 0.8978 0.1883 0.9034
H15 H 1.0605 0.1738 0.8420
C16 C 0.8642(7) 0.1652(2) 0.7371(4)
H16 H 0.7623 0.1900 0.7281
H17 H 0.8461 0.1135 0.7498
H18 H 0.9247 0.1715 0.6700
O4 O 0.4291(4) 0.80318(15) 0.0290(3)
H19 H 0.428(7) 0.770(3) 0.059(5)
H20 H 0.528(6) 0.813(3) 0.001(4)
O5 O 0.7783(3) 0.34071(15) 0.5656(2)
H21 H 0.704(6) 0.305(3) 0.544(4)
H22 H 0.744(6) 0.380(3) 0.541(4)
loop_
_geom_bond_atom_site_label_1
_geom_bond_atom_site_label_2
_geom_bond_site_symmetry_1
_geom_bond_site_symmetry_2
O1 C6 1_555 1_555
O2 C14 1_555 1_555
O3 C14 1_555 1_555
N1 C1 1_555 1_555
N2 H1 1_555 1_555
N3 N2 1_555 1_555
N4 H2 1_555 1_555
C1 H3 1_555 1_555
C2 C1 1_555 1_555
H4 C2 1_555 1_555
C3 C2 1_555 1_555
C4 C3 1_555 1_555
H5 C4 1_555 1_555
C5 N1 1_555 1_555
H6 C5 1_555 1_555
C6 N2 1_555 1_555
C7 N3 1_555 1_555
H7 C7 1_555 1_555
C8 N4 1_555 1_555
C9 C8 1_555 1_555
C10 C9 1_555 1_555
C11 N4 1_555 1_555
C12 C9 1_555 1_555
H8 C12 1_555 1_555
H9 C12 1_555 1_555
H10 C12 1_555 1_555
C13 C10 1_555 1_555
H11 C13 1_555 1_555
H12 C13 1_555 1_555
H13 C13 1_555 1_555
C14 C11 1_555 1_555
C15 O3 1_555 1_555
H14 C15 1_555 1_555
H15 C15 1_555 1_555
C16 C15 1_555 1_555
H16 C16 1_555 1_555
H17 C16 1_555 1_555
H18 C16 1_555 1_555
O4 H19 1_555 1_555
H20 O4 1_555 1_555
O5 H21 1_555 1_555
H22 O5 1_555 1_555
C3 C6 1_555 1_555
C4 C5 1_555 1_555
C7 C8 1_555 1_555
C10 C11 1_555 1_555

#END
