
#######################################################################
#
#                 Cambridge Crystallographic Data Centre
#                                CCDC 
#
#######################################################################
#
# If this CIF has been generated from an entry in the Cambridge 
# Structural Database, then it will include bibliographic, chemical, 
# crystal, experimental, refinement or atomic coordinate data resulting 
# from the CCDC's data processing and validation procedures.
#
#######################################################################

data_ERONOP
_chemical_name_common            '(S)-Benzyl N-trityltyrosinate'
_chemical_formula_moiety         'C35 H31 N1 O3'
_chemical_name_systematic        
'(S)-Benzyl 3-(4-hydroxyphenyl)-2-[(triphenylmethyl)amino]propanoate'
_symmetry_cell_setting           orthorhombic
_symmetry_space_group_name_H-M   'P 21 21 21'
_symmetry_Int_Tables_number      19
_space_group_name_Hall           'P 2ac 2ab'
loop_
_symmetry_equiv_pos_site_id
_symmetry_equiv_pos_as_xyz
1 x,y,z
2 1/2-x,-y,1/2+z
3 -x,1/2+y,1/2-z
4 1/2+x,1/2-y,-z
_cell_length_a                   9.1188(18)
_cell_length_b                   15.774(3)
_cell_length_c                   19.393(4)
_cell_angle_alpha                90
_cell_angle_beta                 90
_cell_angle_gamma                90
_cell_volume                     2789.49
_exptl_crystal_colour            colorless
_exptl_crystal_description       plate
_cell_formula_units_Z            4
_exptl_crystal_recrystallization_method 'petroleum ether/ethyl acetate'
loop_
_atom_site_label
_atom_site_type_symbol
_atom_site_fract_x
_atom_site_fract_y
_atom_site_fract_z
O1 O -0.8415(2) -0.39107(11) -0.11380(10)
O2 O -0.88195(19) -0.52988(11) -0.09751(11)
O3 O -0.5931(3) -0.20753(13) 0.11146(12)
H1 H -0.5162 -0.1806 0.1105
N1 N -0.5558(2) -0.42813(13) -0.16568(11)
H2 H -0.580(3) -0.3773(16) -0.1508(14)
C1 C -0.7971(3) -0.46331(15) -0.11394(14)
C2 C -0.6402(3) -0.48944(14) -0.12606(13)
H3 H -0.6401 -0.5434 -0.1511
C3 C -0.5679(3) -0.50374(15) -0.05462(14)
H4 H -0.6194 -0.5490 -0.0310
H5 H -0.4674 -0.5219 -0.0614
C4 C -0.5684(3) -0.42608(16) -0.00941(13)
C5 C -0.6842(3) -0.41039(18) 0.03513(14)
H6 H -0.7593 -0.4501 0.0384
C6 C -0.6923(3) -0.33742(18) 0.07511(15)
H7 H -0.7719 -0.3283 0.1041
C7 C -0.5796(3) -0.27833(18) 0.07110(16)
C8 C -0.4624(3) -0.29330(18) 0.02834(16)
H8 H -0.3859 -0.2544 0.0263
C9 C -0.4573(3) -0.36602(17) -0.01186(16)
H9 H -0.3778 -0.3747 -0.0411
C10 C -1.0349(3) -0.5109(2) -0.0818(2)
H10 H -1.0841 -0.4903 -0.1229
H11 H -1.0402 -0.4671 -0.0468
C11 C -1.1086(3) -0.58942(19) -0.05648(16)
C12 C -1.0872(3) -0.6677(2) -0.08728(17)
H12 H -1.0209 -0.6726 -0.1235
C13 C -1.1629(4) -0.7384(2) -0.06509(19)
H13 H -1.1461 -0.7908 -0.0856
C14 C -1.2625(4) -0.7310(3) -0.0128(2)
H14 H -1.3161 -0.7781 0.0011
C15 C -1.2837(4) -0.6554(2) 0.01881(19)
H15 H -1.3504 -0.6511 0.0549
C16 C -1.2062(3) -0.5841(2) -0.00253(17)
H16 H -1.2204 -0.5326 0.0198
C17 C -0.5633(2) -0.43267(14) -0.24205(12)
C18 C -0.4822(3) -0.35431(13) -0.26981(14)
C19 C -0.3684(3) -0.31829(14) -0.23272(15)
H17 H -0.3452 -0.3397 -0.1894
C20 C -0.2885(3) -0.25094(14) -0.25893(17)
H18 H -0.2128 -0.2273 -0.2331
C21 C -0.3209(3) -0.21891(16) -0.32313(18)
H19 H -0.2666 -0.1742 -0.3410
C22 C -0.4340(3) -0.25330(16) -0.36070(17)
H20 H -0.4569 -0.2313 -0.4039
C23 C -0.5139(3) -0.32054(16) -0.33443(15)
H21 H -0.5899 -0.3435 -0.3604
C24 C -0.4747(2) -0.50967(13) -0.26782(14)
C25 C -0.3816(3) -0.55510(14) -0.22560(15)
H22 H -0.3730 -0.5403 -0.1794
C26 C -0.3005(3) -0.62277(16) -0.25129(18)
H23 H -0.2390 -0.6528 -0.2219
C27 C -0.3097(3) -0.64575(17) -0.31902(19)
H24 H -0.2555 -0.6913 -0.3357
C28 C -0.4008(3) -0.60035(17) -0.36234(17)
H25 H -0.4074 -0.6150 -0.4087
C29 C -0.4819(3) -0.53335(16) -0.33723(16)
H26 H -0.5426 -0.5033 -0.3670
C30 C -0.7246(2) -0.43698(14) -0.26576(13)
C31 C -0.7951(3) -0.51343(16) -0.27810(15)
H27 H -0.7414 -0.5635 -0.2766
C32 C -0.9434(3) -0.5167(2) -0.29257(18)
H28 H -0.9875 -0.5687 -0.3014
C33 C -1.0252(3) -0.4450(2) -0.29411(18)
H29 H -1.1252 -0.4477 -0.3032
C34 C -0.9585(3) -0.3682(2) -0.28198(18)
H30 H -1.0136 -0.3186 -0.2833
C35 C -0.8094(3) -0.36430(17) -0.26780(15)
H31 H -0.7658 -0.3120 -0.2595
loop_
_geom_bond_atom_site_label_1
_geom_bond_atom_site_label_2
_geom_bond_site_symmetry_1
_geom_bond_site_symmetry_2
O1 C1 1_555 1_555
O2 C1 1_555 1_555
O3 H1 1_555 1_555
N1 H2 1_555 1_555
C1 C2 1_555 1_555
C2 N1 1_555 1_555
H3 C2 1_555 1_555
C3 C2 1_555 1_555
H4 C3 1_555 1_555
H5 C3 1_555 1_555
C4 C3 1_555 1_555
C5 C4 1_555 1_555
H6 C5 1_555 1_555
C6 C5 1_555 1_555
H7 C6 1_555 1_555
C7 O3 1_555 1_555
C8 C7 1_555 1_555
H8 C8 1_555 1_555
C9 C4 1_555 1_555
H9 C9 1_555 1_555
C10 O2 1_555 1_555
H10 C10 1_555 1_555
H11 C10 1_555 1_555
C11 C10 1_555 1_555
C12 C11 1_555 1_555
H12 C12 1_555 1_555
C13 C12 1_555 1_555
H13 C13 1_555 1_555
C14 C13 1_555 1_555
H14 C14 1_555 1_555
C15 C14 1_555 1_555
H15 C15 1_555 1_555
C16 C11 1_555 1_555
H16 C16 1_555 1_555
C17 N1 1_555 1_555
C18 C17 1_555 1_555
C19 C18 1_555 1_555
H17 C19 1_555 1_555
C20 C19 1_555 1_555
H18 C20 1_555 1_555
C21 C20 1_555 1_555
H19 C21 1_555 1_555
C22 C21 1_555 1_555
H20 C22 1_555 1_555
C23 C18 1_555 1_555
H21 C23 1_555 1_555
C24 C17 1_555 1_555
C25 C24 1_555 1_555
H22 C25 1_555 1_555
C26 C25 1_555 1_555
H23 C26 1_555 1_555
C27 C26 1_555 1_555
H24 C27 1_555 1_555
C28 C27 1_555 1_555
H25 C28 1_555 1_555
C29 C24 1_555 1_555
H26 C29 1_555 1_555
C30 C17 1_555 1_555
C31 C30 1_555 1_555
H27 C31 1_555 1_555
C32 C31 1_555 1_555
H28 C32 1_555 1_555
C33 C32 1_555 1_555
H29 C33 1_555 1_555
C34 C33 1_555 1_555
H30 C34 1_555 1_555
C35 C30 1_555 1_555
H31 C35 1_555 1_555
C6 C7 1_555 1_555
C8 C9 1_555 1_555
C15 C16 1_555 1_555
C22 C23 1_555 1_555
C28 C29 1_555 1_555
C34 C35 1_555 1_555

#END
