
#######################################################################
#
#                 Cambridge Crystallographic Data Centre
#                                CCDC 
#
#######################################################################
#
# If this CIF has been generated from an entry in the Cambridge 
# Structural Database, then it will include bibliographic, chemical, 
# crystal, experimental, refinement or atomic coordinate data resulting 
# from the CCDC's data processing and validation procedures.
#
#######################################################################

data_EROQAF
_chemical_formula_moiety         'C13 H15 N1 O3'
_chemical_name_systematic        
'2-methoxyethyl 4-methyl-1H-indole-5-carboxylate'
_symmetry_cell_setting           triclinic
_symmetry_space_group_name_H-M   'P -1'
_symmetry_Int_Tables_number      2
_space_group_name_Hall           '-P 1'
loop_
_symmetry_equiv_pos_site_id
_symmetry_equiv_pos_as_xyz
1 x,y,z
2 -x,-y,-z
_cell_length_a                   8.193
_cell_length_b                   8.447
_cell_length_c                   9.419
_cell_angle_alpha                84.30
_cell_angle_beta                 80.16
_cell_angle_gamma                68.11
_cell_volume                     595.506
_chemical_melting_point          '368-370 K'
_cell_formula_units_Z            2
_chemical_properties_physical    Air-sensitive
loop_
_atom_site_label
_atom_site_type_symbol
_atom_site_fract_x
_atom_site_fract_y
_atom_site_fract_z
C1 C 0.5450(4) -0.0596(3) 0.2687(3)
H1 H 0.4761 0.0007 0.3530
H2 H 0.6397 -0.1596 0.2966
H3 H 0.4702 -0.0927 0.2192
C2 C 0.6218(3) 0.0544(3) 0.1702(2)
C3 C 0.7289(3) 0.0079(3) 0.0375(2)
C4 C 0.7935(3) 0.1249(3) -0.0495(2)
H4 H 0.8637 0.0899 -0.1375
C5 C 0.7566(4) 0.2869(3) -0.0091(3)
H5 H 0.8002 0.3620 -0.0674
C6 C 0.6510(3) 0.3344(3) 0.1229(2)
C7 C 0.5828(3) 0.2218(3) 0.2130(2)
C8 C 0.4813(3) 0.3162(3) 0.3377(3)
H6 H 0.4201 0.2767 0.4168
C9 C 0.4913(4) 0.4732(3) 0.3184(3)
H7 H 0.4367 0.5601 0.3835
C10 C 0.7823(3) -0.1660(3) -0.0169(2)
C11 C 0.9285(4) -0.3434(3) -0.2169(3)
H8 H 0.8300 -0.3773 -0.2260
H9 H 1.0055 -0.4287 -0.1567
C12 C 1.0288(3) -0.3275(3) -0.3613(3)
H10 H 1.1156 -0.2774 -0.3526
H11 H 1.0919 -0.4397 -0.4004
C13 C 0.9994(5) -0.1934(5) -0.5905(3)
H12 H 0.9136 -0.1227 -0.6502
H13 H 1.0670 -0.3001 -0.6355
H14 H 1.0778 -0.1366 -0.5785
N1 N 0.5928(3) 0.4863(3) 0.1902(2)
O1 O 0.7621(3) -0.2887(2) 0.0498(2)
O2 O 0.8630(2) -0.1772(2) -0.15344(17)
O3 O 0.9109(2) -0.2240(3) -0.45463(19)
H15 H 0.624(5) 0.581(4) 0.144(4)
loop_
_geom_bond_atom_site_label_1
_geom_bond_atom_site_label_2
_geom_bond_site_symmetry_1
_geom_bond_site_symmetry_2
C1 H1 1_555 1_555
H2 C1 1_555 1_555
H3 C1 1_555 1_555
C2 C1 1_555 1_555
C3 C2 1_555 1_555
C4 C3 1_555 1_555
H4 C4 1_555 1_555
C5 C4 1_555 1_555
H5 C5 1_555 1_555
C6 C5 1_555 1_555
C7 C2 1_555 1_555
C8 C7 1_555 1_555
H6 C8 1_555 1_555
C9 C8 1_555 1_555
H7 C9 1_555 1_555
C10 C3 1_555 1_555
C11 H8 1_555 1_555
H9 C11 1_555 1_555
C12 C11 1_555 1_555
H10 C12 1_555 1_555
H11 C12 1_555 1_555
C13 H12 1_555 1_555
H13 C13 1_555 1_555
H14 C13 1_555 1_555
N1 C6 1_555 1_555
O1 C10 1_555 1_555
O2 C10 1_555 1_555
O3 C12 1_555 1_555
H15 N1 1_555 1_555
C6 C7 1_555 1_555
C9 N1 1_555 1_555
C11 O2 1_555 1_555
C13 O3 1_555 1_555

#END
