
#######################################################################
#
#                 Cambridge Crystallographic Data Centre
#                                CCDC 
#
#######################################################################
#
# If this CIF has been generated from an entry in the Cambridge 
# Structural Database, then it will include bibliographic, chemical, 
# crystal, experimental, refinement or atomic coordinate data resulting 
# from the CCDC's data processing and validation procedures.
#
#######################################################################

data_EROQEJ
_chemical_formula_moiety         'C21 H13 Br1 I1 N1'
_chemical_name_systematic        4-(4-bromophenyl)-3-iodo-2-phenylquinoline
_symmetry_cell_setting           monoclinic
_symmetry_space_group_name_H-M   'P 21/n'
_symmetry_Int_Tables_number      14
_space_group_name_Hall           '-P 2yn'
loop_
_symmetry_equiv_pos_site_id
_symmetry_equiv_pos_as_xyz
1 x,y,z
2 1/2-x,1/2+y,1/2-z
3 -x,-y,-z
4 1/2+x,1/2-y,1/2+z
_cell_length_a                   9.4445(10)
_cell_length_b                   13.5761(15)
_cell_length_c                   14.3760(16)
_cell_angle_alpha                90
_cell_angle_beta                 108.970(2)
_cell_angle_gamma                90
_cell_volume                     1743.17
_exptl_crystal_colour            colorless
_exptl_crystal_description       Block
_cell_formula_units_Z            4
loop_
_atom_site_label
_atom_site_type_symbol
_atom_site_fract_x
_atom_site_fract_y
_atom_site_fract_z
I1 I 0.65981(2) 0.248942(13) 0.233820(15)
Br1 Br -0.03891(4) 0.07791(3) 0.11429(3)
N1 N 0.6327(2) 0.55831(17) 0.15595(18)
C1 C 0.4845(3) 0.57326(19) 0.10760(19)
C2 C 0.4387(3) 0.6672(2) 0.0663(2)
H1 H 0.5100 0.7155 0.0694
C3 C 0.2905(3) 0.6875(2) 0.0220(2)
H2 H 0.2613 0.7495 -0.0051
C4 C 0.1823(3) 0.6156(2) 0.0172(2)
H3 H 0.0816 0.6307 -0.0124
C5 C 0.2223(3) 0.5240(2) 0.0552(2)
H4 H 0.1487 0.4771 0.0513
C6 C 0.3750(3) 0.4996(2) 0.10058(19)
C7 C 0.4252(3) 0.40441(19) 0.14053(19)
C8 C 0.5760(3) 0.39114(19) 0.18654(19)
C9 C 0.6778(3) 0.47213(19) 0.1971(2)
C10 C 0.8391(3) 0.4670(2) 0.2567(2)
C11 C 0.9460(3) 0.5024(2) 0.2175(2)
H5 H 0.9162 0.5260 0.1532
C12 C 1.0967(3) 0.5030(3) 0.2735(3)
H6 H 1.1676 0.5260 0.2465
C13 C 1.1409(3) 0.4694(3) 0.3688(3)
H7 H 1.2419 0.4695 0.4059
C14 C 1.0369(4) 0.4356(2) 0.4098(2)
H8 H 1.0674 0.4136 0.4746
C15 C 0.8860(3) 0.4345(2) 0.3536(2)
H9 H 0.8157 0.4117 0.3812
C16 C 0.3129(3) 0.32437(19) 0.1319(2)
C17 C 0.2418(3) 0.2783(2) 0.0433(2)
H10 H 0.2642 0.2970 -0.0126
C18 C 0.1371(3) 0.2041(2) 0.0367(2)
H11 H 0.0912 0.1720 -0.0227
C19 C 0.1029(3) 0.1794(2) 0.1195(2)
C20 C 0.1692(4) 0.2254(3) 0.2083(2)
H12 H 0.1436 0.2083 0.2634
C21 C 0.2751(3) 0.2978(2) 0.2137(2)
H13 H 0.3216 0.3291 0.2735
loop_
_geom_bond_atom_site_label_1
_geom_bond_atom_site_label_2
_geom_bond_site_symmetry_1
_geom_bond_site_symmetry_2
I1 C8 1_555 1_555
Br1 C19 1_555 1_555
N1 C1 1_555 1_555
C1 C2 1_555 1_555
C2 H1 1_555 1_555
C3 C2 1_555 1_555
H2 C3 1_555 1_555
C4 C3 1_555 1_555
H3 C4 1_555 1_555
C5 C4 1_555 1_555
H4 C5 1_555 1_555
C6 C1 1_555 1_555
C7 C6 1_555 1_555
C8 C7 1_555 1_555
C9 N1 1_555 1_555
C10 C9 1_555 1_555
C11 C10 1_555 1_555
H5 C11 1_555 1_555
C12 C11 1_555 1_555
H6 C12 1_555 1_555
C13 C12 1_555 1_555
H7 C13 1_555 1_555
C14 C13 1_555 1_555
H8 C14 1_555 1_555
C15 C10 1_555 1_555
H9 C15 1_555 1_555
C16 C7 1_555 1_555
C17 C16 1_555 1_555
H10 C17 1_555 1_555
C18 C17 1_555 1_555
H11 C18 1_555 1_555
C19 C18 1_555 1_555
C20 C19 1_555 1_555
H12 C20 1_555 1_555
C21 C16 1_555 1_555
H13 C21 1_555 1_555
C5 C6 1_555 1_555
C8 C9 1_555 1_555
C14 C15 1_555 1_555
C20 C21 1_555 1_555

#END
