
#######################################################################
#
#                 Cambridge Crystallographic Data Centre
#                                CCDC 
#
#######################################################################
#
# If this CIF has been generated from an entry in the Cambridge 
# Structural Database, then it will include bibliographic, chemical, 
# crystal, experimental, refinement or atomic coordinate data resulting 
# from the CCDC's data processing and validation procedures.
#
#######################################################################

data_EROSEL
_chemical_formula_moiety         'C48 H38 N2 2+,2(B1 F4 1-)'
_chemical_name_systematic        
"1,1',7,7'-tetraphenyl-2,2',3,3'-tetrahydro-1H,1'H-9,9'-bipyrido[3,2,1-ij]quinolinium bis(tetrafluoroborate)"
_symmetry_cell_setting           monoclinic
_symmetry_space_group_name_H-M   'P 21/c'
_symmetry_Int_Tables_number      14
_space_group_name_Hall           '-P 2ybc'
loop_
_symmetry_equiv_pos_site_id
_symmetry_equiv_pos_as_xyz
1 x,y,z
2 -x,1/2+y,1/2-z
3 -x,-y,-z
4 x,1/2-y,1/2+z
_cell_length_a                   13.2275(13)
_cell_length_b                   12.9049(11)
_cell_length_c                   12.2015(11)
_cell_angle_alpha                90
_cell_angle_beta                 110.482(6)
_cell_angle_gamma                90
_cell_volume                     1951.12
_exptl_crystal_colour            brown
_cell_formula_units_Z            2
loop_
_atom_site_label
_atom_site_type_symbol
_atom_site_fract_x
_atom_site_fract_y
_atom_site_fract_z
B1 B 0.1946(18) 0.1088(14) 0.7459(15)
F1 F 0.2074(5) 0.1021(4) 0.8602(5)
F2 F 0.2208(5) 0.0316(4) 0.7103(6)
F3 F 0.0862(6) 0.1097(9) 0.6981(7)
F4 F 0.2275(7) 0.1934(4) 0.7172(5)
C1 C 0.0319(10) 0.2988(8) 0.9295(8)
H1 H 0.0035 0.3576 0.9623
H2 H 0.0655 0.2495 0.9942
C2 C -0.0579(9) 0.2477(6) 0.8438(10)
H3 H -0.0821 0.1802 0.8534
C3 C -0.1079(8) 0.3124(7) 0.7394(10)
H4 H -0.1465 0.3678 0.7666
C4 C -0.0233(7) 0.3709(5) 0.7053(8)
C5 C -0.0545(5) 0.4183(5) 0.5972(7)
H5 H -0.1278 0.4139 0.5472
C6 C 0.0197(6) 0.4737(4) 0.5583(5)
C7 C 0.1246(6) 0.4716(5) 0.6283(7)
H6 H 0.1766 0.5027 0.6013
C8 C 0.1597(7) 0.4255(5) 0.7392(7)
C9 C 0.2711(8) 0.4239(6) 0.8113(9)
C10 C 0.2978(8) 0.3801(8) 0.9192(9)
H7 H 0.3716 0.3738 0.9671
C11 C 0.2190(11) 0.3449(7) 0.9598(8)
H8 H 0.2389 0.3251 1.0396
C12 C 0.0805(8) 0.3769(5) 0.7783(8)
C13 C -0.1964(11) 0.2620(8) 0.6354(10)
C14 C -0.1767(10) 0.1791(10) 0.5750(12)
H9 H -0.1081 0.1463 0.6025
C15 C -0.2537(16) 0.1436(11) 0.4771(15)
H10 H -0.2366 0.0912 0.4318
C16 C -0.3557(15) 0.1824(14) 0.4430(14)
H11 H -0.4112 0.1513 0.3794
C17 C -0.3787(10) 0.2637(12) 0.4978(14)
H12 H -0.4485 0.2942 0.4699
C18 C -0.2996(13) 0.3023(7) 0.5951(11)
H13 H -0.3163 0.3585 0.6361
C19 C 0.3557(7) 0.4595(9) 0.7677(9)
C20 C 0.4164(11) 0.5387(9) 0.8161(8)
H14 H 0.4038 0.5732 0.8789
C21 C 0.4976(11) 0.5743(12) 0.7802(9)
H15 H 0.5408 0.6316 0.8181
C22 C 0.5141(8) 0.5285(12) 0.6941(12)
H16 H 0.5723 0.5511 0.6715
C23 C 0.4490(10) 0.4458(11) 0.6321(10)
H17 H 0.4600 0.4134 0.5673
C24 C 0.3674(7) 0.4152(8) 0.6727(11)
H18 H 0.3190 0.3619 0.6327
N1 N 0.1144(8) 0.3376(5) 0.8896(8)
C1B C -0.0319(10) 0.7012(8) 0.0705(8)
H1B H -0.0035 0.6424 0.0377
H2B H -0.0655 0.7505 0.0058
C2B C 0.0579(9) 0.7523(6) 0.1562(10)
H3B H 0.0821 0.8198 0.1466
C3B C 0.1079(8) 0.6876(7) 0.2606(10)
H4B H 0.1465 0.6322 0.2334
C4B C 0.0233(7) 0.6291(5) 0.2947(8)
C5B C 0.0545(5) 0.5817(5) 0.4028(7)
H5B H 0.1278 0.5861 0.4528
C6B C -0.0197(6) 0.5263(4) 0.4417(5)
C7B C -0.1246(6) 0.5284(5) 0.3717(7)
H6B H -0.1766 0.4973 0.3987
C8B C -0.1597(7) 0.5745(5) 0.2608(7)
C9B C -0.2711(8) 0.5761(6) 0.1887(9)
C10B C -0.2978(8) 0.6199(8) 0.0808(9)
H7B H -0.3716 0.6262 0.0329
C11B C -0.2190(11) 0.6551(7) 0.0402(8)
H8B H -0.2389 0.6749 -0.0396
C12B C -0.0805(8) 0.6231(5) 0.2217(8)
C13B C 0.1964(11) 0.7380(8) 0.3646(10)
C14B C 0.1767(10) 0.8209(10) 0.4250(12)
H9B H 0.1081 0.8537 0.3975
C15B C 0.2537(16) 0.8564(11) 0.5229(15)
H10B H 0.2366 0.9088 0.5682
C16B C 0.3557(15) 0.8176(14) 0.5570(14)
H11B H 0.4112 0.8487 0.6206
C17B C 0.3787(10) 0.7363(12) 0.5022(14)
H12B H 0.4485 0.7058 0.5301
C18B C 0.2996(13) 0.6977(7) 0.4049(11)
H13B H 0.3163 0.6415 0.3639
C19B C -0.3557(7) 0.5405(9) 0.2323(9)
C20B C -0.4164(11) 0.4613(9) 0.1839(8)
H14B H -0.4038 0.4268 0.1211
C21B C -0.4976(11) 0.4257(12) 0.2198(9)
H15B H -0.5408 0.3684 0.1819
C22B C -0.5141(8) 0.4715(12) 0.3059(12)
H16B H -0.5723 0.4489 0.3285
C23B C -0.4490(10) 0.5542(11) 0.3679(10)
H17B H -0.4600 0.5866 0.4327
C24B C -0.3674(7) 0.5848(8) 0.3273(11)
H18B H -0.3190 0.6381 0.3673
N1B N -0.1144(8) 0.6624(5) 0.1104(8)
loop_
_geom_bond_atom_site_label_1
_geom_bond_atom_site_label_2
_geom_bond_site_symmetry_1
_geom_bond_site_symmetry_2
B1 F1 1_555 1_555
F2 B1 1_555 1_555
F3 B1 1_555 1_555
F4 B1 1_555 1_555
C1 H1 1_555 1_555
H2 C1 1_555 1_555
C2 C1 1_555 1_555
H3 C2 1_555 1_555
C3 C2 1_555 1_555
H4 C3 1_555 1_555
C4 C3 1_555 1_555
C5 C4 1_555 1_555
H5 C5 1_555 1_555
C6 C5 1_555 1_555
C7 C6 1_555 1_555
H6 C7 1_555 1_555
C8 C7 1_555 1_555
C9 C8 1_555 1_555
C10 C9 1_555 1_555
H7 C10 1_555 1_555
C11 C10 1_555 1_555
H8 C11 1_555 1_555
C12 C4 1_555 1_555
C13 C3 1_555 1_555
C14 C13 1_555 1_555
H9 C14 1_555 1_555
C15 C14 1_555 1_555
H10 C15 1_555 1_555
C16 C15 1_555 1_555
H11 C16 1_555 1_555
C17 C16 1_555 1_555
H12 C17 1_555 1_555
C18 C13 1_555 1_555
H13 C18 1_555 1_555
C19 C9 1_555 1_555
C20 C19 1_555 1_555
H14 C20 1_555 1_555
C21 C20 1_555 1_555
H15 C21 1_555 1_555
C22 C21 1_555 1_555
H16 C22 1_555 1_555
C23 C22 1_555 1_555
H17 C23 1_555 1_555
C24 C19 1_555 1_555
H18 C24 1_555 1_555
N1 C1 1_555 1_555
C1B H1B 1_555 1_555
H2B C1B 1_555 1_555
C2B C1B 1_555 1_555
H3B C2B 1_555 1_555
C3B C2B 1_555 1_555
H4B C3B 1_555 1_555
C4B C3B 1_555 1_555
C5B C4B 1_555 1_555
H5B C5B 1_555 1_555
C6B C6 1_555 1_555
C7B C6B 1_555 1_555
H6B C7B 1_555 1_555
C8B C7B 1_555 1_555
C9B C8B 1_555 1_555
C10B C9B 1_555 1_555
H7B C10B 1_555 1_555
C11B C10B 1_555 1_555
H8B C11B 1_555 1_555
C12B C4B 1_555 1_555
C13B C3B 1_555 1_555
C14B C13B 1_555 1_555
H9B C14B 1_555 1_555
C15B C14B 1_555 1_555
H10B C15B 1_555 1_555
C16B C15B 1_555 1_555
H11B C16B 1_555 1_555
C17B C16B 1_555 1_555
H12B C17B 1_555 1_555
C18B C13B 1_555 1_555
H13B C18B 1_555 1_555
C19B C9B 1_555 1_555
C20B C19B 1_555 1_555
H14B C20B 1_555 1_555
C21B C20B 1_555 1_555
H15B C21B 1_555 1_555
C22B C21B 1_555 1_555
H16B C22B 1_555 1_555
C23B C22B 1_555 1_555
H17B C23B 1_555 1_555
C24B C19B 1_555 1_555
H18B C24B 1_555 1_555
N1B C1B 1_555 1_555
C8 C12 1_555 1_555
C11 N1 1_555 1_555
C12 N1 1_555 1_555
C17 C18 1_555 1_555
C23 C24 1_555 1_555
C5B C6B 1_555 1_555
C8B C12B 1_555 1_555
C11B N1B 1_555 1_555
C12B N1B 1_555 1_555
C17B C18B 1_555 1_555
C23B C24B 1_555 1_555

#END
