
#######################################################################
#
#                 Cambridge Crystallographic Data Centre
#                                CCDC 
#
#######################################################################
#
# If this CIF has been generated from an entry in the Cambridge 
# Structural Database, then it will include bibliographic, chemical, 
# crystal, experimental, refinement or atomic coordinate data resulting 
# from the CCDC's data processing and validation procedures.
#
#######################################################################

data_EROSOU
_chemical_formula_moiety         'C24 H30 N2 O4'
_chemical_name_systematic        
'(2R,6S)-t-Butyl 2-(benzhydrylcarbamoyl)-6-methylmorpholine-4-carboxylate'
_symmetry_cell_setting           monoclinic
_symmetry_space_group_name_H-M   'C 2'
_symmetry_Int_Tables_number      5
_space_group_name_Hall           'C 2y'
loop_
_symmetry_equiv_pos_site_id
_symmetry_equiv_pos_as_xyz
1 x,y,z
2 -x,y,-z
3 1/2+x,1/2+y,z
4 1/2-x,1/2+y,-z
_cell_length_a                   27.248(4)
_cell_length_b                   5.8241(8)
_cell_length_c                   14.275(2)
_cell_angle_alpha                90
_cell_angle_beta                 94.192(3)
_cell_angle_gamma                90
_cell_volume                     2259.31
_exptl_crystal_colour            white
_exptl_crystal_description       prismatic
_cell_formula_units_Z            4
_exptl_crystal_recrystallization_method 'ethyl acetate'
loop_
_atom_site_label
_atom_site_type_symbol
_atom_site_fract_x
_atom_site_fract_y
_atom_site_fract_z
N1 N 0.38365(9) 0.0550(5) -0.09403(17)
N2 N 0.32924(10) 0.1668(4) 0.19729(14)
O1 O 0.36972(10) 0.4751(5) 0.15139(14)
O2 O 0.30774(6) 0.0299(3) 0.02574(11)
O3 O 0.39908(8) 0.0609(4) -0.24661(13)
O4 O 0.43729(7) 0.3050(4) -0.14171(13)
C1 C 0.34746(10) 0.2991(5) 0.13400(17)
C2 C 0.34143(9) 0.2148(5) 0.03370(16)
H1 H 0.3284 0.3407 -0.0063
C3 C 0.39051(10) 0.1440(7) 0.00143(19)
H2 H 0.4125 0.2750 0.0031
H3 H 0.4051 0.0268 0.0429
C4 C 0.34907(11) -0.1318(6) -0.1033(2)
H4 H 0.3621 -0.2628 -0.0677
H5 H 0.3443 -0.1769 -0.1687
C5 C 0.30039(10) -0.0621(5) -0.06807(17)
H6 H 0.2804 -0.2014 -0.0645
C6 C 0.27212(12) 0.1025(7) -0.13283(19)
H7 H 0.2429 0.1509 -0.1047
H8 H 0.2632 0.0278 -0.1916
H9 H 0.2922 0.2339 -0.1435
C7 C 0.33164(10) 0.2209(5) 0.29757(15)
H10 H 0.3432 0.3797 0.3048
C8 C 0.28101(10) 0.2103(5) 0.33392(16)
C9 C 0.25146(10) 0.0219(6) 0.31751(19)
H11 H 0.2632 -0.1026 0.2850
C10 C 0.20460(11) 0.0133(7) 0.3483(2)
H12 H 0.1847 -0.1143 0.3353
C11 C 0.18741(13) 0.1950(8) 0.3985(2)
H13 H 0.1558 0.1915 0.4192
C12 C 0.21685(14) 0.3780(8) 0.4174(2)
H14 H 0.2056 0.4985 0.4529
C13 C 0.26342(13) 0.3900(6) 0.38514(18)
H15 H 0.2829 0.5189 0.3979
C14 C 0.36812(9) 0.0700(5) 0.35412(16)
C15 C 0.38313(10) 0.1338(6) 0.44504(18)
H16 H 0.3716 0.2702 0.4692
C16 C 0.41486(12) -0.0017(8) 0.5002(2)
H17 H 0.4245 0.0440 0.5612
C17 C 0.43244(11) -0.2042(8) 0.4660(3)
H18 H 0.4539 -0.2958 0.5033
C18 C 0.41775(11) -0.2685(7) 0.3760(2)
H19 H 0.4293 -0.4051 0.3521
C19 C 0.38604(11) -0.1329(6) 0.32084(19)
H20 H 0.3765 -0.1792 0.2599
C20 C 0.40627(10) 0.1365(5) -0.16836(19)
C21 C 0.47203(10) 0.3996(5) -0.20592(19)
C22 C 0.49962(12) 0.5747(6) -0.1450(2)
H21 H 0.4769 0.6863 -0.1239
H22 H 0.5235 0.6500 -0.1805
H23 H 0.5160 0.4996 -0.0916
C23 C 0.50568(12) 0.2101(6) -0.2339(3)
H24 H 0.5194 0.1329 -0.1786
H25 H 0.5317 0.2743 -0.2674
H26 H 0.4873 0.1025 -0.2735
C24 C 0.44503(13) 0.5127(7) -0.2886(2)
H27 H 0.4274 0.3987 -0.3262
H28 H 0.4681 0.5892 -0.3256
H29 H 0.4222 0.6228 -0.2670
H30 H 0.3113(11) 0.060(6) 0.181(2)
loop_
_geom_bond_atom_site_label_1
_geom_bond_atom_site_label_2
_geom_bond_site_symmetry_1
_geom_bond_site_symmetry_2
N1 C3 1_555 1_555
N2 C1 1_555 1_555
O1 C1 1_555 1_555
O2 C2 1_555 1_555
O3 C20 1_555 1_555
O4 C20 1_555 1_555
C1 C2 1_555 1_555
C2 H1 1_555 1_555
C3 C2 1_555 1_555
H2 C3 1_555 1_555
H3 C3 1_555 1_555
C4 N1 1_555 1_555
H4 C4 1_555 1_555
H5 C4 1_555 1_555
C5 O2 1_555 1_555
H6 C5 1_555 1_555
C6 C5 1_555 1_555
H7 C6 1_555 1_555
H8 C6 1_555 1_555
H9 C6 1_555 1_555
C7 N2 1_555 1_555
H10 C7 1_555 1_555
C8 C7 1_555 1_555
C9 C8 1_555 1_555
H11 C9 1_555 1_555
C10 C9 1_555 1_555
H12 C10 1_555 1_555
C11 C10 1_555 1_555
H13 C11 1_555 1_555
C12 C11 1_555 1_555
H14 C12 1_555 1_555
C13 C8 1_555 1_555
H15 C13 1_555 1_555
C14 C7 1_555 1_555
C15 C14 1_555 1_555
H16 C15 1_555 1_555
C16 C15 1_555 1_555
H17 C16 1_555 1_555
C17 C16 1_555 1_555
H18 C17 1_555 1_555
C18 C17 1_555 1_555
H19 C18 1_555 1_555
C19 C14 1_555 1_555
H20 C19 1_555 1_555
C20 N1 1_555 1_555
C21 O4 1_555 1_555
C22 C21 1_555 1_555
H21 C22 1_555 1_555
H22 C22 1_555 1_555
H23 C22 1_555 1_555
C23 C21 1_555 1_555
H24 C23 1_555 1_555
H25 C23 1_555 1_555
H26 C23 1_555 1_555
C24 C21 1_555 1_555
H27 C24 1_555 1_555
H28 C24 1_555 1_555
H29 C24 1_555 1_555
H30 N2 1_555 1_555
C4 C5 1_555 1_555
C12 C13 1_555 1_555
C18 C19 1_555 1_555

#END
