
#######################################################################
#
#                 Cambridge Crystallographic Data Centre
#                                CCDC 
#
#######################################################################
#
# If this CIF has been generated from an entry in the Cambridge 
# Structural Database, then it will include bibliographic, chemical, 
# crystal, experimental, refinement or atomic coordinate data resulting 
# from the CCDC's data processing and validation procedures.
#
#######################################################################

data_EROSAH
_chemical_formula_moiety         'C32 H24 N2'
_chemical_name_systematic        8,8'-dimethyl-4,4'-diphenyl-6,6'-biquinoline
_symmetry_cell_setting           orthorhombic
_symmetry_space_group_name_H-M   'P b c a'
_symmetry_Int_Tables_number      61
_space_group_name_Hall           '-P 2ac 2ab'
loop_
_symmetry_equiv_pos_site_id
_symmetry_equiv_pos_as_xyz
1 x,y,z
2 1/2-x,-y,1/2+z
3 -x,1/2+y,1/2-z
4 1/2+x,1/2-y,-z
5 -x,-y,-z
6 1/2+x,y,1/2-z
7 x,1/2-y,1/2+z
8 1/2-x,1/2+y,z
_cell_length_a                   7.917(6)
_cell_length_b                   22.675(14)
_cell_length_c                   25.49(2)
_cell_angle_alpha                90
_cell_angle_beta                 90
_cell_angle_gamma                90
_cell_volume                     4575.91
_exptl_crystal_colour            orange
_exptl_crystal_description       prism
_cell_formula_units_Z            8
loop_
_atom_site_label
_atom_site_type_symbol
_atom_site_fract_x
_atom_site_fract_y
_atom_site_fract_z
C1 C 0.5328(9) 0.2436(3) 0.1496(3)
H1 H 0.5188 0.2243 0.1168
C2 C 0.5937(8) 0.3035(3) 0.1495(3)
H2 H 0.6116 0.3239 0.1174
C3 C 0.6257(8) 0.3305(3) 0.1971(3)
C4 C 0.6864(10) 0.3936(3) 0.1942(3)
C5 C 0.8037(9) 0.4112(3) 0.1560(3)
H3 H 0.8482 0.3829 0.1323
C6 C 0.8550(9) 0.4694(3) 0.1526(3)
H4 H 0.9351 0.4806 0.1267
C7 C 0.7916(9) 0.5107(3) 0.1860(3)
H5 H 0.8281 0.5505 0.1833
C8 C 0.6746(10) 0.4953(3) 0.2238(3)
H6 H 0.6315 0.5242 0.2472
C9 C 0.6195(9) 0.4361(3) 0.2275(3)
H7 H 0.5367 0.4254 0.2527
C10 C 0.5978(9) 0.2982(3) 0.2438(3)
C11 C 0.5250(9) 0.2404(3) 0.2394(3)
C12 C 0.4805(8) 0.2098(3) 0.2859(3)
C13 C 0.3961(9) 0.1505(3) 0.2811(3)
H8 H 0.3797 0.1410 0.2440
H9 H 0.2863 0.1516 0.2988
H10 H 0.4675 0.1203 0.2975
C14 C 0.5196(9) 0.2323(3) 0.3334(3)
H11 H 0.4861 0.2115 0.3641
C15 C 0.6107(9) 0.2871(3) 0.3388(3)
C16 C 0.6455(8) 0.3190(3) 0.2939(3)
H12 H 0.7026 0.3557 0.2967
C17 C 0.6691(8) 0.3051(3) 0.3929(3)
C18 C 0.7047(9) 0.2621(3) 0.4313(3)
H13 H 0.6893 0.2218 0.4222
C19 C 0.7595(9) 0.2745(3) 0.4805(3)
C20 C 0.7840(9) 0.2264(3) 0.5199(3)
H14 H 0.8246 0.2433 0.5530
H15 H 0.8673 0.1981 0.5067
H16 H 0.6763 0.2062 0.5260
C21 C 0.7867(9) 0.3354(3) 0.4943(3)
C22 C 0.7560(8) 0.3802(3) 0.4569(3)
C23 C 0.6939(8) 0.3648(3) 0.4064(3)
H17 H 0.6690 0.3949 0.3816
C24 C 0.7812(8) 0.4412(3) 0.4723(3)
C25 C 0.7544(9) 0.4923(3) 0.4362(3)
C26 C 0.8274(9) 0.4952(3) 0.3868(3)
H18 H 0.8973 0.4638 0.3751
C27 C 0.8001(9) 0.5432(3) 0.3543(3)
H19 H 0.8513 0.5444 0.3206
C28 C 0.6963(10) 0.5903(3) 0.3709(4)
H20 H 0.6748 0.6228 0.3483
C29 C 0.6269(10) 0.5883(3) 0.4206(4)
H21 H 0.5604 0.6204 0.4327
C30 C 0.6532(9) 0.5395(3) 0.4531(3)
H22 H 0.6025 0.5383 0.4869
C31 C 0.8312(10) 0.4501(3) 0.5228(3)
H23 H 0.8482 0.4893 0.5348
C32 C 0.8587(10) 0.4030(3) 0.5579(3)
H24 H 0.8945 0.4121 0.5925
N1 N 0.4951(7) 0.2139(2) 0.1928(3)
N2 N 0.8371(8) 0.3465(3) 0.5451(3)
loop_
_geom_bond_atom_site_label_1
_geom_bond_atom_site_label_2
_geom_bond_site_symmetry_1
_geom_bond_site_symmetry_2
C1 H1 1_555 1_555
C2 C1 1_555 1_555
H2 C2 1_555 1_555
C3 C2 1_555 1_555
C4 C3 1_555 1_555
C5 C4 1_555 1_555
H3 C5 1_555 1_555
C6 C5 1_555 1_555
H4 C6 1_555 1_555
C7 C6 1_555 1_555
H5 C7 1_555 1_555
C8 C7 1_555 1_555
H6 C8 1_555 1_555
C9 C4 1_555 1_555
H7 C9 1_555 1_555
C10 C3 1_555 1_555
C11 C10 1_555 1_555
C12 C11 1_555 1_555
C13 C12 1_555 1_555
H8 C13 1_555 1_555
H9 C13 1_555 1_555
H10 C13 1_555 1_555
C14 C12 1_555 1_555
H11 C14 1_555 1_555
C15 C14 1_555 1_555
C16 C10 1_555 1_555
H12 C16 1_555 1_555
C17 C15 1_555 1_555
C18 C17 1_555 1_555
H13 C18 1_555 1_555
C19 C18 1_555 1_555
C20 C19 1_555 1_555
H14 C20 1_555 1_555
H15 C20 1_555 1_555
H16 C20 1_555 1_555
C21 C19 1_555 1_555
C22 C21 1_555 1_555
C23 C17 1_555 1_555
H17 C23 1_555 1_555
C24 C22 1_555 1_555
C25 C24 1_555 1_555
C26 C25 1_555 1_555
H18 C26 1_555 1_555
C27 C26 1_555 1_555
H19 C27 1_555 1_555
C28 C27 1_555 1_555
H20 C28 1_555 1_555
C29 C28 1_555 1_555
H21 C29 1_555 1_555
C30 C25 1_555 1_555
H22 C30 1_555 1_555
C31 C24 1_555 1_555
H23 C31 1_555 1_555
C32 C31 1_555 1_555
H24 C32 1_555 1_555
N1 C1 1_555 1_555
N2 C21 1_555 1_555
C8 C9 1_555 1_555
C11 N1 1_555 1_555
C15 C16 1_555 1_555
C22 C23 1_555 1_555
C29 C30 1_555 1_555
C32 N2 1_555 1_555

#END
