
#######################################################################
#
#                 Cambridge Crystallographic Data Centre
#                                CCDC 
#
#######################################################################
#
# If this CIF has been generated from an entry in the Cambridge 
# Structural Database, then it will include bibliographic, chemical, 
# crystal, experimental, refinement or atomic coordinate data resulting 
# from the CCDC's data processing and validation procedures.
#
#######################################################################

data_EROXEP
_chemical_formula_moiety         'C24 H31 N1 O3'
_chemical_name_systematic        1,3-bis(4-t-butylphenyl)-4-nitrobutan-1-one
_symmetry_cell_setting           orthorhombic
_symmetry_space_group_name_H-M   'P n a 21'
_symmetry_Int_Tables_number      33
_space_group_name_Hall           'P 2c -2n'
loop_
_symmetry_equiv_pos_site_id
_symmetry_equiv_pos_as_xyz
1 x,y,z
2 -x,-y,1/2+z
3 1/2+x,1/2-y,z
4 1/2-x,1/2+y,1/2+z
_cell_length_a                   20.440(4)
_cell_length_b                   17.500(4)
_cell_length_c                   6.1630(12)
_cell_angle_alpha                90
_cell_angle_beta                 90
_cell_angle_gamma                90
_cell_volume                     2204.51
_exptl_crystal_colour            colorless
_exptl_crystal_description       block
_cell_formula_units_Z            4
loop_
_atom_site_label
_atom_site_type_symbol
_atom_site_fract_x
_atom_site_fract_y
_atom_site_fract_z
N1 N 0.6807(2) 0.5602(3) 0.0686(7)
O1 O 0.50125(15) 0.54161(17) 0.2287(6)
C1 C 0.4134(3) 0.9145(3) 0.5244(13)
H1 H 0.3856 0.8949 0.4118
H2 H 0.4564 0.9235 0.4669
H3 H 0.3957 0.9615 0.5788
O2 O 0.73656(19) 0.5582(3) 0.1435(8)
C2 C 0.4638(4) 0.8985(4) 0.8758(18)
H4 H 0.4453 0.9465 0.9193
H5 H 0.5063 0.9070 0.8136
H6 H 0.4679 0.8658 1.0001
O3 O 0.6580(2) 0.6145(2) -0.0204(9)
C3 C 0.3532(4) 0.8505(4) 0.813(2)
H7 H 0.3221 0.8277 0.7162
H8 H 0.3377 0.8999 0.8576
H9 H 0.3585 0.8185 0.9385
C4 C 0.4174(3) 0.8589(3) 0.7002(13)
C5 C 0.4448(2) 0.7832(3) 0.6253(9)
C6 C 0.4948(2) 0.7455(3) 0.7359(9)
H10 H 0.5103 0.7660 0.8652
C7 C 0.5216(2) 0.6792(2) 0.6595(8)
H11 H 0.5552 0.6560 0.7369
C8 C 0.49945(19) 0.6457(2) 0.4682(8)
C9 C 0.4479(2) 0.6811(3) 0.3611(10)
H12 H 0.4306 0.6594 0.2358
C10 C 0.4224(3) 0.7479(3) 0.4400(11)
H13 H 0.3882 0.7707 0.3644
C11 C 0.5300(2) 0.5762(2) 0.3703(8)
C12 C 0.5950(2) 0.5512(2) 0.4511(8)
H14 H 0.5919 0.5420 0.6059
H15 H 0.6260 0.5925 0.4295
C13 C 0.6218(2) 0.4789(2) 0.3414(8)
H16 H 0.5858 0.4420 0.3412
C14 C 0.6395(2) 0.4918(3) 0.1035(9)
H17 H 0.6626 0.4472 0.0497
H18 H 0.5996 0.4971 0.0199
C15 C 0.6768(2) 0.4417(2) 0.4692(8)
C16 C 0.7202(2) 0.4823(2) 0.5969(9)
H19 H 0.7172 0.5352 0.6026
C17 C 0.76808(19) 0.4452(2) 0.7167(9)
H20 H 0.7970 0.4742 0.7989
C18 C 0.7743(2) 0.3668(2) 0.7183(9)
C19 C 0.7315(2) 0.3266(2) 0.5847(11)
H21 H 0.7358 0.2739 0.5732
C20 C 0.6833(2) 0.3630(2) 0.4697(10)
H22 H 0.6540 0.3338 0.3893
C21 C 0.8267(3) 0.3263(3) 0.8525(11)
C22 C 0.8825(3) 0.3032(5) 0.6997(15)
H23 H 0.9157 0.2770 0.7807
H24 H 0.9008 0.3481 0.6342
H25 H 0.8658 0.2700 0.5886
C23 C 0.8533(4) 0.3767(4) 1.0330(14)
H26 H 0.8183 0.3911 1.1285
H27 H 0.8725 0.4218 0.9713
H28 H 0.8859 0.3491 1.1133
C24 C 0.7971(3) 0.2562(4) 0.9646(15)
H29 H 0.7630 0.2722 1.0617
H30 H 0.8305 0.2300 1.0450
H31 H 0.7791 0.2224 0.8572
loop_
_geom_bond_atom_site_label_1
_geom_bond_atom_site_label_2
_geom_bond_site_symmetry_1
_geom_bond_site_symmetry_2
N1 O2 1_555 1_555
O1 C11 1_555 1_555
C1 H1 1_555 1_555
H2 C1 1_555 1_555
H3 C1 1_555 1_555
C2 H4 1_555 1_555
H5 C2 1_555 1_555
H6 C2 1_555 1_555
O3 N1 1_555 1_555
C3 H7 1_555 1_555
H8 C3 1_555 1_555
H9 C3 1_555 1_555
C4 C1 1_555 1_555
C5 C4 1_555 1_555
C6 C5 1_555 1_555
H10 C6 1_555 1_555
C7 C6 1_555 1_555
H11 C7 1_555 1_555
C8 C7 1_555 1_555
C9 C8 1_555 1_555
H12 C9 1_555 1_555
C10 C5 1_555 1_555
H13 C10 1_555 1_555
C11 C8 1_555 1_555
C12 C11 1_555 1_555
H14 C12 1_555 1_555
H15 C12 1_555 1_555
C13 C12 1_555 1_555
H16 C13 1_555 1_555
C14 N1 1_555 1_555
H17 C14 1_555 1_555
H18 C14 1_555 1_555
C15 C13 1_555 1_555
C16 C15 1_555 1_555
H19 C16 1_555 1_555
C17 C16 1_555 1_555
H20 C17 1_555 1_555
C18 C17 1_555 1_555
C19 C18 1_555 1_555
H21 C19 1_555 1_555
C20 C15 1_555 1_555
H22 C20 1_555 1_555
C21 C18 1_555 1_555
C22 C21 1_555 1_555
H23 C22 1_555 1_555
H24 C22 1_555 1_555
H25 C22 1_555 1_555
C23 C21 1_555 1_555
H26 C23 1_555 1_555
H27 C23 1_555 1_555
H28 C23 1_555 1_555
C24 C21 1_555 1_555
H29 C24 1_555 1_555
H30 C24 1_555 1_555
H31 C24 1_555 1_555
C2 C4 1_555 1_555
C3 C4 1_555 1_555
C9 C10 1_555 1_555
C13 C14 1_555 1_555
C19 C20 1_555 1_555

#END
