
#######################################################################
#
#                 Cambridge Crystallographic Data Centre
#                                CCDC 
#
#######################################################################
#
# If this CIF has been generated from an entry in the Cambridge 
# Structural Database, then it will include bibliographic, chemical, 
# crystal, experimental, refinement or atomic coordinate data resulting 
# from the CCDC's data processing and validation procedures.
#
#######################################################################

data_EROXOA
_chemical_name_common            
(R)-4-Benzhydryl-N-methyl-N-(alpha-phenylethyl)aniline
_chemical_formula_moiety         'C28 H27 N1'
_chemical_name_systematic        
(R)-4-(diphenylmethyl)-N-methyl-N-(1-phenylethyl)aniline
_symmetry_cell_setting           monoclinic
_symmetry_space_group_name_H-M   'P 21'
_symmetry_Int_Tables_number      4
_space_group_name_Hall           'P 2yb'
loop_
_symmetry_equiv_pos_site_id
_symmetry_equiv_pos_as_xyz
1 x,y,z
2 -x,1/2+y,-z
_cell_length_a                   9.3250(2)
_cell_length_b                   8.66640(10)
_cell_length_c                   13.7611(2)
_cell_angle_alpha                90
_cell_angle_beta                 102.182(2)
_cell_angle_gamma                90
_cell_volume                     1087.05
_exptl_crystal_colour            colorless
_exptl_crystal_description       plate
_cell_formula_units_Z            2
_exptl_crystal_recrystallization_method 'ethyl acetate'
loop_
_atom_site_label
_atom_site_type_symbol
_atom_site_fract_x
_atom_site_fract_y
_atom_site_fract_z
N1 N 0.25415(16) 0.5060(2) 0.34227(13)
C1 C 0.3201(2) 0.5871(2) 0.43426(14)
H1 H 0.4265 0.5853 0.4393
C2 C 0.272(2) 0.7625(19) 0.4273(15)
C3 C 0.323(2) 0.8452(15) 0.3506(10)
H2 H 0.3749 0.7944 0.3093
C4 C 0.2952(17) 0.9958(14) 0.3393(9)
H3 H 0.3264 1.0493 0.2890
C5 C 0.2206(16) 1.0738(12) 0.4011(8)
H4 H 0.2052 1.1796 0.3940
C6 C 0.1693(15) 0.9931(13) 0.4731(8)
H5 H 0.1162 1.0433 0.5138
C7 C 0.1982(18) 0.833(2) 0.4844(13)
H6 H 0.1641 0.7783 0.5330
C8 C 0.2911(3) 0.5029(3) 0.52512(18)
H7 H 0.3200 0.3969 0.5229
H8 H 0.3465 0.5504 0.5842
H9 H 0.1884 0.5082 0.5256
C9 C 0.09794(19) 0.5221(3) 0.30699(16)
H10 H 0.0569 0.5751 0.3561
H11 H 0.0788 0.5803 0.2462
H12 H 0.0541 0.4218 0.2952
C10 C 0.59089(18) 0.19021(19) 0.09792(12)
H13 H 0.5190 0.1538 0.0399
C11 C 0.50373(16) 0.27699(19) 0.16251(11)
C12 C 0.35833(19) 0.3155(2) 0.12687(12)
H14 H 0.3144 0.2904 0.0617
C13 C 0.27597(17) 0.3906(2) 0.18541(13)
H15 H 0.1781 0.4134 0.1589
C14 C 0.33698(17) 0.43272(19) 0.28340(12)
C15 C 0.48463(18) 0.3932(2) 0.31982(11)
H16 H 0.5295 0.4186 0.3848
C16 C 0.56410(18) 0.3170(2) 0.26036(12)
H17 H 0.6614 0.2916 0.2868
C17 C 0.65956(18) 0.04541(19) 0.15204(12)
C18 C 0.5692(2) -0.0794(2) 0.15820(15)
H18 H 0.4703 -0.0742 0.1276
C19 C 0.6234(3) -0.2110(2) 0.20898(18)
H19 H 0.5613 -0.2942 0.2117
C20 C 0.7684(3) -0.2202(2) 0.25557(17)
H20 H 0.8043 -0.3085 0.2908
C21 C 0.8599(2) -0.0985(3) 0.24982(16)
H21 H 0.9586 -0.1051 0.2807
C22 C 0.80669(19) 0.0349(2) 0.19826(14)
H22 H 0.8697 0.1170 0.1948
C23 C 0.70021(19) 0.2889(2) 0.05737(12)
C24 C 0.7571(3) 0.2319(3) -0.02102(16)
H23 H 0.7300 0.1341 -0.0461
C25 C 0.8540(3) 0.3193(3) -0.06239(19)
H24 H 0.8908 0.2798 -0.1150
C26 C 0.8958(3) 0.4642(3) -0.0259(2)
H25 H 0.9612 0.5222 -0.0533
C27 C 0.8402(2) 0.5216(3) 0.05081(17)
H26 H 0.8679 0.6193 0.0758
C28 C 0.7426(2) 0.4351(2) 0.09165(14)
H27 H 0.7048 0.4765 0.1433
C29? C 0.282(4) 0.743(4) 0.429(2)
C30? C 0.318(3) 0.856(3) 0.3757(17)
H28? H 0.3775 0.8267 0.3325
C31? C 0.281(3) 1.017(3) 0.3722(16)
H29? H 0.3122 1.0861 0.3294
C32? C 0.197(3) 1.060(3) 0.4352(16)
H30? H 0.1659 1.1621 0.4352
C33? C 0.157(3) 0.957(2) 0.4996(17)
H31? H 0.1041 0.9916 0.5459
C34? C 0.191(3) 0.811(4) 0.497(2)
H32? H 0.1563 0.7448 0.5397
loop_
_geom_bond_atom_site_label_1
_geom_bond_atom_site_label_2
_geom_bond_site_symmetry_1
_geom_bond_site_symmetry_2
N1 C1 1_555 1_555
C1 H1 1_555 1_555
C2 C1 1_555 1_555
C3 C2 1_555 1_555
H2 C3 1_555 1_555
C4 C3 1_555 1_555
H3 C4 1_555 1_555
C5 C4 1_555 1_555
H4 C5 1_555 1_555
C6 C5 1_555 1_555
H5 C6 1_555 1_555
C7 C2 1_555 1_555
H6 C7 1_555 1_555
C8 C1 1_555 1_555
H7 C8 1_555 1_555
H8 C8 1_555 1_555
H9 C8 1_555 1_555
C9 N1 1_555 1_555
H10 C9 1_555 1_555
H11 C9 1_555 1_555
H12 C9 1_555 1_555
C10 H13 1_555 1_555
C11 C10 1_555 1_555
C12 C11 1_555 1_555
H14 C12 1_555 1_555
C13 C12 1_555 1_555
H15 C13 1_555 1_555
C14 N1 1_555 1_555
C15 C14 1_555 1_555
H16 C15 1_555 1_555
C16 C11 1_555 1_555
H17 C16 1_555 1_555
C17 C10 1_555 1_555
C18 C17 1_555 1_555
H18 C18 1_555 1_555
C19 C18 1_555 1_555
H19 C19 1_555 1_555
C20 C19 1_555 1_555
H20 C20 1_555 1_555
C21 C20 1_555 1_555
H21 C21 1_555 1_555
C22 C17 1_555 1_555
H22 C22 1_555 1_555
C23 C10 1_555 1_555
C24 C23 1_555 1_555
H23 C24 1_555 1_555
C25 C24 1_555 1_555
H24 C25 1_555 1_555
C26 C25 1_555 1_555
H25 C26 1_555 1_555
C27 C26 1_555 1_555
H26 C27 1_555 1_555
C28 C23 1_555 1_555
H27 C28 1_555 1_555
C6 C7 1_555 1_555
C13 C14 1_555 1_555
C15 C16 1_555 1_555
C21 C22 1_555 1_555
C27 C28 1_555 1_555

#END
