
#######################################################################
#
#                 Cambridge Crystallographic Data Centre
#                                CCDC 
#
#######################################################################
#
# If this CIF has been generated from an entry in the Cambridge 
# Structural Database, then it will include bibliographic, chemical, 
# crystal, experimental, refinement or atomic coordinate data resulting 
# from the CCDC's data processing and validation procedures.
#
#######################################################################

data_ERUBUP
_chemical_name_common            
'2-(1,3-Benzothiazol-2-ylamino)-2-oxoethyl piperidine-1-carbodithioate monohydrate'
_chemical_formula_moiety         'C15 H17 N3 O1 S3,H2 O1'
_chemical_name_systematic        
'([(1,3-Benzothiazol-2-yl)carbamoyl]methyl) piperidine-1-carbodithioate monohydrate'
_symmetry_cell_setting           monoclinic
_symmetry_space_group_name_H-M   'P 21/c'
_symmetry_Int_Tables_number      14
_space_group_name_Hall           '-P 2ybc'
loop_
_symmetry_equiv_pos_site_id
_symmetry_equiv_pos_as_xyz
1 x,y,z
2 -x,1/2+y,1/2-z
3 -x,-y,-z
4 x,1/2-y,1/2+z
_cell_length_a                   10.6326(3)
_cell_length_b                   12.0735(3)
_cell_length_c                   14.7824(4)
_cell_angle_alpha                90
_cell_angle_beta                 113.133(2)
_cell_angle_gamma                90
_cell_volume                     1745.08
_exptl_crystal_colour            colorless
_exptl_crystal_description       block
_cell_formula_units_Z            4
loop_
_atom_site_label
_atom_site_type_symbol
_atom_site_fract_x
_atom_site_fract_y
_atom_site_fract_z
S1 S -0.11155(5) 0.39341(3) 0.39288(3)
S2 S 0.14706(5) 0.19374(3) 0.16270(3)
S3 S 0.34529(6) 0.24704(5) 0.36726(3)
O1 O 0.00460(15) 0.32824(10) 0.26734(10)
N1 N -0.14307(15) 0.20161(10) 0.46198(10)
N2 N 0.37483(17) 0.30273(14) 0.20291(11)
N3 N -0.02961(10) 0.18869(7) 0.35648(7)
H1 H -0.0250 0.1209 0.3715
C1 C -0.19188(10) 0.38955(7) 0.47513(7)
C2 C -0.24377(10) 0.47707(7) 0.51145(7)
H2 H -0.2375 0.5497 0.4927
C3 C -0.3046(2) 0.45284(17) 0.57595(18)
H3 H -0.3404 0.5099 0.6008
C4 C -0.3132(2) 0.34427(18) 0.60443(17)
H4 H -0.3539 0.3300 0.6486
C5 C -0.2626(2) 0.25758(15) 0.56845(15)
H5 H -0.2696 0.1852 0.5874
C6 C -0.20087(17) 0.28022(13) 0.50311(12)
C7 C -0.09440(16) 0.24949(12) 0.40459(11)
C8 C 0.01508(18) 0.23052(13) 0.28907(12)
C9 C 0.0712(2) 0.14189(14) 0.24244(13)
H6 H -0.0025 0.0920 0.2054
H7 H 0.1392 0.0992 0.2943
C10 C 0.30123(18) 0.25403(13) 0.24634(12)
C11 C 0.3334(2) 0.31304(17) 0.09552(13)
H8 H 0.2466 0.2758 0.0618
H9 H 0.4010 0.2776 0.0763
C12 C 0.3200(2) 0.43266(18) 0.06582(15)
H10 H 0.2454 0.4658 0.0785
H11 H 0.2983 0.4380 -0.0042
C13 C 0.4502(3) 0.4956(2) 0.1215(2)
H12 H 0.4357 0.5738 0.1057
H13 H 0.5218 0.4697 0.1016
C14 C 0.4948(3) 0.4796(2) 0.23209(18)
H14 H 0.5832 0.5144 0.2661
H15 H 0.4295 0.5156 0.2534
C15 C 0.5044(2) 0.3595(2) 0.25880(17)
H16 H 0.5774 0.3253 0.2449
H17 H 0.5261 0.3520 0.3287
O2 O 0.99835(17) 0.03537(10) 0.61071(10)
H18 H 0.9501 0.0735 0.5538
H19 H 1.0111 0.0822 0.6617
loop_
_geom_bond_atom_site_label_1
_geom_bond_atom_site_label_2
_geom_bond_site_symmetry_1
_geom_bond_site_symmetry_2
S1 C1 1_555 1_555
S2 C9 1_555 1_555
S3 C10 1_555 1_555
O1 C8 1_555 1_555
N1 C6 1_555 1_555
N2 C10 1_555 1_555
N3 H1 1_555 1_555
C1 C2 1_555 1_555
C2 H2 1_555 1_555
C3 C2 1_555 1_555
H3 C3 1_555 1_555
C4 C3 1_555 1_555
H4 C4 1_555 1_555
C5 C4 1_555 1_555
H5 C5 1_555 1_555
C6 C1 1_555 1_555
C7 S1 1_555 1_555
C8 N3 1_555 1_555
C9 C8 1_555 1_555
H6 C9 1_555 1_555
H7 C9 1_555 1_555
C10 S2 1_555 1_555
C11 N2 1_555 1_555
H8 C11 1_555 1_555
H9 C11 1_555 1_555
C12 C11 1_555 1_555
H10 C12 1_555 1_555
H11 C12 1_555 1_555
C13 C12 1_555 1_555
H12 C13 1_555 1_555
H13 C13 1_555 1_555
C14 C13 1_555 1_555
H14 C14 1_555 1_555
H15 C14 1_555 1_555
C15 N2 1_555 1_555
H16 C15 1_555 1_555
H17 C15 1_555 1_555
O2 H18 1_555 1_555
H19 O2 1_555 1_555
N1 C7 1_555 1_555
N3 C7 1_555 1_555
C5 C6 1_555 1_555
C14 C15 1_555 1_555

#END
