
#######################################################################
#
#                 Cambridge Crystallographic Data Centre
#                                CCDC 
#
#######################################################################
#
# If this CIF has been generated from an entry in the Cambridge 
# Structural Database, then it will include bibliographic, chemical, 
# crystal, experimental, refinement or atomic coordinate data resulting 
# from the CCDC's data processing and validation procedures.
#
#######################################################################

data_ERUBID
_chemical_formula_moiety         'C16 H26 Cl1 N1 O3'
_chemical_name_systematic        
3-Chloro-4-dimethylamino-5-[(1R,2S,5R)-2-isopropyl-5-methylcyclohexyloxy]furan-2(5H)-one
_symmetry_cell_setting           orthorhombic
_symmetry_space_group_name_H-M   'P 21 21 21'
_symmetry_Int_Tables_number      19
_space_group_name_Hall           'P 2ac 2ab'
loop_
_symmetry_equiv_pos_site_id
_symmetry_equiv_pos_as_xyz
1 x,y,z
2 1/2-x,-y,1/2+z
3 -x,1/2+y,1/2-z
4 1/2+x,1/2-y,-z
_cell_length_a                   7.5438(5)
_cell_length_b                   8.1631(5)
_cell_length_c                   28.5953(17)
_cell_angle_alpha                90
_cell_angle_beta                 90
_cell_angle_gamma                90
_cell_volume                     1760.92
_exptl_crystal_colour            colorless
_exptl_crystal_description       block
_cell_formula_units_Z            4
loop_
_atom_site_label
_atom_site_type_symbol
_atom_site_fract_x
_atom_site_fract_y
_atom_site_fract_z
C1 C 0.4580(5) 0.8674(4) 0.45480(10)
H1 H 0.3934 0.7827 0.4714
H2 H 0.5740 0.8773 0.4691
C2 C 0.4806(4) 0.8152(4) 0.40327(9)
H3 H 0.5491 0.9020 0.3880
C3 C 0.2995(4) 0.8133(3) 0.37990(9)
H4 H 0.2272 0.7270 0.3942
C4 C 0.2051(5) 0.9754(3) 0.38525(9)
H5 H 0.0895 0.9685 0.3705
H6 H 0.2724 1.0599 0.3693
C5 C 0.1815(6) 1.0237(4) 0.43669(11)
H7 H 0.1112 0.9379 0.4519
C6 C 0.3610(7) 1.0271(4) 0.45991(11)
H8 H 0.4316 1.1140 0.4462
H9 H 0.3462 1.0514 0.4929
C7 C 0.0799(7) 1.1841(5) 0.44127(12)
H10 H 0.0713 1.2137 0.4737
H11 H -0.0369 1.1710 0.4285
H12 H 0.1413 1.2688 0.4245
C8 C 0.5869(5) 0.6562(4) 0.39706(11)
H13 H 0.5775 0.6257 0.3640
C9 C 0.5161(5) 0.5122(4) 0.42518(12)
H14 H 0.5293 0.5345 0.4580
H15 H 0.5814 0.4151 0.4173
H16 H 0.3930 0.4960 0.4181
C10 C 0.7855(5) 0.6823(6) 0.40726(13)
H17 H 0.8276 0.7752 0.3899
H18 H 0.8507 0.5865 0.3981
H19 H 0.8019 0.7016 0.4401
C11 C 0.2476(5) 0.4116(4) 0.31317(11)
H20 H 0.3620 0.3966 0.3272
H21 H 0.1923 0.3069 0.3087
H22 H 0.1751 0.4777 0.3333
C12 C 0.3298(6) 0.3891(4) 0.23027(11)
H23 H 0.2355 0.3726 0.2082
H24 H 0.3670 0.2853 0.2426
H25 H 0.4280 0.4411 0.2149
C13 C 0.2303(4) 0.6503(3) 0.26159(9)
C14 C 0.2256(4) 0.7458(3) 0.22286(9)
C15 C 0.1758(4) 0.9092(4) 0.23489(11)
C16 C 0.1844(4) 0.7605(3) 0.30258(10)
H26 H 0.0818 0.7180 0.3198
Cl1 Cl 0.26385(14) 0.70164(12) 0.16516(3)
N1 N 0.2678(3) 0.4928(3) 0.26825(8)
O1 O 0.3317(3) 0.7719(2) 0.33142(6)
O2 O 0.1456(3) 0.9169(2) 0.28218(6)
O3 O 0.1584(3) 1.0295(3) 0.21086(7)
loop_
_geom_bond_atom_site_label_1
_geom_bond_atom_site_label_2
_geom_bond_site_symmetry_1
_geom_bond_site_symmetry_2
C1 H1 1_555 1_555
H2 C1 1_555 1_555
C2 C1 1_555 1_555
H3 C2 1_555 1_555
C3 C2 1_555 1_555
H4 C3 1_555 1_555
C4 C3 1_555 1_555
H5 C4 1_555 1_555
H6 C4 1_555 1_555
C5 C4 1_555 1_555
H7 C5 1_555 1_555
C6 C1 1_555 1_555
H8 C6 1_555 1_555
H9 C6 1_555 1_555
C7 C5 1_555 1_555
H10 C7 1_555 1_555
H11 C7 1_555 1_555
H12 C7 1_555 1_555
C8 C2 1_555 1_555
H13 C8 1_555 1_555
C9 C8 1_555 1_555
H14 C9 1_555 1_555
H15 C9 1_555 1_555
H16 C9 1_555 1_555
C10 C8 1_555 1_555
H17 C10 1_555 1_555
H18 C10 1_555 1_555
H19 C10 1_555 1_555
C11 H20 1_555 1_555
H21 C11 1_555 1_555
H22 C11 1_555 1_555
C12 H23 1_555 1_555
H24 C12 1_555 1_555
H25 C12 1_555 1_555
C13 C14 1_555 1_555
C14 C15 1_555 1_555
C15 O2 1_555 1_555
C16 C13 1_555 1_555
H26 C16 1_555 1_555
Cl1 C14 1_555 1_555
N1 C11 1_555 1_555
O1 C3 1_555 1_555
O2 C16 1_555 1_555
O3 C15 1_555 1_555
C5 C6 1_555 1_555
C12 N1 1_555 1_555
C13 N1 1_555 1_555
C16 O1 1_555 1_555

#END
