
#######################################################################
#
#                 Cambridge Crystallographic Data Centre
#                                CCDC 
#
#######################################################################
#
# If this CIF has been generated from an entry in the Cambridge 
# Structural Database, then it will include bibliographic, chemical, 
# crystal, experimental, refinement or atomic coordinate data resulting 
# from the CCDC's data processing and validation procedures.
#
#######################################################################

data_ERUKIN
_chemical_compound_source        'aerial parts of Salvia plebeia R. Br.'
_chemical_name_common            'Eudebeiolide B'
_chemical_formula_moiety         'C15 H18 O4'
_chemical_name_systematic        
9a-hydroxy-3,5,8a-trimethyl-4a,8a,9,9a-tetrahydronaphtho[2,3-b]furan-2,6(4H,5H)-dione
_symmetry_cell_setting           orthorhombic
_symmetry_space_group_name_H-M   'P 21 21 21'
_symmetry_Int_Tables_number      19
_space_group_name_Hall           'P 2ac 2ab'
loop_
_symmetry_equiv_pos_site_id
_symmetry_equiv_pos_as_xyz
1 x,y,z
2 1/2-x,-y,1/2+z
3 -x,1/2+y,1/2-z
4 1/2+x,1/2-y,-z
_cell_length_a                   7.731(2)
_cell_length_b                   9.131(2)
_cell_length_c                   19.223(5)
_cell_angle_alpha                90
_cell_angle_beta                 90
_cell_angle_gamma                90
_cell_volume                     1356.99
_exptl_crystal_colour            colorless
_exptl_crystal_description       plate
_cell_formula_units_Z            4
loop_
_atom_site_label
_atom_site_type_symbol
_atom_site_fract_x
_atom_site_fract_y
_atom_site_fract_z
O1 O 0.8235(4) 0.0820(3) 0.70069(15)
C1 C 0.6568(6) 0.0387(5) 0.7125(3)
C2 C 0.5388(5) 0.1253(4) 0.6690(2)
C3 C 0.6341(5) 0.2166(4) 0.6313(2)
C4 C 0.5869(5) 0.3444(4) 0.5868(2)
H1 H 0.4630 0.3605 0.5885
H2 H 0.6192 0.3251 0.5389
C5 C 0.6818(4) 0.4800(3) 0.6132(2)
H3 H 0.6436 0.4946 0.6613
C6 C 0.6315(5) 0.6194(4) 0.5735(2)
H4 H 0.6457 0.5992 0.5238
C7 C 0.7487(6) 0.7471(4) 0.5917(2)
C8 C 0.8988(6) 0.7251(4) 0.6343(2)
H5 H 0.9533 0.8054 0.6544
C9 C 0.9605(5) 0.5921(4) 0.6455(2)
H6 H 1.0593 0.5824 0.6727
C10 C 0.8790(5) 0.4558(4) 0.6163(2)
C11 C 0.9161(5) 0.3263(4) 0.6654(2)
H7 H 1.0396 0.3074 0.6660
H8 H 0.8815 0.3528 0.7123
C12 C 0.8229(5) 0.1885(4) 0.6445(2)
O2 O 0.6259(4) -0.0540(3) 0.75522(18)
C13 C 0.3485(5) 0.1046(4) 0.6722(3)
H9 H 0.3045 0.1474 0.7142
H10 H 0.3222 0.0019 0.6715
H11 H 0.2956 0.1512 0.6327
C14 C 0.4430(6) 0.6639(4) 0.5853(3)
H12 H 0.4180 0.7506 0.5590
H13 H 0.4247 0.6830 0.6339
H14 H 0.3682 0.5860 0.5705
O3 O 0.7124(4) 0.8704(3) 0.56876(16)
C15 C 0.9613(6) 0.4320(4) 0.5437(2)
H15 H 0.9131 0.3456 0.5228
H16 H 1.0841 0.4203 0.5486
H17 H 0.9376 0.5152 0.5148
O4 O 0.9067(4) 0.1239(3) 0.58789(16)
H18 H 0.848(7) 0.043(6) 0.578(3)
loop_
_geom_bond_atom_site_label_1
_geom_bond_atom_site_label_2
_geom_bond_site_symmetry_1
_geom_bond_site_symmetry_2
O1 C1 1_555 1_555
C1 C2 1_555 1_555
C2 C3 1_555 1_555
C3 C4 1_555 1_555
C4 H1 1_555 1_555
H2 C4 1_555 1_555
C5 C4 1_555 1_555
H3 C5 1_555 1_555
C6 C5 1_555 1_555
H4 C6 1_555 1_555
C7 C6 1_555 1_555
C8 C7 1_555 1_555
H5 C8 1_555 1_555
C9 C8 1_555 1_555
H6 C9 1_555 1_555
C10 C5 1_555 1_555
C11 C10 1_555 1_555
H7 C11 1_555 1_555
H8 C11 1_555 1_555
C12 O1 1_555 1_555
O2 C1 1_555 1_555
C13 C2 1_555 1_555
H9 C13 1_555 1_555
H10 C13 1_555 1_555
H11 C13 1_555 1_555
C14 C6 1_555 1_555
H12 C14 1_555 1_555
H13 C14 1_555 1_555
H14 C14 1_555 1_555
O3 C7 1_555 1_555
C15 C10 1_555 1_555
H15 C15 1_555 1_555
H16 C15 1_555 1_555
H17 C15 1_555 1_555
O4 C12 1_555 1_555
H18 O4 1_555 1_555
C3 C12 1_555 1_555
C9 C10 1_555 1_555
C11 C12 1_555 1_555

#END
