
#######################################################################
#
#                 Cambridge Crystallographic Data Centre
#                                CCDC 
#
#######################################################################
#
# If this CIF has been generated from an entry in the Cambridge 
# Structural Database, then it will include bibliographic, chemical, 
# crystal, experimental, refinement or atomic coordinate data resulting 
# from the CCDC's data processing and validation procedures.
#
#######################################################################

data_ERUKIL
_chemical_formula_moiety         'C33 H51 N6 3+,3(F6 P1 1-)'
_chemical_name_systematic        
'2,4,6-tris(3-n-Butylimidazolio-1-ylmethyl)mesitylene tris(hexafluorophosphate)'
_symmetry_cell_setting           monoclinic
_symmetry_space_group_name_H-M   'P 21/n'
_symmetry_Int_Tables_number      14
_space_group_name_Hall           '-P 2yn'
loop_
_symmetry_equiv_pos_site_id
_symmetry_equiv_pos_as_xyz
1 x,y,z
2 1/2-x,1/2+y,1/2-z
3 -x,-y,-z
4 1/2+x,1/2-y,1/2+z
_cell_length_a                   19.4354(4)
_cell_length_b                   9.1274(2)
_cell_length_c                   26.1977(3)
_cell_angle_alpha                90
_cell_angle_beta                 111.51
_cell_angle_gamma                90
_cell_volume                     4323.66
_exptl_crystal_colour            colorless
_cell_formula_units_Z            4
_exptl_crystal_recrystallization_method acetonitrile/ethanol
loop_
_atom_site_label
_atom_site_type_symbol
_atom_site_fract_x
_atom_site_fract_y
_atom_site_fract_z
P1 P 0.8409(1) 0.2063(2) 0.1856(1)
F1 F 0.8662(5) 0.3156(6) 0.1513(3)
F2 F 0.8111(4) 0.0971(6) 0.2183(3)
F3 F 0.8829(4) 0.0777(7) 0.1697(3)
F4 F 0.7922(5) 0.3267(7) 0.1964(4)
F5 F 0.7777(4) 0.1543(10) 0.1316(3)
F6 F 0.9007(4) 0.2524(12) 0.2386(3)
P2 P 0.4545(1) 0.1530(2) 0.1127(1)
F7 F 0.4379(3) 0.2651(5) 0.0632(2)
F8 F 0.4844(3) 0.2851(5) 0.1540(2)
F9 F 0.4750(3) 0.0397(6) 0.1616(2)
F10 F 0.5346(3) 0.1344(8) 0.1134(3)
F11 F 0.3754(3) 0.1781(9) 0.1140(4)
F12 F 0.4235(2) 0.0251(6) 0.0725(2)
P3 P 0.1683(1) 0.4733(2) 0.1186(1)
F13 F 0.1045(3) 0.4285(5) 0.1394(2)
F14 F 0.2150(4) 0.5260(10) 0.1796(3)
F15 F 0.2295(4) 0.5296(8) 0.0973(3)
F16 F 0.1260(4) 0.4132(12) 0.0619(2)
F17 F 0.1350(5) 0.6306(7) 0.1086(4)
F18 F 0.2073(5) 0.3250(9) 0.1356(4)
N1 N 0.7922(3) 0.9235(5) -0.0056(2)
N2 N 0.8397(3) 1.1394(6) 0.0027(2)
N3 N 0.6428(3) 0.7140(3) 0.1540(2)
N4 N 0.5294(3) 0.6478(6) 0.1145(2)
N5 N 1.0147(3) 0.7210(6) 0.2131(2)
N6 N 1.0705(3) 0.9115(6) 0.2567(2)
C1 C 0.7941(3) 0.7589(6) 0.0695(2)
C2 C 0.7456(3) 0.7982(6) 0.0950(2)
C3 C 0.7645(3) 0.7712(6) 0.1509(2)
C4 C 0.8320(3) 0.7071(6) 0.1816(2)
C5 C 0.8816(3) 0.6758(6) 0.1558(2)
C6 C 0.8638(3) 0.7029(6) 0.0998(2)
C7 C 0.7706(3) 0.7765(7) 0.0080(2)
C8 C 0.8265(3) 1.0257(7) 0.0299(2)
C9 C 0.7824(4) 0.9715(8) -0.0570(3)
C10 C 0.8127(4) 1.1068(9) -0.0513(3)
C11 C 0.8875(4) 1.2651(7) 0.0291(3)
C12 C 0.9645(5) 1.2409(11) 0.0317(5)
C13 C 1.0027(7) 1.1059(15) 0.0602(9)
C14 C 1.0329(14) 1.0820(20) 0.1098(5)
C15 C 0.6730(3) 0.8736(7) 0.0621(2)
C16 C 0.7090(3) 0.8072(7) 0.1777(3)
C17 C 0.5734(3) 0.7609(7) 0.1353(2)
C18 C 0.6429(4) 0.5653(8) 0.1444(3)
C19 C 0.5720(4) 0.5259(8) 0.1196(3)
C20 C 0.4490(3) 0.6586(9) 0.0828(3)
C21 C 0.4333(4) 0.6850(10) 0.0227(3)
C22 C 0.3511(4) 0.7053(10) -0.0114(4)
C23 C 0.3072(5) 0.5710(10) -0.0152(4)
C24 C 0.8515(4) 0.6798(9) 0.2427(3)
C25 C 0.9569(3) 0.6088(7) 0.1884(3)
C26 C 1.0056(3) 0.8490(8) 0.2330(3)
C27 C 1.0885(3) 0.7004(8) 0.2251(3)
C28 C 1.1230(4) 0.8189(9) 0.2521(3)
C29 C 1.0841(4) 1.0524(9) 0.2866(3)
C30 C 1.1191(7) 1.1625(10) 0.2635(5)
C31 C 1.1392(9) 1.3055(13) 0.3025(7)
C32 C 1.1980(8) 1.3856(14) 0.2972(5)
C33 C 0.9200(4) 0.6749(8) 0.0736(3)
H1 H 0.7940 0.7004 -0.0065
H2 H 0.7168 0.7646 -0.0094
H3 H 0.8395 1.0198 0.0682
H4 H 0.7591 0.9205 -0.0900
H5 H 0.8146 1.1672 -0.0799
H6 H 0.8877 1.2783 0.0663
H7 H 0.8676 1.3545 0.0082
H8 H 0.9637 1.2389 -0.0059
H9 H 0.9943 1.3256 0.0501
H10 H 0.9662 1.0275 0.0465
H11 H 1.0409 1.0865 0.0450
H12 H 1.0546 0.9848 0.1154
H13 H 0.9965 1.0881 0.1270
H14 H 1.0713 1.1542 0.1260
H15 H 0.6455 0.8927 0.0858
H16 H 0.6440 0.8107 0.0321
H17 H 0.6831 0.9654 0.0476
H18 H 0.7315 0.7903 0.2174
H19 H 0.6949 0.9107 0.1717
H20 H 0.5581 0.8580 0.1367
H21 H 0.6845 0.5039 0.1535
H22 H 0.5546 0.4309 0.1078
H23 H 0.4283 0.7390 0.0973
H24 H 0.4249 0.5676 0.0870
H25 H 0.4520 0.6019 0.0080
H26 H 0.4601 0.7727 0.0189
H27 H 0.3314 0.7835 0.0050
H28 H 0.3456 0.7364 -0.0485
H29 H 0.2557 0.5904 -0.0371
H30 H 0.3114 0.5407 0.0214
H31 H 0.3255 0.4937 -0.0322
H32 H 0.8100 0.7072 0.2528
H33 H 0.8944 0.7379 0.2635
H34 H 0.8626 0.5767 0.2506
H35 H 0.9524 0.5471 0.2176
H36 H 0.9722 0.5460 0.1641
H37 H 0.9600 0.8892 0.2306
H38 H 1.1107 0.6181 0.2160
H39 H 1.1743 0.8358 0.2655
H40 H 1.0369 1.0912 0.2862
H41 H 1.1158 1.0348 0.3249
H42 H 1.0854 1.1898 0.2266
H43 H 1.1642 1.1220 0.2606
H44 H 1.0955 1.3687 0.2930
H45 H 1.1526 1.2749 0.3408
H46 H 1.2093 1.4688 0.3220
H47 H 1.1841 1.4202 0.2598
H48 H 1.2413 1.3232 0.3063
H49 H 0.8988 0.6997 0.0349
H50 H 0.9339 0.5722 0.0776
H51 H 0.9635 0.7347 0.0914
loop_
_geom_bond_atom_site_label_1
_geom_bond_atom_site_label_2
_geom_bond_site_symmetry_1
_geom_bond_site_symmetry_2
P1 F1 1_555 1_555
P2 F7 1_555 1_555
P3 F13 1_555 1_555
F2 P1 1_555 1_555
F3 P1 1_555 1_555
F4 P1 1_555 1_555
F5 P1 1_555 1_555
F6 P1 1_555 1_555
F8 P2 1_555 1_555
F9 P2 1_555 1_555
F10 P2 1_555 1_555
F11 P2 1_555 1_555
F12 P2 1_555 1_555
F14 P3 1_555 1_555
F15 P3 1_555 1_555
F16 P3 1_555 1_555
F17 P3 1_555 1_555
F18 P3 1_555 1_555
N1 C7 1_555 1_555
N2 C8 1_555 1_555
N3 C16 1_555 1_555
N4 C17 1_555 1_555
N5 C25 1_555 1_555
N6 C26 1_555 1_555
C1 C2 1_555 1_555
C2 C3 1_555 1_555
C3 C4 1_555 1_555
C4 C5 1_555 1_555
C5 C6 1_555 1_555
C6 C1 1_555 1_555
C7 C1 1_555 1_555
C8 N1 1_555 1_555
C9 N1 1_555 1_555
C10 N2 1_555 1_555
C11 N2 1_555 1_555
C12 C11 1_555 1_555
C13 C12 1_555 1_555
C14 C13 1_555 1_555
C15 C2 1_555 1_555
C16 C3 1_555 1_555
C17 N3 1_555 1_555
C18 N3 1_555 1_555
C19 N4 1_555 1_555
C20 N4 1_555 1_555
C21 C20 1_555 1_555
C22 C21 1_555 1_555
C23 C22 1_555 1_555
C24 C4 1_555 1_555
C25 C5 1_555 1_555
C26 N5 1_555 1_555
C27 N5 1_555 1_555
C28 N6 1_555 1_555
C29 N6 1_555 1_555
C30 C29 1_555 1_555
C31 C30 1_555 1_555
C32 C31 1_555 1_555
C33 C6 1_555 1_555
H1 C7 1_555 1_555
H2 C7 1_555 1_555
H3 C8 1_555 1_555
H4 C9 1_555 1_555
H5 C10 1_555 1_555
H6 C11 1_555 1_555
H7 C11 1_555 1_555
H8 C12 1_555 1_555
H9 C12 1_555 1_555
H10 C13 1_555 1_555
H11 C13 1_555 1_555
H12 C14 1_555 1_555
H13 C14 1_555 1_555
H14 C14 1_555 1_555
H15 C15 1_555 1_555
H16 C15 1_555 1_555
H17 C15 1_555 1_555
H18 C16 1_555 1_555
H19 C16 1_555 1_555
H20 C17 1_555 1_555
H21 C18 1_555 1_555
H22 C19 1_555 1_555
H23 C20 1_555 1_555
H24 C20 1_555 1_555
H25 C21 1_555 1_555
H26 C21 1_555 1_555
H27 C22 1_555 1_555
H28 C22 1_555 1_555
H29 C23 1_555 1_555
H30 C23 1_555 1_555
H31 C23 1_555 1_555
H32 C24 1_555 1_555
H33 C24 1_555 1_555
H34 C24 1_555 1_555
H35 C25 1_555 1_555
H36 C25 1_555 1_555
H37 C26 1_555 1_555
H38 C27 1_555 1_555
H39 C28 1_555 1_555
H40 C29 1_555 1_555
H41 C29 1_555 1_555
H42 C30 1_555 1_555
H43 C30 1_555 1_555
H44 C31 1_555 1_555
H45 C31 1_555 1_555
H46 C32 1_555 1_555
H47 C32 1_555 1_555
H48 C32 1_555 1_555
H49 C33 1_555 1_555
H50 C33 1_555 1_555
H51 C33 1_555 1_555
C9 C10 1_555 1_555
C18 C19 1_555 1_555
C27 C28 1_555 1_555

#END
