
#######################################################################
#
#                 Cambridge Crystallographic Data Centre
#                                CCDC 
#
#######################################################################
#
# If this CIF has been generated from an entry in the Cambridge 
# Structural Database, then it will include bibliographic, chemical, 
# crystal, experimental, refinement or atomic coordinate data resulting 
# from the CCDC's data processing and validation procedures.
#
#######################################################################

data_ERULUA
_chemical_formula_moiety         'C26 H24 N2 O3'
_chemical_name_systematic        
1-(benzyloxy)-3,3-dimethyl-6-phenyl-1,11b-dihydro[1,2,4]oxadiazino[3,2-a]isoquinolin-2(3H)-one
_symmetry_cell_setting           monoclinic
_symmetry_space_group_name_H-M   'P 21/n'
_symmetry_Int_Tables_number      14
_space_group_name_Hall           '-P 2yn'
loop_
_symmetry_equiv_pos_site_id
_symmetry_equiv_pos_as_xyz
1 x,y,z
2 1/2-x,1/2+y,1/2-z
3 -x,-y,-z
4 1/2+x,1/2-y,1/2+z
_cell_length_a                   9.1828(17)
_cell_length_b                   9.0675(17)
_cell_length_c                   26.107(5)
_cell_angle_alpha                90
_cell_angle_beta                 91.376(3)
_cell_angle_gamma                90
_cell_volume                     2173.17
_exptl_crystal_colour            colorless
_exptl_crystal_description       prism
_cell_formula_units_Z            4
loop_
_atom_site_label
_atom_site_type_symbol
_atom_site_fract_x
_atom_site_fract_y
_atom_site_fract_z
N1 N 0.17308(17) 0.2168(2) 0.05409(6)
N2 N 0.09386(19) 0.3755(2) 0.11792(7)
O1 O 0.30773(14) 0.30459(17) 0.05548(5)
O2 O 0.1254(2) 0.6195(2) 0.10673(8)
O3 O -0.00592(15) 0.39916(18) 0.15660(5)
C1 C 0.1189(2) 0.2208(2) 0.10634(7)
H1 H 0.0238 0.1716 0.1057
C2 C 0.2142(2) 0.1415(2) 0.14506(7)
C3 C 0.2464(2) 0.1908(3) 0.19416(8)
H2 H 0.2126 0.2821 0.2049
C4 C 0.3296(3) 0.1033(3) 0.22741(8)
H3 H 0.3506 0.1359 0.2605
C5 C 0.3809(3) -0.0318(3) 0.21142(9)
H4 H 0.4370 -0.0898 0.2337
C6 C 0.3489(3) -0.0805(3) 0.16224(9)
H5 H 0.3823 -0.1722 0.1518
C7 C 0.2677(3) 0.0054(3) 0.12834(8)
C8 C 0.2487(3) -0.0311(3) 0.07442(9)
H6 H 0.2591 -0.1288 0.0642
C9 C 0.2166(2) 0.0710(3) 0.03885(8)
C10 C 0.2266(2) 0.0496(3) -0.01729(8)
C11 C 0.1371(3) 0.1271(3) -0.05106(8)
H7 H 0.0685 0.1922 -0.0384
C12 C 0.1482(3) 0.1092(3) -0.10369(9)
H8 H 0.0869 0.1612 -0.1261
C13 C 0.2507(3) 0.0138(3) -0.12247(9)
H9 H 0.2593 0.0024 -0.1577
C14 C 0.3402(3) -0.0647(3) -0.08957(10)
H10 H 0.4085 -0.1298 -0.1024
C15 C 0.3284(3) -0.0464(3) -0.03711(9)
H11 H 0.3896 -0.0992 -0.0149
C16 C 0.2697(2) 0.4582(3) 0.05557(8)
C17 C 0.1568(2) 0.4925(3) 0.09625(8)
C18 C -0.1474(2) 0.4341(3) 0.13412(8)
H12 H -0.1756 0.3598 0.1091
H13 H -0.1443 0.5290 0.1171
C19 C -0.2549(2) 0.4380(2) 0.17651(7)
C20 C -0.2644(2) 0.3228(3) 0.21080(9)
H14 H -0.2007 0.2434 0.2085
C21 C -0.3677(3) 0.3239(3) 0.24862(9)
H15 H -0.3722 0.2463 0.2718
C22 C -0.4630(2) 0.4391(3) 0.25180(9)
H16 H -0.5333 0.4393 0.2769
C23 C -0.4550(3) 0.5539(3) 0.21803(9)
H17 H -0.5203 0.6319 0.2201
C24 C -0.3500(2) 0.5547(3) 0.18084(8)
H18 H -0.3435 0.6346 0.1586
C25 C 0.2111(3) 0.5075(3) 0.00338(9)
H19 H 0.2812 0.4853 -0.0222
H20 H 0.1934 0.6118 0.0039
H21 H 0.1218 0.4564 -0.0045
C26 C 0.4115(3) 0.5344(3) 0.07061(11)
H22 H 0.4446 0.4996 0.1036
H23 H 0.3961 0.6390 0.0721
H24 H 0.4837 0.5128 0.0457
loop_
_geom_bond_atom_site_label_1
_geom_bond_atom_site_label_2
_geom_bond_site_symmetry_1
_geom_bond_site_symmetry_2
N1 O1 1_555 1_555
N2 O3 1_555 1_555
O1 C16 1_555 1_555
O2 C17 1_555 1_555
O3 C18 1_555 1_555
C1 N1 1_555 1_555
H1 C1 1_555 1_555
C2 C1 1_555 1_555
C3 C2 1_555 1_555
H2 C3 1_555 1_555
C4 C3 1_555 1_555
H3 C4 1_555 1_555
C5 C4 1_555 1_555
H4 C5 1_555 1_555
C6 C5 1_555 1_555
H5 C6 1_555 1_555
C7 C2 1_555 1_555
C8 C7 1_555 1_555
H6 C8 1_555 1_555
C9 N1 1_555 1_555
C10 C9 1_555 1_555
C11 C10 1_555 1_555
H7 C11 1_555 1_555
C12 C11 1_555 1_555
H8 C12 1_555 1_555
C13 C12 1_555 1_555
H9 C13 1_555 1_555
C14 C13 1_555 1_555
H10 C14 1_555 1_555
C15 C10 1_555 1_555
H11 C15 1_555 1_555
C16 C17 1_555 1_555
C17 N2 1_555 1_555
C18 H12 1_555 1_555
H13 C18 1_555 1_555
C19 C18 1_555 1_555
C20 C19 1_555 1_555
H14 C20 1_555 1_555
C21 C20 1_555 1_555
H15 C21 1_555 1_555
C22 C21 1_555 1_555
H16 C22 1_555 1_555
C23 C22 1_555 1_555
H17 C23 1_555 1_555
C24 C19 1_555 1_555
H18 C24 1_555 1_555
C25 C16 1_555 1_555
H19 C25 1_555 1_555
H20 C25 1_555 1_555
H21 C25 1_555 1_555
C26 C16 1_555 1_555
H22 C26 1_555 1_555
H23 C26 1_555 1_555
H24 C26 1_555 1_555
N2 C1 1_555 1_555
C6 C7 1_555 1_555
C8 C9 1_555 1_555
C14 C15 1_555 1_555
C23 C24 1_555 1_555

#END
