
#######################################################################
#
#                 Cambridge Crystallographic Data Centre
#                                CCDC 
#
#######################################################################
#
# If this CIF has been generated from an entry in the Cambridge 
# Structural Database, then it will include bibliographic, chemical, 
# crystal, experimental, refinement or atomic coordinate data resulting 
# from the CCDC's data processing and validation procedures.
#
#######################################################################

data_ERUMAH
_chemical_formula_moiety         'C26 H24 N2 O3'
_chemical_name_systematic        
N-(benzyloxy)-2-methyl-2-((3-phenylisoquinolin-1-yl)oxy)propanamide
_symmetry_cell_setting           monoclinic
_symmetry_space_group_name_H-M   'C 2/c'
_symmetry_Int_Tables_number      15
_space_group_name_Hall           '-C 2yn'
loop_
_symmetry_equiv_pos_site_id
_symmetry_equiv_pos_as_xyz
1 x,y,z
2 -x,y,1/2-z
3 1/2+x,1/2+y,z
4 1/2-x,1/2+y,1/2-z
5 -x,-y,-z
6 x,-y,1/2+z
7 1/2-x,1/2-y,-z
8 1/2+x,1/2-y,1/2+z
_cell_length_a                   38.327(12)
_cell_length_b                   12.158(4)
_cell_length_c                   9.715(3)
_cell_angle_alpha                90
_cell_angle_beta                 95.510(6)
_cell_angle_gamma                90
_cell_volume                     4506.08
_exptl_crystal_colour            colorless
_exptl_crystal_description       stick
_cell_formula_units_Z            8
loop_
_atom_site_label
_atom_site_type_symbol
_atom_site_fract_x
_atom_site_fract_y
_atom_site_fract_z
N1 N 0.34734(5) 0.74490(14) 0.04627(17)
N2 N 0.34148(6) 0.48840(16) 0.0357(2)
O1 O 0.29786(4) 0.65322(11) 0.09966(14)
O2 O 0.33419(5) 0.53407(16) -0.18762(16)
O3 O 0.37028(5) 0.42271(13) 0.01697(18)
C1 C 0.32425(5) 0.72590(15) 0.1326(2)
C2 C 0.32379(5) 0.77576(16) 0.2655(2)
C3 C 0.29931(6) 0.75083(18) 0.3590(2)
H1 H 0.2818 0.6993 0.3353
C4 C 0.30091(7) 0.8015(2) 0.4841(2)
H2 H 0.2845 0.7847 0.5457
C5 C 0.32714(8) 0.8788(2) 0.5201(3)
H3 H 0.3281 0.9135 0.6057
C6 C 0.35110(7) 0.9036(2) 0.4324(3)
H4 H 0.3684 0.9552 0.4583
C7 C 0.35035(6) 0.85239(17) 0.3012(2)
C8 C 0.37500(6) 0.87413(19) 0.2053(3)
H5 H 0.3925 0.9262 0.2265
C9 C 0.37345(6) 0.81961(16) 0.0820(2)
C10 C 0.29338(6) 0.60623(19) -0.0392(2)
C11 C 0.32543(6) 0.54107(18) -0.0702(2)
C12 C 0.40129(7) 0.4883(2) 0.0265(3)
H6 H 0.4058 0.5183 0.1190
H7 H 0.3986 0.5489 -0.0385
C13 C 0.43074(7) 0.4166(2) -0.0060(3)
C14 C 0.42705(8) 0.3454(3) -0.1159(3)
H8 H 0.4059 0.3425 -0.1715
C15 C 0.45401(11) 0.2790(3) -0.1444(4)
H9 H 0.4511 0.2309 -0.2191
C16 C 0.48499(11) 0.2823(4) -0.0651(5)
H10 H 0.5033 0.2370 -0.0861
C17 C 0.48951(9) 0.3509(4) 0.0445(4)
H11 H 0.5108 0.3529 0.0991
C18 C 0.46230(9) 0.4180(3) 0.0746(4)
H12 H 0.4653 0.4648 0.1505
C19 C 0.26249(7) 0.5278(2) -0.0310(3)
H13 H 0.2682 0.4745 0.0405
H14 H 0.2576 0.4908 -0.1181
H15 H 0.2422 0.5688 -0.0104
C20 C 0.28417(7) 0.6949(2) -0.1475(3)
H16 H 0.2656 0.7398 -0.1191
H17 H 0.2768 0.6609 -0.2346
H18 H 0.3044 0.7398 -0.1570
C21 C 0.39851(6) 0.83642(18) -0.0224(2)
C22 C 0.39316(7) 0.7860(2) -0.1517(3)
H19 H 0.3738 0.7406 -0.1714
C23 C 0.41604(9) 0.8023(2) -0.2509(3)
H20 H 0.4119 0.7679 -0.3364
C24 C 0.44473(8) 0.8685(3) -0.2247(4)
H21 H 0.4602 0.8790 -0.2916
C25 C 0.45040(7) 0.9193(3) -0.0989(4)
H22 H 0.4698 0.9648 -0.0805
C26 C 0.42764(7) 0.9036(2) 0.0008(3)
H23 H 0.4319 0.9389 0.0856
H24 H 0.3348(6) 0.489(2) 0.117(3)
loop_
_geom_bond_atom_site_label_1
_geom_bond_atom_site_label_2
_geom_bond_site_symmetry_1
_geom_bond_site_symmetry_2
N1 C1 1_555 1_555
N2 O3 1_555 1_555
O1 C1 1_555 1_555
O2 C11 1_555 1_555
O3 C12 1_555 1_555
C1 C2 1_555 1_555
C2 C3 1_555 1_555
C3 H1 1_555 1_555
C4 C3 1_555 1_555
H2 C4 1_555 1_555
C5 C4 1_555 1_555
H3 C5 1_555 1_555
C6 C5 1_555 1_555
H4 C6 1_555 1_555
C7 C2 1_555 1_555
C8 C7 1_555 1_555
H5 C8 1_555 1_555
C9 N1 1_555 1_555
C10 O1 1_555 1_555
C11 N2 1_555 1_555
C12 H6 1_555 1_555
H7 C12 1_555 1_555
C13 C12 1_555 1_555
C14 C13 1_555 1_555
H8 C14 1_555 1_555
C15 C14 1_555 1_555
H9 C15 1_555 1_555
C16 C15 1_555 1_555
H10 C16 1_555 1_555
C17 C16 1_555 1_555
H11 C17 1_555 1_555
C18 C13 1_555 1_555
H12 C18 1_555 1_555
C19 C10 1_555 1_555
H13 C19 1_555 1_555
H14 C19 1_555 1_555
H15 C19 1_555 1_555
C20 C10 1_555 1_555
H16 C20 1_555 1_555
H17 C20 1_555 1_555
H18 C20 1_555 1_555
C21 C9 1_555 1_555
C22 C21 1_555 1_555
H19 C22 1_555 1_555
C23 C22 1_555 1_555
H20 C23 1_555 1_555
C24 C23 1_555 1_555
H21 C24 1_555 1_555
C25 C24 1_555 1_555
H22 C25 1_555 1_555
C26 C21 1_555 1_555
H23 C26 1_555 1_555
H24 N2 1_555 1_555
C6 C7 1_555 1_555
C8 C9 1_555 1_555
C10 C11 1_555 1_555
C17 C18 1_555 1_555
C25 C26 1_555 1_555

#END
