
#######################################################################
#
#                 Cambridge Crystallographic Data Centre
#                                CCDC 
#
#######################################################################
#
# If this CIF has been generated from an entry in the Cambridge 
# Structural Database, then it will include bibliographic, chemical, 
# crystal, experimental, refinement or atomic coordinate data resulting 
# from the CCDC's data processing and validation procedures.
#
#######################################################################

data_ERUNIO
_chemical_formula_moiety         'C29 H18 N2,C4 H9 N1 O1'
_chemical_name_systematic        
'2-(9-Anthryl)-1H-phenanthro(9,10-d)imidazole morpholine clathrate'
_symmetry_cell_setting           triclinic
_symmetry_space_group_name_H-M   'P -1'
_symmetry_Int_Tables_number      2
_space_group_name_Hall           '-P 1'
loop_
_symmetry_equiv_pos_site_id
_symmetry_equiv_pos_as_xyz
1 x,y,z
2 -x,-y,-z
_cell_length_a                   9.710(3)
_cell_length_b                   14.476(5)
_cell_length_c                   9.072(3)
_cell_angle_alpha                92.47(3)
_cell_angle_beta                 99.31(3)
_cell_angle_gamma                78.25(2)
_cell_volume                     1231.94
_exptl_crystal_colour            'deep yellow'
_exptl_crystal_description       rectangular
_cell_formula_units_Z            2
_exptl_crystal_recrystallization_method morpholine/acetonitrile
_exptl_crystal_preparation       fluorescent
loop_
_atom_site_label
_atom_site_type_symbol
_atom_site_fract_x
_atom_site_fract_y
_atom_site_fract_z
N1 N 0.40436(15) 0.23211(10) 0.47007(16)
N2 N 0.36577(15) 0.32310(10) 0.67168(15)
C1 C 0.51063(17) 0.19564(12) 0.58420(17)
C2 C 0.62912(17) 0.11873(12) 0.58639(18)
C3 C 0.6581(2) 0.06224(15) 0.4610(2)
C4 C 0.7766(2) -0.00826(16) 0.4686(2)
C5 C 0.8702(2) -0.02427(16) 0.6021(2)
C6 C 0.84414(19) 0.02930(14) 0.7261(2)
C7 C 0.72274(17) 0.10137(12) 0.72504(19)
C8 C 0.69152(18) 0.15788(12) 0.85795(18)
C9 C 0.7749(2) 0.13831(15) 1.0005(2)
C10 C 0.7446(2) 0.19216(18) 1.1237(2)
C11 C 0.6303(2) 0.26822(16) 1.1123(2)
C12 C 0.5455(2) 0.28967(14) 0.97625(19)
C13 C 0.57423(17) 0.23490(12) 0.84934(17)
C14 C 0.48497(17) 0.25263(12) 0.70623(17)
C15 C 0.32141(17) 0.30764(12) 0.52859(17)
C16 C 0.19448(17) 0.36451(11) 0.43822(17)
C17 C 0.21055(18) 0.43048(12) 0.33598(18)
C18 C 0.3465(2) 0.44583(14) 0.3137(2)
C19 C 0.3574(2) 0.50880(17) 0.2114(3)
C20 C 0.2348(3) 0.56044(16) 0.1247(2)
C21 C 0.1045(2) 0.55031(13) 0.1445(2)
C22 C 0.08619(19) 0.48559(12) 0.25101(18)
C23 C -0.04753(19) 0.47552(12) 0.27512(18)
C24 C -0.06517(17) 0.41039(12) 0.37553(17)
C25 C -0.2022(2) 0.39995(15) 0.4009(2)
C26 C -0.2163(2) 0.33286(17) 0.4943(2)
C27 C -0.0952(2) 0.27231(16) 0.5688(2)
C28 C 0.0373(2) 0.28134(13) 0.55230(19)
C29 C 0.05821(17) 0.35196(11) 0.45657(17)
N3 N 0.31106(18) 0.19893(12) 1.15202(17)
O1 O 0.15601(15) 0.11466(11) 0.90257(16)
C30 C 0.3684(2) 0.10822(15) 1.0861(2)
C31 C 0.3067(2) 0.09689(17) 0.9245(2)
C32 C 0.1034(2) 0.20776(15) 0.9518(2)
C33 C 0.1556(2) 0.22023(15) 1.1156(2)
loop_
_geom_bond_atom_site_label_1
_geom_bond_atom_site_label_2
_geom_bond_site_symmetry_1
_geom_bond_site_symmetry_2
N1 C1 1_555 1_555
N2 C14 1_555 1_555
N3 C30 1_555 1_555
O1 C31 1_555 1_555
C1 C2 1_555 1_555
C2 C3 1_555 1_555
C3 C4 1_555 1_555
C4 C5 1_555 1_555
C5 C6 1_555 1_555
C6 C7 1_555 1_555
C7 C2 1_555 1_555
C8 C7 1_555 1_555
C9 C8 1_555 1_555
C10 C9 1_555 1_555
C11 C10 1_555 1_555
C12 C11 1_555 1_555
C13 C8 1_555 1_555
C14 C1 1_555 1_555
C15 N1 1_555 1_555
C16 C15 1_555 1_555
C17 C16 1_555 1_555
C18 C17 1_555 1_555
C19 C18 1_555 1_555
C20 C19 1_555 1_555
C21 C20 1_555 1_555
C22 C17 1_555 1_555
C23 C22 1_555 1_555
C24 C23 1_555 1_555
C25 C24 1_555 1_555
C26 C25 1_555 1_555
C27 C26 1_555 1_555
C28 C27 1_555 1_555
C29 C16 1_555 1_555
C30 C31 1_555 1_555
C32 O1 1_555 1_555
C33 N3 1_555 1_555
N2 C15 1_555 1_555
C12 C13 1_555 1_555
C13 C14 1_555 1_555
C21 C22 1_555 1_555
C24 C29 1_555 1_555
C28 C29 1_555 1_555
C32 C33 1_555 1_555

#END
