
#######################################################################
#
#                 Cambridge Crystallographic Data Centre
#                                CCDC 
#
#######################################################################
#
# If this CIF has been generated from an entry in the Cambridge 
# Structural Database, then it will include bibliographic, chemical, 
# crystal, experimental, refinement or atomic coordinate data resulting 
# from the CCDC's data processing and validation procedures.
#
#######################################################################

data_ERUSEP01
_chemical_name_common            
1,1,2,2-tetrakis(4-Diethylaminophenyl)ethylene
_chemical_formula_moiety         'C42 H56 N4'
_chemical_name_systematic        
4,4',4'',4'''-ethene-1,1,2,2-tetrayltetrakis(N,N-diethylaniline)
_symmetry_cell_setting           triclinic
_symmetry_space_group_name_H-M   'P -1'
_symmetry_Int_Tables_number      2
_space_group_name_Hall           '-P 1'
loop_
_symmetry_equiv_pos_site_id
_symmetry_equiv_pos_as_xyz
1 x,y,z
2 -x,-y,-z
_cell_length_a                   10.9822(9)
_cell_length_b                   17.3332(9)
_cell_length_c                   19.1196(8)
_cell_angle_alpha                88.643(4)
_cell_angle_beta                 86.828(5)
_cell_angle_gamma                81.890(5)
_cell_volume                     3597.16
_exptl_crystal_colour            yellow
_exptl_crystal_description       needle
_cell_formula_units_Z            4
loop_
_atom_site_label
_atom_site_type_symbol
_atom_site_fract_x
_atom_site_fract_y
_atom_site_fract_z
N1 N 0.92212(17) 0.68020(10) 0.45414(9)
N2 N 0.78008(17) 0.62574(10) 0.05026(9)
N3 N 0.20924(16) 1.10090(10) 0.09516(8)
N4 N 0.48335(17) 1.19865(10) 0.41045(8)
C1 C 0.63823(19) 0.90401(11) 0.28047(10)
C2 C 0.59412(19) 0.89080(11) 0.21734(10)
C3 C 0.71673(19) 0.84394(11) 0.32168(9)
C4 C 0.81123(19) 0.86393(11) 0.36062(9)
H1 H 0.8283 0.9162 0.3585
C5 C 0.88111(19) 0.80990(11) 0.40228(10)
H2 H 0.9471 0.8255 0.4261
C6 C 0.85620(19) 0.73251(11) 0.40988(10)
C7 C 0.76137(19) 0.71204(11) 0.37034(10)
H3 H 0.7426 0.6602 0.3731
C8 C 0.69493(19) 0.76631(11) 0.32744(9)
H4 H 0.6324 0.7502 0.3010
C9 C 0.9058(2) 0.59872(11) 0.45752(11)
H5 H 0.9856 0.5671 0.4673
H6 H 0.8817 0.5833 0.4113
C10 C 0.8089(2) 0.58031(13) 0.51335(12)
H7 H 0.7285 0.6087 0.5023
H8 H 0.8313 0.5962 0.5592
H9 H 0.8048 0.5242 0.5144
C11 C 1.0044(2) 0.70427(12) 0.50390(10)
H10 H 0.9985 0.6727 0.5475
H11 H 0.9770 0.7595 0.5158
C12 C 1.1379(2) 0.69544(15) 0.47642(13)
H12 H 1.1457 0.7299 0.4355
H13 H 1.1649 0.6413 0.4629
H14 H 1.1894 0.7094 0.5131
C13 C 0.64216(19) 0.82180(11) 0.17419(9)
C14 C 0.76851(19) 0.79652(11) 0.16443(9)
H15 H 0.8245 0.8238 0.1866
C15 C 0.81473(19) 0.73305(11) 0.12358(10)
H16 H 0.9013 0.7183 0.1179
C16 C 0.7354(2) 0.68984(11) 0.09014(9)
C17 C 0.60838(19) 0.71552(11) 0.09999(10)
H17 H 0.5515 0.6880 0.0788
C18 C 0.56470(19) 0.78010(11) 0.13993(10)
H18 H 0.4784 0.7966 0.1441
C19 C 0.9100(2) 0.59518(12) 0.04550(11)
H19 H 0.9188 0.5382 0.0384
H20 H 0.9459 0.6037 0.0906
C20 C 0.9832(2) 0.63173(13) -0.01339(11)
H21 H 0.9551 0.6182 -0.0587
H22 H 1.0710 0.6120 -0.0106
H23 H 0.9707 0.6885 -0.0087
C21 C 0.7038(2) 0.59027(12) 0.00438(11)
H24 H 0.7530 0.5740 -0.0390
H25 H 0.6342 0.6297 -0.0088
C22 C 0.6529(3) 0.52009(14) 0.03729(14)
H26 H 0.6123 0.4944 0.0019
H27 H 0.5932 0.5372 0.0757
H28 H 0.7205 0.4834 0.0555
C23 C 0.60622(18) 0.98091(11) 0.31499(10)
C24 C 0.56487(19) 0.98643(11) 0.38546(10)
H29 H 0.5628 0.9398 0.4124
C25 C 0.52704(19) 1.05693(11) 0.41728(10)
H30 H 0.4995 1.0577 0.4653
C26 C 0.52846(18) 1.12792(11) 0.38003(10)
C27 C 0.57672(19) 1.12305(11) 0.31001(10)
H31 H 0.5842 1.1695 0.2837
C28 C 0.61338(19) 1.05122(11) 0.27901(10)
H32 H 0.6444 1.0499 0.2316
C29 C 0.4572(2) 1.20332(12) 0.48622(10)
H33 H 0.4017 1.1648 0.5004
H34 H 0.4124 1.2557 0.4969
C30 C 0.5696(2) 1.18897(12) 0.53047(10)
H35 H 0.6135 1.1366 0.5217
H36 H 0.5432 1.1934 0.5802
H37 H 0.6245 1.2277 0.5180
C31 C 0.48541(19) 1.27137(11) 0.37139(10)
H38 H 0.4202 1.3109 0.3919
H39 H 0.4654 1.2633 0.3225
C32 C 0.6079(2) 1.30318(12) 0.37054(11)
H40 H 0.6058 1.3480 0.3382
H41 H 0.6746 1.2625 0.3552
H42 H 0.6222 1.3196 0.4178
C33 C 0.49247(19) 0.94452(11) 0.18643(9)
C34 C 0.38654(19) 0.97636(11) 0.22564(9)
H43 H 0.3790 0.9632 0.2740
C35 C 0.29253(19) 1.02624(11) 0.19657(10)
H44 H 0.2225 1.0464 0.2253
C36 C 0.29863(19) 1.04795(11) 0.12466(10)
C37 C 0.40324(19) 1.01380(11) 0.08460(10)
H45 H 0.4102 1.0253 0.0358
C38 C 0.49602(19) 0.96388(11) 0.11498(10)
H46 H 0.5648 0.9419 0.0861
C39 C 0.0992(2) 1.13326(12) 0.13667(11)
H47 H 0.0634 1.1828 0.1143
H48 H 0.1237 1.1456 0.1837
C40 C 0.0001(2) 1.07992(15) 0.14529(12)
H49 H -0.0330 1.0730 0.0997
H50 H -0.0663 1.1033 0.1778
H51 H 0.0360 1.0292 0.1640
C41 C 0.2102(2) 1.11404(12) 0.01929(10)
H52 H 0.2931 1.1249 0.0027
H53 H 0.1510 1.1611 0.0092
C42 C 0.1777(2) 1.04654(13) -0.02237(11)
H54 H 0.1851 1.0589 -0.0726
H55 H 0.0929 1.0381 -0.0094
H56 H 0.2342 0.9992 -0.0120
N5 N 0.07621(17) 0.09269(10) 0.35374(9)
N6 N 0.57952(16) 0.24418(10) 0.15345(8)
N7 N 0.12806(17) 0.77359(10) 0.18622(9)
N8 N -0.45260(17) 0.57196(10) 0.31154(9)
C43 C 0.03843(19) 0.41204(11) 0.26160(10)
C44 C 0.13284(19) 0.44416(11) 0.22793(9)
C45 C 0.05110(19) 0.32957(11) 0.28686(9)
C46 C -0.04597(19) 0.28573(11) 0.28171(9)
H57 H -0.1195 0.3097 0.2618
C47 C -0.03905(19) 0.20935(11) 0.30438(10)
H58 H -0.1079 0.1824 0.3003
C48 C 0.06787(19) 0.17046(11) 0.33342(10)
C49 C 0.16543(19) 0.21427(11) 0.34025(10)
H59 H 0.2386 0.1906 0.3607
C50 C 0.15612(19) 0.29109(11) 0.31756(9)
H60 H 0.2236 0.3188 0.3230
C51 C -0.0370(2) 0.05755(12) 0.36620(12)
H61 H -0.0141 0.0016 0.3777
H62 H -0.0809 0.0609 0.3221
C52 C -0.1254(2) 0.09395(13) 0.42419(12)
H63 H -0.1467 0.1499 0.4145
H64 H -0.0862 0.0863 0.4691
H65 H -0.2004 0.0691 0.4264
C53 C 0.1884(2) 0.05188(12) 0.38227(11)
H66 H 0.2604 0.0693 0.3562
H67 H 0.1917 -0.0047 0.3745
C54 C 0.1986(2) 0.06480(13) 0.45992(11)
H68 H 0.2047 0.1198 0.4676
H69 H 0.2723 0.0323 0.4763
H70 H 0.1254 0.0506 0.4860
C55 C 0.24838(19) 0.39526(11) 0.20252(9)
C56 C 0.24876(19) 0.32338(11) 0.17011(9)
H71 H 0.1722 0.3076 0.1601
C57 C 0.35555(19) 0.27494(11) 0.15232(10)
H72 H 0.3509 0.2267 0.1307
C58 C 0.47192(19) 0.29539(11) 0.16551(9)
C59 C 0.47321(19) 0.37018(12) 0.19309(10)
H73 H 0.5496 0.3883 0.1991
C60 C 0.3640(2) 0.41728(11) 0.21148(10)
H74 H 0.3679 0.4667 0.2310
C61 C 0.5786(2) 0.17230(12) 0.11540(10)
H75 H 0.5119 0.1448 0.1364
H76 H 0.6577 0.1382 0.1215
C62 C 0.5600(2) 0.18465(13) 0.03705(11)
H77 H 0.5659 0.1340 0.0145
H78 H 0.6237 0.2136 0.0161
H79 H 0.4786 0.2143 0.0304
C63 C 0.6976(2) 0.26387(12) 0.17160(11)
H80 H 0.7512 0.2153 0.1843
H81 H 0.6849 0.2971 0.2135
C64 C 0.7637(3) 0.30603(16) 0.11374(12)
H82 H 0.7864 0.2711 0.0742
H83 H 0.8382 0.3220 0.1315
H84 H 0.7092 0.3522 0.0983
C65 C -0.08758(19) 0.45542(11) 0.27461(10)
C66 C -0.15321(19) 0.44984(11) 0.33879(10)
H85 H -0.1148 0.4192 0.3754
C67 C -0.27198(19) 0.48731(11) 0.35105(10)
H86 H -0.3125 0.4824 0.3958
C68 C -0.3342(2) 0.53277(11) 0.29821(10)
C69 C -0.26931(19) 0.53747(11) 0.23280(10)
H87 H -0.3079 0.5669 0.1955
C70 C -0.14986(19) 0.49967(12) 0.22219(10)
H88 H -0.1088 0.5040 0.1775
C71 C -0.5342(2) 0.54023(12) 0.36443(11)
H89 H -0.5041 0.4843 0.3721
H90 H -0.6177 0.5443 0.3464
C72 C -0.5429(2) 0.58146(13) 0.43447(11)
H91 H -0.5721 0.6370 0.4274
H92 H -0.4614 0.5752 0.4541
H93 H -0.6007 0.5586 0.4669
C73 C -0.5102(2) 0.62237(12) 0.25681(11)
H94 H -0.5488 0.5903 0.2246
H95 H -0.4458 0.6464 0.2294
C74 C -0.6074(2) 0.68651(13) 0.28587(12)
H96 H -0.6385 0.7209 0.2475
H97 H -0.5708 0.7168 0.3197
H98 H -0.6754 0.6632 0.3092
C75 C 0.12870(19) 0.52994(11) 0.21658(10)
C76 C 0.0786(2) 0.58385(12) 0.26765(10)
H99 H 0.0445 0.5651 0.3104
C77 C 0.07712(19) 0.66316(11) 0.25787(10)
H100 H 0.0416 0.6974 0.2939
C78 C 0.12717(19) 0.69463(11) 0.19564(10)
C79 C 0.17830(19) 0.64047(11) 0.14420(10)
H101 H 0.2127 0.6587 0.1013
C80 C 0.17903(19) 0.56116(12) 0.15541(10)
H102 H 0.2154 0.5265 0.1199
C81 C 0.0677(2) 0.82946(12) 0.23748(11)
H103 H -0.0060 0.8094 0.2589
H104 H 0.0395 0.8792 0.2130
C82 C 0.1506(2) 0.84537(14) 0.29556(12)
H105 H 0.2230 0.8664 0.2749
H106 H 0.1772 0.7967 0.3210
H107 H 0.1049 0.8833 0.3280
C83 C 0.1971(2) 0.80581(12) 0.12825(11)
H108 H 0.2678 0.7667 0.1134
H109 H 0.2304 0.8521 0.1445
C84 C 0.1196(2) 0.82939(14) 0.06526(12)
H110 H 0.1690 0.8540 0.0293
H111 H 0.0473 0.8663 0.0800
H112 H 0.0928 0.7830 0.0461
loop_
_geom_bond_atom_site_label_1
_geom_bond_atom_site_label_2
_geom_bond_site_symmetry_1
_geom_bond_site_symmetry_2
N1 C6 1_555 1_555
N2 C16 1_555 1_555
N3 C36 1_555 1_555
N4 C26 1_555 1_555
C1 C2 1_555 1_555
C2 C13 1_555 1_555
C3 C1 1_555 1_555
C4 C3 1_555 1_555
H1 C4 1_555 1_555
C5 C4 1_555 1_555
H2 C5 1_555 1_555
C6 C5 1_555 1_555
C7 C6 1_555 1_555
H3 C7 1_555 1_555
C8 C3 1_555 1_555
H4 C8 1_555 1_555
C9 N1 1_555 1_555
H5 C9 1_555 1_555
H6 C9 1_555 1_555
C10 C9 1_555 1_555
H7 C10 1_555 1_555
H8 C10 1_555 1_555
H9 C10 1_555 1_555
C11 N1 1_555 1_555
H10 C11 1_555 1_555
H11 C11 1_555 1_555
C12 C11 1_555 1_555
H12 C12 1_555 1_555
H13 C12 1_555 1_555
H14 C12 1_555 1_555
C13 C14 1_555 1_555
C14 H15 1_555 1_555
C15 C14 1_555 1_555
H16 C15 1_555 1_555
C16 C15 1_555 1_555
C17 C16 1_555 1_555
H17 C17 1_555 1_555
C18 C13 1_555 1_555
H18 C18 1_555 1_555
C19 N2 1_555 1_555
H19 C19 1_555 1_555
H20 C19 1_555 1_555
C20 C19 1_555 1_555
H21 C20 1_555 1_555
H22 C20 1_555 1_555
H23 C20 1_555 1_555
C21 N2 1_555 1_555
H24 C21 1_555 1_555
H25 C21 1_555 1_555
C22 C21 1_555 1_555
H26 C22 1_555 1_555
H27 C22 1_555 1_555
H28 C22 1_555 1_555
C23 C1 1_555 1_555
C24 C23 1_555 1_555
H29 C24 1_555 1_555
C25 C24 1_555 1_555
H30 C25 1_555 1_555
C26 C25 1_555 1_555
C27 C26 1_555 1_555
H31 C27 1_555 1_555
C28 C23 1_555 1_555
H32 C28 1_555 1_555
C29 N4 1_555 1_555
H33 C29 1_555 1_555
H34 C29 1_555 1_555
C30 C29 1_555 1_555
H35 C30 1_555 1_555
H36 C30 1_555 1_555
H37 C30 1_555 1_555
C31 N4 1_555 1_555
H38 C31 1_555 1_555
H39 C31 1_555 1_555
C32 C31 1_555 1_555
H40 C32 1_555 1_555
H41 C32 1_555 1_555
H42 C32 1_555 1_555
C33 C2 1_555 1_555
C34 C33 1_555 1_555
H43 C34 1_555 1_555
C35 C34 1_555 1_555
H44 C35 1_555 1_555
C36 C35 1_555 1_555
C37 C36 1_555 1_555
H45 C37 1_555 1_555
C38 C33 1_555 1_555
H46 C38 1_555 1_555
C39 N3 1_555 1_555
H47 C39 1_555 1_555
H48 C39 1_555 1_555
C40 C39 1_555 1_555
H49 C40 1_555 1_555
H50 C40 1_555 1_555
H51 C40 1_555 1_555
C41 N3 1_555 1_555
H52 C41 1_555 1_555
H53 C41 1_555 1_555
C42 C41 1_555 1_555
H54 C42 1_555 1_555
H55 C42 1_555 1_555
H56 C42 1_555 1_555
N5 C48 1_555 1_555
N6 C58 1_555 1_555
N7 C78 1_555 1_555
N8 C68 1_555 1_555
C43 C44 1_555 1_555
C44 C55 1_555 1_555
C45 C43 1_555 1_555
C46 C45 1_555 1_555
H57 C46 1_555 1_555
C47 C46 1_555 1_555
H58 C47 1_555 1_555
C48 C47 1_555 1_555
C49 C48 1_555 1_555
H59 C49 1_555 1_555
C50 C45 1_555 1_555
H60 C50 1_555 1_555
C51 N5 1_555 1_555
H61 C51 1_555 1_555
H62 C51 1_555 1_555
C52 C51 1_555 1_555
H63 C52 1_555 1_555
H64 C52 1_555 1_555
H65 C52 1_555 1_555
C53 N5 1_555 1_555
H66 C53 1_555 1_555
H67 C53 1_555 1_555
C54 C53 1_555 1_555
H68 C54 1_555 1_555
H69 C54 1_555 1_555
H70 C54 1_555 1_555
C55 C56 1_555 1_555
C56 H71 1_555 1_555
C57 C56 1_555 1_555
H72 C57 1_555 1_555
C58 C57 1_555 1_555
C59 C58 1_555 1_555
H73 C59 1_555 1_555
C60 C55 1_555 1_555
H74 C60 1_555 1_555
C61 N6 1_555 1_555
H75 C61 1_555 1_555
H76 C61 1_555 1_555
C62 C61 1_555 1_555
H77 C62 1_555 1_555
H78 C62 1_555 1_555
H79 C62 1_555 1_555
C63 N6 1_555 1_555
H80 C63 1_555 1_555
H81 C63 1_555 1_555
C64 C63 1_555 1_555
H82 C64 1_555 1_555
H83 C64 1_555 1_555
H84 C64 1_555 1_555
C65 C43 1_555 1_555
C66 C65 1_555 1_555
H85 C66 1_555 1_555
C67 C66 1_555 1_555
H86 C67 1_555 1_555
C68 C67 1_555 1_555
C69 C68 1_555 1_555
H87 C69 1_555 1_555
C70 C65 1_555 1_555
H88 C70 1_555 1_555
C71 N8 1_555 1_555
H89 C71 1_555 1_555
H90 C71 1_555 1_555
C72 C71 1_555 1_555
H91 C72 1_555 1_555
H92 C72 1_555 1_555
H93 C72 1_555 1_555
C73 N8 1_555 1_555
H94 C73 1_555 1_555
H95 C73 1_555 1_555
C74 C73 1_555 1_555
H96 C74 1_555 1_555
H97 C74 1_555 1_555
H98 C74 1_555 1_555
C75 C44 1_555 1_555
C76 C75 1_555 1_555
H99 C76 1_555 1_555
C77 C76 1_555 1_555
H100 C77 1_555 1_555
C78 C77 1_555 1_555
C79 C78 1_555 1_555
H101 C79 1_555 1_555
C80 C75 1_555 1_555
H102 C80 1_555 1_555
C81 N7 1_555 1_555
H103 C81 1_555 1_555
H104 C81 1_555 1_555
C82 C81 1_555 1_555
H105 C82 1_555 1_555
H106 C82 1_555 1_555
H107 C82 1_555 1_555
C83 N7 1_555 1_555
H108 C83 1_555 1_555
H109 C83 1_555 1_555
C84 C83 1_555 1_555
H110 C84 1_555 1_555
H111 C84 1_555 1_555
H112 C84 1_555 1_555
C7 C8 1_555 1_555
C17 C18 1_555 1_555
C27 C28 1_555 1_555
C37 C38 1_555 1_555
C49 C50 1_555 1_555
C59 C60 1_555 1_555
C69 C70 1_555 1_555
C79 C80 1_555 1_555

#END
