
#######################################################################
#
#                 Cambridge Crystallographic Data Centre
#                                CCDC 
#
#######################################################################
#
# If this CIF has been generated from an entry in the Cambridge 
# Structural Database, then it will include bibliographic, chemical, 
# crystal, experimental, refinement or atomic coordinate data resulting 
# from the CCDC's data processing and validation procedures.
#
#######################################################################

data_ERUXUM
_chemical_formula_moiety         'C16 H15 N3 O2 Se1'
_chemical_name_systematic        
2-(mesitylselanyl)-3-nitroimidazo[1,2-a]pyridine
_symmetry_cell_setting           triclinic
_symmetry_space_group_name_H-M   'P -1'
_symmetry_Int_Tables_number      2
_space_group_name_Hall           '-P 1'
loop_
_symmetry_equiv_pos_site_id
_symmetry_equiv_pos_as_xyz
1 x,y,z
2 -x,-y,-z
_cell_length_a                   8.0177(4)
_cell_length_b                   8.7865(4)
_cell_length_c                   11.8624(6)
_cell_angle_alpha                104.0020(17)
_cell_angle_beta                 92.9126(17)
_cell_angle_gamma                110.3394(15)
_cell_volume                     751.885
_exptl_crystal_colour            yellow
_exptl_crystal_description       block
_cell_formula_units_Z            2
loop_
_atom_site_label
_atom_site_type_symbol
_atom_site_fract_x
_atom_site_fract_y
_atom_site_fract_z
Se1 Se 0.30722(2) 0.63878(2) 0.16457(2)
C1 C 0.0237(2) 0.7277(2) 0.07038(14)
C2 C -0.0629(2) 0.7660(2) -0.01677(15)
H1 H -0.1779 0.7720 -0.0083
C3 C 0.0121(2) 0.7959(2) -0.11570(14)
C4 C 0.1829(2) 0.7935(3) -0.12376(16)
H2 H 0.2381 0.8180 -0.1896
C5 C 0.2766(2) 0.7565(2) -0.03864(15)
C6 C 0.1932(2) 0.71961(19) 0.05726(13)
C7 C 0.4460(2) 0.84942(18) 0.26999(13)
N1 N 0.42231(17) 0.99397(16) 0.27302(11)
C8 C 0.54881(19) 1.11413(18) 0.35929(13)
C9 C 0.5844(2) 1.28807(19) 0.39705(14)
H3 H 0.5115 1.3349 0.3626
C10 C 0.7249(2) 1.3891(2) 0.48395(15)
H4 H 0.7503 1.5070 0.5099
C11 C 0.8326(2) 1.3194(2) 0.53533(15)
H5 H 0.9301 1.3911 0.5956
C12 C 0.7988(2) 1.1507(2) 0.49993(14)
H6 H 0.8716 1.1041 0.5346
N2 N 0.65673(16) 1.04965(15) 0.41280(11)
C13 C 0.58824(19) 0.87727(18) 0.35570(13)
N3 N 0.65150(18) 0.76047(17) 0.38261(12)
O1 O 0.78495(17) 0.80866(17) 0.45920(12)
O2 O 0.56878(18) 0.61012(15) 0.32773(11)
C14 C -0.0658(3) 0.6973(3) 0.17584(18)
H7 H -0.1851 0.7038 0.1666
H8 H 0.0077 0.7833 0.2469
H9 H -0.0782 0.5850 0.1826
C15 C -0.0918(3) 0.8244(3) -0.21293(18)
H10 H -0.0090 0.8745 -0.2636
H11 H -0.1518 0.9010 -0.1789
H12 H -0.1821 0.7161 -0.2595
C16 C 0.4629(3) 0.7581(3) -0.0534(2)
H13 H 0.4600 0.6422 -0.0718
H14 H 0.5453 0.8260 0.0196
H15 H 0.5043 0.8070 -0.1176
loop_
_geom_bond_atom_site_label_1
_geom_bond_atom_site_label_2
_geom_bond_site_symmetry_1
_geom_bond_site_symmetry_2
Se1 C6 1_555 1_555
C1 C2 1_555 1_555
C2 H1 1_555 1_555
C3 C2 1_555 1_555
C4 C3 1_555 1_555
H2 C4 1_555 1_555
C5 C4 1_555 1_555
C6 C1 1_555 1_555
C7 Se1 1_555 1_555
N1 C7 1_555 1_555
C8 N1 1_555 1_555
C9 C8 1_555 1_555
H3 C9 1_555 1_555
C10 C9 1_555 1_555
H4 C10 1_555 1_555
C11 C10 1_555 1_555
H5 C11 1_555 1_555
C12 C11 1_555 1_555
H6 C12 1_555 1_555
N2 C8 1_555 1_555
C13 C7 1_555 1_555
N3 C13 1_555 1_555
O1 N3 1_555 1_555
O2 N3 1_555 1_555
C14 C1 1_555 1_555
H7 C14 1_555 1_555
H8 C14 1_555 1_555
H9 C14 1_555 1_555
C15 C3 1_555 1_555
H10 C15 1_555 1_555
H11 C15 1_555 1_555
H12 C15 1_555 1_555
C16 C5 1_555 1_555
H13 C16 1_555 1_555
H14 C16 1_555 1_555
H15 C16 1_555 1_555
C5 C6 1_555 1_555
C12 N2 1_555 1_555
N2 C13 1_555 1_555

#END
