
#######################################################################
#
#                 Cambridge Crystallographic Data Centre
#                                CCDC 
#
#######################################################################
#
# If this CIF has been generated from an entry in the Cambridge 
# Structural Database, then it will include bibliographic, chemical, 
# crystal, experimental, refinement or atomic coordinate data resulting 
# from the CCDC's data processing and validation procedures.
#
#######################################################################

data_ESAFOU
_chemical_formula_moiety         'C124 H12 O6 P2,4(C1 H1 Cl3)'
_chemical_name_systematic        
'11,4-bis(Dimethyl phosphato)-bi-buckminsterfulleren(60) chloroform solvate'
_symmetry_cell_setting           triclinic
_symmetry_space_group_name_H-M   'P -1'
_symmetry_Int_Tables_number      2
_space_group_name_Hall           '-P 1'
loop_
_symmetry_equiv_pos_site_id
_symmetry_equiv_pos_as_xyz
1 x,y,z
2 -x,-y,-z
_cell_length_a                   9.9401(10)
_cell_length_b                   13.7583(15)
_cell_length_c                   14.9042(16)
_cell_angle_alpha                100.529(2)
_cell_angle_beta                 96.973(2)
_cell_angle_gamma                102.216(2)
_cell_volume                     1931.22
_exptl_crystal_colour            black
_exptl_crystal_description       block
_cell_formula_units_Z            1
_chemical_properties_physical    light-sensitive
_exptl_crystal_recrystallization_method 'carbon disulfide/chloroform'
loop_
_atom_site_label
_atom_site_type_symbol
_atom_site_fract_x
_atom_site_fract_y
_atom_site_fract_z
C1 C 0.1035(4) 0.1904(3) 0.1833(3)
H1 H 0.1621 0.1766 0.2367
Cl1 Cl -0.04453(11) 0.08759(8) 0.14460(8)
Cl2 Cl 0.05056(14) 0.30301(9) 0.22090(9)
Cl3 Cl 0.20320(13) 0.20356(12) 0.09533(9)
C2 C 0.7090(8) 0.3284(5) 0.2759(4)
H2 H 0.745(12) 0.281(9) 0.208(8)
Cl4 Cl 0.5270(3) 0.30689(19) 0.2548(2)
Cl5 Cl 0.7681(3) 0.2928(2) 0.37543(16)
Cl6 Cl 0.78729(19) 0.44857(15) 0.26482(16)
O1 O 0.2785(3) 0.2036(3) 0.38227(19)
O2 O 0.1747(4) 0.3096(3) 0.4998(2)
O3 O 0.1084(3) 0.1252(3) 0.4813(2)
P1 P 0.23087(10) 0.21225(8) 0.47124(7)
C3 C -0.0195(4) 0.0968(4) 0.4148(3)
H3 H -0.0644 0.1540 0.4193
H4 H -0.0825 0.0379 0.4279
H5 H 0.0018 0.0792 0.3523
C4 C 0.2333(10) 0.4040(4) 0.4738(5)
H6 H 0.3071 0.4465 0.5237
H7 H 0.1599 0.4401 0.4631
H8 H 0.2726 0.3892 0.4171
C5 C 0.5204(4) 0.0400(3) 0.5478(2)
C6 C 0.6200(8) 0.0050(5) 0.6154(4)
C7 C 0.7588(6) 0.0489(4) 0.6367(4)
C8 C 0.8168(7) 0.1428(6) 0.6086(4)
C9 C 0.7288(14) 0.1934(10) 0.5627(8)
C10 C 0.5727(9) 0.1459(8) 0.5385(6)
C11 C 0.5484(7) -0.0357(4) 0.6837(4)
C12 C 0.8357(7) 0.0515(5) 0.7273(5)
C13 C 0.9297(6) 0.2023(6) 0.6820(5)
C14 C 0.7521(7) 0.3006(5) 0.5869(4)
C15 C 0.5067(9) 0.2195(7) 0.5477(6)
C16 C 0.3931(9) 0.0400(7) 0.6036(6)
C17 C 0.8597(6) 0.3575(4) 0.6557(4)
C18 C 0.9510(7) 0.3086(6) 0.7050(6)
C19 C 0.8340(10) 0.4405(6) 0.7215(6)
C20 C 0.9824(5) 0.3621(5) 0.8008(4)
C21 C 0.6191(6) -0.0348(4) 0.7706(4)
C22 C 0.9404(5) 0.1465(5) 0.7535(4)
C23 C 0.9100(6) 0.4431(4) 0.8126(4)
C24 C 0.9723(6) 0.1975(6) 0.8456(4)
C25 C 0.7664(6) 0.0099(4) 0.7909(5)
C26 C 0.6145(9) 0.3206(6) 0.5784(5)
C27 C 0.3626(4) 0.2110(3) 0.5704(3)
C28 C 0.5583(7) -0.0105(5) 0.8520(6)
C29 C 0.3242(11) 0.1189(9) 0.6124(8)
C30 C 0.4098(13) -0.0138(9) 0.6797(7)
C31 C 0.3655(15) 0.2982(11) 0.6492(10)
C32 C 0.2718(7) 0.1439(7) 0.6954(5)
C33 C 0.3523(6) 0.0082(5) 0.7545(4)
C34 C 0.9924(7) 0.3069(8) 0.8699(5)
C35 C 0.5902(6) 0.3991(4) 0.6401(4)
C36 C 0.8011(7) 0.0641(5) 0.8886(5)
C37 C 0.2916(6) 0.2530(6) 0.7201(4)
C38 C 0.2808(5) 0.0889(5) 0.7641(4)
C39 C 0.4285(8) 0.0113(5) 0.8463(5)
C40 C 0.4037(6) 0.0940(5) 0.9111(4)
C41 C 0.6723(7) 0.0505(4) 0.9259(4)
C42 C 0.9010(15) 0.1572(10) 0.9141(10)
C43 C 0.8721(12) 0.2339(8) 0.9803(8)
C44 C 0.3116(7) 0.1437(5) 0.8618(6)
C45 C 0.3320(7) 0.2483(7) 0.8841(5)
C46 C 0.4420(8) 0.3081(6) 0.9576(4)
C47 C 0.3197(6) 0.3045(5) 0.8117(4)
C48 C 0.7031(7) 0.4609(4) 0.7142(5)
C49 C 0.7559(11) 0.2298(8) 1.0167(6)
C50 C 0.4592(7) 0.3859(4) 0.6781(5)
C51 C 0.4930(7) 0.4391(4) 0.7742(6)
C52 C 0.6481(9) 0.1302(6) 0.9884(4)
C53 C 0.9352(12) 0.3285(9) 0.9525(9)
C54 C 0.8648(10) 0.4100(7) 0.9622(7)
C55 C 0.5090(8) 0.1510(5) 0.9805(4)
C56 C 0.5347(14) 0.2682(11) 1.0060(9)
C57 C 0.4235(8) 0.3996(6) 0.8393(5)
C58 C 0.4997(6) 0.4012(5) 0.9303(4)
C59 C 0.6772(11) 0.3090(8) 1.0268(6)
C60 C 0.6409(6) 0.4852(4) 0.7959(4)
C61 C 0.8485(14) 0.4664(10) 0.8934(9)
C62 C 0.7359(11) 0.4001(8) 1.0004(6)
C63 C 0.7123(8) 0.4884(4) 0.8826(5)
C64 C 0.6407(9) 0.4454(6) 0.9510(5)
O1A O 0.7215(3) -0.2036(3) 0.61773(19)
O2A O 0.8253(4) -0.3096(3) 0.5002(2)
O3A O 0.8916(3) -0.1252(3) 0.5187(2)
P1A P 0.76913(10) -0.21225(8) 0.52876(7)
C3A C 1.0195(4) -0.0968(4) 0.5852(3)
H3A H 1.0644 -0.1540 0.5807
H4A H 1.0825 -0.0379 0.5721
H5A H 0.9982 -0.0792 0.6477
C4A C 0.7667(10) -0.4040(4) 0.5262(5)
H6A H 0.6929 -0.4465 0.4763
H7A H 0.8401 -0.4401 0.5369
H8A H 0.7274 -0.3892 0.5829
C5A C 0.4796(4) -0.0400(3) 0.4522(2)
C6A C 0.3800(8) -0.0050(5) 0.3846(4)
C7A C 0.2412(6) -0.0489(4) 0.3633(4)
C8A C 0.1832(7) -0.1428(6) 0.3914(4)
C9A C 0.2712(14) -0.1934(10) 0.4373(8)
C10A C 0.4273(9) -0.1459(8) 0.4615(6)
C11A C 0.4516(7) 0.0357(4) 0.3163(4)
C12A C 0.1643(7) -0.0515(5) 0.2727(5)
C13A C 0.0703(6) -0.2023(6) 0.3180(5)
C14A C 0.2479(7) -0.3006(5) 0.4131(4)
C15A C 0.4933(9) -0.2195(7) 0.4523(6)
C16A C 0.6069(9) -0.0400(7) 0.3964(6)
C17A C 0.1403(6) -0.3575(4) 0.3443(4)
C18A C 0.0490(7) -0.3086(6) 0.2950(6)
C19A C 0.1660(10) -0.4405(6) 0.2785(6)
C20A C 0.0176(5) -0.3621(5) 0.1992(4)
C21A C 0.3809(6) 0.0348(4) 0.2294(4)
C22A C 0.0596(5) -0.1465(5) 0.2465(4)
C23A C 0.0900(6) -0.4431(4) 0.1874(4)
C24A C 0.0277(6) -0.1975(6) 0.1544(4)
C25A C 0.2336(6) -0.0099(4) 0.2091(5)
C26A C 0.3855(9) -0.3206(6) 0.4216(5)
C27A C 0.6374(4) -0.2110(3) 0.4296(3)
C28A C 0.4417(7) 0.0105(5) 0.1480(6)
C29A C 0.6758(11) -0.1189(9) 0.3876(8)
C30A C 0.5902(13) 0.0138(9) 0.3203(7)
C31A C 0.6345(15) -0.2982(11) 0.3508(10)
C32A C 0.7282(7) -0.1439(7) 0.3046(5)
C33A C 0.6477(6) -0.0082(5) 0.2455(4)
C34A C 0.0076(7) -0.3069(8) 0.1301(5)
C35A C 0.4098(6) -0.3991(4) 0.3599(4)
C36A C 0.1989(7) -0.0641(5) 0.1114(5)
C37A C 0.7084(6) -0.2530(6) 0.2799(4)
C38A C 0.7192(5) -0.0889(5) 0.2359(4)
C39A C 0.5715(8) -0.0113(5) 0.1537(5)
C40A C 0.5963(6) -0.0940(5) 0.0889(4)
C41A C 0.3277(7) -0.0505(4) 0.0741(4)
C42A C 0.0990(15) -0.1572(10) 0.0859(10)
C43A C 0.1279(12) -0.2339(8) 0.0197(8)
C44A C 0.6884(7) -0.1437(5) 0.1382(6)
C45A C 0.6680(7) -0.2483(7) 0.1159(5)
C46A C 0.5580(8) -0.3081(6) 0.0424(4)
C47A C 0.6803(6) -0.3045(5) 0.1883(4)
C48A C 0.2969(7) -0.4609(4) 0.2858(5)
C49A C 0.2441(11) -0.2298(8) -0.0167(6)
C50A C 0.5408(7) -0.3859(4) 0.3219(5)
C51A C 0.5070(7) -0.4391(4) 0.2258(6)
C52A C 0.3519(9) -0.1302(6) 0.0116(4)
C53A C 0.0648(12) -0.3285(9) 0.0475(9)
C54A C 0.1352(10) -0.4100(7) 0.0378(7)
C55A C 0.4910(8) -0.1510(5) 0.0195(4)
C56A C 0.4653(14) -0.2682(11) -0.0060(9)
C57A C 0.5765(8) -0.3996(6) 0.1607(5)
C58A C 0.5003(6) -0.4012(5) 0.0697(4)
C59A C 0.3228(11) -0.3090(8) -0.0268(6)
C60A C 0.3591(6) -0.4852(4) 0.2041(4)
C61A C 0.1515(14) -0.4664(10) 0.1066(9)
C62A C 0.2641(11) -0.4001(8) -0.0004(6)
C63A C 0.2877(8) -0.4884(4) 0.1174(5)
C64A C 0.3593(9) -0.4454(6) 0.0490(5)
Cl7? Cl 0.7144(10) 0.2429(8) 0.2514(7)
Cl8? Cl 0.5388(8) 0.3262(6) 0.3229(6)
Cl9? Cl 0.7976(7) 0.4589(5) 0.3043(5)
Cl10? Cl 0.8468(12) 0.3332(9) 0.3916(8)
C65? C 0.355(6) 0.301(4) 0.663(4)
C66? C 0.3192(19) 0.3022(16) 0.7300(13)
C67? C 0.2701(16) 0.2029(13) 0.7549(11)
C68? C 0.276(3) 0.1132(17) 0.700(2)
C69? C 0.346(3) 0.110(3) 0.612(3)
C70? C 0.499(2) 0.3791(14) 0.6515(13)
C71? C 0.383(2) 0.3734(18) 0.8162(15)
C72? C 0.303(2) 0.2176(18) 0.8546(15)
C73? C 0.316(2) 0.0357(16) 0.7400(13)
C74? C 0.420(3) 0.042(2) 0.594(2)
C75? C 0.527(3) 0.242(2) 0.556(2)
C76? C 0.3500(17) 0.0465(12) 0.8338(11)
C77? C 0.346(2) 0.1381(17) 0.8923(14)
C78? C 0.473(3) 0.013(2) 0.8695(17)
C79? C 0.459(2) 0.1685(17) 0.9690(15)
C80? C 0.5623(17) 0.4529(12) 0.7311(12)
C81? C 0.3762(16) 0.3235(13) 0.8913(10)
C82? C 0.5365(18) 0.0886(14) 0.9566(12)
C83? C 0.4841(19) 0.3463(15) 0.9646(13)
C84? C 0.504(2) 0.4495(17) 0.8147(16)
C85? C 0.403(4) -0.009(3) 0.663(2)
C86? C 0.709(2) 0.4803(16) 0.7558(17)
C87? C 0.604(3) 0.155(2) 0.544(2)
C88? C 0.582(3) 0.333(2) 0.592(2)
C89? C 0.657(3) 0.0284(19) 0.6049(19)
C90? C 0.738(5) 0.176(3) 0.567(3)
C91? C 0.7259(16) 0.3633(13) 0.6135(11)
C92? C 0.517(5) 0.247(3) 1.002(3)
C93? C 0.515(2) -0.0406(14) 0.7146(14)
C94? C 0.6152(19) 0.4735(12) 0.8920(12)
C95? C 0.775(2) 0.1019(18) 0.6070(14)
C96? C 0.804(2) 0.2863(16) 0.6033(14)
C97? C 0.797(3) 0.434(2) 0.6980(19)
C98? C 0.9162(17) 0.4050(12) 0.7380(11)
C99? C 0.746(2) 0.4943(17) 0.8560(15)
C100? C 0.608(3) 0.422(2) 0.962(2)
C101? C 0.715(4) 0.379(3) 1.006(3)
C102? C 0.918(2) 0.3114(18) 0.6793(14)
C103? C 0.958(2) 0.2341(18) 0.7138(14)
C104? C 0.9956(16) 0.2484(14) 0.8150(12)
C105? C 0.8874(17) 0.1282(14) 0.6770(11)
C106? C 0.552(2) -0.0283(16) 0.8143(17)
C107? C 0.837(4) 0.409(3) 0.973(2)
C108? C 0.6472(17) -0.0194(11) 0.6756(11)
C109? C 0.758(2) 0.0036(16) 0.7521(16)
C110? C 0.868(5) 0.464(4) 0.881(4)
C111? C 0.687(3) 0.288(2) 1.028(2)
C112? C 0.740(3) 0.205(2) 1.015(2)
C113? C 0.951(2) 0.4143(18) 0.8317(15)
C114? C 0.990(3) 0.3387(19) 0.873(2)
C115? C 0.880(2) 0.0796(18) 0.7528(13)
C116? C 0.944(2) 0.1495(16) 0.8385(13)
C117? C 0.921(4) 0.344(3) 0.957(3)
C118? C 0.6999(16) 0.0010(12) 0.8386(11)
C119? C 0.681(2) 0.113(2) 0.977(2)
C120? C 0.892(4) 0.255(3) 0.979(3)
C121? C 0.764(3) 0.0689(15) 0.9178(14)
C122? C 0.890(5) 0.138(3) 0.920(3)
loop_
_geom_bond_atom_site_label_1
_geom_bond_atom_site_label_2
_geom_bond_site_symmetry_1
_geom_bond_site_symmetry_2
C1 H1 1_555 1_555
Cl1 C1 1_555 1_555
Cl2 C1 1_555 1_555
Cl3 C1 1_555 1_555
C2 H2 1_555 1_555
Cl4 C2 1_555 1_555
Cl5 C2 1_555 1_555
Cl6 C2 1_555 1_555
O1 P1 1_555 1_555
O2 P1 1_555 1_555
O3 P1 1_555 1_555
P1 C27 1_555 1_555
C3 O3 1_555 1_555
H3 C3 1_555 1_555
H4 C3 1_555 1_555
H5 C3 1_555 1_555
C4 O2 1_555 1_555
H6 C4 1_555 1_555
H7 C4 1_555 1_555
H8 C4 1_555 1_555
C5 C6 1_555 1_555
C6 C7 1_555 1_555
C7 C8 1_555 1_555
C8 C9 1_555 1_555
C9 C10 1_555 1_555
C10 C5 1_555 1_555
C11 C6 1_555 1_555
C12 C7 1_555 1_555
C13 C8 1_555 1_555
C14 C9 1_555 1_555
C15 C10 1_555 1_555
C16 C5 1_555 1_555
C17 C14 1_555 1_555
C18 C13 1_555 1_555
C19 C17 1_555 1_555
C20 C18 1_555 1_555
C21 C11 1_555 1_555
C22 C12 1_555 1_555
C23 C19 1_555 1_555
C24 C22 1_555 1_555
C25 C12 1_555 1_555
C26 C14 1_555 1_555
C27 C15 1_555 1_555
C28 C21 1_555 1_555
C29 C16 1_555 1_555
C30 C11 1_555 1_555
C31 C27 1_555 1_555
C32 C29 1_555 1_555
C33 C30 1_555 1_555
C34 C20 1_555 1_555
C35 C26 1_555 1_555
C36 C25 1_555 1_555
C37 C31 1_555 1_555
C38 C32 1_555 1_555
C39 C28 1_555 1_555
C40 C39 1_555 1_555
C41 C28 1_555 1_555
C42 C24 1_555 1_555
C43 C42 1_555 1_555
C44 C38 1_555 1_555
C45 C44 1_555 1_555
C46 C45 1_555 1_555
C47 C37 1_555 1_555
C48 C19 1_555 1_555
C49 C43 1_555 1_555
C50 C31 1_555 1_555
C51 C50 1_555 1_555
C52 C41 1_555 1_555
C53 C34 1_555 1_555
C54 C53 1_555 1_555
C55 C40 1_555 1_555
C56 C46 1_555 1_555
C57 C47 1_555 1_555
C58 C46 1_555 1_555
C59 C49 1_555 1_555
C60 C48 1_555 1_555
C61 C23 1_555 1_555
C62 C54 1_555 1_555
C63 C60 1_555 1_555
C64 C58 1_555 1_555
O1A P1A 1_555 1_555
O2A P1A 1_555 1_555
O3A P1A 1_555 1_555
P1A C27A 1_555 1_555
C3A O3A 1_555 1_555
H3A C3A 1_555 1_555
H4A C3A 1_555 1_555
H5A C3A 1_555 1_555
C4A O2A 1_555 1_555
H6A C4A 1_555 1_555
H7A C4A 1_555 1_555
H8A C4A 1_555 1_555
C5A C5 1_555 1_555
C6A C5A 1_555 1_555
C7A C6A 1_555 1_555
C8A C7A 1_555 1_555
C9A C8A 1_555 1_555
C10A C5A 1_555 1_555
C11A C6A 1_555 1_555
C12A C7A 1_555 1_555
C13A C8A 1_555 1_555
C14A C9A 1_555 1_555
C15A C10A 1_555 1_555
C16A C5A 1_555 1_555
C17A C14A 1_555 1_555
C18A C13A 1_555 1_555
C19A C17A 1_555 1_555
C20A C18A 1_555 1_555
C21A C11A 1_555 1_555
C22A C12A 1_555 1_555
C23A C19A 1_555 1_555
C24A C22A 1_555 1_555
C25A C12A 1_555 1_555
C26A C14A 1_555 1_555
C27A C15A 1_555 1_555
C28A C21A 1_555 1_555
C29A C16A 1_555 1_555
C30A C11A 1_555 1_555
C31A C27A 1_555 1_555
C32A C29A 1_555 1_555
C33A C30A 1_555 1_555
C34A C20A 1_555 1_555
C35A C26A 1_555 1_555
C36A C25A 1_555 1_555
C37A C31A 1_555 1_555
C38A C32A 1_555 1_555
C39A C28A 1_555 1_555
C40A C39A 1_555 1_555
C41A C28A 1_555 1_555
C42A C24A 1_555 1_555
C43A C42A 1_555 1_555
C44A C38A 1_555 1_555
C45A C44A 1_555 1_555
C46A C45A 1_555 1_555
C47A C37A 1_555 1_555
C48A C19A 1_555 1_555
C49A C43A 1_555 1_555
C50A C31A 1_555 1_555
C51A C50A 1_555 1_555
C52A C41A 1_555 1_555
C53A C34A 1_555 1_555
C54A C53A 1_555 1_555
C55A C40A 1_555 1_555
C56A C46A 1_555 1_555
C57A C47A 1_555 1_555
C58A C46A 1_555 1_555
C59A C49A 1_555 1_555
C60A C48A 1_555 1_555
C61A C23A 1_555 1_555
C62A C54A 1_555 1_555
C63A C60A 1_555 1_555
C64A C58A 1_555 1_555
C13 C22 1_555 1_555
C15 C26 1_555 1_555
C16 C30 1_555 1_555
C17 C18 1_555 1_555
C20 C23 1_555 1_555
C21 C25 1_555 1_555
C24 C34 1_555 1_555
C27 C29 1_555 1_555
C32 C37 1_555 1_555
C33 C38 1_555 1_555
C33 C39 1_555 1_555
C35 C48 1_555 1_555
C35 C50 1_555 1_555
C36 C41 1_555 1_555
C36 C42 1_555 1_555
C40 C44 1_555 1_555
C43 C53 1_555 1_555
C45 C47 1_555 1_555
C49 C52 1_555 1_555
C51 C57 1_555 1_555
C51 C60 1_555 1_555
C52 C55 1_555 1_555
C54 C61 1_555 1_555
C55 C56 1_555 1_555
C56 C59 1_555 1_555
C57 C58 1_555 1_555
C59 C62 1_555 1_555
C61 C63 1_555 1_555
C62 C64 1_555 1_555
C63 C64 1_555 1_555
C9A C10A 1_555 1_555
C13A C22A 1_555 1_555
C15A C26A 1_555 1_555
C16A C30A 1_555 1_555
C17A C18A 1_555 1_555
C20A C23A 1_555 1_555
C21A C25A 1_555 1_555
C24A C34A 1_555 1_555
C27A C29A 1_555 1_555
C32A C37A 1_555 1_555
C33A C38A 1_555 1_555
C33A C39A 1_555 1_555
C35A C48A 1_555 1_555
C35A C50A 1_555 1_555
C36A C41A 1_555 1_555
C36A C42A 1_555 1_555
C40A C44A 1_555 1_555
C43A C53A 1_555 1_555
C45A C47A 1_555 1_555
C49A C52A 1_555 1_555
C51A C57A 1_555 1_555
C51A C60A 1_555 1_555
C52A C55A 1_555 1_555
C54A C61A 1_555 1_555
C55A C56A 1_555 1_555
C56A C59A 1_555 1_555
C57A C58A 1_555 1_555
C59A C62A 1_555 1_555
C61A C63A 1_555 1_555
C62A C64A 1_555 1_555
C63A C64A 1_555 1_555

#END
