
#######################################################################
#
#                 Cambridge Crystallographic Data Centre
#                                CCDC 
#
#######################################################################
#
# If this CIF has been generated from an entry in the Cambridge 
# Structural Database, then it will include bibliographic, chemical, 
# crystal, experimental, refinement or atomic coordinate data resulting 
# from the CCDC's data processing and validation procedures.
#
#######################################################################

data_ESALOB
_chemical_formula_moiety         'C19 H12 Br1 F1 N2 O1'
_chemical_name_systematic        
8-bromo-2-(4-fluorophenyl)-4-methyl-3-methylene-2,3-dihydro-1H-pyrrolo[3,4-c]quinolin-1-one
_symmetry_cell_setting           monoclinic
_symmetry_space_group_name_H-M   'C 2/c'
_symmetry_Int_Tables_number      15
_space_group_name_Hall           '-C 2yn'
loop_
_symmetry_equiv_pos_site_id
_symmetry_equiv_pos_as_xyz
1 x,y,z
2 -x,y,1/2-z
3 1/2+x,1/2+y,z
4 1/2-x,1/2+y,1/2-z
5 -x,-y,-z
6 x,-y,1/2+z
7 1/2-x,1/2-y,-z
8 1/2+x,1/2-y,1/2+z
_cell_length_a                   17.326(3)
_cell_length_b                   17.185(3)
_cell_length_c                   11.370(2)
_cell_angle_alpha                90
_cell_angle_beta                 108.741(2)
_cell_angle_gamma                90
_cell_volume                     3205.9
_exptl_crystal_colour            pink
_exptl_crystal_description       block
_cell_formula_units_Z            8
loop_
_atom_site_label
_atom_site_type_symbol
_atom_site_fract_x
_atom_site_fract_y
_atom_site_fract_z
Br1 Br 0.45966(3) 0.12973(3) 1.08967(4)
F1 F 0.3474(2) 0.71378(16) 0.5494(3)
N1 N 0.3716(2) 0.3944(2) 0.5767(3)
N2 N 0.3573(2) 0.1271(2) 0.5279(3)
O1 O 0.4132(2) 0.38035(16) 0.7900(3)
C1 C 0.3544(4) 0.6344(3) 0.5554(4)
C2 C 0.2844(3) 0.5929(3) 0.5307(4)
H1 H 0.2339 0.6174 0.5081
C3 C 0.2909(3) 0.5127(3) 0.5402(4)
H2 H 0.2444 0.4823 0.5264
C4 C 0.3665(3) 0.4778(3) 0.5702(4)
C5 C 0.4355(3) 0.5213(3) 0.5954(4)
H3 H 0.4863 0.4973 0.6172
C6 C 0.4297(4) 0.6016(3) 0.5884(5)
H4 H 0.4762 0.6323 0.6059
C7 C 0.3310(3) 0.3711(3) 0.3547(4)
H5 H 0.3301 0.4243 0.3394
H6 H 0.3180 0.3361 0.2888
C8 C 0.3509(3) 0.3450(3) 0.4705(4)
C9 C 0.3597(2) 0.2651(3) 0.5207(4)
C10 C 0.3845(2) 0.2695(2) 0.6484(4)
C11 C 0.3928(3) 0.3524(3) 0.6867(4)
C12 C 0.3959(2) 0.2021(2) 0.7226(4)
C13 C 0.3812(3) 0.1310(3) 0.6562(4)
C14 C 0.3894(3) 0.0612(3) 0.7226(5)
H7 H 0.3793 0.0143 0.6797
C15 C 0.4118(3) 0.0608(3) 0.8489(5)
H8 H 0.4170 0.0140 0.8920
C16 C 0.4268(3) 0.1317(3) 0.9132(4)
C17 C 0.4206(3) 0.2013(3) 0.8539(4)
H9 H 0.4323 0.2475 0.8988
C18 C 0.3463(3) 0.1905(3) 0.4612(4)
C19 C 0.3177(3) 0.1808(3) 0.3215(4)
H10 H 0.3132 0.1264 0.3012
H11 H 0.3563 0.2046 0.2882
H12 H 0.2655 0.2053 0.2865
loop_
_geom_bond_atom_site_label_1
_geom_bond_atom_site_label_2
_geom_bond_site_symmetry_1
_geom_bond_site_symmetry_2
Br1 C16 1_555 1_555
F1 C1 1_555 1_555
N1 C4 1_555 1_555
N2 C13 1_555 1_555
O1 C11 1_555 1_555
C1 C2 1_555 1_555
C2 H1 1_555 1_555
C3 C2 1_555 1_555
H2 C3 1_555 1_555
C4 C3 1_555 1_555
C5 C4 1_555 1_555
H3 C5 1_555 1_555
C6 C1 1_555 1_555
H4 C6 1_555 1_555
C7 H5 1_555 1_555
H6 C7 1_555 1_555
C8 N1 1_555 1_555
C9 C8 1_555 1_555
C10 C9 1_555 1_555
C11 N1 1_555 1_555
C12 C10 1_555 1_555
C13 C12 1_555 1_555
C14 C13 1_555 1_555
H7 C14 1_555 1_555
C15 C14 1_555 1_555
H8 C15 1_555 1_555
C16 C15 1_555 1_555
C17 C12 1_555 1_555
H9 C17 1_555 1_555
C18 N2 1_555 1_555
C19 C18 1_555 1_555
H10 C19 1_555 1_555
H11 C19 1_555 1_555
H12 C19 1_555 1_555
C5 C6 1_555 1_555
C7 C8 1_555 1_555
C9 C18 1_555 1_555
C10 C11 1_555 1_555
C16 C17 1_555 1_555

#END
