
#######################################################################
#
#                 Cambridge Crystallographic Data Centre
#                                CCDC 
#
#######################################################################
#
# If this CIF has been generated from an entry in the Cambridge 
# Structural Database, then it will include bibliographic, chemical, 
# crystal, experimental, refinement or atomic coordinate data resulting 
# from the CCDC's data processing and validation procedures.
#
#######################################################################

data_ESAPIZ
_chemical_formula_moiety         'C32 H34 N3 O2 1+,Br1 1-'
_chemical_name_systematic        
'4-(2-((butoxycarbonyl)amino)ethyl)-1,3-bis(2-naphthylmethyl)-1H-imidazol-3-ium bromide'
_symmetry_cell_setting           triclinic
_symmetry_space_group_name_H-M   'P -1'
_symmetry_Int_Tables_number      2
_space_group_name_Hall           '-P 1'
loop_
_symmetry_equiv_pos_site_id
_symmetry_equiv_pos_as_xyz
1 x,y,z
2 -x,-y,-z
_cell_length_a                   8.370(3)
_cell_length_b                   10.646(4)
_cell_length_c                   17.666(7)
_cell_angle_alpha                100.436(5)
_cell_angle_beta                 97.651(5)
_cell_angle_gamma                108.773(5)
_cell_volume                     1434.45
_exptl_crystal_colour            colorless
_exptl_crystal_description       block
_cell_formula_units_Z            2
loop_
_atom_site_label
_atom_site_type_symbol
_atom_site_fract_x
_atom_site_fract_y
_atom_site_fract_z
Br1 Br 0.23931(3) 0.30674(2) 0.491543(13)
O1 O 0.9844(2) 0.22120(17) 0.76341(9)
O2 O 1.1830(2) 0.40239(17) 0.73722(9)
N1 N 0.6204(2) 0.33072(19) 0.62565(10)
N2 N 0.7297(2) 0.29711(19) 0.52315(11)
N3 N 1.0643(2) 0.2094(2) 0.64454(11)
H1 H 1.1412 0.2488 0.6202
C1 C 0.6599(3) 0.3770(2) 0.56278(13)
H2 H 0.6417 0.4523 0.5490
C2 C 0.7336(3) 0.1942(2) 0.56185(13)
C3 C 0.6647(3) 0.2170(2) 0.62585(13)
H3 H 0.6500 0.1651 0.6632
C4 C 0.5464(3) 0.3945(2) 0.68593(13)
H4 H 0.4830 0.3257 0.7109
H5 H 0.4657 0.4301 0.6609
C5 C 0.6834(3) 0.5093(2) 0.74810(13)
C6 C 0.7056(3) 0.5040(2) 0.82542(13)
H6 H 0.6405 0.4256 0.8390
C7 C 0.8246(3) 0.6138(2) 0.88538(13)
C8 C 0.8475(4) 0.6112(3) 0.96626(15)
H7 H 0.7849 0.5333 0.9811
C9 C 0.9600(4) 0.7212(3) 1.02255(15)
H8 H 0.9733 0.7179 1.0752
C10 C 1.0555(3) 0.8392(3) 1.00111(14)
H9 H 1.1303 0.9144 1.0397
C11 C 1.0393(3) 0.8443(3) 0.92396(15)
H10 H 1.1046 0.9227 0.9105
C12 C 0.9247(3) 0.7322(2) 0.86437(13)
C13 C 0.9021(3) 0.7338(3) 0.78342(15)
H11 H 0.9688 0.8099 0.7684
C14 C 0.7851(3) 0.6267(3) 0.72716(14)
H12 H 0.7723 0.6311 0.6747
C15 C 0.7941(3) 0.3207(2) 0.45172(13)
H13 H 0.9127 0.3245 0.4586
H14 H 0.7928 0.4083 0.4440
C16 C 0.6877(3) 0.2100(2) 0.37905(13)
C17 C 0.7613(3) 0.1320(2) 0.33637(13)
H15 H 0.8777 0.1469 0.3523
C18 C 0.6628(3) 0.0279(2) 0.26758(13)
C19 C 0.7351(3) -0.0551(2) 0.22243(14)
H16 H 0.8506 -0.0435 0.2377
C20 C 0.6355(4) -0.1527(3) 0.15608(15)
H17 H 0.6847 -0.2055 0.1261
C21 C 0.4601(4) -0.1731(3) 0.13334(15)
H18 H 0.3942 -0.2389 0.0881
C22 C 0.3855(3) -0.0977(3) 0.17684(14)
H19 H 0.2681 -0.1150 0.1622
C23 C 0.4849(3) 0.0069(2) 0.24413(13)
C24 C 0.4137(3) 0.0905(3) 0.28916(14)
H20 H 0.2980 0.0783 0.2737
C25 C 0.5104(3) 0.1888(3) 0.35467(14)
H21 H 0.4602 0.2422 0.3835
C26 C 0.8119(3) 0.0895(2) 0.53545(13)
H22 H 0.8746 0.1149 0.4949
H23 H 0.7209 0.0015 0.5130
C27 C 0.9349(3) 0.0776(2) 0.60418(13)
H24 H 0.8692 0.0395 0.6411
H25 H 0.9914 0.0158 0.5844
C28 C 1.0689(3) 0.2725(2) 0.71835(14)
C29 C 1.2088(3) 0.4761(3) 0.81804(14)
H26 H 1.2570 0.4319 0.8536
H27 H 1.0996 0.4772 0.8302
C30 C 1.3304(3) 0.6196(3) 0.82771(14)
H28 H 1.2722 0.6694 0.8007
H29 H 1.4284 0.6178 0.8044
C31 C 1.3930(4) 0.6922(3) 0.91491(15)
H30 H 1.2944 0.6941 0.9377
H31 H 1.4487 0.6408 0.9417
C32 C 1.5185(4) 0.8373(3) 0.92819(16)
H32 H 1.6149 0.8362 0.9045
H33 H 1.5583 0.8770 0.9836
H34 H 1.4615 0.8904 0.9049
loop_
_geom_bond_atom_site_label_1
_geom_bond_atom_site_label_2
_geom_bond_site_symmetry_1
_geom_bond_site_symmetry_2
O1 C28 1_555 1_555
O2 C28 1_555 1_555
N1 C1 1_555 1_555
N2 C1 1_555 1_555
N3 H1 1_555 1_555
C1 H2 1_555 1_555
C2 N2 1_555 1_555
C3 N1 1_555 1_555
H3 C3 1_555 1_555
C4 N1 1_555 1_555
H4 C4 1_555 1_555
H5 C4 1_555 1_555
C5 C4 1_555 1_555
C6 C5 1_555 1_555
H6 C6 1_555 1_555
C7 C6 1_555 1_555
C8 C7 1_555 1_555
H7 C8 1_555 1_555
C9 C8 1_555 1_555
H8 C9 1_555 1_555
C10 C9 1_555 1_555
H9 C10 1_555 1_555
C11 C10 1_555 1_555
H10 C11 1_555 1_555
C12 C7 1_555 1_555
C13 C12 1_555 1_555
H11 C13 1_555 1_555
C14 C5 1_555 1_555
H12 C14 1_555 1_555
C15 N2 1_555 1_555
H13 C15 1_555 1_555
H14 C15 1_555 1_555
C16 C15 1_555 1_555
C17 C16 1_555 1_555
H15 C17 1_555 1_555
C18 C17 1_555 1_555
C19 C18 1_555 1_555
H16 C19 1_555 1_555
C20 C19 1_555 1_555
H17 C20 1_555 1_555
C21 C20 1_555 1_555
H18 C21 1_555 1_555
C22 C21 1_555 1_555
H19 C22 1_555 1_555
C23 C18 1_555 1_555
C24 C23 1_555 1_555
H20 C24 1_555 1_555
C25 C16 1_555 1_555
H21 C25 1_555 1_555
C26 C2 1_555 1_555
H22 C26 1_555 1_555
H23 C26 1_555 1_555
C27 N3 1_555 1_555
H24 C27 1_555 1_555
H25 C27 1_555 1_555
C28 N3 1_555 1_555
C29 O2 1_555 1_555
H26 C29 1_555 1_555
H27 C29 1_555 1_555
C30 C29 1_555 1_555
H28 C30 1_555 1_555
H29 C30 1_555 1_555
C31 C30 1_555 1_555
H30 C31 1_555 1_555
H31 C31 1_555 1_555
C32 C31 1_555 1_555
H32 C32 1_555 1_555
H33 C32 1_555 1_555
H34 C32 1_555 1_555
C2 C3 1_555 1_555
C11 C12 1_555 1_555
C13 C14 1_555 1_555
C22 C23 1_555 1_555
C24 C25 1_555 1_555
C26 C27 1_555 1_555

#END
