
#######################################################################
#
#                 Cambridge Crystallographic Data Centre
#                                CCDC 
#
#######################################################################
#
# If this CIF has been generated from an entry in the Cambridge 
# Structural Database, then it will include bibliographic, chemical, 
# crystal, experimental, refinement or atomic coordinate data resulting 
# from the CCDC's data processing and validation procedures.
#
#######################################################################

data_ESEFUE
_chemical_name_common            cis-Dihydronarciclasine
_chemical_formula_moiety         'C14 H15 N1 O7'
_chemical_name_systematic        
2,3,4,7-Tetrahydroxy-1,3,4,4a,5,11b-hexahydro[1,3]dioxolo[4,5-j]phenanthridin-6(2H)-one
_symmetry_cell_setting           monoclinic
_symmetry_space_group_name_H-M   'P 21'
_symmetry_Int_Tables_number      4
_space_group_name_Hall           'P 2yb'
loop_
_symmetry_equiv_pos_site_id
_symmetry_equiv_pos_as_xyz
1 x,y,z
2 -x,1/2+y,-z
_cell_length_a                   9.2997(3)
_cell_length_b                   6.9294(3)
_cell_length_c                   10.8143(5)
_cell_angle_alpha                90
_cell_angle_beta                 112.279(2)
_cell_angle_gamma                90
_cell_volume                     644.864
_exptl_crystal_colour            colorless
_exptl_crystal_description       plate
_cell_formula_units_Z            2
_exptl_crystal_recrystallization_method dichloromethane/methanol
loop_
_atom_site_label
_atom_site_type_symbol
_atom_site_fract_x
_atom_site_fract_y
_atom_site_fract_z
N1 N -0.11572(18) 0.8129(3) 0.83845(16)
H1 H -0.209(3) 0.784(4) 0.847(2)
O1 O -0.26061(19) 1.2853(2) 0.51987(16)
H2 H -0.337(4) 1.289(6) 0.529(3)
O2 O -0.46079(16) 0.9493(2) 0.45420(16)
H3 H -0.450(3) 0.892(5) 0.385(3)
O3 O -0.23047(18) 0.6784(3) 0.48413(14)
H4 H -0.233(4) 0.560(6) 0.484(3)
O4 O -0.01222(14) 0.8739(3) 1.06012(13)
O5 O 0.28305(16) 0.8749(3) 1.18539(13)
H5 H 0.182(4) 0.885(6) 1.171(3)
O6 O 0.57559(15) 0.8876(3) 1.15344(13)
O7 O 0.59899(14) 0.8905(3) 0.94674(14)
C1 C -0.0441(2) 1.0908(3) 0.65814(19)
H6 H 0.025(3) 1.171(4) 0.639(2)
H7 H -0.050(3) 1.149(3) 0.739(2)
C2 C -0.2016(2) 1.0917(3) 0.54088(19)
H8 H -0.188(2) 1.054(3) 0.459(2)
C3 C -0.3156(2) 0.9554(3) 0.56513(19)
H9 H -0.342(2) 1.011(3) 0.644(2)
C4 C -0.2501(2) 0.7525(3) 0.59957(18)
H10 H -0.328(3) 0.676(4) 0.622(2)
C5 C -0.0938(2) 0.7523(3) 0.71692(19)
H11 H -0.055(3) 0.621(4) 0.724(2)
C6 C 0.15799(19) 0.8756(3) 0.94266(17)
C7 C 0.0051(2) 0.8550(3) 0.95161(18)
C8 C 0.2898(2) 0.8799(3) 1.06271(18)
C9 C 0.43218(19) 0.8863(4) 1.05123(18)
C10 C 0.4450(2) 0.8893(3) 0.92880(19)
C11 C 0.3182(2) 0.8913(3) 0.80962(18)
H12 H 0.332(2) 0.895(3) 0.7279(19)
C12 C 0.17215(19) 0.8843(3) 0.81740(17)
C13 C 0.0239(2) 0.8860(3) 0.69356(17)
H13 H 0.046(2) 0.832(3) 0.6160(19)
C14 C 0.6849(2) 0.8870(4) 1.0895(2)
H14 H 0.746(3) 0.767(4) 1.117(2)
H15 H 0.746(3) 1.008(4) 1.113(3)
loop_
_geom_bond_atom_site_label_1
_geom_bond_atom_site_label_2
_geom_bond_site_symmetry_1
_geom_bond_site_symmetry_2
N1 H1 1_555 1_555
O1 H2 1_555 1_555
O2 H3 1_555 1_555
O3 H4 1_555 1_555
O4 C7 1_555 1_555
O5 H5 1_555 1_555
O6 C9 1_555 1_555
O7 C10 1_555 1_555
C1 H6 1_555 1_555
H7 C1 1_555 1_555
C2 O1 1_555 1_555
H8 C2 1_555 1_555
C3 O2 1_555 1_555
H9 C3 1_555 1_555
C4 O3 1_555 1_555
H10 C4 1_555 1_555
C5 N1 1_555 1_555
H11 C5 1_555 1_555
C6 C7 1_555 1_555
C7 N1 1_555 1_555
C8 O5 1_555 1_555
C9 C8 1_555 1_555
C10 C9 1_555 1_555
C11 C10 1_555 1_555
H12 C11 1_555 1_555
C12 C6 1_555 1_555
C13 C1 1_555 1_555
H13 C13 1_555 1_555
C14 O6 1_555 1_555
H14 C14 1_555 1_555
H15 C14 1_555 1_555
O7 C14 1_555 1_555
C1 C2 1_555 1_555
C2 C3 1_555 1_555
C3 C4 1_555 1_555
C4 C5 1_555 1_555
C5 C13 1_555 1_555
C6 C8 1_555 1_555
C11 C12 1_555 1_555
C12 C13 1_555 1_555

#END
