
#######################################################################
#
#                 Cambridge Crystallographic Data Centre
#                                CCDC 
#
#######################################################################
#
# If this CIF has been generated from an entry in the Cambridge 
# Structural Database, then it will include bibliographic, chemical, 
# crystal, experimental, refinement or atomic coordinate data resulting 
# from the CCDC's data processing and validation procedures.
#
#######################################################################

data_ESEPUN
_chemical_formula_moiety         'C14 H14 N4 O2'
_chemical_name_systematic        1,2-bis(4-Pyridinecarboxamido)ethane
_symmetry_cell_setting           monoclinic
_symmetry_space_group_name_H-M   'P 21/n'
_symmetry_Int_Tables_number      14
_space_group_name_Hall           '-P 2yn'
loop_
_symmetry_equiv_pos_site_id
_symmetry_equiv_pos_as_xyz
1 x,y,z
2 1/2-x,1/2+y,1/2-z
3 -x,-y,-z
4 1/2+x,1/2-y,1/2+z
_cell_length_a                   4.270(3)
_cell_length_b                   15.070(6)
_cell_length_c                   10.259(4)
_cell_angle_alpha                90
_cell_angle_beta                 100.72(9)
_cell_angle_gamma                90
_cell_volume                     648.634
_cell_formula_units_Z            2
loop_
_atom_site_label
_atom_site_type_symbol
_atom_site_fract_x
_atom_site_fract_y
_atom_site_fract_z
N1 N 0.4886(7) 0.24650(16) 0.5140(2)
O1 O 0.1157(6) -0.02269(12) 0.72599(19)
N2 N 0.0230(6) 0.08370(16) 0.8674(2)
C1 C 0.2582(6) 0.12487(16) 0.6785(2)
C2 C 0.1275(6) 0.05538(16) 0.7599(2)
C3 C -0.1229(7) 0.02315(19) 0.9488(3)
C4 C 0.3080(8) 0.10063(19) 0.5544(3)
C5 C 0.3293(8) 0.21078(18) 0.7193(3)
C6 C 0.4227(9) 0.1629(2) 0.4769(3)
C7 C 0.4430(9) 0.2688(2) 0.6352(3)
H1 H 0.276(7) 0.042(2) 0.523(3)
H2 H -0.237(7) -0.0185(18) 0.891(3)
H3 H -0.254(7) 0.0596(19) 0.995(3)
H4 H 0.029(6) 0.1390(19) 0.887(2)
H5 H 0.298(8) 0.233(2) 0.802(4)
H6 H 0.452(9) 0.146(2) 0.389(4)
H7 H 0.488(8) 0.329(2) 0.662(3)
C3B C 0.1229(7) -0.02315(19) 1.0512(3)
N2B N -0.0230(6) -0.08370(16) 1.1326(2)
C2B C -0.1275(6) -0.05538(16) 1.2401(2)
O1B O -0.1157(6) 0.02269(12) 1.27401(19)
C1B C -0.2582(6) -0.12487(16) 1.3215(2)
C4B C -0.3080(8) -0.10063(19) 1.4456(3)
C6B C -0.4227(9) -0.1629(2) 1.5231(3)
N1B N -0.4886(7) -0.24650(16) 1.4860(2)
C7B C -0.4430(9) -0.2688(2) 1.3648(3)
C5B C -0.3293(8) -0.21078(18) 1.2807(3)
H5B H -0.298(8) -0.233(2) 1.198(4)
H7B H -0.488(8) -0.329(2) 1.338(3)
H6B H -0.452(9) -0.146(2) 1.611(4)
H1B H -0.276(7) -0.042(2) 1.477(3)
H4B H -0.029(6) -0.1390(19) 1.113(2)
H2B H 0.237(7) 0.0185(18) 1.109(3)
H3B H 0.254(7) -0.0596(19) 1.005(3)
loop_
_geom_bond_atom_site_label_1
_geom_bond_atom_site_label_2
_geom_bond_site_symmetry_1
_geom_bond_site_symmetry_2
N1 C6 1_555 1_555
O1 C2 1_555 1_555
N2 C2 1_555 1_555
C1 C2 1_555 1_555
C3 N2 1_555 1_555
C4 C1 1_555 1_555
C5 C1 1_555 1_555
C6 C4 1_555 1_555
C7 N1 1_555 1_555
H1 C4 1_555 1_555
H2 C3 1_555 1_555
H3 C3 1_555 1_555
H4 N2 1_555 1_555
H5 C5 1_555 1_555
H6 C6 1_555 1_555
H7 C7 1_555 1_555
C3B C3 1_555 1_555
N2B C3B 1_555 1_555
C2B N2B 1_555 1_555
O1B C2B 1_555 1_555
C1B C2B 1_555 1_555
C4B C1B 1_555 1_555
C6B C4B 1_555 1_555
N1B C6B 1_555 1_555
C7B N1B 1_555 1_555
C5B C1B 1_555 1_555
H5B C5B 1_555 1_555
H7B C7B 1_555 1_555
H6B C6B 1_555 1_555
H1B C4B 1_555 1_555
H4B N2B 1_555 1_555
H2B C3B 1_555 1_555
H3B C3B 1_555 1_555
C5 C7 1_555 1_555
C7B C5B 1_555 1_555

#END
