
#######################################################################
#
#                 Cambridge Crystallographic Data Centre
#                                CCDC 
#
#######################################################################
#
# If this CIF has been generated from an entry in the Cambridge 
# Structural Database, then it will include bibliographic, chemical, 
# crystal, experimental, refinement or atomic coordinate data resulting 
# from the CCDC's data processing and validation procedures.
#
#######################################################################

data_ESEZUY
_chemical_formula_moiety         'C48 H46 N2,2(C1 H1 Cl3)'
_chemical_name_systematic        
'6,15,23,32-Tetra-t-butyl-2,19-diazaheptacyclo[28.4.0.0^3,8^.0^4,34^.0^13,18^.0^17,21^.0^20,25^]tetratriaconta-1(34),3,5,7,13,15,17,20,22,24,30,32-dodecaene-9,11,26,28-tetrayne chloroform solvate'
_symmetry_cell_setting           monoclinic
_symmetry_space_group_name_H-M   'P 21/c'
_symmetry_Int_Tables_number      14
_space_group_name_Hall           '-P 2ybc'
loop_
_symmetry_equiv_pos_site_id
_symmetry_equiv_pos_as_xyz
1 x,y,z
2 -x,1/2+y,1/2-z
3 -x,-y,-z
4 x,1/2-y,1/2+z
_cell_length_a                   13.421(4)
_cell_length_b                   9.874(3)
_cell_length_c                   18.338(7)
_cell_angle_alpha                90
_cell_angle_beta                 108.031(13)
_cell_angle_gamma                90
_cell_volume                     2310.79
_exptl_crystal_colour            colorless
_exptl_crystal_description       prism
_cell_formula_units_Z            2
loop_
_atom_site_label
_atom_site_type_symbol
_atom_site_fract_x
_atom_site_fract_y
_atom_site_fract_z
N1 N 0.92258(13) 0.13225(18) 0.85539(11)
H1 H 0.9441 0.0956 0.9014
C1 C 0.65115(16) 0.2684(2) 0.80514(13)
H2 H 0.5933 0.2792 0.8241
C2 C 0.72886(16) 0.3029(2) 0.70426(13)
H3 H 0.7242 0.3356 0.6546
C3 C 0.82554(16) 0.1901(2) 0.82164(13)
C4 C 0.75211(15) 0.1404(2) 0.92336(13)
C5 C 0.74125(17) 0.2009(2) 0.85078(13)
C6 C 1.08270(16) 0.0960(2) 0.81489(13)
C7 C 1.14150(15) 0.0368(2) 0.88556(13)
C8 C 0.82011(16) 0.2382(2) 0.74814(13)
C9 C 0.98001(16) 0.1414(2) 0.80526(13)
C10 C 0.92010(16) 0.2051(2) 0.73725(13)
C11 C 0.54359(17) 0.3911(2) 0.68229(14)
C12 C 1.12040(17) 0.1121(2) 0.75268(13)
H4 H 1.1891 0.0810 0.7575
C13 C 1.06184(17) 0.1721(2) 0.68315(13)
C14 C 0.64420(16) 0.3200(2) 0.73245(13)
C15 C 0.5712(2) 0.5290(3) 0.65457(17)
H5 H 0.5072 0.5728 0.6224
H6 H 0.6196 0.5154 0.6247
H7 H 0.6046 0.5865 0.6990
C16 C 0.96115(17) 0.2200(2) 0.67664(13)
H8 H 0.9207 0.2629 0.6306
C17 C 1.10890(18) 0.1809(3) 0.61737(15)
C18 C 0.4914(2) 0.3009(3) 0.61339(17)
H9 H 0.4740 0.2132 0.6313
H10 H 0.5396 0.2871 0.5834
H11 H 0.4273 0.3446 0.5813
C19 C 1.0361(2) 0.2512(3) 0.54685(15)
H12 H 0.9694 0.2022 0.5294
H13 H 1.0687 0.2520 0.5059
H14 H 1.0235 0.3444 0.5600
C20 C 0.46564(19) 0.4170(3) 0.72644(16)
H15 H 0.4996 0.4706 0.7724
H16 H 0.4423 0.3303 0.7415
H17 H 0.4050 0.4667 0.6937
C21 C 1.1317(3) 0.0369(3) 0.59589(18)
H18 H 1.1857 -0.0042 0.6390
H19 H 1.1565 0.0401 0.5510
H20 H 1.0676 -0.0174 0.5839
C22 C 1.2108(2) 0.2647(4) 0.6437(2)
H21 H 1.1957 0.3544 0.6606
H22 H 1.2395 0.2747 0.6010
H23 H 1.2620 0.2182 0.6863
C23 C 0.77804(16) 0.0800(2) 0.98379(13)
C24 C 1.18370(16) -0.0149(2) 0.94726(13)
N1B N 1.07742(13) -0.13225(18) 1.14461(11)
H1B H 1.0559 -0.0956 1.0986
C1B C 1.34885(16) -0.2684(2) 1.19486(13)
H2B H 1.4067 -0.2792 1.1759
C2B C 1.27114(16) -0.3029(2) 1.29574(13)
H3B H 1.2758 -0.3356 1.3454
C3B C 1.17446(16) -0.1901(2) 1.17836(13)
C4B C 1.24789(15) -0.1404(2) 1.07664(13)
C5B C 1.25875(17) -0.2009(2) 1.14922(13)
C6B C 0.91730(16) -0.0960(2) 1.18511(13)
C7B C 0.85850(15) -0.0368(2) 1.11444(13)
C8B C 1.17989(16) -0.2382(2) 1.25186(13)
C9B C 1.01999(16) -0.1414(2) 1.19474(13)
C10B C 1.07990(16) -0.2051(2) 1.26275(13)
C11B C 1.45641(17) -0.3911(2) 1.31771(14)
C12B C 0.87960(17) -0.1121(2) 1.24732(13)
H4B H 0.8109 -0.0810 1.2425
C13B C 0.93816(17) -0.1721(2) 1.31685(13)
C14B C 1.35580(16) -0.3200(2) 1.26755(13)
C15B C 1.4288(2) -0.5290(3) 1.34543(17)
H5B H 1.4928 -0.5728 1.3776
H6B H 1.3804 -0.5154 1.3753
H7B H 1.3954 -0.5865 1.3010
C16B C 1.03885(17) -0.2200(2) 1.32336(13)
H8B H 1.0793 -0.2629 1.3694
C17B C 0.89110(18) -0.1809(3) 1.38263(15)
C18B C 1.5086(2) -0.3009(3) 1.38661(17)
H9B H 1.5260 -0.2132 1.3687
H10B H 1.4604 -0.2871 1.4166
H11B H 1.5727 -0.3446 1.4187
C19B C 0.9639(2) -0.2512(3) 1.45315(15)
H12B H 1.0306 -0.2022 1.4706
H13B H 0.9313 -0.2520 1.4941
H14B H 0.9765 -0.3444 1.4400
C20B C 1.53436(19) -0.4170(3) 1.27356(16)
H15B H 1.5004 -0.4706 1.2276
H16B H 1.5577 -0.3303 1.2585
H17B H 1.5950 -0.4667 1.3063
C21B C 0.8683(3) -0.0369(3) 1.40411(18)
H18B H 0.8143 0.0042 1.3610
H19B H 0.8435 -0.0401 1.4490
H20B H 0.9324 0.0174 1.4161
C22B C 0.7892(2) -0.2647(4) 1.3563(2)
H21B H 0.8043 -0.3544 1.3394
H22B H 0.7605 -0.2747 1.3990
H23B H 0.7380 -0.2182 1.3137
C23B C 1.22196(16) -0.0800(2) 1.01621(13)
C24B C 0.81630(16) 0.0149(2) 1.05274(13)
Cl1 Cl 0.5624(4) -0.1082(4) 0.57159(19)
Cl2 Cl 0.7069(2) 0.0983(4) 0.5389(2)
Cl3 Cl 0.7822(4) -0.1101(3) 0.6566(3)
C25 C 0.6769(14) -0.0127(14) 0.6118(8)
H24 H 0.6636 0.0479 0.6515
C26? C 0.7060(18) -0.0152(13) 0.6089(8)
Cl4? Cl 0.8421(7) -0.0959(3) 0.6332(3)
Cl5? Cl 0.6170(9) -0.1326(7) 0.5825(4)
Cl6? Cl 0.7004(6) 0.0886(8) 0.5304(5)
H25? H 0.6980 0.0385 0.6530
loop_
_geom_bond_atom_site_label_1
_geom_bond_atom_site_label_2
_geom_bond_site_symmetry_1
_geom_bond_site_symmetry_2
N1 H1 1_555 1_555
C1 H2 1_555 1_555
C2 H3 1_555 1_555
C3 N1 1_555 1_555
C4 C5 1_555 1_555
C5 C1 1_555 1_555
C6 C7 1_555 1_555
C7 C24 1_555 1_555
C8 C2 1_555 1_555
C9 N1 1_555 1_555
C10 C8 1_555 1_555
C11 C14 1_555 1_555
C12 C6 1_555 1_555
H4 C12 1_555 1_555
C13 C12 1_555 1_555
C14 C1 1_555 1_555
C15 C11 1_555 1_555
H5 C15 1_555 1_555
H6 C15 1_555 1_555
H7 C15 1_555 1_555
C16 C10 1_555 1_555
H8 C16 1_555 1_555
C17 C13 1_555 1_555
C18 C11 1_555 1_555
H9 C18 1_555 1_555
H10 C18 1_555 1_555
H11 C18 1_555 1_555
C19 C17 1_555 1_555
H12 C19 1_555 1_555
H13 C19 1_555 1_555
H14 C19 1_555 1_555
C20 C11 1_555 1_555
H15 C20 1_555 1_555
H16 C20 1_555 1_555
H17 C20 1_555 1_555
C21 C17 1_555 1_555
H18 C21 1_555 1_555
H19 C21 1_555 1_555
H20 C21 1_555 1_555
C22 C17 1_555 1_555
H21 C22 1_555 1_555
H22 C22 1_555 1_555
H23 C22 1_555 1_555
C23 C4 1_555 1_555
C24 C23B 1_555 1_555
Cl1 C25 1_555 1_555
Cl2 C25 1_555 1_555
Cl3 C25 1_555 1_555
C25 H24 1_555 1_555
N1B H1B 1_555 1_555
C1B H2B 1_555 1_555
C2B H3B 1_555 1_555
C3B N1B 1_555 1_555
C4B C5B 1_555 1_555
C5B C1B 1_555 1_555
C6B C7B 1_555 1_555
C7B C24B 1_555 1_555
C8B C2B 1_555 1_555
C9B N1B 1_555 1_555
C10B C8B 1_555 1_555
C11B C14B 1_555 1_555
C12B C6B 1_555 1_555
H4B C12B 1_555 1_555
C13B C12B 1_555 1_555
C14B C1B 1_555 1_555
C15B C11B 1_555 1_555
H5B C15B 1_555 1_555
H6B C15B 1_555 1_555
H7B C15B 1_555 1_555
C16B C10B 1_555 1_555
H8B C16B 1_555 1_555
C17B C13B 1_555 1_555
C18B C11B 1_555 1_555
H9B C18B 1_555 1_555
H10B C18B 1_555 1_555
H11B C18B 1_555 1_555
C19B C17B 1_555 1_555
H12B C19B 1_555 1_555
H13B C19B 1_555 1_555
H14B C19B 1_555 1_555
C20B C11B 1_555 1_555
H15B C20B 1_555 1_555
H16B C20B 1_555 1_555
H17B C20B 1_555 1_555
C21B C17B 1_555 1_555
H18B C21B 1_555 1_555
H19B C21B 1_555 1_555
H20B C21B 1_555 1_555
C22B C17B 1_555 1_555
H21B C22B 1_555 1_555
H22B C22B 1_555 1_555
H23B C22B 1_555 1_555
C23B C4B 1_555 1_555
C24B C23 1_555 1_555
C2 C14 1_555 1_555
C3 C5 1_555 1_555
C3 C8 1_555 1_555
C6 C9 1_555 1_555
C9 C10 1_555 1_555
C13 C16 1_555 1_555
C2B C14B 1_555 1_555
C3B C5B 1_555 1_555
C3B C8B 1_555 1_555
C6B C9B 1_555 1_555
C9B C10B 1_555 1_555
C13B C16B 1_555 1_555

#END
