
#######################################################################
#
#                 Cambridge Crystallographic Data Centre
#                                CCDC 
#
#######################################################################
#
# If this CIF has been generated from an entry in the Cambridge 
# Structural Database, then it will include bibliographic, chemical, 
# crystal, experimental, refinement or atomic coordinate data resulting 
# from the CCDC's data processing and validation procedures.
#
#######################################################################

data_ESEZOS
_chemical_formula_moiety         'C56 H68 N4'
_chemical_name_systematic        
35,36-Di-n-butyl-4,12,21,29-tetra-t-butyl-8,25,35,36-tetra-azanonacyclo[30.2.1.1^15,18^.0^2,7^.0^6,10^.0^9,14^.0^19,24^.0^23,27^.0^26,31^]hexatriaconta-1(34),2,4,6,9,11,13,15,17,19,21,23,26,28,30,32-hexadecaene
_symmetry_cell_setting           tetragonal
_symmetry_space_group_name_H-M   'P 43 21 2'
_symmetry_Int_Tables_number      96
_space_group_name_Hall           'P 4nw 2abw'
loop_
_symmetry_equiv_pos_site_id
_symmetry_equiv_pos_as_xyz
1 x,y,z
2 -x,-y,1/2+z
3 1/2+x,1/2-y,1/4-z
4 1/2-x,1/2+y,3/4-z
5 -y,-x,1/2-z
6 y,x,-z
7 1/2+y,1/2-x,1/4+z
8 1/2-y,1/2+x,3/4+z
_cell_length_a                   20.195(5)
_cell_length_b                   20.195(5)
_cell_length_c                   14.428(5)
_cell_angle_alpha                90
_cell_angle_beta                 90
_cell_angle_gamma                90
_cell_volume                     5884.29
_exptl_crystal_colour            colorless
_exptl_crystal_description       prism
_cell_formula_units_Z            4
loop_
_atom_site_label
_atom_site_type_symbol
_atom_site_fract_x
_atom_site_fract_y
_atom_site_fract_z
N1 N 0.1869(2) 0.0425(2) 1.0083(3)
H1 H 0.1514 0.0658 1.0041
N2 N 0.1326(2) 0.12233(19) 0.8346(3)
C1 C 0.2749(2) -0.0149(2) 1.0673(3)
C2 C 0.0725(2) 0.1385(2) 0.7949(3)
C3 C 0.2231(2) 0.0169(2) 0.9333(3)
C4 C 0.3578(3) -0.0797(2) 0.7436(3)
C5 C 0.3083(2) -0.0448(2) 0.8084(3)
C6 C 0.2008(2) 0.0354(2) 1.1801(3)
C7 C 0.2999(3) -0.0268(2) 1.2298(3)
C8 C 0.2176(2) 0.0239(2) 1.0905(3)
C9 C 0.2103(3) 0.0243(3) 0.8390(3)
C10 C 0.1516(2) 0.0601(2) 0.8047(3)
C11 C 0.2783(2) -0.0190(2) 0.9666(3)
C12 C 0.2432(3) 0.0107(3) 1.2497(4)
H2 H 0.2332 0.0196 1.3114
C13 C 0.3450(3) -0.0509(3) 1.3081(4)
C14 C 0.1809(3) 0.1718(2) 0.8683(4)
H3 H 0.2043 0.1534 0.9210
H4 H 0.1569 0.2105 0.8898
C15 C 0.2553(3) -0.0065(3) 0.7799(3)
H5 H 0.2492 -0.0009 0.7165
C16 C 0.3208(3) -0.0491(3) 0.9058(4)
H6 H 0.3575 -0.0722 0.9277
C17 C 0.3156(2) -0.0387(3) 1.1379(4)
H7 H 0.3535 -0.0628 1.1231
C18 C 0.1024(3) 0.0384(2) 0.7456(3)
H8 H 0.1022 -0.0019 0.7143
C19 C 0.3369(3) -0.0683(3) 0.6415(4)
H9 H 0.3317 -0.0217 0.6305
H10 H 0.2958 -0.0906 0.6298
H11 H 0.3705 -0.0856 0.6010
C20 C 0.0518(3) 0.0874(3) 0.7403(3)
H12 H 0.0127 0.0851 0.7064
C21 C 0.3551(3) -0.1546(3) 0.7623(4)
H13 H 0.3813 -0.1775 0.7170
H14 H 0.3100 -0.1696 0.7586
H15 H 0.3722 -0.1636 0.8231
C22 C 0.2306(4) 0.1932(4) 0.7971(4)
H16 H 0.2603 0.2246 0.8265
H17 H 0.2569 0.1548 0.7806
C23 C 0.4277(3) -0.0533(3) 0.7577(4)
H18 H 0.4431 -0.0655 0.8183
H19 H 0.4275 -0.0060 0.7521
H20 H 0.4566 -0.0719 0.7117
C24 C 0.3555(4) -0.1253(4) 1.2996(5)
H21 H 0.3831 -0.1403 1.3494
H22 H 0.3764 -0.1350 1.2414
H23 H 0.3134 -0.1474 1.3026
C25 C 0.4161(4) -0.0206(4) 1.2934(5)
H24 H 0.4136 0.0268 1.2966
H25 H 0.4327 -0.0336 1.2338
H26 H 0.4453 -0.0366 1.3409
C26 C 0.3227(5) -0.0348(6) 1.3996(5)
H27 H 0.3220 0.0125 1.4070
H28 H 0.3523 -0.0538 1.4444
H29 H 0.2790 -0.0521 1.4089
C27 C 0.2067(5) 0.2236(4) 0.7100(6)
H30 H 0.2419 0.2218 0.6644
H31 H 0.1700 0.1976 0.6866
C28 C 0.1870(5) 0.2868(5) 0.7196(7)
H32 H 0.1703 0.2935 0.7812
H33 H 0.1528 0.2962 0.6754
H34 H 0.2239 0.3158 0.7091
N1E N 0.0425(2) 0.1869(2) 0.9917(3)
H1E H 0.0658 0.1514 0.9959
N2E N 0.12233(19) 0.1326(2) 1.1654(3)
C1E C -0.0149(2) 0.2749(2) 0.9327(3)
C2E C 0.1385(2) 0.0725(2) 1.2051(3)
C3E C 0.0169(2) 0.2231(2) 1.0667(3)
C4E C -0.0797(2) 0.3578(3) 1.2564(3)
C5E C -0.0448(2) 0.3083(2) 1.1916(3)
C6E C 0.0354(2) 0.2008(2) 0.8199(3)
C7E C -0.0268(2) 0.2999(3) 0.7702(3)
C8E C 0.0239(2) 0.2176(2) 0.9095(3)
C9E C 0.0243(3) 0.2103(3) 1.1610(3)
C10E C 0.0601(2) 0.1516(2) 1.1953(3)
C11E C -0.0190(2) 0.2783(2) 1.0334(3)
C12E C 0.0107(3) 0.2432(3) 0.7503(4)
H2E H 0.0196 0.2332 0.6886
C13E C -0.0509(3) 0.3450(3) 0.6919(4)
C14E C 0.1718(2) 0.1809(3) 1.1317(4)
H3E H 0.1534 0.2043 1.0790
H4E H 0.2105 0.1569 1.1102
C15E C -0.0065(3) 0.2553(3) 1.2201(3)
H5E H -0.0009 0.2492 1.2835
C16E C -0.0491(3) 0.3208(3) 1.0942(4)
H6E H -0.0722 0.3575 1.0723
C17E C -0.0387(3) 0.3156(2) 0.8621(4)
H7E H -0.0628 0.3535 0.8769
C18E C 0.0384(2) 0.1024(3) 1.2544(3)
H8E H -0.0019 0.1022 1.2857
C19E C -0.0683(3) 0.3369(3) 1.3585(4)
H9E H -0.0217 0.3317 1.3695
H10E H -0.0906 0.2958 1.3702
H11E H -0.0856 0.3705 1.3990
C20E C 0.0874(3) 0.0518(3) 1.2597(3)
H12E H 0.0851 0.0127 1.2936
C21E C -0.1546(3) 0.3551(3) 1.2377(4)
H13E H -0.1775 0.3813 1.2830
H14E H -0.1696 0.3100 1.2414
H15E H -0.1636 0.3722 1.1769
C22E C 0.1932(4) 0.2306(4) 1.2029(4)
H16E H 0.2246 0.2603 1.1735
H17E H 0.1548 0.2569 1.2194
C23E C -0.0533(3) 0.4277(3) 1.2423(4)
H18E H -0.0655 0.4431 1.1817
H19E H -0.0060 0.4275 1.2479
H20E H -0.0719 0.4566 1.2883
C24E C -0.1253(4) 0.3555(4) 0.7004(5)
H21E H -0.1403 0.3831 0.6506
H22E H -0.1350 0.3764 0.7586
H23E H -0.1474 0.3134 0.6974
C25E C -0.0206(4) 0.4161(4) 0.7066(5)
H24E H 0.0268 0.4136 0.7034
H25E H -0.0336 0.4327 0.7662
H26E H -0.0366 0.4453 0.6591
C26E C -0.0348(6) 0.3227(5) 0.6004(5)
H27E H 0.0125 0.3220 0.5930
H28E H -0.0538 0.3523 0.5556
H29E H -0.0521 0.2790 0.5911
C27E C 0.2236(4) 0.2067(5) 1.2900(6)
H30E H 0.2218 0.2419 1.3356
H31E H 0.1976 0.1700 1.3134
C28E C 0.2868(5) 0.1870(5) 1.2804(7)
H32E H 0.2935 0.1703 1.2188
H33E H 0.2962 0.1528 1.3246
H34E H 0.3158 0.2239 1.2909
loop_
_geom_bond_atom_site_label_1
_geom_bond_atom_site_label_2
_geom_bond_site_symmetry_1
_geom_bond_site_symmetry_2
N1 H1 1_555 1_555
N2 C2 1_555 1_555
C1 C8 1_555 1_555
C2 C20 1_555 1_555
C3 N1 1_555 1_555
C4 C5 1_555 1_555
C5 C15 1_555 1_555
C6 C8 1_555 1_555
C7 C12 1_555 1_555
C8 N1 1_555 1_555
C9 C3 1_555 1_555
C10 N2 1_555 1_555
C11 C1 1_555 1_555
C12 C6 1_555 1_555
H2 C12 1_555 1_555
C13 C7 1_555 1_555
C14 N2 1_555 1_555
H3 C14 1_555 1_555
H4 C14 1_555 1_555
C15 C9 1_555 1_555
H5 C15 1_555 1_555
C16 C5 1_555 1_555
H6 C16 1_555 1_555
C17 C1 1_555 1_555
H7 C17 1_555 1_555
C18 C10 1_555 1_555
H8 C18 1_555 1_555
C19 C4 1_555 1_555
H9 C19 1_555 1_555
H10 C19 1_555 1_555
H11 C19 1_555 1_555
C20 C18 1_555 1_555
H12 C20 1_555 1_555
C21 C4 1_555 1_555
H13 C21 1_555 1_555
H14 C21 1_555 1_555
H15 C21 1_555 1_555
C22 C14 1_555 1_555
H16 C22 1_555 1_555
H17 C22 1_555 1_555
C23 C4 1_555 1_555
H18 C23 1_555 1_555
H19 C23 1_555 1_555
H20 C23 1_555 1_555
C24 C13 1_555 1_555
H21 C24 1_555 1_555
H22 C24 1_555 1_555
H23 C24 1_555 1_555
C25 C13 1_555 1_555
H24 C25 1_555 1_555
H25 C25 1_555 1_555
H26 C25 1_555 1_555
C26 C13 1_555 1_555
H27 C26 1_555 1_555
H28 C26 1_555 1_555
H29 C26 1_555 1_555
C27 C22 1_555 1_555
H30 C27 1_555 1_555
H31 C27 1_555 1_555
C28 C27 1_555 1_555
H32 C28 1_555 1_555
H33 C28 1_555 1_555
H34 C28 1_555 1_555
N1E H1E 1_555 1_555
N2E C2E 1_555 1_555
C1E C8E 1_555 1_555
C2E C6 1_555 1_555
C3E N1E 1_555 1_555
C4E C5E 1_555 1_555
C5E C15E 1_555 1_555
C6E C2 1_555 1_555
C7E C12E 1_555 1_555
C8E N1E 1_555 1_555
C9E C3E 1_555 1_555
C10E N2E 1_555 1_555
C11E C1E 1_555 1_555
C12E C6E 1_555 1_555
H2E C12E 1_555 1_555
C13E C7E 1_555 1_555
C14E N2E 1_555 1_555
H3E C14E 1_555 1_555
H4E C14E 1_555 1_555
C15E C9E 1_555 1_555
H5E C15E 1_555 1_555
C16E C5E 1_555 1_555
H6E C16E 1_555 1_555
C17E C1E 1_555 1_555
H7E C17E 1_555 1_555
C18E C10E 1_555 1_555
H8E C18E 1_555 1_555
C19E C4E 1_555 1_555
H9E C19E 1_555 1_555
H10E C19E 1_555 1_555
H11E C19E 1_555 1_555
C20E C2E 1_555 1_555
H12E C20E 1_555 1_555
C21E C4E 1_555 1_555
H13E C21E 1_555 1_555
H14E C21E 1_555 1_555
H15E C21E 1_555 1_555
C22E C14E 1_555 1_555
H16E C22E 1_555 1_555
H17E C22E 1_555 1_555
C23E C4E 1_555 1_555
H18E C23E 1_555 1_555
H19E C23E 1_555 1_555
H20E C23E 1_555 1_555
C24E C13E 1_555 1_555
H21E C24E 1_555 1_555
H22E C24E 1_555 1_555
H23E C24E 1_555 1_555
C25E C13E 1_555 1_555
H24E C25E 1_555 1_555
H25E C25E 1_555 1_555
H26E C25E 1_555 1_555
C26E C13E 1_555 1_555
H27E C26E 1_555 1_555
H28E C26E 1_555 1_555
H29E C26E 1_555 1_555
C27E C22E 1_555 1_555
H30E C27E 1_555 1_555
H31E C27E 1_555 1_555
C28E C27E 1_555 1_555
H32E C28E 1_555 1_555
H33E C28E 1_555 1_555
H34E C28E 1_555 1_555
C3 C11 1_555 1_555
C7 C17 1_555 1_555
C9 C10 1_555 1_555
C11 C16 1_555 1_555
C3E C11E 1_555 1_555
C6E C8E 1_555 1_555
C7E C17E 1_555 1_555
C9E C10E 1_555 1_555
C11E C16E 1_555 1_555
C18E C20E 1_555 1_555

#END
