
#######################################################################
#
#                 Cambridge Crystallographic Data Centre
#                                CCDC 
#
#######################################################################
#
# If this CIF has been generated from an entry in the Cambridge 
# Structural Database, then it will include bibliographic, chemical, 
# crystal, experimental, refinement or atomic coordinate data resulting 
# from the CCDC's data processing and validation procedures.
#
#######################################################################

data_ESIBIS
_chemical_formula_moiety         'C48 H50 N2 S2'
_chemical_name_systematic        
4,12,21,29-Tetra-t-butyl-35,36-dithia-8,25-diazanonacyclo[30.2.1.1^15,18^.0^2,7^.0^6,10^.0^9,14^.0^19,24^.0^23,27^.0^26,31^]hexatriaconta-1(34),2,4,6,9,11,13,15,17,19,21,23,26,28,30,32-hexadecaene
_symmetry_cell_setting           triclinic
_symmetry_space_group_name_H-M   'P -1'
_symmetry_Int_Tables_number      2
_space_group_name_Hall           '-P 1'
loop_
_symmetry_equiv_pos_site_id
_symmetry_equiv_pos_as_xyz
1 x,y,z
2 -x,-y,-z
_cell_length_a                   10.1031(3)
_cell_length_b                   12.5435(3)
_cell_length_c                   16.4827(4)
_cell_angle_alpha                91.8940(10)
_cell_angle_beta                 103.9800(10)
_cell_angle_gamma                110.4330(10)
_cell_volume                     1883.52
_exptl_crystal_colour            yellow
_exptl_crystal_description       prism
_cell_formula_units_Z            2
loop_
_atom_site_label
_atom_site_type_symbol
_atom_site_fract_x
_atom_site_fract_y
_atom_site_fract_z
S1 S 0.86255(16) 1.10185(14) 0.03956(9)
S2 S 0.61824(16) 0.83322(14) 0.10965(9)
N1 N 0.5895(5) 0.9132(4) -0.0625(3)
H1 H 0.6597 0.9235 -0.0160
N2 N 0.9382(5) 0.9807(4) 0.1848(3)
H2 H 0.8716 0.9663 0.1361
C1 C 0.3708(6) 0.8376(5) -0.1608(4)
C2 C 1.2793(6) 1.1573(5) 0.3294(4)
H3 H 1.3277 1.1577 0.3866
C3 C 0.9268(7) 0.9145(6) 0.2485(4)
C4 C 1.1307(6) 1.1601(5) 0.1608(3)
C5 C 0.4424(6) 0.9979(5) -0.2586(3)
H4 H 0.3526 0.9691 -0.3018
C6 C 0.9685(6) 0.7521(5) 0.4750(4)
C7 C 0.4621(6) 0.9410(5) -0.1879(3)
C8 C 1.0601(6) 0.9184(6) 0.3934(3)
H5 H 1.1378 0.9571 0.4423
C9 C 1.0698(6) 1.0742(5) 0.2076(3)
C10 C 0.4551(6) 0.8225(5) -0.0839(3)
C11 C 0.3933(7) 1.1046(7) -0.4079(4)
H6 H 0.3768 1.0240 -0.4238
H7 H 0.3938 1.1447 -0.4579
H8 H 0.3147 1.1088 -0.3844
C12 C 0.7124(6) 1.0865(5) -0.1285(4)
C13 C 0.6863(6) 1.1393(5) -0.2008(3)
H9 H 0.7617 1.2074 -0.2063
C14 C 0.2643(6) 0.6494(5) -0.0798(3)
H10 H 0.2262 0.5834 -0.0536
C15 C 0.9570(6) 0.8110(5) 0.3955(3)
C16 C 0.0262(6) 0.5634(6) -0.1959(3)
C17 C 1.3430(6) 1.2415(6) 0.2850(4)
C18 C 0.8399(6) 0.7593(5) 0.3243(3)
H11 H 0.7701 0.6863 0.3267
C19 C 0.1772(6) 0.6610(6) -0.1570(4)
C20 C 0.2291(6) 0.7542(6) -0.1976(3)
H12 H 0.1707 0.7626 -0.2497
C21 C 0.5560(7) 1.0979(6) -0.2655(3)
C22 C 1.0481(6) 0.9690(6) 0.3184(4)
C23 C 0.5074(7) 0.6183(6) 0.0689(4)
H13 H 0.4455 0.5433 0.0416
C24 C 1.1036(6) 1.2104(5) 0.0074(3)
H14 H 1.2045 1.2522 0.0127
C25 C 0.0480(6) 0.4484(5) -0.2154(4)
H15 H -0.0476 0.3880 -0.2419
H16 H 0.0942 0.4262 -0.1627
H17 H 0.1109 0.4591 -0.2536
C26 C 1.0509(6) 1.1622(5) 0.0723(4)
C27 C 0.5975(7) 0.9854(6) -0.1246(4)
C28 C 0.4045(6) 0.7300(5) -0.0394(3)
C29 C 0.5395(7) 1.1603(6) -0.3426(4)
C30 C 1.0950(7) 0.8227(6) 0.5488(4)
H18 H 1.1864 0.8464 0.5317
H19 H 1.1024 0.7767 0.5954
H20 H 1.0783 0.8909 0.5672
C31 C 0.8521(7) 1.1305(5) -0.0624(3)
C32 C 1.2666(6) 1.2412(6) 0.2019(4)
H21 H 1.3112 1.3006 0.1718
C33 C 1.4902(6) 1.3377(6) 0.3289(4)
C34 C 1.5511(7) 1.4165(7) 0.2712(4)
H22 H 1.5660 1.3731 0.2259
H23 H 1.6451 1.4751 0.3025
H24 H 1.4824 1.4535 0.2468
C35 C 0.8187(7) 0.8078(6) 0.2500(3)
C36 C 0.6202(6) 0.6399(6) 0.1437(4)
H25 H 0.6433 0.5802 0.1703
C37 C 0.6932(6) 0.7515(5) 0.1751(3)
C38 C 1.1426(6) 1.0699(6) 0.2911(4)
C39 C 0.5630(7) 1.2869(6) -0.3157(4)
H26 H 0.4832 1.2889 -0.2926
H27 H 0.5639 1.3286 -0.3649
H28 H 0.6569 1.3229 -0.2728
C40 C 0.4961(6) 0.7164(5) 0.0393(3)
C41 C -0.0719(7) 0.5418(6) -0.1331(4)
H29 H -0.0859 0.6127 -0.1183
H30 H -0.0238 0.5177 -0.0819
H31 H -0.1675 0.4815 -0.1597
C42 C 0.9907(7) 1.1910(5) -0.0686(4)
H32 H 1.0097 1.2177 -0.1194
C43 C -0.0566(6) 0.5898(6) -0.2776(4)
H33 H -0.0751 0.6598 -0.2666
H34 H -0.1502 0.5257 -0.3006
H35 H 0.0021 0.6009 -0.3182
C44 C 0.9820(8) 0.6365(6) 0.4551(4)
H36 H 0.8962 0.5886 0.4101
H37 H 0.9872 0.5977 0.5058
H38 H 1.0711 0.6495 0.4368
C45 C 0.8276(7) 0.7259(7) 0.5044(4)
H39 H 0.8201 0.7980 0.5231
H40 H 0.8315 0.6800 0.5513
H41 H 0.7419 0.6831 0.4575
C46 C 1.6043(7) 1.2850(6) 0.3700(4)
H42 H 1.6142 1.2349 0.3269
H43 H 1.5713 1.2403 0.4138
H44 H 1.6993 1.3467 0.3952
C47 C 1.4686(8) 1.4072(7) 0.4012(5)
H45 H 1.5646 1.4572 0.4374
H46 H 1.4148 1.3542 0.4348
H47 H 1.4127 1.4541 0.3771
C48 C 0.6648(7) 1.1644(7) -0.3830(4)
H48 H 0.7596 1.2001 -0.3408
H49 H 0.6616 1.2095 -0.4304
H50 H 0.6521 1.0863 -0.4033
loop_
_geom_bond_atom_site_label_1
_geom_bond_atom_site_label_2
_geom_bond_site_symmetry_1
_geom_bond_site_symmetry_2
S1 C26 1_555 1_555
S2 C37 1_555 1_555
N1 H1 1_555 1_555
N2 H2 1_555 1_555
C1 C7 1_555 1_555
C2 H3 1_555 1_555
C3 N2 1_555 1_555
C4 C9 1_555 1_555
C5 H4 1_555 1_555
C6 C15 1_555 1_555
C7 C5 1_555 1_555
C8 H5 1_555 1_555
C9 N2 1_555 1_555
C10 N1 1_555 1_555
C11 H6 1_555 1_555
H7 C11 1_555 1_555
H8 C11 1_555 1_555
C12 C13 1_555 1_555
C13 H9 1_555 1_555
C14 H10 1_555 1_555
C15 C8 1_555 1_555
C16 C19 1_555 1_555
C17 C2 1_555 1_555
C18 C15 1_555 1_555
H11 C18 1_555 1_555
C19 C14 1_555 1_555
C20 C1 1_555 1_555
H12 C20 1_555 1_555
C21 C5 1_555 1_555
C22 C3 1_555 1_555
C23 H13 1_555 1_555
C24 H14 1_555 1_555
C25 C16 1_555 1_555
H15 C25 1_555 1_555
H16 C25 1_555 1_555
H17 C25 1_555 1_555
C26 C4 1_555 1_555
C27 N1 1_555 1_555
C28 C10 1_555 1_555
C29 C11 1_555 1_555
C30 C6 1_555 1_555
H18 C30 1_555 1_555
H19 C30 1_555 1_555
H20 C30 1_555 1_555
C31 S1 1_555 1_555
C32 C4 1_555 1_555
H21 C32 1_555 1_555
C33 C17 1_555 1_555
C34 C33 1_555 1_555
H22 C34 1_555 1_555
H23 C34 1_555 1_555
H24 C34 1_555 1_555
C35 C3 1_555 1_555
C36 C23 1_555 1_555
H25 C36 1_555 1_555
C37 C35 1_555 1_555
C38 C2 1_555 1_555
C39 C29 1_555 1_555
H26 C39 1_555 1_555
H27 C39 1_555 1_555
H28 C39 1_555 1_555
C40 S2 1_555 1_555
C41 C16 1_555 1_555
H29 C41 1_555 1_555
H30 C41 1_555 1_555
H31 C41 1_555 1_555
C42 C24 1_555 1_555
H32 C42 1_555 1_555
C43 C16 1_555 1_555
H33 C43 1_555 1_555
H34 C43 1_555 1_555
H35 C43 1_555 1_555
C44 C6 1_555 1_555
H36 C44 1_555 1_555
H37 C44 1_555 1_555
H38 C44 1_555 1_555
C45 C6 1_555 1_555
H39 C45 1_555 1_555
H40 C45 1_555 1_555
H41 C45 1_555 1_555
C46 C33 1_555 1_555
H42 C46 1_555 1_555
H43 C46 1_555 1_555
H44 C46 1_555 1_555
C47 C33 1_555 1_555
H45 C47 1_555 1_555
H46 C47 1_555 1_555
H47 C47 1_555 1_555
C48 C29 1_555 1_555
H48 C48 1_555 1_555
H49 C48 1_555 1_555
H50 C48 1_555 1_555
C1 C10 1_555 1_555
C7 C27 1_555 1_555
C8 C22 1_555 1_555
C9 C38 1_555 1_555
C12 C27 1_555 1_555
C12 C31 1_555 1_555
C13 C21 1_555 1_555
C14 C28 1_555 1_555
C17 C32 1_555 1_555
C18 C35 1_555 1_555
C19 C20 1_555 1_555
C21 C29 1_555 1_555
C22 C38 1_555 1_555
C23 C40 1_555 1_555
C24 C26 1_555 1_555
C28 C40 1_555 1_555
C31 C42 1_555 1_555
C36 C37 1_555 1_555

#END
