
#######################################################################
#
#                 Cambridge Crystallographic Data Centre
#                                CCDC 
#
#######################################################################
#
# If this CIF has been generated from an entry in the Cambridge 
# Structural Database, then it will include bibliographic, chemical, 
# crystal, experimental, refinement or atomic coordinate data resulting 
# from the CCDC's data processing and validation procedures.
#
#######################################################################

data_ESIDIU
_chemical_formula_moiety         
'C20 H40 Ca1 O8 2+,2(C21 H20 B1 1-),3(C4 H8 O1)'
_chemical_name_systematic        
'(18-Crown-6)-bis(tetrahydrofuran)-calcium bis(allyltriphenylborate) tetrahydrofuran solvate'
_symmetry_cell_setting           monoclinic
_symmetry_space_group_name_H-M   'P 21/n'
_symmetry_Int_Tables_number      14
_space_group_name_Hall           '-P 2yn'
loop_
_symmetry_equiv_pos_site_id
_symmetry_equiv_pos_as_xyz
1 x,y,z
2 1/2-x,1/2+y,1/2-z
3 -x,-y,-z
4 1/2+x,1/2-y,1/2+z
_cell_length_a                   21.540(3)
_cell_length_b                   14.0316(19)
_cell_length_c                   23.855(3)
_cell_angle_alpha                90
_cell_angle_beta                 108.295(2)
_cell_angle_gamma                90
_cell_volume                     6845.51
_exptl_crystal_colour            colorless
_cell_formula_units_Z            4
_chemical_properties_physical    air-sensitive
loop_
_atom_site_label
_atom_site_type_symbol
_atom_site_fract_x
_atom_site_fract_y
_atom_site_fract_z
Ca1 Ca 0.49754(2) 0.26802(4) 0.75167(2)
O1 O 0.50662(9) 0.08339(13) 0.73686(8)
O2 O 0.48929(9) 0.14998(13) 0.83388(7)
O3 O 0.49354(9) 0.33510(13) 0.85121(8)
O4 O 0.50124(9) 0.45147(13) 0.76679(7)
O5 O 0.49721(9) 0.38279(13) 0.66453(7)
O6 O 0.49863(9) 0.20024(13) 0.64913(8)
O7 O 0.38472(9) 0.27663(13) 0.71536(8)
O8 O 0.60984(9) 0.27504(14) 0.78040(8)
C1 C 0.48064(15) 0.0196(2) 0.77023(13)
H1 H 0.4950 -0.0464 0.7663
H2 H 0.4323 0.0214 0.7559
C2 C 0.50543(15) 0.0509(2) 0.83292(13)
H3 H 0.4846 0.0135 0.8573
H4 H 0.5534 0.0418 0.8488
C3 C 0.50452(15) 0.1829(2) 0.89330(11)
H5 H 0.5524 0.1892 0.9115
H6 H 0.4881 0.1373 0.9170
C4 C 0.47251(16) 0.2763(2) 0.89115(12)
H7 H 0.4244 0.2689 0.8769
H8 H 0.4853 0.3054 0.9309
C5 C 0.47504(15) 0.4325(2) 0.85387(12)
H9 H 0.4842 0.4526 0.8955
H10 H 0.4277 0.4407 0.8331
C6 C 0.51374(14) 0.48999(19) 0.82506(11)
H11 H 0.5003 0.5577 0.8230
H12 H 0.5609 0.4857 0.8475
C7 C 0.53080(13) 0.50745(19) 0.73189(11)
H13 H 0.5777 0.4913 0.7414
H14 H 0.5269 0.5762 0.7395
C8 C 0.49497(13) 0.48417(18) 0.66896(11)
H15 H 0.4491 0.5066 0.6581
H16 H 0.5163 0.5148 0.6424
C9 C 0.46692(13) 0.3488(2) 0.60597(11)
H17 H 0.4719 0.3960 0.5768
H18 H 0.4197 0.3377 0.5990
C10 C 0.50004(13) 0.2584(2) 0.60042(11)
H19 H 0.4769 0.2265 0.5626
H20 H 0.5457 0.2708 0.6017
C11 C 0.53228(15) 0.1117(2) 0.64996(12)
H21 H 0.5796 0.1195 0.6707
H22 H 0.5265 0.0898 0.6092
C12 C 0.50364(15) 0.0417(2) 0.68136(12)
H23 H 0.4577 0.0278 0.6580
H24 H 0.5288 -0.0186 0.6876
C13 C 0.34556(14) 0.1950(2) 0.68779(14)
H25 H 0.3423 0.1488 0.7181
H26 H 0.3654 0.1625 0.6607
C14 C 0.27875(14) 0.2335(2) 0.65392(13)
H27 H 0.2482 0.2279 0.6773
H28 H 0.2601 0.1994 0.6160
C15 C 0.29196(14) 0.3370(2) 0.64365(13)
H29 H 0.3085 0.3444 0.6096
H30 H 0.2524 0.3767 0.6374
C16 C 0.34368(13) 0.3611(2) 0.70092(13)
H31 H 0.3694 0.4173 0.6961
H32 H 0.3237 0.3749 0.7322
C17 C 0.6533(3) 0.2541(5) 0.8378(3)
H33 H 0.6346 0.2043 0.8572
H34 H 0.6619 0.3119 0.8629
C18 C 0.71662(16) 0.2185(3) 0.82767(16)
H35 H 0.7555 0.2483 0.8561
H36 H 0.7205 0.1484 0.8318
C19 C 0.70994(15) 0.2486(2) 0.76525(14)
H37 H 0.7501 0.2807 0.7630
H38 H 0.7001 0.1935 0.7379
C20 C 0.65418(15) 0.3155(3) 0.75214(15)
H39 H 0.6690 0.3795 0.7683
H40 H 0.6327 0.3210 0.7090
O9 O 0.31095(11) 0.97654(16) 0.64575(9)
C63 C 0.24303(18) 0.9776(3) 0.6272(2)
H81 H 0.2260 1.0023 0.5864
H82 H 0.2271 1.0192 0.6533
C64 C 0.2204(2) 0.8785(4) 0.6298(2)
H83 H 0.1763 0.8681 0.6014
H84 H 0.2201 0.8616 0.6700
C65 C 0.2718(2) 0.8236(3) 0.6129(3)
H85 H 0.2786 0.7597 0.6315
H86 H 0.2598 0.8162 0.5695
C66 C 0.33110(19) 0.8843(3) 0.6361(2)
H87 H 0.3601 0.8574 0.6736
H88 H 0.3557 0.8866 0.6074
O10 O 0.18928(11) 0.97033(16) 0.36701(10)
C67 C 0.18315(16) 0.8806(2) 0.33791(13)
H89 H 0.1908 0.8876 0.2993
H90 H 0.1388 0.8541 0.3311
C68 C 0.23400(16) 0.8158(2) 0.37792(14)
H91 H 0.2504 0.7690 0.3549
H92 H 0.2164 0.7814 0.4059
C69 C 0.28711(15) 0.8858(2) 0.40996(14)
H93 H 0.3141 0.8603 0.4487
H94 H 0.3158 0.9018 0.3860
C70 C 0.24724(14) 0.9712(2) 0.41730(13)
H95 H 0.2359 0.9660 0.4543
H96 H 0.2721 1.0309 0.4184
O11 O 0.17952(11) 0.45693(16) 0.42234(10)
C71 C 0.26423(15) 0.5005(2) 0.50844(13)
H97 H 0.3124 0.5079 0.5217
H98 H 0.2498 0.4842 0.5428
C72 C 0.23032(15) 0.5894(2) 0.47740(15)
H99 H 0.2243 0.6369 0.5059
H100 H 0.2549 0.6189 0.4531
C73 C 0.16590(14) 0.5499(2) 0.43954(12)
H101 H 0.1344 0.5466 0.4621
H102 H 0.1471 0.5907 0.4044
C74 C 0.24194(15) 0.4267(2) 0.46019(15)
H103 H 0.2735 0.4221 0.4378
H104 H 0.2384 0.3634 0.4773
B1 B 0.42517(13) 0.2226(2) 0.39311(11)
C21 C 0.50461(12) 0.20413(19) 0.40415(10)
H41 H 0.5107 0.1350 0.3994
H42 H 0.5162 0.2369 0.3720
C22 C 0.55295(12) 0.2340(2) 0.46101(11)
H43 H 0.5494 0.2047 0.4958
C23 C 0.60021(14) 0.2971(2) 0.46806(15)
H44 H 0.6058 0.3284 0.4347
H45 H 0.6286 0.3111 0.5065
C24 C 0.40226(12) 0.17392(18) 0.44630(10)
C25 C 0.42504(12) 0.08405(18) 0.47018(10)
H46 H 0.4555 0.0515 0.4557
C26 C 0.40505(13) 0.04056(19) 0.51402(11)
H47 H 0.4218 -0.0203 0.5286
C27 C 0.36050(13) 0.0860(2) 0.53657(11)
H48 H 0.3469 0.0570 0.5668
C28 C 0.33644(13) 0.1742(2) 0.51401(11)
H49 H 0.3059 0.2062 0.5287
C29 C 0.35682(12) 0.21613(19) 0.46999(10)
H50 H 0.3391 0.2765 0.4551
C30 C 0.40780(12) 0.33687(18) 0.39061(10)
C31 C 0.43469(12) 0.39496(18) 0.44067(11)
H51 H 0.4660 0.3677 0.4742
C32 C 0.41772(12) 0.48970(19) 0.44327(11)
H52 H 0.4370 0.5257 0.4781
C33 C 0.37233(13) 0.53223(19) 0.39470(12)
H53 H 0.3600 0.5969 0.3962
C34 C 0.34559(13) 0.47838(19) 0.34427(11)
H54 H 0.3149 0.5064 0.3106
C35 C 0.36360(12) 0.38277(18) 0.34273(11)
H55 H 0.3448 0.3476 0.3074
C36 C 0.38862(12) 0.16873(18) 0.33008(10)
C37 C 0.34783(12) 0.08945(18) 0.32439(11)
H56 H 0.3373 0.0681 0.3581
C38 C 0.32195(13) 0.0404(2) 0.27123(12)
H57 H 0.2945 -0.0132 0.2695
C39 C 0.33599(14) 0.0693(2) 0.22082(11)
H58 H 0.3189 0.0355 0.1847
C40 C 0.37552(13) 0.14852(19) 0.22447(11)
H59 H 0.3851 0.1703 0.1904
C41 C 0.40126(13) 0.19641(18) 0.27800(11)
H60 H 0.4285 0.2501 0.2794
B2 B 0.43335(14) 0.7803(2) 0.89347(13)
C42 C 0.51234(13) 0.8096(2) 0.91978(13)
H61 H 0.5215 0.8569 0.8926
H62 H 0.5197 0.8416 0.9583
C43 C 0.56158(14) 0.7306(2) 0.92841(15)
H63 H 0.5604 0.6951 0.8942
C44 C 0.60569(16) 0.7054(2) 0.97735(16)
H64 H 0.6092 0.7384 1.0130
H65 H 0.6344 0.6539 0.9774
C45 C 0.41824(12) 0.72145(18) 0.83104(11)
C46 C 0.36928(12) 0.65231(19) 0.81360(11)
H66 H 0.3487 0.6318 0.8414
C47 C 0.34912(14) 0.6118(2) 0.75724(12)
H67 H 0.3153 0.5655 0.7473
C48 C 0.37849(15) 0.6392(2) 0.71589(12)
H68 H 0.3647 0.6126 0.6773
C49 C 0.42787(16) 0.7054(2) 0.73149(13)
H69 H 0.4487 0.7243 0.7036
C50 C 0.44785(14) 0.7454(2) 0.78806(13)
H70 H 0.4826 0.7903 0.7978
C51 C 0.39296(12) 0.88190(19) 0.87871(11)
C52 C 0.39855(14) 0.9511(2) 0.92277(12)
H71 H 0.4242 0.9368 0.9622
C53 C 0.36816(15) 1.0396(2) 0.91106(14)
H72 H 0.3732 1.0840 0.9422
C54 C 0.33055(15) 1.0633(2) 0.85429(14)
H73 H 0.3097 1.1236 0.8460
C55 C 0.32406(14) 0.9972(2) 0.80996(13)
H74 H 0.2987 1.0124 0.7706
C56 C 0.35421(13) 0.90879(19) 0.82229(12)
H75 H 0.3482 0.8646 0.7909
C57 C 0.41198(12) 0.71461(19) 0.94133(11)
C58 C 0.43664(13) 0.62156(19) 0.95314(11)
H76 H 0.4667 0.5997 0.9342
C59 C 0.41922(14) 0.5600(2) 0.99119(12)
H77 H 0.4370 0.4975 0.9975
C60 C 0.37584(13) 0.5897(2) 1.02009(12)
H78 H 0.3637 0.5483 1.0464
C61 C 0.35059(13) 0.6811(2) 1.00968(11)
H79 H 0.3208 0.7026 1.0291
C62 C 0.36825(13) 0.7419(2) 0.97117(11)
H80 H 0.3500 0.8041 0.9649
C75? C 0.6464(3) 0.2081(5) 0.8280(2)
H105? H 0.6307 0.1419 0.8189
H106? H 0.6422 0.2268 0.8666
H107? H 0.7402 0.2675 0.8564
H108? H 0.7404 0.1573 0.8374
loop_
_geom_bond_atom_site_label_1
_geom_bond_atom_site_label_2
_geom_bond_site_symmetry_1
_geom_bond_site_symmetry_2
Ca1 O1 1_555 1_555
O1 C1 1_555 1_555
O2 Ca1 1_555 1_555
O3 Ca1 1_555 1_555
O4 Ca1 1_555 1_555
O5 Ca1 1_555 1_555
O6 Ca1 1_555 1_555
O7 Ca1 1_555 1_555
O8 Ca1 1_555 1_555
O9 C63 1_555 1_555
O10 C67 1_555 1_555
O11 C73 1_555 1_555
B1 C21 1_555 1_555
B2 C42 1_555 1_555
C1 H1 1_555 1_555
H2 C1 1_555 1_555
C2 O2 1_555 1_555
H3 C2 1_555 1_555
H4 C2 1_555 1_555
C3 O2 1_555 1_555
H5 C3 1_555 1_555
H6 C3 1_555 1_555
C4 O3 1_555 1_555
H7 C4 1_555 1_555
H8 C4 1_555 1_555
C5 O3 1_555 1_555
H9 C5 1_555 1_555
H10 C5 1_555 1_555
C6 O4 1_555 1_555
H11 C6 1_555 1_555
H12 C6 1_555 1_555
C7 O4 1_555 1_555
H13 C7 1_555 1_555
H14 C7 1_555 1_555
C8 O5 1_555 1_555
H15 C8 1_555 1_555
H16 C8 1_555 1_555
C9 O5 1_555 1_555
H17 C9 1_555 1_555
H18 C9 1_555 1_555
C10 O6 1_555 1_555
H19 C10 1_555 1_555
H20 C10 1_555 1_555
C11 O6 1_555 1_555
H21 C11 1_555 1_555
H22 C11 1_555 1_555
C12 O1 1_555 1_555
H23 C12 1_555 1_555
H24 C12 1_555 1_555
C13 O7 1_555 1_555
H25 C13 1_555 1_555
H26 C13 1_555 1_555
C14 C13 1_555 1_555
H27 C14 1_555 1_555
H28 C14 1_555 1_555
C15 C14 1_555 1_555
H29 C15 1_555 1_555
H30 C15 1_555 1_555
C16 O7 1_555 1_555
H31 C16 1_555 1_555
H32 C16 1_555 1_555
C17 O8 1_555 1_555
H33 C17 1_555 1_555
H34 C17 1_555 1_555
C18 C17 1_555 1_555
H35 C18 1_555 1_555
H36 C18 1_555 1_555
C19 C18 1_555 1_555
H37 C19 1_555 1_555
H38 C19 1_555 1_555
C20 O8 1_555 1_555
H39 C20 1_555 1_555
H40 C20 1_555 1_555
C21 H41 1_555 1_555
H42 C21 1_555 1_555
C22 C21 1_555 1_555
H43 C22 1_555 1_555
C23 C22 1_555 1_555
H44 C23 1_555 1_555
H45 C23 1_555 1_555
C24 B1 1_555 1_555
C25 C24 1_555 1_555
H46 C25 1_555 1_555
C26 C25 1_555 1_555
H47 C26 1_555 1_555
C27 C26 1_555 1_555
H48 C27 1_555 1_555
C28 C27 1_555 1_555
H49 C28 1_555 1_555
C29 C24 1_555 1_555
H50 C29 1_555 1_555
C30 B1 1_555 1_555
C31 C30 1_555 1_555
H51 C31 1_555 1_555
C32 C31 1_555 1_555
H52 C32 1_555 1_555
C33 C32 1_555 1_555
H53 C33 1_555 1_555
C34 C33 1_555 1_555
H54 C34 1_555 1_555
C35 C30 1_555 1_555
H55 C35 1_555 1_555
C36 B1 1_555 1_555
C37 C36 1_555 1_555
H56 C37 1_555 1_555
C38 C37 1_555 1_555
H57 C38 1_555 1_555
C39 C38 1_555 1_555
H58 C39 1_555 1_555
C40 C39 1_555 1_555
H59 C40 1_555 1_555
C41 C36 1_555 1_555
H60 C41 1_555 1_555
C42 H61 1_555 1_555
H62 C42 1_555 1_555
C43 C42 1_555 1_555
H63 C43 1_555 1_555
C44 C43 1_555 1_555
H64 C44 1_555 1_555
H65 C44 1_555 1_555
C45 B2 1_555 1_555
C46 C45 1_555 1_555
H66 C46 1_555 1_555
C47 C46 1_555 1_555
H67 C47 1_555 1_555
C48 C47 1_555 1_555
H68 C48 1_555 1_555
C49 C48 1_555 1_555
H69 C49 1_555 1_555
C50 C45 1_555 1_555
H70 C50 1_555 1_555
C51 B2 1_555 1_555
C52 C51 1_555 1_555
H71 C52 1_555 1_555
C53 C52 1_555 1_555
H72 C53 1_555 1_555
C54 C53 1_555 1_555
H73 C54 1_555 1_555
C55 C54 1_555 1_555
H74 C55 1_555 1_555
C56 C51 1_555 1_555
H75 C56 1_555 1_555
C57 B2 1_555 1_555
C58 C57 1_555 1_555
H76 C58 1_555 1_555
C59 C58 1_555 1_555
H77 C59 1_555 1_555
C60 C59 1_555 1_555
H78 C60 1_555 1_555
C61 C60 1_555 1_555
H79 C61 1_555 1_555
C62 C57 1_555 1_555
H80 C62 1_555 1_555
C63 H81 1_555 1_555
H82 C63 1_555 1_555
C64 C63 1_555 1_555
H83 C64 1_555 1_555
H84 C64 1_555 1_555
C65 C64 1_555 1_555
H85 C65 1_555 1_555
H86 C65 1_555 1_555
C66 O9 1_555 1_555
H87 C66 1_555 1_555
H88 C66 1_555 1_555
C67 H89 1_555 1_555
H90 C67 1_555 1_555
C68 C67 1_555 1_555
H91 C68 1_555 1_555
H92 C68 1_555 1_555
C69 C68 1_555 1_555
H93 C69 1_555 1_555
H94 C69 1_555 1_555
C70 O10 1_555 1_555
H95 C70 1_555 1_555
H96 C70 1_555 1_555
C71 H97 1_555 1_555
H98 C71 1_555 1_555
C72 C71 1_555 1_555
H99 C72 1_555 1_555
H100 C72 1_555 1_555
C73 C72 1_555 1_555
H101 C73 1_555 1_555
H102 C73 1_555 1_555
C74 O11 1_555 1_555
H103 C74 1_555 1_555
H104 C74 1_555 1_555
C1 C2 1_555 1_555
C3 C4 1_555 1_555
C5 C6 1_555 1_555
C7 C8 1_555 1_555
C9 C10 1_555 1_555
C11 C12 1_555 1_555
C15 C16 1_555 1_555
C19 C20 1_555 1_555
C28 C29 1_555 1_555
C34 C35 1_555 1_555
C40 C41 1_555 1_555
C49 C50 1_555 1_555
C55 C56 1_555 1_555
C61 C62 1_555 1_555
C65 C66 1_555 1_555
C69 C70 1_555 1_555
C71 C74 1_555 1_555

#END
