
#######################################################################
#
#                 Cambridge Crystallographic Data Centre
#                                CCDC 
#
#######################################################################
#
# If this CIF has been generated from an entry in the Cambridge 
# Structural Database, then it will include bibliographic, chemical, 
# crystal, experimental, refinement or atomic coordinate data resulting 
# from the CCDC's data processing and validation procedures.
#
#######################################################################

data_ESIGOE
_chemical_name_common            
'S6-corona[3]arene[3]pyridazine unknown solvate'
_chemical_formula_moiety         'C39 H30 N6 S6'
_chemical_name_systematic        
'2,7,15,20,28,33-hexathia-40,41,44,45,48,49-hexaazadecacyclo[32.5.2.2^3,6^.2^8,14^.2^16,19^.2^21,27^.2^29,32^.0^9,13^.0^22,26^.0^35,39^]henpentaconta-1(39),3,5,8,13,16,18,21,26,29,31,34,40,42,44,46,48,50-octadecaene unknown solvate'
_symmetry_cell_setting           monoclinic
_symmetry_space_group_name_H-M   'P 21/n'
_symmetry_Int_Tables_number      14
_space_group_name_Hall           '-P 2yn'
loop_
_symmetry_equiv_pos_site_id
_symmetry_equiv_pos_as_xyz
1 x,y,z
2 1/2-x,1/2+y,1/2-z
3 -x,-y,-z
4 1/2+x,1/2-y,1/2+z
_cell_length_a                   21.149(4)
_cell_length_b                   8.4533(15)
_cell_length_c                   23.917(5)
_cell_angle_alpha                90
_cell_angle_beta                 111.145(3)
_cell_angle_gamma                90
_cell_volume                     3987.96
_exptl_crystal_colour            colorless
_exptl_crystal_description       block
_cell_formula_units_Z            4
loop_
_atom_site_label
_atom_site_type_symbol
_atom_site_fract_x
_atom_site_fract_y
_atom_site_fract_z
S1 S 0.70653(5) 0.95025(14) 0.57962(5)
S2 S 0.41171(5) 0.70150(14) 0.49816(4)
S3 S 0.29134(5) 0.34819(13) 0.24995(4)
S4 S 0.44055(5) 0.38603(13) 0.07210(4)
S5 S 0.71911(5) 0.75088(14) 0.15875(5)
S6 S 0.86893(6) 0.64687(15) 0.43178(5)
N1 N 0.59582(15) 0.8098(4) 0.50175(13)
N2 N 0.53129(15) 0.7567(4) 0.48307(13)
N3 N 0.35120(15) 0.2490(4) 0.17951(14)
N4 N 0.38361(15) 0.2561(4) 0.14037(14)
N5 N 0.73334(15) 0.7612(4) 0.27407(15)
N6 N 0.76476(16) 0.7404(4) 0.33337(15)
C1 C 0.62170(17) 0.8853(5) 0.55365(15)
C2 C 0.58370(18) 0.9161(5) 0.58969(14)
C3 C 0.6033(2) 1.0031(5) 0.64876(16)
H1 H 0.6215 1.1070 0.6461
H2 H 0.6365 0.9438 0.6807
C4 C 0.5364(9) 1.015(3) 0.6587(9)
H3 H 0.5196 1.1231 0.6518
H4 H 0.5429 0.9872 0.6998
C5 C 0.4849(2) 0.9023(6) 0.61517(17)
H5 H 0.4780 0.8085 0.6357
H6 H 0.4416 0.9540 0.5953
C6 C 0.51888(18) 0.8625(5) 0.57139(15)
C7 C 0.49392(18) 0.7787(5) 0.51691(15)
C8 C 0.38645(16) 0.6115(4) 0.42650(14)
C9 C 0.31651(16) 0.6106(4) 0.39593(14)
H7 H 0.2883 0.6625 0.4121
C10 C 0.28888(15) 0.5326(4) 0.34159(14)
H8 H 0.2421 0.5314 0.3216
C11 C 0.33071(17) 0.4560(4) 0.31676(15)
C12 C 0.40032(18) 0.4597(5) 0.34717(18)
H9 H 0.4285 0.4101 0.3304
C13 C 0.42883(17) 0.5355(5) 0.40176(16)
H10 H 0.4756 0.5357 0.4217
C14 C 0.34362(15) 0.3791(4) 0.20776(14)
C15 C 0.36757(15) 0.5278(4) 0.19835(14)
C16 C 0.36009(19) 0.6892(4) 0.22191(17)
H11 H 0.3906 0.7019 0.2631
H12 H 0.3139 0.7070 0.2197
C17 C 0.3790(2) 0.8024(5) 0.17981(18)
H13 H 0.4069 0.8884 0.2025
H14 H 0.3384 0.8469 0.1502
C18 C 0.41847(18) 0.7039(4) 0.14875(18)
H15 H 0.4043 0.7299 0.1065
H16 H 0.4669 0.7211 0.1675
C19 C 0.40013(14) 0.5370(4) 0.15746(14)
C20 C 0.40663(16) 0.3946(4) 0.12953(14)
C21 C 0.51598(16) 0.4999(4) 0.10208(15)
C22 C 0.52999(19) 0.6120(5) 0.06598(15)
H17 H 0.4978 0.6358 0.0286
C23 C 0.59181(19) 0.6884(4) 0.08557(15)
H18 H 0.6015 0.7628 0.0611
C24 C 0.63965(17) 0.6542(4) 0.14169(16)
C25 C 0.62427(17) 0.5479(4) 0.17946(16)
H19 H 0.6548 0.5298 0.2181
C26 C 0.56263(17) 0.4699(5) 0.15826(17)
H20 H 0.5526 0.3957 0.1825
C27 C 0.76253(17) 0.7123(5) 0.23608(17)
C28 C 0.82632(18) 0.6399(4) 0.25538(18)
C29 C 0.8680(2) 0.5726(5) 0.2213(2)
H21 H 0.8487 0.4735 0.2023
H22 H 0.8693 0.6460 0.1906
C30 C 0.9368(6) 0.547(2) 0.2658(6)
H23 H 0.9669 0.6325 0.2645
H24 H 0.9555 0.4479 0.2582
C31 C 0.9270(2) 0.5425(5) 0.3305(2)
H25 H 0.9262 0.4347 0.3441
H26 H 0.9627 0.6007 0.3607
C32 C 0.85922(18) 0.6219(5) 0.31601(18)
C33 C 0.82636(19) 0.6728(5) 0.35394(17)
C34 C 0.81282(19) 0.7314(5) 0.46452(16)
C35 C 0.8005(2) 0.8889(5) 0.4620(2)
H27 H 0.8170 0.9534 0.4388
C36 C 0.7636(2) 0.9550(5) 0.49355(18)
H28 H 0.7540 1.0627 0.4904
C37 C 0.74109(17) 0.8612(5) 0.52957(16)
C38 C 0.7521(2) 0.7004(5) 0.53061(18)
H29 H 0.7350 0.6350 0.5531
C39 C 0.7887(2) 0.6357(5) 0.49831(18)
H30 H 0.7967 0.5273 0.4996
H31? H 0.6064 1.1161 0.6432
H32? H 0.6463 0.9652 0.6769
H33? H 0.4639 0.8094 0.6249
H34? H 0.4506 0.9834 0.5992
H35? H 0.8867 0.6556 0.2039
H36? H 0.8415 0.5008 0.1899
H37? H 0.9638 0.6175 0.3470
H38? H 0.9325 0.4568 0.3588
C40? C 0.9251(8) 0.483(3) 0.2725(7)
H39? H 0.9157 0.3699 0.2697
H40? H 0.9686 0.4993 0.2685
C41? C 0.5440(9) 0.963(2) 0.6708(7)
H41? H 0.5578 0.8828 0.7018
H42? H 0.5303 1.0570 0.6870
loop_
_geom_bond_atom_site_label_1
_geom_bond_atom_site_label_2
_geom_bond_site_symmetry_1
_geom_bond_site_symmetry_2
S1 C1 1_555 1_555
S2 C7 1_555 1_555
S3 C11 1_555 1_555
S4 C20 1_555 1_555
S5 C24 1_555 1_555
S6 C33 1_555 1_555
N1 N2 1_555 1_555
N2 C7 1_555 1_555
N3 N4 1_555 1_555
N4 C20 1_555 1_555
N5 N6 1_555 1_555
N6 C33 1_555 1_555
C1 N1 1_555 1_555
C2 C1 1_555 1_555
C3 C2 1_555 1_555
H1 C3 1_555 1_555
H2 C3 1_555 1_555
C4 C3 1_555 1_555
H3 C4 1_555 1_555
H4 C4 1_555 1_555
C5 C4 1_555 1_555
H5 C5 1_555 1_555
H6 C5 1_555 1_555
C6 C2 1_555 1_555
C7 C6 1_555 1_555
C8 S2 1_555 1_555
C9 C8 1_555 1_555
H7 C9 1_555 1_555
C10 C9 1_555 1_555
H8 C10 1_555 1_555
C11 C10 1_555 1_555
C12 C11 1_555 1_555
H9 C12 1_555 1_555
C13 C8 1_555 1_555
H10 C13 1_555 1_555
C14 S3 1_555 1_555
C15 C14 1_555 1_555
C16 C15 1_555 1_555
H11 C16 1_555 1_555
H12 C16 1_555 1_555
C17 C16 1_555 1_555
H13 C17 1_555 1_555
H14 C17 1_555 1_555
C18 C17 1_555 1_555
H15 C18 1_555 1_555
H16 C18 1_555 1_555
C19 C15 1_555 1_555
C20 C19 1_555 1_555
C21 S4 1_555 1_555
C22 C21 1_555 1_555
H17 C22 1_555 1_555
C23 C22 1_555 1_555
H18 C23 1_555 1_555
C24 C23 1_555 1_555
C25 C24 1_555 1_555
H19 C25 1_555 1_555
C26 C21 1_555 1_555
H20 C26 1_555 1_555
C27 S5 1_555 1_555
C28 C27 1_555 1_555
C29 C28 1_555 1_555
H21 C29 1_555 1_555
H22 C29 1_555 1_555
C30 C29 1_555 1_555
H23 C30 1_555 1_555
H24 C30 1_555 1_555
C31 C30 1_555 1_555
H25 C31 1_555 1_555
H26 C31 1_555 1_555
C32 C28 1_555 1_555
C33 C32 1_555 1_555
C34 S6 1_555 1_555
C35 C34 1_555 1_555
H27 C35 1_555 1_555
C36 C35 1_555 1_555
H28 C36 1_555 1_555
C37 S1 1_555 1_555
C38 C37 1_555 1_555
H29 C38 1_555 1_555
C39 C34 1_555 1_555
H30 C39 1_555 1_555
N3 C14 1_555 1_555
N5 C27 1_555 1_555
C5 C6 1_555 1_555
C12 C13 1_555 1_555
C18 C19 1_555 1_555
C25 C26 1_555 1_555
C31 C32 1_555 1_555
C36 C37 1_555 1_555
C38 C39 1_555 1_555

#END
