
#######################################################################
#
#                 Cambridge Crystallographic Data Centre
#                                CCDC 
#
#######################################################################
#
# If this CIF has been generated from an entry in the Cambridge 
# Structural Database, then it will include bibliographic, chemical, 
# crystal, experimental, refinement or atomic coordinate data resulting 
# from the CCDC's data processing and validation procedures.
#
#######################################################################

data_ESIHOF
_chemical_formula_moiety         
'C20 H26 N2 2+,2(F6 P1 1-),C57 H54 N6 O12 S6,0.5(C2 H3 N1)'
_chemical_name_systematic        
'1,4-dibenzyl-1,4-diazoniabicyclo[2.2.2]octane bis(hexafluorophosphate) hexaethyl 2,7,15,20,28,33-hexathia-40,41,44,45,48,49-hexaazadecacyclo[32.5.2.2^3,6^.2^8,14^.2^16,19^.2^21,27^.2^29,32^.0^9,13^.0^22,26^.0^35,39^]henpentaconta-1(39),3,5,8,13,16,18,21,26,29,31,34,40,42,44,46,48,50-octadecaene-4,17,30,42,46,50-hexacarboxylate acetonitrile solvate'
_symmetry_cell_setting           triclinic
_symmetry_space_group_name_H-M   'P -1'
_symmetry_Int_Tables_number      2
_space_group_name_Hall           '-P 1'
loop_
_symmetry_equiv_pos_site_id
_symmetry_equiv_pos_as_xyz
1 x,y,z
2 -x,-y,-z
_cell_length_a                   21.625(4)
_cell_length_b                   23.203(5)
_cell_length_c                   23.657(5)
_cell_angle_alpha                98.68(3)
_cell_angle_beta                 110.08(3)
_cell_angle_gamma                114.86(3)
_cell_volume                     9489.1
_exptl_crystal_colour            colorless
_exptl_crystal_description       block
_cell_formula_units_Z            4
loop_
_atom_site_label
_atom_site_type_symbol
_atom_site_fract_x
_atom_site_fract_y
_atom_site_fract_z
S1 S 0.66444(9) -0.14050(8) 0.81278(12)
S2 S 0.62334(10) 0.10950(7) 0.83189(12)
S3 S 0.29700(11) 0.01814(10) 0.60972(11)
S4 S 0.04159(11) -0.18711(11) 0.65771(13)
S5 S 0.13863(8) -0.37765(7) 0.78244(8)
S6 S 0.35155(9) -0.42244(7) 0.68242(9)
O1 O 0.6245(4) 0.0636(3) 0.7038(4)
O2 O 0.5191(4) -0.0313(4) 0.6427(4)
O3 O 0.3023(3) 0.0868(3) 0.7325(3)
O4 O 0.3607(4) 0.0638(4) 0.8163(3)
O5 O 0.1839(9) -0.1105(5) 0.8258(6)
O6 O 0.0814(4) -0.1699(4) 0.8312(4)
O7 O 0.0808(4) -0.3896(3) 0.5783(3)
O8 O 0.0467(2) -0.4533(2) 0.6386(2)
O9 O 0.5943(3) -0.1555(3) 0.9140(3)
O10 O 0.5838(4) -0.2552(3) 0.9139(3)
O11 O 0.4240(5) -0.3027(4) 0.5773(4)
O12 O 0.4150(4) -0.4003(3) 0.5884(3)
N1 N 0.5819(3) -0.0790(2) 0.7949(3)
N2 N 0.5725(3) -0.0244(2) 0.7991(3)
N3 N 0.2421(3) -0.0720(2) 0.6646(3)
N4 N 0.1862(3) -0.1179(2) 0.6742(3)
N5 N 0.2302(3) -0.3526(2) 0.7252(3)
N6 N 0.2770(3) -0.3627(2) 0.7044(3)
C1 C 0.6512(3) -0.0707(3) 0.8182(3)
C2 C 0.7173(3) -0.0067(3) 0.8429(4)
C3 C 0.8000(4) 0.0127(3) 0.8686(4)
H1 H 0.8075 -0.0143 0.8390
H2 H 0.8181 0.0069 0.9098
C4 C 0.8412(4) 0.0876(3) 0.8754(5)
H3 H 0.8531 0.0924 0.8398
H4 H 0.8885 0.1132 0.9150
C5 C 0.7840(3) 0.1140(3) 0.8756(5)
H5 H 0.7983 0.1398 0.9188
H6 H 0.7826 0.1417 0.8489
C6 C 0.7086(3) 0.0493(3) 0.8484(4)
C7 C 0.6354(3) 0.0386(3) 0.8243(4)
C8 C 0.5308(4) 0.0772(3) 0.7690(4)
C9 C 0.4782(4) 0.0850(3) 0.7860(4)
H7 H 0.4920 0.1038 0.8290
C10 C 0.4042(4) 0.0648(3) 0.7389(5)
C11 C 0.3828(4) 0.0378(3) 0.6743(4)
C12 C 0.4354(4) 0.0286(3) 0.6592(4)
H8 H 0.4211 0.0085 0.6162
C13 C 0.5090(4) 0.0479(3) 0.7048(5)
C14 C 0.3496(5) 0.0750(4) 0.7604(5)
C15 C 0.3063(9) 0.0662(10) 0.8410(8)
H9 H 0.3082 0.1092 0.8447
H10 H 0.2546 0.0303 0.8112
C16 C 0.3252(8) 0.0589(8) 0.8975(7)
H11 H 0.3068 0.0118 0.8919
H12 H 0.3027 0.0753 0.9196
H13 H 0.3798 0.0842 0.9223
C17 C 0.5596(6) 0.0332(5) 0.6867(5)
C18 C 0.5637(8) -0.0584(8) 0.6227(8)
H14 H 0.6137 -0.0411 0.6579
H15 H 0.5699 -0.0465 0.5866
C19 C 0.5135(16) -0.1354(9) 0.6038(15)
H16 H 0.5283 -0.1484 0.6407
H17 H 0.5200 -0.1583 0.5709
H18 H 0.4608 -0.1477 0.5881
C20 C 0.2262(4) -0.0414(3) 0.6225(4)
C21 C 0.1483(4) -0.0580(4) 0.5851(4)
C22 C 0.1175(5) -0.0316(5) 0.5364(5)
H19 H 0.1344 0.0155 0.5561
H20 H 0.1347 -0.0351 0.5038
C23 C 0.0344(5) -0.0731(5) 0.5081(5)
H21 H 0.0139 -0.1022 0.4645
H22 H 0.0121 -0.0445 0.5071
C24 C 0.0151(5) -0.1164(5) 0.5501(5)
H23 H -0.0071 -0.1012 0.5739
H24 H -0.0200 -0.1639 0.5241
C25 C 0.0940(4) -0.1041(3) 0.5955(4)
C26 C 0.1153(3) -0.1316(3) 0.6418(4)
C27 C 0.0786(3) -0.2357(3) 0.6924(4)
C28 C 0.0686(3) -0.2912(3) 0.6549(3)
H25 H 0.0488 -0.2992 0.6110
C29 C 0.0856(3) -0.3379(3) 0.6762(3)
C30 C 0.1165(3) -0.3250(2) 0.7423(3)
C31 C 0.1293(3) -0.2670(3) 0.7835(3)
H26 H 0.1506 -0.2577 0.8275
C32 C 0.1095(3) -0.2219(3) 0.7577(4)
C33 C 0.0716(4) -0.3959(3) 0.6271(4)
C34 C 0.0343(6) -0.5122(4) 0.5925(4)
H27 H -0.0022 -0.5212 0.5497
H28 H 0.0820 -0.5032 0.5917
C35 C 0.0054(6) -0.5705(4) 0.6122(5)
H29 H 0.0120 -0.6049 0.5917
H30 H -0.0480 -0.5879 0.6000
H31 H 0.0330 -0.5570 0.6579
C36 C 0.1254(7) -0.1608(4) 0.8041(5)
C37 C 0.0948(8) -0.1141(8) 0.8776(5)
H32 H 0.0476 -0.1236 0.8798
H33 H 0.1120 -0.0743 0.8653
C38 C 0.1538(10) -0.1009(7) 0.9415(5)
H34 H 0.1942 -0.1051 0.9367
H35 H 0.1310 -0.1331 0.9597
H36 H 0.1742 -0.0559 0.9693
C39 C 0.2002(3) -0.3915(2) 0.7547(3)
C40 C 0.2134(3) -0.4428(2) 0.7663(3)
C41 C 0.1846(3) -0.4920(3) 0.7996(3)
H37 H 0.1867 -0.4690 0.8387
H38 H 0.1326 -0.5287 0.7716
C42 C 0.2398(4) -0.5172(4) 0.8140(4)
H39 H 0.2138 -0.5646 0.8097
H40 H 0.2806 -0.4915 0.8575
C43 C 0.2727(3) -0.5084(3) 0.7654(3)
H41 H 0.3260 -0.4959 0.7848
H42 H 0.2439 -0.5494 0.7282
C44 C 0.2635(3) -0.4518(2) 0.7478(3)
C45 C 0.2936(3) -0.4102(2) 0.7154(3)
C46 C 0.4352(3) -0.3395(3) 0.7195(3)
C47 C 0.4717(3) -0.3088(3) 0.7854(4)
H43 H 0.4518 -0.3305 0.8103
C48 C 0.5402(4) -0.2437(3) 0.8156(4)
C49 C 0.5732(3) -0.2115(3) 0.7809(4)
C50 C 0.5341(4) -0.2441(3) 0.7138(5)
H44 H 0.5537 -0.2230 0.6885
C51 C 0.4657(3) -0.3081(3) 0.6838(4)
C52 C 0.5749(4) -0.2125(4) 0.8836(5)
C53 C 0.6149(7) -0.2340(7) 0.9827(6)
H45 H 0.6083 -0.2723 0.9969
H46 H 0.5897 -0.2134 0.9973
C54 C 0.7026(10) -0.1807(10) 1.0096(8)
H47 H 0.7223 -0.1950 0.9831
H48 H 0.7300 -0.1776 1.0527
H49 H 0.7090 -0.1373 1.0094
C55 C 0.4307(5) -0.3390(5) 0.6106(5)
C56 C 0.3792(9) -0.4414(8) 0.5211(7)
H50 H 0.4166 -0.4224 0.5054
H51 H 0.3376 -0.4342 0.4987
C57 C 0.3466(12) -0.5184(8) 0.4987(10)
H52 H 0.3058 -0.5399 0.4557
H53 H 0.3276 -0.5361 0.5271
H54 H 0.3867 -0.5270 0.5001
S7 S 0.70548(11) 0.72902(8) 0.81400(10)
S8 S 0.88529(9) 0.68006(8) 0.67451(8)
S9 S 0.99770(8) 0.49133(7) 0.78886(8)
S10 S 0.78078(8) 0.28449(9) 0.86810(9)
S11 S 0.44029(9) 0.20256(8) 0.69027(11)
S12 S 0.39486(12) 0.44837(10) 0.71015(15)
O13 O 0.8863(3) 0.5939(3) 0.5737(2)
O14 O 0.8388(3) 0.4868(3) 0.5639(3)
O15 O 0.9884(2) 0.5858(2) 0.9034(2)
O16 O 1.0724(2) 0.67980(18) 0.89526(19)
O17 O 0.7503(3) 0.2203(2) 0.7324(3)
O18 O 0.6317(5) 0.1720(4) 0.6462(4)
O19 O 0.4717(3) 0.2298(3) 0.8371(3)
O20 O 0.5659(3) 0.3358(3) 0.8823(3)
O21 O 0.5832(4) 0.5797(4) 0.6167(3)
O22 O 0.6162(3) 0.6870(3) 0.6648(3)
N7 N 0.7480(3) 0.6559(2) 0.7554(3)
N8 N 0.7881(3) 0.6454(2) 0.7261(3)
N9 N 0.8698(2) 0.4300(2) 0.8043(2)
N10 N 0.8241(2) 0.3851(2) 0.8231(2)
N11 N 0.4925(3) 0.3368(2) 0.7291(3)
N12 N 0.4827(3) 0.3908(2) 0.7337(3)
C58 C 0.7598(3) 0.7176(3) 0.7770(3)
C59 C 0.8137(3) 0.7736(3) 0.7703(3)
C60 C 0.8377(4) 0.8490(3) 0.7946(4)
H55 H 0.7940 0.8552 0.7796
H56 H 0.8653 0.8685 0.8410
C61 C 0.8886(7) 0.8780(4) 0.7642(8)
H57 H 0.9350 0.9192 0.7958
H58 H 0.8628 0.8898 0.7295
C62 C 0.9095(4) 0.8286(3) 0.7382(4)
H59 H 0.9016 0.8244 0.6946
H60 H 0.9620 0.8418 0.7650
C63 C 0.8539(3) 0.7640(3) 0.7413(3)
C64 C 0.8388(3) 0.6979(3) 0.7193(3)
C65 C 0.9090(3) 0.6234(2) 0.7077(3)
C66 C 0.9446(3) 0.6394(2) 0.7737(3)
H61 H 0.9532 0.6783 0.8009
C67 C 0.9677(3) 0.5975(2) 0.7995(3)
C68 C 0.9542(3) 0.5382(2) 0.7605(3)
C69 C 0.9175(3) 0.5222(3) 0.6943(3)
H62 H 0.9067 0.4821 0.6673
C70 C 0.8963(3) 0.5649(3) 0.6671(3)
C71 C 1.0089(3) 0.6183(3) 0.8719(3)
C72 C 1.1199(3) 0.7088(3) 0.9654(3)
H63 H 1.1036 0.7356 0.9853
H64 H 1.1156 0.6730 0.9832
C73 C 1.1982(4) 0.7511(4) 0.9771(4)
H65 H 1.2017 0.7866 0.9598
H66 H 1.2133 0.7241 0.9567
H67 H 1.2313 0.7705 1.0224
C74 C 0.8718(4) 0.5509(3) 0.5974(4)
C75 C 0.8166(6) 0.4704(4) 0.4966(4)
H68 H 0.8598 0.4976 0.4896
H69 H 0.7763 0.4797 0.4762
C76 C 0.7901(7) 0.3999(5) 0.4700(5)
H70 H 0.7745 0.3876 0.4247
H71 H 0.7474 0.3735 0.4773
H72 H 0.8305 0.3913 0.4902
C77 C 0.9338(3) 0.4314(2) 0.8092(3)
C78 C 0.9540(3) 0.3858(2) 0.8308(3)
C79 C 1.0214(3) 0.3761(3) 0.8349(4)
H73 H 1.0225 0.3686 0.7939
H74 H 1.0698 0.4149 0.8671
C80 C 1.0034(4) 0.3128(4) 0.8539(5)
H75 H 0.9920 0.2757 0.8194
H76 H 1.0474 0.3218 0.8917
C81 C 0.9353(4) 0.2935(3) 0.8678(4)
H77 H 0.8960 0.2466 0.8429
H78 H 0.9505 0.3003 0.9130
C82 C 0.9074(3) 0.3403(2) 0.8483(3)
C83 C 0.8414(3) 0.3423(3) 0.8437(3)
C84 C 0.6885(3) 0.2667(3) 0.8147(3)
C85 C 0.6476(3) 0.2789(3) 0.8427(3)
H79 H 0.6711 0.2994 0.8870
C86 C 0.5716(3) 0.2619(3) 0.8072(3)
C87 C 0.5380(3) 0.2337(3) 0.7412(4)
C88 C 0.5793(3) 0.2219(3) 0.7115(3)
H80 H 0.5570 0.2038 0.6670
C89 C 0.6548(4) 0.2373(3) 0.7486(3)
C90 C 0.5323(4) 0.2766(4) 0.8446(4)
C91 C 0.5248(11) 0.3487(10) 0.9165(9)
H81 H 0.5565 0.3951 0.9461
H82 H 0.5179 0.3194 0.9418
C92 C 0.4412(14) 0.3370(14) 0.8704(13)
H83 H 0.4306 0.3220 0.8263
H84 H 0.4413 0.3787 0.8805
H85 H 0.4025 0.3033 0.8773
C93 C 0.6946(6) 0.2205(5) 0.7126(5)
C94 C 0.6560(8) 0.1418(7) 0.6046(7)
H86 H 0.6807 0.1190 0.6251
H87 H 0.6910 0.1762 0.5945
C95 C 0.5828(6) 0.0922(5) 0.5451(5)
H88 H 0.5944 0.0780 0.5117
H89 H 0.5534 0.1134 0.5313
H90 H 0.5539 0.0535 0.5542
C96 C 0.4311(3) 0.2747(3) 0.7010(3)
C97 C 0.3566(3) 0.2625(3) 0.6800(3)
C98 C 0.2802(3) 0.1967(3) 0.6484(4)
H91 H 0.2795 0.1672 0.6736
H92 H 0.2686 0.1729 0.6054
C99 C 0.2232(4) 0.2217(4) 0.6471(6)
H93 H 0.1766 0.1957 0.6068
H94 H 0.2099 0.2158 0.6819
C100 C 0.2608(4) 0.2943(5) 0.6542(5)
H95 H 0.2497 0.3195 0.6818
H96 H 0.2448 0.3001 0.6128
C101 C 0.3473(4) 0.3171(4) 0.6852(4)
C102 C 0.4126(3) 0.3825(3) 0.7113(4)
C103 C 0.4861(4) 0.5212(3) 0.7405(4)
C104 C 0.5075(4) 0.5436(4) 0.6955(5)
H97 H 0.4773 0.5173 0.6523
C105 C 0.5762(4) 0.6073(3) 0.7151(4)
C106 C 0.6199(4) 0.6448(3) 0.7783(4)
C107 C 0.5990(5) 0.6207(4) 0.8243(4)
H98 H 0.6296 0.6459 0.8678
C108 C 0.5317(4) 0.5585(4) 0.8037(4)
C109 C 0.5918(5) 0.6252(6) 0.6620(5)
C110 C 0.6348(6) 0.7036(9) 0.6119(5)
H99 H 0.5927 0.6717 0.5704
H100 H 0.6803 0.7024 0.6159
C111 C 0.6490(7) 0.7811(8) 0.6203(6)
H101 H 0.7000 0.8108 0.6271
H102 H 0.6425 0.7972 0.6565
H103 H 0.6129 0.7802 0.5822
O23 O 0.5614(6) 0.5197(5) 0.8899(4)
C112 C 0.5196(8) 0.5328(7) 0.8520(7)
O24 O 0.4736(6) 0.5433(6) 0.8689(4)
C113 C 0.4514(5) 0.5082(4) 0.9114(4)
H104 H 0.4865 0.4934 0.9314
H105 H 0.4000 0.4692 0.8878
C114 C 0.4551(5) 0.5614(4) 0.9622(4)
H106 H 0.4118 0.5669 0.9436
H107 H 0.5013 0.6039 0.9766
H108 H 0.4547 0.5467 0.9979
N13 N 0.7360(3) 0.5063(2) 0.8477(3)
N14 N 0.6904(2) 0.4602(2) 0.7274(3)
C117 C 0.8014(5) 0.5057(4) 0.9601(4)
C118 C 0.8789(6) 0.5285(5) 0.9796(4)
H114 H 0.9041 0.5617 0.9651
C119 C 0.9197(12) 0.5078(10) 1.0164(10)
H115 H 0.9722 0.5275 1.0308
C120 C 0.8814(15) 0.4587(11) 1.0305(8)
H116 H 0.9078 0.4392 1.0514
C121 C 0.8006(11) 0.4280(5) 1.0184(5)
H117 H 0.7789 0.3956 1.0352
C122 C 0.7588(6) 0.4530(4) 0.9783(4)
H118 H 0.7068 0.4356 0.9650
C123 C 0.7604(4) 0.5342(3) 0.9203(4)
H119 H 0.7933 0.5830 0.9358
H120 H 0.7152 0.5247 0.9260
C124 C 0.6891(3) 0.4299(3) 0.8220(3)
H121 H 0.7167 0.4119 0.8479
H122 H 0.6412 0.4152 0.8245
C125 C 0.6732(3) 0.4037(3) 0.7538(3)
H123 H 0.6200 0.3684 0.7284
H124 H 0.7046 0.3843 0.7516
C126 C 0.8026(3) 0.5284(3) 0.8349(4)
H125 H 0.8310 0.5068 0.8521
H126 H 0.8362 0.5770 0.8556
C127 C 0.7751(3) 0.5090(3) 0.7618(4)
H127 H 0.7868 0.5493 0.7502
H128 H 0.8014 0.4884 0.7493
C128 C 0.6883(4) 0.5334(4) 0.8137(4)
H129 H 0.6493 0.5266 0.8276
H130 H 0.7201 0.5816 0.8239
C129 C 0.6515(3) 0.4977(3) 0.7429(4)
H131 H 0.6555 0.5303 0.7210
H132 H 0.5976 0.4657 0.7277
C130 C 0.6675(4) 0.4366(4) 0.6556(4)
H133 H 0.6799 0.4754 0.6416
H134 H 0.6966 0.4165 0.6483
C131 C 0.5840(3) 0.3860(4) 0.6169(3)
C132 C 0.5644(4) 0.3185(4) 0.6022(4)
H135 H 0.6023 0.3073 0.6153
C133 C 0.4880(5) 0.2676(3) 0.5679(4)
H136 H 0.4748 0.2224 0.5580
C134 C 0.4312(3) 0.2843(4) 0.5483(4)
H137 H 0.3801 0.2502 0.5253
C135 C 0.4509(4) 0.3518(5) 0.5630(3)
H138 H 0.4129 0.3630 0.5499
C136 C 0.5273(4) 0.4027(3) 0.5973(3)
H139 H 0.5404 0.4479 0.6071
N15 N 0.3823(3) -0.1261(2) 0.8139(3)
N16 N 0.3410(3) -0.1846(2) 0.6951(3)
C137 C 0.4867(4) -0.0344(4) 0.9203(4)
C138 C 0.5057(5) 0.0324(3) 0.9286(4)
H140 H 0.4666 0.0416 0.9115
C139 C 0.5763(7) 0.0830(5) 0.9596(6)
H141 H 0.5859 0.1269 0.9644
C140 C 0.6359(6) 0.0726(5) 0.9850(5)
H142 H 0.6858 0.1090 1.0068
C141 C 0.6211(5) 0.0050(5) 0.9779(5)
H143 H 0.6610 -0.0035 0.9940
C142 C 0.5455(4) -0.0475(4) 0.9462(4)
H144 H 0.5342 -0.0917 0.9423
C143 C 0.4045(4) -0.0915(3) 0.8826(4)
H145 H 0.3960 -0.1248 0.9037
H146 H 0.3714 -0.0736 0.8834
C144 C 0.3940(3) -0.0760(3) 0.7786(3)
H147 H 0.3590 -0.0595 0.7756
H148 H 0.4458 -0.0375 0.8025
C145 C 0.3805(3) -0.1089(3) 0.7118(3)
H149 H 0.3492 -0.0973 0.6810
H150 H 0.4290 -0.0926 0.7102
C146 C 0.2981(3) -0.1797(3) 0.7797(4)
H151 H 0.2684 -0.1602 0.7870
H152 H 0.2895 -0.2163 0.7967
C147 C 0.2725(3) -0.2070(3) 0.7084(4)
H153 H 0.2425 -0.2560 0.6928
H154 H 0.2404 -0.1906 0.6857
C148 C 0.4267(3) -0.1604(3) 0.8078(3)
H155 H 0.4802 -0.1264 0.8245
H156 H 0.4231 -0.1898 0.8331
C149 C 0.3969(3) -0.2003(3) 0.7406(4)
H157 H 0.3712 -0.2481 0.7347
H158 H 0.4392 -0.1903 0.7303
C150 C 0.3198(4) -0.2210(3) 0.6261(4)
H159 H 0.2955 -0.2694 0.6177
H160 H 0.3661 -0.2069 0.6212
C151 C 0.2655(4) -0.2067(3) 0.5765(4)
C152 C 0.2954(5) -0.1575(3) 0.5523(4)
H161 H 0.3480 -0.1330 0.5665
C153 C 0.2492(6) -0.1440(4) 0.5080(5)
H162 H 0.2703 -0.1102 0.4922
C154 C 0.1709(6) -0.1803(5) 0.4861(5)
H163 H 0.1391 -0.1705 0.4565
C155 C 0.1409(5) -0.2310(4) 0.5088(4)
H164 H 0.0882 -0.2564 0.4936
C156 C 0.1868(5) -0.2446(4) 0.5530(4)
H165 H 0.1655 -0.2794 0.5677
P1 P 1.04929(17) 0.27186(14) 0.67747(15)
F1 F 1.0264(12) 0.3202(8) 0.6807(9)
F2 F 1.0180(5) 0.2669(7) 0.6061(4)
F3 F 1.1314(4) 0.3168(6) 0.6837(5)
F4 F 1.0626(11) 0.2172(7) 0.6671(10)
F5 F 0.9734(5) 0.2256(7) 0.6707(6)
F6 F 1.0782(6) 0.2890(7) 0.7483(4)
P2 P 0.38105(12) -0.27200(10) 0.93398(12)
F7 F 0.3304(2) -0.2383(2) 0.9134(3)
F8 F 0.4533(3) -0.1997(3) 0.9592(3)
F9 F 0.3780(4) -0.2842(3) 0.8634(3)
F10 F 0.4325(4) -0.3040(4) 0.9523(4)
F11 F 0.3059(3) -0.3433(2) 0.9078(3)
F12 F 0.3813(3) -0.2590(3) 1.0004(3)
P3 P 0.92610(13) 0.74065(10) 0.94862(12)
F13 F 0.9323(4) 0.6861(3) 0.9773(4)
F14 F 0.9187(6) 0.7004(4) 0.8875(4)
F15 F 1.0157(4) 0.7857(3) 0.9809(4)
F16 F 0.9129(4) 0.7939(3) 0.9228(4)
F17 F 0.9343(7) 0.7805(5) 1.0110(5)
F18 F 0.8392(3) 0.6959(3) 0.9218(3)
P4 P 0.8104(2) 0.8184(3) 0.5472(2)
F19 F 0.7756(7) 0.7849(10) 0.5874(7)
F20 F 0.7447(10) 0.7549(10) 0.4883(8)
F21 F 0.8614(9) 0.7888(10) 0.5688(8)
F22 F 0.8451(5) 0.8538(11) 0.5057(7)
F23 F 0.8667(11) 0.8843(7) 0.6058(6)
F24 F 0.7554(7) 0.8465(8) 0.5254(12)
N17 N 0.8165(8) 0.5605(6) 0.3994(5)
C157 C 0.8887(6) 0.6844(5) 0.4750(5)
H166 H 0.9003 0.7148 0.4519
H167 H 0.9354 0.6940 0.5094
H168 H 0.8566 0.6901 0.4922
C158 C 0.8490(7) 0.6145(6) 0.4314(6)
C115? C 0.4411(10) 0.2421(12) 0.8849(11)
H109? H 0.4815 0.2775 0.9254
H110? H 0.4132 0.2011 0.8923
C116? C 0.3873(13) 0.2651(15) 0.8449(12)
H111? H 0.3362 0.2269 0.8209
H112? H 0.4051 0.2828 0.8159
H113? H 0.3876 0.2995 0.8733
loop_
_geom_bond_atom_site_label_1
_geom_bond_atom_site_label_2
_geom_bond_site_symmetry_1
_geom_bond_site_symmetry_2
S1 C1 1_555 1_555
S2 C7 1_555 1_555
S3 C11 1_555 1_555
S4 C26 1_555 1_555
S5 C30 1_555 1_555
S6 C45 1_555 1_555
O1 C17 1_555 1_555
O2 C17 1_555 1_555
O3 C14 1_555 1_555
O4 C14 1_555 1_555
O5 C36 1_555 1_555
O6 C36 1_555 1_555
O7 C33 1_555 1_555
O8 C33 1_555 1_555
O9 C52 1_555 1_555
O10 C52 1_555 1_555
O11 C55 1_555 1_555
O12 C55 1_555 1_555
N1 N2 1_555 1_555
N2 C7 1_555 1_555
N3 N4 1_555 1_555
N4 C26 1_555 1_555
N5 N6 1_555 1_555
N6 C45 1_555 1_555
C1 N1 1_555 1_555
C2 C1 1_555 1_555
C3 C2 1_555 1_555
H1 C3 1_555 1_555
H2 C3 1_555 1_555
C4 C3 1_555 1_555
H3 C4 1_555 1_555
H4 C4 1_555 1_555
C5 C4 1_555 1_555
H5 C5 1_555 1_555
H6 C5 1_555 1_555
C6 C2 1_555 1_555
C7 C6 1_555 1_555
C8 S2 1_555 1_555
C9 C8 1_555 1_555
H7 C9 1_555 1_555
C10 C9 1_555 1_555
C11 C10 1_555 1_555
C12 C11 1_555 1_555
H8 C12 1_555 1_555
C13 C8 1_555 1_555
C14 C10 1_555 1_555
C15 O4 1_555 1_555
H9 C15 1_555 1_555
H10 C15 1_555 1_555
C16 C15 1_555 1_555
H11 C16 1_555 1_555
H12 C16 1_555 1_555
H13 C16 1_555 1_555
C17 C13 1_555 1_555
C18 O2 1_555 1_555
H14 C18 1_555 1_555
H15 C18 1_555 1_555
C19 C18 1_555 1_555
H16 C19 1_555 1_555
H17 C19 1_555 1_555
H18 C19 1_555 1_555
C20 S3 1_555 1_555
C21 C20 1_555 1_555
C22 C21 1_555 1_555
H19 C22 1_555 1_555
H20 C22 1_555 1_555
C23 C22 1_555 1_555
H21 C23 1_555 1_555
H22 C23 1_555 1_555
C24 C23 1_555 1_555
H23 C24 1_555 1_555
H24 C24 1_555 1_555
C25 C21 1_555 1_555
C26 C25 1_555 1_555
C27 S4 1_555 1_555
C28 C27 1_555 1_555
H25 C28 1_555 1_555
C29 C28 1_555 1_555
C30 C29 1_555 1_555
C31 C30 1_555 1_555
H26 C31 1_555 1_555
C32 C27 1_555 1_555
C33 C29 1_555 1_555
C34 O8 1_555 1_555
H27 C34 1_555 1_555
H28 C34 1_555 1_555
C35 C34 1_555 1_555
H29 C35 1_555 1_555
H30 C35 1_555 1_555
H31 C35 1_555 1_555
C36 C32 1_555 1_555
C37 O6 1_555 1_555
H32 C37 1_555 1_555
H33 C37 1_555 1_555
C38 C37 1_555 1_555
H34 C38 1_555 1_555
H35 C38 1_555 1_555
H36 C38 1_555 1_555
C39 S5 1_555 1_555
C40 C39 1_555 1_555
C41 C40 1_555 1_555
H37 C41 1_555 1_555
H38 C41 1_555 1_555
C42 C41 1_555 1_555
H39 C42 1_555 1_555
H40 C42 1_555 1_555
C43 C42 1_555 1_555
H41 C43 1_555 1_555
H42 C43 1_555 1_555
C44 C40 1_555 1_555
C45 C44 1_555 1_555
C46 S6 1_555 1_555
C47 C46 1_555 1_555
H43 C47 1_555 1_555
C48 C47 1_555 1_555
C49 S1 1_555 1_555
C50 C49 1_555 1_555
H44 C50 1_555 1_555
C51 C46 1_555 1_555
C52 C48 1_555 1_555
C53 O10 1_555 1_555
H45 C53 1_555 1_555
H46 C53 1_555 1_555
C54 C53 1_555 1_555
H47 C54 1_555 1_555
H48 C54 1_555 1_555
H49 C54 1_555 1_555
C55 C51 1_555 1_555
C56 O12 1_555 1_555
H50 C56 1_555 1_555
H51 C56 1_555 1_555
C57 C56 1_555 1_555
H52 C57 1_555 1_555
H53 C57 1_555 1_555
H54 C57 1_555 1_555
S7 C58 1_555 1_555
S8 C64 1_555 1_555
S9 C68 1_555 1_555
S10 C83 1_555 1_555
S11 C87 1_555 1_555
S12 C102 1_555 1_555
O13 C74 1_555 1_555
O14 C74 1_555 1_555
O15 C71 1_555 1_555
O16 C71 1_555 1_555
O17 C93 1_555 1_555
O18 C93 1_555 1_555
O19 C90 1_555 1_555
O20 C90 1_555 1_555
O21 C109 1_555 1_555
O22 C109 1_555 1_555
N7 N8 1_555 1_555
N8 C64 1_555 1_555
N9 N10 1_555 1_555
N10 C83 1_555 1_555
N11 N12 1_555 1_555
N12 C102 1_555 1_555
C58 N7 1_555 1_555
C59 C58 1_555 1_555
C60 C59 1_555 1_555
H55 C60 1_555 1_555
H56 C60 1_555 1_555
C61 C60 1_555 1_555
H57 C61 1_555 1_555
H58 C61 1_555 1_555
C62 C61 1_555 1_555
H59 C62 1_555 1_555
H60 C62 1_555 1_555
C63 C59 1_555 1_555
C64 C63 1_555 1_555
C65 S8 1_555 1_555
C66 C65 1_555 1_555
H61 C66 1_555 1_555
C67 C66 1_555 1_555
C68 C67 1_555 1_555
C69 C68 1_555 1_555
H62 C69 1_555 1_555
C70 C65 1_555 1_555
C71 C67 1_555 1_555
C72 O16 1_555 1_555
H63 C72 1_555 1_555
H64 C72 1_555 1_555
C73 C72 1_555 1_555
H65 C73 1_555 1_555
H66 C73 1_555 1_555
H67 C73 1_555 1_555
C74 C70 1_555 1_555
C75 O14 1_555 1_555
H68 C75 1_555 1_555
H69 C75 1_555 1_555
C76 C75 1_555 1_555
H70 C76 1_555 1_555
H71 C76 1_555 1_555
H72 C76 1_555 1_555
C77 S9 1_555 1_555
C78 C77 1_555 1_555
C79 C78 1_555 1_555
H73 C79 1_555 1_555
H74 C79 1_555 1_555
C80 C79 1_555 1_555
H75 C80 1_555 1_555
H76 C80 1_555 1_555
C81 C80 1_555 1_555
H77 C81 1_555 1_555
H78 C81 1_555 1_555
C82 C78 1_555 1_555
C83 C82 1_555 1_555
C84 S10 1_555 1_555
C85 C84 1_555 1_555
H79 C85 1_555 1_555
C86 C85 1_555 1_555
C87 C86 1_555 1_555
C88 C87 1_555 1_555
H80 C88 1_555 1_555
C89 C84 1_555 1_555
C90 C86 1_555 1_555
C91 O20 1_555 1_555
H81 C91 1_555 1_555
H82 C91 1_555 1_555
C92 C91 1_555 1_555
H83 C92 1_555 1_555
H84 C92 1_555 1_555
H85 C92 1_555 1_555
C93 C89 1_555 1_555
C94 O18 1_555 1_555
H86 C94 1_555 1_555
H87 C94 1_555 1_555
C95 C94 1_555 1_555
H88 C95 1_555 1_555
H89 C95 1_555 1_555
H90 C95 1_555 1_555
C96 S11 1_555 1_555
C97 C96 1_555 1_555
C98 C97 1_555 1_555
H91 C98 1_555 1_555
H92 C98 1_555 1_555
C99 C98 1_555 1_555
H93 C99 1_555 1_555
H94 C99 1_555 1_555
C100 C99 1_555 1_555
H95 C100 1_555 1_555
H96 C100 1_555 1_555
C101 C97 1_555 1_555
C102 C101 1_555 1_555
C103 S12 1_555 1_555
C104 C103 1_555 1_555
H97 C104 1_555 1_555
C105 C104 1_555 1_555
C106 S7 1_555 1_555
C107 C106 1_555 1_555
H98 C107 1_555 1_555
C108 C103 1_555 1_555
C109 C105 1_555 1_555
C110 O22 1_555 1_555
H99 C110 1_555 1_555
H100 C110 1_555 1_555
C111 C110 1_555 1_555
H101 C111 1_555 1_555
H102 C111 1_555 1_555
H103 C111 1_555 1_555
O23 C112 1_555 1_555
C112 C108 1_555 1_555
O24 C112 1_555 1_555
C113 O24 1_555 1_555
H104 C113 1_555 1_555
H105 C113 1_555 1_555
C114 C113 1_555 1_555
H106 C114 1_555 1_555
H107 C114 1_555 1_555
H108 C114 1_555 1_555
N13 C123 1_555 1_555
N14 C125 1_555 1_555
C117 C118 1_555 1_555
C118 H114 1_555 1_555
C119 C118 1_555 1_555
H115 C119 1_555 1_555
C120 C119 1_555 1_555
H116 C120 1_555 1_555
C121 C120 1_555 1_555
H117 C121 1_555 1_555
C122 C117 1_555 1_555
H118 C122 1_555 1_555
C123 C117 1_555 1_555
H119 C123 1_555 1_555
H120 C123 1_555 1_555
C124 N13 1_555 1_555
H121 C124 1_555 1_555
H122 C124 1_555 1_555
C125 C124 1_555 1_555
H123 C125 1_555 1_555
H124 C125 1_555 1_555
C126 N13 1_555 1_555
H125 C126 1_555 1_555
H126 C126 1_555 1_555
C127 N14 1_555 1_555
H127 C127 1_555 1_555
H128 C127 1_555 1_555
C128 N13 1_555 1_555
H129 C128 1_555 1_555
H130 C128 1_555 1_555
C129 N14 1_555 1_555
H131 C129 1_555 1_555
H132 C129 1_555 1_555
C130 N14 1_555 1_555
H133 C130 1_555 1_555
H134 C130 1_555 1_555
C131 C130 1_555 1_555
C132 C131 1_555 1_555
H135 C132 1_555 1_555
C133 C132 1_555 1_555
H136 C133 1_555 1_555
C134 C133 1_555 1_555
H137 C134 1_555 1_555
C135 C134 1_555 1_555
H138 C135 1_555 1_555
C136 C131 1_555 1_555
H139 C136 1_555 1_555
N15 C143 1_555 1_555
N16 C145 1_555 1_555
C137 C138 1_555 1_555
C138 H140 1_555 1_555
C139 C138 1_555 1_555
H141 C139 1_555 1_555
C140 C139 1_555 1_555
H142 C140 1_555 1_555
C141 C140 1_555 1_555
H143 C141 1_555 1_555
C142 C137 1_555 1_555
H144 C142 1_555 1_555
C143 C137 1_555 1_555
H145 C143 1_555 1_555
H146 C143 1_555 1_555
C144 N15 1_555 1_555
H147 C144 1_555 1_555
H148 C144 1_555 1_555
C145 C144 1_555 1_555
H149 C145 1_555 1_555
H150 C145 1_555 1_555
C146 N15 1_555 1_555
H151 C146 1_555 1_555
H152 C146 1_555 1_555
C147 N16 1_555 1_555
H153 C147 1_555 1_555
H154 C147 1_555 1_555
C148 N15 1_555 1_555
H155 C148 1_555 1_555
H156 C148 1_555 1_555
C149 N16 1_555 1_555
H157 C149 1_555 1_555
H158 C149 1_555 1_555
C150 N16 1_555 1_555
H159 C150 1_555 1_555
H160 C150 1_555 1_555
C151 C150 1_555 1_555
C152 C151 1_555 1_555
H161 C152 1_555 1_555
C153 C152 1_555 1_555
H162 C153 1_555 1_555
C154 C153 1_555 1_555
H163 C154 1_555 1_555
C155 C154 1_555 1_555
H164 C155 1_555 1_555
C156 C151 1_555 1_555
H165 C156 1_555 1_555
P1 F1 1_555 1_555
F2 P1 1_555 1_555
F3 P1 1_555 1_555
F4 P1 1_555 1_555
F5 P1 1_555 1_555
F6 P1 1_555 1_555
P2 F7 1_555 1_555
F8 P2 1_555 1_555
F9 P2 1_555 1_555
F10 P2 1_555 1_555
F11 P2 1_555 1_555
F12 P2 1_555 1_555
P3 F13 1_555 1_555
F14 P3 1_555 1_555
F15 P3 1_555 1_555
F16 P3 1_555 1_555
F17 P3 1_555 1_555
F18 P3 1_555 1_555
P4 F19 1_555 1_555
F20 P4 1_555 1_555
F21 P4 1_555 1_555
F22 P4 1_555 1_555
F23 P4 1_555 1_555
F24 P4 1_555 1_555
N17 C158 1_555 1_555
C157 H166 1_555 1_555
H167 C157 1_555 1_555
H168 C157 1_555 1_555
C158 C157 1_555 1_555
N3 C20 1_555 1_555
N5 C39 1_555 1_555
C5 C6 1_555 1_555
C12 C13 1_555 1_555
C24 C25 1_555 1_555
C31 C32 1_555 1_555
C43 C44 1_555 1_555
C48 C49 1_555 1_555
C50 C51 1_555 1_555
N9 C77 1_555 1_555
N11 C96 1_555 1_555
C62 C63 1_555 1_555
C69 C70 1_555 1_555
C81 C82 1_555 1_555
C88 C89 1_555 1_555
C100 C101 1_555 1_555
C105 C106 1_555 1_555
C107 C108 1_555 1_555
C121 C122 1_555 1_555
C126 C127 1_555 1_555
C128 C129 1_555 1_555
C135 C136 1_555 1_555
C141 C142 1_555 1_555
C146 C147 1_555 1_555
C148 C149 1_555 1_555
C155 C156 1_555 1_555

#END
