
#######################################################################
#
#                 Cambridge Crystallographic Data Centre
#                                CCDC 
#
#######################################################################
#
# If this CIF has been generated from an entry in the Cambridge 
# Structural Database, then it will include bibliographic, chemical, 
# crystal, experimental, refinement or atomic coordinate data resulting 
# from the CCDC's data processing and validation procedures.
#
#######################################################################

data_ESIHUL
_chemical_formula_moiety         'C57 H52 N6 O12 S6,C7 H15 N4 1+,F6 P1 1-'
_chemical_name_systematic        
'1-methyl-3,5,7-triaza-1-azoniatricyclo[3.3.1.1^3,7^]decane hexafluorophosphate hexaethyl 2,7,15,20,28,33-hexathia-40,41,44,45,48,49-hexaazadecacyclo[32.5.2.2^3,6^.2^8,14^.2^16,19^.2^21,27^.2^29,32^.0^9,13^.0^22,26^.0^35,39^]henpentaconta-1(39),3,5,8,13,16,18,21,26,29,31,34,40,42,44,46,48,50-octadecaene-4,17,30,42,46,50-hexacarboxylate'
_symmetry_cell_setting           monoclinic
_symmetry_space_group_name_H-M   'P 21/n'
_symmetry_Int_Tables_number      14
_space_group_name_Hall           '-P 2yn'
loop_
_symmetry_equiv_pos_site_id
_symmetry_equiv_pos_as_xyz
1 x,y,z
2 1/2-x,1/2+y,1/2-z
3 -x,-y,-z
4 1/2+x,1/2-y,1/2+z
_cell_length_a                   17.225(3)
_cell_length_b                   25.023(5)
_cell_length_c                   17.272(4)
_cell_angle_alpha                90
_cell_angle_beta                 103.79(3)
_cell_angle_gamma                90
_cell_volume                     7230.01
_exptl_crystal_colour            colorless
_exptl_crystal_description       plate
_cell_formula_units_Z            4
loop_
_atom_site_label
_atom_site_type_symbol
_atom_site_fract_x
_atom_site_fract_y
_atom_site_fract_z
C1 C 0.5458(6) 0.0316(4) 0.3015(6)
C2 C 0.6021(5) 0.0437(3) 0.3711(7)
C3 C 0.6931(5) 0.0418(4) 0.3892(8)
H1 H 0.7133 0.0599 0.3483
H2 H 0.7127 0.0053 0.3945
C4 C 0.7162(6) 0.0725(4) 0.4706(8)
H3 H 0.7625 0.0560 0.5056
H4 H 0.7289 0.1094 0.4620
C5 C 0.6446(6) 0.0695(4) 0.5076(6)
H5 H 0.6372 0.1029 0.5333
H6 H 0.6508 0.0408 0.5463
C6 C 0.5743(6) 0.0585(3) 0.4356(6)
C7 C 0.4927(5) 0.0616(3) 0.4275(6)
C8 C 0.4218(5) 0.1414(3) 0.4942(5)
C9 C 0.3695(5) 0.1648(3) 0.5368(5)
C10 C 0.3444(5) 0.2174(3) 0.5203(6)
H7 H 0.3103 0.2326 0.5486
C11 C 0.3680(6) 0.2475(3) 0.4639(6)
C12 C 0.4202(6) 0.2255(3) 0.4227(5)
C13 C 0.4472(5) 0.1724(3) 0.4388(5)
H8 H 0.4827 0.1580 0.4114
C14 C 0.3417(7) 0.1339(5) 0.5981(7)
C15 C 0.2594(12) 0.1341(8) 0.6910(11)
H9 H 0.2953 0.1324 0.7436
H10 H 0.2425 0.0983 0.6732
C16 C 0.4485(10) 0.2550(4) 0.3616(7)
C17 C 0.4019(17) 0.2926(11) 0.2292(13)
C18 C 0.331(2) 0.312(2) 0.192(3)
C19 C 0.2540(5) 0.3132(3) 0.3711(5)
C20 C 0.2185(5) 0.3621(3) 0.3438(5)
C21 C 0.2416(5) 0.4186(3) 0.3735(5)
H11 H 0.2281 0.4253 0.4240
H12 H 0.2983 0.4250 0.3793
C22 C 0.1914(6) 0.4525(3) 0.3074(6)
H13 H 0.1686 0.4823 0.3302
H14 H 0.2247 0.4667 0.2742
C23 C 0.1263(6) 0.4191(3) 0.2582(5)
H15 H 0.1207 0.4254 0.2018
H16 H 0.0756 0.4261 0.2714
C24 C 0.1550(5) 0.3619(3) 0.2813(5)
C25 C 0.1283(5) 0.3124(3) 0.2461(5)
C26 C 0.0359(6) 0.2470(3) 0.1318(6)
C27 C -0.0214(6) 0.2170(4) 0.1554(5)
H17 H -0.0497 0.2321 0.1896
C28 C -0.0381(5) 0.1649(3) 0.1297(5)
C29 C 0.0055(5) 0.1414(3) 0.0783(5)
C30 C 0.0611(5) 0.1723(3) 0.0524(5)
H18 H 0.0883 0.1583 0.0165
C31 C 0.0761(5) 0.2253(3) 0.0808(6)
C32 C -0.0993(6) 0.1335(4) 0.1574(6)
C33 C -0.1958(12) 0.1340(8) 0.2397(12)
H19 H -0.1831 0.0967 0.2517
H20 H -0.2497 0.1373 0.2068
C34 C 0.1367(7) 0.2556(5) 0.0511(9)
C35 C 0.274(2) 0.236(2) 0.019(3)
C36 C 0.243(2) 0.222(2) -0.069(3)
C37 C 0.0734(6) 0.0613(3) 0.0079(5)
C38 C 0.0651(7) 0.0586(3) -0.0744(6)
C39 C -0.0071(7) 0.0697(3) -0.1434(5)
H21 H -0.0330 0.1030 -0.1358
H22 H -0.0457 0.0409 -0.1500
C40 C 0.0322(7) 0.0731(4) -0.2147(6)
H23 H 0.0425 0.1100 -0.2259
H24 H -0.0026 0.0576 -0.2619
C41 C 0.1114(8) 0.0416(4) -0.1913(6)
H25 H 0.1047 0.0051 -0.2108
H26 H 0.1532 0.0587 -0.2114
C42 C 0.1293(7) 0.0435(3) -0.1022(6)
C43 C 0.2005(7) 0.0315(4) -0.0437(7)
C44 C 0.3634(6) 0.0110(5) 0.0065(6)
C45 C 0.3851(8) 0.0564(4) 0.0499(8)
C46 C 0.4498(8) 0.0573(4) 0.1157(9)
C47 C 0.4954(7) 0.0124(5) 0.1388(7)
C48 C 0.4753(7) -0.0356(4) 0.0897(7)
C49 C 0.4113(7) -0.0357(4) 0.0251(7)
C50 C 0.4565(18) -0.1886(11) 0.0205(18)
C51 C 0.3739(19) -0.2143(13) -0.002(2)
N1 N 0.4664(5) 0.0362(3) 0.2944(5)
N2 N 0.4405(4) 0.0508(3) 0.3587(5)
N3 N 0.2250(5) 0.2669(2) 0.3377(4)
N4 N 0.1612(4) 0.2668(2) 0.2739(5)
N5 N 0.1420(5) 0.0509(3) 0.0593(4)
N6 N 0.2064(5) 0.0366(3) 0.0346(5)
O1 O 0.3600(5) 0.0868(3) 0.6155(4)
O2 O 0.2959(6) 0.1621(3) 0.6338(6)
O3 O 0.3875(9) 0.2633(7) 0.2970(9)
O4 O 0.4914(7) 0.2913(4) 0.3705(5)
O5 O 0.1341(19) 0.2973(7) 0.024(2)
O6 O 0.1938(11) 0.2209(5) 0.0320(17)
O7 O -0.1344(6) 0.1617(3) 0.2037(6)
O8 O -0.1159(4) 0.0868(3) 0.1397(5)
O9 O 0.4535(7) -0.1300(3) 0.0499(7)
S1 S 0.5808(2) 0.00698(19) 0.2193(2)
S2 S 0.45030(14) 0.07336(8) 0.51030(14)
S3 S 0.33659(19) 0.31552(9) 0.45301(18)
S4 S 0.04685(18) 0.31551(9) 0.16246(18)
S5 S -0.01090(14) 0.07343(8) 0.04914(14)
S6 S 0.2814(2) 0.00655(18) -0.0791(2)
O10 O 0.3795(7) 0.1460(3) 0.1207(7)
O11 O 0.5251(12) 0.1311(6) 0.1680(14)
C52 C 0.542(4) 0.198(2) 0.193(2)
C53 C 0.582(3) 0.1834(13) 0.277(3)
C54 C 0.4547(18) 0.1175(9) 0.1384(14)
C55 C 0.4086(15) -0.0913(9) -0.0111(17)
O12 O 0.3765(11) -0.0959(6) -0.0824(12)
C56 C 0.1749(19) 0.1775(12) 0.690(2)
H27 H 0.1446 0.1638 0.7252
H28 H 0.1415 0.1790 0.6365
H29 H 0.1938 0.2128 0.7062
C57 C -0.177(2) 0.1790(13) 0.3368(19)
H30 H -0.2120 0.1674 0.3698
H31 H -0.1889 0.2156 0.3218
H32 H -0.1228 0.1757 0.3659
C58 C 0.2700(7) 0.1281(8) 0.2267(8)
H33 H 0.3159 0.1053 0.2331
H34 H 0.2871 0.1642 0.2396
H35 H 0.2394 0.1265 0.1724
C59 C 0.1336(6) 0.1303(4) 0.2499(7)
H36 H 0.1344 0.1690 0.2459
H37 H 0.1117 0.1159 0.1970
C60 C 0.2505(7) 0.1294(4) 0.3637(6)
H38 H 0.3032 0.1143 0.3852
H39 H 0.2556 0.1680 0.3630
C61 C 0.2104(8) 0.0480(4) 0.2887(8)
H40 H 0.1893 0.0332 0.2360
H41 H 0.2630 0.0327 0.3095
C62 C 0.1196(9) 0.1354(9) 0.3783(8)
H42 H 0.0853 0.1258 0.4133
H43 H 0.1216 0.1741 0.3760
C63 C 0.1956(12) 0.0591(7) 0.4164(9)
H44 H 0.1628 0.0495 0.4527
H45 H 0.2488 0.0450 0.4378
C64 C 0.0844(9) 0.0579(8) 0.3030(11)
H46 H 0.0649 0.0445 0.2492
H47 H 0.0470 0.0467 0.3339
N7 N 0.2184(4) 0.1095(3) 0.2819(4)
N8 N 0.1996(7) 0.1150(6) 0.4117(6)
N9 N 0.0860(6) 0.1152(6) 0.3007(7)
N10 N 0.1615(11) 0.0340(5) 0.3372(12)
F1 F -0.0921(8) 0.1871(5) 0.5012(8)
F2 F -0.0703(8) 0.1041(5) 0.5641(7)
F3 F 0.0108(6) 0.1725(4) 0.6204(5)
F4 F 0.0435(8) 0.1896(5) 0.5034(7)
F5 F -0.0479(8) 0.1218(5) 0.4396(7)
F6 F 0.0652(8) 0.1107(5) 0.5567(8)
P1 P -0.0166(6) 0.1476(4) 0.5271(5)
C65? C 0.483(4) 0.236(3) 0.232(4)
C66? C 0.567(3) 0.213(2) 0.249(3)
C67? C 0.506(2) -0.2037(13) 0.106(2)
C68? C 0.298(4) 0.198(3) -0.057(4)
C69? C 0.244(5) 0.1833(13) -0.064(5)
O13? O 0.4706(19) 0.2218(6) 0.3099(12)
O14? O 0.1274(15) 0.2829(14) -0.0029(13)
C70? C 0.310(3) 0.3369(11) 0.168(2)
O15? O 0.2043(9) 0.2638(7) 0.1139(10)
C71? C 0.2737(14) 0.2967(11) 0.1023(19)
C72? C 0.3642(13) 0.1174(10) 0.0506(16)
O16? O 0.3330(14) 0.1314(6) -0.0211(12)
C73? C 0.5121(18) -0.0922(10) 0.0904(15)
O17? O 0.5836(12) -0.0964(6) 0.1255(11)
loop_
_geom_bond_atom_site_label_1
_geom_bond_atom_site_label_2
_geom_bond_site_symmetry_1
_geom_bond_site_symmetry_2
C1 C2 1_555 1_555
C2 C3 1_555 1_555
C3 H1 1_555 1_555
H2 C3 1_555 1_555
C4 C3 1_555 1_555
H3 C4 1_555 1_555
H4 C4 1_555 1_555
C5 C4 1_555 1_555
H5 C5 1_555 1_555
H6 C5 1_555 1_555
C6 C2 1_555 1_555
C7 C6 1_555 1_555
C8 C9 1_555 1_555
C9 C10 1_555 1_555
C10 H7 1_555 1_555
C11 C10 1_555 1_555
C12 C11 1_555 1_555
C13 C8 1_555 1_555
H8 C13 1_555 1_555
C14 C9 1_555 1_555
C15 H9 1_555 1_555
H10 C15 1_555 1_555
C16 C12 1_555 1_555
C17 C18 1_555 1_555
C19 C20 1_555 1_555
C20 C21 1_555 1_555
C21 H11 1_555 1_555
H12 C21 1_555 1_555
C22 C21 1_555 1_555
H13 C22 1_555 1_555
H14 C22 1_555 1_555
C23 C22 1_555 1_555
H15 C23 1_555 1_555
H16 C23 1_555 1_555
C24 C20 1_555 1_555
C25 C24 1_555 1_555
C26 C27 1_555 1_555
C27 H17 1_555 1_555
C28 C27 1_555 1_555
C29 C28 1_555 1_555
C30 C29 1_555 1_555
H18 C30 1_555 1_555
C31 C26 1_555 1_555
C32 C28 1_555 1_555
C33 H19 1_555 1_555
H20 C33 1_555 1_555
C34 C31 1_555 1_555
C35 C36 1_555 1_555
C37 C38 1_555 1_555
C38 C39 1_555 1_555
C39 H21 1_555 1_555
H22 C39 1_555 1_555
C40 C39 1_555 1_555
H23 C40 1_555 1_555
H24 C40 1_555 1_555
C41 C40 1_555 1_555
H25 C41 1_555 1_555
H26 C41 1_555 1_555
C42 C38 1_555 1_555
C43 C42 1_555 1_555
C44 C45 1_555 1_555
C45 C46 1_555 1_555
C46 C47 1_555 1_555
C47 C48 1_555 1_555
C48 C49 1_555 1_555
C49 C44 1_555 1_555
C50 C51 1_555 1_555
N1 C1 1_555 1_555
N2 C7 1_555 1_555
N3 C19 1_555 1_555
N4 C25 1_555 1_555
N5 C37 1_555 1_555
N6 C43 1_555 1_555
O1 C14 1_555 1_555
O2 C14 1_555 1_555
O3 C16 1_555 1_555
O4 C16 1_555 1_555
O5 C34 1_555 1_555
O6 C34 1_555 1_555
O7 C32 1_555 1_555
O8 C32 1_555 1_555
O9 C50 1_555 1_555
S1 C1 1_555 1_555
S2 C7 1_555 1_555
S3 C11 1_555 1_555
S4 C25 1_555 1_555
S5 C29 1_555 1_555
S6 C43 1_555 1_555
O10 C54 1_555 1_555
O11 C52 1_555 1_555
C52 C53 1_555 1_555
C54 C46 1_555 1_555
C55 C49 1_555 1_555
O12 C55 1_555 1_555
C56 C15 1_555 1_555
H27 C56 1_555 1_555
H28 C56 1_555 1_555
H29 C56 1_555 1_555
C57 C33 1_555 1_555
H30 C57 1_555 1_555
H31 C57 1_555 1_555
H32 C57 1_555 1_555
C58 H33 1_555 1_555
H34 C58 1_555 1_555
H35 C58 1_555 1_555
C59 H36 1_555 1_555
H37 C59 1_555 1_555
C60 H38 1_555 1_555
H39 C60 1_555 1_555
C61 H40 1_555 1_555
H41 C61 1_555 1_555
C62 H42 1_555 1_555
H43 C62 1_555 1_555
C63 H44 1_555 1_555
H45 C63 1_555 1_555
C64 H46 1_555 1_555
H47 C64 1_555 1_555
N7 C58 1_555 1_555
N8 C60 1_555 1_555
N9 C59 1_555 1_555
N10 C61 1_555 1_555
F1 P1 1_555 1_555
F2 P1 1_555 1_555
F3 P1 1_555 1_555
F4 P1 1_555 1_555
F5 P1 1_555 1_555
F6 P1 1_555 1_555
C5 C6 1_555 1_555
C8 S2 1_555 1_555
C12 C13 1_555 1_555
C15 O2 1_555 1_555
C17 O3 1_555 1_555
C19 S3 1_555 1_555
C23 C24 1_555 1_555
C26 S4 1_555 1_555
C30 C31 1_555 1_555
C33 O7 1_555 1_555
C35 O6 1_555 1_555
C37 S5 1_555 1_555
C41 C42 1_555 1_555
C44 S6 1_555 1_555
C47 S1 1_555 1_555
N1 N2 1_555 1_555
N3 N4 1_555 1_555
N5 N6 1_555 1_555
O9 C55 1_555 1_555
O11 C54 1_555 1_555
C59 N7 1_555 1_555
C60 N7 1_555 1_555
C61 N7 1_555 1_555
C62 N8 1_555 1_555
C62 N9 1_555 1_555
C63 N8 1_555 1_555
C63 N10 1_555 1_555
C64 N9 1_555 1_555
C64 N10 1_555 1_555

#END
