
#######################################################################
#
#                 Cambridge Crystallographic Data Centre
#                                CCDC 
#
#######################################################################
#
# If this CIF has been generated from an entry in the Cambridge 
# Structural Database, then it will include bibliographic, chemical, 
# crystal, experimental, refinement or atomic coordinate data resulting 
# from the CCDC's data processing and validation procedures.
#
#######################################################################

data_ESIJUN
_chemical_formula_moiety         'C25 H16 F12 N1 O2 1+,Cl1 1-'
_chemical_name_systematic        
'N-(3,5-bis(trifluoromethyl)benzyl)-3-(((3,5-bis(trifluoromethyl)benzyl)oxy)carbonyl)anilinium chloride'
_symmetry_cell_setting           monoclinic
_symmetry_space_group_name_H-M   'P 21/c'
_symmetry_Int_Tables_number      14
_space_group_name_Hall           '-P 2ybc'
loop_
_symmetry_equiv_pos_site_id
_symmetry_equiv_pos_as_xyz
1 x,y,z
2 -x,1/2+y,1/2-z
3 -x,-y,-z
4 x,1/2-y,1/2+z
_cell_length_a                   13.8167(10)
_cell_length_b                   8.3292(3)
_cell_length_c                   23.9181(16)
_cell_angle_alpha                90
_cell_angle_beta                 108.985(4)
_cell_angle_gamma                90
_cell_volume                     2602.82
_exptl_crystal_colour            colorless
_exptl_crystal_description       needle
_cell_formula_units_Z            4
loop_
_atom_site_label
_atom_site_type_symbol
_atom_site_fract_x
_atom_site_fract_y
_atom_site_fract_z
F1 F 0.7645(8) 0.5857(12) 0.1234(6)
F2 F 0.8806(14) 0.5956(16) 0.0810(5)
F3 F 0.9023(9) 0.4546(10) 0.1562(4)
F4 F 0.4717(2) 0.2525(4) 0.01629(15)
F5 F 0.4847(2) 0.1002(4) -0.05295(14)
F6 F 0.4889(3) 0.3555(4) -0.06126(17)
F7 F 0.0530(4) -0.5594(6) -0.3010(2)
F8 F 0.0210(4) -0.3653(7) -0.3562(3)
F9 F 0.1358(4) -0.5214(7) -0.3590(2)
F10 F 0.1119(4) 0.1122(6) -0.2405(3)
F11 F 0.2681(5) 0.1585(6) -0.2224(3)
F12 F 0.2102(6) 0.0836(7) -0.1558(3)
O1 O 0.9487(3) -0.2779(4) -0.01778(17)
O2 O 0.8079(2) -0.1308(4) -0.02826(15)
N1 N 0.5230(3) -0.3660(4) -0.18869(16)
H1 H 0.5086 -0.4129 -0.2209
H2 H 0.5322 -0.2507 -0.1854
C1 C 0.7421(4) -0.6415(6) -0.1164(2)
H3 H 0.7595 -0.7519 -0.1165
C2 C 0.8120(4) -0.5348(6) -0.0803(2)
H4 H 0.8779 -0.5709 -0.0569
C3 C 0.7848(4) -0.3747(5) -0.0786(2)
C4 C 0.6893(3) -0.3202(5) -0.1145(2)
H5 H 0.6707 -0.2107 -0.1135
C5 C 0.6221(4) -0.4272(5) -0.1514(2)
C6 C 0.6469(4) -0.5880(6) -0.1524(2)
H6 H 0.5994 -0.6610 -0.1774
C7 C 0.8578(4) -0.2607(5) -0.0390(2)
C8 C 0.8686(4) -0.0122(6) 0.0102(3)
H7 H 0.9170 0.0360 -0.0077
H8 H 0.9088 -0.0621 0.0483
C9 C 0.7996(4) 0.1155(6) 0.0208(2)
C10 C 0.8445(4) 0.2440(6) 0.0566(2)
H9 H 0.9167 0.2468 0.0748
C11 C 0.7856(5) 0.3675(6) 0.0661(2)
C12 C 0.6795(4) 0.3638(6) 0.0403(2)
H10 H 0.6386 0.4489 0.0467
C13 C 0.6348(4) 0.2348(6) 0.0051(2)
C14 C 0.6940(4) 0.1101(6) -0.0053(2)
H11 H 0.6625 0.0224 -0.0299
C15 C 0.8345(6) 0.5065(8) 0.1039(3)
C16 C 0.5214(4) 0.2341(6) -0.0232(2)
C17 C 0.4374(4) -0.4092(6) -0.1654(2)
H12 H 0.4294 -0.5274 -0.1659
H13 H 0.4552 -0.3728 -0.1238
C18 C 0.3377(4) -0.3340(6) -0.2014(2)
C19 C 0.3147(4) -0.1770(6) -0.1916(2)
H14 H 0.3625 -0.1157 -0.1616
C20 C 0.2231(5) -0.1086(7) -0.2247(3)
C21 C 0.1514(4) -0.1958(7) -0.2673(3)
H15 H 0.0878 -0.1490 -0.2894
C22 C 0.1739(4) -0.3541(7) -0.2773(2)
C23 C 0.2660(4) -0.4225(6) -0.2449(2)
H16 H 0.2806 -0.5304 -0.2523
C24 C 0.0984(5) -0.4509(8) -0.3229(3)
C25 C 0.2018(7) 0.0605(9) -0.2129(5)
Cl1 Cl 0.54382(9) 0.00512(14) -0.18628(5)
F13? F 0.8026(15) 0.6528(12) 0.0723(6)
F14? F 0.9391(11) 0.5243(19) 0.1092(9)
F15? F 0.8236(19) 0.525(2) 0.1496(7)
loop_
_geom_bond_atom_site_label_1
_geom_bond_atom_site_label_2
_geom_bond_site_symmetry_1
_geom_bond_site_symmetry_2
F1 C15 1_555 1_555
F2 C15 1_555 1_555
F3 C15 1_555 1_555
F4 C16 1_555 1_555
F5 C16 1_555 1_555
F6 C16 1_555 1_555
F7 C24 1_555 1_555
F8 C24 1_555 1_555
F9 C24 1_555 1_555
F10 C25 1_555 1_555
F11 C25 1_555 1_555
F12 C25 1_555 1_555
O1 C7 1_555 1_555
O2 C7 1_555 1_555
N1 H1 1_555 1_555
H2 N1 1_555 1_555
C1 H3 1_555 1_555
C2 C1 1_555 1_555
H4 C2 1_555 1_555
C3 C2 1_555 1_555
C4 C3 1_555 1_555
H5 C4 1_555 1_555
C5 N1 1_555 1_555
C6 C1 1_555 1_555
H6 C6 1_555 1_555
C7 C3 1_555 1_555
C8 O2 1_555 1_555
H7 C8 1_555 1_555
H8 C8 1_555 1_555
C9 C8 1_555 1_555
C10 C9 1_555 1_555
H9 C10 1_555 1_555
C11 C10 1_555 1_555
C12 C11 1_555 1_555
H10 C12 1_555 1_555
C13 C12 1_555 1_555
C14 C9 1_555 1_555
H11 C14 1_555 1_555
C15 C11 1_555 1_555
C16 C13 1_555 1_555
C17 N1 1_555 1_555
H12 C17 1_555 1_555
H13 C17 1_555 1_555
C18 C17 1_555 1_555
C19 C18 1_555 1_555
H14 C19 1_555 1_555
C20 C19 1_555 1_555
C21 C20 1_555 1_555
H15 C21 1_555 1_555
C22 C21 1_555 1_555
C23 C18 1_555 1_555
H16 C23 1_555 1_555
C24 C22 1_555 1_555
C25 C20 1_555 1_555
C4 C5 1_555 1_555
C5 C6 1_555 1_555
C13 C14 1_555 1_555
C22 C23 1_555 1_555

#END
