
#######################################################################
#
#                 Cambridge Crystallographic Data Centre
#                                CCDC 
#
#######################################################################
#
# If this CIF has been generated from an entry in the Cambridge 
# Structural Database, then it will include bibliographic, chemical, 
# crystal, experimental, refinement or atomic coordinate data resulting 
# from the CCDC's data processing and validation procedures.
#
#######################################################################

data_ESIKUO
_chemical_formula_moiety         'C16 H36 N1 1+,C18 H6 F12 N1 O2 1-'
_chemical_name_systematic        
'tetrabutylammonium bis(3,5-bis(trifluoromethyl)benzoyl)azanide'
_symmetry_cell_setting           triclinic
_symmetry_space_group_name_H-M   'P -1'
_symmetry_Int_Tables_number      2
_space_group_name_Hall           '-P 1'
loop_
_symmetry_equiv_pos_site_id
_symmetry_equiv_pos_as_xyz
1 x,y,z
2 -x,-y,-z
_cell_length_a                   12.5337(4)
_cell_length_b                   12.8316(4)
_cell_length_c                   13.2154(4)
_cell_angle_alpha                66.329(2)
_cell_angle_beta                 81.173(2)
_cell_angle_gamma                71.491(2)
_cell_volume                     1845.06
_exptl_crystal_colour            colorless
_exptl_crystal_description       block
_cell_formula_units_Z            2
loop_
_atom_site_label
_atom_site_type_symbol
_atom_site_fract_x
_atom_site_fract_y
_atom_site_fract_z
F7 F -0.0967(7) 0.7921(7) 1.0047(6)
F8 F -0.2546(3) 0.9128(5) 0.9770(4)
F9 F -0.1134(7) 0.9638(6) 0.8911(4)
F10 F 0.4725(5) 0.1203(5) 0.9417(9)
F11 F 0.5983(6) 0.1802(5) 0.9681(5)
F12 F 0.5918(5) 0.1734(4) 0.8168(4)
F13 F 0.5688(3) 0.6083(4) 0.7799(5)
F14 F 0.4113(3) 0.7299(2) 0.7164(5)
F15 F 0.4367(5) 0.6540(5) 0.8865(4)
F16 F -0.4156(5) 1.0357(4) 0.5907(6)
F17 F -0.4102(3) 0.8698(4) 0.5752(4)
F18 F -0.4820(3) 0.9059(6) 0.7131(5)
O1 O 0.12857(14) 0.39601(16) 0.74712(16)
O2 O -0.03792(13) 0.60558(15) 0.61784(12)
N1 N 0.08235(15) 0.58741(17) 0.74554(15)
C1 C 0.26973(17) 0.45772(19) 0.78705(17)
C2 C 0.33911(19) 0.3424(2) 0.82706(19)
H1 H 0.3127 0.2787 0.8322
C3 C 0.4470(2) 0.3194(2) 0.8597(2)
C4 C 0.48687(19) 0.4115(2) 0.8515(2)
H2 H 0.5604 0.3957 0.8746
C5 C 0.41845(19) 0.5270(2) 0.8091(2)
C6 C 0.31011(18) 0.5498(2) 0.77779(18)
H3 H 0.2634 0.6292 0.7498
C7 C 0.5205(3) 0.1950(3) 0.9030(3)
C8 C 0.4607(2) 0.6269(3) 0.8002(3)
C9 C 0.15130(18) 0.4792(2) 0.75498(17)
C10 C -0.01502(17) 0.6307(2) 0.69172(17)
C11 C -0.10182(18) 0.7267(2) 0.72302(17)
C12 C -0.0846(2) 0.7592(2) 0.80600(18)
H4 H -0.0153 0.7233 0.8431
C13 C -0.1687(2) 0.8443(2) 0.8350(2)
C14 C -0.2699(2) 0.8981(2) 0.7806(2)
H5 H -0.3272 0.9563 0.8005
C15 C -0.2864(2) 0.8665(2) 0.6975(2)
C16 C -0.20300(19) 0.7814(2) 0.6682(2)
H6 H -0.2151 0.7604 0.6105
C17 C -0.1491(3) 0.8791(3) 0.9238(3)
C18 C -0.3934(2) 0.9255(3) 0.6332(4)
N2 N 0.87206(15) 0.31223(17) 0.65753(14)
C19 C 0.8305(2) 0.2249(2) 0.63534(19)
H7 H 0.7472 0.2512 0.6367
H8 H 0.8540 0.1467 0.6964
C20 C 0.8716(2) 0.2093(2) 0.5268(2)
H9 H 0.9545 0.1768 0.5264
H10 H 0.8516 0.2873 0.4648
C21 C 0.8182(3) 0.1252(3) 0.5112(3)
H11 H 0.8334 0.0498 0.5765
H12 H 0.7356 0.1608 0.5073
C22 C 0.8612(3) 0.0989(3) 0.4089(3)
H13 H 0.8221 0.0471 0.4018
H14 H 0.9422 0.0591 0.4142
H15 H 0.8474 0.1732 0.3439
C23 C 0.8258(2) 0.3092(2) 0.77210(18)
H16 H 0.7432 0.3241 0.7738
H17 H 0.8574 0.2284 0.8269
C24 C 0.8504(2) 0.3973(2) 0.80746(18)
H18 H 0.8051 0.4783 0.7639
H19 H 0.9309 0.3943 0.7920
C25 C 0.8234(2) 0.3711(3) 0.9302(2)
H20 H 0.7427 0.3748 0.9456
H21 H 0.8683 0.2899 0.9739
C26 C 0.8493(3) 0.4597(3) 0.9649(2)
H22 H 0.8400 0.4356 1.0453
H23 H 0.7976 0.5386 0.9292
H24 H 0.9270 0.4622 0.9426
C27 C 1.00012(18) 0.2792(2) 0.65303(18)
H25 H 1.0268 0.2830 0.5775
H26 H 1.0234 0.3394 0.6662
C28 C 1.0584(2) 0.1580(2) 0.7345(2)
H27 H 1.0308 0.0973 0.7270
H28 H 1.0398 0.1560 0.8107
C29 C 1.1854(2) 0.1286(3) 0.7151(3)
H29 H 1.2124 0.1904 0.7212
H30 H 1.2036 0.1299 0.6391
C30 C 1.2468(3) 0.0079(3) 0.7969(3)
H31 H 1.2296 0.0063 0.8723
H32 H 1.3281 -0.0064 0.7817
H33 H 1.2224 -0.0539 0.7894
C31 C 0.83165(19) 0.4370(2) 0.57068(17)
H34 H 0.8546 0.4921 0.5921
H35 H 0.8705 0.4379 0.4993
C32 C 0.7055(2) 0.4834(2) 0.5533(2)
H36 H 0.6836 0.4391 0.5174
H37 H 0.6650 0.4704 0.6258
C33 C 0.6720(3) 0.6142(3) 0.4821(2)
H38 H 0.7185 0.6278 0.4129
H39 H 0.6877 0.6588 0.5215
C34 C 0.5481(3) 0.6618(3) 0.4534(3)
H40 H 0.5016 0.6497 0.5216
H41 H 0.5325 0.6195 0.4125
H42 H 0.5307 0.7467 0.4077
F1? F 0.6246(4) 0.1842(5) 0.9112(7)
F2? F 0.4999(6) 0.1226(4) 0.8643(5)
F3? F 0.4918(5) 0.1386(4) 1.0153(4)
F4? F 0.5453(13) 0.6366(12) 0.7317(10)
F5? F 0.3916(8) 0.7138(10) 0.8021(14)
F6? F 0.5157(13) 0.5908(12) 0.9020(10)
F19? F -0.4511(5) 1.0250(6) 0.6563(6)
F20? F -0.3701(4) 0.9867(6) 0.5201(4)
F21? F -0.4541(7) 0.8726(7) 0.6496(9)
F22? F -0.1378(11) 0.8027(11) 1.0204(8)
F23? F -0.2001(7) 0.9886(6) 0.9162(6)
F24? F -0.0324(6) 0.9007(6) 0.9049(5)
loop_
_geom_bond_atom_site_label_1
_geom_bond_atom_site_label_2
_geom_bond_site_symmetry_1
_geom_bond_site_symmetry_2
F7 C17 1_555 1_555
F8 C17 1_555 1_555
F9 C17 1_555 1_555
F10 C7 1_555 1_555
F11 C7 1_555 1_555
F12 C7 1_555 1_555
F13 C8 1_555 1_555
F14 C8 1_555 1_555
F15 C8 1_555 1_555
F16 C18 1_555 1_555
F17 C18 1_555 1_555
F18 C18 1_555 1_555
O1 C9 1_555 1_555
O2 C10 1_555 1_555
N1 C9 1_555 1_555
C1 C2 1_555 1_555
C2 H1 1_555 1_555
C3 C2 1_555 1_555
C4 C3 1_555 1_555
H2 C4 1_555 1_555
C5 C4 1_555 1_555
C6 C1 1_555 1_555
H3 C6 1_555 1_555
C7 C3 1_555 1_555
C8 C5 1_555 1_555
C9 C1 1_555 1_555
C10 N1 1_555 1_555
C11 C10 1_555 1_555
C12 C11 1_555 1_555
H4 C12 1_555 1_555
C13 C12 1_555 1_555
C14 C13 1_555 1_555
H5 C14 1_555 1_555
C15 C14 1_555 1_555
C16 C11 1_555 1_555
H6 C16 1_555 1_555
C17 C13 1_555 1_555
C18 C15 1_555 1_555
N2 C19 1_555 1_555
C19 H7 1_555 1_555
H8 C19 1_555 1_555
C20 C19 1_555 1_555
H9 C20 1_555 1_555
H10 C20 1_555 1_555
C21 C20 1_555 1_555
H11 C21 1_555 1_555
H12 C21 1_555 1_555
C22 C21 1_555 1_555
H13 C22 1_555 1_555
H14 C22 1_555 1_555
H15 C22 1_555 1_555
C23 N2 1_555 1_555
H16 C23 1_555 1_555
H17 C23 1_555 1_555
C24 C23 1_555 1_555
H18 C24 1_555 1_555
H19 C24 1_555 1_555
C25 C24 1_555 1_555
H20 C25 1_555 1_555
H21 C25 1_555 1_555
C26 C25 1_555 1_555
H22 C26 1_555 1_555
H23 C26 1_555 1_555
H24 C26 1_555 1_555
C27 N2 1_555 1_555
H25 C27 1_555 1_555
H26 C27 1_555 1_555
C28 C27 1_555 1_555
H27 C28 1_555 1_555
H28 C28 1_555 1_555
C29 C28 1_555 1_555
H29 C29 1_555 1_555
H30 C29 1_555 1_555
C30 C29 1_555 1_555
H31 C30 1_555 1_555
H32 C30 1_555 1_555
H33 C30 1_555 1_555
C31 N2 1_555 1_555
H34 C31 1_555 1_555
H35 C31 1_555 1_555
C32 C31 1_555 1_555
H36 C32 1_555 1_555
H37 C32 1_555 1_555
C33 C32 1_555 1_555
H38 C33 1_555 1_555
H39 C33 1_555 1_555
C34 C33 1_555 1_555
H40 C34 1_555 1_555
H41 C34 1_555 1_555
H42 C34 1_555 1_555
C5 C6 1_555 1_555
C15 C16 1_555 1_555

#END
