
#######################################################################
#
#                 Cambridge Crystallographic Data Centre
#                                CCDC 
#
#######################################################################
#
# If this CIF has been generated from an entry in the Cambridge 
# Structural Database, then it will include bibliographic, chemical, 
# crystal, experimental, refinement or atomic coordinate data resulting 
# from the CCDC's data processing and validation procedures.
#
#######################################################################

data_ESIRUU
_chemical_formula_moiety         'C16 H15 N4 1+,C1 F3 O3 S1 1-,H2 O1'
_chemical_name_systematic        
'2-(2-Pyridyl(2-pyridylmethyl)amino)pyridinium trifluoromethanesulfonate monohydrate'
_symmetry_cell_setting           triclinic
_symmetry_space_group_name_H-M   'P -1'
_symmetry_Int_Tables_number      2
_space_group_name_Hall           '-P 1'
loop_
_symmetry_equiv_pos_site_id
_symmetry_equiv_pos_as_xyz
1 x,y,z
2 -x,-y,-z
_cell_length_a                   9.2409(18)
_cell_length_b                   9.5985(19)
_cell_length_c                   10.721(2)
_cell_angle_alpha                75.35(3)
_cell_angle_beta                 83.59(3)
_cell_angle_gamma                88.29(3)
_cell_volume                     914.271
_exptl_crystal_colour            colorless
_exptl_crystal_description       block
_cell_formula_units_Z            2
loop_
_atom_site_label
_atom_site_type_symbol
_atom_site_fract_x
_atom_site_fract_y
_atom_site_fract_z
C1 C 0.86715(19) 0.6009(2) 0.7305(2)
H1 H 0.8460 0.4979 0.7711
H2 H 0.9504 0.6059 0.6629
C2 C 0.73523(19) 0.66967(19) 0.6661(2)
C3 C 0.6556(2) 0.7785(2) 0.7052(2)
H3 H 0.6814 0.8144 0.7746
C4 C 0.5365(2) 0.8334(2) 0.6396(3)
H4 H 0.4796 0.9087 0.6632
C5 C 0.5019(2) 0.7787(2) 0.5412(3)
H5 H 0.4203 0.8140 0.4960
C6 C 0.5880(2) 0.6710(3) 0.5088(3)
H6 H 0.5641 0.6333 0.4399
C7 C 0.84785(18) 0.61348(19) 0.9579(2)
C8 C 0.7331(2) 0.5145(2) 0.9880(2)
H7 H 0.6911 0.4857 0.9215
C9 C 0.6828(2) 0.4603(2) 1.1161(3)
H8 H 0.6063 0.3916 1.1389
C10 C 0.7421(2) 0.5043(3) 1.2116(3)
H9 H 0.7089 0.4660 1.3006
C11 C 0.8509(2) 0.6055(2) 1.1744(2)
H10 H 0.8907 0.6392 1.2394
C12 C 1.00299(17) 0.78344(19) 0.7884(2)
C13 C 1.0459(2) 0.8454(2) 0.6560(2)
H11 H 1.0117 0.8070 0.5913
C14 C 1.1375(2) 0.9618(2) 0.6216(2)
H12 H 1.1680 1.0029 0.5326
C15 C 1.1861(2) 1.0203(2) 0.7147(2)
H13 H 1.2473 1.1027 0.6906
C16 C 1.1442(2) 0.9569(2) 0.8419(2)
H14 H 1.1769 0.9949 0.9075
N1 N 0.90965(16) 0.66766(16) 0.82902(17)
N2 N 0.7036(2) 0.61654(19) 0.5696(2)
N3 N 0.90326(16) 0.65859(17) 1.04985(18)
N4 N 1.05640(16) 0.84032(18) 0.87523(19)
H15 H 1.035(4) 0.792(4) 0.953(4)
C17 C 0.5811(2) 0.1926(2) 0.8507(3)
F1 F 0.47397(15) 0.1200(2) 0.8234(2)
F2 F 0.57462(18) 0.32817(16) 0.7785(2)
F3 F 0.55609(17) 0.19623(19) 0.97320(18)
O1 O 0.76372(19) 0.12094(18) 0.68073(16)
O2 O 0.74885(18) -0.02857(16) 0.89946(18)
O3 O 0.85506(17) 0.20887(19) 0.8499(2)
S1 S 0.75752(5) 0.11435(5) 0.81612(5)
O4 O 0.8713(4) 0.3797(3) 0.5046(3)
H16 H 0.831(5) 0.301(5) 0.568(5)
H17 H 0.835(4) 0.444(4) 0.523(4)
loop_
_geom_bond_atom_site_label_1
_geom_bond_atom_site_label_2
_geom_bond_site_symmetry_1
_geom_bond_site_symmetry_2
C1 H1 1_555 1_555
H2 C1 1_555 1_555
C2 C1 1_555 1_555
C3 C2 1_555 1_555
H3 C3 1_555 1_555
C4 C3 1_555 1_555
H4 C4 1_555 1_555
C5 C4 1_555 1_555
H5 C5 1_555 1_555
C6 C5 1_555 1_555
H6 C6 1_555 1_555
C7 C8 1_555 1_555
C8 H7 1_555 1_555
C9 C8 1_555 1_555
H8 C9 1_555 1_555
C10 C9 1_555 1_555
H9 C10 1_555 1_555
C11 C10 1_555 1_555
H10 C11 1_555 1_555
C12 C13 1_555 1_555
C13 H11 1_555 1_555
C14 C13 1_555 1_555
H12 C14 1_555 1_555
C15 C14 1_555 1_555
H13 C15 1_555 1_555
C16 C15 1_555 1_555
H14 C16 1_555 1_555
C17 F1 1_555 1_555
F2 C17 1_555 1_555
F3 C17 1_555 1_555
N1 C1 1_555 1_555
N2 C2 1_555 1_555
N3 C7 1_555 1_555
N4 C12 1_555 1_555
H15 N4 1_555 1_555
O1 S1 1_555 1_555
O2 S1 1_555 1_555
O3 S1 1_555 1_555
O4 H16 1_555 1_555
H17 O4 1_555 1_555
S1 C17 1_555 1_555
C6 N2 1_555 1_555
C7 N1 1_555 1_555
C11 N3 1_555 1_555
C12 N1 1_555 1_555
C16 N4 1_555 1_555

#END
