
#######################################################################
#
#                 Cambridge Crystallographic Data Centre
#                                CCDC 
#
#######################################################################
#
# If this CIF has been generated from an entry in the Cambridge 
# Structural Database, then it will include bibliographic, chemical, 
# crystal, experimental, refinement or atomic coordinate data resulting 
# from the CCDC's data processing and validation procedures.
#
#######################################################################

data_ESIWUZ
_chemical_formula_moiety         'C33 H27 N21'
_chemical_name_systematic        
2,4,6-tris(Tri-1H-pyrazol-1-ylmethyl)-1,3,5-triazine
_symmetry_cell_setting           triclinic
_symmetry_space_group_name_H-M   'P -1'
_symmetry_Int_Tables_number      2
_space_group_name_Hall           '-P 1'
loop_
_symmetry_equiv_pos_site_id
_symmetry_equiv_pos_as_xyz
1 x,y,z
2 -x,-y,-z
_cell_length_a                   8.8379(5)
_cell_length_b                   11.6404(7)
_cell_length_c                   18.3088(11)
_cell_angle_alpha                80.857(1)
_cell_angle_beta                 85.384(1)
_cell_angle_gamma                67.977(1)
_cell_volume                     1723.48
_exptl_crystal_colour            colorless
_exptl_crystal_description       parallelepiped
_chemical_melting_point          '177-179 deg.C (dec.)'
_cell_formula_units_Z            2
_exptl_crystal_recrystallization_method acetone
loop_
_atom_site_label
_atom_site_type_symbol
_atom_site_fract_x
_atom_site_fract_y
_atom_site_fract_z
N1 N 0.1167(3) 0.9509(2) 0.31319(12)
N2 N 0.2006(3) 0.9563(2) 0.18728(13)
N3 N 0.2927(3) 0.7673(2) 0.26840(13)
C1 C 0.1207(3) 1.0082(3) 0.24515(15)
C2 C 0.2058(3) 0.8293(3) 0.32157(15)
C3 C 0.2834(4) 0.8353(3) 0.20271(15)
C4 C 0.2033(3) 0.7537(3) 0.39855(15)
C5 C 0.0147(4) 1.1487(3) 0.23200(17)
C6 C 0.3816(4) 0.7634(3) 0.13962(16)
C7 C 0.3215(4) 0.8842(4) 0.44309(18)
H1 H 0.3855 0.8912 0.4010
C8 C 0.2098(5) 0.9021(4) 0.5550(2)
H2 H 0.1851 0.9255 0.6021
C9 C -0.1263(5) 0.6587(4) 0.4551(2)
H3 H -0.1797 0.6135 0.4858
C10 C -0.0769(4) 0.7834(3) 0.3626(2)
H4 H -0.0852 0.8381 0.3189
C11 C 0.0499(9) 1.3700(5) 0.3291(3)
H5 H 0.0169 1.4507 0.3410
C12 C -0.0298(6) 1.3345(3) 0.2864(2)
H6 H -0.1249 1.3846 0.2614
C13 C -0.3480(5) 1.0968(5) 0.2308(2)
H7 H -0.4074 1.0469 0.2271
C14 C -0.1888(5) 0.7382(4) 0.3923(3)
H8 H -0.2915 0.7573 0.3737
C15 C 0.4917(4) 0.6114(4) 0.4173(2)
H9 H 0.5311 0.6663 0.4337
C16 C -0.2930(6) 1.2597(4) 0.2403(3)
H10 H -0.3010 1.3408 0.2433
C17 C 0.2668(6) 0.4951(4) 0.1475(3)
H11 H 0.2230 0.4348 0.1661
C18 C 0.4733(6) 0.4516(4) 0.3793(3)
H12 H 0.5029 0.3725 0.3653
C19 C 0.3398(14) 0.5125(6) 0.0796(4)
H13 H 0.3565 0.4603 0.0437
C20 C 0.3130(5) 0.9316(4) 0.5048(2)
H14 H 0.3719 0.9799 0.5125
C21 C -0.4171(5) 1.2211(5) 0.2360(3)
H15 H -0.5280 1.2697 0.2365
C22 C 0.5802(5) 0.4956(5) 0.4023(3)
H16 H 0.6924 0.4540 0.4067
C23 C 0.1745(11) 1.2663(6) 0.0709(3)
H17 H 0.2535 1.2914 0.0441
C24 C 0.2300(7) 0.9512(4) -0.0274(3)
H18 H 0.1485 1.0012 -0.0603
C25 C 0.8093(9) 0.6210(10) 0.1638(6)
H19 H 0.9133 0.5596 0.1630
C26 C 0.7648(7) 0.7440(11) 0.1873(4)
H20 H 0.8384 0.7750 0.2023
C27 C 0.1873(8) 1.2743(6) 0.3541(3)
H21 H 0.2642 1.2777 0.3846
C28 C -0.0450(7) 1.2286(4) 0.0963(2)
H22 H -0.1441 1.2193 0.0930
C29 C 0.0418(11) 1.2671(6) 0.0410(3)
H23 H 0.0143 1.2899 -0.0087
C30 C 0.6757(7) 0.6142(6) 0.1445(3)
H24 H 0.6658 0.5485 0.1248
N4 N 0.3835(12) 0.6097(5) 0.0703(3)
C31 C 0.3853(10) 0.9222(12) -0.0392(3)
H25 H 0.4346 0.9451 -0.0829
C32 C 0.4628(7) 0.8546(10) 0.0214(3)
H26 H 0.5751 0.8221 0.0278
N5 N 0.0489(3) 0.7354(2) 0.40751(13)
N6 N 0.2179(3) 0.8240(2) 0.45452(13)
N7 N 0.3351(3) 0.6331(2) 0.40417(13)
N8 N -0.1532(3) 1.1568(2) 0.23927(15)
N9 N 0.3545(3) 0.8426(2) 0.06916(13)
N10 N 0.0412(4) 1.2063(2) 0.15731(16)
N11 N 0.0516(4) 1.2120(3) 0.28541(17)
N12 N -0.1865(4) 1.0550(3) 0.23151(16)
N13 N 0.1482(4) 0.8308(3) 0.52329(17)
N14 N 0.3366(4) 0.6566(3) 0.13343(16)
N15 N 0.0227(4) 0.6553(3) 0.46574(16)
N16 N 0.3184(4) 0.5356(3) 0.37907(19)
N17 N 0.1825(5) 1.2259(4) 0.1431(2)
N18 N 0.5527(4) 0.7214(4) 0.15845(16)
N19 N 0.1904(6) 1.1716(4) 0.3255(2)
C33 C 0.2756(5) 0.5877(4) 0.1795(2)
H27 H 0.2426 0.6009 0.2280
N20 N 0.6024(5) 0.8059(5) 0.1841(2)
N21 N 0.2074(4) 0.8969(4) 0.04011(19)
loop_
_geom_bond_atom_site_label_1
_geom_bond_atom_site_label_2
_geom_bond_site_symmetry_1
_geom_bond_site_symmetry_2
N1 C1 1_555 1_555
N2 C1 1_555 1_555
N3 C2 1_555 1_555
C1 C5 1_555 1_555
C2 N1 1_555 1_555
C3 N2 1_555 1_555
C4 C2 1_555 1_555
C5 N8 1_555 1_555
C6 C3 1_555 1_555
C7 H1 1_555 1_555
C8 H2 1_555 1_555
C9 H3 1_555 1_555
C10 H4 1_555 1_555
C11 H5 1_555 1_555
C12 C11 1_555 1_555
H6 C12 1_555 1_555
C13 H7 1_555 1_555
C14 C9 1_555 1_555
H8 C14 1_555 1_555
C15 H9 1_555 1_555
C16 H10 1_555 1_555
C17 H11 1_555 1_555
C18 H12 1_555 1_555
C19 C17 1_555 1_555
H13 C19 1_555 1_555
C20 C7 1_555 1_555
H14 C20 1_555 1_555
C21 C13 1_555 1_555
H15 C21 1_555 1_555
C22 C15 1_555 1_555
H16 C22 1_555 1_555
C23 H17 1_555 1_555
C24 H18 1_555 1_555
C25 H19 1_555 1_555
C26 C25 1_555 1_555
H20 C26 1_555 1_555
C27 C11 1_555 1_555
H21 C27 1_555 1_555
C28 H22 1_555 1_555
C29 C23 1_555 1_555
H23 C29 1_555 1_555
C30 C25 1_555 1_555
H24 C30 1_555 1_555
N4 C19 1_555 1_555
C31 C24 1_555 1_555
H25 C31 1_555 1_555
C32 C31 1_555 1_555
H26 C32 1_555 1_555
N5 C4 1_555 1_555
N6 C4 1_555 1_555
N7 C4 1_555 1_555
N8 C16 1_555 1_555
N9 C6 1_555 1_555
N10 C5 1_555 1_555
N11 C5 1_555 1_555
N12 C13 1_555 1_555
N13 C8 1_555 1_555
N14 C6 1_555 1_555
N15 C9 1_555 1_555
N16 C18 1_555 1_555
N17 C23 1_555 1_555
N18 C6 1_555 1_555
N19 C27 1_555 1_555
C33 C17 1_555 1_555
H27 C33 1_555 1_555
N20 C26 1_555 1_555
N21 C24 1_555 1_555
N3 C3 1_555 1_555
C7 N6 1_555 1_555
C8 C20 1_555 1_555
C10 C14 1_555 1_555
C10 N5 1_555 1_555
C12 N11 1_555 1_555
C15 N7 1_555 1_555
C16 C21 1_555 1_555
C18 C22 1_555 1_555
C28 C29 1_555 1_555
C28 N10 1_555 1_555
C30 N18 1_555 1_555
N4 N14 1_555 1_555
C32 N9 1_555 1_555
N5 N15 1_555 1_555
N6 N13 1_555 1_555
N7 N16 1_555 1_555
N8 N12 1_555 1_555
N9 N21 1_555 1_555
N10 N17 1_555 1_555
N11 N19 1_555 1_555
N14 C33 1_555 1_555
N18 N20 1_555 1_555

#END
