
#######################################################################
#
#                 Cambridge Crystallographic Data Centre
#                                CCDC 
#
#######################################################################
#
# If this CIF has been generated from an entry in the Cambridge 
# Structural Database, then it will include bibliographic, chemical, 
# crystal, experimental, refinement or atomic coordinate data resulting 
# from the CCDC's data processing and validation procedures.
#
#######################################################################

data_ESOFAV
_chemical_formula_moiety         'C32 H18 O2'
_chemical_name_systematic        (P)-(+)-4-phenylhexahelicene-1,2-dione
_symmetry_cell_setting           orthorhombic
_symmetry_space_group_name_H-M   'P 21 21 21'
_symmetry_Int_Tables_number      19
_space_group_name_Hall           'P 2ac 2ab'
loop_
_symmetry_equiv_pos_site_id
_symmetry_equiv_pos_as_xyz
1 x,y,z
2 1/2+x,1/2-y,-z
3 -x,1/2+y,1/2-z
4 1/2-x,-y,1/2+z
_cell_length_a                   11.3267(2)
_cell_length_b                   11.4260(2)
_cell_length_c                   16.0883(3)
_cell_angle_alpha                90
_cell_angle_beta                 90
_cell_angle_gamma                90
_cell_volume                     2082.13
_exptl_crystal_colour            'dark brown'
_exptl_crystal_description       plate
_cell_formula_units_Z            4
loop_
_atom_site_label
_atom_site_type_symbol
_atom_site_fract_x
_atom_site_fract_y
_atom_site_fract_z
C1 C 0.70336(19) 0.42674(18) 0.04349(14)
H1 H 0.7125 0.3596 0.0093
C2 C 0.73203(17) 0.53828(17) 0.01275(12)
H2 H 0.7657 0.5460 -0.0410
C3 C 0.71156(16) 0.63619(17) 0.06019(11)
H3 H 0.7306 0.7110 0.0382
C4 C 0.66262(16) 0.62814(16) 0.14129(11)
C5 C 0.64009(16) 0.73040(16) 0.19356(11)
C6 C 0.63625(16) 0.84863(16) 0.16306(11)
C7 C 0.60550(16) 0.88297(15) 0.07872(11)
C8 C 0.53901(16) 0.81262(15) 0.02280(11)
C9 C 0.53556(16) 0.83777(16) -0.06248(11)
C10 C 0.48556(16) 0.75148(16) -0.12170(11)
C11 C 0.48953(16) 0.77551(16) -0.21293(11)
C12 C 0.42857(17) 0.86993(17) -0.24781(12)
H4 H 0.3871 0.9230 -0.2130
C13 C 0.42859(18) 0.88613(17) -0.33312(11)
H5 H 0.3853 0.9491 -0.3567
C14 C 0.49126(19) 0.81124(18) -0.38429(12)
H6 H 0.4929 0.8240 -0.4426
C15 C 0.55146(19) 0.71768(18) -0.35006(12)
H7 H 0.5936 0.6653 -0.3851
C16 C 0.55059(19) 0.70009(17) -0.26504(12)
H8 H 0.5923 0.6356 -0.2421
C17 C 0.44397(17) 0.64653(16) -0.09656(11)
H9 H 0.4189 0.5913 -0.1370
C18 C 0.43668(15) 0.61609(15) -0.00902(11)
C19 C 0.46011(16) 0.71708(15) 0.05222(10)
O1 O 0.40539(12) 0.72079(11) 0.11706(7)
O2 O 0.40845(12) 0.52049(11) 0.01732(8)
C20 C 0.58602(17) 0.94322(16) -0.09097(11)
H10 H 0.5878 0.9600 -0.1488
C21 C 0.63244(17) 1.02151(16) -0.03524(12)
H11 H 0.6582 1.0958 -0.0546
C22 C 0.64293(16) 0.99473(16) 0.04984(12)
C23 C 0.68861(18) 1.07860(17) 0.10728(13)
H12 H 0.7184 1.1512 0.0876
C24 C 0.68958(18) 1.05472(17) 0.18960(14)
H13 H 0.7089 1.1149 0.2280
C25 C 0.66194(17) 0.94018(17) 0.21966(12)
C26 C 0.65941(18) 0.91774(19) 0.30626(12)
H14 H 0.6743 0.9795 0.3444
C27 C 0.63592(18) 0.80889(19) 0.33502(12)
H15 H 0.6235 0.7971 0.3928
C28 C 0.62956(16) 0.71199(17) 0.27981(12)
C29 C 0.61606(17) 0.59548(18) 0.31146(12)
H16 H 0.6046 0.5847 0.3694
C30 C 0.61911(17) 0.50097(18) 0.26162(13)
H17 H 0.6036 0.4255 0.2838
C31 C 0.64585(17) 0.51425(17) 0.17451(12)
C32 C 0.66216(18) 0.41553(17) 0.12302(13)
H18 H 0.6442 0.3399 0.1440
loop_
_geom_bond_atom_site_label_1
_geom_bond_atom_site_label_2
_geom_bond_site_symmetry_1
_geom_bond_site_symmetry_2
C1 H1 1_555 1_555
C2 C1 1_555 1_555
H2 C2 1_555 1_555
C3 C2 1_555 1_555
H3 C3 1_555 1_555
C4 C3 1_555 1_555
C5 C4 1_555 1_555
C6 C5 1_555 1_555
C7 C6 1_555 1_555
C8 C7 1_555 1_555
C9 C8 1_555 1_555
C10 C9 1_555 1_555
C11 C10 1_555 1_555
C12 C11 1_555 1_555
H4 C12 1_555 1_555
C13 C12 1_555 1_555
H5 C13 1_555 1_555
C14 C13 1_555 1_555
H6 C14 1_555 1_555
C15 C14 1_555 1_555
H7 C15 1_555 1_555
C16 C11 1_555 1_555
H8 C16 1_555 1_555
C17 C10 1_555 1_555
H9 C17 1_555 1_555
C18 C17 1_555 1_555
C19 C8 1_555 1_555
O1 C19 1_555 1_555
O2 C18 1_555 1_555
C20 C9 1_555 1_555
H10 C20 1_555 1_555
C21 C20 1_555 1_555
H11 C21 1_555 1_555
C22 C7 1_555 1_555
C23 C22 1_555 1_555
H12 C23 1_555 1_555
C24 C23 1_555 1_555
H13 C24 1_555 1_555
C25 C6 1_555 1_555
C26 C25 1_555 1_555
H14 C26 1_555 1_555
C27 C26 1_555 1_555
H15 C27 1_555 1_555
C28 C5 1_555 1_555
C29 C28 1_555 1_555
H16 C29 1_555 1_555
C30 C29 1_555 1_555
H17 C30 1_555 1_555
C31 C4 1_555 1_555
C32 C1 1_555 1_555
H18 C32 1_555 1_555
C15 C16 1_555 1_555
C18 C19 1_555 1_555
C21 C22 1_555 1_555
C24 C25 1_555 1_555
C27 C28 1_555 1_555
C30 C31 1_555 1_555
C31 C32 1_555 1_555

#END
