
#######################################################################
#
#                 Cambridge Crystallographic Data Centre
#                                CCDC 
#
#######################################################################
#
# If this CIF has been generated from an entry in the Cambridge 
# Structural Database, then it will include bibliographic, chemical, 
# crystal, experimental, refinement or atomic coordinate data resulting 
# from the CCDC's data processing and validation procedures.
#
#######################################################################

data_ESOFOJ
_chemical_formula_moiety         'C25 H32 Br1 F2 N2 O4 P1 S1'
_chemical_name_systematic        
'diethyl (2-(1-benzyl-5-bromo-1H-indol-3-yl)-2-((t-butylsulfinyl)amino)-1,1-difluoroethyl)phosphonate'
_symmetry_cell_setting           orthorhombic
_symmetry_space_group_name_H-M   'P 21 21 21'
_symmetry_Int_Tables_number      19
_space_group_name_Hall           'P 2ac 2ab'
loop_
_symmetry_equiv_pos_site_id
_symmetry_equiv_pos_as_xyz
1 x,y,z
2 1/2-x,-y,1/2+z
3 -x,1/2+y,1/2-z
4 1/2+x,1/2-y,-z
_cell_length_a                   10.7840(13)
_cell_length_b                   12.9700(15)
_cell_length_c                   20.824(2)
_cell_angle_alpha                90
_cell_angle_beta                 90
_cell_angle_gamma                90
_cell_volume                     2912.62
_cell_formula_units_Z            4
loop_
_atom_site_label
_atom_site_type_symbol
_atom_site_fract_x
_atom_site_fract_y
_atom_site_fract_z
Br1 Br -0.05822(10) 0.02117(9) 0.62117(6)
C1 C 0.3590(16) 0.0227(10) 0.9520(7)
H1 H 0.3896 0.0334 0.9948
H2 H 0.3222 -0.0445 0.9490
H3 H 0.2980 0.0742 0.9422
C2 C 0.4578(11) 0.0301(7) 0.9082(5)
H4 H 0.4359 -0.0054 0.8688
H5 H 0.5305 -0.0032 0.9261
C3 C 0.7391(15) 0.3957(11) 0.7991(9)
H6 H 0.8231 0.3969 0.7837
H7 H 0.7329 0.4363 0.8374
H8 H 0.6851 0.4236 0.7668
C4 C 0.7035(13) 0.2908(11) 0.8128(10)
H9 H 0.7141 0.2501 0.7742
H10 H 0.7595 0.2634 0.8450
C5 C 0.3617(6) 0.2200(5) 0.7934(3)
C6 C 0.3678(6) 0.2767(5) 0.7287(3)
H11 H 0.4292 0.3321 0.7321
C7 C 0.5052(7) 0.1388(6) 0.5683(3)
C8 C 0.5867(10) 0.1799(9) 0.5126(4)
H12 H 0.6684 0.1948 0.5284
H13 H 0.5504 0.2416 0.4955
H14 H 0.5919 0.1286 0.4794
C9 C 0.3816(10) 0.1003(10) 0.5433(6)
H15 H 0.3954 0.0464 0.5125
H16 H 0.3379 0.1561 0.5231
H17 H 0.3333 0.0741 0.5783
C10 C 0.5714(9) 0.0577(7) 0.6077(4)
H18 H 0.5123 0.0214 0.6337
H19 H 0.6318 0.0902 0.6348
H20 H 0.6122 0.0099 0.5795
C11 C 0.2471(6) 0.3226(5) 0.7099(3)
C12 C 0.1370(6) 0.2763(6) 0.6845(3)
C13 C 0.1055(6) 0.1752(6) 0.6670(4)
H21 H 0.1622 0.1216 0.6711
C14 C -0.0121(7) 0.1581(7) 0.6437(4)
C15 C -0.0986(7) 0.2361(9) 0.6379(4)
H22 H -0.1774 0.2210 0.6224
C16 C -0.0699(7) 0.3345(8) 0.6545(4)
H23 H -0.1279 0.3872 0.6506
C17 C 0.0480(6) 0.3540(6) 0.6775(3)
C18 C 0.2190(7) 0.4255(6) 0.7183(3)
H24 H 0.2731 0.4747 0.7347
C19 C 0.0466(8) 0.5477(6) 0.6929(4)
H25 H 0.0840 0.5923 0.7249
H26 H -0.0415 0.5440 0.7019
C20 C 0.0650(7) 0.5952(5) 0.6272(4)
C21 C 0.1649(8) 0.5712(6) 0.5899(4)
H27 H 0.2216 0.5226 0.6047
C22 C 0.1845(11) 0.6167(8) 0.5312(5)
H28 H 0.2519 0.5967 0.5063
C23 C 0.1076(14) 0.6890(10) 0.5097(6)
H29 H 0.1241 0.7234 0.4714
C24 C 0.0045(13) 0.7119(10) 0.5445(7)
H30 H -0.0533 0.7582 0.5282
C25 C -0.0154(9) 0.6668(8) 0.6042(5)
H31 H -0.0841 0.6858 0.6284
F1 F 0.3116(4) 0.2867(4) 0.8380(2)
F2 F 0.2833(4) 0.1382(3) 0.7907(2)
N1 N 0.4126(5) 0.2002(4) 0.6807(3)
H32 H 0.3488 0.1619 0.6679
N2 N 0.1000(6) 0.4445(5) 0.6989(3)
O1 O 0.5667(6) 0.0996(5) 0.7807(2)
O2 O 0.5813(5) 0.2784(5) 0.8347(3)
O3 O 0.4862(5) 0.1374(4) 0.8940(2)
O4 O 0.5993(4) 0.2978(4) 0.6345(3)
P1 P 0.51283(17) 0.17471(16) 0.82451(9)
S1 S 0.47592(16) 0.25741(14) 0.61626(9)
loop_
_geom_bond_atom_site_label_1
_geom_bond_atom_site_label_2
_geom_bond_site_symmetry_1
_geom_bond_site_symmetry_2
Br1 C14 1_555 1_555
C1 H1 1_555 1_555
H2 C1 1_555 1_555
H3 C1 1_555 1_555
C2 C1 1_555 1_555
H4 C2 1_555 1_555
H5 C2 1_555 1_555
C3 H6 1_555 1_555
H7 C3 1_555 1_555
H8 C3 1_555 1_555
C4 C3 1_555 1_555
H9 C4 1_555 1_555
H10 C4 1_555 1_555
C5 C6 1_555 1_555
C6 H11 1_555 1_555
C7 C8 1_555 1_555
C8 H12 1_555 1_555
H13 C8 1_555 1_555
H14 C8 1_555 1_555
C9 C7 1_555 1_555
H15 C9 1_555 1_555
H16 C9 1_555 1_555
H17 C9 1_555 1_555
C10 C7 1_555 1_555
H18 C10 1_555 1_555
H19 C10 1_555 1_555
H20 C10 1_555 1_555
C11 C6 1_555 1_555
C12 C11 1_555 1_555
C13 C12 1_555 1_555
H21 C13 1_555 1_555
C14 C13 1_555 1_555
C15 C14 1_555 1_555
H22 C15 1_555 1_555
C16 C15 1_555 1_555
H23 C16 1_555 1_555
C17 C12 1_555 1_555
C18 C11 1_555 1_555
H24 C18 1_555 1_555
C19 H25 1_555 1_555
H26 C19 1_555 1_555
C20 C19 1_555 1_555
C21 C20 1_555 1_555
H27 C21 1_555 1_555
C22 C21 1_555 1_555
H28 C22 1_555 1_555
C23 C22 1_555 1_555
H29 C23 1_555 1_555
C24 C23 1_555 1_555
H30 C24 1_555 1_555
C25 C20 1_555 1_555
H31 C25 1_555 1_555
F1 C5 1_555 1_555
F2 C5 1_555 1_555
N1 C6 1_555 1_555
H32 N1 1_555 1_555
N2 C17 1_555 1_555
O1 P1 1_555 1_555
O2 C4 1_555 1_555
O3 C2 1_555 1_555
O4 S1 1_555 1_555
P1 C5 1_555 1_555
S1 C7 1_555 1_555
C16 C17 1_555 1_555
C18 N2 1_555 1_555
C19 N2 1_555 1_555
C24 C25 1_555 1_555
N1 S1 1_555 1_555
O2 P1 1_555 1_555
O3 P1 1_555 1_555

#END
