
#######################################################################
#
#                 Cambridge Crystallographic Data Centre
#                                CCDC 
#
#######################################################################
#
# If this CIF has been generated from an entry in the Cambridge 
# Structural Database, then it will include bibliographic, chemical, 
# crystal, experimental, refinement or atomic coordinate data resulting 
# from the CCDC's data processing and validation procedures.
#
#######################################################################

data_ESOFEZ
_chemical_formula_moiety         'C32 H19 N1 O2,C4 H8 O1'
_chemical_name_systematic        
'(+-)-2-anilinohexahelicene-1,4-dione tetrahydrofuran solvate'
_symmetry_cell_setting           triclinic
_symmetry_space_group_name_H-M   'P -1'
_symmetry_Int_Tables_number      2
_space_group_name_Hall           '-P 1'
loop_
_symmetry_equiv_pos_site_id
_symmetry_equiv_pos_as_xyz
1 x,y,z
2 -x,-y,-z
_cell_length_a                   11.060(2)
_cell_length_b                   11.5158(18)
_cell_length_c                   11.584(2)
_cell_angle_alpha                83.104(4)
_cell_angle_beta                 62.450(4)
_cell_angle_gamma                82.758(5)
_cell_volume                     1294.46
_exptl_crystal_colour            'reddish orange'
_exptl_crystal_description       needle
_cell_formula_units_Z            2
loop_
_atom_site_label
_atom_site_type_symbol
_atom_site_fract_x
_atom_site_fract_y
_atom_site_fract_z
O1 O -0.18496(15) 0.41584(13) 1.03360(14)
O2 O 0.35398(15) 0.33408(13) 0.81425(14)
N1 N 0.22166(18) 0.25839(16) 1.05853(17)
H1 H 0.3131(17) 0.265(2) 1.010(2)
C1 C 0.0855(2) 0.1659(2) 1.4583(2)
H2 H 0.0542 0.1466 1.5491
C2 C 0.0157(3) 0.1344(2) 1.3959(2)
H3 H -0.0634 0.0922 1.4440
C3 C 0.0595(2) 0.1633(2) 1.2639(2)
H4 H 0.0107 0.1406 1.2221
C4 C 0.1742(2) 0.22531(18) 1.1926(2)
C5 C 0.1444(2) 0.30261(17) 0.99815(19)
C6 C 0.2306(2) 0.33638(17) 0.85528(19)
C7 C 0.1605(2) 0.37987(16) 0.77381(19)
C8 C 0.2343(2) 0.39770(17) 0.63498(19)
C9 C 0.3660(2) 0.33833(18) 0.55355(19)
C10 C 0.4167(2) 0.22311(18) 0.58419(19)
C11 C 0.3306(2) 0.13412(17) 0.67543(19)
C12 C 0.1875(2) 0.13843(17) 0.72059(19)
H5 H 0.1436 0.2018 0.6898
C13 C 0.1105(2) 0.05309(18) 0.8079(2)
H6 H 0.0145 0.0586 0.8368
C14 C 0.1714(2) -0.04143(19) 0.8548(2)
H7 H 0.1168 -0.0971 0.9197
C15 C 0.0060(2) 0.32508(17) 1.0534(2)
H8 H -0.0477 0.2994 1.1421
C16 C -0.0603(2) 0.38675(17) 0.9804(2)
C17 C 0.0224(2) 0.41667(17) 0.83808(19)
C18 C 0.1730(2) 0.48212(18) 0.5736(2)
C19 C 0.2554(3) 0.5285(2) 0.4435(2)
H9 H 0.2152 0.5841 0.4012
C20 C 0.3890(3) 0.4940(2) 0.3810(2)
H10 H 0.4453 0.5348 0.3010
C21 C 0.4484(2) 0.3975(2) 0.4319(2)
C22 C 0.5575(2) 0.1900(2) 0.5135(2)
C23 C 0.6419(2) 0.2611(2) 0.4034(2)
H11 H 0.7377 0.2409 0.3600
C24 C 0.5878(2) 0.3570(2) 0.3597(2)
H12 H 0.6436 0.3980 0.2796
C25 C 0.6143(2) 0.0822(2) 0.5505(2)
H13 H 0.7097 0.0617 0.5031
C26 C 0.5374(2) 0.0088(2) 0.6502(2)
H14 H 0.5798 -0.0578 0.6781
C27 C 0.3924(2) 0.03090(19) 0.7140(2)
C28 C 0.3101(3) -0.05297(19) 0.8066(2)
H15 H 0.3521 -0.1189 0.8360
C29 C 0.0339(2) 0.52197(19) 0.6429(2)
H16 H -0.0073 0.5759 0.6002
C30 C -0.0424(2) 0.48455(18) 0.7702(2)
H17 H -0.1384 0.5041 0.8125
C31 C 0.2460(2) 0.25588(18) 1.2555(2)
H18 H 0.3256 0.2973 1.2077
C32 C 0.2008(2) 0.22569(19) 1.3877(2)
H19 H 0.2502 0.2465 1.4300
O3 O 0.48096(18) 0.78328(18) 0.02137(19)
C33 C 0.4334(9) 0.8570(12) 0.1227(13)
H20 H 0.4819 0.9297 0.0926
H21 H 0.4484 0.8175 0.1963
C34 C 0.3820(3) 0.7015(3) 0.0564(3)
H22 H 0.4019 0.6308 0.1043
H23 H 0.3808 0.6774 -0.0223
C35 C 0.2454(3) 0.7655(3) 0.1433(3)
H24 H 0.1977 0.7198 0.2276
H25 H 0.1854 0.7792 0.0999
C36 C 0.2848(6) 0.8849(8) 0.1641(10)
H26 H 0.2679 0.9504 0.1084
H27 H 0.2347 0.9040 0.2566
H28? H 0.2098 0.8219 0.0925
H29? H 0.1754 0.7108 0.1997
C37? C 0.4158(13) 0.8768(11) 0.1089(12)
H30? H 0.3874 0.9462 0.0653
H31? H 0.4782 0.9003 0.1401
C38? C 0.2956(9) 0.8250(11) 0.2180(7)
H32? H 0.2271 0.8859 0.2706
H33? H 0.3220 0.7684 0.2755
loop_
_geom_bond_atom_site_label_1
_geom_bond_atom_site_label_2
_geom_bond_site_symmetry_1
_geom_bond_site_symmetry_2
O1 C16 1_555 1_555
O2 C6 1_555 1_555
N1 H1 1_555 1_555
C1 H2 1_555 1_555
C2 C1 1_555 1_555
H3 C2 1_555 1_555
C3 C2 1_555 1_555
H4 C3 1_555 1_555
C4 N1 1_555 1_555
C5 N1 1_555 1_555
C6 C5 1_555 1_555
C7 C6 1_555 1_555
C8 C7 1_555 1_555
C9 C8 1_555 1_555
C10 C9 1_555 1_555
C11 C10 1_555 1_555
C12 C11 1_555 1_555
H5 C12 1_555 1_555
C13 C12 1_555 1_555
H6 C13 1_555 1_555
C14 C13 1_555 1_555
H7 C14 1_555 1_555
C15 C5 1_555 1_555
H8 C15 1_555 1_555
C16 C15 1_555 1_555
C17 C7 1_555 1_555
C18 C8 1_555 1_555
C19 C18 1_555 1_555
H9 C19 1_555 1_555
C20 C19 1_555 1_555
H10 C20 1_555 1_555
C21 C9 1_555 1_555
C22 C10 1_555 1_555
C23 C22 1_555 1_555
H11 C23 1_555 1_555
C24 C21 1_555 1_555
H12 C24 1_555 1_555
C25 C22 1_555 1_555
H13 C25 1_555 1_555
C26 C25 1_555 1_555
H14 C26 1_555 1_555
C27 C11 1_555 1_555
C28 C14 1_555 1_555
H15 C28 1_555 1_555
C29 C18 1_555 1_555
H16 C29 1_555 1_555
C30 C17 1_555 1_555
H17 C30 1_555 1_555
C31 C4 1_555 1_555
H18 C31 1_555 1_555
C32 C1 1_555 1_555
H19 C32 1_555 1_555
O3 C33 1_555 1_555
C33 H20 1_555 1_555
H21 C33 1_555 1_555
C34 O3 1_555 1_555
H22 C34 1_555 1_555
H23 C34 1_555 1_555
C35 C34 1_555 1_555
H24 C35 1_555 1_555
H25 C35 1_555 1_555
C36 C33 1_555 1_555
H26 C36 1_555 1_555
H27 C36 1_555 1_555
C3 C4 1_555 1_555
C16 C17 1_555 1_555
C20 C21 1_555 1_555
C23 C24 1_555 1_555
C26 C27 1_555 1_555
C27 C28 1_555 1_555
C29 C30 1_555 1_555
C31 C32 1_555 1_555
C35 C36 1_555 1_555

#END
