
#######################################################################
#
#                 Cambridge Crystallographic Data Centre
#                                CCDC 
#
#######################################################################
#
# If this CIF has been generated from an entry in the Cambridge 
# Structural Database, then it will include bibliographic, chemical, 
# crystal, experimental, refinement or atomic coordinate data resulting 
# from the CCDC's data processing and validation procedures.
#
#######################################################################

data_ESOFID
_chemical_formula_moiety         'C38 H24 N2 O1'
_chemical_name_systematic        
(+-)-2-(phenylamino)-4-(phenylimino)(6)helicene-1-one
_symmetry_cell_setting           triclinic
_symmetry_space_group_name_H-M   'P -1'
_symmetry_Int_Tables_number      2
_space_group_name_Hall           '-P 1'
loop_
_symmetry_equiv_pos_site_id
_symmetry_equiv_pos_as_xyz
1 x,y,z
2 -x,-y,-z
_cell_length_a                   7.9112(2)
_cell_length_b                   11.6593(3)
_cell_length_c                   14.5539(4)
_cell_angle_alpha                86.175(2)
_cell_angle_beta                 83.155(2)
_cell_angle_gamma                76.531(2)
_cell_volume                     1295.16
_exptl_crystal_colour            'dull dark brown'
_exptl_crystal_description       needle
_cell_formula_units_Z            2
loop_
_atom_site_label
_atom_site_type_symbol
_atom_site_fract_x
_atom_site_fract_y
_atom_site_fract_z
N1 N 0.78869(19) 0.04615(13) 0.83670(10)
H1 H 0.826(3) 0.0180(18) 0.7802(11)
N2 N 0.80042(18) 0.39792(13) 0.99320(10)
O1 O 1.01806(15) 0.11608(11) 0.71097(8)
C1 C 0.4191(3) 0.21775(19) 0.69960(15)
H2 H 0.3174 0.2061 0.7373
C2 C 0.4882(2) 0.31456(17) 0.71146(13)
H3 H 0.4286 0.3722 0.7544
C3 C 0.6418(2) 0.32748(16) 0.66167(12)
H4 H 0.6852 0.3951 0.6700
C4 C 0.7371(2) 0.24316(16) 0.59842(12)
C5 C 0.9066(2) 0.24891(16) 0.54980(12)
C6 C 1.0202(2) 0.31850(17) 0.57674(12)
C7 C 1.0120(2) 0.36612(16) 0.66802(12)
C8 C 0.9450(2) 0.31669(15) 0.75355(12)
C9 C 0.9331(2) 0.19168(15) 0.76371(11)
C10 C 0.8224(2) 0.15465(14) 0.84538(11)
C11 C 0.7488(2) -0.03634(15) 0.90584(12)
C12 C 0.7718(2) -0.03003(16) 0.99856(13)
H5 H 0.8077 0.0356 1.0187
C13 C 0.7423(2) -0.11976(17) 1.06152(14)
H6 H 0.7565 -0.1144 1.1249
C14 C 0.6926(3) -0.21666(18) 1.03359(15)
H7 H 0.6753 -0.2786 1.0769
C15 C 0.6185(2) 0.27113(18) 1.25485(13)
H8 H 0.5778 0.2433 1.3143
C16 C 0.7667(2) 0.20582(17) 1.20513(12)
H9 H 0.8276 0.1330 1.2308
C17 C 0.8260(2) 0.24628(16) 1.11861(12)
H10 H 0.9279 0.2013 1.0854
C18 C 0.7372(2) 0.35260(15) 1.07965(12)
C19 C 0.8270(2) 0.33377(15) 0.92100(11)
C20 C 0.9121(2) 0.38019(15) 0.83462(12)
C21 C 0.4984(3) 0.14022(19) 0.63364(16)
H11 H 0.4479 0.0764 0.6236
C22 C 0.6542(3) 0.15228(18) 0.57967(14)
C23 C 0.7255(3) 0.0787(2) 0.50413(15)
H12 H 0.6746 0.0153 0.4931
C24 C 0.8634(3) 0.0981(2) 0.44854(15)
H13 H 0.9003 0.0542 0.3941
C25 C 0.9582(3) 0.18329(19) 0.46839(13)
C26 C 1.1033(3) 0.2016(2) 0.40759(15)
H14 H 1.1406 0.1555 0.3544
C27 C 1.1897(3) 0.2842(2) 0.42420(15)
H15 H 1.2782 0.3016 0.3790
C28 C 1.1502(2) 0.34559(19) 0.50846(14)
C29 C 1.2359(3) 0.4366(2) 0.52191(15)
H16 H 1.3252 0.4520 0.4763
C30 C 1.1932(2) 0.5018(2) 0.59810(15)
H17 H 1.2369 0.5706 0.6011
C31 C 1.0820(2) 0.46664(17) 0.67405(13)
C32 C 1.0508(2) 0.52699(17) 0.75735(14)
H18 H 1.0924 0.5968 0.7594
C33 C 0.9627(2) 0.48821(16) 0.83530(13)
H19 H 0.9359 0.5335 0.8892
C34 C 0.6684(3) -0.22216(18) 0.94151(15)
H20 H 0.6338 -0.2884 0.9216
C35 C 0.6939(2) -0.13256(16) 0.87828(14)
H21 H 0.6739 -0.1366 0.8156
C36 C 0.7709(2) 0.22455(15) 0.91837(11)
H22 H 0.6965 0.2017 0.9689
C37 C 0.5905(2) 0.41944(17) 1.13018(13)
H23 H 0.5315 0.4935 1.1056
C38 C 0.5310(2) 0.37695(18) 1.21681(13)
H24 H 0.4288 0.4213 1.2502
loop_
_geom_bond_atom_site_label_1
_geom_bond_atom_site_label_2
_geom_bond_site_symmetry_1
_geom_bond_site_symmetry_2
N1 H1 1_555 1_555
N2 C18 1_555 1_555
O1 C9 1_555 1_555
C1 H2 1_555 1_555
C2 C1 1_555 1_555
H3 C2 1_555 1_555
C3 C2 1_555 1_555
H4 C3 1_555 1_555
C4 C3 1_555 1_555
C5 C4 1_555 1_555
C6 C5 1_555 1_555
C7 C6 1_555 1_555
C8 C7 1_555 1_555
C9 C8 1_555 1_555
C10 N1 1_555 1_555
C11 N1 1_555 1_555
C12 C11 1_555 1_555
H5 C12 1_555 1_555
C13 C12 1_555 1_555
H6 C13 1_555 1_555
C14 C13 1_555 1_555
H7 C14 1_555 1_555
C15 H8 1_555 1_555
C16 C15 1_555 1_555
H9 C16 1_555 1_555
C17 C16 1_555 1_555
H10 C17 1_555 1_555
C18 C17 1_555 1_555
C19 N2 1_555 1_555
C20 C8 1_555 1_555
C21 C1 1_555 1_555
H11 C21 1_555 1_555
C22 C4 1_555 1_555
C23 C22 1_555 1_555
H12 C23 1_555 1_555
C24 C23 1_555 1_555
H13 C24 1_555 1_555
C25 C5 1_555 1_555
C26 C25 1_555 1_555
H14 C26 1_555 1_555
C27 C26 1_555 1_555
H15 C27 1_555 1_555
C28 C6 1_555 1_555
C29 C28 1_555 1_555
H16 C29 1_555 1_555
C30 C29 1_555 1_555
H17 C30 1_555 1_555
C31 C7 1_555 1_555
C32 C31 1_555 1_555
H18 C32 1_555 1_555
C33 C20 1_555 1_555
H19 C33 1_555 1_555
C34 C14 1_555 1_555
H20 C34 1_555 1_555
C35 C11 1_555 1_555
H21 C35 1_555 1_555
C36 C10 1_555 1_555
H22 C36 1_555 1_555
C37 C18 1_555 1_555
H23 C37 1_555 1_555
C38 C15 1_555 1_555
H24 C38 1_555 1_555
C9 C10 1_555 1_555
C19 C20 1_555 1_555
C19 C36 1_555 1_555
C21 C22 1_555 1_555
C24 C25 1_555 1_555
C27 C28 1_555 1_555
C30 C31 1_555 1_555
C32 C33 1_555 1_555
C34 C35 1_555 1_555
C37 C38 1_555 1_555

#END
