
#######################################################################
#
#                 Cambridge Crystallographic Data Centre
#                                CCDC 
#
#######################################################################
#
# If this CIF has been generated from an entry in the Cambridge 
# Structural Database, then it will include bibliographic, chemical, 
# crystal, experimental, refinement or atomic coordinate data resulting 
# from the CCDC's data processing and validation procedures.
#
#######################################################################

data_ESOVEO
_chemical_formula_moiety         'C20 H18 Br1 N1 O3'
_chemical_name_systematic        
'(S)-Methyl 4-(5-bromo-1-methyl-1H-indol-3-yl)-2-oxo-4-phenylbutanoate'
_symmetry_cell_setting           monoclinic
_symmetry_space_group_name_H-M   'P 21'
_symmetry_Int_Tables_number      4
_space_group_name_Hall           'P 2yb'
loop_
_symmetry_equiv_pos_site_id
_symmetry_equiv_pos_as_xyz
1 x,y,z
2 -x,1/2+y,-z
_cell_length_a                   7.3436(15)
_cell_length_b                   13.363(3)
_cell_length_c                   18.647(4)
_cell_angle_alpha                90
_cell_angle_beta                 96.71(3)
_cell_angle_gamma                90
_cell_volume                     1817.34
_exptl_crystal_colour            yellow
_exptl_crystal_description       block
_cell_formula_units_Z            4
loop_
_atom_site_label
_atom_site_type_symbol
_atom_site_fract_x
_atom_site_fract_y
_atom_site_fract_z
Br1 Br 0.93944(8) 0.57868(3) 0.84152(3)
O1 O 0.9161(5) 0.7066(2) 0.42842(17)
O2 O 0.9091(6) 0.9479(3) 0.35930(18)
O3 O 0.8858(6) 0.7992(3) 0.30292(17)
N1 N 1.0741(5) 0.9780(3) 0.7130(2)
C1 C 1.0321(6) 0.8829(4) 0.8251(2)
H1 H 1.0443 0.9387 0.8569
C2 C 1.0002(7) 0.7879(4) 0.8501(3)
H2 H 0.9911 0.7773 0.8999
C3 C 0.9814(6) 0.7070(4) 0.8017(3)
C4 C 0.9954(6) 0.7158(3) 0.7292(2)
H3 H 0.9837 0.6594 0.6980
C5 C 1.0281(6) 0.8126(3) 0.7032(2)
C6 C 1.0457(6) 0.8939(3) 0.7518(2)
C7 C 1.0940(7) 1.0785(4) 0.7426(3)
H4 H 1.0891 1.0761 0.7948
H5 H 0.9944 1.1208 0.7200
H6 H 1.2121 1.1063 0.7328
C8 C 1.0732(6) 0.9523(3) 0.6420(2)
H7 H 1.0883 0.9983 0.6042
C9 C 1.0476(6) 0.8514(3) 0.6327(2)
C10 C 1.0485(6) 0.7912(3) 0.5642(2)
H8 H 0.9534 0.7378 0.5649
C11 C 1.2319(6) 0.7392(3) 0.5606(2)
C12 C 1.3935(6) 0.7938(4) 0.5673(3)
H9 H 1.3888 0.8643 0.5734
C13 C 1.5613(7) 0.7478(4) 0.5652(3)
H10 H 1.6704 0.7867 0.5704
C14 C 1.5713(7) 0.6454(4) 0.5556(3)
H11 H 1.6863 0.6138 0.5535
C15 C 1.4101(7) 0.5893(4) 0.5490(2)
H12 H 1.4149 0.5189 0.5426
C16 C 1.2417(6) 0.6366(3) 0.5518(2)
H13 H 1.1325 0.5979 0.5476
C17 C 0.9940(7) 0.8560(3) 0.4975(2)
H14 H 0.8896 0.8991 0.5067
H15 H 1.0981 0.9002 0.4898
C18 C 0.9405(6) 0.7961(3) 0.4295(2)
C19 C 0.9111(7) 0.8576(4) 0.3601(2)
C20 C 0.8620(12) 0.8474(4) 0.2324(3)
H16 H 0.8437 0.7962 0.1946
H17 H 0.9714 0.8868 0.2260
H18 H 0.7547 0.8915 0.2291
Br2 Br 0.61834(9) 0.36812(4) 0.64718(3)
O4 O 0.5214(5) 0.2441(2) 1.06631(17)
O5 O 0.5501(5) 0.0013(3) 1.13225(19)
O6 O 0.5560(5) 0.1484(3) 1.19122(16)
N2 N 0.5650(6) -0.0318(3) 0.7867(2)
C21 C 0.5845(7) 0.0608(4) 0.6717(2)
H19 H 0.5779 0.0034 0.6415
C22 C 0.5985(7) 0.1554(4) 0.6438(3)
H20 H 0.6016 0.1645 0.5934
C23 C 0.6081(7) 0.2383(4) 0.6901(2)
C24 C 0.6074(6) 0.2316(3) 0.7635(2)
H21 H 0.6159 0.2896 0.7932
C25 C 0.5937(6) 0.1354(3) 0.7929(2)
C26 C 0.5802(6) 0.0523(3) 0.7463(2)
C27 C 0.5434(7) -0.1334(4) 0.7598(3)
H22 H 0.5365 -0.1794 0.8003
H23 H 0.6486 -0.1512 0.7345
H24 H 0.4305 -0.1383 0.7263
C28 C 0.5695(6) -0.0033(3) 0.8576(2)
H25 H 0.5624 -0.0481 0.8967
C29 C 0.5856(6) 0.0981(3) 0.8644(2)
C30 C 0.6021(6) 0.1606(3) 0.9316(2)
H26 H 0.5007 0.2110 0.9260
C31 C 0.7823(6) 0.2178(3) 0.9423(2)
C32 C 0.7883(7) 0.3217(3) 0.9518(3)
H27 H 0.6783 0.3590 0.9524
C33 C 0.9605(8) 0.3704(4) 0.9605(2)
H28 H 0.9653 0.4410 0.9664
C34 C 1.1192(8) 0.3180(5) 0.9607(3)
H29 H 1.2338 0.3518 0.9674
C35 C 1.1132(7) 0.2166(5) 0.9511(3)
H30 H 1.2240 0.1801 0.9504
C36 C 0.9469(6) 0.1665(4) 0.9423(3)
H31 H 0.9453 0.0959 0.9362
C37 C 0.5772(6) 0.0966(3) 0.9978(2)
H32 H 0.4699 0.0523 0.9859
H33 H 0.6865 0.0534 1.0086
C38 C 0.5498(6) 0.1554(3) 1.0647(2)
C39 C 0.5531(6) 0.0902(4) 1.1336(2)
C40 C 0.5563(8) 0.0978(4) 1.2601(2)
H34 H 0.5586 0.1476 1.2988
H35 H 0.6649 0.0549 1.2686
H36 H 0.4455 0.0567 1.2593
loop_
_geom_bond_atom_site_label_1
_geom_bond_atom_site_label_2
_geom_bond_site_symmetry_1
_geom_bond_site_symmetry_2
Br1 C3 1_555 1_555
Br2 C23 1_555 1_555
O1 C18 1_555 1_555
O2 C19 1_555 1_555
O3 C19 1_555 1_555
O4 C38 1_555 1_555
O5 C39 1_555 1_555
O6 C39 1_555 1_555
N1 C6 1_555 1_555
N2 C26 1_555 1_555
C1 H1 1_555 1_555
C2 C1 1_555 1_555
H2 C2 1_555 1_555
C3 C2 1_555 1_555
C4 C3 1_555 1_555
H3 C4 1_555 1_555
C5 C4 1_555 1_555
C6 C1 1_555 1_555
C7 N1 1_555 1_555
H4 C7 1_555 1_555
H5 C7 1_555 1_555
H6 C7 1_555 1_555
C8 N1 1_555 1_555
H7 C8 1_555 1_555
C9 C5 1_555 1_555
C10 C9 1_555 1_555
H8 C10 1_555 1_555
C11 C10 1_555 1_555
C12 C11 1_555 1_555
H9 C12 1_555 1_555
C13 C12 1_555 1_555
H10 C13 1_555 1_555
C14 C13 1_555 1_555
H11 C14 1_555 1_555
C15 C14 1_555 1_555
H12 C15 1_555 1_555
C16 C11 1_555 1_555
H13 C16 1_555 1_555
C17 C10 1_555 1_555
H14 C17 1_555 1_555
H15 C17 1_555 1_555
C18 C17 1_555 1_555
C19 C18 1_555 1_555
C20 O3 1_555 1_555
H16 C20 1_555 1_555
H17 C20 1_555 1_555
H18 C20 1_555 1_555
C21 H19 1_555 1_555
C22 C21 1_555 1_555
H20 C22 1_555 1_555
C23 C22 1_555 1_555
C24 C23 1_555 1_555
H21 C24 1_555 1_555
C25 C24 1_555 1_555
C26 C21 1_555 1_555
C27 N2 1_555 1_555
H22 C27 1_555 1_555
H23 C27 1_555 1_555
H24 C27 1_555 1_555
C28 N2 1_555 1_555
H25 C28 1_555 1_555
C29 C25 1_555 1_555
C30 C29 1_555 1_555
H26 C30 1_555 1_555
C31 C30 1_555 1_555
C32 C31 1_555 1_555
H27 C32 1_555 1_555
C33 C32 1_555 1_555
H28 C33 1_555 1_555
C34 C33 1_555 1_555
H29 C34 1_555 1_555
C35 C34 1_555 1_555
H30 C35 1_555 1_555
C36 C31 1_555 1_555
H31 C36 1_555 1_555
C37 C30 1_555 1_555
H32 C37 1_555 1_555
H33 C37 1_555 1_555
C38 C37 1_555 1_555
C39 C38 1_555 1_555
C40 O6 1_555 1_555
H34 C40 1_555 1_555
H35 C40 1_555 1_555
H36 C40 1_555 1_555
C5 C6 1_555 1_555
C8 C9 1_555 1_555
C15 C16 1_555 1_555
C25 C26 1_555 1_555
C28 C29 1_555 1_555
C35 C36 1_555 1_555

#END
