
#######################################################################
#
#                 Cambridge Crystallographic Data Centre
#                                CCDC 
#
#######################################################################
#
# If this CIF has been generated from an entry in the Cambridge 
# Structural Database, then it will include bibliographic, chemical, 
# crystal, experimental, refinement or atomic coordinate data resulting 
# from the CCDC's data processing and validation procedures.
#
#######################################################################

data_ESOYER
_chemical_formula_moiety         'C21 H15 N3 O1'
_chemical_name_systematic        
(1,5-Diphenyl-1H-1,2,3-triazol-4-yl)(phenyl)methanone
_symmetry_cell_setting           monoclinic
_symmetry_space_group_name_H-M   'P 21/n'
_symmetry_Int_Tables_number      14
_space_group_name_Hall           '-P 2yn'
loop_
_symmetry_equiv_pos_site_id
_symmetry_equiv_pos_as_xyz
1 x,y,z
2 1/2-x,1/2+y,1/2-z
3 -x,-y,-z
4 1/2+x,1/2-y,1/2+z
_cell_length_a                   9.3917(5)
_cell_length_b                   17.6784(10)
_cell_length_c                   10.7474(6)
_cell_angle_alpha                90
_cell_angle_beta                 112.7640(10)
_cell_angle_gamma                90
_cell_volume                     1645.4
_exptl_crystal_colour            colorless
_exptl_crystal_description       block
_cell_formula_units_Z            4
loop_
_atom_site_label
_atom_site_type_symbol
_atom_site_fract_x
_atom_site_fract_y
_atom_site_fract_z
O1 O 0.71671(13) 0.66618(6) 0.43982(10)
N1 N 0.58996(14) 0.47777(7) 0.35025(11)
N2 N 0.61639(14) 0.41791(7) 0.42594(11)
N3 N 0.73035(12) 0.43585(6) 0.54755(10)
C1 C 0.68489(14) 0.53484(7) 0.42062(12)
C2 C 0.77469(14) 0.50898(7) 0.54840(12)
C3 C 0.68084(14) 0.61173(7) 0.36439(13)
C4 C 0.63354(14) 0.62070(7) 0.21588(13)
C5 C 0.65338(15) 0.56374(8) 0.13510(13)
H1 H 0.6922 0.5164 0.1728
C6 C 0.61601(18) 0.57664(9) -0.00135(15)
H2 H 0.6316 0.5384 -0.0555
C7 C 0.55620(18) 0.64539(10) -0.05752(16)
H3 H 0.5299 0.6537 -0.1502
C8 C 0.53474(19) 0.70204(10) 0.02122(17)
H4 H 0.4929 0.7487 -0.0179
C9 C 0.57469(17) 0.69044(8) 0.15830(16)
H5 H 0.5621 0.7296 0.2123
C10 C 0.89080(14) 0.54700(7) 0.66600(12)
C11 C 1.01767(15) 0.58229(8) 0.65533(14)
H6 H 1.0297 0.5821 0.5725
C12 C 1.12638(17) 0.61769(8) 0.76628(17)
H7 H 1.2126 0.6412 0.7589
C13 C 1.1085(2) 0.61857(9) 0.88777(16)
H8 H 1.1824 0.6426 0.9632
C14 C 0.9827(3) 0.58429(10) 0.89830(16)
H9 H 0.9706 0.5852 0.9811
C15 C 0.8732(2) 0.54825(9) 0.78828(14)
H10 H 0.7875 0.5248 0.7965
C16 C 0.79240(14) 0.37667(7) 0.64540(12)
C17 C 0.69193(16) 0.32555(8) 0.66576(14)
H11 H 0.5847 0.3308 0.6191
C18 C 0.75154(18) 0.26658(8) 0.75574(16)
H12 H 0.6843 0.2313 0.7698
C19 C 0.90896(18) 0.25919(8) 0.82499(14)
H13 H 0.9487 0.2193 0.8866
C20 C 1.00807(17) 0.31069(8) 0.80343(14)
H14 H 1.1153 0.3056 0.8504
C21 C 0.95056(15) 0.36963(8) 0.71324(13)
H15 H 1.0179 0.4044 0.6982
loop_
_geom_bond_atom_site_label_1
_geom_bond_atom_site_label_2
_geom_bond_site_symmetry_1
_geom_bond_site_symmetry_2
O1 C3 1_555 1_555
N1 N2 1_555 1_555
N2 N3 1_555 1_555
N3 C2 1_555 1_555
C1 N1 1_555 1_555
C2 C1 1_555 1_555
C3 C1 1_555 1_555
C4 C3 1_555 1_555
C5 C4 1_555 1_555
H1 C5 1_555 1_555
C6 C5 1_555 1_555
H2 C6 1_555 1_555
C7 C6 1_555 1_555
H3 C7 1_555 1_555
C8 C7 1_555 1_555
H4 C8 1_555 1_555
C9 C4 1_555 1_555
H5 C9 1_555 1_555
C10 C2 1_555 1_555
C11 C10 1_555 1_555
H6 C11 1_555 1_555
C12 C11 1_555 1_555
H7 C12 1_555 1_555
C13 C12 1_555 1_555
H8 C13 1_555 1_555
C14 C13 1_555 1_555
H9 C14 1_555 1_555
C15 C10 1_555 1_555
H10 C15 1_555 1_555
C16 N3 1_555 1_555
C17 C16 1_555 1_555
H11 C17 1_555 1_555
C18 C17 1_555 1_555
H12 C18 1_555 1_555
C19 C18 1_555 1_555
H13 C19 1_555 1_555
C20 C19 1_555 1_555
H14 C20 1_555 1_555
C21 C16 1_555 1_555
H15 C21 1_555 1_555
C8 C9 1_555 1_555
C14 C15 1_555 1_555
C20 C21 1_555 1_555

#END
