
#######################################################################
#
#                 Cambridge Crystallographic Data Centre
#                                CCDC 
#
#######################################################################
#
# If this CIF has been generated from an entry in the Cambridge 
# Structural Database, then it will include bibliographic, chemical, 
# crystal, experimental, refinement or atomic coordinate data resulting 
# from the CCDC's data processing and validation procedures.
#
#######################################################################

data_ESTDOL11
_chemical_name_common            'Estradiol hemihydrate'
_chemical_formula_moiety         'C18 H24 O2,0.5(H2 O1)'
_chemical_name_systematic        'estra-1,3,5(10)-triene-3,17-diol hemihydrate'
_symmetry_cell_setting           orthorhombic
_symmetry_space_group_name_H-M   'P 21 21 2'
_symmetry_Int_Tables_number      18
_space_group_name_Hall           'P 2 2ab'
loop_
_symmetry_equiv_pos_site_id
_symmetry_equiv_pos_as_xyz
1 x,y,z
2 -x,-y,z
3 1/2-x,1/2+y,-z
4 1/2+x,1/2-y,-z
_cell_length_a                   12.061(2)
_cell_length_b                   19.260(4)
_cell_length_c                   6.5490(13)
_cell_angle_alpha                90
_cell_angle_beta                 90
_cell_angle_gamma                90
_cell_volume                     1521.3
_exptl_crystal_colour            colorless
_exptl_crystal_description       block
_cell_formula_units_Z            4
loop_
_atom_site_label
_atom_site_type_symbol
_atom_site_fract_x
_atom_site_fract_y
_atom_site_fract_z
O1 O -0.4257(2) 0.58976(15) 0.3044(4)
H1 H -0.4442 0.5672 0.2000
O2 O 0.4574(2) 0.58863(15) 0.6672(4)
H2 H 0.4955 0.5828 0.5611
C1 C -0.3150(3) 0.60549(18) 0.3269(5)
C2 C -0.2793(3) 0.64140(18) 0.4970(5)
H3 H -0.3319 0.6566 0.5952
C3 C -0.1663(3) 0.65571(17) 0.5270(5)
C4 C -0.0883(3) 0.63218(18) 0.3856(5)
C5 C -0.1274(3) 0.59836(18) 0.2115(5)
H4 H -0.0755 0.5837 0.1112
C6 C -0.2390(3) 0.58525(19) 0.1794(5)
H5 H -0.2631 0.5627 0.0582
C7 C -0.1339(3) 0.69690(19) 0.7154(5)
H6 H -0.1497 0.6686 0.8381
H7 H -0.1806 0.7391 0.7228
C8 C -0.0124(3) 0.71846(19) 0.7192(6)
H8 H -0.0011 0.7590 0.6286
H9 H 0.0089 0.7320 0.8596
C9 C 0.0598(3) 0.65839(17) 0.6479(5)
H10 H 0.0403 0.6164 0.7300
C10 C 0.0359(3) 0.64274(18) 0.4209(5)
H11 H 0.0583 0.6847 0.3412
C11 C 0.1077(3) 0.58207(19) 0.3449(6)
H12 H 0.0827 0.5388 0.4124
H13 H 0.0962 0.5764 0.1961
C12 C 0.2320(3) 0.59199(19) 0.3861(5)
H14 H 0.2724 0.5492 0.3479
H15 H 0.2605 0.6304 0.3005
C13 C 0.2538(3) 0.60843(16) 0.6113(5)
C14 C 0.1833(3) 0.67180(17) 0.6707(5)
H16 H 0.2020 0.7090 0.5698
C15 C 0.2314(3) 0.69596(19) 0.8761(6)
H17 H 0.1964 0.6709 0.9912
H18 H 0.2204 0.7465 0.8952
C16 C 0.3563(3) 0.6780(2) 0.8602(6)
H19 H 0.4016 0.7209 0.8590
H20 H 0.3796 0.6489 0.9771
C17 C 0.3698(3) 0.63802(19) 0.6579(5)
H21 H 0.3884 0.6724 0.5488
C18 C 0.2329(3) 0.54481(18) 0.7455(5)
H22 H 0.2836 0.5074 0.7060
H23 H 0.1561 0.5292 0.7277
H24 H 0.2454 0.5570 0.8890
O3 O 0.5000 0.5000 1.0025(6)
H25 H 0.5246 0.4696 0.9225
H25A H 0.4754 0.5304 0.9225
loop_
_geom_bond_atom_site_label_1
_geom_bond_atom_site_label_2
_geom_bond_site_symmetry_1
_geom_bond_site_symmetry_2
O1 H1 1_555 1_555
O2 H2 1_555 1_555
C1 O1 1_555 1_555
C2 C1 1_555 1_555
H3 C2 1_555 1_555
C3 C2 1_555 1_555
C4 C3 1_555 1_555
C5 C4 1_555 1_555
H4 C5 1_555 1_555
C6 C1 1_555 1_555
H5 C6 1_555 1_555
C7 C3 1_555 1_555
H6 C7 1_555 1_555
H7 C7 1_555 1_555
C8 C7 1_555 1_555
H8 C8 1_555 1_555
H9 C8 1_555 1_555
C9 C8 1_555 1_555
H10 C9 1_555 1_555
C10 C4 1_555 1_555
H11 C10 1_555 1_555
C11 C10 1_555 1_555
H12 C11 1_555 1_555
H13 C11 1_555 1_555
C12 C11 1_555 1_555
H14 C12 1_555 1_555
H15 C12 1_555 1_555
C13 C12 1_555 1_555
C14 C9 1_555 1_555
H16 C14 1_555 1_555
C15 C14 1_555 1_555
H17 C15 1_555 1_555
H18 C15 1_555 1_555
C16 C15 1_555 1_555
H19 C16 1_555 1_555
H20 C16 1_555 1_555
C17 O2 1_555 1_555
H21 C17 1_555 1_555
C18 C13 1_555 1_555
H22 C18 1_555 1_555
H23 C18 1_555 1_555
H24 C18 1_555 1_555
O3 H25 1_555 1_555
H25A O3 1_555 1_555
C5 C6 1_555 1_555
C9 C10 1_555 1_555
C13 C14 1_555 1_555
C13 C17 1_555 1_555
C16 C17 1_555 1_555

#END
