
#######################################################################
#
#                 Cambridge Crystallographic Data Centre
#                                CCDC 
#
#######################################################################
#
# If this CIF has been generated from an entry in the Cambridge 
# Structural Database, then it will include bibliographic, chemical, 
# crystal, experimental, refinement or atomic coordinate data resulting 
# from the CCDC's data processing and validation procedures.
#
#######################################################################

data_ESTRIO
_chemical_name_common            Trihydroxyestrin
_chemical_formula_moiety         'C18 H24 O3'
_chemical_name_systematic        Estriol
_chemical_properties_biological  estrogen
_symmetry_cell_setting           monoclinic
_symmetry_space_group_name_H-M   'P 21'
_symmetry_Int_Tables_number      4
_space_group_name_Hall           'P 2yb'
loop_
_symmetry_equiv_pos_site_id
_symmetry_equiv_pos_as_xyz
1 x,y,z
2 -x,1/2+y,-z
_cell_length_a                   9.261(3)
_cell_length_b                   23.025(2)
_cell_length_c                   7.561(2)
_cell_angle_alpha                90
_cell_angle_beta                 111.0(3)
_cell_angle_gamma                90
_cell_volume                     1505.18
_cell_formula_units_Z            4
loop_
_atom_site_label
_atom_site_type_symbol
_atom_site_fract_x
_atom_site_fract_y
_atom_site_fract_z
C1 C -0.02839 -0.26832 0.45922
C2 C 0.01101 -0.24675 0.64412
C3 C -0.03387 -0.14113 0.52128
C4 C -0.00536 -0.07710 0.57983
C5 C -0.05895 -0.06287 0.74246
C6 C 0.02852 -0.10376 0.90960
C7 C -0.00999 -0.07923 1.07681
C8 C -0.02662 -0.01342 1.03789
C9 C -0.00489 -0.00455 0.84718
C10 C -0.23552 -0.06743 0.67938
C11 C -0.05412 -0.32652 0.41544
C12 C -0.03754 -0.36551 0.56022
C13 C 0.00069 -0.34638 0.74631
C14 C 0.02446 -0.28692 0.78913
C15 C 0.05897 -0.26896 0.99169
C16 C 0.09517 -0.20629 1.03346
C17 C -0.00399 -0.16832 0.86478
C18 C 0.04131 -0.18288 0.69113
H1 H -0.04830 -0.23680 0.35000
H2 H 0.01080 -0.15250 0.42720
H3 H -0.15270 -0.15070 0.43910
H4 H 0.11380 -0.06720 0.63430
H5 H 0.15170 -0.09530 0.94990
H6 H -0.11220 -0.09720 1.07530
H7 H 0.08660 -0.08770 1.20100
H8 H -0.14220 0.00180 0.99990
H9 H 0.18540 0.00110 1.18400
H10 H 0.11140 -0.00190 0.87780
H11 H -0.05610 0.06330 0.64340
H12 H -0.26540 -0.10730 0.63910
H13 H -0.26140 -0.06180 0.79240
H14 H -0.28650 -0.03840 0.57280
H15 H -0.10590 -0.34120 0.28630
H16 H -0.06570 -0.05570 0.46750
H17 H -0.01350 -0.44330 0.64270
H18 H 0.01100 -0.37840 0.83830
H19 H -0.03970 -0.28140 1.03380
H20 H 0.13230 -0.29380 1.07270
H21 H 0.05870 -0.19510 1.14240
H22 H 0.21670 -0.20080 1.03790
H23 H -0.11560 -0.17740 0.83510
H24 H 0.15870 -0.17530 0.73340
O1 O 0.07936 0.01996 1.18772
O2 O -0.08773 0.04532 0.75110
O3 O -0.06211 -0.42382 0.51646
C19 C -0.43024 -0.16755 0.03358
C20 C -0.47454 -0.18783 -0.15063
C21 C -0.43288 -0.29531 -0.04372
C22 C -0.37738 -0.35536 -0.08720
C23 C -0.47626 -0.37578 -0.28671
C24 C -0.47160 -0.32751 -0.43112
C25 C -0.53968 -0.35774 -0.62391
C26 C -0.48927 -0.42118 -0.58217
C27 C -0.40497 -0.42405 -0.36766
C28 C -0.64038 -0.39264 -0.30063
C29 C -0.45315 -0.11020 0.07788
C30 C -0.52000 -0.07241 -0.06761
C31 C -0.57013 -0.09076 -0.25620
C32 C -0.54613 -0.14882 -0.29682
C33 C -0.60028 -0.16699 -0.50245
C34 C -0.52604 -0.22273 -0.53689
C35 C -0.53314 -0.26957 -0.39647
C36 C -0.43399 -0.24999 -0.19491
H25 H -0.49920 0.00320 -0.10980
H26 H -0.38430 -0.19350 0.13810
H27 H -0.37630 -0.28160 0.07740
H28 H -0.53170 -0.29630 -0.05100
H29 H -0.35160 -0.32170 -0.38880
H30 H -0.66090 -0.35250 -0.67980
H31 H -0.58960 -0.44610 -0.61130
H32 H -0.28900 -0.41330 -0.33680
H33 H -0.68760 -0.35950 -0.27520
H34 H -0.40450 -0.09410 0.20730
H35 H -0.26830 -0.35260 -0.07300
H36 H -0.38110 -0.37190 0.00680
H37 H -0.60030 -0.06370 -0.36760
H38 H -0.50470 -0.34640 -0.73310
H39 H -0.72000 -0.16920 -0.56210
H40 H -0.28740 -0.43710 -0.59380
H41 H -0.59240 -0.13780 -0.56760
H42 H -0.58600 -0.23250 -0.66660
H43 H -0.42160 -0.49260 -0.17700
H44 H -0.40740 -0.21660 -0.52780
H45 H -0.64620 -0.27730 -0.40880
H46 H -0.71450 -0.40530 -0.44180
H47 H -0.63460 -0.42910 -0.18910
H48 H -0.32970 -0.24680 -0.17370
O4 O -0.39125 -0.44171 -0.68474
O5 O -0.40070 -0.48189 -0.29455
O6 O -0.53713 -0.01489 -0.02769
loop_
_geom_bond_atom_site_label_1
_geom_bond_atom_site_label_2
_geom_bond_site_symmetry_1
_geom_bond_site_symmetry_2
C1 C2 1_555 1_555
C2 C14 1_555 1_555
C3 C4 1_555 1_555
C4 C5 1_555 1_555
C5 C6 1_555 1_555
C6 C7 1_555 1_555
C7 C8 1_555 1_555
C8 C9 1_555 1_555
C9 C5 1_555 1_555
C10 C5 1_555 1_555
C11 C1 1_555 1_555
C12 C11 1_555 1_555
C13 C12 1_555 1_555
C14 C13 1_555 1_555
C15 C14 1_555 1_555
C16 C15 1_555 1_555
C17 C6 1_555 1_555
C18 C2 1_555 1_555
H1 C1 1_555 1_555
H2 C3 1_555 1_555
H3 C3 1_555 1_555
H4 C4 1_555 1_555
H5 C6 1_555 1_555
H6 C7 1_555 1_555
H7 C7 1_555 1_555
H8 C8 1_555 1_555
H9 O1 1_555 1_555
H10 C9 1_555 1_555
H11 O2 1_555 1_555
H12 C10 1_555 1_555
H13 C10 1_555 1_555
H14 C10 1_555 1_555
H15 C11 1_555 1_555
H16 C4 1_555 1_555
H17 O3 1_555 1_555
H18 C13 1_555 1_555
H19 C15 1_555 1_555
H20 C15 1_555 1_555
H21 C16 1_555 1_555
H22 C16 1_555 1_555
H23 C17 1_555 1_555
H24 C18 1_555 1_555
O1 C8 1_555 1_555
O2 C9 1_555 1_555
O3 C12 1_555 1_555
C19 C20 1_555 1_555
C20 C32 1_555 1_555
C21 C22 1_555 1_555
C22 C23 1_555 1_555
C23 C24 1_555 1_555
C24 C25 1_555 1_555
C25 C26 1_555 1_555
C26 C27 1_555 1_555
C27 C23 1_555 1_555
C28 C23 1_555 1_555
C29 C19 1_555 1_555
C30 C29 1_555 1_555
C31 C30 1_555 1_555
C32 C31 1_555 1_555
C33 C32 1_555 1_555
C34 C33 1_555 1_555
C35 C24 1_555 1_555
C36 C20 1_555 1_555
H25 O6 1_555 1_555
H26 C19 1_555 1_555
H27 C21 1_555 1_555
H28 C21 1_555 1_555
H29 C24 1_555 1_555
H30 C25 1_555 1_555
H31 C26 1_555 1_555
H32 C27 1_555 1_555
H33 C28 1_555 1_555
H34 C29 1_555 1_555
H35 C22 1_555 1_555
H36 C22 1_555 1_555
H37 C31 1_555 1_555
H38 C25 1_555 1_555
H39 C33 1_555 1_555
H40 O4 1_555 1_555
H41 C33 1_555 1_555
H42 C34 1_555 1_555
H43 O5 1_555 1_555
H44 C34 1_555 1_555
H45 C35 1_555 1_555
H46 C28 1_555 1_555
H47 C28 1_555 1_555
H48 C36 1_555 1_555
O4 C26 1_555 1_555
O5 C27 1_555 1_555
O6 C30 1_555 1_555
C3 C18 1_555 1_555
C16 C17 1_555 1_555
C17 C18 1_555 1_555
C21 C36 1_555 1_555
C34 C35 1_555 1_555
C35 C36 1_555 1_555

#END
