
#######################################################################
#
#                 Cambridge Crystallographic Data Centre
#                                CCDC 
#
#######################################################################
#
# If this CIF has been generated from an entry in the Cambridge 
# Structural Database, then it will include bibliographic, chemical, 
# crystal, experimental, refinement or atomic coordinate data resulting 
# from the CCDC's data processing and validation procedures.
#
#######################################################################

data_ESUHEH
_chemical_formula_moiety         'C19 H15 N5 O3'
_chemical_name_systematic        
4-ethoxy-6-(2-nitrophenyl)-1-phenyl-1H-pyrazolo[3,4-d]pyrimidine
_symmetry_cell_setting           triclinic
_symmetry_space_group_name_H-M   'P -1'
_symmetry_Int_Tables_number      2
_space_group_name_Hall           '-P 1'
loop_
_symmetry_equiv_pos_site_id
_symmetry_equiv_pos_as_xyz
1 x,y,z
2 -x,-y,-z
_cell_length_a                   8.2325(6)
_cell_length_b                   10.3901(8)
_cell_length_c                   10.9502(8)
_cell_angle_alpha                70.301(7)
_cell_angle_beta                 85.173(6)
_cell_angle_gamma                73.167(7)
_cell_volume                     843.948
_exptl_crystal_colour            brown
_exptl_crystal_description       block
_chemical_melting_point          '124-126 deg.C'
_cell_formula_units_Z            2
_exptl_crystal_recrystallization_method ethanol
loop_
_atom_site_label
_atom_site_type_symbol
_atom_site_fract_x
_atom_site_fract_y
_atom_site_fract_z
O1 O 0.44959(15) 0.10116(13) 0.74532(12)
O2 O 0.66183(16) -0.37314(14) 0.90540(13)
O3 O 0.72908(16) -0.41519(15) 0.72367(13)
N1 N 0.23851(18) -0.20405(16) 0.99456(14)
N2 N 0.39251(18) -0.11673(16) 0.80058(14)
N3 N 0.16257(18) -0.04159(16) 1.12045(14)
N4 N 0.62816(19) -0.39908(16) 0.81103(15)
C1 C 0.2351(2) -0.08317(19) 1.01757(17)
C2 C 0.3830(2) 0.0016(2) 0.82595(17)
C3 C 0.3022(2) 0.0249(2) 0.93799(17)
C4 C 0.2980(2) -0.5503(2) 0.75172(18)
H1 H 0.2905 -0.6202 0.7191
C5 C 0.0803(2) -0.2522(2) 1.25793(18)
H2 H 0.1289 -0.3000 1.1999
C6 C 0.3179(2) -0.33597(19) 0.84683(17)
C7 C 0.0059(2) -0.0401(2) 1.31801(18)
H3 H 0.0055 0.0540 1.3008
N5 N 0.18266(19) 0.08969(17) 1.10891(15)
C8 C 0.3185(2) -0.2116(2) 0.88580(17)
C9 C -0.0685(2) -0.1098(2) 1.42941(19)
H4 H -0.1195 -0.0616 1.4866
C10 C 0.5655(2) 0.2100(2) 0.54239(19)
H5 H 0.6193 0.1955 0.4650
H6 H 0.6396 0.2359 0.5873
H7 H 0.4613 0.2848 0.5198
C11 C 0.5286(2) 0.0746(2) 0.62884(18)
H8 H 0.4528 0.0479 0.5848
H9 H 0.6329 -0.0021 0.6513
C12 C -0.0680(2) -0.2501(2) 1.45674(19)
H10 H -0.1171 -0.2964 1.5321
C13 C 0.0811(2) -0.1121(2) 1.23215(17)
C14 C 0.4518(2) -0.5232(2) 0.75406(18)
H11 H 0.5488 -0.5749 0.7237
C15 C 0.2646(2) 0.1287(2) 1.00058(18)
H12 H 0.2941 0.2138 0.9691
C16 C 0.0068(2) -0.3205(2) 1.37013(18)
H13 H 0.0077 -0.4147 1.3876
C17 C 0.4599(2) -0.4181(2) 0.80218(17)
C18 C 0.1542(2) -0.4728(2) 0.79823(18)
H14 H 0.0508 -0.4924 0.7984
C19 C 0.1646(2) -0.3664(2) 0.84449(18)
H15 H 0.0673 -0.3145 0.8745
loop_
_geom_bond_atom_site_label_1
_geom_bond_atom_site_label_2
_geom_bond_site_symmetry_1
_geom_bond_site_symmetry_2
O1 C2 1_555 1_555
O2 N4 1_555 1_555
O3 N4 1_555 1_555
N1 C1 1_555 1_555
N2 C2 1_555 1_555
N3 C1 1_555 1_555
N4 C17 1_555 1_555
C1 C3 1_555 1_555
C2 C3 1_555 1_555
C3 C15 1_555 1_555
C4 H1 1_555 1_555
C5 H2 1_555 1_555
C6 C8 1_555 1_555
C7 H3 1_555 1_555
N5 N3 1_555 1_555
C8 N1 1_555 1_555
C9 C7 1_555 1_555
H4 C9 1_555 1_555
C10 H5 1_555 1_555
H6 C10 1_555 1_555
H7 C10 1_555 1_555
C11 O1 1_555 1_555
H8 C11 1_555 1_555
H9 C11 1_555 1_555
C12 C9 1_555 1_555
H10 C12 1_555 1_555
C13 N3 1_555 1_555
C14 C4 1_555 1_555
H11 C14 1_555 1_555
C15 N5 1_555 1_555
H12 C15 1_555 1_555
C16 C5 1_555 1_555
H13 C16 1_555 1_555
C17 C6 1_555 1_555
C18 C4 1_555 1_555
H14 C18 1_555 1_555
C19 C6 1_555 1_555
H15 C19 1_555 1_555
N2 C8 1_555 1_555
C5 C13 1_555 1_555
C7 C13 1_555 1_555
C10 C11 1_555 1_555
C12 C16 1_555 1_555
C14 C17 1_555 1_555
C18 C19 1_555 1_555

#END
