
#######################################################################
#
#                 Cambridge Crystallographic Data Centre
#                                CCDC 
#
#######################################################################
#
# If this CIF has been generated from an entry in the Cambridge 
# Structural Database, then it will include bibliographic, chemical, 
# crystal, experimental, refinement or atomic coordinate data resulting 
# from the CCDC's data processing and validation procedures.
#
#######################################################################

data_ESUMEM
_chemical_formula_moiety         'C28 H31 N1 Si2'
_chemical_name_systematic        
N-t-butyl-N-(diphenylsilyl)-1,1-diphenylsilanamine
_symmetry_cell_setting           orthorhombic
_symmetry_space_group_name_H-M   'P n 21 a'
_symmetry_Int_Tables_number      33
_space_group_name_Hall           'P -2ac -2n'
loop_
_symmetry_equiv_pos_site_id
_symmetry_equiv_pos_as_xyz
1 x,y,z
2 -x,1/2+y,-z
3 1/2-x,1/2+y,1/2+z
4 1/2+x,y,1/2-z
_cell_length_a                   20.8791(8)
_cell_length_b                   9.8200(3)
_cell_length_c                   12.7340(4)
_cell_angle_alpha                90
_cell_angle_beta                 90
_cell_angle_gamma                90
_cell_volume                     2610.89
_exptl_crystal_colour            colorless
_exptl_crystal_description       block
_cell_formula_units_Z            4
loop_
_atom_site_label
_atom_site_type_symbol
_atom_site_fract_x
_atom_site_fract_y
_atom_site_fract_z
Si1 Si 0.12893(11) 0.0305(4) 0.1858(2)
H1 H 0.0975 -0.0136 0.1398
Si2 Si 0.00797(11) 0.0156(3) 0.3053(2)
H2 H -0.0047 0.0194 0.3793
N1 N 0.0880(3) 0.0617(8) 0.3016(6)
C1 C 0.1972(5) -0.0932(12) 0.1942(8)
C2 C -0.0030(5) -0.1664(11) 0.2632(9)
C3 C -0.0430(5) 0.1599(11) 0.1286(10)
H3 H -0.0095 0.1223 0.0901
C4 C -0.0477(5) 0.1300(10) 0.2342(10)
C5 C 0.1191(5) 0.1239(12) 0.3960(9)
C6 C 0.1532(5) 0.1891(11) 0.1141(8)
C7 C 0.1830(6) -0.2316(12) 0.2022(9)
H4 H 0.1406 -0.2608 0.2029
C8 C 0.1874(5) 0.1694(14) 0.3736(8)
H5 H 0.2118 0.0935 0.3481
H6 H 0.2065 0.2034 0.4370
H7 H 0.1869 0.2402 0.3215
C9 C 0.2612(5) -0.0572(13) 0.1919(8)
H8 H 0.2720 0.0342 0.1847
C10 C 0.2116(6) 0.3062(16) -0.0215(9)
H9 H 0.2436 0.3049 -0.0722
C11 C 0.1192(5) 0.3086(12) 0.1295(8)
H10 H 0.0870 0.3104 0.1800
C12 C -0.0364(5) -0.2063(13) 0.1768(10)
H11 H -0.0542 -0.1401 0.1335
C13 C 0.1990(5) 0.1904(13) 0.0356(9)
H12 H 0.2218 0.1112 0.0211
C14 C 0.3100(6) -0.1540(18) 0.2003(10)
H13 H 0.3527 -0.1271 0.2005
C15 C 0.1315(6) 0.4240(13) 0.0727(9)
H14 H 0.1087 0.5036 0.0859
C16 C 0.1783(6) 0.4212(15) -0.0050(10)
H15 H 0.1864 0.4983 -0.0452
C17 C 0.2946(7) -0.2853(16) 0.2080(10)
H16 H 0.3268 -0.3504 0.2127
C18 C -0.0183(6) -0.4403(15) 0.2146(12)
H17 H -0.0238 -0.5319 0.1985
C19 C 0.0228(6) -0.2658(12) 0.3237(10)
H18 H 0.0461 -0.2410 0.3830
C20 C 0.1233(6) 0.0137(15) 0.4819(8)
H19 H 0.0810 -0.0086 0.5058
H20 H 0.1482 0.0473 0.5397
H21 H 0.1433 -0.0663 0.4536
C21 C -0.0448(6) -0.3422(15) 0.1514(12)
H22 H -0.0681 -0.3667 0.0921
C22 C -0.0991(5) 0.1933(14) 0.2863(11)
H23 H -0.1041 0.1788 0.3580
C23 C 0.0159(7) -0.4038(13) 0.3005(12)
H24 H 0.0345 -0.4696 0.3433
C24 C 0.2323(7) -0.3252(15) 0.2091(10)
H25 H 0.2226 -0.4174 0.2146
C25 C -0.1359(8) 0.3003(14) 0.1323(15)
H26 H -0.1652 0.3560 0.0980
C26 C 0.0802(6) 0.2460(12) 0.4363(9)
H27 H 0.0806 0.3171 0.3845
H28 H 0.0988 0.2790 0.5003
H29 H 0.0368 0.2181 0.4491
C27 C -0.1419(6) 0.2747(14) 0.2361(15)
H30 H -0.1756 0.3132 0.2735
C28 C -0.0860(7) 0.2430(15) 0.0782(13)
H31 H -0.0812 0.2605 0.0069
loop_
_geom_bond_atom_site_label_1
_geom_bond_atom_site_label_2
_geom_bond_site_symmetry_1
_geom_bond_site_symmetry_2
Si1 H1 1_555 1_555
Si2 H2 1_555 1_555
N1 Si1 1_555 1_555
C1 Si1 1_555 1_555
C2 Si2 1_555 1_555
C3 H3 1_555 1_555
C4 Si2 1_555 1_555
C5 N1 1_555 1_555
C6 Si1 1_555 1_555
C7 C1 1_555 1_555
H4 C7 1_555 1_555
C8 C5 1_555 1_555
H5 C8 1_555 1_555
H6 C8 1_555 1_555
H7 C8 1_555 1_555
C9 C1 1_555 1_555
H8 C9 1_555 1_555
C10 H9 1_555 1_555
C11 C6 1_555 1_555
H10 C11 1_555 1_555
C12 C2 1_555 1_555
H11 C12 1_555 1_555
C13 C6 1_555 1_555
H12 C13 1_555 1_555
C14 C9 1_555 1_555
H13 C14 1_555 1_555
C15 C11 1_555 1_555
H14 C15 1_555 1_555
C16 C10 1_555 1_555
H15 C16 1_555 1_555
C17 C14 1_555 1_555
H16 C17 1_555 1_555
C18 H17 1_555 1_555
C19 C2 1_555 1_555
H18 C19 1_555 1_555
C20 C5 1_555 1_555
H19 C20 1_555 1_555
H20 C20 1_555 1_555
H21 C20 1_555 1_555
C21 C12 1_555 1_555
H22 C21 1_555 1_555
C22 C4 1_555 1_555
H23 C22 1_555 1_555
C23 C18 1_555 1_555
H24 C23 1_555 1_555
C24 C7 1_555 1_555
H25 C24 1_555 1_555
C25 H26 1_555 1_555
C26 C5 1_555 1_555
H27 C26 1_555 1_555
H28 C26 1_555 1_555
H29 C26 1_555 1_555
C27 C22 1_555 1_555
H30 C27 1_555 1_555
C28 C3 1_555 1_555
H31 C28 1_555 1_555
Si2 N1 1_555 1_555
C3 C4 1_555 1_555
C10 C13 1_555 1_555
C15 C16 1_555 1_555
C17 C24 1_555 1_555
C18 C21 1_555 1_555
C19 C23 1_555 1_555
C25 C27 1_555 1_555
C25 C28 1_555 1_555

#END
