
#######################################################################
#
#                 Cambridge Crystallographic Data Centre
#                                CCDC 
#
#######################################################################
#
# If this CIF has been generated from an entry in the Cambridge 
# Structural Database, then it will include bibliographic, chemical, 
# crystal, experimental, refinement or atomic coordinate data resulting 
# from the CCDC's data processing and validation procedures.
#
#######################################################################

data_ESUYIB
_chemical_formula_moiety         'C38 H42 N2 2+,0.5(Cl6 Te1 2-),Cl1 1-'
_chemical_name_systematic        
"N,N'-((4,6-Dimethyl-1,3-phenylene)bis(methylene))bis(N-benzyl(phenyl)methanaminium) hemikis(hexachloro-tellurium) chloride"
_symmetry_cell_setting           triclinic
_symmetry_space_group_name_H-M   'P -1'
_symmetry_Int_Tables_number      2
_space_group_name_Hall           '-P 1'
loop_
_symmetry_equiv_pos_site_id
_symmetry_equiv_pos_as_xyz
1 x,y,z
2 -x,-y,-z
_cell_length_a                   11.066(3)
_cell_length_b                   12.2176(13)
_cell_length_c                   14.084(3)
_cell_angle_alpha                98.715(14)
_cell_angle_beta                 95.58(2)
_cell_angle_gamma                101.334(18)
_cell_volume                     1829.55
_cell_formula_units_Z            2
loop_
_atom_site_label
_atom_site_type_symbol
_atom_site_fract_x
_atom_site_fract_y
_atom_site_fract_z
Te1 Te 0.0000 0.0000 0.5000
Cl1 Cl 0.0709(3) -0.1826(2) 0.50209(19)
Cl2 Cl 0.2106(2) 0.1050(3) 0.47221(17)
Cl3 Cl -0.07149(16) -0.05327(13) 0.31857(11)
Cl1A Cl -0.0709(3) 0.1826(2) 0.49791(19)
Cl2A Cl -0.2106(2) -0.1050(3) 0.52779(17)
Cl3A Cl 0.07149(16) 0.05327(13) 0.68143(11)
Cl4 Cl -0.43966(12) -0.42049(10) 0.89266(8)
N1 N -0.3248(4) -0.3069(3) 0.7298(3)
N2 N -0.5912(4) -0.6792(3) 0.8141(3)
C1 C -0.1914(5) -0.3216(5) 0.7336(4)
H1 H -0.1918 -0.4020 0.7241
H2 H -0.1553 -0.2915 0.6804
C2 C -0.1102(4) -0.2650(4) 0.8264(4)
C3 C -0.0311(5) -0.1615(5) 0.8295(5)
H3 H -0.0296 -0.1273 0.7748
C4 C 0.0450(6) -0.1095(6) 0.9130(7)
H4 H 0.0984 -0.0399 0.9151
C5 C 0.0427(7) -0.1599(8) 0.9938(6)
H5 H 0.0930 -0.1233 1.0510
C6 C -0.0326(6) -0.2626(8) 0.9904(5)
H6 H -0.0316 -0.2976 1.0446
C7 C -0.1110(5) -0.3156(5) 0.9065(4)
H7 H -0.1640 -0.3854 0.9046
C8 C -0.3293(5) -0.1831(4) 0.7515(4)
H8 H -0.2744 -0.1485 0.8109
H9 H -0.2970 -0.1467 0.6998
C9 C -0.4551(5) -0.1595(4) 0.7622(4)
C10 C -0.5010(7) -0.1560(5) 0.8491(5)
H10 H -0.4556 -0.1731 0.9020
C11 C -0.6167(8) -0.1266(6) 0.8590(7)
H11 H -0.6486 -0.1240 0.9178
C12 C -0.6811(7) -0.1019(6) 0.7790(9)
H12 H -0.7581 -0.0834 0.7841
C13 C -0.6357(7) -0.1039(6) 0.6936(7)
H13 H -0.6801 -0.0861 0.6407
C14 C -0.5233(6) -0.1326(5) 0.6857(5)
H14 H -0.4920 -0.1339 0.6267
C15 C -0.3987(5) -0.3643(4) 0.6333(3)
H15 H -0.4816 -0.3490 0.6309
H16 H -0.3594 -0.3324 0.5821
C16 C -0.4085(5) -0.4901(4) 0.6155(3)
C17 C -0.4960(4) -0.5544(4) 0.6592(3)
H17 H -0.5482 -0.5180 0.6942
C18 C -0.5104(4) -0.6702(4) 0.6536(3)
C19 C -0.4389(4) -0.7270(4) 0.5950(3)
C20 C -0.3538(5) -0.6616(4) 0.5489(3)
H18 H -0.3062 -0.6987 0.5096
C21 C -0.3349(5) -0.5453(4) 0.5576(3)
C22 C -0.4525(6) -0.8537(5) 0.5779(4)
H19 H -0.3947 -0.8743 0.5355
H20 H -0.5357 -0.8895 0.5487
H21 H -0.4358 -0.8781 0.6386
C23 C -0.2389(6) -0.4845(5) 0.5031(4)
H22 H -0.2002 -0.5387 0.4678
H23 H -0.1770 -0.4303 0.5481
H24 H -0.2787 -0.4462 0.4586
C24 C -0.6058(5) -0.7312(4) 0.7076(3)
H25 H -0.5991 -0.8098 0.7019
H26 H -0.6882 -0.7299 0.6777
C25 C -0.5143(5) -0.7366(4) 0.8788(4)
H27 H -0.4997 -0.6934 0.9441
H28 H -0.5621 -0.8116 0.8810
C26 C -0.3916(5) -0.7478(4) 0.8465(3)
C27 C -0.3685(6) -0.8540(5) 0.8184(4)
H29 H -0.4278 -0.9182 0.8221
C28 C -0.2572(7) -0.8655(6) 0.7844(5)
H30 H -0.2428 -0.9374 0.7643
C29 C -0.1688(6) -0.7715(6) 0.7805(5)
H31 H -0.0952 -0.7796 0.7562
C30 C -0.1879(5) -0.6673(5) 0.8117(5)
H32 H -0.1265 -0.6037 0.8104
C31 C -0.2985(5) -0.6543(4) 0.8457(4)
H33 H -0.3101 -0.5820 0.8682
C32 C -0.7164(5) -0.6818(5) 0.8496(4)
H34 H -0.7673 -0.7578 0.8306
H35 H -0.7045 -0.6639 0.9198
C33 C -0.7839(5) -0.5996(5) 0.8102(5)
C34 C -0.7655(7) -0.4887(8) 0.8571(9)
H36 H -0.718(5) -0.476(4) 0.906(4)
C35 C -0.8283(9) -0.4135(7) 0.8178(11)
H37 H -0.8163 -0.3388 0.8492
C36 C -0.9064(9) -0.4499(9) 0.7343(10)
H38 H -0.9465 -0.3991 0.7080
C37 C -0.9266(7) -0.5542(7) 0.6898(6)
H39 H -0.9813 -0.5775 0.6326
C38 C -0.8678(5) -0.6301(5) 0.7268(5)
H40 H -0.8850 -0.7048 0.6945
H41 H -0.5499 -0.6013 0.8251
H42 H -0.3570 -0.3484 0.7851
loop_
_geom_bond_atom_site_label_1
_geom_bond_atom_site_label_2
_geom_bond_site_symmetry_1
_geom_bond_site_symmetry_2
Te1 Cl1 1_555 1_555
Cl2 Te1 1_555 1_555
Cl3 Te1 1_555 1_555
N1 C1 1_555 1_555
N2 C24 1_555 1_555
C1 H1 1_555 1_555
H2 C1 1_555 1_555
C2 C1 1_555 1_555
C3 C2 1_555 1_555
H3 C3 1_555 1_555
C4 C3 1_555 1_555
H4 C4 1_555 1_555
C5 C4 1_555 1_555
H5 C5 1_555 1_555
C6 C5 1_555 1_555
H6 C6 1_555 1_555
C7 C2 1_555 1_555
H7 C7 1_555 1_555
C8 N1 1_555 1_555
H8 C8 1_555 1_555
H9 C8 1_555 1_555
C9 C8 1_555 1_555
C10 C9 1_555 1_555
H10 C10 1_555 1_555
C11 C10 1_555 1_555
H11 C11 1_555 1_555
C12 C11 1_555 1_555
H12 C12 1_555 1_555
C13 C12 1_555 1_555
H13 C13 1_555 1_555
C14 C9 1_555 1_555
H14 C14 1_555 1_555
C15 N1 1_555 1_555
H15 C15 1_555 1_555
H16 C15 1_555 1_555
C16 C15 1_555 1_555
C17 C16 1_555 1_555
H17 C17 1_555 1_555
C18 C17 1_555 1_555
C19 C18 1_555 1_555
C20 C19 1_555 1_555
H18 C20 1_555 1_555
C21 C16 1_555 1_555
C22 C19 1_555 1_555
H19 C22 1_555 1_555
H20 C22 1_555 1_555
H21 C22 1_555 1_555
C23 C21 1_555 1_555
H22 C23 1_555 1_555
H23 C23 1_555 1_555
H24 C23 1_555 1_555
C24 C18 1_555 1_555
H25 C24 1_555 1_555
H26 C24 1_555 1_555
C25 N2 1_555 1_555
H27 C25 1_555 1_555
H28 C25 1_555 1_555
C26 C25 1_555 1_555
C27 C26 1_555 1_555
H29 C27 1_555 1_555
C28 C27 1_555 1_555
H30 C28 1_555 1_555
C29 C28 1_555 1_555
H31 C29 1_555 1_555
C30 C29 1_555 1_555
H32 C30 1_555 1_555
C31 C26 1_555 1_555
H33 C31 1_555 1_555
C32 N2 1_555 1_555
H34 C32 1_555 1_555
H35 C32 1_555 1_555
C33 C32 1_555 1_555
C34 C33 1_555 1_555
H36 C34 1_555 1_555
C35 C34 1_555 1_555
H37 C35 1_555 1_555
C36 C35 1_555 1_555
H38 C36 1_555 1_555
C37 C36 1_555 1_555
H39 C37 1_555 1_555
C38 C33 1_555 1_555
H40 C38 1_555 1_555
H41 N2 1_555 1_555
H42 N1 1_555 1_555
Cl1A Te1 1_555 1_555
Cl2A Te1 1_555 1_555
Cl3A Te1 1_555 1_555
C6 C7 1_555 1_555
C13 C14 1_555 1_555
C20 C21 1_555 1_555
C30 C31 1_555 1_555
C37 C38 1_555 1_555

#END
