
#######################################################################
#
#                 Cambridge Crystallographic Data Centre
#                                CCDC 
#
#######################################################################
#
# If this CIF has been generated from an entry in the Cambridge 
# Structural Database, then it will include bibliographic, chemical, 
# crystal, experimental, refinement or atomic coordinate data resulting 
# from the CCDC's data processing and validation procedures.
#
#######################################################################

data_ESUZIB01
_chemical_formula_moiety         'C9 H8 N2 S5'
_chemical_name_systematic        
4,5-bis(2'-Cyanoethylthio)-1,3-dithiole-2-thione
_symmetry_cell_setting           monoclinic
_symmetry_space_group_name_H-M   'P 21/n'
_symmetry_Int_Tables_number      14
_space_group_name_Hall           '-P 2yn'
loop_
_symmetry_equiv_pos_site_id
_symmetry_equiv_pos_as_xyz
1 x,y,z
2 1/2-x,1/2+y,1/2-z
3 -x,-y,-z
4 1/2+x,1/2-y,1/2+z
_cell_length_a                   9.0077(2)
_cell_length_b                   26.9498(6)
_cell_length_c                   10.6144(3)
_cell_angle_alpha                90
_cell_angle_beta                 104.163(2)
_cell_angle_gamma                90
_cell_volume                     2498.38
_cell_formula_units_Z            8
loop_
_atom_site_label
_atom_site_type_symbol
_atom_site_fract_x
_atom_site_fract_y
_atom_site_fract_z
S1 S 1.12867(6) -0.38925(2) -0.04550(6)
S3 S 1.14103(6) -0.469915(19) 0.16036(5)
S6 S 1.44217(6) -0.44116(2) 0.30361(6)
S8 S 1.46791(7) -0.35743(2) 0.12226(6)
S10 S 1.29454(7) -0.52952(2) 0.38987(6)
C2 C 1.2181(2) -0.41811(7) 0.1015(2)
C3 C 1.3594(2) -0.40456(7) 0.1693(2)
C5 C 1.2939(2) -0.48232(7) 0.2913(2)
C9 C 0.8346(3) -0.35885(8) -0.0410(2)
H5 H 0.8456 -0.3318 -0.0984
H6 H 0.7272 -0.3679 -0.0604
C10 C 0.9267(2) -0.40299(8) -0.0680(2)
H7 H 0.8853 -0.4140 -0.1567
H8 H 0.9156 -0.4300 -0.0107
N1 N 0.9209(3) -0.32801(8) 0.1973(2)
C12 C 0.8819(3) -0.34168(8) 0.0931(2)
C13 C 1.2993(3) -0.29052(9) 0.2363(2)
H9 H 1.2372 -0.3182 0.2517
H10 H 1.3061 -0.2670 0.3066
N3 N 1.1631(2) -0.24741(8) 0.0196(2)
C14 C 1.4589(3) -0.30931(8) 0.2390(2)
H11 H 1.5046 -0.3219 0.3254
H12 H 1.5205 -0.2815 0.2238
C15 C 1.2228(3) -0.26660(8) 0.1138(3)
S2 S 0.47142(6) -0.35414(2) -0.37160(6)
S4 S 0.12985(6) -0.39181(2) -0.55487(5)
S5 S 0.14149(6) -0.468295(19) -0.34113(5)
S7 S 0.43810(6) -0.43691(2) -0.19423(6)
S9 S 0.29330(7) -0.52597(2) -0.10757(6)
C1 C 0.2194(2) -0.41703(7) -0.4034(2)
C4 C 0.3583(2) -0.40248(8) -0.3335(2)
C6 C -0.1521(3) -0.35660(8) -0.5265(2)
H1 H -0.1490 -0.3295 -0.5858
H2 H -0.2587 -0.3647 -0.5335
C7 C 0.2923(2) -0.47942(7) -0.2077(2)
C8 C -0.0723(2) -0.40145(8) -0.5668(2)
H3 H -0.1225 -0.4099 -0.6558
H4 H -0.0840 -0.4294 -0.5124
N2 N -0.0277(2) -0.32703(8) -0.2913(2)
C11 C -0.0828(3) -0.34033(8) -0.3942(2)
C16 C 0.3555(3) -0.30065(8) -0.3562(2)
H13 H 0.4002 -0.2716 -0.3865
H14 H 0.2542 -0.3053 -0.4128
C17 C 0.3389(3) -0.29051(8) -0.2191(2)
H15 H 0.2669 -0.2635 -0.2222
H16 H 0.2965 -0.3197 -0.1875
N4 N 0.5957(3) -0.26774(8) -0.0566(2)
C18 C 0.4838(3) -0.27764(8) -0.1273(2)
loop_
_geom_bond_atom_site_label_1
_geom_bond_atom_site_label_2
_geom_bond_site_symmetry_1
_geom_bond_site_symmetry_2
S1 C2 1_555 1_555
S2 C4 1_555 1_555
S3 C2 1_555 1_555
S4 C1 1_555 1_555
S5 C1 1_555 1_555
S6 C3 1_555 1_555
S7 C4 1_555 1_555
S8 C3 1_555 1_555
S9 C7 1_555 1_555
S10 C5 1_555 1_555
C1 C4 1_555 1_555
C2 C3 1_555 1_555
C5 S3 1_555 1_555
C6 H1 1_555 1_555
H2 C6 1_555 1_555
C7 S5 1_555 1_555
C8 S4 1_555 1_555
H3 C8 1_555 1_555
H4 C8 1_555 1_555
C9 H5 1_555 1_555
H6 C9 1_555 1_555
C10 S1 1_555 1_555
H7 C10 1_555 1_555
H8 C10 1_555 1_555
N1 C12 1_555 1_555
N2 C11 1_555 1_555
C11 C6 1_555 1_555
C12 C9 1_555 1_555
C13 H9 1_555 1_555
H10 C13 1_555 1_555
N3 C15 1_555 1_555
C14 S8 1_555 1_555
H11 C14 1_555 1_555
H12 C14 1_555 1_555
C15 C13 1_555 1_555
C16 S2 1_555 1_555
H13 C16 1_555 1_555
H14 C16 1_555 1_555
C17 C16 1_555 1_555
H15 C17 1_555 1_555
H16 C17 1_555 1_555
N4 C18 1_555 1_555
C18 C17 1_555 1_555
S6 C5 1_555 1_555
S7 C7 1_555 1_555
C6 C8 1_555 1_555
C9 C10 1_555 1_555
C13 C14 1_555 1_555

#END
