
#######################################################################
#
#                 Cambridge Crystallographic Data Centre
#                                CCDC 
#
#######################################################################
#
# If this CIF has been generated from an entry in the Cambridge 
# Structural Database, then it will include bibliographic, chemical, 
# crystal, experimental, refinement or atomic coordinate data resulting 
# from the CCDC's data processing and validation procedures.
#
#######################################################################

data_ETACEI
_chemical_formula_moiety         'C27 H24 N2 O5 S2'
_chemical_name_systematic        
N-(3-(bis(phenylsulfonyl)amino)-4'-methylbiphenyl-4-yl)acetamide
_symmetry_cell_setting           triclinic
_symmetry_space_group_name_H-M   'P -1'
_symmetry_Int_Tables_number      2
_space_group_name_Hall           '-P 1'
loop_
_symmetry_equiv_pos_site_id
_symmetry_equiv_pos_as_xyz
1 x,y,z
2 -x,-y,-z
_cell_length_a                   9.889(5)
_cell_length_b                   11.320(5)
_cell_length_c                   12.066(5)
_cell_angle_alpha                99.648(5)
_cell_angle_beta                 105.586(5)
_cell_angle_gamma                100.964(5)
_cell_volume                     1242.67
_cell_formula_units_Z            2
loop_
_atom_site_label
_atom_site_type_symbol
_atom_site_fract_x
_atom_site_fract_y
_atom_site_fract_z
C1 C 0.5692(6) 1.3391(5) 0.2634(6)
H1 H 0.4819 1.3468 0.2751
C2 C 0.6448(8) 1.4250(7) 0.2183(7)
H2 H 0.6084 1.4917 0.2003
C3 C 0.7716(8) 1.4125(6) 0.2001(6)
H3 H 0.8213 1.4714 0.1703
C4 C 0.8265(7) 1.3164(6) 0.2245(6)
H4 H 0.9118 1.3078 0.2090
C5 C 0.7560(5) 1.2294(5) 0.2729(5)
H5 H 0.7955 1.1647 0.2928
C6 C 0.6272(5) 1.2411(4) 0.2906(4)
C7 C 0.3716(5) 0.7846(4) 0.1766(4)
C8 C 0.4590(6) 0.7563(5) 0.2729(5)
H6 H 0.5476 0.8101 0.3178
C9 C 0.4116(8) 0.6463(6) 0.3008(6)
H7 H 0.4690 0.6258 0.3660
C10 C 0.2820(8) 0.5664(5) 0.2347(5)
H8 H 0.2525 0.4914 0.2538
C11 C 0.1952(7) 0.5975(5) 0.1395(5)
H9 H 0.1062 0.5439 0.0949
C12 C 0.2396(6) 0.7078(5) 0.1102(5)
H10 H 0.1810 0.7296 0.0465
C13 C -0.2005(7) 0.6161(7) 0.5518(6)
H11 H -0.1546 0.5488 0.5567
H12 H -0.3023 0.5840 0.5112
H13 H -0.1866 0.6622 0.6301
C14 C -0.1346(5) 0.6995(5) 0.4852(5)
C15 C -0.0245(6) 0.6740(5) 0.4396(5)
H14 H 0.0096 0.6046 0.4518
C16 C 0.0340(5) 0.7488(5) 0.3776(5)
H15 H 0.1073 0.7294 0.3488
C17 C -0.0135(4) 0.8525(4) 0.3569(4)
C18 C -0.1239(5) 0.8791(5) 0.4027(4)
H16 H -0.1585 0.9483 0.3905
C19 C -0.1811(5) 0.8031(5) 0.4658(4)
H17 H -0.2533 0.8226 0.4961
C20 C 0.0486(5) 0.9342(4) 0.2898(4)
C21 C 0.1960(4) 0.9536(4) 0.2965(4)
H18 H 0.2562 0.9179 0.3467
C22 C 0.2512(4) 1.0245(4) 0.2298(4)
C23 C 0.1673(5) 1.0831(4) 0.1548(4)
C24 C 0.0221(5) 1.0657(4) 0.1501(4)
H19 H -0.0374 1.1034 0.1015
C25 C -0.0345(5) 0.9939(4) 0.2158(4)
H20 H -0.1315 0.9848 0.2109
C26 C 0.1885(6) 1.2462(5) 0.0421(5)
C27 C 0.0900(5) 1.2902(4) 0.0681(4)
H21 H 0.0766 1.3569 0.0300
H22 H 0.1173 1.3204 0.1522
H23 H 0.0012 1.2268 0.0418
N1 N 0.2282(4) 1.1511(4) 0.0851(4)
H24 H 0.2821 1.1157 0.0588
N2 N 0.4027(4) 1.0357(3) 0.2346(3)
O1 O 0.2670(7) 1.2970(6) -0.0363(6)
O2 O 0.6303(4) 1.0670(4) 0.4068(3)
O3 O 0.4571(4) 1.1961(4) 0.4159(3)
O4 O 0.5855(4) 0.9509(3) 0.1618(3)
O5 O 0.3386(4) 0.9236(3) 0.0271(3)
S1 S 0.43246(12) 0.92528(11) 0.13943(10)
S2 S 0.53508(12) 1.13380(12) 0.35219(10)
loop_
_geom_bond_atom_site_label_1
_geom_bond_atom_site_label_2
_geom_bond_site_symmetry_1
_geom_bond_site_symmetry_2
C1 H1 1_555 1_555
C2 C1 1_555 1_555
H2 C2 1_555 1_555
C3 C2 1_555 1_555
H3 C3 1_555 1_555
C4 C3 1_555 1_555
H4 C4 1_555 1_555
C5 C4 1_555 1_555
H5 C5 1_555 1_555
C6 C1 1_555 1_555
C7 C8 1_555 1_555
C8 H6 1_555 1_555
C9 C8 1_555 1_555
H7 C9 1_555 1_555
C10 C9 1_555 1_555
H8 C10 1_555 1_555
C11 C10 1_555 1_555
H9 C11 1_555 1_555
C12 C7 1_555 1_555
H10 C12 1_555 1_555
C13 H11 1_555 1_555
H12 C13 1_555 1_555
H13 C13 1_555 1_555
C14 C13 1_555 1_555
C15 C14 1_555 1_555
H14 C15 1_555 1_555
C16 C15 1_555 1_555
H15 C16 1_555 1_555
C17 C16 1_555 1_555
C18 C17 1_555 1_555
H16 C18 1_555 1_555
C19 C14 1_555 1_555
H17 C19 1_555 1_555
C20 C17 1_555 1_555
C21 C20 1_555 1_555
H18 C21 1_555 1_555
C22 C21 1_555 1_555
C23 C22 1_555 1_555
C24 C23 1_555 1_555
H19 C24 1_555 1_555
C25 C20 1_555 1_555
H20 C25 1_555 1_555
C26 C27 1_555 1_555
C27 H21 1_555 1_555
H22 C27 1_555 1_555
H23 C27 1_555 1_555
N1 C23 1_555 1_555
H24 N1 1_555 1_555
N2 C22 1_555 1_555
O1 C26 1_555 1_555
O2 S2 1_555 1_555
O3 S2 1_555 1_555
O4 S1 1_555 1_555
O5 S1 1_555 1_555
S1 C7 1_555 1_555
S2 C6 1_555 1_555
C5 C6 1_555 1_555
C11 C12 1_555 1_555
C18 C19 1_555 1_555
C24 C25 1_555 1_555
C26 N1 1_555 1_555
N2 S1 1_555 1_555
N2 S2 1_555 1_555

#END
