
#######################################################################
#
#                 Cambridge Crystallographic Data Centre
#                                CCDC 
#
#######################################################################
#
# If this CIF has been generated from an entry in the Cambridge 
# Structural Database, then it will include bibliographic, chemical, 
# crystal, experimental, refinement or atomic coordinate data resulting 
# from the CCDC's data processing and validation procedures.
#
#######################################################################

data_ETACOS
_chemical_formula_moiety         'C25 H28 N2 O6 S2'
_chemical_name_systematic        
N-(4-(Bis(phenylsulfonyl)amino)-2-ethoxyphenyl)-2,2-dimethylpropanamide
_symmetry_cell_setting           triclinic
_symmetry_space_group_name_H-M   'P -1'
_symmetry_Int_Tables_number      2
_space_group_name_Hall           '-P 1'
loop_
_symmetry_equiv_pos_site_id
_symmetry_equiv_pos_as_xyz
1 x,y,z
2 -x,-y,-z
_cell_length_a                   10.0399(6)
_cell_length_b                   10.9768(5)
_cell_length_c                   13.4457(6)
_cell_angle_alpha                109.146(4)
_cell_angle_beta                 92.134(4)
_cell_angle_gamma                110.320(5)
_cell_volume                     1293.47
_cell_formula_units_Z            2
loop_
_atom_site_label
_atom_site_type_symbol
_atom_site_fract_x
_atom_site_fract_y
_atom_site_fract_z
C1 C 0.7816(3) 0.1421(2) 0.2466(2)
C2 C 0.8359(3) 0.1589(3) 0.3478(2)
H1 H 0.9064 0.2433 0.3921
C3 C 0.7842(4) 0.0487(4) 0.3826(3)
H2 H 0.8205 0.0577 0.4504
C4 C 0.6790(4) -0.0743(4) 0.3164(3)
H3 H 0.6443 -0.1486 0.3397
C5 C 0.6249(3) -0.0891(3) 0.2173(3)
H4 H 0.5525 -0.1728 0.1740
C6 C 0.6765(3) 0.0190(2) 0.1804(2)
H5 H 0.6409 0.0086 0.1120
C7 C 0.6788(2) 0.4385(2) 0.0552(2)
C8 C 0.7517(3) 0.3954(3) -0.0249(2)
H6 H 0.7589 0.3089 -0.0424
C9 C 0.8140(4) 0.4817(4) -0.0792(2)
H7 H 0.8655 0.4542 -0.1324
C10 C 0.8007(3) 0.6073(3) -0.0551(3)
H8 H 0.8423 0.6647 -0.0926
C11 C 0.7280(3) 0.6484(3) 0.0221(2)
H9 H 0.7185 0.7336 0.0369
C12 C 0.6666(3) 0.5660(2) 0.0806(2)
H10 H 0.6185 0.5961 0.1354
C13 C 0.7578(2) 0.4706(2) 0.3231(2)
C14 C 0.6923(2) 0.4333(2) 0.4028(2)
H11 H 0.6378 0.3404 0.3910
C15 C 0.7087(2) 0.5359(2) 0.5002(2)
C16 C 0.7874(3) 0.6757(2) 0.5164(2)
C17 C 0.8525(3) 0.7106(2) 0.4361(2)
H12 H 0.9059 0.8035 0.4470
C18 C 0.8381(3) 0.6064(2) 0.3385(2)
H13 H 0.8829 0.6291 0.2841
C19 C 0.5806(3) 0.3778(3) 0.5860(2)
H14 H 0.5196 0.3180 0.5172
H15 H 0.5195 0.3797 0.6402
C20 C 0.6835(5) 0.3196(4) 0.6064(3)
H16 H 0.6327 0.2271 0.6055
H17 H 0.7427 0.3772 0.6751
H18 H 0.7431 0.3158 0.5522
C21 C 0.8310(3) 0.9116(2) 0.6486(2)
C22 C 0.8241(3) 0.9885(2) 0.7648(2)
C23 C 0.6706(3) 0.9796(3) 0.7707(3)
H19 H 0.6074 0.8840 0.7522
H20 H 0.6422 1.0165 0.7216
H21 H 0.6651 1.0328 0.8420
C24 C 0.8660(5) 0.9280(3) 0.8414(2)
H22 H 0.8023 0.8322 0.8214
H23 H 0.8590 0.9798 0.9126
H24 H 0.9633 0.9336 0.8387
C25 C 0.9216(4) 1.1389(3) 0.7953(2)
H25 H 0.9189 1.1896 0.8680
H26 H 0.8898 1.1777 0.7491
H27 H 1.0184 1.1455 0.7883
N1 N 0.7369(2) 0.3617(2) 0.2196(1)
N2 N 0.7963(2) 0.7729(2) 0.6187(1)
H28 H 0.7682 0.7380 0.6581
O1 O 0.5025(2) 0.3799(2) 0.1844(1)
O2 O 0.5554(2) 0.1893(2) 0.0569(1)
O3 O 0.8489(2) 0.2232(2) 0.0879(1)
O4 O 0.9850(2) 0.3776(2) 0.2686(1)
O5 O 0.6486(2) 0.5148(2) 0.5859(1)
O6 O 0.8676(3) 0.9721(2) 0.5875(1)
S1 S 0.6011(1) 0.3306(1) 0.1259
S2 S 0.8532(1) 0.2798(1) 0.2002
loop_
_geom_bond_atom_site_label_1
_geom_bond_atom_site_label_2
_geom_bond_site_symmetry_1
_geom_bond_site_symmetry_2
C1 C2 1_555 1_555
C2 H1 1_555 1_555
C3 C2 1_555 1_555
H2 C3 1_555 1_555
C4 C3 1_555 1_555
H3 C4 1_555 1_555
C5 C4 1_555 1_555
H4 C5 1_555 1_555
C6 C1 1_555 1_555
H5 C6 1_555 1_555
C7 C8 1_555 1_555
C8 H6 1_555 1_555
C9 C8 1_555 1_555
H7 C9 1_555 1_555
C10 C9 1_555 1_555
H8 C10 1_555 1_555
C11 C10 1_555 1_555
H9 C11 1_555 1_555
C12 C7 1_555 1_555
H10 C12 1_555 1_555
C13 C14 1_555 1_555
C14 H11 1_555 1_555
C15 C14 1_555 1_555
C16 C15 1_555 1_555
C17 C16 1_555 1_555
H12 C17 1_555 1_555
C18 C13 1_555 1_555
H13 C18 1_555 1_555
C19 H14 1_555 1_555
H15 C19 1_555 1_555
C20 C19 1_555 1_555
H16 C20 1_555 1_555
H17 C20 1_555 1_555
H18 C20 1_555 1_555
C21 C22 1_555 1_555
C22 C23 1_555 1_555
C23 H19 1_555 1_555
H20 C23 1_555 1_555
H21 C23 1_555 1_555
C24 C22 1_555 1_555
H22 C24 1_555 1_555
H23 C24 1_555 1_555
H24 C24 1_555 1_555
C25 C22 1_555 1_555
H25 C25 1_555 1_555
H26 C25 1_555 1_555
H27 C25 1_555 1_555
N1 C13 1_555 1_555
N2 C16 1_555 1_555
H28 N2 1_555 1_555
O1 S1 1_555 1_555
O2 S1 1_555 1_555
O3 S2 1_555 1_555
O4 S2 1_555 1_555
O5 C15 1_555 1_555
O6 C21 1_555 1_555
S1 C7 1_555 1_555
S2 C1 1_555 1_555
C5 C6 1_555 1_555
C11 C12 1_555 1_555
C17 C18 1_555 1_555
C19 O5 1_555 1_555
C21 N2 1_555 1_555
N1 S1 1_555 1_555
N1 S2 1_555 1_555

#END
