
#######################################################################
#
#                 Cambridge Crystallographic Data Centre
#                                CCDC 
#
#######################################################################
#
# If this CIF has been generated from an entry in the Cambridge 
# Structural Database, then it will include bibliographic, chemical, 
# crystal, experimental, refinement or atomic coordinate data resulting 
# from the CCDC's data processing and validation procedures.
#
#######################################################################

data_ETADUA
_chemical_formula_moiety         'C15 H9 N3 O9 S1'
_chemical_name_systematic        
'3-methyl-2-oxo-2H-1,4-benzoxazin-7-yl 2,4-dinitrobenzenesulfonate'
_symmetry_cell_setting           monoclinic
_symmetry_space_group_name_H-M   'P 21/c'
_symmetry_Int_Tables_number      14
_space_group_name_Hall           '-P 2ybc'
loop_
_symmetry_equiv_pos_site_id
_symmetry_equiv_pos_as_xyz
1 x,y,z
2 -x,1/2+y,1/2-z
3 -x,-y,-z
4 x,1/2-y,1/2+z
_cell_length_a                   6.8410(14)
_cell_length_b                   12.001(2)
_cell_length_c                   20.802(4)
_cell_angle_alpha                90
_cell_angle_beta                 95.45(3)
_cell_angle_gamma                90
_cell_volume                     1700.1
_cell_formula_units_Z            4
loop_
_atom_site_label
_atom_site_type_symbol
_atom_site_fract_x
_atom_site_fract_y
_atom_site_fract_z
S1 S 0.27826(10) 0.35809(6) 0.15927(3)
O1 O 0.6006(3) 0.76279(15) 0.08619(9)
C1 C 0.6225(4) 0.6497(2) 0.08101(11)
O2 O 0.3285(3) 0.39893(16) 0.09044(8)
N1 N 0.9555(3) 0.67361(18) 0.05183(11)
C2 C 0.4938(4) 0.2869(2) 0.18924(11)
C3 C 0.8187(4) 0.4910(2) 0.06193(12)
H1 H 0.9372 0.4601 0.0523
C4 C 0.7182(4) 0.1320(2) 0.18980(12)
H2 H 0.7517 0.0620 0.1752
C5 C 0.8005(4) 0.6062(2) 0.06599(11)
C6 C 0.5454(4) 0.1829(2) 0.16736(11)
C7 C 0.4655(4) 0.5833(2) 0.09090(12)
H3 H 0.3466 0.6133 0.1007
C8 C 0.4914(4) 0.4703(2) 0.08564(11)
C9 C 0.7928(4) 0.2900(2) 0.25851(12)
H4 H 0.8780 0.3254 0.2895
C10 C 0.8394(4) 0.1890(2) 0.23477(12)
C11 C 0.6648(4) 0.4228(2) 0.07186(11)
H5 H 0.6773 0.3458 0.0693
C12 C 0.6183(4) 0.3392(2) 0.23615(12)
H6 H 0.5837 0.4078 0.2526
C13 C 0.9320(4) 0.7792(2) 0.05499(13)
C14 C 0.7551(5) 0.8310(2) 0.07661(14)
O3 O 0.2584(3) 0.45163(18) 0.19932(10)
O4 O 0.1233(3) 0.28118(19) 0.14550(10)
N2 N 0.4209(4) 0.1218(2) 0.11798(13)
O5 O 0.3489(4) 0.0356(2) 0.13455(14)
O6 O 0.4066(5) 0.1592(2) 0.06407(13)
N3 N 1.0338(4) 0.1399(3) 0.25605(14)
O7 O 1.0708(4) 0.0509(2) 0.23405(15)
O8 O 0.7378(4) 0.92937(18) 0.08654(13)
O9 O 1.1452(4) 0.1951(3) 0.29239(13)
C15 C 1.0904(5) 0.8559(3) 0.0364(2)
H7 H 1.2088 0.8141 0.0332
H8 H 1.1139 0.9128 0.0686
H9 H 1.0499 0.8897 -0.0045
loop_
_geom_bond_atom_site_label_1
_geom_bond_atom_site_label_2
_geom_bond_site_symmetry_1
_geom_bond_site_symmetry_2
S1 O2 1_555 1_555
O1 C1 1_555 1_555
C1 C5 1_555 1_555
O2 C8 1_555 1_555
N1 C5 1_555 1_555
C2 S1 1_555 1_555
C3 H1 1_555 1_555
C4 H2 1_555 1_555
C5 C3 1_555 1_555
C6 C2 1_555 1_555
C7 C1 1_555 1_555
H3 C7 1_555 1_555
C8 C7 1_555 1_555
C9 H4 1_555 1_555
C10 C4 1_555 1_555
C11 C3 1_555 1_555
H5 C11 1_555 1_555
C12 C2 1_555 1_555
H6 C12 1_555 1_555
C13 N1 1_555 1_555
C14 O1 1_555 1_555
O3 S1 1_555 1_555
O4 S1 1_555 1_555
N2 C6 1_555 1_555
O5 N2 1_555 1_555
O6 N2 1_555 1_555
N3 C10 1_555 1_555
O7 N3 1_555 1_555
O8 C14 1_555 1_555
O9 N3 1_555 1_555
C15 C13 1_555 1_555
H7 C15 1_555 1_555
H8 C15 1_555 1_555
H9 C15 1_555 1_555
C4 C6 1_555 1_555
C8 C11 1_555 1_555
C9 C10 1_555 1_555
C9 C12 1_555 1_555
C13 C14 1_555 1_555

#END
