
#######################################################################
#
#                 Cambridge Crystallographic Data Centre
#                                CCDC 
#
#######################################################################
#
# If this CIF has been generated from an entry in the Cambridge 
# Structural Database, then it will include bibliographic, chemical, 
# crystal, experimental, refinement or atomic coordinate data resulting 
# from the CCDC's data processing and validation procedures.
#
#######################################################################

data_ETAFAH
_chemical_formula_moiety         'C31 H26 Cl2 O4'
_chemical_name_systematic        
'3-t-Butyl 1-(9-phenanthryl) 1-(3,4-dichlorophenyl)cyclopent-3-ene-1,3-dicarboxylate'
_symmetry_cell_setting           orthorhombic
_symmetry_space_group_name_H-M   'P 21 21 21'
_symmetry_Int_Tables_number      19
_space_group_name_Hall           'P 2ac 2ab'
loop_
_symmetry_equiv_pos_site_id
_symmetry_equiv_pos_as_xyz
1 x,y,z
2 1/2-x,-y,1/2+z
3 -x,1/2+y,1/2-z
4 1/2+x,1/2-y,-z
_cell_length_a                   8.3201(4)
_cell_length_b                   15.3584(7)
_cell_length_c                   20.8270(9)
_cell_angle_alpha                90
_cell_angle_beta                 90
_cell_angle_gamma                90
_cell_volume                     2661.35
_exptl_crystal_colour            colorless
_exptl_crystal_description       block
_cell_formula_units_Z            4
loop_
_atom_site_label
_atom_site_type_symbol
_atom_site_fract_x
_atom_site_fract_y
_atom_site_fract_z
Cl1 Cl 0.08797(17) 0.30289(8) 0.87807(6)
Cl2 Cl -0.08031(19) 0.47097(10) 0.81982(9)
O1 O 0.4162(4) 0.69252(16) 0.72751(13)
O2 O 0.5816(3) 0.60881(15) 0.78582(12)
O3 O 0.8948(4) 0.5118(2) 0.58849(15)
O4 O 0.7727(3) 0.60507(19) 0.52073(13)
C1 C 0.1880(5) 0.3700(3) 0.8247(2)
C2 C 0.1170(5) 0.4443(3) 0.8006(2)
C3 C 0.2021(5) 0.4974(3) 0.7587(2)
H1 H 0.1528 0.5476 0.7422
C4 C 0.3583(5) 0.4777(2) 0.74085(18)
C5 C 0.4256(5) 0.4020(2) 0.76494(18)
H2 H 0.5311 0.3867 0.7535
C6 C 0.3386(5) 0.3486(3) 0.8058(2)
H3 H 0.3850 0.2966 0.8206
C7 C 0.4490(4) 0.5407(2) 0.69767(17)
C8 C 0.4779(4) 0.6240(2) 0.73647(18)
C9 C 0.6120(5) 0.6793(2) 0.82826(19)
C10 C 0.4994(6) 0.7033(3) 0.8707(2)
H4 H 0.3987 0.6756 0.8713
C11 C 0.5345(7) 0.7725(3) 0.9157(2)
C12 C 0.4146(9) 0.7978(3) 0.9610(2)
H5 H 0.3128 0.7714 0.9610
C13 C 0.4522(13) 0.8625(4) 1.0049(3)
H6 H 0.3750 0.8804 1.0351
C14 C 0.6059(15) 0.9015(4) 1.0046(4)
H7 H 0.6302 0.9451 1.0347
C15 C 0.7189(11) 0.8768(4) 0.9612(3)
H8 H 0.8200 0.9041 0.9617
C16 C 0.6884(7) 0.8113(3) 0.9157(2)
C17 C 0.8065(6) 0.7848(3) 0.8687(3)
C18 C 0.9628(8) 0.8225(3) 0.8634(4)
H9 H 0.9918 0.8681 0.8912
C19 C 1.0692(8) 0.7945(4) 0.8195(4)
H10 H 1.1720 0.8198 0.8179
C20 C 1.0305(6) 0.7296(3) 0.7771(4)
H11 H 1.1063 0.7114 0.7464
C21 C 0.8831(5) 0.6912(3) 0.7791(3)
H12 H 0.8574 0.6470 0.7495
C22 C 0.7687(5) 0.7172(2) 0.8252(2)
C23 C 0.6090(5) 0.5057(2) 0.67090(17)
H13 H 0.6983 0.5182 0.7002
H14 H 0.6035 0.4428 0.6633
C24 C 0.6267(4) 0.5551(3) 0.60867(17)
C25 C 0.4861(5) 0.5869(3) 0.58971(19)
H15 H 0.4711 0.6182 0.5514
C26 C 0.3548(4) 0.5670(3) 0.63621(18)
H16 H 0.2872 0.5191 0.6209
H17 H 0.2874 0.6183 0.6439
C27 C 0.7782(5) 0.5542(3) 0.57281(19)
C28 C 0.9053(5) 0.6096(3) 0.47376(19)
C29 C 1.0592(6) 0.6389(4) 0.5062(2)
H18 H 1.0408 0.6938 0.5281
H19 H 1.1428 0.6463 0.4742
H20 H 1.0926 0.5954 0.5372
C30 C 0.8443(6) 0.6780(3) 0.4276(2)
H21 H 0.7443 0.6585 0.4085
H22 H 0.9234 0.6874 0.3941
H23 H 0.8261 0.7321 0.4506
C31 C 0.9241(6) 0.5225(3) 0.4408(2)
H24 H 0.9654 0.4802 0.4711
H25 H 0.9985 0.5282 0.4052
H26 H 0.8205 0.5033 0.4248
loop_
_geom_bond_atom_site_label_1
_geom_bond_atom_site_label_2
_geom_bond_site_symmetry_1
_geom_bond_site_symmetry_2
Cl1 C1 1_555 1_555
Cl2 C2 1_555 1_555
O1 C8 1_555 1_555
O2 C8 1_555 1_555
O3 C27 1_555 1_555
O4 C27 1_555 1_555
C1 C2 1_555 1_555
C2 C3 1_555 1_555
C3 H1 1_555 1_555
C4 C3 1_555 1_555
C5 C4 1_555 1_555
H2 C5 1_555 1_555
C6 C1 1_555 1_555
H3 C6 1_555 1_555
C7 C4 1_555 1_555
C8 C7 1_555 1_555
C9 O2 1_555 1_555
C10 C9 1_555 1_555
H4 C10 1_555 1_555
C11 C10 1_555 1_555
C12 C11 1_555 1_555
H5 C12 1_555 1_555
C13 C12 1_555 1_555
H6 C13 1_555 1_555
C14 C13 1_555 1_555
H7 C14 1_555 1_555
C15 C14 1_555 1_555
H8 C15 1_555 1_555
C16 C11 1_555 1_555
C17 C16 1_555 1_555
C18 C17 1_555 1_555
H9 C18 1_555 1_555
C19 C18 1_555 1_555
H10 C19 1_555 1_555
C20 C19 1_555 1_555
H11 C20 1_555 1_555
C21 C20 1_555 1_555
H12 C21 1_555 1_555
C22 C9 1_555 1_555
C23 C7 1_555 1_555
H13 C23 1_555 1_555
H14 C23 1_555 1_555
C24 C23 1_555 1_555
C25 C24 1_555 1_555
H15 C25 1_555 1_555
C26 C7 1_555 1_555
H16 C26 1_555 1_555
H17 C26 1_555 1_555
C27 C24 1_555 1_555
C28 O4 1_555 1_555
C29 C28 1_555 1_555
H18 C29 1_555 1_555
H19 C29 1_555 1_555
H20 C29 1_555 1_555
C30 C28 1_555 1_555
H21 C30 1_555 1_555
H22 C30 1_555 1_555
H23 C30 1_555 1_555
C31 C28 1_555 1_555
H24 C31 1_555 1_555
H25 C31 1_555 1_555
H26 C31 1_555 1_555
C5 C6 1_555 1_555
C15 C16 1_555 1_555
C17 C22 1_555 1_555
C21 C22 1_555 1_555
C25 C26 1_555 1_555

#END
