
#######################################################################
#
#                 Cambridge Crystallographic Data Centre
#                                CCDC 
#
#######################################################################
#
# If this CIF has been generated from an entry in the Cambridge 
# Structural Database, then it will include bibliographic, chemical, 
# crystal, experimental, refinement or atomic coordinate data resulting 
# from the CCDC's data processing and validation procedures.
#
#######################################################################

data_ETAGOV
_chemical_formula_moiety         'C17 H32 B10 N1 P1'
_chemical_name_systematic        
1-(Di-isopropylamino(3-indenyl)phosphino)-1,2-dicarbadodecaborane(11)
_symmetry_cell_setting           monoclinic
_symmetry_space_group_name_H-M   'P 21/n'
_symmetry_Int_Tables_number      14
_space_group_name_Hall           '-P 2yn'
loop_
_symmetry_equiv_pos_site_id
_symmetry_equiv_pos_as_xyz
1 x,y,z
2 1/2+x,1/2-y,1/2+z
3 -x,-y,-z
4 1/2-x,1/2+y,1/2-z
_cell_length_a                   10.2153(11)
_cell_length_b                   19.240(2)
_cell_length_c                   11.8583(12)
_cell_angle_alpha                90
_cell_angle_beta                 98.978(2)
_cell_angle_gamma                90
_cell_volume                     2302.1
_exptl_crystal_colour            colorless
_exptl_crystal_description       block
_cell_formula_units_Z            4
_exptl_crystal_recrystallization_method n-hexane
loop_
_atom_site_label
_atom_site_type_symbol
_atom_site_fract_x
_atom_site_fract_y
_atom_site_fract_z
P1 P 0.86123(7) 0.07896(4) 0.33042(6)
N1 N 0.7036(2) 0.08241(12) 0.3527(2)
C1 C 0.9229(3) 0.17170(14) 0.3233(2)
C2 C 0.8492(3) 0.05045(15) 0.1822(2)
C3 C 0.8870(3) -0.02110(15) 0.1593(2)
C4 C 0.9484(3) -0.07257(17) 0.2326(3)
H1 H 0.968(3) -0.0557(16) 0.308(3)
C5 C 0.9726(4) -0.13637(19) 0.1876(3)
H2 H 1.021(3) -0.1728(18) 0.240(3)
C6 C 0.9347(4) -0.14993(19) 0.0719(3)
H3 H 0.952(3) -0.1966(17) 0.044(2)
C7 C 0.8754(4) -0.09950(18) 0.0001(3)
H4 H 0.855(3) -0.1021(19) -0.079(3)
C8 C 0.8515(3) -0.03504(16) 0.0426(2)
C9 C 0.7923(3) 0.02868(15) -0.0138(2)
H5 H 0.8437 0.0452 -0.0706
H6 H 0.7019 0.0204 -0.0503
C10 C 0.7964(3) 0.07879(17) 0.0806(2)
H7 H 0.768(3) 0.1276(16) 0.066(2)
C11 C 0.6723(3) 0.04568(19) 0.4554(3)
H8 H 0.5756 0.0464 0.4498
C12 C 0.7127(5) -0.0300(2) 0.4598(4)
H9 H 0.6744 -0.0525 0.3902
H10 H 0.6817 -0.0521 0.5232
H11 H 0.8075 -0.0333 0.4687
C13 C 0.7264(5) 0.0841(3) 0.5640(3)
H12 H 0.6977 0.1316 0.5578
H13 H 0.8215 0.0824 0.5758
H14 H 0.6943 0.0626 0.6275
C14 C 0.5901(3) 0.10602(17) 0.2679(3)
H15 H 0.6274 0.1294 0.2068
C15 C 0.5074(4) 0.0459(2) 0.2133(4)
H16 H 0.5634 0.0138 0.1812
H17 H 0.4406 0.0632 0.1540
H18 H 0.4659 0.0227 0.2700
C16 C 0.5063(3) 0.1596(2) 0.3184(3)
H19 H 0.5618 0.1971 0.3508
H20 H 0.4647 0.1383 0.3769
H21 H 0.4395 0.1773 0.2595
C17 C 0.9780(3) 0.20438(16) 0.2107(2)
B1 B 1.0918(3) 0.1719(2) 0.3194(3)
B2 B 1.0286(4) 0.1965(2) 0.4437(3)
H22 H 1.040(3) 0.1575(16) 0.511(3)
B3 B 0.8738(4) 0.23812(19) 0.4019(3)
H23 H 0.798(3) 0.2264(17) 0.450(3)
B4 B 0.8422(4) 0.24135(18) 0.2514(3)
H24 H 0.743(3) 0.2346(16) 0.199(2)
B5 B 1.1218(4) 0.2492(2) 0.2450(3)
H25 H 1.188(3) 0.2468(15) 0.187(2)
B6 B 1.1540(4) 0.2468(2) 0.3959(3)
H26 H 1.257(3) 0.2463(16) 0.441(3)
B7 B 1.0194(4) 0.2873(2) 0.4467(3)
H27 H 1.032(4) 0.315(2) 0.523(3)
B8 B 0.9038(4) 0.3153(2) 0.3285(3)
H28 H 0.835(3) 0.3602(18) 0.327(3)
B9 B 0.9669(4) 0.29174(19) 0.2036(3)
H29 H 0.942(3) 0.3159(15) 0.122(2)
B10 B 1.0773(4) 0.3204(2) 0.3247(3)
H30 H 1.122(3) 0.3688(16) 0.318(2)
H31 H 1.136(3) 0.1180(14) 0.311(2)
H32 H 0.966(3) 0.1705(15) 0.146(2)
loop_
_geom_bond_atom_site_label_1
_geom_bond_atom_site_label_2
_geom_bond_site_symmetry_1
_geom_bond_site_symmetry_2
P1 N1 1_555 1_555
N1 C11 1_555 1_555
C1 P1 1_555 1_555
C2 P1 1_555 1_555
C3 C2 1_555 1_555
C4 C3 1_555 1_555
H1 C4 1_555 1_555
C5 C4 1_555 1_555
H2 C5 1_555 1_555
C6 C5 1_555 1_555
H3 C6 1_555 1_555
C7 C6 1_555 1_555
H4 C7 1_555 1_555
C8 C3 1_555 1_555
C9 C8 1_555 1_555
H5 C9 1_555 1_555
H6 C9 1_555 1_555
C10 C2 1_555 1_555
H7 C10 1_555 1_555
C11 H8 1_555 1_555
C12 C11 1_555 1_555
H9 C12 1_555 1_555
H10 C12 1_555 1_555
H11 C12 1_555 1_555
C13 C11 1_555 1_555
H12 C13 1_555 1_555
H13 C13 1_555 1_555
H14 C13 1_555 1_555
C14 N1 1_555 1_555
H15 C14 1_555 1_555
C15 C14 1_555 1_555
H16 C15 1_555 1_555
H17 C15 1_555 1_555
H18 C15 1_555 1_555
C16 C14 1_555 1_555
H19 C16 1_555 1_555
H20 C16 1_555 1_555
H21 C16 1_555 1_555
C17 C1 1_555 1_555
B1 C1 1_555 1_555
B2 C1 1_555 1_555
H22 B2 1_555 1_555
B3 C1 1_555 1_555
H23 B3 1_555 1_555
B4 C1 1_555 1_555
H24 B4 1_555 1_555
B5 C17 1_555 1_555
H25 B5 1_555 1_555
B6 B1 1_555 1_555
H26 B6 1_555 1_555
B7 B2 1_555 1_555
H27 B7 1_555 1_555
B8 B3 1_555 1_555
H28 B8 1_555 1_555
B9 C17 1_555 1_555
H29 B9 1_555 1_555
B10 B5 1_555 1_555
H30 B10 1_555 1_555
H31 B1 1_555 1_555
H32 C17 1_555 1_555
C7 C8 1_555 1_555
C9 C10 1_555 1_555
C17 B1 1_555 1_555
C17 B4 1_555 1_555
B1 B5 1_555 1_555
B1 B2 1_555 1_555
B2 B6 1_555 1_555
B2 B3 1_555 1_555
B3 B7 1_555 1_555
B3 B4 1_555 1_555
B4 B9 1_555 1_555
B4 B8 1_555 1_555
B5 B9 1_555 1_555
B5 B6 1_555 1_555
B6 B10 1_555 1_555
B6 B7 1_555 1_555
B7 B8 1_555 1_555
B7 B10 1_555 1_555
B8 B9 1_555 1_555
B8 B10 1_555 1_555
B9 B10 1_555 1_555

#END
