
#######################################################################
#
#                 Cambridge Crystallographic Data Centre
#                                CCDC 
#
#######################################################################
#
# If this CIF has been generated from an entry in the Cambridge 
# Structural Database, then it will include bibliographic, chemical, 
# crystal, experimental, refinement or atomic coordinate data resulting 
# from the CCDC's data processing and validation procedures.
#
#######################################################################

data_ETAGUC
_chemical_formula_moiety         'C24 H30 N2 O4 S2'
_chemical_name_systematic        
'Ethyl 3-t-butyl-5-(1,3-dithiolan-2-ylidene)-7-(4-methylphenyl)-4,6-dioxooctahydro-1H-pyrrolo[2,3-b]pyridine-2-carboxylate'
_symmetry_cell_setting           rhombohedral
_symmetry_space_group_name_H-M   'R -3'
_symmetry_Int_Tables_number      148
_space_group_name_Hall           '-R 3'
loop_
_symmetry_equiv_pos_site_id
_symmetry_equiv_pos_as_xyz
1 x,y,z
2 -y,x-y,z
3 -x+y,-x,z
4 2/3+x,1/3+y,1/3+z
5 2/3-y,1/3+x-y,1/3+z
6 2/3-x+y,1/3-x,1/3+z
7 1/3+x,2/3+y,2/3+z
8 1/3-y,2/3+x-y,2/3+z
9 1/3-x+y,2/3-x,2/3+z
10 -x,-y,-z
11 y,-x+y,-z
12 x-y,x,-z
13 1/3-x,2/3-y,2/3-z
14 1/3+y,2/3-x+y,2/3-z
15 1/3+x-y,2/3+x,2/3-z
16 2/3-x,1/3-y,1/3-z
17 2/3+y,1/3-x+y,1/3-z
18 2/3+x-y,1/3+x,1/3-z
_cell_length_a                   19.425(4)
_cell_length_b                   19.425(4)
_cell_length_c                   33.628(4)
_cell_angle_alpha                90
_cell_angle_beta                 90
_cell_angle_gamma                120
_cell_volume                     10988.9
_cell_formula_units_Z            18
loop_
_atom_site_label
_atom_site_type_symbol
_atom_site_fract_x
_atom_site_fract_y
_atom_site_fract_z
S1 S 0.50579(7) -0.16148(6) 0.86668(3)
S2 S 0.44979(6) -0.17849(6) 0.94849(3)
O1 O 0.50411(15) -0.03999(15) 0.83323(7)
N1 N 0.43464(16) 0.01960(17) 0.85136(9)
O2 O 0.38562(17) -0.09029(17) 0.95965(8)
N2 N 0.2948(2) -0.0358(2) 0.86795(11)
C1 C 0.46396(19) -0.1305(2) 0.90305(10)
C2 C 0.3824(2) 0.0092(2) 0.92041(11)
H1 H 0.4227 0.0584 0.9331
C3 C 0.4619(2) -0.0321(2) 0.85830(11)
C4 C 0.4426(2) -0.0735(2) 0.89657(11)
C5 C 0.2995(2) -0.0135(2) 0.93716(11)
H2 H 0.2782 -0.0656 0.9499
C6 C 0.4601(2) 0.0688(2) 0.81628(11)
C7 C 0.4024(2) -0.0556(2) 0.92773(12)
C8 C 0.3766(2) 0.0249(2) 0.87655(11)
H3 H 0.3821 0.0776 0.8735
C9 C 0.1673(3) -0.0989(3) 0.90111(17)
C10 C 0.2982(3) 0.0442(2) 0.96867(14)
O3 O 0.1107(12) -0.0850(10) 0.8908(12)
O4 O 0.1535(13) -0.1530(18) 0.9220(12)
C11 C 0.5376(2) 0.1282(2) 0.81283(12)
H4 H 0.5741 0.1349 0.8325
C12 C 0.5083(3) 0.1704(3) 0.75086(12)
C13 C 0.2490(2) -0.0255(2) 0.89979(12)
H5 H 0.2446 0.0219 0.8948
C14 C 0.4066(2) 0.0596(2) 0.78697(12)
H6 H 0.3540 0.0190 0.7888
C15 C 0.2113(3) 0.0171(3) 0.97930(14)
H7 H 0.1856 -0.0367 0.9888
H8 H 0.1841 0.0201 0.9561
H9 H 0.2099 0.0510 0.9997
C16 C 0.5618(3) 0.1786(2) 0.78014(12)
H10 H 0.6147 0.2184 0.7779
C17 C 0.4312(3) 0.1109(3) 0.75469(12)
H11 H 0.3944 0.1046 0.7353
C18 C 0.4958(3) -0.2464(2) 0.89318(13)
H12 H 0.4440 -0.2923 0.8880
H13 H 0.5362 -0.2585 0.8844
C19 C 0.3389(3) 0.1302(2) 0.95389(15)
H14 H 0.3932 0.1474 0.9473
H15 H 0.3373 0.1637 0.9744
H16 H 0.3117 0.1334 0.9307
C20 C 0.5052(2) -0.2278(2) 0.93678(13)
H17 H 0.5609 -0.1936 0.9432
H18 H 0.4851 -0.2764 0.9521
C21 C 0.5338(3) 0.2248(3) 0.71481(13)
H19 H 0.4887 0.2100 0.6979
H20 H 0.5738 0.2200 0.7004
H21 H 0.5550 0.2788 0.7234
C22 C 0.0324(3) -0.1555(4) 0.8841(2)
H22 H 0.0287 -0.1762 0.8575
H23 H 0.0225 -0.1969 0.9032
C23 C -0.0188(4) -0.1299(5) 0.8890(3)
H24 H -0.0721 -0.1742 0.8880
H25 H -0.0116 -0.0930 0.8682
H26 H -0.0098 -0.1039 0.9143
C24 C 0.3399(3) 0.0379(3) 1.00625(13)
H27 H 0.3944 0.0548 1.0002
H28 H 0.3136 -0.0162 1.0153
H29 H 0.3377 0.0712 1.0267
H30 H 0.279(2) -0.031(2) 0.8452(10)
O5? O 0.1492(19) -0.1684(19) 0.9038(18)
O6? O 0.1197(17) -0.0907(17) 0.8786(11)
loop_
_geom_bond_atom_site_label_1
_geom_bond_atom_site_label_2
_geom_bond_site_symmetry_1
_geom_bond_site_symmetry_2
S1 C1 1_555 1_555
S2 C1 1_555 1_555
O1 C3 1_555 1_555
N1 C3 1_555 1_555
O2 C7 1_555 1_555
N2 C8 1_555 1_555
C1 C4 1_555 1_555
C2 H1 1_555 1_555
C3 C4 1_555 1_555
C4 C7 1_555 1_555
C5 C2 1_555 1_555
H2 C5 1_555 1_555
C6 N1 1_555 1_555
C7 C2 1_555 1_555
C8 N1 1_555 1_555
H3 C8 1_555 1_555
C9 O3 1_555 1_555
C10 C5 1_555 1_555
O3 C22 1_555 1_555
O4 C9 1_555 1_555
C11 C6 1_555 1_555
H4 C11 1_555 1_555
C12 C16 1_555 1_555
C13 N2 1_555 1_555
H5 C13 1_555 1_555
C14 C6 1_555 1_555
H6 C14 1_555 1_555
C15 C10 1_555 1_555
H7 C15 1_555 1_555
H8 C15 1_555 1_555
H9 C15 1_555 1_555
C16 C11 1_555 1_555
H10 C16 1_555 1_555
C17 C12 1_555 1_555
H11 C17 1_555 1_555
C18 S1 1_555 1_555
H12 C18 1_555 1_555
H13 C18 1_555 1_555
C19 C10 1_555 1_555
H14 C19 1_555 1_555
H15 C19 1_555 1_555
H16 C19 1_555 1_555
C20 S2 1_555 1_555
H17 C20 1_555 1_555
H18 C20 1_555 1_555
C21 C12 1_555 1_555
H19 C21 1_555 1_555
H20 C21 1_555 1_555
H21 C21 1_555 1_555
C22 H22 1_555 1_555
H23 C22 1_555 1_555
C23 C22 1_555 1_555
H24 C23 1_555 1_555
H25 C23 1_555 1_555
H26 C23 1_555 1_555
C24 C10 1_555 1_555
H27 C24 1_555 1_555
H28 C24 1_555 1_555
H29 C24 1_555 1_555
H30 N2 1_555 1_555
C2 C8 1_555 1_555
C5 C13 1_555 1_555
C9 C13 1_555 1_555
C14 C17 1_555 1_555
C18 C20 1_555 1_555

#END
