
#######################################################################
#
#                 Cambridge Crystallographic Data Centre
#                                CCDC 
#
#######################################################################
#
# If this CIF has been generated from an entry in the Cambridge 
# Structural Database, then it will include bibliographic, chemical, 
# crystal, experimental, refinement or atomic coordinate data resulting 
# from the CCDC's data processing and validation procedures.
#
#######################################################################

data_ETAMCL03
_chemical_formula_moiety         'C6 H16 N1 1+,Cl1 1-'
_chemical_name_systematic        'Triethylammonium chloride'
_symmetry_cell_setting           trigonal
_symmetry_space_group_name_H-M   'P 3 1 c'
_symmetry_Int_Tables_number      159
_space_group_name_Hall           "P 3 -2'c"
loop_
_symmetry_equiv_pos_site_id
_symmetry_equiv_pos_as_xyz
1 x,y,z
2 -y,x-y,z
3 -x+y,-x,z
4 y,x,1/2+z
5 x-y,-y,1/2+z
6 -x,-x+y,1/2+z
_cell_length_a                   8.2542(2)
_cell_length_b                   8.2542(2)
_cell_length_c                   6.9963(2)
_cell_angle_alpha                90
_cell_angle_beta                 90
_cell_angle_gamma                120
_cell_volume                     412.809
_exptl_crystal_colour            colorless
_exptl_crystal_description       block
_cell_formula_units_Z            2
loop_
_atom_site_label
_atom_site_type_symbol
_atom_site_fract_x
_atom_site_fract_y
_atom_site_fract_z
Cl1 Cl 0.3333 0.6667 0.1486
N1 N 0.3333 0.6667 0.5913(2)
C1 C 0.1785(2) 0.31876(16) 0.5507(2)
C2 C 0.17835(16) 0.47886(15) 0.6567(3)
H1 H 0.3333 0.6667 0.466(6)
H2 H 0.074(3) 0.204(3) 0.592(3)
H3 H 0.284(3) 0.306(3) 0.572(3)
H4 H 0.154(6) 0.333(2) 0.412(3)
H5 H 0.067(2) 0.4754(19) 0.644(4)
H6 H 0.197(2) 0.467(3) 0.793(2)
C2A C 0.52114(15) 0.69949(22) 0.6567(3)
C1A C 0.68124(16) 0.85974(26) 0.5507(2)
H2A H 0.796(3) 0.870(4) 0.592(3)
H3A H 0.694(3) 0.978(4) 0.572(3)
H4A H 0.667(2) 0.821(6) 0.412(3)
H5A H 0.5246(19) 0.5916(28) 0.644(4)
H6A H 0.533(3) 0.730(4) 0.793(2)
C2B C 0.30051(22) 0.82165(16) 0.6567(3)
C1B C 0.14026(26) 0.8215(2) 0.5507(2)
H2B H 0.130(4) 0.926(3) 0.592(3)
H3B H 0.022(4) 0.716(3) 0.572(3)
H4B H 0.179(6) 0.846(6) 0.412(3)
H5B H 0.4084(28) 0.933(2) 0.644(4)
H6B H 0.270(4) 0.803(2) 0.793(2)
loop_
_geom_bond_atom_site_label_1
_geom_bond_atom_site_label_2
_geom_bond_site_symmetry_1
_geom_bond_site_symmetry_2
N1 C2 1_555 1_555
C1 C2 1_555 1_555
C2 H5 1_555 1_555
H1 N1 1_555 1_555
H2 C1 1_555 1_555
H3 C1 1_555 1_555
H4 C1 1_555 1_555
H6 C2 1_555 1_555
C2A N1 1_555 1_555
C1A C2A 1_555 1_555
H2A C1A 1_555 1_555
H3A C1A 1_555 1_555
H4A C1A 1_555 1_555
H5A C2A 1_555 1_555
H6A C2A 1_555 1_555
C2B N1 1_555 1_555
C1B C2B 1_555 1_555
H2B C1B 1_555 1_555
H3B C1B 1_555 1_555
H4B C1B 1_555 1_555
H5B C2B 1_555 1_555
H6B C2B 1_555 1_555

#END
