
#######################################################################
#
#                 Cambridge Crystallographic Data Centre
#                                CCDC 
#
#######################################################################
#
# If this CIF has been generated from an entry in the Cambridge 
# Structural Database, then it will include bibliographic, chemical, 
# crystal, experimental, refinement or atomic coordinate data resulting 
# from the CCDC's data processing and validation procedures.
#
#######################################################################

data_ETAMCL06
_chemical_formula_moiety         'C6 H16 N1 1+,Cl1 1-'
_chemical_name_systematic        'Triethylammonium chloride'
_symmetry_cell_setting           hexagonal
_symmetry_space_group_name_H-M   'P 63/m m c'
_symmetry_Int_Tables_number      194
_space_group_name_Hall           "-P 6c 2'c"
loop_
_symmetry_equiv_pos_site_id
_symmetry_equiv_pos_as_xyz
1 x,y,z
2 -y,x-y,z
3 -x+y,-x,z
4 -x,-y,1/2+z
5 y,-x+y,1/2+z
6 x-y,x,1/2+z
7 y,x,-z
8 x-y,-y,-z
9 -x,-x+y,-z
10 -y,-x,1/2-z
11 -x+y,y,1/2-z
12 x,x-y,1/2-z
13 -x,-y,-z
14 y,-x+y,-z
15 x-y,x,-z
16 x,y,1/2-z
17 -y,x-y,1/2-z
18 -x+y,-x,1/2-z
19 -y,-x,z
20 -x+y,y,z
21 x,x-y,z
22 y,x,1/2+z
23 x-y,-y,1/2+z
24 -x,-x+y,1/2+z
_cell_length_a                   8.3256(9)
_cell_length_b                   8.3256(9)
_cell_length_c                   7.0474(7)
_cell_angle_alpha                90
_cell_angle_beta                 90
_cell_angle_gamma                120
_cell_volume                     423.049
_cell_formula_units_Z            2
loop_
_atom_site_label
_atom_site_type_symbol
_atom_site_fract_x
_atom_site_fract_y
_atom_site_fract_z
N1 N 0.3333 0.6667 0.191(2)
C1 C 0.3000(14) 0.8191(15) 0.2500
C2 C 0.1616(7) 0.8384(7) 0.161(2)
N1I N 0.3333 0.6667 0.309(2)
C1I C 0.1809(15) 0.7000(14) 0.2500
C1J C 0.5191(21) 0.8191(15) 0.2500
C1A C 0.1809(15) 0.4809(21) 0.2500
C1K C 0.3000(14) 0.4809(21) 0.2500
C1B C 0.5191(21) 0.7000(14) 0.2500
C2J C 0.6768(10) 0.8384(7) 0.339(2)
C2B C 0.6768(10) 0.8384(7) 0.161(2)
C2A C 0.1616(7) 0.3232(10) 0.161(2)
C2K C 0.1616(7) 0.3232(10) 0.339(2)
C2I C 0.1616(7) 0.8384(7) 0.339(2)
Cl1 Cl 0.6667 0.3333 0.2500
H1? H 0.3333 0.6667 0.0618
H2? H 0.2727 0.8046 0.3848
H3? H 0.4155 0.9349 0.2340
H4? H 0.1925 0.8677 0.0296
H5? H 0.1511 0.9363 0.2208
H6? H 0.0457 0.7243 0.1714
loop_
_geom_bond_atom_site_label_1
_geom_bond_atom_site_label_2
_geom_bond_site_symmetry_1
_geom_bond_site_symmetry_2
N1 C1 1_555 1_555
C1 C2 1_555 1_555
C2 C1I 1_555 1_555
N1I N1 1_555 1_555
C1I N1 1_555 1_555
C1J N1 1_555 1_555
C1A N1 1_555 1_555
C1K N1 1_555 1_555
C1B N1 1_555 1_555
C2J C1J 1_555 1_555
C2B C1J 1_555 1_555
C2A C1A 1_555 1_555
C2K C1A 1_555 1_555
C2I C1 1_555 1_555
C1 N1I 1_555 1_555
C1 C1I 1_555 1_555
C2 C2I 1_555 1_555
N1I C1I 1_555 1_555
N1I C1J 1_555 1_555
N1I C1A 1_555 1_555
N1I C1K 1_555 1_555
N1I C1B 1_555 1_555
C1I C2I 1_555 1_555
C1J C1B 1_555 1_555
C1A C1K 1_555 1_555
C1K C2A 1_555 1_555
C1K C2K 1_555 1_555
C1B C2J 1_555 1_555
C1B C2B 1_555 1_555
C2J C2B 1_555 1_555
C2A C2K 1_555 1_555

#END
