
#######################################################################
#
#                 Cambridge Crystallographic Data Centre
#                                CCDC 
#
#######################################################################
#
# If this CIF has been generated from an entry in the Cambridge 
# Structural Database, then it will include bibliographic, chemical, 
# crystal, experimental, refinement or atomic coordinate data resulting 
# from the CCDC's data processing and validation procedures.
#
#######################################################################

data_ETANOE
_chemical_formula_moiety         'C15 H10 O5,0.5(H2 O1)'
_chemical_name_systematic        
'1,3,8-trihydroxy-6-methyl-9,10-anthraquinone hemihydrate'
_symmetry_cell_setting           monoclinic
_symmetry_space_group_name_H-M   'P 21/n'
_symmetry_Int_Tables_number      14
_space_group_name_Hall           '-P 2yn'
loop_
_symmetry_equiv_pos_site_id
_symmetry_equiv_pos_as_xyz
1 x,y,z
2 1/2-x,1/2+y,1/2-z
3 -x,-y,-z
4 1/2+x,1/2-y,1/2+z
_cell_length_a                   16.6384(6)
_cell_length_b                   3.6887(2)
_cell_length_c                   19.4060(7)
_cell_angle_alpha                90
_cell_angle_beta                 95.544(3)
_cell_angle_gamma                90
_cell_volume                     1185.45
_exptl_crystal_colour            orange
_exptl_crystal_description       needle
_cell_formula_units_Z            4
loop_
_atom_site_label
_atom_site_type_symbol
_atom_site_fract_x
_atom_site_fract_y
_atom_site_fract_z
O1 O 0.12381(17) 0.2432(8) 0.24522(12)
H1 H 0.1728 0.1911 0.2542
O2 O -0.10002(17) 0.7489(9) 0.34458(17)
H2 H -0.1078 0.9032 0.3751
O3 O 0.12684(16) 0.8336(7) 0.53385(13)
O4 O 0.39690(17) 0.1318(8) 0.39776(17)
H3 H 0.362(3) 0.126(16) 0.358(3)
O5 O 0.26042(15) 0.2050(7) 0.32124(12)
C1 C 0.0147(2) 0.4945(11) 0.29577(19)
H4 H -0.0175 0.4615 0.2531
C2 C -0.0190(2) 0.6441(10) 0.3515(2)
C3 C 0.0277(2) 0.6949(10) 0.41393(19)
H5 H 0.0041 0.7956 0.4523
C4 C 0.1079(2) 0.6006(9) 0.42060(17)
C5 C 0.1566(2) 0.6696(9) 0.48710(17)
C6 C 0.2413(2) 0.5442(9) 0.49561(18)
C7 C 0.2857(2) 0.5818(11) 0.55879(19)
H6 H 0.2615 0.6852 0.5966
C8 C 0.3666(3) 0.4682(12) 0.5678(2)
C9 C 0.4116(3) 0.5191(14) 0.6351(2)
H7 H 0.4636 0.3939 0.6360
H8 H 0.3807 0.4193 0.6712
H9 H 0.4208 0.7785 0.6434
C10 C 0.0954(2) 0.3917(10) 0.30183(17)
C11 C 0.1442(2) 0.4448(9) 0.36440(16)
C12 C 0.2759(2) 0.3884(9) 0.43828(18)
C13 C 0.3573(2) 0.2799(10) 0.4485(2)
C14 C 0.4007(3) 0.3207(11) 0.5122(2)
H10 H 0.4556 0.2453 0.5179
C15 C 0.2289(2) 0.3421(9) 0.37215(18)
loop_
_geom_bond_atom_site_label_1
_geom_bond_atom_site_label_2
_geom_bond_site_symmetry_1
_geom_bond_site_symmetry_2
O1 H1 1_555 1_555
O2 H2 1_555 1_555
O3 C5 1_555 1_555
O4 H3 1_555 1_555
O5 C15 1_555 1_555
C1 H4 1_555 1_555
C2 O2 1_555 1_555
C3 C2 1_555 1_555
H5 C3 1_555 1_555
C4 C3 1_555 1_555
C5 C4 1_555 1_555
C6 C5 1_555 1_555
C7 C6 1_555 1_555
H6 C7 1_555 1_555
C8 C7 1_555 1_555
C9 C8 1_555 1_555
H7 C9 1_555 1_555
H8 C9 1_555 1_555
H9 C9 1_555 1_555
C10 O1 1_555 1_555
C11 C4 1_555 1_555
C12 C6 1_555 1_555
C13 O4 1_555 1_555
C14 C8 1_555 1_555
H10 C14 1_555 1_555
C15 C11 1_555 1_555
C1 C2 1_555 1_555
C1 C10 1_555 1_555
C10 C11 1_555 1_555
C12 C13 1_555 1_555
C12 C15 1_555 1_555
C13 C14 1_555 1_555

#END
