
#######################################################################
#
#                 Cambridge Crystallographic Data Centre
#                                CCDC 
#
#######################################################################
#
# If this CIF has been generated from an entry in the Cambridge 
# Structural Database, then it will include bibliographic, chemical, 
# crystal, experimental, refinement or atomic coordinate data resulting 
# from the CCDC's data processing and validation procedures.
#
#######################################################################

data_ETAWIG
_chemical_formula_moiety         'C20 H14 N4'
_chemical_name_systematic        1,1'-Anthracene-9,10-diylbis(1H-imidazole)
_symmetry_cell_setting           triclinic
_symmetry_space_group_name_H-M   'P -1'
_symmetry_Int_Tables_number      2
_space_group_name_Hall           '-P 1'
loop_
_symmetry_equiv_pos_site_id
_symmetry_equiv_pos_as_xyz
1 x,y,z
2 -x,-y,-z
_cell_length_a                   5.6711(11)
_cell_length_b                   8.1633(16)
_cell_length_c                   8.5872(17)
_cell_angle_alpha                93.010(4)
_cell_angle_beta                 103.997(4)
_cell_angle_gamma                93.971(4)
_cell_volume                     383.827
_cell_formula_units_Z            1
loop_
_atom_site_label
_atom_site_type_symbol
_atom_site_fract_x
_atom_site_fract_y
_atom_site_fract_z
C1 C 0.54646(19) 0.24441(14) 0.62325(14)
H1 H 0.6353 0.3189 0.5728
C2 C 0.4484(2) 0.04308(15) 0.75016(15)
H2 H 0.4584 -0.0536 0.8075
C3 C 0.2451(2) 0.12657(14) 0.70895(14)
H3 H 0.0915 0.1008 0.7317
C4 C 0.15501(18) 0.38057(13) 0.56208(13)
C5 C 0.11219(18) 0.50628(13) 0.66789(13)
C6 C 0.2223(2) 0.51731(15) 0.83680(14)
H4 H 0.3300 0.4381 0.8809
C7 C 0.1743(2) 0.64018(16) 0.93490(15)
H5 H 0.2485 0.6457 1.0470
C8 C 0.0149(2) 0.76020(15) 0.87177(15)
H6 H -0.0174 0.8446 0.9423
C9 C -0.0923(2) 0.75600(14) 0.71181(14)
H7 H -0.1971 0.8381 0.6714
C10 C -0.04830(17) 0.62874(13) 0.60375(13)
N1 N 0.63781(17) 0.11753(12) 0.69755(12)
N2 N 0.30964(15) 0.25633(11) 0.62725(11)
C1A C -0.54646(19) 0.75559(14) 0.37675(14)
H1A H -0.6353 0.6811 0.4272
C2A C -0.4484(2) 0.95692(15) 0.24984(15)
H2A H -0.4584 1.0536 0.1925
C3A C -0.2451(2) 0.87343(14) 0.29105(14)
H3A H -0.0915 0.8992 0.2683
C4A C -0.15501(18) 0.61943(13) 0.43792(13)
C5A C -0.11219(18) 0.49372(13) 0.33211(13)
C6A C -0.2223(2) 0.48269(15) 0.16320(14)
H4A H -0.3300 0.5619 0.1191
C7A C -0.1743(2) 0.35982(16) 0.06510(15)
H5A H -0.2485 0.3543 -0.0470
C8A C -0.0149(2) 0.23980(15) 0.12823(15)
H6A H 0.0174 0.1554 0.0577
C9A C 0.0923(2) 0.24400(14) 0.28819(14)
H7A H 0.1971 0.1619 0.3286
C10A C 0.04830(17) 0.37126(13) 0.39625(13)
N1A N -0.63781(17) 0.88247(12) 0.30245(12)
N2A N -0.30964(15) 0.74367(11) 0.37275(11)
loop_
_geom_bond_atom_site_label_1
_geom_bond_atom_site_label_2
_geom_bond_site_symmetry_1
_geom_bond_site_symmetry_2
C1 H1 1_555 1_555
C2 H2 1_555 1_555
C3 C2 1_555 1_555
H3 C3 1_555 1_555
C4 C5 1_555 1_555
C5 C6 1_555 1_555
C6 H4 1_555 1_555
C7 C6 1_555 1_555
H5 C7 1_555 1_555
C8 C7 1_555 1_555
H6 C8 1_555 1_555
C9 C8 1_555 1_555
H7 C9 1_555 1_555
C10 C5 1_555 1_555
N1 C1 1_555 1_555
N2 C1 1_555 1_555
C1A H1A 1_555 1_555
C2A H2A 1_555 1_555
C3A C2A 1_555 1_555
H3A C3A 1_555 1_555
C4A C10 1_555 1_555
C5A C4A 1_555 1_555
C6A C5A 1_555 1_555
H4A C6A 1_555 1_555
C7A C6A 1_555 1_555
H5A C7A 1_555 1_555
C8A C7A 1_555 1_555
H6A C8A 1_555 1_555
C9A C8A 1_555 1_555
H7A C9A 1_555 1_555
C10A C4 1_555 1_555
N1A C1A 1_555 1_555
N2A C1A 1_555 1_555
C2 N1 1_555 1_555
C3 N2 1_555 1_555
C4 N2 1_555 1_555
C9 C10 1_555 1_555
C2A N1A 1_555 1_555
C3A N2A 1_555 1_555
C4A N2A 1_555 1_555
C5A C10A 1_555 1_555
C9A C10A 1_555 1_555

#END
