
#######################################################################
#
#                 Cambridge Crystallographic Data Centre
#                                CCDC 
#
#######################################################################
#
# If this CIF has been generated from an entry in the Cambridge 
# Structural Database, then it will include bibliographic, chemical, 
# crystal, experimental, refinement or atomic coordinate data resulting 
# from the CCDC's data processing and validation procedures.
#
#######################################################################

data_ETELEW
_chemical_compound_source        'Fungus Gymnascella dankaliensis'
_chemical_name_common            'gymnastatin T methanol solvate'
_chemical_formula_moiety         'C23 H34 Br1 N1 O6,C1 H4 O1'
_chemical_name_systematic        
'N-(6-bromo-1,7,10-trihydroxy-5-oxo-3-oxatricyclo[4.3.1.0^2,4^]decan-8-yl)-4,6-dimethyldodeca-2,4-dienamide methanol solvate'
_chemical_properties_biological  
'tested for cytotoxicity against the L5178Y mouse lymphoma cell line'
_symmetry_cell_setting           orthorhombic
_symmetry_space_group_name_H-M   'P 21 21 21'
_symmetry_Int_Tables_number      19
_space_group_name_Hall           'P 2ac 2ab'
loop_
_symmetry_equiv_pos_site_id
_symmetry_equiv_pos_as_xyz
1 x,y,z
2 1/2+x,1/2-y,-z
3 -x,1/2+y,1/2-z
4 1/2-x,-y,1/2+z
_cell_length_a                   7.0251(3)
_cell_length_b                   11.3852(5)
_cell_length_c                   32.3080(15)
_cell_angle_alpha                90
_cell_angle_beta                 90
_cell_angle_gamma                90
_cell_volume                     2584.06
_exptl_crystal_colour            colorless
_exptl_crystal_description       plate
_cell_formula_units_Z            4
loop_
_atom_site_label
_atom_site_type_symbol
_atom_site_fract_x
_atom_site_fract_y
_atom_site_fract_z
Br1 Br 0.94426(9) 1.08655(6) 0.19418(2)
C1 C 0.8297(8) 0.9768(5) 0.2698(2)
H1 H 0.8167 0.9026 0.2535
O1 O 1.0197(6) 0.9889(4) 0.28372(16)
H2 H 1.064(12) 0.922(5) 0.279(2)
C2 C 0.6985(8) 0.9727(5) 0.3068(2)
H3 H 0.5659 0.9626 0.2961
C3 C 0.7037(10) 1.0866(6) 0.3311(2)
H4 H 0.8320 1.0969 0.3432
H5 H 0.6109 1.0822 0.3541
C4 C 0.6570(9) 1.1935(5) 0.3039(2)
O2 O 0.6805(9) 1.2931(4) 0.32925(18)
H6 H 0.6520 1.3538 0.3158
C5 C 0.4558(11) 1.1811(6) 0.2891(2)
H7 H 0.3559 1.1797 0.3111
O3 O 0.4054(7) 1.2410(4) 0.25144(16)
O4 O 0.7751(6) 1.3017(4) 0.24330(16)
H8 H 0.7530 1.2839 0.2185
C6 C 0.4112(9) 1.1138(6) 0.2507(2)
H9 H 0.2859 1.0722 0.2499
C7 C 0.5720(9) 1.0579(5) 0.2273(2)
O5 O 0.5394(8) 0.9852(4) 0.20181(16)
C8 C 0.7758(7) 1.0839(6) 0.24217(19)
C9 C 0.7976(9) 1.1982(5) 0.2668(2)
H10 H 0.9294 1.1992 0.2785
N1 N 0.7407(8) 0.8721(5) 0.33274(19)
H11 H 0.864(9) 0.879(7) 0.343(2)
C10 C 0.6062(8) 0.7934(6) 0.3423(2)
O6 O 0.4378(7) 0.8024(4) 0.32919(16)
C11 C 0.6652(10) 0.6938(6) 0.3689(2)
H12 H 0.7938 0.6869 0.3776
C12 C 0.5372(11) 0.6140(6) 0.3806(2)
H13 H 0.4106 0.6271 0.3714
C13 C 0.4129(13) 0.4462(7) 0.4146(3)
H14 H 0.2948 0.4750 0.4045
C14 C 0.407(3) 0.3322(11) 0.4394(4)
H15 H 0.5385 0.3039 0.4457
C15 C 0.296(3) 0.3515(12) 0.4784(4)
H16 H 0.2717 0.2749 0.4919
H17 H 0.1712 0.3870 0.4715
C16 C 0.5664(13) 0.5091(6) 0.4058(2)
C17 C 0.400(3) 0.4306(11) 0.5081(4)
H18 H 0.5280 0.3969 0.5131
H19 H 0.4183 0.5078 0.4946
C18 C 0.307(3) 0.4500(12) 0.5485(4)
H20 H 0.2852 0.3732 0.5620
H21 H 0.3936 0.4962 0.5664
C19 C 0.130(2) 0.5107(12) 0.5447(4)
H22 H 0.0428 0.4550 0.5306
H23 H 0.0811 0.5194 0.5732
C20 C 0.102(3) 0.6087(14) 0.5274(6)
H24 H 0.1329 0.5957 0.4979
H25 H 0.2038 0.6605 0.5383
C21 C -0.091(3) 0.6901(14) 0.5273(5)
H26 H -0.0559 0.7726 0.5233
H27 H -0.1576 0.6812 0.5538
H28 H -0.1748 0.6649 0.5047
C22 C 0.771(3) 0.4818(15) 0.4187(6)
H29 H 0.8468 0.4636 0.3942
H30 H 0.7712 0.4142 0.4375
H31 H 0.8251 0.5501 0.4329
C23 C 0.297(3) 0.2407(15) 0.4134(5)
H32 H 0.1806 0.2764 0.4025
H33 H 0.2640 0.1734 0.4309
H34 H 0.3772 0.2142 0.3904
C24 C 0.173(4) 0.944(4) 0.3908(14)
H35 H 0.0883 0.9704 0.4131
H36 H 0.1786 1.0047 0.3692
H37 H 0.3012 0.9314 0.4020
O7 O 0.1023(9) 0.8365(8) 0.3735(2)
H38 H 0.148(19) 0.826(13) 0.347(2)
loop_
_geom_bond_atom_site_label_1
_geom_bond_atom_site_label_2
_geom_bond_site_symmetry_1
_geom_bond_site_symmetry_2
Br1 C8 1_555 1_555
C1 H1 1_555 1_555
O1 C1 1_555 1_555
H2 O1 1_555 1_555
C2 C1 1_555 1_555
H3 C2 1_555 1_555
C3 C2 1_555 1_555
H4 C3 1_555 1_555
H5 C3 1_555 1_555
C4 C3 1_555 1_555
O2 C4 1_555 1_555
H6 O2 1_555 1_555
C5 C4 1_555 1_555
H7 C5 1_555 1_555
O3 C5 1_555 1_555
O4 H8 1_555 1_555
C6 C5 1_555 1_555
H9 C6 1_555 1_555
C7 C6 1_555 1_555
O5 C7 1_555 1_555
C8 C1 1_555 1_555
C9 C4 1_555 1_555
H10 C9 1_555 1_555
N1 C2 1_555 1_555
H11 N1 1_555 1_555
C10 N1 1_555 1_555
O6 C10 1_555 1_555
C11 C10 1_555 1_555
H12 C11 1_555 1_555
C12 C11 1_555 1_555
H13 C12 1_555 1_555
C13 H14 1_555 1_555
C14 C13 1_555 1_555
H15 C14 1_555 1_555
C15 C14 1_555 1_555
H16 C15 1_555 1_555
H17 C15 1_555 1_555
C16 C12 1_555 1_555
C17 C15 1_555 1_555
H18 C17 1_555 1_555
H19 C17 1_555 1_555
C18 C17 1_555 1_555
H20 C18 1_555 1_555
H21 C18 1_555 1_555
C19 C18 1_555 1_555
H22 C19 1_555 1_555
H23 C19 1_555 1_555
C20 C19 1_555 1_555
H24 C20 1_555 1_555
H25 C20 1_555 1_555
C21 C20 1_555 1_555
H26 C21 1_555 1_555
H27 C21 1_555 1_555
H28 C21 1_555 1_555
C22 C16 1_555 1_555
H29 C22 1_555 1_555
H30 C22 1_555 1_555
H31 C22 1_555 1_555
C23 C14 1_555 1_555
H32 C23 1_555 1_555
H33 C23 1_555 1_555
H34 C23 1_555 1_555
C24 H35 1_555 1_555
H36 C24 1_555 1_555
H37 C24 1_555 1_555
O7 C24 1_555 1_555
H38 O7 1_555 1_555
O3 C6 1_555 1_555
O4 C9 1_555 1_555
C7 C8 1_555 1_555
C8 C9 1_555 1_555
C13 C16 1_555 1_555

#END
