
#######################################################################
#
#                 Cambridge Crystallographic Data Centre
#                                CCDC 
#
#######################################################################
#
# If this CIF has been generated from an entry in the Cambridge 
# Structural Database, then it will include bibliographic, chemical, 
# crystal, experimental, refinement or atomic coordinate data resulting 
# from the CCDC's data processing and validation procedures.
#
#######################################################################

data_ETETUU
_chemical_formula_moiety         'C19 H17 N5 O1'
_chemical_name_systematic        
2-(4-(4-methoxyphenyl)-5-(1-methyl-1H-pyrrol-2-yl)-4H-1,2,4-triazol-3-yl)pyridine
_symmetry_cell_setting           monoclinic
_symmetry_space_group_name_H-M   'P 21/c'
_symmetry_Int_Tables_number      14
_space_group_name_Hall           '-P 2ybc'
loop_
_symmetry_equiv_pos_site_id
_symmetry_equiv_pos_as_xyz
1 x,y,z
2 -x,1/2+y,1/2-z
3 -x,-y,-z
4 x,1/2-y,1/2+z
_cell_length_a                   9.424(3)
_cell_length_b                   18.677(6)
_cell_length_c                   10.371(3)
_cell_angle_alpha                90
_cell_angle_beta                 111.765(4)
_cell_angle_gamma                90
_cell_volume                     1695.29
_exptl_crystal_colour            colorless
_exptl_crystal_description       rodlike
_cell_formula_units_Z            4
loop_
_atom_site_label
_atom_site_type_symbol
_atom_site_fract_x
_atom_site_fract_y
_atom_site_fract_z
O1 O 0.21105(17) 0.22827(7) 0.73317(15)
N1 N 0.3870(2) 0.06972(9) 1.24348(16)
N2 N 0.28765(17) -0.11292(8) 1.16894(15)
N3 N 0.25730(17) -0.14770(8) 1.04412(17)
N4 N 0.25407(14) -0.03139(7) 1.00714(13)
N5 N 0.25265(18) -0.17280(8) 0.75717(17)
C1 C 0.4185(3) 0.11671(12) 1.3487(2)
H1 H 0.4667 0.1594 1.3430
C2 C 0.3838(3) 0.10510(13) 1.4629(2)
H2 H 0.4085 0.1393 1.5330
C3 C 0.3132(3) 0.04369(13) 1.4745(2)
H3 H 0.2887 0.0351 1.5521
C4 C 0.2789(2) -0.00522(12) 1.3700(2)
H4 H 0.2309 -0.0480 1.3752
C5 C 0.31665(19) 0.00980(9) 1.25556(17)
C6 C 0.28532(19) -0.04403(9) 1.14566(17)
C7 C 0.23831(19) -0.09831(9) 0.94853(18)
C8 C 0.2002(2) -0.11237(9) 0.80212(18)
C9 C 0.1016(2) -0.07766(10) 0.6880(2)
H5 H 0.0502 -0.0351 0.6878
C10 C 0.0920(3) -0.11826(12) 0.5706(2)
H6 H 0.0327 -0.1077 0.4787
C11 C 0.1856(3) -0.17567(12) 0.6167(2)
H7 H 0.2013 -0.2113 0.5609
C12 C 0.3704(3) -0.22232(11) 0.8409(3)
H8 H 0.3834 -0.2597 0.7827
H9 H 0.3403 -0.2429 0.9117
H10 H 0.4651 -0.1970 0.8834
C13 C 0.23880(18) 0.03630(8) 0.93679(16)
C14 C 0.34328(19) 0.05479(9) 0.87756(16)
H11 H 0.4218 0.0235 0.8823
C15 C 0.3304(2) 0.11942(9) 0.81196(17)
H12 H 0.4017 0.1322 0.7736
C16 C 0.2125(2) 0.16593(9) 0.80201(17)
C17 C 0.1064(2) 0.14694(9) 0.85955(19)
H13 H 0.0261 0.1776 0.8528
C18 C 0.12132(19) 0.08199(9) 0.92694(18)
H14 H 0.0508 0.0691 0.9661
C19 C 0.0894(3) 0.27712(11) 0.7145(3)
H15 H 0.0993 0.3173 0.6607
H16 H 0.0930 0.2935 0.8034
H17 H -0.0064 0.2536 0.6667
loop_
_geom_bond_atom_site_label_1
_geom_bond_atom_site_label_2
_geom_bond_site_symmetry_1
_geom_bond_site_symmetry_2
O1 C16 1_555 1_555
N1 C1 1_555 1_555
N2 N3 1_555 1_555
N3 C7 1_555 1_555
N4 C6 1_555 1_555
N5 C8 1_555 1_555
C1 H1 1_555 1_555
C2 C1 1_555 1_555
H2 C2 1_555 1_555
C3 C2 1_555 1_555
H3 C3 1_555 1_555
C4 C3 1_555 1_555
H4 C4 1_555 1_555
C5 N1 1_555 1_555
C6 N2 1_555 1_555
C7 N4 1_555 1_555
C8 C7 1_555 1_555
C9 C8 1_555 1_555
H5 C9 1_555 1_555
C10 C9 1_555 1_555
H6 C10 1_555 1_555
C11 N5 1_555 1_555
H7 C11 1_555 1_555
C12 N5 1_555 1_555
H8 C12 1_555 1_555
H9 C12 1_555 1_555
H10 C12 1_555 1_555
C13 N4 1_555 1_555
C14 C13 1_555 1_555
H11 C14 1_555 1_555
C15 C14 1_555 1_555
H12 C15 1_555 1_555
C16 C15 1_555 1_555
C17 C16 1_555 1_555
H13 C17 1_555 1_555
C18 C13 1_555 1_555
H14 C18 1_555 1_555
C19 O1 1_555 1_555
H15 C19 1_555 1_555
H16 C19 1_555 1_555
H17 C19 1_555 1_555
C4 C5 1_555 1_555
C5 C6 1_555 1_555
C10 C11 1_555 1_555
C17 C18 1_555 1_555

#END
