
#######################################################################
#
#                 Cambridge Crystallographic Data Centre
#                                CCDC 
#
#######################################################################
#
# If this CIF has been generated from an entry in the Cambridge 
# Structural Database, then it will include bibliographic, chemical, 
# crystal, experimental, refinement or atomic coordinate data resulting 
# from the CCDC's data processing and validation procedures.
#
#######################################################################

data_ETHUSS01
_chemical_name_common            'Tetraethylthiuram disulfide'
_chemical_formula_moiety         'C10 H20 N2 S4'
_chemical_name_systematic        bis(N,N-Diethyldithiocarbamate)
_chemical_properties_biological  
'fungicidal, bactericidal and insecticidal activity; used in treatment of alcoholism'
_symmetry_cell_setting           monoclinic
_symmetry_space_group_name_H-M   'P 21/c'
_symmetry_Int_Tables_number      14
_space_group_name_Hall           '-P 2ybc'
loop_
_symmetry_equiv_pos_site_id
_symmetry_equiv_pos_as_xyz
1 x,y,z
2 -x,1/2+y,1/2-z
3 -x,-y,-z
4 x,1/2-y,1/2+z
_cell_length_a                   11.108(2)
_cell_length_b                   15.873(2)
_cell_length_c                   8.637(3)
_cell_angle_alpha                90
_cell_angle_beta                 92.55(2)
_cell_angle_gamma                90
_cell_volume                     1521.34
_cell_formula_units_Z            4
loop_
_atom_site_label
_atom_site_type_symbol
_atom_site_fract_x
_atom_site_fract_y
_atom_site_fract_z
S1 S 0.33138(6) 0.32794(4) 0.22721(9)
S2 S 0.17073(5) 0.45307(4) 0.05163(7)
S3 S 0.32619(5) 0.51472(4) 0.08606(7)
S4 S 0.17307(6) 0.57822(5) 0.34316(9)
N1 N 0.0981(1) 0.3071(1) 0.1572(2)
N2 N 0.4045(1) 0.6139(1) 0.3118(2)
C1 C 0.1297(2) 0.1559(1) 0.1070(3)
C2 C 0.1020(2) 0.2221(1) 0.2262(3)
C3 C -0.0225(2) 0.3360(1) 0.1013(2)
C4 C -0.0881(2) 0.3796(2) 0.2287(3)
C5 C 0.1974(2) 0.3538(1) 0.1538(2)
C6 C 0.3042(2) 0.5745(1) 0.2625(2)
C7 C 0.5226(2) 0.6035(1) 0.2421(3)
C8 C 0.5914(2) 0.5301(2) 0.3143(3)
C9 C 0.4038(2) 0.6670(2) 0.4517(3)
C10 C 0.3636(2) 0.7552(2) 0.4141(4)
H1 H 0.1704 0.2205 0.3212
H2 H 0.0151 0.2078 0.2763
H3 H -0.0157 0.3794 0.0058
H4 H -0.0768 0.2818 0.0595
H5 H 0.5099 0.5922 0.1152
H6 H 0.5769 0.6612 0.2536
H7 H 0.3445 0.6396 0.5400
H8 H 0.4945 0.6699 0.5114
H9 H 0.0665 0.1536 0.0181
H10 H 0.1323 0.1006 0.1529
H11 H -0.1687 0.3960 0.1955
H12 H -0.0476 0.4297 0.2693
H13 H 0.5503 0.4783 0.2919
H14 H 0.6078 0.5398 0.4277
H15 H 0.2857 0.7542 0.3692
H16 H 0.4141 0.7779 0.3381
H17 H 0.2118 0.1616 0.0608
H18 H -0.0964 0.3435 0.3178
H19 H 0.6740 0.5228 0.2696
H20 H 0.3654 0.7905 0.5107
loop_
_geom_bond_atom_site_label_1
_geom_bond_atom_site_label_2
_geom_bond_site_symmetry_1
_geom_bond_site_symmetry_2
S1 C5 1_555 1_555
S2 S3 1_555 1_555
S3 C6 1_555 1_555
S4 C6 1_555 1_555
N1 C2 1_555 1_555
N2 C6 1_555 1_555
C1 C2 1_555 1_555
C2 H1 1_555 1_555
C3 N1 1_555 1_555
C4 C3 1_555 1_555
C5 S2 1_555 1_555
C7 N2 1_555 1_555
C8 C7 1_555 1_555
C9 N2 1_555 1_555
C10 C9 1_555 1_555
H2 C2 1_555 1_555
H3 C3 1_555 1_555
H4 C3 1_555 1_555
H5 C7 1_555 1_555
H6 C7 1_555 1_555
H7 C9 1_555 1_555
H8 C9 1_555 1_555
H9 C1 1_555 1_555
H10 C1 1_555 1_555
H11 C4 1_555 1_555
H12 C4 1_555 1_555
H13 C8 1_555 1_555
H14 C8 1_555 1_555
H15 C10 1_555 1_555
H16 C10 1_555 1_555
H17 C1 1_555 1_555
H18 C4 1_555 1_555
H19 C8 1_555 1_555
H20 C10 1_555 1_555
N1 C5 1_555 1_555

#END
