
#######################################################################
#
#                 Cambridge Crystallographic Data Centre
#                                CCDC 
#
#######################################################################
#
# If this CIF has been generated from an entry in the Cambridge 
# Structural Database, then it will include bibliographic, chemical, 
# crystal, experimental, refinement or atomic coordinate data resulting 
# from the CCDC's data processing and validation procedures.
#
#######################################################################

data_ETHUSS02
_chemical_name_common            'Tetraethylthiuram disulfide'
_chemical_formula_moiety         'C10 H20 N2 S4'
_chemical_name_systematic        bis(N,N-Diethyldithiocarbamate)
_chemical_properties_biological  
'fungicidal, bactericidal and insecticidal activity; used in treatment of alcoholism'
_symmetry_cell_setting           monoclinic
_symmetry_space_group_name_H-M   'P 21/c'
_symmetry_Int_Tables_number      14
_space_group_name_Hall           '-P 2ybc'
loop_
_symmetry_equiv_pos_site_id
_symmetry_equiv_pos_as_xyz
1 x,y,z
2 -x,1/2+y,1/2-z
3 -x,-y,-z
4 x,1/2-y,1/2+z
_cell_length_a                   10.922(3)
_cell_length_b                   15.946(4)
_cell_length_c                   8.444(1)
_cell_angle_alpha                90
_cell_angle_beta                 91.92(1)
_cell_angle_gamma                90
_cell_volume                     1469.8
_exptl_crystal_colour            'light yellow'
_cell_formula_units_Z            4
loop_
_atom_site_label
_atom_site_type_symbol
_atom_site_fract_x
_atom_site_fract_y
_atom_site_fract_z
S1 S 0.33884(3) 0.32932(2) 0.21376(4)
S2 S 0.17114(2) 0.45455(2) 0.04118(3)
S3 S 0.32816(2) 0.51772(2) 0.07946(3)
S4 S 0.16524(3) 0.57668(2) 0.34445(3)
N1 N 0.10024(7) 0.30753(5) 0.14742(9)
N2 N 0.40204(8) 0.61391(5) 0.3175(1)
C1 C 0.13508(1) 0.15661(8) 0.0935(2)
C2 C 0.1057(1) 0.22223(7) 0.2160(1)
C3 C -0.0230(1) 0.33579(7) 0.0936(1)
C4 C -0.0916(1) 0.37720(8) 0.2257(2)
C5 C 0.20087(9) 0.35518(6) 0.1423(1)
C6 C 0.30110(9) 0.57471(6) 0.2629(1)
C7 C 0.5241(1) 0.60484(7) 0.2484(1)
C8 C 0.59320(1) 0.53046(8) 0.3181(2)
C9 C 0.39816(1) 0.66519(7) 0.4632(1)
C10 C 0.3549(1) 0.75361(8) 0.4284(2)
H1 H 0.1344(9) 0.1011(6) 0.139(1)
H2 H 0.217(1) 0.1665(6) 0.050(1)
H3 H 0.0731(9) 0.1565(6) 0.007(1)
H4 H 0.0233(8) 0.2115(6) 0.257(1)
H5 H 0.1669(8) 0.2223(6) 0.299(1)
H6 H -0.0627(8) 0.2891(6) 0.057(1)
H7 H -0.0142(8) 0.3731(6) 0.002(1)
H8 H -0.1016(9) 0.3397(6) 0.311(1)
H9 H -0.0468(9) 0.4254(6) 0.267(1)
H10 H -0.1737(9) 0.3967(6) 0.191(1)
H11 H 0.5678(8) 0.6575(6) 0.266(1)
H12 H 0.5127(8) 0.6013(6) 0.135(1)
H13 H 0.606(1) 0.5355(7) 0.429(1)
H14 H 0.674(1) 0.5238(6) 0.272(1)
H15 H 0.5505(9) 0.4787(6) 0.296(1)
loop_
_geom_bond_atom_site_label_1
_geom_bond_atom_site_label_2
_geom_bond_site_symmetry_1
_geom_bond_site_symmetry_2
S1 C5 1_555 1_555
S2 S3 1_555 1_555
S3 C6 1_555 1_555
S4 C6 1_555 1_555
N1 C2 1_555 1_555
N2 C6 1_555 1_555
C1 C2 1_555 1_555
C2 H4 1_555 1_555
C3 N1 1_555 1_555
C4 C3 1_555 1_555
C5 S2 1_555 1_555
C7 N2 1_555 1_555
C8 C7 1_555 1_555
C9 N2 1_555 1_555
C10 C9 1_555 1_555
H1 C1 1_555 1_555
H2 C1 1_555 1_555
H3 C1 1_555 1_555
H5 C2 1_555 1_555
H6 C3 1_555 1_555
H7 C3 1_555 1_555
H8 C4 1_555 1_555
H9 C4 1_555 1_555
H10 C4 1_555 1_555
H11 C7 1_555 1_555
H12 C7 1_555 1_555
H13 C8 1_555 1_555
H14 C8 1_555 1_555
H15 C8 1_555 1_555
N1 C5 1_555 1_555

#END
