
#######################################################################
#
#                 Cambridge Crystallographic Data Centre
#                                CCDC 
#
#######################################################################
#
# If this CIF has been generated from an entry in the Cambridge 
# Structural Database, then it will include bibliographic, chemical, 
# crystal, experimental, refinement or atomic coordinate data resulting 
# from the CCDC's data processing and validation procedures.
#
#######################################################################

data_ETHUSS04
_chemical_name_common            'Tetraethylthiuram disulfide'
_chemical_formula_moiety         'C10 H20 N2 S4'
_chemical_name_systematic        bis(N,N-Diethyldithiocarbamate)
_chemical_properties_biological  
'fungicidal, bactericidal and insecticidal activity; used in treatment of alcoholism'
_symmetry_cell_setting           monoclinic
_symmetry_space_group_name_H-M   'P 21'
_symmetry_Int_Tables_number      4
_space_group_name_Hall           'P 2yb'
loop_
_symmetry_equiv_pos_site_id
_symmetry_equiv_pos_as_xyz
1 x,y,z
2 -x,1/2+y,-z
_cell_length_a                   8.643
_cell_length_b                   15.864
_cell_length_c                   11.093
_cell_angle_alpha                90
_cell_angle_beta                 92.50
_cell_angle_gamma                90
_cell_volume                     1519.54
_cell_formula_units_Z            4
loop_
_atom_site_label
_atom_site_type_symbol
_atom_site_fract_x
_atom_site_fract_y
_atom_site_fract_z
S1 S 0.8000(1) 0.166 0.17122(9)
S2 S 0.8351(1) 0.22840(6) 0.32689(9)
S3 S 0.9727(2) 0.04162(7) 0.3314(1)
S4 S 1.0943(2) 0.29076(9) 0.1751(1)
N1 N 0.9073(3) 0.0184(2) 0.0971(2)
N2 N 1.0663(3) 0.3261(2) 0.4005(3)
C1 C 0.8985(4) 0.0685(2) 0.2006(3)
C2 C 1.0165(4) 0.2880(2) 0.3070(3)
C3 C 0.9780(4) -0.0647(2) 0.0997(4)
C4 C 1.1985(5) 0.3813(3) 0.4043(4)
C5 C 0.8575(5) -0.1323(3) 0.1243(4)
C6 C 1.1686(6) 0.4680(3) 0.3651(5)
C7 C 0.8510(4) 0.0477(3) -0.0254(3)
C8 C 0.9853(5) 0.3171(3) 0.5221(4)
C9 C 0.9758(4) 0.0936(3) -0.0887(4)
C10 C 1.0608(5) 0.2411(3) 0.5894(4)
S5 S 0.3365(1) 0.69863(6) 0.32576(9)
S6 S 0.3025(1) 0.76005(6) 0.17030(9)
S7 S 0.5922(1) 0.63444(8) 0.1705(1)
S8 S 0.4814(1) 0.88590(8) 0.3316(1)
N3 N 0.5559(4) 0.5981(2) 0.4087(3)
N4 N 0.4063(3) 0.9042(2) 0.0989(3)
C11 C 0.5078(5) 0.6390(2) 0.3015(3)
C12 C 0.4074(4) 0.8603(2) 0.1943(3)
C13 C 0.7056(5) 0.5468(3) 0.4025(4)
C14 C 0.4699(5) 0.9922(3) 0.1055(4)
C15 C 0.6574(7) 0.4566(3) 0.3618(5)
C16 C 0.3562(5) 1.0570(2) 0.1337(4)
C17 C 0.4963(5) 0.6099(2) 0.5212(3)
C18 C 0.3530(4) 0.8761(2) -0.0204(4)
C19 C 0.5720(7) 0.6806(3) 0.5943(4)
C20 C 0.4871(6) 0.8359(4) -0.0880(4)
loop_
_geom_bond_atom_site_label_1
_geom_bond_atom_site_label_2
_geom_bond_site_symmetry_1
_geom_bond_site_symmetry_2
S1 S2 1_555 1_555
S2 C2 1_555 1_555
S3 C1 1_555 1_555
S4 C2 1_555 1_555
N1 C1 1_555 1_555
N2 C2 1_555 1_555
C1 S1 1_555 1_555
C3 N1 1_555 1_555
C4 N2 1_555 1_555
C5 C3 1_555 1_555
C6 C4 1_555 1_555
C7 N1 1_555 1_555
C8 N2 1_555 1_555
C9 C7 1_555 1_555
C10 C8 1_555 1_555
S5 S6 1_555 1_555
S6 C12 1_555 1_555
S7 C11 1_555 1_555
S8 C12 1_555 1_555
N3 C11 1_555 1_555
N4 C12 1_555 1_555
C11 S5 1_555 1_555
C13 N3 1_555 1_555
C14 N4 1_555 1_555
C15 C13 1_555 1_555
C16 C14 1_555 1_555
C17 N3 1_555 1_555
C18 N4 1_555 1_555
C19 C17 1_555 1_555
C20 C18 1_555 1_555

#END
