
#######################################################################
#
#                 Cambridge Crystallographic Data Centre
#                                CCDC 
#
#######################################################################
#
# If this CIF has been generated from an entry in the Cambridge 
# Structural Database, then it will include bibliographic, chemical, 
# crystal, experimental, refinement or atomic coordinate data resulting 
# from the CCDC's data processing and validation procedures.
#
#######################################################################

data_ETIBIS
_chemical_formula_moiety         'C11 H12 N2 O2'
_chemical_name_systematic        6-Nitro-2-propyl-1H-indole
_symmetry_cell_setting           triclinic
_symmetry_space_group_name_H-M   'P -1'
_symmetry_Int_Tables_number      2
_space_group_name_Hall           '-P 1'
loop_
_symmetry_equiv_pos_site_id
_symmetry_equiv_pos_as_xyz
1 x,y,z
2 -x,-y,-z
_cell_length_a                   8.229(2)
_cell_length_b                   11.828(3)
_cell_length_c                   12.088(3)
_cell_angle_alpha                67.403(4)
_cell_angle_beta                 86.940(4)
_cell_angle_gamma                74.256(4)
_cell_volume                     1043.77
_exptl_crystal_colour            'light yellow'
_exptl_crystal_description       block
_cell_formula_units_Z            4
_exptl_crystal_recrystallization_method ethanol
loop_
_atom_site_label
_atom_site_type_symbol
_atom_site_fract_x
_atom_site_fract_y
_atom_site_fract_z
O1 O 0.7952(2) 0.53774(17) 0.20466(14)
O2 O 0.9550(2) 0.44383(16) 0.36947(15)
N1 N 0.5920(2) 0.60278(17) 0.66399(16)
H1 H 0.6751 0.5601 0.7195
N2 N 0.8216(3) 0.51688(19) 0.31127(18)
C1 C 0.4358(3) 0.6727(2) 0.6803(2)
C2 C 0.3401(3) 0.7278(2) 0.5730(2)
H2 H 0.2281 0.7820 0.5590
C3 C 0.4395(3) 0.6887(2) 0.48718(19)
C4 C 0.4113(3) 0.7095(2) 0.3666(2)
H3 H 0.3056 0.7608 0.3251
C5 C 0.5387(3) 0.6547(2) 0.3089(2)
H4 H 0.5226 0.6690 0.2268
C6 C 0.6922(3) 0.5775(2) 0.3732(2)
C7 C 0.7267(3) 0.5524(2) 0.4919(2)
H5 H 0.8319 0.4992 0.5330
C8 C 0.5978(3) 0.6100(2) 0.54776(19)
C9 C 0.3895(3) 0.6800(2) 0.7988(2)
H6 H 0.3885 0.5941 0.8566
H7 H 0.2734 0.7364 0.7901
C10 C 0.5075(3) 0.7291(2) 0.8505(2)
H8 H 0.5139 0.8130 0.7912
H9 H 0.6224 0.6699 0.8646
C11 C 0.4493(3) 0.7423(3) 0.9680(2)
H10 H 0.5290 0.7740 0.9976
H11 H 0.4450 0.6591 1.0277
H12 H 0.3365 0.8023 0.9543
O3 O 1.0916(2) 0.67913(17) 1.20003(15)
O4 O 1.1694(2) 0.53805(16) 1.12174(15)
N3 N 0.8769(2) 0.77012(18) 0.70143(16)
H13 H 0.9219 0.7021 0.6853
N4 N 1.0889(3) 0.6451(2) 1.11582(17)
C12 C 0.7741(3) 0.8825(2) 0.6231(2)
C13 C 0.7285(3) 0.9665(2) 0.6784(2)
H14 H 0.6577 1.0510 0.6441
C14 C 0.8061(3) 0.9048(2) 0.7970(2)
C15 C 0.8084(3) 0.9404(2) 0.8949(2)
H15 H 0.7470 1.0232 0.8892
C16 C 0.9000(3) 0.8548(2) 0.9991(2)
H16 H 0.9028 0.8783 1.0656
C17 C 0.9894(3) 0.7325(2) 1.0066(2)
C18 C 0.9894(3) 0.6920(2) 0.9134(2)
H17 H 1.0485 0.6082 0.9209
C19 C 0.8986(3) 0.7802(2) 0.80899(19)
C20 C 0.7279(3) 0.9004(2) 0.4985(2)
H18 H 0.6479 0.9856 0.4592
H19 H 0.6689 0.8363 0.5028
C21 C 0.8803(3) 0.8883(3) 0.4209(2)
H20 H 0.9433 0.9492 0.4196
H21 H 0.9573 0.8014 0.4570
C22 C 0.8263(4) 0.9146(3) 0.2925(2)
H22 H 0.9265 0.9062 0.2457
H23 H 0.7516 1.0012 0.2560
H24 H 0.7659 0.8534 0.2934
loop_
_geom_bond_atom_site_label_1
_geom_bond_atom_site_label_2
_geom_bond_site_symmetry_1
_geom_bond_site_symmetry_2
O1 N2 1_555 1_555
O2 N2 1_555 1_555
N1 H1 1_555 1_555
N2 C6 1_555 1_555
C1 N1 1_555 1_555
C2 C1 1_555 1_555
H2 C2 1_555 1_555
C3 C2 1_555 1_555
C4 C3 1_555 1_555
H3 C4 1_555 1_555
C5 C4 1_555 1_555
H4 C5 1_555 1_555
C6 C5 1_555 1_555
C7 C6 1_555 1_555
H5 C7 1_555 1_555
C8 N1 1_555 1_555
C9 C1 1_555 1_555
H6 C9 1_555 1_555
H7 C9 1_555 1_555
C10 C9 1_555 1_555
H8 C10 1_555 1_555
H9 C10 1_555 1_555
C11 C10 1_555 1_555
H10 C11 1_555 1_555
H11 C11 1_555 1_555
H12 C11 1_555 1_555
O3 N4 1_555 1_555
O4 N4 1_555 1_555
N3 H13 1_555 1_555
N4 C17 1_555 1_555
C12 N3 1_555 1_555
C13 C12 1_555 1_555
H14 C13 1_555 1_555
C14 C13 1_555 1_555
C15 C14 1_555 1_555
H15 C15 1_555 1_555
C16 C15 1_555 1_555
H16 C16 1_555 1_555
C17 C16 1_555 1_555
C18 C17 1_555 1_555
H17 C18 1_555 1_555
C19 N3 1_555 1_555
C20 C12 1_555 1_555
H18 C20 1_555 1_555
H19 C20 1_555 1_555
C21 C20 1_555 1_555
H20 C21 1_555 1_555
H21 C21 1_555 1_555
C22 C21 1_555 1_555
H22 C22 1_555 1_555
H23 C22 1_555 1_555
H24 C22 1_555 1_555
C3 C8 1_555 1_555
C7 C8 1_555 1_555
C14 C19 1_555 1_555
C18 C19 1_555 1_555

#END
