
#######################################################################
#
#                 Cambridge Crystallographic Data Centre
#                                CCDC 
#
#######################################################################
#
# If this CIF has been generated from an entry in the Cambridge 
# Structural Database, then it will include bibliographic, chemical, 
# crystal, experimental, refinement or atomic coordinate data resulting 
# from the CCDC's data processing and validation procedures.
#
#######################################################################

data_ETICIT
_chemical_formula_moiety         'C13 H11 N1 O1'
_chemical_name_systematic        '(E)-2-Phenylbenzaldehyde oxime'
_symmetry_cell_setting           orthorhombic
_symmetry_space_group_name_H-M   'P c a 21'
_symmetry_Int_Tables_number      29
_space_group_name_Hall           'P 2c -2ac'
loop_
_symmetry_equiv_pos_site_id
_symmetry_equiv_pos_as_xyz
1 x,y,z
2 -x,-y,1/2+z
3 1/2+x,-y,z
4 1/2-x,y,1/2+z
_cell_length_a                   14.3555(4)
_cell_length_b                   4.49690(10)
_cell_length_c                   31.4473(10)
_cell_angle_alpha                90
_cell_angle_beta                 90
_cell_angle_gamma                90
_cell_volume                     2030.09
_exptl_crystal_colour            colorless
_exptl_crystal_description       needle
_chemical_melting_point          '390-391 K'
_cell_formula_units_Z            8
_exptl_crystal_recrystallization_method ethanol
loop_
_atom_site_label
_atom_site_type_symbol
_atom_site_fract_x
_atom_site_fract_y
_atom_site_fract_z
C1 C 0.7517(3) 0.4288(9) 0.33826(13)
C2 C 0.7584(2) 0.5864(9) 0.37654(12)
C3 C 0.8345(2) 0.7762(8) 0.38242(11)
C4 C 0.9017(2) 0.8108(8) 0.35128(11)
C5 C 0.8941(2) 0.6566(8) 0.31341(13)
C6 C 0.8208(4) 0.4677(8) 0.3070(2)
C7 C 0.6778(2) 0.2061(7) 0.33201(11)
N1 N 0.6569(2) 0.1075(7) 0.29523(9)
O1 O 0.58706(17) -0.1110(6) 0.29799(7)
C8 C 0.6879(3) 0.5642(9) 0.41035(16)
C9 C 0.5921(2) 0.5997(9) 0.40172(11)
C10 C 0.5270(3) 0.5976(10) 0.43404(12)
C11 C 0.5537(5) 0.5526(11) 0.4761(2)
C12 C 0.6486(6) 0.5143(8) 0.4854(2)
C13 C 0.7136(6) 0.5203(8) 0.4537(2)
H1 H 0.8402 0.8835 0.4083
H2 H 0.9530 0.9403 0.3559
H3 H 0.9397 0.6819 0.2918
H4 H 0.8165 0.3608 0.2810
H5 H 0.6448 0.1339 0.3561
H6 H 0.5829 -0.2010 0.2747
H7 H 0.5721 0.6254 0.3732
H8 H 0.4631 0.6272 0.4275
H9 H 0.5085 0.5479 0.4982
H10 H 0.6678 0.4839 0.5140
H11 H 0.7775 0.4945 0.4607
C14 C 0.4999(3) 0.9255(9) 0.17603(13)
C15 C 0.4924(2) 1.0781(9) 0.13732(12)
C16 C 0.4167(2) 1.2694(8) 0.13112(11)
C17 C 0.3507(2) 1.3106(8) 0.16229(12)
C18 C 0.3581(2) 1.1612(8) 0.20038(13)
C19 C 0.4328(4) 0.9694(8) 0.2074(2)
C20 C 0.5735(2) 0.7037(7) 0.18216(11)
N2 N 0.5944(2) 0.6053(7) 0.21885(9)
O2 O 0.66503(17) 0.3880(5) 0.21622(7)
C21 C 0.5644(4) 1.0487(8) 0.10287(17)
C22 C 0.6583(2) 1.0950(9) 0.11154(12)
C23 C 0.7231(3) 1.0772(10) 0.07915(13)
C24 C 0.6950(5) 1.0156(8) 0.0380(2)
C25 C 0.6038(6) 0.9708(9) 0.0294(2)
C26 C 0.5375(5) 0.9891(8) 0.0624(2)
H12 H 0.4108 1.3728 0.1049
H13 H 0.2999 1.4421 0.1575
H14 H 0.3124 1.1889 0.2219
H15 H 0.4379 0.8676 0.2337
H16 H 0.6065 0.6316 0.1581
H17 H 0.6657 0.2871 0.2387
H18 H 0.6779 1.1388 0.1397
H19 H 0.7873 1.1075 0.0852
H20 H 0.7398 1.0048 0.0158
H21 H 0.5844 0.9269 0.0012
H22 H 0.4733 0.9596 0.0562
loop_
_geom_bond_atom_site_label_1
_geom_bond_atom_site_label_2
_geom_bond_site_symmetry_1
_geom_bond_site_symmetry_2
C1 C2 1_555 1_555
C2 C3 1_555 1_555
C3 C4 1_555 1_555
C4 C5 1_555 1_555
C5 C6 1_555 1_555
C6 C1 1_555 1_555
C7 C1 1_555 1_555
N1 C7 1_555 1_555
O1 N1 1_555 1_555
C8 C2 1_555 1_555
C9 C8 1_555 1_555
C10 C9 1_555 1_555
C11 C10 1_555 1_555
C12 C11 1_555 1_555
C13 C8 1_555 1_555
C14 C15 1_555 1_555
C15 C16 1_555 1_555
C16 C17 1_555 1_555
C17 C18 1_555 1_555
C18 C19 1_555 1_555
C19 C14 1_555 1_555
C20 C14 1_555 1_555
N2 C20 1_555 1_555
O2 N2 1_555 1_555
C21 C15 1_555 1_555
C22 C21 1_555 1_555
C23 C22 1_555 1_555
C24 C23 1_555 1_555
C25 C24 1_555 1_555
C26 C21 1_555 1_555
H1 C3 1_555 1_555
H2 C4 1_555 1_555
H3 C5 1_555 1_555
H4 C6 1_555 1_555
H5 C7 1_555 1_555
H6 O1 1_555 1_555
H7 C9 1_555 1_555
H8 C10 1_555 1_555
H9 C11 1_555 1_555
H10 C12 1_555 1_555
H11 C13 1_555 1_555
H12 C16 1_555 1_555
H13 C17 1_555 1_555
H14 C18 1_555 1_555
H15 C19 1_555 1_555
H16 C20 1_555 1_555
H17 O2 1_555 1_555
H18 C22 1_555 1_555
H19 C23 1_555 1_555
H20 C24 1_555 1_555
H21 C25 1_555 1_555
H22 C26 1_555 1_555
C12 C13 1_555 1_555
C25 C26 1_555 1_555

#END
