
#######################################################################
#
#                 Cambridge Crystallographic Data Centre
#                                CCDC 
#
#######################################################################
#
# If this CIF has been generated from an entry in the Cambridge 
# Structural Database, then it will include bibliographic, chemical, 
# crystal, experimental, refinement or atomic coordinate data resulting 
# from the CCDC's data processing and validation procedures.
#
#######################################################################

data_ETIFAO
_chemical_formula_moiety         'C10 H12 N4 O1 2+,2(Cl1 1-)'
_chemical_name_systematic        
'(8-Hydroxyquinolinium-5-yl)guanidinium dichloride'
_symmetry_cell_setting           monoclinic
_symmetry_space_group_name_H-M   'C 2/c'
_symmetry_Int_Tables_number      15
_space_group_name_Hall           '-C 2yn'
loop_
_symmetry_equiv_pos_site_id
_symmetry_equiv_pos_as_xyz
1 x,y,z
2 1/2+x,1/2+y,z
3 x,-y,1/2+z
4 1/2+x,1/2-y,1/2+z
5 -x,-y,-z
6 1/2-x,1/2-y,-z
7 -x,y,1/2-z
8 1/2-x,1/2+y,1/2-z
_cell_length_a                   10.715(2)
_cell_length_b                   11.333(2)
_cell_length_c                   22.720(5)
_cell_angle_alpha                90
_cell_angle_beta                 103.30(3)
_cell_angle_gamma                90
_cell_volume                     2684.96
_exptl_crystal_colour            yellow
_exptl_crystal_description       prism
_chemical_melting_point          '542-543 K'
_cell_formula_units_Z            8
_exptl_crystal_recrystallization_method methanol
loop_
_atom_site_label
_atom_site_type_symbol
_atom_site_fract_x
_atom_site_fract_y
_atom_site_fract_z
C1 C 1.2590(3) 1.0302(3) 0.42151(14)
H1 H 1.3457 1.0492 0.4295
C2 C 1.1759(3) 1.0784(3) 0.37068(14)
H2 H 1.2050 1.1317 0.3457
C3 C 1.0491(3) 1.0440(3) 0.35888(13)
H3 H 0.9932 1.0723 0.3242
C4 C 1.0018(3) 0.9689(3) 0.39685(13)
C5 C 0.8718(3) 0.9363(3) 0.38835(13)
C6 C 0.8358(3) 0.8577(3) 0.42718(13)
H4 H 0.7508 0.8332 0.4200
C7 C 0.9244(3) 0.8139(3) 0.47745(13)
H5 H 0.8974 0.7622 0.5038
C8 C 1.0539(3) 0.8471(3) 0.48843(12)
C9 C 1.0878(3) 0.9217(3) 0.44814(12)
C10 C 0.7523(3) 0.9455(3) 0.28186(13)
N1 N 1.2178(2) 0.9594(2) 0.45793(11)
H6 H 1.2717 0.9341 0.4895
N2 N 0.7795(2) 0.9870(2) 0.33973(11)
H7 H 0.7381 1.0479 0.3474
N3 N 0.6642(2) 1.0026(3) 0.24133(12)
H8 H 0.6461 0.9800 0.2042
H9 H 0.6252 1.0623 0.2522
N4 N 0.8161(3) 0.8536(3) 0.26882(13)
H10 H 0.8015 0.8276 0.2323
H11 H 0.8724 0.8197 0.2968
O1 O 1.14419(19) 0.8084(2) 0.53612(9)
H12 H 1.1056 0.7553 0.5597
Cl1 Cl 0.07744(8) 0.70303(7) 0.33352(3)
Cl2 Cl 0.46422(8) 0.84034(7) 0.37643(4)
loop_
_geom_bond_atom_site_label_1
_geom_bond_atom_site_label_2
_geom_bond_site_symmetry_1
_geom_bond_site_symmetry_2
C1 H1 1_555 1_555
C2 C1 1_555 1_555
H2 C2 1_555 1_555
C3 C2 1_555 1_555
H3 C3 1_555 1_555
C4 C3 1_555 1_555
C5 C4 1_555 1_555
C6 C5 1_555 1_555
H4 C6 1_555 1_555
C7 C6 1_555 1_555
H5 C7 1_555 1_555
C8 C7 1_555 1_555
C9 C4 1_555 1_555
C10 N2 1_555 1_555
N1 C1 1_555 1_555
H6 N1 1_555 1_555
N2 C5 1_555 1_555
H7 N2 1_555 1_555
N3 C10 1_555 1_555
H8 N3 1_555 1_555
H9 N3 1_555 1_555
N4 C10 1_555 1_555
H10 N4 1_555 1_555
H11 N4 1_555 1_555
O1 C8 1_555 1_555
H12 O1 1_555 1_555
C8 C9 1_555 1_555
C9 N1 1_555 1_555

#END
