
#######################################################################
#
#                 Cambridge Crystallographic Data Centre
#                                CCDC 
#
#######################################################################
#
# If this CIF has been generated from an entry in the Cambridge 
# Structural Database, then it will include bibliographic, chemical, 
# crystal, experimental, refinement or atomic coordinate data resulting 
# from the CCDC's data processing and validation procedures.
#
#######################################################################

data_ETIGAP
_chemical_formula_moiety         'C1 H6 N3 1+,C7 H5 O6 S1 1-'
_chemical_name_systematic        
'Guanidinium 4-hydroxy-3-carboxybenzene sulfonate'
_symmetry_cell_setting           triclinic
_symmetry_space_group_name_H-M   'P -1'
_symmetry_Int_Tables_number      2
_space_group_name_Hall           '-P 1'
loop_
_symmetry_equiv_pos_site_id
_symmetry_equiv_pos_as_xyz
1 x,y,z
2 -x,-y,-z
_cell_length_a                   7.4072(6)
_cell_length_b                   8.6995(7)
_cell_length_c                   10.2525(8)
_cell_angle_alpha                87.2050(10)
_cell_angle_beta                 74.5170(10)
_cell_angle_gamma                66.2770(10)
_cell_volume                     581.597
_exptl_crystal_colour            colorless
_exptl_crystal_description       plate
_cell_formula_units_Z            2
_exptl_crystal_recrystallization_method water
loop_
_atom_site_label
_atom_site_type_symbol
_atom_site_fract_x
_atom_site_fract_y
_atom_site_fract_z
S1 S 0.83760(6) 0.84248(5) 0.70760(4)
O1 O 0.6389(2) 0.9598(2) 0.69710(10)
O2 O 0.9506(2) 0.7199(2) 0.59190(10)
O3 O 0.9595(2) 0.9274(2) 0.73570(10)
O4 O 0.8556(2) 0.2435(2) 0.80190(10)
O5 O 0.7601(2) 0.2181(2) 1.02460(10)
O6 O 0.6677(2) 0.4730(2) 1.18920(10)
C1 C 0.7936(2) 0.7276(2) 0.8501(2)
C2 C 0.8123(2) 0.5654(2) 0.8335(2)
C3 C 0.7713(2) 0.4761(2) 0.9455(2)
C4 C 0.7091(3) 0.5536(2) 1.0758(2)
C5 C 0.6892(3) 0.7183(2) 1.0916(2)
C6 C 0.7316(3) 0.8043(2) 0.9803(2)
C7 C 0.7943(3) 0.3002(2) 0.9296(2)
H1 H 0.879(4) 0.142(2) 0.788(3)
H2 H 0.694(4) 0.375(2) 1.158(3)
H9 H 0.851(3) 0.512(2) 0.7470(10)
H10 H 0.649(3) 0.771(3) 1.1800(10)
H11 H 0.718(3) 0.9170(10) 0.993(2)
N1 N 0.3895(3) 0.8336(2) 0.6066(2)
N2 N 0.6772(3) 0.6794(2) 0.4409(2)
N3 N 0.3682(3) 0.6795(2) 0.4418(2)
C8 C 0.4772(3) 0.7315(2) 0.4966(2)
H3 H 0.263(2) 0.871(3) 0.643(2)
H4 H 0.459(3) 0.873(3) 0.636(2)
H5 H 0.751(3) 0.708(3) 0.477(2)
H6 H 0.734(3) 0.602(2) 0.377(2)
H7 H 0.425(3) 0.621(2) 0.3660(10)
H8 H 0.238(2) 0.716(3) 0.478(2)
loop_
_geom_bond_atom_site_label_1
_geom_bond_atom_site_label_2
_geom_bond_site_symmetry_1
_geom_bond_site_symmetry_2
S1 O1 1_555 1_555
O2 S1 1_555 1_555
O3 S1 1_555 1_555
O4 C7 1_555 1_555
O5 C7 1_555 1_555
O6 C4 1_555 1_555
N1 C8 1_555 1_555
N2 C8 1_555 1_555
N3 C8 1_555 1_555
C1 S1 1_555 1_555
C2 C1 1_555 1_555
C3 C2 1_555 1_555
C4 C3 1_555 1_555
C5 C4 1_555 1_555
C6 C1 1_555 1_555
C7 C3 1_555 1_555
H1 O4 1_555 1_555
H2 O6 1_555 1_555
H3 N1 1_555 1_555
H4 N1 1_555 1_555
H5 N2 1_555 1_555
H6 N2 1_555 1_555
H7 N3 1_555 1_555
H8 N3 1_555 1_555
H9 C2 1_555 1_555
H10 C5 1_555 1_555
H11 C6 1_555 1_555
C5 C6 1_555 1_555

#END
