
#######################################################################
#
#                 Cambridge Crystallographic Data Centre
#                                CCDC 
#
#######################################################################
#
# If this CIF has been generated from an entry in the Cambridge 
# Structural Database, then it will include bibliographic, chemical, 
# crystal, experimental, refinement or atomic coordinate data resulting 
# from the CCDC's data processing and validation procedures.
#
#######################################################################

data_ETIKOH
_chemical_formula_moiety         'C20 H16 N2 O2 S1'
_chemical_name_systematic        'Fluoren-9-one 4-toluenesulfonylhydrazone'
_symmetry_cell_setting           triclinic
_symmetry_space_group_name_H-M   'P -1'
_symmetry_Int_Tables_number      2
_space_group_name_Hall           '-P 1'
loop_
_symmetry_equiv_pos_site_id
_symmetry_equiv_pos_as_xyz
1 x,y,z
2 -x,-y,-z
_cell_length_a                   7.7487(2)
_cell_length_b                   10.4290(3)
_cell_length_c                   11.2007(3)
_cell_angle_alpha                71.8482(13)
_cell_angle_beta                 76.9553(17)
_cell_angle_gamma                75.3167(17)
_cell_volume                     821.337
_exptl_crystal_colour            yellow
_exptl_crystal_description       block
_chemical_melting_point          457-460K(dec.)
_cell_formula_units_Z            2
_exptl_crystal_recrystallization_method ethanol
loop_
_atom_site_label
_atom_site_type_symbol
_atom_site_fract_x
_atom_site_fract_y
_atom_site_fract_z
S1 S 0.49758(4) 0.29627(3) 0.46935(3)
O1 O 0.42730(13) 0.19893(10) 0.43797(9)
O2 O 0.38541(13) 0.37025(10) 0.55813(9)
N1 N 0.65778(15) 0.37426(12) 0.24099(11)
N2 N 0.53735(15) 0.41975(12) 0.34037(10)
C1 C 0.70124(18) 0.21206(14) 0.52723(12)
C2 C 0.72736(19) 0.07160(14) 0.58536(13)
C3 C 0.8796(2) 0.00832(15) 0.64325(14)
C4 C 1.00559(19) 0.08295(15) 0.64246(13)
C5 C 0.97835(19) 0.22305(15) 0.58033(14)
C6 C 0.82650(19) 0.28867(14) 0.52338(13)
C7 C 0.66885(18) 0.46685(14) 0.13309(13)
C8 C 0.79401(19) 0.43389(15) 0.02076(13)
C9 C 0.9210(2) 0.31646(16) 0.01045(15)
C10 C 1.0248(2) 0.31484(19) -0.10839(16)
C11 C 0.9996(2) 0.42802(19) -0.21281(15)
C12 C 0.8723(2) 0.54628(18) -0.20293(14)
C13 C 0.7699(2) 0.54903(16) -0.08441(13)
C14 C 0.57250(19) 0.61144(15) 0.08941(13)
C15 C 0.44142(19) 0.69726(15) 0.15144(14)
C16 C 0.3761(2) 0.83030(16) 0.08245(15)
C17 C 0.4379(2) 0.87671(16) -0.04685(15)
C18 C 0.5645(2) 0.79084(16) -0.11100(14)
C19 C 0.63292(19) 0.65890(15) -0.04260(13)
C20 C 1.1667(2) 0.01449(17) 0.70916(15)
H1 H 0.9371 0.2391 0.0822
H2 H 1.1135 0.2355 -0.1180
H3 H 1.0713 0.4245 -0.2930
H4 H 0.8556 0.6231 -0.2751
H5 H 0.3971 0.6657 0.2396
H6 H 0.2878 0.8904 0.1244
H7 H 0.3927 0.9685 -0.0919
H8 H 0.6037 0.8218 -0.2000
H9 H 0.5552 0.4929 0.3555
H10 H 0.6427 0.0196 0.5856
H11 H 0.8979 -0.0876 0.6841
H12 H 1.0654 0.2745 0.5770
H13 H 0.8082 0.3845 0.4823
H14 H 1.1328 0.0129 0.7993
H15 H 1.2642 0.0659 0.6700
H16 H 1.2081 -0.0800 0.7017
loop_
_geom_bond_atom_site_label_1
_geom_bond_atom_site_label_2
_geom_bond_site_symmetry_1
_geom_bond_site_symmetry_2
S1 O1 1_555 1_555
O2 S1 1_555 1_555
N1 N2 1_555 1_555
N2 S1 1_555 1_555
C1 S1 1_555 1_555
C2 C1 1_555 1_555
C3 C2 1_555 1_555
C4 C3 1_555 1_555
C5 C4 1_555 1_555
C6 C1 1_555 1_555
C7 N1 1_555 1_555
C8 C7 1_555 1_555
C9 C8 1_555 1_555
C10 C9 1_555 1_555
C11 C10 1_555 1_555
C12 C11 1_555 1_555
C13 C8 1_555 1_555
C14 C7 1_555 1_555
C15 C14 1_555 1_555
C16 C15 1_555 1_555
C17 C16 1_555 1_555
C18 C17 1_555 1_555
C19 C13 1_555 1_555
C20 C4 1_555 1_555
H1 C9 1_555 1_555
H2 C10 1_555 1_555
H3 C11 1_555 1_555
H4 C12 1_555 1_555
H5 C15 1_555 1_555
H6 C16 1_555 1_555
H7 C17 1_555 1_555
H8 C18 1_555 1_555
H9 N2 1_555 1_555
H10 C2 1_555 1_555
H11 C3 1_555 1_555
H12 C5 1_555 1_555
H13 C6 1_555 1_555
H14 C20 1_555 1_555
H15 C20 1_555 1_555
H16 C20 1_555 1_555
C5 C6 1_555 1_555
C12 C13 1_555 1_555
C14 C19 1_555 1_555
C18 C19 1_555 1_555

#END
