
#######################################################################
#
#                 Cambridge Crystallographic Data Centre
#                                CCDC 
#
#######################################################################
#
# If this CIF has been generated from an entry in the Cambridge 
# Structural Database, then it will include bibliographic, chemical, 
# crystal, experimental, refinement or atomic coordinate data resulting 
# from the CCDC's data processing and validation procedures.
#
#######################################################################

data_ETIKAT
_chemical_compound_source        'fruit of Schisandra chinensis Baill'
_chemical_name_common            
5,6,7,8-Tetrahydro-1,2,3,13-tetramethoxy-6,7-dimethylbenzo(3,4)cyclo-octa(1,2-f)(1,3)benzodioxole
_chemical_formula_moiety         'C23 H28 O6'
_chemical_name_systematic        Kadsuranin
_chemical_properties_biological  
'antihepatitis, antitumour and antiHIV activity'
_symmetry_cell_setting           triclinic
_symmetry_space_group_name_H-M   'P -1'
_symmetry_Int_Tables_number      2
_space_group_name_Hall           '-P 1'
loop_
_symmetry_equiv_pos_site_id
_symmetry_equiv_pos_as_xyz
1 x,y,z
2 -x,-y,-z
_cell_length_a                   10.5346(7)
_cell_length_b                   10.9409(7)
_cell_length_c                   11.0568(7)
_cell_angle_alpha                83.315(2)
_cell_angle_beta                 70.256(3)
_cell_angle_gamma                63.245(2)
_cell_volume                     1070.09
_exptl_crystal_colour            colorless
_exptl_crystal_description       prism
_chemical_melting_point          '392-394 K'
_cell_formula_units_Z            2
_exptl_crystal_recrystallization_method 'petroleum ether/ethyl acetate (2:1)'
loop_
_atom_site_label
_atom_site_type_symbol
_atom_site_fract_x
_atom_site_fract_y
_atom_site_fract_z
O1 O 0.3652(3) 0.7451(3) 0.8647(3)
O2 O 0.5867(3) 0.6873(3) 0.5977(3)
O3 O 0.5238(5) 0.6772(4) 0.4202(3)
O4 O -0.2070(3) 0.8199(3) 1.2783(2)
O5 O 0.0419(3) 0.5805(3) 1.2019(2)
O6 O 0.2430(3) 0.5462(2) 0.9592(2)
C1 C 0.3390(4) 0.7252(4) 0.7577(4)
C2 C 0.4416(4) 0.6992(4) 0.6378(4)
C3 C 0.4034(5) 0.6965(4) 0.5319(4)
C4 C 0.2631(6) 0.7169(4) 0.5395(3)
H1 H 0.2396 0.7163 0.4658
C5 C 0.1547(4) 0.7391(4) 0.6628(3)
C6 C -0.0002(4) 0.7598(4) 0.6735(3)
H2 H -0.0454 0.7336 0.7580
H3 H 0.0087 0.6995 0.6103
C7 C -0.1067(5) 0.9099(4) 0.6530(3)
H4 H -0.0416 0.9487 0.5954
C8 C -0.1930(4) 1.0028(4) 0.7754(3)
H5 H -0.2375 1.0962 0.7464
C9 C -0.0920(4) 1.0035(3) 0.8485(3)
H6 H -0.0005 1.0012 0.7857
H7 H -0.1430 1.0897 0.8978
C10 C -0.0488(4) 0.8890(3) 0.9385(3)
C11 C -0.1446(4) 0.9077(4) 1.0650(3)
H8 H -0.2305 0.9903 1.0903
C12 C -0.1166(4) 0.8089(4) 1.1531(3)
C13 C 0.0135(4) 0.6855(3) 1.1175(3)
C14 C 0.1117(4) 0.6661(3) 0.9935(3)
C15 C 0.0827(4) 0.7668(3) 0.9026(3)
C16 C 0.1935(4) 0.7419(3) 0.7703(3)
C17 C -0.3256(5) 0.9775(5) 0.8650(4)
H9 H -0.2901 0.8831 0.8872
H10 H -0.3981 0.9987 0.8220
H11 H -0.3715 1.0349 0.9417
C18 C -0.2094(6) 0.9133(5) 0.5819(4)
H12 H -0.2677 0.8664 0.6298
H13 H -0.1499 0.8690 0.4984
H14 H -0.2755 1.0067 0.5729
C19 C 0.6475(7) 0.6364(5) 0.4670(6)
H15 H 0.7152 0.6743 0.4158
H16 H 0.7028 0.5373 0.4624
C20 C 0.5053(5) 0.6533(5) 0.8820(5)
H17 H 0.5320 0.5620 0.8555
H18 H 0.4965 0.6555 0.9711
H19 H 0.5815 0.6805 0.8311
C21 C -0.3434(4) 0.9408(4) 1.3171(4)
H20 H -0.3222 1.0181 1.3128
H21 H -0.4003 0.9334 1.4038
H22 H -0.4003 0.9528 1.2611
C22 C 0.1011(5) 0.5964(5) 1.2926(4)
H23 H 0.1898 0.6089 1.2486
H24 H 0.1260 0.5160 1.3424
H25 H 0.0278 0.6749 1.3485
C23 C 0.2282(5) 0.4368(4) 0.9192(4)
H26 H 0.1661 0.4090 0.9908
H27 H 0.3256 0.3611 0.8871
H28 H 0.1829 0.4659 0.8524
loop_
_geom_bond_atom_site_label_1
_geom_bond_atom_site_label_2
_geom_bond_site_symmetry_1
_geom_bond_site_symmetry_2
O1 C1 1_555 1_555
O2 C2 1_555 1_555
O3 C3 1_555 1_555
O4 C12 1_555 1_555
O5 C13 1_555 1_555
O6 C14 1_555 1_555
C1 C2 1_555 1_555
C2 C3 1_555 1_555
C3 C4 1_555 1_555
C4 H1 1_555 1_555
C5 C4 1_555 1_555
C6 C5 1_555 1_555
H2 C6 1_555 1_555
H3 C6 1_555 1_555
C7 C6 1_555 1_555
H4 C7 1_555 1_555
C8 C7 1_555 1_555
H5 C8 1_555 1_555
C9 C8 1_555 1_555
H6 C9 1_555 1_555
H7 C9 1_555 1_555
C10 C9 1_555 1_555
C11 C10 1_555 1_555
H8 C11 1_555 1_555
C12 C11 1_555 1_555
C13 C12 1_555 1_555
C14 C13 1_555 1_555
C15 C10 1_555 1_555
C16 C1 1_555 1_555
C17 C8 1_555 1_555
H9 C17 1_555 1_555
H10 C17 1_555 1_555
H11 C17 1_555 1_555
C18 C7 1_555 1_555
H12 C18 1_555 1_555
H13 C18 1_555 1_555
H14 C18 1_555 1_555
C19 O2 1_555 1_555
H15 C19 1_555 1_555
H16 C19 1_555 1_555
C20 O1 1_555 1_555
H17 C20 1_555 1_555
H18 C20 1_555 1_555
H19 C20 1_555 1_555
C21 O4 1_555 1_555
H20 C21 1_555 1_555
H21 C21 1_555 1_555
H22 C21 1_555 1_555
C22 O5 1_555 1_555
H23 C22 1_555 1_555
H24 C22 1_555 1_555
H25 C22 1_555 1_555
C23 O6 1_555 1_555
H26 C23 1_555 1_555
H27 C23 1_555 1_555
H28 C23 1_555 1_555
O3 C19 1_555 1_555
C5 C16 1_555 1_555
C14 C15 1_555 1_555
C15 C16 1_555 1_555

#END
