
#######################################################################
#
#                 Cambridge Crystallographic Data Centre
#                                CCDC 
#
#######################################################################
#
# If this CIF has been generated from an entry in the Cambridge 
# Structural Database, then it will include bibliographic, chemical, 
# crystal, experimental, refinement or atomic coordinate data resulting 
# from the CCDC's data processing and validation procedures.
#
#######################################################################

data_ETIPIG
_chemical_formula_moiety         'C12 H19 N3 O7 S1'
_chemical_name_systematic        
N-Amino-N'-(2,3,4-tri-O-acetyl-\b-D-xylopyranosyl)thiourea
_symmetry_cell_setting           monoclinic
_symmetry_space_group_name_H-M   'C 2'
_symmetry_Int_Tables_number      5
_space_group_name_Hall           'C 2y'
loop_
_symmetry_equiv_pos_site_id
_symmetry_equiv_pos_as_xyz
1 x,y,z
2 -x,y,-z
3 1/2+x,1/2+y,z
4 1/2-x,1/2+y,-z
_cell_length_a                   22.560(8)
_cell_length_b                   5.4253(19)
_cell_length_c                   15.057(5)
_cell_angle_alpha                90
_cell_angle_beta                 109.886(6)
_cell_angle_gamma                90
_cell_volume                     1733.01
_exptl_crystal_colour            yellow
_exptl_crystal_description       Needle
_cell_formula_units_Z            4
_exptl_crystal_recrystallization_method 'ethyl acetate/petroleum ether (1:3)'
loop_
_atom_site_label
_atom_site_type_symbol
_atom_site_fract_x
_atom_site_fract_y
_atom_site_fract_z
S1 S 0.16639(6) 0.4786(3) 0.00763(8)
N1 N 0.16984(17) 0.6742(8) 0.1725(3)
H1 H 0.1887 0.7671 0.2201
N2 N 0.22948(17) 0.8595(8) 0.0984(3)
H2 H 0.2443 0.8698 0.0529
N3 N 0.2488(2) 1.0312(9) 0.1728(3)
H3 H 0.2909(6) 1.020(10) 0.194(3)
H4 H 0.237(3) 1.187(4) 0.158(5)
O1 O 0.06247(15) 0.6522(8) 0.1394(3)
O2 O 0.18131(13) 0.2893(6) 0.3168(2)
O3 O 0.24585(18) 0.5951(8) 0.3861(3)
O4 O 0.07665(15) 0.3095(6) 0.3827(2)
O5 O 0.0720(3) -0.0950(9) 0.3906(3)
O6 O -0.03621(14) 0.2252(7) 0.2124(2)
O7 O -0.10189(15) 0.4549(7) 0.2588(3)
C1 C 0.11979(19) 0.5185(11) 0.1778(3)
H5 H 0.1181 0.3674 0.1414
C2 C 0.12846(18) 0.4543(10) 0.2801(3)
H6 H 0.1347 0.6038 0.3188
C3 C 0.07198(19) 0.3096(9) 0.2848(3)
H7 H 0.0742 0.1399 0.2639
C4 C 0.00990(19) 0.4222(10) 0.2271(3)
H8 H -0.0007 0.5632 0.2596
C5 C 0.0102(2) 0.4929(16) 0.1298(4)
H9 H 0.0135 0.3460 0.0951
H10 H -0.0289 0.5762 0.0949
C6 C 0.18884(19) 0.6826(9) 0.0973(3)
C7 C 0.2376(2) 0.3827(11) 0.3718(3)
C8 C 0.2849(2) 0.1839(10) 0.4081(4)
H11 H 0.3127 0.2265 0.4702
H12 H 0.3089 0.1645 0.3667
H13 H 0.2637 0.0321 0.4109
C9 C 0.0771(2) 0.1000(11) 0.4267(4)
C10 C 0.0850(3) 0.1412(12) 0.5278(3)
H14 H 0.0684 0.0026 0.5513
H15 H 0.0627 0.2877 0.5336
H16 H 0.1290 0.1601 0.5637
C11 C -0.0896(2) 0.2661(10) 0.2297(3)
C12 C -0.1291(2) 0.0416(11) 0.2087(4)
H17 H -0.1667 0.0700 0.2236
H18 H -0.1060 -0.0931 0.2459
H19 H -0.1404 0.0021 0.1428
loop_
_geom_bond_atom_site_label_1
_geom_bond_atom_site_label_2
_geom_bond_site_symmetry_1
_geom_bond_site_symmetry_2
S1 C6 1_555 1_555
N1 H1 1_555 1_555
N2 H2 1_555 1_555
N3 N2 1_555 1_555
H3 N3 1_555 1_555
H4 N3 1_555 1_555
O1 C1 1_555 1_555
O2 C2 1_555 1_555
O3 C7 1_555 1_555
O4 C3 1_555 1_555
O5 C9 1_555 1_555
O6 C4 1_555 1_555
O7 C11 1_555 1_555
C1 N1 1_555 1_555
H5 C1 1_555 1_555
C2 C1 1_555 1_555
H6 C2 1_555 1_555
C3 C2 1_555 1_555
H7 C3 1_555 1_555
C4 C3 1_555 1_555
H8 C4 1_555 1_555
C5 O1 1_555 1_555
H9 C5 1_555 1_555
H10 C5 1_555 1_555
C6 N1 1_555 1_555
C7 O2 1_555 1_555
C8 C7 1_555 1_555
H11 C8 1_555 1_555
H12 C8 1_555 1_555
H13 C8 1_555 1_555
C9 O4 1_555 1_555
C10 C9 1_555 1_555
H14 C10 1_555 1_555
H15 C10 1_555 1_555
H16 C10 1_555 1_555
C11 O6 1_555 1_555
C12 C11 1_555 1_555
H17 C12 1_555 1_555
H18 C12 1_555 1_555
H19 C12 1_555 1_555
N2 C6 1_555 1_555
C4 C5 1_555 1_555

#END
