
#######################################################################
#
#                 Cambridge Crystallographic Data Centre
#                                CCDC 
#
#######################################################################
#
# If this CIF has been generated from an entry in the Cambridge 
# Structural Database, then it will include bibliographic, chemical, 
# crystal, experimental, refinement or atomic coordinate data resulting 
# from the CCDC's data processing and validation procedures.
#
#######################################################################

data_ETIQIH
_chemical_formula_moiety         'C11 H14 N2 O2 S1'
_chemical_name_systematic        N-Ethoxycarbonyl-N'-(2-methylphenyl)thiourea
_symmetry_cell_setting           monoclinic
_symmetry_space_group_name_H-M   'P 21/n'
_symmetry_Int_Tables_number      14
_space_group_name_Hall           '-P 2yn'
loop_
_symmetry_equiv_pos_site_id
_symmetry_equiv_pos_as_xyz
1 x,y,z
2 1/2+x,1/2-y,1/2+z
3 -x,-y,-z
4 1/2-x,1/2+y,1/2-z
_cell_length_a                   7.3600(10)
_cell_length_b                   15.811(3)
_cell_length_c                   10.789(2)
_cell_angle_alpha                90
_cell_angle_beta                 103.820(10)
_cell_angle_gamma                90
_cell_volume                     1219.16
_exptl_crystal_colour            colorless
_exptl_crystal_description       block
_chemical_melting_point          '425 K'
_cell_formula_units_Z            4
_exptl_crystal_recrystallization_method ethanol
loop_
_atom_site_label
_atom_site_type_symbol
_atom_site_fract_x
_atom_site_fract_y
_atom_site_fract_z
S1 S 0.21626(10) 0.57872(5) 0.96085(6)
O1 O -0.1522(2) 0.48705(11) 0.58212(14)
O2 O -0.30556(19) 0.42783(9) 0.71735(12)
N1 N 0.1599(2) 0.56970(11) 0.70804(15)
H1 H 0.1004 0.5468 0.6377
N2 N -0.0412(2) 0.49301(11) 0.79946(15)
H2 H -0.0599 0.4712 0.8684
C1 C 0.0548(3) 0.71543(17) 0.5512(2)
H3 H 0.0278 0.6798 0.4770
H4 H 0.0397 0.7736 0.5252
H5 H -0.0296 0.7024 0.6039
C2 C 0.2533(3) 0.70065(14) 0.62556(19)
C3 C 0.3946(3) 0.75736(15) 0.6167(2)
H6 H 0.3645 0.8059 0.5674
C4 C 0.5779(3) 0.74288(16) 0.6796(2)
H7 H 0.6702 0.7814 0.6722
C5 C 0.6250(3) 0.67160(16) 0.7533(2)
H8 H 0.7491 0.6616 0.7950
C6 C 0.4871(3) 0.61468(14) 0.7652(2)
H9 H 0.5177 0.5668 0.8159
C7 C 0.3037(3) 0.62964(13) 0.70117(18)
C8 C 0.1113(3) 0.54664(13) 0.81432(19)
C9 C -0.1663(3) 0.47028(13) 0.68827(19)
C10 C -0.4615(3) 0.40406(18) 0.6137(2)
H10 H -0.4167 0.3722 0.5501
H11 H -0.5245 0.4543 0.5732
C11 C -0.5919(4) 0.3524(2) 0.6650(3)
H12 H -0.5340 0.2993 0.6945
H13 H -0.7032 0.3423 0.5992
H14 H -0.6239 0.3816 0.7348
loop_
_geom_bond_atom_site_label_1
_geom_bond_atom_site_label_2
_geom_bond_site_symmetry_1
_geom_bond_site_symmetry_2
S1 C8 1_555 1_555
O1 C9 1_555 1_555
O2 C9 1_555 1_555
N1 H1 1_555 1_555
N2 H2 1_555 1_555
C1 H3 1_555 1_555
H4 C1 1_555 1_555
H5 C1 1_555 1_555
C2 C1 1_555 1_555
C3 C2 1_555 1_555
H6 C3 1_555 1_555
C4 C3 1_555 1_555
H7 C4 1_555 1_555
C5 C4 1_555 1_555
H8 C5 1_555 1_555
C6 C5 1_555 1_555
H9 C6 1_555 1_555
C7 N1 1_555 1_555
C8 N1 1_555 1_555
C9 N2 1_555 1_555
C10 O2 1_555 1_555
H10 C10 1_555 1_555
H11 C10 1_555 1_555
C11 C10 1_555 1_555
H12 C11 1_555 1_555
H13 C11 1_555 1_555
H14 C11 1_555 1_555
N2 C8 1_555 1_555
C2 C7 1_555 1_555
C6 C7 1_555 1_555

#END
