
#######################################################################
#
#                 Cambridge Crystallographic Data Centre
#                                CCDC 
#
#######################################################################
#
# If this CIF has been generated from an entry in the Cambridge 
# Structural Database, then it will include bibliographic, chemical, 
# crystal, experimental, refinement or atomic coordinate data resulting 
# from the CCDC's data processing and validation procedures.
#
#######################################################################

data_ETISAB
_chemical_formula_moiety         'C10 H9 N1 O2 S1'
_chemical_name_systematic        3-Benzoylthiazolidin-2-one
_chemical_properties_biological  'fungicidal and insecticidal activity'
_symmetry_cell_setting           monoclinic
_symmetry_space_group_name_H-M   'P 21/n'
_symmetry_Int_Tables_number      14
_space_group_name_Hall           '-P 2yn'
loop_
_symmetry_equiv_pos_site_id
_symmetry_equiv_pos_as_xyz
1 x,y,z
2 1/2-x,1/2+y,1/2-z
3 -x,-y,-z
4 1/2+x,1/2-y,1/2+z
_cell_length_a                   11.2818(5)
_cell_length_b                   12.4987(6)
_cell_length_c                   13.8074(5)
_cell_angle_alpha                90
_cell_angle_beta                 91.2090(10)
_cell_angle_gamma                90
_cell_volume                     1946.52
_exptl_crystal_colour            colorless
_exptl_crystal_description       chunk
_chemical_melting_point          '394-395 K'
_cell_formula_units_Z            8
_exptl_crystal_recrystallization_method ethanol
loop_
_atom_site_label
_atom_site_type_symbol
_atom_site_fract_x
_atom_site_fract_y
_atom_site_fract_z
S1 S 0.16564(6) 0.14848(4) 0.48525(4)
O1 O 0.18910(10) 0.24220(10) 0.65576(8)
O2 O 0.15130(10) 0.52790(10) 0.52790(10)
N1 N 0.13280(10) 0.34840(10) 0.52510(10)
C1 C 0.1050(2) 0.2332(2) 0.39080(10)
C2 C 0.1442(2) 0.34420(10) 0.41940(10)
C3 C 0.16440(10) 0.25300(10) 0.57130(10)
C4 C 0.12560(10) 0.44700(10) 0.57130(10)
C5 C 0.07360(10) 0.45110(10) 0.66980(10)
C6 C -0.0242(2) 0.3899(2) 0.69210(10)
C7 C -0.0813(2) 0.4067(2) 0.7784(2)
C8 C -0.0404(2) 0.4825(2) 0.8425(2)
C9 C 0.0578(2) 0.5424(2) 0.8220(2)
C10 C 0.1140(2) 0.5283(2) 0.73500(10)
H1 H 0.0200 0.2289 0.3892
H2 H 0.1347 0.2132 0.3287
H3 H 0.2251 0.3552 0.4016
H4 H 0.0949 0.3976 0.3891
H5 H -0.0518 0.3361 0.6474
H6 H -0.1501 0.3653 0.7936
H7 H -0.0805 0.4940 0.9023
H8 H 0.0874 0.5943 0.8677
H9 H 0.1816 0.5710 0.7191
S2 S 0.76691(6) 0.17154(5) 0.49559(4)
O3 O 0.69250(10) 0.24760(10) 0.66073(9)
O4 O 0.40920(10) 0.3656(2) 0.51680(10)
N2 N 0.59810(10) 0.30850(10) 0.52116(9)
C11 C 0.7048(2) 0.2350(2) 0.38950(10)
C12 C 0.5877(2) 0.2803(2) 0.41880(10)
C13 C 0.6808(2) 0.24980(10) 0.57420(10)
C14 C 0.5022(2) 0.36230(10) 0.56190(10)
C15 C 0.51870(10) 0.41970(10) 0.65490(10)
C16 C 0.4225(2) 0.4274(2) 0.71550(10)
C17 C 0.4311(2) 0.4887(2) 0.79800(10)
C18 C 0.5338(2) 0.5438(2) 0.81920(10)
C19 C 0.6294(2) 0.5368(2) 0.75920(10)
C20 C 0.62260(10) 0.47400(10) 0.67710(10)
H10 H 0.6949 0.1838 0.3382
H11 H 0.7558 0.2917 0.3688
H12 H 0.5683 0.3427 0.3811
H13 H 0.5268 0.2274 0.4094
H14 H 0.3504 0.3901 0.6992
H15 H 0.3653 0.4927 0.8408
H16 H 0.5389 0.5873 0.8764
H17 H 0.7007 0.5758 0.7743
H18 H 0.6893 0.4672 0.6356
loop_
_geom_bond_atom_site_label_1
_geom_bond_atom_site_label_2
_geom_bond_site_symmetry_1
_geom_bond_site_symmetry_2
S1 C1 1_555 1_555
O1 C3 1_555 1_555
O2 C4 1_555 1_555
N1 C2 1_555 1_555
C1 C2 1_555 1_555
C2 H3 1_555 1_555
C3 S1 1_555 1_555
C4 N1 1_555 1_555
C5 C4 1_555 1_555
C6 C5 1_555 1_555
C7 C6 1_555 1_555
C8 C7 1_555 1_555
C9 C8 1_555 1_555
C10 C5 1_555 1_555
H1 C1 1_555 1_555
H2 C1 1_555 1_555
H4 C2 1_555 1_555
H5 C6 1_555 1_555
H6 C7 1_555 1_555
H7 C8 1_555 1_555
H8 C9 1_555 1_555
H9 C10 1_555 1_555
S2 C11 1_555 1_555
O3 C13 1_555 1_555
O4 C14 1_555 1_555
N2 C12 1_555 1_555
C11 C12 1_555 1_555
C12 H12 1_555 1_555
C13 S2 1_555 1_555
C14 N2 1_555 1_555
C15 C14 1_555 1_555
C16 C15 1_555 1_555
C17 C16 1_555 1_555
C18 C17 1_555 1_555
C19 C18 1_555 1_555
C20 C15 1_555 1_555
H10 C11 1_555 1_555
H11 C11 1_555 1_555
H13 C12 1_555 1_555
H14 C16 1_555 1_555
H15 C17 1_555 1_555
H16 C18 1_555 1_555
H17 C19 1_555 1_555
H18 C20 1_555 1_555
N1 C3 1_555 1_555
C9 C10 1_555 1_555
N2 C13 1_555 1_555
C19 C20 1_555 1_555

#END
