
#######################################################################
#
#                 Cambridge Crystallographic Data Centre
#                                CCDC 
#
#######################################################################
#
# If this CIF has been generated from an entry in the Cambridge 
# Structural Database, then it will include bibliographic, chemical, 
# crystal, experimental, refinement or atomic coordinate data resulting 
# from the CCDC's data processing and validation procedures.
#
#######################################################################

data_ETIXOU
_chemical_formula_moiety         'C9 H9 N3 O3'
_chemical_name_systematic        '3,4-Methylenedioxybenzaldehyde semicarbazone'
_symmetry_cell_setting           monoclinic
_symmetry_space_group_name_H-M   'P 21/c'
_symmetry_Int_Tables_number      14
_space_group_name_Hall           '-P 2ybc'
loop_
_symmetry_equiv_pos_site_id
_symmetry_equiv_pos_as_xyz
1 x,y,z
2 x,1/2-y,1/2+z
3 -x,-y,-z
4 -x,1/2+y,1/2-z
_cell_length_a                   17.698(7)
_cell_length_b                   4.475(2)
_cell_length_c                   12.084(5)
_cell_angle_alpha                90
_cell_angle_beta                 101.353(6)
_cell_angle_gamma                90
_cell_volume                     938.309
_exptl_crystal_colour            pink
_exptl_crystal_description       prism
_cell_formula_units_Z            4
_exptl_crystal_recrystallization_method DMSO
loop_
_atom_site_label
_atom_site_type_symbol
_atom_site_fract_x
_atom_site_fract_y
_atom_site_fract_z
O1 O 0.49013(6) 0.2965(3) -0.13497(9)
O2 O 0.93936(8) -0.2911(4) 0.43700(12)
O3 O 0.91425(7) -0.4054(4) 0.24658(11)
N1 N 0.57967(9) -0.0693(4) -0.13051(13)
H1 H 0.5544(11) -0.143(4) -0.1969(18)
H2 H 0.6194(12) -0.164(5) -0.0861(17)
N2 N 0.58712(8) 0.2665(4) 0.01553(12)
H3 H 0.5649(10) 0.409(4) 0.0528(16)
N3 N 0.65177(7) 0.1193(3) 0.07217(11)
C1 C 0.54933(9) 0.1651(4) -0.08670(13)
C2 C 0.67542(10) 0.1998(5) 0.17424(14)
H4 H 0.6513(10) 0.349(4) 0.2064(16)
C3 C 0.74433(9) 0.0718(4) 0.24503(13)
C4 C 0.76112(11) 0.1410(5) 0.35905(15)
H5 H 0.7305(9) 0.271(4) 0.3859(15)
C5 C 0.82591(11) 0.0284(5) 0.43159(15)
H6 H 0.8387(10) 0.082(4) 0.5104(17)
C6 C 0.87233(10) -0.1538(4) 0.38466(15)
C7 C 0.85703(10) -0.2223(4) 0.27113(15)
C8 C 0.79397(10) -0.1158(4) 0.19878(15)
H7 H 0.7839(9) -0.170(4) 0.1183(16)
C9 C 0.96719(13) -0.4488(7) 0.35096(19)
H8 H 0.9714(13) -0.655(6) 0.371(2)
H9 H 1.0170(13) -0.362(5) 0.3440(19)
loop_
_geom_bond_atom_site_label_1
_geom_bond_atom_site_label_2
_geom_bond_site_symmetry_1
_geom_bond_site_symmetry_2
O1 C1 1_555 1_555
O2 C6 1_555 1_555
O3 C7 1_555 1_555
N1 H1 1_555 1_555
H2 N1 1_555 1_555
N2 H3 1_555 1_555
N3 N2 1_555 1_555
C1 N1 1_555 1_555
C2 N3 1_555 1_555
H4 C2 1_555 1_555
C3 C2 1_555 1_555
C4 C3 1_555 1_555
H5 C4 1_555 1_555
C5 C4 1_555 1_555
H6 C5 1_555 1_555
C6 C5 1_555 1_555
C7 C6 1_555 1_555
C8 C3 1_555 1_555
H7 C8 1_555 1_555
C9 O2 1_555 1_555
H8 C9 1_555 1_555
H9 C9 1_555 1_555
O3 C9 1_555 1_555
N2 C1 1_555 1_555
C7 C8 1_555 1_555

#END
