
#######################################################################
#
#                 Cambridge Crystallographic Data Centre
#                                CCDC 
#
#######################################################################
#
# If this CIF has been generated from an entry in the Cambridge 
# Structural Database, then it will include bibliographic, chemical, 
# crystal, experimental, refinement or atomic coordinate data resulting 
# from the CCDC's data processing and validation procedures.
#
#######################################################################

data_ETIYOW
_chemical_formula_moiety         'C25 H28 N4 O5'
_chemical_name_systematic        
'Dimethyl 12-oxo-7-(pyridin-2-yl)-10-(pyridin-2-ylmethyl)-6,10-diazatricyclo[6.3.1.0^2,6^]dodecane-1,8-dicarboxylate'
_symmetry_cell_setting           triclinic
_symmetry_space_group_name_H-M   'P -1'
_symmetry_Int_Tables_number      2
_space_group_name_Hall           '-P 1'
loop_
_symmetry_equiv_pos_site_id
_symmetry_equiv_pos_as_xyz
1 x,y,z
2 -x,-y,-z
_cell_length_a                   8.9918(6)
_cell_length_b                   10.6249(6)
_cell_length_c                   12.8249(6)
_cell_angle_alpha                90.3080(10)
_cell_angle_beta                 102.0400(10)
_cell_angle_gamma                110.1380(10)
_cell_volume                     1121.06
_exptl_crystal_colour            colorless
_exptl_crystal_description       irregular
_cell_formula_units_Z            2
loop_
_atom_site_label
_atom_site_type_symbol
_atom_site_fract_x
_atom_site_fract_y
_atom_site_fract_z
C1 C 0.80964(11) 0.19550(10) 0.38027(7)
C2 C 0.70465(11) 0.27604(9) 0.32998(7)
C3 C 0.67593(10) 0.25517(9) 0.20799(7)
C4 C 0.56294(11) 0.32533(9) 0.15186(7)
C5 C 0.53634(11) 0.29739(9) 0.03119(7)
C6 C 0.40434(14) 0.13482(11) -0.11517(8)
H1 H 0.375(2) 0.2043(16) -0.1590(13)
H2 H 0.316(2) 0.0490(17) -0.1297(13)
H3 H 0.503(2) 0.1256(17) -0.1292(13)
C7 C 0.65033(11) 0.47666(9) 0.18812(7)
H4 H 0.6694(17) 0.5252(14) 0.1266(11)
H5 H 0.5823(17) 0.5090(14) 0.2232(11)
C8 C 0.89844(13) 0.64255(10) 0.28716(8)
H6 H 0.9907(18) 0.6525(15) 0.3476(12)
H7 H 0.8297(18) 0.6895(15) 0.3138(11)
C9 C 0.96577(11) 0.71403(9) 0.19670(7)
C10 C 1.06012(13) 0.91475(11) 0.12391(9)
H8 H 1.0740(19) 1.0118(16) 0.1271(12)
C11 C 1.11587(12) 0.85954(11) 0.04931(9)
H9 H 1.1715(19) 0.9167(15) -0.0019(12)
C12 C 1.08992(12) 0.72302(11) 0.04748(8)
H10 H 1.1251(19) 0.6797(15) -0.0069(12)
C13 C 0.79220(12) 0.42961(10) 0.35776(7)
H11 H 0.7324(17) 0.4638(14) 0.3986(11)
H12 H 0.9003(17) 0.4460(14) 0.3995(11)
C14 C 0.40305(11) 0.26067(9) 0.18963(7)
H13 H 0.3641(16) 0.1599(13) 0.1716(10)
C15 C 0.53723(10) 0.22384(9) 0.36485(7)
H14 H 0.4898(16) 0.1237(13) 0.3479(10)
C16 C 0.56577(11) 0.25261(9) 0.48509(7)
C17 C 0.58652(14) 0.39345(11) 0.63277(8)
H15 H 0.5773(19) 0.4759(16) 0.6575(12)
C18 C 0.63113(12) 0.30676(10) 0.70217(7)
H16 H 0.6501(17) 0.3250(14) 0.7755(11)
C19 C 0.64034(13) 0.19124(11) 0.65824(8)
H17 H 0.6692(18) 0.1273(15) 0.7049(12)
C20 C 0.26446(12) 0.23898(11) 0.32496(8)
H18 H 0.2673(18) 0.2791(15) 0.3952(12)
H19 H 0.2224(18) 0.1371(15) 0.3264(11)
C21 C 0.16331(12) 0.28373(11) 0.23029(8)
H20 H 0.1440(18) 0.3644(15) 0.2529(12)
H21 H 0.0555(18) 0.2148(14) 0.2039(12)
C22 C 0.26604(12) 0.31232(11) 0.14455(8)
H22 H 0.2076(18) 0.2668(14) 0.0748(11)
H23 H 0.3087(18) 0.4101(14) 0.1366(11)
C23 C 0.80953(15) -0.02475(12) 0.40312(10)
H24 H 0.896(2) -0.0207(17) 0.3667(13)
H25 H 0.726(2) -0.1176(17) 0.3888(13)
H26 H 0.849(2) -0.0024(17) 0.4803(14)
N1 N 0.80924(10) 0.49855(8) 0.25960(6)
N2 N 0.43038(9) 0.28829(8) 0.30534(6)
O1 O 0.72609(9) 0.06357(7) 0.35837(6)
O2 O 0.94716(9) 0.24281(9) 0.43158(6)
O3 O 0.73682(9) 0.19298(7) 0.16213(5)
O4 O 0.42924(9) 0.17435(7) -0.00272(5)
O5 O 0.60483(9) 0.37506(7) -0.02633(6)
N3 N 0.55525(13) 0.36723(9) 0.52466(7)
C24 C 0.60764(12) 0.16324(10) 0.54986(7)
H27 H 0.6140 0.0835 0.5205
N4 N 0.98618(11) 0.84534(9) 0.19733(7)
C25 C 1.01295(12) 0.64887(10) 0.12202(8)
H28 H 0.9927 0.5550 0.1222
C26? C 0.55525(13) 0.36723(9) 0.52466(7)
H29? H 0.5265 0.4282 0.4778
N5? N 0.60764(12) 0.16324(10) 0.54986(7)
loop_
_geom_bond_atom_site_label_1
_geom_bond_atom_site_label_2
_geom_bond_site_symmetry_1
_geom_bond_site_symmetry_2
C1 C2 1_555 1_555
C2 C3 1_555 1_555
C3 C4 1_555 1_555
C4 C5 1_555 1_555
C5 O4 1_555 1_555
C6 H1 1_555 1_555
H2 C6 1_555 1_555
H3 C6 1_555 1_555
C7 C4 1_555 1_555
H4 C7 1_555 1_555
H5 C7 1_555 1_555
C8 H6 1_555 1_555
H7 C8 1_555 1_555
C9 C8 1_555 1_555
C10 H8 1_555 1_555
C11 C10 1_555 1_555
H9 C11 1_555 1_555
C12 C11 1_555 1_555
H10 C12 1_555 1_555
C13 C2 1_555 1_555
H11 C13 1_555 1_555
H12 C13 1_555 1_555
C14 C4 1_555 1_555
H13 C14 1_555 1_555
C15 C2 1_555 1_555
H14 C15 1_555 1_555
C16 C15 1_555 1_555
C17 H15 1_555 1_555
C18 C17 1_555 1_555
H16 C18 1_555 1_555
C19 C18 1_555 1_555
H17 C19 1_555 1_555
C20 H18 1_555 1_555
H19 C20 1_555 1_555
C21 C20 1_555 1_555
H20 C21 1_555 1_555
H21 C21 1_555 1_555
C22 C14 1_555 1_555
H22 C22 1_555 1_555
H23 C22 1_555 1_555
C23 H24 1_555 1_555
H25 C23 1_555 1_555
H26 C23 1_555 1_555
N1 C7 1_555 1_555
N2 C14 1_555 1_555
O1 C1 1_555 1_555
O2 C1 1_555 1_555
O3 C3 1_555 1_555
O4 C6 1_555 1_555
O5 C5 1_555 1_555
N3 C16 1_555 1_555
C24 C16 1_555 1_555
H27 C24 1_555 1_555
N4 C9 1_555 1_555
C25 C9 1_555 1_555
H28 C25 1_555 1_555
C8 N1 1_555 1_555
C10 N4 1_555 1_555
C12 C25 1_555 1_555
C13 N1 1_555 1_555
C15 N2 1_555 1_555
C17 N3 1_555 1_555
C19 C24 1_555 1_555
C20 N2 1_555 1_555
C21 C22 1_555 1_555
C23 O1 1_555 1_555

#END
