
#######################################################################
#
#                 Cambridge Crystallographic Data Centre
#                                CCDC 
#
#######################################################################
#
# If this CIF has been generated from an entry in the Cambridge 
# Structural Database, then it will include bibliographic, chemical, 
# crystal, experimental, refinement or atomic coordinate data resulting 
# from the CCDC's data processing and validation procedures.
#
#######################################################################

data_ETIZAI
_chemical_formula_moiety         'C28 H32 N2 O7'
_chemical_name_systematic        
"4'-Acetylbenzo-15-crown-5 2-naphthyloxyacetylhydrazone"
_symmetry_cell_setting           monoclinic
_symmetry_space_group_name_H-M   'P 21/c'
_symmetry_Int_Tables_number      14
_space_group_name_Hall           '-P 2ybc'
loop_
_symmetry_equiv_pos_site_id
_symmetry_equiv_pos_as_xyz
1 x,y,z
2 x,1/2-y,1/2+z
3 -x,-y,-z
4 -x,1/2+y,1/2-z
_cell_length_a                   8.808(3)
_cell_length_b                   24.579(7)
_cell_length_c                   11.984(4)
_cell_angle_alpha                90
_cell_angle_beta                 97.248(6)
_cell_angle_gamma                90
_cell_volume                     2573.71
_exptl_crystal_colour            colorless
_exptl_crystal_description       block
_cell_formula_units_Z            4
_exptl_crystal_recrystallization_method 'DMF/ethyl acetate'
loop_
_atom_site_label
_atom_site_type_symbol
_atom_site_fract_x
_atom_site_fract_y
_atom_site_fract_z
N1 N 0.4595(2) 0.87764(9) 0.61312(18)
N2 N 0.5024(3) 0.92519(9) 0.56379(19)
H1 H 0.4741 0.9563 0.5867
O1 O 0.2403(2) 0.67657(7) 0.87079(15)
O2 O 0.4118(2) 0.68012(7) 0.71573(15)
O3 O 0.0090(2) 0.59705(9) 0.84484(18)
O4 O 0.6206(3) 0.96288(8) 0.42773(18)
O5 O 0.7447(2) 0.84584(8) 0.54020(15)
C1 C 0.2699(3) 0.72754(11) 0.8346(2)
C2 C 0.2156(3) 0.77513(12) 0.8747(2)
H2 H 0.1543 0.7740 0.9325
C3 C 0.2511(3) 0.82472(12) 0.8300(2)
H3 H 0.2136 0.8565 0.8584
C4 C 0.3416(3) 0.82782(11) 0.7436(2)
C5 C 0.3961(3) 0.77870(11) 0.7031(2)
H4 H 0.4562 0.7798 0.6447
C6 C 0.3628(3) 0.72958(11) 0.7473(2)
C7 C 0.4995(3) 0.67722(11) 0.6235(2)
H5 H 0.5969 0.6956 0.6420
H6 H 0.4447 0.6943 0.5574
O6 O 0.3939(10) 0.5915(3) 0.5503(7)
O7 O 0.1672(10) 0.5119(3) 0.7134(8)
C8 C 0.5241(4) 0.61800(14) 0.6020(3)
H7 H 0.6052 0.6144 0.5548
H8 H 0.5578 0.6002 0.6731
C9 C 0.3407(15) 0.5466(4) 0.5997(9)
H9 H 0.4237 0.5205 0.6110
H10 H 0.2609 0.5306 0.5465
C10 C 0.2793(10) 0.5530(3) 0.7068(6)
H11 H 0.3608 0.5494 0.7689
H12 H 0.2335 0.5887 0.7110
C11 C 0.1223(13) 0.5080(5) 0.8233(11)
H13 H 0.2051 0.5206 0.8783
H14 H 0.1022 0.4702 0.8398
C12 C -0.0157(5) 0.54054(16) 0.8327(3)
H15 H -0.0884 0.5343 0.7662
H16 H -0.0621 0.5276 0.8970
C18 C 0.0872(3) 0.61291(12) 0.9502(2)
H27 H 0.1804 0.5918 0.9671
H28 H 0.0232 0.6065 1.0091
C19 C 0.1244(3) 0.67139(11) 0.9446(2)
H29 H 0.0341 0.6920 0.9156
H30 H 0.1620 0.6850 1.0189
C20 C 0.3820(3) 0.88045(11) 0.6963(2)
C21 C 0.3321(5) 0.93209(13) 0.7475(3)
H31 H 0.4205 0.9534 0.7746
H32 H 0.2762 0.9235 0.8090
H33 H 0.2678 0.9524 0.6917
C22 C 0.5892(3) 0.92188(12) 0.4796(2)
C23 C 0.6418(3) 0.86648(11) 0.4488(2)
H34 H 0.5546 0.8423 0.4332
H35 H 0.6928 0.8688 0.3818
C24 C 0.7862(3) 0.79206(12) 0.5345(2)
C25 C 0.8863(3) 0.77351(14) 0.6275(2)
H36 H 0.9182 0.7971 0.6865
C26 C 0.9361(3) 0.72145(15) 0.6311(2)
H37 H 1.0010 0.7096 0.6937
C27 C 0.8928(3) 0.68475(13) 0.5431(2)
C28 C 0.9453(4) 0.63017(15) 0.5432(3)
H38 H 1.0104 0.6171 0.6045
C29 C 0.9018(4) 0.59705(15) 0.4555(4)
H39 H 0.9384 0.5615 0.4561
C30 C 0.8027(4) 0.61562(14) 0.3641(3)
H40 H 0.7725 0.5922 0.3044
C31 C 0.7496(3) 0.66718(12) 0.3608(2)
H41 H 0.6832 0.6788 0.2988
C32 C 0.7929(3) 0.70370(12) 0.4497(2)
C33 C 0.7397(3) 0.75777(11) 0.4474(2)
H42 H 0.6728 0.7701 0.3864
O8? O 0.3702(10) 0.5974(4) 0.5629(11)
O9? O 0.1625(10) 0.5331(4) 0.6952(9)
C13? C 0.5241(4) 0.61800(14) 0.6020(3)
H17? H 0.5919 0.6131 0.5450
H18? H 0.5674 0.5996 0.6704
C14? C 0.354(2) 0.5413(5) 0.5723(13)
H19? H 0.4475 0.5237 0.5565
H20? H 0.2718 0.5291 0.5163
C15? C 0.3198(11) 0.5240(6) 0.6861(10)
H21? H 0.3438 0.4857 0.6974
H22? H 0.3827 0.5446 0.7435
C16? C 0.115(2) 0.5111(7) 0.7949(17)
H23? H 0.2006 0.5121 0.8544
H24? H 0.0867 0.4733 0.7817
C17? C -0.0157(5) 0.54054(16) 0.8327(3)
H25? H -0.1058 0.5344 0.7788
H26? H -0.0359 0.5257 0.9044
loop_
_geom_bond_atom_site_label_1
_geom_bond_atom_site_label_2
_geom_bond_site_symmetry_1
_geom_bond_site_symmetry_2
N1 N2 1_555 1_555
N2 H1 1_555 1_555
O1 C1 1_555 1_555
O2 C6 1_555 1_555
O3 C12 1_555 1_555
O4 C22 1_555 1_555
O5 C23 1_555 1_555
C1 C2 1_555 1_555
C2 H2 1_555 1_555
C3 C2 1_555 1_555
H3 C3 1_555 1_555
C4 C3 1_555 1_555
C5 C4 1_555 1_555
H4 C5 1_555 1_555
C6 C1 1_555 1_555
C7 O2 1_555 1_555
H5 C7 1_555 1_555
H6 C7 1_555 1_555
O6 C8 1_555 1_555
O7 C10 1_555 1_555
C8 C7 1_555 1_555
H7 C8 1_555 1_555
H8 C8 1_555 1_555
C9 O6 1_555 1_555
H9 C9 1_555 1_555
H10 C9 1_555 1_555
C10 C9 1_555 1_555
H11 C10 1_555 1_555
H12 C10 1_555 1_555
C11 O7 1_555 1_555
H13 C11 1_555 1_555
H14 C11 1_555 1_555
C12 C11 1_555 1_555
H15 C12 1_555 1_555
H16 C12 1_555 1_555
C18 O3 1_555 1_555
H27 C18 1_555 1_555
H28 C18 1_555 1_555
C19 O1 1_555 1_555
H29 C19 1_555 1_555
H30 C19 1_555 1_555
C20 N1 1_555 1_555
C21 C20 1_555 1_555
H31 C21 1_555 1_555
H32 C21 1_555 1_555
H33 C21 1_555 1_555
C22 N2 1_555 1_555
C23 C22 1_555 1_555
H34 C23 1_555 1_555
H35 C23 1_555 1_555
C24 O5 1_555 1_555
C25 C24 1_555 1_555
H36 C25 1_555 1_555
C26 C25 1_555 1_555
H37 C26 1_555 1_555
C27 C26 1_555 1_555
C28 C27 1_555 1_555
H38 C28 1_555 1_555
C29 C28 1_555 1_555
H39 C29 1_555 1_555
C30 C29 1_555 1_555
H40 C30 1_555 1_555
C31 C30 1_555 1_555
H41 C31 1_555 1_555
C32 C27 1_555 1_555
C33 C24 1_555 1_555
H42 C33 1_555 1_555
C4 C20 1_555 1_555
C5 C6 1_555 1_555
C18 C19 1_555 1_555
C31 C32 1_555 1_555
C32 C33 1_555 1_555

#END
