
#######################################################################
#
#                 Cambridge Crystallographic Data Centre
#                                CCDC 
#
#######################################################################
#
# If this CIF has been generated from an entry in the Cambridge 
# Structural Database, then it will include bibliographic, chemical, 
# crystal, experimental, refinement or atomic coordinate data resulting 
# from the CCDC's data processing and validation procedures.
#
#######################################################################

data_ETOJOM
_chemical_formula_moiety         'C21 H30 N2 O6 S2'
_chemical_name_systematic        
1,3-bis((2,4,6-Trimethylbenzenesulfonyl)aminooxy)propane
_symmetry_cell_setting           triclinic
_symmetry_space_group_name_H-M   'P -1'
_symmetry_Int_Tables_number      2
_space_group_name_Hall           '-P 1'
loop_
_symmetry_equiv_pos_site_id
_symmetry_equiv_pos_as_xyz
1 x,y,z
2 -x,-y,-z
_cell_length_a                   5.16890(10)
_cell_length_b                   14.3184(3)
_cell_length_c                   16.1506(4)
_cell_angle_alpha                98.1210(10)
_cell_angle_beta                 97.9630(10)
_cell_angle_gamma                99.0330(10)
_cell_volume                     1152.75
_exptl_crystal_colour            colorless
_exptl_crystal_description       plate
_chemical_melting_point          '433-435 K'
_cell_formula_units_Z            2
_exptl_crystal_recrystallization_method toluene
loop_
_atom_site_label
_atom_site_type_symbol
_atom_site_fract_x
_atom_site_fract_y
_atom_site_fract_z
S1 S 0.85265(7) 0.33140(3) 0.37549(3)
S2 S -0.02530(8) -0.19875(3) 0.03182(3)
O1 O 0.5459(2) 0.19945(8) 0.27042(7)
O2 O 0.2761(2) -0.08003(8) 0.14769(7)
O3 O 1.0708(2) 0.30210(9) 0.33938(8)
O4 O 0.8622(2) 0.43108(8) 0.40360(8)
O5 O -0.2415(2) -0.15825(11) 0.05907(9)
O6 O -0.0360(2) -0.22995(10) -0.05667(7)
N1 N 0.5919(3) 0.30065(9) 0.29826(8)
N2 N 0.2397(3) -0.11135(10) 0.05820(8)
C1 C 0.5935(3) 0.18220(13) 0.18398(10)
C2 C 0.5625(3) 0.07488(12) 0.15877(11)
C3 C 0.2883(3) 0.02237(12) 0.16410(11)
C4 C 0.7853(3) 0.26306(11) 0.45642(10)
C5 C 0.8647(3) 0.17290(12) 0.45564(10)
C6 C 0.7896(3) 0.11977(13) 0.51748(11)
C7 C 0.6440(4) 0.15177(13) 0.57808(10)
C8 C 0.5731(4) 0.24092(12) 0.57715(10)
C9 C 0.6368(3) 0.29795(11) 0.51732(10)
C10 C 1.0236(4) 0.12821(13) 0.39445(11)
C11 C 0.5638(5) 0.09204(15) 0.64319(12)
C12 C 0.5406(4) 0.39231(12) 0.52293(11)
C13 C 0.0403(3) -0.29131(12) 0.08973(10)
C14 C 0.1885(4) -0.35811(12) 0.05656(11)
C15 C 0.2503(5) -0.42710(14) 0.10469(13)
C16 C 0.1755(5) -0.43231(14) 0.18327(12)
C17 C 0.0322(4) -0.36523(14) 0.21412(11)
C18 C -0.0385(3) -0.29359(13) 0.16987(11)
C19 C 0.2894(5) -0.36079(15) -0.02729(13)
C20 C 0.2533(7) -0.50753(18) 0.23351(16)
C21 C -0.1947(4) -0.22545(17) 0.21237(13)
H1 H 0.4406 0.3153 0.3193
H2 H 0.3877 -0.1375 0.0464
H3 H 0.7748 0.2139 0.1800
H4 H 0.4640 0.2077 0.1462
H5 H 0.6967 0.0511 0.1963
H6 H 0.5970 0.0603 0.1000
H7 H 0.2456 0.0414 0.2213
H8 H 0.1547 0.0406 0.1222
H9 H 0.8408 0.0589 0.5180
H10 H 0.4767 0.2642 0.6192
H11 H 1.2078 0.1625 0.4071
H12 H 0.9468 0.1322 0.3364
H13 H 1.0196 0.0608 0.4001
H14 H 0.6564 0.1237 0.6997
H15 H 0.6113 0.0286 0.6303
H16 H 0.3716 0.0851 0.6419
H17 H 0.4166 0.3948 0.5636
H18 H 0.4502 0.3986 0.4670
H19 H 0.6924 0.4450 0.5418
H20 H 0.3486 -0.4729 0.0827
H21 H -0.0207 -0.3680 0.2679
H22 H 0.4079 -0.4077 -0.0318
H23 H 0.3868 -0.2972 -0.0303
H24 H 0.1387 -0.3792 -0.0739
H25 H 0.4399 -0.4884 0.2603
H26 H 0.2293 -0.5691 0.1955
H27 H 0.1414 -0.5139 0.2774
H28 H -0.3794 -0.2396 0.1833
H29 H -0.1164 -0.1593 0.2095
H30 H -0.1898 -0.2333 0.2718
loop_
_geom_bond_atom_site_label_1
_geom_bond_atom_site_label_2
_geom_bond_site_symmetry_1
_geom_bond_site_symmetry_2
S1 O3 1_555 1_555
S2 O5 1_555 1_555
O1 N1 1_555 1_555
O2 N2 1_555 1_555
O4 S1 1_555 1_555
O6 S2 1_555 1_555
N1 S1 1_555 1_555
N2 S2 1_555 1_555
C1 O1 1_555 1_555
C2 C1 1_555 1_555
C3 O2 1_555 1_555
C4 S1 1_555 1_555
C5 C4 1_555 1_555
C6 C5 1_555 1_555
C7 C6 1_555 1_555
C8 C7 1_555 1_555
C9 C4 1_555 1_555
C10 C5 1_555 1_555
C11 C7 1_555 1_555
C12 C9 1_555 1_555
C13 S2 1_555 1_555
C14 C13 1_555 1_555
C15 C14 1_555 1_555
C16 C15 1_555 1_555
C17 C16 1_555 1_555
C18 C13 1_555 1_555
C19 C14 1_555 1_555
C20 C16 1_555 1_555
C21 C18 1_555 1_555
H1 N1 1_555 1_555
H2 N2 1_555 1_555
H3 C1 1_555 1_555
H4 C1 1_555 1_555
H5 C2 1_555 1_555
H6 C2 1_555 1_555
H7 C3 1_555 1_555
H8 C3 1_555 1_555
H9 C6 1_555 1_555
H10 C8 1_555 1_555
H11 C10 1_555 1_555
H12 C10 1_555 1_555
H13 C10 1_555 1_555
H14 C11 1_555 1_555
H15 C11 1_555 1_555
H16 C11 1_555 1_555
H17 C12 1_555 1_555
H18 C12 1_555 1_555
H19 C12 1_555 1_555
H20 C15 1_555 1_555
H21 C17 1_555 1_555
H22 C19 1_555 1_555
H23 C19 1_555 1_555
H24 C19 1_555 1_555
H25 C20 1_555 1_555
H26 C20 1_555 1_555
H27 C20 1_555 1_555
H28 C21 1_555 1_555
H29 C21 1_555 1_555
H30 C21 1_555 1_555
C2 C3 1_555 1_555
C8 C9 1_555 1_555
C17 C18 1_555 1_555

#END
