
#######################################################################
#
#                 Cambridge Crystallographic Data Centre
#                                CCDC 
#
#######################################################################
#
# If this CIF has been generated from an entry in the Cambridge 
# Structural Database, then it will include bibliographic, chemical, 
# crystal, experimental, refinement or atomic coordinate data resulting 
# from the CCDC's data processing and validation procedures.
#
#######################################################################

data_ETOLOO
_chemical_formula_moiety         'C23 H18 O3 S3'
_chemical_name_systematic        
'2,3-bis((4-Methylphenyl)sulfanyl)-4H-1-benzothiapyran-4-one 1,1-dioxide'
_symmetry_cell_setting           monoclinic
_symmetry_space_group_name_H-M   'P 21/c'
_symmetry_Int_Tables_number      14
_space_group_name_Hall           '-P 2ybc'
loop_
_symmetry_equiv_pos_site_id
_symmetry_equiv_pos_as_xyz
1 x,y,z
2 x,1/2-y,1/2+z
3 -x,-y,-z
4 -x,1/2+y,1/2-z
_cell_length_a                   9.6349(3)
_cell_length_b                   22.5791(7)
_cell_length_c                   9.1895(4)
_cell_angle_alpha                90
_cell_angle_beta                 91.253(2)
_cell_angle_gamma                90
_cell_volume                     1998.67
_exptl_crystal_colour            orange
_exptl_crystal_description       block
_chemical_melting_point          '432-434 K'
_cell_formula_units_Z            4
_exptl_crystal_recrystallization_method ethanol
loop_
_atom_site_label
_atom_site_type_symbol
_atom_site_fract_x
_atom_site_fract_y
_atom_site_fract_z
S1 S 0.10208(6) 0.27529(2) 0.70282(7)
S2 S 0.13922(6) 0.08214(2) 0.68332(7)
S3 S 0.32554(6) 0.19732(3) 0.79040(7)
O1 O 0.11720(15) 0.30057(7) 0.84572(18)
O2 O 0.17223(16) 0.30414(7) 0.58686(19)
O3 O -0.10696(15) 0.12330(6) 0.51304(18)
C1 C -0.0756(2) 0.27169(9) 0.6587(3)
C2 C -0.1518(2) 0.32310(10) 0.6758(3)
C3 C -0.2905(2) 0.32394(10) 0.6330(3)
C4 C -0.3504(2) 0.27408(10) 0.5710(3)
C5 C -0.2743(2) 0.22280(10) 0.5535(3)
C6 C -0.1351(2) 0.22067(10) 0.5987(3)
C7 C -0.0597(2) 0.16342(10) 0.5866(3)
C8 C 0.0763(2) 0.15497(9) 0.6694(3)
C9 C 0.1564(2) 0.20056(10) 0.7156(3)
C10 C -0.0051(2) 0.04489(10) 0.7584(3)
C11 C -0.0710(2) 0.06696(10) 0.8804(3)
C12 C -0.1755(3) 0.03432(10) 0.9435(3)
C13 C -0.2159(2) -0.02075(10) 0.8883(3)
C14 C -0.1481(2) -0.04205(10) 0.7681(3)
C15 C -0.0441(2) -0.00996(9) 0.7019(3)
C16 C -0.3309(2) -0.05497(11) 0.9582(3)
C17 C 0.4161(2) 0.15200(10) 0.6649(3)
C18 C 0.3887(2) 0.15339(10) 0.5171(3)
C19 C 0.4637(2) 0.11650(10) 0.4260(3)
C20 C 0.5672(2) 0.07933(9) 0.4805(3)
C21 C 0.5950(2) 0.07985(10) 0.6290(3)
C22 C 0.5194(2) 0.11533(10) 0.7220(3)
C23 C 0.6488(2) 0.04015(10) 0.3807(3)
H1 H -0.1093 0.3575 0.7165
H2 H -0.3443 0.3587 0.6462
H3 H -0.4450 0.2751 0.5400
H4 H -0.3168 0.1889 0.5106
H5 H -0.0444 0.1042 0.9202
H6 H -0.2207 0.0498 1.0261
H7 H -0.1734 -0.0797 0.7297
H8 H 0.0002 -0.0253 0.6187
H9 H -0.4202 -0.0432 0.9142
H10 H -0.3308 -0.0465 1.0628
H11 H -0.3163 -0.0975 0.9431
H12 H 0.3195 0.1792 0.4778
H13 H 0.4436 0.1168 0.3243
H14 H 0.6672 0.0555 0.6679
H15 H 0.5382 0.1145 0.8239
H16 H 0.5900 0.0286 0.2970
H17 H 0.6792 0.0046 0.4336
H18 H 0.7301 0.0618 0.3466
loop_
_geom_bond_atom_site_label_1
_geom_bond_atom_site_label_2
_geom_bond_site_symmetry_1
_geom_bond_site_symmetry_2
S1 O1 1_555 1_555
S2 C8 1_555 1_555
S3 C9 1_555 1_555
O2 S1 1_555 1_555
O3 C7 1_555 1_555
C1 S1 1_555 1_555
C2 C1 1_555 1_555
C3 C2 1_555 1_555
C4 C3 1_555 1_555
C5 C4 1_555 1_555
C6 C1 1_555 1_555
C7 C6 1_555 1_555
C8 C7 1_555 1_555
C9 S1 1_555 1_555
C10 S2 1_555 1_555
C11 C10 1_555 1_555
C12 C11 1_555 1_555
C13 C12 1_555 1_555
C14 C13 1_555 1_555
C15 C10 1_555 1_555
C16 C13 1_555 1_555
C17 S3 1_555 1_555
C18 C17 1_555 1_555
C19 C18 1_555 1_555
C20 C19 1_555 1_555
C21 C20 1_555 1_555
C22 C17 1_555 1_555
C23 C20 1_555 1_555
H1 C2 1_555 1_555
H2 C3 1_555 1_555
H3 C4 1_555 1_555
H4 C5 1_555 1_555
H5 C11 1_555 1_555
H6 C12 1_555 1_555
H7 C14 1_555 1_555
H8 C15 1_555 1_555
H9 C16 1_555 1_555
H10 C16 1_555 1_555
H11 C16 1_555 1_555
H12 C18 1_555 1_555
H13 C19 1_555 1_555
H14 C21 1_555 1_555
H15 C22 1_555 1_555
H16 C23 1_555 1_555
H17 C23 1_555 1_555
H18 C23 1_555 1_555
C5 C6 1_555 1_555
C8 C9 1_555 1_555
C14 C15 1_555 1_555
C21 C22 1_555 1_555

#END
