
#######################################################################
#
#                 Cambridge Crystallographic Data Centre
#                                CCDC 
#
#######################################################################
#
# If this CIF has been generated from an entry in the Cambridge 
# Structural Database, then it will include bibliographic, chemical, 
# crystal, experimental, refinement or atomic coordinate data resulting 
# from the CCDC's data processing and validation procedures.
#
#######################################################################

data_ETOLAB
_chemical_formula_moiety         'C2 H8 N1 O1 1+,Br1 1-'
_chemical_name_systematic        'Ethanolamine hydrobromide'
_symmetry_cell_setting           triclinic
_symmetry_space_group_name_H-M   'P -1'
_symmetry_Int_Tables_number      2
_space_group_name_Hall           '-P 1'
loop_
_symmetry_equiv_pos_site_id
_symmetry_equiv_pos_as_xyz
1 x,y,z
2 -x,-y,-z
_cell_length_a                   4.54(3)
_cell_length_b                   7.45(3)
_cell_length_c                   7.76(4)
_cell_angle_alpha                102.5(2)
_cell_angle_beta                 93.6(2)
_cell_angle_gamma                78.7(2)
_cell_volume                     251.221
_cell_formula_units_Z            2
loop_
_atom_site_label
_atom_site_type_symbol
_atom_site_fract_x
_atom_site_fract_y
_atom_site_fract_z
Br1 Br 0.06200 0.22400 0.20600
C1 C 0.46700 -0.33800 0.34300
C2 C 0.55600 -0.30200 0.17400
N1 N 0.67200 -0.12000 0.21200
O1 O 0.22100 -0.19200 0.42300
loop_
_geom_bond_atom_site_label_1
_geom_bond_atom_site_label_2
_geom_bond_site_symmetry_1
_geom_bond_site_symmetry_2
C1 C2 1_555 1_555
C2 N1 1_555 1_555
O1 C1 1_555 1_555

#END
