
#######################################################################
#
#                 Cambridge Crystallographic Data Centre
#                                CCDC 
#
#######################################################################
#
# If this CIF has been generated from an entry in the Cambridge 
# Structural Database, then it will include bibliographic, chemical, 
# crystal, experimental, refinement or atomic coordinate data resulting 
# from the CCDC's data processing and validation procedures.
#
#######################################################################

data_ETOMOP
_chemical_formula_moiety         'C13 H9 N1 O5'
_chemical_name_systematic        '2-(4-Nitrophenoxy)benzoic acid'
_symmetry_cell_setting           triclinic
_symmetry_space_group_name_H-M   'P -1'
_symmetry_Int_Tables_number      2
_space_group_name_Hall           '-P 1'
loop_
_symmetry_equiv_pos_site_id
_symmetry_equiv_pos_as_xyz
1 x,y,z
2 -x,-y,-z
_cell_length_a                   7.8495(6)
_cell_length_b                   14.0847(15)
_cell_length_c                   17.2325(18)
_cell_angle_alpha                113.187(4)
_cell_angle_beta                 98.515(6)
_cell_angle_gamma                96.400(7)
_cell_volume                     1701.52
_exptl_crystal_colour            colorless
_exptl_crystal_description       lath
_chemical_melting_point          '435-437 K'
_cell_formula_units_Z            6
_exptl_crystal_recrystallization_method ethanol
loop_
_atom_site_label
_atom_site_type_symbol
_atom_site_fract_x
_atom_site_fract_y
_atom_site_fract_z
C1 C 0.0187(4) 0.1229(3) -0.0777(2)
C2 C 0.1217(4) 0.0594(3) -0.0579(3)
C3 C 0.2194(5) 0.0945(3) 0.0254(3)
C4 C 0.2098(4) 0.1926(3) 0.0860(2)
C5 C 0.1044(4) 0.2551(3) 0.0661(2)
C6 C 0.0073(4) 0.2202(3) -0.0169(2)
N1 N -0.0840(4) 0.0867(3) -0.1663(2)
O1 O -0.0900(3) -0.0047(3) -0.21700(19)
O2 O -0.1585(3) 0.1489(2) -0.18541(17)
O3 O 0.2959(3) 0.2316(2) 0.17212(16)
C7 C 0.4668(4) 0.2191(3) 0.1929(2)
C8 C 0.5221(4) 0.2166(3) 0.2730(2)
C9 C 0.6955(4) 0.2054(3) 0.2947(2)
C10 C 0.8102(5) 0.1993(3) 0.2396(2)
C11 C 0.7506(5) 0.2027(3) 0.1621(3)
C12 C 0.5800(5) 0.2123(3) 0.1377(2)
C13 C 0.4122(4) 0.2223(3) 0.3364(2)
O4 O 0.4402(3) 0.1792(2) 0.38526(16)
O5 O 0.2868(3) 0.2771(2) 0.33782(17)
H1 H 0.1260 -0.0076 -0.1007
H2 H 0.2915 0.0520 0.0405
H3 H 0.0985 0.3216 0.1091
H4 H -0.0660 0.2623 -0.0319
H5 H 0.7353 0.2019 0.3481
H6 H 0.9281 0.1928 0.2553
H7 H 0.8287 0.1983 0.1241
H8 H 0.5411 0.2141 0.0835
H9 H 0.2276 0.2731 0.3736
C14 C 0.6951(4) 0.4867(3) 0.9405(2)
C15 C 0.5916(4) 0.5564(3) 0.9325(2)
C16 C 0.4840(4) 0.5317(3) 0.8531(2)
C17 C 0.4823(4) 0.4370(3) 0.7847(2)
C18 C 0.5890(4) 0.3693(3) 0.7936(2)
C19 C 0.6959(4) 0.3930(3) 0.8722(2)
N2 N 0.8058(4) 0.5127(3) 1.0247(2)
O6 O 0.8254(3) 0.6029(2) 1.08152(16)
O7 O 0.8757(3) 0.4430(2) 1.03572(16)
O8 O 0.3813(3) 0.40673(19) 0.70293(15)
C20 C 0.2375(4) 0.4532(3) 0.6932(2)
C21 C 0.2178(4) 0.4952(3) 0.6321(2)
C22 C 0.0677(4) 0.5371(3) 0.6216(2)
C23 C -0.0600(4) 0.5360(3) 0.6696(2)
C24 C -0.0362(4) 0.4928(3) 0.7285(2)
C25 C 0.1107(4) 0.4507(3) 0.7408(2)
C26 C 0.3440(4) 0.4989(3) 0.5764(2)
O9 O 0.3275(3) 0.5521(2) 0.53363(17)
O10 O 0.4660(3) 0.4433(2) 0.57366(18)
H10 H 0.5939 0.6204 0.9805
H11 H 0.4126 0.5790 0.8456
H12 H 0.5891 0.3060 0.7453
H13 H 0.7684 0.3461 0.8792
H14 H 0.0523 0.5670 0.5809
H15 H -0.1618 0.5647 0.6618
H16 H -0.1228 0.4919 0.7615
H17 H 0.1247 0.4205 0.7813
H18 H 0.5271 0.4491 0.5391
C27 C 0.4107(4) 0.1204(3) 0.8066(2)
C28 C 0.2999(4) 0.1897(3) 0.8082(2)
C29 C 0.1912(4) 0.1766(3) 0.7321(2)
C30 C 0.2001(4) 0.0936(3) 0.6564(2)
C31 C 0.3143(4) 0.0262(3) 0.6548(2)
C32 C 0.4215(4) 0.0390(3) 0.7307(2)
N3 N 0.5205(4) 0.1341(3) 0.8876(2)
O11 O 0.5453(3) 0.2213(2) 0.94948(17)
O12 O 0.5826(3) 0.0590(2) 0.89088(17)
O13 O 0.0995(3) 0.07454(19) 0.57755(15)
C33 C -0.0347(4) 0.1314(3) 0.5753(2)
C34 C -0.0291(4) 0.2005(3) 0.5357(2)
C35 C -0.1677(4) 0.2546(3) 0.5351(2)
C36 C -0.3088(4) 0.2373(3) 0.5701(2)
C37 C -0.3178(4) 0.1630(3) 0.6031(2)
C38 C -0.1799(4) 0.1107(3) 0.6072(2)
C39 C 0.1095(4) 0.2182(3) 0.4896(2)
O14 O 0.0909(3) 0.2709(2) 0.44728(16)
O15 O 0.2432(3) 0.1729(2) 0.49515(18)
H19 H 0.2977 0.2463 0.8611
H20 H 0.1128 0.2232 0.7320
H21 H 0.3194 -0.0291 0.6017
H22 H 0.5011 -0.0071 0.7307
H23 H -0.1646 0.3040 0.5102
H24 H -0.3998 0.2767 0.5713
H25 H -0.4191 0.1474 0.6232
H26 H -0.1846 0.0609 0.6317
H27 H 0.3025 0.1760 0.4592
loop_
_geom_bond_atom_site_label_1
_geom_bond_atom_site_label_2
_geom_bond_site_symmetry_1
_geom_bond_site_symmetry_2
C1 C2 1_555 1_555
C2 C3 1_555 1_555
C3 C4 1_555 1_555
C4 C5 1_555 1_555
C5 C6 1_555 1_555
C6 C1 1_555 1_555
N1 C1 1_555 1_555
O1 N1 1_555 1_555
O2 N1 1_555 1_555
O3 C4 1_555 1_555
C7 O3 1_555 1_555
C8 C7 1_555 1_555
C9 C8 1_555 1_555
C10 C9 1_555 1_555
C11 C10 1_555 1_555
C12 C7 1_555 1_555
C13 C8 1_555 1_555
O4 C13 1_555 1_555
O5 C13 1_555 1_555
C14 C15 1_555 1_555
C15 C16 1_555 1_555
C16 C17 1_555 1_555
C17 C18 1_555 1_555
C18 C19 1_555 1_555
C19 C14 1_555 1_555
N2 C14 1_555 1_555
O6 N2 1_555 1_555
O7 N2 1_555 1_555
O8 C17 1_555 1_555
C20 O8 1_555 1_555
C21 C20 1_555 1_555
C22 C21 1_555 1_555
C23 C22 1_555 1_555
C24 C23 1_555 1_555
C25 C20 1_555 1_555
C26 C21 1_555 1_555
O9 C26 1_555 1_555
O10 C26 1_555 1_555
C27 C28 1_555 1_555
C28 C29 1_555 1_555
C29 C30 1_555 1_555
C30 C31 1_555 1_555
C31 C32 1_555 1_555
C32 C27 1_555 1_555
N3 C27 1_555 1_555
O11 N3 1_555 1_555
O12 N3 1_555 1_555
O13 C30 1_555 1_555
C33 O13 1_555 1_555
C34 C33 1_555 1_555
C35 C34 1_555 1_555
C36 C35 1_555 1_555
C37 C36 1_555 1_555
C38 C33 1_555 1_555
C39 C34 1_555 1_555
O14 C39 1_555 1_555
O15 C39 1_555 1_555
H1 C2 1_555 1_555
H2 C3 1_555 1_555
H3 C5 1_555 1_555
H4 C6 1_555 1_555
H5 C9 1_555 1_555
H6 C10 1_555 1_555
H7 C11 1_555 1_555
H8 C12 1_555 1_555
H9 O5 1_555 1_555
H10 C15 1_555 1_555
H11 C16 1_555 1_555
H12 C18 1_555 1_555
H13 C19 1_555 1_555
H14 C22 1_555 1_555
H15 C23 1_555 1_555
H16 C24 1_555 1_555
H17 C25 1_555 1_555
H18 O10 1_555 1_555
H19 C28 1_555 1_555
H20 C29 1_555 1_555
H21 C31 1_555 1_555
H22 C32 1_555 1_555
H23 C35 1_555 1_555
H24 C36 1_555 1_555
H25 C37 1_555 1_555
H26 C38 1_555 1_555
H27 O15 1_555 1_555
C11 C12 1_555 1_555
C24 C25 1_555 1_555
C37 C38 1_555 1_555

#END
