
#######################################################################
#
#                 Cambridge Crystallographic Data Centre
#                                CCDC 
#
#######################################################################
#
# If this CIF has been generated from an entry in the Cambridge 
# Structural Database, then it will include bibliographic, chemical, 
# crystal, experimental, refinement or atomic coordinate data resulting 
# from the CCDC's data processing and validation procedures.
#
#######################################################################

data_ETOYIV
_chemical_formula_moiety         'C16 H19 F1 N1 1+,Cl1 1-'
_chemical_name_systematic        'N,N-Dibenzyl-2-fluoroethylammonium chloride'
_symmetry_cell_setting           triclinic
_symmetry_space_group_name_H-M   'P -1'
_symmetry_Int_Tables_number      2
_space_group_name_Hall           '-P 1'
loop_
_symmetry_equiv_pos_site_id
_symmetry_equiv_pos_as_xyz
1 x,y,z
2 -x,-y,-z
_cell_length_a                   6.821(7)
_cell_length_b                   10.177(9)
_cell_length_c                   12.07(2)
_cell_angle_alpha                110.74(13)
_cell_angle_beta                 90.8(2)
_cell_angle_gamma                103.32(9)
_cell_volume                     758.277
_exptl_crystal_colour            colorless
_exptl_crystal_description       needle
_chemical_melting_point          '182-184 deg.C'
_cell_formula_units_Z            2
_exptl_crystal_recrystallization_method 'methanol/diethyl ether'
loop_
_atom_site_label
_atom_site_type_symbol
_atom_site_fract_x
_atom_site_fract_y
_atom_site_fract_z
Cl1 Cl 1.2101(4) 0.9044(4) 0.1535(3)
N1 N 0.7660(11) 0.8901(10) 0.1796(7)
H1 H 0.905(6) 0.879(11) 0.172(8)
C1 C 0.6261(14) 0.7396(10) 0.1202(8)
H2 H 0.6485 0.6799 0.1641
H3 H 0.4871 0.7471 0.1259
C2 C 0.6519(15) 0.6644(11) -0.0077(9)
C3 C 0.5159(17) 0.6604(13) -0.0944(10)
H4 H 0.4121 0.7069 -0.0733
C4 C 0.533(2) 0.5864(16) -0.2142(12)
H5 H 0.4376 0.5810 -0.2723
C5 C 0.688(3) 0.5225(16) -0.2474(13)
H6 H 0.7020 0.4770 -0.3275
C6 C 0.821(2) 0.5267(13) -0.1604(13)
H7 H 0.9239 0.4794 -0.1819
C7 C 0.8073(16) 0.5984(12) -0.0422(10)
H8 H 0.9036 0.6025 0.0150
C8 C 0.7331(15) 0.9511(12) 0.3091(8)
H9 H 0.5985 0.9677 0.3144
H10 H 0.8296 1.0446 0.3465
C9 C 0.7538(18) 0.8571(12) 0.3788(8)
C10 C 0.9243(19) 0.8072(15) 0.3821(10)
H11 H 1.0279 0.8270 0.3366
C11 C 0.943(2) 0.7265(15) 0.4536(11)
H12 H 1.0577 0.6916 0.4549
C12 C 0.791(3) 0.7008(17) 0.5209(11)
H13 H 0.8019 0.6486 0.5693
C13 C 0.620(3) 0.7511(19) 0.5182(12)
H14 H 0.5177 0.7338 0.5651
C14 C 0.6017(18) 0.8277(13) 0.4451(10)
H15 H 0.4849 0.8591 0.4414
C15 C 0.7411(14) 0.9867(11) 0.1148(8)
H16 H 0.6031 0.9969 0.1174
H17 H 0.7609 0.9403 0.0319
C16 C 0.8832(16) 1.1349(12) 0.1635(10)
H18 H 1.0155 1.1274 0.1869
H19 H 0.8978 1.1761 0.1019
F1 F 0.8118(10) 1.2269(7) 0.2620(6)
loop_
_geom_bond_atom_site_label_1
_geom_bond_atom_site_label_2
_geom_bond_site_symmetry_1
_geom_bond_site_symmetry_2
N1 H1 1_555 1_555
C1 N1 1_555 1_555
H2 C1 1_555 1_555
H3 C1 1_555 1_555
C2 C1 1_555 1_555
C3 C2 1_555 1_555
H4 C3 1_555 1_555
C4 C3 1_555 1_555
H5 C4 1_555 1_555
C5 C4 1_555 1_555
H6 C5 1_555 1_555
C6 C5 1_555 1_555
H7 C6 1_555 1_555
C7 C2 1_555 1_555
H8 C7 1_555 1_555
C8 N1 1_555 1_555
H9 C8 1_555 1_555
H10 C8 1_555 1_555
C9 C8 1_555 1_555
C10 C9 1_555 1_555
H11 C10 1_555 1_555
C11 C10 1_555 1_555
H12 C11 1_555 1_555
C12 C11 1_555 1_555
H13 C12 1_555 1_555
C13 C12 1_555 1_555
H14 C13 1_555 1_555
C14 C9 1_555 1_555
H15 C14 1_555 1_555
C15 N1 1_555 1_555
H16 C15 1_555 1_555
H17 C15 1_555 1_555
C16 C15 1_555 1_555
H18 C16 1_555 1_555
H19 C16 1_555 1_555
F1 C16 1_555 1_555
C6 C7 1_555 1_555
C13 C14 1_555 1_555

#END
