
#######################################################################
#
#                 Cambridge Crystallographic Data Centre
#                                CCDC 
#
#######################################################################
#
# If this CIF has been generated from an entry in the Cambridge 
# Structural Database, then it will include bibliographic, chemical, 
# crystal, experimental, refinement or atomic coordinate data resulting 
# from the CCDC's data processing and validation procedures.
#
#######################################################################

data_ETOZAO
_chemical_name_common            
'(S)-2-(Benzhydryl)-1-(2-fluoroethyl)pyrrolidinium chloride'
_chemical_formula_moiety         'C19 H23 F1 N1 1+,Cl1 1-'
_chemical_name_systematic        
'(S)-2-(Diphenylmethyl)-1-(2-fluoroethyl)pyrrolidinium chloride'
_symmetry_cell_setting           orthorhombic
_symmetry_space_group_name_H-M   'P 21 21 21'
_symmetry_Int_Tables_number      19
_space_group_name_Hall           'P 2ac 2ab'
loop_
_symmetry_equiv_pos_site_id
_symmetry_equiv_pos_as_xyz
1 x,y,z
2 1/2-x,-y,1/2+z
3 -x,1/2+y,1/2-z
4 1/2+x,1/2-y,-z
_cell_length_a                   9.21(3)
_cell_length_b                   12.66(4)
_cell_length_c                   14.89(5)
_cell_angle_alpha                90
_cell_angle_beta                 90
_cell_angle_gamma                90
_cell_volume                     1736.15
_exptl_crystal_colour            colorless
_exptl_crystal_description       prism
_chemical_melting_point          '159-161 deg.C'
_cell_formula_units_Z            4
_exptl_crystal_recrystallization_method 'methanol/diethyl ether'
loop_
_atom_site_label
_atom_site_type_symbol
_atom_site_fract_x
_atom_site_fract_y
_atom_site_fract_z
Cl1 Cl 0.92692(15) 0.35049(9) 0.67899(9)
N1 N 0.9925(4) 0.1268(3) 0.7311(2)
H1 H 0.979(4) 0.1987(11) 0.708(2)
C1 C 0.8627(4) 0.0562(3) 0.7154(3)
H2 H 0.8944 -0.0177 0.7170
C2 C 0.7648(5) 0.0778(4) 0.7969(3)
H3 H 0.6748 0.1106 0.7778
H4 H 0.7419 0.0122 0.8274
C3 C 0.8459(6) 0.1496(5) 0.8579(3)
H5 H 0.8107 0.2216 0.8520
H6 H 0.8344 0.1276 0.9199
C4 C 0.9996(5) 0.1427(4) 0.8304(3)
H7 H 1.0475 0.0836 0.8595
H8 H 1.0514 0.2072 0.8451
C5 C 1.1322(5) 0.0900(3) 0.6923(3)
H9 H 1.1651 0.0287 0.7258
H10 H 1.1156 0.0677 0.6309
C6 C 1.2492(5) 0.1709(4) 0.6930(4)
H11 H 1.3270 0.1488 0.6533
H12 H 1.2109 0.2373 0.6707
F1 F 1.3036(3) 0.1854(3) 0.7783(2)
C7 C 0.7902(4) 0.0782(3) 0.6252(3)
H13 H 0.7657 0.1535 0.6245
C8 C 0.8887(5) 0.0587(4) 0.5450(3)
C9 C 0.9351(5) 0.1417(4) 0.4928(3)
H14 H 0.9038 0.2099 0.5059
C10 C 1.0264(6) 0.1253(6) 0.4220(4)
H15 H 1.0566 0.1820 0.3870
C11 C 1.0726(6) 0.0271(7) 0.4028(4)
H16 H 1.1367 0.0169 0.3553
C12 C 1.0276(6) -0.0573(5) 0.4515(4)
H17 H 1.0591 -0.1250 0.4369
C13 C 0.9336(6) -0.0415(4) 0.5237(3)
H18 H 0.9015 -0.0988 0.5574
C14 C 0.6487(5) 0.0181(4) 0.6117(3)
C15 C 0.5520(5) 0.0539(4) 0.5487(3)
H19 H 0.5738 0.1148 0.5165
C16 C 0.4238(6) 0.0022(4) 0.5317(3)
H20 H 0.3595 0.0286 0.4890
C17 C 0.3909(5) -0.0882(5) 0.5776(4)
H21 H 0.3036 -0.1230 0.5669
C18 C 0.4866(6) -0.1273(4) 0.6393(4)
H22 H 0.4651 -0.1895 0.6698
C19 C 0.6149(5) -0.0748(4) 0.6564(3)
H23 H 0.6795 -0.1021 0.6984
loop_
_geom_bond_atom_site_label_1
_geom_bond_atom_site_label_2
_geom_bond_site_symmetry_1
_geom_bond_site_symmetry_2
N1 H1 1_555 1_555
C1 N1 1_555 1_555
H2 C1 1_555 1_555
C2 C1 1_555 1_555
H3 C2 1_555 1_555
H4 C2 1_555 1_555
C3 C2 1_555 1_555
H5 C3 1_555 1_555
H6 C3 1_555 1_555
C4 N1 1_555 1_555
H7 C4 1_555 1_555
H8 C4 1_555 1_555
C5 N1 1_555 1_555
H9 C5 1_555 1_555
H10 C5 1_555 1_555
C6 C5 1_555 1_555
H11 C6 1_555 1_555
H12 C6 1_555 1_555
F1 C6 1_555 1_555
C7 C1 1_555 1_555
H13 C7 1_555 1_555
C8 C7 1_555 1_555
C9 C8 1_555 1_555
H14 C9 1_555 1_555
C10 C9 1_555 1_555
H15 C10 1_555 1_555
C11 C10 1_555 1_555
H16 C11 1_555 1_555
C12 C11 1_555 1_555
H17 C12 1_555 1_555
C13 C8 1_555 1_555
H18 C13 1_555 1_555
C14 C7 1_555 1_555
C15 C14 1_555 1_555
H19 C15 1_555 1_555
C16 C15 1_555 1_555
H20 C16 1_555 1_555
C17 C16 1_555 1_555
H21 C17 1_555 1_555
C18 C17 1_555 1_555
H22 C18 1_555 1_555
C19 C14 1_555 1_555
H23 C19 1_555 1_555
C3 C4 1_555 1_555
C12 C13 1_555 1_555
C18 C19 1_555 1_555

#END
