
#######################################################################
#
#                 Cambridge Crystallographic Data Centre
#                                CCDC 
#
#######################################################################
#
# If this CIF has been generated from an entry in the Cambridge 
# Structural Database, then it will include bibliographic, chemical, 
# crystal, experimental, refinement or atomic coordinate data resulting 
# from the CCDC's data processing and validation procedures.
#
#######################################################################

data_ETUCUT
_chemical_formula_moiety         'C8 H4 N1 O6 1-,C3 H5 N2 1+'
_chemical_name_systematic        '1H-pyrazol-2-ium 2-carboxy-6-nitrobenzoate'
_symmetry_cell_setting           monoclinic
_symmetry_space_group_name_H-M   'P 21/c'
_symmetry_Int_Tables_number      14
_space_group_name_Hall           '-P 2ybc'
loop_
_symmetry_equiv_pos_site_id
_symmetry_equiv_pos_as_xyz
1 x,y,z
2 -x,1/2+y,1/2-z
3 -x,-y,-z
4 x,1/2-y,1/2+z
_cell_length_a                   13.009(3)
_cell_length_b                   12.584(3)
_cell_length_c                   7.5297(18)
_cell_angle_alpha                90
_cell_angle_beta                 93.052(4)
_cell_angle_gamma                90
_cell_volume                     1230.9
_exptl_crystal_colour            colorless
_exptl_crystal_description       block
_cell_formula_units_Z            4
loop_
_atom_site_label
_atom_site_type_symbol
_atom_site_fract_x
_atom_site_fract_y
_atom_site_fract_z
C1 C 0.86843(14) 0.41629(15) 0.0618(2)
C2 C 0.80732(13) 0.50746(14) 0.0619(2)
C3 C 0.95974(15) 0.40606(16) 0.1630(3)
H1 H 0.9975 0.3434 0.1603
C4 C 0.70799(15) 0.51865(15) -0.0548(3)
C5 C 0.93560(15) 0.58124(17) 0.2728(3)
H2 H 0.9587 0.6376 0.3441
C6 C 0.84302(14) 0.59023(15) 0.1731(2)
N1 N 0.83976(15) 0.32605(15) -0.0544(3)
O1 O 0.71399(14) 0.57256(14) -0.1926(3)
O2 O 0.87984(19) 0.24105(15) -0.0256(3)
O3 O 0.62959(12) 0.47334(17) -0.0108(2)
C7 C 0.77956(16) 0.68846(18) 0.1903(3)
O4 O 0.83159(13) 0.76901(15) 0.2545(3)
H3 H 0.7934 0.8205 0.2609
C8 C 0.99390(16) 0.48942(18) 0.2674(3)
H4 H 1.0559 0.4843 0.3341
O5 O 0.68807(15) 0.69002(18) 0.1576(4)
O6 O 0.7804(2) 0.34086(19) -0.1799(3)
N2 N 0.52329(17) 0.61374(18) 0.6545(3)
H5 H 0.5785 0.6044 0.7207
N3 N 0.42835(19) 0.59134(17) 0.6991(3)
H6 H 0.4113 0.5652 0.7989
C9 C 0.4196(3) 0.6551(3) 0.4323(4)
H7 H 0.3939 0.6791 0.3218
C10 C 0.5187(2) 0.6526(3) 0.4921(4)
H8 H 0.5746 0.6745 0.4293
C11 C 0.3650(2) 0.6162(3) 0.5638(5)
H9 H 0.2939 0.6082 0.5599
loop_
_geom_bond_atom_site_label_1
_geom_bond_atom_site_label_2
_geom_bond_site_symmetry_1
_geom_bond_site_symmetry_2
C1 C2 1_555 1_555
C2 C4 1_555 1_555
C3 C1 1_555 1_555
H1 C3 1_555 1_555
C4 O1 1_555 1_555
C5 H2 1_555 1_555
C6 C2 1_555 1_555
N1 C1 1_555 1_555
O2 N1 1_555 1_555
O3 C4 1_555 1_555
C7 C6 1_555 1_555
O4 C7 1_555 1_555
H3 O4 1_555 1_555
C8 C3 1_555 1_555
H4 C8 1_555 1_555
O5 C7 1_555 1_555
O6 N1 1_555 1_555
N2 H5 1_555 1_555
N3 N2 1_555 1_555
H6 N3 1_555 1_555
C9 H7 1_555 1_555
C10 N2 1_555 1_555
H8 C10 1_555 1_555
C11 N3 1_555 1_555
H9 C11 1_555 1_555
C5 C6 1_555 1_555
C5 C8 1_555 1_555
C9 C10 1_555 1_555
C9 C11 1_555 1_555

#END
