
#######################################################################
#
#                 Cambridge Crystallographic Data Centre
#                                CCDC 
#
#######################################################################
#
# If this CIF has been generated from an entry in the Cambridge 
# Structural Database, then it will include bibliographic, chemical, 
# crystal, experimental, refinement or atomic coordinate data resulting 
# from the CCDC's data processing and validation procedures.
#
#######################################################################

data_ETUZUP
_chemical_name_common            
'N-Benzyl-2-(quinolin-8-yloxy)acetamide hemihydrate'
_chemical_formula_moiety         'C18 H16 N2 O2,0.5(H2 O1)'
_chemical_name_systematic        
'(N-benzyl-2-(quinolin-8-yloxy)acetamide) hemihydrate'
_symmetry_cell_setting           monoclinic
_symmetry_space_group_name_H-M   'P 21/n'
_symmetry_Int_Tables_number      14
_space_group_name_Hall           '-P 2yn'
loop_
_symmetry_equiv_pos_site_id
_symmetry_equiv_pos_as_xyz
1 x,y,z
2 1/2-x,1/2+y,1/2-z
3 -x,-y,-z
4 1/2+x,1/2-y,1/2+z
_cell_length_a                   13.7802(12)
_cell_length_b                   12.3129(11)
_cell_length_c                   18.9865(17)
_cell_angle_alpha                90
_cell_angle_beta                 101.066(2)
_cell_angle_gamma                90
_cell_volume                     3161.62
_exptl_crystal_description       block
_cell_formula_units_Z            8
_exptl_crystal_recrystallization_method ethanol/water
loop_
_atom_site_label
_atom_site_type_symbol
_atom_site_fract_x
_atom_site_fract_y
_atom_site_fract_z
C1 C 0.87370(17) 0.35339(17) -0.11790(12)
H1 H 0.8560 0.2805 -0.1226
C2 C 0.91662(17) 0.3997(2) -0.17127(12)
H2 H 0.9271 0.3585 -0.2102
C3 C 0.94260(14) 0.50466(19) -0.16585(11)
H3 H 0.9714 0.5370 -0.2011
C4 C 0.92611(13) 0.56563(16) -0.10673(10)
C5 C 0.95096(16) 0.67581(17) -0.09803(12)
H4 H 0.9810 0.7108 -0.1316
C6 C 0.93149(17) 0.73109(17) -0.04118(12)
H5 H 0.9477 0.8044 -0.0362
C7 C 0.88731(14) 0.68027(15) 0.01061(10)
H6 H 0.8741 0.7200 0.0494
C8 C 0.86372(12) 0.57322(13) 0.00444(9)
C9 C 0.88205(12) 0.51216(14) -0.05517(9)
C10 C 0.79939(13) 0.57628(14) 0.11195(9)
H7 H 0.7561 0.6366 0.0947
H8 H 0.8604 0.6057 0.1393
C11 C 0.75101(12) 0.50584(15) 0.15982(10)
C12 C 0.68556(13) 0.32963(15) 0.18443(10)
H9 H 0.7049 0.3466 0.2351
H10 H 0.7050 0.2552 0.1777
C13 C 0.57463(13) 0.33827(13) 0.16305(10)
C14 C 0.51693(15) 0.33263(15) 0.21406(11)
H11 H 0.5468 0.3241 0.2620
C15 C 0.41588(18) 0.33931(18) 0.19589(15)
H12 H 0.3781 0.3365 0.2315
C16 C 0.37050(18) 0.35013(18) 0.12556(18)
H13 H 0.3019 0.3536 0.1131
C17 C 0.4266(2) 0.35577(18) 0.07423(14)
H14 H 0.3962 0.3637 0.0263
C18 C 0.52845(18) 0.34986(16) 0.09251(11)
H15 H 0.5661 0.3537 0.0568
N1 N 0.85643(11) 0.40589(12) -0.06099(8)
N2 N 0.73869(11) 0.40108(12) 0.14402(8)
H16 H 0.7627 0.3748 0.1090
O1 O 0.82035(9) 0.51697(9) 0.05242(6)
O2 O 0.72574(9) 0.54811(10) 0.21194(7)
C19 C 0.91850(15) 0.82935(15) 0.58711(10)
H17 H 0.8792 0.8888 0.5702
C20 C 1.00696(16) 0.84872(16) 0.63498(10)
H18 H 1.0270 0.9192 0.6480
C21 C 1.06269(14) 0.76299(17) 0.66198(10)
H19 H 1.1219 0.7741 0.6941
C22 C 1.03174(13) 0.65699(14) 0.64190(9)
C23 C 1.08454(14) 0.56364(17) 0.66969(10)
H20 H 1.1423 0.5705 0.7040
C24 C 1.05166(14) 0.46481(16) 0.64678(11)
H21 H 1.0867 0.4037 0.6661
C25 C 0.96578(13) 0.45142(15) 0.59436(10)
H22 H 0.9448 0.3821 0.5791
C26 C 0.91309(12) 0.53972(13) 0.56575(9)
C27 C 0.94373(12) 0.64563(13) 0.59055(8)
C28 C 0.80035(13) 0.43302(13) 0.48266(9)
H23 H 0.7779 0.3878 0.5182
H24 H 0.8567 0.3976 0.4688
C29 C 0.71875(13) 0.44405(15) 0.41805(9)
C30 C 0.60228(13) 0.56233(15) 0.34132(9)
H25 H 0.6172 0.5192 0.3020
H26 H 0.6068 0.6382 0.3285
C31 C 0.49780(13) 0.53916(14) 0.34841(9)
C32 C 0.47299(15) 0.47357(15) 0.40065(10)
H27 H 0.5229 0.4432 0.4349
C33 C 0.37549(19) 0.45171(19) 0.40346(13)
H28 H 0.3601 0.4075 0.4395
C34 C 0.30206(19) 0.4952(3) 0.35327(16)
H29 H 0.2363 0.4800 0.3545
C35 C 0.32491(18) 0.5613(3) 0.30124(14)
H30 H 0.2747 0.5915 0.2672
C36 C 0.42192(17) 0.5833(2) 0.29898(11)
H31 H 0.4366 0.6289 0.2634
N3 N 0.88705(10) 0.73225(11) 0.56424(7)
N4 N 0.67708(10) 0.54074(11) 0.40453(7)
H32 H 0.6951 0.5927 0.4344
O3 O 0.82985(8) 0.53630(8) 0.51330(6)
O4 O 0.69461(9) 0.36261(10) 0.38143(6)
O5 O 0.71153(10) 0.75704(10) 0.46479(7)
H33 H 0.6847(14) 0.8068(15) 0.4879(10)
H34 H 0.7673(12) 0.7433(16) 0.4947(10)
loop_
_geom_bond_atom_site_label_1
_geom_bond_atom_site_label_2
_geom_bond_site_symmetry_1
_geom_bond_site_symmetry_2
C1 H1 1_555 1_555
C2 C1 1_555 1_555
H2 C2 1_555 1_555
C3 C2 1_555 1_555
H3 C3 1_555 1_555
C4 C3 1_555 1_555
C5 C4 1_555 1_555
H4 C5 1_555 1_555
C6 C5 1_555 1_555
H5 C6 1_555 1_555
C7 C6 1_555 1_555
H6 C7 1_555 1_555
C8 C7 1_555 1_555
C9 C4 1_555 1_555
C10 H7 1_555 1_555
H8 C10 1_555 1_555
C11 C10 1_555 1_555
C12 H9 1_555 1_555
H10 C12 1_555 1_555
C13 C12 1_555 1_555
C14 C13 1_555 1_555
H11 C14 1_555 1_555
C15 C14 1_555 1_555
H12 C15 1_555 1_555
C16 C15 1_555 1_555
H13 C16 1_555 1_555
C17 C16 1_555 1_555
H14 C17 1_555 1_555
C18 C13 1_555 1_555
H15 C18 1_555 1_555
N1 C1 1_555 1_555
N2 C11 1_555 1_555
H16 N2 1_555 1_555
O1 C8 1_555 1_555
O2 C11 1_555 1_555
C19 H17 1_555 1_555
C20 C19 1_555 1_555
H18 C20 1_555 1_555
C21 C20 1_555 1_555
H19 C21 1_555 1_555
C22 C21 1_555 1_555
C23 C22 1_555 1_555
H20 C23 1_555 1_555
C24 C23 1_555 1_555
H21 C24 1_555 1_555
C25 C24 1_555 1_555
H22 C25 1_555 1_555
C26 C25 1_555 1_555
C27 C22 1_555 1_555
C28 H23 1_555 1_555
H24 C28 1_555 1_555
C29 C28 1_555 1_555
C30 H25 1_555 1_555
H26 C30 1_555 1_555
C31 C30 1_555 1_555
C32 C31 1_555 1_555
H27 C32 1_555 1_555
C33 C32 1_555 1_555
H28 C33 1_555 1_555
C34 C33 1_555 1_555
H29 C34 1_555 1_555
C35 C34 1_555 1_555
H30 C35 1_555 1_555
C36 C31 1_555 1_555
H31 C36 1_555 1_555
N3 C19 1_555 1_555
N4 C29 1_555 1_555
H32 N4 1_555 1_555
O3 C26 1_555 1_555
O4 C29 1_555 1_555
O5 H33 1_555 1_555
H34 O5 1_555 1_555
C8 C9 1_555 1_555
C9 N1 1_555 1_555
C10 O1 1_555 1_555
C12 N2 1_555 1_555
C17 C18 1_555 1_555
C26 C27 1_555 1_555
C27 N3 1_555 1_555
C28 O3 1_555 1_555
C30 N4 1_555 1_555
C35 C36 1_555 1_555

#END
