
#######################################################################
#
#                 Cambridge Crystallographic Data Centre
#                                CCDC 
#
#######################################################################
#
# If this CIF has been generated from an entry in the Cambridge 
# Structural Database, then it will include bibliographic, chemical, 
# crystal, experimental, refinement or atomic coordinate data resulting 
# from the CCDC's data processing and validation procedures.
#
#######################################################################

data_EUNEBR10
_chemical_formula_moiety         'C28 H42 Br2 O9'
_chemical_name_systematic        'Eunicellin dibromide'
_symmetry_cell_setting           monoclinic
_symmetry_space_group_name_H-M   'C 2'
_symmetry_Int_Tables_number      5
_space_group_name_Hall           'C 2y'
loop_
_symmetry_equiv_pos_site_id
_symmetry_equiv_pos_as_xyz
1 x,y,z
2 1/2+x,1/2+y,z
3 -x,y,-z
4 1/2-x,1/2+y,-z
_cell_length_a                   20.1(1)
_cell_length_b                   11.15(2)
_cell_length_c                   15.94(6)
_cell_angle_alpha                90
_cell_angle_beta                 116.4(4)
_cell_angle_gamma                90
_cell_volume                     3199.83
_chemical_melting_point          211-3deg.C
_cell_formula_units_Z            4
loop_
_atom_site_label
_atom_site_type_symbol
_atom_site_fract_x
_atom_site_fract_y
_atom_site_fract_z
Br1 Br 0.20340 0.00500 -0.49410
Br2 Br 0.43180 0.17540 -0.42720
C1 C 0.33520 0.07110 -0.50060
C2 C 0.28740 0.12480 -0.60080
C3 C 0.25890 0.27990 -0.80780
C4 C 0.32290 0.34000 -0.82580
C5 C 0.35120 0.25470 -0.87550
C6 C 0.37700 0.13620 -0.83010
C7 C 0.30700 -0.22300 -0.81350
C8 C 0.29440 0.09520 -0.43990
C9 C 0.23290 0.36460 -0.75470
C10 C 0.40800 0.05380 -0.88400
C11 C 0.33450 0.14220 -0.65890
C12 C 0.35530 0.04510 -0.98920
C13 C 0.48560 0.09730 -0.86920
C14 C 0.17180 -0.16650 -0.77980
C15 C 0.10310 -0.09720 -0.79740
C16 C 0.43910 -0.17910 -0.37140
C17 C 0.45330 -0.22510 -0.27610
C18 C 0.13420 0.22330 -0.92960
C19 C 0.09140 0.19640 -1.03330
C20 C 0.42130 0.46620 -0.72850
C21 C 0.47860 0.49240 -0.62580
C22 C 0.27960 0.15780 -0.76570
C23 C 0.31560 0.07050 -0.81190
C24 C 0.35180 -0.02520 -0.73600
C25 C 0.30680 -0.14200 -0.73890
C26 C 0.33760 -0.19900 -0.64410
C27 C 0.31340 -0.14770 -0.57060
C28 C 0.36560 -0.05500 -0.50110
O1 O 0.37820 0.03450 -0.64790
O2 O 0.22930 -0.09360 -0.77060
O3 O 0.18220 -0.27680 -0.76610
O4 O 0.38600 -0.09940 -0.40490
O5 O 0.47230 -0.22100 -0.41750
O6 O 0.20270 0.26140 -0.90720
O7 O 0.11080 0.19340 -0.87120
O8 O 0.38180 0.36950 -0.73240
O9 O 0.41710 0.52120 -0.79210
loop_
_geom_bond_atom_site_label_1
_geom_bond_atom_site_label_2
_geom_bond_site_symmetry_1
_geom_bond_site_symmetry_2
Br1 C8 1_555 1_555
Br2 C1 1_555 1_555
C1 C2 1_555 1_555
C2 C11 1_555 1_555
C3 C4 1_555 1_555
C4 C5 1_555 1_555
C5 C6 1_555 1_555
C6 C10 1_555 1_555
C7 C25 1_555 1_555
C8 C1 1_555 1_555
C9 C3 1_555 1_555
C10 C12 1_555 1_555
C11 C22 1_555 1_555
C13 C10 1_555 1_555
C14 C15 1_555 1_555
C16 C17 1_555 1_555
C18 C19 1_555 1_555
C20 C21 1_555 1_555
C22 C3 1_555 1_555
C23 C6 1_555 1_555
C24 C23 1_555 1_555
C25 C24 1_555 1_555
C26 C25 1_555 1_555
C27 C26 1_555 1_555
C28 C1 1_555 1_555
O1 C11 1_555 1_555
O2 C14 1_555 1_555
O3 C14 1_555 1_555
O4 C16 1_555 1_555
O5 C16 1_555 1_555
O6 C3 1_555 1_555
O7 C18 1_555 1_555
O8 C4 1_555 1_555
O9 C20 1_555 1_555
C18 O6 1_555 1_555
C20 O8 1_555 1_555
C22 C23 1_555 1_555
C24 O1 1_555 1_555
C25 O2 1_555 1_555
C27 C28 1_555 1_555
C28 O4 1_555 1_555

#END
