
#######################################################################
#
#                 Cambridge Crystallographic Data Centre
#                                CCDC 
#
#######################################################################
#
# If this CIF has been generated from an entry in the Cambridge 
# Structural Database, then it will include bibliographic, chemical, 
# crystal, experimental, refinement or atomic coordinate data resulting 
# from the CCDC's data processing and validation procedures.
#
#######################################################################

data_EVACAH
_chemical_formula_moiety         'C24 H22 N4,0.25(C1 H2 Cl2)'
_chemical_name_systematic        
"5',6,6',7,8',13'-hexahydro-5H-spiro[quinoline-8,7'-quinolino[8,7-b][1,5]benzodiazepine] dichloromethane solvate"
_symmetry_cell_setting           monoclinic
_symmetry_space_group_name_H-M   'P 21/c'
_symmetry_Int_Tables_number      14
_space_group_name_Hall           '-P 2ybc'
loop_
_symmetry_equiv_pos_site_id
_symmetry_equiv_pos_as_xyz
1 x,y,z
2 -x,1/2+y,1/2-z
3 -x,-y,-z
4 x,1/2-y,1/2+z
_cell_length_a                   12.546(3)
_cell_length_b                   14.922(3)
_cell_length_c                   12.355(3)
_cell_angle_alpha                90
_cell_angle_beta                 118.52(3)
_cell_angle_gamma                90
_cell_volume                     2032.32
_exptl_crystal_colour            colorless
_exptl_crystal_description       block
_cell_formula_units_Z            4
loop_
_atom_site_label
_atom_site_type_symbol
_atom_site_fract_x
_atom_site_fract_y
_atom_site_fract_z
C25 C 0.0541(3) 0.5022(3) 0.1426(3)
Cl1 Cl 0.0476(3) 0.5533(2) 0.1127(3)
N1 N 0.1960(2) 0.25744(16) 0.3937(2)
N2 N 0.5127(2) 0.14956(16) 0.3343(2)
N3 N 0.4578(2) 0.23830(15) 0.5050(2)
N4 N 0.4009(2) 0.08534(16) 0.1104(2)
C1 C 0.5783(2) 0.22293(17) 0.5331(2)
C2 C 0.3486(3) 0.06635(17) 0.1809(2)
C3 C 0.2500(3) 0.19824(18) 0.5952(2)
C4 C 0.2667(2) 0.20595(18) 0.4914(2)
C5 C 0.4536(3) 0.1238(2) 0.7122(3)
H1 H 0.4974 0.0791 0.7749
H2 H 0.5016 0.1783 0.7343
C6 C 0.3332(2) 0.11669(17) 0.3615(2)
C7 C 0.3743(2) 0.16191(17) 0.4855(2)
C8 C 0.1051(3) 0.3020(2) 0.3971(3)
H3 H 0.0560 0.3380 0.3301
C9 C 0.3982(2) 0.11307(17) 0.3013(2)
C10 C 0.2096(3) -0.0160(2) 0.2373(3)
H4 H 0.2590 -0.0621 0.2948
H5 H 0.1270 -0.0382 0.1927
C11 C 0.7245(3) 0.1719(2) 0.4719(3)
H6 H 0.7417 0.1419 0.4161
C12 C 0.7939(3) 0.2505(2) 0.6631(3)
H7 H 0.8565 0.2748 0.7345
C13 C 0.3324(3) 0.1421(2) 0.7061(3)
H8 H 0.3455 0.1731 0.7805
H9 H 0.2928 0.0856 0.7028
C14 C 0.8187(3) 0.2080(2) 0.5778(3)
H10 H 0.8982 0.2038 0.5916
C15 C 0.6038(2) 0.17977(18) 0.4474(2)
C16 C 0.2715(3) -0.0224(2) -0.0363(3)
H11 H 0.2462 -0.0517 -0.1111
C17 C 0.6758(3) 0.25629(19) 0.6410(3)
H12 H 0.6601 0.2833 0.6998
C18 C 0.1538(3) 0.2451(2) 0.5944(3)
H13 H 0.1391 0.2412 0.6612
C19 C 0.4346(3) 0.09023(18) 0.5877(3)
H14 H 0.3838 0.0371 0.5647
H15 H 0.5123 0.0735 0.5947
C20 C 0.2198(3) -0.0422(2) 0.0377(3)
H16 H 0.1600 -0.0860 0.0134
C21 C 0.0801(3) 0.2976(2) 0.4940(3)
H17 H 0.0153 0.3292 0.4920
C22 C 0.3613(3) 0.0415(2) 0.0031(3)
H18 H 0.3960 0.0549 -0.0467
C23 C 0.2123(3) 0.0682(2) 0.3080(3)
H19 H 0.1487 0.1086 0.2532
H20 H 0.1954 0.0521 0.3743
C24 C 0.2566(3) 0.00293(19) 0.1478(3)
H21 H 0.452(3) 0.276(2) 0.554(3)
H22 H 0.538(3) 0.137(3) 0.273(3)
loop_
_geom_bond_atom_site_label_1
_geom_bond_atom_site_label_2
_geom_bond_site_symmetry_1
_geom_bond_site_symmetry_2
N1 C4 1_555 1_555
N2 C9 1_555 1_555
N3 C1 1_555 1_555
N4 C2 1_555 1_555
C1 C15 1_555 1_555
C2 C9 1_555 1_555
C3 C4 1_555 1_555
C4 C7 1_555 1_555
C5 H1 1_555 1_555
H2 C5 1_555 1_555
C6 C7 1_555 1_555
C7 N3 1_555 1_555
C8 N1 1_555 1_555
H3 C8 1_555 1_555
C9 C6 1_555 1_555
C10 H4 1_555 1_555
H5 C10 1_555 1_555
C11 H6 1_555 1_555
C12 H7 1_555 1_555
C13 C3 1_555 1_555
H8 C13 1_555 1_555
H9 C13 1_555 1_555
C14 C11 1_555 1_555
H10 C14 1_555 1_555
C15 N2 1_555 1_555
C16 H11 1_555 1_555
C17 C1 1_555 1_555
H12 C17 1_555 1_555
C18 C3 1_555 1_555
H13 C18 1_555 1_555
C19 C5 1_555 1_555
H14 C19 1_555 1_555
H15 C19 1_555 1_555
C20 C16 1_555 1_555
H16 C20 1_555 1_555
C21 C8 1_555 1_555
H17 C21 1_555 1_555
C22 N4 1_555 1_555
H18 C22 1_555 1_555
C23 C6 1_555 1_555
H19 C23 1_555 1_555
H20 C23 1_555 1_555
C24 C2 1_555 1_555
H21 N3 1_555 1_555
H22 N2 1_555 1_555
C25 Cl1 1_555 1_555
C5 C13 1_555 1_555
C7 C19 1_555 1_555
C10 C23 1_555 1_555
C10 C24 1_555 1_555
C11 C15 1_555 1_555
C12 C14 1_555 1_555
C12 C17 1_555 1_555
C16 C22 1_555 1_555
C18 C21 1_555 1_555
C20 C24 1_555 1_555

#END
