
#######################################################################
#
#                 Cambridge Crystallographic Data Centre
#                                CCDC 
#
#######################################################################
#
# If this CIF has been generated from an entry in the Cambridge 
# Structural Database, then it will include bibliographic, chemical, 
# crystal, experimental, refinement or atomic coordinate data resulting 
# from the CCDC's data processing and validation procedures.
#
#######################################################################

data_EVACIP
_chemical_formula_moiety         'C48 H42 Br2 Mg2 N8,2(C2 H3 N1)'
_chemical_name_systematic        
"dibromo-bis(\m-5',6,6',7,8',13'-hexahydro-5H-spiro[quinoline-8,7'-quinolino[8,7-b][1,5]benzodiazepine]ato)-di-magnesium acetonitrile solvate"
_symmetry_cell_setting           orthorhombic
_symmetry_space_group_name_H-M   'P n a 21'
_symmetry_Int_Tables_number      33
_space_group_name_Hall           'P 2c -2n'
loop_
_symmetry_equiv_pos_site_id
_symmetry_equiv_pos_as_xyz
1 x,y,z
2 -x,-y,1/2+z
3 1/2+x,1/2-y,z
4 1/2-x,1/2+y,1/2+z
_cell_length_a                   17.232(3)
_cell_length_b                   16.286(3)
_cell_length_c                   16.384(3)
_cell_angle_alpha                90
_cell_angle_beta                 90
_cell_angle_gamma                90
_cell_volume                     4598.01
_exptl_crystal_colour            red
_exptl_crystal_description       block
_cell_formula_units_Z            4
loop_
_atom_site_label
_atom_site_type_symbol
_atom_site_fract_x
_atom_site_fract_y
_atom_site_fract_z
Br1 Br -0.04110(2) 0.41769(2) 0.26107(3)
Br2 Br 0.49792(2) 0.54359(2) 0.19397(3)
Mg1 Mg 0.10753(7) 0.42228(6) 0.28398(7)
Mg2 Mg 0.35895(7) 0.55993(6) 0.24760(7)
N1 N 0.14263(16) 0.54242(14) 0.25460(19)
N2 N 0.30494(17) 0.44689(16) 0.23056(17)
C1 C 0.2840(2) 0.4237(2) 0.1514(2)
N3 N 0.16969(16) 0.34238(16) 0.19302(19)
H1 H 0.1318 0.3145 0.1660
N4 N 0.27426(16) 0.63809(16) 0.18213(18)
H2 H 0.3034 0.6669 0.1457
N5 N 0.36521(18) 0.50920(17) 0.36498(19)
C2 C 0.3302(2) 0.4357(2) 0.3737(2)
C3 C 0.3286(2) 0.74219(19) 0.2684(2)
C4 C 0.1492(2) 0.56364(19) 0.1724(2)
C5 C 0.1531(2) 0.5896(2) 0.0008(2)
H3 H 0.1550 0.5975 -0.0554
C6 C 0.3255(2) 0.3983(2) 0.4503(2)
C7 C 0.2951(2) 0.3988(2) 0.2983(2)
C8 C 0.2518(2) 0.70088(18) 0.2471(2)
N6 N 0.38689(17) 0.68911(17) 0.28401(19)
C9 C 0.2570(2) 0.2154(2) 0.1971(3)
H4 H 0.2789 0.2424 0.1497
H5 H 0.2998 0.1961 0.2305
C10 C 0.3285(2) 0.4544(2) 0.0863(2)
H6 H 0.3727 0.4849 0.0981
C11 C 0.1469(2) 0.6025(2) 0.4701(2)
N7 N 0.12747(18) 0.47396(18) 0.40129(19)
C12 C 0.2091(2) 0.60793(19) 0.1348(2)
C13 C 0.1490(2) 0.5536(2) 0.3991(2)
C14 C 0.20966(19) 0.27921(18) 0.2468(2)
C15 C 0.3589(3) 0.4378(2) 0.5162(3)
H7 H 0.3567 0.4134 0.5675
C16 C 0.1430(2) 0.2378(2) 0.2916(2)
C17 C 0.0359(2) 0.2615(2) 0.3731(3)
H8 H 0.0022 0.2983 0.3981
C18 C 0.3969(3) 0.5462(2) 0.4308(3)
H9 H 0.4207 0.5969 0.4236
C19 C 0.2190(2) 0.6568(2) 0.3214(2)
C20 C 0.2193(2) 0.3759(2) 0.1305(2)
C21 C 0.2004(2) 0.3622(2) 0.0484(2)
H10 H 0.1578 0.3296 0.0357
N8 N 0.09526(19) 0.29148(17) 0.3293(2)
C22 C 0.2435(3) 0.3959(2) -0.0136(2)
H11 H 0.2288 0.3885 -0.0678
C23 C 0.4566(2) 0.7185(2) 0.3044(3)
H12 H 0.4967 0.6819 0.3154
C24 C 0.2103(2) 0.6218(2) 0.0512(2)
H13 H 0.2500 0.6532 0.0286
C25 C 0.1724(2) 0.58786(19) 0.3182(2)
C26 C 0.1240(2) 0.5668(3) 0.5426(2)
H14 H 0.1199 0.5984 0.5897
C27 C 0.4125(2) 0.8558(2) 0.2934(3)
H15 H 0.4215 0.9120 0.2970
C28 C 0.0911(2) 0.5335(2) 0.1193(2)
H16 H 0.0496 0.5045 0.1414
C29 C 0.0935(2) 0.5458(2) 0.0358(2)
H17 H 0.0545 0.5241 0.0029
C30 C 0.2597(2) 0.3230(2) 0.3082(2)
C31 C 0.1706(2) 0.6904(2) 0.4617(2)
H18 H 0.1852 0.7125 0.5145
H19 H 0.1277 0.7226 0.4406
C32 C 0.2384(2) 0.6948(2) 0.4039(2)
H20 H 0.2823 0.6661 0.4276
H21 H 0.2532 0.7517 0.3961
C33 C 0.2735(2) 0.8856(2) 0.2506(3)
H22 H 0.2808 0.9061 0.1955
H23 H 0.2752 0.9322 0.2874
C34 C 0.1305(2) 0.1532(2) 0.2941(3)
C35 C 0.1942(2) 0.8452(2) 0.2566(3)
H24 H 0.1813 0.8360 0.3135
H25 H 0.1552 0.8812 0.2334
C36 C 0.1072(2) 0.4839(3) 0.5452(2)
H26 H 0.0950 0.4582 0.5943
C37 C 0.0226(3) 0.1787(3) 0.3826(3)
H27 H -0.0174 0.1600 0.4159
C38 C 0.3957(3) 0.5128(3) 0.5074(2)
H28 H 0.4186 0.5393 0.5515
C39 C 0.1942(2) 0.7639(2) 0.2113(2)
H29 H 0.2072 0.7737 0.1545
H30 H 0.1423 0.7408 0.2130
C40 C 0.1088(2) 0.4405(2) 0.4734(2)
H31 H 0.0964 0.3849 0.4749
C41 C 0.3093(3) 0.4411(2) 0.0056(2)
H32 H 0.3404 0.4623 -0.0357
C42 C 0.2832(3) 0.2717(2) 0.3814(3)
H33 H 0.2478 0.2257 0.3863
H34 H 0.3348 0.2498 0.3721
C43 C 0.1795(3) 0.0966(2) 0.2430(4)
H35 H 0.1486 0.0499 0.2256
H36 H 0.2226 0.0762 0.2752
C44 C 0.4707(3) 0.8023(3) 0.3098(3)
H37 H 0.5196 0.8214 0.3244
C45 C 0.2831(3) 0.3183(3) 0.4588(3)
H38 H 0.3075 0.2856 0.5011
H39 H 0.2299 0.3288 0.4753
C46 C 0.3394(2) 0.82744(19) 0.2714(2)
C47 C 0.2100(3) 0.1417(3) 0.1689(3)
H40 H 0.1670 0.1598 0.1351
H41 H 0.2424 0.1054 0.1367
C48 C 0.0699(3) 0.1237(2) 0.3417(3)
H42 H 0.0611 0.0675 0.3459
N9 N 0.6229(2) 0.2481(3) 0.5739(3)
C49 C 0.4736(3) 0.2474(3) 0.5924(3)
H43 H 0.4490 0.2523 0.5400
H44 H 0.4583 0.2927 0.6263
H45 H 0.4581 0.1968 0.6176
C50 C 0.5570(3) 0.2482(3) 0.5821(3)
C51 C 0.5001(3) 0.7118(3) 0.5955(5)
N10 N 0.4649(4) 0.7240(4) 0.5387(5)
C52 C 0.5454(3) 0.6950(3) 0.6677(4)
H46 H 0.5986 0.6862 0.6527
H47 H 0.5256 0.6468 0.6942
H48 H 0.5421 0.7409 0.7044
loop_
_geom_bond_atom_site_label_1
_geom_bond_atom_site_label_2
_geom_bond_site_symmetry_1
_geom_bond_site_symmetry_2
Br1 Mg1 1_555 1_555
Br2 Mg2 1_555 1_555
Mg1 N1 1_555 1_555
Mg2 N2 1_555 1_555
N1 C4 1_555 1_555
N2 C1 1_555 1_555
C1 C10 1_555 1_555
N3 Mg1 1_555 1_555
H1 N3 1_555 1_555
N4 Mg2 1_555 1_555
H2 N4 1_555 1_555
N5 Mg2 1_555 1_555
C2 N5 1_555 1_555
C3 C8 1_555 1_555
C4 C12 1_555 1_555
C5 H3 1_555 1_555
C6 C2 1_555 1_555
C7 N2 1_555 1_555
C8 N4 1_555 1_555
N6 Mg2 1_555 1_555
C9 H4 1_555 1_555
H5 C9 1_555 1_555
C10 H6 1_555 1_555
C11 C13 1_555 1_555
N7 Mg1 1_555 1_555
C12 N4 1_555 1_555
C13 N7 1_555 1_555
C14 N3 1_555 1_555
C15 C6 1_555 1_555
H7 C15 1_555 1_555
C16 C14 1_555 1_555
C17 H8 1_555 1_555
C18 N5 1_555 1_555
H9 C18 1_555 1_555
C19 C8 1_555 1_555
C20 C1 1_555 1_555
C21 C20 1_555 1_555
H10 C21 1_555 1_555
N8 Mg1 1_555 1_555
C22 C21 1_555 1_555
H11 C22 1_555 1_555
C23 N6 1_555 1_555
H12 C23 1_555 1_555
C24 C5 1_555 1_555
H13 C24 1_555 1_555
C25 N1 1_555 1_555
C26 C11 1_555 1_555
H14 C26 1_555 1_555
C27 H15 1_555 1_555
C28 C4 1_555 1_555
H16 C28 1_555 1_555
C29 C5 1_555 1_555
H17 C29 1_555 1_555
C30 C7 1_555 1_555
C31 C11 1_555 1_555
H18 C31 1_555 1_555
H19 C31 1_555 1_555
C32 C19 1_555 1_555
H20 C32 1_555 1_555
H21 C32 1_555 1_555
C33 H22 1_555 1_555
H23 C33 1_555 1_555
C34 C16 1_555 1_555
C35 C33 1_555 1_555
H24 C35 1_555 1_555
H25 C35 1_555 1_555
C36 C26 1_555 1_555
H26 C36 1_555 1_555
C37 C17 1_555 1_555
H27 C37 1_555 1_555
C38 C15 1_555 1_555
H28 C38 1_555 1_555
C39 C8 1_555 1_555
H29 C39 1_555 1_555
H30 C39 1_555 1_555
C40 N7 1_555 1_555
H31 C40 1_555 1_555
C41 C10 1_555 1_555
H32 C41 1_555 1_555
C42 C30 1_555 1_555
H33 C42 1_555 1_555
H34 C42 1_555 1_555
C43 C34 1_555 1_555
H35 C43 1_555 1_555
H36 C43 1_555 1_555
C44 C23 1_555 1_555
H37 C44 1_555 1_555
C45 C6 1_555 1_555
H38 C45 1_555 1_555
H39 C45 1_555 1_555
C46 C3 1_555 1_555
C47 C9 1_555 1_555
H40 C47 1_555 1_555
H41 C47 1_555 1_555
C48 C34 1_555 1_555
H42 C48 1_555 1_555
N9 C50 1_555 1_555
C49 H43 1_555 1_555
H44 C49 1_555 1_555
H45 C49 1_555 1_555
C50 C49 1_555 1_555
C51 N10 1_555 1_555
C52 C51 1_555 1_555
H46 C52 1_555 1_555
H47 C52 1_555 1_555
H48 C52 1_555 1_555
N3 C20 1_555 1_555
C2 C7 1_555 1_555
C3 N6 1_555 1_555
C9 C14 1_555 1_555
C12 C24 1_555 1_555
C13 C25 1_555 1_555
C14 C30 1_555 1_555
C16 N8 1_555 1_555
C17 N8 1_555 1_555
C18 C38 1_555 1_555
C19 C25 1_555 1_555
C22 C41 1_555 1_555
C27 C44 1_555 1_555
C27 C46 1_555 1_555
C28 C29 1_555 1_555
C31 C32 1_555 1_555
C33 C46 1_555 1_555
C35 C39 1_555 1_555
C36 C40 1_555 1_555
C37 C48 1_555 1_555
C42 C45 1_555 1_555
C43 C47 1_555 1_555

#END
