
#######################################################################
#
#                 Cambridge Crystallographic Data Centre
#                                CCDC 
#
#######################################################################
#
# If this CIF has been generated from an entry in the Cambridge 
# Structural Database, then it will include bibliographic, chemical, 
# crystal, experimental, refinement or atomic coordinate data resulting 
# from the CCDC's data processing and validation procedures.
#
#######################################################################

data_EVAKIW
_chemical_formula_moiety         'C14 H2 Cl4 F3 N1 O2'
_chemical_name_systematic        
4,5,6,7-Tetrachloro-N-(2,3,4-trifluorophenyl)phthalimide
_symmetry_cell_setting           triclinic
_symmetry_space_group_name_H-M   'P -1'
_symmetry_Int_Tables_number      2
_space_group_name_Hall           '-P 1'
loop_
_symmetry_equiv_pos_site_id
_symmetry_equiv_pos_as_xyz
1 x,y,z
2 -x,-y,-z
_cell_length_a                   6.7722(7)
_cell_length_b                   8.8052(12)
_cell_length_c                   24.493(3)
_cell_angle_alpha                95.777(9)
_cell_angle_beta                 94.514(17)
_cell_angle_gamma                98.839(12)
_cell_volume                     1429.25
_exptl_crystal_colour            colorless
_exptl_crystal_description       prism
_cell_formula_units_Z            4
loop_
_atom_site_label
_atom_site_type_symbol
_atom_site_fract_x
_atom_site_fract_y
_atom_site_fract_z
Cl1 Cl 0.32227(8) 0.91214(6) 0.18882(2)
Cl2 Cl 0.25294(9) 0.79727(7) 0.06239(2)
Cl3 Cl 0.24340(8) 0.44993(7) 0.02105(2)
Cl4 Cl 0.28079(8) 0.20952(6) 0.10536(2)
F1 F 0.09797(18) 0.52932(15) 0.35163(5)
F2 F 0.1377(2) 0.44755(17) 0.45515(5)
F3 F 0.4616(2) 0.32808(17) 0.48974(5)
O1 O 0.3982(2) 0.74947(18) 0.29461(6)
O2 O 0.3402(2) 0.23349(17) 0.23416(6)
N1 N 0.3776(3) 0.4840(2) 0.27781(7)
C1 C 0.3739(3) 0.6333(3) 0.26336(9)
C2 C 0.3363(3) 0.6123(2) 0.20166(8)
C3 C 0.3126(3) 0.7200(2) 0.16569(9)
C4 C 0.2817(3) 0.6680(3) 0.10912(8)
C5 C 0.2751(3) 0.5115(3) 0.09030(8)
C6 C 0.2956(3) 0.4031(2) 0.12762(8)
C7 C 0.3259(3) 0.4568(3) 0.18312(8)
C8 C 0.3474(3) 0.3692(3) 0.23222(8)
C9 C 0.4061(3) 0.4492(2) 0.33327(8)
C10 C 0.2611(3) 0.4700(3) 0.36825(9)
C11 C 0.2802(3) 0.4284(3) 0.42102(9)
C12 C 0.4469(4) 0.3681(3) 0.43799(9)
C13 C 0.5958(4) 0.3496(3) 0.40436(9)
H1 H 0.7109 0.3090 0.4171
C14 C 0.5749(3) 0.3914(3) 0.35132(9)
H2 H 0.6769 0.3802 0.3274
Cl5 Cl 0.83636(8) 1.38342(6) 0.20872(2)
Cl6 Cl 0.77697(8) 1.27830(6) 0.08171(2)
Cl7 Cl 0.75697(8) 0.93290(7) 0.03745(2)
Cl8 Cl 0.78622(8) 0.68379(6) 0.11969(2)
F4 F 1.29401(19) 1.04373(16) 0.33909(5)
F5 F 1.4227(2) 0.98029(18) 0.44020(6)
F6 F 1.1612(2) 0.82690(18) 0.50178(5)
O3 O 0.9291(2) 1.21384(18) 0.31271(6)
O4 O 0.8648(2) 0.70099(18) 0.24803(6)
N2 N 0.9077(3) 0.9487(2) 0.29353(7)
C15 C 0.8977(3) 1.0995(3) 0.28042(8)
C16 C 0.8468(3) 1.0809(2) 0.21917(8)
C17 C 0.8229(3) 1.1919(2) 0.18423(8)
C18 C 0.7927(3) 1.1435(3) 0.12721(8)
C19 C 0.7833(3) 0.9880(3) 0.10714(8)
C20 C 0.8001(3) 0.8765(2) 0.14369(8)
C21 C 0.8327(3) 0.9259(2) 0.19943(8)
C22 C 0.8675(3) 0.8368(3) 0.24746(8)
C23 C 0.9670(3) 0.9153(2) 0.34779(8)
C24 C 1.1641(3) 0.9649(3) 0.36851(9)
C25 C 1.2298(4) 0.9340(3) 0.42078(9)
C26 C 1.0962(4) 0.8546(3) 0.45089(9)
C27 C 0.8992(4) 0.8043(3) 0.43104(9)
H3 H 0.8088 0.7490 0.4526
C28 C 0.8346(4) 0.8359(3) 0.37858(9)
H4 H 0.6988 0.8026 0.3641
loop_
_geom_bond_atom_site_label_1
_geom_bond_atom_site_label_2
_geom_bond_site_symmetry_1
_geom_bond_site_symmetry_2
Cl1 C3 1_555 1_555
Cl2 C4 1_555 1_555
Cl3 C5 1_555 1_555
Cl4 C6 1_555 1_555
Cl5 C17 1_555 1_555
Cl6 C18 1_555 1_555
Cl7 C19 1_555 1_555
Cl8 C20 1_555 1_555
F1 C10 1_555 1_555
F2 C11 1_555 1_555
F3 C12 1_555 1_555
F4 C24 1_555 1_555
F5 C25 1_555 1_555
F6 C26 1_555 1_555
O1 C1 1_555 1_555
O2 C8 1_555 1_555
O3 C15 1_555 1_555
O4 C22 1_555 1_555
N1 C1 1_555 1_555
N2 C15 1_555 1_555
C1 C2 1_555 1_555
C2 C3 1_555 1_555
C3 C4 1_555 1_555
C4 C5 1_555 1_555
C5 C6 1_555 1_555
C6 C7 1_555 1_555
C7 C2 1_555 1_555
C8 N1 1_555 1_555
C9 N1 1_555 1_555
C10 C9 1_555 1_555
C11 C10 1_555 1_555
C12 C11 1_555 1_555
C13 C12 1_555 1_555
H1 C13 1_555 1_555
C14 C9 1_555 1_555
H2 C14 1_555 1_555
C15 C16 1_555 1_555
C16 C17 1_555 1_555
C17 C18 1_555 1_555
C18 C19 1_555 1_555
C19 C20 1_555 1_555
C20 C21 1_555 1_555
C21 C16 1_555 1_555
C22 N2 1_555 1_555
C23 N2 1_555 1_555
C24 C23 1_555 1_555
C25 C24 1_555 1_555
C26 C25 1_555 1_555
C27 C26 1_555 1_555
H3 C27 1_555 1_555
C28 C23 1_555 1_555
H4 C28 1_555 1_555
C7 C8 1_555 1_555
C13 C14 1_555 1_555
C21 C22 1_555 1_555
C27 C28 1_555 1_555

#END
