
#######################################################################
#
#                 Cambridge Crystallographic Data Centre
#                                CCDC 
#
#######################################################################
#
# If this CIF has been generated from an entry in the Cambridge 
# Structural Database, then it will include bibliographic, chemical, 
# crystal, experimental, refinement or atomic coordinate data resulting 
# from the CCDC's data processing and validation procedures.
#
#######################################################################

data_EVALET
_chemical_formula_moiety         'C26 H32 N2 O2'
_chemical_name_systematic        
1,3-bis(4-t-Butylbenzyl)pyrimidine-2,4(1H,3H)-dione
_symmetry_cell_setting           triclinic
_symmetry_space_group_name_H-M   'P -1'
_symmetry_Int_Tables_number      2
_space_group_name_Hall           '-P 1'
loop_
_symmetry_equiv_pos_site_id
_symmetry_equiv_pos_as_xyz
1 x,y,z
2 -x,-y,-z
_cell_length_a                   7.5742(18)
_cell_length_b                   12.191(3)
_cell_length_c                   13.080(3)
_cell_angle_alpha                88.643(4)
_cell_angle_beta                 84.809(4)
_cell_angle_gamma                78.381(4)
_cell_volume                     1178.15
_exptl_crystal_colour            colorless
_exptl_crystal_description       prism
_cell_formula_units_Z            2
_exptl_crystal_recrystallization_method ethanol
loop_
_atom_site_label
_atom_site_type_symbol
_atom_site_fract_x
_atom_site_fract_y
_atom_site_fract_z
O1 O 0.3639(3) 0.35436(17) 0.03048(17)
O2 O 0.1481(3) 0.70375(17) 0.16032(16)
N1 N 0.2605(3) 0.52942(18) 0.09502(16)
N2 N 0.1110(3) 0.67313(17) -0.00641(16)
C1 C 0.1889(4) 0.4353(2) 0.2598(2)
C2 C 0.0327(4) 0.4990(2) 0.3074(2)
H1 H 0.0103 0.5765 0.2999
C3 C -0.0894(4) 0.4494(3) 0.3655(2)
H2 H -0.1928 0.4945 0.3971
C4 C -0.0645(4) 0.3340(3) 0.37905(19)
C5 C 0.0912(4) 0.2725(3) 0.3311(2)
H3 H 0.1136 0.1949 0.3381
C6 C 0.2160(4) 0.3216(2) 0.2728(2)
H4 H 0.3202 0.2767 0.2419
C7 C -0.2038(4) 0.2787(3) 0.4413(2)
C8 C -0.2405(13) 0.3221(8) 0.5462(4)
H5 H -0.1549 0.2795 0.5891
H6 H -0.3608 0.3161 0.5722
H7 H -0.2298 0.3993 0.5460
C9 C -0.1324(9) 0.1478(4) 0.4520(5)
H8 H -0.1142 0.1143 0.3852
H9 H -0.2199 0.1159 0.4941
H10 H -0.0200 0.1341 0.4831
C10 C -0.3628(11) 0.2886(9) 0.3810(7)
H11 H -0.3357 0.2351 0.3263
H12 H -0.3913 0.3628 0.3527
H13 H -0.4645 0.2745 0.4248
C11 C 0.3239(4) 0.4898(3) 0.1953(2)
H14 H 0.3466 0.5527 0.2326
H15 H 0.4373 0.4362 0.1842
C12 C 0.2895(3) 0.4514(2) 0.0154(2)
C13 C 0.2250(3) 0.4949(2) -0.0798(2)
H16 H 0.2422 0.4486 -0.1369
C14 C 0.1403(3) 0.6012(2) -0.0872(2)
H17 H 0.0996 0.6275 -0.1499
C15 C 0.1721(4) 0.6400(2) 0.0876(2)
C16 C 0.0077(4) 0.7871(2) -0.0196(2)
H18 H -0.0309 0.8199 0.0476
H19 H -0.1002 0.7833 -0.0530
C17 C 0.1121(3) 0.8626(2) -0.08177(19)
C18 C 0.0240(4) 0.9452(2) -0.1419(2)
H20 H -0.0999 0.9523 -0.1455
C19 C 0.1135(4) 1.0185(2) -0.1976(2)
H21 H 0.0485 1.0735 -0.2378
C20 C 0.2971(3) 1.0119(2) -0.19493(19)
C21 C 0.3847(4) 0.9284(2) -0.1336(2)
H22 H 0.5084 0.9213 -0.1294
C22 C 0.2951(4) 0.8550(2) -0.0784(2)
H23 H 0.3595 0.7997 -0.0382
C23 C 0.3990(4) 1.0923(2) -0.2568(2)
C24 C 0.5569(9) 1.0191(5) -0.3220(6)
H24 H 0.6495 0.9864 -0.2787
H25 H 0.6057 1.0646 -0.3738
H26 H 0.5138 0.9609 -0.3542
C25 C 0.2801(11) 1.1667(8) -0.3234(8)
H27 H 0.1830 1.2122 -0.2818
H28 H 0.2313 1.1225 -0.3691
H29 H 0.3485 1.2140 -0.3626
C26 C 0.4789(13) 1.1547(7) -0.1802(6)
H30 H 0.3832 1.2012 -0.1386
H31 H 0.5537 1.2006 -0.2162
H32 H 0.5507 1.1020 -0.1372
C27? C -0.3706(19) 0.3649(11) 0.4993(15)
C28? C 0.381(2) 1.0855(14) -0.3731(8)
C29? C 0.3211(19) 1.2150(8) -0.2250(12)
C30? C 0.6022(14) 1.0769(10) -0.2462(11)
C31? C -0.122(2) 0.2264(16) 0.5340(10)
C32? C -0.315(3) 0.2241(18) 0.3804(18)
H33? H -0.3792 0.4378 0.4683
H34? H -0.3507 0.3692 0.5704
H35? H -0.4810 0.3391 0.4936
H36? H 0.2676 1.1305 -0.3892
H37? H 0.3860 1.0091 -0.3914
H38? H 0.4783 1.1128 -0.4108
H39? H 0.2133 1.2181 -0.1796
H40? H 0.2927 1.2595 -0.2850
H41? H 0.4089 1.2435 -0.1905
H42? H 0.6216 1.1219 -0.1906
H43? H 0.6614 1.0997 -0.3088
H44? H 0.6511 0.9996 -0.2326
H45? H -0.0271 0.1639 0.5141
H46? H -0.2131 0.2011 0.5790
H47? H -0.0733 0.2805 0.5688
H48? H -0.2398 0.1626 0.3431
H49? H -0.3749 0.2772 0.3329
H50? H -0.4045 0.1968 0.4254
loop_
_geom_bond_atom_site_label_1
_geom_bond_atom_site_label_2
_geom_bond_site_symmetry_1
_geom_bond_site_symmetry_2
O1 C12 1_555 1_555
O2 C15 1_555 1_555
N1 C11 1_555 1_555
N2 C14 1_555 1_555
C1 C2 1_555 1_555
C2 H1 1_555 1_555
C3 C2 1_555 1_555
H2 C3 1_555 1_555
C4 C3 1_555 1_555
C5 C4 1_555 1_555
H3 C5 1_555 1_555
C6 C1 1_555 1_555
H4 C6 1_555 1_555
C7 C4 1_555 1_555
C8 C7 1_555 1_555
H5 C8 1_555 1_555
H6 C8 1_555 1_555
H7 C8 1_555 1_555
C9 C7 1_555 1_555
H8 C9 1_555 1_555
H9 C9 1_555 1_555
H10 C9 1_555 1_555
C10 C7 1_555 1_555
H11 C10 1_555 1_555
H12 C10 1_555 1_555
H13 C10 1_555 1_555
C11 C1 1_555 1_555
H14 C11 1_555 1_555
H15 C11 1_555 1_555
C12 N1 1_555 1_555
C13 C12 1_555 1_555
H16 C13 1_555 1_555
C14 C13 1_555 1_555
H17 C14 1_555 1_555
C15 N1 1_555 1_555
C16 N2 1_555 1_555
H18 C16 1_555 1_555
H19 C16 1_555 1_555
C17 C16 1_555 1_555
C18 C17 1_555 1_555
H20 C18 1_555 1_555
C19 C18 1_555 1_555
H21 C19 1_555 1_555
C20 C19 1_555 1_555
C21 C20 1_555 1_555
H22 C21 1_555 1_555
C22 C17 1_555 1_555
H23 C22 1_555 1_555
C23 C20 1_555 1_555
C24 C23 1_555 1_555
H24 C24 1_555 1_555
H25 C24 1_555 1_555
H26 C24 1_555 1_555
C25 C23 1_555 1_555
H27 C25 1_555 1_555
H28 C25 1_555 1_555
H29 C25 1_555 1_555
C26 C23 1_555 1_555
H30 C26 1_555 1_555
H31 C26 1_555 1_555
H32 C26 1_555 1_555
N2 C15 1_555 1_555
C5 C6 1_555 1_555
C21 C22 1_555 1_555

#END
