
#######################################################################
#
#                 Cambridge Crystallographic Data Centre
#                                CCDC 
#
#######################################################################
#
# If this CIF has been generated from an entry in the Cambridge 
# Structural Database, then it will include bibliographic, chemical, 
# crystal, experimental, refinement or atomic coordinate data resulting 
# from the CCDC's data processing and validation procedures.
#
#######################################################################

data_EVAPAT
_chemical_formula_moiety         'C15 H12 Cl1 N3 O4,H2 O1'
_chemical_name_systematic        
"(E)-N'-(2-Chloro-5-nitrobenzylidene)-3-methoxybenzohydrazide monohydrate"
_symmetry_cell_setting           triclinic
_symmetry_space_group_name_H-M   'P -1'
_symmetry_Int_Tables_number      2
_space_group_name_Hall           '-P 1'
loop_
_symmetry_equiv_pos_site_id
_symmetry_equiv_pos_as_xyz
1 x,y,z
2 -x,-y,-z
_cell_length_a                   7.176(2)
_cell_length_b                   7.179(2)
_cell_length_c                   15.395(4)
_cell_angle_alpha                83.820(18)
_cell_angle_beta                 89.953(18)
_cell_angle_gamma                80.190(18)
_cell_volume                     776.834
_exptl_crystal_colour            colorless
_exptl_crystal_description       block
_cell_formula_units_Z            2
loop_
_atom_site_label
_atom_site_type_symbol
_atom_site_fract_x
_atom_site_fract_y
_atom_site_fract_z
Cl1 Cl 0.05788(14) 1.03926(12) 1.12824(6)
N1 N 0.2400(4) 0.5012(4) 1.03085(15)
N2 N 0.2787(4) 0.5246(3) 0.94318(16)
N3 N 0.1926(5) 0.3190(5) 1.36258(19)
O1 O 0.3018(4) 0.2107(3) 0.93423(15)
O2 O 0.2513(4) 0.8041(4) 0.63274(15)
O3 O 0.2584(5) 0.1707(4) 1.33358(19)
O4 O 0.1633(5) 0.3291(4) 1.44026(17)
C1 C 0.1635(4) 0.6554(4) 1.15934(19)
C2 C 0.0887(4) 0.8238(4) 1.1940(2)
C3 C 0.0387(5) 0.8259(5) 1.2810(2)
H1 H -0.0148 0.9392 1.3021
C4 C 0.0690(5) 0.6595(5) 1.3356(2)
H2 H 0.0350 0.6582 1.3940
C5 C 0.1506(5) 0.4938(5) 1.3029(2)
C6 C 0.1960(4) 0.4882(4) 1.2159(2)
H3 H 0.2478 0.3738 1.1954
C7 C 0.2063(4) 0.6559(4) 1.0662(2)
H4 H 0.2088 0.7708 1.0323
C8 C 0.3063(4) 0.3706(4) 0.8984(2)
C9 C 0.3373(4) 0.4103(4) 0.8024(2)
C10 C 0.2874(4) 0.5904(4) 0.7584(2)
H5 H 0.2378 0.6916 0.7892
C11 C 0.3104(5) 0.6216(5) 0.6691(2)
C12 C 0.3870(5) 0.4713(5) 0.6231(2)
H6 H 0.4035 0.4907 0.5631
C13 C 0.4381(5) 0.2933(5) 0.6678(2)
H7 H 0.4893 0.1925 0.6371
C14 C 0.4157(5) 0.2598(5) 0.7561(2)
H8 H 0.4524 0.1383 0.7849
C15 C 0.2835(6) 0.8508(6) 0.5424(2)
H9 H 0.4162 0.8194 0.5312
H10 H 0.2414 0.9844 0.5267
H11 H 0.2148 0.7799 0.5083
H12 H 0.334(5) 0.624(4) 0.923(3)
O5 O 0.4570(3) 0.8422(3) 0.90264(16)
H13 H 0.563(3) 0.822(5) 0.928(2)
H14 H 0.382(4) 0.931(4) 0.921(2)
loop_
_geom_bond_atom_site_label_1
_geom_bond_atom_site_label_2
_geom_bond_site_symmetry_1
_geom_bond_site_symmetry_2
Cl1 C2 1_555 1_555
N1 N2 1_555 1_555
N2 C8 1_555 1_555
N3 O3 1_555 1_555
O1 C8 1_555 1_555
O2 C11 1_555 1_555
O4 N3 1_555 1_555
O5 H13 1_555 1_555
C1 C2 1_555 1_555
C2 C3 1_555 1_555
C3 H1 1_555 1_555
C4 C3 1_555 1_555
H2 C4 1_555 1_555
C5 N3 1_555 1_555
C6 C1 1_555 1_555
H3 C6 1_555 1_555
C7 N1 1_555 1_555
H4 C7 1_555 1_555
C8 C9 1_555 1_555
C9 C10 1_555 1_555
C10 H5 1_555 1_555
C11 C10 1_555 1_555
C12 C11 1_555 1_555
H6 C12 1_555 1_555
C13 C12 1_555 1_555
H7 C13 1_555 1_555
C14 C9 1_555 1_555
H8 C14 1_555 1_555
C15 O2 1_555 1_555
H9 C15 1_555 1_555
H10 C15 1_555 1_555
H11 C15 1_555 1_555
H12 N2 1_555 1_555
H14 O5 1_555 1_555
C1 C7 1_555 1_555
C4 C5 1_555 1_555
C5 C6 1_555 1_555
C13 C14 1_555 1_555

#END
