
#######################################################################
#
#                 Cambridge Crystallographic Data Centre
#                                CCDC 
#
#######################################################################
#
# If this CIF has been generated from an entry in the Cambridge 
# Structural Database, then it will include bibliographic, chemical, 
# crystal, experimental, refinement or atomic coordinate data resulting 
# from the CCDC's data processing and validation procedures.
#
#######################################################################

data_EVAQAU
_chemical_formula_moiety         'C12 H18 N2 O4,H2 O1'
_chemical_name_systematic        
'2,5-bis((3-hydroxypropyl)amino)-1,4-benzoquinone monohydrate'
_symmetry_cell_setting           triclinic
_symmetry_space_group_name_H-M   'P -1'
_symmetry_Int_Tables_number      2
_space_group_name_Hall           '-P 1'
loop_
_symmetry_equiv_pos_site_id
_symmetry_equiv_pos_as_xyz
1 x,y,z
2 -x,-y,-z
_cell_length_a                   4.9272(8)
_cell_length_b                   11.673(2)
_cell_length_c                   11.933(2)
_cell_angle_alpha                82.104(2)
_cell_angle_beta                 87.994(2)
_cell_angle_gamma                80.849(2)
_cell_volume                     671.109
_exptl_crystal_colour            red
_exptl_crystal_description       strip
_cell_formula_units_Z            2
loop_
_atom_site_label
_atom_site_type_symbol
_atom_site_fract_x
_atom_site_fract_y
_atom_site_fract_z
N1 N 0.6153(3) -0.11927(12) 0.36773(12)
N2 N 1.3092(3) 0.13162(11) 0.10709(11)
O1 O 1.2722(3) -0.08231(10) 0.07011(10)
O2 O 0.6703(3) 0.09049(10) 0.41065(10)
O3 O 0.5303(4) -0.32465(13) 0.60246(12)
O4 O 1.0113(3) 0.41209(12) -0.14943(12)
C1 C 1.1245(3) -0.04600(13) 0.14826(13)
C2 C 0.9446(3) -0.11051(13) 0.21472(13)
H1 H 0.9286 -0.1851 0.1994
C3 C 0.7922(3) -0.06574(13) 0.30165(13)
C4 C 0.8147(3) 0.05513(13) 0.32951(13)
C5 C 0.9895(3) 0.12030(13) 0.26347(13)
H2 H 1.0042 0.1949 0.2793
C6 C 1.1415(3) 0.07683(12) 0.17496(13)
C7 C 0.5507(4) -0.23474(14) 0.35927(14)
H3 H 0.5450 -0.2441 0.2799
H4 H 0.3688 -0.2399 0.3915
C8 C 0.7530(4) -0.33485(14) 0.41825(14)
H5 H 0.6915 -0.4084 0.4109
H6 H 0.9311 -0.3353 0.3809
C9 C 0.7835(5) -0.32661(18) 0.54126(16)
H7 H 0.9135 -0.3930 0.5742
H8 H 0.8582 -0.2560 0.5486
C10 C 1.3668(4) 0.24973(13) 0.10990(14)
H9 H 1.5559 0.2458 0.1321
H10 H 1.2486 0.2859 0.1662
C11 C 1.3213(3) 0.32460(13) -0.00383(13)
H11 H 1.3914 0.3974 -0.0017
H12 H 1.4254 0.2842 -0.0612
C12 C 1.0238(3) 0.35224(14) -0.03697(14)
H13 H 0.9458 0.2806 -0.0334
H14 H 0.9203 0.4011 0.0142
H17 H 1.405(4) 0.0890(14) 0.0584(13)
H18 H 0.535(4) -0.0797(15) 0.4219(13)
H19 H 0.844(4) 0.437(2) -0.167(2)
H20 H 0.456(5) -0.2541(16) 0.601(2)
O5 O 0.5089(3) 0.49169(15) 0.21551(15)
H15 H 0.516(5) 0.4429(17) 0.2754(14)
H16 H 0.662(3) 0.516(2) 0.205(2)
loop_
_geom_bond_atom_site_label_1
_geom_bond_atom_site_label_2
_geom_bond_site_symmetry_1
_geom_bond_site_symmetry_2
N1 C3 1_555 1_555
N2 C6 1_555 1_555
O1 C1 1_555 1_555
O2 C4 1_555 1_555
O3 C9 1_555 1_555
O4 C12 1_555 1_555
O5 H15 1_555 1_555
C1 C2 1_555 1_555
C2 H1 1_555 1_555
C3 C2 1_555 1_555
C4 C3 1_555 1_555
C5 C4 1_555 1_555
H2 C5 1_555 1_555
C6 C1 1_555 1_555
C7 N1 1_555 1_555
H3 C7 1_555 1_555
H4 C7 1_555 1_555
C8 C7 1_555 1_555
H5 C8 1_555 1_555
H6 C8 1_555 1_555
C9 C8 1_555 1_555
H7 C9 1_555 1_555
H8 C9 1_555 1_555
C10 N2 1_555 1_555
H9 C10 1_555 1_555
H10 C10 1_555 1_555
C11 C10 1_555 1_555
H11 C11 1_555 1_555
H12 C11 1_555 1_555
C12 C11 1_555 1_555
H13 C12 1_555 1_555
H14 C12 1_555 1_555
H16 O5 1_555 1_555
H17 N2 1_555 1_555
H18 N1 1_555 1_555
H19 O4 1_555 1_555
H20 O3 1_555 1_555
C5 C6 1_555 1_555

#END
