
#######################################################################
#
#                 Cambridge Crystallographic Data Centre
#                                CCDC 
#
#######################################################################
#
# If this CIF has been generated from an entry in the Cambridge 
# Structural Database, then it will include bibliographic, chemical, 
# crystal, experimental, refinement or atomic coordinate data resulting 
# from the CCDC's data processing and validation procedures.
#
#######################################################################

data_EVAQEY
_chemical_formula_moiety         'C7 H5 Cl1 N4'
_chemical_name_systematic        5-Chloro-1-phenyl-1H-tetrazole
_symmetry_cell_setting           monoclinic
_symmetry_space_group_name_H-M   'P 21/n'
_symmetry_Int_Tables_number      14
_space_group_name_Hall           '-P 2yn'
loop_
_symmetry_equiv_pos_site_id
_symmetry_equiv_pos_as_xyz
1 x,y,z
2 1/2-x,1/2+y,1/2-z
3 -x,-y,-z
4 1/2+x,1/2-y,1/2+z
_cell_length_a                   7.0428(7)
_cell_length_b                   6.4150(6)
_cell_length_c                   17.5804(18)
_cell_angle_alpha                90
_cell_angle_beta                 96.160(2)
_cell_angle_gamma                90
_cell_volume                     789.689
_exptl_crystal_colour            colorless
_exptl_crystal_description       block
_cell_formula_units_Z            4
loop_
_atom_site_label
_atom_site_type_symbol
_atom_site_fract_x
_atom_site_fract_y
_atom_site_fract_z
Cl1 Cl 0.15030(6) 0.26017(7) 0.03941(3)
N1 N 0.5232(2) 0.25483(17) 0.08796(8)
N2 N 0.4612(3) 0.24646(19) -0.03563(9)
N3 N 0.6525(3) 0.2414(2) -0.01533(10)
N4 N 0.6930(2) 0.24610(19) 0.05813(10)
C1 C 0.3852(3) 0.2547(2) 0.02910(10)
C2 C 0.5109(2) 0.2662(2) 0.16905(9)
C3 C 0.4356(2) 0.4431(3) 0.19789(9)
H1 H 0.3949 0.5534 0.1659
C4 C 0.4216(3) 0.4538(4) 0.27567(10)
H2 H 0.3699 0.5716 0.2963
C5 C 0.4836(3) 0.2919(4) 0.32218(11)
H3 H 0.4740 0.3003 0.3744
C6 C 0.5600(3) 0.1167(4) 0.29252(11)
H4 H 0.6029 0.0080 0.3249
C7 C 0.5737(2) 0.1004(3) 0.21435(10)
H5 H 0.6235 -0.0183 0.1936
loop_
_geom_bond_atom_site_label_1
_geom_bond_atom_site_label_2
_geom_bond_site_symmetry_1
_geom_bond_site_symmetry_2
Cl1 C1 1_555 1_555
N1 N4 1_555 1_555
N2 N3 1_555 1_555
N3 N4 1_555 1_555
C1 N1 1_555 1_555
C2 N1 1_555 1_555
C3 C2 1_555 1_555
H1 C3 1_555 1_555
C4 C3 1_555 1_555
H2 C4 1_555 1_555
C5 C4 1_555 1_555
H3 C5 1_555 1_555
C6 C5 1_555 1_555
H4 C6 1_555 1_555
C7 C2 1_555 1_555
H5 C7 1_555 1_555
N2 C1 1_555 1_555
C6 C7 1_555 1_555

#END
