
#######################################################################
#
#                 Cambridge Crystallographic Data Centre
#                                CCDC 
#
#######################################################################
#
# If this CIF has been generated from an entry in the Cambridge 
# Structural Database, then it will include bibliographic, chemical, 
# crystal, experimental, refinement or atomic coordinate data resulting 
# from the CCDC's data processing and validation procedures.
#
#######################################################################

data_EVAQUO
_chemical_formula_moiety         'C11 H13 N3 S1'
_chemical_name_systematic        
7-Methyl-5,6,7,8-tetrahydro[1]benzothieno[2,3-d]pyrimidin-4-amine
_symmetry_cell_setting           monoclinic
_symmetry_space_group_name_H-M   'P 21/n'
_symmetry_Int_Tables_number      14
_space_group_name_Hall           '-P 2yn'
loop_
_symmetry_equiv_pos_site_id
_symmetry_equiv_pos_as_xyz
1 x,y,z
2 1/2-x,1/2+y,1/2-z
3 -x,-y,-z
4 1/2+x,1/2-y,1/2+z
_cell_length_a                   10.395(4)
_cell_length_b                   8.422(3)
_cell_length_c                   13.155(5)
_cell_angle_alpha                90
_cell_angle_beta                 110.015(6)
_cell_angle_gamma                90
_cell_volume                     1082.12
_exptl_crystal_colour            yellow
_exptl_crystal_description       block
_cell_formula_units_Z            4
loop_
_atom_site_label
_atom_site_type_symbol
_atom_site_fract_x
_atom_site_fract_y
_atom_site_fract_z
C1 C 0.3496(3) 0.4303(3) 0.0551(2)
C2 C 0.3466(3) 0.6871(3) 0.1469(2)
C3 C 0.2341(3) 0.6672(3) 0.0522(2)
C4 C 0.1409(3) 0.7972(3) 0.0259(2)
C5 C 0.1329(3) 0.4538(3) -0.1015(2)
H1 H 0.0422 0.4744 -0.0991
H2 H 0.1411 0.5100 -0.1633
C6 C 0.2648(6) 0.1894(7) -0.0569(5)
H3 H 0.2274 0.1383 -0.0061
C7 C 0.3087(17) 0.037(2) -0.1037(13)
H4 H 0.2289 -0.0152 -0.1514
H5 H 0.3565 -0.0329 -0.0455
H6 H 0.3679 0.0661 -0.1429
C8 C 0.1995(8) 0.3109(6) -0.1466(5)
H7 H 0.1271 0.2331 -0.1743
H8 H 0.2169 0.3534 -0.2092
C9 C 0.3857(3) 0.2702(3) 0.0241(2)
H9 H 0.4201 0.2045 0.0883
H10 H 0.4580 0.2812 -0.0063
C10 C 0.2746(3) 0.9236(3) 0.1821(2)
H11 H 0.2863 1.0124 0.2263
C11 C 0.2379(3) 0.5173(3) 0.0000(2)
N1 N 0.0301(2) 0.8031(3) -0.06281(18)
H12 H -0.0235 0.8840 -0.0745
H13 H 0.0121 0.7260 -0.1084
N2 N 0.1624(2) 0.9225(3) 0.09383(18)
N3 N 0.3714(2) 0.8140(3) 0.21457(18)
S1 S 0.45432(7) 0.52481(9) 0.17184(5)
C12? C 0.3192(18) 0.072(3) -0.127(2)
C13? C 0.1477(10) 0.2803(11) -0.1164(9)
C14? C 0.2932(8) 0.2411(11) -0.1011(8)
H14? H 0.2934 0.0007 -0.0809
H15? H 0.4147 0.0589 -0.1166
H16? H 0.2661 0.0496 -0.2015
H17? H 0.0699 0.2298 -0.1050
H18? H 0.1358 0.2654 -0.1922
H19? H 0.3552 0.2922 -0.1329
loop_
_geom_bond_atom_site_label_1
_geom_bond_atom_site_label_2
_geom_bond_site_symmetry_1
_geom_bond_site_symmetry_2
C1 C9 1_555 1_555
C2 C3 1_555 1_555
C3 C4 1_555 1_555
C4 N1 1_555 1_555
C5 H1 1_555 1_555
H2 C5 1_555 1_555
C6 H3 1_555 1_555
C7 C6 1_555 1_555
H4 C7 1_555 1_555
H5 C7 1_555 1_555
H6 C7 1_555 1_555
C8 C5 1_555 1_555
H7 C8 1_555 1_555
H8 C8 1_555 1_555
C9 C6 1_555 1_555
H9 C9 1_555 1_555
H10 C9 1_555 1_555
C10 H11 1_555 1_555
C11 C1 1_555 1_555
N1 H12 1_555 1_555
H13 N1 1_555 1_555
N2 C4 1_555 1_555
N3 C2 1_555 1_555
S1 C1 1_555 1_555
C2 S1 1_555 1_555
C3 C11 1_555 1_555
C5 C11 1_555 1_555
C6 C8 1_555 1_555
C10 N2 1_555 1_555
C10 N3 1_555 1_555

#END
