
#######################################################################
#
#                 Cambridge Crystallographic Data Centre
#                                CCDC 
#
#######################################################################
#
# If this CIF has been generated from an entry in the Cambridge 
# Structural Database, then it will include bibliographic, chemical, 
# crystal, experimental, refinement or atomic coordinate data resulting 
# from the CCDC's data processing and validation procedures.
#
#######################################################################

data_EVARAV
_chemical_formula_moiety         'C14 H9 Cl2 N3 O3'
_chemical_name_systematic        
3-Chloro-N'-(2-chloro-5-nitrobenzylidene)benzohydrazide
_symmetry_cell_setting           monoclinic
_symmetry_space_group_name_H-M   'P 21/c'
_symmetry_Int_Tables_number      14
_space_group_name_Hall           '-P 2ybc'
loop_
_symmetry_equiv_pos_site_id
_symmetry_equiv_pos_as_xyz
1 x,y,z
2 -x,1/2+y,1/2-z
3 -x,-y,-z
4 x,1/2-y,1/2+z
_cell_length_a                   7.770(2)
_cell_length_b                   24.254(6)
_cell_length_c                   7.889(2)
_cell_angle_alpha                90
_cell_angle_beta                 95.383(3)
_cell_angle_gamma                90
_cell_volume                     1480.15
_exptl_crystal_colour            yellow
_exptl_crystal_description       block
_cell_formula_units_Z            4
loop_
_atom_site_label
_atom_site_type_symbol
_atom_site_fract_x
_atom_site_fract_y
_atom_site_fract_z
Cl1 Cl 0.33815(15) 0.55819(4) 0.48098(13)
Cl2 Cl 0.02262(16) 0.99758(4) 0.26818(14)
N1 N 0.2837(3) 0.72544(12) 0.6153(3)
N2 N 0.1950(4) 0.75727(12) 0.4918(3)
N3 N 0.6550(5) 0.65111(19) 1.1284(4)
O1 O 0.7009(5) 0.61872(16) 1.2395(4)
O2 O 0.6670(5) 0.70061(16) 1.1441(4)
O3 O 0.1450(4) 0.82247(10) 0.6847(3)
C1 C 0.4302(4) 0.64304(14) 0.6916(4)
C2 C 0.4361(4) 0.58649(14) 0.6668(4)
C3 C 0.5135(5) 0.55147(15) 0.7884(5)
H1 H 0.5166 0.5137 0.7681
C4 C 0.5859(5) 0.57270(16) 0.9396(5)
H2 H 0.6375 0.5495 1.0235
C5 C 0.5812(4) 0.62850(16) 0.9653(4)
C6 C 0.5069(4) 0.66400(14) 0.8457(4)
H3 H 0.5073 0.7017 0.8665
C7 C 0.3405(4) 0.67978(15) 0.5662(4)
H4 H 0.3252 0.6698 0.4519
C8 C 0.1301(5) 0.80617(14) 0.5386(4)
C9 C 0.0426(4) 0.83855(13) 0.3958(4)
C10 C 0.0624(4) 0.89538(14) 0.4003(4)
H5 H 0.1224 0.9123 0.4938
C11 C -0.0076(5) 0.92655(15) 0.2651(4)
C12 C -0.1003(5) 0.90243(17) 0.1273(5)
H6 H -0.1459 0.9239 0.0362
C13 C -0.1246(5) 0.84646(16) 0.1259(4)
H7 H -0.1891 0.8300 0.0342
C14 C -0.0544(4) 0.81411(15) 0.2593(4)
H8 H -0.0720 0.7762 0.2576
H9 H 0.193(4) 0.7439(12) 0.386(2)
loop_
_geom_bond_atom_site_label_1
_geom_bond_atom_site_label_2
_geom_bond_site_symmetry_1
_geom_bond_site_symmetry_2
Cl1 C2 1_555 1_555
Cl2 C11 1_555 1_555
N1 N2 1_555 1_555
N2 C8 1_555 1_555
N3 O1 1_555 1_555
O2 N3 1_555 1_555
O3 C8 1_555 1_555
C1 C2 1_555 1_555
C2 C3 1_555 1_555
C3 H1 1_555 1_555
C4 C3 1_555 1_555
H2 C4 1_555 1_555
C5 N3 1_555 1_555
C6 C1 1_555 1_555
H3 C6 1_555 1_555
C7 N1 1_555 1_555
H4 C7 1_555 1_555
C8 C9 1_555 1_555
C9 C10 1_555 1_555
C10 H5 1_555 1_555
C11 C10 1_555 1_555
C12 C11 1_555 1_555
H6 C12 1_555 1_555
C13 C12 1_555 1_555
H7 C13 1_555 1_555
C14 C9 1_555 1_555
H8 C14 1_555 1_555
H9 N2 1_555 1_555
C1 C7 1_555 1_555
C4 C5 1_555 1_555
C5 C6 1_555 1_555
C13 C14 1_555 1_555

#END
