
#######################################################################
#
#                 Cambridge Crystallographic Data Centre
#                                CCDC 
#
#######################################################################
#
# If this CIF has been generated from an entry in the Cambridge 
# Structural Database, then it will include bibliographic, chemical, 
# crystal, experimental, refinement or atomic coordinate data resulting 
# from the CCDC's data processing and validation procedures.
#
#######################################################################

data_EVAREZ
_chemical_formula_moiety         'C21 H21 N3 O2'
_chemical_name_systematic        
1,5-Dimethyl-4-((4-oxo-4-phenylbut-2-en-2-yl)amino)-2-phenyl-1,2-dihydro-3H-pyrazol-3-one
_symmetry_cell_setting           monoclinic
_symmetry_space_group_name_H-M   'P 21/c'
_symmetry_Int_Tables_number      14
_space_group_name_Hall           '-P 2ybc'
loop_
_symmetry_equiv_pos_site_id
_symmetry_equiv_pos_as_xyz
1 x,y,z
2 -x,1/2+y,1/2-z
3 -x,-y,-z
4 x,1/2-y,1/2+z
_cell_length_a                   9.9418(12)
_cell_length_b                   18.456(3)
_cell_length_c                   10.1151(14)
_cell_angle_alpha                90
_cell_angle_beta                 104.361(2)
_cell_angle_gamma                90
_cell_volume                     1797.98
_exptl_crystal_colour            colorless
_exptl_crystal_description       prism
_cell_formula_units_Z            4
loop_
_atom_site_label
_atom_site_type_symbol
_atom_site_fract_x
_atom_site_fract_y
_atom_site_fract_z
O1 O 0.72095(18) 1.08766(10) 0.41989(19)
O2 O 0.83461(19) 0.93727(10) 0.00431(19)
N1 N 0.4862(2) 1.05874(11) 0.3514(2)
N2 N 0.4038(2) 1.01384(12) 0.2496(2)
N3 N 0.7420(2) 0.96481(12) 0.2169(2)
C1 C 0.4275(3) 1.12584(14) 0.3815(3)
C2 C 0.4802(3) 1.15799(15) 0.5078(3)
H1 H 0.5552 1.1362 0.5722
C3 C 0.4225(3) 1.22220(16) 0.5392(3)
H2 H 0.4590 1.2448 0.6250
C4 C 0.3118(3) 1.25348(15) 0.4457(3)
H3 H 0.2719 1.2972 0.4679
C5 C 0.2596(3) 1.22104(15) 0.3202(3)
H4 H 0.1835 1.2426 0.2565
C6 C 0.3173(3) 1.15733(14) 0.2864(3)
H5 H 0.2822 1.1355 0.1996
C7 C 0.6269(3) 1.04979(14) 0.3528(3)
C8 C 0.6267(3) 0.99043(14) 0.2596(3)
C9 C 0.4928(3) 0.97008(14) 0.2037(3)
C10 C 0.4406(3) 0.91013(15) 0.1055(3)
H6 H 0.4021 0.8716 0.1517
H7 H 0.5174 0.8907 0.0713
H8 H 0.3681 0.9287 0.0289
C11 C 0.2724(3) 0.98719(15) 0.2733(3)
H9 H 0.2200 0.9615 0.1919
H10 H 0.2176 1.0282 0.2923
H11 H 0.2920 0.9540 0.3514
C12 C 0.8539(3) 0.92975(14) 0.2913(3)
C13 C 0.8703(3) 0.92201(16) 0.4421(3)
H12 H 0.8720 0.9701 0.4834
H13 H 0.9573 0.8967 0.4827
H14 H 0.7921 0.8942 0.4586
C14 C 0.9500(3) 0.90044(14) 0.2283(3)
H15 H 1.0305 0.8779 0.2833
C15 C 0.9329(3) 0.90276(13) 0.0845(3)
C16 C 1.0308(3) 0.86266(13) 0.0208(3)
C17 C 1.0587(3) 0.88942(14) -0.0988(3)
H16 H 1.0171 0.9334 -0.1373
C18 C 1.1466(3) 0.85217(15) -0.1615(3)
H17 H 1.1660 0.8708 -0.2423
C19 C 1.2063(3) 0.78773(15) -0.1065(3)
H18 H 1.2671 0.7625 -0.1495
C20 C 1.1783(3) 0.75975(15) 0.0104(3)
H19 H 1.2187 0.7151 0.0470
C21 C 1.0911(3) 0.79702(15) 0.0743(3)
H20 H 1.0720 0.7779 0.1549
H21 H 0.739(3) 0.9643(18) 0.1269(13)
loop_
_geom_bond_atom_site_label_1
_geom_bond_atom_site_label_2
_geom_bond_site_symmetry_1
_geom_bond_site_symmetry_2
O1 C7 1_555 1_555
O2 C15 1_555 1_555
N1 N2 1_555 1_555
N2 C9 1_555 1_555
N3 C8 1_555 1_555
C1 N1 1_555 1_555
C2 C1 1_555 1_555
H1 C2 1_555 1_555
C3 C2 1_555 1_555
H2 C3 1_555 1_555
C4 C3 1_555 1_555
H3 C4 1_555 1_555
C5 C4 1_555 1_555
H4 C5 1_555 1_555
C6 C1 1_555 1_555
H5 C6 1_555 1_555
C7 N1 1_555 1_555
C8 C7 1_555 1_555
C9 C8 1_555 1_555
C10 C9 1_555 1_555
H6 C10 1_555 1_555
H7 C10 1_555 1_555
H8 C10 1_555 1_555
C11 N2 1_555 1_555
H9 C11 1_555 1_555
H10 C11 1_555 1_555
H11 C11 1_555 1_555
C12 N3 1_555 1_555
C13 C12 1_555 1_555
H12 C13 1_555 1_555
H13 C13 1_555 1_555
H14 C13 1_555 1_555
C14 C12 1_555 1_555
H15 C14 1_555 1_555
C15 C14 1_555 1_555
C16 C15 1_555 1_555
C17 C16 1_555 1_555
H16 C17 1_555 1_555
C18 C17 1_555 1_555
H17 C18 1_555 1_555
C19 C18 1_555 1_555
H18 C19 1_555 1_555
C20 C19 1_555 1_555
H19 C20 1_555 1_555
C21 C16 1_555 1_555
H20 C21 1_555 1_555
H21 N3 1_555 1_555
C5 C6 1_555 1_555
C20 C21 1_555 1_555

#END
