
#######################################################################
#
#                 Cambridge Crystallographic Data Centre
#                                CCDC 
#
#######################################################################
#
# If this CIF has been generated from an entry in the Cambridge 
# Structural Database, then it will include bibliographic, chemical, 
# crystal, experimental, refinement or atomic coordinate data resulting 
# from the CCDC's data processing and validation procedures.
#
#######################################################################

data_EVASEA
_chemical_formula_moiety         'C11 H12 O2'
_chemical_name_systematic        7-Methoxy-3,4-dihydronaphthalen-1(2H)-one
_symmetry_cell_setting           monoclinic
_symmetry_space_group_name_H-M   'P 21/c'
_symmetry_Int_Tables_number      14
_space_group_name_Hall           '-P 2ybc'
loop_
_symmetry_equiv_pos_site_id
_symmetry_equiv_pos_as_xyz
1 x,y,z
2 -x,1/2+y,1/2-z
3 -x,-y,-z
4 x,1/2-y,1/2+z
_cell_length_a                   7.4303(4)
_cell_length_b                   7.4614(4)
_cell_length_c                   16.4393(8)
_cell_angle_alpha                90
_cell_angle_beta                 90.976(4)
_cell_angle_gamma                90
_cell_volume                     911.27
_exptl_crystal_colour            colorless
_exptl_crystal_description       block
_cell_formula_units_Z            4
loop_
_atom_site_label
_atom_site_type_symbol
_atom_site_fract_x
_atom_site_fract_y
_atom_site_fract_z
O1 O 0.62487(12) 0.84217(13) 0.45326(5)
O2 O 0.87018(12) 0.68273(16) 0.72482(6)
C1 C 0.70272(16) 0.66013(17) 0.69096(7)
C2 C 0.67929(14) 0.72639(15) 0.61301(6)
H1 H 0.7769 0.7829 0.5867
C3 C 0.51381(14) 0.71094(14) 0.57282(6)
C4 C 0.49582(15) 0.78093(15) 0.48827(7)
C5 C 0.31401(17) 0.77041(18) 0.44739(7)
H2 H 0.3094 0.6623 0.4125
H3 H 0.2977 0.8763 0.4117
C6 C 0.15984(16) 0.76306(18) 0.50688(8)
H4 H 0.1523 0.8781 0.5366
H5 H 0.0449 0.7447 0.4767
C7 C 0.18949(16) 0.61092(18) 0.56688(8)
H6 H 0.0917 0.6112 0.6070
H7 H 0.1850 0.4952 0.5375
C8 C 0.36834(15) 0.62853(15) 0.61076(7)
C9 C 0.39581(17) 0.56299(18) 0.68908(8)
H8 H 0.2986 0.5063 0.7157
C10 C 0.55946(18) 0.57744(19) 0.72955(7)
H9 H 0.5742 0.5315 0.7831
C11 C 0.9071(2) 0.6037(3) 0.80161(9)
H10 H 1.0326 0.6270 0.8176
H11 H 0.8871 0.4741 0.7982
H12 H 0.8271 0.6553 0.8422
loop_
_geom_bond_atom_site_label_1
_geom_bond_atom_site_label_2
_geom_bond_site_symmetry_1
_geom_bond_site_symmetry_2
O1 C4 1_555 1_555
O2 C1 1_555 1_555
C1 C2 1_555 1_555
C2 H1 1_555 1_555
C3 C2 1_555 1_555
C4 C3 1_555 1_555
C5 C4 1_555 1_555
H2 C5 1_555 1_555
H3 C5 1_555 1_555
C6 C5 1_555 1_555
H4 C6 1_555 1_555
H5 C6 1_555 1_555
C7 C6 1_555 1_555
H6 C7 1_555 1_555
H7 C7 1_555 1_555
C8 C3 1_555 1_555
C9 C8 1_555 1_555
H8 C9 1_555 1_555
C10 C1 1_555 1_555
H9 C10 1_555 1_555
C11 O2 1_555 1_555
H10 C11 1_555 1_555
H11 C11 1_555 1_555
H12 C11 1_555 1_555
C7 C8 1_555 1_555
C9 C10 1_555 1_555

#END
