
#######################################################################
#
#                 Cambridge Crystallographic Data Centre
#                                CCDC 
#
#######################################################################
#
# If this CIF has been generated from an entry in the Cambridge 
# Structural Database, then it will include bibliographic, chemical, 
# crystal, experimental, refinement or atomic coordinate data resulting 
# from the CCDC's data processing and validation procedures.
#
#######################################################################

data_EVASIE
_chemical_name_common            2-(4-Methylphenyl)benzonitrile
_chemical_formula_moiety         'C14 H11 N1'
_chemical_name_systematic        4'-Methylbiphenyl-2-carbonitrile
_symmetry_cell_setting           orthorhombic
_symmetry_space_group_name_H-M   'P 21 21 21'
_symmetry_Int_Tables_number      19
_space_group_name_Hall           'P 2ac 2ab'
loop_
_symmetry_equiv_pos_site_id
_symmetry_equiv_pos_as_xyz
1 x,y,z
2 1/2-x,-y,1/2+z
3 -x,1/2+y,1/2-z
4 1/2+x,1/2-y,-z
_cell_length_a                   7.6726(4)
_cell_length_b                   11.4037(5)
_cell_length_c                   12.2426(5)
_cell_angle_alpha                90
_cell_angle_beta                 90
_cell_angle_gamma                90
_cell_volume                     1071.18
_exptl_crystal_colour            colorless
_exptl_crystal_description       block
_chemical_melting_point          '323-325 K'
_cell_formula_units_Z            4
_exptl_crystal_recrystallization_method methanol
loop_
_atom_site_label
_atom_site_type_symbol
_atom_site_fract_x
_atom_site_fract_y
_atom_site_fract_z
N1 N 0.2954(3) 0.53397(15) 0.51932(16)
C1 C 0.2409(3) 0.45620(16) 0.56640(15)
C2 C 0.1730(2) 0.36058(15) 0.62994(15)
C3 C 0.1706(3) 0.37476(16) 0.74343(15)
H1 H 0.2117 0.4456 0.7751
C4 C 0.1091(3) 0.28649(19) 0.80918(16)
H2 H 0.1060 0.2963 0.8862
C5 C 0.0518(3) 0.1835(2) 0.76255(16)
H3 H 0.0090 0.1223 0.8079
C6 C 0.0559(3) 0.16831(18) 0.65050(16)
H4 H 0.0171 0.0962 0.6202
C7 C 0.1155(2) 0.25620(15) 0.58127(13)
C8 C 0.1185(2) 0.23705(15) 0.46123(13)
C9 C 0.1780(3) 0.13095(16) 0.41890(16)
H5 H 0.2178 0.0715 0.4672
C10 C 0.1798(3) 0.11109(17) 0.30733(16)
H6 H 0.2211 0.0381 0.2804
C11 C 0.1230(3) 0.19495(18) 0.23447(15)
C12 C 0.0627(3) 0.30048(18) 0.27609(16)
H7 H 0.0224 0.3595 0.2275
C13 C 0.0604(2) 0.32112(16) 0.38739(15)
H8 H 0.0183 0.3941 0.4139
C14 C 0.1238(4) 0.1727(2) 0.11270(17)
H9 H 0.1788 0.2391 0.0753
H10 H 0.0038 0.1637 0.0867
H11 H 0.1895 0.1009 0.0972
loop_
_geom_bond_atom_site_label_1
_geom_bond_atom_site_label_2
_geom_bond_site_symmetry_1
_geom_bond_site_symmetry_2
N1 C1 1_555 1_555
C1 C2 1_555 1_555
C2 C3 1_555 1_555
C3 H1 1_555 1_555
C4 C3 1_555 1_555
H2 C4 1_555 1_555
C5 C4 1_555 1_555
H3 C5 1_555 1_555
C6 C5 1_555 1_555
H4 C6 1_555 1_555
C7 C2 1_555 1_555
C8 C7 1_555 1_555
C9 C8 1_555 1_555
H5 C9 1_555 1_555
C10 C9 1_555 1_555
H6 C10 1_555 1_555
C11 C10 1_555 1_555
C12 C11 1_555 1_555
H7 C12 1_555 1_555
C13 C8 1_555 1_555
H8 C13 1_555 1_555
C14 C11 1_555 1_555
H9 C14 1_555 1_555
H10 C14 1_555 1_555
H11 C14 1_555 1_555
C6 C7 1_555 1_555
C12 C13 1_555 1_555

#END
