
#######################################################################
#
#                 Cambridge Crystallographic Data Centre
#                                CCDC 
#
#######################################################################
#
# If this CIF has been generated from an entry in the Cambridge 
# Structural Database, then it will include bibliographic, chemical, 
# crystal, experimental, refinement or atomic coordinate data resulting 
# from the CCDC's data processing and validation procedures.
#
#######################################################################

data_EVATEA
_chemical_formula_moiety         'C78 H72 N4 O12,C1 H4 O1'
_chemical_name_systematic        
'7,13,21,27-tetraphenyl-29,31-bis(ethoxycarbonylmethoxy)-30,32-bis((2-pyridylmethylcarbamoyl)methoxy)-2,3,16,17-tetrahomo-3,17-dioxacalix(4)arene methanol solvate'
_symmetry_cell_setting           monoclinic
_symmetry_space_group_name_H-M   'P 21/c'
_symmetry_Int_Tables_number      14
_space_group_name_Hall           '-P 2ybc'
loop_
_symmetry_equiv_pos_site_id
_symmetry_equiv_pos_as_xyz
1 x,y,z
2 -x,1/2+y,1/2-z
3 -x,-y,-z
4 x,1/2-y,1/2+z
_cell_length_a                   23.3344(17)
_cell_length_b                   18.0917(14)
_cell_length_c                   16.1554(11)
_cell_angle_alpha                90
_cell_angle_beta                 97.563(2)
_cell_angle_gamma                90
_cell_volume                     6760.82
_exptl_crystal_colour            colorless
_chemical_melting_point          '271 deg.C'
_cell_formula_units_Z            4
_exptl_crystal_recrystallization_method chloroform/methanol
loop_
_atom_site_label
_atom_site_type_symbol
_atom_site_fract_x
_atom_site_fract_y
_atom_site_fract_z
O1 O 0.4029(1) 0.4620(2) 0.6785(2)
O2 O 0.5358(1) 0.4392(2) 0.5769(2)
O3 O 0.4689(2) 0.2601(2) 0.5469(3)
O4 O 0.5549(2) 0.2939(2) 0.6132(2)
O5 O 0.6391(1) 0.4028(2) 0.4719(2)
O6 O 0.6795(2) 0.2172(2) 0.4473(3)
N1 N 0.5965(2) 0.2791(2) 0.4130(2)
C1 C 0.5461(2) 0.4582(2) 0.6611(2)
C2 C 0.5040(2) 0.4906(2) 0.7017(2)
C3 C 0.5181(2) 0.5065(2) 0.7876(3)
C4 C 0.5723(2) 0.4928(2) 0.8310(2)
C5 C 0.6137(2) 0.4644(2) 0.7858(3)
C6 C 0.6023(2) 0.4480(2) 0.7006(2)
C7 C 0.5839(2) 0.5075(2) 0.9214(2)
C8 C 0.5568(2) 0.5652(3) 0.9570(3)
C9 C 0.5646(3) 0.5778(4) 1.0409(4)
C10 C 0.5989(3) 0.5320(4) 1.0934(3)
C11 C 0.6280(2) 0.4757(3) 1.0599(3)
C12 C 0.6204(2) 0.4635(3) 0.9743(3)
C13 C 0.6578(2) 0.4710(2) 0.5056(3)
C14 C 0.6637(2) 0.4827(2) 0.5911(3)
C15 C 0.6783(2) 0.5528(3) 0.6200(3)
C16 C 0.6859(2) 0.6116(3) 0.5668(3)
C17 C 0.6783(2) 0.5973(3) 0.4815(3)
C18 C 0.6647(2) 0.5279(3) 0.4496(3)
C19 C 0.7003(2) 0.6870(3) 0.6007(3)
C20 C 0.7365(2) 0.6959(3) 0.6757(4)
C21 C 0.7486(3) 0.7648(5) 0.7076(5)
C22 C 0.7250(3) 0.8261(4) 0.6660(6)
C23 C 0.6895(3) 0.8189(4) 0.5922(5)
C24 C 0.6767(2) 0.7496(3) 0.5607(4)
C25 C 0.6494(2) 0.4233(2) 0.6511(3)
C26 C 0.4458(2) 0.5141(2) 0.6596(3)
C27 C 0.3455(2) 0.4829(3) 0.6438(3)
C28 C 0.4914(2) 0.3873(3) 0.5504(3)
C29 C 0.5040(3) 0.3068(3) 0.5702(3)
C30 C 0.5667(3) 0.2178(3) 0.6356(4)
C31 C 0.6243(3) 0.2142(4) 0.6815(4)
C32 C 0.6808(2) 0.3450(3) 0.4749(3)
C33 C 0.6514(3) 0.2746(3) 0.4431(3)
C34 C 0.5622(2) 0.2166(3) 0.3791(3)
C35 C 0.5071(1) 0.2400(2) 0.3339(2)
C36 C 0.4721(2) 0.1924(1) 0.2820(2)
C37 C 0.4194(2) 0.2171(2) 0.2412(2)
C38 C 0.4017(1) 0.2894(2) 0.2524(2)
C39 C 0.4367(2) 0.3370(2) 0.3043(2)
N2 N 0.4894(1) 0.3123(2) 0.3450(2)
H1 H 0.5779 0.3265 0.4135
H2 H 0.4889 0.5275 0.8171
H3 H 0.6518 0.4556 0.8141
H4 H 0.5317 0.5973 0.9215
H5 H 0.5460 0.6191 1.0633
H6 H 0.6026 0.5391 1.1527
H7 H 0.6538 0.4447 1.0959
H8 H 0.6409 0.4238 0.9516
H9 H 0.6835 0.5614 0.6792
H10 H 0.6826 0.6372 0.4436
H11 H 0.7531 0.6533 0.7051
H12 H 0.7737 0.7704 0.7593
H13 H 0.7335 0.8744 0.6890
H14 H 0.6736 0.8619 0.5627
H15 H 0.6507 0.7444 0.5098
H16 H 0.6372 0.3794 0.6203
H17 H 0.6835 0.4114 0.6888
H18 H 0.4367 0.5624 0.6787
H19 H 0.4462 0.5164 0.6003
H20 H 0.3393 0.5339 0.6564
H21 H 0.3181 0.4539 0.6692
H22 H 0.4819 0.3919 0.4910
H23 H 0.4577 0.4010 0.5750
H24 H 0.5645 0.1878 0.5863
H25 H 0.5389 0.1999 0.6695
H26 H 0.6333 0.1638 0.6969
H27 H 0.6259 0.2439 0.7310
H28 H 0.6518 0.2323 0.6472
H29 H 0.7103 0.3578 0.4412
H30 H 0.6988 0.3381 0.5313
H31 H 0.5834 0.1895 0.3421
H32 H 0.5553 0.1843 0.4238
H33 H 0.4843 0.1425 0.2743
H34 H 0.3952 0.1842 0.2054
H35 H 0.3653 0.3064 0.2242
H36 H 0.4245 0.3869 0.3120
C27B C 0.6545(2) 0.5171(3) 0.3562(3)
O1B O 0.5971(1) 0.5380(2) 0.3215(2)
C26B C 0.5542(2) 0.4859(2) 0.3404(3)
C2B C 0.4960(2) 0.5094(2) 0.2983(2)
C1B C 0.4539(2) 0.5418(2) 0.3389(2)
O2B O 0.4642(1) 0.5608(2) 0.4231(2)
C28B C 0.5086(2) 0.6127(3) 0.4496(3)
C29B C 0.4960(3) 0.6932(3) 0.4298(3)
O3B O 0.5311(2) 0.7399(2) 0.4531(3)
O4B O 0.4451(2) 0.7061(2) 0.3868(2)
C30B C 0.4333(3) 0.7822(3) 0.3644(4)
C31B C 0.3757(3) 0.7858(4) 0.3185(4)
H26B H 0.3667 0.8362 0.3031
H27B H 0.3741 0.7561 0.2690
H28B H 0.3482 0.7677 0.3528
H24B H 0.4355 0.8122 0.4137
H25B H 0.4611 0.8001 0.3305
H22B H 0.5181 0.6081 0.5090
H23B H 0.5423 0.5990 0.4250
C6B C 0.3977(2) 0.5520(2) 0.2994(2)
C5B C 0.3863(2) 0.5356(2) 0.2142(3)
C4B C 0.4277(2) 0.5072(2) 0.1690(2)
C3B C 0.4819(2) 0.4935(2) 0.2124(3)
H2B H 0.5111 0.4725 0.1829
C7B C 0.4161(2) 0.4925(2) 0.0786(2)
C8B C 0.4432(2) 0.4348(3) 0.0430(3)
C9B C 0.4354(3) 0.4222(4) -0.0409(4)
C10B C 0.4011(3) 0.4680(4) -0.0934(3)
C11B C 0.3720(2) 0.5243(3) -0.0599(3)
C12B C 0.3796(2) 0.5365(3) 0.0257(3)
H8B H 0.3591 0.5762 0.0484
H7B H 0.3462 0.5553 -0.0959
H6B H 0.3974 0.4609 -0.1527
H5B H 0.4540 0.3809 -0.0633
H4B H 0.4683 0.4027 0.0785
H3B H 0.3482 0.5444 0.1859
C25B C 0.3506(2) 0.5767(2) 0.3489(3)
C14B C 0.3363(2) 0.5173(2) 0.4089(3)
C13B C 0.3422(2) 0.5290(2) 0.4944(3)
O5B O 0.3609(1) 0.5972(2) 0.5281(2)
C32B C 0.3192(2) 0.6550(3) 0.5251(3)
C33B C 0.3486(3) 0.7254(3) 0.5569(3)
O6B O 0.3205(2) 0.7828(2) 0.5527(3)
N1B N 0.4035(2) 0.7209(2) 0.5870(2)
C34B C 0.4378(2) 0.7834(3) 0.6209(3)
C35B C 0.4929(1) 0.7600(2) 0.6661(2)
C36B C 0.5279(2) 0.8076(1) 0.7180(2)
C37B C 0.5806(2) 0.7829(2) 0.7588(2)
C38B C 0.5983(1) 0.7106(2) 0.7476(2)
C39B C 0.5633(2) 0.6630(2) 0.6957(2)
N2B N 0.5106(1) 0.6877(2) 0.6550(2)
H36B H 0.5755 0.6131 0.6880
H35B H 0.6347 0.6936 0.7758
H34B H 0.6048 0.8158 0.7946
H33B H 0.5157 0.8575 0.7257
H31B H 0.4166 0.8105 0.6579
H32B H 0.4447 0.8157 0.5762
H1B H 0.4221 0.6735 0.5865
H29B H 0.2897 0.6422 0.5588
H30B H 0.3012 0.6619 0.4687
C18B C 0.3353(2) 0.4721(3) 0.5504(3)
C17B C 0.3217(2) 0.4027(3) 0.5185(3)
C16B C 0.3141(2) 0.3884(3) 0.4332(3)
C15B C 0.3217(2) 0.4472(3) 0.3800(3)
H9B H 0.3165 0.4386 0.3208
C19B C 0.2997(2) 0.3130(3) 0.3993(3)
C20B C 0.2635(2) 0.3041(3) 0.3243(4)
C21B C 0.2514(3) 0.2352(5) 0.2924(5)
C22B C 0.2750(3) 0.1739(4) 0.3340(6)
C23B C 0.3105(3) 0.1811(4) 0.4078(5)
C24B C 0.3233(2) 0.2504(3) 0.4393(4)
H15B H 0.3493 0.2556 0.4902
H14B H 0.3264 0.1381 0.4373
H13B H 0.2665 0.1256 0.3110
H12B H 0.2263 0.2296 0.2407
H11B H 0.2469 0.3467 0.2949
H10B H 0.3174 0.3628 0.5564
H16B H 0.3628 0.6206 0.3797
H17B H 0.3165 0.5886 0.3112
H18B H 0.5633 0.4376 0.3213
H19B H 0.5538 0.4836 0.3997
H20B H 0.6607 0.4661 0.3436
H21B H 0.6819 0.5461 0.3308
O7 O 0.0543(1) 0.7151(2) 0.5036(3)
O8 O -0.0454(1) 0.5568(2) 0.5289(2)
O9 O -0.0615(2) 0.5812(4) 0.6937(3)
O10 O 0.0328(2) 0.5838(4) 0.7309(4)
O11 O -0.1314(1) 0.4187(2) 0.6000(3)
O12 O -0.1805(4) 0.3351(5) 0.7728(5)
N3 N -0.0991(4) 0.3881(5) 0.7529(5)
C40 C -0.0728(2) 0.6202(3) 0.4958(3)
C41 C -0.0435(2) 0.6750(4) 0.4586(4)
C42 C -0.0744(2) 0.7371(3) 0.4281(3)
C43 C -0.1332(2) 0.7453(3) 0.4320(3)
C44 C -0.1613(2) 0.6851(3) 0.4637(3)
C45 C -0.1325(2) 0.6231(3) 0.4952(3)
C46 C -0.1637(2) 0.8144(4) 0.4027(4)
C47 C -0.1437(3) 0.8578(4) 0.3426(5)
C48 C -0.1704(3) 0.9240(4) 0.3177(5)
C49 C -0.2183(4) 0.9463(5) 0.3531(6)
C50 C -0.2399(3) 0.9020(5) 0.4086(5)
C51 C -0.2114(3) 0.8369(4) 0.4342(4)
C52 C -0.1470(2) 0.4227(4) 0.5123(4)
C53 C -0.1647(2) 0.4897(4) 0.4762(5)
C54 C -0.1808(2) 0.4890(4) 0.3905(5)
C55 C -0.1785(2) 0.4261(4) 0.3427(5)
C56 C -0.1586(2) 0.3613(4) 0.3811(4)
C57 C -0.1423(2) 0.3580(3) 0.4651(5)
C58 C -0.1941(2) 0.4268(4) 0.2512(5)
C59 C -0.1861(3) 0.4912(5) 0.2057(6)
C60 C -0.1983(4) 0.4923(6) 0.1216(7)
C61 C -0.2185(4) 0.4313(8) 0.0777(6)
C62 C -0.2279(3) 0.3659(6) 0.1205(7)
C63 C -0.2161(3) 0.3637(4) 0.2082(6)
C64 C -0.1644(2) 0.5590(3) 0.5287(4)
C65 C 0.0195(2) 0.6685(3) 0.4454(4)
C66 C 0.1151(2) 0.7123(3) 0.4945(4)
C67 C 0.0025(2) 0.5652(3) 0.5936(4)
C68 C -0.0134(3) 0.5762(4) 0.6769(5)
C69 C 0.0261(5) 0.5833(11) 0.8197(7)
C70 C 0.0544(6) 0.6335(9) 0.8559(10)
C71 C -0.1767(3) 0.3961(5) 0.6465(6)
C72 C -0.1515(6) 0.3701(6) 0.7303(7)
C73 C -0.0694(5) 0.3659(10) 0.8337(9)
C74 C -0.0113(2) 0.3503(3) 0.8197(3)
C75 C 0.0227(2) 0.2990(4) 0.8677(4)
C76 C 0.0802(2) 0.2891(4) 0.8560(5)
C77 C 0.1036(2) 0.3304(4) 0.7961(4)
C78 C 0.0695(2) 0.3817(4) 0.7480(4)
N4 N 0.0121(2) 0.3916(3) 0.7598(3)
H37 H -0.0788 0.4168 0.7160
H38 H -0.0543 0.7758 0.4032
H39 H -0.2025 0.6874 0.4633
H40 H -0.1107 0.8420 0.3175
H41 H -0.1558 0.9541 0.2763
H42 H -0.2362 0.9930 0.3382
H43 H -0.2747 0.9155 0.4304
H44 H -0.2262 0.8070 0.4757
H45 H -0.1940 0.5342 0.3632
H46 H -0.1561 0.3176 0.3480
H47 H -0.1717 0.5351 0.2348
H48 H -0.1925 0.5371 0.0920
H49 H -0.2262 0.4330 0.0179
H50 H -0.2423 0.3227 0.0901
H51 H -0.2232 0.3195 0.2381
H52 H -0.2036 0.5736 0.5317
H53 H -0.1467 0.5479 0.5843
H54 H 0.0320 0.6181 0.4531
H55 H 0.0239 0.6828 0.3893
H56 H 0.1343 0.7548 0.5205
H57 H 0.1196 0.7130 0.4363
H58 H 0.0252 0.6067 0.5801
H59 H 0.0264 0.5220 0.5943
H60 H -0.0140 0.5893 0.8261
H61 H 0.0389 0.5367 0.8439
H62 H 0.0490 0.6335 0.9138
H63 H 0.0418 0.6799 0.8311
H64 H 0.0946 0.6264 0.8511
H65 H -0.2022 0.4370 0.6520
H66 H -0.1988 0.3571 0.6174
H67 H -0.0872 0.3229 0.8539
H68 H -0.0701 0.4050 0.8738
H69 H 0.0066 0.2704 0.9091
H70 H 0.1037 0.2536 0.8892
H71 H 0.1432 0.3236 0.7880
H72 H 0.0857 0.4103 0.7067
C66B C -0.1151(2) 0.2877(3) 0.5055(4)
O7B O -0.0543(1) 0.2849(2) 0.4964(3)
C65B C -0.0195(2) 0.3315(3) 0.5546(4)
C41B C 0.0435(2) 0.3250(4) 0.5414(4)
C40B C 0.0728(2) 0.3798(3) 0.5042(3)
O8B O 0.0454(1) 0.4432(2) 0.4711(2)
C67B C -0.0025(2) 0.4348(3) 0.4064(4)
C68B C 0.0134(3) 0.4238(4) 0.3231(5)
O9B O 0.0615(2) 0.4188(4) 0.3063(3)
O10B O -0.0328(2) 0.4162(4) 0.2691(4)
C69B C -0.0261(5) 0.4167(11) 0.1803(7)
C70B C -0.0544(6) 0.3665(9) 0.1441(10)
H62B H -0.0490 0.3665 0.0862
H63B H -0.0418 0.3201 0.1689
H64B H -0.0946 0.3736 0.1489
H60B H 0.0140 0.4107 0.1739
H61B H -0.0389 0.4633 0.1561
H58B H -0.0252 0.3933 0.4199
H59B H -0.0264 0.4780 0.4057
C45B C 0.1325(2) 0.3769(3) 0.5048(3)
C44B C 0.1613(2) 0.3149(3) 0.5363(3)
C43B C 0.1332(2) 0.2547(3) 0.5680(3)
C42B C 0.0744(2) 0.2629(3) 0.5719(3)
H38B H 0.0543 0.2242 0.5968
C46B C 0.1637(2) 0.1856(4) 0.5973(4)
C47B C 0.1437(3) 0.1422(4) 0.6574(5)
C48B C 0.1704(3) 0.0760(4) 0.6823(5)
C49B C 0.2183(4) 0.0537(5) 0.6469(6)
C50B C 0.2399(3) 0.0980(5) 0.5914(5)
C51B C 0.2114(3) 0.1631(4) 0.5658(4)
H44B H 0.2262 0.1930 0.5243
H43B H 0.2747 0.0845 0.5696
H42B H 0.2362 0.0070 0.6618
H41B H 0.1558 0.0459 0.7237
H40B H 0.1107 0.1580 0.6825
H39B H 0.2025 0.3126 0.5367
C64B C 0.1644(2) 0.4410(3) 0.4713(4)
C53B C 0.1647(2) 0.5103(4) 0.5238(5)
C52B C 0.1470(2) 0.5773(4) 0.4877(4)
O11B O 0.1314(1) 0.5813(2) 0.4000(3)
C71B C 0.1767(3) 0.6039(5) 0.3535(6)
C72B C 0.1515(6) 0.6299(6) 0.2697(7)
O12B O 0.1805(4) 0.6649(5) 0.2272(5)
N3B N 0.0991(4) 0.6119(5) 0.2471(5)
C73B C 0.0694(5) 0.6341(10) 0.1663(9)
C74B C 0.0113(2) 0.6497(3) 0.1803(3)
C75B C -0.0227(2) 0.7010(4) 0.1323(4)
C76B C -0.0802(2) 0.7109(4) 0.1440(5)
C77B C -0.1036(2) 0.6696(4) 0.2039(4)
C78B C -0.0695(2) 0.6183(4) 0.2520(4)
N4B N -0.0121(2) 0.6084(3) 0.2402(3)
H72B H -0.0857 0.5897 0.2933
H71B H -0.1432 0.6764 0.2120
H70B H -0.1037 0.7464 0.1108
H69B H -0.0066 0.7296 0.0909
H67B H 0.0872 0.6771 0.1461
H68B H 0.0701 0.5950 0.1262
H37B H 0.0788 0.5832 0.2840
H65B H 0.2022 0.5630 0.3480
H66B H 0.1988 0.6429 0.3826
C57B C 0.1423(2) 0.6420(3) 0.5349(5)
C56B C 0.1586(2) 0.6387(4) 0.6189(4)
C55B C 0.1785(2) 0.5739(4) 0.6573(5)
C54B C 0.1808(2) 0.5110(4) 0.6095(5)
H45B H 0.1940 0.4658 0.6368
C58B C 0.1941(2) 0.5732(4) 0.7488(5)
C59B C 0.1861(3) 0.5088(5) 0.7943(6)
C60B C 0.1983(4) 0.5077(6) 0.8784(7)
C61B C 0.2185(4) 0.5687(8) 0.9223(6)
C62B C 0.2279(3) 0.6341(6) 0.8795(7)
C63B C 0.2161(3) 0.6363(4) 0.7918(6)
H51B H 0.2232 0.6805 0.7619
H50B H 0.2423 0.6773 0.9099
H49B H 0.2262 0.5670 0.9821
H48B H 0.1925 0.4629 0.9080
H47B H 0.1717 0.4649 0.7652
H46B H 0.1561 0.6824 0.6520
H52B H 0.2036 0.4264 0.4683
H53B H 0.1467 0.4521 0.4157
H54B H -0.0320 0.3819 0.5469
H55B H -0.0239 0.3172 0.6107
H56B H -0.1343 0.2452 0.4795
H57B H -0.1196 0.2870 0.5637
O13 O 0.2663(2) 0.6377(6) 0.1634(6)
C79 C 0.2120(3) 0.6802(6) 0.0882(6)
loop_
_geom_bond_atom_site_label_1
_geom_bond_atom_site_label_2
_geom_bond_site_symmetry_1
_geom_bond_site_symmetry_2
O1 C26 1_555 1_555
O2 C1 1_555 1_555
O3 C29 1_555 1_555
O4 C29 1_555 1_555
O5 C13 1_555 1_555
O6 C33 1_555 1_555
N1 C33 1_555 1_555
C1 C2 1_555 1_555
C2 C3 1_555 1_555
C3 C4 1_555 1_555
C4 C5 1_555 1_555
C5 C6 1_555 1_555
C6 C1 1_555 1_555
C7 C4 1_555 1_555
C8 C7 1_555 1_555
C9 C8 1_555 1_555
C10 C9 1_555 1_555
C11 C10 1_555 1_555
C12 C7 1_555 1_555
C13 C14 1_555 1_555
C14 C15 1_555 1_555
C15 C16 1_555 1_555
C16 C17 1_555 1_555
C17 C18 1_555 1_555
C18 C13 1_555 1_555
C19 C16 1_555 1_555
C20 C19 1_555 1_555
C21 C20 1_555 1_555
C22 C21 1_555 1_555
C23 C22 1_555 1_555
C24 C19 1_555 1_555
C25 C6 1_555 1_555
C26 C2 1_555 1_555
C27 O1 1_555 1_555
C28 O2 1_555 1_555
C29 C28 1_555 1_555
C30 O4 1_555 1_555
C31 C30 1_555 1_555
C32 O5 1_555 1_555
C33 C32 1_555 1_555
C34 N1 1_555 1_555
C35 C34 1_555 1_555
C36 C35 1_555 1_555
C37 C36 1_555 1_555
C38 C37 1_555 1_555
C39 C38 1_555 1_555
N2 C35 1_555 1_555
O7 C65 1_555 1_555
O8 C40 1_555 1_555
O9 C68 1_555 1_555
O10 C68 1_555 1_555
O11 C52 1_555 1_555
O12 C72 1_555 1_555
N3 C72 1_555 1_555
C40 C41 1_555 1_555
C41 C42 1_555 1_555
C42 C43 1_555 1_555
C43 C44 1_555 1_555
C44 C45 1_555 1_555
C45 C40 1_555 1_555
C46 C43 1_555 1_555
C47 C46 1_555 1_555
C48 C47 1_555 1_555
C49 C48 1_555 1_555
C50 C49 1_555 1_555
C51 C46 1_555 1_555
C52 C53 1_555 1_555
C53 C54 1_555 1_555
C54 C55 1_555 1_555
C55 C56 1_555 1_555
C56 C57 1_555 1_555
C57 C52 1_555 1_555
C58 C55 1_555 1_555
C59 C58 1_555 1_555
C60 C59 1_555 1_555
C61 C60 1_555 1_555
C62 C61 1_555 1_555
C63 C58 1_555 1_555
C64 C45 1_555 1_555
C65 C41 1_555 1_555
C66 O7 1_555 1_555
C67 O8 1_555 1_555
C68 C67 1_555 1_555
C69 O10 1_555 1_555
C70 C69 1_555 1_555
C71 O11 1_555 1_555
C72 C71 1_555 1_555
C73 N3 1_555 1_555
C74 C73 1_555 1_555
C75 C74 1_555 1_555
C76 C75 1_555 1_555
C77 C76 1_555 1_555
C78 C77 1_555 1_555
N4 C74 1_555 1_555
O13 C79 1_555 1_555
H1 N1 1_555 1_555
H2 C3 1_555 1_555
H3 C5 1_555 1_555
H4 C8 1_555 1_555
H5 C9 1_555 1_555
H6 C10 1_555 1_555
H7 C11 1_555 1_555
H8 C12 1_555 1_555
H9 C15 1_555 1_555
H10 C17 1_555 1_555
H11 C20 1_555 1_555
H12 C21 1_555 1_555
H13 C22 1_555 1_555
H14 C23 1_555 1_555
H15 C24 1_555 1_555
H16 C25 1_555 1_555
H17 C25 1_555 1_555
H18 C26 1_555 1_555
H19 C26 1_555 1_555
H20 C27 1_555 1_555
H21 C27 1_555 1_555
H22 C28 1_555 1_555
H23 C28 1_555 1_555
H24 C30 1_555 1_555
H25 C30 1_555 1_555
H26 C31 1_555 1_555
H27 C31 1_555 1_555
H28 C31 1_555 1_555
H29 C32 1_555 1_555
H30 C32 1_555 1_555
H31 C34 1_555 1_555
H32 C34 1_555 1_555
H33 C36 1_555 1_555
H34 C37 1_555 1_555
H35 C38 1_555 1_555
H36 C39 1_555 1_555
H37 N3 1_555 1_555
H38 C42 1_555 1_555
H39 C44 1_555 1_555
H40 C47 1_555 1_555
H41 C48 1_555 1_555
H42 C49 1_555 1_555
H43 C50 1_555 1_555
H44 C51 1_555 1_555
H45 C54 1_555 1_555
H46 C56 1_555 1_555
H47 C59 1_555 1_555
H48 C60 1_555 1_555
H49 C61 1_555 1_555
H50 C62 1_555 1_555
H51 C63 1_555 1_555
H52 C64 1_555 1_555
H53 C64 1_555 1_555
H54 C65 1_555 1_555
H55 C65 1_555 1_555
H56 C66 1_555 1_555
H57 C66 1_555 1_555
H58 C67 1_555 1_555
H59 C67 1_555 1_555
H60 C69 1_555 1_555
H61 C69 1_555 1_555
H62 C70 1_555 1_555
H63 C70 1_555 1_555
H64 C70 1_555 1_555
H65 C71 1_555 1_555
H66 C71 1_555 1_555
H67 C73 1_555 1_555
H68 C73 1_555 1_555
H69 C75 1_555 1_555
H70 C76 1_555 1_555
H71 C77 1_555 1_555
H72 C78 1_555 1_555
C27B C18 1_555 1_555
O1B C27B 1_555 1_555
C26B O1B 1_555 1_555
C2B C26B 1_555 1_555
C1B C2B 1_555 1_555
O2B C1B 1_555 1_555
C28B O2B 1_555 1_555
C29B C28B 1_555 1_555
O3B C29B 1_555 1_555
O4B C29B 1_555 1_555
C30B O4B 1_555 1_555
C31B C30B 1_555 1_555
H26B C31B 1_555 1_555
H27B C31B 1_555 1_555
H28B C31B 1_555 1_555
H24B C30B 1_555 1_555
H25B C30B 1_555 1_555
H22B C28B 1_555 1_555
H23B C28B 1_555 1_555
C6B C1B 1_555 1_555
C5B C6B 1_555 1_555
C4B C5B 1_555 1_555
C3B C2B 1_555 1_555
H2B C3B 1_555 1_555
C7B C4B 1_555 1_555
C8B C7B 1_555 1_555
C9B C8B 1_555 1_555
C10B C9B 1_555 1_555
C11B C10B 1_555 1_555
C12B C7B 1_555 1_555
H8B C12B 1_555 1_555
H7B C11B 1_555 1_555
H6B C10B 1_555 1_555
H5B C9B 1_555 1_555
H4B C8B 1_555 1_555
H3B C5B 1_555 1_555
C25B C6B 1_555 1_555
C14B C25B 1_555 1_555
C13B C14B 1_555 1_555
O5B C13B 1_555 1_555
C32B O5B 1_555 1_555
C33B C32B 1_555 1_555
O6B C33B 1_555 1_555
N1B C33B 1_555 1_555
C34B N1B 1_555 1_555
C35B C34B 1_555 1_555
C36B C35B 1_555 1_555
C37B C36B 1_555 1_555
C38B C37B 1_555 1_555
C39B C38B 1_555 1_555
N2B C35B 1_555 1_555
H36B C39B 1_555 1_555
H35B C38B 1_555 1_555
H34B C37B 1_555 1_555
H33B C36B 1_555 1_555
H31B C34B 1_555 1_555
H32B C34B 1_555 1_555
H1B N1B 1_555 1_555
H29B C32B 1_555 1_555
H30B C32B 1_555 1_555
C18B C27 1_555 1_555
C17B C18B 1_555 1_555
C16B C17B 1_555 1_555
C15B C14B 1_555 1_555
H9B C15B 1_555 1_555
C19B C16B 1_555 1_555
C20B C19B 1_555 1_555
C21B C20B 1_555 1_555
C22B C21B 1_555 1_555
C23B C22B 1_555 1_555
C24B C19B 1_555 1_555
H15B C24B 1_555 1_555
H14B C23B 1_555 1_555
H13B C22B 1_555 1_555
H12B C21B 1_555 1_555
H11B C20B 1_555 1_555
H10B C17B 1_555 1_555
H16B C25B 1_555 1_555
H17B C25B 1_555 1_555
H18B C26B 1_555 1_555
H19B C26B 1_555 1_555
H20B C27B 1_555 1_555
H21B C27B 1_555 1_555
C66B C57 1_555 1_555
O7B C66B 1_555 1_555
C65B O7B 1_555 1_555
C41B C65B 1_555 1_555
C40B C41B 1_555 1_555
O8B C40B 1_555 1_555
C67B O8B 1_555 1_555
C68B C67B 1_555 1_555
O9B C68B 1_555 1_555
O10B C68B 1_555 1_555
C69B O10B 1_555 1_555
C70B C69B 1_555 1_555
H62B C70B 1_555 1_555
H63B C70B 1_555 1_555
H64B C70B 1_555 1_555
H60B C69B 1_555 1_555
H61B C69B 1_555 1_555
H58B C67B 1_555 1_555
H59B C67B 1_555 1_555
C45B C40B 1_555 1_555
C44B C45B 1_555 1_555
C43B C44B 1_555 1_555
C42B C41B 1_555 1_555
H38B C42B 1_555 1_555
C46B C43B 1_555 1_555
C47B C46B 1_555 1_555
C48B C47B 1_555 1_555
C49B C48B 1_555 1_555
C50B C49B 1_555 1_555
C51B C46B 1_555 1_555
H44B C51B 1_555 1_555
H43B C50B 1_555 1_555
H42B C49B 1_555 1_555
H41B C48B 1_555 1_555
H40B C47B 1_555 1_555
H39B C44B 1_555 1_555
C64B C45B 1_555 1_555
C53B C64B 1_555 1_555
C52B C53B 1_555 1_555
O11B C52B 1_555 1_555
C71B O11B 1_555 1_555
C72B C71B 1_555 1_555
O12B C72B 1_555 1_555
N3B C72B 1_555 1_555
C73B N3B 1_555 1_555
C74B C73B 1_555 1_555
C75B C74B 1_555 1_555
C76B C75B 1_555 1_555
C77B C76B 1_555 1_555
C78B C77B 1_555 1_555
N4B C74B 1_555 1_555
H72B C78B 1_555 1_555
H71B C77B 1_555 1_555
H70B C76B 1_555 1_555
H69B C75B 1_555 1_555
H67B C73B 1_555 1_555
H68B C73B 1_555 1_555
H37B N3B 1_555 1_555
H65B C71B 1_555 1_555
H66B C71B 1_555 1_555
C57B C66 1_555 1_555
C56B C57B 1_555 1_555
C55B C56B 1_555 1_555
C54B C53B 1_555 1_555
H45B C54B 1_555 1_555
C58B C55B 1_555 1_555
C59B C58B 1_555 1_555
C60B C59B 1_555 1_555
C61B C60B 1_555 1_555
C62B C61B 1_555 1_555
C63B C58B 1_555 1_555
H51B C63B 1_555 1_555
H50B C62B 1_555 1_555
H49B C61B 1_555 1_555
H48B C60B 1_555 1_555
H47B C59B 1_555 1_555
H46B C56B 1_555 1_555
H52B C64B 1_555 1_555
H53B C64B 1_555 1_555
H54B C65B 1_555 1_555
H55B C65B 1_555 1_555
H56B C66B 1_555 1_555
H57B C66B 1_555 1_555
C11 C12 1_555 1_555
C14 C25 1_555 1_555
C23 C24 1_555 1_555
C39 N2 1_555 1_555
C50 C51 1_555 1_555
C53 C64 1_555 1_555
C62 C63 1_555 1_555
C78 N4 1_555 1_555
C4B C3B 1_555 1_555
C11B C12B 1_555 1_555
C13B C18B 1_555 1_555
C39B N2B 1_555 1_555
C16B C15B 1_555 1_555
C23B C24B 1_555 1_555
C43B C42B 1_555 1_555
C50B C51B 1_555 1_555
C52B C57B 1_555 1_555
C78B N4B 1_555 1_555
C55B C54B 1_555 1_555
C62B C63B 1_555 1_555

#END
