
#######################################################################
#
#                 Cambridge Crystallographic Data Centre
#                                CCDC 
#
#######################################################################
#
# If this CIF has been generated from an entry in the Cambridge 
# Structural Database, then it will include bibliographic, chemical, 
# crystal, experimental, refinement or atomic coordinate data resulting 
# from the CCDC's data processing and validation procedures.
#
#######################################################################

data_EVAZOQ
_chemical_formula_moiety         'C21 H30 F2 N2 O3'
_chemical_name_systematic        
N-((1R)-1-Phenylethyl)-(5S,2E)-5-(t-butoxycarbonylamino)-4,4-difluoro-6-methylhept-2-enamide
_symmetry_cell_setting           monoclinic
_symmetry_space_group_name_H-M   'P 21'
_symmetry_Int_Tables_number      4
_space_group_name_Hall           'P 2yb'
loop_
_symmetry_equiv_pos_site_id
_symmetry_equiv_pos_as_xyz
1 x,y,z
2 -x,1/2+y,-z
_cell_length_a                   16.285(2)
_cell_length_b                   26.787(4)
_cell_length_c                   5.1250(6)
_cell_angle_alpha                90
_cell_angle_beta                 98.05(1)
_cell_angle_gamma                90
_cell_volume                     2213.63
_exptl_crystal_colour            colorless
_exptl_crystal_description       prismatic
_chemical_melting_point          188-190deg.C
_cell_formula_units_Z            4
_exptl_crystal_recrystallization_method 'ethyl acetate/n-hexane'
loop_
_atom_site_label
_atom_site_type_symbol
_atom_site_fract_x
_atom_site_fract_y
_atom_site_fract_z
F1 F -0.1762(3) -0.0161 0.069(1)
F2 F -0.2499(3) -0.0223(3) -0.314(1)
O1 O -0.0510(5) 0.1102(3) -0.483(1)
O2 O -0.0016(4) -0.0537(4) -0.560(1)
O3 O 0.0883(4) -0.0400(4) -0.183(1)
N1 N -0.0107(5) 0.1305(4) -0.058(2)
N2 N -0.0395(4) -0.0632(4) -0.149(1)
C1 C 0.1584(7) -0.0250(6) -0.322(2)
C2 C 0.182(1) -0.0696(8) -0.479(3)
C3 C 0.1374(9) 0.0183(7) -0.485(3)
C4 C 0.2259(10) -0.011(1) -0.093(3)
C5 C 0.0151(6) -0.0521(5) -0.324(2)
C6 C -0.1262(6) -0.0697(5) -0.245(2)
C7 C -0.0894(6) 0.0563(5) -0.137(2)
C8 C -0.1309(6) 0.0253(5) -0.291(2)
C9 C -0.1705(6) -0.0203(5) -0.190(2)
C10 C -0.0494(6) 0.1019(5) -0.251(2)
C11 C -0.1576(8) -0.1168(5) -0.110(3)
C12 C -0.120(1) -0.1613(7) -0.226(5)
C13 C 0.1114(8) 0.1809(6) 0.096(3)
C14 C 0.0365(7) 0.1760(5) -0.105(2)
C15 C -0.2502(10) -0.1219(8) -0.144(5)
C16 C -0.0210(7) 0.2220(5) -0.114(2)
C17 C -0.0800(9) 0.2290(6) 0.051(3)
C18 C -0.011(1) 0.2619(7) -0.281(3)
C20 C -0.1270(9) 0.2724(7) 0.041(3)
C21 C -0.052(1) 0.3053(7) -0.285(4)
C22 C -0.112(1) 0.3096(7) -0.124(5)
H1 H 0.001(6) 0.123(3) 0.14(2)
H2 H -0.138(6) -0.074(4) -0.42(2)
H3 H -0.091(6) 0.053(3) 0.06(2)
H4 H -0.142(6) 0.031(4) -0.48(2)
H5 H 0.147(6) 0.149(4) 0.07(2)
H6 H 0.139(7) 0.209(5) 0.07(2)
H7 H 0.096(6) 0.183(4) 0.29(2)
H8 H 0.047(5) 0.172(3) -0.31(2)
H9 H -0.084(6) 0.201(5) 0.19(2)
H10 H 0.024(7) 0.256(4) -0.43(2)
H11 H -0.163(6) 0.275(4) 0.20(2)
H12 H -0.050(6) 0.334(4) -0.42(2)
H13 H -0.138(7) 0.338(4) -0.12(2)
H14 H -0.023(5) -0.066(4) 0.04(2)
H15 H 0.154(8) -0.075(5) -0.63(2)
H16 H 0.234(8) -0.051(5) -0.53(2)
H17 H 0.198(7) -0.097(4) -0.37(2)
H18 H 0.123(6) 0.048(4) -0.39(2)
H19 H 0.180(6) 0.034(4) -0.60(2)
H20 H 0.096(5) 0.015(3) -0.64(2)
H21 H 0.230(7) -0.037(4) 0.04(2)
H22 H 0.265(7) -0.006(4) -0.20(2)
H23 H 0.208(8) 0.019(5) 0.01(3)
H24 H -0.154(6) -0.121(4) 0.09(2)
H25 H -0.137(7) -0.197(5) -0.20(2)
H26 H -0.143(7) -0.165(4) -0.40(2)
H27 H -0.059(7) -0.157(4) -0.18(2)
H28 H -0.291(7) -0.098(4) -0.05(2)
H29 H -0.281(9) -0.121(6) -0.32(3)
H30 H -0.262(6) -0.156(4) -0.04(2)
F3 F -0.2604(3) -0.3586(3) -0.693(1)
F4 F -0.3282(3) -0.3527(3) -0.3552(9)
O4 O -0.4513(4) -0.5020(3) -0.844(1)
O5 O -0.5059(4) -0.3351(4) -1.205(1)
O6 O -0.6025(4) -0.3488(4) -0.941(1)
N3 N -0.4727(6) -0.5147(4) -0.420(2)
N4 N -0.4779(4) -0.3262(4) -0.764(1)
C19 C -0.2772(10) -0.2526(7) -0.640(5)
C23 C -0.3675(8) -0.2653(5) -0.652(2)
C24 C -0.414(1) -0.2249(6) -0.818(4)
C25 C -0.3885(5) -0.3162(5) -0.760(2)
C26 C -0.3396(5) -0.3595(4) -0.620(2)
C27 C -0.3759(6) -0.4097(4) -0.690(2)
C28 C -0.5246(5) -0.3364(4) -0.980(2)
C29 C -0.4057(6) -0.4403(5) -0.523(2)
C30 C -0.4449(6) -0.4881(4) -0.616(2)
C31 C -0.688(1) -0.3214(7) -1.332(3)
C32 C -0.6670(6) -0.3629(6) -1.150(2)
C33 C -0.640(1) -0.4092(7) -1.292(3)
C34 C -0.741(1) -0.377(1) -1.009(3)
C35 C -0.3961(7) -0.6099(6) -0.217(3)
C36 C -0.5143(7) -0.5626(5) -0.473(2)
C37 C -0.5828(7) -0.5665(6) -0.293(2)
C38 C -0.4550(7) -0.6064(5) -0.429(2)
C39 C -0.3471(9) -0.6522(7) -0.179(3)
C40 C -0.465(1) -0.6450(6) -0.608(3)
C41 C -0.354(1) -0.6898(7) -0.358(4)
C42 C -0.413(1) -0.6863(6) -0.569(3)
H31 H -0.457(6) -0.506(4) -0.24(2)
H32 H -0.386(6) -0.417(4) -0.90(2)
H33 H -0.400(5) -0.431(3) -0.34(2)
H34 H -0.391(6) -0.585(4) -0.07(2)
H35 H -0.541(5) -0.562(4) -0.64(2)
H36 H -0.622(6) -0.539(3) -0.33(2)
H37 H -0.608(6) -0.601(4) -0.33(2)
H38 H -0.556(5) -0.561(3) -0.11(2)
H39 H -0.305(6) -0.653(4) 0.00(2)
H40 H -0.509(6) -0.640(4) -0.77(2)
H41 H -0.321(6) -0.714(4) -0.32(2)
H42 H -0.425(6) -0.713(4) -0.71(2)
H43 H -0.487(6) -0.331(4) -0.59(2)
H44 H -0.381(5) -0.319(3) -0.96(2)
H45 H -0.636(8) -0.313(4) -1.42(2)
H46 H -0.732(6) -0.322(4) -1.50(2)
H47 H -0.700(7) -0.294(4) -1.29(2)
H48 H -0.624(7) -0.438(4) -1.17(2)
H49 H -0.685(7) -0.420(5) -1.43(2)
H50 H -0.587(9) -0.401(5) -1.38(2)
H51 H -0.756(7) -0.347(5) -0.89(3)
H52 H -0.779(6) -0.385(3) -1.14(2)
H53 H -0.723(7) -0.394(5) -0.85(3)
H54 H -0.240(7) -0.272(4) -0.55(2)
H55 H -0.276(6) -0.254(4) -0.87(2)
H56 H -0.268(6) -0.218(4) -0.57(2)
H57 H -0.370(6) -0.262(3) -0.44(2)
H58 H -0.402(7) -0.193(4) -0.78(2)
H59 H -0.403(7) -0.232(5) -1.04(2)
H60 H -0.466(6) -0.233(4) -0.87(2)
loop_
_geom_bond_atom_site_label_1
_geom_bond_atom_site_label_2
_geom_bond_site_symmetry_1
_geom_bond_site_symmetry_2
F1 C9 1_555 1_555
F2 C9 1_555 1_555
F3 C26 1_555 1_555
F4 C26 1_555 1_555
O1 C10 1_555 1_555
O2 C5 1_555 1_555
O3 C1 1_555 1_555
O4 C30 1_555 1_555
O5 C28 1_555 1_555
O6 C28 1_555 1_555
N1 C10 1_555 1_555
N2 C5 1_555 1_555
N3 C30 1_555 1_555
N4 C25 1_555 1_555
C1 C2 1_555 1_555
C2 H15 1_555 1_555
C3 C1 1_555 1_555
C4 C1 1_555 1_555
C5 O3 1_555 1_555
C6 N2 1_555 1_555
C7 C8 1_555 1_555
C8 C9 1_555 1_555
C9 C6 1_555 1_555
C10 C7 1_555 1_555
C11 C6 1_555 1_555
C12 C11 1_555 1_555
C13 C14 1_555 1_555
C14 N1 1_555 1_555
C15 C11 1_555 1_555
C16 C14 1_555 1_555
C17 C16 1_555 1_555
C18 C16 1_555 1_555
C19 C23 1_555 1_555
C20 C17 1_555 1_555
C21 C18 1_555 1_555
C22 C20 1_555 1_555
C23 C24 1_555 1_555
C24 H58 1_555 1_555
C25 C23 1_555 1_555
C26 C25 1_555 1_555
C27 C26 1_555 1_555
C28 N4 1_555 1_555
C29 C27 1_555 1_555
C30 C29 1_555 1_555
C31 C32 1_555 1_555
C32 O6 1_555 1_555
C33 C32 1_555 1_555
C34 C32 1_555 1_555
C35 C38 1_555 1_555
C36 N3 1_555 1_555
C37 C36 1_555 1_555
C38 C36 1_555 1_555
C39 C35 1_555 1_555
C40 C38 1_555 1_555
C41 C39 1_555 1_555
C42 C40 1_555 1_555
H1 N1 1_555 1_555
H2 C6 1_555 1_555
H3 C7 1_555 1_555
H4 C8 1_555 1_555
H5 C13 1_555 1_555
H6 C13 1_555 1_555
H7 C13 1_555 1_555
H8 C14 1_555 1_555
H9 C17 1_555 1_555
H10 C18 1_555 1_555
H11 C20 1_555 1_555
H12 C21 1_555 1_555
H13 C22 1_555 1_555
H14 N2 1_555 1_555
H16 C2 1_555 1_555
H17 C2 1_555 1_555
H18 C3 1_555 1_555
H19 C3 1_555 1_555
H20 C3 1_555 1_555
H21 C4 1_555 1_555
H22 C4 1_555 1_555
H23 C4 1_555 1_555
H24 C11 1_555 1_555
H25 C12 1_555 1_555
H26 C12 1_555 1_555
H27 C12 1_555 1_555
H28 C15 1_555 1_555
H29 C15 1_555 1_555
H30 C15 1_555 1_555
H31 N3 1_555 1_555
H32 C27 1_555 1_555
H33 C29 1_555 1_555
H34 C35 1_555 1_555
H35 C36 1_555 1_555
H36 C37 1_555 1_555
H37 C37 1_555 1_555
H38 C37 1_555 1_555
H39 C39 1_555 1_555
H40 C40 1_555 1_555
H41 C41 1_555 1_555
H42 C42 1_555 1_555
H43 N4 1_555 1_555
H44 C25 1_555 1_555
H45 C31 1_555 1_555
H46 C31 1_555 1_555
H47 C31 1_555 1_555
H48 C33 1_555 1_555
H49 C33 1_555 1_555
H50 C33 1_555 1_555
H51 C34 1_555 1_555
H52 C34 1_555 1_555
H53 C34 1_555 1_555
H54 C19 1_555 1_555
H55 C19 1_555 1_555
H56 C19 1_555 1_555
H57 C23 1_555 1_555
H59 C24 1_555 1_555
H60 C24 1_555 1_555
C21 C22 1_555 1_555
C41 C42 1_555 1_555

#END
