
#######################################################################
#
#                 Cambridge Crystallographic Data Centre
#                                CCDC 
#
#######################################################################
#
# If this CIF has been generated from an entry in the Cambridge 
# Structural Database, then it will include bibliographic, chemical, 
# crystal, experimental, refinement or atomic coordinate data resulting 
# from the CCDC's data processing and validation procedures.
#
#######################################################################

data_EVAZUW
_chemical_formula_moiety         'C25 H30 F2 N2 O3'
_chemical_name_systematic        
N-((1R)-1-Phenylethyl)-(5R,2E)-5-(N-(t-butoxycarbonyl)amino)-4,4-difluoro-6-phenylhex-2-enamide
_symmetry_cell_setting           orthorhombic
_symmetry_space_group_name_H-M   'P 21 21 21'
_symmetry_Int_Tables_number      19
_space_group_name_Hall           'P 2ac 2ab'
loop_
_symmetry_equiv_pos_site_id
_symmetry_equiv_pos_as_xyz
1 x,y,z
2 1/2-x,-y,1/2+z
3 1/2+x,1/2-y,-z
4 -x,1/2+y,1/2-z
_cell_length_a                   20.228(3)
_cell_length_b                   24.777(6)
_cell_length_c                   5.007(2)
_cell_angle_alpha                90
_cell_angle_beta                 90
_cell_angle_gamma                90
_cell_volume                     2509.45
_exptl_crystal_colour            colorless
_exptl_crystal_description       needle
_chemical_melting_point          209-211deg.C
_cell_formula_units_Z            4
loop_
_atom_site_label
_atom_site_type_symbol
_atom_site_fract_x
_atom_site_fract_y
_atom_site_fract_z
F1 F -0.2119 -0.1952 0.1176
F2 F -0.1492 -0.1976 -0.2315
O1 O -0.4197 -0.2464 -0.2972
O2 O -0.3429 -0.2480 -0.6234
O3 O -0.3246 -0.0665 -0.5013
N1 N -0.3144 -0.2508 -0.1928
N2 N -0.3537 -0.0392 -0.0884
C1 C -0.2307 -0.3529 -0.2475
C2 C -0.2903 -0.3778 -0.2002
C3 C -0.3075 -0.4232 -0.3376
C4 C -0.2668 -0.4427 -0.5341
C5 C -0.2086 -0.4172 -0.5909
C6 C -0.1908 -0.3734 -0.4407
C7 C -0.2120 -0.3011 -0.1099
C8 C -0.2439 -0.2522 -0.2395
C9 C -0.2146 -0.1992 -0.1570
C10 C -0.2491 -0.1503 -0.2682
C11 C -0.2836 -0.1167 -0.1348
C12 C -0.3218 -0.0732 -0.2636
C13 C -0.3956 0.0053 -0.1783
C14 C -0.3574 0.0575 -0.1882
C15 C -0.4572 0.0062 -0.0089
C16 C -0.4976 -0.0397 -0.0076
C17 C -0.4716 0.0503 0.1517
C18 C -0.4771 -0.2445 -0.4896
C19 C -0.4754 -0.2984 -0.6473
C20 C -0.5356 -0.2461 -0.2889
C21 C -0.4731 -0.1948 -0.6527
C22 C -0.3579 -0.2478 -0.3964
C23 C -0.5276 0.0498 0.3202
C24 C -0.5669 0.0051 0.3140
C25 C -0.5540 -0.0410 0.1582
H1 H -0.3302 -0.2505 -0.0093
H2 H -0.3492 -0.0460 0.1012
H3 H -0.3219 -0.3619 -0.0596
H4 H -0.3482 -0.4428 -0.2823
H5 H -0.2808 -0.4738 -0.6400
H6 H -0.1804 -0.4298 -0.7370
H7 H -0.1454 -0.3557 -0.4653
H8 H -0.2286 -0.3037 0.0706
H9 H -0.1662 -0.2975 -0.1068
H10 H -0.2376 -0.2570 -0.4296
H11 H -0.2459 -0.1443 -0.4603
H12 H -0.2841 -0.1204 0.0642
H13 H -0.4091 -0.0024 -0.3608
H14 H -0.3423 0.0653 -0.0091
H15 H -0.3201 0.0539 -0.3002
H16 H -0.3846 0.0860 -0.2463
H17 H -0.4871 -0.0702 -0.1086
H18 H -0.4426 0.0813 0.1446
H19 H -0.4805 -0.3274 -0.5382
H20 H -0.5102 -0.2985 -0.7854
H21 H -0.4341 -0.3013 -0.7483
H22 H -0.5287 -0.2094 -0.1688
H23 H -0.5762 -0.2379 -0.3673
H24 H -0.5335 -0.2719 -0.1729
H25 H -0.4318 -0.1910 -0.7588
H26 H -0.5082 -0.1899 -0.7858
H27 H -0.4742 -0.1605 -0.5491
H28 H -0.5351 0.0801 0.4270
H29 H -0.6036 0.0038 0.4415
H30 H -0.5796 -0.0713 0.1737
loop_
_geom_bond_atom_site_label_1
_geom_bond_atom_site_label_2
_geom_bond_site_symmetry_1
_geom_bond_site_symmetry_2
F1 C9 1_555 1_555
F2 C9 1_555 1_555
O1 C18 1_555 1_555
O2 C22 1_555 1_555
O3 C12 1_555 1_555
N1 C8 1_555 1_555
N2 C12 1_555 1_555
C1 C2 1_555 1_555
C2 C3 1_555 1_555
C3 C4 1_555 1_555
C4 C5 1_555 1_555
C5 C6 1_555 1_555
C6 C1 1_555 1_555
C7 C1 1_555 1_555
C8 C7 1_555 1_555
C9 C8 1_555 1_555
C10 C9 1_555 1_555
C11 C10 1_555 1_555
C12 C11 1_555 1_555
C13 N2 1_555 1_555
C14 C13 1_555 1_555
C15 C13 1_555 1_555
C16 C15 1_555 1_555
C17 C15 1_555 1_555
C18 C19 1_555 1_555
C19 H19 1_555 1_555
C20 C18 1_555 1_555
C21 C18 1_555 1_555
C22 O1 1_555 1_555
C23 C17 1_555 1_555
C24 C23 1_555 1_555
C25 C16 1_555 1_555
H1 N1 1_555 1_555
H2 N2 1_555 1_555
H3 C2 1_555 1_555
H4 C3 1_555 1_555
H5 C4 1_555 1_555
H6 C5 1_555 1_555
H7 C6 1_555 1_555
H8 C7 1_555 1_555
H9 C7 1_555 1_555
H10 C8 1_555 1_555
H11 C10 1_555 1_555
H12 C11 1_555 1_555
H13 C13 1_555 1_555
H14 C14 1_555 1_555
H15 C14 1_555 1_555
H16 C14 1_555 1_555
H17 C16 1_555 1_555
H18 C17 1_555 1_555
H20 C19 1_555 1_555
H21 C19 1_555 1_555
H22 C20 1_555 1_555
H23 C20 1_555 1_555
H24 C20 1_555 1_555
H25 C21 1_555 1_555
H26 C21 1_555 1_555
H27 C21 1_555 1_555
H28 C23 1_555 1_555
H29 C24 1_555 1_555
H30 C25 1_555 1_555
N1 C22 1_555 1_555
C24 C25 1_555 1_555

#END
