
#######################################################################
#
#                 Cambridge Crystallographic Data Centre
#                                CCDC 
#
#######################################################################
#
# If this CIF has been generated from an entry in the Cambridge 
# Structural Database, then it will include bibliographic, chemical, 
# crystal, experimental, refinement or atomic coordinate data resulting 
# from the CCDC's data processing and validation procedures.
#
#######################################################################

data_EVECUE
_chemical_formula_moiety         'C14 H11 N1 O3 S1'
_chemical_name_systematic        1-(5,5-Dioxo-10H-phenothiazin-10-yl)ethanone
_symmetry_cell_setting           monoclinic
_symmetry_space_group_name_H-M   'P 21/c'
_symmetry_Int_Tables_number      14
_space_group_name_Hall           '-P 2ybc'
loop_
_symmetry_equiv_pos_site_id
_symmetry_equiv_pos_as_xyz
1 x,y,z
2 -x,1/2+y,1/2-z
3 -x,-y,-z
4 x,1/2-y,1/2+z
_cell_length_a                   12.5715(6)
_cell_length_b                   8.7648(4)
_cell_length_c                   11.5828(5)
_cell_angle_alpha                90
_cell_angle_beta                 92.142(4)
_cell_angle_gamma                90
_cell_volume                     1275.38
_exptl_crystal_colour            colorless
_exptl_crystal_description       block
_chemical_melting_point          '485 K'
_cell_formula_units_Z            4
_exptl_crystal_recrystallization_method acetone/ethanol
loop_
_atom_site_label
_atom_site_type_symbol
_atom_site_fract_x
_atom_site_fract_y
_atom_site_fract_z
S1 S 0.27860(3) 0.53431(4) 0.88913(3)
O1 O 0.18673(10) 0.57759(15) 0.95043(10)
O2 O 0.34587(11) 0.41839(15) 0.93886(12)
O3 O 0.14803(10) 0.98466(14) 0.75069(12)
N1 N 0.22033(10) 0.75636(14) 0.71011(11)
C1 C 0.35385(12) 0.69784(18) 0.86054(13)
C2 C 0.44865(13) 0.7260(2) 0.92270(15)
H1 H 0.4745 0.6564 0.9801
C3 C 0.50395(14) 0.8569(2) 0.89904(17)
H2 H 0.5685 0.8793 0.9410
C4 C 0.46595(15) 0.9559(2) 0.81450(18)
H3 H 0.5045 1.0467 0.7999
C5 C 0.37288(14) 0.9262(2) 0.75021(15)
H4 H 0.3487 0.9941 0.6909
C6 C 0.31596(11) 0.79526(17) 0.77439(13)
C7 C 0.21083(11) 0.60193(17) 0.67173(13)
C8 C 0.18008(14) 0.5650(2) 0.55873(15)
H5 H 0.1651 0.6434 0.5038
C9 C 0.17142(16) 0.4131(2) 0.52666(16)
H6 H 0.1488 0.3881 0.4498
C10 C 0.19506(15) 0.2974(2) 0.60424(16)
H7 H 0.1866 0.1939 0.5814
C11 C 0.23104(13) 0.33228(18) 0.71510(15)
H8 H 0.2510 0.2536 0.7680
C12 C 0.23754(12) 0.48386(17) 0.74801(13)
C13 C 0.13555(12) 0.85896(18) 0.70914(14)
C14 C 0.03011(14) 0.8073(2) 0.65925(19)
H9 H -0.0254 0.8789 0.6816
H10 H 0.0140 0.7054 0.6886
H11 H 0.0326 0.8039 0.5748
loop_
_geom_bond_atom_site_label_1
_geom_bond_atom_site_label_2
_geom_bond_site_symmetry_1
_geom_bond_site_symmetry_2
S1 O1 1_555 1_555
O2 S1 1_555 1_555
O3 C13 1_555 1_555
N1 C6 1_555 1_555
C1 S1 1_555 1_555
C2 C1 1_555 1_555
H1 C2 1_555 1_555
C3 C2 1_555 1_555
H2 C3 1_555 1_555
C4 C3 1_555 1_555
H3 C4 1_555 1_555
C5 C4 1_555 1_555
H4 C5 1_555 1_555
C6 C1 1_555 1_555
C7 N1 1_555 1_555
C8 C7 1_555 1_555
H5 C8 1_555 1_555
C9 C8 1_555 1_555
H6 C9 1_555 1_555
C10 C9 1_555 1_555
H7 C10 1_555 1_555
C11 C10 1_555 1_555
H8 C11 1_555 1_555
C12 S1 1_555 1_555
C13 N1 1_555 1_555
C14 C13 1_555 1_555
H9 C14 1_555 1_555
H10 C14 1_555 1_555
H11 C14 1_555 1_555
C5 C6 1_555 1_555
C7 C12 1_555 1_555
C11 C12 1_555 1_555

#END
