
#######################################################################
#
#                 Cambridge Crystallographic Data Centre
#                                CCDC 
#
#######################################################################
#
# If this CIF has been generated from an entry in the Cambridge 
# Structural Database, then it will include bibliographic, chemical, 
# crystal, experimental, refinement or atomic coordinate data resulting 
# from the CCDC's data processing and validation procedures.
#
#######################################################################

data_EVECIT
_chemical_formula_moiety         'C16 H13 N1 O3 S1'
_chemical_name_systematic        
2-phenyl-5-((phenylsulfonyl)methyl)-1,3-oxazole
_symmetry_cell_setting           triclinic
_symmetry_space_group_name_H-M   'P -1'
_symmetry_Int_Tables_number      2
_space_group_name_Hall           '-P 1'
loop_
_symmetry_equiv_pos_site_id
_symmetry_equiv_pos_as_xyz
1 x,y,z
2 -x,-y,-z
_cell_length_a                   5.8951(3)
_cell_length_b                   10.7554(8)
_cell_length_c                   11.3589(8)
_cell_angle_alpha                75.588(3)
_cell_angle_beta                 86.378(2)
_cell_angle_gamma                81.134(2)
_cell_volume                     688.971
_exptl_crystal_colour            'light brown'
_exptl_crystal_description       parallelepiped
_cell_formula_units_Z            2
loop_
_atom_site_label
_atom_site_type_symbol
_atom_site_fract_x
_atom_site_fract_y
_atom_site_fract_z
S1 S 0.30226(8) 0.82004(5) 0.47343(4)
O1 O 0.0874(2) 0.80044(14) 0.53814(13)
O2 O 0.4937(3) 0.83186(14) 0.54017(14)
O3 O 0.1203(2) 0.88074(12) 0.19190(12)
N1 N -0.2404(3) 0.97806(15) 0.16213(15)
C1 C 0.3824(3) 0.69163(18) 0.40084(17)
C2 C 0.2384(3) 0.59942(19) 0.41044(18)
H1 H 0.0951 0.6064 0.4532
C3 C 0.3063(4) 0.4965(2) 0.35678(19)
H2 H 0.2113 0.4309 0.3649
C4 C 0.5112(4) 0.4894(2) 0.29182(19)
H3 H 0.5559 0.4192 0.2545
C5 C 0.6525(4) 0.5833(2) 0.2805(2)
H4 H 0.7920 0.5784 0.2341
C6 C 0.5906(3) 0.68476(19) 0.33672(19)
H5 H 0.6888 0.7483 0.3314
C7 C 0.2564(3) 0.96363(18) 0.35131(18)
H6 H 0.2175 1.0403 0.3860
H7 H 0.4008 0.9731 0.3026
C8 C 0.0714(3) 0.96124(17) 0.27055(17)
C9 C -0.1451(3) 1.01981(19) 0.25191(18)
H8 H -0.2223 1.0809 0.2938
C10 C -0.0770(3) 0.89604(17) 0.13036(17)
C11 C -0.0806(3) 0.81766(17) 0.04312(17)
C12 C -0.2752(3) 0.83060(19) -0.02460(19)
H9 H -0.4061 0.8909 -0.0142
C13 C -0.2778(4) 0.7554(2) -0.1072(2)
H10 H -0.4100 0.7652 -0.1542
C14 C -0.0890(4) 0.6664(2) -0.1217(2)
H11 H -0.0920 0.6147 -0.1781
C15 C 0.1042(4) 0.6525(2) -0.0540(2)
H12 H 0.2335 0.5910 -0.0640
C16 C 0.1102(3) 0.72754(19) 0.02815(18)
H13 H 0.2435 0.7179 0.0743
loop_
_geom_bond_atom_site_label_1
_geom_bond_atom_site_label_2
_geom_bond_site_symmetry_1
_geom_bond_site_symmetry_2
S1 O1 1_555 1_555
O2 S1 1_555 1_555
O3 C8 1_555 1_555
N1 C9 1_555 1_555
C1 S1 1_555 1_555
C2 C1 1_555 1_555
H1 C2 1_555 1_555
C3 C2 1_555 1_555
H2 C3 1_555 1_555
C4 C3 1_555 1_555
H3 C4 1_555 1_555
C5 C4 1_555 1_555
H4 C5 1_555 1_555
C6 C1 1_555 1_555
H5 C6 1_555 1_555
C7 S1 1_555 1_555
H6 C7 1_555 1_555
H7 C7 1_555 1_555
C8 C7 1_555 1_555
C9 C8 1_555 1_555
H8 C9 1_555 1_555
C10 O3 1_555 1_555
C11 C10 1_555 1_555
C12 C11 1_555 1_555
H9 C12 1_555 1_555
C13 C12 1_555 1_555
H10 C13 1_555 1_555
C14 C13 1_555 1_555
H11 C14 1_555 1_555
C15 C14 1_555 1_555
H12 C15 1_555 1_555
C16 C11 1_555 1_555
H13 C16 1_555 1_555
N1 C10 1_555 1_555
C5 C6 1_555 1_555
C15 C16 1_555 1_555

#END
