
#######################################################################
#
#                 Cambridge Crystallographic Data Centre
#                                CCDC 
#
#######################################################################
#
# If this CIF has been generated from an entry in the Cambridge 
# Structural Database, then it will include bibliographic, chemical, 
# crystal, experimental, refinement or atomic coordinate data resulting 
# from the CCDC's data processing and validation procedures.
#
#######################################################################

data_EVECOZ
_chemical_formula_moiety         'C22 H23 N1 O3 S1'
_chemical_name_systematic        
(E)-2-phenyl-4-(tosylmethylene)-3-oxa-1-azaspiro[4.5]dec-1-ene
_symmetry_cell_setting           monoclinic
_symmetry_space_group_name_H-M   'C c'
_symmetry_Int_Tables_number      9
_space_group_name_Hall           'C -2yc'
loop_
_symmetry_equiv_pos_site_id
_symmetry_equiv_pos_as_xyz
1 x,y,z
2 x,-y,1/2+z
3 1/2+x,1/2+y,z
4 1/2+x,1/2-y,1/2+z
_cell_length_a                   9.8639(12)
_cell_length_b                   21.953(3)
_cell_length_c                   10.1344(11)
_cell_angle_alpha                90
_cell_angle_beta                 115.004(4)
_cell_angle_gamma                90
_cell_volume                     1988.85
_exptl_crystal_colour            yellow
_exptl_crystal_description       parallelepiped
_cell_formula_units_Z            4
loop_
_atom_site_label
_atom_site_type_symbol
_atom_site_fract_x
_atom_site_fract_y
_atom_site_fract_z
S1 S 1.01537(6) 0.28317(2) 0.70882(6)
O1 O 1.0061(2) 0.31277(9) 0.57950(18)
O2 O 1.05836(19) 0.22020(7) 0.7314(2)
O3 O 1.02582(14) 0.41828(6) 0.78385(14)
N1 N 1.14626(17) 0.47942(7) 0.97874(17)
C1 C 0.8407(2) 0.29050(9) 0.7150(2)
C2 C 0.7359(3) 0.33133(11) 0.6265(3)
H1 H 0.7558 0.3549 0.5605
C3 C 0.6010(3) 0.33709(13) 0.6363(3)
H2 H 0.5313 0.3654 0.5779
C4 C 0.5677(3) 0.30136(13) 0.7315(3)
C5 C 0.6729(3) 0.26093(12) 0.8185(3)
H3 H 0.6518 0.2368 0.8829
C6 C 0.8100(3) 0.25516(10) 0.8130(3)
H4 H 0.8809 0.2279 0.8741
C7 C 0.4188(4) 0.3086(2) 0.7398(5)
H5 H 0.4133 0.2805 0.8099
H6 H 0.3391 0.3003 0.6460
H7 H 0.4095 0.3495 0.7685
C8 C 1.1378(2) 0.32225(9) 0.8630(2)
H8 H 1.2137 0.3001 0.9347
C9 C 1.1301(2) 0.38133(8) 0.8847(2)
C10 C 1.0439(2) 0.47532(8) 0.8519(2)
C11 C 1.2215(2) 0.41976(8) 1.0173(2)
C12 C 1.2153(2) 0.39411(10) 1.1545(2)
H9 H 1.1123 0.3934 1.1420
H10 H 1.2520 0.3525 1.1691
C13 C 1.3086(3) 0.43180(12) 1.2885(2)
H11 H 1.2648 0.4720 1.2790
H12 H 1.3070 0.4127 1.3741
C14 C 1.4687(3) 0.43784(12) 1.3083(3)
H13 H 1.5160 0.3981 1.3280
H14 H 1.5233 0.4639 1.3913
C15 C 1.4759(2) 0.46485(11) 1.1722(3)
H15 H 1.5791 0.4666 1.1855
H16 H 1.4366 0.5060 1.1572
C16 C 1.3849(2) 0.42601(10) 1.0393(2)
H17 H 1.4297 0.3859 1.0513
H18 H 1.3875 0.4444 0.9534
C17 C 0.9434(2) 0.52357(9) 0.7632(2)
C18 C 0.9364(2) 0.57796(9) 0.8297(2)
H19 H 0.9927 0.5828 0.9293
C19 C 0.8466(3) 0.62474(10) 0.7492(3)
H20 H 0.8395 0.6606 0.7947
C20 C 0.7674(3) 0.61830(11) 0.6011(3)
H21 H 0.7086 0.6503 0.5463
C21 C 0.7748(3) 0.56475(12) 0.5335(3)
H22 H 0.7217 0.5609 0.4331
C22 C 0.8609(2) 0.51651(11) 0.6142(2)
H23 H 0.8633 0.4799 0.5690
loop_
_geom_bond_atom_site_label_1
_geom_bond_atom_site_label_2
_geom_bond_site_symmetry_1
_geom_bond_site_symmetry_2
S1 O1 1_555 1_555
O2 S1 1_555 1_555
O3 C9 1_555 1_555
N1 C10 1_555 1_555
C1 S1 1_555 1_555
C2 C1 1_555 1_555
H1 C2 1_555 1_555
C3 C2 1_555 1_555
H2 C3 1_555 1_555
C4 C3 1_555 1_555
C5 C4 1_555 1_555
H3 C5 1_555 1_555
C6 C1 1_555 1_555
H4 C6 1_555 1_555
C7 C4 1_555 1_555
H5 C7 1_555 1_555
H6 C7 1_555 1_555
H7 C7 1_555 1_555
C8 S1 1_555 1_555
H8 C8 1_555 1_555
C9 C8 1_555 1_555
C10 O3 1_555 1_555
C11 N1 1_555 1_555
C12 C11 1_555 1_555
H9 C12 1_555 1_555
H10 C12 1_555 1_555
C13 C12 1_555 1_555
H11 C13 1_555 1_555
H12 C13 1_555 1_555
C14 C13 1_555 1_555
H13 C14 1_555 1_555
H14 C14 1_555 1_555
C15 C14 1_555 1_555
H15 C15 1_555 1_555
H16 C15 1_555 1_555
C16 C11 1_555 1_555
H17 C16 1_555 1_555
H18 C16 1_555 1_555
C17 C10 1_555 1_555
C18 C17 1_555 1_555
H19 C18 1_555 1_555
C19 C18 1_555 1_555
H20 C19 1_555 1_555
C20 C19 1_555 1_555
H21 C20 1_555 1_555
C21 C20 1_555 1_555
H22 C21 1_555 1_555
C22 C17 1_555 1_555
H23 C22 1_555 1_555
C5 C6 1_555 1_555
C9 C11 1_555 1_555
C15 C16 1_555 1_555
C21 C22 1_555 1_555

#END
