
#######################################################################
#
#                 Cambridge Crystallographic Data Centre
#                                CCDC 
#
#######################################################################
#
# If this CIF has been generated from an entry in the Cambridge 
# Structural Database, then it will include bibliographic, chemical, 
# crystal, experimental, refinement or atomic coordinate data resulting 
# from the CCDC's data processing and validation procedures.
#
#######################################################################

data_EVECUF
_chemical_formula_moiety         'C16 H12 F1 N1 O3 S1'
_chemical_name_systematic        
5-(((4-fluorophenyl)sulfonyl)methyl)-2-phenyl-1,3-oxazole
_symmetry_cell_setting           triclinic
_symmetry_space_group_name_H-M   'P -1'
_symmetry_Int_Tables_number      2
_space_group_name_Hall           '-P 1'
loop_
_symmetry_equiv_pos_site_id
_symmetry_equiv_pos_as_xyz
1 x,y,z
2 -x,-y,-z
_cell_length_a                   6.2389(3)
_cell_length_b                   9.1551(6)
_cell_length_c                   13.2937(8)
_cell_angle_alpha                72.550(2)
_cell_angle_beta                 81.797(2)
_cell_angle_gamma                75.434(2)
_cell_volume                     699.217
_exptl_crystal_colour            yellow
_exptl_crystal_description       parallelepiped
_cell_formula_units_Z            2
loop_
_atom_site_label
_atom_site_type_symbol
_atom_site_fract_x
_atom_site_fract_y
_atom_site_fract_z
S1 S 0.31576(7) 0.80788(5) 0.95036(3)
F1 F 0.4100(2) 0.32729(14) 0.73223(10)
O1 O 0.5266(2) 0.80761(15) 0.98190(10)
O2 O 0.1327(2) 0.79206(15) 1.02926(9)
O3 O 0.11199(18) 0.90938(13) 0.70936(9)
N1 N -0.2570(2) 0.97038(18) 0.72830(12)
C1 C 0.3485(3) 0.65881(19) 0.88711(13)
C2 C 0.5456(3) 0.6182(2) 0.82893(14)
H1 H 0.6654 0.6666 0.8256
C3 C 0.5654(3) 0.5061(2) 0.77573(15)
H2 H 0.6982 0.4767 0.7348
C4 C 0.3887(3) 0.4385(2) 0.78349(14)
C5 C 0.1919(3) 0.4764(2) 0.84098(14)
H3 H 0.0737 0.4263 0.8448
C6 C 0.1714(3) 0.5897(2) 0.89301(13)
H4 H 0.0369 0.6202 0.9326
C7 C 0.2339(3) 0.98626(19) 0.84784(13)
H5 H 0.1859 1.0755 0.8794
H6 H 0.3632 1.0047 0.7970
C8 C 0.0510(3) 0.97960(19) 0.79103(12)
C9 C -0.1707(3) 1.0161(2) 0.80175(14)
H7 H -0.2565 1.0659 0.8522
C10 C -0.0835(3) 0.90798(19) 0.67667(13)
C11 C -0.0756(3) 0.83506(19) 0.59210(13)
C12 C -0.2721(3) 0.8416(2) 0.55099(14)
H8 H -0.4103 0.8909 0.5793
C13 C -0.2663(3) 0.7764(2) 0.46909(15)
H9 H -0.4004 0.7823 0.4406
C14 C -0.0658(3) 0.7026(2) 0.42845(15)
H10 H -0.0623 0.6575 0.3724
C15 C 0.1299(3) 0.6946(2) 0.46964(15)
H11 H 0.2675 0.6439 0.4417
C16 C 0.1260(3) 0.7600(2) 0.55127(14)
H12 H 0.2607 0.7539 0.5795
loop_
_geom_bond_atom_site_label_1
_geom_bond_atom_site_label_2
_geom_bond_site_symmetry_1
_geom_bond_site_symmetry_2
S1 O1 1_555 1_555
F1 C4 1_555 1_555
O2 S1 1_555 1_555
O3 C8 1_555 1_555
N1 C9 1_555 1_555
C1 S1 1_555 1_555
C2 C1 1_555 1_555
H1 C2 1_555 1_555
C3 C2 1_555 1_555
H2 C3 1_555 1_555
C4 C3 1_555 1_555
C5 C4 1_555 1_555
H3 C5 1_555 1_555
C6 C1 1_555 1_555
H4 C6 1_555 1_555
C7 S1 1_555 1_555
H5 C7 1_555 1_555
H6 C7 1_555 1_555
C8 C7 1_555 1_555
C9 C8 1_555 1_555
H7 C9 1_555 1_555
C10 O3 1_555 1_555
C11 C10 1_555 1_555
C12 C11 1_555 1_555
H8 C12 1_555 1_555
C13 C12 1_555 1_555
H9 C13 1_555 1_555
C14 C13 1_555 1_555
H10 C14 1_555 1_555
C15 C14 1_555 1_555
H11 C15 1_555 1_555
C16 C11 1_555 1_555
H12 C16 1_555 1_555
N1 C10 1_555 1_555
C5 C6 1_555 1_555
C15 C16 1_555 1_555

#END
