
#######################################################################
#
#                 Cambridge Crystallographic Data Centre
#                                CCDC 
#
#######################################################################
#
# If this CIF has been generated from an entry in the Cambridge 
# Structural Database, then it will include bibliographic, chemical, 
# crystal, experimental, refinement or atomic coordinate data resulting 
# from the CCDC's data processing and validation procedures.
#
#######################################################################

data_EVEDEQ
_chemical_formula_moiety         'C17 H12 F3 N1 O3 S1'
_chemical_name_systematic        
2-phenyl-5-(((4-(trifluoromethyl)phenyl)sulfonyl)methyl)-1,3-oxazole
_symmetry_cell_setting           triclinic
_symmetry_space_group_name_H-M   'P -1'
_symmetry_Int_Tables_number      2
_space_group_name_Hall           '-P 1'
loop_
_symmetry_equiv_pos_site_id
_symmetry_equiv_pos_as_xyz
1 x,y,z
2 -x,-y,-z
_cell_length_a                   6.1164(12)
_cell_length_b                   9.942(3)
_cell_length_c                   13.652(3)
_cell_angle_alpha                72.21(2)
_cell_angle_beta                 84.375(18)
_cell_angle_gamma                87.05(2)
_cell_volume                     786.462
_exptl_crystal_colour            yellow
_exptl_crystal_description       parallelepiped
_cell_formula_units_Z            2
loop_
_atom_site_label
_atom_site_type_symbol
_atom_site_fract_x
_atom_site_fract_y
_atom_site_fract_z
S1 S 0.28829(16) 0.30949(10) 0.47033(7)
F1 F 0.5021(6) -0.0231(3) 0.1280(2)
F2 F 0.7461(6) -0.1331(4) 0.2257(3)
F3 F 0.4200(6) -0.2084(3) 0.2506(2)
O1 O 0.4675(5) 0.3228(3) 0.5257(3)
O2 O 0.0752(5) 0.2768(3) 0.5232(2)
O3 O 0.1224(4) 0.4044(3) 0.2313(2)
N1 N -0.2165(5) 0.4961(4) 0.2214(3)
C1 C 0.3634(6) 0.1827(4) 0.4059(3)
C2 C 0.5774(6) 0.1768(4) 0.3651(3)
H1 H 0.6832 0.2334 0.3760
C3 C 0.6316(7) 0.0857(5) 0.3080(4)
H2 H 0.7746 0.0827 0.2783
C4 C 0.4759(7) -0.0016(4) 0.2942(3)
C5 C 0.2663(7) -0.0004(4) 0.3395(4)
H3 H 0.1637 -0.0626 0.3334
C6 C 0.2086(6) 0.0937(4) 0.3945(3)
H4 H 0.0654 0.0972 0.4238
C7 C 0.5340(9) -0.0936(5) 0.2260(4)
C8 C 0.2651(6) 0.4730(4) 0.3688(3)
H5 H 0.2399 0.5495 0.3991
H6 H 0.4031 0.4897 0.3259
C9 C 0.0873(6) 0.4752(4) 0.3035(3)
C10 C -0.1175(6) 0.5309(4) 0.2966(3)
H7 H -0.1829 0.5851 0.3367
C11 C -0.0681(6) 0.4214(4) 0.1852(3)
C12 C -0.0837(6) 0.3522(4) 0.1067(3)
C13 C -0.2741(6) 0.3684(5) 0.0561(3)
H8 H -0.3913 0.4230 0.0729
C14 C -0.2898(7) 0.3040(5) -0.0189(4)
H9 H -0.4166 0.3158 -0.0534
C15 C -0.1170(8) 0.2220(5) -0.0427(4)
H10 H -0.1275 0.1787 -0.0935
C16 C 0.0698(8) 0.2036(5) 0.0076(4)
H11 H 0.1853 0.1475 -0.0088
C17 C 0.0874(7) 0.2678(5) 0.0822(3)
H12 H 0.2146 0.2546 0.1165
loop_
_geom_bond_atom_site_label_1
_geom_bond_atom_site_label_2
_geom_bond_site_symmetry_1
_geom_bond_site_symmetry_2
S1 O1 1_555 1_555
F1 C7 1_555 1_555
F2 C7 1_555 1_555
F3 C7 1_555 1_555
O2 S1 1_555 1_555
O3 C9 1_555 1_555
N1 C10 1_555 1_555
C1 S1 1_555 1_555
C2 C1 1_555 1_555
H1 C2 1_555 1_555
C3 C2 1_555 1_555
H2 C3 1_555 1_555
C4 C3 1_555 1_555
C5 C4 1_555 1_555
H3 C5 1_555 1_555
C6 C1 1_555 1_555
H4 C6 1_555 1_555
C7 C4 1_555 1_555
C8 S1 1_555 1_555
H5 C8 1_555 1_555
H6 C8 1_555 1_555
C9 C8 1_555 1_555
C10 C9 1_555 1_555
H7 C10 1_555 1_555
C11 O3 1_555 1_555
C12 C11 1_555 1_555
C13 C12 1_555 1_555
H8 C13 1_555 1_555
C14 C13 1_555 1_555
H9 C14 1_555 1_555
C15 C14 1_555 1_555
H10 C15 1_555 1_555
C16 C15 1_555 1_555
H11 C16 1_555 1_555
C17 C12 1_555 1_555
H12 C17 1_555 1_555
N1 C11 1_555 1_555
C5 C6 1_555 1_555
C16 C17 1_555 1_555

#END
