
#######################################################################
#
#                 Cambridge Crystallographic Data Centre
#                                CCDC 
#
#######################################################################
#
# If this CIF has been generated from an entry in the Cambridge 
# Structural Database, then it will include bibliographic, chemical, 
# crystal, experimental, refinement or atomic coordinate data resulting 
# from the CCDC's data processing and validation procedures.
#
#######################################################################

data_EVEDAL
_chemical_formula_moiety         'C7 H5 O3 1-,2(H2 O1),C16 H36 N1 1+'
_chemical_name_systematic        
'Tetrabutylammonium 4-hydroxybenzoate dihydrate'
_symmetry_cell_setting           monoclinic
_symmetry_space_group_name_H-M   'P 21/c'
_symmetry_Int_Tables_number      14
_space_group_name_Hall           '-P 2ybc'
loop_
_symmetry_equiv_pos_site_id
_symmetry_equiv_pos_as_xyz
1 x,y,z
2 -x,1/2+y,1/2-z
3 -x,-y,-z
4 x,1/2-y,1/2+z
_cell_length_a                   10.36790(10)
_cell_length_b                   14.9648(2)
_cell_length_c                   16.1851(2)
_cell_angle_alpha                90
_cell_angle_beta                 93.1280(10)
_cell_angle_gamma                90
_cell_volume                     2507.43
_exptl_crystal_colour            colorless
_exptl_crystal_description       block
_cell_formula_units_Z            4
loop_
_atom_site_label
_atom_site_type_symbol
_atom_site_fract_x
_atom_site_fract_y
_atom_site_fract_z
C1 C -0.05049(13) 0.44078(9) 0.19491(9)
O1 O -0.16859(10) 0.44921(8) 0.22660(7)
H1 H -0.2234(17) 0.4650(14) 0.1867(10)
C2 C -0.03481(13) 0.43166(10) 0.11073(9)
H4 H -0.1067 0.4295 0.0738
O3 O 0.34027(11) 0.40824(11) 0.02796(8)
C3 C 0.08817(14) 0.42582(10) 0.08181(9)
H7 H 0.0981 0.4199 0.0253
O5 O 0.42311(10) 0.44241(8) 0.15484(7)
C4 C 0.19687(13) 0.42867(9) 0.13567(9)
C5 C 0.17951(13) 0.43526(10) 0.22016(9)
H8 H 0.2513 0.4359 0.2572
C6 C 0.05727(14) 0.44095(10) 0.24987(9)
H9 H 0.0472 0.4449 0.3065
C7 C 0.33068(14) 0.42652(11) 0.10361(9)
O2 O 0.41847(13) 0.65365(10) 0.00965(8)
H2 H 0.4976 0.6424 -0.0004
H3 H 0.3751 0.6104 -0.0121
N1 N 0.64105(11) 0.22051(7) 0.24724(7)
C8 C 0.59979(14) 0.31219(9) 0.27669(8)
H10 H 0.6767 0.3471 0.2907
H11 H 0.5527 0.3421 0.2312
C9 C 0.51640(16) 0.31144(10) 0.35062(9)
H12 H 0.5581 0.2761 0.3947
H13 H 0.4337 0.2841 0.3352
C10 C 0.49506(16) 0.40589(11) 0.38123(10)
H14 H 0.5767 0.4306 0.4026
H15 H 0.4633 0.4429 0.3353
C11 C 0.3990(2) 0.40765(15) 0.44849(12)
H16 H 0.3879 0.4680 0.4668
H17 H 0.4308 0.3716 0.4942
H18 H 0.3176 0.3845 0.4271
C12 C 0.52590(15) 0.15764(10) 0.24022(10)
H19 H 0.5545 0.1005 0.2197
H20 H 0.4956 0.1478 0.2952
C13 C 0.41328(16) 0.18998(12) 0.18441(10)
H21 H 0.3893 0.2499 0.2005
H22 H 0.4386 0.1921 0.1276
C14 C 0.29857(18) 0.12804(13) 0.19044(16)
H23 H 0.3222 0.0690 0.1717
H24 H 0.2777 0.1232 0.2480
C15 C 0.1799(2) 0.15924(18) 0.13996(17)
H25 H 0.1104 0.1180 0.1467
H26 H 0.1988 0.1621 0.0826
H27 H 0.1552 0.2174 0.1585
C16 C 0.74005(15) 0.17943(9) 0.30893(9)
H28 H 0.7040 0.1788 0.3630
H29 H 0.7542 0.1178 0.2931
C17 C 0.86989(15) 0.22653(11) 0.31640(10)
H30 H 0.9062 0.2290 0.2625
H31 H 0.8579 0.2874 0.3352
C18 C 0.96302(17) 0.17843(12) 0.37662(11)
H32 H 0.9263 0.1761 0.4304
H33 H 0.9740 0.1175 0.3578
C19 C 1.09404(19) 0.22334(15) 0.38535(13)
H34 H 1.1492 0.1905 0.4240
H35 H 1.0841 0.2833 0.4050
H36 H 1.1318 0.2246 0.3325
C20 C 0.69736(14) 0.23417(10) 0.16349(8)
H37 H 0.6308 0.2593 0.1259
H38 H 0.7665 0.2777 0.1697
C21 C 0.74994(17) 0.15052(11) 0.12424(10)
H39 H 0.8106 0.1213 0.1632
H40 H 0.6796 0.1093 0.1109
C22 C 0.81703(17) 0.17376(12) 0.04617(10)
H41 H 0.8877 0.2145 0.0600
H42 H 0.7564 0.2043 0.0081
C23 C 0.86954(18) 0.09191(13) 0.00355(11)
H43 H 0.9106 0.1100 -0.0455
H44 H 0.7998 0.0518 -0.0112
H45 H 0.9314 0.0623 0.0404
O4 O 0.65516(11) 0.49064(11) 0.11146(10)
H5 H 0.5771 0.4792 0.1219
H6 H 0.6579 0.5261 0.0708
loop_
_geom_bond_atom_site_label_1
_geom_bond_atom_site_label_2
_geom_bond_site_symmetry_1
_geom_bond_site_symmetry_2
C1 O1 1_555 1_555
O1 H1 1_555 1_555
O2 H2 1_555 1_555
H3 O2 1_555 1_555
N1 C8 1_555 1_555
C2 C1 1_555 1_555
H4 C2 1_555 1_555
O3 C7 1_555 1_555
O4 H5 1_555 1_555
H6 O4 1_555 1_555
C3 C2 1_555 1_555
H7 C3 1_555 1_555
O5 C7 1_555 1_555
C4 C3 1_555 1_555
C5 C4 1_555 1_555
H8 C5 1_555 1_555
C6 C1 1_555 1_555
H9 C6 1_555 1_555
C7 C4 1_555 1_555
C8 H10 1_555 1_555
H11 C8 1_555 1_555
C9 C8 1_555 1_555
H12 C9 1_555 1_555
H13 C9 1_555 1_555
C10 C9 1_555 1_555
H14 C10 1_555 1_555
H15 C10 1_555 1_555
C11 C10 1_555 1_555
H16 C11 1_555 1_555
H17 C11 1_555 1_555
H18 C11 1_555 1_555
C12 N1 1_555 1_555
H19 C12 1_555 1_555
H20 C12 1_555 1_555
C13 C12 1_555 1_555
H21 C13 1_555 1_555
H22 C13 1_555 1_555
C14 C13 1_555 1_555
H23 C14 1_555 1_555
H24 C14 1_555 1_555
C15 C14 1_555 1_555
H25 C15 1_555 1_555
H26 C15 1_555 1_555
H27 C15 1_555 1_555
C16 N1 1_555 1_555
H28 C16 1_555 1_555
H29 C16 1_555 1_555
C17 C16 1_555 1_555
H30 C17 1_555 1_555
H31 C17 1_555 1_555
C18 C17 1_555 1_555
H32 C18 1_555 1_555
H33 C18 1_555 1_555
C19 C18 1_555 1_555
H34 C19 1_555 1_555
H35 C19 1_555 1_555
H36 C19 1_555 1_555
C20 N1 1_555 1_555
H37 C20 1_555 1_555
H38 C20 1_555 1_555
C21 C20 1_555 1_555
H39 C21 1_555 1_555
H40 C21 1_555 1_555
C22 C21 1_555 1_555
H41 C22 1_555 1_555
H42 C22 1_555 1_555
C23 C22 1_555 1_555
H43 C23 1_555 1_555
H44 C23 1_555 1_555
H45 C23 1_555 1_555
C5 C6 1_555 1_555

#END
