
#######################################################################
#
#                 Cambridge Crystallographic Data Centre
#                                CCDC 
#
#######################################################################
#
# If this CIF has been generated from an entry in the Cambridge 
# Structural Database, then it will include bibliographic, chemical, 
# crystal, experimental, refinement or atomic coordinate data resulting 
# from the CCDC's data processing and validation procedures.
#
#######################################################################

data_EVEDEP
_chemical_formula_moiety         'C14 H14 F4 N2 O4,H2 O1'
_chemical_name_systematic        
'Ethyl 6-(4-fluorophenyl)-4-hydroxy-2-oxo-4-trifluoromethyl-1,3-diazinane-5-carboxylate monohydrate'
_symmetry_cell_setting           triclinic
_symmetry_space_group_name_H-M   'P -1'
_symmetry_Int_Tables_number      2
_space_group_name_Hall           '-P 1'
loop_
_symmetry_equiv_pos_site_id
_symmetry_equiv_pos_as_xyz
1 x,y,z
2 -x,-y,-z
_cell_length_a                   10.0196(9)
_cell_length_b                   12.1718(12)
_cell_length_c                   14.3037(14)
_cell_angle_alpha                98.463(7)
_cell_angle_beta                 103.642(8)
_cell_angle_gamma                104.400(9)
_cell_volume                     1602.22
_exptl_crystal_colour            colorless
_exptl_crystal_description       prism
_cell_formula_units_Z            4
_exptl_crystal_recrystallization_method ethanol/water
loop_
_atom_site_label
_atom_site_type_symbol
_atom_site_fract_x
_atom_site_fract_y
_atom_site_fract_z
F1 F 0.21735(8) 0.30976(7) 0.47711(6)
F2 F 0.44636(9) 0.33996(7) 0.51405(6)
F3 F 0.30625(9) 0.19817(7) 0.39477(6)
F4 F 0.49822(9) 0.38466(7) 1.13399(6)
O1 O 0.57514(10) 0.02599(8) 0.62488(6)
O2 O 0.16764(10) 0.09767(8) 0.52602(7)
H1 H 0.1553(16) 0.0484(13) 0.4701(12)
O3 O 0.10031(10) 0.25206(8) 0.67210(7)
O4 O 0.27857(9) 0.41634(7) 0.69581(7)
N1 N 0.41809(12) 0.11768(10) 0.55571(8)
N2 N 0.45729(12) 0.10551(10) 0.71961(8)
C1 C 0.48618(14) 0.07974(11) 0.63376(9)
C2 C 0.30765(14) 0.17404(11) 0.55694(9)
C3 C 0.32023(15) 0.25634(12) 0.48542(10)
C4 C 0.33613(14) 0.24284(11) 0.66264(9)
H3 H 0.4306 0.3044 0.6806
C5 C 0.22216(14) 0.30121(11) 0.67569(9)
C6 C 0.18167(15) 0.48463(12) 0.71134(10)
H4 H 0.2381 0.5624 0.7530
H5 H 0.1156 0.4457 0.7462
C7 C 0.09575(15) 0.49743(12) 0.61357(10)
H6 H 0.1613 0.5278 0.5760
H7 H 0.0402 0.5513 0.6251
H8 H 0.0301 0.4214 0.5762
C8 C 0.34703(14) 0.16004(11) 0.73406(9)
H9 H 0.2527 0.0986 0.7177
C9 C 0.38729(14) 0.22261(11) 0.84106(9)
C10 C 0.30035(14) 0.18702(11) 0.90023(10)
H10 H 0.2135 0.1254 0.8723
C11 C 0.33834(15) 0.23995(12) 0.99955(10)
H11 H 0.2798 0.2143 1.0402
C12 C 0.46237(15) 0.32993(12) 1.03707(10)
C13 C 0.55181(15) 0.36883(12) 0.98175(10)
H12 H 0.6374 0.4316 1.0101
C14 C 0.51319(15) 0.31362(12) 0.88317(10)
H13 H 0.5740 0.3385 0.8437
H25 H 0.4218(15) 0.0862(12) 0.5014(10)
H26 H 0.4935(15) 0.0714(12) 0.7678(11)
F5 F -0.11880(8) 0.62729(6) 0.98946(6)
F6 F 0.01160(8) 0.72196(7) 1.13589(6)
F7 F 0.09316(8) 0.61081(6) 1.04636(6)
F8 F 0.28213(9) 0.78195(7) 0.49828(6)
O5 O 0.44555(9) 0.97089(7) 1.10542(6)
O6 O -0.00739(10) 0.86354(8) 0.99826(7)
H2 H 0.0185(16) 0.9111(13) 1.0575(12)
O7 O -0.13754(10) 0.74745(8) 0.79365(7)
O8 O -0.07876(9) 0.58103(7) 0.79232(6)
N3 N 0.22350(12) 0.84435(9) 1.06802(8)
N4 N 0.31320(12) 0.91025(10) 0.94499(8)
C15 C 0.33267(14) 0.91286(11) 1.04127(9)
C16 C 0.08059(13) 0.79019(11) 1.00238(9)
C17 C 0.01571(14) 0.68607(11) 1.04325(10)
C18 C 0.09283(13) 0.75018(11) 0.89773(9)
H14 H 0.1481 0.6921 0.8994
C19 C -0.05367(14) 0.69559(11) 0.82313(9)
C20 C -0.21972(15) 0.51967(11) 0.72276(10)
H15 H -0.2292 0.5474 0.6605
H16 H -0.2968 0.5335 0.7510
C21 C -0.23104(15) 0.39215(11) 0.70373(10)
H17 H -0.1517 0.3801 0.6785
H18 H -0.3228 0.3484 0.6550
H19 H -0.2259 0.3650 0.7653
C22 C 0.17640(13) 0.85802(11) 0.86849(9)
H20 H 0.1201 0.9153 0.8673
C23 C 0.20333(14) 0.83296(10) 0.76879(9)
C24 C 0.10992(14) 0.84699(11) 0.68548(9)
H21 H 0.0276 0.8695 0.6915
C25 C 0.13467(15) 0.82869(11) 0.59370(10)
H22 H 0.0699 0.8373 0.5369
C26 C 0.25512(15) 0.79791(11) 0.58763(10)
C27 C 0.35117(15) 0.78274(11) 0.66745(10)
H23 H 0.4336 0.7610 0.6604
C28 C 0.32418(14) 0.80009(11) 0.75858(10)
H24 H 0.3886 0.7895 0.8146
H27 H 0.2281(16) 0.8644(13) 1.1265(11)
H28 H 0.3906(15) 0.9527(12) 0.9307(10)
O9 O 0.13823(13) 0.94116(9) 0.35763(7)
H29 H 0.065(2) 0.8778(17) 0.3556(14)
H30 H 0.215(2) 0.9295(17) 0.3632(14)
O10 O 0.90924(12) 0.99386(10) 0.82314(8)
H31 H 0.8938(18) 1.0100(14) 0.7657(13)
H32 H 0.883(2) 0.9233(18) 0.8184(14)
loop_
_geom_bond_atom_site_label_1
_geom_bond_atom_site_label_2
_geom_bond_site_symmetry_1
_geom_bond_site_symmetry_2
F1 C3 1_555 1_555
F2 C3 1_555 1_555
F3 C3 1_555 1_555
F4 C12 1_555 1_555
F5 C17 1_555 1_555
F6 C17 1_555 1_555
F7 C17 1_555 1_555
F8 C26 1_555 1_555
O1 C1 1_555 1_555
O2 H1 1_555 1_555
O3 C5 1_555 1_555
O4 C5 1_555 1_555
O5 C15 1_555 1_555
O6 H2 1_555 1_555
O7 C19 1_555 1_555
O8 C19 1_555 1_555
N1 C1 1_555 1_555
N2 C1 1_555 1_555
N3 C15 1_555 1_555
N4 C15 1_555 1_555
C2 O2 1_555 1_555
C3 C2 1_555 1_555
C4 C2 1_555 1_555
H3 C4 1_555 1_555
C5 C4 1_555 1_555
C6 O4 1_555 1_555
H4 C6 1_555 1_555
H5 C6 1_555 1_555
C7 C6 1_555 1_555
H6 C7 1_555 1_555
H7 C7 1_555 1_555
H8 C7 1_555 1_555
C8 N2 1_555 1_555
H9 C8 1_555 1_555
C9 C8 1_555 1_555
C10 C9 1_555 1_555
H10 C10 1_555 1_555
C11 C10 1_555 1_555
H11 C11 1_555 1_555
C12 C11 1_555 1_555
C13 C12 1_555 1_555
H12 C13 1_555 1_555
C14 C9 1_555 1_555
H13 C14 1_555 1_555
C16 O6 1_555 1_555
C17 C16 1_555 1_555
C18 C16 1_555 1_555
H14 C18 1_555 1_555
C19 C18 1_555 1_555
C20 O8 1_555 1_555
H15 C20 1_555 1_555
H16 C20 1_555 1_555
C21 C20 1_555 1_555
H17 C21 1_555 1_555
H18 C21 1_555 1_555
H19 C21 1_555 1_555
C22 N4 1_555 1_555
H20 C22 1_555 1_555
C23 C22 1_555 1_555
C24 C23 1_555 1_555
H21 C24 1_555 1_555
C25 C24 1_555 1_555
H22 C25 1_555 1_555
C26 C25 1_555 1_555
C27 C26 1_555 1_555
H23 C27 1_555 1_555
C28 C23 1_555 1_555
H24 C28 1_555 1_555
O9 H29 1_555 1_555
O10 H31 1_555 1_555
H25 N1 1_555 1_555
H26 N2 1_555 1_555
H27 N3 1_555 1_555
H28 N4 1_555 1_555
H30 O9 1_555 1_555
H32 O10 1_555 1_555
N1 C2 1_555 1_555
N3 C16 1_555 1_555
C4 C8 1_555 1_555
C13 C14 1_555 1_555
C18 C22 1_555 1_555
C27 C28 1_555 1_555

#END
