
#######################################################################
#
#                 Cambridge Crystallographic Data Centre
#                                CCDC 
#
#######################################################################
#
# If this CIF has been generated from an entry in the Cambridge 
# Structural Database, then it will include bibliographic, chemical, 
# crystal, experimental, refinement or atomic coordinate data resulting 
# from the CCDC's data processing and validation procedures.
#
#######################################################################

data_EVEDIU
_chemical_formula_moiety         'C17 H15 N1 O4 S1'
_chemical_name_systematic        
5-(((4-methoxyphenyl)sulfonyl)methyl)-2-phenyl-1,3-oxazole
_symmetry_cell_setting           triclinic
_symmetry_space_group_name_H-M   'P -1'
_symmetry_Int_Tables_number      2
_space_group_name_Hall           '-P 1'
loop_
_symmetry_equiv_pos_site_id
_symmetry_equiv_pos_as_xyz
1 x,y,z
2 -x,-y,-z
_cell_length_a                   6.1602(11)
_cell_length_b                   10.664(2)
_cell_length_c                   13.258(3)
_cell_angle_alpha                103.005(18)
_cell_angle_beta                 102.402(16)
_cell_angle_gamma                106.112(16)
_cell_volume                     778.705
_exptl_crystal_colour            yellow
_exptl_crystal_description       parallelepiped
_cell_formula_units_Z            2
loop_
_atom_site_label
_atom_site_type_symbol
_atom_site_fract_x
_atom_site_fract_y
_atom_site_fract_z
S1 S 0.2310(3) 0.30606(17) 0.03510(14)
O1 O -0.0002(8) 0.3117(5) 0.0002(5)
O2 O 0.3640(9) 0.2915(6) -0.0406(4)
O3 O 0.2332(9) -0.1070(6) 0.2650(4)
O4 O 0.6363(7) 0.3951(5) 0.2802(4)
N1 N 1.0078(10) 0.4919(7) 0.2804(5)
C1 C 0.2235(10) 0.1762(6) 0.0960(5)
C2 C 0.0684(11) 0.1484(7) 0.1585(7)
H1 H -0.0404 0.1934 0.1628
C3 C 0.0799(12) 0.0537(8) 0.2135(7)
H2 H -0.0204 0.0361 0.2559
C4 C 0.2375(11) -0.0152(7) 0.2064(5)
C5 C 0.3889(12) 0.0108(7) 0.1444(6)
H3 H 0.4945 -0.0362 0.1391
C6 C 0.3822(12) 0.1089(8) 0.0894(6)
H4 H 0.4856 0.1280 0.0486
C7 C 0.3856(15) -0.1857(9) 0.2547(8)
H5 H 0.3671 -0.2455 0.2990
H6 H 0.3450 -0.2392 0.1804
H7 H 0.5468 -0.1252 0.2778
C8 C 0.3979(10) 0.4629(7) 0.1441(5)
H8 H 0.4200 0.5389 0.1140
H9 H 0.3055 0.4756 0.1938
C9 C 0.6308(10) 0.4682(7) 0.2055(5)
C10 C 0.8526(12) 0.5234(9) 0.2055(7)
H10 H 0.8979 0.5760 0.1615
C11 C 0.8683(11) 0.4133(7) 0.3192(6)
C12 C 0.9302(12) 0.3404(7) 0.3986(6)
C13 C 1.1671(13) 0.3648(9) 0.4467(7)
H11 H 1.2837 0.4280 0.4315
C14 C 1.2289(15) 0.2941(11) 0.5178(7)
H12 H 1.3877 0.3090 0.5493
C15 C 1.0559(17) 0.2015(10) 0.5422(7)
H13 H 1.0974 0.1551 0.5907
C16 C 0.8198(16) 0.1791(9) 0.4930(8)
H14 H 0.7018 0.1174 0.5086
C17 C 0.7594(13) 0.2482(8) 0.4211(6)
H15 H 0.6008 0.2317 0.3878
loop_
_geom_bond_atom_site_label_1
_geom_bond_atom_site_label_2
_geom_bond_site_symmetry_1
_geom_bond_site_symmetry_2
S1 O1 1_555 1_555
O2 S1 1_555 1_555
O3 C4 1_555 1_555
O4 C9 1_555 1_555
N1 C10 1_555 1_555
C1 S1 1_555 1_555
C2 C1 1_555 1_555
H1 C2 1_555 1_555
C3 C2 1_555 1_555
H2 C3 1_555 1_555
C4 C3 1_555 1_555
C5 C4 1_555 1_555
H3 C5 1_555 1_555
C6 C1 1_555 1_555
H4 C6 1_555 1_555
C7 O3 1_555 1_555
H5 C7 1_555 1_555
H6 C7 1_555 1_555
H7 C7 1_555 1_555
C8 S1 1_555 1_555
H8 C8 1_555 1_555
H9 C8 1_555 1_555
C9 C8 1_555 1_555
C10 C9 1_555 1_555
H10 C10 1_555 1_555
C11 O4 1_555 1_555
C12 C11 1_555 1_555
C13 C12 1_555 1_555
H11 C13 1_555 1_555
C14 C13 1_555 1_555
H12 C14 1_555 1_555
C15 C14 1_555 1_555
H13 C15 1_555 1_555
C16 C15 1_555 1_555
H14 C16 1_555 1_555
C17 C12 1_555 1_555
H15 C17 1_555 1_555
N1 C11 1_555 1_555
C5 C6 1_555 1_555
C16 C17 1_555 1_555

#END
