
#######################################################################
#
#                 Cambridge Crystallographic Data Centre
#                                CCDC 
#
#######################################################################
#
# If this CIF has been generated from an entry in the Cambridge 
# Structural Database, then it will include bibliographic, chemical, 
# crystal, experimental, refinement or atomic coordinate data resulting 
# from the CCDC's data processing and validation procedures.
#
#######################################################################

data_EVEFER
_chemical_formula_moiety         'C13 H12 N4 O2'
_chemical_name_systematic        
N'-[(E)-2-Methoxybenzylidene]pyrazine-2-carbohydrazide
_symmetry_cell_setting           monoclinic
_symmetry_space_group_name_H-M   'P 21/m'
_symmetry_Int_Tables_number      11
_space_group_name_Hall           '-P 2yb'
loop_
_symmetry_equiv_pos_site_id
_symmetry_equiv_pos_as_xyz
1 x,y,z
2 -x,1/2+y,-z
3 -x,-y,-z
4 x,1/2-y,z
_cell_length_a                   7.7615(6)
_cell_length_b                   6.4257(4)
_cell_length_c                   12.2480(9)
_cell_angle_alpha                90
_cell_angle_beta                 93.893(3)
_cell_angle_gamma                90
_cell_volume                     609.436
_exptl_crystal_colour            colorless
_exptl_crystal_description       plate
_chemical_melting_point          '453-454 K'
_cell_formula_units_Z            2
_exptl_crystal_recrystallization_method ethanol
loop_
_atom_site_label
_atom_site_type_symbol
_atom_site_fract_x
_atom_site_fract_y
_atom_site_fract_z
O1 O 0.1276(2) 0.2500 0.91441(14)
O2 O 0.0786(2) 0.2500 0.36159(13)
N1 N 0.5591(2) 0.2500 0.83175(16)
N2 N 0.6293(3) 0.2500 1.06050(16)
N3 N 0.2321(2) 0.2500 0.74474(15)
H1 H 0.327(2) 0.2500 0.7099(19)
N4 N 0.0712(2) 0.2500 0.68916(15)
C1 C 0.4324(3) 0.2500 0.90152(18)
C2 C 0.7208(3) 0.2500 0.87780(19)
H2 H 0.8148 0.2500 0.8320
C3 C 0.7549(3) 0.2500 0.99078(19)
H3 H 0.8717 0.2500 1.0195
C4 C 0.4676(3) 0.2500 1.01421(18)
H4 H 0.3738 0.2500 1.0602
C5 C 0.2483(3) 0.2500 0.85506(18)
C6 C 0.0729(3) 0.2500 0.58476(18)
H5 H 0.1803 0.2500 0.5519
C7 C -0.0876(3) 0.2500 0.51541(19)
C8 C -0.0819(3) 0.2500 0.40041(19)
C9 C -0.2344(3) 0.2500 0.3333(2)
H6 H -0.2304 0.2500 0.2560
C10 C -0.3910(3) 0.2500 0.3800(2)
H7 H -0.4949 0.2500 0.3343
C11 C -0.3992(3) 0.2500 0.4929(2)
H8 H -0.5078 0.2500 0.5243
C12 C -0.2482(3) 0.2500 0.5589(2)
H9 H -0.2542 0.2500 0.6361
C13 C 0.088612 0.2500 0.244660(1)
H10 H 0.2108 0.2500 0.2292
H11 H 0.0328 0.3754 0.2135
H11C H 0.0328 0.1246 0.2135
loop_
_geom_bond_atom_site_label_1
_geom_bond_atom_site_label_2
_geom_bond_site_symmetry_1
_geom_bond_site_symmetry_2
O1 C5 1_555 1_555
O2 C8 1_555 1_555
N1 C1 1_555 1_555
N2 C3 1_555 1_555
N3 H1 1_555 1_555
N4 N3 1_555 1_555
C1 C4 1_555 1_555
C2 N1 1_555 1_555
H2 C2 1_555 1_555
C3 C2 1_555 1_555
H3 C3 1_555 1_555
C4 N2 1_555 1_555
H4 C4 1_555 1_555
C5 N3 1_555 1_555
C6 N4 1_555 1_555
H5 C6 1_555 1_555
C7 C6 1_555 1_555
C8 C7 1_555 1_555
C9 C8 1_555 1_555
H6 C9 1_555 1_555
C10 C9 1_555 1_555
H7 C10 1_555 1_555
C11 C10 1_555 1_555
H8 C11 1_555 1_555
C12 C7 1_555 1_555
H9 C12 1_555 1_555
C13 O2 1_555 1_555
H10 C13 1_555 1_555
H11 C13 1_555 1_555
H11C C13 1_555 1_555
C1 C5 1_555 1_555
C11 C12 1_555 1_555

#END
