
#######################################################################
#
#                 Cambridge Crystallographic Data Centre
#                                CCDC 
#
#######################################################################
#
# If this CIF has been generated from an entry in the Cambridge 
# Structural Database, then it will include bibliographic, chemical, 
# crystal, experimental, refinement or atomic coordinate data resulting 
# from the CCDC's data processing and validation procedures.
#
#######################################################################

data_EVEGET
_chemical_name_common            
'tri-potassium tris(hydroxide) alpha-cyclodextrin beta-cyclodextrin unknown solvate tetrahydrate'
_chemical_formula_moiety         '2(C36 H60 O30),4(H2 O1),3(K1 1+),3(H1 O1 1-)'
_chemical_name_systematic        
'tri-potassium tris(hydroxide) bis(5,10,15,20,25,30-hexakis(hydroxymethyl)-2,4,7,9,12,14,17,19,22,24,27,29-dodecaoxaheptacyclo[26.2.2.2^3,6^.2^8,11^.2^13,16^.2^18,21^.2^23,26^]dotetracontane-31,32,33,34,35,36,37,38,39,40,41,42-dodecol) unknown solvate tetrahydrate'
_symmetry_cell_setting           monoclinic
_symmetry_space_group_name_H-M   'P 21'
_symmetry_Int_Tables_number      4
_space_group_name_Hall           'P 2yb'
loop_
_symmetry_equiv_pos_site_id
_symmetry_equiv_pos_as_xyz
1 x,y,z
2 -x,1/2+y,-z
_cell_length_a                   13.813
_cell_length_b                   33.186
_cell_length_c                   13.971
_cell_angle_alpha                90
_cell_angle_beta                 118.69
_cell_angle_gamma                90
_cell_volume                     5618.03
_exptl_crystal_colour            white
_exptl_crystal_description       block
_cell_formula_units_Z            2
loop_
_atom_site_label
_atom_site_type_symbol
_atom_site_fract_x
_atom_site_fract_y
_atom_site_fract_z
K1 K -0.25972(14) -0.50082(6) 0.10638(17)
O1 O -0.2896(4) -0.55656(18) -0.0994(5)
O2 O -0.4221(4) -0.55728(17) 0.0034(5)
O3 O -1.2396(4) -0.56190(18) -0.7174(5)
O4 O -1.1096(5) -0.56140(18) -0.8204(6)
C1 C -0.3304(6) -0.5926(2) -0.0771(7)
C2 C -0.4390(6) -0.5869(2) -0.0771(7)
C3 C -0.3385(5) -0.6261(2) -0.1535(7)
C4 C -0.4728(5) -0.6271(2) -0.0485(6)
O5 O -0.3643(4) -0.66267(17) -0.1173(5)
O6 O -0.4203(4) -0.61648(18) -0.2611(5)
O7 O -0.5847(4) -0.62204(18) -0.0701(5)
C5 C -0.4683(5) -0.6629(2) -0.1145(7)
C6 C -0.3995(5) -0.6239(2) -0.3509(7)
C7 C -0.6114(6) -0.6249(2) 0.0141(7)
C8 C -0.4766(7) -0.7036(3) -0.0745(8)
C9 C -0.4412(5) -0.5879(2) -0.4264(7)
C10 C -0.4556(6) -0.6638(3) -0.4105(7)
O8 O -0.6779(4) -0.65923(16) 0.0000(5)
C11 C -0.6695(5) -0.5870(2) 0.0214(7)
O9 O -0.3911(5) -0.70821(19) 0.0386(6)
O10 O -0.3709(5) -0.55286(18) -0.3737(5)
C12 C -0.4465(6) -0.5927(2) -0.5334(7)
O11 O -0.4517(4) -0.66530(16) -0.5107(5)
C13 C -0.3979(8) -0.7019(3) -0.3437(9)
C14 C -0.7789(6) -0.6590(2) -0.1069(7)
O12 O -0.6021(4) -0.55282(17) 0.0434(5)
C15 C -0.7725(6) -0.5823(2) -0.0853(7)
H1 H -0.3303 -0.7057 0.0426
H2 H -0.3696 -0.5485 -0.3153
O13 O -0.4996(4) -0.56122(17) -0.6052(5)
C16 C -0.5048(6) -0.6335(2) -0.5838(7)
O14 O -0.2854(5) -0.7026(2) -0.3187(6)
C17 C -0.8443(5) -0.6192(2) -0.1174(7)
C18 C -0.8406(7) -0.6956(2) -0.1075(8)
H3 H -0.5591 -0.5562 0.0192
O15 O -0.8344(4) -0.54773(18) -0.0777(5)
O16 O -1.0809(4) -0.55271(19) -0.2731(5)
O17 O -1.1840(5) -0.55977(18) -0.5028(5)
H4 H -0.5665 -0.5645 -0.6338
O18 O -0.6170(4) -0.63144(18) -0.6078(5)
H5 H -0.2816 -0.7028 -0.3755
O19 O -0.9286(4) -0.61505(16) -0.2304(4)
O20 O -0.8927(5) -0.6920(2) -0.0388(6)
O21 O -0.7029(4) -0.56489(18) -0.7604(5)
O22 O -0.9351(4) -0.56383(18) -0.8764(6)
H6 H -0.8950 -0.5467 -0.1326
C19 C -0.7003(5) -0.6346(2) -0.7157(6)
C20 C -1.0382(6) -0.6242(3) -0.2569(8)
H7 H -0.8454 -0.6879 0.0245
C21 C -0.7664(5) -0.5955(2) -0.7481(6)
C22 C -0.7721(6) -0.6724(2) -0.7248(7)
O23 O -1.0724(4) -0.66159(18) -0.3079(5)
C23 C -1.1100(6) -0.5905(3) -0.3289(7)
C24 C -0.8718(6) -0.6002(2) -0.8542(7)
O24 O -0.8733(4) -0.67210(17) -0.8280(5)
C25 C -0.7111(8) -0.7112(3) -0.7142(9)
C26 C -1.0724(7) -0.6646(3) -0.4106(8)
C27 C -1.1112(6) -0.5904(2) -0.4382(8)
C28 C -0.9364(5) -0.6365(2) -0.8499(7)
O25 O -0.6984(5) -0.7177(2) -0.8094(6)
C29 C -1.1403(5) -0.6317(2) -0.4859(6)
C30 C -1.1089(10) -0.7071(3) -0.4533(12)
O26 O -0.9637(4) -0.62983(17) -0.7643(5)
H8 H -0.7594 -0.7189 -0.8636
O27 O -1.1217(4) -0.63148(17) -0.5801(4)
O28 O -1.2202(6) -0.7142(2) -0.4805(7)
C31 C -1.0782(5) -0.6332(2) -0.7916(6)
C32 C -1.2128(5) -0.6347(3) -0.6897(7)
H9 H -1.2276 -0.7112 -0.4261
C33 C -1.1048(6) -0.5942(2) -0.7515(7)
C34 C -1.0944(6) -0.6713(3) -0.7413(7)
O29 O -1.1984(4) -0.66976(17) -0.7386(5)
C35 C -1.2172(6) -0.5980(3) -0.7561(7)
C36 C -1.0971(7) -0.7086(3) -0.8027(9)
H10 H -1.0554 -0.5621 -0.8297
O30 O -1.1677(5) -0.7051(2) -0.9169(6)
H11 H -1.2068 -0.5619 -0.6505
H12 H -1.2310 -0.7007 -0.9289
O31 O -0.3458(5) -0.44185(18) -0.0413(5)
O32 O -0.4676(4) -0.44519(18) 0.0764(5)
O33 O -1.0583(4) -0.44372(18) -0.8595(5)
O34 O -1.1791(4) -0.44136(17) -0.7408(5)
C37 C -0.4260(5) -0.4111(2) -0.0528(7)
C38 C -0.4273(6) -0.4076(2) 0.0552(7)
C39 C -0.3933(5) -0.3717(2) -0.0843(7)
C40 C -0.4999(6) -0.3724(3) 0.0479(6)
O35 O -0.4202(4) -0.37514(18) -0.1959(4)
C41 C -0.4593(7) -0.3359(2) -0.0729(8)
O36 O -0.4562(4) -0.33664(16) 0.0312(5)
O37 O -0.6072(4) -0.38027(17) -0.0394(5)
C42 C -0.3333(6) -0.3719(2) -0.2229(6)
C43 C -0.4141(6) -0.2949(2) -0.0847(7)
C44 C -0.6976(5) -0.3773(2) -0.0172(7)
O38 O -0.3566(4) -0.33850(16) -0.2954(5)
C45 C -0.3225(5) -0.4107(2) -0.2746(7)
O39 O -0.3001(5) -0.2898(2) -0.0026(6)
C46 C -0.7622(6) -0.4154(2) -0.0619(8)
C47 C -0.7652(6) -0.3394(2) -0.0734(8)
C48 C -0.4584(5) -0.3408(2) -0.3948(7)
O40 O -0.3013(4) -0.44346(16) -0.2055(5)
C49 C -0.4285(5) -0.4168(2) -0.3860(7)
H13 H -0.2952 -0.2910 0.0582
O41 O -0.7020(4) -0.44841(18) 0.0048(5)
C50 C -0.8722(6) -0.4125(3) -0.0595(7)
O42 O -0.8693(4) -0.34040(16) -0.0727(5)
C51 C -0.7044(7) -0.3005(3) -0.0118(9)
C52 C -0.4634(7) -0.3024(3) -0.4500(9)
C53 C -0.4562(6) -0.3796(2) -0.4563(7)
H14 H -0.3065 -0.4365 -0.1519
O43 O -0.4119(5) -0.45013(17) -0.4368(5)
H15 H -0.6503 -0.4538 -0.0063
O44 O -0.9359(4) -0.44812(18) -0.1051(6)
C54 C -0.9309(5) -0.3754(2) -0.1231(6)
O45 O -0.6580(5) -0.3046(2) 0.1022(6)
O46 O -1.0768(5) -0.44950(19) -0.3276(6)
O47 O -1.1977(4) -0.44708(18) -0.5594(5)
C55 C -1.1856(6) -0.4144(3) -0.5012(7)
O48 O -0.6000(4) -0.44768(18) -0.7072(5)
O49 O -0.8316(4) -0.44425(17) -0.8044(5)
O50 O -0.3756(5) -0.2982(2) -0.4802(6)
O51 O -0.5652(4) -0.38746(18) -0.5463(5)
H16 H -0.4524 -0.4486 -0.5029
H17 H -0.8957 -0.4661 -0.1063
O52 O -0.9486(4) -0.37812(17) -0.2298(5)
H18 H -0.7070 -0.3095 0.1178
H19 H -0.3153 -0.2991 -0.4250
C56 C -0.5890(6) -0.3774(3) -0.6508(7)
C57 C -1.0606(6) -0.3772(2) -0.3242(7)
O53 O -0.6463(4) -0.34026(17) -0.6846(5)
C58 C -0.6582(6) -0.4111(3) -0.7282(8)
C59 C -1.0764(6) -0.4149(3) -0.3894(7)
C60 C -1.0742(6) -0.3380(2) -0.3859(7)
C61 C -0.7538(6) -0.3397(2) -0.6860(7)
C62 C -0.7676(6) -0.4142(3) -0.7264(7)
O54 O -1.1765(4) -0.34042(18) -0.4879(5)
C63 C -1.0775(8) -0.3011(3) -0.3303(9)
C64 C -0.8242(5) -0.3734(2) -0.7579(7)
C65 C -0.8002(8) -0.2986(3) -0.7187(10)
C66 C -1.1877(6) -0.3742(3) -0.5544(7)
O55 O -1.1643(5) -0.3021(2) -0.3027(6)
O56 O -0.9189(4) -0.37751(17) -0.7412(4)
O57 O -0.8174(6) -0.2910(2) -0.8262(6)
O58 O -1.1031(4) -0.37434(18) -0.5842(5)
H20 H -1.2237 -0.3043 -0.3585
C67 C -1.0258(5) -0.3713(2) -0.8279(7)
H21 H -0.8435 -0.2683 -0.8455
C68 C -1.1326(6) -0.3713(2) -0.6961(6)
O59 O -1.0727(4) -0.33592(16) -0.8116(5)
C69 C -1.0970(6) -0.4074(3) -0.8335(8)
C70 C -1.0995(6) -0.4115(2) -0.7297(7)
C71 C -1.0721(6) -0.3347(2) -0.7084(7)
C72 C -1.1233(8) -0.2951(3) -0.7046(10)
H22 H -0.9908 -0.4432 -0.8308
H23 H -1.1747 -0.4457 -0.6810
O60 O -1.2393(6) -0.2937(2) -0.7767(7)
H24 H -1.2513 -0.2969 -0.8396
K2 K -0.25367(15) -0.49969(6) -0.4272(2)
K3 K -0.76802(17) -0.50246(6) 0.10351(18)
O61 O -0.4427(5) -0.54437(19) -0.7492(5)
H25 H -0.4315 -0.5699 -0.7404
O62 O -0.4271(5) -0.50707(17) -0.2507(6)
H26 H -0.4561 -0.5178 -0.2145
H27 H -0.4720 -0.4884 -0.2897
O63 O -0.5836(5) -0.5001(2) -0.5541(7)
H28 H -0.5940 -0.4867 -0.6114
H29 H -0.6150 -0.4866 -0.5248
O64 O -1.0843(5) -0.5463(2) -1.0780(6)
H30 H -1.0847 -0.5500 -1.1387
H31 H -1.0971 -0.5695 -1.0585
O65 O -0.1260(5) -0.7071(2) -0.0997(6)
H32 H -0.1735 -0.7026 -0.1669
H33 H -0.1609 -0.7041 -0.0633
O66 O -1.3990(5) -0.46155(19) -0.7095(5)
H34 H -1.3338 -0.4544 -0.6637
H35 H -1.4424 -0.4516 -0.6883
O67 O -0.1054(4) -0.4585(2) -0.0651(5)
H36 H -0.0901 -0.4354 -0.0806
H37 H -0.0490 -0.4667 -0.0079
H38? H -0.9443 -0.4018 -0.2445
H39? H -0.4770 -0.3883 -0.2288
H40? H -0.4401 -0.5382 -0.8071
loop_
_geom_bond_atom_site_label_1
_geom_bond_atom_site_label_2
_geom_bond_site_symmetry_1
_geom_bond_site_symmetry_2
O1 C1 1_555 1_555
O2 C2 1_555 1_555
O3 C35 1_555 1_555
O4 C33 1_555 1_555
C1 C2 1_555 1_555
C2 C4 1_555 1_555
C3 C1 1_555 1_555
C4 O7 1_555 1_555
O5 C3 1_555 1_555
O6 C3 1_555 1_555
O7 C7 1_555 1_555
C5 C4 1_555 1_555
C6 O6 1_555 1_555
C7 O8 1_555 1_555
C8 C5 1_555 1_555
C9 C6 1_555 1_555
C10 C6 1_555 1_555
O8 C14 1_555 1_555
C11 C7 1_555 1_555
O9 C8 1_555 1_555
O10 C9 1_555 1_555
C12 C9 1_555 1_555
O11 C10 1_555 1_555
C13 C10 1_555 1_555
C14 C17 1_555 1_555
O12 C11 1_555 1_555
C15 C11 1_555 1_555
H1 O9 1_555 1_555
H2 O10 1_555 1_555
O13 C12 1_555 1_555
C16 C12 1_555 1_555
O14 C13 1_555 1_555
C17 C15 1_555 1_555
C18 C14 1_555 1_555
H3 O12 1_555 1_555
O15 C15 1_555 1_555
O16 C23 1_555 1_555
O17 C27 1_555 1_555
H4 O13 1_555 1_555
O18 C16 1_555 1_555
H5 O14 1_555 1_555
O19 C17 1_555 1_555
O20 C18 1_555 1_555
O21 C21 1_555 1_555
O22 C24 1_555 1_555
H6 O15 1_555 1_555
C19 O18 1_555 1_555
C20 O19 1_555 1_555
H7 O20 1_555 1_555
C21 C19 1_555 1_555
C22 C19 1_555 1_555
O23 C20 1_555 1_555
C23 C20 1_555 1_555
C24 C21 1_555 1_555
O24 C22 1_555 1_555
C25 C22 1_555 1_555
C26 O23 1_555 1_555
C27 C23 1_555 1_555
C28 C24 1_555 1_555
O25 C25 1_555 1_555
C29 C26 1_555 1_555
C30 C26 1_555 1_555
O26 C28 1_555 1_555
H8 O25 1_555 1_555
O27 C29 1_555 1_555
O28 C30 1_555 1_555
C31 O26 1_555 1_555
C32 O27 1_555 1_555
H9 O28 1_555 1_555
C33 C31 1_555 1_555
C34 C31 1_555 1_555
O29 C32 1_555 1_555
C35 C32 1_555 1_555
C36 C34 1_555 1_555
H10 O4 1_555 1_555
O30 C36 1_555 1_555
H11 O3 1_555 1_555
H12 O30 1_555 1_555
O31 C37 1_555 1_555
O32 C38 1_555 1_555
O33 C69 1_555 1_555
O34 C70 1_555 1_555
C37 C38 1_555 1_555
C38 C40 1_555 1_555
C39 C37 1_555 1_555
C40 O36 1_555 1_555
O35 C39 1_555 1_555
C41 C39 1_555 1_555
O36 C41 1_555 1_555
O37 C40 1_555 1_555
C42 O35 1_555 1_555
C43 C41 1_555 1_555
C44 O37 1_555 1_555
O38 C42 1_555 1_555
C45 C42 1_555 1_555
O39 C43 1_555 1_555
C46 C44 1_555 1_555
C47 C44 1_555 1_555
C48 O38 1_555 1_555
O40 C45 1_555 1_555
C49 C45 1_555 1_555
H13 O39 1_555 1_555
O41 C46 1_555 1_555
C50 C46 1_555 1_555
O42 C47 1_555 1_555
C51 C47 1_555 1_555
C52 C48 1_555 1_555
C53 C48 1_555 1_555
H14 O40 1_555 1_555
O43 C49 1_555 1_555
H15 O41 1_555 1_555
O44 C50 1_555 1_555
C54 C50 1_555 1_555
O45 C51 1_555 1_555
O46 C59 1_555 1_555
O47 C55 1_555 1_555
C55 C59 1_555 1_555
O48 C58 1_555 1_555
O49 C62 1_555 1_555
O50 C52 1_555 1_555
O51 C53 1_555 1_555
H16 O43 1_555 1_555
H17 O44 1_555 1_555
O52 C54 1_555 1_555
H18 O45 1_555 1_555
H19 O50 1_555 1_555
C56 O51 1_555 1_555
C57 O52 1_555 1_555
O53 C56 1_555 1_555
C58 C56 1_555 1_555
C59 C57 1_555 1_555
C60 C57 1_555 1_555
C61 O53 1_555 1_555
C62 C58 1_555 1_555
O54 C60 1_555 1_555
C63 C60 1_555 1_555
C64 C61 1_555 1_555
C65 C61 1_555 1_555
C66 C55 1_555 1_555
O55 C63 1_555 1_555
O56 C64 1_555 1_555
O57 C65 1_555 1_555
O58 C66 1_555 1_555
H20 O55 1_555 1_555
C67 O56 1_555 1_555
H21 O57 1_555 1_555
C68 O58 1_555 1_555
O59 C67 1_555 1_555
C69 C67 1_555 1_555
C70 C68 1_555 1_555
C71 C68 1_555 1_555
C72 C71 1_555 1_555
H22 O33 1_555 1_555
H23 O34 1_555 1_555
O60 C72 1_555 1_555
H24 O60 1_555 1_555
O61 H25 1_555 1_555
O62 H26 1_555 1_555
H27 O62 1_555 1_555
O63 H28 1_555 1_555
H29 O63 1_555 1_555
O64 H30 1_555 1_555
H31 O64 1_555 1_555
O65 H32 1_555 1_555
H33 O65 1_555 1_555
O66 H34 1_555 1_555
H35 O66 1_555 1_555
O67 H36 1_555 1_555
H37 O67 1_555 1_555
O5 C5 1_555 1_555
O11 C16 1_555 1_555
O24 C28 1_555 1_555
C27 C29 1_555 1_555
C33 C35 1_555 1_555
C34 O29 1_555 1_555
C49 C53 1_555 1_555
O42 C54 1_555 1_555
C62 C64 1_555 1_555
O54 C66 1_555 1_555
O59 C71 1_555 1_555
C69 C70 1_555 1_555

#END
