
#######################################################################
#
#                 Cambridge Crystallographic Data Centre
#                                CCDC 
#
#######################################################################
#
# If this CIF has been generated from an entry in the Cambridge 
# Structural Database, then it will include bibliographic, chemical, 
# crystal, experimental, refinement or atomic coordinate data resulting 
# from the CCDC's data processing and validation procedures.
#
#######################################################################

data_EVEGAP
_chemical_formula_moiety         'C22 H16 Br1 Cl1 N2 O1'
_chemical_name_systematic        
(S)-4-benzyl-3-(4-bromophenyl)-4-chloro-4,5-dihydro-1H-pyrazol-5-one
_symmetry_cell_setting           orthorhombic
_symmetry_space_group_name_H-M   'P 21 21 21'
_symmetry_Int_Tables_number      19
_space_group_name_Hall           'P 2ac 2ab'
loop_
_symmetry_equiv_pos_site_id
_symmetry_equiv_pos_as_xyz
1 x,y,z
2 1/2-x,-y,1/2+z
3 -x,1/2+y,1/2-z
4 1/2+x,1/2-y,-z
_cell_length_a                   8.048(3)
_cell_length_b                   9.690(3)
_cell_length_c                   25.348(8)
_cell_angle_alpha                90
_cell_angle_beta                 90
_cell_angle_gamma                90
_cell_volume                     1976.77
_exptl_crystal_colour            yellow
_exptl_crystal_description       block
_chemical_melting_point          '390 K'
_cell_formula_units_Z            4
loop_
_atom_site_label
_atom_site_type_symbol
_atom_site_fract_x
_atom_site_fract_y
_atom_site_fract_z
Br1 Br 0.03369(6) 0.36235(5) 0.084353(18)
Cl1 Cl 0.82132(13) 0.20810(9) 0.21310(3)
C1 C 0.5304(4) 0.1337(3) 0.12089(11)
N1 N 0.7803(3) 0.0276(3) 0.09088(10)
C2 C 1.0532(4) -0.0638(3) 0.07099(12)
O1 O 1.0654(3) -0.0454(3) 0.18969(9)
C3 C 0.7815(4) 0.0451(3) 0.18186(11)
C4 C 0.2348(4) 0.2670(3) 0.09970(13)
C5 C 0.9491(5) -0.0124(3) 0.16274(12)
N2 N 0.9323(3) -0.0225(3) 0.10904(9)
C6 C 0.6638(4) -0.1944(3) 0.20084(11)
C7 C 0.3355(5) 0.2289(4) 0.05859(13)
H1 H 0.3047 0.2474 0.0239
C8 C 1.0355(5) -0.0249(4) 0.01978(13)
H2 H 0.9448 0.0282 0.0095
C9 C 0.7032(5) -0.0521(3) 0.22229(12)
H3 H 0.7784 -0.0616 0.2520
H4 H 0.6013 -0.0107 0.2353
C10 C 0.4245(4) 0.1726(3) 0.16143(12)
H5 H 0.4536 0.1538 0.1962
C11 C 0.2757(4) 0.2394(3) 0.15071(13)
H6 H 0.2049 0.2650 0.1780
C12 C 0.6924(4) 0.0678(3) 0.13002(11)
C13 C 0.5070(5) -0.2259(4) 0.18390(14)
H7 H 0.4244 -0.1588 0.1846
C14 C 0.7847(5) -0.2953(4) 0.19997(15)
H8 H 0.8915 -0.2749 0.2117
C15 C 1.1845(6) -0.1435(5) 0.08547(17)
H9 H 1.1963 -0.1717 0.1203
C16 C 0.5897(7) -0.4564(4) 0.16513(16)
H10 H 0.5643 -0.5449 0.1534
C17 C 0.4705(7) -0.3578(4) 0.16565(16)
H11 H 0.3640 -0.3783 0.1538
C18 C 0.4830(4) 0.1626(3) 0.06951(12)
H12 H 0.5522 0.1367 0.0418
C19 C 0.7485(7) -0.4261(4) 0.18189(19)
H13 H 0.8308 -0.4934 0.1810
C20 C 1.2849(6) -0.1435(5) -0.0026(2)
H14 H 1.3635 -0.1701 -0.0275
C21 C 1.3007(7) -0.1824(6) 0.0479(2)
H15 H 1.3910 -0.2363 0.0579
C22 C 1.1530(6) -0.0646(5) -0.01703(16)
H16 H 1.1416 -0.0371 -0.0520
loop_
_geom_bond_atom_site_label_1
_geom_bond_atom_site_label_2
_geom_bond_site_symmetry_1
_geom_bond_site_symmetry_2
Br1 C4 1_555 1_555
Cl1 C3 1_555 1_555
C1 C10 1_555 1_555
N1 N2 1_555 1_555
C2 N2 1_555 1_555
O1 C5 1_555 1_555
C3 C5 1_555 1_555
C4 C7 1_555 1_555
C5 N2 1_555 1_555
C6 C9 1_555 1_555
C7 H1 1_555 1_555
C8 C2 1_555 1_555
H2 C8 1_555 1_555
C9 C3 1_555 1_555
H3 C9 1_555 1_555
H4 C9 1_555 1_555
C10 H5 1_555 1_555
C11 C4 1_555 1_555
H6 C11 1_555 1_555
C12 C1 1_555 1_555
C13 C6 1_555 1_555
H7 C13 1_555 1_555
C14 C6 1_555 1_555
H8 C14 1_555 1_555
C15 C2 1_555 1_555
H9 C15 1_555 1_555
C16 H10 1_555 1_555
C17 C13 1_555 1_555
H11 C17 1_555 1_555
C18 C1 1_555 1_555
H12 C18 1_555 1_555
C19 C14 1_555 1_555
H13 C19 1_555 1_555
C20 H14 1_555 1_555
C21 C15 1_555 1_555
H15 C21 1_555 1_555
C22 C8 1_555 1_555
H16 C22 1_555 1_555
N1 C12 1_555 1_555
C3 C12 1_555 1_555
C7 C18 1_555 1_555
C10 C11 1_555 1_555
C16 C17 1_555 1_555
C16 C19 1_555 1_555
C20 C21 1_555 1_555
C20 C22 1_555 1_555

#END
