
#######################################################################
#
#                 Cambridge Crystallographic Data Centre
#                                CCDC 
#
#######################################################################
#
# If this CIF has been generated from an entry in the Cambridge 
# Structural Database, then it will include bibliographic, chemical, 
# crystal, experimental, refinement or atomic coordinate data resulting 
# from the CCDC's data processing and validation procedures.
#
#######################################################################

data_EVELOH
_chemical_name_common            
N$4!,N$4'!-bis(4-methoxybenzylidene)-3,3'-dimethylbenzidine
_chemical_formula_moiety         'C30 H28 N2 O2'
_chemical_name_systematic        
N,N'-bis(4-methoxybenzylidene)-3,3'-dimethylbiphenyl-4,4'-diamine
_symmetry_cell_setting           monoclinic
_symmetry_space_group_name_H-M   'C 2/c'
_symmetry_Int_Tables_number      15
_space_group_name_Hall           '-C 2yn'
loop_
_symmetry_equiv_pos_site_id
_symmetry_equiv_pos_as_xyz
1 x,y,z
2 -x,y,1/2-z
3 1/2+x,1/2+y,z
4 1/2-x,1/2+y,1/2-z
5 -x,-y,-z
6 x,-y,1/2+z
7 1/2-x,1/2-y,-z
8 1/2+x,1/2-y,1/2+z
_cell_length_a                   11.644(2)
_cell_length_b                   16.228(3)
_cell_length_c                   12.431(3)
_cell_angle_alpha                90
_cell_angle_beta                 91.75(3)
_cell_angle_gamma                90
_cell_volume                     2347.85
_exptl_crystal_colour            yellow
_exptl_crystal_description       block
_cell_formula_units_Z            4
loop_
_atom_site_label
_atom_site_type_symbol
_atom_site_fract_x
_atom_site_fract_y
_atom_site_fract_z
O1 O 0.14801(6) 0.07986(5) 1.08572(5)
N1 N 0.36979(7) 0.15477(5) 0.62842(7)
C1 C 0.20415(11) 0.12644(8) 1.16991(9)
H1 H 0.2839(14) 0.1056(10) 1.1839(12)
H2 H 0.2050(14) 0.1847(10) 1.1522(12)
H3 H 0.1570(13) 0.1177(10) 1.2330(12)
C2 C 0.18777(9) 0.08948(6) 0.98408(8)
C3 C 0.28693(9) 0.13363(6) 0.96025(8)
H4 H 0.3342(12) 0.1589(8) 1.0165(11)
C4 C 0.31999(9) 0.13940(6) 0.85410(8)
H5 H 0.3903(12) 0.1681(8) 0.8377(10)
C5 C 0.25488(8) 0.10280(6) 0.77062(8)
C6 C 0.15643(9) 0.05837(6) 0.79627(8)
H6 H 0.1119(11) 0.0334(8) 0.7388(10)
C7 C 0.12313(9) 0.05104(6) 0.90185(8)
H7 H 0.0561(12) 0.0194(8) 0.9196(10)
C8 C 0.28718(8) 0.10911(6) 0.65788(8)
H8 H 0.2396(11) 0.0762(8) 0.6043(10)
C9 C 0.40025(8) 0.15379(6) 0.51899(8)
C10 C 0.43005(8) 0.22903(6) 0.47132(8)
C11 C 0.46879(8) 0.22851(6) 0.36602(8)
H9 H 0.4919(11) 0.2820(9) 0.3346(10)
C12 C 0.47841(8) 0.15556(6) 0.30593(7)
C13 C 0.44641(9) 0.08169(6) 0.35559(8)
H10 H 0.4501(11) 0.0292(8) 0.3175(10)
C14 C 0.40833(9) 0.08084(6) 0.46040(8)
H11 H 0.3897(12) 0.0279(8) 0.4927(10)
C15 C 0.41802(9) 0.30788(7) 0.53365(8)
H12 H 0.3378(12) 0.3186(9) 0.5538(11)
H13 H 0.4624(13) 0.3043(9) 0.6036(12)
H14 H 0.4450(12) 0.3550(8) 0.4925(11)
O1A O 0.85199(6) 0.07986(5) -0.58572(5)
N1A N 0.63021(7) 0.15477(5) -0.12842(7)
C1A C 0.79585(11) 0.12644(8) -0.66991(9)
H1A H 0.7161(14) 0.1056(10) -0.6839(12)
H2A H 0.7950(14) 0.1847(10) -0.6522(12)
H3A H 0.8430(13) 0.1177(10) -0.7330(12)
C2A C 0.81223(9) 0.08948(6) -0.48408(8)
C3A C 0.71307(9) 0.13363(6) -0.46025(8)
H4A H 0.6658(12) 0.1589(8) -0.5165(11)
C4A C 0.68001(9) 0.13940(6) -0.35410(8)
H5A H 0.6097(12) 0.1681(8) -0.3377(10)
C5A C 0.74512(8) 0.10280(6) -0.27062(8)
C6A C 0.84357(9) 0.05837(6) -0.29627(8)
H6A H 0.8881(11) 0.0334(8) -0.2388(10)
C7A C 0.87687(9) 0.05104(6) -0.40185(8)
H7A H 0.9439(12) 0.0194(8) -0.4196(10)
C8A C 0.71282(8) 0.10911(6) -0.15788(8)
H8A H 0.7604(11) 0.0762(8) -0.1043(10)
C9A C 0.59975(8) 0.15379(6) -0.01899(8)
C10A C 0.56995(8) 0.22903(6) 0.02868(8)
C11A C 0.53121(8) 0.22851(6) 0.13398(8)
H9A H 0.5081(11) 0.2820(9) 0.1654(10)
C12A C 0.52159(8) 0.15556(6) 0.19407(7)
C13A C 0.55359(9) 0.08169(6) 0.14441(8)
H10A H 0.5499(11) 0.0292(8) 0.1825(10)
C14A C 0.59167(9) 0.08084(6) 0.03960(8)
H11A H 0.6103(12) 0.0279(8) 0.0073(10)
C15A C 0.58198(9) 0.30788(7) -0.03365(8)
H12A H 0.6622(12) 0.3186(9) -0.0538(11)
H13A H 0.5376(13) 0.3043(9) -0.1036(12)
H14A H 0.5550(12) 0.3550(8) 0.0075(11)
loop_
_geom_bond_atom_site_label_1
_geom_bond_atom_site_label_2
_geom_bond_site_symmetry_1
_geom_bond_site_symmetry_2
O1 C1 1_555 1_555
N1 C8 1_555 1_555
C1 H1 1_555 1_555
H2 C1 1_555 1_555
H3 C1 1_555 1_555
C2 O1 1_555 1_555
C3 C2 1_555 1_555
H4 C3 1_555 1_555
C4 C3 1_555 1_555
H5 C4 1_555 1_555
C5 C4 1_555 1_555
C6 C5 1_555 1_555
H6 C6 1_555 1_555
C7 C2 1_555 1_555
H7 C7 1_555 1_555
C8 C5 1_555 1_555
H8 C8 1_555 1_555
C9 N1 1_555 1_555
C10 C9 1_555 1_555
C11 C10 1_555 1_555
H9 C11 1_555 1_555
C12 C11 1_555 1_555
C13 C12 1_555 1_555
H10 C13 1_555 1_555
C14 C9 1_555 1_555
H11 C14 1_555 1_555
C15 C10 1_555 1_555
H12 C15 1_555 1_555
H13 C15 1_555 1_555
H14 C15 1_555 1_555
O1A C1A 1_555 1_555
N1A C8A 1_555 1_555
C1A H1A 1_555 1_555
H2A C1A 1_555 1_555
H3A C1A 1_555 1_555
C2A O1A 1_555 1_555
C3A C2A 1_555 1_555
H4A C3A 1_555 1_555
C4A C3A 1_555 1_555
H5A C4A 1_555 1_555
C5A C4A 1_555 1_555
C6A C5A 1_555 1_555
H6A C6A 1_555 1_555
C7A C2A 1_555 1_555
H7A C7A 1_555 1_555
C8A C5A 1_555 1_555
H8A C8A 1_555 1_555
C9A N1A 1_555 1_555
C10A C9A 1_555 1_555
C11A C10A 1_555 1_555
H9A C11A 1_555 1_555
C12A C12 1_555 1_555
C13A C12A 1_555 1_555
H10A C13A 1_555 1_555
C14A C9A 1_555 1_555
H11A C14A 1_555 1_555
C15A C10A 1_555 1_555
H12A C15A 1_555 1_555
H13A C15A 1_555 1_555
H14A C15A 1_555 1_555
C6 C7 1_555 1_555
C13 C14 1_555 1_555
C6A C7A 1_555 1_555
C11A C12A 1_555 1_555
C13A C14A 1_555 1_555

#END
