
#######################################################################
#
#                 Cambridge Crystallographic Data Centre
#                                CCDC 
#
#######################################################################
#
# If this CIF has been generated from an entry in the Cambridge 
# Structural Database, then it will include bibliographic, chemical, 
# crystal, experimental, refinement or atomic coordinate data resulting 
# from the CCDC's data processing and validation procedures.
#
#######################################################################

data_EVENEZ
_chemical_formula_moiety         'C20 H18 N4 O2'
_chemical_name_systematic        
3-Ethyl-5-(4-methoxyphenoxy)-2-(pyridin-4-yl)-3H-imidazo[4,5-b]pyridine
_symmetry_cell_setting           monoclinic
_symmetry_space_group_name_H-M   'P 21/c'
_symmetry_Int_Tables_number      14
_space_group_name_Hall           '-P 2ybc'
loop_
_symmetry_equiv_pos_site_id
_symmetry_equiv_pos_as_xyz
1 x,y,z
2 -x,1/2+y,1/2-z
3 -x,-y,-z
4 x,1/2-y,1/2+z
_cell_length_a                   13.6591(4)
_cell_length_b                   13.7104(4)
_cell_length_c                   9.3177(2)
_cell_angle_alpha                90
_cell_angle_beta                 98.9400(10)
_cell_angle_gamma                90
_cell_volume                     1723.74
_exptl_crystal_colour            white
_exptl_crystal_description       block
_cell_formula_units_Z            4
loop_
_atom_site_label
_atom_site_type_symbol
_atom_site_fract_x
_atom_site_fract_y
_atom_site_fract_z
C1 C 0.34424(9) 0.10472(9) 0.42615(13)
C2 C 0.34457(9) 0.18018(9) 0.52777(14)
H1 H 0.3850 0.2344 0.5240
C3 C 0.28465(9) 0.17335(9) 0.63296(13)
H2 H 0.2834 0.2222 0.7020
C4 C 0.22585(8) 0.09028(8) 0.63192(12)
C5 C 0.23419(8) 0.02078(8) 0.52553(12)
C6 C 0.12671(8) -0.02604(8) 0.66320(12)
C7 C 0.16889(10) -0.14643(8) 0.46766(13)
H3 H 0.1356 -0.1952 0.5182
H4 H 0.2363 -0.1683 0.4670
C8 C 0.11655(12) -0.13785(11) 0.31346(15)
H5 H 0.0490 -0.1186 0.3137
H6 H 0.1181 -0.1997 0.2655
H7 H 0.1493 -0.0897 0.2629
C9 C 0.05197(8) -0.08407(8) 0.72257(12)
C10 C 0.05089(10) -0.08248(9) 0.87147(13)
H8 H 0.0986 -0.0476 0.9329
C11 C -0.02193(11) -0.13343(10) 0.92665(15)
H9 H -0.0225 -0.1305 1.0262
C12 C -0.08936(10) -0.18810(10) 0.70402(15)
H10 H -0.1370 -0.2251 0.6457
C13 C -0.02073(9) -0.13820(9) 0.63755(13)
H11 H -0.0233 -0.1409 0.5373
C14 C 0.40351(9) 0.04175(9) 0.22118(14)
C15 C 0.33767(10) 0.04307(10) 0.09494(15)
H12 H 0.2913 0.0930 0.0769
C16 C 0.34062(10) -0.03057(11) -0.00606(15)
H13 H 0.2964 -0.0299 -0.0927
C17 C 0.40900(10) -0.10480(10) 0.02181(15)
C18 C 0.47462(11) -0.10467(11) 0.14910(16)
H14 H 0.5211 -0.1544 0.1679
C19 C 0.47204(10) -0.03162(11) 0.24862(16)
H15 H 0.5167 -0.0318 0.3348
C20 C 0.35584(16) -0.18189(16) -0.2055(2)
H16 H 0.2878 -0.1767 -0.1920
H17 H 0.3653 -0.2416 -0.2555
H18 H 0.3727 -0.1276 -0.2621
N1 N 0.29165(7) 0.02406(7) 0.42238(11)
N2 N 0.17080(7) -0.05379(7) 0.54614(10)
N3 N 0.15774(7) 0.05932(7) 0.71772(10)
N4 N -0.09155(9) -0.18655(9) 0.84645(13)
O1 O 0.40353(7) 0.11775(7) 0.32231(11)
O2 O 0.41700(9) -0.18162(9) -0.06945(12)
loop_
_geom_bond_atom_site_label_1
_geom_bond_atom_site_label_2
_geom_bond_site_symmetry_1
_geom_bond_site_symmetry_2
C1 C2 1_555 1_555
C2 H1 1_555 1_555
C3 C2 1_555 1_555
H2 C3 1_555 1_555
C4 C3 1_555 1_555
C5 C4 1_555 1_555
C6 C9 1_555 1_555
C7 H3 1_555 1_555
H4 C7 1_555 1_555
C8 C7 1_555 1_555
H5 C8 1_555 1_555
H6 C8 1_555 1_555
H7 C8 1_555 1_555
C9 C10 1_555 1_555
C10 H8 1_555 1_555
C11 C10 1_555 1_555
H9 C11 1_555 1_555
C12 H10 1_555 1_555
C13 C9 1_555 1_555
H11 C13 1_555 1_555
C14 C15 1_555 1_555
C15 H12 1_555 1_555
C16 C15 1_555 1_555
H13 C16 1_555 1_555
C17 C16 1_555 1_555
C18 C17 1_555 1_555
H14 C18 1_555 1_555
C19 C14 1_555 1_555
H15 C19 1_555 1_555
C20 H16 1_555 1_555
H17 C20 1_555 1_555
H18 C20 1_555 1_555
N1 C1 1_555 1_555
N2 C5 1_555 1_555
N3 C4 1_555 1_555
N4 C11 1_555 1_555
O1 C1 1_555 1_555
O2 C17 1_555 1_555
C5 N1 1_555 1_555
C6 N2 1_555 1_555
C6 N3 1_555 1_555
C7 N2 1_555 1_555
C12 C13 1_555 1_555
C12 N4 1_555 1_555
C14 O1 1_555 1_555
C18 C19 1_555 1_555
C20 O2 1_555 1_555

#END
