
#######################################################################
#
#                 Cambridge Crystallographic Data Centre
#                                CCDC 
#
#######################################################################
#
# If this CIF has been generated from an entry in the Cambridge 
# Structural Database, then it will include bibliographic, chemical, 
# crystal, experimental, refinement or atomic coordinate data resulting 
# from the CCDC's data processing and validation procedures.
#
#######################################################################

data_EVENIC
_chemical_name_common            
'(Z,Z)-1-Methyl-4-(3-(pyrid-2-yl)ureido)pyridinium iodide'
_chemical_formula_moiety         'C12 H13 N4 O1 1+,I1 1-'
_chemical_name_systematic        
'(Z,Z)-1-Methyl-4-(3-(pyrid-2-yl)uronio)pyridine iodide'
_symmetry_cell_setting           monoclinic
_symmetry_space_group_name_H-M   'P 21/n'
_symmetry_Int_Tables_number      14
_space_group_name_Hall           '-P 2yn'
loop_
_symmetry_equiv_pos_site_id
_symmetry_equiv_pos_as_xyz
1 x,y,z
2 1/2+x,1/2-y,1/2+z
3 -x,-y,-z
4 1/2-x,1/2+y,1/2-z
_cell_length_a                   11.8157(11)
_cell_length_b                   8.0795(8)
_cell_length_c                   14.0426(13)
_cell_angle_alpha                90
_cell_angle_beta                 103.056(2)
_cell_angle_gamma                90
_cell_volume                     1305.92
_exptl_crystal_colour            colorless
_chemical_melting_point          218-220deg.C
_cell_formula_units_Z            4
_exptl_crystal_recrystallization_method methanol
loop_
_atom_site_label
_atom_site_type_symbol
_atom_site_fract_x
_atom_site_fract_y
_atom_site_fract_z
I1 I 0.596384(10) 0.28111(2) 0.234412(8)
O1 O 1.05150(11) 0.2157(2) 0.10981(9)
N1 N 0.96261(13) 0.2723(2) -0.04986(11)
H1 H 0.96899(13) 0.2535(2) -0.11014(11)
N2 N 1.12913(12) 0.1201(2) -0.01604(10)
H2 H 1.11595(12) 0.1153(2) -0.08021(10)
N3 N 0.79763(13) 0.4074(2) -0.12569(11)
N4 N 1.42789(12) -0.1264(2) 0.12408(10)
C1 C 1.04745(15) 0.2055(2) 0.02277(13)
C2 C 0.86647(15) 0.3674(2) -0.03948(13)
C3 C 0.8449(2) 0.4156(2) 0.04984(13)
H3 H 0.8968(2) 0.3868(2) 0.10963(13)
C4 C 0.7456(2) 0.5066(2) 0.04899(14)
H4 H 0.7277(2) 0.5405(2) 0.10870(14)
C5 C 0.6723(2) 0.5481(2) -0.03942(14)
H5 H 0.6032(2) 0.6096(2) -0.04170(14)
C6 C 0.7026(2) 0.4976(2) -0.12393(14)
H6 H 0.6534(2) 0.5283(2) -0.18463(14)
C7 C 1.22785(14) 0.0427(2) 0.03470(12)
C8 C 1.2949(2) -0.0432(2) -0.02039(13)
H7 H 1.2719(2) -0.0438(2) -0.08974(13)
C9 C 1.3927(2) -0.1255(2) 0.02572(13)
H8 H 1.4371(2) -0.1833(2) -0.01218(13)
C10 C 1.3659(2) -0.0428(2) 0.17803(13)
H9 H 1.3919(2) -0.0429(2) 0.24718(13)
C11 C 1.2670(2) 0.0420(2) 0.13660(12)
H10 H 1.2252(2) 0.1000(2) 0.17652(12)
C12 C 1.5349(2) -0.2153(3) 0.17294(15)
H11 H 1.5691(2) -0.2692(3) 0.12358(15)
H12 H 1.5156(2) -0.2991(3) 0.21719(15)
H13 H 1.5906(2) -0.1364(3) 0.21038(15)
loop_
_geom_bond_atom_site_label_1
_geom_bond_atom_site_label_2
_geom_bond_site_symmetry_1
_geom_bond_site_symmetry_2
O1 C1 1_555 1_555
N1 H1 1_555 1_555
N2 H2 1_555 1_555
N3 C2 1_555 1_555
N4 C9 1_555 1_555
C1 N1 1_555 1_555
C2 N1 1_555 1_555
C3 C2 1_555 1_555
H3 C3 1_555 1_555
C4 C3 1_555 1_555
H4 C4 1_555 1_555
C5 C4 1_555 1_555
H5 C5 1_555 1_555
C6 N3 1_555 1_555
H6 C6 1_555 1_555
C7 N2 1_555 1_555
C8 C7 1_555 1_555
H7 C8 1_555 1_555
C9 C8 1_555 1_555
H8 C9 1_555 1_555
C10 N4 1_555 1_555
H9 C10 1_555 1_555
C11 C7 1_555 1_555
H10 C11 1_555 1_555
C12 N4 1_555 1_555
H11 C12 1_555 1_555
H12 C12 1_555 1_555
H13 C12 1_555 1_555
N2 C1 1_555 1_555
C5 C6 1_555 1_555
C10 C11 1_555 1_555

#END
