
#######################################################################
#
#                 Cambridge Crystallographic Data Centre
#                                CCDC 
#
#######################################################################
#
# If this CIF has been generated from an entry in the Cambridge 
# Structural Database, then it will include bibliographic, chemical, 
# crystal, experimental, refinement or atomic coordinate data resulting 
# from the CCDC's data processing and validation procedures.
#
#######################################################################

data_EVEQOM
_chemical_formula_moiety         'C22 H16 N2 O1 S1'
_chemical_name_systematic        
5-Benzylidene-3-phenyl-2-(phenylimino)-1,3-thiazolidin-4-one
_symmetry_cell_setting           monoclinic
_symmetry_space_group_name_H-M   'P 21/c'
_symmetry_Int_Tables_number      14
_space_group_name_Hall           '-P 2ybc'
loop_
_symmetry_equiv_pos_site_id
_symmetry_equiv_pos_as_xyz
1 x,y,z
2 -x,1/2+y,1/2-z
3 -x,-y,-z
4 x,1/2-y,1/2+z
_cell_length_a                   10.7814(9)
_cell_length_b                   32.779(3)
_cell_length_c                   9.8907(8)
_cell_angle_alpha                90
_cell_angle_beta                 98.3920(10)
_cell_angle_gamma                90
_cell_volume                     3457.98
_exptl_crystal_colour            colorless
_exptl_crystal_description       block
_chemical_melting_point          '385 K'
_cell_formula_units_Z            8
loop_
_atom_site_label
_atom_site_type_symbol
_atom_site_fract_x
_atom_site_fract_y
_atom_site_fract_z
S1 S 0.37254(3) 0.113655(9) 0.05977(3)
O1 O 0.20268(10) 0.06597(3) 0.33830(10)
N1 N 0.45402(11) 0.17270(3) 0.24759(11)
N2 N 0.34340(10) 0.11725(3) 0.31666(11)
C1 C 0.39888(12) 0.13899(4) 0.22017(12)
C2 C 0.26620(13) 0.08498(4) 0.26862(13)
C3 C 0.27051(12) 0.07864(4) 0.12030(13)
C4 C 0.19911(13) 0.04982(4) 0.05026(13)
H1 H 0.1531 0.0332 0.1041
C5 C 0.18112(12) 0.03998(4) -0.09501(13)
C6 C 0.23784(14) 0.06091(4) -0.19309(14)
H2 H 0.2930 0.0829 -0.1656
C7 C 0.21457(14) 0.04992(5) -0.32984(14)
H3 H 0.2545 0.0643 -0.3949
C8 C 0.13337(13) 0.01802(4) -0.37254(14)
H4 H 0.1172 0.0108 -0.4665
C9 C 0.07626(14) -0.00315(4) -0.27756(14)
H5 H 0.0203 -0.0249 -0.3061
C10 C 0.10086(13) 0.00749(4) -0.14036(14)
H6 H 0.0625 -0.0076 -0.0756
C11 C 0.50187(12) 0.19422(4) 0.14188(12)
C12 C 0.59772(13) 0.17841(4) 0.07749(14)
H7 H 0.6301 0.1520 0.1011
C13 C 0.64633(13) 0.20112(4) -0.02127(14)
H8 H 0.7124 0.1903 -0.0642
C14 C 0.59849(14) 0.23952(4) -0.05721(14)
H9 H 0.6312 0.2549 -0.1253
C15 C 0.50274(14) 0.25535(4) 0.00649(15)
H10 H 0.4694 0.2815 -0.0188
C16 C 0.45523(13) 0.23312(4) 0.10705(14)
H11 H 0.3911 0.2444 0.1520
C17 C 0.35528(12) 0.13144(4) 0.45589(12)
C18 C 0.46121(13) 0.12049(4) 0.54559(13)
H12 H 0.5230 0.1032 0.5166
C19 C 0.47534(13) 0.13529(4) 0.67901(13)
H13 H 0.5470 0.1279 0.7420
C20 C 0.38492(13) 0.16079(4) 0.72006(13)
H14 H 0.3958 0.1713 0.8105
C21 C 0.27842(13) 0.17101(4) 0.62922(14)
H15 H 0.2161 0.1880 0.6583
C22 C 0.26323(12) 0.15630(4) 0.49588(13)
H16 H 0.1909 0.1632 0.4332
S2 S 0.87010(3) 0.114166(10) 0.07134(3)
O2 O 0.68006(10) 0.07316(3) 0.34400(10)
N3 N 0.95837(11) 0.17253(3) 0.25832(11)
N4 N 0.83667(10) 0.11966(3) 0.32700(11)
C23 C 0.89758(12) 0.13981(4) 0.23112(12)
C24 C 0.74959(13) 0.09027(4) 0.27595(13)
C25 C 0.75375(12) 0.08386(4) 0.12809(13)
C26 C 0.67166(13) 0.05884(4) 0.05426(14)
H17 H 0.6119 0.0465 0.1030
C27 C 0.66074(13) 0.04779(4) -0.08999(14)
C28 C 0.75221(14) 0.05608(4) -0.17333(14)
H18 H 0.8259 0.0706 -0.1370
C29 C 0.73604(16) 0.04329(5) -0.30865(15)
H19 H 0.7981 0.0494 -0.3646
C30 C 0.62962(16) 0.02168(5) -0.36239(15)
H20 H 0.6199 0.0124 -0.4543
C31 C 0.53774(16) 0.01368(5) -0.28224(15)
H21 H 0.4645 -0.0009 -0.3193
C32 C 0.55234(14) 0.02700(4) -0.14759(15)
H22 H 0.4879 0.0219 -0.0938
C33 C 1.00800(12) 0.19307(4) 0.15183(13)
C34 C 1.10058(13) 0.17597(4) 0.08498(14)
H23 H 1.1308 0.1493 0.1081
C35 C 1.14876(13) 0.19803(4) -0.01569(14)
H24 H 1.2124 0.1864 -0.0606
C36 C 1.10450(14) 0.23687(4) -0.05078(14)
H25 H 1.1374 0.2518 -0.1199
C37 C 1.01203(15) 0.25394(4) 0.01530(15)
H26 H 0.9811 0.2805 -0.0092
C38 C 0.96464(14) 0.23236(4) 0.11700(14)
H27 H 0.9024 0.2444 0.1632
C39 C 0.84998(12) 0.13379(4) 0.46609(13)
C40 C 0.95529(13) 0.12222(4) 0.55533(14)
H28 H 1.0158 0.1045 0.5260
C41 C 0.97085(13) 0.13698(4) 0.68874(14)
H29 H 1.0423 0.1293 0.7514
C42 C 0.88194(13) 0.16298(4) 0.73020(14)
H30 H 0.8935 0.1733 0.8209
C43 C 0.77625(13) 0.17394(4) 0.63987(14)
H31 H 0.7153 0.1915 0.6691
C44 C 0.75968(13) 0.15919(4) 0.50639(14)
H32 H 0.6875 0.1664 0.4440
loop_
_geom_bond_atom_site_label_1
_geom_bond_atom_site_label_2
_geom_bond_site_symmetry_1
_geom_bond_site_symmetry_2
S1 C1 1_555 1_555
O1 C2 1_555 1_555
N1 C1 1_555 1_555
N2 C1 1_555 1_555
C2 N2 1_555 1_555
C3 S1 1_555 1_555
C4 C3 1_555 1_555
H1 C4 1_555 1_555
C5 C4 1_555 1_555
C6 C5 1_555 1_555
H2 C6 1_555 1_555
C7 C6 1_555 1_555
H3 C7 1_555 1_555
C8 C7 1_555 1_555
H4 C8 1_555 1_555
C9 C8 1_555 1_555
H5 C9 1_555 1_555
C10 C5 1_555 1_555
H6 C10 1_555 1_555
C11 N1 1_555 1_555
C12 C11 1_555 1_555
H7 C12 1_555 1_555
C13 C12 1_555 1_555
H8 C13 1_555 1_555
C14 C13 1_555 1_555
H9 C14 1_555 1_555
C15 C14 1_555 1_555
H10 C15 1_555 1_555
C16 C11 1_555 1_555
H11 C16 1_555 1_555
C17 N2 1_555 1_555
C18 C17 1_555 1_555
H12 C18 1_555 1_555
C19 C18 1_555 1_555
H13 C19 1_555 1_555
C20 C19 1_555 1_555
H14 C20 1_555 1_555
C21 C20 1_555 1_555
H15 C21 1_555 1_555
C22 C17 1_555 1_555
H16 C22 1_555 1_555
S2 C23 1_555 1_555
O2 C24 1_555 1_555
N3 C23 1_555 1_555
N4 C23 1_555 1_555
C24 N4 1_555 1_555
C25 S2 1_555 1_555
C26 C25 1_555 1_555
H17 C26 1_555 1_555
C27 C26 1_555 1_555
C28 C27 1_555 1_555
H18 C28 1_555 1_555
C29 C28 1_555 1_555
H19 C29 1_555 1_555
C30 C29 1_555 1_555
H20 C30 1_555 1_555
C31 C30 1_555 1_555
H21 C31 1_555 1_555
C32 C27 1_555 1_555
H22 C32 1_555 1_555
C33 N3 1_555 1_555
C34 C33 1_555 1_555
H23 C34 1_555 1_555
C35 C34 1_555 1_555
H24 C35 1_555 1_555
C36 C35 1_555 1_555
H25 C36 1_555 1_555
C37 C36 1_555 1_555
H26 C37 1_555 1_555
C38 C33 1_555 1_555
H27 C38 1_555 1_555
C39 N4 1_555 1_555
C40 C39 1_555 1_555
H28 C40 1_555 1_555
C41 C40 1_555 1_555
H29 C41 1_555 1_555
C42 C41 1_555 1_555
H30 C42 1_555 1_555
C43 C42 1_555 1_555
H31 C43 1_555 1_555
C44 C39 1_555 1_555
H32 C44 1_555 1_555
C2 C3 1_555 1_555
C9 C10 1_555 1_555
C15 C16 1_555 1_555
C21 C22 1_555 1_555
C24 C25 1_555 1_555
C31 C32 1_555 1_555
C37 C38 1_555 1_555
C43 C44 1_555 1_555

#END
