
#######################################################################
#
#                 Cambridge Crystallographic Data Centre
#                                CCDC 
#
#######################################################################
#
# If this CIF has been generated from an entry in the Cambridge 
# Structural Database, then it will include bibliographic, chemical, 
# crystal, experimental, refinement or atomic coordinate data resulting 
# from the CCDC's data processing and validation procedures.
#
#######################################################################

data_EVESOO
_chemical_name_common            
3-(4-Amino-3-(4-methylphenyl)-5-thioxo-4,5-dihydro-1H-1,2,4-triazol-1-yl)-3-(2-chlorophenyl)-1-phenylpropan-1-one
_chemical_formula_moiety         'C24 H21 Cl1 N4 O1 S1'
_chemical_name_systematic        
3-[4-Amino-3-(4-methylphenyl)-5-sulfanylidene-4,5-dihydro-1H-1,2,4-triazol-1-yl]-3-(2-chlorophenyl)-1-phenylpropan-1-one
_symmetry_cell_setting           monoclinic
_symmetry_space_group_name_H-M   'P 21/n'
_symmetry_Int_Tables_number      14
_space_group_name_Hall           '-P 2yn'
loop_
_symmetry_equiv_pos_site_id
_symmetry_equiv_pos_as_xyz
1 x,y,z
2 1/2-x,1/2+y,1/2-z
3 -x,-y,-z
4 1/2+x,1/2-y,1/2+z
_cell_length_a                   10.9873(12)
_cell_length_b                   11.8220(14)
_cell_length_c                   17.438(3)
_cell_angle_alpha                90
_cell_angle_beta                 94.828(7)
_cell_angle_gamma                90
_cell_volume                     2257.02
_exptl_crystal_colour            colorless
_exptl_crystal_description       prism
_cell_formula_units_Z            4
loop_
_atom_site_label
_atom_site_type_symbol
_atom_site_fract_x
_atom_site_fract_y
_atom_site_fract_z
S1 S 0.02423(6) 0.49557(5) 0.11191(4)
Cl1 Cl -0.32308(8) 0.64505(9) 0.19347(5)
O1 O 0.05692(16) 0.81675(14) 0.24353(10)
N1 N 0.00694(16) 0.72168(16) 0.08127(10)
N2 N 0.06436(17) 0.80772(15) 0.04491(11)
N3 N 0.15533(16) 0.64405(16) 0.03124(11)
N4 N 0.2416(2) 0.5653(2) 0.00864(18)
C1 C 0.0594(2) 0.61979(19) 0.07433(13)
C2 C 0.15630(19) 0.75776(19) 0.01521(13)
C3 C -0.1037(2) 0.7430(2) 0.12081(13)
H1 H -0.1025 0.6921 0.1667
C4 C -0.1022(2) 0.86520(19) 0.14850(13)
H2 H -0.1026 0.9162 0.1034
H3 H -0.1772 0.8801 0.1745
C5 C 0.0087(2) 0.8918(2) 0.20371(13)
C6 C 0.05468(19) 1.01009(19) 0.20922(12)
C7 C 0.1565(2) 1.0353(2) 0.25923(15)
H4 H 0.1963 0.9764 0.2888
C8 C 0.2006(3) 1.1444(2) 0.26661(16)
H5 H 0.2718 1.1598 0.2998
C9 C 0.1412(2) 1.2315(2) 0.22572(16)
H6 H 0.1695 1.3071 0.2320
C10 C 0.0406(2) 1.2074(2) 0.17581(16)
H7 H -0.0002 1.2667 0.1473
C11 C -0.0015(2) 1.0977(2) 0.16691(14)
H8 H -0.0698 1.0821 0.1314
C12 C -0.2167(2) 0.7165(2) 0.06798(14)
C13 C -0.3211(2) 0.6709(2) 0.09597(16)
C14 C -0.4247(2) 0.6455(2) 0.0482(2)
H9 H -0.4943 0.6136 0.0689
C15 C -0.4263(3) 0.6667(2) -0.02916(19)
H10 H -0.4967 0.6487 -0.0623
C16 C -0.3258(3) 0.7140(2) -0.05900(16)
H11 H -0.3274 0.7299 -0.1125
C17 C -0.2220(2) 0.7383(2) -0.01052(15)
H12 H -0.1530 0.7706 -0.0316
C18 C 0.24385(19) 0.8188(2) -0.02880(13)
C19 C 0.2891(2) 0.7736(2) -0.09446(14)
H13 H 0.2670 0.6993 -0.1110
C20 C 0.3669(2) 0.8382(2) -0.13548(14)
H14 H 0.3978 0.8068 -0.1801
C21 C 0.4010(2) 0.9470(2) -0.11339(14)
C22 C 0.3555(2) 0.9906(2) -0.04791(15)
H15 H 0.3780 1.0649 -0.0314
C23 C 0.2777(2) 0.9280(2) -0.00594(14)
H16 H 0.2472 0.9598 0.0387
C24 C 0.4854(3) 1.0158(3) -0.15917(17)
H17 H 0.5002 1.0896 -0.1345
H18 H 0.4476 1.0268 -0.2116
H19 H 0.5631 0.9757 -0.1611
H20 H 0.257(3) 0.526(3) 0.0465(18)
H21 H 0.201(3) 0.518(2) -0.0274(16)
loop_
_geom_bond_atom_site_label_1
_geom_bond_atom_site_label_2
_geom_bond_site_symmetry_1
_geom_bond_site_symmetry_2
S1 C1 1_555 1_555
Cl1 C13 1_555 1_555
O1 C5 1_555 1_555
N1 N2 1_555 1_555
N2 C2 1_555 1_555
N3 N4 1_555 1_555
N4 H20 1_555 1_555
C1 N1 1_555 1_555
C2 N3 1_555 1_555
C3 N1 1_555 1_555
H1 C3 1_555 1_555
C4 C3 1_555 1_555
H2 C4 1_555 1_555
H3 C4 1_555 1_555
C5 C4 1_555 1_555
C6 C5 1_555 1_555
C7 C6 1_555 1_555
H4 C7 1_555 1_555
C8 C7 1_555 1_555
H5 C8 1_555 1_555
C9 C8 1_555 1_555
H6 C9 1_555 1_555
C10 C9 1_555 1_555
H7 C10 1_555 1_555
C11 C6 1_555 1_555
H8 C11 1_555 1_555
C12 C3 1_555 1_555
C13 C12 1_555 1_555
C14 C13 1_555 1_555
H9 C14 1_555 1_555
C15 C14 1_555 1_555
H10 C15 1_555 1_555
C16 C15 1_555 1_555
H11 C16 1_555 1_555
C17 C12 1_555 1_555
H12 C17 1_555 1_555
C18 C2 1_555 1_555
C19 C18 1_555 1_555
H13 C19 1_555 1_555
C20 C19 1_555 1_555
H14 C20 1_555 1_555
C21 C20 1_555 1_555
C22 C21 1_555 1_555
H15 C22 1_555 1_555
C23 C18 1_555 1_555
H16 C23 1_555 1_555
C24 C21 1_555 1_555
H17 C24 1_555 1_555
H18 C24 1_555 1_555
H19 C24 1_555 1_555
H21 N4 1_555 1_555
N3 C1 1_555 1_555
C10 C11 1_555 1_555
C16 C17 1_555 1_555
C22 C23 1_555 1_555

#END
