
#######################################################################
#
#                 Cambridge Crystallographic Data Centre
#                                CCDC 
#
#######################################################################
#
# If this CIF has been generated from an entry in the Cambridge 
# Structural Database, then it will include bibliographic, chemical, 
# crystal, experimental, refinement or atomic coordinate data resulting 
# from the CCDC's data processing and validation procedures.
#
#######################################################################

data_EVEVIM
_chemical_formula_moiety         'C21 H20 N2 O6 S2'
_chemical_name_systematic        
'Methyl (2S,5R)-5-(2-methylbenzo[b]thiophen-3-yl)-1-((4-nitrophenyl)sulfonyl)pyrrolidine-2-carboxylate'
_symmetry_cell_setting           orthorhombic
_symmetry_space_group_name_H-M   'P 21 21 21'
_symmetry_Int_Tables_number      19
_space_group_name_Hall           'P 2ac 2ab'
loop_
_symmetry_equiv_pos_site_id
_symmetry_equiv_pos_as_xyz
1 x,y,z
2 1/2-x,-y,1/2+z
3 -x,1/2+y,1/2-z
4 1/2+x,1/2-y,-z
_cell_length_a                   7.9013(3)
_cell_length_b                   13.6408(6)
_cell_length_c                   18.8526(8)
_cell_angle_alpha                90
_cell_angle_beta                 90
_cell_angle_gamma                90
_cell_volume                     2031.93
_exptl_crystal_colour            yellow
_exptl_crystal_description       tablet
_cell_formula_units_Z            4
_exptl_crystal_preparation       
'The data crystal was mounted using oil (Parantone-N, Exxon) to a  0.3 mm cryo-loop (Hampton Research) with the (-1 0 -8) scattering  planes roughly normal to the spindle axis.'
loop_
_atom_site_label
_atom_site_type_symbol
_atom_site_fract_x
_atom_site_fract_y
_atom_site_fract_z
S1 S 0.67580(7) 0.54643(4) 0.31142(3)
S2 S 0.72962(8) 0.27027(4) 0.50516(3)
O1 O 0.6549(2) 0.64108(13) 0.27963(9)
O2 O 0.7693(2) 0.47199(13) 0.27454(9)
O3 O 1.0279(3) 0.49792(16) 0.62640(10)
O4 O 0.9888(4) 0.65432(17) 0.63049(11)
O5 O 0.2809(3) 0.65470(13) 0.38984(10)
O6 O 0.1339(2) 0.66689(13) 0.28875(9)
N1 N 0.9808(3) 0.57541(18) 0.60038(11)
N2 N 0.4863(3) 0.50684(14) 0.33219(10)
C1 C 0.7754(3) 0.56044(17) 0.39543(12)
C2 C 0.7336(3) 0.63970(17) 0.43818(13)
H1 H 0.6570 0.6884 0.4218
C3 C 0.8056(3) 0.64689(18) 0.50552(13)
H2 H 0.7815 0.7010 0.5356
C4 C 0.9131(3) 0.5727(2) 0.52704(13)
C5 C 0.9572(3) 0.4939(2) 0.48516(13)
H3 H 1.0319 0.4446 0.5020
C6 C 0.8884(3) 0.48908(19) 0.41740(12)
H4 H 0.9188 0.4371 0.3863
C7 C 0.3398(3) 0.54467(17) 0.29119(11)
H5 H 0.3789 0.5683 0.2437
C8 C 0.2256(3) 0.45423(17) 0.28175(12)
H6 H 0.1045 0.4727 0.2841
H7 H 0.2479 0.4215 0.2358
C9 C 0.2737(3) 0.38814(17) 0.34361(12)
H8 H 0.2416 0.3192 0.3342
H9 H 0.2191 0.4101 0.3881
C10 C 0.4661(3) 0.39962(17) 0.34760(11)
H10 H 0.5186 0.3612 0.3081
C11 C 0.2524(3) 0.62784(16) 0.33067(12)
C12 C 0.0483(4) 0.75247(19) 0.31577(15)
H11 H 0.0159 0.7413 0.3653
H12 H -0.0533 0.7651 0.2874
H13 H 0.1241 0.8092 0.3130
C13 C 0.5460(3) 0.36878(17) 0.41660(12)
C14 C 0.5215(3) 0.41544(17) 0.48508(12)
C15 C 0.4244(3) 0.49776(17) 0.50319(12)
H14 H 0.3577 0.5300 0.4684
C16 C 0.4271(3) 0.53151(19) 0.57257(13)
H15 H 0.3603 0.5867 0.5852
C17 C 0.5265(3) 0.4857(2) 0.62450(12)
H16 H 0.5280 0.5110 0.6714
C18 C 0.6219(3) 0.40432(19) 0.60807(13)
H17 H 0.6891 0.3729 0.6431
C19 C 0.6174(3) 0.36924(17) 0.53864(13)
C20 C 0.6527(3) 0.29063(17) 0.42004(12)
C21 C 0.7123(4) 0.22496(19) 0.36165(13)
H18 H 0.6162 0.2070 0.3315
H19 H 0.7623 0.1656 0.3821
H20 H 0.7974 0.2593 0.3332
loop_
_geom_bond_atom_site_label_1
_geom_bond_atom_site_label_2
_geom_bond_site_symmetry_1
_geom_bond_site_symmetry_2
S1 O1 1_555 1_555
S2 C19 1_555 1_555
O2 S1 1_555 1_555
O3 N1 1_555 1_555
O4 N1 1_555 1_555
O5 C11 1_555 1_555
O6 C11 1_555 1_555
N1 C4 1_555 1_555
N2 S1 1_555 1_555
C1 S1 1_555 1_555
C2 C1 1_555 1_555
H1 C2 1_555 1_555
C3 C2 1_555 1_555
H2 C3 1_555 1_555
C4 C3 1_555 1_555
C5 C4 1_555 1_555
H3 C5 1_555 1_555
C6 C1 1_555 1_555
H4 C6 1_555 1_555
C7 N2 1_555 1_555
H5 C7 1_555 1_555
C8 C7 1_555 1_555
H6 C8 1_555 1_555
H7 C8 1_555 1_555
C9 C8 1_555 1_555
H8 C9 1_555 1_555
H9 C9 1_555 1_555
C10 N2 1_555 1_555
H10 C10 1_555 1_555
C11 C7 1_555 1_555
C12 O6 1_555 1_555
H11 C12 1_555 1_555
H12 C12 1_555 1_555
H13 C12 1_555 1_555
C13 C10 1_555 1_555
C14 C13 1_555 1_555
C15 C14 1_555 1_555
H14 C15 1_555 1_555
C16 C15 1_555 1_555
H15 C16 1_555 1_555
C17 C16 1_555 1_555
H16 C17 1_555 1_555
C18 C17 1_555 1_555
H17 C18 1_555 1_555
C19 C14 1_555 1_555
C20 S2 1_555 1_555
C21 C20 1_555 1_555
H18 C21 1_555 1_555
H19 C21 1_555 1_555
H20 C21 1_555 1_555
C5 C6 1_555 1_555
C9 C10 1_555 1_555
C13 C20 1_555 1_555
C18 C19 1_555 1_555

#END
