
#######################################################################
#
#                 Cambridge Crystallographic Data Centre
#                                CCDC 
#
#######################################################################
#
# If this CIF has been generated from an entry in the Cambridge 
# Structural Database, then it will include bibliographic, chemical, 
# crystal, experimental, refinement or atomic coordinate data resulting 
# from the CCDC's data processing and validation procedures.
#
#######################################################################

data_EVEVOS
_chemical_formula_moiety         'C26 H23 N3 O8 S2'
_chemical_name_systematic        
'Methyl (2S,5R)-1-((4-nitrophenyl)sulfonyl)-5-(1-(phenylsulfonyl)-1H-indol-3-yl)pyrrolidine-2-carboxylate'
_symmetry_cell_setting           orthorhombic
_symmetry_space_group_name_H-M   'P 21 21 21'
_symmetry_Int_Tables_number      19
_space_group_name_Hall           'P 2ac 2ab'
loop_
_symmetry_equiv_pos_site_id
_symmetry_equiv_pos_as_xyz
1 x,y,z
2 1/2-x,-y,1/2+z
3 -x,1/2+y,1/2-z
4 1/2+x,1/2-y,-z
_cell_length_a                   9.8392(11)
_cell_length_b                   10.6710(12)
_cell_length_c                   24.909(3)
_cell_angle_alpha                90
_cell_angle_beta                 90
_cell_angle_gamma                90
_cell_volume                     2615.3
_exptl_crystal_colour            colorless
_exptl_crystal_description       prism
_cell_formula_units_Z            4
_exptl_crystal_preparation       
'The data crystal was mounted using oil (Parantone-N, Exxon) to a  0.3 mm cryo-loop (Hampton Research) with the (0 1 3) scattering  planes roughly normal to the spindle axis.'
loop_
_atom_site_label
_atom_site_type_symbol
_atom_site_fract_x
_atom_site_fract_y
_atom_site_fract_z
S1 S 0.70431(4) 0.68837(4) 0.042068(15)
S2 S 1.06770(5) 0.94885(4) 0.221287(17)
N1 N 0.62373(13) 0.65178(12) 0.09726(5)
N2 N 0.91767(15) 0.89893(13) 0.19910(6)
O1 O 0.84132(12) 0.64396(11) 0.04402(5)
O2 O 0.61864(13) 0.65217(11) -0.00186(5)
N3 N 0.7052(11) 1.2489(6) 0.0442(4)
O3 O 0.8242(11) 1.3000(8) 0.0442(3)
O4 O 0.6044(12) 1.3018(13) 0.0361(6)
C1 C 0.7032(13) 0.8556(4) 0.0441(10)
C2 C 0.8246(13) 0.9180(8) 0.0498(10)
H1 H 0.9070 0.8722 0.0531
C3 C 0.8264(11) 1.0486(8) 0.0506(8)
H2 H 0.9087 1.0939 0.0552
C4 C 0.7044(11) 1.1090(6) 0.0445(6)
C5 C 0.5834(11) 1.0493(7) 0.0345(5)
H3 H 0.5045 1.0951 0.0246
C6 C 0.5803(11) 0.9189(7) 0.0394(6)
H4 H 0.4965 0.8747 0.0395
O5 O 0.27416(12) 0.54160(11) 0.09161(5)
O6 O 0.35407(14) 0.73741(12) 0.09939(6)
O7 O 1.04213(14) 1.01837(12) 0.26931(5)
O8 O 1.15185(13) 0.84027(11) 0.22208(6)
C7 C 0.70496(17) 0.64141(15) 0.14793(6)
H5 H 0.7818 0.5819 0.1417
C8 C 0.60241(19) 0.57942(16) 0.18547(7)
H6 H 0.5378 0.6415 0.2003
H7 H 0.6486 0.5358 0.2155
C9 C 0.5306(2) 0.48644(16) 0.14844(8)
H8 H 0.4422 0.4600 0.1637
H9 H 0.5875 0.4113 0.1422
C10 C 0.51038(16) 0.56089(15) 0.09606(7)
H10 H 0.5191 0.5042 0.0643
C11 C 0.37330(17) 0.62669(15) 0.09553(7)
C12 C 0.13692(19) 0.5879(2) 0.09879(9)
H11 H 0.0719 0.5231 0.0880
H12 H 0.1236 0.6628 0.0766
H13 H 0.1224 0.6092 0.1366
C13 C 0.76207(17) 0.76411(15) 0.16687(6)
C14 C 0.89440(17) 0.77838(15) 0.17869(6)
H14 H 0.9622 0.7160 0.1739
C15 C 0.79340(18) 0.96494(16) 0.19832(6)
C16 C 0.7650(2) 1.08849(17) 0.21211(7)
H15 H 0.8336 1.1427 0.2256
C17 C 0.6332(2) 1.12883(18) 0.20528(8)
H16 H 0.6103 1.2127 0.2144
C18 C 0.5323(2) 1.04932(19) 0.18529(8)
H17 H 0.4427 1.0806 0.1806
C19 C 0.56043(19) 0.92564(17) 0.17223(7)
H18 H 0.4909 0.8717 0.1593
C20 C 0.69426(19) 0.88201(15) 0.17856(6)
C21 C 1.12760(17) 1.05172(16) 0.17141(7)
C22 C 1.1311(2) 1.17944(17) 0.18194(8)
H19 H 1.0976 1.2116 0.2149
C23 C 1.1842(2) 1.25882(19) 0.14350(8)
H20 H 1.1887 1.3463 0.1504
C24 C 1.2306(2) 1.2126(2) 0.09542(8)
H21 H 1.2659 1.2684 0.0691
C25 C 1.2261(2) 1.0848(2) 0.08500(8)
H22 H 1.2577 1.0533 0.0516
C26 C 1.17554(18) 1.00342(17) 0.12330(7)
H23 H 1.1737 0.9157 0.1168
N4? N 0.7457(11) 1.2468(8) 0.0519(6)
O9? O 0.6313(14) 1.3058(15) 0.0496(7)
O10? O 0.8446(12) 1.2952(10) 0.0655(7)
C27? C 0.7214(16) 0.8547(5) 0.0430(12)
C28? C 0.8456(14) 0.9095(9) 0.0518(11)
H24? H 0.9245 0.8594 0.0566
C29? C 0.8542(13) 1.0395(9) 0.0535(9)
H25? H 0.9391 1.0802 0.0587
C30? C 0.7371(12) 1.1074(8) 0.0476(7)
C31? C 0.6105(12) 1.0541(9) 0.0424(6)
H26? H 0.5305 1.1036 0.0442
C32? C 0.6034(14) 0.9241(9) 0.0342(7)
H27? H 0.5213 0.8849 0.0232
loop_
_geom_bond_atom_site_label_1
_geom_bond_atom_site_label_2
_geom_bond_site_symmetry_1
_geom_bond_site_symmetry_2
S1 N1 1_555 1_555
S2 N2 1_555 1_555
N1 C7 1_555 1_555
N2 C14 1_555 1_555
O1 S1 1_555 1_555
O2 S1 1_555 1_555
N3 O3 1_555 1_555
O4 N3 1_555 1_555
C1 S1 1_555 1_555
C2 C1 1_555 1_555
H1 C2 1_555 1_555
C3 C2 1_555 1_555
H2 C3 1_555 1_555
C4 N3 1_555 1_555
C5 C4 1_555 1_555
H3 C5 1_555 1_555
C6 C1 1_555 1_555
H4 C6 1_555 1_555
O5 C11 1_555 1_555
O6 C11 1_555 1_555
O7 S2 1_555 1_555
O8 S2 1_555 1_555
C7 H5 1_555 1_555
C8 C7 1_555 1_555
H6 C8 1_555 1_555
H7 C8 1_555 1_555
C9 C8 1_555 1_555
H8 C9 1_555 1_555
H9 C9 1_555 1_555
C10 N1 1_555 1_555
H10 C10 1_555 1_555
C11 C10 1_555 1_555
C12 O5 1_555 1_555
H11 C12 1_555 1_555
H12 C12 1_555 1_555
H13 C12 1_555 1_555
C13 C7 1_555 1_555
C14 C13 1_555 1_555
H14 C14 1_555 1_555
C15 N2 1_555 1_555
C16 C15 1_555 1_555
H15 C16 1_555 1_555
C17 C16 1_555 1_555
H16 C17 1_555 1_555
C18 C17 1_555 1_555
H17 C18 1_555 1_555
C19 C18 1_555 1_555
H18 C19 1_555 1_555
C20 C13 1_555 1_555
C21 S2 1_555 1_555
C22 C21 1_555 1_555
H19 C22 1_555 1_555
C23 C22 1_555 1_555
H20 C23 1_555 1_555
C24 C23 1_555 1_555
H21 C24 1_555 1_555
C25 C24 1_555 1_555
H22 C25 1_555 1_555
C26 C21 1_555 1_555
H23 C26 1_555 1_555
C3 C4 1_555 1_555
C5 C6 1_555 1_555
C9 C10 1_555 1_555
C15 C20 1_555 1_555
C19 C20 1_555 1_555
C25 C26 1_555 1_555

#END
