
#######################################################################
#
#                 Cambridge Crystallographic Data Centre
#                                CCDC 
#
#######################################################################
#
# If this CIF has been generated from an entry in the Cambridge 
# Structural Database, then it will include bibliographic, chemical, 
# crystal, experimental, refinement or atomic coordinate data resulting 
# from the CCDC's data processing and validation procedures.
#
#######################################################################

data_EVEWEI
_chemical_name_common            
N'-(1-(5-Bromo-2-hydroxyphenyl)ethylidene)-4-nitrobenzohydrazide
_chemical_formula_moiety         'C15 H12 Br1 N3 O4'
_chemical_name_systematic        
N'-[(E)-1-(5-Bromo-2-hydroxyphenyl)ethylidene]-4-nitrobenzohydrazide
_symmetry_cell_setting           orthorhombic
_symmetry_space_group_name_H-M   'P n a 21'
_symmetry_Int_Tables_number      33
_space_group_name_Hall           'P 2c -2n'
loop_
_symmetry_equiv_pos_site_id
_symmetry_equiv_pos_as_xyz
1 x,y,z
2 -x,-y,1/2+z
3 1/2+x,1/2-y,z
4 1/2-x,1/2+y,1/2+z
_cell_length_a                   40.381(13)
_cell_length_b                   5.0598(16)
_cell_length_c                   7.168(2)
_cell_angle_alpha                90
_cell_angle_beta                 90
_cell_angle_gamma                90
_cell_volume                     1464.56
_exptl_crystal_colour            red
_exptl_crystal_description       block
_cell_formula_units_Z            4
_exptl_crystal_recrystallization_method ethanol
loop_
_atom_site_label
_atom_site_type_symbol
_atom_site_fract_x
_atom_site_fract_y
_atom_site_fract_z
Br1 Br 0.748669(14) 0.63795(13) 0.8107(3)
N1 N 0.63083(12) 0.3604(9) 0.2325(8)
N2 N 0.61516(12) 0.4290(9) 0.0655(7)
H1 H 0.6165 0.5855 0.0194
N3 N 0.53035(13) 0.4393(12) -0.7014(9)
O1 O 0.63214(10) 0.0383(8) 0.5025(7)
H2 H 0.6246 0.1078 0.4084
O2 O 0.59928(11) 0.0029(8) 0.0369(7)
O3 O 0.50841(18) 0.2902(13) -0.7491(10)
O4 O 0.53936(16) 0.6248(14) -0.7978(10)
C1 C 0.71150(13) 0.4542(11) 0.7103(8)
C2 C 0.69852(14) 0.2403(12) 0.8090(10)
H3 H 0.7078 0.1873 0.9219
C3 C 0.67161(18) 0.1098(12) 0.7345(10)
H4 H 0.6625 -0.0310 0.8000
C4 C 0.65783(15) 0.1816(11) 0.5655(9)
C5 C 0.67081(14) 0.4039(10) 0.4651(8)
C6 C 0.69784(13) 0.5350(10) 0.5410(8)
H5 H 0.7070 0.6784 0.4781
C7 C 0.65665(13) 0.4916(10) 0.2846(7)
C8 C 0.67260(16) 0.7035(12) 0.1733(9)
H6 H 0.6657 0.6895 0.0455
H7 H 0.6962 0.6853 0.1804
H8 H 0.6662 0.8728 0.2218
C9 C 0.59767(14) 0.2338(11) -0.0194(9)
C10 C 0.57928(12) 0.3074(10) -0.1896(10)
C11 C 0.55293(16) 0.1454(12) -0.2431(10)
H9 H 0.5465 0.0060 -0.1667
C12 C 0.53649(15) 0.1907(12) -0.4076(10)
H10 H 0.5186 0.0856 -0.4425
C13 C 0.54701(15) 0.3955(11) -0.5200(9)
C14 C 0.57239(14) 0.5633(11) -0.4717(9)
H11 H 0.5786 0.7022 -0.5492
C15 C 0.58848(15) 0.5181(11) -0.3029(9)
H12 H 0.6055 0.6298 -0.2655
loop_
_geom_bond_atom_site_label_1
_geom_bond_atom_site_label_2
_geom_bond_site_symmetry_1
_geom_bond_site_symmetry_2
Br1 C1 1_555 1_555
N1 N2 1_555 1_555
N2 H1 1_555 1_555
N3 O3 1_555 1_555
O1 H2 1_555 1_555
O2 C9 1_555 1_555
O4 N3 1_555 1_555
C1 C2 1_555 1_555
C2 H3 1_555 1_555
C3 C2 1_555 1_555
H4 C3 1_555 1_555
C4 O1 1_555 1_555
C5 C4 1_555 1_555
C6 C1 1_555 1_555
H5 C6 1_555 1_555
C7 N1 1_555 1_555
C8 C7 1_555 1_555
H6 C8 1_555 1_555
H7 C8 1_555 1_555
H8 C8 1_555 1_555
C9 N2 1_555 1_555
C10 C9 1_555 1_555
C11 C10 1_555 1_555
H9 C11 1_555 1_555
C12 C11 1_555 1_555
H10 C12 1_555 1_555
C13 N3 1_555 1_555
C14 C13 1_555 1_555
H11 C14 1_555 1_555
C15 C10 1_555 1_555
H12 C15 1_555 1_555
C3 C4 1_555 1_555
C5 C6 1_555 1_555
C5 C7 1_555 1_555
C12 C13 1_555 1_555
C14 C15 1_555 1_555

#END
