
#######################################################################
#
#                 Cambridge Crystallographic Data Centre
#                                CCDC 
#
#######################################################################
#
# If this CIF has been generated from an entry in the Cambridge 
# Structural Database, then it will include bibliographic, chemical, 
# crystal, experimental, refinement or atomic coordinate data resulting 
# from the CCDC's data processing and validation procedures.
#
#######################################################################

data_EVEYEK
_chemical_formula_moiety         'C18 H16 Cl1 N3 O2'
_chemical_name_systematic        
9-((2-Chlorobenzyl)oxy)-2,5,6,7-tetrahydro-3H-[1,2,4]triazolo[3,4-a][2]benzazepin-3-one
_symmetry_cell_setting           monoclinic
_symmetry_space_group_name_H-M   'C 2/c'
_symmetry_Int_Tables_number      15
_space_group_name_Hall           '-C 2yn'
loop_
_symmetry_equiv_pos_site_id
_symmetry_equiv_pos_as_xyz
1 x,y,z
2 -x,y,1/2-z
3 1/2+x,1/2+y,z
4 1/2-x,1/2+y,1/2-z
5 -x,-y,-z
6 x,-y,1/2+z
7 1/2-x,1/2-y,-z
8 1/2+x,1/2-y,1/2+z
_cell_length_a                   28.421(11)
_cell_length_b                   8.009(4)
_cell_length_c                   14.896(8)
_cell_angle_alpha                90
_cell_angle_beta                 112.654(18)
_cell_angle_gamma                90
_cell_volume                     3129.08
_exptl_crystal_colour            colorless
_exptl_crystal_description       block
_cell_formula_units_Z            8
loop_
_atom_site_label
_atom_site_type_symbol
_atom_site_fract_x
_atom_site_fract_y
_atom_site_fract_z
C1 C 1.12595(5) 0.48226(18) 0.42519(11)
C2 C 1.17285(6) 0.4037(2) 0.45532(13)
H1 H 1.1863 0.3715 0.4102
C3 C 1.19933(6) 0.3737(2) 0.55289(14)
H2 H 1.2310 0.3217 0.5740
C4 C 1.17895(5) 0.4207(2) 0.61950(12)
H3 H 1.1965 0.3982 0.6853
C5 C 1.13222(5) 0.50153(17) 0.58801(11)
H4 H 1.1189 0.5342 0.6334
C6 C 1.10491(5) 0.53472(15) 0.49043(10)
C7 C 1.05452(5) 0.62455(16) 0.45363(9)
H5 H 1.0568 0.7245 0.4188
H6 H 1.0283 0.5531 0.4091
C8 C 0.99692(4) 0.75568(15) 0.51182(9)
C9 C 0.98445(5) 0.80010(17) 0.58989(9)
H7 H 1.0058 0.7714 0.6530
C10 C 0.94008(5) 0.88719(17) 0.57312(9)
H8 H 0.9319 0.9164 0.6257
C11 C 0.90681(4) 0.93338(15) 0.47889(9)
C12 C 0.91964(5) 0.88864(16) 0.40076(9)
C13 C 0.96483(5) 0.79982(17) 0.41914(9)
H9 H 0.9734 0.7697 0.3671
C14 C 0.88795(6) 0.9227(2) 0.29509(10)
H10 H 0.8630 0.8338 0.2711
H11 H 0.9101 0.9166 0.2594
C15 C 0.85993(5) 1.08733(19) 0.27128(10)
H12 H 0.8820 1.1745 0.3106
H13 H 0.8521 1.1141 0.2035
C16 C 0.81139(6) 1.0853(2) 0.28893(10)
H14 H 0.7919 1.1848 0.2605
H15 H 0.7913 0.9893 0.2563
C17 C 0.86043(4) 1.02428(15) 0.47298(9)
C18 C 0.78474(5) 1.15106(18) 0.42277(10)
Cl1 Cl 1.091807(19) 0.51334(6) 0.30151(3)
N1 N 0.81980(4) 1.07857(14) 0.39169(8)
N2 N 0.85271(4) 1.05951(16) 0.55146(8)
N3 N 0.80577(4) 1.13648(16) 0.51955(9)
H16 H 0.7916 1.1713 0.5577
O1 O 1.04149(3) 0.66817(13) 0.53366(7)
O2 O 0.74323(4) 1.21405(16) 0.37020(7)
loop_
_geom_bond_atom_site_label_1
_geom_bond_atom_site_label_2
_geom_bond_site_symmetry_1
_geom_bond_site_symmetry_2
C1 C2 1_555 1_555
C2 H1 1_555 1_555
C3 C2 1_555 1_555
H2 C3 1_555 1_555
C4 C3 1_555 1_555
H3 C4 1_555 1_555
C5 C4 1_555 1_555
H4 C5 1_555 1_555
C6 C1 1_555 1_555
C7 C6 1_555 1_555
H5 C7 1_555 1_555
H6 C7 1_555 1_555
C8 C9 1_555 1_555
C9 H7 1_555 1_555
C10 C9 1_555 1_555
H8 C10 1_555 1_555
C11 C10 1_555 1_555
C12 C11 1_555 1_555
C13 C8 1_555 1_555
H9 C13 1_555 1_555
C14 C12 1_555 1_555
H10 C14 1_555 1_555
H11 C14 1_555 1_555
C15 C14 1_555 1_555
H12 C15 1_555 1_555
H13 C15 1_555 1_555
C16 C15 1_555 1_555
H14 C16 1_555 1_555
H15 C16 1_555 1_555
C17 C11 1_555 1_555
C18 N1 1_555 1_555
Cl1 C1 1_555 1_555
N1 C16 1_555 1_555
N2 C17 1_555 1_555
N3 C18 1_555 1_555
H16 N3 1_555 1_555
O1 C7 1_555 1_555
O2 C18 1_555 1_555
C5 C6 1_555 1_555
C8 O1 1_555 1_555
C12 C13 1_555 1_555
C17 N1 1_555 1_555
N2 N3 1_555 1_555

#END
