
#######################################################################
#
#                 Cambridge Crystallographic Data Centre
#                                CCDC 
#
#######################################################################
#
# If this CIF has been generated from an entry in the Cambridge 
# Structural Database, then it will include bibliographic, chemical, 
# crystal, experimental, refinement or atomic coordinate data resulting 
# from the CCDC's data processing and validation procedures.
#
#######################################################################

data_EVEYUB
_chemical_formula_moiety         
'2(C4 H12 N1 1+),C6 H4 Cl2 O1,C6 H3 Cl2 O1 1-,C6 H3 Cl2 O1 1-,2(C4 H8 O1)'
_chemical_name_systematic        
'bis(t-butylammonium) 2,6-dichlorophenolate 2,4-dichlorophenolate 2,4-dichlorophenol tetrahydrofuran solvate'
_symmetry_cell_setting           monoclinic
_symmetry_space_group_name_H-M   'I 2/a'
_symmetry_Int_Tables_number      15
_space_group_name_Hall           '-I 2ya'
loop_
_symmetry_equiv_pos_site_id
_symmetry_equiv_pos_as_xyz
1 x,y,z
2 1/2-x,y,-z
3 1/2+x,1/2+y,1/2+z
4 -x,1/2+y,1/2-z
5 -x,-y,-z
6 1/2+x,-y,z
7 1/2-x,1/2-y,1/2-z
8 x,1/2-y,1/2+z
_cell_length_a                   14.8441(12)
_cell_length_b                   13.2872(11)
_cell_length_c                   21.0311(15)
_cell_angle_alpha                90
_cell_angle_beta                 105.191(3)
_cell_angle_gamma                90
_cell_volume                     4003.16
_exptl_crystal_colour            colorless
_exptl_crystal_description       prism
_cell_formula_units_Z            4
loop_
_atom_site_label
_atom_site_type_symbol
_atom_site_fract_x
_atom_site_fract_y
_atom_site_fract_z
C7 C 0.2500 0.4651(4) 0.0000
C8 C 0.2441(2) 0.5239(2) -0.05631(18)
C9 C 0.2454(2) 0.6299(3) -0.0542(2)
H5 H 0.2429 0.6633 -0.0935
C10 C 0.2500 0.6882(4) 0.0000
H6 H 0.2500 0.7582 0.0000
Cl3 Cl 0.23478(6) 0.46070(7) -0.12810(5)
O2 O 0.2500 0.3674(2) 0.0000
C8A C 0.2559(2) 0.5239(2) 0.05631(18)
C9A C 0.2546(2) 0.6299(3) 0.0542(2)
H5A H 0.2571 0.6633 0.0935
Cl3A Cl 0.26522(6) 0.46070(7) 0.12810(5)
C11 C 0.1172(3) 0.2914(3) 0.20948(18)
H7 H 0.1815 0.2974 0.2074
H8 H 0.1082 0.2238 0.2241
C12 C 0.0994(3) 0.3648(3) 0.25766(18)
H9 H 0.1523 0.4094 0.2731
H10 H 0.0868 0.3307 0.2952
C13 C 0.0161(3) 0.4216(3) 0.2204(2)
H11 H 0.0259 0.4935 0.2264
H12 H -0.0388 0.4026 0.2344
C14 C 0.0058(2) 0.3924(3) 0.15013(18)
H13 H -0.0594 0.3796 0.1287
H14 H 0.0267 0.4472 0.1271
O3 O 0.05771(17) 0.30728(18) 0.14689(12)
C15 C 0.0376(2) 0.2499(2) -0.02621(15)
C16 C -0.0350(2) 0.1841(2) -0.01277(16)
H15 H -0.0133 0.1157 -0.0088
H16 H -0.0906 0.1891 -0.0483
H17 H -0.0484 0.2046 0.0276
C17 C 0.0044(2) 0.3600(2) -0.03639(16)
H18 H 0.0533 0.4009 -0.0448
H19 H -0.0111 0.3837 0.0025
H20 H -0.0497 0.3639 -0.0732
C18 C 0.0706(2) 0.2143(3) -0.08504(16)
H21 H 0.1156 0.2610 -0.0933
H22 H 0.0183 0.2103 -0.1231
H23 H 0.0988 0.1491 -0.0758
N1 N 0.12112(15) 0.24947(18) 0.03209(12)
H24 H 0.1638 0.2919 0.0250
H25 H 0.1450 0.1877 0.0381
H26 H 0.1041 0.2685 0.0678
C1 C 0.1991(2) -0.0150(2) 0.14329(15)
C2 C 0.2370(2) -0.0754(3) 0.19683(16)
H1 H 0.2076 -0.0811 0.2307
C3 C 0.3197(2) -0.1284(2) 0.20038(17)
C4 C 0.3640(2) -0.1185(3) 0.15022(17)
H2 H 0.4189 -0.1536 0.1522
C5 C 0.3258(2) -0.0558(2) 0.09677(17)
H3 H 0.3559 -0.0485 0.0634
C6 C 0.24343(19) -0.0041(2) 0.09293(14)
Cl1 Cl 0.36776(6) -0.19802(7) 0.26861(4)
Cl2 Cl 0.09661(7) 0.04388(8) 0.13829(5)
O1 O 0.20805(14) 0.05805(15) 0.04282(10)
H4 H 0.239(6) 0.064(4) 0.012(4)
loop_
_geom_bond_atom_site_label_1
_geom_bond_atom_site_label_2
_geom_bond_site_symmetry_1
_geom_bond_site_symmetry_2
C1 C2 1_555 1_555
C2 H1 1_555 1_555
C3 C2 1_555 1_555
C4 C3 1_555 1_555
H2 C4 1_555 1_555
C5 C4 1_555 1_555
H3 C5 1_555 1_555
C6 C1 1_555 1_555
Cl1 C3 1_555 1_555
Cl2 C1 1_555 1_555
O1 C6 1_555 1_555
H4 O1 1_555 1_555
C7 C8 1_555 1_555
C8 C9 1_555 1_555
C9 H5 1_555 1_555
C10 C9 1_555 1_555
H6 C10 1_555 1_555
Cl3 C8 1_555 1_555
O2 C7 1_555 1_555
C11 H7 1_555 1_555
H8 C11 1_555 1_555
C12 C11 1_555 1_555
H9 C12 1_555 1_555
H10 C12 1_555 1_555
C13 C12 1_555 1_555
H11 C13 1_555 1_555
H12 C13 1_555 1_555
C14 C13 1_555 1_555
H13 C14 1_555 1_555
H14 C14 1_555 1_555
O3 C11 1_555 1_555
C15 C16 1_555 1_555
C16 H15 1_555 1_555
H16 C16 1_555 1_555
H17 C16 1_555 1_555
C17 C15 1_555 1_555
H18 C17 1_555 1_555
H19 C17 1_555 1_555
H20 C17 1_555 1_555
C18 C15 1_555 1_555
H21 C18 1_555 1_555
H22 C18 1_555 1_555
H23 C18 1_555 1_555
N1 C15 1_555 1_555
H24 N1 1_555 1_555
H25 N1 1_555 1_555
H26 N1 1_555 1_555
C8A C7 1_555 1_555
C9A C10 1_555 1_555
H5A C9A 1_555 1_555
Cl3A C8A 1_555 1_555
C5 C6 1_555 1_555
C14 O3 1_555 1_555
C8A C9A 1_555 1_555

#END
