
#######################################################################
#
#                 Cambridge Crystallographic Data Centre
#                                CCDC 
#
#######################################################################
#
# If this CIF has been generated from an entry in the Cambridge 
# Structural Database, then it will include bibliographic, chemical, 
# crystal, experimental, refinement or atomic coordinate data resulting 
# from the CCDC's data processing and validation procedures.
#
#######################################################################

data_EVEZAH
_chemical_formula_moiety         'C18 H13 Cl1 F1 N1 O1'
_chemical_name_systematic        
N-(3-Chloro-4-fluorophenyl)-2-(1-naphthyl)acetamide
_symmetry_cell_setting           monoclinic
_symmetry_space_group_name_H-M   'P 21/n'
_symmetry_Int_Tables_number      14
_space_group_name_Hall           '-P 2yn'
loop_
_symmetry_equiv_pos_site_id
_symmetry_equiv_pos_as_xyz
1 x,y,z
2 1/2-x,1/2+y,1/2-z
3 -x,-y,-z
4 1/2+x,1/2-y,1/2+z
_cell_length_a                   8.096(6)
_cell_length_b                   23.323(6)
_cell_length_c                   8.404(3)
_cell_angle_alpha                90
_cell_angle_beta                 110.83(5)
_cell_angle_gamma                90
_cell_volume                     1483.15
_exptl_crystal_colour            colorless
_exptl_crystal_description       block
_cell_formula_units_Z            4
loop_
_atom_site_label
_atom_site_type_symbol
_atom_site_fract_x
_atom_site_fract_y
_atom_site_fract_z
Cl1 Cl 0.38936(7) 0.11723(2) 1.00561(6)
F1 F 0.17103(16) 0.03432(5) 0.75440(15)
O1 O 0.21705(14) 0.22471(5) 0.22432(14)
N1 N 0.43807(16) 0.20845(6) 0.47811(16)
H1 H 0.538(2) 0.2204(7) 0.544(2)
C1 C 0.4025(2) 0.16306(7) 0.71760(19)
H2 H 0.4762 0.1917 0.7880
C2 C 0.3379(2) 0.11924(7) 0.7882(2)
C3 C 0.2317(2) 0.07766(7) 0.6847(2)
C4 C 0.1869(2) 0.07943(7) 0.5115(2)
H3 H 0.1126 0.0507 0.4417
C5 C 0.2506(2) 0.12309(6) 0.43962(19)
H4 H 0.2205 0.1247 0.3197
C6 C 0.35908(18) 0.16496(6) 0.54278(18)
C7 C 0.36895(18) 0.23348(6) 0.32430(18)
C8 C 0.4966(2) 0.27172(7) 0.2798(2)
H5 H 0.5850 0.2870 0.3858
H6 H 0.5604 0.2488 0.2209
C9 C 0.40433(19) 0.32093(6) 0.16728(19)
C10 C 0.3683(2) 0.31871(8) -0.0039(2)
H7 H 0.4071 0.2866 -0.0507
C11 C 0.2745(2) 0.36315(9) -0.1131(2)
H8 H 0.2509 0.3606 -0.2320
C12 C 0.2185(2) 0.40899(8) -0.0499(2)
H9 H 0.1538 0.4383 -0.1248
C13 C 0.2547(2) 0.41419(7) 0.1263(2)
C14 C 0.2016(3) 0.46210(8) 0.1974(3)
H10 H 0.1363 0.4918 0.1247
C15 C 0.2418(3) 0.46677(9) 0.3675(3)
H11 H 0.2056 0.4997 0.4130
C16 C 0.3361(3) 0.42340(9) 0.4765(3)
H12 H 0.3648 0.4274 0.5958
C17 C 0.3873(2) 0.37576(7) 0.4146(2)
H13 H 0.4493 0.3463 0.4906
C18 C 0.34938(19) 0.36936(7) 0.2373(2)
loop_
_geom_bond_atom_site_label_1
_geom_bond_atom_site_label_2
_geom_bond_site_symmetry_1
_geom_bond_site_symmetry_2
Cl1 C2 1_555 1_555
F1 C3 1_555 1_555
O1 C7 1_555 1_555
N1 H1 1_555 1_555
C1 H2 1_555 1_555
C2 C1 1_555 1_555
C3 C2 1_555 1_555
C4 C3 1_555 1_555
H3 C4 1_555 1_555
C5 C4 1_555 1_555
H4 C5 1_555 1_555
C6 N1 1_555 1_555
C7 N1 1_555 1_555
C8 C7 1_555 1_555
H5 C8 1_555 1_555
H6 C8 1_555 1_555
C9 C8 1_555 1_555
C10 C9 1_555 1_555
H7 C10 1_555 1_555
C11 C10 1_555 1_555
H8 C11 1_555 1_555
C12 C11 1_555 1_555
H9 C12 1_555 1_555
C13 C12 1_555 1_555
C14 C13 1_555 1_555
H10 C14 1_555 1_555
C15 C14 1_555 1_555
H11 C15 1_555 1_555
C16 C15 1_555 1_555
H12 C16 1_555 1_555
C17 C16 1_555 1_555
H13 C17 1_555 1_555
C18 C9 1_555 1_555
C1 C6 1_555 1_555
C5 C6 1_555 1_555
C13 C18 1_555 1_555
C17 C18 1_555 1_555

#END
