
#######################################################################
#
#                 Cambridge Crystallographic Data Centre
#                                CCDC 
#
#######################################################################
#
# If this CIF has been generated from an entry in the Cambridge 
# Structural Database, then it will include bibliographic, chemical, 
# crystal, experimental, refinement or atomic coordinate data resulting 
# from the CCDC's data processing and validation procedures.
#
#######################################################################

data_EVIBOB
_chemical_formula_moiety         'C28 H20 N2 O10,C1 H1 Cl3'
_chemical_name_systematic        
"Tetramethyl 5,5'-((4,5-dicyano-1,2-phenylene)bis(oxy))diisophthalate chloroform solvate"
_symmetry_cell_setting           triclinic
_symmetry_space_group_name_H-M   'P -1'
_symmetry_Int_Tables_number      2
_space_group_name_Hall           '-P 1'
loop_
_symmetry_equiv_pos_site_id
_symmetry_equiv_pos_as_xyz
1 x,y,z
2 -x,-y,-z
_cell_length_a                   9.9223(13)
_cell_length_b                   11.4374(15)
_cell_length_c                   13.9398(19)
_cell_angle_alpha                96.860(2)
_cell_angle_beta                 94.578(2)
_cell_angle_gamma                105.326(2)
_cell_volume                     1504.5
_exptl_crystal_colour            colorless
_exptl_crystal_description       block
_cell_formula_units_Z            2
loop_
_atom_site_label
_atom_site_type_symbol
_atom_site_fract_x
_atom_site_fract_y
_atom_site_fract_z
Cl1 Cl 0.33835(13) 0.52563(10) 0.60702(9)
Cl2 Cl 0.27318(15) 0.33393(13) 0.44608(10)
Cl3 Cl 0.25891(16) 0.27612(12) 0.63996(12)
C1 C 0.3476(4) 0.3780(3) 0.5670(3)
H1 H 0.4465 0.3775 0.5714
O1 O 0.0551(2) 0.25073(18) 0.19677(15)
O2 O 0.2198(2) 0.12734(18) 0.26465(14)
O3 O 0.3694(3) -0.2971(3) 0.4139(3)
O4 O 0.1564(2) -0.2758(2) 0.37967(19)
O5 O 0.7479(3) 0.2270(2) 0.3509(2)
O6 O 0.7752(2) 0.0552(2) 0.39934(19)
O7 O 0.2002(2) 0.7618(2) 0.09592(19)
O8 O 0.3489(2) 0.6556(2) 0.1366(2)
O9 O -0.3096(2) 0.5709(2) 0.0965(2)
O10 O -0.3797(2) 0.3866(2) 0.14128(19)
N1 N 0.0918(4) 0.1109(3) -0.2174(2)
N2 N 0.3628(4) -0.0670(3) -0.1112(2)
C2 C 0.0951(4) -0.3963(3) 0.4050(3)
H2 H -0.0057 -0.4147 0.3956
H3 H 0.1255 -0.3975 0.4719
H4 H 0.1247 -0.4564 0.3643
C3 C 0.2951(4) -0.2372(3) 0.3889(2)
C4 C 0.9268(4) 0.1075(4) 0.4124(3)
H5 H 0.9712 0.0493 0.4353
H6 H 0.9512 0.1807 0.4591
H7 H 0.9584 0.1269 0.3514
C5 C 0.6988(3) 0.1245(3) 0.3676(2)
C6 C 0.5452(3) 0.0611(3) 0.3552(2)
C7 C 0.4918(3) -0.0554(3) 0.3781(2)
H8 H 0.5526 -0.0971 0.4026
C8 C 0.3471(3) -0.1105(3) 0.3645(2)
C9 C 0.2562(3) -0.0503(3) 0.3263(2)
H9 H 0.1597 -0.0868 0.3163
C10 C 0.3125(3) 0.0655(3) 0.3032(2)
C11 C 0.4542(3) 0.1227(3) 0.3169(2)
H10 H 0.4889 0.2009 0.3009
C12 C 0.1995(3) 0.1196(2) 0.1661(2)
C13 C 0.2607(3) 0.0520(2) 0.1030(2)
H11 H 0.3180 0.0072 0.1272
C14 C 0.2363(3) 0.0511(2) 0.0030(2)
C15 C 0.1470(3) 0.1163(2) -0.0330(2)
C16 C 0.0845(3) 0.1825(2) 0.0309(2)
H12 H 0.0235 0.2243 0.0069
C17 C 0.1129(3) 0.1864(2) 0.1303(2)
C18 C 0.3050(3) -0.0161(3) -0.0612(2)
C19 C 0.1171(3) 0.1129(3) -0.1363(3)
C20 C -0.5227(3) 0.3945(4) 0.1327(4)
H13 H -0.5841 0.3203 0.1474
H14 H -0.5497 0.4057 0.0675
H15 H -0.5296 0.4627 0.1774
C21 C -0.2831(3) 0.4828(3) 0.1232(2)
C22 C 0.4657(4) 0.7573(3) 0.1234(3)
H16 H 0.5525 0.7368 0.1364
H17 H 0.4659 0.8286 0.1674
H18 H 0.4560 0.7738 0.0576
C23 C 0.2215(3) 0.6710(3) 0.1206(2)
C24 C 0.1085(3) 0.5622(3) 0.1353(2)
C25 C 0.1361(3) 0.4546(3) 0.1580(2)
H19 H 0.2280 0.4489 0.1648
C26 C 0.0262(3) 0.3570(2) 0.1704(2)
C27 C -0.1108(3) 0.3622(2) 0.1620(2)
H20 H -0.1836 0.2959 0.1717
C28 C -0.1380(3) 0.4696(2) 0.1384(2)
C29 C -0.0290(3) 0.5684(2) 0.1264(2)
H21 H -0.0484 0.6401 0.1121
loop_
_geom_bond_atom_site_label_1
_geom_bond_atom_site_label_2
_geom_bond_site_symmetry_1
_geom_bond_site_symmetry_2
Cl1 C1 1_555 1_555
Cl2 C1 1_555 1_555
Cl3 C1 1_555 1_555
C1 H1 1_555 1_555
O1 C17 1_555 1_555
O2 C10 1_555 1_555
O3 C3 1_555 1_555
O4 C2 1_555 1_555
O5 C5 1_555 1_555
O6 C4 1_555 1_555
O7 C23 1_555 1_555
O8 C22 1_555 1_555
O9 C21 1_555 1_555
O10 C20 1_555 1_555
N1 C19 1_555 1_555
N2 C18 1_555 1_555
C2 H2 1_555 1_555
H3 C2 1_555 1_555
H4 C2 1_555 1_555
C3 O4 1_555 1_555
C4 H5 1_555 1_555
H6 C4 1_555 1_555
H7 C4 1_555 1_555
C5 O6 1_555 1_555
C6 C5 1_555 1_555
C7 C6 1_555 1_555
H8 C7 1_555 1_555
C8 C3 1_555 1_555
C9 C8 1_555 1_555
H9 C9 1_555 1_555
C10 C9 1_555 1_555
C11 C6 1_555 1_555
H10 C11 1_555 1_555
C12 O2 1_555 1_555
C13 C12 1_555 1_555
H11 C13 1_555 1_555
C14 C13 1_555 1_555
C15 C14 1_555 1_555
C16 C15 1_555 1_555
H12 C16 1_555 1_555
C17 C12 1_555 1_555
C18 C14 1_555 1_555
C19 C15 1_555 1_555
C20 H13 1_555 1_555
H14 C20 1_555 1_555
H15 C20 1_555 1_555
C21 O10 1_555 1_555
C22 H16 1_555 1_555
H17 C22 1_555 1_555
H18 C22 1_555 1_555
C23 O8 1_555 1_555
C24 C23 1_555 1_555
C25 C24 1_555 1_555
H19 C25 1_555 1_555
C26 O1 1_555 1_555
C27 C26 1_555 1_555
H20 C27 1_555 1_555
C28 C21 1_555 1_555
C29 C24 1_555 1_555
H21 C29 1_555 1_555
C7 C8 1_555 1_555
C10 C11 1_555 1_555
C16 C17 1_555 1_555
C25 C26 1_555 1_555
C27 C28 1_555 1_555
C28 C29 1_555 1_555

#END
