
#######################################################################
#
#                 Cambridge Crystallographic Data Centre
#                                CCDC 
#
#######################################################################
#
# If this CIF has been generated from an entry in the Cambridge 
# Structural Database, then it will include bibliographic, chemical, 
# crystal, experimental, refinement or atomic coordinate data resulting 
# from the CCDC's data processing and validation procedures.
#
#######################################################################

data_EVIDAP
_chemical_name_common            'thiomorpholine-1,1-dioxide diazoacetamide'
_chemical_formula_moiety         'C6 H9 N3 O3 S1'
_chemical_name_systematic        
2-Diazo-1-(1,1-dioxothiomorpholin-4-yl)ethanone
_symmetry_cell_setting           monoclinic
_symmetry_space_group_name_H-M   'P 21/n'
_symmetry_Int_Tables_number      14
_space_group_name_Hall           '-P 2yn'
loop_
_symmetry_equiv_pos_site_id
_symmetry_equiv_pos_as_xyz
1 x,y,z
2 1/2-x,1/2+y,1/2-z
3 -x,-y,-z
4 1/2+x,1/2-y,1/2+z
_cell_length_a                   5.2729(3)
_cell_length_b                   20.1349(11)
_cell_length_c                   7.8683(4)
_cell_angle_alpha                90
_cell_angle_beta                 95.171(2)
_cell_angle_gamma                90
_cell_volume                     831.972
_exptl_crystal_colour            yellow
_exptl_crystal_description       needle
_cell_formula_units_Z            4
loop_
_atom_site_label
_atom_site_type_symbol
_atom_site_fract_x
_atom_site_fract_y
_atom_site_fract_z
S1 S 0.12602(8) 0.17713(2) 0.58307(5)
O1 O -0.1485(2) 0.17127(7) 0.56520(19)
O2 O 0.2367(3) 0.21336(7) 0.73056(18)
C1 C 0.2645(3) 0.09728(9) 0.5781(2)
H1 H 0.4524 0.1012 0.5913
H2 H 0.2115 0.0703 0.6739
C2 C 0.2280(3) 0.21174(9) 0.3937(2)
H3 H 0.1529 0.2565 0.3747
H4 H 0.4157 0.2163 0.4051
O3 O 0.5857(3) 0.02988(7) 0.23496(18)
N1 N 0.2562(3) 0.10078(8) 0.26290(19)
C3 C 0.1799(3) 0.06335(9) 0.4088(2)
H5 H 0.2552 0.0183 0.4081
H6 H -0.0077 0.0585 0.3982
C4 C 0.1452(4) 0.16671(9) 0.2410(2)
H7 H -0.042(3) 0.1625(15) 0.232(4)
H8 H 0.197(5) 0.1864(13) 0.135(3)
C5 C 0.4582(3) 0.07843(9) 0.1828(2)
C6 C 0.5141(4) 0.11299(10) 0.0274(2)
H9 H 0.410(5) 0.1428(12) -0.039(3)
N2 N 0.7103(3) 0.08892(9) -0.0445(2)
N3 N 0.8809(4) 0.06859(12) -0.1020(2)
C7? C 0.2645(3) 0.09728(9) 0.5781(2)
C8? C 0.2280(3) 0.21174(9) 0.3937(2)
H10? H 0.3969 0.0687 0.6379
H11? H 0.1168 0.0968 0.6474
H12? H 0.0734 0.2348 0.4255
H13? H 0.3408 0.2463 0.3519
O4? O 0.6562(19) 0.1779(9) 0.569(4)
O5? O 0.302(7) 0.2139(3) 0.7308(6)
S2? S 0.385(3) 0.1792(3) 0.5843(11)
loop_
_geom_bond_atom_site_label_1
_geom_bond_atom_site_label_2
_geom_bond_site_symmetry_1
_geom_bond_site_symmetry_2
S1 O1 1_555 1_555
O2 S1 1_555 1_555
C1 S1 1_555 1_555
H1 C1 1_555 1_555
H2 C1 1_555 1_555
C2 S1 1_555 1_555
H3 C2 1_555 1_555
H4 C2 1_555 1_555
O3 C5 1_555 1_555
N1 C3 1_555 1_555
C3 C1 1_555 1_555
H5 C3 1_555 1_555
H6 C3 1_555 1_555
C4 C2 1_555 1_555
H7 C4 1_555 1_555
H8 C4 1_555 1_555
C5 N1 1_555 1_555
C6 C5 1_555 1_555
H9 C6 1_555 1_555
N2 C6 1_555 1_555
N3 N2 1_555 1_555
N1 C4 1_555 1_555

#END
