
#######################################################################
#
#                 Cambridge Crystallographic Data Centre
#                                CCDC 
#
#######################################################################
#
# If this CIF has been generated from an entry in the Cambridge 
# Structural Database, then it will include bibliographic, chemical, 
# crystal, experimental, refinement or atomic coordinate data resulting 
# from the CCDC's data processing and validation procedures.
#
#######################################################################

data_EVIDEU
_chemical_compound_source        'Pedilanthus tithymaloides'
_chemical_name_common            
'(1S,2S,3S,4S,8R,9S,12S,13R,14R,15S)-1,7,8,9,14,15-hexaacetoxy-3-benzoyloxy-12,13-epoxyjatropha-6E-ene methanol solvate'
_chemical_formula_moiety         'C39 H50 O16,C1 H4 O1'
_chemical_name_systematic        
'4,5,6,11,11a,12-hexaacetoxy-8-hydroxy-3,3,7,10,12a-pentamethyl-2,3,4,5,8,8a,9,10,11,11a,12,12a-dodecahydro-1aH-cyclopenta[10,11]cyclododeca[1,2-b]oxiren-9-yl benzoate methanol solvate'
_symmetry_cell_setting           orthorhombic
_symmetry_space_group_name_H-M   'P 21 21 21'
_symmetry_Int_Tables_number      19
_space_group_name_Hall           'P 2ac 2ab'
loop_
_symmetry_equiv_pos_site_id
_symmetry_equiv_pos_as_xyz
1 x,y,z
2 1/2-x,-y,1/2+z
3 1/2+x,1/2-y,-z
4 -x,1/2+y,1/2-z
_cell_length_a                   9.42109(9)
_cell_length_b                   18.09352(15)
_cell_length_c                   24.80785(18)
_cell_angle_alpha                90
_cell_angle_beta                 90
_cell_angle_gamma                90
_cell_volume                     4228.76
_exptl_crystal_colour            colorless
_exptl_crystal_description       block
_cell_formula_units_Z            4
loop_
_atom_site_label
_atom_site_type_symbol
_atom_site_fract_x
_atom_site_fract_y
_atom_site_fract_z
O1 O 0.77779(10) 0.39771(5) 0.11172(4)
O2 O 0.41681(10) 0.46806(5) 0.13157(4)
O3 O 0.83380(12) 0.53916(5) 0.16002(4)
H1 H 0.9050 0.5607 0.1707
O4 O 0.27049(12) 0.37914(6) 0.16350(4)
O5 O 0.67822(12) 0.28444(6) 0.11686(5)
O6 O 0.55404(12) 0.72943(6) 0.14169(4)
O7 O 0.44867(10) 0.36017(6) 0.05945(4)
O8 O 0.81407(13) 0.75629(6) 0.09619(4)
O9 O 0.76620(13) 0.56698(6) -0.07283(4)
O10 O 0.79066(11) 0.49018(5) -0.00151(4)
O11 O 0.74631(13) 0.77110(6) 0.21394(4)
O12 O 0.67493(15) 0.75068(7) 0.02262(5)
O13 O 0.42770(15) 0.64088(7) 0.10014(6)
C1 C 0.78144(16) 0.32345(7) 0.11897(6)
C2 C 0.66701(17) 0.67749(8) 0.15272(6)
H2 H 0.6267 0.6276 0.1519
C3 C 0.95952(16) 0.48139(8) -0.07093(5)
C4 C 0.68013(15) 0.51552(7) 0.08437(5)
H3 H 0.6065 0.5470 0.1002
C5 C 1.02129(18) 0.50967(9) -0.11737(6)
H4 H 0.9844 0.5520 -0.1334
C6 C 0.82975(17) 0.51830(8) -0.04988(5)
O14 O 0.98394(16) 0.75811(7) 0.21953(6)
O15 O 0.50831(13) 0.27020(7) 0.00093(5)
C7 C 0.66194(16) 0.51982(8) 0.02299(5)
H5 H 0.6417 0.5702 0.0108
C8 C 0.30039(19) 0.25672(10) 0.05533(7)
H6 H 0.2813 0.2726 0.0915
H7 H 0.3144 0.2042 0.0548
H8 H 0.2215 0.2693 0.0326
C9 C 1.01543(17) 0.41801(8) -0.04695(6)
H9 H 0.9754 0.3995 -0.0154
C10 C 0.58698(15) 0.45866(8) 0.20392(5)
C11 C 0.82339(15) 0.54649(8) 0.10298(5)
H10 H 0.8985 0.5164 0.0867
C12 C 0.70477(17) 0.41696(8) 0.23144(6)
H11 H 0.6830 0.3651 0.2315
H12 H 0.7142 0.4341 0.2679
H13 H 0.7922 0.4251 0.2124
C13 C 0.8794(2) 0.79661(9) 0.21728(6)
C14 C 0.57436(15) 0.40191(8) 0.04822(5)
H14 H 0.6433 0.3700 0.0300
C15 C 0.54070(15) 0.42800(8) 0.14933(5)
H15 H 0.5148 0.3759 0.1539
C16 C 0.43025(17) 0.29407(9) 0.03522(6)
C17 C 0.64376(14) 0.43437(8) 0.10056(5)
C18 C 0.43915(19) 0.70368(9) 0.11526(7)
C19 C 0.53952(15) 0.46759(8) 0.01174(6)
H16 H 0.4520 0.4906 0.0249
C20 C 0.6355(2) 0.57890(8) 0.26014(6)
H17 H 0.7338 0.5635 0.2573
H18 H 0.6027 0.5645 0.2957
C21 C 0.77806(17) 0.68255(8) 0.10922(5)
C22 C 0.55062(17) 0.53508(8) 0.21904(5)
H19 H 0.5058 0.5645 0.1906
C23 C 0.84684(16) 0.62696(8) 0.08580(5)
C24 C 1.13832(18) 0.47461(10) -0.13981(6)
H20 H 1.1807 0.4939 -0.1706
C25 C 1.13069(18) 0.38266(10) -0.07014(6)
H21 H 1.1670 0.3398 -0.0546
C26 C 0.3291(2) 0.76299(10) 0.10894(8)
H22 H 0.2753 0.7672 0.1417
H23 H 0.2667 0.7505 0.0797
H24 H 0.3750 0.8092 0.1014
C27 C 0.28886(15) 0.43587(8) 0.13934(6)
C28 C 0.95768(18) 0.64127(9) 0.04332(6)
H25 H 1.0301 0.6040 0.0454
H26 H 0.9993 0.6890 0.0491
H27 H 0.9143 0.6399 0.0083
C29 C 0.72413(19) 0.69174(8) 0.20952(6)
H28 H 0.8170 0.6677 0.2123
C30 C 0.92919(17) 0.29730(9) 0.12975(7)
H29 H 0.9689 0.2771 0.0973
H30 H 0.9274 0.2599 0.1572
H31 H 0.9862 0.3381 0.1417
C31 C 0.75698(19) 0.78415(9) 0.05000(6)
C32 C 0.8817(2) 0.87905(9) 0.21669(8)
H32 H 0.8817 0.8963 0.1801
H33 H 0.9656 0.8963 0.2347
H34 H 0.7992 0.8976 0.2349
C33 C 0.6324(2) 0.66478(9) 0.25738(6)
C34 C 0.51740(19) 0.44602(10) -0.04720(6)
H35 H 0.4974 0.4895 -0.0681
H36 H 0.4391 0.4122 -0.0499
H37 H 0.6018 0.4228 -0.0607
C35 C 1.19179(17) 0.41122(10) -0.11644(6)
H38 H 1.2694 0.3875 -0.1319
C36 C 0.4813(3) 0.69529(10) 0.25682(8)
H39 H 0.4295 0.6737 0.2274
H40 H 0.4842 0.7480 0.2525
H41 H 0.4351 0.6833 0.2902
C37 C 0.17628(18) 0.48048(10) 0.11222(7)
H42 H 0.1970 0.5321 0.1164
H43 H 0.0859 0.4697 0.1283
H44 H 0.1736 0.4683 0.0746
C38 C 0.8120(3) 0.86060(10) 0.03988(8)
H45 H 0.7577 0.8955 0.0605
H46 H 0.8035 0.8720 0.0022
H47 H 0.9099 0.8633 0.0504
C39 C 0.7070(3) 0.69081(10) 0.30906(7)
H48 H 0.6591 0.6707 0.3399
H49 H 0.7049 0.7438 0.3108
H50 H 0.8038 0.6742 0.3088
O16 O 0.46652(12) 0.47335(6) 0.23896(4)
O17 O 1.42564(15) 0.38549(7) -0.30392(5)
H51 H 1.4305 0.3403 -0.3022
C40 C 1.3706(3) 0.41343(14) -0.25509(10)
H52 H 1.3102 0.4549 -0.2625
H53 H 1.4474 0.4288 -0.2323
H54 H 1.3168 0.3756 -0.2373
loop_
_geom_bond_atom_site_label_1
_geom_bond_atom_site_label_2
_geom_bond_site_symmetry_1
_geom_bond_site_symmetry_2
O1 C1 1_555 1_555
O2 C15 1_555 1_555
O3 H1 1_555 1_555
O4 C27 1_555 1_555
O5 C1 1_555 1_555
O6 C2 1_555 1_555
O7 C14 1_555 1_555
O8 C21 1_555 1_555
O9 C6 1_555 1_555
O10 C6 1_555 1_555
O11 C13 1_555 1_555
O12 C31 1_555 1_555
O13 C18 1_555 1_555
C1 C30 1_555 1_555
C2 H2 1_555 1_555
C3 C5 1_555 1_555
C4 H3 1_555 1_555
C5 H4 1_555 1_555
C6 C3 1_555 1_555
O14 C13 1_555 1_555
O15 C16 1_555 1_555
C7 O10 1_555 1_555
H5 C7 1_555 1_555
C8 H6 1_555 1_555
H7 C8 1_555 1_555
H8 C8 1_555 1_555
C9 C3 1_555 1_555
H9 C9 1_555 1_555
C10 C12 1_555 1_555
C11 O3 1_555 1_555
H10 C11 1_555 1_555
C12 H11 1_555 1_555
H12 C12 1_555 1_555
H13 C12 1_555 1_555
C13 C32 1_555 1_555
C14 H14 1_555 1_555
C15 C10 1_555 1_555
H15 C15 1_555 1_555
C16 O7 1_555 1_555
C17 O1 1_555 1_555
C18 O6 1_555 1_555
C19 C7 1_555 1_555
H16 C19 1_555 1_555
C20 H17 1_555 1_555
H18 C20 1_555 1_555
C21 C2 1_555 1_555
C22 C10 1_555 1_555
H19 C22 1_555 1_555
C23 C11 1_555 1_555
C24 C5 1_555 1_555
H20 C24 1_555 1_555
C25 C9 1_555 1_555
H21 C25 1_555 1_555
C26 C18 1_555 1_555
H22 C26 1_555 1_555
H23 C26 1_555 1_555
H24 C26 1_555 1_555
C27 O2 1_555 1_555
C28 C23 1_555 1_555
H25 C28 1_555 1_555
H26 C28 1_555 1_555
H27 C28 1_555 1_555
C29 O11 1_555 1_555
H28 C29 1_555 1_555
C30 H29 1_555 1_555
H30 C30 1_555 1_555
H31 C30 1_555 1_555
C31 O8 1_555 1_555
C32 H32 1_555 1_555
H33 C32 1_555 1_555
H34 C32 1_555 1_555
C33 C20 1_555 1_555
C34 C19 1_555 1_555
H35 C34 1_555 1_555
H36 C34 1_555 1_555
H37 C34 1_555 1_555
C35 C24 1_555 1_555
H38 C35 1_555 1_555
C36 C33 1_555 1_555
H39 C36 1_555 1_555
H40 C36 1_555 1_555
H41 C36 1_555 1_555
C37 C27 1_555 1_555
H42 C37 1_555 1_555
H43 C37 1_555 1_555
H44 C37 1_555 1_555
C38 C31 1_555 1_555
H45 C38 1_555 1_555
H46 C38 1_555 1_555
H47 C38 1_555 1_555
C39 C33 1_555 1_555
H48 C39 1_555 1_555
H49 C39 1_555 1_555
H50 C39 1_555 1_555
O16 C10 1_555 1_555
O17 H51 1_555 1_555
C40 O17 1_555 1_555
H52 C40 1_555 1_555
H53 C40 1_555 1_555
H54 C40 1_555 1_555
C2 C29 1_555 1_555
C4 C7 1_555 1_555
C4 C11 1_555 1_555
C4 C17 1_555 1_555
C8 C16 1_555 1_555
C14 C17 1_555 1_555
C14 C19 1_555 1_555
C15 C17 1_555 1_555
C20 C22 1_555 1_555
C21 C23 1_555 1_555
C22 O16 1_555 1_555
C25 C35 1_555 1_555
C29 C33 1_555 1_555

#END
