
#######################################################################
#
#                 Cambridge Crystallographic Data Centre
#                                CCDC 
#
#######################################################################
#
# If this CIF has been generated from an entry in the Cambridge 
# Structural Database, then it will include bibliographic, chemical, 
# crystal, experimental, refinement or atomic coordinate data resulting 
# from the CCDC's data processing and validation procedures.
#
#######################################################################

data_EVIFUM
_chemical_formula_moiety         'C72 H44 F20 N8,1.25(C1 H2 Cl2),0.38(C6 H14)'
_chemical_name_systematic        
'7,7,17,17,27,27,37,37-octamethyl-2,12,22,32-tetrakis(pentafluorophenyl)-4,14,24,34,41,43,45,47-octaazanonacyclo[36.2.1.1^3,6^.1^8,11^.1^13,16^.1^18,21^.1^23,26^.1^28,31^.1^33,36^]octatetraconta-1(40),2,4,6(48),8,10,12,14,16(46),18,20,22,24,26(44),28,30,32,34,36(42),38-icosaene dichloromethane hexane solvate'
_symmetry_cell_setting           triclinic
_symmetry_space_group_name_H-M   'P -1'
_symmetry_Int_Tables_number      2
_space_group_name_Hall           '-P 1'
loop_
_symmetry_equiv_pos_site_id
_symmetry_equiv_pos_as_xyz
1 x,y,z
2 -x,-y,-z
_cell_length_a                   11.354(4)
_cell_length_b                   12.019(4)
_cell_length_c                   13.023(4)
_cell_angle_alpha                102.234(6)
_cell_angle_beta                 92.956(3)
_cell_angle_gamma                100.004(4)
_cell_volume                     1703.17
_exptl_crystal_colour            orange
_exptl_crystal_description       prism
_cell_formula_units_Z            1
loop_
_atom_site_label
_atom_site_type_symbol
_atom_site_fract_x
_atom_site_fract_y
_atom_site_fract_z
Cl1 Cl 0.84392(8) -0.01136(8) 0.96911(8)
Cl2 Cl 0.82283(14) -0.01557(14) 1.18970(10)
C37 C 0.8420(6) -0.0951(5) 1.0608(4)
H23 H 0.9183 -0.1241 1.0632
H24 H 0.7756 -0.1630 1.0392
F1 F 0.55279(11) -0.10207(12) 0.99993(10)
F2 F 0.34860(13) -0.14729(14) 1.09167(11)
F3 F 0.14174(12) -0.25941(14) 0.97357(12)
F4 F 0.14006(12) -0.32567(14) 0.76010(12)
F5 F 0.34500(12) -0.28694(12) 0.66733(10)
F6 F 1.08339(12) 0.47281(12) 0.60023(11)
F7 F 1.20228(15) 0.52515(13) 0.43843(11)
F8 F 1.40867(14) 0.44450(14) 0.39433(11)
F9 F 1.49153(13) 0.30757(14) 0.51151(12)
F10 F 1.37650(12) 0.25958(12) 0.67736(11)
N1 N 0.76453(15) -0.22924(16) 0.75370(14)
N2 N 0.69034(15) -0.05877(15) 0.67228(14)
H1 H 0.7518 -0.0946 0.6699
N3 N 0.99284(15) 0.23813(16) 0.80629(14)
N4 N 1.17761(15) 0.39805(15) 0.93315(13)
H2 H 1.1094 0.3540 0.9401
C1 C 0.82356(18) -0.31092(18) 0.77865(17)
H3 H 0.9013 -0.3213 0.7599
C2 C 0.75166(18) -0.37663(18) 0.83590(16)
C3 C 0.65431(18) -0.23974(18) 0.79457(16)
C4 C 0.64535(18) -0.33063(18) 0.84650(16)
H4 H 0.5793 -0.3571 0.8827
C5 C 0.56959(17) -0.16800(18) 0.77946(16)
C6 C 0.58585(18) -0.08364(18) 0.72300(16)
C7 C 0.50715(18) -0.00405(19) 0.70766(17)
H5 H 0.4306 -0.0015 0.7333
C8 C 0.56482(19) 0.06586(19) 0.64947(17)
H6 H 0.5367 0.1273 0.6265
C9 C 0.67838(18) 0.02825(17) 0.62917(16)
C10 C 0.77683(18) 0.08137(18) 0.57008(16)
C11 C 0.88210(18) 0.14943(17) 0.64787(16)
C12 C 0.89121(18) 0.16898(18) 0.76148(16)
H7 H 0.8309 0.1359 0.7999
C13 C 0.98683(18) 0.21067(18) 0.62466(16)
H8 H 1.0093 0.2150 0.5562
C14 C 1.05648(18) 0.26710(18) 0.72287(16)
C15 C 1.16602(18) 0.34226(17) 0.73895(16)
C16 C 1.22561(17) 0.40355(18) 0.83830(16)
C17 C 1.33532(19) 0.48324(19) 0.86151(17)
H9 H 1.3884 0.5049 0.8120
C18 C 1.35145(18) 0.52441(19) 0.97070(17)
H10 H 1.4180 0.5790 1.0093
C19 C 1.25167(18) 0.47083(18) 1.01351(16)
C20 C 1.22368(18) 0.48273(18) 1.12728(16)
C21 C 0.45520(17) -0.19061(17) 0.83009(16)
C22 C 0.45172(18) -0.15779(18) 0.93877(17)
C23 C 0.3477(2) -0.1800(2) 0.98683(17)
C24 C 0.24256(19) -0.2364(2) 0.92675(19)
C25 C 0.24217(18) -0.27031(19) 0.81886(18)
C26 C 0.34802(18) -0.24841(18) 0.77191(16)
C27 C 0.7310(2) 0.1644(2) 0.50921(19)
H11 H 0.6593 0.1230 0.4625
H12 H 0.7937 0.1929 0.4671
H13 H 0.7108 0.2300 0.5593
C28 C 0.8180(2) -0.0163(2) 0.49187(18)
H14 H 0.7505 -0.0586 0.4406
H15 H 0.8465 -0.0698 0.5304
H16 H 0.8834 0.0171 0.4548
C29 C 1.22687(18) 0.36558(18) 0.64426(16)
C30 C 1.18420(19) 0.43149(19) 0.58045(17)
C31 C 1.2443(2) 0.4585(2) 0.49637(17)
C32 C 1.3482(2) 0.4166(2) 0.47385(17)
C33 C 1.39082(19) 0.3483(2) 0.53393(18)
C34 C 1.33096(19) 0.32441(19) 0.61884(17)
C35 C 1.0922(2) 0.4956(2) 1.13666(18)
H17 H 1.0780 0.5627 1.1097
H18 H 1.0756 0.5068 1.2109
H19 H 1.0392 0.4254 1.0954
C36 C 1.3066(2) 0.59151(19) 1.19621(17)
H20 H 1.2923 0.6605 1.1724
H21 H 1.3906 0.5841 1.1899
H22 H 1.2893 0.5990 1.2701
F1A F 1.44721(11) 0.10207(12) 1.00007(10)
F2A F 1.65140(13) 0.14729(14) 0.90833(11)
F3A F 1.85826(12) 0.25941(14) 1.02643(12)
F4A F 1.85994(12) 0.32567(14) 1.23990(12)
F5A F 1.65500(12) 0.28694(12) 1.33267(10)
F6A F 0.91661(12) -0.47281(12) 1.39977(11)
F7A F 0.79772(15) -0.52515(13) 1.56157(11)
F8A F 0.59133(14) -0.44450(14) 1.60567(11)
F9A F 0.50847(13) -0.30757(14) 1.48849(12)
F10A F 0.62350(12) -0.25958(12) 1.32264(11)
N1A N 1.23547(15) 0.22924(16) 1.24630(14)
N2A N 1.30966(15) 0.05877(15) 1.32772(14)
H1A H 1.2482 0.0946 1.3301
N3A N 1.00716(15) -0.23813(16) 1.19371(14)
N4A N 0.82239(15) -0.39805(15) 1.06685(13)
H2A H 0.8906 -0.3540 1.0599
C1A C 1.17644(18) 0.31092(18) 1.22135(17)
H3A H 1.0987 0.3213 1.2401
C2A C 1.24834(18) 0.37663(18) 1.16410(16)
C3A C 1.34569(18) 0.23974(18) 1.20543(16)
C4A C 1.35465(18) 0.33063(18) 1.15350(16)
H4A H 1.4207 0.3571 1.1173
C5A C 1.43041(17) 0.16800(18) 1.22054(16)
C6A C 1.41415(18) 0.08364(18) 1.27700(16)
C7A C 1.49285(18) 0.00405(19) 1.29234(17)
H5A H 1.5694 0.0015 1.2667
C8A C 1.43518(19) -0.06586(19) 1.35053(17)
H6A H 1.4633 -0.1273 1.3735
C9A C 1.32162(18) -0.02825(17) 1.37083(16)
C10A C 1.22317(18) -0.08137(18) 1.42992(16)
C11A C 1.11790(18) -0.14943(17) 1.35213(16)
C12A C 1.10879(18) -0.16898(18) 1.23852(16)
H7A H 1.1691 -0.1359 1.2001
C13A C 1.01317(18) -0.21067(18) 1.37534(16)
H8A H 0.9907 -0.2150 1.4438
C14A C 0.94352(18) -0.26710(18) 1.27713(16)
C15A C 0.83398(18) -0.34226(17) 1.26105(16)
C16A C 0.77439(17) -0.40355(18) 1.16170(16)
C17A C 0.66468(19) -0.48324(19) 1.13849(17)
H9A H 0.6116 -0.5049 1.1880
C18A C 0.64855(18) -0.52441(19) 1.02930(17)
H10A H 0.5820 -0.5790 0.9907
C19A C 0.74833(18) -0.47083(18) 0.98649(16)
C20A C 0.77632(18) -0.48273(18) 0.87272(16)
C21A C 1.54480(17) 0.19061(17) 1.16991(16)
C22A C 1.54828(18) 0.15779(18) 1.06123(17)
C23A C 1.6523(2) 0.1800(2) 1.01317(17)
C24A C 1.75744(19) 0.2364(2) 1.07325(19)
C25A C 1.75783(18) 0.27031(19) 1.18114(18)
C26A C 1.65198(18) 0.24841(18) 1.22809(16)
C27A C 1.2690(2) -0.1644(2) 1.49079(19)
H11A H 1.3407 -0.1230 1.5375
H12A H 1.2063 -0.1929 1.5329
H13A H 1.2892 -0.2300 1.4407
C28A C 1.1820(2) 0.0163(2) 1.50813(18)
H14A H 1.2495 0.0586 1.5594
H15A H 1.1535 0.0698 1.4696
H16A H 1.1166 -0.0171 1.5452
C29A C 0.77313(18) -0.36558(18) 1.35574(16)
C30A C 0.81580(19) -0.43149(19) 1.41955(17)
C31A C 0.7557(2) -0.4585(2) 1.50363(17)
C32A C 0.6518(2) -0.4166(2) 1.52615(17)
C33A C 0.60918(19) -0.3483(2) 1.46607(18)
C34A C 0.66904(19) -0.32441(19) 1.38116(17)
C35A C 0.9078(2) -0.4956(2) 0.86334(18)
H17A H 0.9220 -0.5627 0.8903
H18A H 0.9244 -0.5068 0.7891
H19A H 0.9608 -0.4254 0.9046
C36A C 0.6934(2) -0.59151(19) 0.80379(17)
H20A H 0.7077 -0.6605 0.8276
H21A H 0.6094 -0.5841 0.8101
H22A H 0.7107 -0.5990 0.7299
H25? H 0.9807 0.0864 1.0864
H26? H 1.0302 -0.0265 1.0976
C38? C 0.8430(13) -0.0589(10) 1.0678(12)
H27? H 0.8356 -0.1442 1.0492
H28? H 0.7828 -0.0369 1.0220
C39? C 0.82283(14) -0.01557(14) 1.18970(10)
H29? H 0.8979 0.0313 1.2278
H30? H 0.7983 -0.0829 1.2203
H31? H 0.7600 0.0314 1.1955
C40? C 0.9744(9) 0.0030(10) 1.0538(10)
loop_
_geom_bond_atom_site_label_1
_geom_bond_atom_site_label_2
_geom_bond_site_symmetry_1
_geom_bond_site_symmetry_2
F1 C22 1_555 1_555
F2 C23 1_555 1_555
F3 C24 1_555 1_555
F4 C25 1_555 1_555
F5 C26 1_555 1_555
F6 C30 1_555 1_555
F7 C31 1_555 1_555
F8 C32 1_555 1_555
F9 C33 1_555 1_555
F10 C34 1_555 1_555
N1 C1 1_555 1_555
N2 H1 1_555 1_555
N3 C12 1_555 1_555
N4 H2 1_555 1_555
C1 H3 1_555 1_555
C2 C1 1_555 1_555
C3 N1 1_555 1_555
C4 C2 1_555 1_555
H4 C4 1_555 1_555
C5 C3 1_555 1_555
C6 N2 1_555 1_555
C7 C6 1_555 1_555
H5 C7 1_555 1_555
C8 C7 1_555 1_555
H6 C8 1_555 1_555
C9 N2 1_555 1_555
C10 C9 1_555 1_555
C11 C10 1_555 1_555
C12 C11 1_555 1_555
H7 C12 1_555 1_555
C13 C11 1_555 1_555
H8 C13 1_555 1_555
C14 N3 1_555 1_555
C15 C14 1_555 1_555
C16 N4 1_555 1_555
C17 C16 1_555 1_555
H9 C17 1_555 1_555
C18 C17 1_555 1_555
H10 C18 1_555 1_555
C19 N4 1_555 1_555
C20 C19 1_555 1_555
C21 C5 1_555 1_555
C22 C21 1_555 1_555
C23 C22 1_555 1_555
C24 C23 1_555 1_555
C25 C24 1_555 1_555
C26 C21 1_555 1_555
C27 C10 1_555 1_555
H11 C27 1_555 1_555
H12 C27 1_555 1_555
H13 C27 1_555 1_555
C28 C10 1_555 1_555
H14 C28 1_555 1_555
H15 C28 1_555 1_555
H16 C28 1_555 1_555
C29 C15 1_555 1_555
C30 C29 1_555 1_555
C31 C30 1_555 1_555
C32 C31 1_555 1_555
C33 C32 1_555 1_555
C34 C29 1_555 1_555
C35 C20 1_555 1_555
H17 C35 1_555 1_555
H18 C35 1_555 1_555
H19 C35 1_555 1_555
C36 C20 1_555 1_555
H20 C36 1_555 1_555
H21 C36 1_555 1_555
H22 C36 1_555 1_555
Cl1 C37 1_555 1_555
Cl2 C37 1_555 1_555
C37 H23 1_555 1_555
H24 C37 1_555 1_555
F1A C22A 1_555 1_555
F2A C23A 1_555 1_555
F3A C24A 1_555 1_555
F4A C25A 1_555 1_555
F5A C26A 1_555 1_555
F6A C30A 1_555 1_555
F7A C31A 1_555 1_555
F8A C32A 1_555 1_555
F9A C33A 1_555 1_555
F10A C34A 1_555 1_555
N1A C1A 1_555 1_555
N2A H1A 1_555 1_555
N3A C12A 1_555 1_555
N4A H2A 1_555 1_555
C1A H3A 1_555 1_555
C2A C20 1_555 1_555
C3A N1A 1_555 1_555
C4A C2A 1_555 1_555
H4A C4A 1_555 1_555
C5A C3A 1_555 1_555
C6A N2A 1_555 1_555
C7A C6A 1_555 1_555
H5A C7A 1_555 1_555
C8A C7A 1_555 1_555
H6A C8A 1_555 1_555
C9A N2A 1_555 1_555
C10A C9A 1_555 1_555
C11A C10A 1_555 1_555
C12A C11A 1_555 1_555
H7A C12A 1_555 1_555
C13A C11A 1_555 1_555
H8A C13A 1_555 1_555
C14A N3A 1_555 1_555
C15A C14A 1_555 1_555
C16A N4A 1_555 1_555
C17A C16A 1_555 1_555
H9A C17A 1_555 1_555
C18A C17A 1_555 1_555
H10A C18A 1_555 1_555
C19A N4A 1_555 1_555
C20A C2 1_555 1_555
C21A C5A 1_555 1_555
C22A C21A 1_555 1_555
C23A C22A 1_555 1_555
C24A C23A 1_555 1_555
C25A C24A 1_555 1_555
C26A C21A 1_555 1_555
C27A C10A 1_555 1_555
H11A C27A 1_555 1_555
H12A C27A 1_555 1_555
H13A C27A 1_555 1_555
C28A C10A 1_555 1_555
H14A C28A 1_555 1_555
H15A C28A 1_555 1_555
H16A C28A 1_555 1_555
C29A C15A 1_555 1_555
C30A C29A 1_555 1_555
C31A C30A 1_555 1_555
C32A C31A 1_555 1_555
C33A C32A 1_555 1_555
C34A C29A 1_555 1_555
C35A C20A 1_555 1_555
H17A C35A 1_555 1_555
H18A C35A 1_555 1_555
H19A C35A 1_555 1_555
C36A C20A 1_555 1_555
H20A C36A 1_555 1_555
H21A C36A 1_555 1_555
H22A C36A 1_555 1_555
C3 C4 1_555 1_555
C5 C6 1_555 1_555
C8 C9 1_555 1_555
C13 C14 1_555 1_555
C15 C16 1_555 1_555
C18 C19 1_555 1_555
C25 C26 1_555 1_555
C33 C34 1_555 1_555
C1A C2A 1_555 1_555
C3A C4A 1_555 1_555
C5A C6A 1_555 1_555
C8A C9A 1_555 1_555
C13A C14A 1_555 1_555
C15A C16A 1_555 1_555
C18A C19A 1_555 1_555
C19A C20A 1_555 1_555
C25A C26A 1_555 1_555
C33A C34A 1_555 1_555

#END
