
#######################################################################
#
#                 Cambridge Crystallographic Data Centre
#                                CCDC 
#
#######################################################################
#
# If this CIF has been generated from an entry in the Cambridge 
# Structural Database, then it will include bibliographic, chemical, 
# crystal, experimental, refinement or atomic coordinate data resulting 
# from the CCDC's data processing and validation procedures.
#
#######################################################################

data_EVIFOG
_chemical_formula_moiety         'C54 H30 B3 F21 N6,1.5(C1 H1 Cl3)'
_chemical_name_systematic        
'10,10,21,21,32,32-hexafluoro-4,4,15,15,26,26-hexamethyl-34,37,39-tris(pentafluorophenyl)-9,11,20,22,31,33-hexaaza-10,21,32-triboradecacyclo[28.3.1.1^3,33^.1^8,12^.1^11,14^.1^19,23^.1^22,25^.0^5,9^.0^16,20^.0^27,31^]nonatriaconta-1(34),2,5(9),6,8(39),12,14(38),16,18,22(36),23(37),24,27,29,33(35)-pentadecaene chloroform solvate'
_symmetry_cell_setting           monoclinic
_symmetry_space_group_name_H-M   'P 21'
_symmetry_Int_Tables_number      4
_space_group_name_Hall           'P 2yb'
loop_
_symmetry_equiv_pos_site_id
_symmetry_equiv_pos_as_xyz
1 x,y,z
2 -x,1/2+y,-z
_cell_length_a                   11.347(4)
_cell_length_b                   29.503(8)
_cell_length_c                   17.066(5)
_cell_angle_alpha                90
_cell_angle_beta                 95.225(4)
_cell_angle_gamma                90
_cell_volume                     5689.45
_exptl_crystal_colour            colorless
_exptl_crystal_description       prism
_cell_formula_units_Z            4
loop_
_atom_site_label
_atom_site_type_symbol
_atom_site_fract_x
_atom_site_fract_y
_atom_site_fract_z
Cl1 Cl 0.87698(16) 0.13653(7) 0.53947(10)
Cl2 Cl 1.03911(19) 0.07287(7) 0.47636(13)
Cl3 Cl 0.93160(19) 0.14441(7) 0.37947(10)
C1 C 0.9878(6) 0.1289(3) 0.4748(4)
H1 H 1.0558 0.1493 0.4918
Cl4 Cl 0.56169(19) 0.67578(8) 0.76526(11)
Cl5 Cl 0.40329(18) 0.65177(9) 0.62822(14)
Cl6 Cl 0.5949(3) 0.59176(8) 0.68324(13)
C2 C 0.5491(7) 0.6482(3) 0.6717(4)
H2 H 0.6024 0.6638 0.6368
Cl7 Cl 0.67326(18) 0.75810(8) 0.10370(11)
Cl8 Cl 0.5549(3) 0.73403(11) -0.04800(15)
Cl9 Cl 0.8018(3) 0.70924(9) -0.00725(14)
C3 C 0.6611(9) 0.7171(3) 0.0279(5)
H3 H 0.6352 0.6877 0.0502
F1 F 0.6479(4) 0.26100(13) 0.61352(18)
F2 F 0.8283(3) 0.26806(13) 0.6831(2)
F3 F 0.4345(3) 0.38524(13) 0.54839(18)
F4 F 0.3932(3) 0.43376(12) 0.44645(19)
F5 F 0.2679(3) 0.16324(12) 0.46584(19)
F6 F 0.3822(3) 0.22493(13) 0.44767(18)
F7 F 0.4811(3) 0.34689(13) 0.9086(2)
F8 F 0.4720(4) 0.40911(16) 1.0237(3)
F9 F 0.6566(4) 0.46799(14) 1.0560(2)
F10 F 0.8482(4) 0.46498(14) 0.9721(2)
F11 F 0.8620(3) 0.40091(14) 0.8602(2)
F12 F 0.6967(4) 0.26370(14) 0.37770(19)
F13 F 0.8111(4) 0.21853(14) 0.2696(3)
F14 F 0.7922(4) 0.24711(15) 0.1174(3)
F15 F 0.6615(5) 0.32241(16) 0.0755(2)
F16 F 0.5494(4) 0.36773(14) 0.1834(2)
F17 F 0.1345(5) 0.28431(15) 0.7431(3)
F18 F 0.0061(5) 0.2750(2) 0.8660(3)
F19 F -0.0828(4) 0.1921(2) 0.9010(3)
F20 F -0.0478(4) 0.12027(16) 0.8080(3)
F21 F 0.0810(4) 0.12994(14) 0.6826(3)
N1 N 0.6609(4) 0.26407(17) 0.7586(3)
N2 N 0.6943(5) 0.33154(18) 0.6751(3)
N3 N 0.5824(4) 0.39529(17) 0.4536(3)
N4 N 0.3913(4) 0.35354(17) 0.4206(3)
N5 N 0.1887(4) 0.23498(16) 0.5018(3)
N6 N 0.3639(4) 0.20143(18) 0.5798(3)
C4 C 0.6400(5) 0.22137(19) 0.7859(3)
C5 C 0.6369(6) 0.2243(3) 0.8676(4)
C6 C 0.6535(5) 0.2687(3) 0.8898(4)
C7 C 0.6667(5) 0.2940(2) 0.8226(3)
C8 C 0.6752(5) 0.3407(2) 0.8124(3)
C9 C 0.6841(5) 0.3602(2) 0.7387(3)
C10 C 0.6745(5) 0.4051(2) 0.7094(4)
C11 C 0.6811(5) 0.4031(2) 0.6293(3)
C12 C 0.6934(5) 0.3571(3) 0.6107(4)
C13 C 0.6762(5) 0.4426(2) 0.5703(3)
C14 C 0.6752(5) 0.4203(2) 0.4892(3)
C15 C 0.7749(5) 0.4154(3) 0.4456(4)
C16 C 0.7436(6) 0.3859(3) 0.3828(4)
C17 C 0.6242(5) 0.37340(19) 0.3892(3)
C18 C 0.5565(5) 0.3415(2) 0.3443(4)
C19 C 0.4423(5) 0.3302(2) 0.3610(3)
C20 C 0.3592(5) 0.2965(2) 0.3313(3)
C21 C 0.2618(5) 0.2993(2) 0.3726(3)
C22 C 0.2843(5) 0.3353(2) 0.4280(3)
C23 C 0.1472(5) 0.2722(2) 0.3665(4)
C24 C 0.1156(5) 0.2581(2) 0.4465(3)
C25 C 0.0075(5) 0.2672(3) 0.4788(4)
C26 C 0.0129(5) 0.2491(3) 0.5545(4)
C27 C 0.1270(5) 0.2294(2) 0.5696(4)
C28 C 0.1830(5) 0.2124(2) 0.6389(3)
C29 C 0.3013(5) 0.2000(2) 0.6468(3)
C30 C 0.3843(5) 0.1916(2) 0.7127(3)
C31 C 0.4955(5) 0.1876(2) 0.6862(4)
C32 C 0.4784(5) 0.1926(2) 0.6031(4)
C33 C 0.6127(5) 0.1800(2) 0.7355(4)
C34 C 0.6713(5) 0.3719(2) 0.8805(3)
C35 C 0.5751(6) 0.3750(3) 0.9243(4)
C36 C 0.5689(6) 0.4068(3) 0.9837(4)
C37 C 0.6634(7) 0.4359(3) 1.0002(4)
C38 C 0.7593(6) 0.4346(2) 0.9572(4)
C39 C 0.7634(6) 0.4026(3) 0.8995(4)
C40 C 0.7923(6) 0.4707(3) 0.5843(4)
C41 C 0.5711(6) 0.4738(3) 0.5800(4)
C42 C 0.6144(5) 0.3156(2) 0.2830(4)
C43 C 0.6847(6) 0.2782(3) 0.3024(4)
C44 C 0.7428(6) 0.2542(2) 0.2486(4)
C45 C 0.7334(6) 0.2689(3) 0.1712(4)
C46 C 0.6665(6) 0.3066(3) 0.1503(4)
C47 C 0.6103(5) 0.3297(3) 0.2055(4)
C48 C 0.1569(6) 0.2306(3) 0.3125(4)
C49 C 0.0484(5) 0.3034(3) 0.3278(4)
C50 C 0.1121(6) 0.2076(3) 0.7090(4)
C51 C 0.0918(7) 0.2431(3) 0.7575(4)
C52 C 0.0252(7) 0.2394(3) 0.8213(5)
C53 C -0.0195(6) 0.1965(4) 0.8375(4)
C54 C -0.0003(6) 0.1606(3) 0.7921(4)
C55 C 0.0643(6) 0.1661(3) 0.7285(4)
C56 C 0.6008(6) 0.1383(3) 0.7902(4)
C57 C 0.7129(5) 0.1686(3) 0.6838(4)
B1 B 0.7067(6) 0.2793(3) 0.6801(4)
B2 B 0.4495(6) 0.3926(3) 0.4708(4)
B3 B 0.3033(6) 0.2065(3) 0.4951(4)
H4 H 0.6253 0.1997 0.9019
H5 H 0.6556 0.2801 0.9420
H6 H 0.6653 0.4317 0.7395
H7 H 0.7002 0.3458 0.5592
H8 H 0.8496 0.4295 0.4570
H9 H 0.7926 0.3762 0.3437
H10 H 0.3699 0.2757 0.2900
H11 H 0.2314 0.3449 0.4647
H12 H -0.0580 0.2830 0.4531
H13 H -0.0478 0.2498 0.5893
H14 H 0.3665 0.1892 0.7658
H15 H 0.5393 0.1901 0.5687
H16 H 0.8607 0.4503 0.5843
H17 H 0.7941 0.4862 0.6351
H18 H 0.7954 0.4931 0.5422
H19 H 0.4972 0.4567 0.5694
H20 H 0.5722 0.4991 0.5429
H21 H 0.5763 0.4855 0.6339
H22 H 0.2187 0.2102 0.3356
H23 H 0.1771 0.2407 0.2606
H24 H 0.0810 0.2145 0.3068
H25 H 0.0401 0.3300 0.3611
H26 H -0.0266 0.2867 0.3219
H27 H 0.0693 0.3131 0.2759
H28 H 0.5979 0.1105 0.7587
H29 H 0.5279 0.1410 0.8166
H30 H 0.6690 0.1371 0.8297
H31 H 0.7875 0.1653 0.7170
H32 H 0.7205 0.1930 0.6456
H33 H 0.6946 0.1401 0.6557
F22 F 0.8789(3) 0.36546(12) 0.21600(19)
F23 F 0.8885(3) 0.41207(12) 0.11115(18)
F24 F 0.8314(3) 0.57042(14) 0.18492(18)
F25 F 0.7066(3) 0.62992(12) 0.1536(2)
F26 F 1.2204(3) 0.53658(13) -0.0340(2)
F27 F 1.0463(3) 0.53573(12) 0.02315(18)
F28 F 1.0611(3) 0.43115(14) 0.4759(2)
F29 F 1.1939(4) 0.46956(15) 0.59678(19)
F30 F 1.3389(4) 0.54014(14) 0.5692(2)
F31 F 1.3500(4) 0.57171(14) 0.4211(3)
F32 F 1.2104(4) 0.53564(14) 0.3002(2)
F33 F 1.3457(3) 0.41782(14) -0.1700(2)
F34 F 1.4064(4) 0.35905(15) -0.2800(3)
F35 F 1.2400(4) 0.32915(15) -0.3937(2)
F36 F 1.0128(4) 0.35904(14) -0.39733(19)
F37 F 0.9483(3) 0.41549(13) -0.28489(19)
F38 F 0.5340(5) 0.49344(15) -0.1129(3)
F39 F 0.3902(6) 0.49854(17) -0.2473(3)
F40 F 0.2587(4) 0.5738(2) -0.2802(3)
F41 F 0.2770(4) 0.64562(19) -0.1791(3)
F42 F 0.4122(4) 0.63881(16) -0.0417(3)
N7 N 1.0640(4) 0.40657(16) 0.2071(3)
N8 N 0.8765(4) 0.44631(17) 0.2366(3)
N9 N 0.6232(4) 0.55520(17) 0.1397(3)
N10 N 0.7656(4) 0.58411(17) 0.0488(3)
N11 N 1.0434(4) 0.52487(17) -0.1203(3)
N12 N 1.1152(4) 0.46606(18) -0.0231(3)
C58 C 1.1503(5) 0.3835(2) 0.1730(4)
C59 C 1.2614(5) 0.3916(3) 0.2184(4)
C60 C 1.2407(5) 0.4193(2) 0.2802(4)
C61 C 1.1172(5) 0.4290(2) 0.2737(3)
C62 C 1.0575(5) 0.4597(2) 0.3175(4)
C63 C 0.9375(5) 0.4699(2) 0.2983(3)
C64 C 0.8604(5) 0.5035(3) 0.3241(3)
C65 C 0.7520(5) 0.4993(2) 0.2784(3)
C66 C 0.7665(5) 0.4626(2) 0.2267(3)
C67 C 0.6377(5) 0.5257(2) 0.2822(4)
C68 C 0.5762(5) 0.5332(2) 0.2003(4)
C69 C 0.4598(5) 0.5183(3) 0.1732(4)
C70 C 0.4341(6) 0.5317(2) 0.0962(4)
C71 C 0.5370(5) 0.5540(2) 0.0737(3)
C72 C 0.5665(5) 0.5663(2) -0.0013(4)
C73 C 0.6810(5) 0.5785(2) -0.0153(3)
C74 C 0.7381(6) 0.5850(2) -0.0842(4)
C75 C 0.8561(5) 0.5947(3) -0.0621(4)
C76 C 0.8686(5) 0.5941(2) 0.0214(4)
C77 C 0.9541(6) 0.6054(3) -0.1153(4)
C78 C 0.9920(6) 0.5628(3) -0.1566(4)
C79 C 0.9823(6) 0.5555(3) -0.2390(4)
C80 C 1.0314(6) 0.5133(3) -0.2533(4)
C81 C 1.0687(5) 0.4945(3) -0.1786(4)
C82 C 1.1142(5) 0.4500(3) -0.1608(3)
C83 C 1.1304(5) 0.4357(2) -0.0838(3)
C84 C 1.1424(6) 0.3920(3) -0.0494(4)
C85 C 1.1322(5) 0.3960(2) 0.0308(4)
C86 C 1.1181(5) 0.4434(2) 0.0446(4)
C87 C 1.1392(5) 0.3599(2) 0.0934(3)
C88 C 1.1274(5) 0.4829(2) 0.3839(4)
C89 C 1.1264(5) 0.4675(3) 0.4610(3)
C90 C 1.1958(6) 0.4866(3) 0.5228(4)
C91 C 1.2718(6) 0.5219(3) 0.5089(4)
C92 C 1.2761(6) 0.5377(3) 0.4336(4)
C93 C 1.2026(6) 0.5195(2) 0.3731(4)
C94 C 0.6601(5) 0.5711(2) 0.3244(4)
C95 C 0.5565(6) 0.4972(3) 0.3307(4)
C96 C 0.4764(5) 0.5658(3) -0.0718(4)
C97 C 0.4685(7) 0.5307(3) -0.1256(4)
C98 C 0.3942(7) 0.5333(3) -0.1949(4)
C99 C 0.3282(6) 0.5712(3) -0.2118(4)
C100 C 0.3372(6) 0.6070(3) -0.1599(5)
C101 C 0.4087(6) 0.6037(3) -0.0908(4)
C102 C 0.9035(6) 0.6390(3) -0.1784(4)
C103 C 1.0598(6) 0.6279(3) -0.0687(4)
C104 C 1.1440(5) 0.4194(2) -0.2241(3)
C105 C 1.2608(5) 0.4038(3) -0.2245(4)
C106 C 1.2943(6) 0.3739(3) -0.2820(4)
C107 C 1.2102(6) 0.3591(3) -0.3393(4)
C108 C 1.0947(6) 0.3741(3) -0.3407(4)
C109 C 1.0640(6) 0.4033(3) -0.2834(4)
C110 C 1.2512(6) 0.3313(3) 0.0854(4)
C111 C 1.0320(6) 0.3267(3) 0.0810(4)
B4 B 0.9244(6) 0.4055(3) 0.1902(4)
B5 B 0.7351(6) 0.5847(3) 0.1367(4)
B6 B 1.1064(6) 0.5177(3) -0.0353(4)
H34 H 1.0323 0.6538 -0.0394
H35 H 1.1161 0.6383 -0.1050
H36 H 1.0986 0.6059 -0.0318
H37 H 1.2427 0.3147 0.0354
H38 H 1.2618 0.3097 0.1291
H39 H 1.3203 0.3513 0.0865
H40 H 1.0359 0.3047 0.1242
H41 H 1.0348 0.3107 0.0309
H42 H 0.9580 0.3439 0.0803
H43 H 1.3360 0.3797 0.2075
H44 H 1.2981 0.4301 0.3199
H45 H 0.8789 0.5248 0.3650
H46 H 0.7060 0.4512 0.1898
H47 H 0.4082 0.5019 0.2035
H48 H 0.3620 0.5269 0.0644
H49 H 0.7022 0.5831 -0.1366
H50 H 0.9401 0.5999 0.0532
H51 H 0.9482 0.5759 -0.2778
H52 H 1.0384 0.4998 -0.3032
H53 H 1.1553 0.3646 -0.0766
H54 H 1.1117 0.4568 0.0947
H55 H 0.6952 0.5657 0.3782
H56 H 0.5849 0.5873 0.3260
H57 H 0.7143 0.5894 0.2959
H58 H 0.5412 0.4678 0.3051
H59 H 0.4815 0.5132 0.3341
H60 H 0.5953 0.4925 0.3838
H61 H 0.9637 0.6457 -0.2145
H62 H 0.8807 0.6670 -0.1531
H63 H 0.8339 0.6256 -0.2079
loop_
_geom_bond_atom_site_label_1
_geom_bond_atom_site_label_2
_geom_bond_site_symmetry_1
_geom_bond_site_symmetry_2
Cl1 C1 1_555 1_555
Cl2 C1 1_555 1_555
Cl3 C1 1_555 1_555
C1 H1 1_555 1_555
Cl4 C2 1_555 1_555
Cl5 C2 1_555 1_555
Cl6 C2 1_555 1_555
C2 H2 1_555 1_555
Cl7 C3 1_555 1_555
Cl8 C3 1_555 1_555
Cl9 C3 1_555 1_555
C3 H3 1_555 1_555
F1 B1 1_555 1_555
F2 B1 1_555 1_555
F3 B2 1_555 1_555
F4 B2 1_555 1_555
F5 B3 1_555 1_555
F6 B3 1_555 1_555
F7 C35 1_555 1_555
F8 C36 1_555 1_555
F9 C37 1_555 1_555
F10 C38 1_555 1_555
F11 C39 1_555 1_555
F12 C43 1_555 1_555
F13 C44 1_555 1_555
F14 C45 1_555 1_555
F15 C46 1_555 1_555
F16 C47 1_555 1_555
F17 C51 1_555 1_555
F18 C52 1_555 1_555
F19 C53 1_555 1_555
F20 C54 1_555 1_555
F21 C55 1_555 1_555
N1 C4 1_555 1_555
N2 C9 1_555 1_555
N3 C14 1_555 1_555
N4 C19 1_555 1_555
N5 C24 1_555 1_555
N6 C29 1_555 1_555
C4 C5 1_555 1_555
C5 C6 1_555 1_555
C6 C7 1_555 1_555
C7 N1 1_555 1_555
C8 C7 1_555 1_555
C9 C8 1_555 1_555
C10 C9 1_555 1_555
C11 C10 1_555 1_555
C12 N2 1_555 1_555
C13 C11 1_555 1_555
C14 C13 1_555 1_555
C15 C14 1_555 1_555
C16 C15 1_555 1_555
C17 N3 1_555 1_555
C18 C17 1_555 1_555
C19 C18 1_555 1_555
C20 C19 1_555 1_555
C21 C20 1_555 1_555
C22 N4 1_555 1_555
C23 C21 1_555 1_555
C24 C23 1_555 1_555
C25 C24 1_555 1_555
C26 C25 1_555 1_555
C27 N5 1_555 1_555
C28 C27 1_555 1_555
C29 C28 1_555 1_555
C30 C29 1_555 1_555
C31 C30 1_555 1_555
C32 N6 1_555 1_555
C33 C4 1_555 1_555
C34 C8 1_555 1_555
C35 C34 1_555 1_555
C36 C35 1_555 1_555
C37 C36 1_555 1_555
C38 C37 1_555 1_555
C39 C34 1_555 1_555
C40 C13 1_555 1_555
C41 C13 1_555 1_555
C42 C18 1_555 1_555
C43 C42 1_555 1_555
C44 C43 1_555 1_555
C45 C44 1_555 1_555
C46 C45 1_555 1_555
C47 C42 1_555 1_555
C48 C23 1_555 1_555
C49 C23 1_555 1_555
C50 C28 1_555 1_555
C51 C50 1_555 1_555
C52 C51 1_555 1_555
C53 C52 1_555 1_555
C54 C53 1_555 1_555
C55 C50 1_555 1_555
C56 C33 1_555 1_555
C57 C33 1_555 1_555
B1 N1 1_555 1_555
B2 N3 1_555 1_555
B3 N5 1_555 1_555
H4 C5 1_555 1_555
H5 C6 1_555 1_555
H6 C10 1_555 1_555
H7 C12 1_555 1_555
H8 C15 1_555 1_555
H9 C16 1_555 1_555
H10 C20 1_555 1_555
H11 C22 1_555 1_555
H12 C25 1_555 1_555
H13 C26 1_555 1_555
H14 C30 1_555 1_555
H15 C32 1_555 1_555
H16 C40 1_555 1_555
H17 C40 1_555 1_555
H18 C40 1_555 1_555
H19 C41 1_555 1_555
H20 C41 1_555 1_555
H21 C41 1_555 1_555
H22 C48 1_555 1_555
H23 C48 1_555 1_555
H24 C48 1_555 1_555
H25 C49 1_555 1_555
H26 C49 1_555 1_555
H27 C49 1_555 1_555
H28 C56 1_555 1_555
H29 C56 1_555 1_555
H30 C56 1_555 1_555
H31 C57 1_555 1_555
H32 C57 1_555 1_555
H33 C57 1_555 1_555
F22 B4 1_555 1_555
F23 B4 1_555 1_555
F24 B5 1_555 1_555
F25 B5 1_555 1_555
F26 B6 1_555 1_555
F27 B6 1_555 1_555
F28 C89 1_555 1_555
F29 C90 1_555 1_555
F30 C91 1_555 1_555
F31 C92 1_555 1_555
F32 C93 1_555 1_555
F33 C105 1_555 1_555
F34 C106 1_555 1_555
F35 C107 1_555 1_555
F36 C108 1_555 1_555
F37 C109 1_555 1_555
F38 C97 1_555 1_555
F39 C98 1_555 1_555
F40 C99 1_555 1_555
F41 C100 1_555 1_555
F42 C101 1_555 1_555
N7 C58 1_555 1_555
N8 C63 1_555 1_555
N9 C68 1_555 1_555
N10 C73 1_555 1_555
N11 C78 1_555 1_555
N12 C83 1_555 1_555
C58 C59 1_555 1_555
C59 C60 1_555 1_555
C60 C61 1_555 1_555
C61 N7 1_555 1_555
C62 C61 1_555 1_555
C63 C62 1_555 1_555
C64 C63 1_555 1_555
C65 C64 1_555 1_555
C66 N8 1_555 1_555
C67 C65 1_555 1_555
C68 C67 1_555 1_555
C69 C68 1_555 1_555
C70 C69 1_555 1_555
C71 N9 1_555 1_555
C72 C71 1_555 1_555
C73 C72 1_555 1_555
C74 C73 1_555 1_555
C75 C74 1_555 1_555
C76 N10 1_555 1_555
C77 C75 1_555 1_555
C78 C77 1_555 1_555
C79 C78 1_555 1_555
C80 C79 1_555 1_555
C81 N11 1_555 1_555
C82 C81 1_555 1_555
C83 C82 1_555 1_555
C84 C83 1_555 1_555
C85 C84 1_555 1_555
C86 N12 1_555 1_555
C87 C58 1_555 1_555
C88 C62 1_555 1_555
C89 C88 1_555 1_555
C90 C89 1_555 1_555
C91 C90 1_555 1_555
C92 C91 1_555 1_555
C93 C88 1_555 1_555
C94 C67 1_555 1_555
C95 C67 1_555 1_555
C96 C72 1_555 1_555
C97 C96 1_555 1_555
C98 C97 1_555 1_555
C99 C98 1_555 1_555
C100 C99 1_555 1_555
C101 C96 1_555 1_555
C102 C77 1_555 1_555
C103 C77 1_555 1_555
C104 C82 1_555 1_555
C105 C104 1_555 1_555
C106 C105 1_555 1_555
C107 C106 1_555 1_555
C108 C107 1_555 1_555
C109 C104 1_555 1_555
C110 C87 1_555 1_555
C111 C87 1_555 1_555
B4 N7 1_555 1_555
B5 N9 1_555 1_555
B6 N11 1_555 1_555
H34 C103 1_555 1_555
H35 C103 1_555 1_555
H36 C103 1_555 1_555
H37 C110 1_555 1_555
H38 C110 1_555 1_555
H39 C110 1_555 1_555
H40 C111 1_555 1_555
H41 C111 1_555 1_555
H42 C111 1_555 1_555
H43 C59 1_555 1_555
H44 C60 1_555 1_555
H45 C64 1_555 1_555
H46 C66 1_555 1_555
H47 C69 1_555 1_555
H48 C70 1_555 1_555
H49 C74 1_555 1_555
H50 C76 1_555 1_555
H51 C79 1_555 1_555
H52 C80 1_555 1_555
H53 C84 1_555 1_555
H54 C86 1_555 1_555
H55 C94 1_555 1_555
H56 C94 1_555 1_555
H57 C94 1_555 1_555
H58 C95 1_555 1_555
H59 C95 1_555 1_555
H60 C95 1_555 1_555
H61 C102 1_555 1_555
H62 C102 1_555 1_555
H63 C102 1_555 1_555
N2 B1 1_555 1_555
N4 B2 1_555 1_555
N6 B3 1_555 1_555
C11 C12 1_555 1_555
C16 C17 1_555 1_555
C21 C22 1_555 1_555
C26 C27 1_555 1_555
C31 C32 1_555 1_555
C31 C33 1_555 1_555
C38 C39 1_555 1_555
C46 C47 1_555 1_555
C54 C55 1_555 1_555
N8 B4 1_555 1_555
N10 B5 1_555 1_555
N12 B6 1_555 1_555
C65 C66 1_555 1_555
C70 C71 1_555 1_555
C75 C76 1_555 1_555
C80 C81 1_555 1_555
C85 C86 1_555 1_555
C85 C87 1_555 1_555
C92 C93 1_555 1_555
C100 C101 1_555 1_555
C108 C109 1_555 1_555

#END
