
#######################################################################
#
#                 Cambridge Crystallographic Data Centre
#                                CCDC 
#
#######################################################################
#
# If this CIF has been generated from an entry in the Cambridge 
# Structural Database, then it will include bibliographic, chemical, 
# crystal, experimental, refinement or atomic coordinate data resulting 
# from the CCDC's data processing and validation procedures.
#
#######################################################################

data_EVIGAT
_chemical_formula_moiety         'C72 H40 B4 F28 N8,C6 H14'
_chemical_name_systematic        
'10,10,21,21,32,32,43,43-octafluoro-4,4,15,15,26,26,37,37-octamethyl-45,48,50,52-tetrakis(pentafluorophenyl)-9,11,20,22,31,33,42,44-octaaza-10,21,32,43-tetraboratridecacyclo[39.3.1.1^3,44^.1^8,12^.1^11,14^.1^19,23^.1^22,25^.1^30,34^.1^33,36^.0^5,9^.0^16,20^.0^27,31^.0^38,42^]dopentaconta-1(45),2,5,7,11(51),12(52),13,16,18,22(49),23(50),24,27,29,33(47),34(48),35,38,40,44(46)-icosaene hexane solvate'
_symmetry_cell_setting           monoclinic
_symmetry_space_group_name_H-M   'C 2/c'
_symmetry_Int_Tables_number      15
_space_group_name_Hall           '-C 2yn'
loop_
_symmetry_equiv_pos_site_id
_symmetry_equiv_pos_as_xyz
1 x,y,z
2 -x,y,1/2-z
3 1/2+x,1/2+y,z
4 1/2-x,1/2+y,1/2-z
5 -x,-y,-z
6 x,-y,1/2+z
7 1/2-x,1/2-y,-z
8 1/2+x,1/2-y,1/2+z
_cell_length_a                   30.7618(16)
_cell_length_b                   13.6622(6)
_cell_length_c                   23.3305(12)
_cell_angle_alpha                90
_cell_angle_beta                 132.001(2)
_cell_angle_gamma                90
_cell_volume                     7286.57
_exptl_crystal_colour            red
_exptl_crystal_description       prism
_cell_formula_units_Z            4
loop_
_atom_site_label
_atom_site_type_symbol
_atom_site_fract_x
_atom_site_fract_y
_atom_site_fract_z
B1 B -0.04349(16) 0.3663(2) 0.0093(2)
B2 B 0.1877(3) 0.4008(4) 0.3993(4)
F1 F -0.05418(7) 0.37488(10) -0.05938(9)
F2 F -0.01263(7) 0.44402(10) 0.05632(9)
F3 F 0.17149(12) 0.32512(14) 0.41931(13)
F4 F 0.24527(9) 0.38505(14) 0.42964(12)
F5 F -0.0971(3) 0.0568(5) 0.0814(3)
F6 F -0.1525(2) -0.1154(3) 0.0394(2)
F7 F -0.2301(2) -0.1672(3) -0.1108(3)
F8 F -0.2560(2) -0.0432(3) -0.2211(3)
F9 F -0.2012(3) 0.1311(4) -0.1793(4)
F10 F 0.1648(3) 0.7490(5) 0.2710(5)
F11 F 0.0907(2) 0.8856(4) 0.1635(3)
F12 F -0.0269(2) 0.8617(4) 0.0700(3)
F13 F -0.06983(17) 0.7010(3) 0.0852(2)
F14 F 0.00223(18) 0.5622(3) 0.1882(2)
N1 N -0.10377(11) 0.36441(14) -0.01263(13)
N2 N -0.01465(11) 0.26373(14) 0.04526(13)
N3 N 0.14807(10) 0.40076(14) 0.31057(13)
N4 N 0.18334(9) 0.50446(14) 0.42340(13)
C1 C -0.13500(13) 0.43955(19) -0.02047(16)
H1 H -0.1214 0.5052 -0.0069
C2 C -0.19079(13) 0.40908(18) -0.05148(16)
C3 C -0.19268(14) 0.30899(19) -0.06299(16)
H2 H -0.2248 0.2669 -0.0839
C4 C -0.13801(14) 0.28112(18) -0.03793(16)
C5 C -0.11182(15) 0.19129(18) -0.02477(17)
C6 C -0.05174(15) 0.18270(18) 0.01664(17)
C7 C -0.01728(16) 0.0979(2) 0.04238(18)
H3 H -0.0310 0.0323 0.0309
C8 C 0.03947(16) 0.12680(19) 0.08685(19)
H4 H 0.0723 0.0846 0.1129
C9 C 0.04120(14) 0.22972(18) 0.08770(17)
C10 C 0.09572(13) 0.29191(18) 0.12727(17)
C11 C 0.10966(13) 0.35610(18) 0.19093(17)
C12 C 0.13839(12) 0.32527(19) 0.26691(17)
H5 H 0.1493 0.2596 0.2845
C13 C 0.10151(12) 0.45563(18) 0.18978(17)
H6 H 0.0834 0.4979 0.1467
C14 C 0.12497(12) 0.48338(18) 0.26392(17)
C15 C 0.12680(13) 0.57257(18) 0.29373(17)
C16 C 0.15637(13) 0.58376(18) 0.37172(17)
C17 C 0.16516(15) 0.6676(2) 0.41240(19)
H7 H 0.1517 0.7317 0.3918
C18 C 0.19680(15) 0.6406(2) 0.4878(2)
H8 H 0.2093 0.6831 0.5286
C19 C 0.20760(12) 0.53971(19) 0.49446(17)
C20 C 0.23657(13) 0.47751(19) 0.56626(17)
C21 C -0.1449(3) 0.0987(4) -0.0473(3)
C22 C -0.1367(3) 0.0329(5) 0.0050(4)
C23 C -0.1637(2) -0.0540(4) -0.0140(3)
C24 C -0.2041(2) -0.0799(3) -0.0911(4)
C25 C -0.2167(2) -0.0175(4) -0.1462(3)
C26 C -0.1877(3) 0.0713(4) -0.1237(3)
C27 C 0.08970(14) 0.3561(2) 0.06771(18)
H9 H 0.0838 0.3141 0.0290
H10 H 0.1254 0.3949 0.0940
H11 H 0.0561 0.4000 0.0424
C28 C 0.14847(14) 0.2237(2) 0.16342(19)
H12 H 0.1412 0.1837 0.1229
H13 H 0.1539 0.1811 0.2015
H14 H 0.1838 0.2632 0.1887
C29 C 0.0861(2) 0.6507(4) 0.2330(3)
C30 C 0.1061(2) 0.7349(4) 0.2242(3)
C31 C 0.0693(3) 0.8054(4) 0.1698(3)
C32 C 0.0100(2) 0.7934(3) 0.1231(3)
C33 C -0.0113(2) 0.7112(3) 0.1304(3)
C34 C 0.0257(2) 0.6414(3) 0.1831(3)
C35 C 0.25800(13) 0.5457(2) 0.63359(17)
H15 H 0.2760 0.5064 0.6799
H16 H 0.2247 0.5821 0.6199
H17 H 0.2869 0.5917 0.6437
C36 C 0.28961(13) 0.4202(2) 0.59052(18)
H18 H 0.3096 0.3882 0.6402
H19 H 0.3167 0.4652 0.5953
H20 H 0.2764 0.3705 0.5515
B1A B 0.04349(16) 0.3663(2) 0.4907(2)
B2A B -0.1877(3) 0.4008(4) 0.1007(4)
F1A F 0.05418(7) 0.37488(10) 0.55938(9)
F2A F 0.01263(7) 0.44402(10) 0.44368(9)
F3A F -0.17149(12) 0.32512(14) 0.08069(13)
F4A F -0.24527(9) 0.38505(14) 0.07036(12)
F5A F 0.0971(3) 0.0568(5) 0.4186(3)
F6A F 0.1525(2) -0.1154(3) 0.4606(2)
F7A F 0.2301(2) -0.1672(3) 0.6108(3)
F8A F 0.2560(2) -0.0432(3) 0.7211(3)
F9A F 0.2012(3) 0.1311(4) 0.6793(4)
F10A F -0.1648(3) 0.7490(5) 0.2290(5)
F11A F -0.0907(2) 0.8856(4) 0.3365(3)
F12A F 0.0269(2) 0.8617(4) 0.4300(3)
F13A F 0.06983(17) 0.7010(3) 0.4148(2)
F14A F -0.00223(18) 0.5622(3) 0.3118(2)
N1A N 0.10377(11) 0.36441(14) 0.51263(13)
N2A N 0.01465(11) 0.26373(14) 0.45474(13)
N3A N -0.14807(10) 0.40076(14) 0.18943(13)
N4A N -0.18334(9) 0.50446(14) 0.07660(13)
C1A C 0.13500(13) 0.43955(19) 0.52047(16)
H1A H 0.1214 0.5052 0.5069
C2A C 0.19079(13) 0.40908(18) 0.55148(16)
C3A C 0.19268(14) 0.30899(19) 0.56299(16)
H2A H 0.2248 0.2669 0.5839
C4A C 0.13801(14) 0.28112(18) 0.53793(16)
C5A C 0.11182(15) 0.19129(18) 0.52477(17)
C6A C 0.05174(15) 0.18270(18) 0.48336(17)
C7A C 0.01728(16) 0.0979(2) 0.45762(18)
H3A H 0.0310 0.0323 0.4691
C8A C -0.03947(16) 0.12680(19) 0.41315(19)
H4A H -0.0723 0.0846 0.3871
C9A C -0.04120(14) 0.22972(18) 0.41230(17)
C10A C -0.09572(13) 0.29191(18) 0.37273(17)
C11A C -0.10966(13) 0.35610(18) 0.30907(17)
C12A C -0.13839(12) 0.32527(19) 0.23309(17)
H5A H -0.1493 0.2596 0.2155
C13A C -0.10151(12) 0.45563(18) 0.31022(17)
H6A H -0.0834 0.4979 0.3533
C14A C -0.12497(12) 0.48338(18) 0.23608(17)
C15A C -0.12680(13) 0.57257(18) 0.20627(17)
C16A C -0.15637(13) 0.58376(18) 0.12828(17)
C17A C -0.16516(15) 0.6676(2) 0.08760(19)
H7A H -0.1517 0.7317 0.1082
C18A C -0.19680(15) 0.6406(2) 0.0122(2)
H8A H -0.2093 0.6831 -0.0286
C19A C -0.20760(12) 0.53971(19) 0.00554(17)
C20A C -0.23657(13) 0.47751(19) -0.06626(17)
C21A C 0.1449(3) 0.0987(4) 0.5473(3)
C22A C 0.1367(3) 0.0329(5) 0.4950(4)
C23A C 0.1637(2) -0.0540(4) 0.5140(3)
C24A C 0.2041(2) -0.0799(3) 0.5911(4)
C25A C 0.2167(2) -0.0175(4) 0.6462(3)
C26A C 0.1877(3) 0.0713(4) 0.6237(3)
C27A C -0.08970(14) 0.3561(2) 0.43229(18)
H9A H -0.0838 0.3141 0.4710
H10A H -0.1254 0.3949 0.4060
H11A H -0.0561 0.4000 0.4576
C28A C -0.14847(14) 0.2237(2) 0.33658(19)
H12A H -0.1412 0.1837 0.3771
H13A H -0.1539 0.1811 0.2985
H14A H -0.1838 0.2632 0.3113
C29A C -0.0861(2) 0.6507(4) 0.2670(3)
C30A C -0.1061(2) 0.7349(4) 0.2758(3)
C31A C -0.0693(3) 0.8054(4) 0.3302(3)
C32A C -0.0100(2) 0.7934(3) 0.3769(3)
C33A C 0.0113(2) 0.7112(3) 0.3696(3)
C34A C -0.0257(2) 0.6414(3) 0.3169(3)
C35A C -0.25800(13) 0.5457(2) -0.13359(17)
H15A H -0.2760 0.5064 -0.1799
H16A H -0.2247 0.5821 -0.1199
H17A H -0.2869 0.5917 -0.1437
C36A C -0.28961(13) 0.4202(2) -0.09052(18)
H18A H -0.3096 0.3882 -0.1402
H19A H -0.3167 0.4652 -0.0953
H20A H -0.2764 0.3705 -0.0515
B3? B 0.1682(8) 0.3973(13) 0.3934(10)
F15? F 0.1254(4) 0.3665(5) 0.3950(4)
F16? F 0.2189(4) 0.3410(6) 0.4434(4)
F17? F -0.1063(7) 0.0378(12) 0.0540(9)
F18? F -0.1726(6) -0.1245(10) -0.0068(9)
F19? F -0.2546(5) -0.1439(8) -0.1629(9)
F20? F -0.2709(5) 0.0022(10) -0.2532(8)
F21? F -0.2031(6) 0.1641(10) -0.1920(9)
F22? F 0.1807(9) 0.7300(15) 0.2689(14)
F23? F 0.1169(5) 0.8770(10) 0.1709(9)
F24? F 0.0007(5) 0.8840(10) 0.0919(8)
F25? F -0.0488(5) 0.7463(9) 0.1152(7)
F26? F 0.0172(5) 0.6026(8) 0.2192(8)
C37? C -0.1536(7) 0.1036(9) -0.0666(7)
C38? C -0.1451(6) 0.0297(11) -0.0191(5)
C39? C -0.1794(6) -0.0543(9) -0.0512(7)
C40? C -0.2222(5) -0.0643(7) -0.1309(8)
C41? C -0.2307(5) 0.0096(9) -0.1784(6)
C42? C -0.1964(6) 0.0936(8) -0.1463(7)
C43? C 0.1022(5) 0.6630(7) 0.2504(7)
C44? C 0.1281(4) 0.7331(9) 0.2383(7)
C45? C 0.0945(5) 0.8079(7) 0.1853(7)
C46? C 0.0349(4) 0.8127(6) 0.1444(6)
C47? C 0.0090(4) 0.7427(8) 0.1566(6)
C48? C 0.0426(5) 0.6679(7) 0.2095(6)
C49? C -0.0187(5) -0.0780(7) 0.2401(9)
H21? H -0.0409 -0.0528 0.2533
H22? H 0.0090 -0.1278 0.2778
H23? H -0.0457 -0.1072 0.1885
C50? C 0.0170(5) 0.0116(7) 0.2413(6)
H24? H 0.0591 0.0071 0.2879
H25? H 0.0126 0.0081 0.1953
C51? C -0.0087(9) 0.1100(7) 0.2416(13)
H26? H -0.0517 0.1101 0.1990
H27? H 0.0003 0.1167 0.2908
C52? C 0.0181(4) 0.1970(6) 0.2319(5)
H28? H 0.0602 0.2023 0.2788
H29? H 0.0153 0.1835 0.1878
C53? C -0.0098(8) 0.2889(9) 0.2192(8)
H30? H -0.0524 0.2769 0.1849
H31? H -0.0038 0.3322 0.1910
C54? C 0.0101(5) 0.3444(6) 0.2906(6)
H32? H 0.0040 0.3031 0.3191
H33? H -0.0127 0.4047 0.2744
H34? H 0.0517 0.3606 0.3239
loop_
_geom_bond_atom_site_label_1
_geom_bond_atom_site_label_2
_geom_bond_site_symmetry_1
_geom_bond_site_symmetry_2
B1 F1 1_555 1_555
B2 F3 1_555 1_555
F2 B1 1_555 1_555
F4 B2 1_555 1_555
F5 C22 1_555 1_555
F6 C23 1_555 1_555
F7 C24 1_555 1_555
F8 C25 1_555 1_555
F9 C26 1_555 1_555
F10 C30 1_555 1_555
F11 C31 1_555 1_555
F12 C32 1_555 1_555
F13 C33 1_555 1_555
F14 C34 1_555 1_555
N1 B1 1_555 1_555
N2 B1 1_555 1_555
N3 B2 1_555 1_555
N4 B2 1_555 1_555
C1 N1 1_555 1_555
H1 C1 1_555 1_555
C2 C1 1_555 1_555
C3 C2 1_555 1_555
H2 C3 1_555 1_555
C4 N1 1_555 1_555
C5 C4 1_555 1_555
C6 N2 1_555 1_555
C7 C6 1_555 1_555
H3 C7 1_555 1_555
C8 C7 1_555 1_555
H4 C8 1_555 1_555
C9 N2 1_555 1_555
C10 C9 1_555 1_555
C11 C10 1_555 1_555
C12 N3 1_555 1_555
H5 C12 1_555 1_555
C13 C11 1_555 1_555
H6 C13 1_555 1_555
C14 N3 1_555 1_555
C15 C14 1_555 1_555
C16 N4 1_555 1_555
C17 C16 1_555 1_555
H7 C17 1_555 1_555
C18 C17 1_555 1_555
H8 C18 1_555 1_555
C19 N4 1_555 1_555
C20 C19 1_555 1_555
C21 C5 1_555 1_555
C22 C21 1_555 1_555
C23 C22 1_555 1_555
C24 C23 1_555 1_555
C25 C24 1_555 1_555
C26 C21 1_555 1_555
C27 C10 1_555 1_555
H9 C27 1_555 1_555
H10 C27 1_555 1_555
H11 C27 1_555 1_555
C28 C10 1_555 1_555
H12 C28 1_555 1_555
H13 C28 1_555 1_555
H14 C28 1_555 1_555
C29 C15 1_555 1_555
C30 C29 1_555 1_555
C31 C30 1_555 1_555
C32 C31 1_555 1_555
C33 C32 1_555 1_555
C34 C29 1_555 1_555
C35 C20 1_555 1_555
H15 C35 1_555 1_555
H16 C35 1_555 1_555
H17 C35 1_555 1_555
C36 C20 1_555 1_555
H18 C36 1_555 1_555
H19 C36 1_555 1_555
H20 C36 1_555 1_555
B1A F1A 1_555 1_555
B2A F3A 1_555 1_555
F2A B1A 1_555 1_555
F4A B2A 1_555 1_555
F5A C22A 1_555 1_555
F6A C23A 1_555 1_555
F7A C24A 1_555 1_555
F8A C25A 1_555 1_555
F9A C26A 1_555 1_555
F10A C30A 1_555 1_555
F11A C31A 1_555 1_555
F12A C32A 1_555 1_555
F13A C33A 1_555 1_555
F14A C34A 1_555 1_555
N1A B1A 1_555 1_555
N2A B1A 1_555 1_555
N3A B2A 1_555 1_555
N4A B2A 1_555 1_555
C1A N1A 1_555 1_555
H1A C1A 1_555 1_555
C2A C20 1_555 1_555
C3A C2A 1_555 1_555
H2A C3A 1_555 1_555
C4A N1A 1_555 1_555
C5A C4A 1_555 1_555
C6A N2A 1_555 1_555
C7A C6A 1_555 1_555
H3A C7A 1_555 1_555
C8A C7A 1_555 1_555
H4A C8A 1_555 1_555
C9A N2A 1_555 1_555
C10A C9A 1_555 1_555
C11A C10A 1_555 1_555
C12A N3A 1_555 1_555
H5A C12A 1_555 1_555
C13A C11A 1_555 1_555
H6A C13A 1_555 1_555
C14A N3A 1_555 1_555
C15A C14A 1_555 1_555
C16A N4A 1_555 1_555
C17A C16A 1_555 1_555
H7A C17A 1_555 1_555
C18A C17A 1_555 1_555
H8A C18A 1_555 1_555
C19A N4A 1_555 1_555
C20A C2 1_555 1_555
C21A C5A 1_555 1_555
C22A C21A 1_555 1_555
C23A C22A 1_555 1_555
C24A C23A 1_555 1_555
C25A C24A 1_555 1_555
C26A C21A 1_555 1_555
C27A C10A 1_555 1_555
H9A C27A 1_555 1_555
H10A C27A 1_555 1_555
H11A C27A 1_555 1_555
C28A C10A 1_555 1_555
H12A C28A 1_555 1_555
H13A C28A 1_555 1_555
H14A C28A 1_555 1_555
C29A C15A 1_555 1_555
C30A C29A 1_555 1_555
C31A C30A 1_555 1_555
C32A C31A 1_555 1_555
C33A C32A 1_555 1_555
C34A C29A 1_555 1_555
C35A C20A 1_555 1_555
H15A C35A 1_555 1_555
H16A C35A 1_555 1_555
H17A C35A 1_555 1_555
C36A C20A 1_555 1_555
H18A C36A 1_555 1_555
H19A C36A 1_555 1_555
H20A C36A 1_555 1_555
C3 C4 1_555 1_555
C5 C6 1_555 1_555
C8 C9 1_555 1_555
C11 C12 1_555 1_555
C13 C14 1_555 1_555
C15 C16 1_555 1_555
C18 C19 1_555 1_555
C25 C26 1_555 1_555
C33 C34 1_555 1_555
C1A C2A 1_555 1_555
C3A C4A 1_555 1_555
C5A C6A 1_555 1_555
C8A C9A 1_555 1_555
C11A C12A 1_555 1_555
C13A C14A 1_555 1_555
C15A C16A 1_555 1_555
C18A C19A 1_555 1_555
C19A C20A 1_555 1_555
C25A C26A 1_555 1_555
C33A C34A 1_555 1_555

#END
