
#######################################################################
#
#                 Cambridge Crystallographic Data Centre
#                                CCDC 
#
#######################################################################
#
# If this CIF has been generated from an entry in the Cambridge 
# Structural Database, then it will include bibliographic, chemical, 
# crystal, experimental, refinement or atomic coordinate data resulting 
# from the CCDC's data processing and validation procedures.
#
#######################################################################

data_EVIHIC
_chemical_formula_moiety         
'C6 H7 N2 O2 1+,C12 H24 O6,I1 O4 1-,0.5(C1 H4 O1)'
_chemical_name_systematic        
'3-nitroanilinium 18-crown-6 periodate methanol solvate'
_symmetry_cell_setting           monoclinic
_symmetry_space_group_name_H-M   'C 2/c'
_symmetry_Int_Tables_number      15
_space_group_name_Hall           '-C 2yn'
loop_
_symmetry_equiv_pos_site_id
_symmetry_equiv_pos_as_xyz
1 x,y,z
2 -x,y,1/2-z
3 1/2+x,1/2+y,z
4 1/2-x,1/2+y,1/2-z
5 -x,-y,-z
6 x,-y,1/2+z
7 1/2-x,1/2-y,-z
8 1/2+x,1/2-y,1/2+z
_cell_length_a                   20.748(3)
_cell_length_b                   10.5143(13)
_cell_length_c                   23.239(3)
_cell_angle_alpha                90
_cell_angle_beta                 93.263(2)
_cell_angle_gamma                90
_cell_volume                     5061.39
_exptl_crystal_colour            yellow
_exptl_crystal_description       block
_cell_formula_units_Z            8
loop_
_atom_site_label
_atom_site_type_symbol
_atom_site_fract_x
_atom_site_fract_y
_atom_site_fract_z
O5 O 0.02714(11) 0.6557(2) -0.08401(9)
O6 O 0.00327(11) 0.9180(2) -0.07165(10)
O7 O 0.05031(12) 1.0630(2) -0.16049(10)
O8 O 0.14479(11) 0.9775(2) -0.23351(9)
O9 O 0.17225(11) 0.7136(2) -0.22105(10)
O10 O 0.13963(11) 0.5567(2) -0.13084(10)
C1 C -0.01599(17) 0.7042(4) -0.04356(15)
H1 H 0.0078 0.7195 -0.0061
H2 H -0.0504 0.6411 -0.0375
C2 C -0.04535(17) 0.8251(4) -0.06550(16)
H3 H -0.0687 0.8100 -0.1032
H4 H -0.0768 0.8563 -0.0383
C3 C -0.02282(17) 1.0391(3) -0.08712(16)
H5 H -0.0408 1.0796 -0.0530
H6 H -0.0582 1.0289 -0.1171
C4 C 0.02881(19) 1.1212(3) -0.10931(16)
H7 H 0.0117 1.2074 -0.1181
H8 H 0.0652 1.1290 -0.0800
C5 C 0.0834(2) 1.1482(3) -0.19659(17)
H9 H 0.1233 1.1802 -0.1761
H10 H 0.0556 1.2218 -0.2075
C6 C 0.09953(19) 1.0756(4) -0.24897(16)
H11 H 0.0598 1.0377 -0.2673
H12 H 0.1182 1.1338 -0.2771
C7 C 0.15433(18) 0.8937(3) -0.28054(14)
H13 H 0.1710 0.9422 -0.3131
H14 H 0.1127 0.8547 -0.2938
C8 C 0.20116(17) 0.7924(3) -0.26222(14)
H15 H 0.2124 0.7411 -0.2960
H16 H 0.2412 0.8311 -0.2449
C9 C 0.21006(18) 0.6052(3) -0.20497(17)
H17 H 0.2443 0.6290 -0.1756
H18 H 0.2308 0.5708 -0.2390
C10 C 0.16687(19) 0.5077(3) -0.18124(17)
H19 H 0.1320 0.4857 -0.2104
H20 H 0.1918 0.4295 -0.1715
C11 C 0.08813(19) 0.4781(3) -0.11453(16)
H21 H 0.1051 0.3936 -0.1026
H22 H 0.0568 0.4659 -0.1478
C12 C 0.05506(18) 0.5376(3) -0.06597(15)
H23 H 0.0210 0.4800 -0.0532
H24 H 0.0866 0.5518 -0.0330
O11 O 0.25388(16) 1.2275(3) -0.09758(13)
O12 O 0.31590(14) 1.1895(3) -0.02099(14)
N1 N 0.11843(12) 0.8354(2) -0.12653(10)
H25 H 0.1226 0.8816 -0.1592
H26 H 0.0768 0.8390 -0.1162
H27 H 0.1294 0.7530 -0.1330
N2 N 0.27165(15) 1.1620(3) -0.05597(15)
C13 C 0.16089(14) 0.8872(3) -0.08027(13)
C14 C 0.19750(15) 0.9941(3) -0.09096(14)
H28 H 0.1965 1.0318 -0.1282
C15 C 0.23541(15) 1.0439(3) -0.04579(14)
C16 C 0.23926(18) 0.9904(4) 0.00854(16)
H29 H 0.2669 1.0253 0.0385
C17 C 0.2017(2) 0.8846(4) 0.01800(16)
H30 H 0.2029 0.8470 0.0552
C18 C 0.16257(16) 0.8328(3) -0.02614(14)
H31 H 0.1369 0.7602 -0.0192
I1 I -0.120419(11) 1.40103(2) -0.139838(9)
O1 O -0.1858(2) 1.3031(7) -0.1545(2)
O2 O -0.1438(4) 1.5580(5) -0.1461(2)
O3 O -0.0913(2) 1.3717(5) -0.06987(14)
O4 O -0.05991(17) 1.3685(4) -0.18704(16)
O13? O -0.0049(3) 0.7453(7) -0.2940(3)
H32? H -0.0122 0.6941 -0.3290
C19? C 0.0000 0.6811(10) -0.2500
H33? H -0.0050 0.5936 -0.2612
H34? H 0.0417 0.6931 -0.2307
H35? H -0.0330 0.7036 -0.2245
loop_
_geom_bond_atom_site_label_1
_geom_bond_atom_site_label_2
_geom_bond_site_symmetry_1
_geom_bond_site_symmetry_2
I1 O1 1_555 1_555
O2 I1 1_555 1_555
O3 I1 1_555 1_555
O4 I1 1_555 1_555
O5 C1 1_555 1_555
O6 C2 1_555 1_555
O7 C4 1_555 1_555
O8 C6 1_555 1_555
O9 C8 1_555 1_555
O10 C10 1_555 1_555
C1 H1 1_555 1_555
H2 C1 1_555 1_555
C2 C1 1_555 1_555
H3 C2 1_555 1_555
H4 C2 1_555 1_555
C3 O6 1_555 1_555
H5 C3 1_555 1_555
H6 C3 1_555 1_555
C4 C3 1_555 1_555
H7 C4 1_555 1_555
H8 C4 1_555 1_555
C5 O7 1_555 1_555
H9 C5 1_555 1_555
H10 C5 1_555 1_555
C6 C5 1_555 1_555
H11 C6 1_555 1_555
H12 C6 1_555 1_555
C7 O8 1_555 1_555
H13 C7 1_555 1_555
H14 C7 1_555 1_555
C8 C7 1_555 1_555
H15 C8 1_555 1_555
H16 C8 1_555 1_555
C9 O9 1_555 1_555
H17 C9 1_555 1_555
H18 C9 1_555 1_555
C10 C9 1_555 1_555
H19 C10 1_555 1_555
H20 C10 1_555 1_555
C11 O10 1_555 1_555
H21 C11 1_555 1_555
H22 C11 1_555 1_555
C12 O5 1_555 1_555
H23 C12 1_555 1_555
H24 C12 1_555 1_555
O11 N2 1_555 1_555
O12 N2 1_555 1_555
N1 H25 1_555 1_555
H26 N1 1_555 1_555
H27 N1 1_555 1_555
N2 C15 1_555 1_555
C13 N1 1_555 1_555
C14 C13 1_555 1_555
H28 C14 1_555 1_555
C15 C14 1_555 1_555
C16 C15 1_555 1_555
H29 C16 1_555 1_555
C17 C16 1_555 1_555
H30 C17 1_555 1_555
C18 C13 1_555 1_555
H31 C18 1_555 1_555
C11 C12 1_555 1_555
C17 C18 1_555 1_555

#END
