
#######################################################################
#
#                 Cambridge Crystallographic Data Centre
#                                CCDC 
#
#######################################################################
#
# If this CIF has been generated from an entry in the Cambridge 
# Structural Database, then it will include bibliographic, chemical, 
# crystal, experimental, refinement or atomic coordinate data resulting 
# from the CCDC's data processing and validation procedures.
#
#######################################################################

data_EVIHOG
_chemical_compound_source        'endophytic fungus Tubercularia sp'
_chemical_name_common            'Ergosterol peroxide methanol solvate'
_chemical_formula_moiety         'C28 H44 O3,C1 H4 O1'
_chemical_name_systematic        
'5\a,8\a-Epidioxyergosta-6,22-dien-3\b-ol methanol solvate'
_chemical_properties_biological  
'immunosuppressive, antiinflammatory, antiviral, antiplasmodial and antitumour activities'
_symmetry_cell_setting           monoclinic
_symmetry_space_group_name_H-M   'P 21'
_symmetry_Int_Tables_number      4
_space_group_name_Hall           'P 2yb'
loop_
_symmetry_equiv_pos_site_id
_symmetry_equiv_pos_as_xyz
1 x,y,z
2 -x,1/2+y,-z
_cell_length_a                   10.022(5)
_cell_length_b                   7.373(5)
_cell_length_c                   19.156(5)
_cell_angle_alpha                90
_cell_angle_beta                 91.556(5)
_cell_angle_gamma                90
_cell_volume                     1414.96
_exptl_crystal_colour            colorless
_exptl_crystal_description       needle
_cell_formula_units_Z            2
loop_
_atom_site_label
_atom_site_type_symbol
_atom_site_fract_x
_atom_site_fract_y
_atom_site_fract_z
O1 O 0.4650(8) 0.4628(13) 0.9295(3)
O2 O 0.4221(4) 0.5567(7) 0.7128(2)
O3 O 0.4142(4) 0.5430(6) 0.63566(18)
C1 C 0.4767(6) 0.1899(12) 0.7643(3)
C2 C 0.4825(8) 0.2341(15) 0.8430(4)
C3 C 0.4642(8) 0.4353(14) 0.8548(3)
C4 C 0.3311(7) 0.5020(12) 0.8220(3)
C5 C 0.3148(6) 0.4492(10) 0.7450(3)
C6 C 0.1891(6) 0.5088(10) 0.7098(3)
C7 C 0.1848(6) 0.4889(9) 0.6430(3)
C8 C 0.3120(5) 0.4122(9) 0.6130(3)
C9 C 0.3479(6) 0.2307(10) 0.6476(3)
C10 C 0.3414(6) 0.2489(10) 0.7293(3)
C11 C 0.2855(7) 0.0654(10) 0.6126(3)
C12 C 0.2966(6) 0.0644(8) 0.5326(3)
C13 C 0.2453(5) 0.2442(8) 0.4994(3)
C14 C 0.3217(5) 0.4032(8) 0.5351(2)
C15 C 0.2906(5) 0.5691(8) 0.4889(3)
C16 C 0.2727(6) 0.4887(9) 0.4155(3)
C17 C 0.2799(5) 0.2789(7) 0.4214(3)
C18 C 0.0924(4) 0.2566(10) 0.5073(3)
C19 C 0.2287(7) 0.1271(12) 0.7580(4)
C20 C 0.1976(6) 0.1852(8) 0.3629(3)
C21 C 0.2133(6) -0.0231(9) 0.3646(3)
C22 C 0.2348(6) 0.2553(10) 0.2922(3)
C23 C 0.1502(7) 0.3339(10) 0.2475(3)
C24 C 0.1808(7) 0.4054(11) 0.1760(3)
C25 C 0.0996(9) 0.3028(14) 0.1186(4)
C26 C 0.1179(11) 0.1011(15) 0.1234(4)
C27 C 0.1342(11) 0.3661(16) 0.0448(4)
C28 C 0.1536(8) 0.6079(12) 0.1723(4)
H1 H 0.4887 0.0604 0.7580
H2 H 0.5492 0.2515 0.7417
H3 H 0.4129 0.1678 0.8663
H4 H 0.5679 0.1961 0.8630
H5 H 0.5383 0.5020 0.8346
H6 H 0.2579 0.4509 0.8477
H7 H 0.3264 0.6330 0.8262
H8 H 0.1183 0.5570 0.7342
H9 H 0.1102 0.5189 0.6155
H10 H 0.4434 0.2171 0.6393
H11 H 0.1920 0.0599 0.6241
H12 H 0.3285 -0.0426 0.6313
H13 H 0.2450 -0.0361 0.5134
H14 H 0.3891 0.0461 0.5207
H15 H 0.4160 0.3770 0.5273
H16 H 0.2098 0.6292 0.5033
H17 H 0.3637 0.6553 0.4908
H18 H 0.3424 0.5326 0.3857
H19 H 0.1871 0.5249 0.3952
H20 H 0.3734 0.2439 0.4159
H21 H 0.0499 0.1591 0.4820
H22 H 0.0609 0.3705 0.4890
H23 H 0.0715 0.2480 0.5558
H24 H 0.2212 0.1479 0.8072
H25 H 0.2499 0.0020 0.7501
H26 H 0.1456 0.1563 0.7346
H27 H 0.1032 0.2136 0.3696
H28 H 0.1633 -0.0755 0.3262
H29 H 0.1805 -0.0692 0.4077
H30 H 0.3059 -0.0540 0.3609
H31 H 0.3230 0.2426 0.2792
H32 H 0.0626 0.3463 0.2617
H33 H 0.2759 0.3858 0.1680
H34 H 0.0049 0.3289 0.1253
H35 H 0.0559 0.0422 0.0918
H36 H 0.1022 0.0619 0.1703
H37 H 0.2074 0.0702 0.1113
H38 H 0.2257 0.3375 0.0361
H39 H 0.1211 0.4947 0.0412
H40 H 0.0773 0.3055 0.0111
H41 H 0.0594 0.6291 0.1750
H42 H 0.1850 0.6551 0.1291
H43 H 0.1992 0.6675 0.2106
H48 H 0.430(8) 0.555(12) 0.941(4)
O4 O 0.4076(8) -0.1905(12) 0.9617(3)
C29 C 0.2779(11) -0.1326(17) 0.9643(5)
H44 H 0.4457 -0.1710 0.9994
H45 H 0.2435 -0.1593 1.0095
H46 H 0.2251 -0.1938 0.9290
H47 H 0.2742 -0.0042 0.9563
loop_
_geom_bond_atom_site_label_1
_geom_bond_atom_site_label_2
_geom_bond_site_symmetry_1
_geom_bond_site_symmetry_2
O1 C3 1_555 1_555
O2 O3 1_555 1_555
O3 C8 1_555 1_555
C1 C2 1_555 1_555
C2 C3 1_555 1_555
C3 C4 1_555 1_555
C4 C5 1_555 1_555
C5 O2 1_555 1_555
C6 C5 1_555 1_555
C7 C6 1_555 1_555
C8 C7 1_555 1_555
C9 C8 1_555 1_555
C10 C1 1_555 1_555
C11 C9 1_555 1_555
C12 C11 1_555 1_555
C13 C12 1_555 1_555
C14 C8 1_555 1_555
C15 C14 1_555 1_555
C16 C15 1_555 1_555
C17 C13 1_555 1_555
C18 C13 1_555 1_555
C19 C10 1_555 1_555
C20 C17 1_555 1_555
C21 C20 1_555 1_555
C22 C20 1_555 1_555
C23 C22 1_555 1_555
C24 C23 1_555 1_555
C25 C24 1_555 1_555
C26 C25 1_555 1_555
C27 C25 1_555 1_555
C28 C24 1_555 1_555
O4 C29 1_555 1_555
C29 H45 1_555 1_555
H1 C1 1_555 1_555
H2 C1 1_555 1_555
H3 C2 1_555 1_555
H4 C2 1_555 1_555
H5 C3 1_555 1_555
H6 C4 1_555 1_555
H7 C4 1_555 1_555
H8 C6 1_555 1_555
H9 C7 1_555 1_555
H10 C9 1_555 1_555
H11 C11 1_555 1_555
H12 C11 1_555 1_555
H13 C12 1_555 1_555
H14 C12 1_555 1_555
H15 C14 1_555 1_555
H16 C15 1_555 1_555
H17 C15 1_555 1_555
H18 C16 1_555 1_555
H19 C16 1_555 1_555
H20 C17 1_555 1_555
H21 C18 1_555 1_555
H22 C18 1_555 1_555
H23 C18 1_555 1_555
H24 C19 1_555 1_555
H25 C19 1_555 1_555
H26 C19 1_555 1_555
H27 C20 1_555 1_555
H28 C21 1_555 1_555
H29 C21 1_555 1_555
H30 C21 1_555 1_555
H31 C22 1_555 1_555
H32 C23 1_555 1_555
H33 C24 1_555 1_555
H34 C25 1_555 1_555
H35 C26 1_555 1_555
H36 C26 1_555 1_555
H37 C26 1_555 1_555
H38 C27 1_555 1_555
H39 C27 1_555 1_555
H40 C27 1_555 1_555
H41 C28 1_555 1_555
H42 C28 1_555 1_555
H43 C28 1_555 1_555
H44 O4 1_555 1_555
H46 C29 1_555 1_555
H47 C29 1_555 1_555
H48 O1 1_555 1_555
C5 C10 1_555 1_555
C9 C10 1_555 1_555
C13 C14 1_555 1_555
C16 C17 1_555 1_555

#END
