
#######################################################################
#
#                 Cambridge Crystallographic Data Centre
#                                CCDC 
#
#######################################################################
#
# If this CIF has been generated from an entry in the Cambridge 
# Structural Database, then it will include bibliographic, chemical, 
# crystal, experimental, refinement or atomic coordinate data resulting 
# from the CCDC's data processing and validation procedures.
#
#######################################################################

data_EVIHIC01
_chemical_formula_moiety         
'C6 H7 N2 O2 1+,C12 H24 O6,I1 O4 1-,0.5(C1 H4 O1)'
_chemical_name_systematic        
'3-nitroanilinium 18-crown-6 periodate methanol solvate'
_symmetry_cell_setting           monoclinic
_symmetry_space_group_name_H-M   'C 2/c'
_symmetry_Int_Tables_number      15
_space_group_name_Hall           '-C 2yn'
loop_
_symmetry_equiv_pos_site_id
_symmetry_equiv_pos_as_xyz
1 x,y,z
2 -x,y,1/2-z
3 1/2+x,1/2+y,z
4 1/2-x,1/2+y,1/2-z
5 -x,-y,-z
6 x,-y,1/2+z
7 1/2-x,1/2-y,-z
8 1/2+x,1/2-y,1/2+z
_cell_length_a                   20.817(3)
_cell_length_b                   10.5256(14)
_cell_length_c                   23.261(3)
_cell_angle_alpha                90
_cell_angle_beta                 93.301(2)
_cell_angle_gamma                90
_cell_volume                     5088.29
_exptl_crystal_colour            yellow
_exptl_crystal_description       block
_cell_formula_units_Z            8
loop_
_atom_site_label
_atom_site_type_symbol
_atom_site_fract_x
_atom_site_fract_y
_atom_site_fract_z
O5 O 0.02786(16) 0.8439(3) -0.08351(13)
O6 O 0.14008(16) 0.9430(3) -0.13054(14)
O7 O 0.17210(15) 0.7860(3) -0.22067(14)
O8 O 0.14467(15) 0.5233(3) -0.23311(13)
O9 O 0.05073(17) 0.4371(3) -0.16023(14)
O10 O 0.00358(16) 0.5825(3) -0.07165(15)
C1 C 0.0558(3) 0.9625(4) -0.0655(2)
H1 H 0.0864 0.9488 -0.0330
H2 H 0.0225 1.0191 -0.0533
C2 C 0.0893(3) 1.0216(4) -0.1141(2)
H3 H 0.0588 1.0343 -0.1467
H4 H 0.1062 1.1040 -0.1022
C3 C 0.1676(3) 0.9915(4) -0.1807(2)
H5 H 0.1919 1.0680 -0.1711
H6 H 0.1337 1.0130 -0.2095
C4 C 0.2103(3) 0.8947(4) -0.2038(3)
H7 H 0.2312 0.9284 -0.2368
H8 H 0.2433 0.8707 -0.1747
C5 C 0.2011(2) 0.7077(4) -0.2619(2)
H9 H 0.2404 0.6703 -0.2451
H10 H 0.2118 0.7580 -0.2950
C6 C 0.1547(3) 0.6061(4) -0.2801(2)
H11 H 0.1141 0.6440 -0.2935
H12 H 0.1712 0.5581 -0.3116
C7 C 0.1001(3) 0.4252(5) -0.2485(2)
H13 H 0.1187 0.3682 -0.2758
H14 H 0.0614 0.4619 -0.2668
C8 C 0.0837(3) 0.3530(5) -0.1965(3)
H15 H 0.0565 0.2812 -0.2074
H16 H 0.1225 0.3213 -0.1764
C9 C 0.0292(3) 0.3798(4) -0.1092(2)
H17 H 0.0647 0.3721 -0.0805
H18 H 0.0124 0.2954 -0.1178
C10 C -0.0225(2) 0.4618(4) -0.0868(2)
H19 H -0.0572 0.4716 -0.1160
H20 H -0.0397 0.4223 -0.0533
C11 C -0.0450(2) 0.6749(5) -0.0653(2)
H21 H -0.0755 0.6443 -0.0385
H22 H -0.0680 0.6894 -0.1022
C12 C -0.0156(2) 0.7962(5) -0.0436(2)
H23 H -0.0492 0.8583 -0.0382
H24 H 0.0072 0.7818 -0.0066
O11 O 0.3151(2) 0.3108(4) -0.0215(2)
O12 O 0.2545(2) 0.2740(4) -0.0978(2)
N1 N 0.11926(16) 0.6650(3) -0.12609(14)
H25 H 0.1235 0.6205 -0.1582
H26 H 0.1299 0.7456 -0.1321
H27 H 0.0786 0.6610 -0.1162
N2 N 0.2716(2) 0.3383(4) -0.0565(2)
C13 C 0.2352(2) 0.4555(4) -0.0460(2)
C14 C 0.1980(2) 0.5057(4) -0.09076(18)
H28 H 0.1972 0.4695 -0.1273
C15 C 0.1615(2) 0.6123(3) -0.07994(19)
C16 C 0.1633(2) 0.6663(4) -0.0256(2)
H29 H 0.1386 0.7376 -0.0187
C17 C 0.2021(3) 0.6137(5) 0.0180(3)
H30 H 0.2033 0.6498 0.0546
C18 C 0.2389(2) 0.5089(5) 0.0083(2)
H31 H 0.2658 0.4745 0.0376
I1 I 0.120512(14) 0.89932(3) 0.139834(12)
O1 O 0.0923(3) 0.8743(7) 0.0704(2)
O2 O 0.1846(4) 0.7976(11) 0.1527(4)
O3 O 0.1463(6) 1.0527(8) 0.1466(3)
O4 O 0.0602(3) 0.8682(5) 0.1866(2)
H32? H -0.0068 0.7621 -0.2827
H33? H -0.0361 0.8736 -0.2479
H34? H 0.0385 0.8660 -0.2539
O13? O 0.0067(6) 0.7571(12) -0.2051(5)
H35? H -0.0262 0.7817 -0.1800
C19? C 0.0000 0.8172(15) -0.2500
loop_
_geom_bond_atom_site_label_1
_geom_bond_atom_site_label_2
_geom_bond_site_symmetry_1
_geom_bond_site_symmetry_2
I1 O1 1_555 1_555
O2 I1 1_555 1_555
O3 I1 1_555 1_555
O4 I1 1_555 1_555
O5 C1 1_555 1_555
O6 C2 1_555 1_555
O7 C4 1_555 1_555
O8 C6 1_555 1_555
O9 C8 1_555 1_555
O10 C10 1_555 1_555
C1 H1 1_555 1_555
H2 C1 1_555 1_555
C2 C1 1_555 1_555
H3 C2 1_555 1_555
H4 C2 1_555 1_555
C3 O6 1_555 1_555
H5 C3 1_555 1_555
H6 C3 1_555 1_555
C4 C3 1_555 1_555
H7 C4 1_555 1_555
H8 C4 1_555 1_555
C5 O7 1_555 1_555
H9 C5 1_555 1_555
H10 C5 1_555 1_555
C6 C5 1_555 1_555
H11 C6 1_555 1_555
H12 C6 1_555 1_555
C7 O8 1_555 1_555
H13 C7 1_555 1_555
H14 C7 1_555 1_555
C8 C7 1_555 1_555
H15 C8 1_555 1_555
H16 C8 1_555 1_555
C9 O9 1_555 1_555
H17 C9 1_555 1_555
H18 C9 1_555 1_555
C10 C9 1_555 1_555
H19 C10 1_555 1_555
H20 C10 1_555 1_555
C11 O10 1_555 1_555
H21 C11 1_555 1_555
H22 C11 1_555 1_555
C12 O5 1_555 1_555
H23 C12 1_555 1_555
H24 C12 1_555 1_555
O11 N2 1_555 1_555
O12 N2 1_555 1_555
N1 H25 1_555 1_555
H26 N1 1_555 1_555
H27 N1 1_555 1_555
N2 C13 1_555 1_555
C13 C14 1_555 1_555
C14 H28 1_555 1_555
C15 N1 1_555 1_555
C16 C15 1_555 1_555
H29 C16 1_555 1_555
C17 C16 1_555 1_555
H30 C17 1_555 1_555
C18 C13 1_555 1_555
H31 C18 1_555 1_555
C11 C12 1_555 1_555
C14 C15 1_555 1_555
C17 C18 1_555 1_555

#END
