
#######################################################################
#
#                 Cambridge Crystallographic Data Centre
#                                CCDC 
#
#######################################################################
#
# If this CIF has been generated from an entry in the Cambridge 
# Structural Database, then it will include bibliographic, chemical, 
# crystal, experimental, refinement or atomic coordinate data resulting 
# from the CCDC's data processing and validation procedures.
#
#######################################################################

data_EVIHIA
_chemical_formula_moiety         'C18 Cl12 O2'
_chemical_name_systematic        
1,2,3,4,4b,4c,6,7,8,9,9b,9c-Dodecachloro-4b,4c,9b,9c-tetrahydrocyclobuta(1,2-a:3,4-a')diindene-5,10-dione
_symmetry_cell_setting           orthorhombic
_symmetry_space_group_name_H-M   'P b c n'
_symmetry_Int_Tables_number      60
_space_group_name_Hall           '-P 2n 2ab'
loop_
_symmetry_equiv_pos_site_id
_symmetry_equiv_pos_as_xyz
1 x,y,z
2 1/2+x,1/2+y,1/2-z
3 x,-y,1/2+z
4 1/2-x,1/2+y,z
5 -x,-y,-z
6 1/2-x,1/2-y,1/2+z
7 -x,y,1/2-z
8 1/2+x,1/2-y,-z
_cell_length_a                   9.0245(18)
_cell_length_b                   18.407(4)
_cell_length_c                   13.516(3)
_cell_angle_alpha                90
_cell_angle_beta                 90
_cell_angle_gamma                90
_cell_volume                     2245.2
_exptl_crystal_colour            yellow
_exptl_crystal_description       prism
_cell_formula_units_Z            4
_exptl_crystal_recrystallization_method cyclohexane
loop_
_atom_site_label
_atom_site_type_symbol
_atom_site_fract_x
_atom_site_fract_y
_atom_site_fract_z
Cl1 Cl 0.68377(8) 0.47821(4) 0.32715(6)
Cl2 Cl 0.35335(8) 0.44673(3) 0.40174(5)
Cl3 Cl 0.12384(6) 0.30389(4) 0.35928(5)
Cl4 Cl 0.15760(8) 0.13870(4) 0.40003(5)
Cl5 Cl 0.46867(10) 0.06854(3) 0.41187(7)
Cl6 Cl 0.75075(7) 0.16403(4) 0.38342(5)
O1 O 0.80693(18) 0.32872(12) 0.37131(14)
C1 C 0.6030(2) 0.39544(11) 0.29645(16)
C2 C 0.4338(2) 0.38567(11) 0.31810(15)
C3 C 0.2962(2) 0.26630(11) 0.36751(15)
C4 C 0.3117(2) 0.19201(12) 0.38690(16)
C5 C 0.4520(3) 0.15998(12) 0.39277(16)
C6 C 0.5778(2) 0.20240(12) 0.38166(15)
C7 C 0.6794(2) 0.33142(13) 0.34657(16)
C8 C 0.5620(2) 0.27624(11) 0.36351(14)
C9 C 0.4226(2) 0.30754(10) 0.35329(14)
C1F C 0.3970(2) 0.39544(11) 0.20355(16)
Cl1F Cl 0.31623(8) 0.47821(4) 0.17285(6)
C2F C 0.5662(2) 0.38567(11) 0.18190(15)
Cl2F Cl 0.64665(8) 0.44673(3) 0.09826(5)
C9F C 0.5774(2) 0.30754(10) 0.14671(14)
C3F C 0.7038(2) 0.26630(11) 0.13249(15)
Cl3F Cl 0.87616(6) 0.30389(4) 0.14072(5)
C4F C 0.6883(2) 0.19201(12) 0.11310(16)
Cl4F Cl 0.84240(8) 0.13870(4) 0.09997(5)
C5F C 0.5480(3) 0.15998(12) 0.10723(16)
Cl5F Cl 0.53133(10) 0.06854(3) 0.08813(7)
C6F C 0.4222(2) 0.20240(12) 0.11834(15)
Cl6F Cl 0.24925(7) 0.16403(4) 0.11658(5)
C8F C 0.4380(2) 0.27624(11) 0.13649(14)
C7F C 0.3206(2) 0.33142(13) 0.15343(16)
O1F O 0.19307(18) 0.32872(12) 0.12869(14)
loop_
_geom_bond_atom_site_label_1
_geom_bond_atom_site_label_2
_geom_bond_site_symmetry_1
_geom_bond_site_symmetry_2
Cl1 C1 1_555 1_555
Cl2 C2 1_555 1_555
Cl3 C3 1_555 1_555
Cl4 C4 1_555 1_555
Cl5 C5 1_555 1_555
Cl6 C6 1_555 1_555
O1 C7 1_555 1_555
C1 C2 1_555 1_555
C2 C9 1_555 1_555
C3 C4 1_555 1_555
C4 C5 1_555 1_555
C5 C6 1_555 1_555
C6 C8 1_555 1_555
C7 C1 1_555 1_555
C8 C7 1_555 1_555
C9 C3 1_555 1_555
C1F C2 1_555 1_555
Cl1F C1F 1_555 1_555
C2F C1 1_555 1_555
Cl2F C2F 1_555 1_555
C9F C2F 1_555 1_555
C3F C9F 1_555 1_555
Cl3F C3F 1_555 1_555
C4F C3F 1_555 1_555
Cl4F C4F 1_555 1_555
C5F C4F 1_555 1_555
Cl5F C5F 1_555 1_555
C6F C5F 1_555 1_555
Cl6F C6F 1_555 1_555
C8F C9F 1_555 1_555
C7F C1F 1_555 1_555
O1F C7F 1_555 1_555
C8 C9 1_555 1_555
C1F C2F 1_555 1_555
C6F C8F 1_555 1_555
C8F C7F 1_555 1_555

#END
