
#######################################################################
#
#                 Cambridge Crystallographic Data Centre
#                                CCDC 
#
#######################################################################
#
# If this CIF has been generated from an entry in the Cambridge 
# Structural Database, then it will include bibliographic, chemical, 
# crystal, experimental, refinement or atomic coordinate data resulting 
# from the CCDC's data processing and validation procedures.
#
#######################################################################

data_EVIJAV
_chemical_formula_moiety         'C18 H18 Cl1 N3 O4'
_chemical_name_systematic        
'Benzyl (1-(2-(2-chlorobenzylidene)hydrazino)-3-hydroxy-1-oxopropan-2-yl)carbamate'
_symmetry_cell_setting           triclinic
_symmetry_space_group_name_H-M   'P 1'
_symmetry_Int_Tables_number      1
_space_group_name_Hall           'P 1'
loop_
_symmetry_equiv_pos_site_id
_symmetry_equiv_pos_as_xyz
1 x,y,z
_cell_length_a                   4.6804(4)
_cell_length_b                   5.6037(7)
_cell_length_c                   16.946(2)
_cell_angle_alpha                95.669(6)
_cell_angle_beta                 95.886(7)
_cell_angle_gamma                94.467(6)
_cell_volume                     438.204
_exptl_crystal_colour            yellow
_exptl_crystal_description       needle
_cell_formula_units_Z            1
loop_
_atom_site_label
_atom_site_type_symbol
_atom_site_fract_x
_atom_site_fract_y
_atom_site_fract_z
Cl1 Cl 1.3824(2) 1.3694(2) 0.28152(10)
O1 O 0.5726(7) 0.6300(8) 0.4667(3)
O2 O 1.2666(8) 0.1671(7) 0.5712(3)
H1 H 1.181(14) 0.079(11) 0.600(4)
O3 O 0.9314(8) 0.8947(7) 0.6569(2)
O4 O 0.5835(8) 0.6630(7) 0.7041(2)
N1 N 0.8863(9) 0.7934(8) 0.3539(3)
N2 N 1.0058(10) 0.6984(9) 0.4208(3)
H2 H 1.195(3) 0.713(11) 0.429(4)
N3 N 0.8117(10) 0.4981(8) 0.6072(3)
H3 H 0.683(10) 0.377(7) 0.610(4)
C1 C 0.9669(12) 0.9974(11) 0.2410(4)
C2 C 1.1001(11) 1.2101(10) 0.2184(4)
C3 C 0.9976(13) 1.3025(11) 0.1494(4)
H4 H 1.0844 1.4498 0.1359
C4 C 0.7682(13) 1.1799(12) 0.1000(4)
H5 H 0.6996 1.2419 0.0521
C5 C 0.6399(13) 0.9705(12) 0.1198(4)
H6 H 0.4842 0.8866 0.0851
C6 C 0.7337(12) 0.8786(11) 0.1900(3)
H7 H 0.6394 0.7344 0.2035
C7 C 1.0712(12) 0.9037(10) 0.3152(3)
H8 H 1.2704 0.9233 0.3345
C8 C 0.8341(11) 0.6206(10) 0.4736(3)
C9 C 0.9896(11) 0.5108(10) 0.5429(3)
H9 H 1.1710 0.6148 0.5629
C10 C 1.0689(11) 0.2567(11) 0.5148(3)
H10 H 0.8910 0.1454 0.5048
H11 H 1.1540 0.2613 0.4638
C11 C 0.7900(11) 0.7019(10) 0.6551(3)
C12 C 0.5549(12) 0.8631(11) 0.7614(3)
H12 H 0.4789 0.9962 0.7337
H13 H 0.7465 0.9217 0.7900
C13 C 0.3567(11) 0.7911(11) 0.8197(4)
C14 C 0.2025(12) 0.5668(11) 0.8127(4)
H14 H 0.2219 0.4510 0.7691
C15 C 0.0196(14) 0.5110(13) 0.8693(5)
H15 H -0.0830 0.3563 0.8648
C16 C -0.0126(13) 0.6770(13) 0.9310(4)
H16 H -0.1406 0.6383 0.9688
C17 C 0.1389(13) 0.9020(13) 0.9394(4)
H17 H 0.1162 1.0166 0.9830
C18 C 0.3217(12) 0.9584(11) 0.8845(4)
H18 H 0.4261 1.1127 0.8903
loop_
_geom_bond_atom_site_label_1
_geom_bond_atom_site_label_2
_geom_bond_site_symmetry_1
_geom_bond_site_symmetry_2
Cl1 C2 1_555 1_555
O1 C8 1_555 1_555
O2 H1 1_555 1_555
O3 C11 1_555 1_555
O4 C11 1_555 1_555
N1 N2 1_555 1_555
N2 H2 1_555 1_555
N3 H3 1_555 1_555
C1 C2 1_555 1_555
C2 C3 1_555 1_555
C3 H4 1_555 1_555
C4 C3 1_555 1_555
H5 C4 1_555 1_555
C5 C4 1_555 1_555
H6 C5 1_555 1_555
C6 C1 1_555 1_555
H7 C6 1_555 1_555
C7 N1 1_555 1_555
H8 C7 1_555 1_555
C8 N2 1_555 1_555
C9 N3 1_555 1_555
H9 C9 1_555 1_555
C10 O2 1_555 1_555
H10 C10 1_555 1_555
H11 C10 1_555 1_555
C11 N3 1_555 1_555
C12 O4 1_555 1_555
H12 C12 1_555 1_555
H13 C12 1_555 1_555
C13 C12 1_555 1_555
C14 C13 1_555 1_555
H14 C14 1_555 1_555
C15 C14 1_555 1_555
H15 C15 1_555 1_555
C16 C15 1_555 1_555
H16 C16 1_555 1_555
C17 C16 1_555 1_555
H17 C17 1_555 1_555
C18 C13 1_555 1_555
H18 C18 1_555 1_555
C1 C7 1_555 1_555
C5 C6 1_555 1_555
C8 C9 1_555 1_555
C9 C10 1_555 1_555
C17 C18 1_555 1_555

#END
