
#######################################################################
#
#                 Cambridge Crystallographic Data Centre
#                                CCDC 
#
#######################################################################
#
# If this CIF has been generated from an entry in the Cambridge 
# Structural Database, then it will include bibliographic, chemical, 
# crystal, experimental, refinement or atomic coordinate data resulting 
# from the CCDC's data processing and validation procedures.
#
#######################################################################

data_EVIJUP01
_chemical_formula_moiety         'C9 H7 N7,2(H2 O1)'
_chemical_name_systematic        
'2,6-bis(4H-1,2,4-triazol-4-yl)pyridine dihydrate'
_symmetry_cell_setting           monoclinic
_symmetry_space_group_name_H-M   'P 21/c'
_symmetry_Int_Tables_number      14
_space_group_name_Hall           '-P 2ybc'
loop_
_symmetry_equiv_pos_site_id
_symmetry_equiv_pos_as_xyz
1 x,y,z
2 -x,1/2+y,1/2-z
3 -x,-y,-z
4 x,1/2-y,1/2+z
_cell_length_a                   9.7211(17)
_cell_length_b                   17.921(3)
_cell_length_c                   19.603(4)
_cell_angle_alpha                90
_cell_angle_beta                 91.333(3)
_cell_angle_gamma                90
_cell_volume                     3414.15
_exptl_crystal_colour            colorless
_exptl_crystal_description       plate
_chemical_melting_point          '325-327 K'
_cell_formula_units_Z            12
loop_
_atom_site_label
_atom_site_type_symbol
_atom_site_fract_x
_atom_site_fract_y
_atom_site_fract_z
O1 O 0.7154(2) 0.78220(11) 0.96334(15)
H1 H 0.654(3) 0.7512(12) 0.9490(19)
H2 H 0.694(3) 0.8260(8) 0.9486(19)
O2 O 0.9471(3) 0.69444(15) 0.92087(15)
H3 H 0.879(3) 0.719(2) 0.9382(16)
H4 H 0.943(4) 0.701(2) 0.8775(6)
O3 O 0.7061(3) 0.61811(12) 0.72477(16)
H5 H 0.777(3) 0.6395(18) 0.7419(18)
H6 H 0.673(4) 0.6445(18) 0.6918(15)
O4 O 0.9378(2) 0.70073(12) 0.77552(15)
H7 H 1.004(2) 0.6707(13) 0.7666(19)
H8 H 0.960(3) 0.7445(8) 0.762(2)
O5 O 0.6322(3) 0.69516(15) 0.60102(15)
H9 H 0.558(3) 0.719(2) 0.6101(18)
H10 H 0.648(4) 0.701(2) 0.5583(8)
O6 O 0.4062(2) 0.78247(12) 0.60995(15)
H11 H 0.341(3) 0.7504(13) 0.606(2)
H12 H 0.375(3) 0.8260(8) 0.600(2)
N1 N -0.2572(2) 0.41842(13) 0.91734(13)
N2 N -0.2565(2) 0.49602(13) 0.91358(13)
N3 N -0.0433(2) 0.45570(11) 0.91796(12)
N4 N 0.1588(2) 0.52262(11) 0.91983(11)
N5 N 0.3497(2) 0.59867(12) 0.92021(12)
N6 N 0.3602(3) 0.72068(13) 0.92221(15)
N7 N 0.4924(2) 0.69199(13) 0.91984(15)
C1 C -0.1310(3) 0.39664(15) 0.92001(16)
H13 H -0.1034 0.3470 0.9230
C2 C -0.1282(3) 0.51609(15) 0.91468(15)
H14 H -0.0981 0.5653 0.9134
C3 C 0.1020(3) 0.45514(14) 0.91807(15)
C4 C 0.1745(3) 0.38948(15) 0.91611(16)
H15 H 0.1304 0.3434 0.9150
C5 C 0.3165(3) 0.39510(16) 0.91587(18)
H16 H 0.3698 0.3521 0.9145
C6 C 0.3790(3) 0.46336(14) 0.91766(16)
H17 H 0.4743 0.4679 0.9178
C7 C 0.2948(3) 0.52521(14) 0.91926(14)
C8 C 0.2778(3) 0.66368(15) 0.92221(16)
H18 H 0.1824 0.6669 0.9234
C9 C 0.4838(3) 0.61994(16) 0.91853(16)
H19 H 0.5583 0.5875 0.9167
N8 N 0.0804(2) 0.83897(12) 0.74510(14)
N9 N 0.0826(2) 0.91653(12) 0.74574(13)
N10 N 0.2947(2) 0.87465(11) 0.75369(12)
N11 N 0.4984(2) 0.94024(11) 0.75457(12)
N12 N 0.6900(2) 1.01533(11) 0.75413(12)
N13 N 0.7018(2) 1.13674(13) 0.74646(13)
N14 N 0.8339(2) 1.10798(13) 0.74444(13)
C10 C 0.2067(3) 0.81618(15) 0.74954(16)
H20 H 0.2334 0.7663 0.7498
C11 C 0.2113(3) 0.93586(15) 0.75085(14)
H21 H 0.2424 0.9849 0.7524
C12 C 0.4406(2) 0.87350(14) 0.75887(14)
C13 C 0.5117(3) 0.80762(15) 0.76775(16)
H22 H 0.4666 0.7620 0.7705
C14 C 0.6524(3) 0.81262(15) 0.77231(17)
H23 H 0.7046 0.7696 0.7787
C15 C 0.7168(3) 0.88044(15) 0.76760(16)
H24 H 0.8122 0.8845 0.7698
C16 C 0.6338(3) 0.94236(14) 0.75953(14)
C17 C 0.6190(3) 1.08051(15) 0.75224(16)
H25 H 0.5238 1.0843 0.7548
C18 C 0.8236(3) 1.03616(15) 0.74905(15)
H26 H 0.8976 1.0033 0.7489
N15 N 0.4265(2) 0.41749(12) 0.57083(13)
N16 N 0.4285(2) 0.49419(12) 0.58098(13)
N17 N 0.6411(2) 0.45391(11) 0.57956(12)
N18 N 0.8443(2) 0.52004(12) 0.58430(12)
N19 N 1.0366(2) 0.59472(12) 0.58859(12)
N20 N 1.0484(3) 0.71698(13) 0.58745(16)
N21 N 1.1808(3) 0.68779(14) 0.58657(14)
C19 C 0.5535(3) 0.39572(15) 0.57048(16)
H27 H 0.5810 0.3465 0.5647
C20 C 0.5561(3) 0.51389(15) 0.58591(15)
H28 H 0.5861 0.5626 0.5929
C21 C 0.7878(3) 0.45277(14) 0.58206(14)
C22 C 0.8581(3) 0.38678(15) 0.58217(15)
H29 H 0.8129 0.3411 0.5804
C23 C 0.9995(3) 0.39140(15) 0.58510(16)
H30 H 1.0520 0.3480 0.5854
C24 C 1.0638(3) 0.45981(15) 0.58760(15)
H31 H 1.1592 0.4639 0.5896
C25 C 0.9809(3) 0.52181(14) 0.58709(15)
C26 C 0.9662(3) 0.66025(16) 0.58895(18)
H32 H 0.8709 0.6639 0.5901
C27 C 1.1704(3) 0.61615(16) 0.58718(16)
H33 H 1.2446 0.5835 0.5867
loop_
_geom_bond_atom_site_label_1
_geom_bond_atom_site_label_2
_geom_bond_site_symmetry_1
_geom_bond_site_symmetry_2
O1 H1 1_555 1_555
H2 O1 1_555 1_555
O2 H3 1_555 1_555
H4 O2 1_555 1_555
O3 H5 1_555 1_555
H6 O3 1_555 1_555
O4 H7 1_555 1_555
H8 O4 1_555 1_555
O5 H9 1_555 1_555
H10 O5 1_555 1_555
O6 H11 1_555 1_555
H12 O6 1_555 1_555
N1 N2 1_555 1_555
N2 C2 1_555 1_555
N3 C1 1_555 1_555
N4 C3 1_555 1_555
N5 C7 1_555 1_555
N6 N7 1_555 1_555
N7 C9 1_555 1_555
N8 N9 1_555 1_555
N9 C11 1_555 1_555
N10 C10 1_555 1_555
N11 C12 1_555 1_555
N12 C16 1_555 1_555
N13 N14 1_555 1_555
N14 C18 1_555 1_555
N15 N16 1_555 1_555
N16 C20 1_555 1_555
N17 C19 1_555 1_555
N18 C21 1_555 1_555
N19 C25 1_555 1_555
N20 N21 1_555 1_555
N21 C27 1_555 1_555
C1 N1 1_555 1_555
H13 C1 1_555 1_555
C2 N3 1_555 1_555
H14 C2 1_555 1_555
C3 N3 1_555 1_555
C4 C3 1_555 1_555
H15 C4 1_555 1_555
C5 C4 1_555 1_555
H16 C5 1_555 1_555
C6 C5 1_555 1_555
H17 C6 1_555 1_555
C7 N4 1_555 1_555
C8 N5 1_555 1_555
H18 C8 1_555 1_555
C9 N5 1_555 1_555
H19 C9 1_555 1_555
C10 N8 1_555 1_555
H20 C10 1_555 1_555
C11 N10 1_555 1_555
H21 C11 1_555 1_555
C12 N10 1_555 1_555
C13 C12 1_555 1_555
H22 C13 1_555 1_555
C14 C13 1_555 1_555
H23 C14 1_555 1_555
C15 C14 1_555 1_555
H24 C15 1_555 1_555
C16 N11 1_555 1_555
C17 N12 1_555 1_555
H25 C17 1_555 1_555
C18 N12 1_555 1_555
H26 C18 1_555 1_555
C19 N15 1_555 1_555
H27 C19 1_555 1_555
C20 N17 1_555 1_555
H28 C20 1_555 1_555
C21 N17 1_555 1_555
C22 C21 1_555 1_555
H29 C22 1_555 1_555
C23 C22 1_555 1_555
H30 C23 1_555 1_555
C24 C23 1_555 1_555
H31 C24 1_555 1_555
C25 N18 1_555 1_555
C26 N19 1_555 1_555
H32 C26 1_555 1_555
C27 N19 1_555 1_555
H33 C27 1_555 1_555
N6 C8 1_555 1_555
N13 C17 1_555 1_555
N20 C26 1_555 1_555
C6 C7 1_555 1_555
C15 C16 1_555 1_555
C24 C25 1_555 1_555

#END
