
#######################################################################
#
#                 Cambridge Crystallographic Data Centre
#                                CCDC 
#
#######################################################################
#
# If this CIF has been generated from an entry in the Cambridge 
# Structural Database, then it will include bibliographic, chemical, 
# crystal, experimental, refinement or atomic coordinate data resulting 
# from the CCDC's data processing and validation procedures.
#
#######################################################################

data_EVIJUP
_chemical_formula_moiety         'C9 H7 N7,2(H2 O1)'
_chemical_name_systematic        
'2,6-bis(4H-1,2,4-triazol-4-yl)pyridine dihydrate'
_symmetry_cell_setting           monoclinic
_symmetry_space_group_name_H-M   'P 21'
_symmetry_Int_Tables_number      4
_space_group_name_Hall           'P 2yb'
loop_
_symmetry_equiv_pos_site_id
_symmetry_equiv_pos_as_xyz
1 x,y,z
2 -x,1/2+y,-z
_cell_length_a                   7.052(8)
_cell_length_b                   17.862(16)
_cell_length_c                   9.715(8)
_cell_angle_alpha                90
_cell_angle_beta                 111.158(9)
_cell_angle_gamma                90
_cell_volume                     1141.24
_exptl_crystal_colour            colorless
_exptl_crystal_description       block
_cell_formula_units_Z            4
loop_
_atom_site_label
_atom_site_type_symbol
_atom_site_fract_x
_atom_site_fract_y
_atom_site_fract_z
N1 N 0.8333(4) 0.57130(16) 0.3342(3)
N2 N 0.7010(5) 0.60054(15) 0.2019(3)
N3 N 0.7201(4) 0.47959(13) 0.1779(2)
N4 N 0.5316(4) 0.40426(13) -0.0145(2)
N5 N 0.3281(4) 0.33831(14) -0.2179(2)
N6 N 0.1060(4) 0.37967(15) -0.4259(3)
N7 N 0.0990(4) 0.30183(16) -0.4263(3)
C1 C 0.8413(5) 0.49967(18) 0.3165(3)
C2 C 0.6375(5) 0.54465(17) 0.1118(3)
C3 C 0.6778(4) 0.40638(17) 0.1168(3)
C4 C 0.7786(5) 0.34433(19) 0.1922(3)
C5 C 0.7209(5) 0.27547(18) 0.1262(3)
C6 C 0.5697(5) 0.27085(18) -0.0111(3)
C7 C 0.4817(4) 0.33686(17) -0.0757(3)
C8 C 0.2312(5) 0.27945(18) -0.3025(3)
C9 C 0.2422(5) 0.39963(17) -0.3011(3)
H1 H 0.91930 0.46660 0.38870
H2 H 0.54740 0.54870 0.01480
H3 H 0.88170 0.34870 0.28420
H4 H 0.78400 0.23220 0.17450
H5 H 0.52900 0.22510 -0.05800
H6 H 0.25680 0.22950 -0.27490
H7 H 0.27680 0.44890 -0.27220
N8 N 0.9611(4) 0.38269(15) 0.9078(3)
N9 N 0.9503(4) 0.46049(16) 0.9104(3)
N10 N 0.7369(4) 0.41986(14) 0.6977(2)
N11 N 0.5207(4) 0.48637(13) 0.5001(3)
N12 N 0.3162(4) 0.56230(14) 0.3130(2)
N13 N 0.1657(5) 0.65496(17) 0.1704(3)
N14 N 0.2856(5) 0.68389(16) 0.3071(3)
C10 C 0.8165(5) 0.48092(18) 0.7842(3)
C11 C 0.8331(5) 0.36112(17) 0.7816(3)
C12 C 0.5915(4) 0.41913(18) 0.5521(3)
C13 C 0.5325(5) 0.35351(17) 0.4748(3)
C14 C 0.3899(5) 0.35832(18) 0.3354(3)
C15 C 0.3103(5) 0.42704(18) 0.2768(3)
C16 C 0.3835(4) 0.48866(17) 0.3647(3)
C17 C 0.1877(5) 0.58319(18) 0.1776(3)
C18 C 0.3716(5) 0.62737(18) 0.3880(3)
H8 H 0.78000 0.53030 0.75650
H9 H 0.81000 0.31140 0.75220
H10 H 0.58720 0.30770 0.51560
H11 H 0.34610 0.31510 0.27950
H12 H 0.21210 0.43130 0.18270
H13 H 0.12400 0.55040 0.10040
H14 H 0.46030 0.63090 0.48550
O1 O 0.0057(4) 0.16140(14) 0.4125(2)
H15 H 0.04450 0.12750 0.47830
H16 H 0.02170 0.20560 0.44750
O2 O 0.3057(5) 0.15947(15) 0.2795(3)
H17 H 0.26290 0.18190 0.19670
H18 H 0.22270 0.15830 0.32480
O3 O 0.6429(5) 0.08242(16) 0.2340(3)
H19 H 0.75790 0.10000 0.28750
H20 H 0.53790 0.10490 0.23620
O4 O 0.1440(4) 0.24252(14) 0.0311(2)
H21 H 0.06240 0.21210 -0.02880
H22 H 0.11000 0.28830 0.01600
loop_
_geom_bond_atom_site_label_1
_geom_bond_atom_site_label_2
_geom_bond_site_symmetry_1
_geom_bond_site_symmetry_2
N1 N2 1_555 1_555
N2 C2 1_555 1_555
N3 C1 1_555 1_555
N4 C3 1_555 1_555
N5 C7 1_555 1_555
N6 N7 1_555 1_555
N7 C8 1_555 1_555
C1 N1 1_555 1_555
C2 N3 1_555 1_555
C3 N3 1_555 1_555
C4 C3 1_555 1_555
C5 C4 1_555 1_555
C6 C5 1_555 1_555
C7 N4 1_555 1_555
C8 N5 1_555 1_555
C9 N5 1_555 1_555
N8 N9 1_555 1_555
N9 C10 1_555 1_555
N10 C10 1_555 1_555
N11 C12 1_555 1_555
N12 C16 1_555 1_555
N13 N14 1_555 1_555
N14 C18 1_555 1_555
C10 H8 1_555 1_555
C11 N8 1_555 1_555
C12 N10 1_555 1_555
C13 C12 1_555 1_555
C14 C13 1_555 1_555
C15 C14 1_555 1_555
C16 N11 1_555 1_555
C17 N12 1_555 1_555
C18 N12 1_555 1_555
O1 H15 1_555 1_555
O2 H17 1_555 1_555
O3 H19 1_555 1_555
O4 H21 1_555 1_555
H1 C1 1_555 1_555
H2 C2 1_555 1_555
H3 C4 1_555 1_555
H4 C5 1_555 1_555
H5 C6 1_555 1_555
H6 C8 1_555 1_555
H7 C9 1_555 1_555
H9 C11 1_555 1_555
H10 C13 1_555 1_555
H11 C14 1_555 1_555
H12 C15 1_555 1_555
H13 C17 1_555 1_555
H14 C18 1_555 1_555
H16 O1 1_555 1_555
H18 O2 1_555 1_555
H20 O3 1_555 1_555
H22 O4 1_555 1_555
N6 C9 1_555 1_555
C6 C7 1_555 1_555
N10 C11 1_555 1_555
N13 C17 1_555 1_555
C15 C16 1_555 1_555

#END
