
#######################################################################
#
#                 Cambridge Crystallographic Data Centre
#                                CCDC 
#
#######################################################################
#
# If this CIF has been generated from an entry in the Cambridge 
# Structural Database, then it will include bibliographic, chemical, 
# crystal, experimental, refinement or atomic coordinate data resulting 
# from the CCDC's data processing and validation procedures.
#
#######################################################################

data_EVIPII
_chemical_formula_moiety         'C24 H27 N3 O3 S1'
_chemical_name_systematic        
4-((1-(Ethoxycarbonyl)-3-(methylsulfanyl)propylamino)(phenyl)methylidene)-3-methyl-1-phenylpyrazol-5(4H)-one
_symmetry_cell_setting           monoclinic
_symmetry_space_group_name_H-M   'P 21/c'
_symmetry_Int_Tables_number      14
_space_group_name_Hall           '-P 2ybc'
loop_
_symmetry_equiv_pos_site_id
_symmetry_equiv_pos_as_xyz
1 x,y,z
2 x,1/2-y,1/2+z
3 -x,-y,-z
4 -x,1/2+y,1/2-z
_cell_length_a                   13.355(7)
_cell_length_b                   10.261(5)
_cell_length_c                   18.159(10)
_cell_angle_alpha                90
_cell_angle_beta                 107.946(9)
_cell_angle_gamma                90
_cell_volume                     2367.36
_exptl_crystal_colour            'pale yellow'
_exptl_crystal_description       prism
_cell_formula_units_Z            4
_exptl_crystal_recrystallization_method ethanol
loop_
_atom_site_label
_atom_site_type_symbol
_atom_site_fract_x
_atom_site_fract_y
_atom_site_fract_z
S1 S 0.66406(12) 0.70853(16) 0.07812(8)
O1 O 1.13255(18) 0.8872(3) 0.19531(15)
O2 O 0.9546(3) 0.9826(5) 0.3219(2)
O3 O 0.7871(2) 0.9511(3) 0.31050(17)
N1 N 1.1890(2) 1.0462(3) 0.12583(16)
N2 N 1.1430(2) 1.1475(3) 0.07472(16)
N3 N 0.9235(3) 0.9130(4) 0.1720(2)
H1 H 0.985(3) 0.875(4) 0.191(2)
C1 C 1.3466(3) 0.9208(4) 0.1886(2)
H2 H 1.3060 0.8556 0.2008
C2 C 1.4545(4) 0.9076(5) 0.2099(3)
H3 H 1.4861 0.8340 0.2372
C3 C 1.5150(4) 0.9997(7) 0.1918(3)
H4 H 1.5876 0.9892 0.2057
C4 C 1.4684(4) 1.1086(6) 0.1528(3)
H5 H 1.5099 1.1726 0.1404
C5 C 1.3605(3) 1.1249(4) 0.1314(2)
H6 H 1.3296 1.1996 0.1050
C6 C 1.2993(3) 1.0298(4) 0.14958(19)
C7 C 1.0436(3) 1.1477(3) 0.06787(19)
C8 C 1.0180(2) 1.0481(3) 0.11389(18)
C9 C 1.1159(3) 0.9815(4) 0.1506(2)
C10 C 0.9727(3) 1.2431(4) 0.0151(2)
H7 H 0.9510 1.3079 0.0452
H8 H 0.9119 1.1986 -0.0175
H9 H 1.0095 1.2844 -0.0164
C11 C 0.9256(3) 1.0174(3) 0.12983(19)
C12 C 0.8286(2) 1.0977(3) 0.10346(19)
C13 C 0.8199(3) 1.2082(4) 0.1432(3)
H10 H 0.8755 1.2333 0.1859
C14 C 0.7303(3) 1.2826(4) 0.1209(3)
H11 H 0.7249 1.3568 0.1488
C15 C 0.6492(3) 1.2470(4) 0.0575(3)
H12 H 0.5888 1.2981 0.0415
C16 C 0.6565(3) 1.1371(4) 0.0179(2)
H13 H 0.6011 1.1130 -0.0252
C17 C 0.7460(3) 1.0611(4) 0.0413(2)
H14 H 0.7501 0.9847 0.0148
C18 C 0.8432(3) 0.8810(4) 0.2077(2)
H15 H 0.7756 0.9155 0.1753
C19 C 0.8344(3) 0.7334(4) 0.2126(3)
H16 H 0.7874 0.7128 0.2424
H17 H 0.9031 0.6980 0.2400
C20 C 0.7937(4) 0.6679(5) 0.1334(4)
H18 H 0.7976 0.5742 0.1410
H19 H 0.8405 0.6904 0.1037
C21 C 0.5894(4) 0.6333(5) 0.1304(3)
H20 H 0.6069 0.5423 0.1366
H21 H 0.5159 0.6429 0.1028
H22 H 0.6047 0.6734 0.1804
C22 C 0.8699(4) 0.9439(5) 0.2861(3)
C23 C 0.8016(5) 1.0096(8) 0.3858(3)
H23 H 0.8403 0.9498 0.4259
H24 H 0.8428 1.0887 0.3903
C24 C 0.7080(6) 1.0382(8) 0.3964(4)
H25 H 0.6776 1.1127 0.3657
H26 H 0.7187 1.0571 0.4501
H27 H 0.6614 0.9650 0.3811
loop_
_geom_bond_atom_site_label_1
_geom_bond_atom_site_label_2
_geom_bond_site_symmetry_1
_geom_bond_site_symmetry_2
S1 C20 1_555 1_555
O1 C9 1_555 1_555
O2 C22 1_555 1_555
O3 C22 1_555 1_555
N1 N2 1_555 1_555
N2 C7 1_555 1_555
N3 H1 1_555 1_555
C1 H2 1_555 1_555
C2 C1 1_555 1_555
H3 C2 1_555 1_555
C3 C2 1_555 1_555
H4 C3 1_555 1_555
C4 C3 1_555 1_555
H5 C4 1_555 1_555
C5 C4 1_555 1_555
H6 C5 1_555 1_555
C6 N1 1_555 1_555
C7 C8 1_555 1_555
C8 C9 1_555 1_555
C9 N1 1_555 1_555
C10 C7 1_555 1_555
H7 C10 1_555 1_555
H8 C10 1_555 1_555
H9 C10 1_555 1_555
C11 N3 1_555 1_555
C12 C11 1_555 1_555
C13 C12 1_555 1_555
H10 C13 1_555 1_555
C14 C13 1_555 1_555
H11 C14 1_555 1_555
C15 C14 1_555 1_555
H12 C15 1_555 1_555
C16 C15 1_555 1_555
H13 C16 1_555 1_555
C17 C12 1_555 1_555
H14 C17 1_555 1_555
C18 N3 1_555 1_555
H15 C18 1_555 1_555
C19 C18 1_555 1_555
H16 C19 1_555 1_555
H17 C19 1_555 1_555
C20 C19 1_555 1_555
H18 C20 1_555 1_555
H19 C20 1_555 1_555
C21 S1 1_555 1_555
H20 C21 1_555 1_555
H21 C21 1_555 1_555
H22 C21 1_555 1_555
C22 C18 1_555 1_555
C23 O3 1_555 1_555
H23 C23 1_555 1_555
H24 C23 1_555 1_555
C24 C23 1_555 1_555
H25 C24 1_555 1_555
H26 C24 1_555 1_555
H27 C24 1_555 1_555
C1 C6 1_555 1_555
C5 C6 1_555 1_555
C8 C11 1_555 1_555
C16 C17 1_555 1_555

#END
