
#######################################################################
#
#                 Cambridge Crystallographic Data Centre
#                                CCDC 
#
#######################################################################
#
# If this CIF has been generated from an entry in the Cambridge 
# Structural Database, then it will include bibliographic, chemical, 
# crystal, experimental, refinement or atomic coordinate data resulting 
# from the CCDC's data processing and validation procedures.
#
#######################################################################

data_EVIREI
_chemical_compound_source        
'isolated from the endophytic fungus Rhizopycnis vagum'
_chemical_name_common            'Rhizopycnolide A'
_chemical_formula_moiety         'C19 H20 O9'
_chemical_name_systematic        
1,4',7-trihydroxy-3,9-dimethoxy-1-methyl-2,3,3',4'-tetrahydro-1H,5'H,6H-spiro[benzo[c]chromene-4,2'-furan]-5',6-dione
_symmetry_cell_setting           hexagonal
_symmetry_space_group_name_H-M   'P 65'
_symmetry_Int_Tables_number      170
_space_group_name_Hall           'P 65'
loop_
_symmetry_equiv_pos_site_id
_symmetry_equiv_pos_as_xyz
1 x,y,z
2 x-y,x,5/6+z
3 -y,x-y,2/3+z
4 -x,-y,1/2+z
5 -x+y,-x,1/3+z
6 y,-x+y,1/6+z
_cell_length_a                   10.9360(4)
_cell_length_b                   10.9360(4)
_cell_length_c                   25.7965(6)
_cell_angle_alpha                90
_cell_angle_beta                 90
_cell_angle_gamma                120
_cell_volume                     2671.83
_exptl_crystal_colour            colorless
_exptl_crystal_description       prism
_cell_formula_units_Z            6
_exptl_crystal_recrystallization_method Dichloromethane/Methanol
loop_
_atom_site_label
_atom_site_type_symbol
_atom_site_fract_x
_atom_site_fract_y
_atom_site_fract_z
O1 O 0.34768(16) 0.46332(16) 0.03670(6)
O2 O 0.54615(15) 0.46649(15) 0.02027(6)
O3 O 1.00284(16) 0.54919(17) -0.01559(6)
O4 O 0.61608(17) 0.07931(16) 0.02019(6)
H1 H 0.6591 0.0359 0.0275
O5 O 0.81478(15) 0.64629(15) 0.01794(6)
O6 O 0.19521(17) -0.15429(16) 0.10765(6)
O7 O 0.13090(17) 0.23844(18) 0.07493(7)
H2 H 0.1749 0.3199 0.0621
O8 O 0.81902(16) 0.73345(18) -0.11183(6)
H3 H 0.8892 0.7936 -0.1287
C1 C 0.1579(2) 0.0438(2) 0.09353(8)
H4 H 0.0627 -0.0074 0.1050
C2 C 0.3577(2) 0.2583(2) 0.05958(8)
C3 C 0.5879(2) 0.2760(2) 0.04072(8)
C4 C 0.4430(2) 0.1937(2) 0.06086(8)
C5 C 0.2424(2) -0.0181(2) 0.09377(8)
C6 C 0.2157(2) 0.1821(2) 0.07614(8)
C7 C 0.4117(2) 0.3986(2) 0.03935(8)
C8 C 0.8648(2) 0.6774(2) -0.07193(8)
H5 H 0.9602 0.6912 -0.0803
O9 O 0.90878(18) 0.86638(17) -0.01029(7)
C9 C 0.3842(2) 0.0565(2) 0.07857(8)
H6 H 0.4402 0.0126 0.0804
C10 C 0.6295(2) 0.4048(2) 0.02171(8)
C11 C 0.6903(2) 0.2184(2) 0.04175(8)
C12 C 0.7607(2) 0.5216(2) -0.06204(8)
H7 H 0.7881 0.4608 -0.0814
H8 H 0.6639 0.4971 -0.0723
C13 C 0.0482(3) -0.2392(2) 0.11982(9)
H9 H -0.0083 -0.2419 0.0899
H10 H 0.0257 -0.1985 0.1496
H11 H 0.0268 -0.3353 0.1282
C14 C 0.7701(2) 0.5048(2) -0.00281(8)
C15 C 0.7378(2) 0.2157(2) 0.09761(9)
H12 H 0.6548 0.1595 0.1194
H13 H 0.7905 0.3123 0.1111
H14 H 0.7986 0.1735 0.0979
C16 C 0.8683(2) 0.7446(2) -0.01959(9)
C17 C 0.8183(2) 0.3076(2) 0.00661(9)
H15 H 0.8924 0.2831 0.0139
H16 H 0.7894 0.2836 -0.0300
C18 C 0.8797(2) 0.4654(2) 0.01422(9)
H17 H 0.9019 0.4888 0.0518
C19 C 1.1270(2) 0.5597(3) 0.00700(10)
H18 H 1.2099 0.6261 -0.0131
H19 H 1.1196 0.4666 0.0069
H20 H 1.1367 0.5935 0.0428
loop_
_geom_bond_atom_site_label_1
_geom_bond_atom_site_label_2
_geom_bond_site_symmetry_1
_geom_bond_site_symmetry_2
O1 C7 1_555 1_555
O2 C7 1_555 1_555
O3 C18 1_555 1_555
O4 H1 1_555 1_555
O5 C14 1_555 1_555
O6 C5 1_555 1_555
O7 H2 1_555 1_555
O8 H3 1_555 1_555
C1 H4 1_555 1_555
C2 C4 1_555 1_555
C3 C4 1_555 1_555
C4 C9 1_555 1_555
C5 C1 1_555 1_555
C6 O7 1_555 1_555
C7 C2 1_555 1_555
C8 O8 1_555 1_555
H5 C8 1_555 1_555
O9 C16 1_555 1_555
C9 C5 1_555 1_555
H6 C9 1_555 1_555
C10 O2 1_555 1_555
C11 O4 1_555 1_555
C12 C8 1_555 1_555
H7 C12 1_555 1_555
H8 C12 1_555 1_555
C13 O6 1_555 1_555
H9 C13 1_555 1_555
H10 C13 1_555 1_555
H11 C13 1_555 1_555
C14 C10 1_555 1_555
C15 C11 1_555 1_555
H12 C15 1_555 1_555
H13 C15 1_555 1_555
H14 C15 1_555 1_555
C16 O5 1_555 1_555
C17 C11 1_555 1_555
H15 C17 1_555 1_555
H16 C17 1_555 1_555
C18 C14 1_555 1_555
H17 C18 1_555 1_555
C19 O3 1_555 1_555
H18 C19 1_555 1_555
H19 C19 1_555 1_555
H20 C19 1_555 1_555
C1 C6 1_555 1_555
C2 C6 1_555 1_555
C3 C10 1_555 1_555
C3 C11 1_555 1_555
C8 C16 1_555 1_555
C12 C14 1_555 1_555
C17 C18 1_555 1_555

#END
