
#######################################################################
#
#                 Cambridge Crystallographic Data Centre
#                                CCDC 
#
#######################################################################
#
# If this CIF has been generated from an entry in the Cambridge 
# Structural Database, then it will include bibliographic, chemical, 
# crystal, experimental, refinement or atomic coordinate data resulting 
# from the CCDC's data processing and validation procedures.
#
#######################################################################

data_EVISAF
_chemical_formula_moiety         'C24 H26 F3 N2 O1 1+,Cl1 O4 1-'
_chemical_name_systematic        
'3-(dimethylamino)-N,N-diethyl-7-(trifluoromethyl)-5,6-dihydro-10H-benzo[c]xanthen-10-iminium perchlorate'
_symmetry_cell_setting           monoclinic
_symmetry_space_group_name_H-M   'C 2/c'
_symmetry_Int_Tables_number      15
_space_group_name_Hall           '-C 2yn'
loop_
_symmetry_equiv_pos_site_id
_symmetry_equiv_pos_as_xyz
1 x,y,z
2 -x,y,1/2-z
3 1/2+x,1/2+y,z
4 1/2-x,1/2+y,1/2-z
5 -x,-y,-z
6 x,-y,1/2+z
7 1/2-x,1/2-y,-z
8 1/2+x,1/2-y,1/2+z
_cell_length_a                   20.165(4)
_cell_length_b                   7.1874(14)
_cell_length_c                   34.207(7)
_cell_angle_alpha                90
_cell_angle_beta                 104.89(3)
_cell_angle_gamma                90
_cell_volume                     4791.28
_exptl_crystal_colour            black
_exptl_crystal_description       rod
_cell_formula_units_Z            8
loop_
_atom_site_label
_atom_site_type_symbol
_atom_site_fract_x
_atom_site_fract_y
_atom_site_fract_z
F1 F 0.64434(9) 0.9192(2) 0.36378(6)
F2 F 0.61167(10) 0.6383(3) 0.35262(6)
F3 F 0.56881(10) 0.8494(4) 0.31002(6)
O1 O 0.79397(8) 0.7068(2) 0.28128(5)
N1 N 0.95541(11) 0.6167(3) 0.40683(6)
N2 N 0.71347(12) 0.7321(3) 0.09129(6)
C1 C 1.03545(16) 0.7868(5) 0.37456(10)
H1 H 1.0668 0.7666 0.3581
H2 H 1.0584 0.8531 0.3986
H3 H 0.9970 0.8584 0.3597
C2 C 1.01029(14) 0.5998(4) 0.38621(8)
H4 H 0.9939 0.5257 0.3620
H5 H 1.0486 0.5342 0.4037
C3 C 0.9965(2) 0.7975(5) 0.47108(9)
H6 H 0.9592 0.8838 0.4625
H7 H 1.0359 0.8434 0.4633
H8 H 1.0074 0.7839 0.5000
C4 C 0.97581(15) 0.6106(4) 0.45131(7)
H9 H 1.0140 0.5251 0.4599
H10 H 0.9379 0.5619 0.4608
C5 C 0.89047(12) 0.6599(3) 0.38559(7)
C6 C 0.83660(14) 0.6911(4) 0.40497(7)
H11 H 0.8468 0.6887 0.4331
C7 C 0.77076(13) 0.7242(3) 0.38353(7)
H12 H 0.7374 0.7439 0.3975
C8 C 0.75132(12) 0.7299(3) 0.34063(7)
C9 C 0.80613(12) 0.7024(3) 0.32249(7)
C10 C 0.87316(12) 0.6719(3) 0.34304(7)
H13 H 0.9068 0.6594 0.3291
C11 C 0.68428(12) 0.7540(3) 0.31449(8)
C12 C 0.67197(12) 0.7398(3) 0.27271(7)
C13 C 0.73031(11) 0.7197(3) 0.25706(7)
C14 C 0.72718(12) 0.7202(3) 0.21515(7)
C15 C 0.66325(12) 0.6886(3) 0.18661(7)
C16 C 0.60297(12) 0.6447(4) 0.20338(8)
H14 H 0.6033 0.5130 0.2096
H15 H 0.5609 0.6713 0.1830
C17 C 0.60392(12) 0.7562(4) 0.24135(8)
H16 H 0.5950 0.8861 0.2342
H17 H 0.5676 0.7122 0.2528
C18 C 0.78605(12) 0.7518(3) 0.20100(7)
H18 H 0.8285 0.7678 0.2194
C19 C 0.78130(13) 0.7590(3) 0.16043(7)
H19 H 0.8203 0.7852 0.1517
C20 C 0.71780(13) 0.7270(3) 0.13138(7)
C21 C 0.65935(13) 0.6893(3) 0.14615(8)
H20 H 0.6175 0.6646 0.1278
C22 C 0.77293(16) 0.7738(5) 0.07565(8)
H21 H 0.7947 0.8854 0.0881
H22 H 0.7582 0.7908 0.0469
H23 H 0.8049 0.6724 0.0817
C23 C 0.64962(17) 0.6934(5) 0.06134(9)
H24 H 0.6364 0.5666 0.0639
H25 H 0.6558 0.7130 0.0347
H26 H 0.6144 0.7750 0.0655
C24 C 0.62644(13) 0.7913(4) 0.33453(8)
Cl1 Cl 0.5000 0.28789(12) 0.2500
O2 O 0.54601(13) 0.4031(4) 0.27881(7)
O3 O 0.46189(14) 0.1769(4) 0.27089(8)
O2A O 0.45399(13) 0.4031(4) 0.22119(7)
O3A O 0.53811(14) 0.1769(4) 0.22911(8)
Cl2? Cl 0.81127(11) 0.7149(3) 0.51678(5)
O4? O 0.7880(6) 0.8396(14) 0.4837(3)
O5? O 0.8520(3) 0.5760(8) 0.50865(16)
O6? O 0.8580(6) 0.7933(17) 0.5507(3)
O7? O 0.7527(5) 0.6441(19) 0.5273(4)
loop_
_geom_bond_atom_site_label_1
_geom_bond_atom_site_label_2
_geom_bond_site_symmetry_1
_geom_bond_site_symmetry_2
F1 C24 1_555 1_555
F2 C24 1_555 1_555
F3 C24 1_555 1_555
O1 C9 1_555 1_555
N1 C2 1_555 1_555
N2 C20 1_555 1_555
C1 H1 1_555 1_555
H2 C1 1_555 1_555
H3 C1 1_555 1_555
C2 C1 1_555 1_555
H4 C2 1_555 1_555
H5 C2 1_555 1_555
C3 H6 1_555 1_555
H7 C3 1_555 1_555
H8 C3 1_555 1_555
C4 N1 1_555 1_555
H9 C4 1_555 1_555
H10 C4 1_555 1_555
C5 N1 1_555 1_555
C6 C5 1_555 1_555
H11 C6 1_555 1_555
C7 C6 1_555 1_555
H12 C7 1_555 1_555
C8 C7 1_555 1_555
C9 C8 1_555 1_555
C10 C5 1_555 1_555
H13 C10 1_555 1_555
C11 C8 1_555 1_555
C12 C11 1_555 1_555
C13 O1 1_555 1_555
C14 C13 1_555 1_555
C15 C14 1_555 1_555
C16 C15 1_555 1_555
H14 C16 1_555 1_555
H15 C16 1_555 1_555
C17 C12 1_555 1_555
H16 C17 1_555 1_555
H17 C17 1_555 1_555
C18 C14 1_555 1_555
H18 C18 1_555 1_555
C19 C18 1_555 1_555
H19 C19 1_555 1_555
C20 C19 1_555 1_555
C21 C15 1_555 1_555
H20 C21 1_555 1_555
C22 N2 1_555 1_555
H21 C22 1_555 1_555
H22 C22 1_555 1_555
H23 C22 1_555 1_555
C23 N2 1_555 1_555
H24 C23 1_555 1_555
H25 C23 1_555 1_555
H26 C23 1_555 1_555
C24 C11 1_555 1_555
Cl1 O2 1_555 1_555
O3 Cl1 1_555 1_555
O2A Cl1 1_555 1_555
O3A Cl1 1_555 1_555
C3 C4 1_555 1_555
C9 C10 1_555 1_555
C12 C13 1_555 1_555
C16 C17 1_555 1_555
C20 C21 1_555 1_555

#END
