
#######################################################################
#
#                 Cambridge Crystallographic Data Centre
#                                CCDC 
#
#######################################################################
#
# If this CIF has been generated from an entry in the Cambridge 
# Structural Database, then it will include bibliographic, chemical, 
# crystal, experimental, refinement or atomic coordinate data resulting 
# from the CCDC's data processing and validation procedures.
#
#######################################################################

data_EVITOS01
_chemical_compound_source        'root of Aconitum sinomontanum Nakai'
_chemical_name_common            
'(1S,4S,5S,7S,8S,9S,10S,11S,13R,14S,16S,17R)-Lappaconitine hydrobromide monohydrate'
_chemical_formula_moiety         'C32 H45 N2 O8 1+,Br1 1-,H2 O1'
_chemical_name_systematic        
'20-Ethyl-8,9-dihydroxy-1,14,16-trimethoxyaconitan-20-ium-4-yl 2-acetamidobenzoate bromide monohydrate'
_chemical_properties_biological  'antinociceptive activity'
_symmetry_cell_setting           monoclinic
_symmetry_space_group_name_H-M   'P 21'
_symmetry_Int_Tables_number      4
_space_group_name_Hall           'P 2yb'
loop_
_symmetry_equiv_pos_site_id
_symmetry_equiv_pos_as_xyz
1 x,y,z
2 -x,1/2+y,-z
_cell_length_a                   10.619(2)
_cell_length_b                   12.196(3)
_cell_length_c                   12.282(2)
_cell_angle_alpha                90
_cell_angle_beta                 90.87(1)
_cell_angle_gamma                90
_cell_volume                     1590.45
_cell_formula_units_Z            2
_exptl_crystal_recrystallization_method 'methanol/distilled water'
loop_
_atom_site_label
_atom_site_type_symbol
_atom_site_fract_x
_atom_site_fract_y
_atom_site_fract_z
Br1 Br 0.51382(4) 0.60217(3) 0.60560(3)
O1 O 0.43323(18) 0.03792(15) 0.69189(15)
O2 O 0.73861(18) 0.33775(15) 0.69023(14)
O3 O 0.77136(19) 0.29713(18) 0.51465(16)
O4 O 1.0095(3) 0.5460(2) 0.2891(2)
O5 O 0.3346(2) 0.46231(15) 0.96903(14)
H1 H 0.3359 0.4616 1.0358
O6 O 0.49558(18) 0.32683(14) 1.05554(15)
H2 H 0.5400 0.2831 1.0893
O7 O 0.24815(18) 0.30439(15) 1.14938(14)
O8 O 0.0150(2) 0.2228(2) 1.00363(19)
N1 N 0.4067(2) 0.2461(2) 0.64050(19)
N2 N 0.9305(3) 0.4197(2) 0.4079(2)
C1 C 0.5131(3) 0.0640(2) 0.7835(2)
H3 H 0.4964 0.0117 0.8421
C2 C 0.6518(3) 0.0574(2) 0.7551(2)
H4 H 0.7022 0.0684 0.8207
H5 H 0.6699 -0.0154 0.7277
C3 C 0.6896(3) 0.1411(2) 0.6710(2)
H6 H 0.6597 0.1174 0.5998
H7 H 0.7807 0.1453 0.6691
C4 C 0.6363(3) 0.2560(2) 0.6950(2)
C5 C 0.5881(3) 0.2658(2) 0.8106(2)
H8 H 0.6556 0.2527 0.8643
C6 C 0.5262(3) 0.3785(2) 0.8279(2)
H9 H 0.5537 0.4307 0.7737
H10 H 0.5464 0.4070 0.8998
C7 C 0.3830(3) 0.3555(2) 0.8156(2)
H11 H 0.3426 0.4112 0.7694
C8 C 0.3215(3) 0.3526(2) 0.9290(2)
C9 C 0.3943(3) 0.2705(2) 1.0052(2)
C10 C 0.4354(3) 0.1673(2) 0.9417(2)
H12 H 0.5061 0.1348 0.9826
C11 C 0.4790(3) 0.1825(2) 0.8239(2)
C12 C 0.3228(2) 0.0880(3) 0.9523(2)
H13 H 0.2892 0.0693 0.8809
H14 H 0.3494 0.0210 0.9886
C13 C 0.2229(3) 0.1461(2) 1.0190(2)
H15 H 0.1773 0.0936 1.0641
C14 C 0.3065(3) 0.2206(2) 1.0897(2)
H16 H 0.3563 0.1750 1.1399
C15 C 0.1788(3) 0.3276(2) 0.9220(2)
H17 H 0.1369 0.3780 0.9706
H18 H 0.1503 0.3451 0.8486
C16 C 0.1317(3) 0.2123(3) 0.9481(2)
H19 H 0.1167 0.1727 0.8797
C17 C 0.3761(2) 0.2431(2) 0.76104(19)
H20 H 0.2939 0.2089 0.7726
C18 C 0.5331(3) 0.2925(2) 0.6143(2)
H21 H 0.5280 0.3719 0.6147
H22 H 0.5559 0.2697 0.5416
C19 C 0.4399(3) -0.0724(3) 0.6584(3)
H23 H 0.5188 -0.0852 0.6235
H24 H 0.3720 -0.0878 0.6082
H25 H 0.4334 -0.1195 0.7208
C20 C 0.8009(3) 0.3493(2) 0.5956(3)
C21 C 0.9051(3) 0.4293(2) 0.6037(2)
C22 C 0.9680(3) 0.4625(3) 0.5092(3)
C23 C 1.0688(3) 0.5358(3) 0.5221(3)
H26 H 1.1109 0.5598 0.4607
C24 C 1.1068(3) 0.5730(3) 0.6215(3)
H27 H 1.1745 0.6211 0.6270
C25 C 1.0462(3) 0.5401(3) 0.7142(3)
H28 H 1.0729 0.5651 0.7822
C26 C 0.9443(3) 0.4686(3) 0.7045(3)
H29 H 0.9018 0.4470 0.7666
C27 C 0.9515(4) 0.4620(4) 0.3055(3)
C28 C 0.8969(4) 0.3941(3) 0.2139(3)
H30 H 0.8547 0.3314 0.2433
H31 H 0.9633 0.3702 0.1674
H32 H 0.8378 0.4375 0.1725
C29 C 0.2012(3) 0.2670(3) 1.2495(2)
H33 H 0.1316 0.2183 1.2362
H34 H 0.1735 0.3285 1.2917
H35 H 0.2665 0.2287 1.2888
C30 C -0.0731(7) 0.1417(6) 0.9767(8)
H36 H -0.1487 0.1536 1.0169
H37 H -0.0390 0.0709 0.9946
H38 H -0.0920 0.1449 0.9001
C31 C 0.3067(3) 0.2971(2) 0.5698(2)
H39 H 0.2884 0.3700 0.5969
H40 H 0.3381 0.3046 0.4964
C32 C 0.1877(3) 0.2316(3) 0.5663(3)
H41 H 0.2069 0.1566 0.5496
H42 H 0.1320 0.2608 0.5112
H43 H 0.1478 0.2354 0.6358
H44 H 0.412(3) 0.170(3) 0.627(2)
H45 H 0.862(4) 0.361(3) 0.412(3)
O9 O 0.6412(3) 0.1666(2) 1.1714(3)
H46 H 0.606(3) 0.163(3) 1.2298(15)
H47 H 0.663(4) 0.117(2) 1.132(3)
H48? H 0.9159 0.4280 0.1455
H49? H 0.8072 0.3892 0.2214
H50? H 0.9327 0.3219 0.2163
C33? C -0.0994(6) 0.2349(10) 0.9490(7)
H51? H -0.1046 0.1830 0.8904
H52? H -0.1058 0.3079 0.9203
H53? H -0.1669 0.2222 0.9985
loop_
_geom_bond_atom_site_label_1
_geom_bond_atom_site_label_2
_geom_bond_site_symmetry_1
_geom_bond_site_symmetry_2
O1 C1 1_555 1_555
O2 C4 1_555 1_555
O3 C20 1_555 1_555
O4 C27 1_555 1_555
O5 H1 1_555 1_555
O6 H2 1_555 1_555
O7 C14 1_555 1_555
O8 C16 1_555 1_555
N1 C17 1_555 1_555
N2 C22 1_555 1_555
C1 H3 1_555 1_555
C2 C1 1_555 1_555
H4 C2 1_555 1_555
H5 C2 1_555 1_555
C3 C2 1_555 1_555
H6 C3 1_555 1_555
H7 C3 1_555 1_555
C4 C3 1_555 1_555
C5 C4 1_555 1_555
H8 C5 1_555 1_555
C6 C5 1_555 1_555
H9 C6 1_555 1_555
H10 C6 1_555 1_555
C7 C6 1_555 1_555
H11 C7 1_555 1_555
C8 O5 1_555 1_555
C9 O6 1_555 1_555
C10 C9 1_555 1_555
H12 C10 1_555 1_555
C11 C1 1_555 1_555
C12 C10 1_555 1_555
H13 C12 1_555 1_555
H14 C12 1_555 1_555
C13 C12 1_555 1_555
H15 C13 1_555 1_555
C14 C9 1_555 1_555
H16 C14 1_555 1_555
C15 C8 1_555 1_555
H17 C15 1_555 1_555
H18 C15 1_555 1_555
C16 C13 1_555 1_555
H19 C16 1_555 1_555
C17 C7 1_555 1_555
H20 C17 1_555 1_555
C18 N1 1_555 1_555
H21 C18 1_555 1_555
H22 C18 1_555 1_555
C19 O1 1_555 1_555
H23 C19 1_555 1_555
H24 C19 1_555 1_555
H25 C19 1_555 1_555
C20 O2 1_555 1_555
C21 C20 1_555 1_555
C22 C21 1_555 1_555
C23 C22 1_555 1_555
H26 C23 1_555 1_555
C24 C23 1_555 1_555
H27 C24 1_555 1_555
C25 C24 1_555 1_555
H28 C25 1_555 1_555
C26 C21 1_555 1_555
H29 C26 1_555 1_555
C27 N2 1_555 1_555
C28 C27 1_555 1_555
H30 C28 1_555 1_555
H31 C28 1_555 1_555
H32 C28 1_555 1_555
C29 O7 1_555 1_555
H33 C29 1_555 1_555
H34 C29 1_555 1_555
H35 C29 1_555 1_555
C30 O8 1_555 1_555
H36 C30 1_555 1_555
H37 C30 1_555 1_555
H38 C30 1_555 1_555
C31 N1 1_555 1_555
H39 C31 1_555 1_555
H40 C31 1_555 1_555
C32 C31 1_555 1_555
H41 C32 1_555 1_555
H42 C32 1_555 1_555
H43 C32 1_555 1_555
H44 N1 1_555 1_555
H45 N2 1_555 1_555
O9 H46 1_555 1_555
H47 O9 1_555 1_555
C4 C18 1_555 1_555
C5 C11 1_555 1_555
C7 C8 1_555 1_555
C8 C9 1_555 1_555
C10 C11 1_555 1_555
C11 C17 1_555 1_555
C13 C14 1_555 1_555
C15 C16 1_555 1_555
C25 C26 1_555 1_555

#END
