
#######################################################################
#
#                 Cambridge Crystallographic Data Centre
#                                CCDC 
#
#######################################################################
#
# If this CIF has been generated from an entry in the Cambridge 
# Structural Database, then it will include bibliographic, chemical, 
# crystal, experimental, refinement or atomic coordinate data resulting 
# from the CCDC's data processing and validation procedures.
#
#######################################################################

data_EVITAG
_chemical_compound_source        
'isolated from the mycelial extract of the sponge-derived fungus Nigrospora oryzae PF18'
_chemical_name_common            'scopularide A monohydrate'
_chemical_formula_moiety         'C36 H57 N5 O7,H2 O1'
_chemical_name_systematic        
'3-benzyl-9-isobutyl-12-isopropyl-6-methyl-19-(octan-2-yl)-1-oxa-4,7,10,13,16-pentaazacyclononadecane-2,5,8,11,14,17-hexone monohydrate'
_symmetry_cell_setting           monoclinic
_symmetry_space_group_name_H-M   'C 2'
_symmetry_Int_Tables_number      5
_space_group_name_Hall           'C 2y'
loop_
_symmetry_equiv_pos_site_id
_symmetry_equiv_pos_as_xyz
1 x,y,z
2 -x,y,-z
3 1/2+x,1/2+y,z
4 1/2-x,1/2+y,-z
_cell_length_a                   26.172(2)
_cell_length_b                   9.2265(6)
_cell_length_c                   16.7839(13)
_cell_angle_alpha                90
_cell_angle_beta                 107.326(5)
_cell_angle_gamma                90
_cell_volume                     3869.01
_exptl_crystal_colour            white
_exptl_crystal_description       plate
_chemical_melting_point          '225 deg.C'
_cell_formula_units_Z            4
loop_
_atom_site_label
_atom_site_type_symbol
_atom_site_fract_x
_atom_site_fract_y
_atom_site_fract_z
O1 O 0.29440(13) 1.2619(4) -0.2862(2)
O2 O 0.34275(17) 1.0585(4) -0.2752(3)
O3 O 0.35129(14) 1.3382(4) -0.0598(2)
O4 O 0.44990(13) 1.0631(4) 0.1760(2)
O5 O 0.30911(13) 0.9907(3) 0.1713(2)
O6 O 0.25414(14) 1.2704(3) 0.0068(2)
O7 O 0.21401(14) 0.9902(3) -0.2294(2)
N1 N 0.40074(16) 1.2004(5) -0.1209(3)
H1 H 0.4257 1.1332 -0.1122
N2 N 0.38098(16) 1.1789(4) 0.0829(2)
H2 H 0.3552 1.2432 0.0762
N3 N 0.33223(15) 1.2236(4) 0.2043(2)
H3 H 0.3217 1.3139 0.2059
N4 N 0.21109(15) 1.1105(4) 0.0657(2)
H4 H 0.1871 1.0410 0.0578
N5 N 0.20215(15) 1.1807(4) -0.1517(2)
H5 H 0.2004 1.2756 -0.1477
C1 C 0.3386(2) 1.1840(6) -0.2586(3)
C2 C 0.38388(19) 1.2733(6) -0.2017(3)
H6 H 0.3698 1.3714 -0.1942
C3 C 0.4301(2) 1.2911(6) -0.2384(3)
H7 H 0.4156 1.3151 -0.2984
H8 H 0.4495 1.1978 -0.2339
C4 C 0.4696(2) 1.4091(6) -0.1952(4)
C5 C 0.5031(2) 1.3907(6) -0.1158(4)
H9 H 0.5024 1.3016 -0.0878
C6 C 0.5383(2) 1.5000(7) -0.0751(5)
H10 H 0.5612 1.4849 -0.0200
C7 C 0.5397(3) 1.6300(7) -0.1152(5)
H11 H 0.5633 1.7051 -0.0879
C8 C 0.5066(3) 1.6494(7) -0.1952(5)
H12 H 0.5077 1.7380 -0.2235
C9 C 0.4715(2) 1.5406(7) -0.2349(4)
H13 H 0.4485 1.5562 -0.2899
C10 C 0.37954(18) 1.2325(5) -0.0597(3)
C11 C 0.39210(18) 1.1207(5) 0.0104(3)
H14 H 0.4311 1.0966 0.0256
C12 C 0.3597(2) 0.9811(6) -0.0198(4)
H15 H 0.3653 0.9133 0.0269
H16 H 0.3718 0.9363 -0.0641
H17 H 0.3216 1.0049 -0.0416
C13 C 0.40875(17) 1.1380(5) 0.1608(3)
C14 C 0.38848(18) 1.1898(5) 0.2320(3)
H18 H 0.3940 1.1097 0.2739
C15 C 0.4205(2) 1.3219(5) 0.2754(3)
H19 H 0.4590 1.2968 0.2919
H20 H 0.4147 1.4018 0.2343
C16 C 0.4072(2) 1.3775(6) 0.3522(3)
H21 H 0.3686 1.4060 0.3346
C17 C 0.4152(3) 1.2625(8) 0.4203(4)
H22 H 0.3904 1.1819 0.3997
H23 H 0.4083 1.3052 0.4696
H24 H 0.4521 1.2266 0.4354
C18 C 0.4401(3) 1.5127(7) 0.3850(4)
H25 H 0.4783 1.4879 0.4025
H26 H 0.4302 1.5512 0.4328
H27 H 0.4331 1.5860 0.3408
C19 C 0.29554(19) 1.1187(5) 0.1759(3)
C20 C 0.23717(18) 1.1645(5) 0.1496(3)
H28 H 0.2356 1.2728 0.1483
C21 C 0.20911(19) 1.1103(5) 0.2115(3)
H29 H 0.2065 1.0023 0.2069
C22 C 0.1524(2) 1.1716(6) 0.1907(3)
H30 H 0.1540 1.2775 0.1948
H31 H 0.1347 1.1331 0.2302
H32 H 0.1320 1.1434 0.1338
C23 C 0.2406(2) 1.1484(6) 0.3007(3)
H33 H 0.2753 1.0990 0.3156
H34 H 0.2205 1.1173 0.3386
H35 H 0.2462 1.2534 0.3055
C24 C 0.22392(17) 1.1671(5) 0.0010(3)
C25 C 0.19847(19) 1.0916(5) -0.0825(3)
H36 H 0.2168 0.9980 -0.0835
H37 H 0.1604 1.0709 -0.0885
C26 C 0.20801(17) 1.1232(5) -0.2211(3)
C27 C 0.20386(19) 1.2237(5) -0.2940(3)
H38 H 0.1677 1.2144 -0.3344
H39 H 0.2081 1.3249 -0.2735
C28 C 0.24521(19) 1.1933(5) -0.3384(3)
H40 H 0.2507 1.0864 -0.3413
C29 C 0.2316(2) 1.2591(5) -0.4262(3)
H41 H 0.2181 1.3601 -0.4241
C30 C 0.2802(2) 1.2646(7) -0.4589(3)
H42 H 0.3070 1.3309 -0.4243
H43 H 0.2691 1.2991 -0.5168
H44 H 0.2956 1.1674 -0.4567
C31 C 0.1873(2) 1.1696(6) -0.4870(3)
H45 H 0.1638 1.1285 -0.4562
H46 H 0.2040 1.0877 -0.5081
C32 C 0.1527(2) 1.2568(8) -0.5620(4)
H47 H 0.1758 1.3263 -0.5801
H48 H 0.1372 1.1894 -0.6089
C33 C 0.1080(3) 1.3387(8) -0.5432(4)
H49 H 0.1231 1.4004 -0.4934
H50 H 0.0832 1.2687 -0.5296
C34 C 0.0765(3) 1.4345(9) -0.6158(5)
H51 H 0.1003 1.5134 -0.6233
H52 H 0.0669 1.3754 -0.6674
C35 C 0.0266(3) 1.5007(8) -0.6063(5)
H53 H 0.0149 1.5790 -0.6482
H54 H 0.0350 1.5457 -0.5504
C36 C -0.0191(3) 1.3963(7) -0.6164(4)
H55 H -0.0357 1.3758 -0.6758
H56 H -0.0457 1.4391 -0.5930
H57 H -0.0056 1.3059 -0.5870
O8 O 0.47641(17) 0.9638(4) -0.0981(3)
H58 H 0.5015 0.9875 -0.1180
H59 H 0.4799 0.8753 -0.0835
loop_
_geom_bond_atom_site_label_1
_geom_bond_atom_site_label_2
_geom_bond_site_symmetry_1
_geom_bond_site_symmetry_2
O1 C1 1_555 1_555
O2 C1 1_555 1_555
O3 C10 1_555 1_555
O4 C13 1_555 1_555
O5 C19 1_555 1_555
O6 C24 1_555 1_555
O7 C26 1_555 1_555
N1 H1 1_555 1_555
N2 H2 1_555 1_555
N3 H3 1_555 1_555
N4 H4 1_555 1_555
N5 H5 1_555 1_555
C1 C2 1_555 1_555
C2 N1 1_555 1_555
H6 C2 1_555 1_555
C3 C2 1_555 1_555
H7 C3 1_555 1_555
H8 C3 1_555 1_555
C4 C3 1_555 1_555
C5 C4 1_555 1_555
H9 C5 1_555 1_555
C6 C5 1_555 1_555
H10 C6 1_555 1_555
C7 C6 1_555 1_555
H11 C7 1_555 1_555
C8 C7 1_555 1_555
H12 C8 1_555 1_555
C9 C4 1_555 1_555
H13 C9 1_555 1_555
C10 N1 1_555 1_555
C11 N2 1_555 1_555
H14 C11 1_555 1_555
C12 C11 1_555 1_555
H15 C12 1_555 1_555
H16 C12 1_555 1_555
H17 C12 1_555 1_555
C13 N2 1_555 1_555
C14 N3 1_555 1_555
H18 C14 1_555 1_555
C15 C14 1_555 1_555
H19 C15 1_555 1_555
H20 C15 1_555 1_555
C16 C15 1_555 1_555
H21 C16 1_555 1_555
C17 C16 1_555 1_555
H22 C17 1_555 1_555
H23 C17 1_555 1_555
H24 C17 1_555 1_555
C18 C16 1_555 1_555
H25 C18 1_555 1_555
H26 C18 1_555 1_555
H27 C18 1_555 1_555
C19 N3 1_555 1_555
C20 N4 1_555 1_555
H28 C20 1_555 1_555
C21 C20 1_555 1_555
H29 C21 1_555 1_555
C22 C21 1_555 1_555
H30 C22 1_555 1_555
H31 C22 1_555 1_555
H32 C22 1_555 1_555
C23 C21 1_555 1_555
H33 C23 1_555 1_555
H34 C23 1_555 1_555
H35 C23 1_555 1_555
C24 N4 1_555 1_555
C25 N5 1_555 1_555
H36 C25 1_555 1_555
H37 C25 1_555 1_555
C26 N5 1_555 1_555
C27 C26 1_555 1_555
H38 C27 1_555 1_555
H39 C27 1_555 1_555
C28 O1 1_555 1_555
H40 C28 1_555 1_555
C29 C28 1_555 1_555
H41 C29 1_555 1_555
C30 C29 1_555 1_555
H42 C30 1_555 1_555
H43 C30 1_555 1_555
H44 C30 1_555 1_555
C31 C29 1_555 1_555
H45 C31 1_555 1_555
H46 C31 1_555 1_555
C32 C31 1_555 1_555
H47 C32 1_555 1_555
H48 C32 1_555 1_555
C33 C32 1_555 1_555
H49 C33 1_555 1_555
H50 C33 1_555 1_555
C34 C33 1_555 1_555
H51 C34 1_555 1_555
H52 C34 1_555 1_555
C35 C34 1_555 1_555
H53 C35 1_555 1_555
H54 C35 1_555 1_555
C36 C35 1_555 1_555
H55 C36 1_555 1_555
H56 C36 1_555 1_555
H57 C36 1_555 1_555
O8 H58 1_555 1_555
H59 O8 1_555 1_555
C8 C9 1_555 1_555
C10 C11 1_555 1_555
C13 C14 1_555 1_555
C19 C20 1_555 1_555
C24 C25 1_555 1_555
C27 C28 1_555 1_555

#END
