
#######################################################################
#
#                 Cambridge Crystallographic Data Centre
#                                CCDC 
#
#######################################################################
#
# If this CIF has been generated from an entry in the Cambridge 
# Structural Database, then it will include bibliographic, chemical, 
# crystal, experimental, refinement or atomic coordinate data resulting 
# from the CCDC's data processing and validation procedures.
#
#######################################################################

data_EVITEJ
_chemical_formula_moiety         'C9 H9 Cl1 N2'
_chemical_name_systematic        2-Chloromethyl-1-methyl-1,3-benzimidazole
_symmetry_cell_setting           triclinic
_symmetry_space_group_name_H-M   'P -1'
_symmetry_Int_Tables_number      2
_space_group_name_Hall           '-P 1'
loop_
_symmetry_equiv_pos_site_id
_symmetry_equiv_pos_as_xyz
1 x,y,z
2 -x,-y,-z
_cell_length_a                   6.607(2)
_cell_length_b                   8.168(2)
_cell_length_c                   8.925(3)
_cell_angle_alpha                84.566(3)
_cell_angle_beta                 79.682(4)
_cell_angle_gamma                68.134(4)
_cell_volume                     439.56
_exptl_crystal_colour            white
_exptl_crystal_description       block
_cell_formula_units_Z            2
loop_
_atom_site_label
_atom_site_type_symbol
_atom_site_fract_x
_atom_site_fract_y
_atom_site_fract_z
C1 C 0.2259(4) 0.4372(3) 0.6995(2)
H1 H 0.3424 0.4781 0.7109
H2 H 0.0985 0.5393 0.6790
C2 C 0.1665(3) 0.3458(2) 0.8432(2)
C3 C -0.2214(4) 0.3954(3) 0.8004(3)
H3 H -0.3405 0.3638 0.8563
H4 H -0.1788 0.3444 0.7017
H5 H -0.2683 0.5215 0.7888
C4 C -0.0294(3) 0.2393(2) 1.0212(2)
C5 C -0.1859(4) 0.1843(3) 1.1144(3)
H6 H -0.3242 0.2069 1.0885
C6 C -0.1250(4) 0.0947(3) 1.2471(3)
H7 H -0.2258 0.0574 1.3137
C7 C 0.0842(4) 0.0581(3) 1.2848(3)
H8 H 0.1198 -0.0041 1.3751
C8 C 0.2384(4) 0.1119(3) 1.1915(2)
H9 H 0.3773 0.0871 1.2173
C9 C 0.1803(3) 0.2046(2) 1.0572(2)
Cl1 Cl 0.31643(17) 0.29247(10) 0.54306(8)
N1 N 0.3008(3) 0.2749(2) 0.94299(19)
N2 N -0.0342(3) 0.3294(2) 0.88264(18)
H10? H -0.1846 0.4560 0.7082
H11? H -0.3463 0.4754 0.8628
H12? H -0.2568 0.2983 0.7757
loop_
_geom_bond_atom_site_label_1
_geom_bond_atom_site_label_2
_geom_bond_site_symmetry_1
_geom_bond_site_symmetry_2
C1 H1 1_555 1_555
H2 C1 1_555 1_555
C2 C1 1_555 1_555
C3 H3 1_555 1_555
H4 C3 1_555 1_555
H5 C3 1_555 1_555
C4 C5 1_555 1_555
C5 H6 1_555 1_555
C6 C5 1_555 1_555
H7 C6 1_555 1_555
C7 C6 1_555 1_555
H8 C7 1_555 1_555
C8 C7 1_555 1_555
H9 C8 1_555 1_555
C9 C4 1_555 1_555
Cl1 C1 1_555 1_555
N1 C2 1_555 1_555
N2 C2 1_555 1_555
C3 N2 1_555 1_555
C4 N2 1_555 1_555
C8 C9 1_555 1_555
C9 N1 1_555 1_555

#END
