
#######################################################################
#
#                 Cambridge Crystallographic Data Centre
#                                CCDC 
#
#######################################################################
#
# If this CIF has been generated from an entry in the Cambridge 
# Structural Database, then it will include bibliographic, chemical, 
# crystal, experimental, refinement or atomic coordinate data resulting 
# from the CCDC's data processing and validation procedures.
#
#######################################################################

data_EVIVEL
_chemical_formula_moiety         'C16 H14 N2'
_chemical_name_systematic        4,6-Dimethyl-2-(naphthalen-1-yl)pyrimidine
_symmetry_cell_setting           monoclinic
_symmetry_space_group_name_H-M   'P 21/c'
_symmetry_Int_Tables_number      14
_space_group_name_Hall           '-P 2ybc'
loop_
_symmetry_equiv_pos_site_id
_symmetry_equiv_pos_as_xyz
1 x,y,z
2 -x,1/2+y,1/2-z
3 -x,-y,-z
4 x,1/2-y,1/2+z
_cell_length_a                   14.9022(18)
_cell_length_b                   11.4756(14)
_cell_length_c                   15.9499(19)
_cell_angle_alpha                90
_cell_angle_beta                 111.0280(10)
_cell_angle_gamma                90
_cell_volume                     2545.97
_exptl_crystal_colour            colorless
_exptl_crystal_description       block
_cell_formula_units_Z            8
loop_
_atom_site_label
_atom_site_type_symbol
_atom_site_fract_x
_atom_site_fract_y
_atom_site_fract_z
C1 C 0.33022(12) 0.56804(15) 0.19201(11)
C2 C 0.28518(12) 0.54003(15) 0.25537(11)
C3 C 0.31319(13) 0.58798(17) 0.34283(12)
H1 H 0.3632 0.6417 0.3614
C4 C 0.26816(14) 0.55681(19) 0.40020(13)
H2 H 0.2882 0.5891 0.4575
C5 C 0.19230(15) 0.47692(19) 0.37416(14)
H3 H 0.1631 0.4549 0.4144
C6 C 0.16151(14) 0.43166(18) 0.29020(14)
H4 H 0.1102 0.3797 0.2729
C7 C 0.20588(12) 0.46173(16) 0.22806(12)
C8 C 0.17279(13) 0.41556(17) 0.14022(13)
H5 H 0.1219 0.3630 0.1230
C9 C 0.21425(13) 0.44683(17) 0.08061(13)
H6 H 0.1905 0.4175 0.0224
C10 C 0.29303(12) 0.52348(16) 0.10659(12)
H7 H 0.3206 0.5445 0.0649
C11 C 0.41918(12) 0.63937(15) 0.21483(12)
C12 C 0.50852(13) 0.76663(16) 0.16641(13)
C13 C 0.58104(13) 0.75808(17) 0.24906(13)
H8 H 0.6379 0.7995 0.2612
C14 C 0.56827(13) 0.68750(16) 0.31349(12)
C15 C 0.51631(16) 0.8421(2) 0.09295(15)
H9 H 0.4803 0.8079 0.0358
H10 H 0.5826 0.8489 0.0991
H11 H 0.4910 0.9180 0.0968
C16 C 0.64365(14) 0.67278(19) 0.40496(13)
H12 H 0.6343 0.7300 0.4450
H13 H 0.7061 0.6828 0.4014
H14 H 0.6388 0.5962 0.4271
N1 N 0.48627(10) 0.62722(13) 0.29660(10)
N2 N 0.42607(10) 0.70672(13) 0.14848(10)
C17 C 0.12658(11) 0.06318(15) 0.19754(11)
C18 C 0.09762(13) 0.01305(17) 0.11404(11)
H15 H 0.0368 0.0304 0.0729
C19 C 0.15642(13) -0.06341(16) 0.08848(12)
H16 H 0.1345 -0.0962 0.0313
C20 C 0.24584(13) -0.08964(16) 0.14757(12)
H17 H 0.2842 -0.1420 0.1311
C21 C 0.28081(12) -0.03786(15) 0.23378(11)
C22 C 0.37491(13) -0.06205(18) 0.29471(13)
H18 H 0.4136 -0.1140 0.2783
C23 C 0.40930(13) -0.0107(2) 0.37641(13)
H19 H 0.4709 -0.0283 0.4159
C24 C 0.35244(13) 0.06895(18) 0.40169(12)
H20 H 0.3771 0.1048 0.4576
C25 C 0.26154(12) 0.09449(16) 0.34545(11)
H21 H 0.2250 0.1479 0.3634
C26 C 0.22168(11) 0.04068(14) 0.25978(10)
C27 C 0.05443(11) 0.13401(15) 0.21966(11)
C28 C -0.01736(12) 0.18418(16) 0.31890(12)
C29 C -0.08211(12) 0.25082(16) 0.25319(12)
H22 H -0.1305 0.2911 0.2649
C30 C -0.07448(12) 0.25720(15) 0.16983(12)
C31 C -0.02058(15) 0.1730(2) 0.41097(13)
H23 H 0.0023 0.0973 0.4347
H24 H -0.0855 0.1828 0.4082
H25 H 0.0195 0.2317 0.4493
C32 C -0.14053(14) 0.33086(18) 0.09602(13)
H26 H -0.1143 0.4079 0.0998
H27 H -0.2023 0.3348 0.1019
H28 H -0.1473 0.2971 0.0390
N3 N -0.00560(10) 0.19787(12) 0.15203(9)
N4 N 0.05243(10) 0.12487(13) 0.30227(9)
loop_
_geom_bond_atom_site_label_1
_geom_bond_atom_site_label_2
_geom_bond_site_symmetry_1
_geom_bond_site_symmetry_2
C1 C2 1_555 1_555
C2 C3 1_555 1_555
C3 H1 1_555 1_555
C4 C3 1_555 1_555
H2 C4 1_555 1_555
C5 C4 1_555 1_555
H3 C5 1_555 1_555
C6 C5 1_555 1_555
H4 C6 1_555 1_555
C7 C2 1_555 1_555
C8 C7 1_555 1_555
H5 C8 1_555 1_555
C9 C8 1_555 1_555
H6 C9 1_555 1_555
C10 C1 1_555 1_555
H7 C10 1_555 1_555
C11 C1 1_555 1_555
C12 C13 1_555 1_555
C13 H8 1_555 1_555
C14 C13 1_555 1_555
C15 C12 1_555 1_555
H9 C15 1_555 1_555
H10 C15 1_555 1_555
H11 C15 1_555 1_555
C16 C14 1_555 1_555
H12 C16 1_555 1_555
H13 C16 1_555 1_555
H14 C16 1_555 1_555
C17 C18 1_555 1_555
C18 H15 1_555 1_555
C19 C18 1_555 1_555
H16 C19 1_555 1_555
C20 C19 1_555 1_555
H17 C20 1_555 1_555
C21 C20 1_555 1_555
C22 C21 1_555 1_555
H18 C22 1_555 1_555
C23 C22 1_555 1_555
H19 C23 1_555 1_555
C24 C23 1_555 1_555
H20 C24 1_555 1_555
C25 C24 1_555 1_555
H21 C25 1_555 1_555
C26 C17 1_555 1_555
C27 C17 1_555 1_555
C28 C29 1_555 1_555
C29 H22 1_555 1_555
C30 C29 1_555 1_555
C31 C28 1_555 1_555
H23 C31 1_555 1_555
H24 C31 1_555 1_555
H25 C31 1_555 1_555
C32 C30 1_555 1_555
H26 C32 1_555 1_555
H27 C32 1_555 1_555
H28 C32 1_555 1_555
N1 C11 1_555 1_555
N2 C11 1_555 1_555
N3 C27 1_555 1_555
N4 C27 1_555 1_555
C6 C7 1_555 1_555
C9 C10 1_555 1_555
C12 N2 1_555 1_555
C14 N1 1_555 1_555
C21 C26 1_555 1_555
C25 C26 1_555 1_555
C28 N4 1_555 1_555
C30 N3 1_555 1_555

#END
