
#######################################################################
#
#                 Cambridge Crystallographic Data Centre
#                                CCDC 
#
#######################################################################
#
# If this CIF has been generated from an entry in the Cambridge 
# Structural Database, then it will include bibliographic, chemical, 
# crystal, experimental, refinement or atomic coordinate data resulting 
# from the CCDC's data processing and validation procedures.
#
#######################################################################

data_EVIVAI
_chemical_formula_moiety         'C252 H324 N12'
_chemical_name_systematic        
"(CCCC)-2,2':7',2'':7'',2''':12''',12':7''',12:7,12''-hexakis(cyclohexane-1,2-diylbis(iminomethyl))tetrakis(5,5,10,10,15,15-hexabutyl-10,15-dihydro-5H-diindeno[1,2-a:1',2'-c]fluorene) unknown solvate"
_symmetry_cell_setting           rhombohedral
_symmetry_space_group_name_H-M   'R 3'
_symmetry_Int_Tables_number      146
_space_group_name_Hall           'R 3'
loop_
_symmetry_equiv_pos_site_id
_symmetry_equiv_pos_as_xyz
1 x,y,z
2 -y,x-y,z
3 -x+y,-x,z
4 2/3+x,1/3+y,1/3+z
5 2/3-y,1/3+x-y,1/3+z
6 2/3-x+y,1/3-x,1/3+z
7 1/3+x,2/3+y,2/3+z
8 1/3-y,2/3+x-y,2/3+z
9 1/3-x+y,2/3-x,2/3+z
_cell_length_a                   23.121(2)
_cell_length_b                   23.121(2)
_cell_length_c                   51.666(2)
_cell_angle_alpha                90
_cell_angle_beta                 90
_cell_angle_gamma                120
_cell_volume                     23919.3
_exptl_crystal_colour            colorless
_exptl_crystal_description       block
_cell_formula_units_Z            3
loop_
_atom_site_label
_atom_site_type_symbol
_atom_site_fract_x
_atom_site_fract_y
_atom_site_fract_z
N1 N -0.2916(2) -0.4089(2) -0.25960(6)
C1 C -0.1823(3) -0.3224(3) -0.24934(8)
C2 C 0.2946(3) -0.0760(3) -0.21381(8)
N2 N 0.3660(2) -0.0196(2) -0.25018(6)
N3 N 0.0435(2) -0.3141(2) -0.00549(6)
C3 C 0.4323(2) 0.0246(2) -0.25920(7)
H1 H 0.4621 0.0450 -0.2443
C4 C 0.2342(2) -0.0976(3) -0.22656(8)
H2 H 0.2339 -0.0826 -0.2432
C5 C 0.0462(3) -0.3161(3) -0.12282(7)
C6 C -0.1205(3) -0.3274(3) -0.21279(7)
C7 C 0.1757(3) -0.1402(3) -0.21484(7)
C8 C -0.0615(3) -0.2702(3) -0.22162(7)
C9 C 0.0845(3) -0.2536(3) -0.01168(7)
H3 H 0.1283 -0.2433 -0.0147
N4 N 0.0401(3) -0.3936(2) -0.04786(7)
C10 C -0.1795(3) -0.3525(3) -0.22603(7)
H4 H -0.2177 -0.3895 -0.2196
C11 C -0.2439(3) -0.3507(3) -0.26414(7)
H5 H -0.2484 -0.3255 -0.2772
C12 C -0.3515(2) -0.4313(3) -0.27576(7)
H6 H -0.3412 -0.4009 -0.2904
C13 C 0.0035(3) -0.3000(3) -0.16130(7)
C14 C 0.3590(3) -0.0329(3) -0.22617(8)
H7 H 0.3970 -0.0141 -0.2158
C15 C -0.1253(3) -0.2663(3) -0.25763(8)
H8 H -0.1273 -0.2455 -0.2727
C16 C 0.0465(3) -0.3418(3) -0.09813(8)
H9 H 0.0865 -0.3266 -0.0892
C17 C 0.1713(3) -0.1639(3) -0.18918(8)
C18 C 0.0704(3) -0.3586(2) -0.00394(7)
H10 H 0.1172 -0.3345 -0.0095
C19 C -0.0061(3) -0.2556(3) -0.20331(7)
C20 C -0.0647(3) -0.2393(3) -0.24445(8)
H11 H -0.0271 -0.2014 -0.2507
C21 C 0.0671(3) -0.3825(3) 0.02409(8)
H12 H 0.0916 -0.3441 0.0353
H13 H 0.0209 -0.4060 0.0298
C22 C 0.1056(3) -0.1638(3) -0.22548(7)
C23 C 0.2911(3) -0.0999(4) -0.18832(9)
H14 H 0.3307 -0.0848 -0.1791
C24 C -0.0363(3) -0.3025(3) -0.18196(7)
C25 C 0.1060(3) -0.2614(3) -0.13678(7)
C26 C 0.5026(3) 0.1268(3) -0.28568(9)
H15 H 0.5027 0.1617 -0.2962
H16 H 0.5321 0.1479 -0.2711
C27 C 0.0614(2) -0.2127(3) -0.20374(7)
C28 C 0.4578(3) -0.0137(3) -0.27581(10)
H17 H 0.4591 -0.0480 -0.2654
H18 H 0.4276 -0.0353 -0.2902
C29 C -0.0130(3) -0.3379(3) -0.13634(8)
C30 C 0.0725(3) -0.2538(3) -0.16124(7)
C31 C 0.0321(3) -0.4191(3) -0.02111(8)
H19 H -0.0153 -0.4414 -0.0164
C32 C -0.1095(3) -0.3514(4) -0.18698(8)
C33 C -0.0141(3) -0.4123(3) -0.06062(9)
H20 H -0.0551 -0.4407 -0.0529
C34 C 0.0974(3) -0.2009(3) -0.25093(7)
H21 H 0.0527 -0.2163 -0.2575
H22 H 0.1286 -0.1695 -0.2634
C35 C 0.5266(3) 0.0339(3) -0.28590(10)
H23 H 0.5571 0.0531 -0.2714
H24 H 0.5419 0.0095 -0.2965
C36 C -0.0706(4) -0.4137(4) -0.10134(10)
H25 H -0.1106 -0.4457 -0.0939
C37 C 0.1023(4) -0.2940(4) -0.27503(9)
H26 H 0.0569 -0.3125 -0.2814
H27 H 0.1317 -0.2609 -0.2875
C38 C -0.0703(3) -0.3907(4) -0.12682(9)
H28 H -0.1086 -0.4112 -0.1369
C39 C -0.0117(3) -0.3890(3) -0.08741(8)
C40 C 0.1082(4) -0.2594(3) -0.24941(8)
H29 H 0.0758 -0.2917 -0.2374
H30 H 0.1523 -0.2444 -0.2423
C41 C 0.5280(3) 0.0889(3) -0.30164(9)
H31 H 0.5004 0.0703 -0.3169
H32 H 0.5734 0.1193 -0.3073
C42 C 0.2329(3) -0.1436(4) -0.17661(9)
H33 H 0.2335 -0.1603 -0.1603
C43 C 0.0940(3) -0.1046(3) -0.22747(10)
H34 H 0.1235 -0.0748 -0.2407
H35 H 0.0486 -0.1212 -0.2334
C44 C 0.0951(4) -0.4269(3) 0.02659(10)
H36 H 0.0922 -0.4412 0.0444
H37 H 0.1418 -0.4033 0.0216
C45 C -0.1244(4) -0.4236(4) -0.19048(11)
H38 H -0.1186 -0.4395 -0.1738
H39 H -0.1710 -0.4509 -0.1953
C46 C 0.1343(4) -0.1934(4) -0.12024(9)
H40 H 0.1485 -0.2009 -0.1035
H41 H 0.1739 -0.1592 -0.1290
C47 C -0.1573(4) -0.3469(5) -0.16778(9)
H42 H -0.2025 -0.3746 -0.1741
H43 H -0.1539 -0.3655 -0.1514
C48 C 0.1561(5) -0.2838(6) -0.14216(13)
H44 H 0.1970 -0.2457 -0.1483
H45 H 0.1663 -0.2980 -0.1260
C49 C 0.0559(5) -0.4881(4) 0.00902(10)
H46 H 0.0759 -0.5163 0.0098
H47 H 0.0103 -0.5140 0.0151
C50 C 0.0561(6) -0.4667(4) -0.01858(11)
H48 H 0.1012 -0.4465 -0.0254
H49 H 0.0281 -0.5059 -0.0290
C51 C 0.1023(3) -0.2117(3) -0.18232(7)
C52 C 0.1040(4) -0.0646(4) -0.20358(12)
H50 H 0.0701 -0.0925 -0.1911
H51 H 0.1471 -0.0529 -0.1962
C53 C 0.1012(6) -0.0024(5) -0.2070(2)
H52 H 0.0585 -0.0133 -0.2145
H53 H 0.1359 0.0267 -0.2190
C54 C 0.1186(5) -0.3479(4) -0.27402(14)
H54 H 0.1647 -0.3296 -0.2693
H55 H 0.1110 -0.3688 -0.2907
H56 H 0.0908 -0.3805 -0.2614
C55 C -0.1463(6) -0.2798(6) -0.16304(13)
H57 H -0.1415 -0.2580 -0.1796
H58 H -0.1045 -0.2544 -0.1537
C56 C 0.0850(8) -0.1642(7) -0.11533(19)
H59 H 0.0434 -0.2027 -0.1099
H60 H 0.0766 -0.1531 -0.1325
C57 C -0.0840(6) -0.4349(6) -0.20970(16)
H61 H -0.0374 -0.4013 -0.2073
H62 H -0.0970 -0.4287 -0.2269
C58 C 0.1106(7) 0.0365(6) -0.1805(3)
H63 H 0.1534 0.0487 -0.1732
H64 H 0.0761 0.0082 -0.1686
H65 H 0.1081 0.0760 -0.1837
C59 C 0.1354(8) -0.3375(8) -0.1607(2)
H66 H 0.1197 -0.3268 -0.1764
H67 H 0.0993 -0.3786 -0.1536
C60 C -0.0267(4) -0.0679(3) -0.01811(9)
C61 C 0.0419(4) -0.0255(5) -0.01787(10)
C62 C -0.0589(6) -0.1447(4) -0.01693(13)
C63 C -0.0950(5) -0.1831(5) -0.04189(14)
H68 H -0.1078 -0.2296 -0.0395
H69 H -0.1358 -0.1812 -0.0436
C64 C -0.1105(8) -0.1779(5) 0.00650(13)
H70 H -0.1134 -0.2200 0.0109
H71 H -0.1543 -0.1876 0.0007
C65 C -0.1324(5) -0.1720(4) 0.05610(12)
H72 H -0.1793 -0.1891 0.0523
H73 H -0.1261 -0.2100 0.0584
C66 C -0.1160(6) -0.1340(6) 0.08090(14)
H74 H -0.1415 -0.1637 0.0947
H75 H -0.1268 -0.0991 0.0795
H76 H -0.0692 -0.1149 0.0845
C67 C -0.0915(8) -0.1321(5) 0.03279(13)
H77 H -0.0444 -0.1137 0.0366
H78 H -0.0992 -0.0950 0.0298
C68 C 0.0086(2) -0.2021(2) -0.01319(6)
H79 H -0.0297 -0.2434 -0.0110
C69 C 0.0037(2) -0.1446(3) -0.01499(6)
C70 C 0.0610(3) -0.0828(2) -0.01827(7)
C71 C 0.1231(2) -0.07841(19) -0.01974(9)
H80 H 0.1614 -0.0370 -0.0219
C72 C 0.12794(19) -0.1358(2) -0.01794(8)
H81 H 0.1695 -0.1329 -0.0189
C73 C 0.0707(2) -0.1976(2) -0.01466(7)
C74 C -0.2027(7) -0.2776(10) -0.14739(17)
H82 H -0.2147 -0.3068 -0.1325
H83 H -0.1874 -0.2325 -0.1413
C75 C -0.0902(10) -0.5026(7) -0.2084(2)
H84 H -0.0748 -0.5116 -0.2246
H85 H -0.1368 -0.5363 -0.2063
C76 C 0.0919(12) -0.1029(9) -0.0968(3)
H86 H 0.1373 -0.0719 -0.1023
H87 H 0.0652 -0.0921 -0.1082
C77 C 0.0931(11) -0.0554(10) -0.0736(3)
H88 H 0.0992 -0.0720 -0.0573
H89 H 0.0515 -0.0555 -0.0733
H90 H 0.1291 -0.0107 -0.0762
C78 C 0.1969(9) -0.3462(11) -0.1668(3)
H91 H 0.2365 -0.3026 -0.1689
H92 H 0.2045 -0.3687 -0.1525
C79 C -0.2626(8) -0.3001(11) -0.1650(4)
H93 H -0.2489 -0.2749 -0.1808
H94 H -0.2955 -0.2929 -0.1565
H95 H -0.2815 -0.3467 -0.1688
C80 C -0.0491(13) -0.5078(12) -0.1857(4)
H96 H -0.0023 -0.4807 -0.1894
H97 H -0.0602 -0.5535 -0.1836
H98 H -0.0594 -0.4924 -0.1701
C81 C 0.1848(15) -0.3875(15) -0.1920(5)
H99 H 0.1775 -0.3651 -0.2061
H100 H 0.1463 -0.4310 -0.1898
H101 H 0.2231 -0.3920 -0.1955
C82 C -0.0952(12) -0.2102(11) -0.0878(3)
H102 H -0.0715 -0.1923 -0.1040
H103 H -0.1387 -0.2138 -0.0896
C83 C -0.0576(9) -0.1601(9) -0.0667(2)
H104 H -0.0136 -0.1549 -0.0647
H105 H -0.0522 -0.1170 -0.0714
C84 C -0.1062(14) -0.2821(12) -0.0844(3)
H106 H -0.0638 -0.2803 -0.0845
H107 H -0.1333 -0.3100 -0.0983
H108 H -0.1282 -0.3003 -0.0682
N1A N 0.4089(2) 0.1173(3) -0.25960(6)
C1A C 0.3224(3) 0.1401(4) -0.24934(8)
C2A C 0.0760(3) 0.3706(4) -0.21381(8)
N2A N 0.0196(2) 0.3856(3) -0.25018(6)
N3A N 0.3141(2) 0.3576(3) -0.00549(6)
C3A C -0.0246(2) 0.4077(3) -0.25920(7)
H1A H -0.0450 0.4171 -0.2443
C4A C 0.0976(3) 0.3318(4) -0.22656(8)
H2A H 0.0826 0.3165 -0.2432
C5A C 0.3161(3) 0.3623(4) -0.12282(7)
C6A C 0.3274(3) 0.2069(4) -0.21279(7)
C7A C 0.1402(3) 0.3159(4) -0.21484(7)
C8A C 0.2702(3) 0.2087(4) -0.22162(7)
C9A C 0.2536(3) 0.3381(4) -0.01168(7)
H3A H 0.2433 0.3716 -0.0147
N4A N 0.3936(2) 0.4337(4) -0.04786(7)
C10A C 0.3525(3) 0.1730(4) -0.22603(7)
H4A H 0.3895 0.1718 -0.2196
C11A C 0.3507(3) 0.1068(4) -0.26414(7)
H5A H 0.3255 0.0771 -0.2772
C12A C 0.4313(3) 0.0798(4) -0.27576(7)
H6A H 0.4009 0.0597 -0.2904
C13A C 0.3000(3) 0.3035(4) -0.16130(7)
C14A C 0.0329(3) 0.3919(4) -0.22617(8)
H7A H 0.0141 0.4111 -0.2158
C15A C 0.2663(3) 0.1410(4) -0.25763(8)
H8A H 0.2455 0.1182 -0.2727
C16A C 0.3418(3) 0.3883(4) -0.09813(8)
H9A H 0.3266 0.4131 -0.0892
C17A C 0.1639(3) 0.3352(4) -0.18918(8)
C18A C 0.3586(2) 0.4290(4) -0.00394(7)
H10A H 0.3345 0.4517 -0.0095
C19A C 0.2556(3) 0.2495(4) -0.20331(7)
C20A C 0.2393(3) 0.1746(4) -0.24445(8)
H11A H 0.2014 0.1743 -0.2507
C21A C 0.3825(3) 0.4496(4) 0.02409(8)
H12A H 0.3441 0.4357 0.0353
H13A H 0.4060 0.4269 0.0298
C22A C 0.1638(3) 0.2694(4) -0.22548(7)
C23A C 0.0999(4) 0.3910(5) -0.18832(9)
H14A H 0.0848 0.4155 -0.1791
C24A C 0.3025(3) 0.2662(4) -0.18196(7)
C25A C 0.2614(3) 0.3674(4) -0.13678(7)
C26A C -0.1268(3) 0.3758(4) -0.28568(9)
H15A H -0.1617 0.3410 -0.2962
H16A H -0.1479 0.3842 -0.2711
C27A C 0.2127(3) 0.2741(4) -0.20374(7)
C28A C 0.0137(3) 0.4715(4) -0.27581(10)
H17A H 0.0480 0.5071 -0.2654
H18A H 0.0353 0.4629 -0.2902
C29A C 0.3379(3) 0.3249(4) -0.13634(8)
C30A C 0.2538(3) 0.3263(4) -0.16124(7)
C31A C 0.4191(3) 0.4512(4) -0.02111(8)
H19A H 0.4414 0.4261 -0.0164
C32A C 0.3514(4) 0.2419(5) -0.18698(8)
C33A C 0.4123(3) 0.3982(4) -0.06062(9)
H20A H 0.4407 0.3856 -0.0529
C34A C 0.2009(3) 0.2983(4) -0.25093(7)
H21A H 0.2163 0.2690 -0.2575
H22A H 0.1695 0.2981 -0.2634
C35A C -0.0339(3) 0.4927(4) -0.28590(10)
H23A H -0.0531 0.5040 -0.2714
H24A H -0.0095 0.5324 -0.2965
C36A C 0.4137(4) 0.3431(6) -0.10134(10)
H25A H 0.4457 0.3351 -0.0939
C37A C 0.2940(4) 0.3963(6) -0.27503(9)
H26A H 0.3125 0.3694 -0.2814
H27A H 0.2609 0.3926 -0.2875
C38A C 0.3907(4) 0.3204(5) -0.12682(9)
H28A H 0.4112 0.3026 -0.1369
C39A C 0.3890(3) 0.3773(4) -0.08741(8)
C40A C 0.2594(3) 0.3676(5) -0.24941(8)
H29A H 0.2917 0.3675 -0.2374
H30A H 0.2444 0.3967 -0.2423
C41A C -0.0889(3) 0.4391(4) -0.30164(9)
H31A H -0.0703 0.4301 -0.3169
H32A H -0.1193 0.4541 -0.3073
C42A C 0.1436(4) 0.3765(5) -0.17661(9)
H33A H 0.1603 0.3938 -0.1603
C43A C 0.1046(3) 0.1986(4) -0.22747(10)
H34A H 0.0748 0.1983 -0.2407
H35A H 0.1212 0.1698 -0.2334
C44A C 0.4269(3) 0.5220(5) 0.02659(10)
H36A H 0.4412 0.5334 0.0444
H37A H 0.4033 0.5451 0.0216
C45A C 0.4236(4) 0.2992(6) -0.19048(11)
H38A H 0.4395 0.3209 -0.1738
H39A H 0.4509 0.2799 -0.1953
C46A C 0.1934(4) 0.3277(6) -0.12024(9)
H40A H 0.2009 0.3494 -0.1035
H41A H 0.1592 0.3331 -0.1290
C47A C 0.3469(5) 0.1896(6) -0.16778(9)
H42A H 0.3746 0.1721 -0.1741
H43A H 0.3655 0.2116 -0.1514
C48A C 0.2838(6) 0.4399(8) -0.14216(13)
H44A H 0.2457 0.4427 -0.1483
H45A H 0.2980 0.4643 -0.1260
C49A C 0.4881(4) 0.5440(6) 0.00902(10)
H46A H 0.5163 0.5922 0.0098
H47A H 0.5140 0.5243 0.0151
C50A C 0.4667(4) 0.5228(7) -0.01858(11)
H48A H 0.4465 0.5477 -0.0254
H49A H 0.5059 0.5340 -0.0290
C51A C 0.2117(3) 0.3140(4) -0.18232(7)
C52A C 0.0646(4) 0.1686(6) -0.20358(12)
H50A H 0.0925 0.1626 -0.1911
H51A H 0.0529 0.2000 -0.1962
C53A C 0.0024(5) 0.1036(8) -0.2070(2)
H52A H 0.0133 0.0718 -0.2145
H53A H -0.0267 0.1092 -0.2190
C54A C 0.3479(4) 0.4665(6) -0.27402(14)
H54A H 0.3296 0.4943 -0.2693
H55A H 0.3688 0.4798 -0.2907
H56A H 0.3805 0.4713 -0.2614
C55A C 0.2798(6) 0.1335(8) -0.16304(13)
H57A H 0.2580 0.1165 -0.1796
H58A H 0.2544 0.1499 -0.1537
C56A C 0.1642(7) 0.2492(11) -0.11533(19)
H59A H 0.2027 0.2461 -0.1099
H60A H 0.1531 0.2297 -0.1325
C57A C 0.4349(6) 0.3509(8) -0.20970(16)
H61A H 0.4013 0.3639 -0.2073
H62A H 0.4287 0.3317 -0.2269
C58A C -0.0365(6) 0.0741(9) -0.1805(3)
H63A H -0.0487 0.1047 -0.1732
H64A H -0.0082 0.0679 -0.1686
H65A H -0.0760 0.0321 -0.1837
C59A C 0.3375(8) 0.4729(11) -0.1607(2)
H66A H 0.3268 0.4465 -0.1764
H67A H 0.3786 0.4779 -0.1536
C60A C 0.0679(3) 0.0412(5) -0.01811(9)
C61A C 0.0255(5) 0.0674(6) -0.01787(10)
C62A C 0.1447(4) 0.0858(7) -0.01693(13)
C63A C 0.1831(5) 0.0881(7) -0.04189(14)
H68A H 0.2296 0.1218 -0.0395
H69A H 0.1812 0.0454 -0.0436
C64A C 0.1779(5) 0.0674(9) 0.00650(13)
H70A H 0.2200 0.1066 0.0109
H71A H 0.1876 0.0333 0.0007
C65A C 0.1720(4) 0.0396(6) 0.05610(12)
H72A H 0.1891 0.0098 0.0523
H73A H 0.2100 0.0839 0.0584
C66A C 0.1340(6) 0.0180(8) 0.08090(14)
H74A H 0.1637 0.0222 0.0947
H75A H 0.0991 -0.0277 0.0795
H76A H 0.1149 0.0457 0.0845
C67A C 0.1321(5) 0.0406(9) 0.03279(13)
H77A H 0.1137 0.0693 0.0366
H78A H 0.0950 -0.0042 0.0298
C68A C 0.2021(2) 0.2107(3) -0.01319(6)
H79A H 0.2434 0.2137 -0.0110
C69A C 0.1446(3) 0.1483(4) -0.01499(6)
C70A C 0.0828(2) 0.1438(4) -0.01827(7)
C71A C 0.07841(19) 0.20151(28) -0.01974(9)
H80A H 0.0370 0.1984 -0.0219
C72A C 0.1358(2) 0.26374(28) -0.01794(8)
H81A H 0.1329 0.3024 -0.0189
C73A C 0.1976(2) 0.2683(3) -0.01466(7)
C74A C 0.2776(10) 0.0749(12) -0.14739(17)
H82A H 0.3068 0.0921 -0.1325
H83A H 0.2325 0.0451 -0.1413
C75A C 0.5026(7) 0.4124(12) -0.2084(2)
H84A H 0.5116 0.4368 -0.2246
H85A H 0.5363 0.3995 -0.2063
C76A C 0.1029(9) 0.1948(15) -0.0968(3)
H86A H 0.0719 0.2092 -0.1023
H87A H 0.0921 0.1573 -0.1082
C77A C 0.0554(10) 0.1485(15) -0.0736(3)
H88A H 0.0720 0.1712 -0.0573
H89A H 0.0555 0.1070 -0.0733
H90A H 0.0107 0.1398 -0.0762
C78A C 0.3462(11) 0.5431(14) -0.1668(3)
H91A H 0.3026 0.5391 -0.1689
H92A H 0.3687 0.5732 -0.1525
C79A C 0.3001(11) 0.0375(14) -0.1650(4)
H93A H 0.2749 0.0260 -0.1808
H94A H 0.2929 -0.0026 -0.1565
H95A H 0.3467 0.0652 -0.1688
C80A C 0.5078(12) 0.4587(18) -0.1857(4)
H96A H 0.4807 0.4784 -0.1894
H97A H 0.5535 0.4933 -0.1836
H98A H 0.4924 0.4330 -0.1701
C81A C 0.3875(15) 0.5723(21) -0.1920(5)
H99A H 0.3651 0.5426 -0.2061
H100A H 0.4310 0.5773 -0.1898
H101A H 0.3920 0.6151 -0.1955
C82A C 0.2102(11) 0.1150(16) -0.0878(3)
H102A H 0.1923 0.1208 -0.1040
H103A H 0.2138 0.0751 -0.0896
C83A C 0.1601(9) 0.1025(13) -0.0667(2)
H104A H 0.1549 0.1413 -0.0647
H105A H 0.1170 0.0648 -0.0714
C84A C 0.2821(12) 0.1759(18) -0.0844(3)
H106A H 0.2803 0.2165 -0.0845
H107A H 0.3100 0.1767 -0.0983
H108A H 0.3003 0.1721 -0.0682
N1B N -0.1173(3) 0.2916(2) -0.25960(6)
C1B C -0.1401(4) 0.1823(3) -0.24934(8)
C2B C -0.3706(4) -0.2946(3) -0.21381(8)
N2B N -0.3856(3) -0.3660(2) -0.25018(6)
N3B N -0.3576(3) -0.0435(2) -0.00549(6)
C3B C -0.4077(3) -0.4323(2) -0.25920(7)
H1B H -0.4171 -0.4621 -0.2443
C4B C -0.3318(4) -0.2342(2) -0.22656(8)
H2B H -0.3165 -0.2339 -0.2432
C5B C -0.3623(4) -0.0462(3) -0.12282(7)
C6B C -0.2069(4) 0.1205(3) -0.21279(7)
C7B C -0.3159(4) -0.1757(3) -0.21484(7)
C8B C -0.2087(4) 0.0615(3) -0.22162(7)
C9B C -0.3381(4) -0.0845(3) -0.01168(7)
H3B H -0.3716 -0.1283 -0.0147
N4B N -0.4337(4) -0.0401(3) -0.04786(7)
C10B C -0.1730(4) 0.1795(3) -0.22603(7)
H4B H -0.1718 0.2177 -0.2196
C11B C -0.1068(4) 0.2439(3) -0.26414(7)
H5B H -0.0771 0.2484 -0.2772
C12B C -0.0798(4) 0.3515(2) -0.27576(7)
H6B H -0.0597 0.3412 -0.2904
C13B C -0.3035(4) -0.0035(3) -0.16130(7)
C14B C -0.3919(4) -0.3590(3) -0.22617(8)
H7B H -0.4111 -0.3970 -0.2158
C15B C -0.1410(4) 0.1253(3) -0.25763(8)
H8B H -0.1182 0.1273 -0.2727
C16B C -0.3883(4) -0.0465(3) -0.09813(8)
H9B H -0.4131 -0.0865 -0.0892
C17B C -0.3352(4) -0.1713(3) -0.18918(8)
C18B C -0.4290(4) -0.0704(3) -0.00394(7)
H10B H -0.4517 -0.1172 -0.0095
C19B C -0.2495(4) 0.0061(3) -0.20331(7)
C20B C -0.1746(4) 0.0647(3) -0.24445(8)
H11B H -0.1743 0.0271 -0.2507
C21B C -0.4496(4) -0.0671(3) 0.02409(8)
H12B H -0.4357 -0.0916 0.0353
H13B H -0.4269 -0.0209 0.0298
C22B C -0.2694(4) -0.1056(3) -0.22548(7)
C23B C -0.3910(5) -0.2911(3) -0.18832(9)
H14B H -0.4155 -0.3307 -0.1791
C24B C -0.2662(4) 0.0363(3) -0.18196(7)
C25B C -0.3674(4) -0.1060(3) -0.13678(7)
C26B C -0.3758(4) -0.5026(3) -0.28568(9)
H15B H -0.3410 -0.5027 -0.2962
H16B H -0.3842 -0.5321 -0.2711
C27B C -0.2741(4) -0.0614(2) -0.20374(7)
C28B C -0.4715(4) -0.4578(3) -0.27581(10)
H17B H -0.5071 -0.4591 -0.2654
H18B H -0.4629 -0.4276 -0.2902
C29B C -0.3249(4) 0.0130(3) -0.13634(8)
C30B C -0.3263(4) -0.0725(3) -0.16124(7)
C31B C -0.4512(4) -0.0321(3) -0.02111(8)
H19B H -0.4261 0.0153 -0.0164
C32B C -0.2419(5) 0.1095(3) -0.18698(8)
C33B C -0.3982(4) 0.0141(3) -0.06062(9)
H20B H -0.3856 0.0551 -0.0529
C34B C -0.2983(4) -0.0974(3) -0.25093(7)
H21B H -0.2690 -0.0527 -0.2575
H22B H -0.2981 -0.1286 -0.2634
C35B C -0.4927(4) -0.5266(3) -0.28590(10)
H23B H -0.5040 -0.5571 -0.2714
H24B H -0.5324 -0.5419 -0.2965
C36B C -0.3431(6) 0.0706(4) -0.10134(10)
H25B H -0.3351 0.1106 -0.0939
C37B C -0.3963(6) -0.1023(4) -0.27503(9)
H26B H -0.3694 -0.0569 -0.2814
H27B H -0.3926 -0.1317 -0.2875
C38B C -0.3204(5) 0.0703(3) -0.12682(9)
H28B H -0.3026 0.1086 -0.1369
C39B C -0.3773(4) 0.0117(3) -0.08741(8)
C40B C -0.3676(5) -0.1082(4) -0.24941(8)
H29B H -0.3675 -0.0758 -0.2374
H30B H -0.3967 -0.1523 -0.2423
C41B C -0.4391(4) -0.5280(3) -0.30164(9)
H31B H -0.4301 -0.5004 -0.3169
H32B H -0.4541 -0.5734 -0.3073
C42B C -0.3765(5) -0.2329(3) -0.17661(9)
H33B H -0.3938 -0.2335 -0.1603
C43B C -0.1986(4) -0.0940(3) -0.22747(10)
H34B H -0.1983 -0.1235 -0.2407
H35B H -0.1698 -0.0486 -0.2334
C44B C -0.5220(5) -0.0951(4) 0.02659(10)
H36B H -0.5334 -0.0922 0.0444
H37B H -0.5451 -0.1418 0.0216
C45B C -0.2992(6) 0.1244(4) -0.19048(11)
H38B H -0.3209 0.1186 -0.1738
H39B H -0.2799 0.1710 -0.1953
C46B C -0.3277(6) -0.1343(4) -0.12024(9)
H40B H -0.3494 -0.1485 -0.1035
H41B H -0.3331 -0.1739 -0.1290
C47B C -0.1896(6) 0.1573(4) -0.16778(9)
H42B H -0.1721 0.2025 -0.1741
H43B H -0.2116 0.1539 -0.1514
C48B C -0.4399(8) -0.1561(5) -0.14216(13)
H44B H -0.4427 -0.1970 -0.1483
H45B H -0.4643 -0.1663 -0.1260
C49B C -0.5440(6) -0.0559(5) 0.00902(10)
H46B H -0.5922 -0.0759 0.0098
H47B H -0.5243 -0.0103 0.0151
C50B C -0.5228(7) -0.0561(6) -0.01858(11)
H48B H -0.5477 -0.1012 -0.0254
H49B H -0.5340 -0.0281 -0.0290
C51B C -0.3140(4) -0.1023(3) -0.18232(7)
C52B C -0.1686(6) -0.1040(4) -0.20358(12)
H50B H -0.1626 -0.0701 -0.1911
H51B H -0.2000 -0.1471 -0.1962
C53B C -0.1036(8) -0.1012(6) -0.2070(2)
H52B H -0.0718 -0.0585 -0.2145
H53B H -0.1092 -0.1359 -0.2190
C54B C -0.4665(6) -0.1186(5) -0.27402(14)
H54B H -0.4943 -0.1647 -0.2693
H55B H -0.4798 -0.1110 -0.2907
H56B H -0.4713 -0.0908 -0.2614
C55B C -0.1335(8) 0.1463(6) -0.16304(13)
H57B H -0.1165 0.1415 -0.1796
H58B H -0.1499 0.1045 -0.1537
C56B C -0.2492(11) -0.0850(8) -0.11533(19)
H59B H -0.2461 -0.0434 -0.1099
H60B H -0.2297 -0.0766 -0.1325
C57B C -0.3509(8) 0.0840(6) -0.20970(16)
H61B H -0.3639 0.0374 -0.2073
H62B H -0.3317 0.0970 -0.2269
C58B C -0.0741(9) -0.1106(7) -0.1805(3)
H63B H -0.1047 -0.1534 -0.1732
H64B H -0.0679 -0.0761 -0.1686
H65B H -0.0321 -0.1081 -0.1837
C59B C -0.4729(11) -0.1354(8) -0.1607(2)
H66B H -0.4465 -0.1197 -0.1764
H67B H -0.4779 -0.0993 -0.1536
C60B C -0.0412(5) 0.0267(4) -0.01811(9)
C61B C -0.0674(6) -0.0419(4) -0.01787(10)
C62B C -0.0858(7) 0.0589(6) -0.01693(13)
C63B C -0.0881(7) 0.0950(5) -0.04189(14)
H68B H -0.1218 0.1078 -0.0395
H69B H -0.0454 0.1358 -0.0436
C64B C -0.0674(9) 0.1105(8) 0.00650(13)
H70B H -0.1066 0.1134 0.0109
H71B H -0.0333 0.1543 0.0007
C65B C -0.0396(6) 0.1324(5) 0.05610(12)
H72B H -0.0098 0.1793 0.0523
H73B H -0.0839 0.1261 0.0584
C66B C -0.0180(8) 0.1160(6) 0.08090(14)
H74B H -0.0222 0.1415 0.0947
H75B H 0.0277 0.1268 0.0795
H76B H -0.0457 0.0692 0.0845
C67B C -0.0406(9) 0.0915(8) 0.03279(13)
H77B H -0.0693 0.0444 0.0366
H78B H 0.0042 0.0992 0.0298
C68B C -0.2107(3) -0.0086(2) -0.01319(6)
H79B H -0.2137 0.0297 -0.0110
C69B C -0.1483(4) -0.0037(2) -0.01499(6)
C70B C -0.1438(4) -0.0610(3) -0.01827(7)
C71B C -0.20151(28) -0.1231(2) -0.01974(9)
H80B H -0.1984 -0.1614 -0.0219
C72B C -0.26374(28) -0.12794(19) -0.01794(8)
H81B H -0.3024 -0.1695 -0.0189
C73B C -0.2683(3) -0.0707(2) -0.01466(7)
C74B C -0.0749(12) 0.2027(7) -0.14739(17)
H82B H -0.0921 0.2147 -0.1325
H83B H -0.0451 0.1874 -0.1413
C75B C -0.4124(12) 0.0902(10) -0.2084(2)
H84B H -0.4368 0.0748 -0.2246
H85B H -0.3995 0.1368 -0.2063
C76B C -0.1948(15) -0.0919(12) -0.0968(3)
H86B H -0.2092 -0.1373 -0.1023
H87B H -0.1573 -0.0652 -0.1082
C77B C -0.1485(15) -0.0931(11) -0.0736(3)
H88B H -0.1712 -0.0992 -0.0573
H89B H -0.1070 -0.0515 -0.0733
H90B H -0.1398 -0.1291 -0.0762
C78B C -0.5431(14) -0.1969(9) -0.1668(3)
H91B H -0.5391 -0.2365 -0.1689
H92B H -0.5732 -0.2045 -0.1525
C79B C -0.0375(14) 0.2626(8) -0.1650(4)
H93B H -0.0260 0.2489 -0.1808
H94B H 0.0026 0.2955 -0.1565
H95B H -0.0652 0.2815 -0.1688
C80B C -0.4587(18) 0.0491(13) -0.1857(4)
H96B H -0.4784 0.0023 -0.1894
H97B H -0.4933 0.0602 -0.1836
H98B H -0.4330 0.0594 -0.1701
C81B C -0.5723(21) -0.1848(15) -0.1920(5)
H99B H -0.5426 -0.1775 -0.2061
H100B H -0.5773 -0.1463 -0.1898
H101B H -0.6151 -0.2231 -0.1955
C82B C -0.1150(16) 0.0952(12) -0.0878(3)
H102B H -0.1208 0.0715 -0.1040
H103B H -0.0751 0.1387 -0.0896
C83B C -0.1025(13) 0.0576(9) -0.0667(2)
H104B H -0.1413 0.0136 -0.0647
H105B H -0.0648 0.0522 -0.0714
C84B C -0.1759(18) 0.1062(14) -0.0844(3)
H106B H -0.2165 0.0638 -0.0845
H107B H -0.1767 0.1333 -0.0983
H108B H -0.1721 0.1282 -0.0682
H109? H -0.1323 -0.1753 -0.0437
H110? H -0.0643 -0.1579 -0.0557
C85? C -0.1208(13) -0.2494(12) -0.0491(3)
H111? H -0.1530 -0.2763 -0.0360
H112? H -0.0845 -0.2588 -0.0480
C86? C -0.1530(16) -0.2745(13) -0.0741(4)
H113? H -0.1205 -0.2507 -0.0876
H114? H -0.1885 -0.2640 -0.0759
C87? C -0.1829(19) -0.3504(14) -0.0786(4)
H115? H -0.1477 -0.3609 -0.0787
H116? H -0.2057 -0.3625 -0.0950
H117? H -0.2139 -0.3748 -0.0650
loop_
_geom_bond_atom_site_label_1
_geom_bond_atom_site_label_2
_geom_bond_site_symmetry_1
_geom_bond_site_symmetry_2
N1 C11 1_555 1_555
C1 C10 1_555 1_555
C2 C4 1_555 1_555
N2 C3 1_555 1_555
N3 C9 1_555 1_555
C3 H1 1_555 1_555
C4 H2 1_555 1_555
C5 C16 1_555 1_555
C6 C8 1_555 1_555
C7 C4 1_555 1_555
C8 C19 1_555 1_555
C9 H3 1_555 1_555
N4 C31 1_555 1_555
C10 C6 1_555 1_555
H4 C10 1_555 1_555
C11 C1 1_555 1_555
H5 C11 1_555 1_555
C12 N1 1_555 1_555
H6 C12 1_555 1_555
C13 C24 1_555 1_555
C14 C2 1_555 1_555
H7 C14 1_555 1_555
C15 C1 1_555 1_555
H8 C15 1_555 1_555
C16 H9 1_555 1_555
C17 C7 1_555 1_555
C18 N3 1_555 1_555
H10 C18 1_555 1_555
C19 C24 1_555 1_555
C20 C8 1_555 1_555
H11 C20 1_555 1_555
C21 C18 1_555 1_555
H12 C21 1_555 1_555
H13 C21 1_555 1_555
C22 C7 1_555 1_555
C23 C2 1_555 1_555
H14 C23 1_555 1_555
C24 C32 1_555 1_555
C25 C5 1_555 1_555
C26 H15 1_555 1_555
H16 C26 1_555 1_555
C27 C19 1_555 1_555
C28 C3 1_555 1_555
H17 C28 1_555 1_555
H18 C28 1_555 1_555
C29 C5 1_555 1_555
C30 C13 1_555 1_555
C31 C18 1_555 1_555
H19 C31 1_555 1_555
C32 C6 1_555 1_555
C33 N4 1_555 1_555
H20 C33 1_555 1_555
C34 C22 1_555 1_555
H21 C34 1_555 1_555
H22 C34 1_555 1_555
C35 C28 1_555 1_555
H23 C35 1_555 1_555
H24 C35 1_555 1_555
C36 H25 1_555 1_555
C37 H26 1_555 1_555
H27 C37 1_555 1_555
C38 C29 1_555 1_555
H28 C38 1_555 1_555
C39 C16 1_555 1_555
C40 C34 1_555 1_555
H29 C40 1_555 1_555
H30 C40 1_555 1_555
C41 C26 1_555 1_555
H31 C41 1_555 1_555
H32 C41 1_555 1_555
C42 C17 1_555 1_555
H33 C42 1_555 1_555
C43 C22 1_555 1_555
H34 C43 1_555 1_555
H35 C43 1_555 1_555
C44 C21 1_555 1_555
H36 C44 1_555 1_555
H37 C44 1_555 1_555
C45 C32 1_555 1_555
H38 C45 1_555 1_555
H39 C45 1_555 1_555
C46 C25 1_555 1_555
H40 C46 1_555 1_555
H41 C46 1_555 1_555
C47 C32 1_555 1_555
H42 C47 1_555 1_555
H43 C47 1_555 1_555
C48 C25 1_555 1_555
H44 C48 1_555 1_555
H45 C48 1_555 1_555
C49 C44 1_555 1_555
H46 C49 1_555 1_555
H47 C49 1_555 1_555
C50 C31 1_555 1_555
H48 C50 1_555 1_555
H49 C50 1_555 1_555
C51 C17 1_555 1_555
C52 C43 1_555 1_555
H50 C52 1_555 1_555
H51 C52 1_555 1_555
C53 C52 1_555 1_555
H52 C53 1_555 1_555
H53 C53 1_555 1_555
C54 C37 1_555 1_555
H54 C54 1_555 1_555
H55 C54 1_555 1_555
H56 C54 1_555 1_555
C55 C47 1_555 1_555
H57 C55 1_555 1_555
H58 C55 1_555 1_555
C56 C46 1_555 1_555
H59 C56 1_555 1_555
H60 C56 1_555 1_555
C57 C45 1_555 1_555
H61 C57 1_555 1_555
H62 C57 1_555 1_555
C58 C53 1_555 1_555
H63 C58 1_555 1_555
H64 C58 1_555 1_555
H65 C58 1_555 1_555
C59 C48 1_555 1_555
H66 C59 1_555 1_555
H67 C59 1_555 1_555
C60 C61 1_555 1_555
C61 C70 1_555 1_555
C62 C60 1_555 1_555
C63 C62 1_555 1_555
H68 C63 1_555 1_555
H69 C63 1_555 1_555
C64 C62 1_555 1_555
H70 C64 1_555 1_555
H71 C64 1_555 1_555
C65 H72 1_555 1_555
H73 C65 1_555 1_555
C66 C65 1_555 1_555
H74 C66 1_555 1_555
H75 C66 1_555 1_555
H76 C66 1_555 1_555
C67 C64 1_555 1_555
H77 C67 1_555 1_555
H78 C67 1_555 1_555
C68 H79 1_555 1_555
C69 C62 1_555 1_555
C70 C69 1_555 1_555
C71 C70 1_555 1_555
H80 C71 1_555 1_555
C72 C71 1_555 1_555
H81 C72 1_555 1_555
C73 C9 1_555 1_555
C74 C55 1_555 1_555
H82 C74 1_555 1_555
H83 C74 1_555 1_555
C75 C57 1_555 1_555
H84 C75 1_555 1_555
H85 C75 1_555 1_555
C76 C56 1_555 1_555
H86 C76 1_555 1_555
H87 C76 1_555 1_555
C77 C76 1_555 1_555
H88 C77 1_555 1_555
H89 C77 1_555 1_555
H90 C77 1_555 1_555
C78 C59 1_555 1_555
H91 C78 1_555 1_555
H92 C78 1_555 1_555
C79 C74 1_555 1_555
H93 C79 1_555 1_555
H94 C79 1_555 1_555
H95 C79 1_555 1_555
C80 C75 1_555 1_555
H96 C80 1_555 1_555
H97 C80 1_555 1_555
H98 C80 1_555 1_555
C81 C78 1_555 1_555
H99 C81 1_555 1_555
H100 C81 1_555 1_555
H101 C81 1_555 1_555
C82 H102 1_555 1_555
H103 C82 1_555 1_555
C83 C63 1_555 1_555
H104 C83 1_555 1_555
H105 C83 1_555 1_555
C84 C82 1_555 1_555
H106 C84 1_555 1_555
H107 C84 1_555 1_555
H108 C84 1_555 1_555
N1A C11A 1_555 1_555
C1A C10A 1_555 1_555
C2A C4A 1_555 1_555
N2A C3A 1_555 1_555
N3A C9A 1_555 1_555
C3A H1A 1_555 1_555
C4A H2A 1_555 1_555
C5A C16A 1_555 1_555
C6A C8A 1_555 1_555
C7A C4A 1_555 1_555
C8A C19A 1_555 1_555
C9A H3A 1_555 1_555
N4A C31A 1_555 1_555
C10A C6A 1_555 1_555
H4A C10A 1_555 1_555
C11A C1A 1_555 1_555
H5A C11A 1_555 1_555
C12A C3 1_555 1_555
H6A C12A 1_555 1_555
C13A C24A 1_555 1_555
C14A C2A 1_555 1_555
H7A C14A 1_555 1_555
C15A C1A 1_555 1_555
H8A C15A 1_555 1_555
C16A H9A 1_555 1_555
C17A C7A 1_555 1_555
C18A N3A 1_555 1_555
H10A C18A 1_555 1_555
C19A C24A 1_555 1_555
C20A C8A 1_555 1_555
H11A C20A 1_555 1_555
C21A C18A 1_555 1_555
H12A C21A 1_555 1_555
H13A C21A 1_555 1_555
C22A C7A 1_555 1_555
C23A C2A 1_555 1_555
H14A C23A 1_555 1_555
C24A C32A 1_555 1_555
C25A C5A 1_555 1_555
C26A H15A 1_555 1_555
H16A C26A 1_555 1_555
C27A C19A 1_555 1_555
C28A C3A 1_555 1_555
H17A C28A 1_555 1_555
H18A C28A 1_555 1_555
C29A C5A 1_555 1_555
C30A C13A 1_555 1_555
C31A C18A 1_555 1_555
H19A C31A 1_555 1_555
C32A C6A 1_555 1_555
C33A N4A 1_555 1_555
H20A C33A 1_555 1_555
C34A C22A 1_555 1_555
H21A C34A 1_555 1_555
H22A C34A 1_555 1_555
C35A C28A 1_555 1_555
H23A C35A 1_555 1_555
H24A C35A 1_555 1_555
C36A H25A 1_555 1_555
C37A H26A 1_555 1_555
H27A C37A 1_555 1_555
C38A C29A 1_555 1_555
H28A C38A 1_555 1_555
C39A C16A 1_555 1_555
C40A C34A 1_555 1_555
H29A C40A 1_555 1_555
H30A C40A 1_555 1_555
C41A C26A 1_555 1_555
H31A C41A 1_555 1_555
H32A C41A 1_555 1_555
C42A C17A 1_555 1_555
H33A C42A 1_555 1_555
C43A C22A 1_555 1_555
H34A C43A 1_555 1_555
H35A C43A 1_555 1_555
C44A C21A 1_555 1_555
H36A C44A 1_555 1_555
H37A C44A 1_555 1_555
C45A C32A 1_555 1_555
H38A C45A 1_555 1_555
H39A C45A 1_555 1_555
C46A C25A 1_555 1_555
H40A C46A 1_555 1_555
H41A C46A 1_555 1_555
C47A C32A 1_555 1_555
H42A C47A 1_555 1_555
H43A C47A 1_555 1_555
C48A C25A 1_555 1_555
H44A C48A 1_555 1_555
H45A C48A 1_555 1_555
C49A C44A 1_555 1_555
H46A C49A 1_555 1_555
H47A C49A 1_555 1_555
C50A C31A 1_555 1_555
H48A C50A 1_555 1_555
H49A C50A 1_555 1_555
C51A C17A 1_555 1_555
C52A C43A 1_555 1_555
H50A C52A 1_555 1_555
H51A C52A 1_555 1_555
C53A C52A 1_555 1_555
H52A C53A 1_555 1_555
H53A C53A 1_555 1_555
C54A C37A 1_555 1_555
H54A C54A 1_555 1_555
H55A C54A 1_555 1_555
H56A C54A 1_555 1_555
C55A C47A 1_555 1_555
H57A C55A 1_555 1_555
H58A C55A 1_555 1_555
C56A C46A 1_555 1_555
H59A C56A 1_555 1_555
H60A C56A 1_555 1_555
C57A C45A 1_555 1_555
H61A C57A 1_555 1_555
H62A C57A 1_555 1_555
C58A C53A 1_555 1_555
H63A C58A 1_555 1_555
H64A C58A 1_555 1_555
H65A C58A 1_555 1_555
C59A C48A 1_555 1_555
H66A C59A 1_555 1_555
H67A C59A 1_555 1_555
C60A C61 1_555 1_555
C61A C60A 1_555 1_555
C62A C60A 1_555 1_555
C63A C62A 1_555 1_555
H68A C63A 1_555 1_555
H69A C63A 1_555 1_555
C64A C62A 1_555 1_555
H70A C64A 1_555 1_555
H71A C64A 1_555 1_555
C65A H72A 1_555 1_555
H73A C65A 1_555 1_555
C66A C65A 1_555 1_555
H74A C66A 1_555 1_555
H75A C66A 1_555 1_555
H76A C66A 1_555 1_555
C67A C64A 1_555 1_555
H77A C67A 1_555 1_555
H78A C67A 1_555 1_555
C68A H79A 1_555 1_555
C69A C62A 1_555 1_555
C70A C61A 1_555 1_555
C71A C70A 1_555 1_555
H80A C71A 1_555 1_555
C72A C71A 1_555 1_555
H81A C72A 1_555 1_555
C73A C9A 1_555 1_555
C74A C55A 1_555 1_555
H82A C74A 1_555 1_555
H83A C74A 1_555 1_555
C75A C57A 1_555 1_555
H84A C75A 1_555 1_555
H85A C75A 1_555 1_555
C76A C56A 1_555 1_555
H86A C76A 1_555 1_555
H87A C76A 1_555 1_555
C77A C76A 1_555 1_555
H88A C77A 1_555 1_555
H89A C77A 1_555 1_555
H90A C77A 1_555 1_555
C78A C59A 1_555 1_555
H91A C78A 1_555 1_555
H92A C78A 1_555 1_555
C79A C74A 1_555 1_555
H93A C79A 1_555 1_555
H94A C79A 1_555 1_555
H95A C79A 1_555 1_555
C80A C75A 1_555 1_555
H96A C80A 1_555 1_555
H97A C80A 1_555 1_555
H98A C80A 1_555 1_555
C81A C78A 1_555 1_555
H99A C81A 1_555 1_555
H100A C81A 1_555 1_555
H101A C81A 1_555 1_555
C82A H102A 1_555 1_555
H103A C82A 1_555 1_555
C83A C63A 1_555 1_555
H104A C83A 1_555 1_555
H105A C83A 1_555 1_555
C84A C82A 1_555 1_555
H106A C84A 1_555 1_555
H107A C84A 1_555 1_555
H108A C84A 1_555 1_555
N1B C11B 1_555 1_555
C1B C10B 1_555 1_555
C2B C4B 1_555 1_555
N2B C3B 1_555 1_555
N3B C9B 1_555 1_555
C3B C12 1_555 1_555
H1B C3B 1_555 1_555
C4B H2B 1_555 1_555
C5B C16B 1_555 1_555
C6B C8B 1_555 1_555
C7B C4B 1_555 1_555
C8B C19B 1_555 1_555
C9B H3B 1_555 1_555
N4B C31B 1_555 1_555
C10B C6B 1_555 1_555
H4B C10B 1_555 1_555
C11B C1B 1_555 1_555
H5B C11B 1_555 1_555
C12B C3A 1_555 1_555
H6B C12B 1_555 1_555
C13B C24B 1_555 1_555
C14B C2B 1_555 1_555
H7B C14B 1_555 1_555
C15B C1B 1_555 1_555
H8B C15B 1_555 1_555
C16B H9B 1_555 1_555
C17B C7B 1_555 1_555
C18B N3B 1_555 1_555
H10B C18B 1_555 1_555
C19B C24B 1_555 1_555
C20B C8B 1_555 1_555
H11B C20B 1_555 1_555
C21B C18B 1_555 1_555
H12B C21B 1_555 1_555
H13B C21B 1_555 1_555
C22B C7B 1_555 1_555
C23B C2B 1_555 1_555
H14B C23B 1_555 1_555
C24B C32B 1_555 1_555
C25B C5B 1_555 1_555
C26B C12 1_555 1_555
H15B C26B 1_555 1_555
H16B C26B 1_555 1_555
C27B C19B 1_555 1_555
C28B C3B 1_555 1_555
H17B C28B 1_555 1_555
H18B C28B 1_555 1_555
C29B C5B 1_555 1_555
C30B C13B 1_555 1_555
C31B C18B 1_555 1_555
H19B C31B 1_555 1_555
C32B C6B 1_555 1_555
C33B N4B 1_555 1_555
H20B C33B 1_555 1_555
C34B C22B 1_555 1_555
H21B C34B 1_555 1_555
H22B C34B 1_555 1_555
C35B C28B 1_555 1_555
H23B C35B 1_555 1_555
H24B C35B 1_555 1_555
C36B H25B 1_555 1_555
C37B H26B 1_555 1_555
H27B C37B 1_555 1_555
C38B C29B 1_555 1_555
H28B C38B 1_555 1_555
C39B C16B 1_555 1_555
C40B C34B 1_555 1_555
H29B C40B 1_555 1_555
H30B C40B 1_555 1_555
C41B C26B 1_555 1_555
H31B C41B 1_555 1_555
H32B C41B 1_555 1_555
C42B C17B 1_555 1_555
H33B C42B 1_555 1_555
C43B C22B 1_555 1_555
H34B C43B 1_555 1_555
H35B C43B 1_555 1_555
C44B C21B 1_555 1_555
H36B C44B 1_555 1_555
H37B C44B 1_555 1_555
C45B C32B 1_555 1_555
H38B C45B 1_555 1_555
H39B C45B 1_555 1_555
C46B C25B 1_555 1_555
H40B C46B 1_555 1_555
H41B C46B 1_555 1_555
C47B C32B 1_555 1_555
H42B C47B 1_555 1_555
H43B C47B 1_555 1_555
C48B C25B 1_555 1_555
H44B C48B 1_555 1_555
H45B C48B 1_555 1_555
C49B C44B 1_555 1_555
H46B C49B 1_555 1_555
H47B C49B 1_555 1_555
C50B C31B 1_555 1_555
H48B C50B 1_555 1_555
H49B C50B 1_555 1_555
C51B C17B 1_555 1_555
C52B C43B 1_555 1_555
H50B C52B 1_555 1_555
H51B C52B 1_555 1_555
C53B C52B 1_555 1_555
H52B C53B 1_555 1_555
H53B C53B 1_555 1_555
C54B C37B 1_555 1_555
H54B C54B 1_555 1_555
H55B C54B 1_555 1_555
H56B C54B 1_555 1_555
C55B C47B 1_555 1_555
H57B C55B 1_555 1_555
H58B C55B 1_555 1_555
C56B C46B 1_555 1_555
H59B C56B 1_555 1_555
H60B C56B 1_555 1_555
C57B C45B 1_555 1_555
H61B C57B 1_555 1_555
H62B C57B 1_555 1_555
C58B C53B 1_555 1_555
H63B C58B 1_555 1_555
H64B C58B 1_555 1_555
H65B C58B 1_555 1_555
C59B C48B 1_555 1_555
H66B C59B 1_555 1_555
H67B C59B 1_555 1_555
C60B C61A 1_555 1_555
C61B C60 1_555 1_555
C62B C60B 1_555 1_555
C63B C62B 1_555 1_555
H68B C63B 1_555 1_555
H69B C63B 1_555 1_555
C64B C62B 1_555 1_555
H70B C64B 1_555 1_555
H71B C64B 1_555 1_555
C65B H72B 1_555 1_555
H73B C65B 1_555 1_555
C66B C65B 1_555 1_555
H74B C66B 1_555 1_555
H75B C66B 1_555 1_555
H76B C66B 1_555 1_555
C67B C64B 1_555 1_555
H77B C67B 1_555 1_555
H78B C67B 1_555 1_555
C68B H79B 1_555 1_555
C69B C62B 1_555 1_555
C70B C61B 1_555 1_555
C71B C70B 1_555 1_555
H80B C71B 1_555 1_555
C72B C71B 1_555 1_555
H81B C72B 1_555 1_555
C73B C9B 1_555 1_555
C74B C55B 1_555 1_555
H82B C74B 1_555 1_555
H83B C74B 1_555 1_555
C75B C57B 1_555 1_555
H84B C75B 1_555 1_555
H85B C75B 1_555 1_555
C76B C56B 1_555 1_555
H86B C76B 1_555 1_555
H87B C76B 1_555 1_555
C77B C76B 1_555 1_555
H88B C77B 1_555 1_555
H89B C77B 1_555 1_555
H90B C77B 1_555 1_555
C78B C59B 1_555 1_555
H91B C78B 1_555 1_555
H92B C78B 1_555 1_555
C79B C74B 1_555 1_555
H93B C79B 1_555 1_555
H94B C79B 1_555 1_555
H95B C79B 1_555 1_555
C80B C75B 1_555 1_555
H96B C80B 1_555 1_555
H97B C80B 1_555 1_555
H98B C80B 1_555 1_555
C81B C78B 1_555 1_555
H99B C81B 1_555 1_555
H100B C81B 1_555 1_555
H101B C81B 1_555 1_555
C82B H102B 1_555 1_555
H103B C82B 1_555 1_555
C83B C63B 1_555 1_555
H104B C83B 1_555 1_555
H105B C83B 1_555 1_555
C84B C82B 1_555 1_555
H106B C84B 1_555 1_555
H107B C84B 1_555 1_555
H108B C84B 1_555 1_555
N2 C14 1_555 1_555
C13 C29 1_555 1_555
C15 C20 1_555 1_555
C22 C27 1_555 1_555
C23 C42 1_555 1_555
C25 C30 1_555 1_555
C26 C12A 1_555 1_555
C27 C51 1_555 1_555
C30 C51 1_555 1_555
C33 C39 1_555 1_555
C35 C41 1_555 1_555
C36 C38 1_555 1_555
C36 C39 1_555 1_555
C37 C40 1_555 1_555
C49 C50 1_555 1_555
C65 C67 1_555 1_555
C68 C69 1_555 1_555
C68 C73 1_555 1_555
C72 C73 1_555 1_555
C82 C83 1_555 1_555
N1A C12A 1_555 1_555
N2A C14A 1_555 1_555
C13A C29A 1_555 1_555
C15A C20A 1_555 1_555
C22A C27A 1_555 1_555
C23A C42A 1_555 1_555
C25A C30A 1_555 1_555
C26A C12B 1_555 1_555
C27A C51A 1_555 1_555
C30A C51A 1_555 1_555
C33A C39A 1_555 1_555
C35A C41A 1_555 1_555
C36A C38A 1_555 1_555
C36A C39A 1_555 1_555
C37A C40A 1_555 1_555
C49A C50A 1_555 1_555
C65A C67A 1_555 1_555
C68A C69A 1_555 1_555
C68A C73A 1_555 1_555
C69A C70A 1_555 1_555
C72A C73A 1_555 1_555
C82A C83A 1_555 1_555
N1B C12B 1_555 1_555
N2B C14B 1_555 1_555
C13B C29B 1_555 1_555
C15B C20B 1_555 1_555
C22B C27B 1_555 1_555
C23B C42B 1_555 1_555
C25B C30B 1_555 1_555
C27B C51B 1_555 1_555
C30B C51B 1_555 1_555
C33B C39B 1_555 1_555
C35B C41B 1_555 1_555
C36B C38B 1_555 1_555
C36B C39B 1_555 1_555
C37B C40B 1_555 1_555
C49B C50B 1_555 1_555
C60B C61B 1_555 1_555
C65B C67B 1_555 1_555
C68B C69B 1_555 1_555
C68B C73B 1_555 1_555
C69B C70B 1_555 1_555
C72B C73B 1_555 1_555
C82B C83B 1_555 1_555

#END
