
#######################################################################
#
#                 Cambridge Crystallographic Data Centre
#                                CCDC 
#
#######################################################################
#
# If this CIF has been generated from an entry in the Cambridge 
# Structural Database, then it will include bibliographic, chemical, 
# crystal, experimental, refinement or atomic coordinate data resulting 
# from the CCDC's data processing and validation procedures.
#
#######################################################################

data_EVIWOX
_chemical_formula_moiety         'C21 H14 N2 O2'
_chemical_name_systematic        
(S)-3-(1,3-dioxoisoindolin-2-yl)-2-(naphthalen-1-yl)propanenitrile
_symmetry_cell_setting           monoclinic
_symmetry_space_group_name_H-M   'P 21'
_symmetry_Int_Tables_number      4
_space_group_name_Hall           'P 2yb'
loop_
_symmetry_equiv_pos_site_id
_symmetry_equiv_pos_as_xyz
1 x,y,z
2 -x,1/2+y,-z
_cell_length_a                   8.1470(2)
_cell_length_b                   23.0748(6)
_cell_length_c                   8.4156(3)
_cell_angle_alpha                90
_cell_angle_beta                 90.129(2)
_cell_angle_gamma                90
_cell_volume                     1582.05
_exptl_crystal_colour            colorless
_exptl_crystal_description       block
_cell_formula_units_Z            4
_exptl_crystal_recrystallization_method 'Ethyl acetate/hexane'
loop_
_atom_site_label
_atom_site_type_symbol
_atom_site_fract_x
_atom_site_fract_y
_atom_site_fract_z
O1 O -0.0250(4) -0.35302(14) -0.4406(4)
O2 O -0.4218(4) -0.48094(13) -0.2883(4)
N1 N -0.1934(5) -0.42761(16) -0.3587(4)
N2 N 0.1028(5) -0.46074(17) -0.6656(5)
C1 C -0.0321(5) -0.51417(17) -0.4247(5)
H1 H -0.1380 -0.5318 -0.4606
C2 C 0.0790(6) -0.56311(18) -0.3639(5)
C3 C 0.2435(6) -0.56244(19) -0.3884(5)
H2 H 0.2910 -0.5306 -0.4429
C4 C 0.3455(6) -0.6076(2) -0.3353(6)
H3 H 0.4606 -0.6058 -0.3523
C5 C 0.2782(6) -0.6544(2) -0.2588(6)
H4 H 0.3470 -0.6850 -0.2231
C6 C 0.1084(6) -0.65725(19) -0.2329(5)
C7 C 0.0371(7) -0.70642(18) -0.1580(6)
H5 H 0.1053 -0.7377 -0.1257
C8 C -0.1296(8) -0.7093(2) -0.1315(7)
H6 H -0.1760 -0.7428 -0.0842
C9 C -0.2316(7) -0.6621(2) -0.1751(6)
H7 H -0.3456 -0.6633 -0.1521
C10 C -0.1660(6) -0.6145(2) -0.2508(6)
H8 H -0.2357 -0.5835 -0.2823
C11 C 0.0057(6) -0.61127(19) -0.2821(5)
C12 C -0.0714(5) -0.46812(18) -0.2956(5)
H9 H -0.1148 -0.4874 -0.1993
H10 H 0.0298 -0.4469 -0.2660
C13 C 0.0430(5) -0.48515(18) -0.5612(5)
C14 C -0.1582(6) -0.37468(19) -0.4315(5)
C15 C -0.3193(5) -0.35316(19) -0.4916(5)
C16 C -0.3563(6) -0.30501(19) -0.5817(6)
H11 H -0.2732 -0.2788 -0.6145
C17 C -0.5228(7) -0.2961(2) -0.6235(7)
H12 H -0.5521 -0.2636 -0.6865
C18 C -0.6435(6) -0.3342(2) -0.5741(6)
H13 H -0.7545 -0.3275 -0.6037
C19 C -0.6039(6) -0.3822(2) -0.4813(6)
H14 H -0.6869 -0.4080 -0.4456
C20 C -0.4425(6) -0.3914(2) -0.4427(5)
C21 C -0.3616(6) -0.43912(18) -0.3533(5)
O3 O -0.9232(4) -0.51900(13) -0.9842(4)
O4 O -0.5231(4) -0.64622(14) -0.8270(5)
N3 N -0.6933(4) -0.57231(15) -0.9155(4)
N4 N -0.3966(5) -0.53796(17) -0.6053(5)
C22 C -0.5315(5) -0.48528(17) -0.8475(5)
H15 H -0.6379 -0.4681 -0.8117
C23 C -0.4247(5) -0.43604(18) -0.9096(5)
C24 C -0.2566(6) -0.43713(19) -0.8838(5)
H16 H -0.2084 -0.4689 -0.8292
C25 C -0.1566(6) -0.3913(2) -0.9384(6)
H17 H -0.0415 -0.3926 -0.9206
C26 C -0.2231(6) -0.3458(2) -1.0153(6)
H18 H -0.1542 -0.3154 -1.0518
C27 C -0.3961(6) -0.34268(19) -1.0428(6)
C28 C -0.4695(8) -0.2944(2) -1.1201(6)
H19 H -0.4030 -0.2623 -1.1497
C29 C -0.6323(7) -0.2931(2) -1.1522(7)
H20 H -0.6785 -0.2606 -1.2051
C30 C -0.7336(7) -0.3396(2) -1.1077(6)
H21 H -0.8474 -0.3389 -1.1328
C31 C -0.6676(6) -0.3861(2) -1.0279(6)
H22 H -0.7376 -0.4170 -0.9967
C32 C -0.4993(5) -0.38915(18) -0.9911(5)
C33 C -0.5712(5) -0.53196(18) -0.9763(5)
H23 H -0.6136 -0.5129 -1.0734
H24 H -0.4699 -0.5533 -1.0045
C34 C -0.4552(5) -0.51385(19) -0.7094(5)
C35 C -0.8619(5) -0.56047(17) -0.9190(5)
C36 C -0.9404(5) -0.60777(17) -0.8268(5)
C37 C -1.1029(7) -0.61560(19) -0.7855(6)
H25 H -1.1862 -0.5900 -0.8221
C38 C -1.1394(6) -0.6626(2) -0.6877(6)
H26 H -1.2496 -0.6688 -0.6553
C39 C -1.0165(7) -0.7009(2) -0.6363(6)
H27 H -1.0448 -0.7329 -0.5707
C40 C -0.8543(6) -0.69262(19) -0.6801(6)
H28 H -0.7707 -0.7184 -0.6452
C41 C -0.8181(6) -0.64574(18) -0.7763(5)
C42 C -0.6586(6) -0.62439(19) -0.8369(5)
loop_
_geom_bond_atom_site_label_1
_geom_bond_atom_site_label_2
_geom_bond_site_symmetry_1
_geom_bond_site_symmetry_2
O1 C14 1_555 1_555
O2 C21 1_555 1_555
N1 C12 1_555 1_555
N2 C13 1_555 1_555
C1 H1 1_555 1_555
C2 C1 1_555 1_555
C3 C2 1_555 1_555
H2 C3 1_555 1_555
C4 C3 1_555 1_555
H3 C4 1_555 1_555
C5 C4 1_555 1_555
H4 C5 1_555 1_555
C6 C5 1_555 1_555
C7 C6 1_555 1_555
H5 C7 1_555 1_555
C8 C7 1_555 1_555
H6 C8 1_555 1_555
C9 C8 1_555 1_555
H7 C9 1_555 1_555
C10 C9 1_555 1_555
H8 C10 1_555 1_555
C11 C2 1_555 1_555
C12 C1 1_555 1_555
H9 C12 1_555 1_555
H10 C12 1_555 1_555
C13 C1 1_555 1_555
C14 N1 1_555 1_555
C15 C14 1_555 1_555
C16 C15 1_555 1_555
H11 C16 1_555 1_555
C17 C16 1_555 1_555
H12 C17 1_555 1_555
C18 C17 1_555 1_555
H13 C18 1_555 1_555
C19 C18 1_555 1_555
H14 C19 1_555 1_555
C20 C15 1_555 1_555
C21 N1 1_555 1_555
O3 C35 1_555 1_555
O4 C42 1_555 1_555
N3 C33 1_555 1_555
N4 C34 1_555 1_555
C22 H15 1_555 1_555
C23 C22 1_555 1_555
C24 C23 1_555 1_555
H16 C24 1_555 1_555
C25 C24 1_555 1_555
H17 C25 1_555 1_555
C26 C25 1_555 1_555
H18 C26 1_555 1_555
C27 C26 1_555 1_555
C28 C27 1_555 1_555
H19 C28 1_555 1_555
C29 C28 1_555 1_555
H20 C29 1_555 1_555
C30 C29 1_555 1_555
H21 C30 1_555 1_555
C31 C30 1_555 1_555
H22 C31 1_555 1_555
C32 C23 1_555 1_555
C33 C22 1_555 1_555
H23 C33 1_555 1_555
H24 C33 1_555 1_555
C34 C22 1_555 1_555
C35 N3 1_555 1_555
C36 C35 1_555 1_555
C37 C36 1_555 1_555
H25 C37 1_555 1_555
C38 C37 1_555 1_555
H26 C38 1_555 1_555
C39 C38 1_555 1_555
H27 C39 1_555 1_555
C40 C39 1_555 1_555
H28 C40 1_555 1_555
C41 C36 1_555 1_555
C42 N3 1_555 1_555
C6 C11 1_555 1_555
C10 C11 1_555 1_555
C19 C20 1_555 1_555
C20 C21 1_555 1_555
C27 C32 1_555 1_555
C31 C32 1_555 1_555
C40 C41 1_555 1_555
C41 C42 1_555 1_555

#END
