
#######################################################################
#
#                 Cambridge Crystallographic Data Centre
#                                CCDC 
#
#######################################################################
#
# If this CIF has been generated from an entry in the Cambridge 
# Structural Database, then it will include bibliographic, chemical, 
# crystal, experimental, refinement or atomic coordinate data resulting 
# from the CCDC's data processing and validation procedures.
#
#######################################################################

data_EVIWUD
_chemical_formula_moiety         'C21 H14 N2 O2'
_chemical_name_systematic        
(R)-3-(1,3-dioxoisoindolin-2-yl)-2-(naphthalen-1-yl)propanenitrile
_symmetry_cell_setting           monoclinic
_symmetry_space_group_name_H-M   'P 21'
_symmetry_Int_Tables_number      4
_space_group_name_Hall           'P 2yb'
loop_
_symmetry_equiv_pos_site_id
_symmetry_equiv_pos_as_xyz
1 x,y,z
2 -x,1/2+y,-z
_cell_length_a                   8.1875(2)
_cell_length_b                   23.1712(6)
_cell_length_c                   8.5578(2)
_cell_angle_alpha                90
_cell_angle_beta                 90.136(2)
_cell_angle_gamma                90
_cell_volume                     1623.53
_exptl_crystal_colour            colorless
_exptl_crystal_description       block
_cell_formula_units_Z            4
_exptl_crystal_recrystallization_method 'Ethyl acetate/Hexane'
loop_
_atom_site_label
_atom_site_type_symbol
_atom_site_fract_x
_atom_site_fract_y
_atom_site_fract_z
O1 O 0.0266(4) 0.35430(16) 0.4358(5)
O2 O 0.4220(5) 0.48129(13) 0.2885(4)
N1 N 0.1950(5) 0.42830(15) 0.3553(4)
N2 N -0.0981(6) 0.4623(2) 0.6593(5)
C1 C 0.0334(6) 0.51484(18) 0.4231(4)
H1 H 0.1370 0.5319 0.4574
C2 C -0.0744(6) 0.56360(19) 0.3622(5)
C3 C -0.2384(6) 0.5623(2) 0.3846(6)
H2 H -0.2848 0.5309 0.4358
C4 C -0.3394(7) 0.6072(3) 0.3321(7)
H3 H -0.4517 0.6053 0.3474
C5 C -0.2739(7) 0.6533(2) 0.2596(6)
H4 H -0.3414 0.6830 0.2254
C6 C -0.1059(7) 0.65688(19) 0.2352(5)
C7 C -0.0344(9) 0.7057(2) 0.1623(7)
H5 H -0.1008 0.7362 0.1312
C8 C 0.1293(10) 0.7088(3) 0.1372(7)
H6 H 0.1738 0.7417 0.0918
C9 C 0.2318(8) 0.6626(3) 0.1796(7)
H7 H 0.3428 0.6641 0.1571
C10 C 0.1681(7) 0.6154(2) 0.2540(6)
H8 H 0.2372 0.5857 0.2850
C11 C -0.0008(6) 0.61117(19) 0.2845(5)
C12 C 0.0730(6) 0.46889(18) 0.2965(5)
H9 H -0.0258 0.4482 0.2685
H10 H 0.1141 0.4878 0.2034
C13 C -0.0401(6) 0.48643(19) 0.5578(5)
C14 C 0.1599(6) 0.37597(18) 0.4264(5)
C15 C 0.3184(6) 0.35405(19) 0.4867(5)
C16 C 0.3544(7) 0.3059(2) 0.5748(7)
H11 H 0.2736 0.2801 0.6058
C17 C 0.5177(8) 0.2976(3) 0.6152(8)
H12 H 0.5459 0.2659 0.6762
C18 C 0.6374(7) 0.3346(3) 0.5680(7)
H13 H 0.7452 0.3274 0.5964
C19 C 0.6013(7) 0.3823(2) 0.4791(7)
H14 H 0.6830 0.4075 0.4467
C20 C 0.4398(6) 0.39189(19) 0.4393(5)
C21 C 0.3629(6) 0.43953(18) 0.3520(5)
O3 O 0.9215(4) 0.51924(13) 0.9826(4)
O4 O 0.5249(4) 0.64461(16) 0.8284(5)
N3 N 0.6948(4) 0.57134(15) 0.9150(4)
N4 N 0.4000(6) 0.5361(2) 0.6088(5)
C22 C 0.5341(6) 0.48453(18) 0.8487(5)
H15 H 0.6382 0.4677 0.8154
C23 C 0.4279(6) 0.43613(17) 0.9081(4)
C24 C 0.2617(6) 0.4363(2) 0.8839(5)
H16 H 0.2146 0.4672 0.8308
C25 C 0.1618(7) 0.3917(3) 0.9364(7)
H17 H 0.0496 0.3933 0.9197
C26 C 0.2282(7) 0.3462(2) 1.0115(6)
H18 H 0.1610 0.3164 1.0457
C27 C 0.3990(7) 0.3430(2) 1.0392(5)
C28 C 0.4737(10) 0.2954(2) 1.1174(7)
H19 H 0.4089 0.2645 1.1481
C29 C 0.6342(10) 0.2937(2) 1.1480(8)
H20 H 0.6791 0.2620 1.1991
C30 C 0.7336(8) 0.3395(2) 1.1032(7)
H21 H 0.8447 0.3383 1.1261
C31 C 0.6707(7) 0.3858(2) 1.0265(6)
H22 H 0.7392 0.4159 0.9974
C32 C 0.5004(6) 0.38878(19) 0.9899(5)
C33 C 0.5722(6) 0.53135(18) 0.9737(5)
H23 H 0.4732 0.5523 0.9990
H24 H 0.6120 0.5130 1.0684
C34 C 0.4593(6) 0.5127(2) 0.7113(5)
C35 C 0.8612(6) 0.55987(18) 0.9182(5)
C36 C 0.9394(5) 0.60730(18) 0.8279(5)
C37 C 1.1013(7) 0.6154(2) 0.7866(7)
H25 H 1.1828 0.5903 0.8205
C38 C 1.1362(7) 0.6625(2) 0.6923(7)
H26 H 1.2435 0.6690 0.6616
C39 C 1.0146(8) 0.7002(2) 0.6426(7)
H27 H 1.0412 0.7314 0.5794
C40 C 0.8544(7) 0.6914(2) 0.6869(6)
H28 H 0.7727 0.7167 0.6551
C41 C 0.8183(6) 0.64466(17) 0.7786(5)
C42 C 0.6593(6) 0.62368(19) 0.8374(5)
loop_
_geom_bond_atom_site_label_1
_geom_bond_atom_site_label_2
_geom_bond_site_symmetry_1
_geom_bond_site_symmetry_2
O1 C14 1_555 1_555
O2 C21 1_555 1_555
N1 C12 1_555 1_555
N2 C13 1_555 1_555
C1 H1 1_555 1_555
C2 C1 1_555 1_555
C3 C2 1_555 1_555
H2 C3 1_555 1_555
C4 C3 1_555 1_555
H3 C4 1_555 1_555
C5 C4 1_555 1_555
H4 C5 1_555 1_555
C6 C5 1_555 1_555
C7 C6 1_555 1_555
H5 C7 1_555 1_555
C8 C7 1_555 1_555
H6 C8 1_555 1_555
C9 C8 1_555 1_555
H7 C9 1_555 1_555
C10 C9 1_555 1_555
H8 C10 1_555 1_555
C11 C2 1_555 1_555
C12 C1 1_555 1_555
H9 C12 1_555 1_555
H10 C12 1_555 1_555
C13 C1 1_555 1_555
C14 N1 1_555 1_555
C15 C14 1_555 1_555
C16 C15 1_555 1_555
H11 C16 1_555 1_555
C17 C16 1_555 1_555
H12 C17 1_555 1_555
C18 C17 1_555 1_555
H13 C18 1_555 1_555
C19 C18 1_555 1_555
H14 C19 1_555 1_555
C20 C15 1_555 1_555
C21 N1 1_555 1_555
O3 C35 1_555 1_555
O4 C42 1_555 1_555
N3 C33 1_555 1_555
N4 C34 1_555 1_555
C22 H15 1_555 1_555
C23 C22 1_555 1_555
C24 C23 1_555 1_555
H16 C24 1_555 1_555
C25 C24 1_555 1_555
H17 C25 1_555 1_555
C26 C25 1_555 1_555
H18 C26 1_555 1_555
C27 C26 1_555 1_555
C28 C27 1_555 1_555
H19 C28 1_555 1_555
C29 C28 1_555 1_555
H20 C29 1_555 1_555
C30 C29 1_555 1_555
H21 C30 1_555 1_555
C31 C30 1_555 1_555
H22 C31 1_555 1_555
C32 C23 1_555 1_555
C33 C22 1_555 1_555
H23 C33 1_555 1_555
H24 C33 1_555 1_555
C34 C22 1_555 1_555
C35 N3 1_555 1_555
C36 C35 1_555 1_555
C37 C36 1_555 1_555
H25 C37 1_555 1_555
C38 C37 1_555 1_555
H26 C38 1_555 1_555
C39 C38 1_555 1_555
H27 C39 1_555 1_555
C40 C39 1_555 1_555
H28 C40 1_555 1_555
C41 C36 1_555 1_555
C42 N3 1_555 1_555
C6 C11 1_555 1_555
C10 C11 1_555 1_555
C19 C20 1_555 1_555
C20 C21 1_555 1_555
C27 C32 1_555 1_555
C31 C32 1_555 1_555
C40 C41 1_555 1_555
C41 C42 1_555 1_555

#END
