
#######################################################################
#
#                 Cambridge Crystallographic Data Centre
#                                CCDC 
#
#######################################################################
#
# If this CIF has been generated from an entry in the Cambridge 
# Structural Database, then it will include bibliographic, chemical, 
# crystal, experimental, refinement or atomic coordinate data resulting 
# from the CCDC's data processing and validation procedures.
#
#######################################################################

data_EVIYAL
_chemical_formula_moiety         'C23 H26 N2 O6'
_chemical_name_systematic        
'diethyl 4-(3-(2-methoxyphenyl)-1,2-oxazol-5-yl)-2,6-dimethyl-1,4-dihydropyridine-3,5-dicarboxylate'
_symmetry_cell_setting           orthorhombic
_symmetry_space_group_name_H-M   'P b c a'
_symmetry_Int_Tables_number      61
_space_group_name_Hall           '-P 2ac 2ab'
loop_
_symmetry_equiv_pos_site_id
_symmetry_equiv_pos_as_xyz
1 x,y,z
2 1/2-x,-y,1/2+z
3 -x,1/2+y,1/2-z
4 1/2+x,1/2-y,-z
5 -x,-y,-z
6 1/2+x,y,1/2-z
7 x,1/2-y,1/2+z
8 1/2-x,1/2+y,z
_cell_length_a                   9.5042(19)
_cell_length_b                   20.211(4)
_cell_length_c                   23.536(5)
_cell_angle_alpha                90
_cell_angle_beta                 90
_cell_angle_gamma                90
_cell_volume                     4521.02
_exptl_crystal_colour            colorless
_exptl_crystal_description       block
_cell_formula_units_Z            8
loop_
_atom_site_label
_atom_site_type_symbol
_atom_site_fract_x
_atom_site_fract_y
_atom_site_fract_z
C1 C 0.9070(11) 0.3554(5) 0.2033(3)
H1 H 0.9969 0.3774 0.1981
H2 H 0.9108 0.3120 0.1859
C2 C 0.7991(11) 0.3923(7) 0.1815(5)
H3 H 0.7109 0.3722 0.1913
H4 H 0.8078 0.3945 0.1409
H5 H 0.8030 0.4363 0.1970
C3 C 0.7511(3) 0.24390(12) 0.37676(11)
C4 C 0.8072(3) 0.29438(12) 0.34742(10)
C5 C 0.8718(3) 0.35222(11) 0.37968(10)
H6 H 0.9498 0.3697 0.3570
C6 C 0.9308(3) 0.32921(11) 0.43638(10)
C7 C 0.8686(3) 0.27775(11) 0.46330(10)
C8 C 0.6672(4) 0.18703(14) 0.35386(13)
H7 H 0.5777 0.2028 0.3406
H8 H 0.6530 0.1549 0.3834
H9 H 0.7173 0.1670 0.3229
C9 C 0.8949(3) 0.25441(14) 0.52269(12)
H10 H 0.9794 0.2285 0.5236
H11 H 0.8170 0.2279 0.5352
H12 H 0.9050 0.2919 0.5474
C10 C 0.8049(5) 0.29617(17) 0.28538(13)
C11 C 1.0430(3) 0.36729(12) 0.46239(13)
C12 C 1.1720(5) 0.46895(19) 0.4599(2)
H13 H 1.1578 0.4715 0.5006
H14 H 1.2672 0.4536 0.4528
C13 C 1.1515(5) 0.5326(2) 0.4347(2)
H15 H 1.1795 0.5312 0.3955
H16 H 1.2074 0.5648 0.4544
H17 H 1.0540 0.5446 0.4371
C14 C 0.7661(3) 0.40633(11) 0.38724(10)
C15 C 0.7408(3) 0.46421(12) 0.36099(11)
H18 H 0.7911 0.4826 0.3310
C16 C 0.6219(3) 0.49121(12) 0.38847(11)
C17 C 0.5482(3) 0.55542(12) 0.37991(12)
C18 C 0.5285(4) 0.58170(15) 0.32635(14)
C19 C 0.4546(4) 0.64122(17) 0.31913(18)
H19 H 0.4414 0.6588 0.2830
C20 C 0.4025(4) 0.67305(17) 0.3657(2)
H20 H 0.3524 0.7122 0.3610
C21 C 0.4222(4) 0.64873(16) 0.41887(19)
H21 H 0.3873 0.6714 0.4503
C22 C 0.4955(3) 0.58923(14) 0.42603(14)
H22 H 0.5088 0.5723 0.4624
C23 C 0.5707(7) 0.5708(3) 0.22592(17)
H23 H 0.4731 0.5722 0.2155
H24 H 0.6203 0.5421 0.2003
H25 H 0.6097 0.6146 0.2238
N1 N 0.7698(2) 0.24153(11) 0.43482(9)
O1 O 0.6689(2) 0.39725(9) 0.42782(8)
N2 N 0.5761(3) 0.45185(12) 0.42799(10)
O2 O 0.7549(4) 0.25498(14) 0.25438(10)
O3 O 0.8688(4) 0.35074(13) 0.26536(9)
O4 O 1.1062(2) 0.35429(10) 0.50605(10)
O5 O 1.0695(2) 0.42280(10) 0.43429(9)
O6 O 0.5840(4) 0.54649(14) 0.28239(10)
H26 H 0.733(3) 0.2097(13) 0.4506(11)
C24? C 0.8103(19) 0.3657(9) 0.2063(5)
H27? H 0.7206 0.3441 0.1999
H28? H 0.8003 0.4129 0.1999
C25? C 0.922(2) 0.3372(11) 0.1713(10)
H29? H 1.0111 0.3452 0.1889
H30? H 0.9200 0.3573 0.1344
H31? H 0.9068 0.2904 0.1677
loop_
_geom_bond_atom_site_label_1
_geom_bond_atom_site_label_2
_geom_bond_site_symmetry_1
_geom_bond_site_symmetry_2
C1 H1 1_555 1_555
H2 C1 1_555 1_555
C2 C1 1_555 1_555
H3 C2 1_555 1_555
H4 C2 1_555 1_555
H5 C2 1_555 1_555
C3 C4 1_555 1_555
C4 C5 1_555 1_555
C5 H6 1_555 1_555
C6 C5 1_555 1_555
C7 C6 1_555 1_555
C8 C3 1_555 1_555
H7 C8 1_555 1_555
H8 C8 1_555 1_555
H9 C8 1_555 1_555
C9 C7 1_555 1_555
H10 C9 1_555 1_555
H11 C9 1_555 1_555
H12 C9 1_555 1_555
C10 C4 1_555 1_555
C11 C6 1_555 1_555
C12 H13 1_555 1_555
H14 C12 1_555 1_555
C13 C12 1_555 1_555
H15 C13 1_555 1_555
H16 C13 1_555 1_555
H17 C13 1_555 1_555
C14 C5 1_555 1_555
C15 C14 1_555 1_555
H18 C15 1_555 1_555
C16 C15 1_555 1_555
C17 C16 1_555 1_555
C18 C17 1_555 1_555
C19 C18 1_555 1_555
H19 C19 1_555 1_555
C20 C19 1_555 1_555
H20 C20 1_555 1_555
C21 C20 1_555 1_555
H21 C21 1_555 1_555
C22 C17 1_555 1_555
H22 C22 1_555 1_555
C23 H23 1_555 1_555
H24 C23 1_555 1_555
H25 C23 1_555 1_555
N1 C3 1_555 1_555
O1 C14 1_555 1_555
N2 C16 1_555 1_555
O2 C10 1_555 1_555
O3 C1 1_555 1_555
O4 C11 1_555 1_555
O5 C11 1_555 1_555
O6 C18 1_555 1_555
H26 N1 1_555 1_555
C7 N1 1_555 1_555
C10 O3 1_555 1_555
C12 O5 1_555 1_555
C21 C22 1_555 1_555
C23 O6 1_555 1_555
O1 N2 1_555 1_555

#END
