
#######################################################################
#
#                 Cambridge Crystallographic Data Centre
#                                CCDC 
#
#######################################################################
#
# If this CIF has been generated from an entry in the Cambridge 
# Structural Database, then it will include bibliographic, chemical, 
# crystal, experimental, refinement or atomic coordinate data resulting 
# from the CCDC's data processing and validation procedures.
#
#######################################################################

data_EVIZAL
_chemical_name_common            
1-(6,7-Dihydrothieno[3,2-c]pyridin-5(4H)-yl)-2-(4-((4-methylphenyl)sulfonyl)piperazin-1-yl)ethanone
_chemical_formula_moiety         'C20 H25 N3 O3 S2'
_chemical_name_systematic        
2-[4-(4-Methylphenylsulfonyl)piperazin-1-yl]-1-(4,5,6,7-tetrahydrothieno[3,2-c]pyridin-5-yl)ethanone
_symmetry_cell_setting           orthorhombic
_symmetry_space_group_name_H-M   'P b c a'
_symmetry_Int_Tables_number      61
_space_group_name_Hall           '-P 2ac 2ab'
loop_
_symmetry_equiv_pos_site_id
_symmetry_equiv_pos_as_xyz
1 x,y,z
2 1/2-x,-y,1/2+z
3 -x,1/2+y,1/2-z
4 1/2+x,1/2-y,-z
5 -x,-y,-z
6 1/2+x,y,1/2-z
7 x,1/2-y,1/2+z
8 1/2-x,1/2+y,z
_cell_length_a                   13.062(2)
_cell_length_b                   15.710(3)
_cell_length_c                   19.798(3)
_cell_angle_alpha                90
_cell_angle_beta                 90
_cell_angle_gamma                90
_cell_volume                     4062.63
_exptl_crystal_colour            colorless
_exptl_crystal_description       prism
_cell_formula_units_Z            8
loop_
_atom_site_label
_atom_site_type_symbol
_atom_site_fract_x
_atom_site_fract_y
_atom_site_fract_z
S1 S -0.12585(4) 0.69571(4) 0.50761(3)
S2 S 0.51658(4) 1.09372(3) 0.30610(3)
O1 O 0.13122(12) 1.01184(10) 0.57588(8)
O2 O 0.58272(13) 1.14367(10) 0.34791(9)
O3 O 0.48630(14) 1.12484(11) 0.24122(9)
N1 N 0.12333(13) 0.89002(11) 0.51535(9)
N2 N 0.23688(12) 1.01546(10) 0.41984(8)
N3 N 0.41057(13) 1.07905(11) 0.34905(9)
C1 C -0.11495(17) 0.69019(14) 0.59285(13)
H1 H -0.1601 0.6579 0.6204
C2 C -0.03617(16) 0.73600(13) 0.61798(11)
H2 H -0.0186 0.7390 0.6645
C3 C 0.01696(15) 0.77916(12) 0.56530(10)
C4 C 0.10712(17) 0.83828(14) 0.57598(11)
H3 H 0.0937 0.8758 0.6152
H4 H 0.1694 0.8045 0.5857
C5 C 0.11965(16) 0.84157(14) 0.45193(11)
H5 H 0.1705 0.7949 0.4538
H6 H 0.1384 0.8795 0.4139
C6 C 0.01385(16) 0.80409(14) 0.43904(10)
H7 H -0.0342 0.8495 0.4249
H8 H 0.0174 0.7610 0.4026
C7 C -0.02224(15) 0.76393(13) 0.50316(11)
C8 C 0.13226(14) 0.97516(13) 0.52092(11)
C9 C 0.13997(15) 1.02709(14) 0.45566(12)
H9 H 0.0831 1.0106 0.4253
H10 H 0.1316 1.0882 0.4667
C10 C 0.32177(15) 1.05628(13) 0.45626(11)
H11 H 0.3281 1.0309 0.5018
H12 H 0.3072 1.1177 0.4617
C11 C 0.42175(15) 1.04500(14) 0.41822(10)
H13 H 0.4774 1.0755 0.4420
H14 H 0.4399 0.9839 0.4163
C12 C 0.32501(17) 1.03841(14) 0.31276(11)
H15 H 0.3378 0.9766 0.3081
H16 H 0.3183 1.0632 0.2670
C13 C 0.22808(17) 1.05332(15) 0.35261(11)
H17 H 0.2155 1.1152 0.3568
H18 H 0.1693 1.0278 0.3285
C14 C 0.57571(17) 0.99377(13) 0.29458(10)
C15 C 0.66141(17) 0.97308(14) 0.33228(11)
H19 H 0.6860 1.0112 0.3658
C16 C 0.71122(18) 0.89631(15) 0.32094(12)
H20 H 0.7705 0.8825 0.3465
C17 C 0.67544(18) 0.83934(14) 0.27257(11)
C18 C 0.58779(19) 0.86056(14) 0.23633(11)
H21 H 0.5617 0.8215 0.2040
C19 C 0.53773(18) 0.93727(14) 0.24632(11)
H22 H 0.4785 0.9512 0.2207
C20 C 0.7307(2) 0.75663(16) 0.25933(14)
H23 H 0.7981 0.7581 0.2810
H24 H 0.7392 0.7488 0.2105
H25 H 0.6907 0.7093 0.2778
loop_
_geom_bond_atom_site_label_1
_geom_bond_atom_site_label_2
_geom_bond_site_symmetry_1
_geom_bond_site_symmetry_2
S1 C1 1_555 1_555
S2 O2 1_555 1_555
O1 C8 1_555 1_555
O3 S2 1_555 1_555
N1 C4 1_555 1_555
N2 C9 1_555 1_555
N3 S2 1_555 1_555
C1 H1 1_555 1_555
C2 C1 1_555 1_555
H2 C2 1_555 1_555
C3 C2 1_555 1_555
C4 C3 1_555 1_555
H3 C4 1_555 1_555
H4 C4 1_555 1_555
C5 N1 1_555 1_555
H5 C5 1_555 1_555
H6 C5 1_555 1_555
C6 C5 1_555 1_555
H7 C6 1_555 1_555
H8 C6 1_555 1_555
C7 S1 1_555 1_555
C8 N1 1_555 1_555
C9 C8 1_555 1_555
H9 C9 1_555 1_555
H10 C9 1_555 1_555
C10 N2 1_555 1_555
H11 C10 1_555 1_555
H12 C10 1_555 1_555
C11 N3 1_555 1_555
H13 C11 1_555 1_555
H14 C11 1_555 1_555
C12 N3 1_555 1_555
H15 C12 1_555 1_555
H16 C12 1_555 1_555
C13 N2 1_555 1_555
H17 C13 1_555 1_555
H18 C13 1_555 1_555
C14 S2 1_555 1_555
C15 C14 1_555 1_555
H19 C15 1_555 1_555
C16 C15 1_555 1_555
H20 C16 1_555 1_555
C17 C16 1_555 1_555
C18 C17 1_555 1_555
H21 C18 1_555 1_555
C19 C14 1_555 1_555
H22 C19 1_555 1_555
C20 C17 1_555 1_555
H23 C20 1_555 1_555
H24 C20 1_555 1_555
H25 C20 1_555 1_555
C3 C7 1_555 1_555
C6 C7 1_555 1_555
C10 C11 1_555 1_555
C12 C13 1_555 1_555
C18 C19 1_555 1_555

#END
