
#######################################################################
#
#                 Cambridge Crystallographic Data Centre
#                                CCDC 
#
#######################################################################
#
# If this CIF has been generated from an entry in the Cambridge 
# Structural Database, then it will include bibliographic, chemical, 
# crystal, experimental, refinement or atomic coordinate data resulting 
# from the CCDC's data processing and validation procedures.
#
#######################################################################

data_EVOFAY02
_chemical_formula_moiety         'C16 H20 N4 O2 Si1'
_chemical_name_systematic        
4-((4-(hydrazinocarbonyl)phenyl)(dimethyl)silyl)benzohydrazide
_symmetry_cell_setting           monoclinic
_symmetry_space_group_name_H-M   'P 2/n'
_symmetry_Int_Tables_number      13
_space_group_name_Hall           '-P 2yac'
loop_
_symmetry_equiv_pos_site_id
_symmetry_equiv_pos_as_xyz
1 x,y,z
2 1/2-x,y,1/2-z
3 -x,-y,-z
4 1/2+x,-y,1/2+z
_cell_length_a                   6.6912(13)
_cell_length_b                   9.948(2)
_cell_length_c                   12.747(3)
_cell_angle_alpha                90
_cell_angle_beta                 90.37(3)
_cell_angle_gamma                90
_cell_volume                     848.474
_exptl_crystal_colour            colorless
_exptl_crystal_description       block
_cell_formula_units_Z            2
loop_
_atom_site_label
_atom_site_type_symbol
_atom_site_fract_x
_atom_site_fract_y
_atom_site_fract_z
C1 C 1.1359(2) 0.11184(14) 0.14855(11)
C2 C 0.9822(3) 0.1979(2) 0.17708(13)
H1 H 0.9373 0.1964 0.2460
C3 C 0.8934(3) 0.2857(2) 0.10672(14)
H2 H 0.7892 0.3408 0.1283
C4 C 0.9600(2) 0.29174(15) 0.00366(11)
C5 C 1.1185(3) 0.21185(19) -0.02445(12)
H3 H 1.1694 0.2177 -0.0920
C6 C 1.2036(3) 0.12264(19) 0.04649(13)
H4 H 1.3090 0.0686 0.0249
C7 C 0.8739(2) 0.38500(15) -0.07761(11)
C8 C 1.0519(3) -0.10685(17) 0.31171(13)
H5 H 1.0089 -0.1752 0.2634
H6 H 0.9404 -0.0507 0.3295
H7 H 1.1040 -0.1483 0.3741
N1 N 0.7000(2) 0.44309(14) -0.05353(10)
H8 H 0.6454 0.4375 0.0115
N2 N 0.6013(2) 0.53419(15) -0.12202(11)
H9 H 0.5794 0.4919 -0.1817
H10 H 0.7002 0.6094 -0.1363
O1 O 0.95757(19) 0.40442(14) -0.16122(9)
Si1 Si 1.2500 -0.00294(5) 0.2500
C1A C 1.3641(2) 0.11184(14) 0.35145(11)
C2A C 1.5178(3) 0.1979(2) 0.32292(13)
H1A H 1.5627 0.1964 0.2540
C3A C 1.6066(3) 0.2857(2) 0.39328(14)
H2A H 1.7108 0.3408 0.3717
C4A C 1.5400(2) 0.29174(15) 0.49634(11)
C5A C 1.3815(3) 0.21185(19) 0.52445(12)
H3A H 1.3306 0.2177 0.5920
C6A C 1.2964(3) 0.12264(19) 0.45351(13)
H4A H 1.1910 0.0686 0.4751
C7A C 1.6261(2) 0.38500(15) 0.57761(11)
C8A C 1.4481(3) -0.10685(17) 0.18829(13)
H5A H 1.4911 -0.1752 0.2366
H6A H 1.5596 -0.0507 0.1705
H7A H 1.3960 -0.1483 0.1259
N1A N 1.8000(2) 0.44309(14) 0.55353(10)
H8A H 1.8546 0.4375 0.4885
N2A N 1.8987(2) 0.53419(15) 0.62202(11)
H9A H 1.9206 0.4919 0.6817
H10A H 1.7998 0.6094 0.6363
O1A O 1.54243(19) 0.40442(14) 0.66122(9)
loop_
_geom_bond_atom_site_label_1
_geom_bond_atom_site_label_2
_geom_bond_site_symmetry_1
_geom_bond_site_symmetry_2
C1 C2 1_555 1_555
C2 H1 1_555 1_555
C3 C2 1_555 1_555
H2 C3 1_555 1_555
C4 C3 1_555 1_555
C5 C4 1_555 1_555
H3 C5 1_555 1_555
C6 C1 1_555 1_555
H4 C6 1_555 1_555
C7 C4 1_555 1_555
C8 H5 1_555 1_555
H6 C8 1_555 1_555
H7 C8 1_555 1_555
N1 C7 1_555 1_555
H8 N1 1_555 1_555
N2 N1 1_555 1_555
H9 N2 1_555 1_555
H10 N2 1_555 1_555
O1 C7 1_555 1_555
Si1 C1 1_555 1_555
C1A Si1 1_555 1_555
C2A C1A 1_555 1_555
H1A C2A 1_555 1_555
C3A C2A 1_555 1_555
H2A C3A 1_555 1_555
C4A C3A 1_555 1_555
C5A C4A 1_555 1_555
H3A C5A 1_555 1_555
C6A C1A 1_555 1_555
H4A C6A 1_555 1_555
C7A C4A 1_555 1_555
C8A Si1 1_555 1_555
H5A C8A 1_555 1_555
H6A C8A 1_555 1_555
H7A C8A 1_555 1_555
N1A C7A 1_555 1_555
H8A N1A 1_555 1_555
N2A N1A 1_555 1_555
H9A N2A 1_555 1_555
H10A N2A 1_555 1_555
O1A C7A 1_555 1_555
C5 C6 1_555 1_555
C8 Si1 1_555 1_555
C5A C6A 1_555 1_555

#END
