
#######################################################################
#
#                 Cambridge Crystallographic Data Centre
#                                CCDC 
#
#######################################################################
#
# If this CIF has been generated from an entry in the Cambridge 
# Structural Database, then it will include bibliographic, chemical, 
# crystal, experimental, refinement or atomic coordinate data resulting 
# from the CCDC's data processing and validation procedures.
#
#######################################################################

data_EVOGED
_chemical_formula_moiety         'C17 H9 Cl1 N1 O5 S1 1-,C6 H16 N1 1+,H2 O1'
_chemical_name_systematic        
'triethylammonium 2-(5-chloro-2-hydroxyphenyl)naphtho[1,2-d][1,3]oxazole-5-sulfonate monohydrate'
_symmetry_cell_setting           monoclinic
_symmetry_space_group_name_H-M   'P 21/c'
_symmetry_Int_Tables_number      14
_space_group_name_Hall           '-P 2ybc'
loop_
_symmetry_equiv_pos_site_id
_symmetry_equiv_pos_as_xyz
1 x,y,z
2 -x,1/2+y,1/2-z
3 -x,-y,-z
4 x,1/2-y,1/2+z
_cell_length_a                   20.214(4)
_cell_length_b                   6.8720(14)
_cell_length_c                   17.640(4)
_cell_angle_alpha                90
_cell_angle_beta                 113.22(3)
_cell_angle_gamma                90
_cell_volume                     2251.9
_exptl_crystal_colour            yellow
_exptl_crystal_description       block
_cell_formula_units_Z            4
loop_
_atom_site_label
_atom_site_type_symbol
_atom_site_fract_x
_atom_site_fract_y
_atom_site_fract_z
Cl1 Cl 1.12199(4) 0.63951(11) 0.01023(4)
S1 S 0.66833(4) 0.71637(11) 0.12864(4)
N1 N 0.98623(12) 0.6420(3) 0.28253(13)
O1 O 0.92928(10) 0.6634(3) 0.14433(11)
O2 O 1.12946(11) 0.6506(3) 0.34645(11)
H1 H 1.0877 0.6500 0.3458
O3 O 0.65313(11) 0.8965(3) 0.16089(13)
O4 O 0.63212(11) 0.5485(3) 0.14439(13)
O5 O 0.65533(10) 0.7297(3) 0.04101(12)
C1 C 0.91196(14) 0.6507(4) 0.26129(16)
C2 C 0.87751(15) 0.6628(4) 0.17740(16)
C3 C 0.80341(14) 0.6796(4) 0.13442(16)
H2 H 0.7820 0.6915 0.0761
C4 C 0.76292(15) 0.6780(4) 0.18163(17)
C5 C 0.79541(15) 0.6593(4) 0.27046(17)
C6 C 0.75456(16) 0.6520(4) 0.31958(18)
H3 H 0.7035 0.6555 0.2939
C7 C 0.78783(16) 0.6397(4) 0.40393(18)
H4 H 0.7593 0.6356 0.4357
C8 C 0.86296(16) 0.6331(4) 0.44411(17)
H5 H 0.8850 0.6264 0.5026
C9 C 0.90479(15) 0.6362(4) 0.39869(17)
H6 H 0.9557 0.6304 0.4257
C10 C 0.87186(15) 0.6481(4) 0.31221(16)
C11 C 0.99264(15) 0.6503(4) 0.21180(16)
C12 C 1.05923(14) 0.6482(4) 0.19904(16)
C13 C 1.12555(15) 0.6498(4) 0.26799(16)
C14 C 1.18975(15) 0.6505(4) 0.25577(17)
H7 H 1.2345 0.6523 0.3020
C15 C 1.18856(15) 0.6487(4) 0.17731(17)
H8 H 1.2324 0.6503 0.1695
C16 C 1.12295(15) 0.6443(4) 0.10910(16)
C17 C 1.05846(15) 0.6443(4) 0.11894(16)
H9 H 1.0141 0.6417 0.0721
N2 N 0.40412(13) 0.5873(4) 0.06232(15)
H10 H 0.3863(16) 0.494(3) 0.0257(13)
C18 C 0.45169(17) 0.7191(5) 0.03728(19)
H11 H 0.4268 0.7509 -0.0220
H12 H 0.4965 0.6486 0.0446
C19 C 0.47097(17) 0.9055(5) 0.0859(2)
H13 H 0.4282 0.9884 0.0703
H14 H 0.5085 0.9735 0.0741
H15 H 0.4888 0.8759 0.1449
C20 C 0.33736(16) 0.6840(5) 0.06178(18)
H16 H 0.3073 0.5860 0.0745
H17 H 0.3512 0.7844 0.1056
C21 C 0.29377(16) 0.7776(5) -0.01993(18)
H18 H 0.3210 0.8863 -0.0294
H19 H 0.2483 0.8261 -0.0194
H20 H 0.2836 0.6815 -0.0641
C22 C 0.44675(16) 0.4872(5) 0.14283(18)
H21 H 0.4636 0.5857 0.1874
H22 H 0.4897 0.4256 0.1393
C23 C 0.40375(19) 0.3341(5) 0.16478(19)
H23 H 0.3669 0.3972 0.1793
H24 H 0.4359 0.2579 0.2119
H25 H 0.3806 0.2478 0.1174
O6 O 0.61012(14) 0.2270(3) 0.22998(14)
H26 H 0.6227 0.1281 0.2133
H27 H 0.6293 0.3184 0.2166
loop_
_geom_bond_atom_site_label_1
_geom_bond_atom_site_label_2
_geom_bond_site_symmetry_1
_geom_bond_site_symmetry_2
Cl1 C16 1_555 1_555
S1 O3 1_555 1_555
N1 C1 1_555 1_555
O1 C2 1_555 1_555
O2 H1 1_555 1_555
O4 S1 1_555 1_555
O5 S1 1_555 1_555
C1 C2 1_555 1_555
C2 C3 1_555 1_555
C3 H2 1_555 1_555
C4 S1 1_555 1_555
C5 C4 1_555 1_555
C6 C5 1_555 1_555
H3 C6 1_555 1_555
C7 C6 1_555 1_555
H4 C7 1_555 1_555
C8 C7 1_555 1_555
H5 C8 1_555 1_555
C9 C8 1_555 1_555
H6 C9 1_555 1_555
C10 C1 1_555 1_555
C11 N1 1_555 1_555
C12 C11 1_555 1_555
C13 O2 1_555 1_555
C14 C13 1_555 1_555
H7 C14 1_555 1_555
C15 C14 1_555 1_555
H8 C15 1_555 1_555
C16 C15 1_555 1_555
C17 C12 1_555 1_555
H9 C17 1_555 1_555
N2 H10 1_555 1_555
C18 N2 1_555 1_555
H11 C18 1_555 1_555
H12 C18 1_555 1_555
C19 C18 1_555 1_555
H13 C19 1_555 1_555
H14 C19 1_555 1_555
H15 C19 1_555 1_555
C20 N2 1_555 1_555
H16 C20 1_555 1_555
H17 C20 1_555 1_555
C21 C20 1_555 1_555
H18 C21 1_555 1_555
H19 C21 1_555 1_555
H20 C21 1_555 1_555
C22 N2 1_555 1_555
H21 C22 1_555 1_555
H22 C22 1_555 1_555
C23 C22 1_555 1_555
H23 C23 1_555 1_555
H24 C23 1_555 1_555
H25 C23 1_555 1_555
O6 H26 1_555 1_555
H27 O6 1_555 1_555
O1 C11 1_555 1_555
C3 C4 1_555 1_555
C5 C10 1_555 1_555
C9 C10 1_555 1_555
C12 C13 1_555 1_555
C16 C17 1_555 1_555

#END
