
#######################################################################
#
#                 Cambridge Crystallographic Data Centre
#                                CCDC 
#
#######################################################################
#
# If this CIF has been generated from an entry in the Cambridge 
# Structural Database, then it will include bibliographic, chemical, 
# crystal, experimental, refinement or atomic coordinate data resulting 
# from the CCDC's data processing and validation procedures.
#
#######################################################################

data_EVOKUW
_chemical_formula_moiety         'C16 H16 N2 O5,C1 H4 O1'
_chemical_name_systematic        
"N'-(3,4-Dimethoxybenzylidene)-3,5-dihydroxybenzohydrazide methanol solvate"
_symmetry_cell_setting           monoclinic
_symmetry_space_group_name_H-M   'P 21/c'
_symmetry_Int_Tables_number      14
_space_group_name_Hall           '-P 2ybc'
loop_
_symmetry_equiv_pos_site_id
_symmetry_equiv_pos_as_xyz
1 x,y,z
2 -x,1/2+y,1/2-z
3 -x,-y,-z
4 x,1/2-y,1/2+z
_cell_length_a                   12.467(3)
_cell_length_b                   12.201(3)
_cell_length_c                   11.149(3)
_cell_angle_alpha                90
_cell_angle_beta                 91.191(3)
_cell_angle_gamma                90
_cell_volume                     1695.51
_exptl_crystal_colour            colorless
_exptl_crystal_description       block
_cell_formula_units_Z            4
loop_
_atom_site_label
_atom_site_type_symbol
_atom_site_fract_x
_atom_site_fract_y
_atom_site_fract_z
H1 H 0.492(3) 0.340(3) 0.619(3)
N1 N 0.38492(18) 0.42464(18) 0.54230(19)
O1 O 0.44125(17) 0.56294(14) 0.72026(18)
O2 O 0.65292(18) 0.18020(14) 0.96344(19)
H2 H 0.6297 0.1410 0.9091
O3 O 0.70583(18) 0.55400(15) 1.06156(18)
H3 H 0.7458 0.5258 1.1121
N2 N 0.4573(2) 0.3984(2) 0.6318(2)
C1 C 0.3653(2) 0.3502(2) 0.4648(2)
H4 H 0.4011 0.2835 0.4716
C2 C 0.2892(2) 0.3658(2) 0.3669(2)
C3 C 0.5705(2) 0.3194(2) 0.8382(2)
H5 H 0.5406 0.2673 0.7867
C4 C 0.5969(2) 0.5075(2) 0.8954(2)
H6 H 0.5834 0.5817 0.8830
C5 C 0.4798(2) 0.4703(2) 0.7203(2)
O4 O 0.10563(17) 0.57181(16) 0.23529(19)
O5 O 0.06565(17) 0.41280(18) 0.09236(18)
C6 C 0.6621(2) 0.4745(2) 0.9900(2)
C7 C 0.6813(2) 0.3649(2) 1.0103(2)
H7 H 0.7253 0.3430 1.0743
C8 C 0.5515(2) 0.43046(19) 0.8190(2)
C9 C 0.2689(2) 0.2816(2) 0.2869(2)
H8 H 0.3055 0.2156 0.2958
C10 C 0.1620(2) 0.4774(2) 0.2587(2)
C11 C 0.2352(2) 0.4653(2) 0.3514(2)
H9 H 0.2488 0.5232 0.4038
C12 C 0.1404(2) 0.3909(2) 0.1795(2)
C13 C 0.6346(2) 0.2874(2) 0.9350(2)
C14 C 0.1950(2) 0.2940(2) 0.1939(3)
H10 H 0.1821 0.2365 0.1409
C15 C 0.0472(3) 0.3318(3) 0.0018(3)
H11 H 0.1120 0.3200 -0.0414
H12 H -0.0083 0.3565 -0.0527
H13 H 0.0255 0.2644 0.0386
C16 C 0.1393(3) 0.6683(3) 0.2954(3)
H14 H 0.1316 0.6589 0.3803
H15 H 0.0961 0.7289 0.2684
H16 H 0.2132 0.6825 0.2783
C17 C 0.8698(4) 0.4724(4) 1.3338(3)
H17 H 0.9159 0.5304 1.3616
H18 H 0.8985 0.4032 1.3598
H19 H 0.7995 0.4821 1.3658
O6 O 0.8632(2) 0.4745(3) 1.2114(3)
H20 H 0.9237 0.4726 1.1841
loop_
_geom_bond_atom_site_label_1
_geom_bond_atom_site_label_2
_geom_bond_site_symmetry_1
_geom_bond_site_symmetry_2
H1 N2 1_555 1_555
N1 N2 1_555 1_555
O1 C5 1_555 1_555
O2 H2 1_555 1_555
O3 H3 1_555 1_555
N2 C5 1_555 1_555
C1 N1 1_555 1_555
H4 C1 1_555 1_555
C2 C1 1_555 1_555
C3 H5 1_555 1_555
C4 H6 1_555 1_555
C5 C8 1_555 1_555
O4 C10 1_555 1_555
O5 C12 1_555 1_555
C6 O3 1_555 1_555
C7 C6 1_555 1_555
H7 C7 1_555 1_555
C8 C3 1_555 1_555
C9 C2 1_555 1_555
H8 C9 1_555 1_555
C10 C11 1_555 1_555
C11 C2 1_555 1_555
H9 C11 1_555 1_555
C12 C10 1_555 1_555
C13 O2 1_555 1_555
C14 C9 1_555 1_555
H10 C14 1_555 1_555
C15 O5 1_555 1_555
H11 C15 1_555 1_555
H12 C15 1_555 1_555
H13 C15 1_555 1_555
C16 O4 1_555 1_555
H14 C16 1_555 1_555
H15 C16 1_555 1_555
H16 C16 1_555 1_555
C17 H17 1_555 1_555
H18 C17 1_555 1_555
H19 C17 1_555 1_555
O6 C17 1_555 1_555
H20 O6 1_555 1_555
C3 C13 1_555 1_555
C4 C6 1_555 1_555
C4 C8 1_555 1_555
C7 C13 1_555 1_555
C12 C14 1_555 1_555

#END
