
#######################################################################
#
#                 Cambridge Crystallographic Data Centre
#                                CCDC 
#
#######################################################################
#
# If this CIF has been generated from an entry in the Cambridge 
# Structural Database, then it will include bibliographic, chemical, 
# crystal, experimental, refinement or atomic coordinate data resulting 
# from the CCDC's data processing and validation procedures.
#
#######################################################################

data_EVOQAI
_chemical_name_common            
N-(3-Methylphenyl)-N-(2-(2-nitrophenyl)acetoxy)benzamide
_chemical_formula_moiety         'C22 H18 N2 O5'
_chemical_name_systematic        
N-Benzoyl-N-(3-methylphenyl)-O-[2-(2-nitrophenyl)acetyl]hydroxylamine
_symmetry_cell_setting           monoclinic
_symmetry_space_group_name_H-M   'P 21/c'
_symmetry_Int_Tables_number      14
_space_group_name_Hall           '-P 2ybc'
loop_
_symmetry_equiv_pos_site_id
_symmetry_equiv_pos_as_xyz
1 x,y,z
2 -x,1/2+y,1/2-z
3 -x,-y,-z
4 x,1/2-y,1/2+z
_cell_length_a                   16.34(2)
_cell_length_b                   8.459(10)
_cell_length_c                   14.862(18)
_cell_angle_alpha                90
_cell_angle_beta                 109.869(11)
_cell_angle_gamma                90
_cell_volume                     1931.94
_exptl_crystal_colour            yellow
_exptl_crystal_description       block
_cell_formula_units_Z            4
loop_
_atom_site_label
_atom_site_type_symbol
_atom_site_fract_x
_atom_site_fract_y
_atom_site_fract_z
C1 C 0.09639(15) 0.0309(3) 1.13097(16)
C2 C 0.01484(17) -0.0114(4) 1.13187(18)
H1 H -0.0264 0.0653 1.1303
C3 C -0.0036(2) -0.1670(5) 1.1352(2)
H2 H -0.0583 -0.1977 1.1349
C4 C 0.0570(2) -0.2781(4) 1.1388(2)
H3 H 0.0439 -0.3846 1.1412
C5 C 0.13830(19) -0.2336(3) 1.13877(19)
H4 H 0.1792 -0.3114 1.1414
C6 C 0.16037(15) -0.0779(3) 1.13499(15)
C7 C 0.25040(15) -0.0379(3) 1.13676(16)
H5 H 0.2704 0.0563 1.1752
H6 H 0.2895 -0.1237 1.1668
C8 C 0.25400(15) -0.0102(3) 1.03894(17)
C9 C 0.38632(13) -0.0232(3) 0.93782(15)
C10 C 0.39160(13) -0.0260(2) 0.83950(14)
C11 C 0.32888(15) 0.0383(3) 0.76029(15)
H7 H 0.2829 0.0956 0.7674
C12 C 0.33474(18) 0.0170(3) 0.67094(16)
H8 H 0.2928 0.0610 0.6178
C13 C 0.40156(19) -0.0683(3) 0.65957(18)
H9 H 0.4049 -0.0825 0.5988
C14 C 0.46365(18) -0.1331(3) 0.73773(19)
H10 H 0.5092 -0.1912 0.7302
C15 C 0.45842(15) -0.1119(3) 0.82721(16)
H11 H 0.5006 -0.1562 0.8801
C16 C 0.32922(14) 0.2572(2) 0.92940(13)
C17 C 0.25051(15) 0.3294(3) 0.91822(15)
H12 H 0.2056 0.2701 0.9264
C18 C 0.23706(15) 0.4868(3) 0.89531(15)
C19 C 0.30418(17) 0.5693(3) 0.88050(16)
H13 H 0.2965 0.6755 0.8634
C20 C 0.38237(16) 0.4971(3) 0.89061(16)
H14 H 0.4264 0.5551 0.8797
C21 C 0.39630(15) 0.3411(3) 0.91646(15)
H15 H 0.4497 0.2935 0.9250
C22 C 0.15279(17) 0.5646(3) 0.8891(2)
H16 H 0.1062 0.5181 0.8377
H17 H 0.1560 0.6756 0.8772
H18 H 0.1422 0.5498 0.9482
N1 N 0.33979(12) 0.0969(2) 0.95831(12)
N2 N 0.11232(16) 0.1993(3) 1.12655(17)
O1 O 0.20433(11) -0.0556(2) 0.96539(12)
O2 O 0.32692(9) 0.07666(17) 1.04773(9)
O3 O 0.41541(10) -0.12978(17) 0.99348(10)
O4 O 0.16263(14) 0.2435(2) 1.08809(14)
O5 O 0.0756(2) 0.2889(3) 1.1631(2)
loop_
_geom_bond_atom_site_label_1
_geom_bond_atom_site_label_2
_geom_bond_site_symmetry_1
_geom_bond_site_symmetry_2
C1 C2 1_555 1_555
C2 H1 1_555 1_555
C3 C2 1_555 1_555
H2 C3 1_555 1_555
C4 C3 1_555 1_555
H3 C4 1_555 1_555
C5 C4 1_555 1_555
H4 C5 1_555 1_555
C6 C1 1_555 1_555
C7 C6 1_555 1_555
H5 C7 1_555 1_555
H6 C7 1_555 1_555
C8 C7 1_555 1_555
C9 C10 1_555 1_555
C10 C11 1_555 1_555
C11 H7 1_555 1_555
C12 C11 1_555 1_555
H8 C12 1_555 1_555
C13 C12 1_555 1_555
H9 C13 1_555 1_555
C14 C13 1_555 1_555
H10 C14 1_555 1_555
C15 C10 1_555 1_555
H11 C15 1_555 1_555
C16 C17 1_555 1_555
C17 H12 1_555 1_555
C18 C17 1_555 1_555
C19 C18 1_555 1_555
H13 C19 1_555 1_555
C20 C19 1_555 1_555
H14 C20 1_555 1_555
C21 C16 1_555 1_555
H15 C21 1_555 1_555
C22 C18 1_555 1_555
H16 C22 1_555 1_555
H17 C22 1_555 1_555
H18 C22 1_555 1_555
N1 C9 1_555 1_555
N2 C1 1_555 1_555
O1 C8 1_555 1_555
O2 C8 1_555 1_555
O3 C9 1_555 1_555
O4 N2 1_555 1_555
O5 N2 1_555 1_555
C5 C6 1_555 1_555
C14 C15 1_555 1_555
C16 N1 1_555 1_555
C20 C21 1_555 1_555
N1 O2 1_555 1_555

#END
