
#######################################################################
#
#                 Cambridge Crystallographic Data Centre
#                                CCDC 
#
#######################################################################
#
# If this CIF has been generated from an entry in the Cambridge 
# Structural Database, then it will include bibliographic, chemical, 
# crystal, experimental, refinement or atomic coordinate data resulting 
# from the CCDC's data processing and validation procedures.
#
#######################################################################

data_EVOROX
_chemical_formula_moiety         'C8 H7 Cl1 N4'
_chemical_name_systematic        5-(4-Chlorobenzyl)-1H-tetrazole
_symmetry_cell_setting           monoclinic
_symmetry_space_group_name_H-M   'P 21/c'
_symmetry_Int_Tables_number      14
_space_group_name_Hall           '-P 2ybc'
loop_
_symmetry_equiv_pos_site_id
_symmetry_equiv_pos_as_xyz
1 x,y,z
2 -x,1/2+y,1/2-z
3 -x,-y,-z
4 x,1/2-y,1/2+z
_cell_length_a                   14.654(3)
_cell_length_b                   4.9321(10)
_cell_length_c                   12.688(3)
_cell_angle_alpha                90
_cell_angle_beta                 105.63(3)
_cell_angle_gamma                90
_cell_volume                     883.115
_exptl_crystal_colour            colorless
_exptl_crystal_description       block
_cell_formula_units_Z            4
loop_
_atom_site_label
_atom_site_type_symbol
_atom_site_fract_x
_atom_site_fract_y
_atom_site_fract_z
C1 C 0.37038(9) 0.2990(3) 1.07319(14)
C2 C 0.29853(11) 0.4022(3) 1.11205(14)
H1 H 0.2911 0.3450 1.1791
C3 C 0.23731(10) 0.5923(3) 1.05032(13)
H2 H 0.1891 0.6638 1.0768
C4 C 0.24675(9) 0.6773(3) 0.95005(12)
C5 C 0.31899(11) 0.5667(3) 0.91227(15)
H3 H 0.3259 0.6203 0.8446
C6 C 0.38090(11) 0.3781(3) 0.97347(15)
H4 H 0.4292 0.3057 0.9473
C7 C 0.18309(10) 0.8938(3) 0.88444(14)
H5 H 0.2059 1.0694 0.9149
H6 H 0.1887 0.8888 0.8100
C8 C 0.08089(9) 0.8704(2) 0.88086(11)
Cl1 Cl 0.44739(3) 0.06175(9) 1.15206(5)
N1 N 0.03034(8) 0.6471(2) 0.87394(9)
N2 N -0.06056(8) 0.7269(2) 0.86416(10)
N3 N -0.06566(8) 0.9885(2) 0.86545(10)
N4 N 0.02296(8) 1.0797(2) 0.87674(9)
H7 H 0.0343(11) 1.2592(6) 0.8810(12)
loop_
_geom_bond_atom_site_label_1
_geom_bond_atom_site_label_2
_geom_bond_site_symmetry_1
_geom_bond_site_symmetry_2
C1 C2 1_555 1_555
C2 H1 1_555 1_555
C3 C2 1_555 1_555
H2 C3 1_555 1_555
C4 C3 1_555 1_555
C5 C4 1_555 1_555
H3 C5 1_555 1_555
C6 C1 1_555 1_555
H4 C6 1_555 1_555
C7 C4 1_555 1_555
H5 C7 1_555 1_555
H6 C7 1_555 1_555
C8 C7 1_555 1_555
Cl1 C1 1_555 1_555
N1 C8 1_555 1_555
N2 N1 1_555 1_555
N3 N2 1_555 1_555
N4 C8 1_555 1_555
H7 N4 1_555 1_555
C5 C6 1_555 1_555
N3 N4 1_555 1_555

#END
