
#######################################################################
#
#                 Cambridge Crystallographic Data Centre
#                                CCDC 
#
#######################################################################
#
# If this CIF has been generated from an entry in the Cambridge 
# Structural Database, then it will include bibliographic, chemical, 
# crystal, experimental, refinement or atomic coordinate data resulting 
# from the CCDC's data processing and validation procedures.
#
#######################################################################

data_EVOSEP
_chemical_formula_moiety         'C20 H22 N3 O1 1+,Cl1 1-'
_chemical_name_systematic        
'(4-(diethylamino)-2-hydroxyphenyl)-N-(quinolin-8-yl)methaniminium chloride'
_symmetry_cell_setting           monoclinic
_symmetry_space_group_name_H-M   'P 21/c'
_symmetry_Int_Tables_number      14
_space_group_name_Hall           '-P 2ybc'
loop_
_symmetry_equiv_pos_site_id
_symmetry_equiv_pos_as_xyz
1 x,y,z
2 -x,1/2+y,1/2-z
3 -x,-y,-z
4 x,1/2-y,1/2+z
_cell_length_a                   12.0963(5)
_cell_length_b                   10.4477(6)
_cell_length_c                   14.2604(7)
_cell_angle_alpha                90
_cell_angle_beta                 100.473(4)
_cell_angle_gamma                90
_cell_volume                     1772.18
_exptl_crystal_colour            'light yellow'
_exptl_crystal_description       block
_cell_formula_units_Z            4
loop_
_atom_site_label
_atom_site_type_symbol
_atom_site_fract_x
_atom_site_fract_y
_atom_site_fract_z
O1 O -0.13892(13) 0.83721(16) 0.62336(11)
H1 H -0.167(3) 0.803(3) 0.6674(19)
N1 N 0.07866(14) 0.62825(18) 0.55717(12)
N2 N -0.04109(14) 0.82151(17) 0.46919(12)
H2 H -0.0408 0.7948 0.5263
N3 N -0.45515(14) 1.11521(18) 0.60726(13)
C1 C 0.13242(18) 0.5280(2) 0.59940(16)
H3 H 0.1242 0.5099 0.6616
C2 C 0.20125(18) 0.4468(2) 0.55660(16)
H4 H 0.2370 0.3773 0.5899
C3 C 0.21496(17) 0.4713(2) 0.46566(16)
H5 H 0.2603 0.4185 0.4362
C4 C 0.15987(17) 0.5774(2) 0.41637(15)
C5 C 0.16770(18) 0.6098(2) 0.32155(16)
H6 H 0.2128 0.5613 0.2888
C6 C 0.10955(18) 0.7114(2) 0.27792(16)
H7 H 0.1162 0.7321 0.2158
C7 C 0.03939(18) 0.7861(2) 0.32509(15)
H8 H -0.0005 0.8546 0.2939
C8 C 0.03041(17) 0.7570(2) 0.41721(15)
C9 C 0.09115(16) 0.6526(2) 0.46517(14)
C10 C -0.10846(17) 0.9185(2) 0.43985(15)
H9 H -0.1036 0.9537 0.3809
C11 C -0.18679(17) 0.9732(2) 0.48948(14)
C12 C -0.20585(17) 0.9309(2) 0.57979(15)
C13 C -0.29090(17) 0.9817(2) 0.62015(15)
H10 H -0.3000 0.9543 0.6803
C14 C -0.36487(17) 1.0749(2) 0.57194(15)
C15 C -0.34243(18) 1.1225(2) 0.48340(15)
H11 H -0.3865 1.1877 0.4518
C16 C -0.25665(18) 1.0727(2) 0.44535(15)
H12 H -0.2434 1.1054 0.3878
C17 C -0.53103(18) 1.2149(2) 0.55988(17)
H13 H -0.6022 1.2088 0.5817
H14 H -0.5453 1.1991 0.4917
C18 C -0.4857(2) 1.3493(2) 0.57796(18)
H15 H -0.5381 1.4092 0.5436
H16 H -0.4149 1.3562 0.5568
H17 H -0.4752 1.3676 0.6450
C19 C -0.4169(2) 1.1451(3) 0.78330(17)
H18 H -0.4431 1.2320 0.7786
H19 H -0.3376 1.1436 0.7834
H20 H -0.4316 1.1079 0.8414
C20 C -0.47767(19) 1.0693(2) 0.69921(15)
H21 H -0.4552 0.9803 0.7072
H22 H -0.5579 1.0736 0.6986
Cl1 Cl -0.26432(5) 0.70558(6) 0.75425(4)
loop_
_geom_bond_atom_site_label_1
_geom_bond_atom_site_label_2
_geom_bond_site_symmetry_1
_geom_bond_site_symmetry_2
O1 H1 1_555 1_555
N1 C1 1_555 1_555
N2 H2 1_555 1_555
N3 C14 1_555 1_555
C1 H3 1_555 1_555
C2 C1 1_555 1_555
H4 C2 1_555 1_555
C3 C2 1_555 1_555
H5 C3 1_555 1_555
C4 C3 1_555 1_555
C5 C4 1_555 1_555
H6 C5 1_555 1_555
C6 C5 1_555 1_555
H7 C6 1_555 1_555
C7 C6 1_555 1_555
H8 C7 1_555 1_555
C8 N2 1_555 1_555
C9 N1 1_555 1_555
C10 N2 1_555 1_555
H9 C10 1_555 1_555
C11 C10 1_555 1_555
C12 O1 1_555 1_555
C13 C12 1_555 1_555
H10 C13 1_555 1_555
C14 C13 1_555 1_555
C15 C14 1_555 1_555
H11 C15 1_555 1_555
C16 C11 1_555 1_555
H12 C16 1_555 1_555
C17 N3 1_555 1_555
H13 C17 1_555 1_555
H14 C17 1_555 1_555
C18 C17 1_555 1_555
H15 C18 1_555 1_555
H16 C18 1_555 1_555
H17 C18 1_555 1_555
C19 H18 1_555 1_555
H19 C19 1_555 1_555
H20 C19 1_555 1_555
C20 N3 1_555 1_555
H21 C20 1_555 1_555
H22 C20 1_555 1_555
C4 C9 1_555 1_555
C7 C8 1_555 1_555
C8 C9 1_555 1_555
C11 C12 1_555 1_555
C15 C16 1_555 1_555
C19 C20 1_555 1_555

#END
