
#######################################################################
#
#                 Cambridge Crystallographic Data Centre
#                                CCDC 
#
#######################################################################
#
# If this CIF has been generated from an entry in the Cambridge 
# Structural Database, then it will include bibliographic, chemical, 
# crystal, experimental, refinement or atomic coordinate data resulting 
# from the CCDC's data processing and validation procedures.
#
#######################################################################

data_EVOSAJ
_chemical_name_common            1-isocyano-4-nitrobenzene
_chemical_formula_moiety         'C7 H4 N2 O2'
_chemical_name_systematic        'p-Nitrophenyl isocyanide'
_symmetry_cell_setting           orthorhombic
_symmetry_space_group_name_H-M   'P 21 21 21'
_symmetry_Int_Tables_number      19
_space_group_name_Hall           'P 2ac 2ab'
loop_
_symmetry_equiv_pos_site_id
_symmetry_equiv_pos_as_xyz
1 x,y,z
2 1/2-x,-y,1/2+z
3 -x,1/2+y,1/2-z
4 1/2+x,1/2-y,-z
_cell_length_a                   5.0127(8)
_cell_length_b                   6.0320(9)
_cell_length_c                   21.790(3)
_cell_angle_alpha                90
_cell_angle_beta                 90
_cell_angle_gamma                90
_cell_volume                     658.856
_exptl_crystal_colour            colorless
_exptl_crystal_description       plate
_cell_formula_units_Z            4
_exptl_crystal_recrystallization_method 'hot acetone'
loop_
_atom_site_label
_atom_site_type_symbol
_atom_site_fract_x
_atom_site_fract_y
_atom_site_fract_z
N1 N 0.9952(3) 0.1846(2) 0.05838(5)
O1 O 1.1083(2) 0.08980(18) 0.01585(5)
N2 N 0.1867(3) -0.2688(2) 0.18229(5)
C1 C 0.7026(3) -0.1394(2) 0.06865(6)
O2 O 1.0504(2) 0.37257(17) 0.07555(5)
C2 C 0.7827(3) 0.0656(2) 0.09092(6)
C3 C 0.4719(3) 0.0496(2) 0.17331(6)
C4 C 0.5023(3) -0.2517(2) 0.09935(6)
C5 C 0.3901(3) -0.1565(2) 0.15112(6)
C6 C 0.6724(3) 0.1617(2) 0.14264(6)
C7 C 0.0132(3) -0.3569(3) 0.20720(6)
H1 H 0.446(4) -0.390(3) 0.0854(8)
H2 H 0.775(4) -0.198(3) 0.0333(8)
H3 H 0.732(4) 0.300(3) 0.1570(9)
H4 H 0.385(4) 0.106(3) 0.2088(8)
loop_
_geom_bond_atom_site_label_1
_geom_bond_atom_site_label_2
_geom_bond_site_symmetry_1
_geom_bond_site_symmetry_2
N1 O1 1_555 1_555
N2 C5 1_555 1_555
C1 C2 1_555 1_555
O2 N1 1_555 1_555
C2 N1 1_555 1_555
C3 C5 1_555 1_555
C4 C1 1_555 1_555
C5 C4 1_555 1_555
C6 C2 1_555 1_555
C7 N2 1_555 1_555
H1 C4 1_555 1_555
H2 C1 1_555 1_555
H3 C6 1_555 1_555
H4 C3 1_555 1_555
C3 C6 1_555 1_555

#END
