
#######################################################################
#
#                 Cambridge Crystallographic Data Centre
#                                CCDC 
#
#######################################################################
#
# If this CIF has been generated from an entry in the Cambridge 
# Structural Database, then it will include bibliographic, chemical, 
# crystal, experimental, refinement or atomic coordinate data resulting 
# from the CCDC's data processing and validation procedures.
#
#######################################################################

data_EVUHIO
_chemical_formula_moiety         'C23 H22 Cl1 N1 O4'
_chemical_name_systematic        
'diethyl 4-(4-chlorophenyl)-1-(4-methylphenyl)-1H-pyrrole-2,3-dicarboxylate'
_symmetry_cell_setting           monoclinic
_symmetry_space_group_name_H-M   'P 21/c'
_symmetry_Int_Tables_number      14
_space_group_name_Hall           '-P 2ybc'
loop_
_symmetry_equiv_pos_site_id
_symmetry_equiv_pos_as_xyz
1 x,y,z
2 -x,1/2+y,1/2-z
3 -x,-y,-z
4 x,1/2-y,1/2+z
_cell_length_a                   11.665(3)
_cell_length_b                   10.334(3)
_cell_length_c                   18.106(5)
_cell_angle_alpha                90
_cell_angle_beta                 100.125(19)
_cell_angle_gamma                90
_cell_volume                     2148.62
_exptl_crystal_colour            colorless
_exptl_crystal_description       block
_cell_formula_units_Z            4
loop_
_atom_site_label
_atom_site_type_symbol
_atom_site_fract_x
_atom_site_fract_y
_atom_site_fract_z
Cl1 Cl 1.20417(6) 0.05998(7) 0.31854(5)
O1 O 0.41842(14) 0.56864(16) 0.34417(9)
O2 O 0.57357(13) 0.59468(16) 0.43581(8)
O3 O 0.83685(16) 0.55213(16) 0.45468(10)
O4 O 0.77883(14) 0.35978(15) 0.49072(8)
N1 N 0.56234(14) 0.39380(17) 0.27268(9)
C1 C 1.0703(2) 0.1364(2) 0.32062(13)
C2 C 1.0691(2) 0.2542(2) 0.35516(15)
H1 H 1.1383 0.2930 0.3779
C3 C 0.96265(19) 0.3148(2) 0.35558(14)
H2 H 0.9616 0.3947 0.3791
C4 C 0.85749(17) 0.25931(19) 0.32180(11)
C5 C 0.8622(2) 0.1388(2) 0.28808(12)
H3 H 0.7935 0.0988 0.2655
C6 C 0.9682(2) 0.0777(2) 0.28783(14)
H4 H 0.9700 -0.0030 0.2654
C7 C 0.74467(17) 0.32679(19) 0.31823(11)
C8 C 0.70958(17) 0.41730(19) 0.36850(11)
C9 C 0.59714(17) 0.4576(2) 0.34004(11)
C10 C 0.65124(17) 0.3161(2) 0.26039(12)
H5 H 0.6492 0.2630 0.2187
C11 C 0.45585(17) 0.4084(2) 0.21799(11)
C12 C 0.4465(2) 0.5073(2) 0.16723(13)
H6 H 0.5054 0.5686 0.1700
C13 C 0.3494(2) 0.5157(3) 0.11194(13)
H7 H 0.3430 0.5839 0.0779
C14 C 0.2610(2) 0.4249(3) 0.10589(13)
C15 C 0.2721(2) 0.3265(2) 0.15742(15)
H8 H 0.2138 0.2643 0.1545
C16 C 0.3687(2) 0.3184(2) 0.21373(14)
H9 H 0.3745 0.2518 0.2487
C17 C 0.1521(3) 0.4336(3) 0.04408(17)
H10 H 0.0889 0.4703 0.0646
H11 H 0.1310 0.3485 0.0252
H12 H 0.1687 0.4873 0.0040
C18 C 0.51855(19) 0.5446(2) 0.37133(12)
C19 C 0.5096(2) 0.6903(3) 0.47065(14)
H13 H 0.4405 0.6521 0.4845
H14 H 0.4862 0.7617 0.4366
C20 C 0.5908(3) 0.7361(3) 0.53868(15)
H15 H 0.6586 0.7737 0.5240
H16 H 0.6136 0.6642 0.5716
H17 H 0.5524 0.7998 0.5642
C21 C 0.78093(18) 0.4553(2) 0.44182(12)
C22 C 0.8613(9) 0.3752(8) 0.5612(3)
H18 H 0.8372 0.4451 0.5908
H19 H 0.9387 0.3938 0.5514
C23 C 0.8597(10) 0.2487(5) 0.6012(3)
H20 H 0.8902 0.1821 0.5733
H21 H 0.7811 0.2277 0.6059
H22 H 0.9066 0.2552 0.6502
C24? C 0.8253(18) 0.381(2) 0.5703(5)
H23? H 0.7663 0.3645 0.6009
H24? H 0.8544 0.4681 0.5793
C25? C 0.9221(16) 0.284(2) 0.5868(9)
H25? H 0.9736 0.2940 0.5513
H26? H 0.8902 0.1980 0.5830
H27? H 0.9644 0.2977 0.6366
loop_
_geom_bond_atom_site_label_1
_geom_bond_atom_site_label_2
_geom_bond_site_symmetry_1
_geom_bond_site_symmetry_2
Cl1 C1 1_555 1_555
O1 C18 1_555 1_555
O2 C18 1_555 1_555
O3 C21 1_555 1_555
O4 C21 1_555 1_555
N1 C9 1_555 1_555
C1 C2 1_555 1_555
C2 H1 1_555 1_555
C3 C2 1_555 1_555
H2 C3 1_555 1_555
C4 C3 1_555 1_555
C5 C4 1_555 1_555
H3 C5 1_555 1_555
C6 C1 1_555 1_555
H4 C6 1_555 1_555
C7 C4 1_555 1_555
C8 C7 1_555 1_555
C9 C8 1_555 1_555
C10 N1 1_555 1_555
H5 C10 1_555 1_555
C11 N1 1_555 1_555
C12 C11 1_555 1_555
H6 C12 1_555 1_555
C13 C12 1_555 1_555
H7 C13 1_555 1_555
C14 C13 1_555 1_555
C15 C14 1_555 1_555
H8 C15 1_555 1_555
C16 C11 1_555 1_555
H9 C16 1_555 1_555
C17 C14 1_555 1_555
H10 C17 1_555 1_555
H11 C17 1_555 1_555
H12 C17 1_555 1_555
C18 C9 1_555 1_555
C19 O2 1_555 1_555
H13 C19 1_555 1_555
H14 C19 1_555 1_555
C20 C19 1_555 1_555
H15 C20 1_555 1_555
H16 C20 1_555 1_555
H17 C20 1_555 1_555
C21 C8 1_555 1_555
C22 O4 1_555 1_555
H18 C22 1_555 1_555
H19 C22 1_555 1_555
C23 C22 1_555 1_555
H20 C23 1_555 1_555
H21 C23 1_555 1_555
H22 C23 1_555 1_555
C5 C6 1_555 1_555
C7 C10 1_555 1_555
C15 C16 1_555 1_555

#END
