
#######################################################################
#
#                 Cambridge Crystallographic Data Centre
#                                CCDC 
#
#######################################################################
#
# If this CIF has been generated from an entry in the Cambridge 
# Structural Database, then it will include bibliographic, chemical, 
# crystal, experimental, refinement or atomic coordinate data resulting 
# from the CCDC's data processing and validation procedures.
#
#######################################################################

data_EVUMAJ
_chemical_formula_moiety         'C14 H8 F2 N2 O4'
_chemical_name_systematic        1,1-bis(p-Fluorophenyl)-2,2-dinitroethene
_symmetry_cell_setting           orthorhombic
_symmetry_space_group_name_H-M   'P b c a'
_symmetry_Int_Tables_number      61
_space_group_name_Hall           '-P 2ac 2ab'
loop_
_symmetry_equiv_pos_site_id
_symmetry_equiv_pos_as_xyz
1 x,y,z
2 1/2+x,y,1/2-z
3 x,1/2-y,1/2+z
4 1/2-x,1/2+y,z
5 -x,-y,-z
6 1/2-x,-y,1/2+z
7 -x,1/2+y,1/2-z
8 1/2+x,1/2-y,-z
_cell_length_a                   16.0350(12)
_cell_length_b                   9.5765(7)
_cell_length_c                   17.9778(13)
_cell_angle_alpha                90
_cell_angle_beta                 90
_cell_angle_gamma                90
_cell_volume                     2760.66
_exptl_crystal_colour            yellow
_exptl_crystal_description       block
_cell_formula_units_Z            8
_exptl_crystal_recrystallization_method 'n-hexane/ethyl acetate or ether'
loop_
_atom_site_label
_atom_site_type_symbol
_atom_site_fract_x
_atom_site_fract_y
_atom_site_fract_z
C1 C -0.03625(9) -0.05953(14) 0.13523(8)
C2 C 0.03902(10) -0.01041(15) 0.11665(8)
C3 C -0.06823(9) -0.19606(15) 0.10881(8)
C4 C -0.14853(10) -0.20550(17) 0.08107(10)
H1 H -0.1822 -0.1265 0.0796
C5 C -0.17888(12) -0.3315(2) 0.05557(11)
H2 H -0.2321 -0.3379 0.0354
C6 C -0.12902(13) -0.44628(19) 0.06067(11)
C7 C -0.05036(12) -0.44161(18) 0.08891(11)
H3 H -0.0179 -0.5220 0.0916
C8 C -0.02002(11) -0.31625(16) 0.11320(9)
H4 H 0.0335 -0.3114 0.1329
C9 C -0.09000(9) 0.02188(15) 0.18676(8)
C10 C -0.12605(10) -0.04383(17) 0.24730(9)
H5 H -0.1180 -0.1391 0.2542
C11 C -0.17379(10) 0.03002(18) 0.29741(10)
H6 H -0.1967 -0.0137 0.3389
C12 C -0.18664(10) 0.16852(18) 0.28477(10)
C13 C -0.15463(11) 0.23725(17) 0.22496(11)
H7 H -0.1654 0.3317 0.2176
C14 C -0.10544(10) 0.16300(16) 0.17517(9)
H8 H -0.0828 0.2078 0.1340
F1 F -0.15859(8) -0.57087(12) 0.03609(9)
F2 F -0.23262(7) 0.24107(12) 0.33460(6)
N1 N 0.09474(9) -0.06202(14) 0.05930(7)
N2 N 0.07625(8) 0.11286(14) 0.15253(8)
O1 O 0.06573(8) -0.12906(13) 0.00805(7)
O2 O 0.16822(8) -0.03084(16) 0.06528(8)
O3 O 0.08267(9) 0.21877(13) 0.11545(7)
O4 O 0.09792(9) 0.10028(13) 0.21706(7)
loop_
_geom_bond_atom_site_label_1
_geom_bond_atom_site_label_2
_geom_bond_site_symmetry_1
_geom_bond_site_symmetry_2
C1 C2 1_555 1_555
C2 N1 1_555 1_555
C3 C1 1_555 1_555
C4 C3 1_555 1_555
H1 C4 1_555 1_555
C5 C4 1_555 1_555
H2 C5 1_555 1_555
C6 C5 1_555 1_555
C7 C6 1_555 1_555
H3 C7 1_555 1_555
C8 C3 1_555 1_555
H4 C8 1_555 1_555
C9 C1 1_555 1_555
C10 C9 1_555 1_555
H5 C10 1_555 1_555
C11 C10 1_555 1_555
H6 C11 1_555 1_555
C12 C11 1_555 1_555
C13 C12 1_555 1_555
H7 C13 1_555 1_555
C14 C9 1_555 1_555
H8 C14 1_555 1_555
F1 C6 1_555 1_555
F2 C12 1_555 1_555
N1 O1 1_555 1_555
N2 C2 1_555 1_555
O2 N1 1_555 1_555
O3 N2 1_555 1_555
O4 N2 1_555 1_555
C7 C8 1_555 1_555
C13 C14 1_555 1_555

#END
