
#######################################################################
#
#                 Cambridge Crystallographic Data Centre
#                                CCDC 
#
#######################################################################
#
# If this CIF has been generated from an entry in the Cambridge 
# Structural Database, then it will include bibliographic, chemical, 
# crystal, experimental, refinement or atomic coordinate data resulting 
# from the CCDC's data processing and validation procedures.
#
#######################################################################

data_EVUMEN
_chemical_formula_moiety         'C14 H8 Cl2 N2 O4'
_chemical_name_systematic        1,1-bis(p-Chlorophenyl)-2,2-dinitroethene
_symmetry_cell_setting           monoclinic
_symmetry_space_group_name_H-M   'C 2/c'
_symmetry_Int_Tables_number      15
_space_group_name_Hall           '-C 2yn'
loop_
_symmetry_equiv_pos_site_id
_symmetry_equiv_pos_as_xyz
1 x,y,z
2 1/2+x,1/2+y,z
3 x,-y,1/2+z
4 1/2+x,1/2-y,1/2+z
5 -x,-y,-z
6 1/2-x,1/2-y,-z
7 -x,y,1/2-z
8 1/2-x,1/2+y,1/2-z
_cell_length_a                   18.9792(17)
_cell_length_b                   8.3903(8)
_cell_length_c                   9.4963(9)
_cell_angle_alpha                90
_cell_angle_beta                 95.413(2)
_cell_angle_gamma                90
_cell_volume                     1505.46
_exptl_crystal_colour            yellow
_exptl_crystal_description       block
_cell_formula_units_Z            4
_exptl_crystal_recrystallization_method 'n-hexane/ethyl acetate or ether'
loop_
_atom_site_label
_atom_site_type_symbol
_atom_site_fract_x
_atom_site_fract_y
_atom_site_fract_z
Cl1 Cl -0.24766(5) 0.03360(14) 0.02501(11)
C1 C 0.0000 -0.3598(4) 0.2500
C2 C 0.0000 -0.5178(5) 0.2500
C3 C -0.06292(13) -0.2674(3) 0.1921(2)
C4 C -0.05537(16) -0.1488(4) 0.0952(4)
H1 H -0.0110 -0.1295 0.0646
C5 C -0.11201(17) -0.0581(4) 0.0426(5)
H2 H -0.1062 0.0205 -0.0244
C6 C -0.17678(14) -0.0839(4) 0.0889(3)
C7 C -0.18547(15) -0.2005(5) 0.1860(3)
H3 H -0.2297 -0.2172 0.2181
C8 C -0.12896(15) -0.2931(4) 0.2365(3)
H4 H -0.1354 -0.3738 0.3011
N1 N -0.0575(3) -0.6173(4) 0.1818(3)
O1 O -0.0690(11) -0.586(3) 0.0583(9)
O2 O -0.1068(4) -0.6820(8) 0.2603(6)
N1F N 0.0575(3) -0.6173(4) 0.3182(3)
O1F O 0.0690(11) -0.586(3) 0.4417(9)
O2F O 0.1068(4) -0.6820(8) 0.2397(6)
C3F C 0.06292(13) -0.2674(3) 0.3079(2)
C4F C 0.05537(16) -0.1488(4) 0.4048(4)
H1F H 0.0110 -0.1295 0.4354
C5F C 0.11201(17) -0.0581(4) 0.4574(5)
H2F H 0.1062 0.0205 0.5244
C6F C 0.17678(14) -0.0839(4) 0.4111(3)
Cl1F Cl 0.24766(5) 0.03360(14) 0.47499(11)
C7F C 0.18547(15) -0.2005(5) 0.3140(3)
H3F H 0.2297 -0.2172 0.2819
C8F C 0.12896(15) -0.2931(4) 0.2635(3)
H4F H 0.1354 -0.3738 0.1989
O3? O -0.0866(11) -0.601(3) 0.0677(12)
O4? O -0.0411(5) -0.7572(6) 0.2268(8)
loop_
_geom_bond_atom_site_label_1
_geom_bond_atom_site_label_2
_geom_bond_site_symmetry_1
_geom_bond_site_symmetry_2
Cl1 C6 1_555 1_555
C1 C2 1_555 1_555
C2 N1 1_555 1_555
C3 C1 1_555 1_555
C4 C3 1_555 1_555
H1 C4 1_555 1_555
C5 C4 1_555 1_555
H2 C5 1_555 1_555
C6 C5 1_555 1_555
C7 C6 1_555 1_555
H3 C7 1_555 1_555
C8 C3 1_555 1_555
H4 C8 1_555 1_555
N1 O1 1_555 1_555
O2 N1 1_555 1_555
N1F C2 1_555 1_555
O1F N1F 1_555 1_555
O2F N1F 1_555 1_555
C3F C1 1_555 1_555
C4F C3F 1_555 1_555
H1F C4F 1_555 1_555
C5F C4F 1_555 1_555
H2F C5F 1_555 1_555
C6F C5F 1_555 1_555
Cl1F C6F 1_555 1_555
C7F C6F 1_555 1_555
H3F C7F 1_555 1_555
C8F C3F 1_555 1_555
H4F C8F 1_555 1_555
C7 C8 1_555 1_555
C7F C8F 1_555 1_555

#END
