
#######################################################################
#
#                 Cambridge Crystallographic Data Centre
#                                CCDC 
#
#######################################################################
#
# If this CIF has been generated from an entry in the Cambridge 
# Structural Database, then it will include bibliographic, chemical, 
# crystal, experimental, refinement or atomic coordinate data resulting 
# from the CCDC's data processing and validation procedures.
#
#######################################################################

data_EVUTIA
_chemical_formula_moiety         'C28 H17 F6 N1 O1 S1'
_chemical_name_systematic        
3-(4-(3,3,4,4,5,5-Hexafluoro-2-(2-methyl-1-benzofuran-3-yl)cyclopent-1-en-1-yl)-5-methyl-2-thienyl)quinoline
_symmetry_cell_setting           orthorhombic
_symmetry_space_group_name_H-M   'P n a 21'
_symmetry_Int_Tables_number      33
_space_group_name_Hall           'P 2c -2n'
loop_
_symmetry_equiv_pos_site_id
_symmetry_equiv_pos_as_xyz
1 x,y,z
2 -x,-y,1/2+z
3 1/2+x,1/2-y,z
4 1/2-x,1/2+y,1/2+z
_cell_length_a                   12.4154(3)
_cell_length_b                   9.7336(2)
_cell_length_c                   39.2147(9)
_cell_angle_alpha                90
_cell_angle_beta                 90
_cell_angle_gamma                90
_cell_volume                     4738.96
_exptl_crystal_colour            colorless
_exptl_crystal_description       rhombus
_cell_formula_units_Z            8
loop_
_atom_site_label
_atom_site_type_symbol
_atom_site_fract_x
_atom_site_fract_y
_atom_site_fract_z
C1 C 0.2942(4) -0.3825(4) 0.16726(13)
H1 H 0.3056 -0.4760 0.1640
C2 C 0.2090(4) -0.3335(5) 0.18609(13)
H2 H 0.1614 -0.3952 0.1961
C3 C 0.1927(3) -0.1909(5) 0.19045(12)
H3 H 0.1330 -0.1598 0.2025
C4 C 0.2635(3) -0.0986(4) 0.17713(11)
H4 H 0.2531 -0.0050 0.1805
C5 C 0.3514(2) -0.1454(3) 0.15850(9)
C6 C 0.3613(3) -0.2851(4) 0.15364(10)
C7 C 0.4400(2) -0.0828(3) 0.13987(8)
C8 C 0.4950(2) -0.1880(4) 0.12532(10)
C9 C 0.5931(3) -0.1956(5) 0.10400(11)
H5 H 0.5735 -0.2188 0.0810
H6 H 0.6405 -0.2646 0.1130
H7 H 0.6289 -0.1082 0.1042
C10 C 0.4695(2) 0.0601(3) 0.13839(9)
C11 C 0.4681(3) 0.1490(4) 0.16957(10)
C12 C 0.5402(4) 0.2693(5) 0.16090(14)
C13 C 0.5302(5) 0.2781(6) 0.12265(15)
C14 C 0.5007(3) 0.1359(4) 0.11126(11)
C15 C 0.4990(3) 0.0989(4) 0.07513(9)
C16 C 0.4111(3) 0.0387(4) 0.05963(9)
C17 C 0.3030(3) 0.0016(5) 0.07391(11)
H8 H 0.3042 -0.0918 0.0818
H9 H 0.2492 0.0114 0.0565
H10 H 0.2862 0.0615 0.0926
C18 C 0.5855(3) 0.1216(4) 0.05167(9)
H11 H 0.6503 0.1622 0.0580
C19 C 0.5644(2) 0.0786(3) 0.01933(9)
C20 C 0.6326(3) 0.0817(4) -0.01136(9)
C21 C 0.7316(3) 0.1427(3) -0.01237(9)
H12 H 0.7587 0.1874 0.0068
C22 C 0.7926(3) 0.1372(3) -0.04291(9)
C23 C 0.8968(3) 0.1931(4) -0.04596(12)
H13 H 0.9275 0.2371 -0.0273
C24 C 0.9535(4) 0.1844(5) -0.07539(15)
H14 H 1.0226 0.2207 -0.0766
C25 C 0.9073(4) 0.1197(5) -0.10436(13)
H15 H 0.9455 0.1148 -0.1247
C26 C 0.8071(4) 0.0653(6) -0.10215(12)
H16 H 0.7769 0.0228 -0.1211
C27 C 0.7478(3) 0.0724(5) -0.07139(10)
C28 C 0.5956(3) 0.0161(5) -0.04137(11)
H17 H 0.5282 -0.0255 -0.0406
F1 F 0.4986(2) 0.0835(3) 0.19793(7)
F2 F 0.36826(18) 0.1977(3) 0.17670(7)
F3 F 0.6399(2) 0.2399(4) 0.16943(13)
F4 F 0.5160(3) 0.3863(3) 0.17692(9)
F5 F 0.6153(5) 0.3280(5) 0.10836(11)
F6 F 0.4485(5) 0.3709(3) 0.11378(11)
N1 N 0.6488(3) 0.0095(5) -0.07020(9)
O1 O 0.4502(2) -0.3129(2) 0.13346(8)
S1 S 0.43647(6) 0.00882(11) 0.01733(2)
C29 C 0.0539(3) 0.8979(5) 0.27424(12)
H18 H 0.0653 0.9909 0.2784
C30 C -0.0309(4) 0.8515(6) 0.25512(13)
H19 H -0.0785 0.9149 0.2457
C31 C -0.0473(3) 0.7164(5) 0.24952(12)
H20 H -0.1064 0.6900 0.2365
C32 C 0.0213(3) 0.6130(4) 0.26256(10)
H21 H 0.0086 0.5201 0.2587
C33 C 0.1093(2) 0.6590(3) 0.28162(9)
C34 C 0.1214(3) 0.7974(4) 0.28697(10)
C35 C 0.1976(2) 0.5937(3) 0.30004(9)
C36 C 0.2535(2) 0.6967(4) 0.31430(9)
C37 C 0.3517(3) 0.7019(4) 0.33623(10)
H22 H 0.3918 0.7839 0.3312
H23 H 0.3958 0.6229 0.3318
H24 H 0.3308 0.7024 0.3598
C38 C 0.2263(2) 0.4469(3) 0.30065(8)
C39 C 0.2234(3) 0.3615(4) 0.26873(9)
C40 C 0.2957(4) 0.2390(5) 0.27694(15)
C41 C 0.2910(5) 0.2297(5) 0.31610(14)
C42 C 0.2595(2) 0.3710(4) 0.32759(10)
C43 C 0.2565(3) 0.4060(3) 0.36401(9)
C44 C 0.1688(3) 0.4616(4) 0.37916(9)
C45 C 0.0601(3) 0.5008(5) 0.36502(12)
H25 H 0.0588 0.5975 0.3603
H26 H 0.0052 0.4789 0.3814
H27 H 0.0470 0.4507 0.3443
C46 C 0.3430(3) 0.3823(4) 0.38732(9)
H28 H 0.4079 0.3425 0.3808
C47 C 0.3223(2) 0.4225(3) 0.41947(9)
C48 C 0.3894(2) 0.4194(4) 0.45008(9)
C49 C 0.4890(3) 0.3587(3) 0.45136(10)
H29 H 0.5158 0.3141 0.4322
C50 C 0.5514(3) 0.3633(4) 0.48161(10)
C51 C 0.6551(3) 0.3087(4) 0.48427(12)
H30 H 0.6869 0.2671 0.4654
C52 C 0.7105(4) 0.3160(4) 0.51447(15)
H31 H 0.7795 0.2793 0.5159
C53 C 0.6660(4) 0.3758(5) 0.54227(14)
H32 H 0.7050 0.3789 0.5625
C54 C 0.5657(4) 0.4316(6) 0.54126(13)
H33 H 0.5366 0.4710 0.5608
C55 C 0.5046(3) 0.4301(4) 0.51020(9)
C56 C 0.3545(3) 0.4847(5) 0.48026(10)
H34 H 0.2881 0.5287 0.4794
F7 F 0.2123(5) 0.1364(3) 0.32479(10)
F8 F 0.3826(4) 0.1888(5) 0.32904(10)
F9 F 0.2699(3) 0.1238(2) 0.26109(8)
F10 F 0.3979(2) 0.2724(4) 0.26747(10)
F11 F 0.12337(16) 0.3115(2) 0.26277(7)
F12 F 0.2530(2) 0.4270(3) 0.24041(6)
N2 N 0.4066(3) 0.4895(5) 0.50954(9)
O2 O 0.2098(2) 0.8224(3) 0.30752(7)
S2 S 0.19322(6) 0.49035(10) 0.42170(2)
loop_
_geom_bond_atom_site_label_1
_geom_bond_atom_site_label_2
_geom_bond_site_symmetry_1
_geom_bond_site_symmetry_2
C1 H1 1_555 1_555
C2 C1 1_555 1_555
H2 C2 1_555 1_555
C3 C2 1_555 1_555
H3 C3 1_555 1_555
C4 C3 1_555 1_555
H4 C4 1_555 1_555
C5 C4 1_555 1_555
C6 C1 1_555 1_555
C7 C5 1_555 1_555
C8 C7 1_555 1_555
C9 C8 1_555 1_555
H5 C9 1_555 1_555
H6 C9 1_555 1_555
H7 C9 1_555 1_555
C10 C7 1_555 1_555
C11 C10 1_555 1_555
C12 C11 1_555 1_555
C13 C12 1_555 1_555
C14 C10 1_555 1_555
C15 C14 1_555 1_555
C16 C15 1_555 1_555
C17 C16 1_555 1_555
H8 C17 1_555 1_555
H9 C17 1_555 1_555
H10 C17 1_555 1_555
C18 C15 1_555 1_555
H11 C18 1_555 1_555
C19 C18 1_555 1_555
C20 C19 1_555 1_555
C21 C20 1_555 1_555
H12 C21 1_555 1_555
C22 C21 1_555 1_555
C23 C22 1_555 1_555
H13 C23 1_555 1_555
C24 C23 1_555 1_555
H14 C24 1_555 1_555
C25 C24 1_555 1_555
H15 C25 1_555 1_555
C26 C25 1_555 1_555
H16 C26 1_555 1_555
C27 C22 1_555 1_555
C28 C20 1_555 1_555
H17 C28 1_555 1_555
F1 C11 1_555 1_555
F2 C11 1_555 1_555
F3 C12 1_555 1_555
F4 C12 1_555 1_555
F5 C13 1_555 1_555
F6 C13 1_555 1_555
N1 C27 1_555 1_555
O1 C6 1_555 1_555
S1 C16 1_555 1_555
C29 H18 1_555 1_555
C30 C29 1_555 1_555
H19 C30 1_555 1_555
C31 C30 1_555 1_555
H20 C31 1_555 1_555
C32 C31 1_555 1_555
H21 C32 1_555 1_555
C33 C32 1_555 1_555
C34 C29 1_555 1_555
C35 C33 1_555 1_555
C36 C35 1_555 1_555
C37 C36 1_555 1_555
H22 C37 1_555 1_555
H23 C37 1_555 1_555
H24 C37 1_555 1_555
C38 C35 1_555 1_555
C39 C38 1_555 1_555
C40 C39 1_555 1_555
C41 C40 1_555 1_555
C42 C38 1_555 1_555
C43 C42 1_555 1_555
C44 C43 1_555 1_555
C45 C44 1_555 1_555
H25 C45 1_555 1_555
H26 C45 1_555 1_555
H27 C45 1_555 1_555
C46 C43 1_555 1_555
H28 C46 1_555 1_555
C47 C46 1_555 1_555
C48 C47 1_555 1_555
C49 C48 1_555 1_555
H29 C49 1_555 1_555
C50 C49 1_555 1_555
C51 C50 1_555 1_555
H30 C51 1_555 1_555
C52 C51 1_555 1_555
H31 C52 1_555 1_555
C53 C52 1_555 1_555
H32 C53 1_555 1_555
C54 C53 1_555 1_555
H33 C54 1_555 1_555
C55 C50 1_555 1_555
C56 C48 1_555 1_555
H34 C56 1_555 1_555
F7 C41 1_555 1_555
F8 C41 1_555 1_555
F9 C40 1_555 1_555
F10 C40 1_555 1_555
F11 C39 1_555 1_555
F12 C39 1_555 1_555
N2 C55 1_555 1_555
O2 C34 1_555 1_555
S2 C44 1_555 1_555
C5 C6 1_555 1_555
C8 O1 1_555 1_555
C13 C14 1_555 1_555
C19 S1 1_555 1_555
C26 C27 1_555 1_555
C28 N1 1_555 1_555
C33 C34 1_555 1_555
C36 O2 1_555 1_555
C41 C42 1_555 1_555
C47 S2 1_555 1_555
C54 C55 1_555 1_555
C56 N2 1_555 1_555

#END
