
#######################################################################
#
#                 Cambridge Crystallographic Data Centre
#                                CCDC 
#
#######################################################################
#
# If this CIF has been generated from an entry in the Cambridge 
# Structural Database, then it will include bibliographic, chemical, 
# crystal, experimental, refinement or atomic coordinate data resulting 
# from the CCDC's data processing and validation procedures.
#
#######################################################################

data_EVUTEW
_chemical_formula_moiety         'C28 H17 F6 N1 S2'
_chemical_name_systematic        
3-(4-(3,3,4,4,5,5-hexafluoro-2-(2-methyl-1-benzothiophen-3-yl)cyclopent-1-en-1-yl)-5-methyl-2-thienyl)quinoline
_symmetry_cell_setting           orthorhombic
_symmetry_space_group_name_H-M   'P b c a'
_symmetry_Int_Tables_number      61
_space_group_name_Hall           '-P 2ac 2ab'
loop_
_symmetry_equiv_pos_site_id
_symmetry_equiv_pos_as_xyz
1 x,y,z
2 1/2-x,-y,1/2+z
3 -x,1/2+y,1/2-z
4 1/2+x,1/2-y,-z
5 -x,-y,-z
6 1/2+x,y,1/2-z
7 x,1/2-y,1/2+z
8 1/2-x,1/2+y,z
_cell_length_a                   11.2971(12)
_cell_length_b                   18.011(2)
_cell_length_c                   23.853(3)
_cell_angle_alpha                90
_cell_angle_beta                 90
_cell_angle_gamma                90
_cell_volume                     4853.42
_exptl_crystal_colour            colorless
_exptl_crystal_description       rhombus
_cell_formula_units_Z            8
loop_
_atom_site_label
_atom_site_type_symbol
_atom_site_fract_x
_atom_site_fract_y
_atom_site_fract_z
S1 S 0.57017(6) 0.02433(4) 0.25533(2)
S2 S 0.99805(6) -0.05392(4) 0.41950(3)
C1 C 0.59402(19) 0.05178(12) 0.35938(9)
F1 F 0.72512(19) 0.08350(13) 0.53827(7)
C2 C 0.3803(2) -0.06887(13) 0.27997(9)
F2 F 0.54340(17) 0.16648(15) 0.54177(8)
C3 C 0.73296(19) 0.08983(12) 0.43947(9)
F3 F 0.46045(18) 0.16626(13) 0.41733(8)
C4 C 0.62740(18) 0.08637(12) 0.41313(9)
C5 C 0.6433(2) 0.06910(14) 0.30854(9)
C6 C 0.84438(19) 0.05097(13) 0.42611(9)
F4 F 0.46270(18) 0.07210(13) 0.47199(9)
C7 C 0.2200(2) -0.15587(12) 0.29243(10)
C8 C 0.4730(2) -0.01892(13) 0.30078(9)
C9 C 0.3100(2) -0.11031(13) 0.31466(10)
H1 H 0.3217 -0.1084 0.3532
C10 C 0.8546(2) -0.02367(14) 0.43145(10)
C11 C 0.2056(2) -0.15701(13) 0.23362(11)
C12 C 0.95430(19) 0.08731(14) 0.41142(9)
N1 N 0.2771(2) -0.11722(14) 0.19848(9)
F5 F 0.80643(16) 0.18068(13) 0.50372(9)
C13 C 0.4965(2) 0.00170(13) 0.35454(9)
H2 H 0.4533 -0.0152 0.3852
C14 C 0.9784(2) 0.16214(16) 0.40083(11)
H3 H 0.9192 0.1976 0.4049
C15 C 0.7421(3) 0.12134(18) 0.29535(12)
H4 H 0.7730 0.1417 0.3296
H5 H 0.7131 0.1608 0.2720
H6 H 0.8038 0.0951 0.2760
C16 C 1.1601(2) 0.05723(19) 0.38867(12)
H7 H 1.2205 0.0225 0.3849
C17 C 1.0463(2) 0.03528(15) 0.40539(10)
C18 C 0.7214(2) 0.13177(16) 0.49375(11)
C19 C 0.3592(3) -0.07558(16) 0.22133(10)
H8 H 0.4074 -0.0483 0.1974
C20 C 0.1425(3) -0.19857(15) 0.32603(12)
H9 H 0.1509 -0.1985 0.3648
C21 C 0.5333(2) 0.12349(15) 0.44708(10)
C22 C 0.1140(3) -0.20070(16) 0.21002(13)
H10 H 0.1038 -0.2018 0.1713
C23 C 0.7633(3) -0.08015(16) 0.44711(13)
H11 H 0.6883 -0.0561 0.4522
H12 H 0.7862 -0.1042 0.4814
H13 H 0.7569 -0.1164 0.4178
C24 C 1.1804(2) 0.1307(2) 0.37809(12)
H14 H 1.2552 0.1459 0.3666
C25 C 0.5983(2) 0.16700(15) 0.49224(11)
C26 C 0.0410(3) -0.24101(16) 0.24348(14)
H15 H -0.0188 -0.2695 0.2275
F6 F 0.6074(2) 0.23772(11) 0.47615(12)
C27 C 1.0907(3) 0.18303(18) 0.38425(12)
H16 H 1.1066 0.2328 0.3771
C28 C 0.0550(3) -0.24006(17) 0.30156(15)
H17 H 0.0044 -0.2679 0.3239
loop_
_geom_bond_atom_site_label_1
_geom_bond_atom_site_label_2
_geom_bond_site_symmetry_1
_geom_bond_site_symmetry_2
S1 C5 1_555 1_555
S2 C10 1_555 1_555
C1 C4 1_555 1_555
F1 C18 1_555 1_555
C2 C8 1_555 1_555
F2 C25 1_555 1_555
C3 C4 1_555 1_555
F3 C21 1_555 1_555
C4 C21 1_555 1_555
C5 C1 1_555 1_555
C6 C3 1_555 1_555
F4 C21 1_555 1_555
C7 C9 1_555 1_555
C8 S1 1_555 1_555
C9 C2 1_555 1_555
H1 C9 1_555 1_555
C10 C6 1_555 1_555
C11 C7 1_555 1_555
C12 C6 1_555 1_555
N1 C11 1_555 1_555
F5 C18 1_555 1_555
C13 C1 1_555 1_555
H2 C13 1_555 1_555
C14 C12 1_555 1_555
H3 C14 1_555 1_555
C15 C5 1_555 1_555
H4 C15 1_555 1_555
H5 C15 1_555 1_555
H6 C15 1_555 1_555
C16 H7 1_555 1_555
C17 S2 1_555 1_555
C18 C3 1_555 1_555
C19 C2 1_555 1_555
H8 C19 1_555 1_555
C20 C7 1_555 1_555
H9 C20 1_555 1_555
C21 C25 1_555 1_555
C22 C11 1_555 1_555
H10 C22 1_555 1_555
C23 C10 1_555 1_555
H11 C23 1_555 1_555
H12 C23 1_555 1_555
H13 C23 1_555 1_555
C24 C16 1_555 1_555
H14 C24 1_555 1_555
C25 C18 1_555 1_555
C26 C22 1_555 1_555
H15 C26 1_555 1_555
F6 C25 1_555 1_555
C27 C14 1_555 1_555
H16 C27 1_555 1_555
C28 C20 1_555 1_555
H17 C28 1_555 1_555
C8 C13 1_555 1_555
C12 C17 1_555 1_555
N1 C19 1_555 1_555
C16 C17 1_555 1_555
C24 C27 1_555 1_555
C26 C28 1_555 1_555

#END
