
#######################################################################
#
#                 Cambridge Crystallographic Data Centre
#                                CCDC 
#
#######################################################################
#
# If this CIF has been generated from an entry in the Cambridge 
# Structural Database, then it will include bibliographic, chemical, 
# crystal, experimental, refinement or atomic coordinate data resulting 
# from the CCDC's data processing and validation procedures.
#
#######################################################################

data_EVUTOG
_chemical_formula_moiety         'C36 H34 N3 O5 1+,Br1 1-'
_chemical_name_systematic        
'3-(2-oxo-2-phenylethyl)-1-(2-oxo-2-(4,9,10-trimethoxy-6,6a,7,11b-tetrahydro-5H-indeno[2,1-c]quinolin-5-yl)ethyl)-1H-3,1-benzimidazol-3-ium bromide'
_symmetry_cell_setting           monoclinic
_symmetry_space_group_name_H-M   'P 21/c'
_symmetry_Int_Tables_number      14
_space_group_name_Hall           '-P 2ybc'
loop_
_symmetry_equiv_pos_site_id
_symmetry_equiv_pos_as_xyz
1 x,y,z
2 -x,1/2+y,1/2-z
3 -x,-y,-z
4 x,1/2-y,1/2+z
_cell_length_a                   16.947(2)
_cell_length_b                   11.4629(14)
_cell_length_c                   16.0702(19)
_cell_angle_alpha                90
_cell_angle_beta                 95.457(2)
_cell_angle_gamma                90
_cell_volume                     3107.68
_exptl_crystal_colour            colorless
_exptl_crystal_description       block
_cell_formula_units_Z            4
loop_
_atom_site_label
_atom_site_type_symbol
_atom_site_fract_x
_atom_site_fract_y
_atom_site_fract_z
N1 N 0.37351(16) 0.7614(2) 0.23328(17)
N2 N 0.29469(15) 0.7973(2) 0.32858(16)
N3 N 0.11163(16) 0.8990(2) 0.40571(16)
O1 O 0.3397(2) 0.6781(4) 0.07858(19)
O2 O 0.14501(15) 0.8681(2) 0.27482(15)
O3 O 0.21595(15) 1.0604(2) 0.48036(15)
O4 O 0.19365(18) 0.3861(2) 0.56266(17)
O5 O 0.15834(16) 0.3135(2) 0.41455(16)
C1 C 0.4542(2) 0.7408(3) 0.0201(2)
C2 C 0.5042(3) 0.8326(4) 0.0144(3)
H1 H 0.5067 0.8909 0.0548
C3 C 0.5516(3) 0.8400(4) -0.0512(3)
H2 H 0.5848 0.9038 -0.0558
C4 C 0.5489(3) 0.7525(5) -0.1088(3)
H3 H 0.5805 0.7568 -0.1529
C5 C 0.5004(3) 0.6589(5) -0.1022(3)
H4 H 0.4996 0.5991 -0.1414
C6 C 0.4532(2) 0.6526(4) -0.0385(2)
H5 H 0.4201 0.5886 -0.0344
C7 C 0.4012(2) 0.7307(4) 0.0877(2)
C8 C 0.4287(2) 0.7839(3) 0.1708(2)
H6 H 0.4803 0.7523 0.1902
H7 H 0.4344 0.8675 0.1641
C9 C 0.3335(2) 0.8425(3) 0.2690(2)
H8 H 0.3326 0.9210 0.2543
C10 C 0.30956(19) 0.6788(3) 0.3320(2)
C11 C 0.2838(2) 0.5927(4) 0.3832(3)
H9 H 0.2496 0.6086 0.4237
C12 C 0.3114(3) 0.4835(4) 0.3706(3)
H10 H 0.2959 0.4228 0.4038
C13 C 0.3623(3) 0.4592(4) 0.3094(3)
H11 H 0.3794 0.3829 0.3029
C14 C 0.3880(2) 0.5454(3) 0.2584(3)
H12 H 0.4221 0.5296 0.2177
C15 C 0.3604(2) 0.6552(3) 0.2712(2)
C16 C 0.2494(2) 0.8657(3) 0.3835(2)
H13 H 0.2725 0.9428 0.3906
H14 H 0.2520 0.8288 0.4380
C17 C 0.1641(2) 0.8766(3) 0.3490(2)
C18 C 0.1295(2) 0.9052(3) 0.4940(2)
C19 C 0.1807(2) 0.9881(3) 0.5323(2)
C20 C 0.1919(2) 0.9913(3) 0.6192(2)
H15 H 0.2269 1.0448 0.6461
C21 C 0.1514(3) 0.9156(4) 0.6648(2)
H16 H 0.1600 0.9171 0.7229
C22 C 0.0983(3) 0.8372(4) 0.6273(2)
H17 H 0.0704 0.7879 0.6598
C23 C 0.0862(2) 0.8313(3) 0.5412(2)
C24 C 0.2792(3) 1.1321(3) 0.5151(3)
H18 H 0.2592 1.1880 0.5523
H19 H 0.3023 1.1723 0.4710
H20 H 0.3187 1.0845 0.5454
C25 C 0.0311(2) 0.7447(3) 0.4980(2)
H21 H -0.0111 0.7286 0.5341
C26 C -0.0090(2) 0.7819(3) 0.4100(2)
H22 H -0.0658 0.7933 0.4139
C27 C 0.0260(2) 0.8951(3) 0.3815(2)
H23 H 0.0162 0.9017 0.3212
H24 H 0.0006 0.9604 0.4064
C28 C 0.0023(2) 0.6788(4) 0.3508(2)
H25 H -0.0485 0.6445 0.3315
H26 H 0.0280 0.7045 0.3027
C29 C 0.0528(2) 0.5925(3) 0.4007(2)
C30 C 0.0708(2) 0.6311(3) 0.4812(2)
C31 C 0.1186(2) 0.5649(3) 0.5384(2)
H27 H 0.1311 0.5915 0.5927
C32 C 0.1469(2) 0.4592(3) 0.5131(2)
C33 C 0.1278(2) 0.4195(3) 0.4309(2)
C34 C 0.0811(2) 0.4861(3) 0.3754(2)
H28 H 0.0683 0.4601 0.3209
C35 C 0.2267(3) 0.4288(4) 0.6404(3)
H29 H 0.2594 0.4953 0.6317
H30 H 0.2584 0.3689 0.6689
H31 H 0.1850 0.4512 0.6735
C36 C 0.1445(3) 0.2664(4) 0.3327(3)
H32 H 0.0886 0.2542 0.3195
H33 H 0.1718 0.1934 0.3301
H34 H 0.1635 0.3199 0.2932
Br1 Br 0.38869(3) 0.12017(4) 0.30986(3)
loop_
_geom_bond_atom_site_label_1
_geom_bond_atom_site_label_2
_geom_bond_site_symmetry_1
_geom_bond_site_symmetry_2
N1 C8 1_555 1_555
N2 C9 1_555 1_555
N3 C17 1_555 1_555
O1 C7 1_555 1_555
O2 C17 1_555 1_555
O3 C19 1_555 1_555
O4 C32 1_555 1_555
O5 C33 1_555 1_555
C1 C2 1_555 1_555
C2 H1 1_555 1_555
C3 C2 1_555 1_555
H2 C3 1_555 1_555
C4 C3 1_555 1_555
H3 C4 1_555 1_555
C5 C4 1_555 1_555
H4 C5 1_555 1_555
C6 C1 1_555 1_555
H5 C6 1_555 1_555
C7 C1 1_555 1_555
C8 C7 1_555 1_555
H6 C8 1_555 1_555
H7 C8 1_555 1_555
C9 N1 1_555 1_555
H8 C9 1_555 1_555
C10 N2 1_555 1_555
C11 C10 1_555 1_555
H9 C11 1_555 1_555
C12 C11 1_555 1_555
H10 C12 1_555 1_555
C13 C12 1_555 1_555
H11 C13 1_555 1_555
C14 C13 1_555 1_555
H12 C14 1_555 1_555
C15 N1 1_555 1_555
C16 N2 1_555 1_555
H13 C16 1_555 1_555
H14 C16 1_555 1_555
C17 C16 1_555 1_555
C18 N3 1_555 1_555
C19 C18 1_555 1_555
C20 C19 1_555 1_555
H15 C20 1_555 1_555
C21 C20 1_555 1_555
H16 C21 1_555 1_555
C22 C21 1_555 1_555
H17 C22 1_555 1_555
C23 C18 1_555 1_555
C24 O3 1_555 1_555
H18 C24 1_555 1_555
H19 C24 1_555 1_555
H20 C24 1_555 1_555
C25 C23 1_555 1_555
H21 C25 1_555 1_555
C26 C25 1_555 1_555
H22 C26 1_555 1_555
C27 N3 1_555 1_555
H23 C27 1_555 1_555
H24 C27 1_555 1_555
C28 C26 1_555 1_555
H25 C28 1_555 1_555
H26 C28 1_555 1_555
C29 C28 1_555 1_555
C30 C25 1_555 1_555
C31 C30 1_555 1_555
H27 C31 1_555 1_555
C32 C31 1_555 1_555
C33 C32 1_555 1_555
C34 C29 1_555 1_555
H28 C34 1_555 1_555
C35 O4 1_555 1_555
H29 C35 1_555 1_555
H30 C35 1_555 1_555
H31 C35 1_555 1_555
C36 O5 1_555 1_555
H32 C36 1_555 1_555
H33 C36 1_555 1_555
H34 C36 1_555 1_555
C5 C6 1_555 1_555
C10 C15 1_555 1_555
C14 C15 1_555 1_555
C22 C23 1_555 1_555
C26 C27 1_555 1_555
C29 C30 1_555 1_555
C33 C34 1_555 1_555

#END
