
#######################################################################
#
#                 Cambridge Crystallographic Data Centre
#                                CCDC 
#
#######################################################################
#
# If this CIF has been generated from an entry in the Cambridge 
# Structural Database, then it will include bibliographic, chemical, 
# crystal, experimental, refinement or atomic coordinate data resulting 
# from the CCDC's data processing and validation procedures.
#
#######################################################################

data_EWAFUF
_chemical_formula_moiety         'C24 H19 N1'
_chemical_name_systematic        10-ethyl-14-methyldibenzo[a,c]acridine
_symmetry_cell_setting           orthorhombic
_symmetry_space_group_name_H-M   'P b c a'
_symmetry_Int_Tables_number      61
_space_group_name_Hall           '-P 2ac 2ab'
loop_
_symmetry_equiv_pos_site_id
_symmetry_equiv_pos_as_xyz
1 x,y,z
2 1/2-x,-y,1/2+z
3 -x,1/2+y,1/2-z
4 1/2+x,1/2-y,-z
5 -x,-y,-z
6 1/2+x,y,1/2-z
7 x,1/2-y,1/2+z
8 1/2-x,1/2+y,z
_cell_length_a                   11.335(2)
_cell_length_b                   7.4991(15)
_cell_length_c                   37.869(8)
_cell_angle_alpha                90
_cell_angle_beta                 90
_cell_angle_gamma                90
_cell_volume                     3218.95
_exptl_crystal_colour            colorless
_exptl_crystal_description       plate
_cell_formula_units_Z            8
loop_
_atom_site_label
_atom_site_type_symbol
_atom_site_fract_x
_atom_site_fract_y
_atom_site_fract_z
N1 N 0.36770(14) 0.2064(2) 0.58936(4)
C1 C 0.15722(17) 0.2174(3) 0.60099(5)
C2 C 0.25425(17) 0.1799(3) 0.57856(5)
C3 C 0.38634(16) 0.2523(3) 0.62266(5)
C4 C 0.47370(18) 0.3777(3) 0.72993(5)
H1 H 0.5490 0.4249 0.7358
C5 C 0.53397(16) 0.3667(3) 0.66614(5)
C6 C 0.29521(16) 0.2681(3) 0.64858(5)
C7 C 0.17843(16) 0.2673(3) 0.63655(5)
C8 C 0.50834(16) 0.3037(3) 0.63202(5)
C9 C 0.04093(17) 0.1978(3) 0.58703(5)
H2 H -0.0256 0.2244 0.6014
C10 C 0.23623(17) 0.1218(3) 0.54290(5)
C11 C 0.12258(18) 0.1035(3) 0.53127(5)
H3 H 0.1088 0.0645 0.5078
C12 C 0.44511(17) 0.3484(3) 0.69425(5)
C13 C 0.28601(18) 0.2628(3) 0.74840(5)
H4 H 0.2336 0.2280 0.7667
C14 C 0.59637(17) 0.3056(3) 0.60608(5)
H5 H 0.5798 0.2595 0.5832
C15 C 0.33009(16) 0.2886(3) 0.68577(5)
C16 C 0.07566(17) 0.3317(3) 0.65851(5)
H6 H 0.0229 0.4037 0.6438
H7 H 0.1050 0.4042 0.6782
H8 H 0.0324 0.2288 0.6678
C17 C 0.3164(2) 0.0170(3) 0.48306(5)
H9 H 0.3906 -0.0032 0.4704
H10 H 0.2693 0.1060 0.4704
H11 H 0.2722 -0.0951 0.4845
C18 C 0.34290(18) 0.0843(3) 0.52026(5)
H12 H 0.3924 -0.0054 0.5324
H13 H 0.3899 0.1952 0.5183
C19 C 0.64649(17) 0.4387(3) 0.67259(6)
H14 H 0.6644 0.4849 0.6953
C20 C 0.25483(18) 0.2379(3) 0.71358(5)
H15 H 0.1807 0.1853 0.7082
C21 C 0.39461(19) 0.3391(3) 0.75666(5)
H16 H 0.4142 0.3645 0.7805
C22 C 0.02525(18) 0.1411(3) 0.55327(6)
H17 H -0.0525 0.1265 0.5443
C23 C 0.73114(17) 0.4435(3) 0.64656(6)
H18 H 0.8062 0.4946 0.6513
C24 C 0.70706(18) 0.3739(3) 0.61330(6)
H19 H 0.7665 0.3732 0.5956
loop_
_geom_bond_atom_site_label_1
_geom_bond_atom_site_label_2
_geom_bond_site_symmetry_1
_geom_bond_site_symmetry_2
N1 C2 1_555 1_555
C1 C2 1_555 1_555
C2 C10 1_555 1_555
C3 N1 1_555 1_555
C4 H1 1_555 1_555
C5 C8 1_555 1_555
C6 C3 1_555 1_555
C7 C1 1_555 1_555
C8 C3 1_555 1_555
C9 C1 1_555 1_555
H2 C9 1_555 1_555
C10 C11 1_555 1_555
C11 H3 1_555 1_555
C12 C4 1_555 1_555
C13 H4 1_555 1_555
C14 C8 1_555 1_555
H5 C14 1_555 1_555
C15 C6 1_555 1_555
C16 C7 1_555 1_555
H6 C16 1_555 1_555
H7 C16 1_555 1_555
H8 C16 1_555 1_555
C17 H9 1_555 1_555
H10 C17 1_555 1_555
H11 C17 1_555 1_555
C18 C10 1_555 1_555
H12 C18 1_555 1_555
H13 C18 1_555 1_555
C19 C5 1_555 1_555
H14 C19 1_555 1_555
C20 C13 1_555 1_555
H15 C20 1_555 1_555
C21 C4 1_555 1_555
H16 C21 1_555 1_555
C22 C9 1_555 1_555
H17 C22 1_555 1_555
C23 C19 1_555 1_555
H18 C23 1_555 1_555
C24 C14 1_555 1_555
H19 C24 1_555 1_555
C5 C12 1_555 1_555
C6 C7 1_555 1_555
C11 C22 1_555 1_555
C12 C15 1_555 1_555
C13 C21 1_555 1_555
C15 C20 1_555 1_555
C17 C18 1_555 1_555
C23 C24 1_555 1_555

#END
