
#######################################################################
#
#                 Cambridge Crystallographic Data Centre
#                                CCDC 
#
#######################################################################
#
# If this CIF has been generated from an entry in the Cambridge 
# Structural Database, then it will include bibliographic, chemical, 
# crystal, experimental, refinement or atomic coordinate data resulting 
# from the CCDC's data processing and validation procedures.
#
#######################################################################

data_EWAFOZ
_chemical_formula_moiety         'C24 H21 N1 O1'
_chemical_name_systematic        
7-ethyl-3-methyl-1,3-dihydro-10'H-spiro[indole-2,9'-phenanthren]-10'-one
_symmetry_cell_setting           monoclinic
_symmetry_space_group_name_H-M   'P 21/c'
_symmetry_Int_Tables_number      14
_space_group_name_Hall           '-P 2ybc'
loop_
_symmetry_equiv_pos_site_id
_symmetry_equiv_pos_as_xyz
1 x,y,z
2 -x,1/2+y,1/2-z
3 -x,-y,-z
4 x,1/2-y,1/2+z
_cell_length_a                   9.2943(19)
_cell_length_b                   18.714(4)
_cell_length_c                   20.557(4)
_cell_angle_alpha                90
_cell_angle_beta                 95.79(3)
_cell_angle_gamma                90
_cell_volume                     3557.31
_exptl_crystal_colour            yellow
_exptl_crystal_description       block
_cell_formula_units_Z            8
loop_
_atom_site_label
_atom_site_type_symbol
_atom_site_fract_x
_atom_site_fract_y
_atom_site_fract_z
O1 O 0.2239(2) 0.31157(10) 0.25008(9)
N1 N 0.2032(2) 0.20119(11) 0.16288(10)
H1 H 0.2058 0.1812 0.2017
C1 C 0.2958(3) 0.31790(14) 0.20367(12)
C2 C 0.3952(3) 0.37883(14) 0.19842(12)
C3 C 0.1839(3) 0.29723(14) 0.08680(12)
H2 H 0.2453 0.3188 0.0547
C4 C 0.5361(3) 0.30396(14) 0.12747(11)
C5 C 0.1118(3) 0.23007(15) 0.05880(13)
C6 C 0.4640(3) 0.18272(15) 0.10039(13)
H3 H 0.3941 0.1456 0.0991
C7 C 0.5081(3) 0.37338(14) 0.15806(12)
C8 C 0.4325(3) 0.24911(14) 0.12526(12)
C9 C 0.1226(3) 0.17703(14) 0.10641(13)
C10 C 0.2829(3) 0.26527(13) 0.14716(12)
C11 C 0.3762(3) 0.44076(15) 0.23390(14)
H4 H 0.3017 0.4430 0.2623
C12 C 0.0361(3) 0.21779(18) -0.00142(14)
H5 H 0.0280 0.2538 -0.0342
C13 C 0.4651(3) 0.49892(16) 0.22802(16)
H6 H 0.4517 0.5414 0.2521
C14 C 0.6993(3) 0.22367(17) 0.07925(13)
H7 H 0.7903 0.2151 0.0635
C15 C 0.6688(3) 0.28945(16) 0.10397(12)
H8 H 0.7398 0.3260 0.1051
C16 C 0.0708(3) 0.35124(15) 0.10474(14)
H9 H 0.0048 0.3624 0.0659
H10 H 0.1193 0.3950 0.1213
H11 H 0.0159 0.3308 0.1385
C17 C 0.5972(3) 0.17017(16) 0.07741(14)
H12 H 0.6180 0.1245 0.0604
C18 C 0.0569(3) 0.11045(16) 0.09676(18)
C19 C 0.5965(3) 0.43319(15) 0.15323(14)
H13 H 0.6735 0.4311 0.1262
C20 C 0.5740(4) 0.49509(16) 0.18690(16)
H14 H 0.6336 0.5355 0.1819
C21 C -0.0281(3) 0.1511(2) -0.01273(18)
H15 H -0.0790 0.1411 -0.0541
C22 C -0.0186(3) 0.09945(19) 0.0355(2)
H16 H -0.0652 0.0548 0.0265
C23 C -0.0506(5) 0.0115(4) 0.1611(3)
H17 H -0.0719 -0.0190 0.1226
H18 H -0.1356 0.0406 0.1676
H19 H -0.0259 -0.0185 0.1998
C24 C 0.0650(4) 0.05585(19) 0.1518(3)
H20 H 0.1487 0.0246 0.1462
H21 H 0.0888 0.0824 0.1931
O2 O 0.4247(2) 0.16742(10) 0.27949(9)
N2 N 0.2652(2) 0.21862(11) 0.37329(10)
H22 H 0.2182 0.2201 0.3339
C25 C 0.4394(3) 0.31939(14) 0.38697(12)
C26 C 0.6588(3) 0.31613(16) 0.32608(12)
C27 C 0.5606(3) 0.35417(15) 0.36655(12)
C28 C 0.3916(3) 0.07974(14) 0.48518(12)
H23 H 0.4777 0.0702 0.5127
C29 C 0.4819(3) 0.21492(14) 0.31341(12)
C30 C 0.4173(3) 0.23974(13) 0.37531(11)
C31 C 0.4904(3) 0.19700(14) 0.43732(12)
H24 H 0.4903 0.2291 0.4762
C32 C 0.3818(3) 0.13847(13) 0.44465(12)
C33 C 0.2550(3) 0.15292(13) 0.40505(11)
C34 C 0.3451(3) 0.35649(15) 0.42272(13)
H25 H 0.2631 0.3327 0.4365
C35 C 0.1356(3) 0.10746(14) 0.40213(13)
C36 C 0.7053(3) 0.21502(18) 0.25692(13)
H26 H 0.6748 0.1711 0.2368
C37 C 0.6449(3) 0.17111(16) 0.43408(14)
H27 H 0.6485 0.1400 0.3960
H28 H 0.6768 0.1444 0.4739
H29 H 0.7086 0.2123 0.4303
C38 C 0.3685(4) 0.42741(16) 0.43864(15)
H30 H 0.3023 0.4523 0.4628
C39 C 0.6184(3) 0.24971(15) 0.29853(12)
C40 C 0.0038(3) 0.12293(15) 0.35533(15)
H31 H 0.0365 0.1392 0.3134
H32 H -0.0496 0.1630 0.3732
C41 C 0.2725(3) 0.03454(15) 0.48496(14)
H33 H 0.2764 -0.0058 0.5131
C42 C 0.8372(3) 0.2452(2) 0.24512(15)
H34 H 0.8984 0.2213 0.2179
C43 C 0.7907(3) 0.3452(2) 0.31217(15)
H35 H 0.8202 0.3903 0.3301
C44 C 0.5820(4) 0.42595(16) 0.38389(15)
H36 H 0.6638 0.4504 0.3707
C45 C 0.4876(4) 0.46195(17) 0.41953(16)
H37 H 0.5047 0.5106 0.4309
C46 C 0.1481(3) 0.04843(14) 0.44374(14)
H38 H 0.0686 0.0166 0.4438
C47 C 0.8784(3) 0.3098(2) 0.27305(16)
H39 H 0.9687 0.3301 0.2652
C48 C -0.0998(4) 0.06130(18) 0.34133(19)
H40 H -0.1783 0.0759 0.3086
H41 H -0.1401 0.0473 0.3817
H42 H -0.0481 0.0207 0.3246
loop_
_geom_bond_atom_site_label_1
_geom_bond_atom_site_label_2
_geom_bond_site_symmetry_1
_geom_bond_site_symmetry_2
O1 C1 1_555 1_555
N1 H1 1_555 1_555
C1 C2 1_555 1_555
C2 C7 1_555 1_555
C3 H2 1_555 1_555
C4 C7 1_555 1_555
C5 C3 1_555 1_555
C6 H3 1_555 1_555
C7 C19 1_555 1_555
C8 C4 1_555 1_555
C9 N1 1_555 1_555
C10 N1 1_555 1_555
C11 C2 1_555 1_555
H4 C11 1_555 1_555
C12 C5 1_555 1_555
H5 C12 1_555 1_555
C13 C11 1_555 1_555
H6 C13 1_555 1_555
C14 H7 1_555 1_555
C15 C4 1_555 1_555
H8 C15 1_555 1_555
C16 C3 1_555 1_555
H9 C16 1_555 1_555
H10 C16 1_555 1_555
H11 C16 1_555 1_555
C17 C6 1_555 1_555
H12 C17 1_555 1_555
C18 C9 1_555 1_555
C19 H13 1_555 1_555
C20 C13 1_555 1_555
H14 C20 1_555 1_555
C21 C12 1_555 1_555
H15 C21 1_555 1_555
C22 C18 1_555 1_555
H16 C22 1_555 1_555
C23 H17 1_555 1_555
H18 C23 1_555 1_555
H19 C23 1_555 1_555
C24 C18 1_555 1_555
H20 C24 1_555 1_555
H21 C24 1_555 1_555
O2 C29 1_555 1_555
N2 H22 1_555 1_555
C25 C27 1_555 1_555
C26 C27 1_555 1_555
C27 C44 1_555 1_555
C28 H23 1_555 1_555
C29 C30 1_555 1_555
C30 N2 1_555 1_555
C31 C30 1_555 1_555
H24 C31 1_555 1_555
C32 C28 1_555 1_555
C33 N2 1_555 1_555
C34 C25 1_555 1_555
H25 C34 1_555 1_555
C35 C33 1_555 1_555
C36 H26 1_555 1_555
C37 C31 1_555 1_555
H27 C37 1_555 1_555
H28 C37 1_555 1_555
H29 C37 1_555 1_555
C38 C34 1_555 1_555
H30 C38 1_555 1_555
C39 C26 1_555 1_555
C40 C35 1_555 1_555
H31 C40 1_555 1_555
H32 C40 1_555 1_555
C41 C28 1_555 1_555
H33 C41 1_555 1_555
C42 C36 1_555 1_555
H34 C42 1_555 1_555
C43 C26 1_555 1_555
H35 C43 1_555 1_555
C44 H36 1_555 1_555
C45 C38 1_555 1_555
H37 C45 1_555 1_555
C46 C35 1_555 1_555
H38 C46 1_555 1_555
C47 C42 1_555 1_555
H39 C47 1_555 1_555
C48 C40 1_555 1_555
H40 C48 1_555 1_555
H41 C48 1_555 1_555
H42 C48 1_555 1_555
C1 C10 1_555 1_555
C3 C10 1_555 1_555
C5 C9 1_555 1_555
C6 C8 1_555 1_555
C8 C10 1_555 1_555
C14 C15 1_555 1_555
C14 C17 1_555 1_555
C19 C20 1_555 1_555
C21 C22 1_555 1_555
C23 C24 1_555 1_555
C25 C30 1_555 1_555
C29 C39 1_555 1_555
C31 C32 1_555 1_555
C32 C33 1_555 1_555
C36 C39 1_555 1_555
C41 C46 1_555 1_555
C43 C47 1_555 1_555
C44 C45 1_555 1_555

#END
