
#######################################################################
#
#                 Cambridge Crystallographic Data Centre
#                                CCDC 
#
#######################################################################
#
# If this CIF has been generated from an entry in the Cambridge 
# Structural Database, then it will include bibliographic, chemical, 
# crystal, experimental, refinement or atomic coordinate data resulting 
# from the CCDC's data processing and validation procedures.
#
#######################################################################

data_EWAHAM
_chemical_formula_moiety         'C38 H34 N1 P3'
_chemical_name_systematic        
'N-(Diphenylphosphino)-N-(2-(diphenylphosphino)ethyl)-P,P-diphenylphosphinous amide'
_symmetry_cell_setting           monoclinic
_symmetry_space_group_name_H-M   'P 21/n'
_symmetry_Int_Tables_number      14
_space_group_name_Hall           '-P 2yn'
loop_
_symmetry_equiv_pos_site_id
_symmetry_equiv_pos_as_xyz
1 x,y,z
2 1/2-x,1/2+y,1/2-z
3 -x,-y,-z
4 1/2+x,1/2-y,1/2+z
_cell_length_a                   17.526(3)
_cell_length_b                   10.1483(14)
_cell_length_c                   19.848(6)
_cell_angle_alpha                90
_cell_angle_beta                 106.36(2)
_cell_angle_gamma                90
_cell_volume                     3387.21
_exptl_crystal_colour            colorless
_exptl_crystal_description       plates
_cell_formula_units_Z            4
loop_
_atom_site_label
_atom_site_type_symbol
_atom_site_fract_x
_atom_site_fract_y
_atom_site_fract_z
P1 P 0.30851(6) 0.01809(11) 0.66253(7)
P2 P 0.26808(7) 0.12292(11) 0.51301(6)
P3 P 0.54899(7) 0.17985(9) 0.56474(6)
N1 N 0.33393(17) 0.0665(2) 0.58877(16)
C1 C 0.4165(2) 0.0618(3) 0.58463(19)
H1 H 0.4170 0.0175 0.5404
H2 H 0.4484 0.0075 0.6240
C2 C 0.45599(19) 0.1957(3) 0.58731(18)
H3 H 0.4663 0.2332 0.6351
H4 H 0.4201 0.2565 0.5539
C3 C 0.3745(3) 0.1135(4) 0.7347(2)
C4 C 0.3390(3) 0.2168(5) 0.7605(3)
H5 H 0.2833 0.2297 0.7421
C5 C 0.3813(4) 0.3007(5) 0.8116(3)
H6 H 0.3552 0.3703 0.8283
C6 C 0.4612(4) 0.2830(6) 0.8381(3)
H7 H 0.4909 0.3403 0.8737
C7 C 0.4994(3) 0.1835(6) 0.8139(3)
H8 H 0.5553 0.1729 0.8320
C8 C 0.4556(3) 0.0979(4) 0.7627(3)
H9 H 0.4819 0.0277 0.7467
C9 C 0.3544(2) -0.1460(4) 0.6789(3)
C10 C 0.3755(3) -0.2002(6) 0.7467(3)
H10 H 0.3717 -0.1473 0.7851
C11 C 0.4016(3) -0.3287(6) 0.7587(3)
H11 H 0.4151 -0.3638 0.8050
C12 C 0.4077(3) -0.4053(5) 0.7038(4)
H12 H 0.4277 -0.4927 0.7120
C13 C 0.3853(3) -0.3558(6) 0.6374(3)
H13 H 0.3879 -0.4098 0.5991
C14 C 0.3588(3) -0.2289(5) 0.6256(3)
H14 H 0.3430 -0.1969 0.5787
C15 C 0.1998(3) -0.0072(5) 0.4793(3)
C16 C 0.1601(5) -0.0818(9) 0.5117(4)
H15 H 0.1657 -0.0638 0.5599
C17 C 0.1111(7) -0.1834(11) 0.4814(5)
H16 H 0.0811 -0.2299 0.5069
C18 C 0.1063(7) -0.2164(8) 0.4137(6)
H17 H 0.0808 -0.2959 0.3941
C19 C 0.1373(5) -0.1376(10) 0.3754(5)
H18 H 0.1252 -0.1468 0.3259
C20 C 0.1886(3) -0.0402(6) 0.4117(5)
H19 H 0.2183 0.0070 0.3864
C21 C 0.2063(3) 0.2439(5) 0.5426(3)
C22 C 0.1287(4) 0.2563(7) 0.5143(3)
H20 H 0.1013 0.1916 0.4819
C23 C 0.0851(4) 0.3636(9) 0.5310(5)
H21 H 0.0292 0.3695 0.5109
C24 C 0.1238(5) 0.4553(8) 0.5752(4)
H22 H 0.0946 0.5278 0.5854
C25 C 0.2022(5) 0.4501(6) 0.6058(3)
H23 H 0.2295 0.5160 0.6375
C26 C 0.2412(3) 0.3409(6) 0.5880(3)
H24 H 0.2968 0.3340 0.6095
C27 C 0.6093(2) 0.1007(4) 0.6439(2)
C28 C 0.6482(3) 0.1645(4) 0.7048(3)
H25 H 0.6449 0.2578 0.7061
C29 C 0.6916(3) 0.0997(6) 0.7641(3)
H26 H 0.7191 0.1471 0.8051
C30 C 0.6940(3) -0.0358(7) 0.7624(3)
H27 H 0.7233 -0.0822 0.8031
C31 C 0.6556(3) -0.1051(5) 0.7042(4)
H28 H 0.6574 -0.1987 0.7040
C32 C 0.6137(2) -0.0359(5) 0.6453(2)
H29 H 0.5870 -0.0837 0.6042
C33 C 0.5873(3) 0.3466(4) 0.5745(2)
C34 C 0.5498(3) 0.4539(5) 0.5925(2)
H30 H 0.5015 0.4406 0.6045
C35 C 0.5794(4) 0.5815(6) 0.5941(3)
H31 H 0.5520 0.6532 0.6075
C36 C 0.6474(5) 0.6026(7) 0.5764(3)
H32 H 0.6684 0.6892 0.5780
C37 C 0.6852(4) 0.5011(8) 0.5564(3)
H33 H 0.7320 0.5168 0.5426
C38 C 0.6560(4) 0.3718(6) 0.5557(2)
H34 H 0.6839 0.3010 0.5422
loop_
_geom_bond_atom_site_label_1
_geom_bond_atom_site_label_2
_geom_bond_site_symmetry_1
_geom_bond_site_symmetry_2
P1 N1 1_555 1_555
P2 N1 1_555 1_555
P3 C2 1_555 1_555
N1 C1 1_555 1_555
C1 H1 1_555 1_555
H2 C1 1_555 1_555
C2 C1 1_555 1_555
H3 C2 1_555 1_555
H4 C2 1_555 1_555
C3 P1 1_555 1_555
C4 C3 1_555 1_555
H5 C4 1_555 1_555
C5 C4 1_555 1_555
H6 C5 1_555 1_555
C6 C5 1_555 1_555
H7 C6 1_555 1_555
C7 C6 1_555 1_555
H8 C7 1_555 1_555
C8 C3 1_555 1_555
H9 C8 1_555 1_555
C9 P1 1_555 1_555
C10 C9 1_555 1_555
H10 C10 1_555 1_555
C11 C10 1_555 1_555
H11 C11 1_555 1_555
C12 C11 1_555 1_555
H12 C12 1_555 1_555
C13 C12 1_555 1_555
H13 C13 1_555 1_555
C14 C9 1_555 1_555
H14 C14 1_555 1_555
C15 P2 1_555 1_555
C16 C15 1_555 1_555
H15 C16 1_555 1_555
C17 C16 1_555 1_555
H16 C17 1_555 1_555
C18 C17 1_555 1_555
H17 C18 1_555 1_555
C19 C18 1_555 1_555
H18 C19 1_555 1_555
C20 C15 1_555 1_555
H19 C20 1_555 1_555
C21 P2 1_555 1_555
C22 C21 1_555 1_555
H20 C22 1_555 1_555
C23 C22 1_555 1_555
H21 C23 1_555 1_555
C24 C23 1_555 1_555
H22 C24 1_555 1_555
C25 C24 1_555 1_555
H23 C25 1_555 1_555
C26 C21 1_555 1_555
H24 C26 1_555 1_555
C27 P3 1_555 1_555
C28 C27 1_555 1_555
H25 C28 1_555 1_555
C29 C28 1_555 1_555
H26 C29 1_555 1_555
C30 C29 1_555 1_555
H27 C30 1_555 1_555
C31 C30 1_555 1_555
H28 C31 1_555 1_555
C32 C27 1_555 1_555
H29 C32 1_555 1_555
C33 P3 1_555 1_555
C34 C33 1_555 1_555
H30 C34 1_555 1_555
C35 C34 1_555 1_555
H31 C35 1_555 1_555
C36 C35 1_555 1_555
H32 C36 1_555 1_555
C37 C36 1_555 1_555
H33 C37 1_555 1_555
C38 C33 1_555 1_555
H34 C38 1_555 1_555
C7 C8 1_555 1_555
C13 C14 1_555 1_555
C19 C20 1_555 1_555
C25 C26 1_555 1_555
C31 C32 1_555 1_555
C37 C38 1_555 1_555

#END
