
#######################################################################
#
#                 Cambridge Crystallographic Data Centre
#                                CCDC 
#
#######################################################################
#
# If this CIF has been generated from an entry in the Cambridge 
# Structural Database, then it will include bibliographic, chemical, 
# crystal, experimental, refinement or atomic coordinate data resulting 
# from the CCDC's data processing and validation procedures.
#
#######################################################################

data_EWAMOF
_chemical_name_common            'Orcinol bis(urea)'
_chemical_formula_moiety         'C7 H8 O2,2(C1 H4 N2 O1)'
_chemical_name_systematic        '5-methylbenzene-1,3-diol bis(urea)'
_symmetry_cell_setting           monoclinic
_symmetry_space_group_name_H-M   'C 2/c'
_symmetry_Int_Tables_number      15
_space_group_name_Hall           '-C 2yn'
loop_
_symmetry_equiv_pos_site_id
_symmetry_equiv_pos_as_xyz
1 x,y,z
2 -x,y,1/2-z
3 1/2+x,1/2+y,z
4 1/2-x,1/2+y,1/2-z
5 -x,-y,-z
6 x,-y,1/2+z
7 1/2-x,1/2-y,-z
8 1/2+x,1/2-y,1/2+z
_cell_length_a                   16.602(3)
_cell_length_b                   10.546(2)
_cell_length_c                   7.0700(14)
_cell_angle_alpha                90
_cell_angle_beta                 99.30(3)
_cell_angle_gamma                90
_cell_volume                     1221.58
_exptl_crystal_colour            colorless
_exptl_crystal_description       block
_cell_formula_units_Z            4
loop_
_atom_site_label
_atom_site_type_symbol
_atom_site_fract_x
_atom_site_fract_y
_atom_site_fract_z
O1 O -0.14246(17) 0.5807(3) 0.7171(4)
C1 C 0.00000 0.3094(5) 0.75000
C2 C -0.0734(2) 0.3765(3) 0.7357(5)
C3 C -0.0727(2) 0.5093(3) 0.7357(5)
C4 C 0.00000 0.5757(5) 0.75000
C5 C 0.00000 0.1658(5) 0.75000
H1 H -0.124(3) 0.330(5) 0.725(7)
H2 H 0.00000 0.671(7) 0.75000
H3 H -0.184(3) 0.535(5) 0.741(8)
O1A O 0.14246(17) 0.5807(3) 0.7829(4)
C2A C 0.0734(2) 0.3765(3) 0.7643(5)
C3A C 0.0727(2) 0.5093(3) 0.7643(5)
H1A H 0.124(3) 0.330(5) 0.775(7)
H3A H 0.184(3) 0.535(5) 0.759(8)
O2 O 0.21388(16) -0.0116(3) 0.3055(4)
N1 N 0.1626(2) 0.1582(3) 0.4456(5)
N2 N 0.1867(2) 0.1693(3) 0.1334(5)
C6 C 0.1883(2) 0.1018(3) 0.2958(5)
H7 H 0.150(3) 0.232(5) 0.442(7)
H8 H 0.172(3) 0.123(5) 0.565(8)
H9 H 0.165(3) 0.246(5) 0.122(6)
H10 H 0.192(3) 0.116(5) 0.028(7)
H4? H 0.05113 0.13486 0.82451
H5? H -0.04616 0.13486 0.80755
H6? H -0.00497 0.13486 0.61794
loop_
_geom_bond_atom_site_label_1
_geom_bond_atom_site_label_2
_geom_bond_site_symmetry_1
_geom_bond_site_symmetry_2
O1 C3 1_555 1_555
C1 C2 1_555 1_555
C2 C3 1_555 1_555
C3 C4 1_555 1_555
C4 H2 1_555 1_555
C5 C1 1_555 1_555
O2 C6 1_555 1_555
N1 C6 1_555 1_555
N2 C6 1_555 1_555
H1 C2 1_555 1_555
H3 O1 1_555 1_555
H7 N1 1_555 1_555
H8 N1 1_555 1_555
H9 N2 1_555 1_555
H10 N2 1_555 1_555
O1A C3A 1_555 1_555
C2A C1 1_555 1_555
C3A C4 1_555 1_555
H1A C2A 1_555 1_555
H3A O1A 1_555 1_555
C2A C3A 1_555 1_555

#END
