
#######################################################################
#
#                 Cambridge Crystallographic Data Centre
#                                CCDC 
#
#######################################################################
#
# If this CIF has been generated from an entry in the Cambridge 
# Structural Database, then it will include bibliographic, chemical, 
# crystal, experimental, refinement or atomic coordinate data resulting 
# from the CCDC's data processing and validation procedures.
#
#######################################################################

data_EWAMAR
_chemical_name_common            Orcinol
_chemical_formula_moiety         'C7 H8 O2'
_chemical_name_systematic        5-Methylbenzene-1,3-diol
_symmetry_cell_setting           tetragonal
_symmetry_space_group_name_H-M   'I -4'
_symmetry_Int_Tables_number      82
_space_group_name_Hall           'I -4'
loop_
_symmetry_equiv_pos_site_id
_symmetry_equiv_pos_as_xyz
1 x,y,z
2 y,-x,-z
3 -x,-y,z
4 -y,x,-z
5 1/2+x,1/2+y,1/2+z
6 1/2+y,1/2-x,1/2-z
7 1/2-x,1/2-y,1/2+z
8 1/2-y,1/2+x,1/2-z
_cell_length_a                   20.060(3)
_cell_length_b                   20.060(3)
_cell_length_c                   6.4230(13)
_cell_angle_alpha                90
_cell_angle_beta                 90
_cell_angle_gamma                90
_cell_volume                     2584.64
_exptl_crystal_colour            colorless
_exptl_crystal_description       plate
_cell_formula_units_Z            16
loop_
_atom_site_label
_atom_site_type_symbol
_atom_site_fract_x
_atom_site_fract_y
_atom_site_fract_z
O1 O 0.55083(12) 0.75746(13) 1.0561(4)
O2 O 0.70422(11) 0.81490(12) 0.5138(4)
C1 C 0.52776(15) 0.86082(16) 0.5921(5)
C2 C 0.51541(15) 0.82614(16) 0.7784(5)
C3 C 0.56581(16) 0.79053(16) 0.8735(5)
C4 C 0.62979(15) 0.78756(15) 0.7875(5)
C5 C 0.64177(14) 0.82200(15) 0.6028(5)
C6 C 0.59172(15) 0.85776(15) 0.5048(5)
C7 C 0.47303(17) 0.8997(2) 0.4882(6)
H1 H 0.58410 0.73530 1.09500
H2 H 0.47220 0.82720 0.83900
H3 H 0.7197(17) 0.848(2) 0.455(6)
H4 H 0.66420 0.76270 0.85330
H5 H 0.60080 0.88030 0.37780
H6 H 0.48200 0.90270 0.33850
H7 H 0.47110 0.94470 0.54760
H8 H 0.43030 0.87710 0.51080
O3 O 0.66288(12) 0.71276(11) 0.2539(4)
O4 O 0.75507(13) 0.57521(11) 0.7886(4)
C8 C 0.64522(16) 0.53428(16) 0.3442(5)
C9 C 0.68337(16) 0.52616(15) 0.5252(5)
C10 C 0.71572(15) 0.58071(15) 0.6111(5)
C11 C 0.71000(14) 0.64378(15) 0.5250(5)
C12 C 0.67144(16) 0.65128(15) 0.3465(5)
C13 C 0.63906(16) 0.59724(16) 0.2560(6)
C14 C 0.6094(2) 0.47512(18) 0.2503(7)
H9 H 0.68290 0.74200 0.32390
H10 H 0.74410 0.54090 0.85520
H11 H 0.68700 0.48350 0.58870
H12 H 0.73180 0.68090 0.58630
H13 H 0.61280 0.60330 0.13430
H14 H 0.59920 0.48440 0.10390
H15 H 0.56790 0.46710 0.32660
H16 H 0.63800 0.43560 0.25940
loop_
_geom_bond_atom_site_label_1
_geom_bond_atom_site_label_2
_geom_bond_site_symmetry_1
_geom_bond_site_symmetry_2
O1 C3 1_555 1_555
O2 C5 1_555 1_555
C1 C2 1_555 1_555
C2 C3 1_555 1_555
C3 C4 1_555 1_555
C4 C5 1_555 1_555
C5 C6 1_555 1_555
C6 C1 1_555 1_555
C7 C1 1_555 1_555
O3 C12 1_555 1_555
O4 C10 1_555 1_555
C8 C9 1_555 1_555
C9 C10 1_555 1_555
C10 C11 1_555 1_555
C11 C12 1_555 1_555
C12 C13 1_555 1_555
C13 C8 1_555 1_555
C14 C8 1_555 1_555
H1 O1 1_555 1_555
H2 C2 1_555 1_555
H3 O2 1_555 1_555
H4 C4 1_555 1_555
H5 C6 1_555 1_555
H6 C7 1_555 1_555
H7 C7 1_555 1_555
H8 C7 1_555 1_555
H9 O3 1_555 1_555
H10 O4 1_555 1_555
H11 C9 1_555 1_555
H12 C11 1_555 1_555
H13 C13 1_555 1_555
H14 C14 1_555 1_555
H15 C14 1_555 1_555
H16 C14 1_555 1_555

#END
