
#######################################################################
#
#                 Cambridge Crystallographic Data Centre
#                                CCDC 
#
#######################################################################
#
# If this CIF has been generated from an entry in the Cambridge 
# Structural Database, then it will include bibliographic, chemical, 
# crystal, experimental, refinement or atomic coordinate data resulting 
# from the CCDC's data processing and validation procedures.
#
#######################################################################

data_EWAPAU01
_chemical_name_common            'Orcinol bis(N,N-dimethylpyridin-4-amine)'
_chemical_formula_moiety         'C7 H8 O2,2(C7 H10 N2)'
_chemical_name_systematic        
'5-Methylbenzene-1,3-diol bis(N,N-dimethylpyridin-4-amine)'
_symmetry_cell_setting           triclinic
_symmetry_space_group_name_H-M   'P -1'
_symmetry_Int_Tables_number      2
_space_group_name_Hall           '-P 1'
loop_
_symmetry_equiv_pos_site_id
_symmetry_equiv_pos_as_xyz
1 x,y,z
2 -x,-y,-z
_cell_length_a                   7.8586(19)
_cell_length_b                   8.1455(19)
_cell_length_c                   16.239(4)
_cell_angle_alpha                83.929(6)
_cell_angle_beta                 81.521(6)
_cell_angle_gamma                86.524(6)
_cell_volume                     1021.29
_exptl_crystal_colour            colorless
_exptl_crystal_description       block
_cell_formula_units_Z            2
loop_
_atom_site_label
_atom_site_type_symbol
_atom_site_fract_x
_atom_site_fract_y
_atom_site_fract_z
N1 N 0.8676(5) 0.7312(4) 0.0811(2)
N2 N 0.7007(5) 1.1616(4) -0.0548(2)
C1 C 0.8503(6) 0.7353(5) 0.0003(3)
C2 C 0.7935(6) 0.8729(5) -0.0474(3)
C3 C 0.7509(5) 1.0212(5) -0.0111(2)
C4 C 0.7668(6) 1.0172(5) 0.0741(3)
C5 C 0.8254(7) 0.8731(6) 0.1158(3)
C6 C 0.6900(8) 1.1671(6) -0.1436(3)
C7 C 0.6540(7) 1.3117(5) -0.0150(3)
H1 H 0.87910 0.63690 -0.02630
H2 H 0.78330 0.86690 -0.10460
H3 H 0.73740 1.11290 0.10280
H4 H 0.83660 0.87450 0.17320
H5 H 0.79450 1.11410 -0.17190
H6 H 0.67910 1.28240 -0.16720
H7 H 0.58930 1.10850 -0.15160
H8 H 0.54980 1.29550 0.02570
H9 H 0.63210 1.40220 -0.05750
H10 H 0.74830 1.33910 0.01360
N3 N 0.1310(4) 0.2475(4) 0.5754(2)
N4 N 0.3202(5) 0.6796(4) 0.4384(2)
C8 C 0.1442(6) 0.2703(5) 0.4919(3)
C9 C 0.2065(5) 0.4087(5) 0.4438(2)
C10 C 0.2605(5) 0.5379(5) 0.4831(2)
C11 C 0.2483(5) 0.5146(5) 0.5705(2)
C12 C 0.1836(5) 0.3703(5) 0.6120(3)
C13 C 0.3416(7) 0.6950(6) 0.3472(3)
C14 C 0.3681(6) 0.8150(5) 0.4795(3)
H11 H 0.10780 0.18490 0.46380
H12 H 0.21310 0.41690 0.38470
H13 H 0.28410 0.59700 0.60060
H14 H 0.17600 0.35740 0.67130
H15 H 0.42710 0.61100 0.32620
H16 H 0.38090 0.80520 0.32540
H17 H 0.23120 0.67900 0.32850
H18 H 0.27390 0.84380 0.52290
H19 H 0.39110 0.91100 0.43840
H20 H 0.47190 0.78210 0.50520
O1 O 1.0408(4) 0.5058(3) 0.17206(19)
O2 O 1.0426(4) 0.0057(3) 0.34325(19)
C15 C 0.9476(5) 0.3788(4) 0.2132(2)
C16 C 1.0353(5) 0.2534(4) 0.2578(2)
C17 C 0.9482(5) 0.1217(4) 0.3012(2)
C18 C 0.7728(5) 0.1123(4) 0.2998(2)
C19 C 0.6838(5) 0.2376(4) 0.2553(2)
C20 C 0.7723(5) 0.3720(5) 0.2119(2)
C21 C 0.4958(5) 0.2285(5) 0.2539(3)
H21 H 0.97570 0.57380 0.14760
H22 H 1.15550 0.25880 0.25840
H23 H 0.97850 -0.06890 0.36750
H24 H 0.71320 0.02080 0.32900
H25 H 0.71250 0.45770 0.18180
H26 H 0.44950 0.33570 0.23150
H27 H 0.43770 0.20040 0.31090
H28 H 0.47640 0.14330 0.21840
loop_
_geom_bond_atom_site_label_1
_geom_bond_atom_site_label_2
_geom_bond_site_symmetry_1
_geom_bond_site_symmetry_2
N1 C1 1_555 1_555
N2 C3 1_555 1_555
C1 C2 1_555 1_555
C2 C3 1_555 1_555
C3 C4 1_555 1_555
C4 C5 1_555 1_555
C5 N1 1_555 1_555
C6 N2 1_555 1_555
C7 N2 1_555 1_555
N3 C8 1_555 1_555
N4 C10 1_555 1_555
C8 C9 1_555 1_555
C9 C10 1_555 1_555
C10 C11 1_555 1_555
C11 C12 1_555 1_555
C12 N3 1_555 1_555
C13 N4 1_555 1_555
C14 N4 1_555 1_555
O1 C15 1_555 1_555
O2 C17 1_555 1_555
C15 C16 1_555 1_555
C16 C17 1_555 1_555
C17 C18 1_555 1_555
C18 C19 1_555 1_555
C19 C20 1_555 1_555
C20 C15 1_555 1_555
C21 C19 1_555 1_555
H1 C1 1_555 1_555
H2 C2 1_555 1_555
H3 C4 1_555 1_555
H4 C5 1_555 1_555
H5 C6 1_555 1_555
H6 C6 1_555 1_555
H7 C6 1_555 1_555
H8 C7 1_555 1_555
H9 C7 1_555 1_555
H10 C7 1_555 1_555
H11 C8 1_555 1_555
H12 C9 1_555 1_555
H13 C11 1_555 1_555
H14 C12 1_555 1_555
H15 C13 1_555 1_555
H16 C13 1_555 1_555
H17 C13 1_555 1_555
H18 C14 1_555 1_555
H19 C14 1_555 1_555
H20 C14 1_555 1_555
H21 O1 1_555 1_555
H22 C16 1_555 1_555
H23 O2 1_555 1_555
H24 C18 1_555 1_555
H25 C20 1_555 1_555
H26 C21 1_555 1_555
H27 C21 1_555 1_555
H28 C21 1_555 1_555

#END
