
#######################################################################
#
#                 Cambridge Crystallographic Data Centre
#                                CCDC 
#
#######################################################################
#
# If this CIF has been generated from an entry in the Cambridge 
# Structural Database, then it will include bibliographic, chemical, 
# crystal, experimental, refinement or atomic coordinate data resulting 
# from the CCDC's data processing and validation procedures.
#
#######################################################################

data_EWAPUO
_chemical_name_common            'Orcinol acridine hemihydrate'
_chemical_formula_moiety         'C7 H8 O2,C13 H9 N1,0.5(H2 O1)'
_chemical_name_systematic        '5-Methylbenzene-1,3-diol acridine hemihydrate'
_symmetry_cell_setting           orthorhombic
_symmetry_space_group_name_H-M   'P n a 21'
_symmetry_Int_Tables_number      33
_space_group_name_Hall           'P 2c -2n'
loop_
_symmetry_equiv_pos_site_id
_symmetry_equiv_pos_as_xyz
1 x,y,z
2 -x,-y,1/2+z
3 1/2-x,1/2+y,1/2+z
4 1/2+x,1/2-y,z
_cell_length_a                   9.3390(7)
_cell_length_b                   25.441(2)
_cell_length_c                   13.7503(11)
_cell_angle_alpha                90
_cell_angle_beta                 90
_cell_angle_gamma                90
_cell_volume                     3266.98
_exptl_crystal_colour            yellow
_exptl_crystal_description       prism
_cell_formula_units_Z            8
loop_
_atom_site_label
_atom_site_type_symbol
_atom_site_fract_x
_atom_site_fract_y
_atom_site_fract_z
N1 N 0.3162(2) 0.41835(7) 0.19318(15)
C1 C 0.4577(2) 0.40848(9) 0.19545(18)
C2 C 0.5061(3) 0.35541(10) 0.1915(2)
C3 C 0.6484(3) 0.34421(11) 0.1951(2)
C4 C 0.7521(3) 0.38489(11) 0.2017(2)
C5 C 0.7106(3) 0.43595(11) 0.2051(2)
C6 C 0.5621(2) 0.44968(9) 0.20257(18)
C7 C 0.5138(2) 0.50130(10) 0.20781(18)
C8 C 0.3670(2) 0.51184(9) 0.20624(18)
C9 C 0.3097(3) 0.56377(10) 0.21417(19)
C10 C 0.1654(3) 0.57183(10) 0.2154(2)
C11 C 0.0703(3) 0.52858(10) 0.2093(2)
C12 C 0.1197(2) 0.47874(10) 0.1999(2)
C13 C 0.2699(2) 0.46853(9) 0.19927(17)
H1 H 0.43850 0.32760 0.18640
H2 H 0.67900 0.30860 0.19310
H3 H 0.85100 0.37630 0.20380
H4 H 0.78090 0.46290 0.20910
H5 H 0.58050 0.52940 0.21240
H6 H 0.37280 0.59300 0.21860
H7 H 0.12860 0.60650 0.22040
H8 H -0.03000 0.53460 0.21180
H9 H 0.05400 0.45040 0.19360
N2 N 0.3163(2) 0.47819(7) 0.47741(15)
C14 C 0.4584(3) 0.47026(9) 0.46656(17)
C15 C 0.5127(3) 0.41807(10) 0.4691(2)
C16 C 0.6558(3) 0.40900(12) 0.4586(2)
C17 C 0.7525(3) 0.45114(14) 0.4456(2)
C18 C 0.7054(3) 0.50132(13) 0.4413(2)
C19 C 0.5562(3) 0.51306(10) 0.45128(18)
C20 C 0.5007(3) 0.56373(10) 0.44658(19)
C21 C 0.3546(3) 0.57237(9) 0.45548(18)
C22 C 0.2901(3) 0.62312(10) 0.4493(2)
C23 C 0.1471(3) 0.62918(10) 0.4586(2)
C24 C 0.0573(3) 0.58497(11) 0.4756(2)
C25 C 0.1143(3) 0.53559(10) 0.4820(2)
C26 C 0.2638(3) 0.52754(9) 0.47168(18)
H10 H 0.44900 0.38940 0.47820
H11 H 0.69080 0.37390 0.46000
H12 H 0.85200 0.44410 0.43990
H13 H 0.77190 0.52910 0.43160
H14 H 0.56340 0.59270 0.43720
H15 H 0.34860 0.65310 0.43840
H16 H 0.10620 0.66330 0.45370
H17 H -0.04300 0.58980 0.48270
H18 H 0.05320 0.50640 0.49340
O1 O 0.12263(19) 0.34202(7) 0.21782(13)
O2 O 0.15009(19) 0.40084(6) 0.54874(12)
C27 C 0.0874(2) 0.33755(9) 0.31372(18)
C28 C 0.1390(2) 0.37286(9) 0.38263(18)
C29 C 0.0993(2) 0.36681(8) 0.47928(18)
C30 C 0.0078(3) 0.32650(9) 0.50789(19)
C31 C -0.0434(2) 0.29117(9) 0.4386(2)
C32 C -0.0030(3) 0.29667(9) 0.3418(2)
C33 C -0.1407(3) 0.24635(12) 0.4682(2)
H19 H 0.198(5) 0.3666(16) 0.210(4)
H20 H 0.20060 0.40080 0.36380
H21 H 0.212(5) 0.4280(16) 0.520(3)
H22 H -0.01960 0.32310 0.57410
H23 H -0.03720 0.27250 0.29460
H24 H -0.15850 0.24800 0.53840
H25 H -0.09490 0.21280 0.45210
H26 H -0.23180 0.24920 0.43320
O3 O 0.1670(2) 0.37919(8) 0.74253(15)
O4 O 0.3612(2) 0.26535(8) 0.98277(15)
C34 C 0.2742(3) 0.34586(9) 0.77047(19)
C35 C 0.2626(2) 0.32382(8) 0.86266(17)
C36 C 0.3680(3) 0.28889(8) 0.89328(18)
C37 C 0.4840(2) 0.27704(9) 0.8344(2)
C38 C 0.4963(3) 0.30034(9) 0.74253(19)
C39 C 0.3903(2) 0.33445(9) 0.71084(19)
C40 C 0.6250(3) 0.28836(11) 0.6799(2)
H27 H 0.168(4) 0.3843(14) 0.679(3)
H28 H 0.18440 0.33240 0.90390
H29 H 0.284(5) 0.2740(16) 1.009(3)
H30 H 0.55520 0.25320 0.85640
H31 H 0.39700 0.35010 0.64820
H32 H 0.68800 0.26370 0.71400
H33 H 0.67720 0.32100 0.66640
H34 H 0.59320 0.27260 0.61850
O5 O 0.1125(2) 0.27323(9) 1.06742(16)
H35 H 0.033(4) 0.2647(13) 1.047(3)
H36 H 0.098(4) 0.2952(13) 1.119(3)
loop_
_geom_bond_atom_site_label_1
_geom_bond_atom_site_label_2
_geom_bond_site_symmetry_1
_geom_bond_site_symmetry_2
N1 C1 1_555 1_555
C1 C2 1_555 1_555
C2 C3 1_555 1_555
C3 C4 1_555 1_555
C4 C5 1_555 1_555
C5 C6 1_555 1_555
C6 C1 1_555 1_555
C7 C6 1_555 1_555
C8 C7 1_555 1_555
C9 C8 1_555 1_555
C10 C9 1_555 1_555
C11 C10 1_555 1_555
C12 C11 1_555 1_555
C13 N1 1_555 1_555
N2 C14 1_555 1_555
C14 C15 1_555 1_555
C15 C16 1_555 1_555
C16 C17 1_555 1_555
C17 C18 1_555 1_555
C18 C19 1_555 1_555
C19 C14 1_555 1_555
C20 C19 1_555 1_555
C21 C20 1_555 1_555
C22 C21 1_555 1_555
C23 C22 1_555 1_555
C24 C23 1_555 1_555
C25 C24 1_555 1_555
C26 N2 1_555 1_555
O1 C27 1_555 1_555
O2 C29 1_555 1_555
C27 C28 1_555 1_555
C28 C29 1_555 1_555
C29 C30 1_555 1_555
C30 C31 1_555 1_555
C31 C32 1_555 1_555
C32 C27 1_555 1_555
C33 C31 1_555 1_555
O3 C34 1_555 1_555
O4 C36 1_555 1_555
C34 C35 1_555 1_555
C35 C36 1_555 1_555
C36 C37 1_555 1_555
C37 C38 1_555 1_555
C38 C39 1_555 1_555
C39 C34 1_555 1_555
C40 C38 1_555 1_555
O5 H35 1_555 1_555
H1 C2 1_555 1_555
H2 C3 1_555 1_555
H3 C4 1_555 1_555
H4 C5 1_555 1_555
H5 C7 1_555 1_555
H6 C9 1_555 1_555
H7 C10 1_555 1_555
H8 C11 1_555 1_555
H9 C12 1_555 1_555
H10 C15 1_555 1_555
H11 C16 1_555 1_555
H12 C17 1_555 1_555
H13 C18 1_555 1_555
H14 C20 1_555 1_555
H15 C22 1_555 1_555
H16 C23 1_555 1_555
H17 C24 1_555 1_555
H18 C25 1_555 1_555
H19 O1 1_555 1_555
H20 C28 1_555 1_555
H21 O2 1_555 1_555
H22 C30 1_555 1_555
H23 C32 1_555 1_555
H24 C33 1_555 1_555
H25 C33 1_555 1_555
H26 C33 1_555 1_555
H27 O3 1_555 1_555
H28 C35 1_555 1_555
H29 O4 1_555 1_555
H30 C37 1_555 1_555
H31 C39 1_555 1_555
H32 C40 1_555 1_555
H33 C40 1_555 1_555
H34 C40 1_555 1_555
H36 O5 1_555 1_555
C8 C13 1_555 1_555
C12 C13 1_555 1_555
C21 C26 1_555 1_555
C25 C26 1_555 1_555

#END
