
#######################################################################
#
#                 Cambridge Crystallographic Data Centre
#                                CCDC 
#
#######################################################################
#
# If this CIF has been generated from an entry in the Cambridge 
# Structural Database, then it will include bibliographic, chemical, 
# crystal, experimental, refinement or atomic coordinate data resulting 
# from the CCDC's data processing and validation procedures.
#
#######################################################################

data_EWAQOJ
_chemical_name_common            'Orcinol piperazine'
_chemical_formula_moiety         'C7 H8 O2,C4 H10 N2'
_chemical_name_systematic        '5-Methylbenzene-1,3-diol piperazine'
_symmetry_cell_setting           monoclinic
_symmetry_space_group_name_H-M   'C 2/c'
_symmetry_Int_Tables_number      15
_space_group_name_Hall           '-C 2yn'
loop_
_symmetry_equiv_pos_site_id
_symmetry_equiv_pos_as_xyz
1 x,y,z
2 -x,y,1/2-z
3 1/2+x,1/2+y,z
4 1/2-x,1/2+y,1/2-z
5 -x,-y,-z
6 x,-y,1/2+z
7 1/2-x,1/2-y,-z
8 1/2+x,1/2-y,1/2+z
_cell_length_a                   7.2456(12)
_cell_length_b                   12.316(2)
_cell_length_c                   12.590(2)
_cell_angle_alpha                90
_cell_angle_beta                 96.268(7)
_cell_angle_gamma                90
_cell_volume                     1116.78
_exptl_crystal_colour            colorless
_exptl_crystal_description       block
_cell_formula_units_Z            4
loop_
_atom_site_label
_atom_site_type_symbol
_atom_site_fract_x
_atom_site_fract_y
_atom_site_fract_z
O1 O -0.06375(14) 0.18089(7) 0.43492(7)
C1 C -0.03249(15) 0.13207(9) 0.34182(9)
C2 C 0.00000 0.18955(12) 0.25000
C3 C -0.03246(15) 0.01854(9) 0.34166(9)
C4 C 0.00000 -0.03810(12) 0.25000
C5 C 0.00000 -0.16052(13) 0.25000
H1 H -0.073(3) 0.259(2) 0.4316(18)
H2 H 0.00000 0.2704(18) 0.25000
H3 H -0.055(2) -0.0192(13) 0.4042(13)
O1A O 0.06375(14) 0.18089(7) 0.06508(7)
C1A C 0.03249(15) 0.13207(9) 0.15818(9)
C3A C 0.03246(15) 0.01854(9) 0.15834(9)
H1A H 0.073(3) 0.259(2) 0.0684(18)
H3A H 0.055(2) -0.0192(13) 0.0958(13)
N1 N -0.08369(15) 0.60474(8) -0.03459(8)
C6 C -0.03499(17) 0.52327(10) -0.11139(9)
C7 C 0.0328(2) 0.59184(10) 0.06804(11)
H7 H -0.196(2) 0.5966(12) -0.0236(14)
H8 H 0.089(2) 0.5416(13) -0.1311(13)
H9 H -0.121(2) 0.5284(13) -0.1767(14)
H10 H 0.159(3) 0.6124(14) 0.0564(15)
H11 H -0.010(3) 0.6420(18) 0.1228(17)
N1D N 0.08369(15) 0.39526(8) 0.03459(8)
C6D C 0.03499(17) 0.47673(10) 0.11139(9)
C7D C -0.0328(2) 0.40816(10) -0.06804(11)
H7D H 0.196(2) 0.4034(12) 0.0236(14)
H8D H -0.089(2) 0.4584(13) 0.1311(13)
H9D H 0.121(2) 0.4716(13) 0.1767(14)
H10D H -0.159(3) 0.3876(14) -0.0564(15)
H11D H 0.010(3) 0.3580(18) -0.1228(17)
H4? H 0.00306 -0.18650 0.32206
H5? H 0.10727 -0.18650 0.21929
H6? H -0.11033 -0.18650 0.20865
loop_
_geom_bond_atom_site_label_1
_geom_bond_atom_site_label_2
_geom_bond_site_symmetry_1
_geom_bond_site_symmetry_2
O1 C1 1_555 1_555
C1 C2 1_555 1_555
C2 H2 1_555 1_555
C3 C1 1_555 1_555
C4 C3 1_555 1_555
C5 C4 1_555 1_555
N1 C6 1_555 1_555
C6 H8 1_555 1_555
C7 N1 1_555 1_555
H1 O1 1_555 1_555
H3 C3 1_555 1_555
H7 N1 1_555 1_555
H9 C6 1_555 1_555
H10 C7 1_555 1_555
H11 C7 1_555 1_555
O1A C1A 1_555 1_555
C1A C2 1_555 1_555
C3A C4 1_555 1_555
N1D C6D 1_555 1_555
C6D C7 1_555 1_555
C7D C6 1_555 1_555
H1A O1A 1_555 1_555
H3A C3A 1_555 1_555
H7D N1D 1_555 1_555
H8D C6D 1_555 1_555
H9D C6D 1_555 1_555
H10D C7D 1_555 1_555
H11D C7D 1_555 1_555
C1A C3A 1_555 1_555
N1D C7D 1_555 1_555

#END
