
#######################################################################
#
#                 Cambridge Crystallographic Data Centre
#                                CCDC 
#
#######################################################################
#
# If this CIF has been generated from an entry in the Cambridge 
# Structural Database, then it will include bibliographic, chemical, 
# crystal, experimental, refinement or atomic coordinate data resulting 
# from the CCDC's data processing and validation procedures.
#
#######################################################################

data_EWAQAV
_chemical_name_common            'Orcinol tetrakis(nicotinamide)'
_chemical_formula_moiety         'C7 H8 O2,4(C6 H6 N2 O1)'
_chemical_name_systematic        
'5-methylbenzene-1,3-diol tetrakis(nicotinamide)'
_symmetry_cell_setting           triclinic
_symmetry_space_group_name_H-M   'P -1'
_symmetry_Int_Tables_number      2
_space_group_name_Hall           '-P 1'
loop_
_symmetry_equiv_pos_site_id
_symmetry_equiv_pos_as_xyz
1 x,y,z
2 -x,-y,-z
_cell_length_a                   8.2817(12)
_cell_length_b                   10.9094(12)
_cell_length_c                   16.600(2)
_cell_angle_alpha                99.961(9)
_cell_angle_beta                 96.163(7)
_cell_angle_gamma                93.253(5)
_cell_volume                     1464.29
_exptl_crystal_colour            colorless
_exptl_crystal_description       block
_cell_formula_units_Z            2
loop_
_atom_site_label
_atom_site_type_symbol
_atom_site_fract_x
_atom_site_fract_y
_atom_site_fract_z
O1 O 0.6370(2) 0.21538(14) 0.04132(9)
O2 O 0.26296(18) 0.53699(14) 0.06748(9)
C1 C 0.1995(3) 0.2050(2) -0.01893(12)
C2 C 0.3556(3) 0.1675(2) -0.00503(12)
C3 C 0.4836(3) 0.25501(19) 0.03083(12)
C4 C 0.4538(3) 0.37972(19) 0.05501(12)
C5 C 0.2968(3) 0.41563(19) 0.04306(12)
C6 C 0.1687(3) 0.3285(2) 0.00568(13)
C7 C 0.0641(4) 0.1115(3) -0.06412(19)
H1 H 0.380(3) 0.079(2) -0.0212(14)
H2 H 0.051(3) 0.3502(19) -0.0046(13)
H3 H 0.546(2) 0.4418(19) 0.0802(12)
H4 H 0.077(4) 0.025(3) -0.056(2)
H5 H 0.053(3) 0.111(2) -0.1250(18)
H6 H -0.046(4) 0.132(3) -0.0429(18)
H7 H 0.348(4) 0.585(3) 0.1066(18)
H8 H 0.704(3) 0.282(2) 0.0736(16)
O3 O 0.17225(17) 0.83544(13) 0.36349(9)
N1 N 0.5488(2) 1.10141(15) 0.26142(10)
N2 N 0.2998(2) 1.00136(17) 0.45252(11)
C8 C 0.4762(3) 1.06262(19) 0.32156(13)
C9 C 0.3503(2) 0.96941(17) 0.30926(12)
C10 C 0.3001(3) 0.91123(19) 0.22859(13)
C11 C 0.3745(3) 0.9481(2) 0.16527(13)
C12 C 0.4960(3) 1.04446(19) 0.18449(13)
C13 C 0.2672(2) 0.93033(18) 0.37780(12)
H9 H 0.522(2) 1.1054(16) 0.3748(12)
H10 H 0.209(3) 0.850(2) 0.2176(14)
H11 H 0.346(2) 0.9078(19) 0.1070(14)
H12 H 0.550(2) 1.0761(17) 0.1432(12)
H13 H 0.364(3) 1.076(2) 0.4638(16)
H14 H 0.247(3) 0.975(2) 0.4918(14)
O4 O 0.49848(17) 0.73754(13) 0.48964(8)
N3 N 0.5026(2) 0.64537(15) 0.19869(10)
N4 N 0.3732(2) 0.55384(17) 0.42065(12)
C14 C 0.4544(3) 0.62367(19) 0.26977(12)
C15 C 0.5269(2) 0.68283(17) 0.34674(12)
C16 C 0.6585(2) 0.76983(18) 0.35024(13)
C17 C 0.7124(3) 0.7909(2) 0.27754(14)
C18 C 0.6316(3) 0.7274(2) 0.20396(14)
C19 C 0.4655(2) 0.65984(18) 0.42519(12)
H15 H 0.358(2) 0.5653(19) 0.2627(12)
H16 H 0.662(2) 0.7367(17) 0.1516(12)
H17 H 0.802(3) 0.847(2) 0.2795(14)
H18 H 0.714(2) 0.8155(19) 0.4042(14)
H19 H 0.330(3) 0.541(2) 0.4674(17)
H20 H 0.358(3) 0.492(2) 0.3756(15)
O5 O 0.79825(17) 0.51628(13) 0.44236(8)
N5 N 0.8204(2) 0.40168(17) 0.15329(10)
N6 N 0.6728(2) 0.33260(17) 0.37552(12)
C20 C 0.7680(3) 0.3866(2) 0.22484(12)
C21 C 0.8295(2) 0.45624(17) 0.30032(12)
C22 C 0.9525(3) 0.54936(19) 0.30188(14)
C23 C 1.0059(3) 0.5681(2) 0.22865(14)
C24 C 0.9380(3) 0.4932(2) 0.15632(14)
C25 C 0.7656(2) 0.43700(18) 0.37903(12)
H21 H 0.680(3) 0.3205(19) 0.2216(12)
H22 H 0.999(3) 0.598(2) 0.3525(14)
H23 H 1.095(3) 0.634(2) 0.2262(14)
H24 H 0.978(2) 0.5054(19) 0.1029(13)
H25 H 0.653(3) 0.270(2) 0.3297(15)
H26 H 0.624(3) 0.318(2) 0.4202(15)
O6 O -0.13025(18) 0.06161(13) 0.41397(9)
N7 N 0.2488(2) 0.32208(16) 0.30976(10)
N8 N -0.0052(2) 0.22973(18) 0.50132(11)
C26 C 0.1754(3) 0.28476(19) 0.37065(13)
C27 C 0.0444(2) 0.19581(17) 0.35788(12)
C28 C -0.0123(3) 0.1417(2) 0.27724(13)
C29 C 0.0624(3) 0.1789(2) 0.21386(13)
C30 C 0.1911(3) 0.26861(19) 0.23268(13)
C31 C -0.0372(2) 0.15742(18) 0.42702(12)
H27 H 0.225(3) 0.324(2) 0.4272(14)
H28 H -0.109(3) 0.081(2) 0.2667(14)
H29 H 0.029(3) 0.1441(19) 0.1572(14)
H30 H 0.247(2) 0.2965(18) 0.1903(12)
H31 H -0.062(3) 0.209(2) 0.5458(16)
H32 H 0.051(3) 0.299(2) 0.5116(14)
loop_
_geom_bond_atom_site_label_1
_geom_bond_atom_site_label_2
_geom_bond_site_symmetry_1
_geom_bond_site_symmetry_2
O1 C3 1_555 1_555
O2 C5 1_555 1_555
C1 C2 1_555 1_555
C2 C3 1_555 1_555
C3 C4 1_555 1_555
C4 C5 1_555 1_555
C5 C6 1_555 1_555
C6 C1 1_555 1_555
C7 C1 1_555 1_555
O3 C13 1_555 1_555
N1 C8 1_555 1_555
N2 C13 1_555 1_555
C8 C9 1_555 1_555
C9 C10 1_555 1_555
C10 C11 1_555 1_555
C11 C12 1_555 1_555
C12 N1 1_555 1_555
C13 C9 1_555 1_555
O4 C19 1_555 1_555
N3 C14 1_555 1_555
N4 C19 1_555 1_555
C14 C15 1_555 1_555
C15 C16 1_555 1_555
C16 C17 1_555 1_555
C17 C18 1_555 1_555
C18 N3 1_555 1_555
C19 C15 1_555 1_555
O5 C25 1_555 1_555
N5 C20 1_555 1_555
N6 C25 1_555 1_555
C20 C21 1_555 1_555
C21 C22 1_555 1_555
C22 C23 1_555 1_555
C23 C24 1_555 1_555
C24 N5 1_555 1_555
C25 C21 1_555 1_555
O6 C31 1_555 1_555
N7 C26 1_555 1_555
N8 C31 1_555 1_555
C26 C27 1_555 1_555
C27 C28 1_555 1_555
C28 C29 1_555 1_555
C29 C30 1_555 1_555
C30 N7 1_555 1_555
C31 C27 1_555 1_555
H1 C2 1_555 1_555
H2 C6 1_555 1_555
H3 C4 1_555 1_555
H4 C7 1_555 1_555
H5 C7 1_555 1_555
H6 C7 1_555 1_555
H7 O2 1_555 1_555
H8 O1 1_555 1_555
H9 C8 1_555 1_555
H10 C10 1_555 1_555
H11 C11 1_555 1_555
H12 C12 1_555 1_555
H13 N2 1_555 1_555
H14 N2 1_555 1_555
H15 C14 1_555 1_555
H16 C18 1_555 1_555
H17 C17 1_555 1_555
H18 C16 1_555 1_555
H19 N4 1_555 1_555
H20 N4 1_555 1_555
H21 C20 1_555 1_555
H22 C22 1_555 1_555
H23 C23 1_555 1_555
H24 C24 1_555 1_555
H25 N6 1_555 1_555
H26 N6 1_555 1_555
H27 C26 1_555 1_555
H28 C28 1_555 1_555
H29 C29 1_555 1_555
H30 C30 1_555 1_555
H31 N8 1_555 1_555
H32 N8 1_555 1_555

#END
