
#######################################################################
#
#                 Cambridge Crystallographic Data Centre
#                                CCDC 
#
#######################################################################
#
# If this CIF has been generated from an entry in the Cambridge 
# Structural Database, then it will include bibliographic, chemical, 
# crystal, experimental, refinement or atomic coordinate data resulting 
# from the CCDC's data processing and validation procedures.
#
#######################################################################

data_EWAQEZ
_chemical_name_common            'Orcinol tetrakis(nicotinamide) monohydrate'
_chemical_formula_moiety         'C7 H8 O2,4(C6 H6 N2 O1),H2 O1'
_chemical_name_systematic        
'5-methylbenzene-1,3-diol tetrakis(nicotinamide) monohydrate'
_symmetry_cell_setting           triclinic
_symmetry_space_group_name_H-M   'P -1'
_symmetry_Int_Tables_number      2
_space_group_name_Hall           '-P 1'
loop_
_symmetry_equiv_pos_site_id
_symmetry_equiv_pos_as_xyz
1 x,y,z
2 -x,-y,-z
_cell_length_a                   7.9260(16)
_cell_length_b                   12.560(3)
_cell_length_c                   16.750(3)
_cell_angle_alpha                96.16(3)
_cell_angle_beta                 99.97(3)
_cell_angle_gamma                98.56(3)
_cell_volume                     1608.77
_exptl_crystal_colour            colorless
_exptl_crystal_description       needle
_cell_formula_units_Z            2
loop_
_atom_site_label
_atom_site_type_symbol
_atom_site_fract_x
_atom_site_fract_y
_atom_site_fract_z
O1 O 0.5662(8) 0.5876(6) -0.0633(5)
O2 O 1.1651(7) 0.7633(5) 0.0026(4)
C1 C 0.7663(13) 0.8572(8) 0.0365(6)
C2 C 0.6424(12) 0.7678(7) 0.0024(5)
C3 C 0.6924(11) 0.6728(8) -0.0303(5)
C4 C 0.8705(12) 0.6707(7) -0.0305(5)
C5 C 0.9948(11) 0.7622(8) 0.0029(5)
C6 C 0.9406(13) 0.8561(7) 0.0338(6)
C7 C 0.7105(14) 0.9596(9) 0.0736(8)
H1 H 0.52531 0.77054 0.00109
H2 H 0.605(10) 0.539(5) -0.089(5)
H3 H 1.17913 0.70333 -0.01706
H4 H 0.90437 0.60820 -0.05293
H5 H 1.02202 0.91897 0.05299
H6 H 0.58586 0.94986 0.06426
H7 H 0.75613 0.97282 0.13138
H8 H 0.75435 1.02037 0.04851
O3 O 0.2374(8) 0.6333(5) 0.4616(3)
N1 N -0.0743(10) 0.5792(6) 0.1882(4)
N2 N 0.0894(11) 0.4650(7) 0.4098(5)
C8 C 0.0018(10) 0.5478(7) 0.2572(5)
C9 C 0.0497(11) 0.6119(7) 0.3312(5)
C10 C 0.0218(12) 0.7193(7) 0.3346(5)
C11 C -0.0589(13) 0.7512(7) 0.2654(6)
C12 C -0.1026(13) 0.6801(9) 0.1947(6)
C13 C 0.1328(12) 0.5726(7) 0.4065(5)
H9 H 0.011(10) 0.419(7) 0.371(5)
H10 H 0.149(9) 0.438(6) 0.453(3)
H11 H 0.02380 0.47697 0.25457
H12 H 0.05748 0.76748 0.38289
H13 H -0.08442 0.82120 0.26604
H14 H -0.15606 0.70456 0.14784
O4 O 0.7246(8) 0.6370(4) 0.4538(3)
N3 N 0.4115(10) 0.5772(6) 0.1804(4)
N4 N 0.5859(10) 0.4682(6) 0.4045(5)
C14 C 0.4857(11) 0.5459(7) 0.2493(5)
C15 C 0.5384(10) 0.6124(6) 0.3232(5)
C16 C 0.5113(12) 0.7192(7) 0.3255(5)
C17 C 0.4339(13) 0.7522(8) 0.2544(6)
C18 C 0.3858(12) 0.6813(8) 0.1855(6)
C19 C 0.6224(11) 0.5725(7) 0.3992(5)
H15 H 0.500(7) 0.422(5) 0.367(4)
H16 H 0.626(11) 0.439(7) 0.458(5)
H17 H 0.50347 0.47421 0.24755
H18 H 0.54463 0.76730 0.37386
H19 H 0.41502 0.82351 0.25412
H20 H 0.33165 0.70515 0.13858
O5 O 0.5101(9) -0.0142(5) 0.3888(3)
N5 N 0.8131(11) 0.2966(6) 0.3023(5)
N6 N 0.6259(12) 0.1282(6) 0.4848(5)
C20 C 0.7682(12) 0.2372(6) 0.3599(5)
C21 C 0.6464(11) 0.1429(7) 0.3420(5)
C22 C 0.5702(12) 0.1056(7) 0.2605(5)
C23 C 0.6171(12) 0.1669(8) 0.2038(6)
C24 C 0.7342(13) 0.2595(8) 0.2247(5)
C25 C 0.5885(12) 0.0811(7) 0.4074(6)
H21 H 0.637(8) 0.2021(18) 0.493(4)
H22 H 0.625(16) 0.094(9) 0.531(4)
H23 H 0.82139 0.26073 0.41419
H24 H 0.49048 0.04127 0.24568
H25 H 0.56722 0.14458 0.14890
H26 H 0.76140 0.29935 0.18365
O6 O 0.0070(9) -0.0153(5) 0.3905(4)
N7 N 0.3118(10) 0.2970(6) 0.3068(4)
N8 N 0.1320(10) 0.1266(6) 0.4873(5)
C26 C 0.2624(11) 0.2381(7) 0.3624(5)
C27 C 0.1489(10) 0.1393(6) 0.3471(5)
C28 C 0.0838(13) 0.1016(8) 0.2656(5)
C29 C 0.1308(13) 0.1564(9) 0.2060(5)
C30 C 0.2427(12) 0.2571(8) 0.2289(6)
C31 C 0.0927(12) 0.0752(7) 0.4102(5)
H27 H 0.207(7) 0.191(3) 0.504(4)
H28 H 0.074(10) 0.091(6) 0.523(4)
H29 H 0.30795 0.26547 0.41697
H30 H 0.00534 0.03658 0.25147
H31 H 0.09046 0.12840 0.15120
H32 H 0.26972 0.29761 0.18804
O7 O 0.7746(10) 0.4292(6) 0.0503(5)
H33 H 0.805(10) 0.471(16) 0.095(9)
H34 H 0.674(7) 0.395(10) 0.041(8)
loop_
_geom_bond_atom_site_label_1
_geom_bond_atom_site_label_2
_geom_bond_site_symmetry_1
_geom_bond_site_symmetry_2
O1 C3 1_555 1_555
O2 C5 1_555 1_555
C1 C2 1_555 1_555
C2 C3 1_555 1_555
C3 C4 1_555 1_555
C4 C5 1_555 1_555
C5 C6 1_555 1_555
C6 C1 1_555 1_555
C7 C1 1_555 1_555
O3 C13 1_555 1_555
N1 C8 1_555 1_555
N2 C13 1_555 1_555
C8 C9 1_555 1_555
C9 C10 1_555 1_555
C10 C11 1_555 1_555
C11 C12 1_555 1_555
C12 N1 1_555 1_555
C13 C9 1_555 1_555
O4 C19 1_555 1_555
N3 C14 1_555 1_555
N4 C19 1_555 1_555
C14 C15 1_555 1_555
C15 C16 1_555 1_555
C16 C17 1_555 1_555
C17 C18 1_555 1_555
C18 N3 1_555 1_555
C19 C15 1_555 1_555
O5 C25 1_555 1_555
N5 C20 1_555 1_555
N6 C25 1_555 1_555
C20 C21 1_555 1_555
C21 C22 1_555 1_555
C22 C23 1_555 1_555
C23 C24 1_555 1_555
C24 N5 1_555 1_555
C25 C21 1_555 1_555
O6 C31 1_555 1_555
N7 C26 1_555 1_555
N8 C31 1_555 1_555
C26 C27 1_555 1_555
C27 C28 1_555 1_555
C28 C29 1_555 1_555
C29 C30 1_555 1_555
C30 N7 1_555 1_555
C31 C27 1_555 1_555
O7 H33 1_555 1_555
H1 C2 1_555 1_555
H2 O1 1_555 1_555
H3 O2 1_555 1_555
H4 C4 1_555 1_555
H5 C6 1_555 1_555
H6 C7 1_555 1_555
H7 C7 1_555 1_555
H8 C7 1_555 1_555
H9 N2 1_555 1_555
H10 N2 1_555 1_555
H11 C8 1_555 1_555
H12 C10 1_555 1_555
H13 C11 1_555 1_555
H14 C12 1_555 1_555
H15 N4 1_555 1_555
H16 N4 1_555 1_555
H17 C14 1_555 1_555
H18 C16 1_555 1_555
H19 C17 1_555 1_555
H20 C18 1_555 1_555
H21 N6 1_555 1_555
H22 N6 1_555 1_555
H23 C20 1_555 1_555
H24 C22 1_555 1_555
H25 C23 1_555 1_555
H26 C24 1_555 1_555
H27 N8 1_555 1_555
H28 N8 1_555 1_555
H29 C26 1_555 1_555
H30 C28 1_555 1_555
H31 C29 1_555 1_555
H32 C30 1_555 1_555
H34 O7 1_555 1_555

#END
