
#######################################################################
#
#                 Cambridge Crystallographic Data Centre
#                                CCDC 
#
#######################################################################
#
# If this CIF has been generated from an entry in the Cambridge 
# Structural Database, then it will include bibliographic, chemical, 
# crystal, experimental, refinement or atomic coordinate data resulting 
# from the CCDC's data processing and validation procedures.
#
#######################################################################

data_EWAQID
_chemical_name_common            'Orcinol bis(isonicotinamide)'
_chemical_formula_moiety         'C7 H8 O2,2(C6 H6 N2 O1)'
_chemical_name_systematic        '5-methylbenzene-1,3-diol bis(isonicotinamide)'
_symmetry_cell_setting           monoclinic
_symmetry_space_group_name_H-M   'C 2/c'
_symmetry_Int_Tables_number      15
_space_group_name_Hall           '-C 2yn'
loop_
_symmetry_equiv_pos_site_id
_symmetry_equiv_pos_as_xyz
1 x,y,z
2 -x,y,1/2-z
3 1/2+x,1/2+y,z
4 1/2-x,1/2+y,1/2-z
5 -x,-y,-z
6 x,-y,1/2+z
7 1/2-x,1/2-y,-z
8 1/2+x,1/2-y,1/2+z
_cell_length_a                   33.630(7)
_cell_length_b                   7.2600(15)
_cell_length_c                   15.358(3)
_cell_angle_alpha                90
_cell_angle_beta                 95.65(3)
_cell_angle_gamma                90
_cell_volume                     3731.5
_exptl_crystal_colour            colorless
_exptl_crystal_description       platelet
_cell_formula_units_Z            8
loop_
_atom_site_label
_atom_site_type_symbol
_atom_site_fract_x
_atom_site_fract_y
_atom_site_fract_z
O1 O 0.12944(4) 0.0015(2) -0.02506(9)
O2 O 0.02860(4) 0.4365(2) -0.13280(9)
C1 C 0.03684(5) 0.1444(3) 0.06215(11)
C2 C 0.07287(6) 0.0550(3) 0.05367(12)
C3 C 0.09402(5) 0.0935(3) -0.01835(11)
C4 C 0.07983(5) 0.2200(3) -0.08169(11)
C5 C 0.04381(5) 0.3100(3) -0.07288(11)
C6 C 0.02224(5) 0.2707(3) -0.00134(12)
C7 C 0.01397(7) 0.1087(3) 0.14084(14)
H1 H 0.0829(6) -0.032(3) 0.0969(14)
H2 H 0.0935(6) 0.249(3) -0.1333(15)
H3 H -0.0017(7) 0.330(3) 0.0038(14)
H4 H 0.1410(9) 0.039(4) -0.076(2)
H5 H 0.0438(9) 0.465(4) -0.177(2)
H6 H -0.0119(9) 0.068(4) 0.1278(19)
H7 H 0.0228(8) 0.001(4) 0.1721(19)
H8 H 0.0121(9) 0.215(5) 0.177(2)
O3 O 0.26957(4) 0.7988(2) 0.12215(9)
N1 N 0.16544(5) 0.9072(2) 0.32910(10)
N2 N 0.23230(5) 1.0211(2) 0.05077(10)
C8 C 0.20151(6) 0.8274(3) 0.33645(12)
C9 C 0.22601(5) 0.8226(3) 0.26858(12)
C10 C 0.21282(5) 0.9040(2) 0.18888(11)
C11 C 0.17496(5) 0.9836(3) 0.17982(12)
C12 C 0.15250(6) 0.9817(3) 0.25130(13)
C13 C 0.24060(5) 0.9037(2) 0.11706(11)
H9 H 0.2118(7) 0.771(3) 0.3931(16)
H10 H 0.2510(7) 0.758(3) 0.2792(14)
H11 H 0.1249(7) 1.042(3) 0.2470(16)
H12 H 0.1641(6) 1.041(3) 0.1260(15)
H13 H 0.2141(7) 1.110(3) 0.0521(14)
H14 H 0.2498(8) 1.025(3) 0.0096(16)
O4 O 0.19759(4) 0.39225(19) 0.05617(9)
N3 N 0.08324(5) 0.5071(2) 0.24005(10)
N4 N 0.16817(5) 0.6457(2) -0.00681(10)
C14 C 0.12149(6) 0.4567(3) 0.26186(12)
C15 C 0.15031(6) 0.4533(3) 0.20274(12)
C16 C 0.13961(5) 0.5086(2) 0.11651(11)
C17 C 0.10025(5) 0.5612(3) 0.09316(12)
C18 C 0.07304(6) 0.5555(3) 0.15657(12)
C19 C 0.17092(5) 0.5101(2) 0.05220(11)
H15 H 0.1281(7) 0.421(3) 0.3245(15)
H16 H 0.1779(7) 0.417(3) 0.2234(15)
H17 H 0.0901(6) 0.596(3) 0.0324(14)
H18 H 0.0446(7) 0.585(3) 0.1397(15)
H19 H 0.1502(6) 0.738(3) -0.0054(14)
H20 H 0.1909(7) 0.657(3) -0.0441(16)
loop_
_geom_bond_atom_site_label_1
_geom_bond_atom_site_label_2
_geom_bond_site_symmetry_1
_geom_bond_site_symmetry_2
O1 C3 1_555 1_555
O2 C5 1_555 1_555
C1 C2 1_555 1_555
C2 C3 1_555 1_555
C3 C4 1_555 1_555
C4 C5 1_555 1_555
C5 C6 1_555 1_555
C6 C1 1_555 1_555
C7 C1 1_555 1_555
O3 C13 1_555 1_555
N1 C8 1_555 1_555
N2 C13 1_555 1_555
C8 C9 1_555 1_555
C9 C10 1_555 1_555
C10 C11 1_555 1_555
C11 C12 1_555 1_555
C12 N1 1_555 1_555
C13 C10 1_555 1_555
O4 C19 1_555 1_555
N3 C14 1_555 1_555
N4 C19 1_555 1_555
C14 C15 1_555 1_555
C15 C16 1_555 1_555
C16 C17 1_555 1_555
C17 C18 1_555 1_555
C18 N3 1_555 1_555
C19 C16 1_555 1_555
H1 C2 1_555 1_555
H2 C4 1_555 1_555
H3 C6 1_555 1_555
H4 O1 1_555 1_555
H5 O2 1_555 1_555
H6 C7 1_555 1_555
H7 C7 1_555 1_555
H8 C7 1_555 1_555
H9 C8 1_555 1_555
H10 C9 1_555 1_555
H11 C12 1_555 1_555
H12 C11 1_555 1_555
H13 N2 1_555 1_555
H14 N2 1_555 1_555
H15 C14 1_555 1_555
H16 C15 1_555 1_555
H17 C17 1_555 1_555
H18 C18 1_555 1_555
H19 N4 1_555 1_555
H20 N4 1_555 1_555

#END
