
#######################################################################
#
#                 Cambridge Crystallographic Data Centre
#                                CCDC 
#
#######################################################################
#
# If this CIF has been generated from an entry in the Cambridge 
# Structural Database, then it will include bibliographic, chemical, 
# crystal, experimental, refinement or atomic coordinate data resulting 
# from the CCDC's data processing and validation procedures.
#
#######################################################################

data_EWAROK
_chemical_name_common            'Orcinol bis(1,10-phenantrholine)'
_chemical_formula_moiety         'C7 H8 O2,2(C12 H8 N2)'
_chemical_name_systematic        
'5-Methylbenzene-1,3-diol bis(1,10-phenanthroline)'
_symmetry_cell_setting           monoclinic
_symmetry_space_group_name_H-M   'P 21/c'
_symmetry_Int_Tables_number      14
_space_group_name_Hall           '-P 2ybc'
loop_
_symmetry_equiv_pos_site_id
_symmetry_equiv_pos_as_xyz
1 x,y,z
2 -x,1/2+y,1/2-z
3 -x,-y,-z
4 x,1/2-y,1/2+z
_cell_length_a                   13.783(7)
_cell_length_b                   13.520(7)
_cell_length_c                   15.981(6)
_cell_angle_alpha                90
_cell_angle_beta                 124.11(3)
_cell_angle_gamma                90
_cell_volume                     2465.67
_exptl_crystal_colour            brown
_exptl_crystal_description       block
_cell_formula_units_Z            4
loop_
_atom_site_label
_atom_site_type_symbol
_atom_site_fract_x
_atom_site_fract_y
_atom_site_fract_z
N1 N 0.06801(10) 0.37181(9) 0.40859(9)
N2 N 0.10458(10) 0.29417(8) 0.58286(9)
C1 C 0.04729(13) 0.41241(12) 0.32453(11)
C2 C 0.07188(14) 0.51139(12) 0.31631(12)
C3 C 0.11991(13) 0.57087(11) 0.39983(12)
C4 C 0.14316(12) 0.53171(10) 0.49065(11)
C5 C 0.19393(13) 0.58999(11) 0.58092(12)
C6 C 0.21360(13) 0.55104(11) 0.66673(12)
C7 C 0.18367(12) 0.45017(11) 0.67056(11)
C8 C 0.19730(14) 0.40868(12) 0.75732(12)
C9 C 0.16321(15) 0.31280(12) 0.75503(12)
C10 C 0.11802(14) 0.25864(11) 0.66609(12)
C11 C 0.13531(11) 0.38977(10) 0.58359(10)
C12 C 0.11516(11) 0.43112(10) 0.49144(10)
H1 H 0.01360 0.37190 0.26600
H2 H 0.05550 0.53650 0.25410
H3 H 0.13730 0.63810 0.39630
H4 H 0.21400 0.65710 0.58010
H5 H 0.24780 0.59090 0.72570
H6 H 0.23000 0.44690 0.81720
H7 H 0.17020 0.28400 0.81240
H8 H 0.09550 0.19200 0.66520
N3 N 0.27691(10) 0.71344(9) 0.34845(9)
N4 N 0.41726(11) 0.70986(10) 0.55453(10)
C13 C 0.20583(13) 0.70773(11) 0.24854(12)
C14 C 0.23442(14) 0.66007(12) 0.18754(12)
C15 C 0.34337(15) 0.61951(12) 0.23223(12)
C16 C 0.42279(13) 0.62439(11) 0.33795(11)
C17 C 0.53862(14) 0.58332(12) 0.39010(13)
C18 C 0.60897(13) 0.58424(12) 0.49171(13)
C19 C 0.57046(12) 0.62509(11) 0.55099(11)
C20 C 0.63891(14) 0.62176(13) 0.65723(13)
C21 C 0.59583(16) 0.66058(15) 0.70889(13)
C22 C 0.48512(16) 0.70419(14) 0.65458(13)
C23 C 0.45890(12) 0.66956(10) 0.50275(11)
C24 C 0.38394(12) 0.67010(10) 0.39353(11)
H9 H 0.13090 0.73790 0.21650
H10 H 0.17920 0.65600 0.11650
H11 H 0.36550 0.58810 0.19220
H12 H 0.56600 0.55520 0.35250
H13 H 0.68560 0.55730 0.52470
H14 H 0.71470 0.59270 0.69280
H15 H 0.64040 0.65800 0.78060
H16 H 0.45650 0.73160 0.69150
O1 O 0.04236(9) 0.13554(8) 0.45618(9)
O2 O 0.17817(12) -0.17639(8) 0.43959(12)
C25 C 0.13458(12) 0.08081(10) 0.47359(10)
C26 C 0.11476(12) -0.01939(10) 0.45127(11)
C27 C 0.20416(13) -0.07899(10) 0.46410(12)
C28 C 0.31449(13) -0.03942(11) 0.50216(11)
C29 C 0.33478(12) 0.06103(11) 0.52634(10)
C30 C 0.24446(12) 0.12145(10) 0.51085(10)
C31 C 0.45454(16) 0.10438(14) 0.56792(16)
H17 H 0.067(2) 0.201(2) 0.4875(19)
H18 H 0.04020 -0.04710 0.42730
H19 H 0.243(3) -0.207(2) 0.442(2)
H20 H 0.37580 -0.08050 0.51170
H21 H 0.25760 0.19010 0.52560
H22 H 0.51430 0.05320 0.60470
H23 H 0.46890 0.15890 0.61390
H24 H 0.45820 0.12920 0.51210
loop_
_geom_bond_atom_site_label_1
_geom_bond_atom_site_label_2
_geom_bond_site_symmetry_1
_geom_bond_site_symmetry_2
N1 C1 1_555 1_555
N2 C10 1_555 1_555
C1 C2 1_555 1_555
C2 C3 1_555 1_555
C3 C4 1_555 1_555
C4 C5 1_555 1_555
C5 C6 1_555 1_555
C6 C7 1_555 1_555
C7 C8 1_555 1_555
C8 C9 1_555 1_555
C9 C10 1_555 1_555
C10 H8 1_555 1_555
C11 N2 1_555 1_555
C12 N1 1_555 1_555
N3 C13 1_555 1_555
N4 C22 1_555 1_555
C13 C14 1_555 1_555
C14 C15 1_555 1_555
C15 C16 1_555 1_555
C16 C17 1_555 1_555
C17 C18 1_555 1_555
C18 C19 1_555 1_555
C19 C20 1_555 1_555
C20 C21 1_555 1_555
C21 C22 1_555 1_555
C22 H16 1_555 1_555
C23 N4 1_555 1_555
C24 N3 1_555 1_555
O1 C25 1_555 1_555
O2 C27 1_555 1_555
C25 C26 1_555 1_555
C26 C27 1_555 1_555
C27 C28 1_555 1_555
C28 C29 1_555 1_555
C29 C30 1_555 1_555
C30 C25 1_555 1_555
C31 C29 1_555 1_555
H1 C1 1_555 1_555
H2 C2 1_555 1_555
H3 C3 1_555 1_555
H4 C5 1_555 1_555
H5 C6 1_555 1_555
H6 C8 1_555 1_555
H7 C9 1_555 1_555
H9 C13 1_555 1_555
H10 C14 1_555 1_555
H11 C15 1_555 1_555
H12 C17 1_555 1_555
H13 C18 1_555 1_555
H14 C20 1_555 1_555
H15 C21 1_555 1_555
H17 O1 1_555 1_555
H18 C26 1_555 1_555
H19 O2 1_555 1_555
H20 C28 1_555 1_555
H21 C30 1_555 1_555
H22 C31 1_555 1_555
H23 C31 1_555 1_555
H24 C31 1_555 1_555
C4 C12 1_555 1_555
C7 C11 1_555 1_555
C11 C12 1_555 1_555
C16 C24 1_555 1_555
C19 C23 1_555 1_555
C23 C24 1_555 1_555

#END
