
#######################################################################
#
#                 Cambridge Crystallographic Data Centre
#                                CCDC 
#
#######################################################################
#
# If this CIF has been generated from an entry in the Cambridge 
# Structural Database, then it will include bibliographic, chemical, 
# crystal, experimental, refinement or atomic coordinate data resulting 
# from the CCDC's data processing and validation procedures.
#
#######################################################################

data_EWARAW
_chemical_name_common            'Orcinol diquinoxaline'
_chemical_formula_moiety         'C7 H8 O2,2(C8 H6 N2)'
_chemical_name_systematic        '5-Methylbenzene-1,3-diol diquinoxaline'
_symmetry_cell_setting           monoclinic
_symmetry_space_group_name_H-M   'P 21/c'
_symmetry_Int_Tables_number      14
_space_group_name_Hall           '-P 2ybc'
loop_
_symmetry_equiv_pos_site_id
_symmetry_equiv_pos_as_xyz
1 x,y,z
2 -x,1/2+y,1/2-z
3 -x,-y,-z
4 x,1/2-y,1/2+z
_cell_length_a                   7.0702(14)
_cell_length_b                   14.274(3)
_cell_length_c                   19.730(4)
_cell_angle_alpha                90
_cell_angle_beta                 99.05(3)
_cell_angle_gamma                90
_cell_volume                     1966.37
_exptl_crystal_colour            colorless
_cell_formula_units_Z            4
loop_
_atom_site_label
_atom_site_type_symbol
_atom_site_fract_x
_atom_site_fract_y
_atom_site_fract_z
O1 O 0.3583(2) 0.39504(11) 0.28480(8)
O2 O 0.2215(3) 0.06991(12) 0.31999(9)
C1 C 0.3889(3) 0.30142(16) 0.27619(10)
C2 C 0.2813(3) 0.23360(16) 0.30302(11)
C3 C 0.3218(3) 0.13921(16) 0.29367(11)
C4 C 0.4658(3) 0.11335(18) 0.25727(11)
C5 C 0.5719(3) 0.18154(18) 0.23016(11)
C6 C 0.5333(3) 0.27599(17) 0.23915(11)
C7 C 0.7338(4) 0.1537(3) 0.19249(16)
H1 H 0.263(4) 0.4058(19) 0.3128(14)
H2 H 0.176(3) 0.2488(17) 0.3285(13)
H3 H 0.145(4) 0.097(2) 0.3498(17)
H4 H 0.491(3) 0.0522(18) 0.2511(12)
H5 H 0.610(3) 0.3277(18) 0.2208(12)
H6 H 0.784(5) 0.208(3) 0.1669(17)
H7 H 0.707(5) 0.099(3) 0.1651(19)
H8 H 0.851(6) 0.137(3) 0.227(2)
N1 N 0.0041(3) 0.14244(13) 0.41824(10)
N2 N -0.2582(3) 0.16003(14) 0.51171(13)
C8 C -0.1722(4) 0.17371(18) 0.40004(14)
C9 C -0.3022(4) 0.18240(18) 0.44707(16)
C10 C -0.0149(5) 0.10366(18) 0.60173(14)
C11 C 0.1693(5) 0.0743(2) 0.62314(16)
C12 C 0.2989(4) 0.06734(19) 0.57711(18)
C13 C 0.2447(4) 0.08870(17) 0.50978(16)
C14 C -0.0760(3) 0.12817(15) 0.53197(12)
C15 C 0.0560(3) 0.11988(15) 0.48611(11)
H9 H -0.210(5) 0.192(2) 0.3520(18)
H10 H -0.433(4) 0.210(2) 0.4309(14)
H11 H -0.116(4) 0.107(2) 0.6319(15)
H12 H 0.207(4) 0.056(2) 0.6731(16)
H13 H 0.432(4) 0.044(2) 0.5944(16)
H14 H 0.329(5) 0.080(2) 0.4756(18)
N3 N 1.2065(3) -0.08834(14) 0.05105(11)
N4 N 0.9067(3) -0.07542(13) 0.12918(10)
C16 C 1.2330(4) -0.05816(17) 0.11430(15)
C17 C 1.0836(4) -0.05188(17) 0.15404(13)
C18 C 0.6833(3) -0.13128(17) 0.03226(14)
C19 C 0.6497(4) -0.16364(18) -0.03341(14)
C20 C 0.7987(4) -0.17050(17) -0.07239(14)
C21 C 0.9814(4) -0.14498(16) -0.04455(13)
C22 C 0.8708(3) -0.10546(15) 0.06234(11)
C23 C 1.0222(3) -0.11204(15) 0.02358(11)
H15 H 1.361(4) -0.041(2) 0.1372(14)
H16 H 1.108(4) -0.030(2) 0.2035(16)
H17 H 0.577(4) -0.125(2) 0.0579(15)
H18 H 0.520(4) -0.184(2) -0.0527(15)
H19 H 0.763(5) -0.196(2) -0.1203(17)
H20 H 1.093(4) -0.149(2) -0.0710(15)
loop_
_geom_bond_atom_site_label_1
_geom_bond_atom_site_label_2
_geom_bond_site_symmetry_1
_geom_bond_site_symmetry_2
O1 C1 1_555 1_555
O2 C3 1_555 1_555
C1 C2 1_555 1_555
C2 C3 1_555 1_555
C3 C4 1_555 1_555
C4 C5 1_555 1_555
C5 C6 1_555 1_555
C6 C1 1_555 1_555
C7 C5 1_555 1_555
N1 C8 1_555 1_555
N2 C9 1_555 1_555
C8 C9 1_555 1_555
C9 H10 1_555 1_555
C10 C11 1_555 1_555
C11 C12 1_555 1_555
C12 C13 1_555 1_555
C13 C15 1_555 1_555
C14 N2 1_555 1_555
C15 N1 1_555 1_555
N3 C16 1_555 1_555
N4 C17 1_555 1_555
C16 C17 1_555 1_555
C17 H16 1_555 1_555
C18 C19 1_555 1_555
C19 C20 1_555 1_555
C20 C21 1_555 1_555
C21 C23 1_555 1_555
C22 N4 1_555 1_555
C23 N3 1_555 1_555
H1 O1 1_555 1_555
H2 C2 1_555 1_555
H3 O2 1_555 1_555
H4 C4 1_555 1_555
H5 C6 1_555 1_555
H6 C7 1_555 1_555
H7 C7 1_555 1_555
H8 C7 1_555 1_555
H9 C8 1_555 1_555
H11 C10 1_555 1_555
H12 C11 1_555 1_555
H13 C12 1_555 1_555
H14 C13 1_555 1_555
H15 C16 1_555 1_555
H17 C18 1_555 1_555
H18 C19 1_555 1_555
H19 C20 1_555 1_555
H20 C21 1_555 1_555
C10 C14 1_555 1_555
C14 C15 1_555 1_555
C18 C22 1_555 1_555
C22 C23 1_555 1_555

#END
