
#######################################################################
#
#                 Cambridge Crystallographic Data Centre
#                                CCDC 
#
#######################################################################
#
# If this CIF has been generated from an entry in the Cambridge 
# Structural Database, then it will include bibliographic, chemical, 
# crystal, experimental, refinement or atomic coordinate data resulting 
# from the CCDC's data processing and validation procedures.
#
#######################################################################

data_EWAWUW
_chemical_compound_source        
'isolated from the eggs of toad Bufo bufo gargarizans'
_chemical_name_common            
'(3 ,5 ,10 ,14 )-3,5,10,14-Tetrahydroxy-19-norbufa-20,22-dienolide dihydrate'
_chemical_formula_moiety         'C23 H32 O6,2(H2 O1)'
_chemical_name_systematic        
'3,5,10,14-tetrahydroxy-21,24-epoxy-19-norchola-20,22-dien-24-one dihydrate'
_chemical_properties_biological  
'tested for cytotoxic effects of bufadienolides on human breast cancer MCF-7 and MDA-MB-23 cells'
_symmetry_cell_setting           monoclinic
_symmetry_space_group_name_H-M   'C 2'
_symmetry_Int_Tables_number      5
_space_group_name_Hall           'C 2y'
loop_
_symmetry_equiv_pos_site_id
_symmetry_equiv_pos_as_xyz
1 x,y,z
2 -x,y,-z
3 1/2+x,1/2+y,z
4 1/2-x,1/2+y,-z
_cell_length_a                   11.8755(3)
_cell_length_b                   10.7481(2)
_cell_length_c                   18.0005(4)
_cell_angle_alpha                90
_cell_angle_beta                 104.253(2)
_cell_angle_gamma                90
_cell_volume                     2226.84
_exptl_crystal_colour            colorless
_exptl_crystal_description       block
_cell_formula_units_Z            4
loop_
_atom_site_label
_atom_site_type_symbol
_atom_site_fract_x
_atom_site_fract_y
_atom_site_fract_z
C1 C 1.0733(3) 0.1719(3) 0.15475(17)
H1 H 1.0790 0.1369 0.1061
H2 H 1.1513 0.1918 0.1839
C2 C 1.0227(3) 0.0748(3) 0.19799(19)
H3 H 1.0704 0.0004 0.2044
H4 H 1.0225 0.1061 0.2485
C3 C 0.9005(3) 0.0431(3) 0.15508(19)
H5 H 0.8673 -0.0133 0.1869
C4 C 0.8248(3) 0.1589(3) 0.13876(17)
H6 H 0.8150 0.1921 0.1869
H7 H 0.7485 0.1356 0.1081
C5 C 0.7990(2) 0.3768(3) 0.08412(15)
H8 H 0.7189 0.3524 0.0627
H9 H 0.8224 0.4301 0.0471
C6 C 0.8061(2) 0.4504(3) 0.15751(16)
H10 H 0.7599 0.5255 0.1455
H11 H 0.7738 0.4010 0.1924
C7 C 0.9309(2) 0.4851(3) 0.19641(14)
H12 H 0.9604 0.5339 0.1592
C8 C 1.0065(2) 0.3680(3) 0.21365(15)
H13 H 0.9735 0.3152 0.2473
C9 C 1.0021(2) 0.2926(3) 0.13930(14)
C10 C 0.8746(2) 0.2615(3) 0.09658(14)
C11 C 1.1306(3) 0.4007(4) 0.25732(17)
H14 H 1.1680 0.4483 0.2243
H15 H 1.1748 0.3249 0.2719
C12 C 1.1297(3) 0.4768(3) 0.32924(18)
H16 H 1.0967 0.4261 0.3632
H17 H 1.2092 0.4957 0.3559
C13 C 1.0614(2) 0.5984(3) 0.31337(15)
C14 C 0.9362(2) 0.5701(3) 0.26603(15)
C15 C 0.8767(3) 0.5176(4) 0.32565(16)
H18 H 0.8971 0.4309 0.3363
H19 H 0.7929 0.5245 0.3081
C16 C 0.9234(3) 0.5988(4) 0.39713(18)
H20 H 0.9298 0.5501 0.4434
H21 H 0.8713 0.6681 0.3979
C17 C 1.0439(3) 0.6467(4) 0.39270(16)
H22 H 1.1017 0.6047 0.4332
C18 C 1.1232(3) 0.6914(4) 0.27317(19)
H23 H 1.0790 0.7671 0.2637
H24 H 1.1991 0.7087 0.3051
H25 H 1.1305 0.6570 0.2254
C19 C 1.0593(3) 0.7853(4) 0.40665(16)
C20 C 1.1585(4) 0.8289(4) 0.4510(2)
H26 H 1.2154 0.7719 0.4739
C21 C 0.9735(3) 0.8752(4) 0.3759(2)
H27 H 0.9022 0.8499 0.3453
C22 C 0.9937(4) 0.9959(4) 0.3902(2)
H28 H 0.9345 1.0523 0.3704
C23 C 1.1001(5) 1.0419(5) 0.4338(3)
O1 O 1.1292(4) 1.1486(4) 0.4461(4)
O2 O 1.1812(3) 0.9525(4) 0.4646(2)
O3 O 0.9011(3) -0.0199(2) 0.08444(15)
H29 H 0.8930 0.0312 0.0497
O4 O 0.87297(16) 0.21215(19) 0.02123(10)
H30 H 0.8810 0.1364 0.0239
O5 O 1.05425(17) 0.3657(2) 0.08959(10)
H31 H 1.0741 0.3199 0.0587
O6 O 0.87657(19) 0.6839(2) 0.24031(12)
H32 H 0.8790 0.6975 0.1959
O7 O 0.8607(2) 0.7317(2) 0.07645(13)
H33 H 0.891(13) 0.786(12) 0.107(9)
H34 H 0.792(4) 0.744(17) 0.056(8)
O8 O 1.0000 0.5931(4) 0.0000
O9 O 1.0000 0.320(2) 0.5000
H35? H 0.958(15) 0.629(12) 0.023(12)
H36? H 1.019(19) 0.523(8) 0.016(10)
loop_
_geom_bond_atom_site_label_1
_geom_bond_atom_site_label_2
_geom_bond_site_symmetry_1
_geom_bond_site_symmetry_2
C1 H1 1_555 1_555
H2 C1 1_555 1_555
C2 C1 1_555 1_555
H3 C2 1_555 1_555
H4 C2 1_555 1_555
C3 C2 1_555 1_555
H5 C3 1_555 1_555
C4 C3 1_555 1_555
H6 C4 1_555 1_555
H7 C4 1_555 1_555
C5 H8 1_555 1_555
H9 C5 1_555 1_555
C6 C5 1_555 1_555
H10 C6 1_555 1_555
H11 C6 1_555 1_555
C7 C6 1_555 1_555
H12 C7 1_555 1_555
C8 C7 1_555 1_555
H13 C8 1_555 1_555
C9 C1 1_555 1_555
C10 C4 1_555 1_555
C11 C8 1_555 1_555
H14 C11 1_555 1_555
H15 C11 1_555 1_555
C12 C11 1_555 1_555
H16 C12 1_555 1_555
H17 C12 1_555 1_555
C13 C12 1_555 1_555
C14 C7 1_555 1_555
C15 C14 1_555 1_555
H18 C15 1_555 1_555
H19 C15 1_555 1_555
C16 C15 1_555 1_555
H20 C16 1_555 1_555
H21 C16 1_555 1_555
C17 C13 1_555 1_555
H22 C17 1_555 1_555
C18 C13 1_555 1_555
H23 C18 1_555 1_555
H24 C18 1_555 1_555
H25 C18 1_555 1_555
C19 C17 1_555 1_555
C20 C19 1_555 1_555
H26 C20 1_555 1_555
C21 C19 1_555 1_555
H27 C21 1_555 1_555
C22 C21 1_555 1_555
H28 C22 1_555 1_555
C23 C22 1_555 1_555
O1 C23 1_555 1_555
O2 C20 1_555 1_555
O3 C3 1_555 1_555
H29 O3 1_555 1_555
O4 C10 1_555 1_555
H30 O4 1_555 1_555
O5 C9 1_555 1_555
H31 O5 1_555 1_555
O6 C14 1_555 1_555
H32 O6 1_555 1_555
O7 H33 1_555 1_555
H34 O7 1_555 1_555
C5 C10 1_555 1_555
C8 C9 1_555 1_555
C9 C10 1_555 1_555
C13 C14 1_555 1_555
C16 C17 1_555 1_555
C23 O2 1_555 1_555

#END
