
#######################################################################
#
#                 Cambridge Crystallographic Data Centre
#                                CCDC 
#
#######################################################################
#
# If this CIF has been generated from an entry in the Cambridge 
# Structural Database, then it will include bibliographic, chemical, 
# crystal, experimental, refinement or atomic coordinate data resulting 
# from the CCDC's data processing and validation procedures.
#
#######################################################################

data_EWAXAD
_chemical_compound_source        
'isolated from the eggs of toad Bufo bufo gargarizans'
_chemical_name_common            
'(3 ,5 )-3,5-Dihydroxy-10 -14,15-epoxy-19-norbufa-20,22-dienolide monohydrate'
_chemical_formula_moiety         'C23 H30 O5,H2 O1'
_chemical_name_systematic        
'3,5-dihydroxy-14,15:21,24-diepoxy-19-norchola-20,22-dien-24-one monohydrate'
_chemical_properties_biological  
'tested for cytotoxic effects of bufadienolides on human breast cancer MCF-7 and MDA-MB-23 cells'
_symmetry_cell_setting           orthorhombic
_symmetry_space_group_name_H-M   'P 21 21 21'
_symmetry_Int_Tables_number      19
_space_group_name_Hall           'P 2ac 2ab'
loop_
_symmetry_equiv_pos_site_id
_symmetry_equiv_pos_as_xyz
1 x,y,z
2 1/2-x,-y,1/2+z
3 -x,1/2+y,1/2-z
4 1/2+x,1/2-y,-z
_cell_length_a                   10.7367(5)
_cell_length_b                   11.1799(5)
_cell_length_c                   16.8458(9)
_cell_angle_alpha                90
_cell_angle_beta                 90
_cell_angle_gamma                90
_cell_volume                     2022.09
_exptl_crystal_colour            colorless
_exptl_crystal_description       block
_cell_formula_units_Z            4
loop_
_atom_site_label
_atom_site_type_symbol
_atom_site_fract_x
_atom_site_fract_y
_atom_site_fract_z
O1 O 0.8933(4) 0.7897(4) 0.0645(3)
O2 O 0.6810(5) 0.7332(5) 0.0779(3)
O3 O 0.2935(3) 0.7082(3) 0.1633(2)
O4 O -0.1499(3) 0.6713(3) 0.4304(2)
H1 H -0.1040 0.6288 0.4572
O5 O -0.2878(4) 0.8711(4) 0.4522(3)
H2 H -0.2628 0.8053 0.4666
C1 C -0.0048(5) 0.8797(5) 0.4711(3)
H3 H -0.0483 0.8366 0.5126
H4 H 0.0673 0.9181 0.4947
C2 C -0.0906(6) 0.9748(5) 0.4367(4)
H5 H -0.0445 1.0231 0.3990
H6 H -0.1190 1.0268 0.4790
C3 C -0.2037(5) 0.9195(6) 0.3951(4)
H7 H -0.2470 0.9833 0.3663
C4 C -0.1638(5) 0.8254(6) 0.3351(3)
H8 H -0.1221 0.8649 0.2912
H9 H -0.2375 0.7865 0.3142
C5 C -0.0772(4) 0.7306(5) 0.3691(3)
C6 C -0.0372(5) 0.6377(6) 0.3095(4)
H10 H -0.1103 0.6075 0.2822
H11 H 0.0009 0.5712 0.3374
C7 C 0.0546(5) 0.6858(6) 0.2483(4)
H12 H 0.0823 0.6206 0.2146
H13 H 0.0127 0.7440 0.2149
C8 C 0.1665(5) 0.7437(5) 0.2866(3)
H14 H 0.2076 0.6822 0.3187
C9 C 0.1253(4) 0.8443(4) 0.3442(3)
H15 H 0.0783 0.9038 0.3137
C10 C 0.0384(4) 0.7914(4) 0.4077(3)
H16 H 0.0853 0.7284 0.4350
C11 C 0.2394(5) 0.9059(5) 0.3796(3)
H17 H 0.2843 0.8494 0.4126
H18 H 0.2124 0.9715 0.4131
C12 C 0.3267(5) 0.9539(5) 0.3152(3)
H19 H 0.3975 0.9920 0.3405
H20 H 0.2830 1.0145 0.2848
C13 C 0.3743(4) 0.8571(4) 0.2582(3)
C14 C 0.2620(4) 0.7898(4) 0.2279(3)
C15 C 0.2362(5) 0.8228(6) 0.1456(3)
H21 H 0.1499 0.8254 0.1269
C16 C 0.3264(5) 0.9142(5) 0.1173(3)
H22 H 0.2862 0.9915 0.1119
H23 H 0.3609 0.8914 0.0663
C17 C 0.4307(5) 0.9193(4) 0.1818(3)
H24 H 0.4423 1.0039 0.1951
C18 C 0.4671(5) 0.7742(6) 0.2995(4)
H25 H 0.4270 0.7352 0.3433
H26 H 0.5364 0.8201 0.3185
H27 H 0.4961 0.7151 0.2625
C19 C 0.5540(5) 0.8748(4) 0.1518(3)
C20 C 0.5692(4) 0.7662(5) 0.1074(3)
H28 H 0.5003 0.7174 0.0987
C21 C 0.6571(5) 0.9385(5) 0.1628(3)
H29 H 0.6506 1.0088 0.1921
C22 C 0.7709(4) 0.9083(4) 0.1344(2)
H30 H 0.8384 0.9578 0.1451
C23 C 0.7888(5) 0.8076(5) 0.0908(3)
O6 O -0.5015(4) 0.9973(4) 0.4945(3)
H31 H -0.444(4) 0.955(5) 0.479(4)
H32 H -0.479(5) 1.051(4) 0.525(3)
loop_
_geom_bond_atom_site_label_1
_geom_bond_atom_site_label_2
_geom_bond_site_symmetry_1
_geom_bond_site_symmetry_2
O1 C23 1_555 1_555
O2 C20 1_555 1_555
O3 C14 1_555 1_555
O4 H1 1_555 1_555
O5 H2 1_555 1_555
C1 H3 1_555 1_555
H4 C1 1_555 1_555
C2 C1 1_555 1_555
H5 C2 1_555 1_555
H6 C2 1_555 1_555
C3 O5 1_555 1_555
H7 C3 1_555 1_555
C4 C3 1_555 1_555
H8 C4 1_555 1_555
H9 C4 1_555 1_555
C5 O4 1_555 1_555
C6 C5 1_555 1_555
H10 C6 1_555 1_555
H11 C6 1_555 1_555
C7 C6 1_555 1_555
H12 C7 1_555 1_555
H13 C7 1_555 1_555
C8 C7 1_555 1_555
H14 C8 1_555 1_555
C9 C8 1_555 1_555
H15 C9 1_555 1_555
C10 C1 1_555 1_555
H16 C10 1_555 1_555
C11 C9 1_555 1_555
H17 C11 1_555 1_555
H18 C11 1_555 1_555
C12 C11 1_555 1_555
H19 C12 1_555 1_555
H20 C12 1_555 1_555
C13 C12 1_555 1_555
C14 C8 1_555 1_555
C15 O3 1_555 1_555
H21 C15 1_555 1_555
C16 C15 1_555 1_555
H22 C16 1_555 1_555
H23 C16 1_555 1_555
C17 C13 1_555 1_555
H24 C17 1_555 1_555
C18 C13 1_555 1_555
H25 C18 1_555 1_555
H26 C18 1_555 1_555
H27 C18 1_555 1_555
C19 C17 1_555 1_555
C20 C19 1_555 1_555
H28 C20 1_555 1_555
C21 C19 1_555 1_555
H29 C21 1_555 1_555
C22 C21 1_555 1_555
H30 C22 1_555 1_555
C23 O2 1_555 1_555
O6 H31 1_555 1_555
H32 O6 1_555 1_555
C2 C3 1_555 1_555
C4 C5 1_555 1_555
C5 C10 1_555 1_555
C9 C10 1_555 1_555
C13 C14 1_555 1_555
C14 C15 1_555 1_555
C16 C17 1_555 1_555
C22 C23 1_555 1_555

#END
