
#######################################################################
#
#                 Cambridge Crystallographic Data Centre
#                                CCDC 
#
#######################################################################
#
# If this CIF has been generated from an entry in the Cambridge 
# Structural Database, then it will include bibliographic, chemical, 
# crystal, experimental, refinement or atomic coordinate data resulting 
# from the CCDC's data processing and validation procedures.
#
#######################################################################

data_EWEFOC
_chemical_formula_moiety         'C21 H21 N1 O4'
_chemical_name_systematic        '3-Benzylidenehept-1-en-2-yl 4-nitrobenzoate'
_symmetry_cell_setting           monoclinic
_symmetry_space_group_name_H-M   'P 21/c'
_symmetry_Int_Tables_number      14
_space_group_name_Hall           '-P 2ybc'
loop_
_symmetry_equiv_pos_site_id
_symmetry_equiv_pos_as_xyz
1 x,y,z
2 -x,1/2+y,1/2-z
3 -x,-y,-z
4 x,1/2-y,1/2+z
_cell_length_a                   7.7254(7)
_cell_length_b                   8.2025(7)
_cell_length_c                   29.583(3)
_cell_angle_alpha                90
_cell_angle_beta                 96.638(3)
_cell_angle_gamma                90
_cell_volume                     1862.04
_exptl_crystal_colour            colorless
_exptl_crystal_description       block
_cell_formula_units_Z            4
loop_
_atom_site_label
_atom_site_type_symbol
_atom_site_fract_x
_atom_site_fract_y
_atom_site_fract_z
N1 N 0.5836(3) 0.4527(3) -0.07885(8)
O1 O -0.0583(3) 0.2003(3) 0.02270(7)
O2 O 0.1737(2) 0.1243(2) 0.07100(6)
O3 O 0.5282(3) 0.5413(3) -0.11023(9)
O4 O 0.7379(3) 0.4224(3) -0.06943(8)
C1 C 0.4000(3) 0.2090(3) 0.01003(9)
H1 H 0.4378 0.1324 0.0332
C2 C 0.5180(3) 0.2708(3) -0.01738(9)
H2 H 0.6365 0.2371 -0.0136
C3 C 0.4582(3) 0.3830(3) -0.05043(9)
C4 C 0.2875(4) 0.4343(3) -0.05703(9)
H3 H 0.2503 0.5115 -0.0801
C5 C 0.1718(4) 0.3712(3) -0.02952(9)
H4 H 0.0535 0.4051 -0.0335
C6 C 0.2274(3) 0.2582(3) 0.00403(9)
C7 C 0.0967(4) 0.1925(3) 0.03255(9)
C8 C 0.0624(4) 0.0496(3) 0.09986(9)
C9 C 0.0502(4) -0.1113(4) 0.09658(12)
H5 H 0.111(4) -0.168(4) 0.0737(12)
H6 H -0.016(4) -0.169(4) 0.1178(11)
C10 C -0.0167(3) 0.1563(3) 0.13152(9)
C11 C 0.0443(4) 0.3102(3) 0.13761(9)
H7 H 0.1332 0.3406 0.1196
C12 C -0.0088(4) 0.4368(3) 0.16842(9)
C13 C 0.1210(5) 0.5485(4) 0.18591(11)
H8 H 0.2353 0.5412 0.1772
C14 C 0.0807(7) 0.6692(4) 0.21585(12)
H9 H 0.1691 0.7429 0.2279
C15 C -0.0831(7) 0.6841(5) 0.22833(12)
H10 H -0.1077 0.7663 0.2493
C16 C -0.2127(6) 0.5794(4) 0.21034(11)
H11 H -0.3277 0.5911 0.2183
C17 C -0.1753(5) 0.4569(4) 0.18062(10)
H12 H -0.2656 0.3854 0.1684
C18 C -0.1566(4) 0.0789(3) 0.15544(9)
H13 H -0.1791 0.1480 0.1816
H14 H -0.1152 -0.0286 0.1675
C19 C -0.3268(4) 0.0557(4) 0.12409(11)
H15 H -0.3790 0.1641 0.1167
H16 H -0.2999 0.0055 0.0953
C20 C -0.4591(5) -0.0493(5) 0.14429(13)
H17 H -0.5599 -0.0672 0.1210
H18 H -0.4061 -0.1570 0.1523
C21 C -0.5233(6) 0.0230(8) 0.18600(17)
H19 H -0.6081 -0.0509 0.1973
H20 H -0.5789 0.1283 0.1783
H21 H -0.4247 0.0388 0.2096
loop_
_geom_bond_atom_site_label_1
_geom_bond_atom_site_label_2
_geom_bond_site_symmetry_1
_geom_bond_site_symmetry_2
N1 O3 1_555 1_555
O1 C7 1_555 1_555
O2 C7 1_555 1_555
O4 N1 1_555 1_555
C1 H1 1_555 1_555
C2 C1 1_555 1_555
H2 C2 1_555 1_555
C3 N1 1_555 1_555
C4 C3 1_555 1_555
H3 C4 1_555 1_555
C5 C4 1_555 1_555
H4 C5 1_555 1_555
C6 C1 1_555 1_555
C7 C6 1_555 1_555
C8 O2 1_555 1_555
C9 C8 1_555 1_555
H5 C9 1_555 1_555
H6 C9 1_555 1_555
C10 C8 1_555 1_555
C11 C10 1_555 1_555
H7 C11 1_555 1_555
C12 C11 1_555 1_555
C13 C12 1_555 1_555
H8 C13 1_555 1_555
C14 C13 1_555 1_555
H9 C14 1_555 1_555
C15 C14 1_555 1_555
H10 C15 1_555 1_555
C16 C15 1_555 1_555
H11 C16 1_555 1_555
C17 C12 1_555 1_555
H12 C17 1_555 1_555
C18 C10 1_555 1_555
H13 C18 1_555 1_555
H14 C18 1_555 1_555
C19 C18 1_555 1_555
H15 C19 1_555 1_555
H16 C19 1_555 1_555
C20 C19 1_555 1_555
H17 C20 1_555 1_555
H18 C20 1_555 1_555
C21 C20 1_555 1_555
H19 C21 1_555 1_555
H20 C21 1_555 1_555
H21 C21 1_555 1_555
C2 C3 1_555 1_555
C5 C6 1_555 1_555
C16 C17 1_555 1_555

#END
