
#######################################################################
#
#                 Cambridge Crystallographic Data Centre
#                                CCDC 
#
#######################################################################
#
# If this CIF has been generated from an entry in the Cambridge 
# Structural Database, then it will include bibliographic, chemical, 
# crystal, experimental, refinement or atomic coordinate data resulting 
# from the CCDC's data processing and validation procedures.
#
#######################################################################

data_EWEHAR
_chemical_formula_moiety         'C12 H13 F4 N1 O3'
_chemical_name_systematic        
't-butyl (2,3,5,6-tetrafluoro-4-methoxyphenyl)carbamate'
_symmetry_cell_setting           monoclinic
_symmetry_space_group_name_H-M   'P 21/c'
_symmetry_Int_Tables_number      14
_space_group_name_Hall           '-P 2ybc'
loop_
_symmetry_equiv_pos_site_id
_symmetry_equiv_pos_as_xyz
1 x,y,z
2 -x,1/2+y,1/2-z
3 -x,-y,-z
4 x,1/2-y,1/2+z
_cell_length_a                   13.3949(8)
_cell_length_b                   5.0875(3)
_cell_length_c                   19.3422(12)
_cell_angle_alpha                90
_cell_angle_beta                 102.165(2)
_cell_angle_gamma                90
_cell_volume                     1288.51
_exptl_crystal_colour            colorless
_exptl_crystal_description       plate
_cell_formula_units_Z            4
loop_
_atom_site_label
_atom_site_type_symbol
_atom_site_fract_x
_atom_site_fract_y
_atom_site_fract_z
C1 C 0.21284(17) 0.3696(4) 0.28880(12)
C2 C 0.12912(17) 0.5265(5) 0.29219(12)
C3 C 0.07493(18) 0.5001(5) 0.34461(13)
C4 C 0.09746(18) 0.3063(5) 0.39509(13)
C5 C 0.18081(18) 0.1473(5) 0.39225(12)
C6 C 0.23853(17) 0.1830(5) 0.34168(13)
C7 C -0.05877(19) 0.2345(6) 0.43255(15)
H1 H -0.0920 0.3892 0.4076
H2 H -0.0842 0.2072 0.4760
H3 H -0.0742 0.0795 0.4021
C8 C 0.29692(17) 0.2151(5) 0.19624(13)
C9 C 0.39467(18) 0.1382(4) 0.10482(13)
C10 C 0.4405(2) 0.3280(5) 0.05943(14)
H4 H 0.4758 0.2287 0.0283
H5 H 0.4894 0.4438 0.0900
H6 H 0.3861 0.4340 0.0307
C11 C 0.47837(19) -0.0180(5) 0.15258(15)
H7 H 0.4476 -0.1472 0.1794
H8 H 0.5220 0.1016 0.1855
H9 H 0.5195 -0.1092 0.1237
C12 C 0.31311(19) -0.0279(5) 0.05821(14)
H10 H 0.2926 -0.1705 0.0863
H11 H 0.3404 -0.1025 0.0193
H12 H 0.2537 0.0820 0.0389
F1 F 0.10082(10) 0.7135(3) 0.24284(7)
F2 F -0.00292(11) 0.6694(3) 0.34543(8)
F3 F 0.20800(11) -0.0431(3) 0.44098(8)
F4 F 0.32184(10) 0.0298(3) 0.34578(8)
N1 N 0.26824(14) 0.4130(4) 0.23565(10)
H13 H 0.2852 0.5753 0.2274
O1 O 0.27911(13) -0.0163(3) 0.20339(9)
O2 O 0.34732(12) 0.3176(3) 0.14958(9)
O3 O 0.04959(13) 0.2749(4) 0.45017(9)
loop_
_geom_bond_atom_site_label_1
_geom_bond_atom_site_label_2
_geom_bond_site_symmetry_1
_geom_bond_site_symmetry_2
C1 C2 1_555 1_555
C2 C3 1_555 1_555
C3 C4 1_555 1_555
C4 C5 1_555 1_555
C5 C6 1_555 1_555
C6 C1 1_555 1_555
C7 H1 1_555 1_555
H2 C7 1_555 1_555
H3 C7 1_555 1_555
C8 N1 1_555 1_555
C9 C10 1_555 1_555
C10 H4 1_555 1_555
H5 C10 1_555 1_555
H6 C10 1_555 1_555
C11 C9 1_555 1_555
H7 C11 1_555 1_555
H8 C11 1_555 1_555
H9 C11 1_555 1_555
C12 C9 1_555 1_555
H10 C12 1_555 1_555
H11 C12 1_555 1_555
H12 C12 1_555 1_555
F1 C2 1_555 1_555
F2 C3 1_555 1_555
F3 C5 1_555 1_555
F4 C6 1_555 1_555
N1 C1 1_555 1_555
H13 N1 1_555 1_555
O1 C8 1_555 1_555
O2 C8 1_555 1_555
O3 C4 1_555 1_555
C7 O3 1_555 1_555
C9 O2 1_555 1_555

#END
