
#######################################################################
#
#                 Cambridge Crystallographic Data Centre
#                                CCDC 
#
#######################################################################
#
# If this CIF has been generated from an entry in the Cambridge 
# Structural Database, then it will include bibliographic, chemical, 
# crystal, experimental, refinement or atomic coordinate data resulting 
# from the CCDC's data processing and validation procedures.
#
#######################################################################

data_EWEMEZ
_chemical_formula_moiety         'C26 H42 Cl3 Li1 N2 O2 Si2'
_chemical_name_systematic        
'(\h^5^-3,4-Dimethyl-2,5-bis(trimethylsilyl)-cyclopentadienyl 2,4,6-trichlorobenzoate)-(1,2-bis(dimethylamino)ethane)-lithium'
_symmetry_cell_setting           orthorhombic
_symmetry_space_group_name_H-M   'P 21 21 21'
_symmetry_Int_Tables_number      19
_space_group_name_Hall           'P 2ac 2ab'
loop_
_symmetry_equiv_pos_site_id
_symmetry_equiv_pos_as_xyz
1 x,y,z
2 1/2-x,-y,1/2+z
3 -x,1/2+y,1/2-z
4 1/2+x,1/2-y,-z
_cell_length_a                   11.344(2)
_cell_length_b                   12.803(3)
_cell_length_c                   21.619(4)
_cell_angle_alpha                90
_cell_angle_beta                 90
_cell_angle_gamma                90
_cell_volume                     3139.88
_cell_formula_units_Z            4
loop_
_atom_site_label
_atom_site_type_symbol
_atom_site_fract_x
_atom_site_fract_y
_atom_site_fract_z
Li1 Li 0.0940(7) 1.0006(6) 0.1687(3)
Si1 Si 0.14740(10) 1.04266(10) -0.01336(5)
Si2 Si 0.41056(10) 0.89744(10) 0.20040(5)
Cl1 Cl -0.09381(9) 0.77915(8) 0.03519(5)
Cl2 Cl 0.04169(9) 0.39917(9) -0.03698(5)
Cl3 Cl 0.31890(8) 0.61617(8) 0.11713(5)
N1 N -0.0925(3) 1.0472(3) 0.16216(15)
N2 N 0.0578(3) 1.0161(3) 0.26905(15)
O1 O 0.0731(2) 0.83076(19) 0.14416(11)
O2 O 0.2323(2) 0.84402(19) 0.08174(11)
C1 C 0.2475(3) 0.9521(3) 0.10141(16)
C2 C 0.1952(3) 1.0367(3) 0.06887(16)
C3 C 0.2259(3) 1.1263(3) 0.10571(17)
C4 C 0.2942(3) 1.0953(3) 0.15641(17)
C5 C 0.3079(3) 0.9820(3) 0.15540(17)
C6 C 0.2015(4) 1.2395(3) 0.08904(18)
H1 H 0.1750 1.2773 0.1260
H2 H 0.1400 1.2425 0.0573
H3 H 0.2737 1.2718 0.0732
C7 C 0.3515(4) 1.1727(3) 0.19950(18)
H4 H 0.4270 1.1955 0.1820
H5 H 0.3652 1.1397 0.2398
H6 H 0.2997 1.2333 0.2048
C8 C -0.0035(3) 1.1011(3) -0.02710(18)
H7 H -0.0642 1.0509 -0.0147
H8 H -0.0127 1.1176 -0.0711
H9 H -0.0118 1.1651 -0.0026
C9 C 0.2514(3) 1.1315(3) -0.05684(17)
H10 H 0.2513 1.2008 -0.0376
H11 H 0.2257 1.1374 -0.1000
H12 H 0.3313 1.1024 -0.0555
C10 C 0.1502(3) 0.9097(3) -0.05311(16)
H13 H 0.2309 0.8824 -0.0531
H14 H 0.1226 0.9171 -0.0958
H15 H 0.0985 0.8613 -0.0308
C11 C 0.5017(4) 0.9701(3) 0.25910(19)
H16 H 0.5404 1.0296 0.2391
H17 H 0.5616 0.9232 0.2763
H18 H 0.4506 0.9952 0.2925
C12 C 0.5192(3) 0.8325(3) 0.14776(17)
H19 H 0.4769 0.7932 0.1159
H20 H 0.5689 0.7848 0.1718
H21 H 0.5688 0.8857 0.1281
C13 C 0.3329(3) 0.7910(3) 0.24547(18)
H22 H 0.3053 0.8192 0.2851
H23 H 0.3878 0.7333 0.2531
H24 H 0.2654 0.7654 0.2216
C14 C 0.1362(3) 0.7970(3) 0.10501(18)
C15 C 0.1155(3) 0.6960(3) 0.07225(16)
C16 C 0.0109(3) 0.6822(3) 0.03875(17)
C17 C -0.0130(3) 0.5910(3) 0.00526(17)
H25 H -0.0837 0.5839 -0.0179
C18 C 0.0694(4) 0.5117(3) 0.00688(17)
C19 C 0.1726(3) 0.5194(3) 0.04089(16)
H26 H 0.2274 0.4633 0.0424
C20 C 0.1931(3) 0.6116(3) 0.07263(16)
C21 C 0.1463(4) 1.0677(4) 0.3075(2)
H27 H 0.1635 1.1371 0.2905
H28 H 0.2187 1.0258 0.3079
H29 H 0.1163 1.0748 0.3498
C22 C 0.0371(4) 0.9043(4) 0.29125(19)
H30 H 0.0054 0.9056 0.3334
H31 H 0.1119 0.8660 0.2909
H32 H -0.0193 0.8697 0.2637
C23 C -0.0535(4) 1.0767(4) 0.27244(19)
H33 H -0.0362 1.1515 0.2653
H34 H -0.0876 1.0696 0.3144
C24 C -0.1422(4) 1.0397(4) 0.22514(19)
H35 H -0.1641 0.9664 0.2339
H36 H -0.2144 1.0829 0.2279
C25 C -0.1721(4) 0.9893(4) 0.1208(2)
H37 H -0.1753 0.9160 0.1336
H38 H -0.1428 0.9937 0.0782
H39 H -0.2513 1.0197 0.1230
C26 C -0.0869(4) 1.1587(3) 0.1426(2)
H40 H -0.1651 1.1904 0.1464
H41 H -0.0608 1.1627 0.0994
H42 H -0.0309 1.1964 0.1690
loop_
_geom_bond_atom_site_label_1
_geom_bond_atom_site_label_2
_geom_bond_site_symmetry_1
_geom_bond_site_symmetry_2
Li1 N1 1_555 1_555
Si1 C2 1_555 1_555
Si2 C5 1_555 1_555
Cl1 C16 1_555 1_555
Cl2 C18 1_555 1_555
Cl3 C20 1_555 1_555
N1 C24 1_555 1_555
N2 Li1 1_555 1_555
O1 Li1 1_555 1_555
O2 C1 1_555 1_555
C1 Li1 1_555 1_555
C2 Li1 1_555 1_555
C3 Li1 1_555 1_555
C4 Li1 1_555 1_555
C5 Li1 1_555 1_555
C6 C3 1_555 1_555
H1 C6 1_555 1_555
H2 C6 1_555 1_555
H3 C6 1_555 1_555
C7 C4 1_555 1_555
H4 C7 1_555 1_555
H5 C7 1_555 1_555
H6 C7 1_555 1_555
C8 Si1 1_555 1_555
H7 C8 1_555 1_555
H8 C8 1_555 1_555
H9 C8 1_555 1_555
C9 Si1 1_555 1_555
H10 C9 1_555 1_555
H11 C9 1_555 1_555
H12 C9 1_555 1_555
C10 Si1 1_555 1_555
H13 C10 1_555 1_555
H14 C10 1_555 1_555
H15 C10 1_555 1_555
C11 Si2 1_555 1_555
H16 C11 1_555 1_555
H17 C11 1_555 1_555
H18 C11 1_555 1_555
C12 Si2 1_555 1_555
H19 C12 1_555 1_555
H20 C12 1_555 1_555
H21 C12 1_555 1_555
C13 Si2 1_555 1_555
H22 C13 1_555 1_555
H23 C13 1_555 1_555
H24 C13 1_555 1_555
C14 O1 1_555 1_555
C15 C14 1_555 1_555
C16 C15 1_555 1_555
C17 C16 1_555 1_555
H25 C17 1_555 1_555
C18 C17 1_555 1_555
C19 C18 1_555 1_555
H26 C19 1_555 1_555
C20 C15 1_555 1_555
C21 N2 1_555 1_555
H27 C21 1_555 1_555
H28 C21 1_555 1_555
H29 C21 1_555 1_555
C22 N2 1_555 1_555
H30 C22 1_555 1_555
H31 C22 1_555 1_555
H32 C22 1_555 1_555
C23 N2 1_555 1_555
H33 C23 1_555 1_555
H34 C23 1_555 1_555
C24 C23 1_555 1_555
H35 C24 1_555 1_555
H36 C24 1_555 1_555
C25 N1 1_555 1_555
H37 C25 1_555 1_555
H38 C25 1_555 1_555
H39 C25 1_555 1_555
C26 N1 1_555 1_555
H40 C26 1_555 1_555
H41 C26 1_555 1_555
H42 C26 1_555 1_555
O2 C14 1_555 1_555
C1 C2 1_555 1_555
C1 C5 1_555 1_555
C2 C3 1_555 1_555
C3 C4 1_555 1_555
C4 C5 1_555 1_555
C19 C20 1_555 1_555

#END
