
#######################################################################
#
#                 Cambridge Crystallographic Data Centre
#                                CCDC 
#
#######################################################################
#
# If this CIF has been generated from an entry in the Cambridge 
# Structural Database, then it will include bibliographic, chemical, 
# crystal, experimental, refinement or atomic coordinate data resulting 
# from the CCDC's data processing and validation procedures.
#
#######################################################################

data_EWEMOJ
_chemical_formula_moiety         'C22 H26 Cl6 O3 Si2'
_chemical_name_systematic        
'3,4-Dimethyl-3-(trichloroacetyl)-2,5-bis(trimethylsilyl)cyclopenta-1,4-dien-1-yl 2,4,6-trichlorobenzoate'
_symmetry_cell_setting           monoclinic
_symmetry_space_group_name_H-M   'C 2/c'
_symmetry_Int_Tables_number      15
_space_group_name_Hall           '-C 2yn'
loop_
_symmetry_equiv_pos_site_id
_symmetry_equiv_pos_as_xyz
1 x,y,z
2 -x,y,1/2-z
3 1/2+x,1/2+y,z
4 1/2-x,1/2+y,1/2-z
5 -x,-y,-z
6 x,-y,1/2+z
7 1/2-x,1/2-y,-z
8 1/2+x,1/2-y,1/2+z
_cell_length_a                   27.845(6)
_cell_length_b                   10.099(2)
_cell_length_c                   19.994(4)
_cell_angle_alpha                90
_cell_angle_beta                 97.13(3)
_cell_angle_gamma                90
_cell_volume                     5578.97
_cell_formula_units_Z            8
loop_
_atom_site_label
_atom_site_type_symbol
_atom_site_fract_x
_atom_site_fract_y
_atom_site_fract_z
Cl1 Cl 0.22250(5) 0.74202(16) 0.08404(7)
Si1 Si 0.07933(6) 0.80755(16) -0.09094(8)
Si2 Si 0.13064(6) 0.33565(17) 0.07670(8)
Cl2 Cl 0.19340(5) 0.46764(17) -0.07030(8)
Cl3 Cl 0.21788(6) 1.12271(17) 0.26601(8)
Cl4 Cl 0.19734(6) 0.21520(17) -0.13262(8)
Cl5 Cl 0.05569(5) 0.84953(18) 0.19487(8)
Cl6 Cl 0.14563(6) 0.42719(19) -0.20487(8)
C1 C 0.07867(18) 0.6261(5) -0.0692(2)
C2 C 0.06384(19) 0.5171(5) -0.1044(3)
C3 C 0.13859(19) 0.7943(6) 0.1428(3)
C4 C 0.07820(19) 0.3930(5) -0.0624(3)
C5 C 0.1387(2) 0.9721(6) 0.2250(3)
H1 H 0.1218 1.0235 0.2543
C6 C 0.10174(18) 0.5776(5) -0.0033(3)
C7 C 0.1155(2) 0.8714(6) 0.1878(3)
C8 C 0.1875(2) 0.8261(6) 0.1381(2)
C9 C 0.2119(2) 0.9259(6) 0.1763(3)
H2 H 0.2450 0.9441 0.1728
C10 C 0.1868(2) 0.9981(6) 0.2194(3)
C11 C 0.0332(2) 0.5022(6) -0.1722(2)
H3 H -0.0012 0.5024 -0.1658
H4 H 0.0412 0.4185 -0.1930
H5 H 0.0397 0.5761 -0.2015
C12 C 0.10415(18) 0.4457(5) 0.0051(2)
O1 O 0.09611(15) 0.1973(4) -0.1235(2)
O2 O 0.12213(13) 0.6765(4) 0.04159(17)
O3 O 0.08747(14) 0.6040(4) 0.13137(18)
C13 C 0.10911(19) 0.3042(6) -0.1023(3)
C14 C 0.1125(2) 0.6788(6) 0.1073(3)
C15 C 0.03303(19) 0.3140(6) -0.0507(3)
H6 H 0.0121 0.3688 -0.0261
H7 H 0.0427 0.2345 -0.0243
H8 H 0.0154 0.2880 -0.0942
C16 C 0.1584(2) 0.3540(6) -0.1244(3)
C17 C 0.0484(2) 0.9079(6) -0.0304(3)
H9 H 0.0453 0.9997 -0.0462
H10 H 0.0676 0.9055 0.0142
H11 H 0.0162 0.8712 -0.0273
C18 C 0.1819(2) 0.4138(6) 0.1301(3)
H12 H 0.1699 0.4876 0.1553
H13 H 0.2054 0.4470 0.1016
H14 H 0.1975 0.3483 0.1619
C19 C 0.14225(19) 0.8578(6) -0.0895(3)
H15 H 0.1588 0.7963 -0.1168
H16 H 0.1582 0.8566 -0.0429
H17 H 0.1436 0.9475 -0.1078
C20 C 0.1519(2) 0.1794(5) 0.0419(3)
H18 H 0.1647 0.1208 0.0790
H19 H 0.1775 0.1989 0.0139
H20 H 0.1249 0.1358 0.0145
C21 C 0.0458(2) 0.8405(6) -0.1775(3)
H21 H 0.0627 0.7969 -0.2116
H22 H 0.0446 0.9362 -0.1859
H23 H 0.0128 0.8057 -0.1798
C22 C 0.0817(2) 0.2884(6) 0.1307(3)
H24 H 0.0745 0.3644 0.1582
H25 H 0.0931 0.2143 0.1602
H26 H 0.0524 0.2620 0.1015
loop_
_geom_bond_atom_site_label_1
_geom_bond_atom_site_label_2
_geom_bond_site_symmetry_1
_geom_bond_site_symmetry_2
Cl1 C8 1_555 1_555
Si1 C1 1_555 1_555
Si2 C12 1_555 1_555
Cl2 C16 1_555 1_555
Cl3 C10 1_555 1_555
Cl4 C16 1_555 1_555
Cl5 C7 1_555 1_555
Cl6 C16 1_555 1_555
C1 C2 1_555 1_555
C2 C4 1_555 1_555
C3 C7 1_555 1_555
C4 C12 1_555 1_555
C5 H1 1_555 1_555
C6 C1 1_555 1_555
C7 C5 1_555 1_555
C8 C3 1_555 1_555
C9 C8 1_555 1_555
H2 C9 1_555 1_555
C10 C5 1_555 1_555
C11 C2 1_555 1_555
H3 C11 1_555 1_555
H4 C11 1_555 1_555
H5 C11 1_555 1_555
C12 C6 1_555 1_555
O1 C13 1_555 1_555
O2 C6 1_555 1_555
O3 C14 1_555 1_555
C13 C4 1_555 1_555
C14 C3 1_555 1_555
C15 C4 1_555 1_555
H6 C15 1_555 1_555
H7 C15 1_555 1_555
H8 C15 1_555 1_555
C16 C13 1_555 1_555
C17 Si1 1_555 1_555
H9 C17 1_555 1_555
H10 C17 1_555 1_555
H11 C17 1_555 1_555
C18 Si2 1_555 1_555
H12 C18 1_555 1_555
H13 C18 1_555 1_555
H14 C18 1_555 1_555
C19 Si1 1_555 1_555
H15 C19 1_555 1_555
H16 C19 1_555 1_555
H17 C19 1_555 1_555
C20 Si2 1_555 1_555
H18 C20 1_555 1_555
H19 C20 1_555 1_555
H20 C20 1_555 1_555
C21 Si1 1_555 1_555
H21 C21 1_555 1_555
H22 C21 1_555 1_555
H23 C21 1_555 1_555
C22 Si2 1_555 1_555
H24 C22 1_555 1_555
H25 C22 1_555 1_555
H26 C22 1_555 1_555
C9 C10 1_555 1_555
O2 C14 1_555 1_555

#END
