
#######################################################################
#
#                 Cambridge Crystallographic Data Centre
#                                CCDC 
#
#######################################################################
#
# If this CIF has been generated from an entry in the Cambridge 
# Structural Database, then it will include bibliographic, chemical, 
# crystal, experimental, refinement or atomic coordinate data resulting 
# from the CCDC's data processing and validation procedures.
#
#######################################################################

data_EWENEZ
_chemical_formula_moiety         'C20 H20 N4 O4'
_chemical_name_systematic        
'Diethyl 3,6-diphenyl-1,2-dihydro-1,2,4,5-tetrazine-1,2-dicarboxylate'
_chemical_properties_biological  
'in vitro antitumour activity against P-388 and A-549 cells'
_symmetry_cell_setting           triclinic
_symmetry_space_group_name_H-M   'P -1'
_symmetry_Int_Tables_number      2
_space_group_name_Hall           '-P 1'
loop_
_symmetry_equiv_pos_site_id
_symmetry_equiv_pos_as_xyz
1 x,y,z
2 -x,-y,-z
_cell_length_a                   8.915(2)
_cell_length_b                   10.444(2)
_cell_length_c                   11.509(3)
_cell_angle_alpha                103.268(3)
_cell_angle_beta                 102.844(3)
_cell_angle_gamma                100.765(3)
_cell_volume                     984.437
_exptl_crystal_colour            colorless
_exptl_crystal_description       prismatic
_chemical_melting_point          121-122deg.C
_cell_formula_units_Z            2
loop_
_atom_site_label
_atom_site_type_symbol
_atom_site_fract_x
_atom_site_fract_y
_atom_site_fract_z
C1 C 0.5652(7) 0.7113(4) 0.4883(4)
H1 H 0.6662 0.6871 0.5009
H2 H 0.4883 0.6394 0.4207
C2 C 0.5806(8) 0.8247(5) 0.4569(4)
H3 H 0.6154 0.8134 0.3828
H4 H 0.6576 0.8960 0.5229
H5 H 0.4801 0.8478 0.4418
O1 O 0.01032(19) 0.57422(16) 0.79902(15)
N1 N 0.4964(2) 0.6666(2) 0.88903(19)
C3 C 0.2723(3) 0.5006(2) 0.7731(2)
C4 C 0.4685(3) 0.7439(3) 0.8199(2)
C5 C 0.1727(3) 0.3622(2) 0.7330(2)
N2 N 0.4137(2) 0.5305(2) 0.84489(19)
N3 N 0.2177(2) 0.6015(2) 0.72506(17)
N4 N 0.3405(2) 0.6930(2) 0.70889(17)
C6 C 0.5585(3) 0.8859(3) 0.8556(2)
O2 O 0.0552(2) 0.74566(19) 0.71364(17)
O3 O 0.2701(3) 0.5824(2) 0.50123(18)
C7 C 0.4908(4) 0.9843(3) 0.8193(2)
H6 H 0.3877 0.9600 0.7673
C8 C 0.7114(3) 0.9243(3) 0.9327(3)
H7 H 0.7579 0.8591 0.9584
C9 C 0.0866(3) 0.6510(3) 0.7444(2)
C10 C 0.0532(3) 0.3145(3) 0.6227(2)
H8 H 0.0329 0.3719 0.5734
C11 C 0.2007(3) 0.2743(3) 0.8044(2)
H9 H 0.2798 0.3052 0.8795
O4 O 0.5139(3) 0.7209(2) 0.60060(19)
C12 C 0.7957(4) 1.0587(3) 0.9720(3)
H10 H 0.8988 1.0839 1.0239
C13 C 0.1125(4) 0.1423(3) 0.7651(3)
H11 H 0.1333 0.0835 0.8129
C14 C -0.1448(3) 0.5917(3) 0.8083(3)
H12 H -0.2144 0.5799 0.7268
H13 H -0.1353 0.6818 0.8605
C15 C 0.3672(4) 0.6572(3) 0.5914(3)
C16 C -0.0357(4) 0.1827(3) 0.5856(3)
H14 H -0.1172 0.1516 0.5119
C17 C 0.7283(5) 1.1539(3) 0.9351(3)
H15 H 0.7859 1.2442 0.9608
C18 C 0.5753(5) 1.1177(3) 0.8599(3)
H16 H 0.5289 1.1839 0.8364
C19 C -0.2079(4) 0.4874(4) 0.8635(4)
H17 H -0.3110 0.4947 0.8718
H18 H -0.1375 0.5002 0.9439
H19 H -0.2165 0.3990 0.8109
C20 C -0.0056(5) 0.0966(3) 0.6562(3)
H20 H -0.0656 0.0070 0.6299
loop_
_geom_bond_atom_site_label_1
_geom_bond_atom_site_label_2
_geom_bond_site_symmetry_1
_geom_bond_site_symmetry_2
C1 H1 1_555 1_555
H2 C1 1_555 1_555
C2 C1 1_555 1_555
H3 C2 1_555 1_555
H4 C2 1_555 1_555
H5 C2 1_555 1_555
O1 C9 1_555 1_555
N1 C4 1_555 1_555
C3 C5 1_555 1_555
C4 N4 1_555 1_555
C5 C10 1_555 1_555
N2 N1 1_555 1_555
N3 C3 1_555 1_555
N4 N3 1_555 1_555
C6 C4 1_555 1_555
O2 C9 1_555 1_555
O3 C15 1_555 1_555
C7 C6 1_555 1_555
H6 C7 1_555 1_555
C8 C6 1_555 1_555
H7 C8 1_555 1_555
C9 N3 1_555 1_555
C10 H8 1_555 1_555
C11 C5 1_555 1_555
H9 C11 1_555 1_555
O4 C1 1_555 1_555
C12 C8 1_555 1_555
H10 C12 1_555 1_555
C13 C11 1_555 1_555
H11 C13 1_555 1_555
C14 O1 1_555 1_555
H12 C14 1_555 1_555
H13 C14 1_555 1_555
C15 N4 1_555 1_555
C16 C10 1_555 1_555
H14 C16 1_555 1_555
C17 C12 1_555 1_555
H15 C17 1_555 1_555
C18 C7 1_555 1_555
H16 C18 1_555 1_555
C19 C14 1_555 1_555
H17 C19 1_555 1_555
H18 C19 1_555 1_555
H19 C19 1_555 1_555
C20 C13 1_555 1_555
H20 C20 1_555 1_555
C3 N2 1_555 1_555
O4 C15 1_555 1_555
C16 C20 1_555 1_555
C17 C18 1_555 1_555

#END
