
#######################################################################
#
#                 Cambridge Crystallographic Data Centre
#                                CCDC 
#
#######################################################################
#
# If this CIF has been generated from an entry in the Cambridge 
# Structural Database, then it will include bibliographic, chemical, 
# crystal, experimental, refinement or atomic coordinate data resulting 
# from the CCDC's data processing and validation procedures.
#
#######################################################################

data_EWESUU
_chemical_formula_moiety         'C14 H15 N3'
_chemical_name_systematic        4-(2,2-Dicyanovinyl)-N,N-diethylaniline
_symmetry_cell_setting           monoclinic
_symmetry_space_group_name_H-M   'P 21/n'
_symmetry_Int_Tables_number      14
_space_group_name_Hall           '-P 2yn'
loop_
_symmetry_equiv_pos_site_id
_symmetry_equiv_pos_as_xyz
1 x,y,z
2 1/2+x,1/2-y,1/2+z
3 -x,-y,-z
4 1/2-x,1/2+y,1/2-z
_cell_length_a                   9.3864(3)
_cell_length_b                   9.5709(3)
_cell_length_c                   14.6829(2)
_cell_angle_alpha                90
_cell_angle_beta                 98.960(1)
_cell_angle_gamma                90
_cell_volume                     1302.96
_exptl_crystal_colour            yellow
_exptl_crystal_description       slab
_cell_formula_units_Z            4
loop_
_atom_site_label
_atom_site_type_symbol
_atom_site_fract_x
_atom_site_fract_y
_atom_site_fract_z
N1 N 0.8334(2) -0.5374(2) -0.12069(15)
N2 N 0.5682(2) -0.1678(2) -0.13881(17)
N3 N 0.92356(18) 0.24958(18) 0.22773(12)
C1 C 0.7905(2) -0.0072(2) 0.04980(14)
H1 H 0.7120 -0.0179 0.0032
C2 C 0.8000(2) 0.1099(2) 0.10315(13)
H2 H 0.7276 0.1769 0.0918
C3 C 0.9156(2) 0.1329(2) 0.17489(14)
C4 C 1.0246(2) 0.0284(2) 0.18844(14)
H3 H 1.1047 0.0399 0.2338
C5 C 1.0116(2) -0.0887(2) 0.13481(14)
H4 H 1.0829 -0.1567 0.1462
C6 C 0.8962(2) -0.11202(19) 0.06333(13)
C7 C 0.8917(2) -0.2391(2) 0.01303(14)
H5 H 0.9693 -0.2980 0.0324
C8 C 0.7966(2) -0.2913(2) -0.05761(14)
C9 C 0.8176(2) -0.4276(2) -0.09283(15)
C10 C 0.6699(3) -0.2222(2) -0.10189(16)
C11 C 1.0480(2) 0.2833(2) 0.29631(16)
H6 H 1.0603 0.3839 0.2988
H7 H 1.1336 0.2431 0.2773
C12 C 1.0346(3) 0.2305(3) 0.39148(18)
H8 H 1.1194 0.2557 0.4337
H9 H 1.0246 0.1307 0.3899
H10 H 0.9514 0.2716 0.4114
C13 C 0.8010(2) 0.3471(2) 0.22366(16)
H11 H 0.8021 0.3885 0.2841
H12 H 0.7118 0.2950 0.2086
C14 C 0.8034(3) 0.4621(3) 0.1538(2)
H13 H 0.7214 0.5219 0.1544
H14 H 0.7999 0.4221 0.0936
H15 H 0.8903 0.5157 0.1691
loop_
_geom_bond_atom_site_label_1
_geom_bond_atom_site_label_2
_geom_bond_site_symmetry_1
_geom_bond_site_symmetry_2
N1 C9 1_555 1_555
N2 C10 1_555 1_555
N3 C3 1_555 1_555
C1 H1 1_555 1_555
C2 C1 1_555 1_555
H2 C2 1_555 1_555
C3 C2 1_555 1_555
C4 C3 1_555 1_555
H3 C4 1_555 1_555
C5 C4 1_555 1_555
H4 C5 1_555 1_555
C6 C1 1_555 1_555
C7 C6 1_555 1_555
H5 C7 1_555 1_555
C8 C7 1_555 1_555
C9 C8 1_555 1_555
C10 C8 1_555 1_555
C11 N3 1_555 1_555
H6 C11 1_555 1_555
H7 C11 1_555 1_555
C12 C11 1_555 1_555
H8 C12 1_555 1_555
H9 C12 1_555 1_555
H10 C12 1_555 1_555
C13 N3 1_555 1_555
H11 C13 1_555 1_555
H12 C13 1_555 1_555
C14 C13 1_555 1_555
H13 C14 1_555 1_555
H14 C14 1_555 1_555
H15 C14 1_555 1_555
C5 C6 1_555 1_555

#END
