
#######################################################################
#
#                 Cambridge Crystallographic Data Centre
#                                CCDC 
#
#######################################################################
#
# If this CIF has been generated from an entry in the Cambridge 
# Structural Database, then it will include bibliographic, chemical, 
# crystal, experimental, refinement or atomic coordinate data resulting 
# from the CCDC's data processing and validation procedures.
#
#######################################################################

data_EWEVIM01
_chemical_formula_moiety         'C7 H6 N2 O4'
_chemical_name_systematic        '2-amino-4-nitrobenzoic acid'
_symmetry_cell_setting           monoclinic
_symmetry_space_group_name_H-M   'P 21/c'
_symmetry_Int_Tables_number      14
_space_group_name_Hall           '-P 2ybc'
loop_
_symmetry_equiv_pos_site_id
_symmetry_equiv_pos_as_xyz
1 x,y,z
2 -x,1/2+y,1/2-z
3 -x,-y,-z
4 x,1/2-y,1/2+z
_cell_length_a                   4.039(4)
_cell_length_b                   27.23(2)
_cell_length_c                   7.284(7)
_cell_angle_alpha                90
_cell_angle_beta                 112.783(15)
_cell_angle_gamma                90
_cell_volume                     738.605
_exptl_crystal_colour            orange
_exptl_crystal_description       Slab
_cell_formula_units_Z            4
loop_
_atom_site_label
_atom_site_type_symbol
_atom_site_fract_x
_atom_site_fract_y
_atom_site_fract_z
O1 O 1.0893(6) 0.00439(6) 0.2772(3)
H1 H 1.2633 -0.0145 0.3468
O2 O 1.4962(6) 0.05873(7) 0.4698(3)
O3 O 0.5386(7) 0.23677(7) -0.1713(3)
O4 O 0.0904(6) 0.18326(8) -0.3153(3)
N1 N 1.3947(7) 0.15426(8) 0.3848(3)
H2 H 1.4660 0.1855 0.3870
H3 H 1.5313 0.1332 0.4700
N2 N 0.4001(7) 0.19490(8) -0.1921(3)
C1 C 1.0166(8) 0.08749(9) 0.1911(4)
C2 C 1.1148(9) 0.13804(9) 0.2308(4)
C3 C 0.9028(8) 0.17288(9) 0.0969(4)
H4 H 0.9582 0.2069 0.1163
C4 C 0.6187(8) 0.15712(9) -0.0600(4)
C5 C 0.5223(8) 0.10785(9) -0.1048(4)
H5 H 0.3229 0.0987 -0.2214
C6 C 0.7253(9) 0.07389(10) 0.0252(4)
H6 H 0.6656 0.0401 0.0013
C7 C 1.2233(8) 0.04991(9) 0.3259(4)
loop_
_geom_bond_atom_site_label_1
_geom_bond_atom_site_label_2
_geom_bond_site_symmetry_1
_geom_bond_site_symmetry_2
O1 H1 1_555 1_555
O2 C7 1_555 1_555
O3 N2 1_555 1_555
O4 N2 1_555 1_555
N1 H2 1_555 1_555
H3 N1 1_555 1_555
N2 C4 1_555 1_555
C1 C2 1_555 1_555
C2 N1 1_555 1_555
C3 C2 1_555 1_555
H4 C3 1_555 1_555
C4 C3 1_555 1_555
C5 C4 1_555 1_555
H5 C5 1_555 1_555
C6 C1 1_555 1_555
H6 C6 1_555 1_555
C7 O1 1_555 1_555
C1 C7 1_555 1_555
C5 C6 1_555 1_555

#END
