
#######################################################################
#
#                 Cambridge Crystallographic Data Centre
#                                CCDC 
#
#######################################################################
#
# If this CIF has been generated from an entry in the Cambridge 
# Structural Database, then it will include bibliographic, chemical, 
# crystal, experimental, refinement or atomic coordinate data resulting 
# from the CCDC's data processing and validation procedures.
#
#######################################################################

data_EWEVUY
_chemical_formula_moiety         'C11 H8 N2 O1,C7 H6 N2 O4'
_chemical_name_systematic        
'2-Amino-4-nitrobenzoic acid bis(pyridin-2-yl)methanone'
_symmetry_cell_setting           monoclinic
_symmetry_space_group_name_H-M   'P 21/c'
_symmetry_Int_Tables_number      14
_space_group_name_Hall           '-P 2ybc'
loop_
_symmetry_equiv_pos_site_id
_symmetry_equiv_pos_as_xyz
1 x,y,z
2 -x,1/2+y,1/2-z
3 -x,-y,-z
4 x,1/2-y,1/2+z
_cell_length_a                   3.795(3)
_cell_length_b                   12.024(8)
_cell_length_c                   35.65(2)
_cell_angle_alpha                90
_cell_angle_beta                 92.131(6)
_cell_angle_gamma                90
_cell_volume                     1625.62
_exptl_crystal_colour            red
_exptl_crystal_description       rod
_cell_formula_units_Z            4
loop_
_atom_site_label
_atom_site_type_symbol
_atom_site_fract_x
_atom_site_fract_y
_atom_site_fract_z
O1 O 0.1915(4) 0.64269(13) 0.36029(4)
H1 H 0.071(6) 0.678(2) 0.3437(6)
O2 O 0.0110(4) 0.49230(12) 0.32665(4)
O3 O 0.9006(4) 0.33156(13) 0.50600(4)
O4 O 0.6251(4) 0.18552(11) 0.48470(4)
N1 N 0.1876(5) 0.28505(16) 0.35552(4)
H2 H 0.078(6) 0.3248(17) 0.3377(5)
H3 H 0.163(6) 0.2122(9) 0.3575(6)
N2 N 0.7155(4) 0.28302(12) 0.48233(4)
C1 C 0.1609(5) 0.53221(18) 0.35500(5)
C2 C 0.3173(5) 0.46496(17) 0.38672(5)
C3 C 0.3132(5) 0.34649(17) 0.38554(5)
C4 C 0.4528(5) 0.28813(18) 0.41775(5)
H4 H 0.4537 0.2091 0.4181
C5 C 0.5871(5) 0.34780(18) 0.44850(5)
C6 C 0.6019(5) 0.46387(18) 0.44997(5)
H5 H 0.7004 0.5020 0.4712
C7 C 0.4646(5) 0.52078(18) 0.41868(5)
H6 H 0.4698 0.5998 0.4187
O5 O 0.0438(5) 0.05840(14) 0.31703(4)
N3 N 0.0288(4) 0.03248(15) 0.39202(4)
N4 N -0.1346(4) -0.22594(14) 0.30363(4)
C8 C -0.0724(5) -0.03063(18) 0.32820(5)
C9 C -0.1089(5) -0.05043(17) 0.36987(5)
C10 C -0.0031(5) 0.02074(18) 0.42929(5)
H7 H 0.0938 0.0773 0.4452
C11 C -0.1688(5) -0.06886(19) 0.44621(5)
H8 H -0.1836 -0.0728 0.4727
C12 C -0.3115(5) -0.15221(19) 0.42325(5)
H9 H -0.4281 -0.2141 0.4338
C13 C -0.2802(5) -0.14326(17) 0.38414(5)
H10 H -0.3736 -0.1992 0.3678
C14 C -0.1914(5) -0.11549(18) 0.29837(5)
C15 C -0.3437(5) -0.07138(18) 0.26490(5)
H11 H -0.3745 0.0066 0.2621
C16 C -0.4490(5) -0.14406(19) 0.23589(5)
H12 H -0.5595 -0.1167 0.2134
C17 C -0.3882(5) -0.25692(19) 0.24079(5)
H13 H -0.4529 -0.3082 0.2215
C18 C -0.2297(5) -0.29445(19) 0.27472(5)
H14 H -0.1867 -0.3719 0.2776
loop_
_geom_bond_atom_site_label_1
_geom_bond_atom_site_label_2
_geom_bond_site_symmetry_1
_geom_bond_site_symmetry_2
O1 H1 1_555 1_555
O2 C1 1_555 1_555
O3 N2 1_555 1_555
O4 N2 1_555 1_555
N1 H2 1_555 1_555
H3 N1 1_555 1_555
N2 C5 1_555 1_555
C1 O1 1_555 1_555
C2 C1 1_555 1_555
C3 N1 1_555 1_555
C4 C3 1_555 1_555
H4 C4 1_555 1_555
C5 C4 1_555 1_555
C6 C5 1_555 1_555
H5 C6 1_555 1_555
C7 C2 1_555 1_555
H6 C7 1_555 1_555
O5 C8 1_555 1_555
N3 C9 1_555 1_555
N4 C14 1_555 1_555
C8 C9 1_555 1_555
C9 C13 1_555 1_555
C10 N3 1_555 1_555
H7 C10 1_555 1_555
C11 C10 1_555 1_555
H8 C11 1_555 1_555
C12 C11 1_555 1_555
H9 C12 1_555 1_555
C13 C12 1_555 1_555
H10 C13 1_555 1_555
C14 C8 1_555 1_555
C15 C14 1_555 1_555
H11 C15 1_555 1_555
C16 C15 1_555 1_555
H12 C16 1_555 1_555
C17 C16 1_555 1_555
H13 C17 1_555 1_555
C18 N4 1_555 1_555
H14 C18 1_555 1_555
C2 C3 1_555 1_555
C6 C7 1_555 1_555
C17 C18 1_555 1_555

#END
