
#######################################################################
#
#                 Cambridge Crystallographic Data Centre
#                                CCDC 
#
#######################################################################
#
# If this CIF has been generated from an entry in the Cambridge 
# Structural Database, then it will include bibliographic, chemical, 
# crystal, experimental, refinement or atomic coordinate data resulting 
# from the CCDC's data processing and validation procedures.
#
#######################################################################

data_EWEWAG
_chemical_formula_moiety         'C39 H30 N4 O3'
_chemical_name_systematic        
2-(((4-(bis(4-((2-hydroxybenzylidene)amino)phenyl)amino)phenyl)imino)methyl)phenol
_symmetry_cell_setting           monoclinic
_symmetry_space_group_name_H-M   'P 21/c'
_symmetry_Int_Tables_number      14
_space_group_name_Hall           '-P 2ybc'
loop_
_symmetry_equiv_pos_site_id
_symmetry_equiv_pos_as_xyz
1 x,y,z
2 -x,1/2+y,1/2-z
3 -x,-y,-z
4 x,1/2-y,1/2+z
_cell_length_a                   12.7974(10)
_cell_length_b                   21.2232(16)
_cell_length_c                   22.6373(15)
_cell_angle_alpha                90
_cell_angle_beta                 90.014(2)
_cell_angle_gamma                90
_cell_volume                     6148.33
_exptl_crystal_colour            colorless
_exptl_crystal_description       block
_cell_formula_units_Z            8
loop_
_atom_site_label
_atom_site_type_symbol
_atom_site_fract_x
_atom_site_fract_y
_atom_site_fract_z
C1 C 0.5988(7) 0.3502(4) 0.5431(3)
H1 H 0.6107 0.3429 0.5031
C2 C 0.5016(6) 0.3713(3) 0.5626(3)
H2 H 0.4483 0.3795 0.5358
C3 C 0.4858(5) 0.3799(3) 0.6218(3)
H3 H 0.4204 0.3933 0.6345
C4 C 0.5627(4) 0.3695(2) 0.6635(2)
C5 C 0.6603(5) 0.3476(3) 0.6430(3)
C6 C 0.6757(6) 0.3404(4) 0.5833(3)
H4 H 0.7415 0.3284 0.5700
C7 C 0.5434(4) 0.3781(2) 0.7257(2)
H5 H 0.4778 0.3915 0.7381
C8 C 0.5992(4) 0.3751(3) 0.8256(2)
C9 C 0.5049(4) 0.3888(2) 0.8538(2)
H6 H 0.4446 0.3940 0.8314
C10 C 0.5000(4) 0.3946(3) 0.9133(2)
H7 H 0.4361 0.4043 0.9306
C11 C 0.5865(4) 0.3866(3) 0.9493(2)
C12 C 0.6818(4) 0.3735(3) 0.9216(2)
H8 H 0.7424 0.3695 0.9440
C13 C 0.6859(4) 0.3665(3) 0.8610(2)
H9 H 0.7491 0.3556 0.8434
C14 C 0.4885(4) 0.3738(3) 1.0409(2)
C15 C 0.4416(5) 0.4140(3) 1.0806(3)
H10 H 0.4697 0.4539 1.0866
C16 C 0.3549(4) 0.3965(3) 1.1115(3)
H11 H 0.3247 0.4244 1.1382
C17 C 0.3113(4) 0.3371(3) 1.1032(2)
C18 C 0.3556(5) 0.2979(3) 1.0621(2)
H12 H 0.3253 0.2589 1.0545
C19 C 0.4454(4) 0.3156(3) 1.0317(2)
H13 H 0.4762 0.2879 1.0050
C20 C 0.2077(4) 0.3252(3) 1.1874(2)
H14 H 0.2604 0.3461 1.2078
C21 C 0.1172(4) 0.3045(2) 1.2200(2)
C22 C 0.1156(6) 0.3066(3) 1.2824(3)
H15 H 0.1741 0.3214 1.3025
C23 C 0.0318(6) 0.2877(3) 1.3133(3)
H16 H 0.0320 0.2900 1.3543
C24 C -0.0548(6) 0.2647(3) 1.2838(4)
H17 H -0.1125 0.2514 1.3054
C25 C -0.0570(5) 0.2613(3) 1.2235(3)
H18 H -0.1163 0.2460 1.2045
C26 C 0.0290(4) 0.2806(3) 1.1905(3)
C27 C 0.6719(4) 0.4057(3) 1.0439(2)
C28 C 0.7084(5) 0.3638(3) 1.0857(3)
H19 H 0.6719 0.3267 1.0927
C29 C 0.7987(5) 0.3762(3) 1.1172(3)
H20 H 0.8227 0.3471 1.1448
C30 C 0.8542(4) 0.4321(3) 1.1079(2)
C31 C 0.8174(5) 0.4728(3) 1.0649(3)
H21 H 0.8550 0.5093 1.0567
C32 C 0.7276(5) 0.4612(3) 1.0343(3)
H22 H 0.7035 0.4904 1.0068
C33 C 0.9529(5) 0.4392(3) 1.1939(3)
H23 H 0.8974 0.4199 1.2133
C34 C 1.0426(4) 0.4585(3) 1.2284(3)
C35 C 1.0424(6) 0.4546(3) 1.2891(3)
H24 H 0.9841 0.4382 1.3082
C36 C 1.1265(7) 0.4745(4) 1.3225(4)
H25 H 1.1253 0.4710 1.3634
C37 C 1.2110(6) 0.4993(3) 1.2947(4)
H26 H 1.2668 0.5138 1.3172
C38 C 1.2163(5) 0.5035(3) 1.2351(3)
H27 H 1.2762 0.5192 1.2172
C39 C 1.1322(5) 0.4842(3) 1.2007(3)
N1 N 0.6145(3) 0.3678(2) 0.76415(17)
N2 N 0.2190(3) 0.3162(2) 1.13224(18)
N3 N 0.9464(4) 0.4474(2) 1.1389(2)
N4 N 0.5806(4) 0.3940(3) 1.0105(2)
O1 O 0.7399(4) 0.3357(3) 0.6811(2)
H28 H 0.714(6) 0.341(4) 0.7148(18)
O2 O 0.0249(3) 0.2761(2) 1.13120(18)
H29 H 0.073(4) 0.280(3) 1.106(2)
O3 O 1.1394(4) 0.4883(3) 1.1418(2)
H30 H 1.085(4) 0.482(4) 1.121(3)
C40 C -0.4722(4) 0.2229(2) 0.8372(2)
C41 C -0.5580(5) 0.2417(3) 0.8037(3)
H31 H -0.6164 0.2582 0.8228
C42 C -0.5585(6) 0.2366(3) 0.7448(4)
H32 H -0.6170 0.2498 0.7237
C43 C -0.4722(6) 0.2117(3) 0.7142(3)
H33 H -0.4726 0.2078 0.6733
C44 C -0.3869(5) 0.1933(3) 0.7473(3)
H34 H -0.3290 0.1767 0.7279
C45 C -0.3846(4) 0.1988(3) 0.8076(3)
C46 C -0.2907(4) 0.1800(2) 0.8401(2)
H35 H -0.2367 0.1603 0.8196
C47 C -0.1874(4) 0.1701(3) 0.9250(2)
C48 C -0.1456(5) 0.2098(3) 0.9679(2)
H36 H -0.1782 0.2479 0.9764
C49 C -0.0564(5) 0.1928(3) 0.9975(3)
H37 H -0.0280 0.2202 1.0252
C50 C -0.0086(4) 0.1363(3) 0.9871(2)
C51 C -0.0503(5) 0.0967(3) 0.9452(3)
H38 H -0.0182 0.0583 0.9374
C52 C -0.1393(4) 0.1133(3) 0.9145(2)
H39 H -0.1670 0.0858 0.8865
C53 C 0.0908(4) 0.1228(3) 1.0799(2)
C54 C 0.0029(4) 0.1110(3) 1.1149(2)
H40 H -0.0601 0.1004 1.0970
C55 C 0.0084(4) 0.1150(3) 1.1756(2)
H41 H -0.0509 0.1073 1.1982
C56 C 0.1021(4) 0.1305(2) 1.2034(2)
C57 C 0.1890(4) 0.1425(3) 1.1678(2)
H42 H 0.2521 0.1534 1.1855
C58 C 0.1829(4) 0.1387(3) 1.1075(2)
H43 H 0.2420 0.1471 1.0849
C59 C 0.0454(4) 0.1237(2) 1.3035(2)
H44 H -0.0210 0.1117 1.2912
C60 C 0.0664(4) 0.1308(2) 1.3650(2)
C61 C -0.0137(5) 0.1199(3) 1.4068(2)
H45 H -0.0796 0.1078 1.3937
C62 C 0.0039(6) 0.1267(4) 1.4668(3)
H46 H -0.0497 0.1203 1.4938
C63 C 0.1014(7) 0.1429(4) 1.4854(3)
H47 H 0.1140 0.1462 1.5257
C64 C 0.1810(6) 0.1544(4) 1.4471(3)
H48 H 0.2464 0.1659 1.4614
C65 C 0.1644(5) 0.1489(3) 1.3870(3)
C66 C 0.1753(4) 0.1036(3) 0.9846(2)
C67 C 0.2124(4) 0.1446(3) 0.9427(3)
H49 H 0.1780 0.1826 0.9360
C68 C 0.3013(4) 0.1297(3) 0.9103(3)
H50 H 0.3249 0.1572 0.8812
C69 C 0.3548(4) 0.0744(3) 0.9210(2)
C70 C 0.3179(5) 0.0343(3) 0.9648(2)
H51 H 0.3545 -0.0024 0.9734
C71 C 0.2283(5) 0.0480(3) 0.9955(2)
H52 H 0.2032 0.0199 1.0236
C72 C 0.4516(4) 0.0622(3) 0.8341(2)
H53 H 0.3946 0.0788 0.8139
C73 C 0.5426(4) 0.0430(3) 0.8011(2)
C74 C 0.5384(5) 0.0436(3) 0.7401(2)
H54 H 0.4785 0.0582 0.7214
C75 C 0.6219(6) 0.0226(3) 0.7064(3)
H55 H 0.6180 0.0231 0.6654
C76 C 0.7101(5) 0.0012(3) 0.7342(3)
H56 H 0.7657 -0.0137 0.7117
C77 C 0.7177(5) 0.0015(3) 0.7945(3)
H57 H 0.7791 -0.0116 0.8127
C78 C 0.6343(4) 0.0210(3) 0.8283(2)
N5 N -0.2802(3) 0.1895(2) 0.8954(2)
N6 N 0.1172(3) 0.1337(2) 1.26455(19)
N7 N 0.4468(4) 0.0571(2) 0.89114(19)
N8 N 0.0837(3) 0.1179(3) 1.01837(18)
O4 O -0.4741(3) 0.2308(2) 0.8963(2)
H58 H -0.416(3) 0.226(3) 0.913(3)
O5 O 0.2433(4) 0.1604(3) 1.3493(2)
H59 H 0.215(6) 0.154(4) 1.316(2)
O6 O 0.6428(3) 0.0209(2) 0.8885(2)
H60 H 0.586(3) 0.024(4) 0.907(3)
loop_
_geom_bond_atom_site_label_1
_geom_bond_atom_site_label_2
_geom_bond_site_symmetry_1
_geom_bond_site_symmetry_2
C1 H1 1_555 1_555
C2 C1 1_555 1_555
H2 C2 1_555 1_555
C3 C2 1_555 1_555
H3 C3 1_555 1_555
C4 C3 1_555 1_555
C5 C4 1_555 1_555
C6 C1 1_555 1_555
H4 C6 1_555 1_555
C7 C4 1_555 1_555
H5 C7 1_555 1_555
C8 C9 1_555 1_555
C9 H6 1_555 1_555
C10 C9 1_555 1_555
H7 C10 1_555 1_555
C11 C10 1_555 1_555
C12 C11 1_555 1_555
H8 C12 1_555 1_555
C13 C8 1_555 1_555
H9 C13 1_555 1_555
C14 C15 1_555 1_555
C15 H10 1_555 1_555
C16 C15 1_555 1_555
H11 C16 1_555 1_555
C17 C16 1_555 1_555
C18 C17 1_555 1_555
H12 C18 1_555 1_555
C19 C14 1_555 1_555
H13 C19 1_555 1_555
C20 H14 1_555 1_555
C21 C20 1_555 1_555
C22 C21 1_555 1_555
H15 C22 1_555 1_555
C23 C22 1_555 1_555
H16 C23 1_555 1_555
C24 C23 1_555 1_555
H17 C24 1_555 1_555
C25 C24 1_555 1_555
H18 C25 1_555 1_555
C26 C21 1_555 1_555
C27 C28 1_555 1_555
C28 H19 1_555 1_555
C29 C28 1_555 1_555
H20 C29 1_555 1_555
C30 C29 1_555 1_555
C31 C30 1_555 1_555
H21 C31 1_555 1_555
C32 C27 1_555 1_555
H22 C32 1_555 1_555
C33 H23 1_555 1_555
C34 C33 1_555 1_555
C35 C34 1_555 1_555
H24 C35 1_555 1_555
C36 C35 1_555 1_555
H25 C36 1_555 1_555
C37 C36 1_555 1_555
H26 C37 1_555 1_555
C38 C37 1_555 1_555
H27 C38 1_555 1_555
C39 C34 1_555 1_555
N1 C7 1_555 1_555
N2 C17 1_555 1_555
N3 C30 1_555 1_555
N4 C11 1_555 1_555
O1 C5 1_555 1_555
H28 O1 1_555 1_555
O2 C26 1_555 1_555
H29 O2 1_555 1_555
O3 C39 1_555 1_555
H30 O3 1_555 1_555
C40 C41 1_555 1_555
C41 H31 1_555 1_555
C42 C41 1_555 1_555
H32 C42 1_555 1_555
C43 C42 1_555 1_555
H33 C43 1_555 1_555
C44 C43 1_555 1_555
H34 C44 1_555 1_555
C45 C40 1_555 1_555
C46 C45 1_555 1_555
H35 C46 1_555 1_555
C47 C48 1_555 1_555
C48 H36 1_555 1_555
C49 C48 1_555 1_555
H37 C49 1_555 1_555
C50 C49 1_555 1_555
C51 C50 1_555 1_555
H38 C51 1_555 1_555
C52 C47 1_555 1_555
H39 C52 1_555 1_555
C53 C54 1_555 1_555
C54 H40 1_555 1_555
C55 C54 1_555 1_555
H41 C55 1_555 1_555
C56 C55 1_555 1_555
C57 C56 1_555 1_555
H42 C57 1_555 1_555
C58 C53 1_555 1_555
H43 C58 1_555 1_555
C59 H44 1_555 1_555
C60 C59 1_555 1_555
C61 C60 1_555 1_555
H45 C61 1_555 1_555
C62 C61 1_555 1_555
H46 C62 1_555 1_555
C63 C62 1_555 1_555
H47 C63 1_555 1_555
C64 C63 1_555 1_555
H48 C64 1_555 1_555
C65 C60 1_555 1_555
C66 C67 1_555 1_555
C67 H49 1_555 1_555
C68 C67 1_555 1_555
H50 C68 1_555 1_555
C69 C68 1_555 1_555
C70 C69 1_555 1_555
H51 C70 1_555 1_555
C71 C66 1_555 1_555
H52 C71 1_555 1_555
C72 H53 1_555 1_555
C73 C72 1_555 1_555
C74 C73 1_555 1_555
H54 C74 1_555 1_555
C75 C74 1_555 1_555
H55 C75 1_555 1_555
C76 C75 1_555 1_555
H56 C76 1_555 1_555
C77 C76 1_555 1_555
H57 C77 1_555 1_555
C78 C73 1_555 1_555
N5 C46 1_555 1_555
N6 C56 1_555 1_555
N7 C69 1_555 1_555
N8 C50 1_555 1_555
O4 C40 1_555 1_555
H58 O4 1_555 1_555
O5 C65 1_555 1_555
H59 O5 1_555 1_555
O6 C78 1_555 1_555
H60 O6 1_555 1_555
C5 C6 1_555 1_555
C8 N1 1_555 1_555
C12 C13 1_555 1_555
C14 N4 1_555 1_555
C18 C19 1_555 1_555
C20 N2 1_555 1_555
C25 C26 1_555 1_555
C27 N4 1_555 1_555
C31 C32 1_555 1_555
C33 N3 1_555 1_555
C38 C39 1_555 1_555
C44 C45 1_555 1_555
C47 N5 1_555 1_555
C51 C52 1_555 1_555
C53 N8 1_555 1_555
C57 C58 1_555 1_555
C59 N6 1_555 1_555
C64 C65 1_555 1_555
C66 N8 1_555 1_555
C70 C71 1_555 1_555
C72 N7 1_555 1_555
C77 C78 1_555 1_555

#END
