
#######################################################################
#
#                 Cambridge Crystallographic Data Centre
#                                CCDC 
#
#######################################################################
#
# If this CIF has been generated from an entry in the Cambridge 
# Structural Database, then it will include bibliographic, chemical, 
# crystal, experimental, refinement or atomic coordinate data resulting 
# from the CCDC's data processing and validation procedures.
#
#######################################################################

data_EWIGUO
_chemical_formula_moiety         'C8 H3 Cl2 N1 O2'
_chemical_name_systematic        5,7-dichloro-1H-indole-2,3-dione
_symmetry_cell_setting           monoclinic
_symmetry_space_group_name_H-M   'P 21/c'
_symmetry_Int_Tables_number      14
_space_group_name_Hall           '-P 2ybc'
loop_
_symmetry_equiv_pos_site_id
_symmetry_equiv_pos_as_xyz
1 x,y,z
2 -x,1/2+y,1/2-z
3 -x,-y,-z
4 x,1/2-y,1/2+z
_cell_length_a                   11.0789(17)
_cell_length_b                   4.9866(8)
_cell_length_c                   15.049(2)
_cell_angle_alpha                90
_cell_angle_beta                 108.041(7)
_cell_angle_gamma                90
_cell_volume                     790.522
_exptl_crystal_colour            orange
_exptl_crystal_description       BLOCK
_cell_formula_units_Z            4
loop_
_atom_site_label
_atom_site_type_symbol
_atom_site_fract_x
_atom_site_fract_y
_atom_site_fract_z
Cl1 Cl 0.97776(5) 0.75293(13) 0.90244(4)
Cl2 Cl 0.74527(5) 0.65413(12) 0.53083(4)
O1 O 0.46893(16) -0.1568(3) 0.60119(11)
O2 O 0.60384(15) -0.1147(3) 0.80286(11)
N1 N 0.59860(19) 0.2023(4) 0.59574(13)
H1 H 0.582(3) 0.213(6) 0.5359(12)
C1 C 0.5484(2) 0.0101(5) 0.63789(15)
C2 C 0.6184(2) 0.0373(5) 0.74484(15)
C3 C 0.7063(2) 0.2649(5) 0.75254(15)
C4 C 0.7939(2) 0.3839(5) 0.82884(16)
H2 H 0.8036 0.3267 0.8909
C5 C 0.8670(2) 0.5915(5) 0.81031(16)
C6 C 0.8533(2) 0.6781(5) 0.71998(16)
H3 H 0.9047 0.8202 0.7098
C7 C 0.7645(2) 0.5570(5) 0.64436(15)
C8 C 0.6913(2) 0.3505(5) 0.66125(15)
loop_
_geom_bond_atom_site_label_1
_geom_bond_atom_site_label_2
_geom_bond_site_symmetry_1
_geom_bond_site_symmetry_2
Cl1 C5 1_555 1_555
Cl2 C7 1_555 1_555
O1 C1 1_555 1_555
O2 C2 1_555 1_555
N1 H1 1_555 1_555
C1 N1 1_555 1_555
C2 C1 1_555 1_555
C3 C2 1_555 1_555
C4 C3 1_555 1_555
H2 C4 1_555 1_555
C5 C4 1_555 1_555
C6 C5 1_555 1_555
H3 C6 1_555 1_555
C7 C6 1_555 1_555
C8 N1 1_555 1_555
C3 C8 1_555 1_555
C7 C8 1_555 1_555

#END
