
#######################################################################
#
#                 Cambridge Crystallographic Data Centre
#                                CCDC 
#
#######################################################################
#
# If this CIF has been generated from an entry in the Cambridge 
# Structural Database, then it will include bibliographic, chemical, 
# crystal, experimental, refinement or atomic coordinate data resulting 
# from the CCDC's data processing and validation procedures.
#
#######################################################################

data_EWIKOM01
_chemical_formula_moiety         'C24 H12,C10 H2 N4'
_chemical_name_systematic        'benzene-1,2,4,5-tetracarbonitrile coronene'
_symmetry_cell_setting           monoclinic
_symmetry_space_group_name_H-M   'P 21/c'
_symmetry_Int_Tables_number      14
_space_group_name_Hall           '-P 2ybc'
loop_
_symmetry_equiv_pos_site_id
_symmetry_equiv_pos_as_xyz
1 x,y,z
2 -x,1/2+y,1/2-z
3 -x,-y,-z
4 x,1/2-y,1/2+z
_cell_length_a                   9.5075(10)
_cell_length_b                   31.653(3)
_cell_length_c                   7.7367(8)
_cell_angle_alpha                90
_cell_angle_beta                 90.2660(10)
_cell_angle_gamma                90
_cell_volume                     2328.26
_exptl_crystal_colour            red
_exptl_crystal_description       prism
_cell_formula_units_Z            4
loop_
_atom_site_label
_atom_site_type_symbol
_atom_site_fract_x
_atom_site_fract_y
_atom_site_fract_z
C1 C 0.75492(19) 0.31779(6) 0.7758(2)
C2 C 0.61414(19) 0.31840(6) 0.8349(2)
C3 C 0.84162(19) 0.35369(6) 0.7963(2)
C4 C 0.56105(19) 0.35518(7) 0.9181(2)
C5 C 0.6481(2) 0.39122(6) 0.9379(2)
C6 C 0.7881(2) 0.39049(6) 0.8755(2)
C7 C 0.8094(2) 0.28101(7) 0.6940(2)
C8 C 0.5272(2) 0.28253(7) 0.8118(3)
C9 C 0.9826(2) 0.35296(8) 0.7345(3)
C10 C 0.4205(2) 0.35518(8) 0.9790(3)
C11 C 0.5940(3) 0.42782(8) 1.0188(3)
C12 C 0.8744(3) 0.42705(8) 0.8904(3)
C13 C 0.3362(2) 0.31851(9) 0.9537(3)
H1 H 0.2441 0.3182 0.9937
C14 C 0.5843(3) 0.24702(7) 0.7301(3)
H2 H 0.5283 0.2232 0.7137
C15 C 0.9489(2) 0.28131(8) 0.6350(3)
H3 H 0.9850 0.2574 0.5814
C16 C 1.0326(2) 0.31604(9) 0.6549(3)
H4 H 1.1247 0.3152 0.6149
C17 C 1.0648(2) 0.38959(9) 0.7523(3)
H5 H 1.1570 0.3895 0.7126
C18 C 0.3885(2) 0.28381(9) 0.8720(3)
H6 H 0.3307 0.2604 0.8557
C19 C 0.4535(3) 0.42705(9) 1.0816(3)
H7 H 0.4170 0.4507 1.1368
C20 C 0.3717(3) 0.39178(10) 1.0613(3)
H8 H 0.2803 0.3921 1.1036
C21 C 0.7210(3) 0.24649(7) 0.6737(3)
H9 H 0.7554 0.2223 0.6204
C22 C 1.0122(3) 0.42535(9) 0.8269(3)
H10 H 1.0691 0.4491 0.8357
C23 C 0.6811(3) 0.46337(8) 1.0313(3)
H11 H 0.6471 0.4877 1.0839
C24 C 0.8151(3) 0.46310(8) 0.9678(3)
H12 H 0.8689 0.4876 0.9761
C25 C 0.59904(19) 0.38166(6) 0.4499(2)
C26 C 0.70937(19) 0.36061(6) 0.3739(2)
H13 H 0.6987 0.3326 0.3398
C27 C 0.83611(19) 0.38108(6) 0.3482(2)
C28 C 0.6159(2) 0.42349(6) 0.5032(2)
C29 C 0.8529(2) 0.42289(7) 0.4010(2)
N1 N 0.3624(2) 0.34286(7) 0.4831(3)
C30 C 0.4666(2) 0.36027(7) 0.4704(2)
C31 C 0.7428(2) 0.44380(6) 0.4797(3)
H14 H 0.7543 0.4715 0.5169
N2 N 1.0331(2) 0.33983(8) 0.1939(3)
C32 C 0.9480(2) 0.35858(8) 0.2631(3)
C33 C 0.4989(3) 0.44550(7) 0.5805(3)
N3 N 0.4042(3) 0.46227(7) 0.6391(3)
C34 C 0.9845(3) 0.44422(8) 0.3719(3)
N4 N 1.0881(2) 0.46130(8) 0.3474(3)
loop_
_geom_bond_atom_site_label_1
_geom_bond_atom_site_label_2
_geom_bond_site_symmetry_1
_geom_bond_site_symmetry_2
C1 C2 1_555 1_555
C2 C4 1_555 1_555
C3 C1 1_555 1_555
C4 C5 1_555 1_555
C5 C6 1_555 1_555
C6 C3 1_555 1_555
C7 C1 1_555 1_555
C8 C2 1_555 1_555
C9 C3 1_555 1_555
C10 C4 1_555 1_555
C11 C5 1_555 1_555
C12 C6 1_555 1_555
C13 C10 1_555 1_555
H1 C13 1_555 1_555
C14 C8 1_555 1_555
H2 C14 1_555 1_555
C15 C7 1_555 1_555
H3 C15 1_555 1_555
C16 C9 1_555 1_555
H4 C16 1_555 1_555
C17 C9 1_555 1_555
H5 C17 1_555 1_555
C18 C8 1_555 1_555
H6 C18 1_555 1_555
C19 C11 1_555 1_555
H7 C19 1_555 1_555
C20 C10 1_555 1_555
H8 C20 1_555 1_555
C21 C7 1_555 1_555
H9 C21 1_555 1_555
C22 C12 1_555 1_555
H10 C22 1_555 1_555
C23 C11 1_555 1_555
H11 C23 1_555 1_555
C24 C12 1_555 1_555
H12 C24 1_555 1_555
C25 C26 1_555 1_555
C26 H13 1_555 1_555
C27 C26 1_555 1_555
C28 C25 1_555 1_555
C29 C27 1_555 1_555
N1 C30 1_555 1_555
C30 C25 1_555 1_555
C31 C28 1_555 1_555
H14 C31 1_555 1_555
N2 C32 1_555 1_555
C32 C27 1_555 1_555
C33 C28 1_555 1_555
N3 C33 1_555 1_555
C34 C29 1_555 1_555
N4 C34 1_555 1_555
C13 C18 1_555 1_555
C14 C21 1_555 1_555
C15 C16 1_555 1_555
C17 C22 1_555 1_555
C19 C20 1_555 1_555
C23 C24 1_555 1_555
C29 C31 1_555 1_555

#END
