
#######################################################################
#
#                 Cambridge Crystallographic Data Centre
#                                CCDC 
#
#######################################################################
#
# If this CIF has been generated from an entry in the Cambridge 
# Structural Database, then it will include bibliographic, chemical, 
# crystal, experimental, refinement or atomic coordinate data resulting 
# from the CCDC's data processing and validation procedures.
#
#######################################################################

data_EWIQUY
_chemical_compound_source        'endolichenic fungus Biatriospora sp. (8331C)'
_chemical_name_common            'Biatriosporin G'
_chemical_formula_moiety         'C16 H20 O6'
_chemical_name_systematic        
(3S,4aR,5S,10aS)-5,9-dihydroxy-3,7-dimethoxy-3-methyl-1,3,4,4a,5,10a-hexahydro-10H-benzo[g]isochromen-10-one
_symmetry_cell_setting           monoclinic
_symmetry_space_group_name_H-M   'P 21'
_symmetry_Int_Tables_number      4
_space_group_name_Hall           'P 2yb'
loop_
_symmetry_equiv_pos_site_id
_symmetry_equiv_pos_as_xyz
1 x,y,z
2 -x,1/2+y,-z
_cell_length_a                   9.6147(5)
_cell_length_b                   7.1513(4)
_cell_length_c                   10.9518(6)
_cell_angle_alpha                90
_cell_angle_beta                 97.5040(10)
_cell_angle_gamma                90
_cell_volume                     746.57
_cell_formula_units_Z            2
_exptl_crystal_recrystallization_method methanol
loop_
_atom_site_label
_atom_site_type_symbol
_atom_site_fract_x
_atom_site_fract_y
_atom_site_fract_z
O1 O 0.10272(17) 0.4016(3) 0.63060(16)
H1 H 0.053(3) 0.319(5) 0.667(3)
O2 O 0.00035(19) 0.6180(3) 0.22818(14)
H2 H 0.648(4) 0.339(7) 0.420(4)
O3 O 0.07478(17) 0.3278(3) 0.16308(15)
O4 O 0.69221(17) 0.3463(3) 0.4995(2)
O5 O 0.49605(17) 0.3357(3) 0.31569(16)
O6 O 0.5709(2) 0.3543(4) 0.89806(17)
C1 C 0.1593(2) 0.4002(3) 0.4222(2)
H3 H 0.1793 0.5347 0.4251
C2 C 0.4464(2) 0.3347(3) 0.5212(2)
C3 C 0.1902(2) 0.3168(3) 0.55099(19)
H4 H 0.1671 0.1833 0.5453
C4 C 0.0080(2) 0.3669(4) 0.3675(2)
H5 H -0.0144 0.2358 0.3764
H6 H -0.0531 0.4391 0.4134
C5 C 0.4078(2) 0.3268(4) 0.3883(2)
C6 C 0.2202(2) 0.3595(4) 0.2069(2)
H7 H 0.2417 0.4910 0.1986
H8 H 0.2778 0.2886 0.1571
C7 C 0.2546(2) 0.3018(3) 0.3408(2)
H9 H 0.2346 0.1678 0.3447
C8 C 0.5891(2) 0.3418(3) 0.5726(2)
C9 C -0.0204(3) 0.4203(4) 0.2326(2)
C10 C 0.3823(2) 0.3426(4) 0.7278(2)
H10 H 0.3141 0.3445 0.7807
C11 C 0.6265(2) 0.3453(4) 0.6983(2)
H11 H 0.7207 0.3462 0.7314
C12 C 0.3436(2) 0.3346(3) 0.6019(2)
C13 C 0.5233(3) 0.3476(4) 0.7751(2)
C14 C -0.0135(4) 0.7006(6) 0.1072(3)
H12 H 0.0194 0.8275 0.1132
H13 H -0.1103 0.6990 0.0719
H14 H 0.0411 0.6305 0.0558
C15 C -0.1658(3) 0.3617(6) 0.1759(3)
H15 H -0.1761 0.2291 0.1851
H16 H -0.1789 0.3933 0.0900
H17 H -0.2346 0.4255 0.2166
C16 C 0.4680(3) 0.3534(7) 0.9816(3)
H18 H 0.5141 0.3549 1.0648
H19 H 0.4114 0.2428 0.9685
H20 H 0.4094 0.4620 0.9675
loop_
_geom_bond_atom_site_label_1
_geom_bond_atom_site_label_2
_geom_bond_site_symmetry_1
_geom_bond_site_symmetry_2
O1 H1 1_555 1_555
O2 C9 1_555 1_555
H2 O4 1_555 1_555
O3 C6 1_555 1_555
O4 C8 1_555 1_555
O5 C5 1_555 1_555
O6 C13 1_555 1_555
C1 H3 1_555 1_555
C2 C5 1_555 1_555
C3 O1 1_555 1_555
H4 C3 1_555 1_555
C4 C1 1_555 1_555
H5 C4 1_555 1_555
H6 C4 1_555 1_555
C5 C7 1_555 1_555
C6 H7 1_555 1_555
H8 C6 1_555 1_555
C7 C1 1_555 1_555
H9 C7 1_555 1_555
C8 C2 1_555 1_555
C9 O3 1_555 1_555
C10 H10 1_555 1_555
C11 C8 1_555 1_555
H11 C11 1_555 1_555
C12 C2 1_555 1_555
C13 C10 1_555 1_555
C14 O2 1_555 1_555
H12 C14 1_555 1_555
H13 C14 1_555 1_555
H14 C14 1_555 1_555
C15 C9 1_555 1_555
H15 C15 1_555 1_555
H16 C15 1_555 1_555
H17 C15 1_555 1_555
C16 O6 1_555 1_555
H18 C16 1_555 1_555
H19 C16 1_555 1_555
H20 C16 1_555 1_555
C1 C3 1_555 1_555
C3 C12 1_555 1_555
C4 C9 1_555 1_555
C6 C7 1_555 1_555
C10 C12 1_555 1_555
C11 C13 1_555 1_555

#END
