
#######################################################################
#
#                 Cambridge Crystallographic Data Centre
#                                CCDC 
#
#######################################################################
#
# If this CIF has been generated from an entry in the Cambridge 
# Structural Database, then it will include bibliographic, chemical, 
# crystal, experimental, refinement or atomic coordinate data resulting 
# from the CCDC's data processing and validation procedures.
#
#######################################################################

data_EWIQAD
_chemical_formula_moiety         'C17 H16 O1'
_chemical_name_systematic        4-Ethyl-2-phenyl-2H-chromene
_symmetry_cell_setting           orthorhombic
_symmetry_space_group_name_H-M   'P 21 21 21'
_symmetry_Int_Tables_number      19
_space_group_name_Hall           'P 2ac 2ab'
loop_
_symmetry_equiv_pos_site_id
_symmetry_equiv_pos_as_xyz
1 x,y,z
2 1/2-x,-y,1/2+z
3 1/2+x,1/2-y,-z
4 -x,1/2+y,1/2-z
_cell_length_a                   5.7947(2)
_cell_length_b                   8.2165(3)
_cell_length_c                   26.4454(11)
_cell_angle_alpha                90
_cell_angle_beta                 90
_cell_angle_gamma                90
_cell_volume                     1259.12
_cell_formula_units_Z            4
loop_
_atom_site_label
_atom_site_type_symbol
_atom_site_fract_x
_atom_site_fract_y
_atom_site_fract_z
O1 O 0.45384(13) 0.21632(10) 0.12122(3)
C1 C 0.07290(17) 0.12020(13) 0.06175(4)
C2 C -0.1052(2) -0.08036(14) -0.00135(5)
C3 C 0.1085(2) 0.58258(13) 0.13574(4)
C4 C 0.4554(2) -0.18467(14) 0.24150(5)
C5 C 0.2867(2) 0.47064(14) 0.14069(4)
C6 C 0.27028(18) 0.32115(14) 0.11664(4)
C7 C -0.0822(2) 0.54647(14) 0.10622(4)
C8 C -0.1053(2) 0.08975(13) 0.02138(4)
C9 C 0.07778(18) 0.28154(13) 0.08640(4)
C10 C 0.50508(19) -0.12335(13) 0.19357(5)
C11 C 0.0881(2) -0.04926(14) 0.23953(4)
C12 C 0.2473(2) -0.14570(15) 0.26456(5)
C13 C 0.13577(19) 0.00881(12) 0.19134(4)
C14 C -0.09620(18) 0.39793(13) 0.08156(4)
C15 C 0.22900(18) 0.00931(13) 0.07646(4)
C16 C 0.40608(19) 0.04331(13) 0.11662(4)
C17 C 0.34614(17) -0.02608(12) 0.16827(4)
H1 H 0.560(2) -0.0033(16) 0.1075(5)
H2 H -0.054(3) -0.0217(17) 0.2551(6)
H3 H 0.425(2) 0.4936(16) 0.1619(5)
H4 H -0.232(2) 0.3719(17) 0.0618(5)
H5 H 0.563(2) -0.2545(19) 0.2581(6)
H6 H 0.024(2) 0.0729(17) 0.1734(6)
H7 H 0.122(3) 0.685(2) 0.1534(6)
H8 H -0.211(3) 0.623(2) 0.1027(6)
H9 H 0.653(3) -0.1460(16) 0.1775(5)
H10 H -0.224(3) -0.089(2) -0.0265(6)
H11 H 0.216(2) -0.1830(18) 0.2978(6)
H12 H 0.046(3) -0.106(2) -0.0175(7)
H13 H -0.258(2) 0.1133(16) 0.0348(5)
H14 H -0.079(2) 0.1686(17) -0.0047(5)
H15 H 0.232(2) -0.0986(19) 0.0619(5)
H16 H -0.139(3) -0.1614(19) 0.0246(6)
loop_
_geom_bond_atom_site_label_1
_geom_bond_atom_site_label_2
_geom_bond_site_symmetry_1
_geom_bond_site_symmetry_2
O1 C6 1_555 1_555
C1 C8 1_555 1_555
C2 C8 1_555 1_555
C3 C5 1_555 1_555
C4 C10 1_555 1_555
C5 C6 1_555 1_555
C6 C9 1_555 1_555
C7 C3 1_555 1_555
C8 H13 1_555 1_555
C9 C1 1_555 1_555
C10 C17 1_555 1_555
C11 C12 1_555 1_555
C12 C4 1_555 1_555
C13 C11 1_555 1_555
C14 C7 1_555 1_555
C15 C1 1_555 1_555
C16 O1 1_555 1_555
C17 C13 1_555 1_555
H1 C16 1_555 1_555
H2 C11 1_555 1_555
H3 C5 1_555 1_555
H4 C14 1_555 1_555
H5 C4 1_555 1_555
H6 C13 1_555 1_555
H7 C3 1_555 1_555
H8 C7 1_555 1_555
H9 C10 1_555 1_555
H10 C2 1_555 1_555
H11 C12 1_555 1_555
H12 C2 1_555 1_555
H14 C8 1_555 1_555
H15 C15 1_555 1_555
H16 C2 1_555 1_555
C9 C14 1_555 1_555
C15 C16 1_555 1_555
C16 C17 1_555 1_555

#END
