
#######################################################################
#
#                 Cambridge Crystallographic Data Centre
#                                CCDC 
#
#######################################################################
#
# If this CIF has been generated from an entry in the Cambridge 
# Structural Database, then it will include bibliographic, chemical, 
# crystal, experimental, refinement or atomic coordinate data resulting 
# from the CCDC's data processing and validation procedures.
#
#######################################################################

data_EWIREJ
_chemical_compound_source        
'isolated from the extract of the endolichenic fungus Floricola striata'
_chemical_name_common            'Floricolin I'
_chemical_formula_moiety         'C19 H14 O6'
_chemical_name_systematic        
8,9b-dihydroxy-4a-methoxy-3-phenyl-4a,9b-dihydrodibenzo[b,d]furan-1,4-dione
_symmetry_cell_setting           monoclinic
_symmetry_space_group_name_H-M   'P 21/c'
_symmetry_Int_Tables_number      14
_space_group_name_Hall           '-P 2ybc'
loop_
_symmetry_equiv_pos_site_id
_symmetry_equiv_pos_as_xyz
1 x,y,z
2 -x,1/2+y,1/2-z
3 -x,-y,-z
4 x,1/2-y,1/2+z
_cell_length_a                   17.1992(14)
_cell_length_b                   11.1810(10)
_cell_length_c                   8.2334(7)
_cell_angle_alpha                90
_cell_angle_beta                 98.336(4)
_cell_angle_gamma                90
_cell_volume                     1566.59
_exptl_crystal_colour            yellow
_exptl_crystal_description       block
_chemical_melting_point          '184-186 deg.C'
_cell_formula_units_Z            4
_exptl_crystal_recrystallization_method methanol
loop_
_atom_site_label
_atom_site_type_symbol
_atom_site_fract_x
_atom_site_fract_y
_atom_site_fract_z
O1 O 0.36094(8) 0.38313(12) 0.51736(17)
H1 H 0.3654(14) 0.3254(18) 0.588(2)
O2 O 0.29460(8) 0.54025(12) 0.84818(16)
O3 O 0.60038(8) 0.66571(13) 0.81648(19)
H2 H 0.6146(7) 0.638(2) 0.723(3)
O4 O 0.27114(8) 0.34921(12) 0.74113(18)
O5 O 0.34501(10) 0.57628(15) 0.33095(19)
O6 O 0.13516(10) 0.45849(16) 0.5997(2)
C1 C 0.33855(11) 0.48791(17) 0.5913(2)
C2 C 0.40188(12) 0.54655(16) 0.7124(2)
C3 C 0.37303(12) 0.57338(17) 0.8537(2)
C4 C 0.27285(12) 0.46900(17) 0.7030(2)
C5 C 0.47803(12) 0.57665(16) 0.6946(2)
H3 H 0.4979 0.5602 0.5978
C6 C 0.52400(12) 0.63216(17) 0.8253(2)
C7 C 0.31439(12) 0.57813(18) 0.4542(3)
C8 C 0.25682(12) 0.66949(18) 0.4831(2)
H4 H 0.2615 0.7461 0.4418
C9 C 0.41749(13) 0.62886(17) 0.9850(2)
H5 H 0.3969 0.6464 1.0807
C10 C 0.49399(13) 0.65722(17) 0.9678(2)
H6 H 0.5259 0.6940 1.0543
C11 C 0.19785(13) 0.64563(18) 0.5673(3)
C12 C 0.19396(13) 0.5191(2) 0.6233(3)
C13 C 0.13741(13) 0.7333(2) 0.5981(3)
C14 C 0.22738(15) 0.3171(2) 0.8701(3)
H7 H 0.1768 0.3552 0.8517
H8 H 0.2554 0.3428 0.9736
H9 H 0.2206 0.2319 0.8712
C15 C 0.15486(17) 0.8538(2) 0.6015(3)
H10 H 0.2037 0.8793 0.5793
C16 C 0.06406(18) 0.6989(3) 0.6299(4)
H11 H 0.0508 0.6182 0.6269
C17 C 0.1006(2) 0.9365(3) 0.6377(4)
H12 H 0.1129 1.0175 0.6404
C18 C 0.0285(3) 0.8994(5) 0.6696(5)
H13 H -0.0083 0.9552 0.6939
C19 C 0.0108(2) 0.7815(5) 0.6658(6)
H14 H -0.0382 0.7566 0.6878
loop_
_geom_bond_atom_site_label_1
_geom_bond_atom_site_label_2
_geom_bond_site_symmetry_1
_geom_bond_site_symmetry_2
O1 H1 1_555 1_555
O2 C3 1_555 1_555
O3 H2 1_555 1_555
O4 C4 1_555 1_555
O5 C7 1_555 1_555
O6 C12 1_555 1_555
C1 O1 1_555 1_555
C2 C1 1_555 1_555
C3 C2 1_555 1_555
C4 O2 1_555 1_555
C5 C2 1_555 1_555
H3 C5 1_555 1_555
C6 O3 1_555 1_555
C7 C1 1_555 1_555
C8 C7 1_555 1_555
H4 C8 1_555 1_555
C9 C3 1_555 1_555
H5 C9 1_555 1_555
C10 C6 1_555 1_555
H6 C10 1_555 1_555
C11 C8 1_555 1_555
C12 C4 1_555 1_555
C13 C11 1_555 1_555
C14 O4 1_555 1_555
H7 C14 1_555 1_555
H8 C14 1_555 1_555
H9 C14 1_555 1_555
C15 C13 1_555 1_555
H10 C15 1_555 1_555
C16 C13 1_555 1_555
H11 C16 1_555 1_555
C17 C15 1_555 1_555
H12 C17 1_555 1_555
C18 C17 1_555 1_555
H13 C18 1_555 1_555
C19 C16 1_555 1_555
H14 C19 1_555 1_555
C1 C4 1_555 1_555
C5 C6 1_555 1_555
C9 C10 1_555 1_555
C11 C12 1_555 1_555
C18 C19 1_555 1_555

#END
