
#######################################################################
#
#                 Cambridge Crystallographic Data Centre
#                                CCDC 
#
#######################################################################
#
# If this CIF has been generated from an entry in the Cambridge 
# Structural Database, then it will include bibliographic, chemical, 
# crystal, experimental, refinement or atomic coordinate data resulting 
# from the CCDC's data processing and validation procedures.
#
#######################################################################

data_EWISIM
_chemical_formula_moiety         'C25 H20 O2'
_chemical_name_systematic        
"\a,\a-Diphenyl-2-(2'-hydroxyphenyl)benzyl alcohol"
_symmetry_cell_setting           monoclinic
_symmetry_space_group_name_H-M   'C 2/c'
_symmetry_Int_Tables_number      15
_space_group_name_Hall           '-C 2yn'
loop_
_symmetry_equiv_pos_site_id
_symmetry_equiv_pos_as_xyz
1 x,y,z
2 1/2+x,1/2+y,z
3 x,-y,1/2+z
4 1/2+x,1/2-y,1/2+z
5 -x,-y,-z
6 1/2-x,1/2-y,-z
7 -x,y,1/2-z
8 1/2-x,1/2+y,1/2-z
_cell_length_a                   22.929(4)
_cell_length_b                   13.038(2)
_cell_length_c                   12.446(3)
_cell_angle_alpha                90
_cell_angle_beta                 96.378(1)
_cell_angle_gamma                90
_cell_volume                     3697.68
_exptl_crystal_colour            colorless
_exptl_crystal_description       block
_chemical_melting_point          '376-378 K'
_cell_formula_units_Z            8
_exptl_crystal_recrystallization_method hexanes/dichloromethane/acetone
loop_
_atom_site_label
_atom_site_type_symbol
_atom_site_fract_x
_atom_site_fract_y
_atom_site_fract_z
O1 O 0.19469(7) 0.81611(13) 0.08306(13)
H1 H 0.1907(11) 0.7657(19) 0.040(2)
O2 O 0.19313(7) 0.64581(13) -0.04764(14)
H2 H 0.2311(12) 0.634(2) -0.059(2)
C1 C 0.13903(9) 0.83538(18) 0.12546(18)
C2 C 0.08848(10) 0.79863(18) 0.04058(18)
C3 C 0.08178(10) 0.69314(19) 0.01301(18)
C4 C 0.03533(11) 0.6641(2) -0.0638(2)
H3 H 0.0321(11) 0.590(2) -0.082(2)
C5 C -0.00422(11) 0.7350(2) -0.1121(2)
H4 H -0.0365(12) 0.714(2) -0.164(2)
C6 C 0.00158(11) 0.8371(2) -0.0844(2)
H5 H -0.0257(11) 0.889(2) -0.118(2)
C7 C 0.04724(10) 0.8685(2) -0.0085(2)
H6 H 0.0511(10) 0.943(2) 0.0125(19)
C8 C 0.11954(10) 0.60851(18) 0.06564(19)
C9 C 0.17518(10) 0.58717(19) 0.0359(2)
C10 C 0.21093(11) 0.5134(2) 0.0900(2)
H7 H 0.2506(11) 0.5016(19) 0.0681(19)
C11 C 0.19057(12) 0.4575(2) 0.1728(2)
H8 H 0.2151(11) 0.406(2) 0.209(2)
C12 C 0.13418(12) 0.4729(2) 0.1995(2)
H9 H 0.1200(11) 0.433(2) 0.258(2)
C13 C 0.09888(11) 0.54755(19) 0.1458(2)
H10 H 0.0582(11) 0.5601(18) 0.1693(19)
C14 C 0.14045(9) 0.95211(18) 0.14482(19)
C15 C 0.15471(10) 1.0155(2) 0.0607(2)
H11 H 0.1612(10) 0.9810(19) -0.011(2)
C16 C 0.16079(11) 1.1204(2) 0.0749(3)
H12 H 0.1710(11) 1.161(2) 0.015(2)
C17 C 0.15267(11) 1.1651(2) 0.1733(3)
H13 H 0.1575(11) 1.241(2) 0.183(2)
C18 C 0.13789(11) 1.1038(2) 0.2566(2)
H14 H 0.1306(11) 1.136(2) 0.328(2)
C19 C 0.13167(11) 0.9976(2) 0.2424(2)
H15 H 0.1206(10) 0.9565(19) 0.305(2)
C20 C 0.13556(9) 0.77606(17) 0.23038(18)
C21 C 0.08151(10) 0.77052(18) 0.27248(19)
H16 H 0.0463(10) 0.8082(18) 0.2345(18)
C22 C 0.07502(11) 0.71366(19) 0.36465(19)
H17 H 0.0355(11) 0.7109(18) 0.3926(19)
C23 C 0.12283(11) 0.66093(19) 0.4166(2)
H18 H 0.1177(10) 0.6191(19) 0.486(2)
C24 C 0.17689(11) 0.66788(19) 0.37663(19)
H19 H 0.2119(11) 0.6294(19) 0.4131(19)
C25 C 0.18371(11) 0.72554(18) 0.28489(19)
H20 H 0.2217(10) 0.7278(18) 0.2539(18)
loop_
_geom_bond_atom_site_label_1
_geom_bond_atom_site_label_2
_geom_bond_site_symmetry_1
_geom_bond_site_symmetry_2
O1 H1 1_555 1_555
O2 H2 1_555 1_555
C1 O1 1_555 1_555
C2 C1 1_555 1_555
C3 C2 1_555 1_555
C4 C3 1_555 1_555
H3 C4 1_555 1_555
C5 C4 1_555 1_555
H4 C5 1_555 1_555
C6 C5 1_555 1_555
H5 C6 1_555 1_555
C7 C2 1_555 1_555
H6 C7 1_555 1_555
C8 C3 1_555 1_555
C9 O2 1_555 1_555
C10 C9 1_555 1_555
H7 C10 1_555 1_555
C11 C10 1_555 1_555
H8 C11 1_555 1_555
C12 C11 1_555 1_555
H9 C12 1_555 1_555
C13 C8 1_555 1_555
H10 C13 1_555 1_555
C14 C1 1_555 1_555
C15 C14 1_555 1_555
H11 C15 1_555 1_555
C16 C15 1_555 1_555
H12 C16 1_555 1_555
C17 C16 1_555 1_555
H13 C17 1_555 1_555
C18 C17 1_555 1_555
H14 C18 1_555 1_555
C19 C14 1_555 1_555
H15 C19 1_555 1_555
C20 C1 1_555 1_555
C21 C20 1_555 1_555
H16 C21 1_555 1_555
C22 C21 1_555 1_555
H17 C22 1_555 1_555
C23 C22 1_555 1_555
H18 C23 1_555 1_555
C24 C23 1_555 1_555
H19 C24 1_555 1_555
C25 C20 1_555 1_555
H20 C25 1_555 1_555
C6 C7 1_555 1_555
C8 C9 1_555 1_555
C12 C13 1_555 1_555
C18 C19 1_555 1_555
C24 C25 1_555 1_555

#END
