
#######################################################################
#
#                 Cambridge Crystallographic Data Centre
#                                CCDC 
#
#######################################################################
#
# If this CIF has been generated from an entry in the Cambridge 
# Structural Database, then it will include bibliographic, chemical, 
# crystal, experimental, refinement or atomic coordinate data resulting 
# from the CCDC's data processing and validation procedures.
#
#######################################################################

data_EWISOU
_chemical_formula_moiety         'C32 H21 N1 O2,C1 H4 O1'
_chemical_name_systematic        
'4,5,6,7-tetraphenyl-1H-isoindole-1,3(2H)-dione methanol solvate'
_symmetry_cell_setting           monoclinic
_symmetry_space_group_name_H-M   'P 21/n'
_symmetry_Int_Tables_number      14
_space_group_name_Hall           '-P 2yn'
loop_
_symmetry_equiv_pos_site_id
_symmetry_equiv_pos_as_xyz
1 x,y,z
2 1/2-x,1/2+y,1/2-z
3 -x,-y,-z
4 1/2+x,1/2-y,1/2+z
_cell_length_a                   10.6343(6)
_cell_length_b                   10.1580(6)
_cell_length_c                   23.8516(14)
_cell_angle_alpha                90
_cell_angle_beta                 100.728(2)
_cell_angle_gamma                90
_cell_volume                     2531.49
_exptl_crystal_colour            colorless
_exptl_crystal_description       prism
_cell_formula_units_Z            4
loop_
_atom_site_label
_atom_site_type_symbol
_atom_site_fract_x
_atom_site_fract_y
_atom_site_fract_z
O1 O 0.21022(13) 0.48455(13) 0.55390(5)
O2 O 0.33454(13) 0.28595(15) 0.40176(5)
N1 N 0.24608(15) 0.39292(16) 0.47007(6)
H1 H 0.1718 0.4126 0.4486
C1 C 0.64775(19) 0.0296(2) 0.36306(8)
H2 H 0.6599 -0.0205 0.3309
C2 C 0.6376(2) -0.0328(2) 0.41363(8)
H3 H 0.6447 -0.1260 0.4163
C3 C 0.61737(19) 0.03952(18) 0.46032(8)
H4 H 0.6128 -0.0040 0.4951
C4 C 0.60357(17) 0.17587(18) 0.45648(7)
C5 C 0.56852(18) 0.25084(17) 0.50527(7)
C6 C 0.45155(17) 0.31498(17) 0.50023(7)
C7 C 0.41075(17) 0.37248(17) 0.54699(7)
C8 C 0.48520(18) 0.37014(17) 0.60155(7)
C9 C 0.43754(18) 0.41820(18) 0.65322(7)
C10 C 0.50462(19) 0.51424(18) 0.68860(7)
H5 H 0.5758 0.5569 0.6777
C11 C 0.4681(2) 0.5479(2) 0.73974(8)
H6 H 0.5140 0.6135 0.7636
C12 C 0.3648(2) 0.4858(2) 0.75585(8)
H7 H 0.3410 0.5072 0.7912
C13 C 0.61709(18) 0.23824(19) 0.40609(7)
H8 H 0.6106 0.3314 0.4033
C14 C 0.64012(19) 0.1653(2) 0.35966(8)
H9 H 0.6506 0.2089 0.3256
C15 C 0.64791(18) 0.25126(17) 0.56008(7)
C16 C 0.77342(18) 0.18121(19) 0.56814(7)
C17 C 0.87091(19) 0.2249(2) 0.54113(8)
H10 H 0.8592 0.3023 0.5184
C18 C 0.9854(2) 0.1555(2) 0.54736(10)
H11 H 1.0523 0.1862 0.5293
C19 C 1.0019(2) 0.0419(3) 0.57987(10)
H12 H 1.0798 -0.0061 0.5837
C20 C 0.9056(2) -0.0019(2) 0.60676(9)
H13 H 0.9173 -0.0799 0.6290
C21 C 0.7922(2) 0.0674(2) 0.60142(8)
H14 H 0.7267 0.0374 0.6205
C22 C 0.60735(17) 0.31027(17) 0.60714(7)
C23 C 0.69254(18) 0.30928(18) 0.66464(7)
C24 C 0.80352(18) 0.38520(18) 0.67481(8)
H15 H 0.8306 0.4298 0.6441
C25 C 0.87477(19) 0.39584(19) 0.72982(8)
H16 H 0.9499 0.4485 0.7366
C26 C 0.83647(19) 0.3299(2) 0.77468(8)
H17 H 0.8837 0.3396 0.8124
C27 C 0.72924(19) 0.2497(2) 0.76440(8)
H18 H 0.7047 0.2019 0.7948
C28 C 0.65777(18) 0.23929(19) 0.70967(8)
H19 H 0.5845 0.1840 0.7028
C29 C 0.27867(18) 0.42511(18) 0.52701(8)
C30 C 0.34283(18) 0.32607(18) 0.44999(7)
C31 C 0.2958(2) 0.3925(2) 0.72045(8)
H20 H 0.2238 0.3512 0.7313
C32 C 0.33156(19) 0.3591(2) 0.66908(8)
H21 H 0.2834 0.2957 0.6448
O3 O -0.00467(14) 0.56257(17) 0.59528(6)
H22 H 0.0516 0.5296 0.5791
C33 C 0.0536(2) 0.6499(2) 0.63863(10)
H23 H 0.0903 0.7247 0.6213
H24 H 0.1215 0.6037 0.6646
H25 H -0.0107 0.6818 0.6599
loop_
_geom_bond_atom_site_label_1
_geom_bond_atom_site_label_2
_geom_bond_site_symmetry_1
_geom_bond_site_symmetry_2
O1 C29 1_555 1_555
O2 C30 1_555 1_555
N1 H1 1_555 1_555
C1 H2 1_555 1_555
C2 C1 1_555 1_555
H3 C2 1_555 1_555
C3 C2 1_555 1_555
H4 C3 1_555 1_555
C4 C3 1_555 1_555
C5 C4 1_555 1_555
C6 C5 1_555 1_555
C7 C6 1_555 1_555
C8 C7 1_555 1_555
C9 C8 1_555 1_555
C10 C9 1_555 1_555
H5 C10 1_555 1_555
C11 C10 1_555 1_555
H6 C11 1_555 1_555
C12 C11 1_555 1_555
H7 C12 1_555 1_555
C13 C4 1_555 1_555
H8 C13 1_555 1_555
C14 C1 1_555 1_555
H9 C14 1_555 1_555
C15 C5 1_555 1_555
C16 C15 1_555 1_555
C17 C16 1_555 1_555
H10 C17 1_555 1_555
C18 C17 1_555 1_555
H11 C18 1_555 1_555
C19 C18 1_555 1_555
H12 C19 1_555 1_555
C20 C19 1_555 1_555
H13 C20 1_555 1_555
C21 C16 1_555 1_555
H14 C21 1_555 1_555
C22 C8 1_555 1_555
C23 C22 1_555 1_555
C24 C23 1_555 1_555
H15 C24 1_555 1_555
C25 C24 1_555 1_555
H16 C25 1_555 1_555
C26 C25 1_555 1_555
H17 C26 1_555 1_555
C27 C26 1_555 1_555
H18 C27 1_555 1_555
C28 C23 1_555 1_555
H19 C28 1_555 1_555
C29 N1 1_555 1_555
C30 N1 1_555 1_555
C31 C12 1_555 1_555
H20 C31 1_555 1_555
C32 C9 1_555 1_555
H21 C32 1_555 1_555
O3 H22 1_555 1_555
C33 O3 1_555 1_555
H23 C33 1_555 1_555
H24 C33 1_555 1_555
H25 C33 1_555 1_555
C6 C30 1_555 1_555
C7 C29 1_555 1_555
C13 C14 1_555 1_555
C15 C22 1_555 1_555
C20 C21 1_555 1_555
C27 C28 1_555 1_555
C31 C32 1_555 1_555

#END
