
#######################################################################
#
#                 Cambridge Crystallographic Data Centre
#                                CCDC 
#
#######################################################################
#
# If this CIF has been generated from an entry in the Cambridge 
# Structural Database, then it will include bibliographic, chemical, 
# crystal, experimental, refinement or atomic coordinate data resulting 
# from the CCDC's data processing and validation procedures.
#
#######################################################################

data_EWITEL
_chemical_compound_source        'endolichenic fungus Biatriospora sp. (8331C).'
_chemical_name_common            'biatriosporin B'
_chemical_formula_moiety         'C14 H18 O5'
_chemical_name_systematic        
(3R,4S)-4,8-dihydroxy-3-((S)-2-hydroxypropyl)-6-methoxy-3,4-dihydronaphthalen-1(2H)-one
_symmetry_cell_setting           orthorhombic
_symmetry_space_group_name_H-M   'P 21 21 21'
_symmetry_Int_Tables_number      19
_space_group_name_Hall           'P 2ac 2ab'
loop_
_symmetry_equiv_pos_site_id
_symmetry_equiv_pos_as_xyz
1 x,y,z
2 1/2-x,-y,1/2+z
3 -x,1/2+y,1/2-z
4 1/2+x,1/2-y,-z
_cell_length_a                   4.7381(3)
_cell_length_b                   10.7346(5)
_cell_length_c                   25.8999(15)
_cell_angle_alpha                90
_cell_angle_beta                 90
_cell_angle_gamma                90
_cell_volume                     1317.31
_chemical_melting_point          '154-155 deg.C'
_cell_formula_units_Z            4
loop_
_atom_site_label
_atom_site_type_symbol
_atom_site_fract_x
_atom_site_fract_y
_atom_site_fract_z
O1 O 0.1941(4) 0.55179(12) 0.31133(7)
H1 H 0.360(8) 0.5802(16) 0.3104(12)
H2 H 0.734(10) 0.110(4) 0.4165(18)
O2 O 0.3064(4) 0.17919(15) 0.18976(7)
O3 O 0.7010(5) 0.59910(17) 0.47454(7)
O4 O 0.5286(5) 0.07858(15) 0.36408(8)
O5 O 0.8120(5) 0.16702(18) 0.43938(8)
C1 C 0.2000(4) 0.42681(17) 0.32911(8)
H3 H 0.0085 0.4062 0.3406
C2 C 0.3928(4) 0.41044(18) 0.37521(8)
C3 C 0.5088(5) 0.29081(19) 0.38592(9)
C4 C 0.2751(4) 0.33566(17) 0.28579(8)
H4 H 0.4727 0.3501 0.2763
C5 C 0.2354(4) 0.30859(19) 0.18758(9)
H5 H 0.4121 0.3551 0.1838
C6 C 0.4615(5) 0.5084(2) 0.40624(9)
H6 H 0.3826 0.5863 0.3999
C7 C 0.4388(5) 0.1843(2) 0.35434(9)
C8 C 0.6494(5) 0.4934(2) 0.44757(9)
C9 C 0.6960(6) 0.2786(2) 0.42806(9)
C10 C 0.0970(5) 0.35196(19) 0.23714(9)
H7 H -0.0782 0.3065 0.2416
H8 H 0.0497 0.4395 0.2336
C11 C 0.7690(6) 0.3795(2) 0.45836(9)
H9 H 0.8963 0.3707 0.4855
C12 C 0.2537(5) 0.20388(19) 0.30838(10)
H10 H 0.0594 0.1880 0.3182
H11 H 0.3046 0.1441 0.2819
C13 C 0.0580(6) 0.3346(2) 0.14009(10)
H12 H 0.1597 0.3094 0.1098
H13 H 0.0176 0.4221 0.1382
H14 H -0.1155 0.2888 0.1422
C14 C 0.8926(9) 0.5921(3) 0.51766(12)
H15 H 1.0739 0.5641 0.5059
H16 H 0.8203 0.5345 0.5427
H17 H 0.9113 0.6730 0.5331
H18 H 0.151(8) 0.143(3) 0.1897(12)
loop_
_geom_bond_atom_site_label_1
_geom_bond_atom_site_label_2
_geom_bond_site_symmetry_1
_geom_bond_site_symmetry_2
O1 H1 1_555 1_555
H2 O5 1_555 1_555
O2 C5 1_555 1_555
O3 C8 1_555 1_555
O4 C7 1_555 1_555
O5 C9 1_555 1_555
C1 O1 1_555 1_555
H3 C1 1_555 1_555
C2 C1 1_555 1_555
C3 C2 1_555 1_555
C4 C1 1_555 1_555
H4 C4 1_555 1_555
C5 H5 1_555 1_555
C6 C2 1_555 1_555
H6 C6 1_555 1_555
C7 C3 1_555 1_555
C8 C6 1_555 1_555
C9 C3 1_555 1_555
C10 C4 1_555 1_555
H7 C10 1_555 1_555
H8 C10 1_555 1_555
C11 C8 1_555 1_555
H9 C11 1_555 1_555
C12 C4 1_555 1_555
H10 C12 1_555 1_555
H11 C12 1_555 1_555
C13 C5 1_555 1_555
H12 C13 1_555 1_555
H13 C13 1_555 1_555
H14 C13 1_555 1_555
C14 O3 1_555 1_555
H15 C14 1_555 1_555
H16 C14 1_555 1_555
H17 C14 1_555 1_555
H18 O2 1_555 1_555
C5 C10 1_555 1_555
C7 C12 1_555 1_555
C9 C11 1_555 1_555

#END
