
#######################################################################
#
#                 Cambridge Crystallographic Data Centre
#                                CCDC 
#
#######################################################################
#
# If this CIF has been generated from an entry in the Cambridge 
# Structural Database, then it will include bibliographic, chemical, 
# crystal, experimental, refinement or atomic coordinate data resulting 
# from the CCDC's data processing and validation procedures.
#
#######################################################################

data_EWITOV
_chemical_compound_source        'endophytic fungus Periconia sp. F-31.'
_chemical_name_common            'Periconianone C'
_chemical_formula_moiety         'C15 H20 O4'
_chemical_name_systematic        
3a,9a-dihydroxy-3,8,8a-trimethyl-3,3a,8,8a,9,9a-hexahydronaphtho[2,3-b]furan-7(2H)-one
_symmetry_cell_setting           orthorhombic
_symmetry_space_group_name_H-M   'P 21 21 21'
_symmetry_Int_Tables_number      19
_space_group_name_Hall           'P 2ac 2ab'
loop_
_symmetry_equiv_pos_site_id
_symmetry_equiv_pos_as_xyz
1 x,y,z
2 1/2-x,-y,1/2+z
3 1/2+x,1/2-y,-z
4 -x,1/2+y,1/2-z
_cell_length_a                   7.416(3)
_cell_length_b                   10.200(5)
_cell_length_c                   18.519(11)
_cell_angle_alpha                90
_cell_angle_beta                 90
_cell_angle_gamma                90
_cell_volume                     1400.84
_exptl_crystal_colour            colorless
_exptl_crystal_description       Prism
_cell_formula_units_Z            4
_exptl_crystal_recrystallization_method cyclohexane/acetone
loop_
_atom_site_label
_atom_site_type_symbol
_atom_site_fract_x
_atom_site_fract_y
_atom_site_fract_z
C1 C -0.1299(2) -0.34992(14) -1.15734(8)
C2 C -0.4648(2) -0.32643(14) -1.07744(8)
C3 C -0.3239(2) -0.43069(14) -1.05567(7)
C4 C -0.2723(2) -0.25841(13) -1.18719(8)
C5 C -0.4597(2) -0.29461(15) -1.15745(8)
H1 H -0.5412 -0.2221 -1.1666
H2 H -0.5045 -0.3698 -1.1840
C6 C -0.1548(2) -0.42391(14) -1.09881(8)
H3 H -0.0586 -0.4755 -1.0837
C7 C -0.4315(2) -0.55776(15) -1.06510(8)
H4 H -0.4422 -0.5752 -1.1170
C8 C -0.6154(2) -0.51615(17) -1.03759(10)
H5 H -0.7091 -0.5715 -1.0577
H6 H -0.6203 -0.5216 -0.9853
C9 C -0.2704(3) -0.26927(19) -1.27041(9)
H7 H -0.3528 -0.2032 -1.2900
C10 C -0.0829(3) -0.24255(16) -1.29985(9)
C11 C 0.0427(2) -0.35159(17) -1.19470(10)
H8 H 0.1402 -0.3919 -1.1722
C12 C 0.0677(3) -0.29822(17) -1.25951(10)
H9 H 0.1829 -0.2964 -1.2794
C13 C -0.2217(3) -0.11699(15) -1.16674(12)
H10 H -0.2143 -0.1095 -1.1151
H11 H -0.3120 -0.0579 -1.1846
H12 H -0.1071 -0.0952 -1.1877
C14 C -0.3519(3) -0.67926(18) -1.02955(12)
H13 H -0.2324 -0.6940 -1.0478
H14 H -0.4262 -0.7538 -1.0402
H15 H -0.3468 -0.6665 -0.9782
C15 C -0.3264(4) -0.4042(3) -1.29992(12)
H16 H -0.2640 -0.4717 -1.2739
H17 H -0.2961 -0.4096 -1.3502
H18 H -0.4541 -0.4154 -1.2941
O1 O -0.28521(16) -0.41565(12) -0.98055(5)
H19 H -0.1879 -0.3785 -0.9757
O2 O -0.63753(15) -0.38278(12) -1.06114(7)
O3 O -0.44573(17) -0.20971(11) -1.03805(6)
H20 H -0.3895 -0.2244 -1.0008
O4 O -0.0601(2) -0.18411(16) -1.35630(7)
loop_
_geom_bond_atom_site_label_1
_geom_bond_atom_site_label_2
_geom_bond_site_symmetry_1
_geom_bond_site_symmetry_2
C1 C4 1_555 1_555
C2 C3 1_555 1_555
C3 C6 1_555 1_555
C4 C5 1_555 1_555
C5 C2 1_555 1_555
H1 C5 1_555 1_555
H2 C5 1_555 1_555
C6 C1 1_555 1_555
H3 C6 1_555 1_555
C7 C3 1_555 1_555
H4 C7 1_555 1_555
C8 C7 1_555 1_555
H5 C8 1_555 1_555
H6 C8 1_555 1_555
C9 C4 1_555 1_555
H7 C9 1_555 1_555
C10 C9 1_555 1_555
C11 C1 1_555 1_555
H8 C11 1_555 1_555
C12 C10 1_555 1_555
H9 C12 1_555 1_555
C13 C4 1_555 1_555
H10 C13 1_555 1_555
H11 C13 1_555 1_555
H12 C13 1_555 1_555
C14 C7 1_555 1_555
H13 C14 1_555 1_555
H14 C14 1_555 1_555
H15 C14 1_555 1_555
C15 C9 1_555 1_555
H16 C15 1_555 1_555
H17 C15 1_555 1_555
H18 C15 1_555 1_555
O1 C3 1_555 1_555
H19 O1 1_555 1_555
O2 C2 1_555 1_555
O3 C2 1_555 1_555
H20 O3 1_555 1_555
O4 C10 1_555 1_555
C8 O2 1_555 1_555
C11 C12 1_555 1_555

#END
