
#######################################################################
#
#                 Cambridge Crystallographic Data Centre
#                                CCDC 
#
#######################################################################
#
# If this CIF has been generated from an entry in the Cambridge 
# Structural Database, then it will include bibliographic, chemical, 
# crystal, experimental, refinement or atomic coordinate data resulting 
# from the CCDC's data processing and validation procedures.
#
#######################################################################

data_EWIXIS
_chemical_formula_moiety         
'2(C83 H83 F4 N15 O13),C19 H22 N2 O4,4(H2 O1),6(C1 H1 Cl3),C1 H4 O1'
_chemical_name_systematic        
'bis(t-Butyl (2-((2-((2-((2-((6-(((6-((6-((2,2-dimethylpropanoyl)amino)pyridin-2-yl)carbamoyl)pyridin-2-yl)carbonyl)amino)pyridin-2-yl)carbamoyl)-8-fluoro-4-isobutoxyquinolin-7-yl)carbamoyl)-8-fluoro-4-isobutoxyquinolin-7-yl)carbamoyl)-8-fluoro-4-isobutoxyquinolin-7-yl)carbamoyl)-8-fluoro-4-isobutoxyquinolin-7-yl)carbamate) dibenzyl propane-1,3-diylbiscarbamate chloroform methanol solvate tetrahydrate'
_symmetry_cell_setting           triclinic
_symmetry_space_group_name_H-M   'P -1'
_symmetry_Int_Tables_number      2
_space_group_name_Hall           '-P 1'
loop_
_symmetry_equiv_pos_site_id
_symmetry_equiv_pos_as_xyz
1 x,y,z
2 -x,-y,-z
_cell_length_a                   19.909(4)
_cell_length_b                   21.829(4)
_cell_length_c                   25.945(5)
_cell_angle_alpha                78.12(3)
_cell_angle_beta                 84.31(3)
_cell_angle_gamma                78.30(3)
_cell_volume                     10785.4
_exptl_crystal_colour            yellow
_cell_formula_units_Z            2
loop_
_atom_site_label
_atom_site_type_symbol
_atom_site_fract_x
_atom_site_fract_y
_atom_site_fract_z
Cl1 Cl 0.64140(13) 0.49029(9) 0.37859(9)
Cl3 Cl 0.61322(16) 0.57662(10) 0.45144(11)
C83 C 0.5906(5) 0.5103(3) 0.4338(3)
H54 H 0.5990 0.4741 0.4633
Cl18 Cl 0.50375(13) 0.52625(9) 0.42219(9)
Cl2 Cl 0.67940(13) 0.71636(10) 0.48341(9)
Cl4 Cl 0.6687(2) 0.61865(12) 0.57400(13)
Cl6 Cl 0.7944(2) 0.6190(2) 0.51552(19)
C86 C 0.7214(4) 0.6670(3) 0.5366(3)
H58 H 0.7345 0.6935 0.5588
Cl5 Cl 0.83065(15) 0.00960(15) 0.17528(11)
Cl7 Cl 0.71156(19) 0.08721(15) 0.12421(12)
Cl8 Cl 0.7849(2) -0.02097(17) 0.08289(14)
C187 C 0.7770(8) 0.0279(12) 0.1239(8)
H182 H 0.8063 0.0547 0.1012
F1 F 0.40872(16) 0.99806(13) 0.33622(13)
F3 F 0.21065(16) 1.12439(14) 0.26897(12)
F4 F 0.14821(17) 0.77341(13) 0.32281(13)
F7 F 0.39882(17) 0.79683(14) 0.30216(14)
O2 O -0.0790(2) 0.83563(18) 0.35970(17)
O3 O 0.5245(2) 1.19717(16) 0.40467(15)
O4 O 0.6905(2) 0.66386(18) 0.32507(18)
O6 O 0.2635(2) 1.25850(19) 0.38077(17)
O7 O 0.1685(2) 0.57777(19) 0.18996(17)
O8 O 0.6427(2) 0.88405(18) 0.37371(19)
O13 O 0.4020(2) 0.6088(2) 0.23184(18)
N1 N 0.5328(2) 0.92481(19) 0.34956(17)
H1 H 0.4994 0.9153 0.3361
O18 O -0.0614(2) 1.2946(2) 0.2859(2)
N2 N 0.2490(2) 1.1792(2) 0.33979(18)
H2 H 0.2697 1.1430 0.3328
N3 N 0.3739(2) 1.1170(2) 0.35834(16)
N5 N 0.0131(3) 0.7788(2) 0.3285(2)
H4 H 0.0328 0.8000 0.3450
N7 N 0.5225(3) 0.8144(2) 0.32567(18)
O20 O -0.0932(2) 0.7603(2) 0.3151(2)
O22 O -0.0585(3) 1.1377(3) 0.1682(2)
N10 N 0.3762(3) 0.6879(2) 0.2793(2)
H7 H 0.3425 0.7135 0.2915
N11 N 0.2421(3) 0.6917(2) 0.2736(2)
N13 N 0.0829(3) 1.1492(2) 0.23364(19)
O27 O 0.4976(3) 0.8798(3) 0.0471(2)
N23 N 0.1110(4) 1.0140(3) 0.11446(19)
N25 N 0.0524(3) 1.0832(3) 0.1648(2)
H13 H 0.0918 1.0790 0.1774
N26 N 0.1791(4) 0.9465(2) 0.0660(2)
H14 H 0.2121 0.9562 0.0798
O28 O 0.1560(3) 0.8863(3) 0.0090(3)
O29 O 0.5034(4) 1.2190(3) 0.1008(3)
C2 C 0.4909(3) 1.1095(2) 0.38338(19)
C3 C 0.1331(3) 1.2460(3) 0.3425(2)
H15 H 0.1447 1.2667 0.3674
C4 C 0.0980(3) 1.1829(3) 0.2686(2)
C9 C 0.4577(3) 1.0230(2) 0.3550(2)
C10 C 0.5212(3) 0.9853(2) 0.3618(2)
C11 C 0.5565(3) 1.0712(3) 0.3909(2)
H19 H 0.5901 1.0874 0.4034
C13 C 0.3585(3) 1.1744(2) 0.3703(2)
C14 C 0.4726(3) 1.1727(2) 0.3926(2)
C15 C 0.1624(3) 1.1689(2) 0.2874(2)
C16 C 0.1739(3) 0.6931(3) 0.2712(2)
C17 C 0.4433(3) 0.6927(3) 0.2896(2)
C18 C 0.4538(3) 0.7485(2) 0.3015(2)
C19 C 0.1819(3) 1.1991(2) 0.3241(2)
C20 C 0.6427(3) 0.7706(3) 0.3409(2)
H21 H 0.6842 0.7770 0.3505
C22 C 0.5735(3) 0.7057(2) 0.3142(2)
C23 C 0.5837(3) 0.8184(2) 0.3394(2)
C24 C 0.0492(3) 1.2313(3) 0.2873(2)
C25 C 0.5180(3) 0.7578(2) 0.3144(2)
C27 C 0.4399(3) 1.0837(2) 0.3650(2)
N29 N 0.3183(4) 0.9018(3) 0.04153(19)
C30 C 0.6376(3) 0.7143(3) 0.3278(2)
C35 C 0.5719(3) 1.0118(2) 0.3804(2)
H23 H 0.6159 0.9879 0.3852
N30 N 0.4166(3) 0.9640(2) 0.0645(2)
H24 H 0.3730 0.9778 0.0672
N31 N 0.4265(3) 1.1668(3) 0.0833(2)
H25 H 0.3831 1.1710 0.0799
C39 C 0.0557(4) 0.7370(3) 0.2993(2)
C40 C 0.4058(3) 1.2044(3) 0.3872(2)
H27 H 0.3923 1.2451 0.3946
C41 C 0.1471(3) 0.6545(3) 0.2436(2)
C48 C 0.1254(3) 0.7346(3) 0.2974(2)
C54 C 0.0692(3) 1.2623(3) 0.3250(2)
H35 H 0.0376 1.2942 0.3377
C55 C 0.2861(3) 1.2085(3) 0.3643(2)
C56 C 0.5905(3) 0.8786(3) 0.3561(2)
N32 N 0.4269(3) 1.0631(3) 0.0766(2)
C65 C 0.5082(4) 1.2649(3) 0.4088(3)
H41 H 0.4767 1.2707 0.4391
H42 H 0.4866 1.2901 0.3774
C66 C 0.7553(4) 0.6689(3) 0.3383(3)
H43 H 0.7527 0.6773 0.3738
H44 H 0.7717 0.7037 0.3141
C67 C 0.5003(3) 0.6423(2) 0.2896(2)
H45 H 0.4949 0.6042 0.2813
C68 C 0.2846(4) 0.6510(3) 0.2480(3)
C74 C 0.5622(3) 0.6488(2) 0.3016(2)
H50 H 0.5989 0.6148 0.3016
C78 C 0.0192(3) 1.1638(3) 0.2175(2)
C91 C 0.1968(4) 0.6128(3) 0.2160(3)
C93 C -0.1870(4) 0.8832(3) 0.3188(3)
H62 H -0.1648 0.9163 0.2984
H63 H -0.2347 0.9003 0.3257
H64 H -0.1831 0.8494 0.2995
C94 C -0.1273(4) 1.3161(3) 0.2650(4)
H65 H -0.1536 1.2820 0.2728
H66 H -0.1229 1.3300 0.2271
C95 C 0.0297(4) 0.6972(3) 0.2716(3)
C96 C -0.1530(3) 0.8574(3) 0.3706(3)
C97 C -0.0165(4) 1.2466(3) 0.2675(3)
C101 C 0.5564(5) 1.3529(3) 0.4231(3)
H70 H 0.5257 1.3552 0.4539
H71 H 0.5347 1.3799 0.3929
H72 H 0.5977 1.3668 0.4280
C102 C 0.3604(4) 0.6471(3) 0.2522(3)
C105 C -0.0312(3) 1.2127(3) 0.2332(3)
H74 H -0.0746 1.2219 0.2201
C106 C 0.2651(4) 0.6114(3) 0.2188(3)
H75 H 0.2979 0.5845 0.2015
C107 C 0.0770(4) 0.6583(3) 0.2444(3)
H76 H 0.0607 0.6330 0.2255
C108 C 0.2150(4) 0.5354(3) 0.1610(3)
H77 H 0.2446 0.5036 0.1848
H78 H 0.2436 0.5591 0.1352
C114 C 0.1127(4) 0.9756(3) 0.0794(3)
C117 C 0.5738(4) 1.2856(3) 0.4145(3)
H83 H 0.5949 1.2587 0.4461
C118 C -0.0118(4) 1.0373(3) 0.1128(3)
H84 H -0.0539 1.0583 0.1250
C120 C 0.5634(4) 1.0255(4) 0.0937(3)
H85 H 0.6101 1.0125 0.0989
C121 C -0.1542(4) 0.9120(3) 0.3995(3)
H86 H -0.1349 0.9452 0.3763
H87 H -0.1278 0.8966 0.4300
H88 H -0.2008 0.9286 0.4101
C123 C -0.0573(4) 0.7885(3) 0.3330(3)
C127 C 0.0480(4) 1.0447(3) 0.1293(2)
C128 C 0.2719(4) 0.8754(3) 0.0269(3)
C129 C 0.5337(4) 1.0872(4) 0.0968(3)
H90 H 0.5579 1.1153 0.1058
C133 C 0.5287(4) 0.9825(4) 0.0836(3)
H99 H 0.5502 0.9408 0.0824
C134 C 0.1712(4) 0.5036(3) 0.1336(3)
H100 H 0.1401 0.4835 0.1604
C136 C 0.4053(5) 0.8208(3) 0.0141(3)
H104 H 0.4515 0.8023 0.0109
C137 C 0.0009(4) 1.1265(3) 0.1814(3)
C138 C 0.3836(4) 0.8767(3) 0.0353(2)
C139 C -0.1850(4) 0.8051(3) 0.4052(3)
H105 H -0.1623 0.7912 0.4377
H106 H -0.1803 0.7699 0.3874
H107 H -0.2329 0.8210 0.4126
C142 C 0.4374(5) 0.9056(4) 0.0503(3)
C144 C 0.4594(4) 1.0039(3) 0.0751(2)
C146 C -0.1636(6) 1.3725(8) 0.2918(7)
H115 H -0.1340 1.4043 0.2811
C148 C 0.0533(5) 0.9660(4) 0.0607(3)
H118 H 0.0558 0.9385 0.0372
C149 C 0.3228(4) 1.2789(4) 0.0746(3)
H119 H 0.3091 1.2654 0.1110
H120 H 0.3168 1.2480 0.0547
H121 H 0.2951 1.3194 0.0610
C151 C 0.4114(5) 1.3311(4) 0.1024(4)
H125 H 0.3964 1.3173 0.1385
H126 H 0.3861 1.3729 0.0893
H127 H 0.4595 1.3322 0.1001
C152 C 0.1966(5) 0.9038(4) 0.0329(3)
C153 C 0.3989(4) 1.2853(4) 0.0697(3)
C155 C 0.2189(5) 0.4511(3) 0.1096(3)
H128 H 0.1923 0.4303 0.0922
H129 H 0.2428 0.4206 0.1371
H130 H 0.2516 0.4694 0.0845
C156 C -0.0078(5) 0.9972(4) 0.0773(3)
H131 H -0.0479 0.9918 0.0646
C160 C 0.2868(5) 0.8216(3) 0.0047(3)
H138 H 0.2523 0.8043 -0.0054
C161 C 0.1276(6) 0.5522(4) 0.0932(4)
H139 H 0.1000 0.5308 0.0771
H140 H 0.1570 0.5727 0.0665
H141 H 0.0982 0.5835 0.1104
C162 C 0.8043(5) 0.6057(5) 0.3348(5)
H142 H 0.7828 0.5732 0.3586
C163 C 0.4216(5) 1.3067(4) 0.0109(3)
H143 H 0.4693 1.3094 0.0080
H144 H 0.3948 1.3477 -0.0026
H145 H 0.4146 1.2762 -0.0090
C165 C 0.6238(5) 1.2804(4) 0.3695(4)
H149 H 0.6344 1.2370 0.3645
H150 H 0.6649 1.2932 0.3762
H151 H 0.6047 1.3075 0.3384
C167 C 0.4639(4) 1.1048(3) 0.0853(2)
C168 C 0.3546(7) 0.7948(4) -0.0016(3)
H153 H 0.3669 0.7587 -0.0166
C172 C -0.2282(10) 1.4023(10) 0.2652(10)
H159 H -0.2175 1.4212 0.2293
H160 H -0.2538 1.4345 0.2834
H161 H -0.2552 1.3703 0.2658
C174 C 0.4469(4) 1.2191(4) 0.0857(3)
C179 C 0.8015(9) 0.5919(7) 0.2799(9)
H170 H 0.7547 0.6020 0.2701
H171 H 0.8194 0.5476 0.2801
H172 H 0.8286 0.6173 0.2550
C181 C 0.8687(3) 0.6018(3) 0.3564(3)
H174 H 0.8608 0.6102 0.3916
H175 H 0.8929 0.6328 0.3350
H176 H 0.8958 0.5599 0.3572
C193 C -0.1689(12) 1.3645(15) 0.3412(11)
H188 H -0.1244 1.3477 0.3549
H189 H -0.1992 1.3352 0.3548
H190 H -0.1870 1.4046 0.3517
F2 F 0.41934(17) 0.11054(14) 0.21652(13)
F5 F 0.20390(18) 0.21527(14) 0.14515(13)
F6 F 0.44493(18) -0.10145(15) 0.18926(13)
F8 F 0.24331(18) -0.14295(16) 0.21509(15)
O1 O 0.6936(2) 0.10536(17) 0.29266(17)
O5 O 0.1309(2) 0.42242(19) 0.26756(16)
O9 O 0.4619(2) -0.07362(18) 0.48163(16)
O10 O 0.3816(2) 0.30905(18) 0.28001(18)
O11 O 0.0242(2) 0.22409(19) 0.05120(16)
O12 O -0.0236(2) -0.1816(2) 0.15653(17)
O14 O 0.5943(3) -0.3535(2) 0.1465(2)
O15 O 0.6783(3) -0.0975(2) 0.2310(2)
O17 O 0.3338(2) -0.3064(2) 0.11424(18)
N4 N 0.3860(3) 0.2284(2) 0.23541(19)
H3 H 0.3619 0.2142 0.2164
O19 O -0.0506(3) -0.0172(2) 0.2750(2)
N6 N 0.2941(3) 0.0147(2) 0.45661(17)
N8 N 0.1699(3) 0.0511(2) 0.41076(18)
H5 H 0.2020 0.0203 0.4043
N9 N 0.5666(3) -0.0827(2) 0.21237(18)
H6 H 0.5289 -0.0551 0.2114
N12 N 0.5464(3) 0.0350(2) 0.23036(18)
O25 O -0.0217(3) 0.3135(3) 0.0834(2)
N14 N 0.4271(3) -0.2080(2) 0.15887(18)
N15 N 0.2570(3) 0.2732(2) 0.21018(18)
N16 N 0.0791(3) 0.2510(2) 0.10991(19)
H8 H 0.1054 0.2153 0.1069
N17 N 0.3024(3) -0.2179(3) 0.1513(2)
H9 H 0.3209 -0.1904 0.1615
N18 N 0.3702(3) -0.1025(2) 0.45307(19)
H10 H 0.3285 -0.0885 0.4445
N19 N 0.1055(3) -0.1049(2) 0.2316(2)
N20 N 0.1088(3) 0.0174(2) 0.35491(19)
O26 O 0.3664(3) -0.3905(2) 0.4764(2)
N21 N 0.0594(3) -0.0243(2) 0.2971(2)
H11 H 0.1005 -0.0449 0.2926
N22 N 0.3513(3) -0.2005(2) 0.44423(19)
N24 N 0.3183(3) -0.2923(2) 0.4365(2)
H12 H 0.2831 -0.2697 0.4207
C1 C 0.1464(3) 0.3471(2) 0.2140(2)
C5 C 0.5335(3) 0.0956(2) 0.2403(2)
C6 C 0.5845(3) 0.1218(3) 0.2595(2)
C7 C 0.1912(3) 0.2950(2) 0.1965(2)
C8 C 0.6524(9) -0.4563(6) 0.1385(8)
H17 H 0.6867 -0.4402 0.1122
C12 C 0.5044(3) 0.2204(3) 0.2606(2)
H20 H 0.4949 0.2620 0.2664
C21 C 0.4525(3) 0.1949(3) 0.2432(2)
C26 C 0.5494(3) -0.2527(3) 0.1664(2)
C28 C 0.1307(4) -0.1469(3) 0.1987(2)
C29 C 0.6485(3) 0.0808(3) 0.2704(2)
C31 C 0.4911(3) -0.2041(3) 0.1697(2)
C32 C 0.2547(3) 0.0719(3) 0.4618(2)
C33 C 0.5629(3) -0.1410(2) 0.1986(2)
C34 C 0.2415(4) 0.3544(3) 0.2623(2)
H22 H 0.2608 0.3739 0.2844
C36 C 0.4697(3) 0.1339(3) 0.2331(2)
C37 C 0.1066(3) 0.0584(3) 0.3874(2)
C38 C 0.3869(3) 0.0441(3) 0.4934(2)
H26 H 0.4323 0.0340 0.5029
C43 C 0.1642(3) 0.2653(2) 0.1609(2)
C44 C 0.0808(3) 0.3659(3) 0.1970(2)
H29 H 0.0517 0.3995 0.2094
C45 C 0.1744(3) 0.3742(3) 0.2500(2)
C46 C 0.0876(3) -0.1736(3) 0.1719(2)
C47 C 0.5872(5) -0.4122(3) 0.1328(4)
H30 H 0.5740 -0.4045 0.0967
H31 H 0.5517 -0.4302 0.1557
C49 C 0.3586(3) 0.0024(3) 0.4731(2)
C50 C -0.0958(4) -0.1717(4) 0.1712(3)
H32 H -0.1165 -0.1274 0.1591
H33 H -0.1031 -0.1815 0.2093
C51 C 0.6074(3) 0.0018(3) 0.2388(2)
C52 C 0.2804(4) 0.1158(3) 0.4832(2)
H34 H 0.2526 0.1548 0.4864
C53 C 0.0994(3) 0.2855(3) 0.1438(2)
C57 C 0.2804(3) 0.3036(3) 0.2405(2)
C58 C 0.5015(3) -0.1487(3) 0.1861(2)
C59 C 0.3991(3) -0.1668(3) 0.4492(2)
C60 C 0.5682(3) 0.1840(2) 0.2688(2)
H36 H 0.6015 0.2010 0.2808
C61 C 0.2312(4) -0.2067(3) 0.1564(2)
C63 C 0.4209(4) -0.2606(3) 0.1426(2)
C64 C 0.1536(4) 0.4519(3) 0.3067(3)
H39 H 0.1893 0.4754 0.2911
H40 H 0.1717 0.4196 0.3361
C69 C 0.1878(4) -0.2331(3) 0.1306(3)
H46 H 0.2063 -0.2612 0.1081
C70 C 0.6610(3) 0.0207(3) 0.2586(2)
H47 H 0.7034 -0.0063 0.2637
C71 C 0.0569(3) 0.3366(3) 0.1621(2)
H48 H 0.0125 0.3509 0.1508
C72 C 0.6123(3) -0.2457(3) 0.1817(2)
H49 H 0.6500 -0.2788 0.1816
C73 C 0.6216(3) -0.0645(3) 0.2268(2)
C75 C 0.3453(4) 0.1022(3) 0.4994(2)
H51 H 0.3618 0.1311 0.5142
C76 C 0.1844(4) 0.0894(3) 0.4432(2)
C77 C 0.0522(3) 0.0203(3) 0.3309(2)
C79 C 0.0486(3) 0.1034(3) 0.3957(3)
H52 H 0.0483 0.1315 0.4182
C80 C 0.5386(4) -0.3070(3) 0.1493(2)
C81 C -0.0083(3) -0.1122(3) 0.2131(3)
H53 H -0.0553 -0.0991 0.2192
C82 C 0.0389(4) -0.0880(3) 0.2374(2)
C84 C 0.4404(4) -0.2907(3) 0.4409(2)
H55 H 0.4534 -0.3330 0.4370
C85 C 0.7562(3) 0.0639(3) 0.3099(3)
H56 H 0.7872 0.0562 0.2796
H57 H 0.7465 0.0234 0.3292
C87 C 0.4745(4) -0.3102(3) 0.1364(2)
H59 H 0.4672 -0.3451 0.1237
C88 C 0.3546(4) 0.2817(3) 0.2546(2)
C89 C -0.0080(3) 0.1047(3) 0.3695(3)
H60 H -0.0476 0.1344 0.3744
C90 C 0.2008(4) -0.1655(3) 0.1898(3)
C92 C 0.4681(4) -0.1931(3) 0.4523(2)
H61 H 0.4997 -0.1693 0.4578
C98 C 0.4029(4) -0.0618(3) 0.4691(2)
C99 C 0.6194(3) -0.1911(3) 0.1967(2)
H67 H 0.6621 -0.1870 0.2058
C103 C 0.3723(4) -0.2614(3) 0.4406(2)
C104 C -0.1293(4) -0.2146(4) 0.1462(3)
H73 H -0.1235 -0.2021 0.1078
C109 C 0.0155(4) -0.1542(3) 0.1810(3)
C110 C 0.0929(5) 0.4955(4) 0.3249(3)
H79 H 0.0728 0.5258 0.2945
C111 C 0.1175(4) -0.2163(3) 0.1394(3)
H80 H 0.0891 -0.2342 0.1229
C112 C 0.0119(4) -0.0395(3) 0.2709(3)
C113 C -0.0083(4) 0.0636(3) 0.3364(3)
H81 H -0.0469 0.0646 0.3186
C115 C 0.7890(4) 0.0954(3) 0.3450(3)
H82 H 0.8322 0.0669 0.3554
C116 C -0.0289(5) 0.2310(3) 0.0136(3)
C119 C 0.0220(4) 0.2680(4) 0.0811(3)
C122 C 0.2532(5) -0.3790(3) 0.4504(4)
C124 C 0.4886(4) -0.2562(3) 0.4468(2)
H89 H 0.5349 -0.2751 0.4472
C125 C 0.3474(4) -0.2648(3) 0.1331(3)
C126 C 0.3169(4) -0.3552(3) 0.4556(3)
C130 C 0.8066(5) 0.1574(4) 0.3174(4)
H91 H 0.8275 0.1752 0.3412
H92 H 0.7655 0.1862 0.3054
H93 H 0.8381 0.1509 0.2876
C131 C -0.0035(5) 0.1726(3) -0.0114(3)
H94 H -0.0039 0.1347 0.0150
H95 H 0.0425 0.1732 -0.0264
H96 H -0.0330 0.1731 -0.0386
C135 C 0.1984(5) -0.3313(4) 0.4201(4)
H101 H 0.1587 -0.3501 0.4205
H102 H 0.2155 -0.3190 0.3843
H103 H 0.1861 -0.2944 0.4362
C140 C -0.0983(5) 0.2283(5) 0.0444(4)
H108 H -0.0956 0.1883 0.0687
H109 H -0.1332 0.2322 0.0202
H110 H -0.1098 0.2626 0.0635
C145 C -0.2056(4) -0.2009(5) 0.1622(4)
H112 H -0.2291 -0.2258 0.1462
H113 H -0.2237 -0.1564 0.1506
H114 H -0.2122 -0.2117 0.1999
C150 C -0.0281(6) 0.2909(4) -0.0267(3)
H122 H -0.0437 0.3272 -0.0101
H123 H -0.0578 0.2925 -0.0540
H124 H 0.0179 0.2915 -0.0417
C157 C 0.1185(6) 0.5321(4) 0.3619(4)
H132 H 0.0800 0.5593 0.3760
H133 H 0.1500 0.5575 0.3424
H134 H 0.1412 0.5022 0.3903
C159 C 0.0382(6) 0.4563(6) 0.3541(5)
H135 H -0.0004 0.4845 0.3668
H136 H 0.0582 0.4258 0.3834
H137 H 0.0233 0.4343 0.3302
C164 C 0.7442(5) 0.1025(4) 0.3957(4)
H146 H 0.7346 0.0616 0.4131
H147 H 0.7019 0.1314 0.3871
H148 H 0.7681 0.1189 0.4186
C171 C 0.2233(8) -0.4045(9) 0.5032(6)
H156 H 0.2581 -0.4348 0.5228
H157 H 0.1863 -0.4250 0.4992
H158 H 0.2062 -0.3701 0.5218
C173 C -0.0969(5) -0.2832(4) 0.1615(5)
H162 H -0.1160 -0.3081 0.1423
H163 H -0.1056 -0.2974 0.1986
H164 H -0.0482 -0.2883 0.1533
C184 C 0.6347(3) -0.5210(3) 0.1244(3)
H177 H 0.6167 -0.5114 0.0901
H178 H 0.6013 -0.5368 0.1503
H179 H 0.6759 -0.5528 0.1248
C189 C 0.2790(4) -0.4328(4) 0.4174(4)
H183 H 0.3129 -0.4652 0.4361
H184 H 0.2988 -0.4150 0.3838
H185 H 0.2409 -0.4513 0.4121
C194 C 0.6752(16) -0.4653(9) 0.1869(15)
H191 H 0.7179 -0.4953 0.1891
H192 H 0.6419 -0.4815 0.2126
H193 H 0.6822 -0.4255 0.1936
O30 O 0.1452(2) 0.1352(2) 0.45466(17)
Cl9 Cl 0.3647(4) 0.4691(2) 0.30205(18)
Cl11 Cl 0.4066(3) 0.4544(2) 0.20032(18)
Cl12 Cl 0.5075(4) 0.4505(3) 0.2774(3)
C180 C 0.4339(6) 0.4469(7) 0.2572(6)
H173 H 0.4371 0.4006 0.2677
Cl10 Cl 0.5663(4) 0.3889(3) 0.0150(3)
Cl13 Cl 0.7081(4) 0.3873(4) -0.0106(2)
Cl17 Cl 0.6113(5) 0.4701(3) -0.0729(4)
C177 C 0.6323(10) 0.3967(7) -0.0345(6)
H168 H 0.6340 0.3645 -0.0562
O16 O 0.2515(3) -0.0689(2) 0.39189(19)
O21 O 0.2085(4) 0.1138(2) 0.09113(18)
O23 O 0.2742(3) 0.0153(3) 0.1015(2)
O24 O 0.1876(3) -0.1425(2) 0.3947(2)
N27 N 0.2389(3) -0.1068(2) 0.3194(2)
H16 H 0.2197 -0.1319 0.3067
N28 N 0.2536(3) 0.0697(2) 0.1682(2)
H18 H 0.2332 0.1049 0.1773
C42 C 0.0668(6) -0.2430(4) 0.5529(3)
H28 H 0.0668 -0.2696 0.5860
C62 C 0.2440(3) -0.0159(3) 0.2453(3)
H37 H 0.2128 0.0133 0.2643
H38 H 0.2168 -0.0339 0.2255
C100 C 0.2835(4) -0.0688(3) 0.2844(3)
H68 H 0.3166 -0.0964 0.2653
H69 H 0.3088 -0.0504 0.3055
C132 C 0.2918(4) 0.0210(3) 0.2071(3)
H97 H 0.3174 0.0409 0.2267
H98 H 0.3244 -0.0084 0.1893
C141 C 0.2339(5) 0.1632(3) 0.0012(2)
C143 C 0.1958(4) 0.2238(4) -0.0137(3)
H111 H 0.1496 0.2330 -0.0025
C147 C 0.1986(6) 0.1131(4) 0.0368(3)
H116 H 0.1499 0.1224 0.0309
H117 H 0.2179 0.0714 0.0288
C154 C 0.2268(4) -0.1039(3) 0.3710(3)
C158 C 0.2489(4) 0.0626(4) 0.1198(3)
C166 C 0.3017(5) 0.1505(4) -0.0153(3)
H152 H 0.3273 0.1099 -0.0048
C169 C 0.2273(5) 0.2705(4) -0.0456(3)
H154 H 0.2022 0.3114 -0.0562
C170 C 0.2942(6) 0.2564(4) -0.0611(3)
H155 H 0.3149 0.2883 -0.0819
C175 C 0.3329(4) 0.1966(4) -0.0472(3)
H165 H 0.3788 0.1875 -0.0590
C176 C 0.1741(7) -0.1373(6) 0.4511(4)
H166 H 0.2157 -0.1562 0.4694
H167 H 0.1632 -0.0925 0.4535
C182 C 0.1224(3) -0.1659(3) 0.4756(3)
C185 C 0.0636(3) -0.1609(3) 0.4493(3)
H180 H 0.0571 -0.1319 0.4176
C186 C 0.1255(3) -0.2056(3) 0.5251(3)
H181 H 0.1650 -0.2107 0.5431
C190 C 0.0129(4) -0.1989(4) 0.4692(4)
H186 H -0.0215 -0.2027 0.4490
C191 C 0.0190(4) -0.2286(4) 0.5197(4)
H187 H -0.0210 -0.2426 0.5344
Cl14 Cl 0.6845(3) 0.3041(2) 0.2137(2)
Cl15 Cl 0.6336(3) 0.2488(3) 0.13916(19)
Cl16 Cl 0.7811(4) 0.2251(4) 0.1575(4)
C178 C 0.6993(7) 0.2428(7) 0.1789(6)
H169 H 0.6938 0.2056 0.2063
C188 C 1.0224(10) 0.5869(6) 0.4850(7)
O36 O 0.9898(13) 0.6435(12) 0.4513(10)
O32 O -0.0346(13) 0.5393(11) 0.1909(10)
O34 O 0.149(3) 0.544(2) -0.073(2)
O37 O -0.0885(14) 0.5604(15) 0.0991(12)
O38 O 0.078(2) 0.482(3) -0.035(2)
C183? C -0.0395(3) -0.2645(3) 0.5322(3)
C192? C -0.0596(13) -0.3171(9) 0.5496(8)
C195? C 0.0000 0.0000 0.5000
C196? C 0.1046(10) -0.0999(7) 0.4662(7)
C197? C 0.0711(10) -0.0163(8) 0.5150(7)
C198? C 0.1237(9) -0.0637(7) 0.4977(6)
C199? C 0.0429(10) -0.0874(8) 0.4493(7)
C200? C -0.0087(11) -0.0401(8) 0.4648(7)
O31? O -0.0790(14) 0.4988(17) 0.1285(12)
O33? O 0.0962(17) 0.4169(17) 0.0137(14)
O35? O 0.9791(8) 0.5353(6) 0.4865(6)
loop_
_geom_bond_atom_site_label_1
_geom_bond_atom_site_label_2
_geom_bond_site_symmetry_1
_geom_bond_site_symmetry_2
Cl1 C83 1_555 1_555
Cl2 C86 1_555 1_555
Cl3 C83 1_555 1_555
Cl4 C86 1_555 1_555
Cl5 C187 1_555 1_555
Cl6 C86 1_555 1_555
Cl7 C187 1_555 1_555
F1 C9 1_555 1_555
F2 C36 1_555 1_555
F3 C15 1_555 1_555
F4 C48 1_555 1_555
F5 C43 1_555 1_555
F6 C58 1_555 1_555
F7 C18 1_555 1_555
Cl8 C187 1_555 1_555
F8 C90 1_555 1_555
Cl9 C180 1_555 1_555
O1 C29 1_555 1_555
Cl10 C177 1_555 1_555
O2 C96 1_555 1_555
O3 C14 1_555 1_555
O4 C30 1_555 1_555
O5 C45 1_555 1_555
Cl11 C180 1_555 1_555
O6 C55 1_555 1_555
O7 C91 1_555 1_555
O8 C56 1_555 1_555
O9 C98 1_555 1_555
O10 C88 1_555 1_555
O11 C116 1_555 1_555
O12 C50 1_555 1_555
O13 C102 1_555 1_555
O14 C47 1_555 1_555
O15 C73 1_555 1_555
Cl12 C180 1_555 1_555
O16 C154 1_555 1_555
Cl13 C177 1_555 1_555
Cl14 C178 1_555 1_555
N1 H1 1_555 1_555
O17 C125 1_555 1_555
O18 C94 1_555 1_555
N2 H2 1_555 1_555
N3 C13 1_555 1_555
N4 H3 1_555 1_555
N5 H4 1_555 1_555
O19 C112 1_555 1_555
Cl15 C178 1_555 1_555
N6 C32 1_555 1_555
N7 C23 1_555 1_555
O20 C123 1_555 1_555
N8 H5 1_555 1_555
N9 H6 1_555 1_555
O21 C147 1_555 1_555
O22 C137 1_555 1_555
O23 C158 1_555 1_555
N10 H7 1_555 1_555
O24 C154 1_555 1_555
N11 C16 1_555 1_555
N12 C5 1_555 1_555
N13 C4 1_555 1_555
O25 C119 1_555 1_555
N14 C31 1_555 1_555
N15 C7 1_555 1_555
N16 H8 1_555 1_555
N17 H9 1_555 1_555
N18 H10 1_555 1_555
N19 C28 1_555 1_555
N20 C37 1_555 1_555
O26 C126 1_555 1_555
N21 H11 1_555 1_555
O27 C142 1_555 1_555
N22 C59 1_555 1_555
N23 C114 1_555 1_555
N24 H12 1_555 1_555
Cl16 C178 1_555 1_555
N25 H13 1_555 1_555
N26 H14 1_555 1_555
O28 C152 1_555 1_555
O29 C174 1_555 1_555
C1 C7 1_555 1_555
C2 C11 1_555 1_555
C3 H15 1_555 1_555
C4 C15 1_555 1_555
C5 C6 1_555 1_555
N27 H16 1_555 1_555
C6 C29 1_555 1_555
C7 C43 1_555 1_555
C8 H17 1_555 1_555
C9 C10 1_555 1_555
C10 N1 1_555 1_555
N28 H18 1_555 1_555
C11 H19 1_555 1_555
C12 H20 1_555 1_555
C13 C40 1_555 1_555
C14 C2 1_555 1_555
C15 C19 1_555 1_555
C16 C41 1_555 1_555
C17 N10 1_555 1_555
C18 C17 1_555 1_555
C19 N2 1_555 1_555
C20 H21 1_555 1_555
C21 N4 1_555 1_555
C22 C25 1_555 1_555
C23 C20 1_555 1_555
C24 C4 1_555 1_555
C25 N7 1_555 1_555
C26 C31 1_555 1_555
C27 N3 1_555 1_555
N29 C128 1_555 1_555
C28 C46 1_555 1_555
C29 C70 1_555 1_555
C30 C20 1_555 1_555
C31 C58 1_555 1_555
C32 C52 1_555 1_555
C33 N9 1_555 1_555
C34 H22 1_555 1_555
C35 C10 1_555 1_555
H23 C35 1_555 1_555
N30 H24 1_555 1_555
C36 C5 1_555 1_555
N31 H25 1_555 1_555
C37 N8 1_555 1_555
C38 H26 1_555 1_555
C39 N5 1_555 1_555
C40 C14 1_555 1_555
H27 C40 1_555 1_555
C41 C91 1_555 1_555
C42 H28 1_555 1_555
C43 C53 1_555 1_555
C44 C1 1_555 1_555
H29 C44 1_555 1_555
C45 C1 1_555 1_555
C46 C109 1_555 1_555
C47 C8 1_555 1_555
H30 C47 1_555 1_555
H31 C47 1_555 1_555
C48 C16 1_555 1_555
C49 N6 1_555 1_555
C50 H32 1_555 1_555
H33 C50 1_555 1_555
C51 N12 1_555 1_555
C52 H34 1_555 1_555
C53 N16 1_555 1_555
C54 C3 1_555 1_555
H35 C54 1_555 1_555
C55 N2 1_555 1_555
C56 N1 1_555 1_555
C57 N15 1_555 1_555
N32 C144 1_555 1_555
C58 C33 1_555 1_555
C59 N18 1_555 1_555
C60 C6 1_555 1_555
H36 C60 1_555 1_555
C61 N17 1_555 1_555
C62 H37 1_555 1_555
H38 C62 1_555 1_555
C63 N14 1_555 1_555
C64 O5 1_555 1_555
H39 C64 1_555 1_555
H40 C64 1_555 1_555
C65 O3 1_555 1_555
H41 C65 1_555 1_555
H42 C65 1_555 1_555
C66 O4 1_555 1_555
H43 C66 1_555 1_555
H44 C66 1_555 1_555
C67 C17 1_555 1_555
H45 C67 1_555 1_555
C68 N11 1_555 1_555
C69 C61 1_555 1_555
H46 C69 1_555 1_555
C70 C51 1_555 1_555
H47 C70 1_555 1_555
C71 C44 1_555 1_555
H48 C71 1_555 1_555
C72 C26 1_555 1_555
H49 C72 1_555 1_555
C73 N9 1_555 1_555
C74 C22 1_555 1_555
H50 C74 1_555 1_555
C75 C38 1_555 1_555
H51 C75 1_555 1_555
C76 N8 1_555 1_555
C77 N20 1_555 1_555
C78 N13 1_555 1_555
C79 C37 1_555 1_555
H52 C79 1_555 1_555
C80 O14 1_555 1_555
C81 H53 1_555 1_555
C82 N19 1_555 1_555
C83 H54 1_555 1_555
C84 H55 1_555 1_555
C85 O1 1_555 1_555
H56 C85 1_555 1_555
H57 C85 1_555 1_555
C86 H58 1_555 1_555
C87 C63 1_555 1_555
H59 C87 1_555 1_555
C88 N4 1_555 1_555
C89 C79 1_555 1_555
H60 C89 1_555 1_555
C90 C28 1_555 1_555
C91 C106 1_555 1_555
C92 C59 1_555 1_555
H61 C92 1_555 1_555
C93 H62 1_555 1_555
H63 C93 1_555 1_555
H64 C93 1_555 1_555
C94 H65 1_555 1_555
H66 C94 1_555 1_555
C95 C39 1_555 1_555
C96 C93 1_555 1_555
C97 O18 1_555 1_555
C98 N18 1_555 1_555
C99 C33 1_555 1_555
H67 C99 1_555 1_555
C100 N27 1_555 1_555
H68 C100 1_555 1_555
H69 C100 1_555 1_555
C101 H70 1_555 1_555
H71 C101 1_555 1_555
H72 C101 1_555 1_555
C102 N10 1_555 1_555
C103 N22 1_555 1_555
C104 C50 1_555 1_555
H73 C104 1_555 1_555
C105 C78 1_555 1_555
H74 C105 1_555 1_555
C106 C68 1_555 1_555
H75 C106 1_555 1_555
C107 C41 1_555 1_555
H76 C107 1_555 1_555
C108 O7 1_555 1_555
H77 C108 1_555 1_555
H78 C108 1_555 1_555
C109 O12 1_555 1_555
C110 C64 1_555 1_555
H79 C110 1_555 1_555
C111 C46 1_555 1_555
H80 C111 1_555 1_555
C112 N21 1_555 1_555
C113 C77 1_555 1_555
H81 C113 1_555 1_555
C114 N26 1_555 1_555
C115 C85 1_555 1_555
H82 C115 1_555 1_555
C116 C131 1_555 1_555
C117 C65 1_555 1_555
H83 C117 1_555 1_555
C118 H84 1_555 1_555
C119 O11 1_555 1_555
C120 H85 1_555 1_555
C121 C96 1_555 1_555
H86 C121 1_555 1_555
H87 C121 1_555 1_555
H88 C121 1_555 1_555
C122 C126 1_555 1_555
C123 O2 1_555 1_555
C124 C84 1_555 1_555
H89 C124 1_555 1_555
C125 N17 1_555 1_555
C126 N24 1_555 1_555
C127 N23 1_555 1_555
C128 C152 1_555 1_555
C129 C120 1_555 1_555
H90 C129 1_555 1_555
C130 C115 1_555 1_555
H91 C130 1_555 1_555
H92 C130 1_555 1_555
H93 C130 1_555 1_555
C131 H94 1_555 1_555
H95 C131 1_555 1_555
H96 C131 1_555 1_555
C132 N28 1_555 1_555
H97 C132 1_555 1_555
H98 C132 1_555 1_555
C133 C120 1_555 1_555
H99 C133 1_555 1_555
C134 C108 1_555 1_555
H100 C134 1_555 1_555
C135 C122 1_555 1_555
H101 C135 1_555 1_555
H102 C135 1_555 1_555
H103 C135 1_555 1_555
C136 H104 1_555 1_555
C137 N25 1_555 1_555
C138 N29 1_555 1_555
C139 C96 1_555 1_555
H105 C139 1_555 1_555
H106 C139 1_555 1_555
H107 C139 1_555 1_555
C140 C116 1_555 1_555
H108 C140 1_555 1_555
H109 C140 1_555 1_555
H110 C140 1_555 1_555
C141 C143 1_555 1_555
C142 N30 1_555 1_555
C143 H111 1_555 1_555
C144 N30 1_555 1_555
C145 C104 1_555 1_555
H112 C145 1_555 1_555
H113 C145 1_555 1_555
H114 C145 1_555 1_555
C146 C94 1_555 1_555
H115 C146 1_555 1_555
C147 C141 1_555 1_555
H116 C147 1_555 1_555
H117 C147 1_555 1_555
C148 C114 1_555 1_555
H118 C148 1_555 1_555
C149 H119 1_555 1_555
H120 C149 1_555 1_555
H121 C149 1_555 1_555
C150 C116 1_555 1_555
H122 C150 1_555 1_555
H123 C150 1_555 1_555
H124 C150 1_555 1_555
C151 H125 1_555 1_555
H126 C151 1_555 1_555
H127 C151 1_555 1_555
C152 N26 1_555 1_555
C153 C149 1_555 1_555
C154 N27 1_555 1_555
C155 C134 1_555 1_555
H128 C155 1_555 1_555
H129 C155 1_555 1_555
H130 C155 1_555 1_555
C156 C118 1_555 1_555
H131 C156 1_555 1_555
C157 C110 1_555 1_555
H132 C157 1_555 1_555
H133 C157 1_555 1_555
H134 C157 1_555 1_555
C158 O21 1_555 1_555
C159 C110 1_555 1_555
H135 C159 1_555 1_555
H136 C159 1_555 1_555
H137 C159 1_555 1_555
C160 C128 1_555 1_555
H138 C160 1_555 1_555
C161 C134 1_555 1_555
H139 C161 1_555 1_555
H140 C161 1_555 1_555
H141 C161 1_555 1_555
C162 C66 1_555 1_555
H142 C162 1_555 1_555
C163 C153 1_555 1_555
H143 C163 1_555 1_555
H144 C163 1_555 1_555
H145 C163 1_555 1_555
C164 C115 1_555 1_555
H146 C164 1_555 1_555
H147 C164 1_555 1_555
H148 C164 1_555 1_555
C165 C117 1_555 1_555
H149 C165 1_555 1_555
H150 C165 1_555 1_555
H151 C165 1_555 1_555
C166 C141 1_555 1_555
H152 C166 1_555 1_555
C167 N31 1_555 1_555
C168 C136 1_555 1_555
H153 C168 1_555 1_555
C169 C143 1_555 1_555
H154 C169 1_555 1_555
C170 C169 1_555 1_555
H155 C170 1_555 1_555
C171 C122 1_555 1_555
H156 C171 1_555 1_555
H157 C171 1_555 1_555
H158 C171 1_555 1_555
Cl17 C177 1_555 1_555
C172 C146 1_555 1_555
H159 C172 1_555 1_555
H160 C172 1_555 1_555
H161 C172 1_555 1_555
C173 C104 1_555 1_555
H162 C173 1_555 1_555
H163 C173 1_555 1_555
H164 C173 1_555 1_555
C174 N31 1_555 1_555
C175 C166 1_555 1_555
H165 C175 1_555 1_555
C176 O24 1_555 1_555
H166 C176 1_555 1_555
H167 C176 1_555 1_555
C177 H168 1_555 1_555
C178 H169 1_555 1_555
C179 C162 1_555 1_555
H170 C179 1_555 1_555
H171 C179 1_555 1_555
H172 C179 1_555 1_555
C180 H173 1_555 1_555
C181 C162 1_555 1_555
H174 C181 1_555 1_555
H175 C181 1_555 1_555
H176 C181 1_555 1_555
C182 C176 1_555 1_555
C184 C8 1_555 1_555
H177 C184 1_555 1_555
H178 C184 1_555 1_555
H179 C184 1_555 1_555
C185 C182 1_555 1_555
H180 C185 1_555 1_555
C186 C42 1_555 1_555
H181 C186 1_555 1_555
C187 H182 1_555 1_555
C188 O36 1_555 1_555
C189 C122 1_555 1_555
H183 C189 1_555 1_555
H184 C189 1_555 1_555
H185 C189 1_555 1_555
C190 C185 1_555 1_555
H186 C190 1_555 1_555
C191 C42 1_555 1_555
H187 C191 1_555 1_555
C193 C146 1_555 1_555
H188 C193 1_555 1_555
H189 C193 1_555 1_555
H190 C193 1_555 1_555
Cl18 C83 1_555 1_555
C194 C8 1_555 1_555
H191 C194 1_555 1_555
H192 C194 1_555 1_555
H193 C194 1_555 1_555
O30 C76 1_555 1_555
N5 C123 1_555 1_555
N16 C119 1_555 1_555
N21 C77 1_555 1_555
N24 C103 1_555 1_555
N25 C127 1_555 1_555
C2 C27 1_555 1_555
C3 C19 1_555 1_555
C9 C27 1_555 1_555
N28 C158 1_555 1_555
C11 C35 1_555 1_555
C12 C21 1_555 1_555
C12 C60 1_555 1_555
C13 C55 1_555 1_555
C18 C25 1_555 1_555
C21 C36 1_555 1_555
C22 C30 1_555 1_555
C23 C56 1_555 1_555
C24 C54 1_555 1_555
C24 C97 1_555 1_555
C26 C80 1_555 1_555
C32 C76 1_555 1_555
C34 C45 1_555 1_555
C34 C57 1_555 1_555
C38 C49 1_555 1_555
C39 C48 1_555 1_555
C49 C98 1_555 1_555
C51 C73 1_555 1_555
C52 C75 1_555 1_555
C53 C71 1_555 1_555
C57 C88 1_555 1_555
N32 C167 1_555 1_555
C61 C90 1_555 1_555
C62 C100 1_555 1_555
C62 C132 1_555 1_555
C63 C125 1_555 1_555
C67 C74 1_555 1_555
C68 C102 1_555 1_555
C69 C111 1_555 1_555
C72 C99 1_555 1_555
C78 C137 1_555 1_555
C80 C87 1_555 1_555
C81 C82 1_555 1_555
C81 C109 1_555 1_555
C82 C112 1_555 1_555
C84 C103 1_555 1_555
C89 C113 1_555 1_555
C92 C124 1_555 1_555
C95 C107 1_555 1_555
C97 C105 1_555 1_555
C101 C117 1_555 1_555
C118 C127 1_555 1_555
C129 C167 1_555 1_555
C133 C144 1_555 1_555
C136 C138 1_555 1_555
C138 C142 1_555 1_555
C148 C156 1_555 1_555
C151 C153 1_555 1_555
C153 C174 1_555 1_555
C160 C168 1_555 1_555
C170 C175 1_555 1_555
C182 C186 1_555 1_555
C190 C191 1_555 1_555

#END
