
#######################################################################
#
#                 Cambridge Crystallographic Data Centre
#                                CCDC 
#
#######################################################################
#
# If this CIF has been generated from an entry in the Cambridge 
# Structural Database, then it will include bibliographic, chemical, 
# crystal, experimental, refinement or atomic coordinate data resulting 
# from the CCDC's data processing and validation procedures.
#
#######################################################################

data_EWIXOY
_chemical_formula_moiety         
'2(C83 H83 F4 N15 O13),C21 H26 N2 O4,4.5(H2 O1),3(C1 H1 Cl3),C5 H12'
_chemical_name_systematic        
'bis(t-Butyl (2-((2-((2-((2-((6-(((6-((6-((2,2-dimethylpropanoyl)amino)pyridin-2-yl)carbamoyl)pyridin-2-yl)carbonyl)amino)pyridin-2-yl)carbamoyl)-8-fluoro-4-isobutoxyquinolin-7-yl)carbamoyl)-8-fluoro-4-isobutoxyquinolin-7-yl)carbamoyl)-8-fluoro-4-isobutoxyquinolin-7-yl)carbamoyl)-8-fluoro-4-isobutoxyquinolin-7-yl)carbamate) dibenzyl pentane-1,5-diylbiscarbamate chloroform pentane solvate hydrate'
_symmetry_cell_setting           triclinic
_symmetry_space_group_name_H-M   'P -1'
_symmetry_Int_Tables_number      2
_space_group_name_Hall           '-P 1'
loop_
_symmetry_equiv_pos_site_id
_symmetry_equiv_pos_as_xyz
1 x,y,z
2 -x,-y,-z
_cell_length_a                   17.764(4)
_cell_length_b                   21.407(4)
_cell_length_c                   30.835(6)
_cell_angle_alpha                101.31(3)
_cell_angle_beta                 100.24(3)
_cell_angle_gamma                112.31(3)
_cell_volume                     10217.9
_exptl_crystal_colour            yellow
_cell_formula_units_Z            2
loop_
_atom_site_label
_atom_site_type_symbol
_atom_site_fract_x
_atom_site_fract_y
_atom_site_fract_z
F1 F 0.7177(6) 0.8130(6) 0.2201(4)
F2 F 0.7872(7) 0.5356(6) 0.3008(4)
F3 F 0.4627(6) 0.6743(5) 0.2654(4)
F4 F 0.8590(7) 0.6682(6) 0.1972(4)
O1 O 0.3992(7) 0.9117(7) 0.3594(5)
O2 O 0.2652(8) 0.4765(8) 0.2818(5)
O3 O 1.0087(9) 1.0040(8) 0.4238(5)
N2 N 1.0465(11) 0.7139(12) 0.3828(7)
H2 H 0.9977 0.6898 0.3860
O8 O 0.6907(10) 0.8496(8) 0.5250(6)
O9 O 0.9767(10) 0.8304(8) 0.1120(6)
O10 O 0.2058(10) 0.5491(8) 0.3038(6)
N3 N 0.7315(9) 0.7797(10) 0.4781(5)
H3 H 0.7646 0.7805 0.4608
O13 O 0.5948(10) 0.4458(8) 0.4430(6)
C1 C 1.0196(13) 0.4489(12) 0.0763(6)
H5 H 0.9684 0.4054 0.0681
H6 H 1.0564 0.4522 0.1047
N6 N 0.8378(10) 0.8495(9) 0.1762(6)
N7 N 0.9615(9) 0.8873(9) 0.4205(5)
H8 H 0.9223 0.8541 0.4262
N8 N 0.5147(9) 0.8151(9) 0.2804(5)
O17 O 0.8916(10) 0.3965(9) 0.2047(6)
N9 N 0.8981(10) 0.7588(11) 0.1487(6)
H11 H 0.8645 0.7572 0.1658
O18 O 0.6226(9) 0.9893(8) 0.2766(6)
O21 O 0.9180(10) 1.0470(9) 0.1540(6)
N12 N 0.7068(10) 0.4739(8) 0.3599(6)
O23 O 0.6437(10) 0.2607(8) 0.3392(6)
O24 O 0.9983(9) 0.5086(8) 0.0829(6)
N15 N 0.8867(9) 0.5516(11) 0.1855(6)
N18 N 0.6428(9) 0.8915(8) 0.2499(6)
H17 H 0.6263 0.8478 0.2490
C7 C 0.7777(13) 0.3613(12) 0.2597(8)
H19 H 0.7946 0.3373 0.2378
N22 N 1.0112(11) 0.8049(11) 0.4002(6)
N23 N 0.6919(9) 0.6630(10) 0.4557(6)
C11 C 0.3893(15) 0.9795(13) 0.4461(10)
H22 H 0.3576 0.9939 0.4647
H23 H 0.4465 0.9957 0.4644
H24 H 0.3638 0.9289 0.4346
C16 C 1.0821(16) 0.9167(14) 0.3869(8)
H27 H 1.0852 0.9612 0.3873
N24 N 0.8467(10) 0.8987(9) 0.4649(6)
C17 C 1.0791(18) 0.3818(16) 0.0309(10)
H28 H 1.0264 0.3409 0.0238
H29 H 1.1171 0.3844 0.0583
H30 H 1.1037 0.3786 0.0058
N28 N 0.8328(10) 0.4666(9) 0.2347(6)
H31 H 0.8267 0.5042 0.2334
C19 C 0.9514(12) 0.6856(13) 0.1027(8)
H32 H 0.9655 0.7156 0.0844
N29 N 0.6641(9) 0.5475(9) 0.4259(6)
H33 H 0.6955 0.5642 0.4089
C21 C 0.8979(13) 0.9566(13) 0.4567(8)
C25 C 0.3173(11) 0.6982(12) 0.3287(6)
H36 H 0.2736 0.6719 0.3395
C26 C 0.8062(12) 0.8969(12) 0.1897(7)
N30 N 0.3362(10) 0.5913(9) 0.2922(6)
H37 H 0.3733 0.5786 0.2841
C27 C 0.5929(13) 0.5795(13) 0.4836(9)
H38 H 0.5663 0.5338 0.4856
C28 C 0.6013(15) 0.2206(11) 0.3669(9)
H39 H 0.5460 0.2203 0.3647
H40 H 0.6344 0.2401 0.3989
C31 C 0.7076(11) 0.9190(10) 0.2285(7)
C34 C 0.971(2) 1.0637(14) 0.1250(12)
H47 H 0.9427 1.0717 0.0983
H48 H 0.9858 1.0251 0.1146
C37 C 0.7933(12) 0.9062(12) 0.4901(7)
C38 C 1.0200(12) 0.8682(16) 0.4004(7)
O27 O 1.1678(10) 0.7095(9) 0.3743(6)
C43 C 0.4355(11) 0.9878(10) 0.3745(8)
H54 H 0.4302 1.0058 0.3482
H55 H 0.4952 1.0066 0.3905
C44 C 0.1130(14) 0.3966(12) 0.2486(9)
H56 H 0.1220 0.3917 0.2185
H57 H 0.0971 0.4347 0.2561
H58 H 0.0687 0.3537 0.2488
C45 C 0.8958(12) 0.6563(14) 0.1632(8)
C46 C 0.9149(12) 0.7012(14) 0.1387(9)
C48 C 0.7693(12) 0.4660(11) 0.2968(8)
C52 C 0.9476(12) 0.5814(13) 0.1230(8)
C54 C 1.1390(15) 0.8933(16) 0.3726(9)
H66 H 1.1826 0.9230 0.3632
C56 C 0.8412(15) 1.0275(13) 0.4953(8)
H68 H 0.8382 1.0704 0.5045
C57 C 0.9085(11) 0.5945(15) 0.1575(9)
C58 C 0.6249(13) 0.7021(13) 0.5099(7)
H69 H 0.6184 0.7383 0.5286
C59 C 0.7938(14) 1.0061(12) 0.1992(8)
H70 H 0.8103 1.0501 0.1941
C60 C 0.4500(12) 0.7771(11) 0.2961(7)
C61 C 0.7442(12) 0.8770(10) 0.2136(7)
C62 C 0.8937(14) 0.9813(12) 0.1593(8)
C66 C 0.4076(11) 0.8092(11) 0.3232(7)
C67 C 0.4365(12) 0.8817(12) 0.3326(7)
C69 C 0.6389(12) 0.3668(12) 0.3801(8)
H71 H 0.6078 0.3451 0.3985
C71 C 1.1457(18) 0.5168(16) 0.0520(10)
H74 H 1.1716 0.5172 0.0272
H75 H 1.1841 0.5194 0.0792
H76 H 1.1323 0.5565 0.0579
C72 C 0.6640(13) 0.4387(12) 0.3846(8)
C76 C 0.9614(13) 0.9507(14) 0.4311(7)
C77 C 0.6038(12) 0.9264(12) 0.2717(7)
C79 C 0.9656(12) 0.6265(14) 0.0952(9)
H78 H 0.9878 0.6160 0.0711
C80 C 0.9409(12) 0.4782(12) 0.1446(9)
H79 H 0.9528 0.4392 0.1420
C81 C 0.8316(12) 0.9632(12) 0.1828(8)
C84 C 0.3894(13) 1.0103(12) 0.4064(9)
H81 H 0.3305 0.9940 0.3887
C86 C 0.8955(13) 0.8711(12) 0.1530(7)
C88 C 0.3572(12) 0.6639(11) 0.3029(7)
C90 C 0.7343(12) 0.9870(11) 0.2223(8)
H83 H 0.7120 1.0176 0.2337
C91 C 0.3422(12) 0.7678(11) 0.3373(7)
H84 H 0.3143 0.7887 0.3535
C92 C 0.6613(14) 0.3295(12) 0.3480(9)
C93 C 0.8964(14) 1.0213(12) 0.4711(8)
H85 H 0.9328 1.0603 0.4644
C94 C 0.5360(11) 0.8829(12) 0.2902(7)
C97 C 1.1321(14) 0.8276(17) 0.3721(8)
H89 H 1.1714 0.8127 0.3633
C99 C 0.7956(12) 0.4330(12) 0.2649(9)
C103 C 0.5931(14) 0.1466(12) 0.3471(9)
H94 H 0.5677 0.1173 0.3661
C104 C 0.7087(13) 0.3617(10) 0.3205(9)
C105 C 1.0634(17) 0.4476(15) 0.0387(8)
H95 H 1.0256 0.4448 0.0103
C109 C 0.6802(15) 0.1486(11) 0.3489(9)
H100 H 0.6743 0.1019 0.3360
H101 H 0.7144 0.1666 0.3803
H102 H 0.7070 0.1788 0.3316
C110 C 1.1186(16) 0.5788(14) 0.3925(10)
H103 H 1.1320 0.6002 0.4250
H104 H 1.1691 0.5952 0.3826
H105 H 1.0956 0.5284 0.3862
C111 C 0.6816(12) 0.7146(13) 0.4811(7)
C112 C 0.7899(13) 0.9693(13) 0.5057(8)
H106 H 0.7533 0.9727 0.5232
C113 C 0.9612(12) 0.5194(14) 0.1154(9)
C115 C 0.6481(12) 0.5954(12) 0.4545(7)
C117 C 0.1948(15) 0.4124(13) 0.2841(11)
C120 C 0.4293(13) 1.0910(11) 0.4237(8)
H109 H 0.4276 1.1098 0.3979
H110 H 0.4871 1.1082 0.4414
H111 H 0.3983 1.1058 0.4427
C122 C 0.7356(15) 0.3280(12) 0.2869(9)
H113 H 0.7240 0.2808 0.2832
C124 C 1.0663(14) 0.7840(15) 0.3848(8)
C128 C 0.5378(17) 0.1120(13) 0.2974(10)
H116 H 0.5357 0.0660 0.2866
H117 H 0.5615 0.1405 0.2785
H118 H 0.4816 0.1078 0.2960
C129 C 0.7272(12) 0.4359(11) 0.3276(7)
C137 C 0.9032(12) 0.4949(13) 0.1773(8)
C138 C 0.1853(15) 0.4193(12) 0.3317(9)
H125 H 0.2383 0.4296 0.3527
H126 H 0.1426 0.3758 0.3326
H127 H 0.1691 0.4568 0.3406
C140 C 0.4213(12) 0.7064(11) 0.2900(7)
C141 C 1.0539(15) 0.5986(14) 0.3669(10)
C142 C 1.0321(16) 0.5667(15) 0.3155(10)
H128 H 1.0061 0.5162 0.3082
H129 H 1.0828 0.5817 0.3057
H130 H 0.9935 0.5820 0.3000
C143 C 0.2245(15) 0.3561(12) 0.2700(10)
H131 H 0.2286 0.3517 0.2390
H132 H 0.1848 0.3120 0.2717
H133 H 0.2791 0.3690 0.2903
C149 C 0.5809(14) 0.6320(14) 0.5076(9)
H141 H 0.5406 0.6210 0.5239
C154 C 1.0949(16) 0.6794(16) 0.3763(9)
C156 C 0.4998(12) 0.9200(11) 0.3156(7)
H145 H 0.5178 0.9683 0.3206
C157 C 0.6380(13) 0.4783(13) 0.4206(8)
C159 C 0.8770(13) 0.4485(14) 0.2073(9)
C162 C 0.9271(14) 0.8175(13) 0.1354(8)
C165 C 0.9238(13) 0.9335(14) 0.1427(9)
H152 H 0.9620 0.9436 0.1252
C168 C 0.9736(15) 0.5725(13) 0.3844(12)
H154 H 0.9887 0.5940 0.4170
H155 H 0.9504 0.5221 0.3781
H156 H 0.9323 0.5853 0.3689
C180 C 0.7351(13) 0.8425(13) 0.4989(8)
C181 C 0.2626(16) 0.5381(13) 0.2933(9)
C184 C 1.049(2) 1.128(2) 0.1516(15)
H183 H 1.0821 1.1100 0.1698
C185 C 1.103(4) 1.157(3) 0.121(2)
H184 H 1.1568 1.1936 0.1394
H185 H 1.0749 1.1763 0.1012
H186 H 1.1107 1.1198 0.1021
C186 C 1.046(4) 1.185(2) 0.187(2)
H187 H 1.0998 1.2258 0.1967
H188 H 1.0349 1.1689 0.2132
H189 H 1.0023 1.1975 0.1743
F5 F 0.5186(7) 0.5170(6) 0.3128(4)
F6 F 0.6157(7) 0.4780(6) 0.1864(4)
F7 F 0.6355(7) 0.7670(6) 0.3681(4)
F8 F 0.8761(8) 0.8403(8) 0.3096(4)
N1 N 0.6968(10) 0.9049(10) 0.3798(5)
H1 H 0.7163 0.8777 0.3664
O4 O 0.7098(9) 1.0178(8) 0.3954(6)
O5 O 0.5261(12) 0.2451(10) 0.2101(7)
O7 O 0.3721(11) 0.2291(9) 0.3351(7)
O11 O 0.7568(9) 0.5668(8) 0.0276(6)
N4 N 0.9970(12) 0.8596(12) 0.2658(6)
H4 H 0.9659 0.8186 0.2676
O14 O 0.2062(12) 0.3653(10) 0.1503(6)
N5 N 0.7011(9) 0.6086(10) 0.0818(6)
H7 H 0.6785 0.5990 0.1035
C3 C 0.8379(14) 1.0577(13) 0.3532(8)
H9 H 0.8230 1.0917 0.3678
C4 C 0.2460(18) 0.6253(17) 0.1868(8)
H10 H 0.2335 0.6636 0.1955
O16 O 0.3899(8) 0.7984(8) 0.4684(5)
O19 O 0.9363(10) 1.1360(11) 0.3208(7)
O20 O 0.7450(10) 0.3379(9) 0.0492(7)
C5 C 0.7409(12) 0.4499(13) 0.0566(8)
H12 H 0.7667 0.4578 0.0332
N10 N 0.5736(12) 0.3614(10) 0.2134(6)
H13 H 0.5768 0.4005 0.2295
N11 N 0.6616(10) 0.6985(11) 0.0936(6)
O22 O 0.3616(10) 0.5456(8) 0.4223(6)
N13 N 0.4563(10) 0.5561(9) 0.3819(6)
H14 H 0.4933 0.5860 0.3726
C6 C 0.5323(12) 0.7597(14) 0.4075(6)
N14 N 0.6147(10) 0.7843(10) 0.1103(6)
H15 H 0.5885 0.7600 0.1266
O25 O 0.6440(12) 0.8870(10) 0.0920(7)
N16 N 0.3147(11) 0.4640(13) 0.1516(7)
H16 H 0.3644 0.4799 0.1476
N17 N 0.3388(11) 0.5777(14) 0.1624(6)
N20 N 0.5056(11) 0.3845(10) 0.2796(7)
C9 C 0.8022(12) 0.9875(14) 0.3551(7)
C12 C 0.7085(14) 0.7936(13) 0.0607(9)
H25 H 0.7070 0.8351 0.0566
C13 C 0.6304(12) 0.8736(12) 0.3994(7)
C14 C 0.9565(18) 1.2534(18) 0.3212(15)
H26 H 1.0164 1.2637 0.3249
C15 C 0.6325(13) 0.4250(13) 0.1641(7)
N25 N 0.6826(9) 0.4952(10) 0.1143(7)
N26 N 0.4916(13) 0.8029(11) 0.1459(7)
C18 C 0.8840(14) 0.9538(17) 0.3180(8)
N27 N 0.5081(11) 0.6908(11) 0.3988(6)
C20 C 0.4963(13) 0.8001(12) 0.4327(7)
C22 C 0.3129(13) 0.7607(12) 0.4793(10)
H34 H 0.3253 0.7436 0.5054
H35 H 0.2744 0.7205 0.4533
C23 C 0.4713(13) 0.3993(13) 0.3153(9)
C24 C 0.4356(16) 0.8169(16) 0.1676(8)
C29 C 1.2295(13) 0.8555(15) 0.2694(9)
H41 H 1.2399 0.8997 0.2630
H42 H 1.2754 0.8434 0.2661
H43 H 1.2250 0.8594 0.3003
C30 C 0.6122(14) 0.3659(14) 0.1773(8)
C32 C 0.4185(15) 0.3935(14) 0.1390(10)
H44 H 0.4432 0.3623 0.1291
H45 H 0.4459 0.4190 0.1709
H46 H 0.4257 0.4262 0.1210
C33 C 0.7259(13) 0.3906(15) 0.0694(9)
C35 C 0.8967(16) 1.0727(15) 0.3280(9)
C36 C 0.4163(15) 0.5835(17) 0.4086(8)
N31 N 0.8222(11) 0.9370(10) 0.3401(7)
C40 C 0.485(2) 0.9324(17) 0.1620(11)
H51 H 0.4831 0.9759 0.1675
C41 C 0.1935(17) 0.557(2) 0.1859(8)
H52 H 0.1427 0.5492 0.1931
C42 C 1.0076(16) 0.978(2) 0.2705(9)
H53 H 1.0467 0.9844 0.2534
N32 N 0.3759(11) 0.6953(13) 0.1704(6)
H59 H 0.4183 0.6942 0.1610
O28 O 0.3221(10) 0.7691(9) 0.1985(6)
C47 C 0.7321(14) 0.9729(15) 0.3800(8)
C50 C 0.4316(18) 0.8795(18) 0.1746(10)
H62 H 0.3915 0.8864 0.1881
C51 C 0.7162(12) 0.5000(12) 0.0798(8)
C53 C 0.913(2) 1.2345(19) 0.2712(15)
H63 H 0.9176 1.1935 0.2548
H64 H 0.9397 1.2732 0.2594
H65 H 0.8546 1.2246 0.2672
C55 C 0.2728(14) 0.8107(14) 0.4909(10)
H67 H 0.2564 0.8231 0.4629
C63 C 0.7057(13) 0.6705(13) 0.0717(7)
C64 C 0.6639(13) 0.7577(14) 0.0872(7)
C65 C 0.9716(18) 0.9151(18) 0.2801(10)
C68 C 0.6684(12) 0.4359(14) 0.1275(8)
C70 C 0.3354(17) 0.1574(14) 0.3120(11)
H72 H 0.3755 0.1372 0.3174
H73 H 0.3145 0.1489 0.2791
C73 C 0.4045(13) 0.4326(14) 0.3875(8)
H77 H 0.3832 0.4440 0.4118
C74 C 0.4778(12) 0.4665(12) 0.3330(9)
C75 C 0.5424(15) 0.8556(15) 0.1337(8)
C78 C 0.5980(13) 0.8008(12) 0.3920(7)
C82 C 0.7520(13) 0.7008(15) 0.0443(9)
H80 H 0.7800 0.6792 0.0288
C85 C 0.9094(15) 0.9032(17) 0.3019(9)
C87 C 0.6053(17) 0.8430(16) 0.1093(10)
C89 C 0.2113(16) 0.5008(18) 0.1755(9)
H82 H 0.1759 0.4564 0.1764
C95 C 0.4162(15) 0.2769(14) 0.3156(10)
C96 C 0.1915(14) 0.7713(14) 0.5034(10)
H86 H 0.1634 0.8013 0.5088
H87 H 0.2054 0.7582 0.5308
H88 H 0.1547 0.7296 0.4786
C98 C 0.3963(15) 0.3654(14) 0.3715(11)
H90 H 0.3701 0.3316 0.3855
C100 C 0.9166(15) 1.1922(15) 0.3410(11)
H91 H 0.9393 1.2072 0.3743
H92 H 0.8557 1.1764 0.3337
C101 C 0.6898(14) 0.3818(15) 0.1060(10)
C106 C 0.5941(13) 0.9100(11) 0.4239(7)
H96 H 0.6140 0.9586 0.4296
C107 C 0.7776(15) 0.3437(13) 0.0092(8)
H97 H 0.8340 0.3820 0.0184
H98 H 0.7411 0.3534 -0.0132
C108 C 0.9846(16) 1.0313(16) 0.2870(9)
H99 H 1.0105 1.0748 0.2817
C114 C 0.7553(15) 0.7648(15) 0.0406(8)
H107 H 0.7897 0.7888 0.0243
C116 C 0.4283(13) 0.7612(13) 0.4489(8)
C118 C 0.7802(19) 0.2740(16) -0.0118(10)
H108 H 0.8185 0.2664 0.0114
C121 C 0.5424(18) 0.9213(15) 0.1411(11)
H112 H 0.5801 0.9568 0.1322
C123 C 0.9227(14) 1.0213(17) 0.3115(10)
C126 C 0.4016(12) 0.6905(14) 0.4397(8)
H115 H 0.3558 0.6625 0.4484
C127 C 0.4477(16) 0.6617(13) 0.4159(10)
C131 C 0.5286(13) 0.8732(13) 0.4396(7)
H120 H 0.5041 0.8979 0.4558
C132 C 0.4940(14) 0.3195(14) 0.2649(9)
C133 C 0.7275(13) 0.5629(13) 0.0622(7)
C134 C 0.3302(16) 0.8770(15) 0.5269(11)
H121 H 0.3027 0.9078 0.5306
H122 H 0.3808 0.8994 0.5181
H123 H 0.3446 0.8670 0.5554
C136 C 0.4263(14) 0.3468(13) 0.3346(9)
C139 C 1.1483(16) 0.799(2) 0.2362(12)
C144 C 0.4455(13) 0.4847(13) 0.3670(8)
C145 C 0.6708(15) 0.3213(15) 0.1198(10)
H134 H 0.6839 0.2860 0.1050
C146 C 0.283(2) 0.312(2) 0.0825(12)
H135 H 0.3102 0.2832 0.0722
H136 H 0.2870 0.3449 0.0651
H137 H 0.2239 0.2821 0.0782
C147 C 0.819(2) 0.2831(17) -0.0513(11)
H138 H 0.8227 0.2406 -0.0651
H139 H 0.8744 0.3216 -0.0401
H140 H 0.7838 0.2931 -0.0739
C148 C 0.3182(15) 0.6305(17) 0.1735(8)
C151 C 0.2852(17) 0.5140(17) 0.1632(8)
C153 C 0.2773(17) 0.3930(17) 0.1455(9)
C155 C 0.6339(15) 0.3119(12) 0.1540(9)
H144 H 0.6223 0.2708 0.1627
C158 C 0.4506(15) 0.2632(12) 0.2801(9)
H146 H 0.4448 0.2180 0.2669
C160 C 0.5321(15) 0.3035(14) 0.2260(10)
C161 C 0.3241(17) 0.3506(15) 0.1324(10)
C163 C 1.1369(17) 0.729(2) 0.2458(13)
H147 H 1.0864 0.6919 0.2242
H148 H 1.1323 0.7317 0.2765
H149 H 1.1849 0.7203 0.2425
C166 C 0.3737(16) 0.7585(16) 0.1800(9)
C170 C 0.695(2) 0.2116(16) -0.0257(13)
H159 H 0.6997 0.1692 -0.0384
H160 H 0.6556 0.2180 -0.0484
H161 H 0.6738 0.2079 0.0008
C171 C 0.199(3) 0.150(2) 0.312(2)
H162 H 0.1972 0.1450 0.2798
H163 H 0.2154 0.1984 0.3273
H164 H 0.1448 0.1210 0.3142
C173 C 0.319(2) 0.3005(16) 0.1631(12)
H167 H 0.3481 0.2723 0.1542
H168 H 0.2611 0.2704 0.1594
H169 H 0.3459 0.3280 0.1948
C175 C 0.236(3) 0.0509(19) 0.323(2)
H171 H 0.1754 0.0271 0.3104
H172 H 0.2523 0.0397 0.3505
H173 H 0.2620 0.0360 0.3006
C179 C 0.951(2) 1.3198(18) 0.3485(16)
H179 H 0.9790 1.3314 0.3805
H180 H 0.8923 1.3104 0.3449
H181 H 0.9773 1.3587 0.3369
C182 C 1.0655(18) 0.866(3) 0.2497(10)
O29 O 1.1059(15) 0.9105(16) 0.2376(9)
O30 O 1.0742(11) 0.8047(13) 0.2498(7)
C183 C 0.263(2) 0.1274(14) 0.3329(15)
H182 H 0.2826 0.1490 0.3663
C187 C 1.1432(18) 0.796(2) 0.1869(11)
H190 H 1.1516 0.8416 0.1829
H191 H 1.0885 0.7614 0.1678
H192 H 1.1862 0.7839 0.1783
O6 O 0.1493(9) 0.2436(9) 0.5678(6)
O12 O 0.5398(10) 0.4511(8) 0.9046(6)
C2 C 0.5658(14) 0.395(2) 0.9648(9)
O15 O 0.4880(8) 0.3373(9) 0.8599(5)
N19 N 0.2036(12) 0.3451(11) 0.6243(7)
H18 H 0.1998 0.3839 0.6343
C8 C 0.5335(17) 0.4233(18) 0.9969(12)
H20 H 0.5341 0.4671 0.9976
N21 N 0.4264(12) 0.4102(9) 0.8474(7)
H21 H 0.4256 0.4499 0.8589
C10 C 0.0921(17) 0.2878(19) 0.4833(8)
O26 O 0.1042(10) 0.3274(8) 0.5631(6)
C39 C 0.6010(15) 0.4373(15) 0.9339(10)
H49 H 0.6473 0.4819 0.9526
H50 H 0.6242 0.4120 0.9146
C49 C 0.0502(16) 0.2824(14) 0.5193(7)
H60 H 0.0026 0.2939 0.5118
H61 H 0.0281 0.2340 0.5205
C83 C 0.1538(16) 0.3002(13) 0.5836(9)
C102 C 0.501(2) 0.391(3) 1.0278(15)
H93 H 0.4834 0.4134 1.0506
C119 C 0.4857(14) 0.3936(16) 0.8686(9)
C125 C 0.5605(16) 0.3291(19) 0.9626(10)
H114 H 0.5785 0.3070 0.9403
C130 C 0.126(2) 0.223(3) 0.4202(12)
H119 H 0.1222 0.1801 0.4034
C135 C 0.529(2) 0.295(2) 0.9934(15)
H124 H 0.5302 0.2525 0.9941
C150 C 0.0880(15) 0.2266(17) 0.4554(10)
H142 H 0.0568 0.1843 0.4608
C152 C 0.179(2) 0.348(2) 0.4392(12)
H143 H 0.2130 0.3907 0.4347
C164 C 0.3630(15) 0.3611(14) 0.8045(8)
H150 H 0.3142 0.3717 0.8004
H151 H 0.3444 0.3135 0.8072
C167 C 0.495(2) 0.325(3) 1.0227(19)
H153 H 0.4660 0.2985 1.0402
C169 C 0.2640(19) 0.3280(17) 0.6513(12)
H157 H 0.2452 0.2773 0.6413
H158 H 0.3179 0.3497 0.6448
C172 C 0.329(4) 0.325(3) 0.723(2)
H165 H 0.3545 0.3074 0.7012
H166 H 0.2913 0.2847 0.7301
C174 C 0.171(2) 0.286(3) 0.4110(14)
H170 H 0.1951 0.2857 0.3866
C176 C 0.395(3) 0.364(3) 0.7633(18)
H174 H 0.4221 0.4128 0.7632
H175 H 0.4370 0.3454 0.7646
C177 C 0.1392(19) 0.3506(19) 0.4741(12)
H176 H 0.1435 0.3935 0.4911
C178 C 0.277(4) 0.349(3) 0.6983(13)
H177 H 0.2222 0.3309 0.7048
H178 H 0.3013 0.3998 0.7090
Cl1 Cl 0.220(3) 0.927(3) 0.1173(16)
Cl2 Cl 0.184(3) 1.042(3) 0.165(2)
Cl4 Cl 0.339(3) 1.020(2) 0.2065(15)
C193 C 0.248(3) 0.998(2) 0.1642(17)
H204 H 0.2813 1.0298 0.1487
O31 O 0.0000 0.5000 0.5000
O32 O -0.121(7) 0.393(4) 0.447(3)
O33 O 0.246(5) 0.559(4) 0.495(3)
Cl3 Cl 1.047(2) 0.2097(18) 1.0082(15)
Cl5 Cl 0.998(4) 0.066(2) 0.9773(12)
C195 C 0.998(6) 0.158(11) 0.989(7)
Cl9 Cl 0.885(5) 0.120(4) 0.9814(19)
C188 C 0.777(4) 0.181(4) 0.135(3)
H193 H 0.8081 0.1929 0.1667
H194 H 0.7778 0.1374 0.1206
C189 C 0.856(4) 0.226(4) 0.122(3)
H195 H 0.8340 0.2584 0.1149
H196 H 0.8402 0.1913 0.0926
C190 C 0.650(3) 0.131(3) 0.1840(18)
H197 H 0.5911 0.0994 0.1713
H198 H 0.6552 0.1757 0.2019
H199 H 0.6778 0.1120 0.2032
C191 C 0.945(4) 0.270(4) 0.118(3)
H200 H 0.9409 0.2720 0.0870
H201 H 0.9823 0.2490 0.1265
H202 H 0.9670 0.3171 0.1384
C194 C 0.692(4) 0.143(4) 0.145(2)
H205 H 0.6559 0.1597 0.1268
H206 H 0.6743 0.0951 0.1266
Cl6 Cl 0.600(6) 0.871(5) -0.076(3)
C192 C 0.635(8) 0.969(15) -0.036(6)
H203 H 0.6425 1.0038 -0.0532
Cl7 Cl 0.694(9) 1.014(6) 0.031(5)
Cl8 Cl 0.519(7) 0.927(5) -0.030(4)
O35 O 0.233(8) 0.067(7) 1.008(4)
O34? O -0.109(6) 0.463(5) 0.477(4)
loop_
_geom_bond_atom_site_label_1
_geom_bond_atom_site_label_2
_geom_bond_site_symmetry_1
_geom_bond_site_symmetry_2
F1 C61 1_555 1_555
F2 C48 1_555 1_555
F3 C140 1_555 1_555
F4 C45 1_555 1_555
F5 C74 1_555 1_555
F6 C15 1_555 1_555
F7 C78 1_555 1_555
F8 C85 1_555 1_555
N1 H1 1_555 1_555
O1 C43 1_555 1_555
O2 C117 1_555 1_555
O3 C76 1_555 1_555
O4 C47 1_555 1_555
N2 H2 1_555 1_555
O5 C160 1_555 1_555
O6 C83 1_555 1_555
O7 C70 1_555 1_555
O8 C180 1_555 1_555
O9 C162 1_555 1_555
O10 C181 1_555 1_555
O11 C133 1_555 1_555
N3 H3 1_555 1_555
O12 C39 1_555 1_555
N4 H4 1_555 1_555
O13 C157 1_555 1_555
C1 H5 1_555 1_555
H6 C1 1_555 1_555
O14 C153 1_555 1_555
N5 H7 1_555 1_555
N6 C26 1_555 1_555
C2 C8 1_555 1_555
N7 H8 1_555 1_555
N8 C60 1_555 1_555
C3 H9 1_555 1_555
O15 C119 1_555 1_555
C4 H10 1_555 1_555
O16 C22 1_555 1_555
O17 C159 1_555 1_555
N9 H11 1_555 1_555
O18 C77 1_555 1_555
O19 C35 1_555 1_555
O20 C33 1_555 1_555
C5 H12 1_555 1_555
O21 C34 1_555 1_555
N10 H13 1_555 1_555
N11 C63 1_555 1_555
O22 C36 1_555 1_555
N12 C72 1_555 1_555
N13 H14 1_555 1_555
O23 C28 1_555 1_555
C6 N27 1_555 1_555
O24 C1 1_555 1_555
N14 H15 1_555 1_555
O25 C87 1_555 1_555
N15 C57 1_555 1_555
N16 H16 1_555 1_555
N17 C148 1_555 1_555
N18 H17 1_555 1_555
N19 H18 1_555 1_555
C7 H19 1_555 1_555
C8 H20 1_555 1_555
N20 C23 1_555 1_555
N21 H21 1_555 1_555
C9 C3 1_555 1_555
C10 C49 1_555 1_555
N22 C38 1_555 1_555
O26 C49 1_555 1_555
N23 C111 1_555 1_555
C11 H22 1_555 1_555
H23 C11 1_555 1_555
H24 C11 1_555 1_555
C12 H25 1_555 1_555
C13 N1 1_555 1_555
C14 H26 1_555 1_555
C15 C30 1_555 1_555
C16 H27 1_555 1_555
N24 C21 1_555 1_555
N25 C51 1_555 1_555
N26 C24 1_555 1_555
C17 H28 1_555 1_555
H29 C17 1_555 1_555
H30 C17 1_555 1_555
C18 N31 1_555 1_555
N27 C127 1_555 1_555
N28 H31 1_555 1_555
C19 H32 1_555 1_555
C20 C6 1_555 1_555
N29 H33 1_555 1_555
C21 C76 1_555 1_555
C22 H34 1_555 1_555
H35 C22 1_555 1_555
C23 C74 1_555 1_555
C24 C50 1_555 1_555
C25 H36 1_555 1_555
C26 C61 1_555 1_555
N30 H37 1_555 1_555
C27 H38 1_555 1_555
C28 H39 1_555 1_555
H40 C28 1_555 1_555
C29 H41 1_555 1_555
H42 C29 1_555 1_555
H43 C29 1_555 1_555
C30 N10 1_555 1_555
C31 N18 1_555 1_555
C32 H44 1_555 1_555
H45 C32 1_555 1_555
H46 C32 1_555 1_555
C33 C5 1_555 1_555
C34 H47 1_555 1_555
H48 C34 1_555 1_555
C35 C3 1_555 1_555
C36 N13 1_555 1_555
C37 N24 1_555 1_555
C38 N7 1_555 1_555
N31 C9 1_555 1_555
C39 C2 1_555 1_555
H49 C39 1_555 1_555
H50 C39 1_555 1_555
C40 H51 1_555 1_555
C41 C4 1_555 1_555
H52 C41 1_555 1_555
O27 C154 1_555 1_555
C42 H53 1_555 1_555
C43 H54 1_555 1_555
H55 C43 1_555 1_555
C44 H56 1_555 1_555
H57 C44 1_555 1_555
H58 C44 1_555 1_555
C45 C46 1_555 1_555
N32 H59 1_555 1_555
C46 N9 1_555 1_555
O28 C166 1_555 1_555
C47 N1 1_555 1_555
C48 C99 1_555 1_555
C49 H60 1_555 1_555
H61 C49 1_555 1_555
C50 C40 1_555 1_555
H62 C50 1_555 1_555
C51 C5 1_555 1_555
C52 C57 1_555 1_555
C53 C14 1_555 1_555
H63 C53 1_555 1_555
H64 C53 1_555 1_555
H65 C53 1_555 1_555
C54 C16 1_555 1_555
H66 C54 1_555 1_555
C55 C22 1_555 1_555
H67 C55 1_555 1_555
C56 H68 1_555 1_555
C57 C45 1_555 1_555
C58 H69 1_555 1_555
C59 H70 1_555 1_555
C60 C66 1_555 1_555
C61 C31 1_555 1_555
C62 O21 1_555 1_555
C63 N5 1_555 1_555
C64 N11 1_555 1_555
C65 N4 1_555 1_555
C66 C67 1_555 1_555
C67 O1 1_555 1_555
C68 C15 1_555 1_555
C69 H71 1_555 1_555
C70 H72 1_555 1_555
H73 C70 1_555 1_555
C71 H74 1_555 1_555
H75 C71 1_555 1_555
H76 C71 1_555 1_555
C72 C69 1_555 1_555
C73 H77 1_555 1_555
C74 C144 1_555 1_555
C75 N26 1_555 1_555
C76 N7 1_555 1_555
C77 N18 1_555 1_555
C78 C6 1_555 1_555
C79 C19 1_555 1_555
H78 C79 1_555 1_555
C80 H79 1_555 1_555
C81 C26 1_555 1_555
C82 C63 1_555 1_555
H80 C82 1_555 1_555
C83 N19 1_555 1_555
C84 C11 1_555 1_555
H81 C84 1_555 1_555
C85 C18 1_555 1_555
C86 N6 1_555 1_555
C87 N14 1_555 1_555
C88 C25 1_555 1_555
C89 C41 1_555 1_555
H82 C89 1_555 1_555
C90 C31 1_555 1_555
H83 C90 1_555 1_555
C91 C25 1_555 1_555
H84 C91 1_555 1_555
C92 O23 1_555 1_555
C93 C21 1_555 1_555
H85 C93 1_555 1_555
C94 N8 1_555 1_555
C95 O7 1_555 1_555
C96 C55 1_555 1_555
H86 C96 1_555 1_555
H87 C96 1_555 1_555
H88 C96 1_555 1_555
C97 C54 1_555 1_555
H89 C97 1_555 1_555
C98 C73 1_555 1_555
H90 C98 1_555 1_555
C99 C7 1_555 1_555
C100 O19 1_555 1_555
H91 C100 1_555 1_555
H92 C100 1_555 1_555
C101 C33 1_555 1_555
C102 C8 1_555 1_555
H93 C102 1_555 1_555
C103 C28 1_555 1_555
H94 C103 1_555 1_555
C104 C92 1_555 1_555
C105 C1 1_555 1_555
H95 C105 1_555 1_555
C106 C13 1_555 1_555
H96 C106 1_555 1_555
C107 O20 1_555 1_555
H97 C107 1_555 1_555
H98 C107 1_555 1_555
C108 C42 1_555 1_555
H99 C108 1_555 1_555
C109 C103 1_555 1_555
H100 C109 1_555 1_555
H101 C109 1_555 1_555
H102 C109 1_555 1_555
C110 H103 1_555 1_555
H104 C110 1_555 1_555
H105 C110 1_555 1_555
C111 N3 1_555 1_555
C112 C37 1_555 1_555
H106 C112 1_555 1_555
C113 O24 1_555 1_555
C114 C12 1_555 1_555
H107 C114 1_555 1_555
C115 N23 1_555 1_555
C116 O16 1_555 1_555
C117 C44 1_555 1_555
C118 C107 1_555 1_555
H108 C118 1_555 1_555
C119 O12 1_555 1_555
C120 C84 1_555 1_555
H109 C120 1_555 1_555
H110 C120 1_555 1_555
H111 C120 1_555 1_555
C121 C40 1_555 1_555
H112 C121 1_555 1_555
C122 C7 1_555 1_555
H113 C122 1_555 1_555
C123 C18 1_555 1_555
C124 N2 1_555 1_555
C125 C2 1_555 1_555
H114 C125 1_555 1_555
C126 C116 1_555 1_555
H115 C126 1_555 1_555
C127 C36 1_555 1_555
C128 C103 1_555 1_555
H116 C128 1_555 1_555
H117 C128 1_555 1_555
H118 C128 1_555 1_555
C129 N12 1_555 1_555
C130 H119 1_555 1_555
C131 C20 1_555 1_555
H120 C131 1_555 1_555
C132 N20 1_555 1_555
C133 N5 1_555 1_555
C134 C55 1_555 1_555
H121 C134 1_555 1_555
H122 C134 1_555 1_555
H123 C134 1_555 1_555
C135 C125 1_555 1_555
H124 C135 1_555 1_555
C136 C23 1_555 1_555
C137 N15 1_555 1_555
C138 C117 1_555 1_555
H125 C138 1_555 1_555
H126 C138 1_555 1_555
H127 C138 1_555 1_555
C139 C29 1_555 1_555
C140 C60 1_555 1_555
C141 C110 1_555 1_555
C142 C141 1_555 1_555
H128 C142 1_555 1_555
H129 C142 1_555 1_555
H130 C142 1_555 1_555
C143 C117 1_555 1_555
H131 C143 1_555 1_555
H132 C143 1_555 1_555
H133 C143 1_555 1_555
C144 N13 1_555 1_555
C145 C101 1_555 1_555
H134 C145 1_555 1_555
C146 H135 1_555 1_555
H136 C146 1_555 1_555
H137 C146 1_555 1_555
C147 C118 1_555 1_555
H138 C147 1_555 1_555
H139 C147 1_555 1_555
H140 C147 1_555 1_555
C148 C4 1_555 1_555
C149 C27 1_555 1_555
H141 C149 1_555 1_555
C150 C10 1_555 1_555
H142 C150 1_555 1_555
C151 N16 1_555 1_555
C152 H143 1_555 1_555
C153 N16 1_555 1_555
C154 N2 1_555 1_555
C155 C30 1_555 1_555
H144 C155 1_555 1_555
C156 C67 1_555 1_555
H145 C156 1_555 1_555
C157 N29 1_555 1_555
C158 C95 1_555 1_555
H146 C158 1_555 1_555
C159 N28 1_555 1_555
C160 N10 1_555 1_555
C161 C32 1_555 1_555
C162 N9 1_555 1_555
C163 C139 1_555 1_555
H147 C163 1_555 1_555
H148 C163 1_555 1_555
H149 C163 1_555 1_555
C164 N21 1_555 1_555
H150 C164 1_555 1_555
H151 C164 1_555 1_555
C165 C62 1_555 1_555
H152 C165 1_555 1_555
C166 C24 1_555 1_555
C167 C102 1_555 1_555
H153 C167 1_555 1_555
C168 C141 1_555 1_555
H154 C168 1_555 1_555
H155 C168 1_555 1_555
H156 C168 1_555 1_555
C169 N19 1_555 1_555
H157 C169 1_555 1_555
H158 C169 1_555 1_555
C170 C118 1_555 1_555
H159 C170 1_555 1_555
H160 C170 1_555 1_555
H161 C170 1_555 1_555
C171 H162 1_555 1_555
H163 C171 1_555 1_555
H164 C171 1_555 1_555
C172 H165 1_555 1_555
H166 C172 1_555 1_555
C173 C161 1_555 1_555
H167 C173 1_555 1_555
H168 C173 1_555 1_555
H169 C173 1_555 1_555
C174 C130 1_555 1_555
H170 C174 1_555 1_555
C175 H171 1_555 1_555
H172 C175 1_555 1_555
H173 C175 1_555 1_555
C176 C164 1_555 1_555
H174 C176 1_555 1_555
H175 C176 1_555 1_555
C177 C10 1_555 1_555
H176 C177 1_555 1_555
C178 C169 1_555 1_555
H177 C178 1_555 1_555
H178 C178 1_555 1_555
C179 C14 1_555 1_555
H179 C179 1_555 1_555
H180 C179 1_555 1_555
H181 C179 1_555 1_555
C180 N3 1_555 1_555
C181 O2 1_555 1_555
C182 N4 1_555 1_555
O29 C182 1_555 1_555
O30 C139 1_555 1_555
C183 C70 1_555 1_555
H182 C183 1_555 1_555
C184 C34 1_555 1_555
H183 C184 1_555 1_555
Cl1 C193 1_555 1_555
C185 C184 1_555 1_555
H184 C185 1_555 1_555
H185 C185 1_555 1_555
H186 C185 1_555 1_555
Cl2 C193 1_555 1_555
C186 C184 1_555 1_555
H187 C186 1_555 1_555
H188 C186 1_555 1_555
H189 C186 1_555 1_555
C187 C139 1_555 1_555
H190 C187 1_555 1_555
H191 C187 1_555 1_555
H192 C187 1_555 1_555
Cl3 C195 1_555 1_555
Cl4 C193 1_555 1_555
C188 H193 1_555 1_555
H194 C188 1_555 1_555
C189 C188 1_555 1_555
H195 C189 1_555 1_555
H196 C189 1_555 1_555
Cl5 C195 1_555 1_555
C190 H197 1_555 1_555
H198 C190 1_555 1_555
H199 C190 1_555 1_555
C191 C189 1_555 1_555
H200 C191 1_555 1_555
H201 C191 1_555 1_555
H202 C191 1_555 1_555
Cl6 C192 1_555 1_555
C192 H203 1_555 1_555
C193 H204 1_555 1_555
Cl7 C192 1_555 1_555
Cl8 C192 1_555 1_555
C194 C188 1_555 1_555
H205 C194 1_555 1_555
H206 C194 1_555 1_555
C195 Cl9 1_555 1_555
N14 C64 1_555 1_555
N17 C151 1_555 1_555
N21 C119 1_555 1_555
C9 C47 1_555 1_555
N22 C124 1_555 1_555
O26 C83 1_555 1_555
C12 C64 1_555 1_555
C13 C78 1_555 1_555
C14 C100 1_555 1_555
C16 C38 1_555 1_555
N25 C68 1_555 1_555
C17 C105 1_555 1_555
N28 C99 1_555 1_555
C19 C46 1_555 1_555
C20 C116 1_555 1_555
N29 C115 1_555 1_555
N30 C88 1_555 1_555
N30 C181 1_555 1_555
C27 C115 1_555 1_555
C35 C123 1_555 1_555
C37 C180 1_555 1_555
C42 C65 1_555 1_555
C43 C84 1_555 1_555
N32 C148 1_555 1_555
N32 C166 1_555 1_555
C48 C129 1_555 1_555
C51 C133 1_555 1_555
C52 C79 1_555 1_555
C52 C113 1_555 1_555
C56 C93 1_555 1_555
C56 C112 1_555 1_555
C58 C111 1_555 1_555
C58 C149 1_555 1_555
C59 C81 1_555 1_555
C59 C90 1_555 1_555
C62 C81 1_555 1_555
C65 C85 1_555 1_555
C66 C91 1_555 1_555
C68 C101 1_555 1_555
C69 C92 1_555 1_555
C71 C105 1_555 1_555
C72 C157 1_555 1_555
C73 C144 1_555 1_555
C75 C87 1_555 1_555
C75 C121 1_555 1_555
C77 C94 1_555 1_555
C80 C113 1_555 1_555
C80 C137 1_555 1_555
C82 C114 1_555 1_555
C86 C162 1_555 1_555
C86 C165 1_555 1_555
C88 C140 1_555 1_555
C89 C151 1_555 1_555
C94 C156 1_555 1_555
C95 C136 1_555 1_555
C97 C124 1_555 1_555
C98 C136 1_555 1_555
C104 C122 1_555 1_555
C104 C129 1_555 1_555
C106 C131 1_555 1_555
C108 C123 1_555 1_555
C126 C127 1_555 1_555
C130 C150 1_555 1_555
C132 C158 1_555 1_555
C132 C160 1_555 1_555
C135 C167 1_555 1_555
C137 C159 1_555 1_555
C141 C154 1_555 1_555
C145 C155 1_555 1_555
C146 C161 1_555 1_555
C152 C174 1_555 1_555
C152 C177 1_555 1_555
C153 C161 1_555 1_555
C171 C183 1_555 1_555
C172 C176 1_555 1_555
C172 C178 1_555 1_555
C175 C183 1_555 1_555
C182 O30 1_555 1_555
C190 C194 1_555 1_555

#END
