
#######################################################################
#
#                 Cambridge Crystallographic Data Centre
#                                CCDC 
#
#######################################################################
#
# If this CIF has been generated from an entry in the Cambridge 
# Structural Database, then it will include bibliographic, chemical, 
# crystal, experimental, refinement or atomic coordinate data resulting 
# from the CCDC's data processing and validation procedures.
#
#######################################################################

data_EWOFED
_chemical_compound_source        
'fermentation extract from mangrove endophytic fungus Lasiodiplodia theobromae ZJHQ1'
_chemical_name_common            'Chloropreussomerin B'
_chemical_formula_moiety         'C22 H17 Cl1 O8'
_chemical_name_systematic        
9-chloro-6-hydroxy-10,20-dimethoxy-2,12,21-trioxahexacyclo[9.9.1.1^1,13^.1^3,7^.0^11,23^.0^17,22^]tricosa-3(23),4,6,13(22),14,16-hexaene-8,18-dione
_chemical_properties_biological  'cytotoxic activity'
_symmetry_cell_setting           orthorhombic
_symmetry_space_group_name_H-M   'P 21 21 21'
_symmetry_Int_Tables_number      19
_space_group_name_Hall           'P 2ac 2ab'
loop_
_symmetry_equiv_pos_site_id
_symmetry_equiv_pos_as_xyz
1 x,y,z
2 1/2-x,-y,1/2+z
3 1/2+x,1/2-y,-z
4 -x,1/2+y,1/2-z
_cell_length_a                   8.83839(4)
_cell_length_b                   12.56606(5)
_cell_length_c                   17.92319(8)
_cell_angle_alpha                90
_cell_angle_beta                 90
_cell_angle_gamma                90
_cell_volume                     1990.62
_exptl_crystal_colour            yellow
_exptl_crystal_description       block
_chemical_melting_point          '234-236 deg.C'
_cell_formula_units_Z            4
loop_
_atom_site_label
_atom_site_type_symbol
_atom_site_fract_x
_atom_site_fract_y
_atom_site_fract_z
Cl1 Cl 0.82471(6) 0.19626(4) 0.10376(3)
O1 O 0.81268(18) -0.03614(12) 0.10393(8)
O2 O 1.11099(14) 0.08093(11) 0.28576(7)
O3 O 0.72160(15) 0.16221(11) 0.26386(7)
O4 O 0.89645(15) -0.03925(11) 0.43577(7)
O5 O 0.93724(14) 0.12609(10) 0.37907(7)
O6 O 0.72301(19) -0.21229(12) 0.16748(8)
H1 H 0.7518 -0.1765 0.1319
O7 O 1.08251(16) 0.19160(11) 0.51363(8)
C1 C 0.8789(2) 0.15913(15) 0.25018(10)
H2 H 0.9224 0.2307 0.2537
C2 C 0.8382(2) -0.06604(15) 0.23319(10)
O8 O 1.2791(2) -0.06411(15) 0.59345(10)
C3 C 0.7931(2) -0.18127(15) 0.36530(11)
H3 H 0.7783 -0.2195 0.4091
C4 C 0.95414(19) 0.08461(15) 0.30623(10)
C5 C 0.8613(2) -0.08107(15) 0.36733(11)
C6 C 0.8481(2) -0.00111(15) 0.16507(11)
C7 C 0.7480(2) -0.22315(15) 0.29780(12)
H4 H 0.7021 -0.2897 0.2965
C8 C 1.4009(2) -0.04308(17) 0.44657(14)
H5 H 1.4669 -0.0710 0.4819
C9 C 1.1533(2) 0.02140(14) 0.41160(11)
C10 C 0.88536(19) -0.02502(14) 0.30256(11)
C11 C 0.9874(2) 0.10089(16) 0.50965(10)
H6 H 0.8831 0.1207 0.5221
C12 C 1.3526(2) 0.01463(16) 0.32021(13)
H7 H 1.3871 0.0263 0.2719
C13 C 0.9934(2) 0.05259(14) 0.43205(10)
C14 C 1.0460(3) 0.01901(18) 0.56529(11)
H8 H 1.0512 0.0516 0.6143
H9 H 0.9746 -0.0395 0.5680
C15 C 1.2032(2) 0.03757(14) 0.33962(11)
C16 C 1.2513(2) -0.01789(15) 0.46623(12)
C17 C 0.9061(2) 0.11268(15) 0.17286(10)
H10 H 1.0156 0.1114 0.1644
C18 C 1.2006(3) -0.02473(16) 0.54544(12)
C19 C 0.7701(2) -0.16717(15) 0.23120(11)
C20 C 1.4487(2) -0.02613(18) 0.37466(15)
H11 H 1.5481 -0.0423 0.3620
C21 C 0.6719(3) 0.25409(19) 0.30244(14)
H12 H 0.6974 0.3164 0.2741
H13 H 0.7203 0.2574 0.3503
H14 H 0.5642 0.2508 0.3090
C22 C 1.0053(3) 0.29079(17) 0.50675(13)
H15 H 0.9599 0.2956 0.4582
H16 H 1.0759 0.3481 0.5132
H17 H 0.9280 0.2954 0.5442
loop_
_geom_bond_atom_site_label_1
_geom_bond_atom_site_label_2
_geom_bond_site_symmetry_1
_geom_bond_site_symmetry_2
Cl1 C17 1_555 1_555
O1 C6 1_555 1_555
O2 C4 1_555 1_555
O3 C1 1_555 1_555
O4 C5 1_555 1_555
O5 C4 1_555 1_555
O6 H1 1_555 1_555
O7 C11 1_555 1_555
C1 H2 1_555 1_555
C2 C6 1_555 1_555
O8 C18 1_555 1_555
C3 H3 1_555 1_555
C4 C1 1_555 1_555
C5 C3 1_555 1_555
C6 C17 1_555 1_555
C7 C3 1_555 1_555
H4 C7 1_555 1_555
C8 H5 1_555 1_555
C9 C13 1_555 1_555
C10 C2 1_555 1_555
C11 H6 1_555 1_555
C12 H7 1_555 1_555
C13 O4 1_555 1_555
C14 C11 1_555 1_555
H8 C14 1_555 1_555
H9 C14 1_555 1_555
C15 O2 1_555 1_555
C16 C8 1_555 1_555
C17 C1 1_555 1_555
H10 C17 1_555 1_555
C18 C14 1_555 1_555
C19 O6 1_555 1_555
C20 C8 1_555 1_555
H11 C20 1_555 1_555
C21 O3 1_555 1_555
H12 C21 1_555 1_555
H13 C21 1_555 1_555
H14 C21 1_555 1_555
C22 O7 1_555 1_555
H15 C22 1_555 1_555
H16 C22 1_555 1_555
H17 C22 1_555 1_555
O5 C13 1_555 1_555
C2 C19 1_555 1_555
C4 C10 1_555 1_555
C5 C10 1_555 1_555
C7 C19 1_555 1_555
C9 C15 1_555 1_555
C9 C16 1_555 1_555
C11 C13 1_555 1_555
C12 C15 1_555 1_555
C12 C20 1_555 1_555
C16 C18 1_555 1_555

#END
