
#######################################################################
#
#                 Cambridge Crystallographic Data Centre
#                                CCDC 
#
#######################################################################
#
# If this CIF has been generated from an entry in the Cambridge 
# Structural Database, then it will include bibliographic, chemical, 
# crystal, experimental, refinement or atomic coordinate data resulting 
# from the CCDC's data processing and validation procedures.
#
#######################################################################

data_EWOGIG
_chemical_name_common            
'Pentaerythritoltetrakis(2,3,5,6-tetrafluoro-4-iodophenyl) ether bis(1,2-diaminoethane)'
_chemical_formula_moiety         'C29 H8 F16 I4 O4,2(C2 H8 N2)'
_chemical_name_systematic        
'tetrakis(2,3,5,6-Tetrafluoro-4-iodophenoxymethyl)methane bis(1,2-diaminoethane)'
_symmetry_cell_setting           monoclinic
_symmetry_space_group_name_H-M   'C 2/c'
_symmetry_Int_Tables_number      15
_space_group_name_Hall           '-C 2yn'
loop_
_symmetry_equiv_pos_site_id
_symmetry_equiv_pos_as_xyz
1 x,y,z
2 1/2+x,1/2+y,z
3 x,-y,1/2+z
4 1/2+x,1/2-y,1/2+z
5 -x,-y,-z
6 1/2-x,1/2-y,-z
7 -x,y,1/2-z
8 1/2-x,1/2+y,1/2-z
_cell_length_a                   22.805(5)
_cell_length_b                   15.455(3)
_cell_length_c                   15.417(3)
_cell_angle_alpha                90
_cell_angle_beta                 129.68(3)
_cell_angle_gamma                90
_cell_volume                     4181.93
_exptl_crystal_colour            colorless
_exptl_crystal_description       prism
_chemical_melting_point          157-162deg.C
_cell_formula_units_Z            4
loop_
_atom_site_label
_atom_site_type_symbol
_atom_site_fract_x
_atom_site_fract_y
_atom_site_fract_z
C1 C 0.0000 0.4419(3) 0.2500
C2 C -0.0697(2) 0.4975(3) 0.1955(3)
H1 H -0.1146 0.4612 0.1585
H2 H -0.0650 0.5317 0.2525
O1 O -0.07749(18) 0.5538(2) 0.1143(3)
C3 C -0.1428(2) 0.5513(3) 0.0048(3)
C4 C -0.2140(3) 0.5604(3) -0.0282(4)
C5 C -0.2757(3) 0.5676(3) -0.1370(4)
C6 C -0.2736(2) 0.5595(2) -0.2235(3)
C7 C -0.2016(3) 0.5508(3) -0.1905(4)
C8 C -0.1396(2) 0.5451(3) -0.0820(4)
C9 C 0.0067(3) 0.3850(3) 0.3377(3)
H3 H 0.0159 0.4208 0.3970
H4 H -0.0403 0.3533 0.3024
O2 O 0.0689(2) 0.3257(2) 0.3843(3)
C10 C 0.1227(3) 0.3233(3) 0.4936(4)
C11 C 0.1111(3) 0.3133(3) 0.5706(4)
C12 C 0.1719(3) 0.3059(3) 0.6854(4)
C13 C 0.2437(3) 0.3103(3) 0.7257(4)
C14 C 0.2559(3) 0.3205(4) 0.6495(5)
C15 C 0.1996(3) 0.3293(3) 0.5364(5)
F1 F -0.2228(2) 0.5707(3) 0.0502(3)
F2 F -0.34430(19) 0.5752(3) -0.1637(3)
F3 F -0.1941(2) 0.5441(3) -0.2682(3)
F4 F -0.07106(17) 0.5364(3) -0.0536(3)
I1 I -0.370345(17) 0.57098(2) -0.39347(2)
F5 F 0.03833(18) 0.3033(3) 0.5304(3)
F6 F 0.1540(2) 0.2932(3) 0.7508(3)
F7 F 0.3288(2) 0.3275(3) 0.6864(4)
F8 F 0.2267(3) 0.3470(2) 0.4793(3)
I2 I 0.33544(3) 0.29482(3) 0.89724(3)
C2F C 0.0697(2) 0.4975(3) 0.3045(3)
H1F H 0.1146 0.4612 0.3415
H2F H 0.0650 0.5317 0.2475
O1F O 0.07749(18) 0.5538(2) 0.3857(3)
C3F C 0.1428(2) 0.5513(3) 0.4952(3)
C4F C 0.2140(3) 0.5604(3) 0.5282(4)
C5F C 0.2757(3) 0.5676(3) 0.6370(4)
C6F C 0.2736(2) 0.5595(2) 0.7235(3)
C7F C 0.2016(3) 0.5508(3) 0.6905(4)
C8F C 0.1396(2) 0.5451(3) 0.5820(4)
F4F F 0.07106(17) 0.5364(3) 0.5536(3)
F3F F 0.1941(2) 0.5441(3) 0.7682(3)
I1F I 0.370345(17) 0.57098(2) 0.89347(2)
F2F F 0.34430(19) 0.5752(3) 0.6637(3)
F1F F 0.2228(2) 0.5707(3) 0.4498(3)
C9F C -0.0067(3) 0.3850(3) 0.1623(3)
H3F H -0.0159 0.4208 0.1030
H4F H 0.0403 0.3533 0.1976
O2F O -0.0689(2) 0.3257(2) 0.1157(3)
C10F C -0.1227(3) 0.3233(3) 0.0064(4)
C11F C -0.1111(3) 0.3133(3) -0.0706(4)
C12F C -0.1719(3) 0.3059(3) -0.1854(4)
C13F C -0.2437(3) 0.3103(3) -0.2257(4)
C14F C -0.2559(3) 0.3205(4) -0.1495(5)
C15F C -0.1996(3) 0.3293(3) -0.0364(5)
F8F F -0.2267(3) 0.3470(2) 0.0207(3)
F7F F -0.3288(2) 0.3275(3) -0.1864(4)
I2F I -0.33544(3) 0.29482(3) -0.39724(3)
F6F F -0.1540(2) 0.2932(3) -0.2508(3)
F5F F -0.03833(18) 0.3033(3) -0.0304(3)
C16 C -0.4693(4) 0.5932(4) -0.6847(5)
H5 H -0.4392 0.5409 -0.6626
H6 H -0.4355 0.6417 -0.6632
N1 N -0.4934(4) 0.5977(4) -0.6233(6)
C16F C -0.5307(4) 0.5932(4) -0.8153(5)
H5F H -0.5608 0.5409 -0.8374
H6F H -0.5645 0.6417 -0.8368
N1F N -0.5066(4) 0.5977(4) -0.8767(6)
C17 C 0.4847(7) 0.3248(7) 1.1882(6)
H7 H 0.4536 0.3757 1.1485
H8 H 0.5265 0.3245 1.1866
N2 N 0.4427(7) 0.2525(6) 1.1405(8)
C17F C 0.5153(7) 0.3248(7) 1.3118(6)
H7F H 0.5464 0.3757 1.3515
H8F H 0.4735 0.3245 1.3134
N2F N 0.5573(7) 0.2525(6) 1.3595(8)
loop_
_geom_bond_atom_site_label_1
_geom_bond_atom_site_label_2
_geom_bond_site_symmetry_1
_geom_bond_site_symmetry_2
C1 C2 1_555 1_555
C2 H1 1_555 1_555
H2 C2 1_555 1_555
O1 C2 1_555 1_555
C3 O1 1_555 1_555
C4 C3 1_555 1_555
C5 C4 1_555 1_555
C6 C5 1_555 1_555
C7 C6 1_555 1_555
C8 C3 1_555 1_555
C9 C1 1_555 1_555
H3 C9 1_555 1_555
H4 C9 1_555 1_555
O2 C9 1_555 1_555
C10 O2 1_555 1_555
C11 C10 1_555 1_555
C12 C11 1_555 1_555
C13 C12 1_555 1_555
C14 C13 1_555 1_555
C15 C10 1_555 1_555
F1 C4 1_555 1_555
F2 C5 1_555 1_555
F3 C7 1_555 1_555
F4 C8 1_555 1_555
I1 C6 1_555 1_555
F5 C11 1_555 1_555
F6 C12 1_555 1_555
F7 C14 1_555 1_555
F8 C15 1_555 1_555
I2 C13 1_555 1_555
C16 H5 1_555 1_555
H6 C16 1_555 1_555
N1 C16 1_555 1_555
C17 H7 1_555 1_555
H8 C17 1_555 1_555
N2 C17 1_555 1_555
C2F C1 1_555 1_555
H1F C2F 1_555 1_555
H2F C2F 1_555 1_555
O1F C2F 1_555 1_555
C3F O1F 1_555 1_555
C4F C3F 1_555 1_555
C5F C4F 1_555 1_555
C6F C5F 1_555 1_555
C7F C6F 1_555 1_555
C8F C3F 1_555 1_555
F4F C8F 1_555 1_555
F3F C7F 1_555 1_555
I1F C6F 1_555 1_555
F2F C5F 1_555 1_555
F1F C4F 1_555 1_555
C9F C1 1_555 1_555
H3F C9F 1_555 1_555
H4F C9F 1_555 1_555
O2F C9F 1_555 1_555
C10F O2F 1_555 1_555
C11F C10F 1_555 1_555
C12F C11F 1_555 1_555
C13F C12F 1_555 1_555
C14F C13F 1_555 1_555
C15F C10F 1_555 1_555
F8F C15F 1_555 1_555
F7F C14F 1_555 1_555
I2F C13F 1_555 1_555
F6F C12F 1_555 1_555
F5F C11F 1_555 1_555
C16F C16 1_555 1_555
H5F C16F 1_555 1_555
H6F C16F 1_555 1_555
N1F C16F 1_555 1_555
C17F C17 1_555 1_555
H7F C17F 1_555 1_555
H8F C17F 1_555 1_555
N2F C17F 1_555 1_555
C7 C8 1_555 1_555
C14 C15 1_555 1_555
C7F C8F 1_555 1_555
C14F C15F 1_555 1_555

#END
