
#######################################################################
#
#                 Cambridge Crystallographic Data Centre
#                                CCDC 
#
#######################################################################
#
# If this CIF has been generated from an entry in the Cambridge 
# Structural Database, then it will include bibliographic, chemical, 
# crystal, experimental, refinement or atomic coordinate data resulting 
# from the CCDC's data processing and validation procedures.
#
#######################################################################

data_EWOHEF
_chemical_formula_moiety         'C23 H21 N1 O3'
_chemical_name_systematic        
6'-methoxy-4',6'-diphenylspiro[cyclopentane-1,1'-furo[3,4-c]pyrrol]-3'(6'H)-one
_symmetry_cell_setting           triclinic
_symmetry_space_group_name_H-M   'P -1'
_symmetry_Int_Tables_number      2
_space_group_name_Hall           '-P 1'
loop_
_symmetry_equiv_pos_site_id
_symmetry_equiv_pos_as_xyz
1 x,y,z
2 -x,-y,-z
_cell_length_a                   8.6755(7)
_cell_length_b                   10.6916(10)
_cell_length_c                   11.4390(9)
_cell_angle_alpha                69.968(8)
_cell_angle_beta                 73.363(7)
_cell_angle_gamma                72.428(7)
_cell_volume                     930.296
_exptl_crystal_colour            colorless
_exptl_crystal_description       block
_cell_formula_units_Z            2
loop_
_atom_site_label
_atom_site_type_symbol
_atom_site_fract_x
_atom_site_fract_y
_atom_site_fract_z
C1 C 0.72889(19) 0.43028(15) 0.24574(15)
C2 C 0.7874(2) 0.46074(17) 0.11603(17)
H1 H 0.8376 0.3895 0.0775
C3 C 0.7728(2) 0.59536(19) 0.04205(18)
H2 H 0.8140 0.6151 -0.0462
C4 C 0.6977(2) 0.70037(17) 0.09790(19)
H3 H 0.6868 0.7918 0.0479
C5 C 0.6393(2) 0.67054(17) 0.22614(19)
H4 H 0.5880 0.7420 0.2643
C6 C 0.6548(2) 0.53646(17) 0.30058(17)
H5 H 0.6148 0.5174 0.3889
C7 C 0.73700(19) 0.28270(15) 0.32749(15)
C8 C 0.60054(19) 0.23019(15) 0.31262(15)
C9 C 0.67037(19) 0.12995(14) 0.25774(15)
C10 C 0.85266(19) 0.10650(14) 0.24024(15)
C11 C 0.97882(19) 0.00050(14) 0.18860(15)
C12 C 1.1450(2) 0.00400(16) 0.16046(15)
H6 H 1.1759 0.0749 0.1729
C13 C 1.2647(2) -0.09643(17) 0.11431(16)
H7 H 1.3765 -0.0927 0.0941
C14 C 1.2208(2) -0.20209(17) 0.09787(17)
H8 H 1.3028 -0.2709 0.0677
C15 C 1.0568(2) -0.20693(17) 0.12557(18)
H9 H 1.0272 -0.2792 0.1146
C16 C 0.9352(2) -0.10494(16) 0.16976(17)
H10 H 0.8233 -0.1073 0.1869
C17 C 0.53780(19) 0.08599(15) 0.23550(16)
C18 C 0.41746(19) 0.26200(15) 0.33458(16)
C19 C 0.3280(2) 0.40447(17) 0.26907(19)
H11 H 0.3442 0.4172 0.1777
H12 H 0.3669 0.4751 0.2816
C20 C 0.1465(3) 0.4093(2) 0.3341(3)
H13 H 0.0894 0.5018 0.3404
H14 H 0.0910 0.3832 0.2854
C21 C 0.1448(3) 0.3105(3) 0.4636(3)
H15 H 0.0792 0.2447 0.4768
H16 H 0.0958 0.3592 0.5289
C22 C 0.3230(2) 0.2365(2) 0.47232(18)
H17 H 0.3316 0.1385 0.5134
H18 H 0.3658 0.2737 0.5207
C23 C 0.7480(3) 0.14688(19) 0.54077(19)
H19 H 0.6640 0.1040 0.5410
H20 H 0.7360 0.1543 0.6253
H21 H 0.8566 0.0919 0.5158
N1 N 0.88993(16) 0.19089(13) 0.27985(14)
O1 O 0.39159(13) 0.16413(11) 0.28107(12)
O2 O 0.54207(14) -0.00038(12) 0.18888(13)
O3 O 0.72969(15) 0.28019(11) 0.45274(11)
loop_
_geom_bond_atom_site_label_1
_geom_bond_atom_site_label_2
_geom_bond_site_symmetry_1
_geom_bond_site_symmetry_2
C1 C2 1_555 1_555
C2 H1 1_555 1_555
C3 C2 1_555 1_555
H2 C3 1_555 1_555
C4 C3 1_555 1_555
H3 C4 1_555 1_555
C5 C4 1_555 1_555
H4 C5 1_555 1_555
C6 C1 1_555 1_555
H5 C6 1_555 1_555
C7 C1 1_555 1_555
C8 C7 1_555 1_555
C9 C8 1_555 1_555
C10 C9 1_555 1_555
C11 C10 1_555 1_555
C12 C11 1_555 1_555
H6 C12 1_555 1_555
C13 C12 1_555 1_555
H7 C13 1_555 1_555
C14 C13 1_555 1_555
H8 C14 1_555 1_555
C15 C14 1_555 1_555
H9 C15 1_555 1_555
C16 C11 1_555 1_555
H10 C16 1_555 1_555
C17 C9 1_555 1_555
C18 C8 1_555 1_555
C19 C18 1_555 1_555
H11 C19 1_555 1_555
H12 C19 1_555 1_555
C20 C19 1_555 1_555
H13 C20 1_555 1_555
H14 C20 1_555 1_555
C21 C20 1_555 1_555
H15 C21 1_555 1_555
H16 C21 1_555 1_555
C22 C18 1_555 1_555
H17 C22 1_555 1_555
H18 C22 1_555 1_555
C23 H19 1_555 1_555
H20 C23 1_555 1_555
H21 C23 1_555 1_555
N1 C7 1_555 1_555
O1 C17 1_555 1_555
O2 C17 1_555 1_555
O3 C7 1_555 1_555
C5 C6 1_555 1_555
C10 N1 1_555 1_555
C15 C16 1_555 1_555
C18 O1 1_555 1_555
C21 C22 1_555 1_555
C23 O3 1_555 1_555

#END
