
#######################################################################
#
#                 Cambridge Crystallographic Data Centre
#                                CCDC 
#
#######################################################################
#
# If this CIF has been generated from an entry in the Cambridge 
# Structural Database, then it will include bibliographic, chemical, 
# crystal, experimental, refinement or atomic coordinate data resulting 
# from the CCDC's data processing and validation procedures.
#
#######################################################################

data_EWOHOO
_chemical_formula_moiety         'C22 H19 N3 2+,4(H2 O1),2(Br1 1-)'
_chemical_name_systematic        
"2,2'-[4-(4-methylphenyl)pyridine-2,6-diyl]dipyridinium dibromide tetrahydrate"
_symmetry_cell_setting           monoclinic
_symmetry_space_group_name_H-M   'C 2/c'
_symmetry_Int_Tables_number      15
_space_group_name_Hall           '-C 2yn'
loop_
_symmetry_equiv_pos_site_id
_symmetry_equiv_pos_as_xyz
1 x,y,z
2 -x,y,1/2-z
3 1/2+x,1/2+y,z
4 1/2-x,1/2+y,1/2-z
5 -x,-y,-z
6 x,-y,1/2+z
7 1/2-x,1/2-y,-z
8 1/2+x,1/2-y,1/2+z
_cell_length_a                   28.4117(8)
_cell_length_b                   7.9256(2)
_cell_length_c                   24.8399(7)
_cell_angle_alpha                90
_cell_angle_beta                 124.153(3)
_cell_angle_gamma                90
_cell_volume                     4628.81
_cell_formula_units_Z            8
loop_
_atom_site_label
_atom_site_type_symbol
_atom_site_fract_x
_atom_site_fract_y
_atom_site_fract_z
Br1 Br 0.335492(8) 0.18782(2) 0.210695(8)
Br2 Br 0.093135(7) -0.00527(2) 0.593372(9)
C1 C 0.46363(7) 0.6819(2) 0.56540(9)
H1 H 0.4851 0.6646 0.5473
C2 C 0.48698(8) 0.7680(2) 0.62310(9)
H2 H 0.5249 0.8087 0.6457
C3 C 0.45443(8) 0.7942(2) 0.64762(9)
H3 H 0.4697 0.8555 0.6869
C4 C 0.39920(7) 0.7309(2) 0.61479(8)
H4 H 0.3767 0.7490 0.6316
C5 C 0.37737(7) 0.6417(2) 0.55777(8)
C6 C 0.32030(7) 0.5626(2) 0.51938(8)
C7 C 0.28404(7) 0.5684(2) 0.54029(8)
H5 H 0.2958 0.6226 0.5801
C8 C 0.22995(7) 0.4936(2) 0.50225(8)
C9 C 0.19008(7) 0.4963(2) 0.52302(8)
C10 C 0.20295(7) 0.5865(2) 0.57798(8)
H6 H 0.2374 0.6487 0.6022
C11 C 0.16582(7) 0.5862(2) 0.59766(8)
H7 H 0.1753 0.6491 0.6350
C12 C 0.11512(7) 0.4959(2) 0.56382(9)
C13 C 0.10217(7) 0.4071(2) 0.50897(9)
H8 H 0.0676 0.3454 0.4849
C14 C 0.13880(7) 0.4066(2) 0.48862(8)
H9 H 0.1289 0.3447 0.4509
C15 C 0.21621(7) 0.4151(2) 0.44481(8)
H10 H 0.1800 0.3640 0.4170
C16 C 0.25575(7) 0.4118(2) 0.42844(8)
C17 C 0.24367(7) 0.3235(2) 0.36933(8)
C18 C 0.19483(7) 0.2333(2) 0.32605(8)
H11 H 0.1655 0.2222 0.3333
C19 C 0.18896(8) 0.1590(2) 0.27176(8)
H12 H 0.1554 0.0978 0.2416
C20 C 0.23208(8) 0.1744(2) 0.26171(8)
H13 H 0.2282 0.1252 0.2245
C21 C 0.28048(8) 0.2618(2) 0.30624(8)
H14 H 0.3108 0.2718 0.3007
C22 C 0.07605(9) 0.4943(3) 0.58673(10)
H15 H 0.0986 0.4838 0.6342
H16 H 0.0499 0.3985 0.5671
H17 H 0.0542 0.5996 0.5738
N1 N 0.41045(6) 0.62280(19) 0.53492(7)
N2 N 0.30703(6) 0.48481(17) 0.46450(7)
N3 N 0.28451(6) 0.33278(18) 0.35763(7)
H18 H 0.3971(9) 0.574(3) 0.4993(11)
H19 H 0.3145(9) 0.385(3) 0.3841(11)
O1 O 0.07946(7) 0.2086(2) 0.34241(7)
H20 H 0.0551(12) 0.206(3) 0.3465(13)
H21 H 0.0757(12) 0.133(4) 0.3195(15)
O2 O 0.51554(6) 0.31584(19) 0.64546(8)
H22 H 0.5286(11) 0.348(3) 0.6277(13)
H25 H 0.5319 0.2210 0.6719
O3 O 0.55669(7) 0.0691(2) 0.73996(9)
H23 H 0.5638(11) 0.121(4) 0.7677(13)
H24 H 0.5852(13) 0.010(3) 0.7542(14)
O4 O 0.06718(7) 0.97152(19) 0.25548(8)
H26 H 0.0927 0.8955 0.2602
H27 H 0.0538 1.0264 0.2216
loop_
_geom_bond_atom_site_label_1
_geom_bond_atom_site_label_2
_geom_bond_site_symmetry_1
_geom_bond_site_symmetry_2
C1 H1 1_555 1_555
C2 C1 1_555 1_555
H2 C2 1_555 1_555
C3 C2 1_555 1_555
H3 C3 1_555 1_555
C4 C3 1_555 1_555
H4 C4 1_555 1_555
C5 C4 1_555 1_555
C6 C5 1_555 1_555
C7 C6 1_555 1_555
H5 C7 1_555 1_555
C8 C7 1_555 1_555
C9 C8 1_555 1_555
C10 C9 1_555 1_555
H6 C10 1_555 1_555
C11 C10 1_555 1_555
H7 C11 1_555 1_555
C12 C11 1_555 1_555
C13 C12 1_555 1_555
H8 C13 1_555 1_555
C14 C9 1_555 1_555
H9 C14 1_555 1_555
C15 C8 1_555 1_555
H10 C15 1_555 1_555
C16 C15 1_555 1_555
C17 C16 1_555 1_555
C18 C17 1_555 1_555
H11 C18 1_555 1_555
C19 C18 1_555 1_555
H12 C19 1_555 1_555
C20 C19 1_555 1_555
H13 C20 1_555 1_555
C21 C20 1_555 1_555
H14 C21 1_555 1_555
C22 C12 1_555 1_555
H15 C22 1_555 1_555
H16 C22 1_555 1_555
H17 C22 1_555 1_555
N1 C1 1_555 1_555
N2 C6 1_555 1_555
N3 C17 1_555 1_555
O1 H20 1_555 1_555
O2 H22 1_555 1_555
O3 H23 1_555 1_555
O4 H26 1_555 1_555
H18 N1 1_555 1_555
H19 N3 1_555 1_555
H21 O1 1_555 1_555
H24 O3 1_555 1_555
H25 O2 1_555 1_555
H27 O4 1_555 1_555
C5 N1 1_555 1_555
C13 C14 1_555 1_555
C16 N2 1_555 1_555
C21 N3 1_555 1_555

#END
