
#######################################################################
#
#                 Cambridge Crystallographic Data Centre
#                                CCDC 
#
#######################################################################
#
# If this CIF has been generated from an entry in the Cambridge 
# Structural Database, then it will include bibliographic, chemical, 
# crystal, experimental, refinement or atomic coordinate data resulting 
# from the CCDC's data processing and validation procedures.
#
#######################################################################

data_EWOJAD
_chemical_formula_moiety         'C24 H30 N4 O2'
_chemical_name_systematic        
8-ethyl-8a-isopropyl-1,3-bis(4-methylphenyl)tetrahydroimidazo[1,2-a][1,3,5]triazine-2,4(1H,3H)-dione
_symmetry_cell_setting           orthorhombic
_symmetry_space_group_name_H-M   'P n a 21'
_symmetry_Int_Tables_number      33
_space_group_name_Hall           'P 2c -2n'
loop_
_symmetry_equiv_pos_site_id
_symmetry_equiv_pos_as_xyz
1 x,y,z
2 -x,-y,1/2+z
3 1/2-x,1/2+y,1/2+z
4 1/2+x,1/2-y,z
_cell_length_a                   11.7784(4)
_cell_length_b                   21.1806(8)
_cell_length_c                   8.4398(3)
_cell_angle_alpha                90
_cell_angle_beta                 90
_cell_angle_gamma                90
_cell_volume                     2105.51
_exptl_crystal_colour            colorless
_exptl_crystal_description       needle
_cell_formula_units_Z            4
loop_
_atom_site_label
_atom_site_type_symbol
_atom_site_fract_x
_atom_site_fract_y
_atom_site_fract_z
C1 C 0.9426(3) 0.86523(14) 0.1509(4)
C2 C 0.7467(3) 0.83397(14) 0.0759(4)
C3 C 0.7802(3) 0.89542(14) 0.3206(4)
C4 C 0.8932(3) 0.85041(16) -0.1243(4)
H1 H 0.9485 0.8193 -0.1584
H2 H 0.9221 0.8923 -0.1472
C5 C 0.7797(3) 0.83960(16) -0.2024(4)
H3 H 0.7677 0.8696 -0.2875
H4 H 0.7752 0.7972 -0.2454
C6 C 0.5842(3) 0.82192(16) -0.1145(4)
H5 H 0.5357 0.8246 -0.0219
H6 H 0.5924 0.7777 -0.1424
C7 C 0.5296(3) 0.85723(19) -0.2511(4)
H7 H 0.4564 0.8393 -0.2730
H8 H 0.5768 0.8538 -0.3434
H9 H 0.5211 0.9009 -0.2232
C8 C 0.7217(3) 0.76667(13) 0.1395(4)
H10 H 0.6390 0.7617 0.1419
C9 C 0.7683(3) 0.71592(14) 0.0291(4)
H11 H 0.7415 0.7234 -0.0767
H12 H 0.7430 0.6752 0.0642
H13 H 0.8498 0.7172 0.0303
C10 C 0.7653(3) 0.75354(14) 0.3066(4)
H14 H 0.7366 0.7851 0.3778
H15 H 0.8468 0.7547 0.3068
H16 H 0.7400 0.7126 0.3402
C11 C 0.9743(3) 0.89201(14) 0.4276(4)
C12 C 1.0414(3) 0.84332(14) 0.4813(4)
H17 H 1.0323 0.8029 0.4399
C13 C 1.1222(3) 0.85430(14) 0.5963(4)
H18 H 1.1681 0.8212 0.6298
C14 C 1.1366(3) 0.91354(14) 0.6631(4)
C15 C 1.0668(3) 0.96148(13) 0.6088(4)
H19 H 1.0743 1.0016 0.6520
C16 C 0.9864(3) 0.95157(14) 0.4925(4)
H20 H 0.9407 0.9847 0.4582
C17 C 1.2230(3) 0.92527(15) 0.7911(4)
H21 H 1.2498 0.9680 0.7841
H22 H 1.2856 0.8968 0.7781
H23 H 1.1887 0.9186 0.8929
C18 C 0.5968(3) 0.90334(13) 0.2043(4)
C19 C 0.5593(3) 0.95201(13) 0.1076(4)
H24 H 0.6086 0.9703 0.0349
C20 C 0.4486(3) 0.97341(14) 0.1192(4)
H25 H 0.4240 1.0050 0.0508
C21 C 0.3735(3) 0.94909(14) 0.2299(4)
C22 C 0.4128(3) 0.90033(14) 0.3258(4)
H26 H 0.3643 0.8828 0.4008
C23 C 0.5223(3) 0.87723(14) 0.3123(4)
H27 H 0.5458 0.8440 0.3763
C24 C 0.2548(3) 0.97389(16) 0.2467(4)
H28 H 0.2478 0.9960 0.3455
H29 H 0.2022 0.9393 0.2445
H30 H 0.2386 1.0022 0.1609
N1 N 0.8953(2) 0.88030(11) 0.3003(3)
N2 N 0.8665(2) 0.84332(11) 0.0449(3)
N3 N 0.7120(2) 0.88247(11) 0.1941(3)
N4 N 0.6959(2) 0.84847(12) -0.0772(3)
O1 O 1.04233(18) 0.87254(10) 0.1229(3)
O2 O 0.74725(18) 0.92047(9) 0.4424(3)
loop_
_geom_bond_atom_site_label_1
_geom_bond_atom_site_label_2
_geom_bond_site_symmetry_1
_geom_bond_site_symmetry_2
C1 N1 1_555 1_555
C2 C8 1_555 1_555
C3 N1 1_555 1_555
C4 H1 1_555 1_555
H2 C4 1_555 1_555
C5 C4 1_555 1_555
H3 C5 1_555 1_555
H4 C5 1_555 1_555
C6 H5 1_555 1_555
H6 C6 1_555 1_555
C7 C6 1_555 1_555
H7 C7 1_555 1_555
H8 C7 1_555 1_555
H9 C7 1_555 1_555
C8 H10 1_555 1_555
C9 C8 1_555 1_555
H11 C9 1_555 1_555
H12 C9 1_555 1_555
H13 C9 1_555 1_555
C10 C8 1_555 1_555
H14 C10 1_555 1_555
H15 C10 1_555 1_555
H16 C10 1_555 1_555
C11 C12 1_555 1_555
C12 H17 1_555 1_555
C13 C12 1_555 1_555
H18 C13 1_555 1_555
C14 C13 1_555 1_555
C15 C14 1_555 1_555
H19 C15 1_555 1_555
C16 C11 1_555 1_555
H20 C16 1_555 1_555
C17 C14 1_555 1_555
H21 C17 1_555 1_555
H22 C17 1_555 1_555
H23 C17 1_555 1_555
C18 C19 1_555 1_555
C19 H24 1_555 1_555
C20 C19 1_555 1_555
H25 C20 1_555 1_555
C21 C20 1_555 1_555
C22 C21 1_555 1_555
H26 C22 1_555 1_555
C23 C18 1_555 1_555
H27 C23 1_555 1_555
C24 C21 1_555 1_555
H28 C24 1_555 1_555
H29 C24 1_555 1_555
H30 C24 1_555 1_555
N1 C11 1_555 1_555
N2 C1 1_555 1_555
N3 C2 1_555 1_555
N4 C2 1_555 1_555
O1 C1 1_555 1_555
O2 C3 1_555 1_555
C2 N2 1_555 1_555
C3 N3 1_555 1_555
C4 N2 1_555 1_555
C5 N4 1_555 1_555
C6 N4 1_555 1_555
C15 C16 1_555 1_555
C18 N3 1_555 1_555
C22 C23 1_555 1_555

#END
