
#######################################################################
#
#                 Cambridge Crystallographic Data Centre
#                                CCDC 
#
#######################################################################
#
# If this CIF has been generated from an entry in the Cambridge 
# Structural Database, then it will include bibliographic, chemical, 
# crystal, experimental, refinement or atomic coordinate data resulting 
# from the CCDC's data processing and validation procedures.
#
#######################################################################

data_EWOYAQ
_chemical_formula_moiety         'C13 H22 N2 O4'
_chemical_name_systematic        
"rac-Dimethyl (Z,Z)-3,3'-(propane-1,2-diyldiamino)dibut-2-enoate"
_symmetry_cell_setting           monoclinic
_symmetry_space_group_name_H-M   'P 21/c'
_symmetry_Int_Tables_number      14
_space_group_name_Hall           '-P 2ybc'
loop_
_symmetry_equiv_pos_site_id
_symmetry_equiv_pos_as_xyz
1 x,y,z
2 x,1/2-y,1/2+z
3 -x,-y,-z
4 -x,1/2+y,1/2-z
_cell_length_a                   8.7205(6)
_cell_length_b                   20.2972(13)
_cell_length_c                   8.8322(6)
_cell_angle_alpha                90
_cell_angle_beta                 102.2950(10)
_cell_angle_gamma                90
_cell_volume                     1527.46
_exptl_crystal_colour            colorless
_exptl_crystal_description       Prism
_chemical_melting_point          '357-359 K'
_cell_formula_units_Z            4
_exptl_crystal_recrystallization_method 'ethyl acetate'
loop_
_atom_site_label
_atom_site_type_symbol
_atom_site_fract_x
_atom_site_fract_y
_atom_site_fract_z
O1 O 0.2984(2) 0.39836(9) 0.6708(2)
O2 O 0.1716(2) 0.30691(9) 0.5695(2)
O3 O 0.1436(2) 0.65939(10) 0.88567(19)
O4 O 0.2321(2) 0.66912(10) 1.14073(19)
N1 N 0.2406(2) 0.50749(9) 0.4871(2)
H1 H 0.2925 0.4911 0.5726
N2 N 0.3495(2) 0.60345(11) 0.7299(2)
H2 H 0.2503 0.6051 0.7265
C1 C 0.2553(4) 0.27025(17) 0.7004(4)
H3 H 0.2225 0.2250 0.6908
H4 H 0.2334 0.2884 0.7939
H5 H 0.3659 0.2728 0.7040
C2 C 0.2061(3) 0.37195(12) 0.5649(3)
C3 C 0.1238(3) 0.40235(11) 0.4267(3)
H6 H 0.0542 0.3769 0.3558
C4 C 0.1419(2) 0.46726(11) 0.3928(2)
C5 C 0.0494(3) 0.49617(13) 0.2446(3)
H7 H 0.0753 0.5420 0.2392
H8 H -0.0607 0.4918 0.2420
H9 H 0.0745 0.4732 0.1580
C6 C 0.2672(3) 0.57622(11) 0.4569(3)
H10 H 0.1713 0.6009 0.4537
H11 H 0.2948 0.5803 0.3565
C7 C 0.3975(3) 0.60483(12) 0.5806(3)
H12 H 0.4919 0.5778 0.5882
C8 C 0.4331(4) 0.67443(15) 0.5363(4)
H13 H 0.5155 0.6926 0.6149
H14 H 0.3405 0.7011 0.5268
H15 H 0.4656 0.6738 0.4391
C9 C 0.4431(3) 0.59996(12) 0.8703(3)
C10 C 0.6042(3) 0.57108(18) 0.8834(4)
H16 H 0.6189 0.5594 0.7821
H17 H 0.6146 0.5324 0.9474
H18 H 0.6818 0.6029 0.9289
C11 C 0.3962(3) 0.61999(12) 1.0007(3)
H19 H 0.4643 0.6138 1.0960
C12 C 0.2482(3) 0.64994(11) 0.9982(2)
C13 C 0.0851(4) 0.69855(19) 1.1495(4)
H20 H 0.0858 0.7100 1.2551
H21 H 0.0017 0.6678 1.1129
H22 H 0.0691 0.7375 1.0865
loop_
_geom_bond_atom_site_label_1
_geom_bond_atom_site_label_2
_geom_bond_site_symmetry_1
_geom_bond_site_symmetry_2
O1 C2 1_555 1_555
O2 C1 1_555 1_555
O3 C12 1_555 1_555
O4 C12 1_555 1_555
N1 H1 1_555 1_555
N2 H2 1_555 1_555
C1 H3 1_555 1_555
H4 C1 1_555 1_555
H5 C1 1_555 1_555
C2 O2 1_555 1_555
C3 C2 1_555 1_555
H6 C3 1_555 1_555
C4 N1 1_555 1_555
C5 C4 1_555 1_555
H7 C5 1_555 1_555
H8 C5 1_555 1_555
H9 C5 1_555 1_555
C6 N1 1_555 1_555
H10 C6 1_555 1_555
H11 C6 1_555 1_555
C7 N2 1_555 1_555
H12 C7 1_555 1_555
C8 C7 1_555 1_555
H13 C8 1_555 1_555
H14 C8 1_555 1_555
H15 C8 1_555 1_555
C9 N2 1_555 1_555
C10 C9 1_555 1_555
H16 C10 1_555 1_555
H17 C10 1_555 1_555
H18 C10 1_555 1_555
C11 C9 1_555 1_555
H19 C11 1_555 1_555
C12 C11 1_555 1_555
C13 O4 1_555 1_555
H20 C13 1_555 1_555
H21 C13 1_555 1_555
H22 C13 1_555 1_555
C3 C4 1_555 1_555
C6 C7 1_555 1_555

#END
