
#######################################################################
#
#                 Cambridge Crystallographic Data Centre
#                                CCDC 
#
#######################################################################
#
# If this CIF has been generated from an entry in the Cambridge 
# Structural Database, then it will include bibliographic, chemical, 
# crystal, experimental, refinement or atomic coordinate data resulting 
# from the CCDC's data processing and validation procedures.
#
#######################################################################

data_EWOZEV
_chemical_formula_moiety         'C7 H7 N1 O3'
_chemical_name_systematic        '(4-Oxo-1,4-dihydropyridin-1-yl)acetic acid'
_symmetry_cell_setting           orthorhombic
_symmetry_space_group_name_H-M   'P 21 21 21'
_symmetry_Int_Tables_number      19
_space_group_name_Hall           'P 2ac 2ab'
loop_
_symmetry_equiv_pos_site_id
_symmetry_equiv_pos_as_xyz
1 x,y,z
2 1/2-x,-y,1/2+z
3 -x,1/2+y,1/2-z
4 1/2+x,1/2-y,-z
_cell_length_a                   4.7413(17)
_cell_length_b                   9.595(5)
_cell_length_c                   15.069(7)
_cell_angle_alpha                90
_cell_angle_beta                 90
_cell_angle_gamma                90
_cell_volume                     685.531
_exptl_crystal_colour            yellow
_exptl_crystal_description       prism
_cell_formula_units_Z            4
loop_
_atom_site_label
_atom_site_type_symbol
_atom_site_fract_x
_atom_site_fract_y
_atom_site_fract_z
O1 O 1.1616(5) 0.6560(2) 0.6131(2)
O2 O 0.8553(5) 0.4920(3) 0.57150(10)
O3 O 0.6411(5) 0.2388(2) 0.22670(10)
N1 N 1.0913(5) 0.4646(2) 0.4077(2)
C1 C 1.0631(6) 0.5640(3) 0.5603(2)
C2 C 1.2403(7) 0.5460(3) 0.4760(2)
C3 C 1.1232(7) 0.3239(3) 0.4024(2)
C4 C 0.9744(7) 0.2474(3) 0.3430(2)
C5 C 0.7811(6) 0.3124(3) 0.2848(2)
C6 C 0.7482(7) 0.4585(3) 0.2935(2)
C7 C 0.9035(7) 0.5294(3) 0.3544(2)
H1 H 1.0401 0.6777 0.6493
H2 H 1.2868 0.6371 0.4523
H3 H 1.4154 0.4993 0.4910
H4 H 1.2494 0.2794 0.4402
H5 H 0.9997 0.1513 0.3405
H6 H 0.6206 0.5058 0.2575
H7 H 0.8798 0.6253 0.3595
loop_
_geom_bond_atom_site_label_1
_geom_bond_atom_site_label_2
_geom_bond_site_symmetry_1
_geom_bond_site_symmetry_2
O1 C1 1_555 1_555
O2 C1 1_555 1_555
O3 C5 1_555 1_555
N1 C2 1_555 1_555
C1 C2 1_555 1_555
C2 H2 1_555 1_555
C3 N1 1_555 1_555
C4 C3 1_555 1_555
C5 C4 1_555 1_555
C6 C5 1_555 1_555
C7 N1 1_555 1_555
H1 O1 1_555 1_555
H3 C2 1_555 1_555
H4 C3 1_555 1_555
H5 C4 1_555 1_555
H6 C6 1_555 1_555
H7 C7 1_555 1_555
C6 C7 1_555 1_555

#END
