
#######################################################################
#
#                 Cambridge Crystallographic Data Centre
#                                CCDC 
#
#######################################################################
#
# If this CIF has been generated from an entry in the Cambridge 
# Structural Database, then it will include bibliographic, chemical, 
# crystal, experimental, refinement or atomic coordinate data resulting 
# from the CCDC's data processing and validation procedures.
#
#######################################################################

data_EWUBUT
_chemical_formula_moiety         'C16 H18 N2 O3 S1'
_chemical_name_systematic        
'Ethyl 5-methyl-1-(3-methylbenzoyl)-3-(methylsulfanyl)-1H-pyrazole-4-carboxylate'
_symmetry_cell_setting           triclinic
_symmetry_space_group_name_H-M   'P -1'
_symmetry_Int_Tables_number      2
_space_group_name_Hall           '-P 1'
loop_
_symmetry_equiv_pos_site_id
_symmetry_equiv_pos_as_xyz
1 x,y,z
2 -x,-y,-z
_cell_length_a                   7.677(3)
_cell_length_b                   9.228(3)
_cell_length_c                   12.271(4)
_cell_angle_alpha                81.745(5)
_cell_angle_beta                 73.352(5)
_cell_angle_gamma                73.583(5)
_cell_volume                     797.067
_exptl_crystal_colour            colorless
_exptl_crystal_description       needle
_chemical_melting_point          '388-389 K'
_cell_formula_units_Z            2
loop_
_atom_site_label
_atom_site_type_symbol
_atom_site_fract_x
_atom_site_fract_y
_atom_site_fract_z
S1 S 0.22441(9) 0.21759(6) 0.42329(5)
O1 O 0.2516(2) 0.51069(16) 0.31410(12)
O2 O 0.2780(3) 0.70988(17) 0.38665(14)
O3 O 0.2104(3) 0.48758(19) 0.84848(14)
N1 N 0.2424(2) 0.39648(18) 0.68027(14)
N2 N 0.2274(2) 0.27860(18) 0.62814(14)
C1 C 0.2393(3) 0.3771(3) 0.79767(18)
C2 C 0.2685(3) 0.2214(2) 0.85222(17)
C3 C 0.3944(3) 0.0966(3) 0.79842(19)
H1 H 0.4612 0.1068 0.7227
C4 C 0.4199(4) -0.0427(3) 0.8580(2)
H2 H 0.5053 -0.1266 0.8226
C5 C 0.3193(4) -0.0584(3) 0.9701(2)
H3 H 0.3364 -0.1536 1.0088
C6 C 0.1939(4) 0.0643(3) 1.02589(19)
C7 C 0.1713(3) 0.2034(3) 0.96572(18)
H4 H 0.0886 0.2877 1.0021
C8 C 0.0860(5) 0.0472(3) 1.1494(2)
H5 H -0.0056 -0.0079 1.1550
H6 H 0.0237 0.1455 1.1775
H7 H 0.1717 -0.0070 1.1938
C9 C 0.2558(3) 0.5219(2) 0.60699(17)
C10 C 0.2497(3) 0.4844(2) 0.50384(16)
C11 C 0.2330(3) 0.3318(2) 0.52228(16)
C12 C 0.2142(4) 0.0463(2) 0.5116(2)
H8 H 0.3217 0.0137 0.5425
H9 H 0.2137 -0.0309 0.4669
H10 H 0.1015 0.0642 0.5728
C13 C 0.2759(3) 0.6652(2) 0.6379(2)
H11 H 0.3299 0.7202 0.5701
H12 H 0.3562 0.6424 0.6886
H13 H 0.1544 0.7255 0.6748
C14 C 0.2616(3) 0.5824(2) 0.39850(17)
C15 C 0.2594(4) 0.5934(3) 0.20422(19)
H14 H 0.3661 0.6376 0.1816
H15 H 0.1456 0.6741 0.2073
C16 C 0.2784(5) 0.4832(3) 0.1217(2)
H16 H 0.3988 0.4114 0.1122
H17 H 0.2679 0.5361 0.0497
H18 H 0.1808 0.4310 0.1501
loop_
_geom_bond_atom_site_label_1
_geom_bond_atom_site_label_2
_geom_bond_site_symmetry_1
_geom_bond_site_symmetry_2
S1 C11 1_555 1_555
O1 C14 1_555 1_555
O2 C14 1_555 1_555
O3 C1 1_555 1_555
N1 N2 1_555 1_555
N2 C11 1_555 1_555
C1 N1 1_555 1_555
C2 C1 1_555 1_555
C3 C2 1_555 1_555
H1 C3 1_555 1_555
C4 C3 1_555 1_555
H2 C4 1_555 1_555
C5 C4 1_555 1_555
H3 C5 1_555 1_555
C6 C5 1_555 1_555
C7 C2 1_555 1_555
H4 C7 1_555 1_555
C8 C6 1_555 1_555
H5 C8 1_555 1_555
H6 C8 1_555 1_555
H7 C8 1_555 1_555
C9 N1 1_555 1_555
C10 C9 1_555 1_555
C11 C10 1_555 1_555
C12 S1 1_555 1_555
H8 C12 1_555 1_555
H9 C12 1_555 1_555
H10 C12 1_555 1_555
C13 C9 1_555 1_555
H11 C13 1_555 1_555
H12 C13 1_555 1_555
H13 C13 1_555 1_555
C14 C10 1_555 1_555
C15 O1 1_555 1_555
H14 C15 1_555 1_555
H15 C15 1_555 1_555
C16 C15 1_555 1_555
H16 C16 1_555 1_555
H17 C16 1_555 1_555
H18 C16 1_555 1_555
C6 C7 1_555 1_555

#END
