
#######################################################################
#
#                 Cambridge Crystallographic Data Centre
#                                CCDC 
#
#######################################################################
#
# If this CIF has been generated from an entry in the Cambridge 
# Structural Database, then it will include bibliographic, chemical, 
# crystal, experimental, refinement or atomic coordinate data resulting 
# from the CCDC's data processing and validation procedures.
#
#######################################################################

data_EWUDUV
_chemical_formula_moiety         'C18 H23 N2 1+,I3 1-'
_chemical_name_systematic        
'trans-4-(p-(N,N-Diethylamino)styryl)-N-methylpyridinium triiodide'
_symmetry_cell_setting           monoclinic
_symmetry_space_group_name_H-M   'P 21/n'
_symmetry_Int_Tables_number      14
_space_group_name_Hall           '-P 2yn'
loop_
_symmetry_equiv_pos_site_id
_symmetry_equiv_pos_as_xyz
1 x,y,z
2 1/2+x,1/2-y,1/2+z
3 -x,-y,-z
4 1/2-x,1/2+y,1/2-z
_cell_length_a                   8.8560(8)
_cell_length_b                   17.4364(19)
_cell_length_c                   14.463(2)
_cell_angle_alpha                90
_cell_angle_beta                 105.457(9)
_cell_angle_gamma                90
_cell_volume                     2152.55
_exptl_crystal_colour            'dark red'
_exptl_crystal_description       prism
_chemical_melting_point          179deg.C
_cell_formula_units_Z            4
loop_
_atom_site_label
_atom_site_type_symbol
_atom_site_fract_x
_atom_site_fract_y
_atom_site_fract_z
C1 C 0.8819(9) 0.7013(5) 0.0862(6)
H1 H 0.9371 0.7487 0.1036
H2 H 0.8409 0.6990 0.0178
H3 H 0.9524 0.6591 0.1074
C2 C 0.7281(10) 0.7539(5) 0.1873(6)
H4 H 0.7949 0.7960 0.1979
C3 C 0.6054(10) 0.7515(5) 0.2291(6)
H5 H 0.5899 0.7923 0.2669
C4 C 0.5047(8) 0.6891(4) 0.2159(5)
C5 C 0.5342(9) 0.6301(4) 0.1582(5)
H6 H 0.4693 0.5872 0.1467
C6 C 0.6586(9) 0.6346(5) 0.1180(5)
H7 H 0.6781 0.5942 0.0809
C7 C 0.3793(8) 0.6865(4) 0.2619(5)
H8 H 0.3692 0.7279 0.3005
C8 C 0.2763(8) 0.6293(4) 0.2536(5)
H9 H 0.2888 0.5882 0.2153
C9 C 0.1468(8) 0.6239(4) 0.2976(5)
C10 C 0.1155(9) 0.6783(4) 0.3605(5)
H10 H 0.1781 0.7218 0.3745
C11 C -0.0033(9) 0.6694(4) 0.4017(5)
H11 H -0.0203 0.7072 0.4432
C12 C -0.1032(9) 0.6044(4) 0.3838(5)
C13 C -0.0734(9) 0.5516(4) 0.3184(5)
H12 H -0.1384 0.5090 0.3025
C14 C 0.0471(8) 0.5598(4) 0.2769(5)
H13 H 0.0635 0.5227 0.2344
C15 C -0.2120(13) 0.6337(6) 0.5210(6)
H14 H -0.1032 0.6450 0.5525
H15 H -0.2519 0.5996 0.5621
C16 C -0.3063(14) 0.7065(7) 0.5034(10)
H16 H -0.2969 0.7323 0.5633
H17 H -0.4143 0.6945 0.4744
H18 H -0.2677 0.7392 0.4614
C17 C -0.3370(9) 0.5341(4) 0.3990(6)
H19 H -0.3519 0.5241 0.3311
H20 H -0.4370 0.5502 0.4078
C18 C -0.2886(12) 0.4599(6) 0.4538(6)
H21 H -0.3682 0.4218 0.4313
H22 H -0.2754 0.4687 0.5210
H23 H -0.1916 0.4422 0.4436
N1 N 0.7524(7) 0.6966(4) 0.1317(4)
N2 N -0.2249(8) 0.5969(4) 0.4276(5)
I1 I 0.34319(7) 0.39134(3) 0.22090(5)
I2 I 0.59835(6) 0.41067(3) 0.12718(4)
I3 I 0.85041(7) 0.43621(4) 0.03904(5)
loop_
_geom_bond_atom_site_label_1
_geom_bond_atom_site_label_2
_geom_bond_site_symmetry_1
_geom_bond_site_symmetry_2
C1 H1 1_555 1_555
H2 C1 1_555 1_555
H3 C1 1_555 1_555
C2 H4 1_555 1_555
C3 C2 1_555 1_555
H5 C3 1_555 1_555
C4 C3 1_555 1_555
C5 C4 1_555 1_555
H6 C5 1_555 1_555
C6 C5 1_555 1_555
H7 C6 1_555 1_555
C7 C4 1_555 1_555
H8 C7 1_555 1_555
C8 C7 1_555 1_555
H9 C8 1_555 1_555
C9 C8 1_555 1_555
C10 C9 1_555 1_555
H10 C10 1_555 1_555
C11 C10 1_555 1_555
H11 C11 1_555 1_555
C12 C11 1_555 1_555
C13 C12 1_555 1_555
H12 C13 1_555 1_555
C14 C9 1_555 1_555
H13 C14 1_555 1_555
C15 H14 1_555 1_555
H15 C15 1_555 1_555
C16 C15 1_555 1_555
H16 C16 1_555 1_555
H17 C16 1_555 1_555
H18 C16 1_555 1_555
C17 H19 1_555 1_555
H20 C17 1_555 1_555
C18 C17 1_555 1_555
H21 C18 1_555 1_555
H22 C18 1_555 1_555
H23 C18 1_555 1_555
N1 C1 1_555 1_555
N2 C12 1_555 1_555
I1 I2 1_555 1_555
I2 I3 1_555 1_555
C2 N1 1_555 1_555
C6 N1 1_555 1_555
C13 C14 1_555 1_555
C15 N2 1_555 1_555
C17 N2 1_555 1_555

#END
