
#######################################################################
#
#                 Cambridge Crystallographic Data Centre
#                                CCDC 
#
#######################################################################
#
# If this CIF has been generated from an entry in the Cambridge 
# Structural Database, then it will include bibliographic, chemical, 
# crystal, experimental, refinement or atomic coordinate data resulting 
# from the CCDC's data processing and validation procedures.
#
#######################################################################

data_EWUFIL
_chemical_name_common            
'9alpha-fluoro-11beta,17alpha,21-trihydroxy-16beta-methyl-3,20-dioxopregna-1,4-diene-17,21-diyl dipropionate'
_chemical_formula_moiety         'C28 H37 F1 O7'
_chemical_name_systematic        'Betamethasone dipropionate'
_chemical_properties_biological  'antiinflammatory drug used to treat asthma'
_symmetry_cell_setting           orthorhombic
_symmetry_space_group_name_H-M   'P 21 21 21'
_symmetry_Int_Tables_number      19
_space_group_name_Hall           'P 2ac 2ab'
loop_
_symmetry_equiv_pos_site_id
_symmetry_equiv_pos_as_xyz
1 x,y,z
2 1/2-x,-y,1/2+z
3 -x,1/2+y,1/2-z
4 1/2+x,1/2-y,-z
_cell_length_a                   11.883(4)
_cell_length_b                   13.833(4)
_cell_length_c                   15.737(5)
_cell_angle_alpha                90
_cell_angle_beta                 90
_cell_angle_gamma                90
_cell_volume                     2586.81
_exptl_crystal_colour            colorless
_exptl_crystal_description       block
_chemical_melting_point          '451-453 K'
_cell_formula_units_Z            4
_exptl_crystal_recrystallization_method hexane/acetone
loop_
_atom_site_label
_atom_site_type_symbol
_atom_site_fract_x
_atom_site_fract_y
_atom_site_fract_z
F1 F 0.8767(2) 0.35437(16) 0.07258(15)
O1 O 1.1791(3) 0.1486(2) 0.1562(2)
O2 O 0.9096(3) 0.5658(2) 0.1969(2)
H1 H 0.8702 0.5887 0.2346
O3 O 0.5679(3) 0.7635(2) 0.0291(3)
O4 O 0.5616(2) 0.5098(2) -0.0007(2)
O5 O 0.4183(3) 0.5790(3) -0.0727(3)
C1 C 1.0554(4) 0.3769(3) 0.1979(3)
H2 H 1.0245 0.4101 0.2437
C2 C 1.0998(4) 0.2909(3) 0.2129(3)
H3 H 1.1024 0.2676 0.2683
C3 C 1.1449(4) 0.2319(3) 0.1437(3)
C4 C 1.1454(4) 0.2752(3) 0.0594(3)
H4 H 1.1782 0.2410 0.0149
C5 C 1.1012(3) 0.3614(3) 0.0432(3)
C6 C 1.0965(4) 0.4027(4) -0.0446(3)
H5 H 1.1224 0.3545 -0.0848
H6 H 1.1468 0.4578 -0.0480
C7 C 0.9768(4) 0.4348(4) -0.0688(3)
H7 H 0.9798 0.4707 -0.1217
H8 H 0.9307 0.3779 -0.0783
C8 C 0.9211(3) 0.4977(3) -0.0007(3)
H9 H 0.9634 0.5583 0.0037
C9 C 0.9264(3) 0.4463(3) 0.0853(2)
C10 C 1.0514(3) 0.4245(3) 0.1124(3)
C11 C 0.8512(3) 0.4895(3) 0.1565(3)
H10 H 0.8402 0.4387 0.1991
C12 C 0.7333(4) 0.5194(3) 0.1245(3)
H11 H 0.6893 0.4617 0.1134
H12 H 0.6954 0.5559 0.1687
C13 C 0.7385(3) 0.5810(3) 0.0431(2)
C14 C 0.8003(3) 0.5220(3) -0.0244(2)
H13 H 0.7598 0.4606 -0.0305
C15 C 0.7816(4) 0.5793(3) -0.1055(3)
H14 H 0.7908 0.5382 -0.1550
H15 H 0.8344 0.6325 -0.1093
C16 C 0.6601(4) 0.6171(3) -0.0997(3)
H16 H 0.6138 0.5732 -0.1339
C17 C 0.6246(4) 0.6007(3) -0.0047(3)
C18 C 0.5546(4) 0.6785(3) 0.0415(3)
C19 C 0.4748(6) 0.6434(4) 0.1097(4)
H17 H 0.4089 0.6154 0.0829
H18 H 0.5114 0.5930 0.1425
O6 O 0.4403(5) 0.7180(4) 0.1652(3)
O8 O 0.5958(8) 0.6878(7) 0.2377(8)
C23 C 0.5098(7) 0.7347(6) 0.2290(5)
C24 C 0.4777(14) 0.8156(11) 0.2910(11)
H24 H 0.4659 0.7896 0.3475
H25 H 0.4089 0.8471 0.2726
C25 C 0.5761(13) 0.8878(9) 0.2912(11)
H26 H 0.5595 0.9400 0.3294
H27 H 0.5868 0.9129 0.2349
H28 H 0.6435 0.8556 0.3094
C26 C 0.4613(4) 0.5070(4) -0.0437(3)
C27 C 0.4133(4) 0.4070(4) -0.0488(3)
H29 H 0.3510 0.4011 -0.0093
H30 H 0.4704 0.3603 -0.0327
C28 C 0.3727(5) 0.3855(4) -0.1382(4)
H31 H 0.3161 0.4316 -0.1540
H32 H 0.3414 0.3215 -0.1401
H33 H 0.4348 0.3897 -0.1770
C29 C 1.1253(4) 0.5178(3) 0.1190(3)
H34 H 1.0992 0.5567 0.1655
H35 H 1.1196 0.5539 0.0671
H36 H 1.2023 0.4999 0.1285
C30 C 0.7951(4) 0.6800(3) 0.0597(3)
H37 H 0.7588 0.7113 0.1068
H38 H 0.7883 0.7199 0.0100
H39 H 0.8732 0.6704 0.0727
C31 C 0.6458(5) 0.7172(4) -0.1382(4)
H40 H 0.6951 0.7618 -0.1099
H41 H 0.5693 0.7380 -0.1313
H42 H 0.6641 0.7150 -0.1976
O7? O 0.6253(19) 0.720(3) 0.231(3)
C20? C 0.5274(14) 0.7451(14) 0.2181(10)
C21? C 0.4780(18) 0.8278(18) 0.2710(13)
H19? H 0.4708 0.8850 0.2358
H20? H 0.4035 0.8099 0.2907
C22? C 0.5524(19) 0.8505(14) 0.3470(11)
H21? H 0.5319 0.8095 0.3937
H22? H 0.5424 0.9170 0.3630
H23? H 0.6297 0.8395 0.3322
loop_
_geom_bond_atom_site_label_1
_geom_bond_atom_site_label_2
_geom_bond_site_symmetry_1
_geom_bond_site_symmetry_2
F1 C9 1_555 1_555
O1 C3 1_555 1_555
O2 H1 1_555 1_555
O3 C18 1_555 1_555
O4 C17 1_555 1_555
O5 C26 1_555 1_555
C1 H2 1_555 1_555
C2 C1 1_555 1_555
H3 C2 1_555 1_555
C3 C2 1_555 1_555
C4 C3 1_555 1_555
H4 C4 1_555 1_555
C5 C4 1_555 1_555
C6 C5 1_555 1_555
H5 C6 1_555 1_555
H6 C6 1_555 1_555
C7 C6 1_555 1_555
H7 C7 1_555 1_555
H8 C7 1_555 1_555
C8 C7 1_555 1_555
H9 C8 1_555 1_555
C9 C8 1_555 1_555
C10 C1 1_555 1_555
C11 O2 1_555 1_555
H10 C11 1_555 1_555
C12 C11 1_555 1_555
H11 C12 1_555 1_555
H12 C12 1_555 1_555
C13 C12 1_555 1_555
C14 C8 1_555 1_555
H13 C14 1_555 1_555
C15 C14 1_555 1_555
H14 C15 1_555 1_555
H15 C15 1_555 1_555
C16 C15 1_555 1_555
H16 C16 1_555 1_555
C17 C13 1_555 1_555
C18 C17 1_555 1_555
C19 C18 1_555 1_555
H17 C19 1_555 1_555
H18 C19 1_555 1_555
O6 C19 1_555 1_555
O8 C23 1_555 1_555
C23 O6 1_555 1_555
C24 C23 1_555 1_555
H24 C24 1_555 1_555
H25 C24 1_555 1_555
C25 C24 1_555 1_555
H26 C25 1_555 1_555
H27 C25 1_555 1_555
H28 C25 1_555 1_555
C26 O4 1_555 1_555
C27 C26 1_555 1_555
H29 C27 1_555 1_555
H30 C27 1_555 1_555
C28 C27 1_555 1_555
H31 C28 1_555 1_555
H32 C28 1_555 1_555
H33 C28 1_555 1_555
C29 C10 1_555 1_555
H34 C29 1_555 1_555
H35 C29 1_555 1_555
H36 C29 1_555 1_555
C30 C13 1_555 1_555
H37 C30 1_555 1_555
H38 C30 1_555 1_555
H39 C30 1_555 1_555
C31 C16 1_555 1_555
H40 C31 1_555 1_555
H41 C31 1_555 1_555
H42 C31 1_555 1_555
C5 C10 1_555 1_555
C9 C10 1_555 1_555
C9 C11 1_555 1_555
C13 C14 1_555 1_555
C16 C17 1_555 1_555

#END
