
#######################################################################
#
#                 Cambridge Crystallographic Data Centre
#                                CCDC 
#
#######################################################################
#
# If this CIF has been generated from an entry in the Cambridge 
# Structural Database, then it will include bibliographic, chemical, 
# crystal, experimental, refinement or atomic coordinate data resulting 
# from the CCDC's data processing and validation procedures.
#
#######################################################################

data_EXADUD
_chemical_formula_moiety         'C15 H14 N4'
_chemical_name_systematic        
6-(3,5-Dimethyl-1H-pyrazol-1-yl)-2,2'-bipyridine
_symmetry_cell_setting           orthorhombic
_symmetry_space_group_name_H-M   'P 21 21 21'
_symmetry_Int_Tables_number      19
_space_group_name_Hall           'P 2ac 2ab'
loop_
_symmetry_equiv_pos_site_id
_symmetry_equiv_pos_as_xyz
1 x,y,z
2 1/2-x,-y,1/2+z
3 -x,1/2+y,1/2-z
4 1/2+x,1/2-y,-z
_cell_length_a                   5.0833(10)
_cell_length_b                   14.957(3)
_cell_length_c                   16.451(3)
_cell_angle_alpha                90
_cell_angle_beta                 90
_cell_angle_gamma                90
_cell_volume                     1250.78
_exptl_crystal_colour            colorless
_exptl_crystal_description       prism
_cell_formula_units_Z            4
loop_
_atom_site_label
_atom_site_type_symbol
_atom_site_fract_x
_atom_site_fract_y
_atom_site_fract_z
C1 C 0.5212(4) 0.63629(11) 0.85726(11)
N1 N 0.7286(3) 0.77612(9) 0.82574(9)
H1 H 1.014(5) 0.8149(16) 0.9021(14)
C2 C 0.8830(4) 0.76439(12) 0.89068(11)
C3 C 0.8676(4) 0.69091(14) 0.94176(11)
C4 C 0.6821(4) 0.62610(12) 0.92420(11)
C5 C 0.5511(4) 0.71205(11) 0.80874(10)
C6 C 0.3877(3) 0.72594(10) 0.73487(9)
C7 C 0.4304(4) 0.79856(11) 0.68364(10)
C8 C 0.2722(4) 0.80674(11) 0.61555(10)
C9 C 0.0802(4) 0.74378(11) 0.59923(10)
C10 C 0.0551(4) 0.67299(10) 0.65456(9)
C11 C -0.1635(4) 0.52250(10) 0.67641(10)
C12 C -0.3639(4) 0.48159(11) 0.63472(11)
C13 C -0.4457(4) 0.54194(11) 0.57416(10)
C14 C -0.6587(4) 0.53065(14) 0.51226(12)
C15 C -0.0050(4) 0.48729(12) 0.74560(12)
N2 N 0.2012(3) 0.66387(9) 0.72054(8)
N3 N -0.1329(3) 0.60494(9) 0.63977(8)
N4 N -0.3058(3) 0.61633(9) 0.57661(8)
H2 H 0.985(6) 0.6875(17) 0.9904(16)
H3 H 0.654(6) 0.5699(19) 0.9606(17)
H4 H 0.385(4) 0.5928(13) 0.8457(11)
H5 H 0.571(5) 0.8427(16) 0.6963(14)
H6 H 0.300(5) 0.8585(15) 0.5753(14)
H7 H -0.027(4) 0.7466(15) 0.5507(14)
H8 H -0.438(5) 0.4269(16) 0.6458(13)
H9 H -0.822(7) 0.504(2) 0.5387(19)
H10 H -0.621(7) 0.487(2) 0.471(2)
H11 H -0.705(7) 0.588(2) 0.4941(19)
H12 H -0.051(5) 0.4253(17) 0.7553(15)
H13 H 0.198(6) 0.4869(17) 0.7339(14)
H14 H -0.036(5) 0.5247(16) 0.7971(14)
loop_
_geom_bond_atom_site_label_1
_geom_bond_atom_site_label_2
_geom_bond_site_symmetry_1
_geom_bond_site_symmetry_2
C1 C4 1_555 1_555
N1 C2 1_555 1_555
H1 C2 1_555 1_555
C2 C3 1_555 1_555
C3 C4 1_555 1_555
C4 H3 1_555 1_555
C5 C1 1_555 1_555
C6 C5 1_555 1_555
C7 C6 1_555 1_555
C8 C7 1_555 1_555
C9 C8 1_555 1_555
C10 C9 1_555 1_555
C11 C12 1_555 1_555
C12 C13 1_555 1_555
C13 C14 1_555 1_555
C14 H9 1_555 1_555
C15 C11 1_555 1_555
N2 C6 1_555 1_555
N3 C10 1_555 1_555
N4 C13 1_555 1_555
H2 C3 1_555 1_555
H4 C1 1_555 1_555
H5 C7 1_555 1_555
H6 C8 1_555 1_555
H7 C9 1_555 1_555
H8 C12 1_555 1_555
H10 C14 1_555 1_555
H11 C14 1_555 1_555
H12 C15 1_555 1_555
H13 C15 1_555 1_555
H14 C15 1_555 1_555
N1 C5 1_555 1_555
C10 N2 1_555 1_555
C11 N3 1_555 1_555
N3 N4 1_555 1_555

#END
