
#######################################################################
#
#                 Cambridge Crystallographic Data Centre
#                                CCDC 
#
#######################################################################
#
# If this CIF has been generated from an entry in the Cambridge 
# Structural Database, then it will include bibliographic, chemical, 
# crystal, experimental, refinement or atomic coordinate data resulting 
# from the CCDC's data processing and validation procedures.
#
#######################################################################

data_EXAKEV02
_chemical_formula_moiety         'C31 H31 N3 P1 1+,Cl1 1-'
_chemical_name_systematic        
'3-((6-((diphenylphosphino)methyl)pyridin-2-yl)methyl)-1-mesityl-1H-imidazol-3-ium chloride'
_symmetry_cell_setting           monoclinic
_symmetry_space_group_name_H-M   'P 21/c'
_symmetry_Int_Tables_number      14
_space_group_name_Hall           '-P 2ybc'
loop_
_symmetry_equiv_pos_site_id
_symmetry_equiv_pos_as_xyz
1 x,y,z
2 -x,1/2+y,1/2-z
3 -x,-y,-z
4 x,1/2-y,1/2+z
_cell_length_a                   8.8606(15)
_cell_length_b                   27.202(4)
_cell_length_c                   12.531(2)
_cell_angle_alpha                90
_cell_angle_beta                 110.027(6)
_cell_angle_gamma                90
_cell_volume                     2837.66
_exptl_crystal_colour            yellow
_exptl_crystal_description       plate
_cell_formula_units_Z            4
loop_
_atom_site_label
_atom_site_type_symbol
_atom_site_fract_x
_atom_site_fract_y
_atom_site_fract_z
Cl1 Cl 0.5052(2) 0.28085(7) 0.50904(15)
P1 P 0.9232(2) 0.04615(8) 0.66293(18)
N1 N 1.0044(6) 0.2839(2) 0.5019(5)
N2 N 0.8256(6) 0.2426(2) 0.3706(5)
N3 N 0.8315(6) 0.1467(2) 0.4372(5)
C1 C 0.8543(7) 0.2664(2) 0.4681(5)
H1 H 0.7804 0.2704 0.5073
C2 C 0.9631(8) 0.2439(3) 0.3425(6)
H2 H 0.9776 0.2291 0.2780
C3 C 1.0739(8) 0.2704(3) 0.4244(6)
H3 H 1.1798 0.2782 0.4272
C4 C 1.0782(8) 0.3113(3) 0.6055(6)
C5 C 1.2033(7) 0.2881(3) 0.6938(6)
C6 C 1.2724(7) 0.3144(3) 0.7932(6)
H4 H 1.3562 0.2995 0.8536
C7 C 1.2237(9) 0.3619(3) 0.8080(6)
C8 C 1.0980(10) 0.3824(3) 0.7212(6)
H5 H 1.0606 0.4142 0.7316
C9 C 1.0231(9) 0.3576(3) 0.6170(6)
C10 C 1.2538(8) 0.2363(3) 0.6824(6)
H6 H 1.3130 0.2354 0.6292
H7 H 1.1583 0.2153 0.6538
H8 H 1.3229 0.2242 0.7568
C11 C 1.3027(11) 0.3907(3) 0.9186(7)
H9 H 1.4198 0.3893 0.9394
H10 H 1.2713 0.3762 0.9795
H11 H 1.2674 0.4251 0.9074
C12 C 0.8834(10) 0.3814(3) 0.5222(7)
H12 H 0.8855 0.3705 0.4482
H13 H 0.8939 0.4172 0.5276
H14 H 0.7814 0.3716 0.5303
C13 C 0.6824(7) 0.2128(2) 0.3129(6)
H15 H 0.6458 0.2192 0.2302
H16 H 0.5945 0.2221 0.3409
C14 C 0.7208(8) 0.1588(3) 0.3354(6)
C15 C 0.6448(11) 0.1241(3) 0.2550(7)
H17 H 0.5692 0.1335 0.1837
C16 C 0.6817(14) 0.0750(4) 0.2810(8)
H18 H 0.6305 0.0501 0.2277
C17 C 0.7922(12) 0.0626(3) 0.3839(8)
H19 H 0.8175 0.0291 0.4024
C18 C 0.8665(9) 0.0986(3) 0.4602(6)
C19 C 0.9920(9) 0.0867(3) 0.5733(6)
H20 H 1.0300 0.1179 0.6147
H21 H 1.0849 0.0712 0.5598
C20 C 0.7583(9) 0.0800(3) 0.6886(6)
C21 C 0.6565(10) 0.0517(3) 0.7252(7)
H22 H 0.6681 0.0169 0.7297
C22 C 0.5364(11) 0.0746(4) 0.7558(8)
H23 H 0.4693 0.0552 0.7840
C23 C 0.5127(11) 0.1245(4) 0.7460(8)
H24 H 0.4306 0.1396 0.7675
C24 C 0.6125(10) 0.1530(3) 0.7036(7)
H25 H 0.5961 0.1874 0.6933
C25 C 0.7338(9) 0.1304(3) 0.6772(7)
H26 H 0.8028 0.1498 0.6506
C26 C 1.0935(7) 0.0534(2) 0.7955(4)
C27 C 1.1559(9) 0.01044(17) 0.8540(6)
H27 H 1.1142 -0.0206 0.8227
C28 C 1.2794(10) 0.0128(2) 0.9584(6)
H28 H 1.3220 -0.0165 0.9984
C29 C 1.3404(8) 0.0582(3) 1.0043(5)
H29 H 1.4248 0.0598 1.0757
C30 C 1.2780(7) 0.10114(19) 0.9458(5)
H30 H 1.3197 0.1321 0.9772
C31 C 1.1546(7) 0.09876(18) 0.8414(5)
H31 H 1.1119 0.1281 0.8014
C32? C 1.0711(6) 0.0549(2) 0.8100(4)
C33? C 1.0781(9) 0.0168(2) 0.8855(6)
H32? H 1.0125 -0.0115 0.8605
C34? C 1.1810(11) 0.0200(3) 0.9975(5)
H33? H 1.1857 -0.0060 1.0490
C35? C 1.2770(10) 0.0614(3) 1.0340(4)
H34? H 1.3473 0.0636 1.1106
C36? C 1.2700(8) 0.0995(2) 0.9586(5)
H35? H 1.3357 0.1277 0.9836
C37? C 1.1671(7) 0.09622(17) 0.8466(5)
H36? H 1.1624 0.1223 0.7950
loop_
_geom_bond_atom_site_label_1
_geom_bond_atom_site_label_2
_geom_bond_site_symmetry_1
_geom_bond_site_symmetry_2
P1 C19 1_555 1_555
N1 C1 1_555 1_555
N2 C1 1_555 1_555
N3 C14 1_555 1_555
C1 H1 1_555 1_555
C2 N2 1_555 1_555
H2 C2 1_555 1_555
C3 N1 1_555 1_555
H3 C3 1_555 1_555
C4 N1 1_555 1_555
C5 C4 1_555 1_555
C6 C5 1_555 1_555
H4 C6 1_555 1_555
C7 C6 1_555 1_555
C8 C7 1_555 1_555
H5 C8 1_555 1_555
C9 C4 1_555 1_555
C10 C5 1_555 1_555
H6 C10 1_555 1_555
H7 C10 1_555 1_555
H8 C10 1_555 1_555
C11 C7 1_555 1_555
H9 C11 1_555 1_555
H10 C11 1_555 1_555
H11 C11 1_555 1_555
C12 C9 1_555 1_555
H12 C12 1_555 1_555
H13 C12 1_555 1_555
H14 C12 1_555 1_555
C13 N2 1_555 1_555
H15 C13 1_555 1_555
H16 C13 1_555 1_555
C14 C13 1_555 1_555
C15 C14 1_555 1_555
H17 C15 1_555 1_555
C16 C15 1_555 1_555
H18 C16 1_555 1_555
C17 C16 1_555 1_555
H19 C17 1_555 1_555
C18 N3 1_555 1_555
C19 C18 1_555 1_555
H20 C19 1_555 1_555
H21 C19 1_555 1_555
C20 P1 1_555 1_555
C21 C20 1_555 1_555
H22 C21 1_555 1_555
C22 C21 1_555 1_555
H23 C22 1_555 1_555
C23 C22 1_555 1_555
H24 C23 1_555 1_555
C24 C23 1_555 1_555
H25 C24 1_555 1_555
C25 C20 1_555 1_555
H26 C25 1_555 1_555
C26 P1 1_555 1_555
C27 C26 1_555 1_555
H27 C27 1_555 1_555
C28 C27 1_555 1_555
H28 C28 1_555 1_555
C29 C28 1_555 1_555
H29 C29 1_555 1_555
C30 C29 1_555 1_555
H30 C30 1_555 1_555
C31 C26 1_555 1_555
H31 C31 1_555 1_555
C2 C3 1_555 1_555
C8 C9 1_555 1_555
C17 C18 1_555 1_555
C24 C25 1_555 1_555
C30 C31 1_555 1_555

#END
