
#######################################################################
#
#                 Cambridge Crystallographic Data Centre
#                                CCDC 
#
#######################################################################
#
# If this CIF has been generated from an entry in the Cambridge 
# Structural Database, then it will include bibliographic, chemical, 
# crystal, experimental, refinement or atomic coordinate data resulting 
# from the CCDC's data processing and validation procedures.
#
#######################################################################

data_EXAWOR
_chemical_formula_moiety         'C36 H30 N1 P2 1+,C2 H3 N1,N1 O3 1-'
_chemical_name_systematic        
'bis(triphenylphosphino)iminium nitrate acetonitrile solvate'
_symmetry_cell_setting           monoclinic
_symmetry_space_group_name_H-M   'P 21/c'
_symmetry_Int_Tables_number      14
_space_group_name_Hall           '-P 2ybc'
loop_
_symmetry_equiv_pos_site_id
_symmetry_equiv_pos_as_xyz
1 x,y,z
2 -x,1/2+y,1/2-z
3 -x,-y,-z
4 x,1/2-y,1/2+z
_cell_length_a                   10.8535(8)
_cell_length_b                   12.4798(11)
_cell_length_c                   24.526(2)
_cell_angle_alpha                90
_cell_angle_beta                 101.867(5)
_cell_angle_gamma                90
_cell_volume                     3251.03
_exptl_crystal_colour            colorless
_exptl_crystal_description       block
_cell_formula_units_Z            4
loop_
_atom_site_label
_atom_site_type_symbol
_atom_site_fract_x
_atom_site_fract_y
_atom_site_fract_z
P1 P 1.04734(4) 0.93904(4) 0.34053(2)
P2 P 0.77545(4) 0.94844(4) 0.29299(2)
N1 N 0.91997(14) 0.97922(13) 0.30208(7)
C1 C 0.70527(17) 0.96785(16) 0.22067(8)
C2 C 1.13027(17) 1.05146(16) 0.37656(8)
C3 C 1.02691(17) 0.84273(17) 0.39213(8)
C4 C 0.56405(18) 1.04020(17) 0.32223(9)
H1 H 0.5169 1.0051 0.2914
C5 C 1.02490(18) 0.73401(17) 0.37976(9)
H2 H 1.0452 0.7108 0.3467
C6 C 1.14492(17) 0.88000(16) 0.29751(8)
C7 C 0.69509(18) 1.03186(16) 0.33390(8)
C8 C 0.76401(19) 1.08630(17) 0.37995(8)
H3 H 0.8514 1.0823 0.3878
C9 C 0.99858(18) 0.87708(19) 0.44235(9)
H4 H 1.0003 0.9497 0.4510
C10 C 0.54855(19) 0.92407(17) 0.13926(9)
H5 H 0.4794 0.8837 0.1221
C11 C 0.75426(19) 1.04501(17) 0.19026(8)
H6 H 0.8232 1.0858 0.2073
C12 C 0.74245(17) 0.81169(16) 0.30744(8)
C13 C 0.59832(19) 1.00050(18) 0.10925(9)
H7 H 0.5629 1.0111 0.0718
C14 C 0.7006(2) 1.06129(18) 0.13467(9)
H8 H 0.7333 1.1131 0.1144
C15 C 1.28957(19) 1.12426(19) 0.45004(9)
H9 H 1.3529 1.1149 0.4816
C16 C 0.50433(19) 1.10026(18) 0.35614(9)
H10 H 0.4170 1.1059 0.3481
C17 C 1.09857(19) 1.15410(17) 0.35675(9)
H11 H 1.0340 1.1642 0.3258
C18 C 0.68785(17) 0.78344(17) 0.35203(8)
H12 H 0.6684 0.8359 0.3758
C19 C 1.26810(18) 0.84851(17) 0.32074(9)
H13 H 1.3001 0.8571 0.3587
C20 C 1.09790(18) 0.86787(17) 0.24074(8)
H14 H 1.0162 0.8894 0.2252
C21 C 1.1730(2) 0.82357(17) 0.20723(9)
H15 H 1.1416 0.8151 0.1692
C22 C 1.22691(18) 1.03606(18) 0.42343(8)
H16 H 1.2488 0.9673 0.4365
C23 C 0.60154(18) 0.90763(17) 0.19478(9)
H17 H 0.5679 0.8562 0.2150
C24 C 0.7036(2) 1.14605(17) 0.41406(9)
H18 H 0.7500 1.1818 0.4448
C25 C 1.34216(19) 0.80443(17) 0.28671(10)
H19 H 1.4242 0.7832 0.3019
C26 C 0.7476(2) 0.62567(18) 0.28175(10)
H20 H 0.7677 0.5728 0.2583
C27 C 0.77276(19) 0.73178(17) 0.27259(9)
H21 H 0.8101 0.7502 0.2430
C28 C 0.5738(2) 1.15226(17) 0.40210(9)
H22 H 0.5327 1.1917 0.4252
C29 C 0.9645(2) 0.6948(2) 0.46587(10)
H23 H 0.9429 0.6451 0.4906
C30 C 1.1635(2) 1.24167(19) 0.38328(9)
H24 H 1.1433 1.3105 0.3698
C31 C 0.9927(2) 0.66008(19) 0.41658(10)
H25 H 0.9902 0.5874 0.4081
C32 C 0.6924(2) 0.59814(19) 0.32593(10)
H26 H 0.6755 0.5266 0.3321
C33 C 0.66250(19) 0.67625(18) 0.36079(9)
H27 H 0.6252 0.6572 0.3903
C34 C 1.2947(2) 0.79195(17) 0.23030(10)
H28 H 1.3449 0.7621 0.2077
C35 C 1.2581(2) 1.22646(19) 0.42981(9)
H29 H 1.3011 1.2853 0.4477
C36 C 0.9680(2) 0.8028(2) 0.47908(9)
H30 H 0.9498 0.8253 0.5127
O1 O 0.32117(14) 0.76744(14) 0.45946(7)
O2 O 0.49779(16) 0.68303(14) 0.48630(7)
O3 O 0.48835(16) 0.82261(18) 0.43317(7)
N2 N 0.43761(17) 0.75821(16) 0.45924(7)
C37 C 0.1990(2) 0.55802(19) 0.54823(10)
N3 N 0.1369(3) 0.58715(19) 0.57791(9)
C38 C 0.2702(2) 0.5214(2) 0.50947(11)
H31 H 0.2143 0.5029 0.4751
H32 H 0.3181 0.4595 0.5243
H33 H 0.3263 0.5771 0.5028
loop_
_geom_bond_atom_site_label_1
_geom_bond_atom_site_label_2
_geom_bond_site_symmetry_1
_geom_bond_site_symmetry_2
P1 N1 1_555 1_555
P2 N1 1_555 1_555
C1 P2 1_555 1_555
C2 P1 1_555 1_555
C3 P1 1_555 1_555
C4 H1 1_555 1_555
C5 C3 1_555 1_555
H2 C5 1_555 1_555
C6 P1 1_555 1_555
C7 P2 1_555 1_555
C8 C7 1_555 1_555
H3 C8 1_555 1_555
C9 C3 1_555 1_555
H4 C9 1_555 1_555
C10 H5 1_555 1_555
C11 C1 1_555 1_555
H6 C11 1_555 1_555
C12 P2 1_555 1_555
C13 C10 1_555 1_555
H7 C13 1_555 1_555
C14 C11 1_555 1_555
H8 C14 1_555 1_555
C15 H9 1_555 1_555
C16 C4 1_555 1_555
H10 C16 1_555 1_555
C17 C2 1_555 1_555
H11 C17 1_555 1_555
C18 C12 1_555 1_555
H12 C18 1_555 1_555
C19 C6 1_555 1_555
H13 C19 1_555 1_555
C20 C6 1_555 1_555
H14 C20 1_555 1_555
C21 C20 1_555 1_555
H15 C21 1_555 1_555
C22 C2 1_555 1_555
H16 C22 1_555 1_555
C23 C1 1_555 1_555
H17 C23 1_555 1_555
C24 C8 1_555 1_555
H18 C24 1_555 1_555
C25 C19 1_555 1_555
H19 C25 1_555 1_555
C26 H20 1_555 1_555
C27 C12 1_555 1_555
H21 C27 1_555 1_555
C28 C16 1_555 1_555
H22 C28 1_555 1_555
C29 H23 1_555 1_555
C30 C17 1_555 1_555
H24 C30 1_555 1_555
C31 C5 1_555 1_555
H25 C31 1_555 1_555
C32 C26 1_555 1_555
H26 C32 1_555 1_555
C33 C18 1_555 1_555
H27 C33 1_555 1_555
C34 C21 1_555 1_555
H28 C34 1_555 1_555
C35 C15 1_555 1_555
H29 C35 1_555 1_555
C36 C9 1_555 1_555
H30 C36 1_555 1_555
O1 N2 1_555 1_555
O2 N2 1_555 1_555
O3 N2 1_555 1_555
C37 N3 1_555 1_555
C38 C37 1_555 1_555
H31 C38 1_555 1_555
H32 C38 1_555 1_555
H33 C38 1_555 1_555
C4 C7 1_555 1_555
C10 C23 1_555 1_555
C13 C14 1_555 1_555
C15 C22 1_555 1_555
C24 C28 1_555 1_555
C25 C34 1_555 1_555
C26 C27 1_555 1_555
C29 C31 1_555 1_555
C29 C36 1_555 1_555
C30 C35 1_555 1_555
C32 C33 1_555 1_555

#END
