
#######################################################################
#
#                 Cambridge Crystallographic Data Centre
#                                CCDC 
#
#######################################################################
#
# If this CIF has been generated from an entry in the Cambridge 
# Structural Database, then it will include bibliographic, chemical, 
# crystal, experimental, refinement or atomic coordinate data resulting 
# from the CCDC's data processing and validation procedures.
#
#######################################################################

data_EXAZEI
_chemical_formula_moiety         'C40 H56 Mg2 N8'
_chemical_name_systematic        
bis(\m~2~-N,N'-Ethylene-bis(5-t-butylpyrrol-2-ylaldiminato))-di-magnesium
_symmetry_cell_setting           monoclinic
_symmetry_space_group_name_H-M   'P 21/c'
_symmetry_Int_Tables_number      14
_space_group_name_Hall           '-P 2ybc'
loop_
_symmetry_equiv_pos_site_id
_symmetry_equiv_pos_as_xyz
1 x,y,z
2 x,1/2-y,1/2+z
3 -x,-y,-z
4 -x,1/2+y,1/2-z
_cell_length_a                   13.855(5)
_cell_length_b                   22.727(9)
_cell_length_c                   13.176(6)
_cell_angle_alpha                90
_cell_angle_beta                 99.143(9)
_cell_angle_gamma                90
_cell_volume                     4096.18
_exptl_crystal_colour            'light yellow'
_exptl_crystal_description       cubic
_cell_formula_units_Z            4
_exptl_crystal_recrystallization_method 'diethyl ether'
loop_
_atom_site_label
_atom_site_type_symbol
_atom_site_fract_x
_atom_site_fract_y
_atom_site_fract_z
C1 C -0.0808(4) 0.7023(2) 0.3285(5)
H1 H -0.0536 0.7378 0.3054
H2 H -0.0805 0.7045 0.4013
H3 H -0.1468 0.6977 0.2938
C2 C -0.0618(6) 0.5936(2) 0.3475(5)
H4 H -0.1297 0.5898 0.3189
H5 H -0.0552 0.5964 0.4210
H6 H -0.0269 0.5597 0.3294
C3 C 0.0851(5) 0.6585(2) 0.3578(4)
H7 H 0.1227 0.6239 0.3496
H8 H 0.0854 0.6657 0.4296
H9 H 0.1132 0.6916 0.3278
C4 C -0.0194(5) 0.64957(18) 0.3043(5)
C5 C -0.0231(4) 0.64260(19) 0.1893(4)
C6 C -0.0878(4) 0.6664(2) 0.1070(5)
H10 H -0.1377 0.6931 0.1119
C7 C -0.0645(4) 0.6433(2) 0.0177(5)
H11 H -0.0954 0.6512 -0.0489
C8 C 0.0140(3) 0.60612(18) 0.0463(4)
C9 C 0.0673(4) 0.57064(18) -0.0122(4)
H12 H 0.0466 0.5675 -0.0827
C10 C 0.1899(4) 0.50319(17) -0.0354(4)
H13 H 0.1903 0.5211 -0.1022
H14 H 0.1529 0.4669 -0.0458
C11 C 0.2929(4) 0.48987(16) 0.0136(4)
H15 H 0.2927 0.4729 0.0812
H16 H 0.3211 0.4613 -0.0278
C12 C 0.4335(4) 0.5443(2) 0.0868(4)
C13 C 0.4982(4) 0.59260(18) 0.0937(4)
C14 C 0.5859(4) 0.6041(2) 0.1590(4)
H17 H 0.6163 0.5803 0.2120
C15 C 0.6181(4) 0.6574(2) 0.1297(5)
H18 H 0.6744 0.6770 0.1598
C16 C 0.5509(4) 0.67685(19) 0.0461(4)
C17 C 0.5566(5) 0.73153(19) -0.0199(5)
C18 C 0.4997(11) 0.7811(4) 0.0108(11)
C19 C 0.6639(10) 0.7546(5) -0.0207(14)
C20 C 0.5177(9) 0.7200(4) -0.1443(7)
C21 C 0.3915(4) 0.5654(2) -0.2477(4)
H19 H 0.4272 0.6005 -0.2254
H20 H 0.4331 0.5388 -0.2774
H21 H 0.3697 0.5468 -0.1899
C22 C 0.2557(5) 0.5239(2) -0.3709(7)
H22 H 0.2270 0.5040 -0.3187
H23 H 0.3039 0.4989 -0.3936
H24 H 0.2058 0.5330 -0.4279
C23 C 0.3381(5) 0.6143(3) -0.4121(4)
H25 H 0.2841 0.6201 -0.4665
H26 H 0.3884 0.5924 -0.4376
H27 H 0.3635 0.6518 -0.3871
C24 C 0.3044(4) 0.58099(17) -0.3267(4)
C25 C 0.2311(4) 0.61632(15) -0.2808(4)
C26 C 0.1397(4) 0.63487(18) -0.3292(4)
H28 H 0.1111 0.6268 -0.3965
C27 C 0.1000(4) 0.66729(18) -0.2589(4)
H29 H 0.0393 0.6857 -0.2695
C28 C 0.1673(3) 0.66771(15) -0.1686(4)
C29 C 0.1629(4) 0.69235(16) -0.0708(4)
C30 C 0.2226(4) 0.71596(16) 0.1018(4)
H30 H 0.1583 0.7077 0.1187
H31 H 0.2272 0.7581 0.0915
C31 C 0.2991(3) 0.69764(16) 0.1903(3)
H32 H 0.3636 0.7037 0.1722
H33 H 0.2937 0.7219 0.2497
C32 C 0.3597(4) 0.61167(19) 0.2767(4)
C33 C 0.3531(3) 0.55344(18) 0.3131(3)
C34 C 0.4209(4) 0.5180(2) 0.3747(4)
H34 H 0.4845 0.5280 0.4033
C35 C 0.3746(4) 0.46528(19) 0.3845(4)
H35 H 0.4014 0.4327 0.4216
C36 C 0.2808(4) 0.46925(17) 0.3294(3)
C37 C 0.2017(4) 0.42383(19) 0.3154(4)
C38 C 0.2422(5) 0.3715(3) 0.2551(5)
H36 H 0.1976 0.3390 0.2506
H37 H 0.3049 0.3594 0.2910
H38 H 0.2489 0.3844 0.1872
C39 C 0.1914(4) 0.3979(2) 0.4205(4)
H39 H 0.1673 0.4276 0.4618
H40 H 0.2540 0.3844 0.4541
H41 H 0.1464 0.3655 0.4113
C40 C 0.1099(5) 0.4460(3) 0.2598(7)
H42 H 0.0814 0.4730 0.3027
H43 H 0.0658 0.4137 0.2413
H44 H 0.1217 0.4659 0.1987
Mg1 Mg 0.33502(10) 0.62740(5) -0.04204(11)
Mg2 Mg 0.17757(10) 0.57242(5) 0.18046(11)
N1 N 0.0404(3) 0.60600(13) 0.1528(3)
N2 N 0.1431(3) 0.54270(14) 0.0285(3)
N3 N 0.3531(3) 0.54382(12) 0.0234(3)
N4 N 0.4772(2) 0.63814(13) 0.0252(3)
N5 N 0.2491(2) 0.63543(12) -0.1823(3)
N6 N 0.2332(3) 0.68547(12) 0.0061(3)
N7 N 0.2878(3) 0.63598(13) 0.2163(3)
N8 N 0.2667(2) 0.52291(14) 0.2855(3)
H45 H 0.422(3) 0.6334(13) 0.293(3)
H46 H 0.448(3) 0.5115(15) 0.128(3)
H47 H 0.106(3) 0.7162(13) -0.057(3)
C41? C 0.5819(18) 0.7815(5) 0.0747(15)
C42? C 0.6399(18) 0.7193(10) -0.0753(19)
C43? C 0.4490(10) 0.7491(6) -0.0560(15)
loop_
_geom_bond_atom_site_label_1
_geom_bond_atom_site_label_2
_geom_bond_site_symmetry_1
_geom_bond_site_symmetry_2
C1 H1 1_555 1_555
H2 C1 1_555 1_555
H3 C1 1_555 1_555
C2 H4 1_555 1_555
H5 C2 1_555 1_555
H6 C2 1_555 1_555
C3 H7 1_555 1_555
H8 C3 1_555 1_555
H9 C3 1_555 1_555
C4 C1 1_555 1_555
C5 C4 1_555 1_555
C6 C5 1_555 1_555
H10 C6 1_555 1_555
C7 C6 1_555 1_555
H11 C7 1_555 1_555
C8 C7 1_555 1_555
C9 C8 1_555 1_555
H12 C9 1_555 1_555
C10 H13 1_555 1_555
H14 C10 1_555 1_555
C11 C10 1_555 1_555
H15 C11 1_555 1_555
H16 C11 1_555 1_555
C12 C13 1_555 1_555
C13 C14 1_555 1_555
C14 H17 1_555 1_555
C15 C14 1_555 1_555
H18 C15 1_555 1_555
C16 C15 1_555 1_555
C17 C16 1_555 1_555
C18 C17 1_555 1_555
C19 C17 1_555 1_555
C20 C17 1_555 1_555
C21 H19 1_555 1_555
H20 C21 1_555 1_555
H21 C21 1_555 1_555
C22 H22 1_555 1_555
H23 C22 1_555 1_555
H24 C22 1_555 1_555
C23 H25 1_555 1_555
H26 C23 1_555 1_555
H27 C23 1_555 1_555
C24 C21 1_555 1_555
C25 C24 1_555 1_555
C26 C25 1_555 1_555
H28 C26 1_555 1_555
C27 C26 1_555 1_555
H29 C27 1_555 1_555
C28 C27 1_555 1_555
C29 C28 1_555 1_555
C30 H30 1_555 1_555
H31 C30 1_555 1_555
C31 C30 1_555 1_555
H32 C31 1_555 1_555
H33 C31 1_555 1_555
C32 C33 1_555 1_555
C33 C34 1_555 1_555
C34 H34 1_555 1_555
C35 C34 1_555 1_555
H35 C35 1_555 1_555
C36 C35 1_555 1_555
C37 C36 1_555 1_555
C38 C37 1_555 1_555
H36 C38 1_555 1_555
H37 C38 1_555 1_555
H38 C38 1_555 1_555
C39 C37 1_555 1_555
H39 C39 1_555 1_555
H40 C39 1_555 1_555
H41 C39 1_555 1_555
C40 C37 1_555 1_555
H42 C40 1_555 1_555
H43 C40 1_555 1_555
H44 C40 1_555 1_555
Mg1 N3 1_555 1_555
Mg2 N1 1_555 1_555
N1 C5 1_555 1_555
N2 C9 1_555 1_555
N3 C11 1_555 1_555
N4 C13 1_555 1_555
N5 C25 1_555 1_555
N6 C29 1_555 1_555
N7 C31 1_555 1_555
N8 C33 1_555 1_555
H45 C32 1_555 1_555
H46 C12 1_555 1_555
H47 C29 1_555 1_555
C2 C4 1_555 1_555
C3 C4 1_555 1_555
C8 N1 1_555 1_555
C10 N2 1_555 1_555
C12 N3 1_555 1_555
C16 N4 1_555 1_555
C22 C24 1_555 1_555
C23 C24 1_555 1_555
C28 N5 1_555 1_555
C30 N6 1_555 1_555
C32 N7 1_555 1_555
C36 N8 1_555 1_555
Mg1 N4 1_555 1_555
Mg1 N5 1_555 1_555
Mg1 N6 1_555 1_555
Mg2 N8 1_555 1_555
Mg2 N2 1_555 1_555
Mg2 N7 1_555 1_555

#END
