
#######################################################################
#
#                 Cambridge Crystallographic Data Centre
#                                CCDC 
#
#######################################################################
#
# If this CIF has been generated from an entry in the Cambridge 
# Structural Database, then it will include bibliographic, chemical, 
# crystal, experimental, refinement or atomic coordinate data resulting 
# from the CCDC's data processing and validation procedures.
#
#######################################################################

data_EXERUV
_chemical_formula_moiety         'C72 H74'
_chemical_name_systematic        
1,3,6,8-tetrakis((4-n-Hexylphenyl)ethynyl)pyrene
_symmetry_cell_setting           triclinic
_symmetry_space_group_name_H-M   'P -1'
_symmetry_Int_Tables_number      2
_space_group_name_Hall           '-P 1'
loop_
_symmetry_equiv_pos_site_id
_symmetry_equiv_pos_as_xyz
1 x,y,z
2 -x,-y,-z
_cell_length_a                   8.9660(18)
_cell_length_b                   15.540(3)
_cell_length_c                   40.712(8)
_cell_angle_alpha                90.01(3)
_cell_angle_beta                 90.28(3)
_cell_angle_gamma                90.04(3)
_cell_volume                     5672.4
_exptl_crystal_colour            yellow
_exptl_crystal_description       plate
_cell_formula_units_Z            4
_exptl_crystal_recrystallization_method acetone/toluene
loop_
_atom_site_label
_atom_site_type_symbol
_atom_site_fract_x
_atom_site_fract_y
_atom_site_fract_z
C1 C 0.7987(9) 0.0988(6) 1.0028(2)
C2 C 0.7614(10) 0.1605(6) 0.9801(2)
H1 H 0.8333 0.2028 0.9743
C3 C 0.6215(10) 0.1629(6) 0.9653(2)
C4 C 0.5137(9) 0.0980(6) 0.9731(2)
C5 C 0.5526(9) 0.0322(6) 0.9960(2)
C6 C 0.6984(10) 0.0324(6) 1.0111(2)
C7 C 0.3677(9) 0.0988(6) 0.9588(2)
H2 H 0.3400 0.1428 0.9438
C8 C 0.7328(9) -0.0347(6) 1.0329(2)
H3 H 0.8296 -0.0362 1.0425
C9 C 0.9431(11) 0.1003(6) 1.0187(2)
C10 C 1.0609(9) 0.1015(5) 1.0333(2)
C11 C 1.2034(10) 0.1059(6) 1.0503(2)
C12 C 1.3001(10) 0.1745(6) 1.0447(2)
H4 H 1.2699 0.2197 1.0304
C13 C 1.4360(9) 0.1781(6) 1.0591(2)
H5 H 1.5010 0.2248 1.0545
C14 C 1.4797(8) 0.1162(7) 1.0801(2)
C15 C 1.3852(11) 0.0498(7) 1.0872(2)
H6 H 1.4156 0.0066 1.1023
C16 C 1.2461(10) 0.0447(6) 1.0726(2)
H7 H 1.1803 -0.0009 1.0781
C17 C 1.6321(9) 0.1222(7) 1.0975(3)
H8 H 1.7089 0.1367 1.0810
H9 H 1.6572 0.0649 1.1066
C18 C 1.6398(14) 0.1890(8) 1.1254(3)
H10 H 1.7447 0.1953 1.1327
H11 H 1.6059 0.2454 1.1169
C19 C 1.5434(13) 0.1638(9) 1.1551(4)
H12 H 1.4407 0.1535 1.1470
H13 H 1.5814 0.1083 1.1637
C20 C 1.5340(16) 0.2260(10) 1.1837(4)
H14 H 1.4853 0.2795 1.1760
H15 H 1.6367 0.2411 1.1907
C21 C 1.4487(17) 0.1928(10) 1.2139(4)
C22 C 1.422(4) 0.2705(15) 1.2366(7)
C23 C 0.5860(10) 0.2280(7) 0.9414(2)
C24 C 0.5493(9) 0.2809(6) 0.9219(2)
C25 C 0.5037(12) 0.3429(6) 0.8978(2)
C26 C 0.3604(10) 0.3371(6) 0.8839(2)
H16 H 0.2921 0.2941 0.8909
C27 C 0.3211(11) 0.3956(9) 0.8598(3)
H17 H 0.2252 0.3899 0.8500
C28 C 0.4103(15) 0.4612(7) 0.8490(2)
C29 C 0.5503(12) 0.4661(7) 0.8633(3)
H18 H 0.6165 0.5099 0.8561
C30 C 0.5978(11) 0.4104(7) 0.8873(2)
H19 H 0.6939 0.4172 0.8969
C31 C 0.3512(12) 0.5265(6) 0.8237(2)
C32 C 0.428(4) 0.5073(10) 0.7907(5)
C33 C 0.3829(15) 0.4180(7) 0.7776(3)
C34 C 0.4311(15) 0.4066(8) 0.7416(3)
H20 H 0.3843 0.4530 0.7285
H21 H 0.5404 0.4151 0.7405
C35 C 0.3940(19) 0.3201(10) 0.7251(3)
H22 H 0.2846 0.3118 0.7259
H23 H 0.4402 0.2736 0.7383
C36 C 0.4443(15) 0.3096(8) 0.6892(3)
H24 H 0.4165 0.3610 0.6767
H25 H 0.3956 0.2590 0.6796
H26 H 0.5528 0.3021 0.6886
C1A C 0.2013(9) -0.0988(6) 0.9972(2)
C2A C 0.2386(10) -0.1605(6) 1.0199(2)
H1A H 0.1667 -0.2028 1.0257
C3A C 0.3785(10) -0.1629(6) 1.0347(2)
C4A C 0.4863(9) -0.0980(6) 1.0269(2)
C5A C 0.4474(9) -0.0322(6) 1.0040(2)
C6A C 0.3016(10) -0.0324(6) 0.9889(2)
C7A C 0.6323(9) -0.0988(6) 1.0412(2)
H2A H 0.6600 -0.1428 1.0562
C8A C 0.2672(9) 0.0347(6) 0.9671(2)
H3A H 0.1704 0.0362 0.9575
C9A C 0.0569(11) -0.1003(6) 0.9813(2)
C10A C -0.0609(9) -0.1015(5) 0.9667(2)
C11A C -0.2034(10) -0.1059(6) 0.9497(2)
C12A C -0.3001(10) -0.1745(6) 0.9553(2)
H4A H -0.2699 -0.2197 0.9696
C13A C -0.4360(9) -0.1781(6) 0.9409(2)
H5A H -0.5010 -0.2248 0.9455
C14A C -0.4797(8) -0.1162(7) 0.9199(2)
C15A C -0.3852(11) -0.0498(7) 0.9128(2)
H6A H -0.4156 -0.0066 0.8977
C16A C -0.2461(10) -0.0447(6) 0.9274(2)
H7A H -0.1803 0.0009 0.9219
C17A C -0.6321(9) -0.1222(7) 0.9025(3)
H8A H -0.7089 -0.1367 0.9190
H9A H -0.6572 -0.0649 0.8934
C18A C -0.6398(14) -0.1890(8) 0.8746(3)
H10A H -0.7447 -0.1953 0.8673
H11A H -0.6059 -0.2454 0.8831
C19A C -0.5434(13) -0.1638(9) 0.8449(4)
H12A H -0.4407 -0.1535 0.8530
H13A H -0.5814 -0.1083 0.8363
C20A C -0.5340(16) -0.2260(10) 0.8163(4)
H14A H -0.4853 -0.2795 0.8240
H15A H -0.6367 -0.2411 0.8093
C21A C -0.4487(17) -0.1928(10) 0.7861(4)
C22A C -0.422(4) -0.2705(15) 0.7634(7)
C23A C 0.4140(10) -0.2280(7) 1.0586(2)
C24A C 0.4507(9) -0.2809(6) 1.0781(2)
C25A C 0.4963(12) -0.3429(6) 1.1022(2)
C26A C 0.6396(10) -0.3371(6) 1.1161(2)
H16A H 0.7079 -0.2941 1.1091
C27A C 0.6789(11) -0.3956(9) 1.1402(3)
H17A H 0.7748 -0.3899 1.1500
C28A C 0.5897(15) -0.4612(7) 1.1510(2)
C29A C 0.4497(12) -0.4661(7) 1.1367(3)
H18A H 0.3835 -0.5099 1.1439
C30A C 0.4022(11) -0.4104(7) 1.1127(2)
H19A H 0.3061 -0.4172 1.1031
C31A C 0.6488(12) -0.5265(6) 1.1763(2)
C32A C 0.572(4) -0.5073(10) 1.2093(5)
C33A C 0.6171(15) -0.4180(7) 1.2224(3)
C34A C 0.5689(15) -0.4066(8) 1.2584(3)
H20A H 0.6157 -0.4530 1.2715
H21A H 0.4596 -0.4151 1.2595
C35A C 0.6060(19) -0.3201(10) 1.2749(3)
H22A H 0.7154 -0.3118 1.2741
H23A H 0.5598 -0.2736 1.2617
C36A C 0.5557(15) -0.3096(8) 1.3108(3)
H24A H 0.5835 -0.3610 1.3233
H25A H 0.6044 -0.2590 1.3204
H26A H 0.4472 -0.3021 1.3114
C37 C 1.3600(10) 0.3456(7) 0.5358(3)
C38 C 1.2241(9) 0.3491(6) 0.5197(2)
H27 H 1.1487 0.3088 0.5254
C39 C 1.1949(10) 0.4097(7) 0.4957(2)
C40 C 1.3033(10) 0.4729(6) 0.4875(2)
C41 C 1.4456(9) 0.4696(5) 0.5040(2)
C42 C 1.4733(10) 0.4028(6) 0.5273(2)
C43 C 1.2744(10) 0.5424(6) 0.4659(2)
H28 H 1.1772 0.5488 0.4568
C44 C 1.6179(10) 0.3998(6) 0.5422(2)
H29 H 1.6392 0.3566 0.5581
C45 C 1.3860(10) 0.2828(7) 0.5616(3)
C46 C 1.3966(9) 0.2301(7) 0.5842(3)
C47 C 1.4079(11) 0.1701(6) 0.6097(3)
C48 C 1.2784(12) 0.1410(7) 0.6245(3)
H30 H 1.1842 0.1602 0.6167
C49 C 1.2850(12) 0.0848(7) 0.6506(3)
H31 H 1.1946 0.0667 0.6605
C50 C 1.4218(14) 0.0528(7) 0.6630(3)
C51 C 1.5476(15) 0.0844(8) 0.6474(3)
H32 H 1.6421 0.0658 0.6552
C52 C 1.5456(10) 0.1416(6) 0.6208(2)
H33 H 1.6355 0.1603 0.6108
C53 C 1.457(3) -0.0160(11) 0.6892(4)
C54 C 1.502(3) 0.0258(18) 0.7221(6)
C55 C 1.390(3) 0.066(2) 0.7461(6)
C56 C 1.4265(18) 0.1030(10) 0.7804(4)
C57 C 1.422(4) 0.0795(11) 0.8171(4)
C58 C 1.384(2) 0.1671(11) 0.8327(5)
C59 C 1.0525(12) 0.4079(6) 0.4785(3)
C60 C 0.9374(11) 0.4033(6) 0.4635(2)
C61 C 0.7946(10) 0.3977(7) 0.4474(3)
C62 C 0.7488(10) 0.4591(6) 0.4256(2)
H34 H 0.8153 0.5036 0.4193
C63 C 0.6041(11) 0.4568(7) 0.4127(2)
H35 H 0.5726 0.5013 0.3982
C64 C 0.5057(9) 0.3912(6) 0.4204(2)
C65 C 0.5523(10) 0.3284(6) 0.4433(2)
H36 H 0.4862 0.2836 0.4496
C66 C 0.6924(11) 0.3322(6) 0.4564(2)
H37 H 0.7222 0.2900 0.4720
C67 C 0.3451(8) 0.3872(6) 0.4070(2)
H38 H 0.3114 0.4457 0.4009
H39 H 0.2777 0.3648 0.4241
C68 C 0.3385(8) 0.3282(6) 0.3766(2)
H40 H 0.3793 0.2709 0.3823
H41 H 0.4007 0.3528 0.3589
C69 C 0.1768(9) 0.3182(6) 0.3642(2)
H42 H 0.1338 0.3760 0.3604
H43 H 0.1169 0.2896 0.3814
C70 C 0.1654(11) 0.2655(6) 0.3323(2)
H44 H 0.0609 0.2663 0.3243
H45 H 0.2282 0.2929 0.3152
C71 C 0.2156(11) 0.1716(6) 0.3370(2)
H46 H 0.1711 0.1486 0.3574
H47 H 0.3254 0.1698 0.3395
C72 C 0.1686(13) 0.1146(7) 0.3078(3)
H48 H 0.0608 0.1196 0.3043
H49 H 0.1940 0.0545 0.3126
H50 H 0.2212 0.1333 0.2880
C37A C 1.6400(10) 0.6544(7) 0.4642(3)
C38A C 1.7759(9) 0.6509(6) 0.4803(2)
H27A H 1.8513 0.6912 0.4746
C39A C 1.8051(10) 0.5903(7) 0.5043(2)
C40A C 1.6967(10) 0.5271(6) 0.5125(2)
C41A C 1.5544(9) 0.5304(5) 0.4960(2)
C42A C 1.5267(10) 0.5972(6) 0.4727(2)
C43A C 1.7256(10) 0.4576(6) 0.5341(2)
H28A H 1.8228 0.4512 0.5432
C44A C 1.3821(10) 0.6002(6) 0.4578(2)
H29A H 1.3608 0.6434 0.4419
C45A C 1.6140(10) 0.7172(7) 0.4384(3)
C46A C 1.6034(9) 0.7699(7) 0.4158(3)
C47A C 1.5921(11) 0.8299(6) 0.3903(3)
C48A C 1.7216(12) 0.8590(7) 0.3755(3)
H30A H 1.8158 0.8398 0.3833
C49A C 1.7150(12) 0.9152(7) 0.3494(3)
H31A H 1.8054 0.9333 0.3395
C50A C 1.5782(14) 0.9472(7) 0.3370(3)
C51A C 1.4524(15) 0.9156(8) 0.3526(3)
H32A H 1.3579 0.9342 0.3448
C52A C 1.4544(10) 0.8584(6) 0.3792(2)
H33A H 1.3645 0.8397 0.3892
C53A C 1.543(3) 1.0160(11) 0.3108(4)
C54A C 1.498(3) 0.9742(18) 0.2779(6)
C55A C 1.610(3) 0.934(2) 0.2539(6)
C56A C 1.5735(18) 0.8970(10) 0.2196(4)
C57A C 1.578(4) 0.9205(11) 0.1829(4)
C58A C 1.616(2) 0.8329(11) 0.1673(5)
C59A C 1.9475(12) 0.5921(6) 0.5215(3)
C60A C 2.0626(11) 0.5967(6) 0.5365(2)
C61A C 2.2054(10) 0.6023(7) 0.5526(3)
C62A C 2.2512(10) 0.5409(6) 0.5744(2)
H34A H 2.1847 0.4964 0.5807
C63A C 2.3959(11) 0.5432(7) 0.5873(2)
H35A H 2.4274 0.4987 0.6018
C64A C 2.4943(9) 0.6088(6) 0.5796(2)
C65A C 2.4477(10) 0.6716(6) 0.5567(2)
H36A H 2.5138 0.7164 0.5504
C66A C 2.3076(11) 0.6678(6) 0.5436(2)
H37A H 2.2778 0.7100 0.5280
C67A C 2.6549(8) 0.6128(6) 0.5930(2)
H38A H 2.6886 0.5543 0.5991
H39A H 2.7223 0.6352 0.5759
C68A C 2.6615(8) 0.6718(6) 0.6234(2)
H40A H 2.6207 0.7291 0.6177
H41A H 2.5993 0.6472 0.6411
C69A C 2.8232(9) 0.6818(6) 0.6358(2)
H42A H 2.8662 0.6240 0.6396
H43A H 2.8831 0.7104 0.6186
C70A C 2.8346(11) 0.7345(6) 0.6677(2)
H44A H 2.9391 0.7337 0.6757
H45A H 2.7718 0.7071 0.6848
C71A C 2.7844(11) 0.8284(6) 0.6630(2)
H46A H 2.8289 0.8514 0.6426
H47A H 2.6746 0.8302 0.6605
C72A C 2.8314(13) 0.8854(7) 0.6922(3)
H48A H 2.9392 0.8804 0.6957
H49A H 2.8060 0.9455 0.6874
H50A H 2.7788 0.8667 0.7120
C73 C 0.3061(10) 0.9098(6) 0.5052(2)
C74 C 0.2767(10) 0.8487(7) 0.4810(3)
H51 H 0.3525 0.8085 0.4756
C75 C 0.1388(10) 0.8439(6) 0.4641(3)
C76 C 0.0261(10) 0.9040(6) 0.4727(3)
C77 C 0.0555(9) 0.9694(6) 0.4959(2)
C78 C 0.1971(10) 0.9735(6) 0.5116(2)
C79 C -0.1197(10) 0.9001(6) 0.4577(2)
H52 H -0.1427 0.8555 0.4425
C80 C 0.2240(10) 1.0399(6) 0.5349(2)
H53 H 0.3183 1.0425 0.5456
C81 C 0.4464(10) 0.9081(6) 0.5213(2)
C82 C 0.5632(11) 0.9023(6) 0.5357(2)
C83 C 0.7053(10) 0.8973(6) 0.5521(3)
C84 C 0.8037(10) 0.8313(6) 0.5437(2)
H54 H 0.7732 0.7875 0.5289
C85 C 0.9472(11) 0.8299(6) 0.5572(3)
H55 H 1.0133 0.7848 0.5512
C86 C 0.9943(8) 0.8902(7) 0.5784(2)
C87 C 0.8949(11) 0.9556(6) 0.5880(2)
H56 H 0.9243 0.9976 0.6038
C88 C 0.7547(10) 0.9578(6) 0.5742(3)
H57 H 0.6891 1.0031 0.5802
C89 C 1.1528(8) 0.8870(6) 0.5931(2)
H58 H 1.1851 0.9460 0.5989
H59 H 1.2225 0.8644 0.5764
C90 C 1.1598(8) 0.8297(6) 0.6239(2)
H60 H 1.0996 0.8558 0.6416
H61 H 1.1173 0.7724 0.6188
C91 C 1.3224(8) 0.8197(7) 0.6355(2)
H62 H 1.3658 0.8774 0.6395
H63 H 1.3811 0.7916 0.6180
C92 C 1.3345(11) 0.7660(6) 0.6672(2)
H64 H 1.4395 0.7667 0.6749
H65 H 1.2733 0.7936 0.6844
C93 C 1.2840(11) 0.6718(6) 0.6634(2)
H66 H 1.3260 0.6484 0.6428
H67 H 1.1740 0.6703 0.6614
C94 C 1.3319(13) 0.6136(7) 0.6921(2)
H68 H 1.4407 0.6151 0.6945
H69 H 1.2995 0.5544 0.6878
H70 H 1.2860 0.6342 0.7125
C95 C 0.1179(11) 0.7812(7) 0.4394(3)
C96 C 0.1053(10) 0.7331(7) 0.4168(3)
C97 C 0.0944(11) 0.6713(6) 0.3902(3)
C98 C -0.0446(12) 0.6417(6) 0.3789(3)
H71 H -0.1330 0.6616 0.3892
C99 C -0.0550(12) 0.5850(7) 0.3534(3)
H72 H -0.1509 0.5670 0.3461
C100 C 0.0711(15) 0.5527(7) 0.3379(2)
C101 C 0.2144(13) 0.5821(7) 0.3488(3)
H73 H 0.3030 0.5630 0.3384
C102 C 0.2206(11) 0.6397(7) 0.3751(3)
H74 H 0.3155 0.6578 0.3830
C103 C 0.0692(14) 0.4956(8) 0.3070(2)
C104 C 0.087(2) 0.5646(10) 0.2801(4)
C105 C 0.094(3) 0.5265(11) 0.2452(4)
C106 C 0.0724(18) 0.5992(10) 0.2199(4)
C107 C 0.210(2) 0.6440(17) 0.2051(6)
C108 C 0.140(3) 0.6800(17) 0.1734(7)
C73A C -0.3061(10) 1.0902(6) 0.4948(2)
C74A C -0.2767(10) 1.1513(7) 0.5190(3)
H51A H -0.3525 1.1915 0.5244
C75A C -0.1388(10) 1.1561(6) 0.5359(3)
C76A C -0.0261(10) 1.0960(6) 0.5273(3)
C77A C -0.0555(9) 1.0306(6) 0.5041(2)
C78A C -0.1971(10) 1.0265(6) 0.4884(2)
C79A C 0.1197(10) 1.0999(6) 0.5423(2)
H52A H 0.1427 1.1445 0.5575
C80A C -0.2240(10) 0.9601(6) 0.4651(2)
H53A H -0.3183 0.9575 0.4544
C81A C -0.4464(10) 1.0919(6) 0.4787(2)
C82A C -0.5632(11) 1.0977(6) 0.4643(2)
C83A C -0.7053(10) 1.1027(6) 0.4479(3)
C84A C -0.8037(10) 1.1687(6) 0.4563(2)
H54A H -0.7732 1.2125 0.4711
C85A C -0.9472(11) 1.1701(6) 0.4428(3)
H55A H -1.0133 1.2152 0.4488
C86A C -0.9943(8) 1.1098(7) 0.4216(2)
C87A C -0.8949(11) 1.0444(6) 0.4120(2)
H56A H -0.9243 1.0024 0.3962
C88A C -0.7547(10) 1.0422(6) 0.4258(3)
H57A H -0.6891 0.9969 0.4198
C89A C -1.1528(8) 1.1130(6) 0.4069(2)
H58A H -1.1851 1.0540 0.4011
H59A H -1.2225 1.1356 0.4236
C90A C -1.1598(8) 1.1703(6) 0.3761(2)
H60A H -1.0996 1.1442 0.3584
H61A H -1.1173 1.2276 0.3812
C91A C -1.3224(8) 1.1803(7) 0.3645(2)
H62A H -1.3658 1.1226 0.3605
H63A H -1.3811 1.2084 0.3820
C92A C -1.3345(11) 1.2340(6) 0.3328(2)
H64A H -1.4395 1.2333 0.3251
H65A H -1.2733 1.2064 0.3156
C93A C -1.2840(11) 1.3282(6) 0.3366(2)
H66A H -1.3260 1.3516 0.3572
H67A H -1.1740 1.3297 0.3386
C94A C -1.3319(13) 1.3864(7) 0.3079(2)
H68A H -1.4407 1.3849 0.3055
H69A H -1.2995 1.4456 0.3122
H70A H -1.2860 1.3658 0.2875
C95A C -0.1179(11) 1.2188(7) 0.5606(3)
C96A C -0.1053(10) 1.2669(7) 0.5832(3)
C97A C -0.0944(11) 1.3287(6) 0.6098(3)
C98A C 0.0446(12) 1.3583(6) 0.6211(3)
H71A H 0.1330 1.3384 0.6108
C99A C 0.0550(12) 1.4150(7) 0.6466(3)
H72A H 0.1509 1.4330 0.6539
C100A C -0.0711(15) 1.4473(7) 0.6621(2)
C101A C -0.2144(13) 1.4179(7) 0.6512(3)
H73A H -0.3030 1.4370 0.6616
C102A C -0.2206(11) 1.3603(7) 0.6249(3)
H74A H -0.3155 1.3422 0.6170
C103A C -0.0692(14) 1.5044(8) 0.6930(2)
C104A C -0.087(2) 1.4354(10) 0.7199(4)
C105A C -0.094(3) 1.4735(11) 0.7548(4)
C106A C -0.0724(18) 1.4008(10) 0.7801(4)
C107A C -0.210(2) 1.3560(17) 0.7949(6)
C108A C -0.140(3) 1.3200(17) 0.8266(7)
C109 C 0.7026(9) 0.5988(6) -0.0027(2)
C110 C 0.7374(10) 0.6605(6) 0.0206(2)
H75 H 0.6643 0.7013 0.0271
C111 C 0.8805(10) 0.6631(6) 0.0347(2)
C112 C 0.9832(9) 0.5978(6) 0.0262(2)
C113 C 0.9463(9) 0.5335(6) 0.0034(2)
C114 C 0.8012(9) 0.5309(6) -0.0111(2)
C115 C 1.1308(10) 0.5988(6) 0.0408(2)
H76 H 1.1580 0.6432 0.0557
C116 C 0.7689(9) 0.4643(6) -0.0331(2)
H77 H 0.6731 0.4628 -0.0431
C117 C 0.5550(11) 0.5997(6) -0.0187(2)
C118 C 0.4401(11) 0.6037(6) -0.0335(2)
C119 C 0.2992(10) 0.6071(7) -0.0508(2)
C120 C 0.2550(10) 0.5442(6) -0.0715(2)
H78 H 0.3173 0.4959 -0.0753
C121 C 0.1169(11) 0.5507(6) -0.0871(3)
H79 H 0.0900 0.5089 -0.1031
C122 C 0.0184(8) 0.6159(7) -0.0800(2)
C123 C 0.0636(10) 0.6796(6) -0.0589(2)
H80 H -0.0010 0.7266 -0.0545
C124 C 0.1978(10) 0.6761(6) -0.0444(2)
H81 H 0.2264 0.7204 -0.0296
C125 C -0.1333(9) 0.6216(7) -0.0977(3)
H82 H -0.2112 0.6353 -0.0814
H83 H -0.1575 0.5647 -0.1073
C126 C -0.1378(12) 0.6897(7) -0.1251(3)
H84 H -0.2425 0.6987 -0.1322
H85 H -0.0996 0.7450 -0.1165
C127 C -0.0441(12) 0.6627(8) -0.1550(3)
H86 H -0.0877 0.6092 -0.1641
H87 H 0.0576 0.6486 -0.1471
C128 C -0.0301(14) 0.7283(8) -0.1832(3)
H88 H 0.0310 0.7775 -0.1755
H89 H -0.1306 0.7504 -0.1887
C129 C 0.0409(16) 0.6908(10) -0.2144(4)
C130 C 0.077(6) 0.777(2) -0.2316(12)
C131 C 0.9149(10) 0.7276(7) 0.0580(3)
C132 C 0.9473(10) 0.7807(6) 0.0782(2)
C133 C 0.9920(11) 0.8422(7) 0.1020(2)
C134 C 1.1339(12) 0.8385(6) 0.1164(2)
H90 H 1.2000 0.7940 0.1097
C135 C 1.1816(12) 0.8966(8) 0.1397(3)
H91 H 1.2801 0.8925 0.1483
C136 C 1.0897(13) 0.9596(6) 0.1505(2)
C137 C 0.9521(12) 0.9681(7) 0.1361(3)
H92 H 0.8903 1.0154 0.1417
C138 C 0.9028(11) 0.9081(6) 0.1135(2)
H93 H 0.8035 0.9123 0.1054
C139 C 1.1423(13) 1.0246(7) 0.1767(3)
H94 H 1.2526 1.0236 0.1776
H95 H 1.1116 1.0829 0.1696
C140 C 1.0825(16) 1.0088(8) 0.2115(3)
H96 H 1.1313 1.0494 0.2269
H97 H 0.9740 1.0206 0.2118
C141 C 1.1099(15) 0.9162(8) 0.2235(3)
H98 H 1.2165 0.9013 0.2208
H99 H 1.0497 0.8756 0.2102
C142 C 1.0667(15) 0.9082(9) 0.2599(3)
H100 H 1.1178 0.9543 0.2725
H101 H 0.9580 0.9176 0.2619
C143 C 1.106(2) 0.8208(9) 0.2753(4)
H102 H 1.2158 0.8129 0.2741
H103 H 1.0594 0.7748 0.2620
C144 C 1.0579(17) 0.8097(9) 0.3113(3)
H104 H 1.0835 0.8617 0.3238
H105 H 1.1094 0.7601 0.3209
H106 H 0.9499 0.8003 0.3121
C109A C 1.2974(9) 0.4012(6) 0.0027(2)
C110A C 1.2626(10) 0.3395(6) -0.0206(2)
H75A H 1.3357 0.2987 -0.0271
C111A C 1.1195(10) 0.3369(6) -0.0347(2)
C112A C 1.0168(9) 0.4022(6) -0.0262(2)
C113A C 1.0537(9) 0.4665(6) -0.0034(2)
C114A C 1.1988(9) 0.4691(6) 0.0111(2)
C115A C 0.8692(10) 0.4012(6) -0.0408(2)
H76A H 0.8420 0.3568 -0.0557
C116A C 1.2311(9) 0.5357(6) 0.0331(2)
H77A H 1.3269 0.5372 0.0431
C117A C 1.4450(11) 0.4003(6) 0.0187(2)
C118A C 1.5599(11) 0.3963(6) 0.0335(2)
C119A C 1.7008(10) 0.3929(7) 0.0508(2)
C120A C 1.7450(10) 0.4558(6) 0.0715(2)
H78A H 1.6827 0.5041 0.0753
C121A C 1.8831(11) 0.4493(6) 0.0871(3)
H79A H 1.9100 0.4911 0.1031
C122A C 1.9816(8) 0.3841(7) 0.0800(2)
C123A C 1.9364(10) 0.3204(6) 0.0589(2)
H80A H 2.0010 0.2734 0.0545
C124A C 1.8022(10) 0.3239(6) 0.0444(2)
H81A H 1.7736 0.2796 0.0296
C125A C 2.1333(9) 0.3784(7) 0.0977(3)
H82A H 2.2112 0.3647 0.0814
H83A H 2.1575 0.4353 0.1073
C126A C 2.1378(12) 0.3103(7) 0.1251(3)
H84A H 2.2425 0.3013 0.1322
H85A H 2.0996 0.2550 0.1165
C127A C 2.0441(12) 0.3373(8) 0.1550(3)
H86A H 2.0877 0.3908 0.1641
H87A H 1.9424 0.3514 0.1471
C128A C 2.0301(14) 0.2717(8) 0.1832(3)
H88A H 1.9690 0.2225 0.1755
H89A H 2.1306 0.2496 0.1887
C129A C 1.9591(16) 0.3092(10) 0.2144(4)
C130A C 1.923(6) 0.223(2) 0.2316(12)
C131A C 1.0851(10) 0.2724(7) -0.0580(3)
C132A C 1.0527(10) 0.2193(6) -0.0782(2)
C133A C 1.0080(11) 0.1578(7) -0.1020(2)
C134A C 0.8661(12) 0.1615(6) -0.1164(2)
H90A H 0.8000 0.2060 -0.1097
C135A C 0.8184(12) 0.1034(8) -0.1397(3)
H91A H 0.7199 0.1075 -0.1483
C136A C 0.9103(13) 0.0404(6) -0.1505(2)
C137A C 1.0479(12) 0.0319(7) -0.1361(3)
H92A H 1.1097 -0.0154 -0.1417
C138A C 1.0972(11) 0.0919(6) -0.1135(2)
H93A H 1.1965 0.0877 -0.1054
C139A C 0.8577(13) -0.0246(7) -0.1767(3)
H94A H 0.7474 -0.0236 -0.1776
H95A H 0.8884 -0.0829 -0.1696
C140A C 0.9175(16) -0.0088(8) -0.2115(3)
H96A H 0.8687 -0.0494 -0.2269
H97A H 1.0260 -0.0206 -0.2118
C141A C 0.8901(15) 0.0838(8) -0.2235(3)
H98A H 0.7835 0.0987 -0.2208
H99A H 0.9503 0.1244 -0.2102
C142A C 0.9333(15) 0.0918(9) -0.2599(3)
H100A H 0.8822 0.0457 -0.2725
H101A H 1.0420 0.0824 -0.2619
C143A C 0.894(2) 0.1792(9) -0.2753(4)
H102A H 0.7842 0.1871 -0.2741
H103A H 0.9406 0.2252 -0.2620
C144A C 0.9421(17) 0.1903(9) -0.3113(3)
H104A H 0.9165 0.1383 -0.3238
H105A H 0.8906 0.2399 -0.3209
H106A H 1.0501 0.1997 -0.3121
C145? C 1.487(4) 0.247(2) 1.2444(6)
C146? C 0.400(5) 0.5130(11) 0.7878(5)
C147? C 1.407(3) 0.0088(12) 0.6968(3)
C148? C 1.404(2) 0.0737(12) 0.7253(5)
C149? C 1.416(3) 0.0236(10) 0.7579(4)
C150? C 1.300(2) 0.1413(19) 0.8012(5)
C151? C -0.009(3) 0.5287(18) 0.2757(5)
C152? C 0.110(3) 0.578(2) 0.2559(5)
C153? C 0.077(4) 0.5776(18) 0.1830(4)
C154? C 0.084(3) 0.6519(17) 0.1580(7)
C155? C 0.049(3) 0.7551(17) -0.2432(6)
loop_
_geom_bond_atom_site_label_1
_geom_bond_atom_site_label_2
_geom_bond_site_symmetry_1
_geom_bond_site_symmetry_2
C1 C2 1_555 1_555
C2 H1 1_555 1_555
C3 C2 1_555 1_555
C4 C3 1_555 1_555
C5 C4 1_555 1_555
C6 C1 1_555 1_555
C7 C4 1_555 1_555
H2 C7 1_555 1_555
C8 C6 1_555 1_555
H3 C8 1_555 1_555
C9 C1 1_555 1_555
C10 C9 1_555 1_555
C11 C10 1_555 1_555
C12 C11 1_555 1_555
H4 C12 1_555 1_555
C13 C12 1_555 1_555
H5 C13 1_555 1_555
C14 C13 1_555 1_555
C15 C14 1_555 1_555
H6 C15 1_555 1_555
C16 C11 1_555 1_555
H7 C16 1_555 1_555
C17 C14 1_555 1_555
H8 C17 1_555 1_555
H9 C17 1_555 1_555
C18 C17 1_555 1_555
H10 C18 1_555 1_555
H11 C18 1_555 1_555
C19 C18 1_555 1_555
H12 C19 1_555 1_555
H13 C19 1_555 1_555
C20 C19 1_555 1_555
H14 C20 1_555 1_555
H15 C20 1_555 1_555
C21 C20 1_555 1_555
C22 C21 1_555 1_555
C23 C3 1_555 1_555
C24 C23 1_555 1_555
C25 C24 1_555 1_555
C26 C25 1_555 1_555
H16 C26 1_555 1_555
C27 C26 1_555 1_555
H17 C27 1_555 1_555
C28 C27 1_555 1_555
C29 C28 1_555 1_555
H18 C29 1_555 1_555
C30 C25 1_555 1_555
H19 C30 1_555 1_555
C31 C28 1_555 1_555
C32 C31 1_555 1_555
C33 C32 1_555 1_555
C34 C33 1_555 1_555
H20 C34 1_555 1_555
H21 C34 1_555 1_555
C35 C34 1_555 1_555
H22 C35 1_555 1_555
H23 C35 1_555 1_555
C36 C35 1_555 1_555
H24 C36 1_555 1_555
H25 C36 1_555 1_555
H26 C36 1_555 1_555
C37 C38 1_555 1_555
C38 H27 1_555 1_555
C39 C38 1_555 1_555
C40 C39 1_555 1_555
C41 C40 1_555 1_555
C42 C37 1_555 1_555
C43 C40 1_555 1_555
H28 C43 1_555 1_555
C44 C42 1_555 1_555
H29 C44 1_555 1_555
C45 C37 1_555 1_555
C46 C45 1_555 1_555
C47 C46 1_555 1_555
C48 C47 1_555 1_555
H30 C48 1_555 1_555
C49 C48 1_555 1_555
H31 C49 1_555 1_555
C50 C49 1_555 1_555
C51 C50 1_555 1_555
H32 C51 1_555 1_555
C52 C47 1_555 1_555
H33 C52 1_555 1_555
C53 C50 1_555 1_555
C54 C53 1_555 1_555
C55 C54 1_555 1_555
C56 C55 1_555 1_555
C57 C56 1_555 1_555
C58 C57 1_555 1_555
C59 C39 1_555 1_555
C60 C59 1_555 1_555
C61 C60 1_555 1_555
C62 C61 1_555 1_555
H34 C62 1_555 1_555
C63 C62 1_555 1_555
H35 C63 1_555 1_555
C64 C63 1_555 1_555
C65 C64 1_555 1_555
H36 C65 1_555 1_555
C66 C61 1_555 1_555
H37 C66 1_555 1_555
C67 C64 1_555 1_555
H38 C67 1_555 1_555
H39 C67 1_555 1_555
C68 C67 1_555 1_555
H40 C68 1_555 1_555
H41 C68 1_555 1_555
C69 C68 1_555 1_555
H42 C69 1_555 1_555
H43 C69 1_555 1_555
C70 C69 1_555 1_555
H44 C70 1_555 1_555
H45 C70 1_555 1_555
C71 C70 1_555 1_555
H46 C71 1_555 1_555
H47 C71 1_555 1_555
C72 C71 1_555 1_555
H48 C72 1_555 1_555
H49 C72 1_555 1_555
H50 C72 1_555 1_555
C73 C74 1_555 1_555
C74 H51 1_555 1_555
C75 C74 1_555 1_555
C76 C75 1_555 1_555
C77 C76 1_555 1_555
C78 C73 1_555 1_555
C79 C76 1_555 1_555
H52 C79 1_555 1_555
C80 C78 1_555 1_555
H53 C80 1_555 1_555
C81 C73 1_555 1_555
C82 C81 1_555 1_555
C83 C82 1_555 1_555
C84 C83 1_555 1_555
H54 C84 1_555 1_555
C85 C84 1_555 1_555
H55 C85 1_555 1_555
C86 C85 1_555 1_555
C87 C86 1_555 1_555
H56 C87 1_555 1_555
C88 C83 1_555 1_555
H57 C88 1_555 1_555
C89 C86 1_555 1_555
H58 C89 1_555 1_555
H59 C89 1_555 1_555
C90 C89 1_555 1_555
H60 C90 1_555 1_555
H61 C90 1_555 1_555
C91 C90 1_555 1_555
H62 C91 1_555 1_555
H63 C91 1_555 1_555
C92 C91 1_555 1_555
H64 C92 1_555 1_555
H65 C92 1_555 1_555
C93 C92 1_555 1_555
H66 C93 1_555 1_555
H67 C93 1_555 1_555
C94 C93 1_555 1_555
H68 C94 1_555 1_555
H69 C94 1_555 1_555
H70 C94 1_555 1_555
C95 C75 1_555 1_555
C96 C95 1_555 1_555
C97 C96 1_555 1_555
C98 C97 1_555 1_555
H71 C98 1_555 1_555
C99 C98 1_555 1_555
H72 C99 1_555 1_555
C100 C99 1_555 1_555
C101 C100 1_555 1_555
H73 C101 1_555 1_555
C102 C97 1_555 1_555
H74 C102 1_555 1_555
C103 C100 1_555 1_555
C104 C103 1_555 1_555
C105 C104 1_555 1_555
C106 C105 1_555 1_555
C107 C106 1_555 1_555
C108 C107 1_555 1_555
C109 C110 1_555 1_555
C110 H75 1_555 1_555
C111 C110 1_555 1_555
C112 C111 1_555 1_555
C113 C112 1_555 1_555
C114 C109 1_555 1_555
C115 C112 1_555 1_555
H76 C115 1_555 1_555
C116 C114 1_555 1_555
H77 C116 1_555 1_555
C117 C109 1_555 1_555
C118 C117 1_555 1_555
C119 C118 1_555 1_555
C120 C119 1_555 1_555
H78 C120 1_555 1_555
C121 C120 1_555 1_555
H79 C121 1_555 1_555
C122 C121 1_555 1_555
C123 C122 1_555 1_555
H80 C123 1_555 1_555
C124 C119 1_555 1_555
H81 C124 1_555 1_555
C125 C122 1_555 1_555
H82 C125 1_555 1_555
H83 C125 1_555 1_555
C126 C125 1_555 1_555
H84 C126 1_555 1_555
H85 C126 1_555 1_555
C127 C126 1_555 1_555
H86 C127 1_555 1_555
H87 C127 1_555 1_555
C128 C127 1_555 1_555
H88 C128 1_555 1_555
H89 C128 1_555 1_555
C129 C128 1_555 1_555
C130 C129 1_555 1_555
C131 C111 1_555 1_555
C132 C131 1_555 1_555
C133 C132 1_555 1_555
C134 C133 1_555 1_555
H90 C134 1_555 1_555
C135 C134 1_555 1_555
H91 C135 1_555 1_555
C136 C135 1_555 1_555
C137 C136 1_555 1_555
H92 C137 1_555 1_555
C138 C133 1_555 1_555
H93 C138 1_555 1_555
C139 C136 1_555 1_555
H94 C139 1_555 1_555
H95 C139 1_555 1_555
C140 C139 1_555 1_555
H96 C140 1_555 1_555
H97 C140 1_555 1_555
C141 C140 1_555 1_555
H98 C141 1_555 1_555
H99 C141 1_555 1_555
C142 C141 1_555 1_555
H100 C142 1_555 1_555
H101 C142 1_555 1_555
C143 C142 1_555 1_555
H102 C143 1_555 1_555
H103 C143 1_555 1_555
C144 C143 1_555 1_555
H104 C144 1_555 1_555
H105 C144 1_555 1_555
H106 C144 1_555 1_555
C1A C2A 1_555 1_555
C2A H1A 1_555 1_555
C3A C2A 1_555 1_555
C4A C3A 1_555 1_555
C5A C5 1_555 1_555
C6A C1A 1_555 1_555
C7A C8 1_555 1_555
H2A C7A 1_555 1_555
C8A C7 1_555 1_555
H3A C8A 1_555 1_555
C9A C1A 1_555 1_555
C10A C9A 1_555 1_555
C11A C10A 1_555 1_555
C12A C11A 1_555 1_555
H4A C12A 1_555 1_555
C13A C12A 1_555 1_555
H5A C13A 1_555 1_555
C14A C13A 1_555 1_555
C15A C14A 1_555 1_555
H6A C15A 1_555 1_555
C16A C11A 1_555 1_555
H7A C16A 1_555 1_555
C17A C14A 1_555 1_555
H8A C17A 1_555 1_555
H9A C17A 1_555 1_555
C18A C17A 1_555 1_555
H10A C18A 1_555 1_555
H11A C18A 1_555 1_555
C19A C18A 1_555 1_555
H12A C19A 1_555 1_555
H13A C19A 1_555 1_555
C20A C19A 1_555 1_555
H14A C20A 1_555 1_555
H15A C20A 1_555 1_555
C21A C20A 1_555 1_555
C22A C21A 1_555 1_555
C23A C3A 1_555 1_555
C24A C23A 1_555 1_555
C25A C24A 1_555 1_555
C26A C25A 1_555 1_555
H16A C26A 1_555 1_555
C27A C26A 1_555 1_555
H17A C27A 1_555 1_555
C28A C27A 1_555 1_555
C29A C28A 1_555 1_555
H18A C29A 1_555 1_555
C30A C25A 1_555 1_555
H19A C30A 1_555 1_555
C31A C28A 1_555 1_555
C32A C31A 1_555 1_555
C33A C32A 1_555 1_555
C34A C33A 1_555 1_555
H20A C34A 1_555 1_555
H21A C34A 1_555 1_555
C35A C34A 1_555 1_555
H22A C35A 1_555 1_555
H23A C35A 1_555 1_555
C36A C35A 1_555 1_555
H24A C36A 1_555 1_555
H25A C36A 1_555 1_555
H26A C36A 1_555 1_555
C37A C38A 1_555 1_555
C38A H27A 1_555 1_555
C39A C38A 1_555 1_555
C40A C39A 1_555 1_555
C41A C41 1_555 1_555
C42A C37A 1_555 1_555
C43A C44 1_555 1_555
H28A C43A 1_555 1_555
C44A C43 1_555 1_555
H29A C44A 1_555 1_555
C45A C37A 1_555 1_555
C46A C45A 1_555 1_555
C47A C46A 1_555 1_555
C48A C47A 1_555 1_555
H30A C48A 1_555 1_555
C49A C48A 1_555 1_555
H31A C49A 1_555 1_555
C50A C49A 1_555 1_555
C51A C50A 1_555 1_555
H32A C51A 1_555 1_555
C52A C47A 1_555 1_555
H33A C52A 1_555 1_555
C53A C50A 1_555 1_555
C54A C53A 1_555 1_555
C55A C54A 1_555 1_555
C56A C55A 1_555 1_555
C57A C56A 1_555 1_555
C58A C57A 1_555 1_555
C59A C39A 1_555 1_555
C60A C59A 1_555 1_555
C61A C60A 1_555 1_555
C62A C61A 1_555 1_555
H34A C62A 1_555 1_555
C63A C62A 1_555 1_555
H35A C63A 1_555 1_555
C64A C63A 1_555 1_555
C65A C64A 1_555 1_555
H36A C65A 1_555 1_555
C66A C61A 1_555 1_555
H37A C66A 1_555 1_555
C67A C64A 1_555 1_555
H38A C67A 1_555 1_555
H39A C67A 1_555 1_555
C68A C67A 1_555 1_555
H40A C68A 1_555 1_555
H41A C68A 1_555 1_555
C69A C68A 1_555 1_555
H42A C69A 1_555 1_555
H43A C69A 1_555 1_555
C70A C69A 1_555 1_555
H44A C70A 1_555 1_555
H45A C70A 1_555 1_555
C71A C70A 1_555 1_555
H46A C71A 1_555 1_555
H47A C71A 1_555 1_555
C72A C71A 1_555 1_555
H48A C72A 1_555 1_555
H49A C72A 1_555 1_555
H50A C72A 1_555 1_555
C73A C74A 1_555 1_555
C74A H51A 1_555 1_555
C75A C74A 1_555 1_555
C76A C75A 1_555 1_555
C77A C77 1_555 1_555
C78A C73A 1_555 1_555
C79A C80 1_555 1_555
H52A C79A 1_555 1_555
C80A C79 1_555 1_555
H53A C80A 1_555 1_555
C81A C73A 1_555 1_555
C82A C81A 1_555 1_555
C83A C82A 1_555 1_555
C84A C83A 1_555 1_555
H54A C84A 1_555 1_555
C85A C84A 1_555 1_555
H55A C85A 1_555 1_555
C86A C85A 1_555 1_555
C87A C86A 1_555 1_555
H56A C87A 1_555 1_555
C88A C83A 1_555 1_555
H57A C88A 1_555 1_555
C89A C86A 1_555 1_555
H58A C89A 1_555 1_555
H59A C89A 1_555 1_555
C90A C89A 1_555 1_555
H60A C90A 1_555 1_555
H61A C90A 1_555 1_555
C91A C90A 1_555 1_555
H62A C91A 1_555 1_555
H63A C91A 1_555 1_555
C92A C91A 1_555 1_555
H64A C92A 1_555 1_555
H65A C92A 1_555 1_555
C93A C92A 1_555 1_555
H66A C93A 1_555 1_555
H67A C93A 1_555 1_555
C94A C93A 1_555 1_555
H68A C94A 1_555 1_555
H69A C94A 1_555 1_555
H70A C94A 1_555 1_555
C95A C75A 1_555 1_555
C96A C95A 1_555 1_555
C97A C96A 1_555 1_555
C98A C97A 1_555 1_555
H71A C98A 1_555 1_555
C99A C98A 1_555 1_555
H72A C99A 1_555 1_555
C100A C99A 1_555 1_555
C101A C100A 1_555 1_555
H73A C101A 1_555 1_555
C102A C97A 1_555 1_555
H74A C102A 1_555 1_555
C103A C100A 1_555 1_555
C104A C103A 1_555 1_555
C105A C104A 1_555 1_555
C106A C105A 1_555 1_555
C107A C106A 1_555 1_555
C108A C107A 1_555 1_555
C109A C110A 1_555 1_555
C110A H75A 1_555 1_555
C111A C110A 1_555 1_555
C112A C111A 1_555 1_555
C113A C113 1_555 1_555
C114A C109A 1_555 1_555
C115A C116 1_555 1_555
H76A C115A 1_555 1_555
C116A C115 1_555 1_555
H77A C116A 1_555 1_555
C117A C109A 1_555 1_555
C118A C117A 1_555 1_555
C119A C118A 1_555 1_555
C120A C119A 1_555 1_555
H78A C120A 1_555 1_555
C121A C120A 1_555 1_555
H79A C121A 1_555 1_555
C122A C121A 1_555 1_555
C123A C122A 1_555 1_555
H80A C123A 1_555 1_555
C124A C119A 1_555 1_555
H81A C124A 1_555 1_555
C125A C122A 1_555 1_555
H82A C125A 1_555 1_555
H83A C125A 1_555 1_555
C126A C125A 1_555 1_555
H84A C126A 1_555 1_555
H85A C126A 1_555 1_555
C127A C126A 1_555 1_555
H86A C127A 1_555 1_555
H87A C127A 1_555 1_555
C128A C127A 1_555 1_555
H88A C128A 1_555 1_555
H89A C128A 1_555 1_555
C129A C128A 1_555 1_555
C130A C129A 1_555 1_555
C131A C111A 1_555 1_555
C132A C131A 1_555 1_555
C133A C132A 1_555 1_555
C134A C133A 1_555 1_555
H90A C134A 1_555 1_555
C135A C134A 1_555 1_555
H91A C135A 1_555 1_555
C136A C135A 1_555 1_555
C137A C136A 1_555 1_555
H92A C137A 1_555 1_555
C138A C133A 1_555 1_555
H93A C138A 1_555 1_555
C139A C136A 1_555 1_555
H94A C139A 1_555 1_555
H95A C139A 1_555 1_555
C140A C139A 1_555 1_555
H96A C140A 1_555 1_555
H97A C140A 1_555 1_555
C141A C140A 1_555 1_555
H98A C141A 1_555 1_555
H99A C141A 1_555 1_555
C142A C141A 1_555 1_555
H100A C142A 1_555 1_555
H101A C142A 1_555 1_555
C143A C142A 1_555 1_555
H102A C143A 1_555 1_555
H103A C143A 1_555 1_555
C144A C143A 1_555 1_555
H104A C144A 1_555 1_555
H105A C144A 1_555 1_555
H106A C144A 1_555 1_555
C5 C6 1_555 1_555
C15 C16 1_555 1_555
C29 C30 1_555 1_555
C41 C42 1_555 1_555
C51 C52 1_555 1_555
C65 C66 1_555 1_555
C77 C78 1_555 1_555
C87 C88 1_555 1_555
C101 C102 1_555 1_555
C113 C114 1_555 1_555
C123 C124 1_555 1_555
C137 C138 1_555 1_555
C4A C5A 1_555 1_555
C4A C7A 1_555 1_555
C5A C6A 1_555 1_555
C6A C8A 1_555 1_555
C15A C16A 1_555 1_555
C29A C30A 1_555 1_555
C40A C41A 1_555 1_555
C40A C43A 1_555 1_555
C41A C42A 1_555 1_555
C42A C44A 1_555 1_555
C51A C52A 1_555 1_555
C65A C66A 1_555 1_555
C76A C77A 1_555 1_555
C76A C79A 1_555 1_555
C77A C78A 1_555 1_555
C78A C80A 1_555 1_555
C87A C88A 1_555 1_555
C101A C102A 1_555 1_555
C112A C113A 1_555 1_555
C112A C115A 1_555 1_555
C113A C114A 1_555 1_555
C114A C116A 1_555 1_555
C123A C124A 1_555 1_555
C137A C138A 1_555 1_555

#END
