
#######################################################################
#
#                 Cambridge Crystallographic Data Centre
#                                CCDC 
#
#######################################################################
#
# If this CIF has been generated from an entry in the Cambridge 
# Structural Database, then it will include bibliographic, chemical, 
# crystal, experimental, refinement or atomic coordinate data resulting 
# from the CCDC's data processing and validation procedures.
#
#######################################################################

data_EXESUW
_chemical_formula_moiety         'C54 H54 Cl2 N12 O16,2(C1 H2 Cl2),C1 H4 O1'
_chemical_name_systematic        
"(+-)-Tetraethyl 1,10-dimethoxy-6,8,15,17-tetraoxo-4,13-bis(((4-chlorophenyl)carbamoyl)amino)-5,9,14,18-tetrahydro-5a,6a,7a,8a,14a,15a,16a,17a-octaazabenzo[5,6]cyclohepta[1,2,3-cd]benzo[5'',6'']cyclohepta[1'',2'',3'':3',4']pentaleno[1',6':5,6,7]cycloocta[1,2,3-gh]pentalene-15b,15c,17b,17c-tetracarboxylate dichloromethane methanol solvate"
_symmetry_cell_setting           triclinic
_symmetry_space_group_name_H-M   'P -1'
_symmetry_Int_Tables_number      2
_space_group_name_Hall           '-P 1'
loop_
_symmetry_equiv_pos_site_id
_symmetry_equiv_pos_as_xyz
1 x,y,z
2 -x,-y,-z
_cell_length_a                   14.4991(10)
_cell_length_b                   15.5113(11)
_cell_length_c                   16.0201(11)
_cell_angle_alpha                83.924(1)
_cell_angle_beta                 67.417(1)
_cell_angle_gamma                71.886(1)
_cell_volume                     3161.42
_exptl_crystal_colour            colorless
_exptl_crystal_description       block
_chemical_melting_point          'decomposes above 300 deg.C'
_cell_formula_units_Z            2
loop_
_atom_site_label
_atom_site_type_symbol
_atom_site_fract_x
_atom_site_fract_y
_atom_site_fract_z
C1 C 0.6386(3) 0.2661(2) 1.0318(2)
C2 C 0.5838(3) 0.3504(3) 1.0148(2)
H1 H 0.5122 0.3756 1.0513
C3 C 0.6344(3) 0.3988(2) 0.9431(2)
H2 H 0.5972 0.4577 0.9307
C4 C 0.7395(3) 0.3613(2) 0.8892(2)
C5 C 0.7924(3) 0.2761(3) 0.9087(2)
H3 H 0.8642 0.2504 0.8730
C6 C 0.7421(3) 0.2274(3) 0.9799(2)
H4 H 0.7786 0.1683 0.9926
C7 C 0.8542(2) 0.3739(2) 0.73474(19)
C8 C 0.9788(2) 0.39898(19) 0.58812(19)
C9 C 0.9634(2) 0.35870(19) 0.52219(19)
C10 C 1.0472(2) 0.32946(19) 0.43980(19)
C11 C 1.1435(2) 0.34295(19) 0.42390(19)
C12 C 1.1582(2) 0.3829(2) 0.4898(2)
H5 H 1.2239 0.3915 0.4791
C13 C 1.0757(2) 0.4100(2) 0.5710(2)
H6 H 1.0856 0.4369 0.6163
C14 C 1.3208(3) 0.3259(3) 0.3248(2)
H7 H 1.3125 0.3900 0.3326
H8 H 1.3683 0.3059 0.2630
H9 H 1.3499 0.2896 0.3678
C15 C 0.8573(2) 0.3461(2) 0.5405(2)
H10 H 0.8644 0.2804 0.5437
H11 H 0.8079 0.3737 0.6002
C16 C 1.0362(2) 0.2829(2) 0.3677(2)
H12 H 1.1048 0.2650 0.3170
H13 H 1.0181 0.2266 0.3930
C17 C 0.7265(2) 0.4592(2) 0.48946(19)
C18 C 0.9713(2) 0.4111(2) 0.27848(19)
C19 C 0.8492(2) 0.3474(2) 0.38355(19)
C20 C 0.8254(2) 0.2571(2) 0.3829(2)
C21 C 0.7240(3) 0.1607(2) 0.4647(3)
H14 H 0.7850 0.1066 0.4409
H15 H 0.6807 0.1702 0.4276
C22 C 0.6612(3) 0.1480(2) 0.5618(3)
H16 H 0.7061 0.1350 0.5971
H17 H 0.6330 0.0971 0.5663
H18 H 0.6035 0.2034 0.5854
C23 C 0.7913(2) 0.4255(2) 0.33410(19)
C24 C 0.7455(2) 0.3911(2) 0.2758(2)
C25 C 0.6109(3) 0.3323(2) 0.2812(2)
H19 H 0.5681 0.2956 0.3233
H20 H 0.6648 0.2927 0.2299
C26 C 0.5430(3) 0.4094(3) 0.2472(3)
H21 H 0.4920 0.4502 0.2978
H22 H 0.5061 0.3857 0.2194
H23 H 0.5863 0.4429 0.2022
C27 C 0.8673(2) 0.5346(2) 0.21081(19)
H24 H 0.9388 0.5325 0.1683
H25 H 0.8303 0.5208 0.1757
C28 C 0.6243(2) 0.5567(2) 0.4043(2)
H26 H 0.5665 0.5655 0.4642
H27 H 0.5989 0.5409 0.3604
C29 C 0.5974(2) 0.7168(2) 0.4355(2)
C30 C 0.8678(2) 0.6852(2) 0.24924(19)
C31 C 0.7017(2) 0.6654(2) 0.2852(2)
C32 C 0.6505(3) 0.6545(2) 0.2195(2)
C33 C 0.4903(3) 0.6652(3) 0.2072(2)
H28 H 0.5229 0.6124 0.1651
H29 H 0.4869 0.7214 0.1714
C34 C 0.3832(3) 0.6646(3) 0.2706(3)
H30 H 0.3879 0.6089 0.3059
H31 H 0.3396 0.6673 0.2359
H32 H 0.3519 0.7173 0.3116
C35 C 0.6913(2) 0.7678(2) 0.2963(2)
C36 C 0.6528(3) 0.8287(2) 0.2248(2)
C37 C 0.6961(9) 0.9098(9) 0.0875(7)
H33 H 0.6697 0.8752 0.0579
H34 H 0.6411 0.9673 0.1123
C38 C 0.7916(10) 0.9278(9) 0.0229(7)
H35 H 0.8162 0.9626 0.0531
H36 H 0.7768 0.9627 -0.0276
H37 H 0.8456 0.8702 -0.0001
O1 O 0.7257(6) 0.8562(5) 0.1600(4)
C39 C 0.5983(3) 0.8768(2) 0.4293(2)
H38 H 0.5318 0.8885 0.4824
H39 H 0.5900 0.9268 0.3865
C40 C 0.8191(3) 0.8449(2) 0.3005(2)
H40 H 0.7821 0.8980 0.2737
H41 H 0.8951 0.8362 0.2692
C41 C 0.6838(3) 0.8794(2) 0.4604(2)
C42 C 0.7883(3) 0.8650(2) 0.4004(2)
C43 C 0.8622(3) 0.8733(2) 0.4321(2)
C44 C 0.8338(3) 0.8959(2) 0.5220(2)
H42 H 0.8846 0.9026 0.5425
C45 C 0.7317(3) 0.9085(2) 0.5819(2)
H43 H 0.7126 0.9231 0.6436
C46 C 0.6577(3) 0.8999(2) 0.5517(2)
C47 C 1.0147(3) 0.9255(2) 0.3485(2)
C48 C 1.1843(3) 0.9486(3) 0.2452(2)
C49 C 1.1524(4) 1.0426(3) 0.2454(3)
H44 H 1.0819 1.0753 0.2786
C50 C 1.2250(5) 1.0886(4) 0.1964(3)
H45 H 1.2034 1.1530 0.1949
C51 C 1.3262(4) 1.0417(4) 0.1508(3)
C52 C 1.3587(4) 0.9495(4) 0.1485(4)
H46 H 1.4293 0.9174 0.1147
C53 C 1.2872(3) 0.9033(4) 0.1963(4)
H47 H 1.3095 0.8389 0.1953
C54 C 0.5281(3) 0.9247(3) 0.7010(2)
H48 H 0.5717 0.8733 0.7232
H49 H 0.4543 0.9283 0.7335
H50 H 0.5398 0.9810 0.7111
Cl1 Cl 0.57496(7) 0.20441(6) 1.12083(6)
Cl2 Cl 1.41633(15) 1.10121(14) 0.09151(10)
N1 N 0.7879(2) 0.41209(19) 0.81721(17)
H51 H 0.7750 0.4705 0.8256
N2 N 0.8966(2) 0.43243(17) 0.67297(16)
H52 H 0.8734 0.4910 0.6854
N3 N 0.8135(2) 0.38623(17) 0.47217(16)
N4 N 0.9576(2) 0.33731(17) 0.33169(16)
N5 N 0.7104(2) 0.48182(17) 0.40911(16)
N6 N 0.8750(2) 0.46368(17) 0.27842(16)
N7 N 0.6491(2) 0.64173(18) 0.37775(16)
N8 N 0.8140(2) 0.62506(18) 0.24794(17)
N9 N 0.6158(2) 0.79208(18) 0.38580(18)
N10 N 0.7954(2) 0.76539(18) 0.28491(17)
N11 N 0.9689(2) 0.8574(2) 0.3732(2)
H53 H 1.0063 0.8021 0.3522
N12 N 1.1184(2) 0.8950(2) 0.2915(2)
H54 H 1.1459 0.8359 0.2833
O2 O 0.86952(17) 0.29460(14) 0.71571(14)
O3 O 1.22090(17) 0.31436(15) 0.34115(14)
O4 O 0.67181(17) 0.49841(14) 0.56150(13)
O5 O 1.05435(16) 0.42738(15) 0.23876(14)
O6 O 0.8636(2) 0.21127(16) 0.31524(16)
O7 O 0.75866(18) 0.24091(15) 0.46155(15)
O8 O 0.7839(2) 0.38590(19) 0.19499(15)
O9 O 0.66176(18) 0.36745(16) 0.32825(14)
O10 O 0.54453(18) 0.71652(15) 0.51502(15)
O11 O 0.96167(17) 0.66759(16) 0.22280(14)
O12 O 0.6962(2) 0.6468(2) 0.13964(17)
O13 O 0.55067(17) 0.66062(17) 0.26365(15)
O14 O 0.5633(2) 0.85740(18) 0.23512(18)
O15 O 0.5553(2) 0.91229(17) 0.60612(16)
O16 O 0.9695(2) 1.00432(18) 0.3733(2)
C55 C 0.9180(5) 0.0632(3) 0.1878(4)
H55 H 0.9173 0.0543 0.2501
H56 H 0.9482 0.1135 0.1610
Cl3 Cl 0.78921(14) 0.09229(11) 0.19120(14)
Cl4 Cl 0.99638(10) -0.03682(8) 0.12344(7)
C56 C 0.9497(4) 0.3295(3) -0.0007(3)
H57 H 0.9494 0.3506 -0.0611
H58 H 0.8786 0.3539 0.0451
Cl5 Cl 1.04046(16) 0.36211(18) 0.02370(17)
Cl6 Cl 0.9945(2) 0.20451(15) 0.0022(2)
C57 C 0.2785(5) 0.3800(5) 0.0594(3)
H59 H 0.2075 0.4016 0.0589
H60 H 0.3072 0.3148 0.0455
H61 H 0.3227 0.4123 0.0138
O17 O 0.2754(2) 0.39614(18) 0.14558(17)
H62 H 0.218(4) 0.380(3) 0.179(3)
H63? H 0.9099 0.2956 0.0484
H64? H 0.9802 0.2954 -0.0587
Cl7? Cl 0.8695(4) 0.4517(3) -0.0099(3)
C58? C 0.7275(11) 0.9595(6) 0.0564(7)
H65? H 0.6708 0.9973 0.1068
H66? H 0.7215 0.9840 -0.0008
H67? H 0.7949 0.9595 0.0568
C59? C 0.7202(7) 0.8628(7) 0.0665(5)
H68? H 0.6499 0.8636 0.0711
H69? H 0.7722 0.8267 0.0120
O18? O 0.7393(7) 0.8189(5) 0.1477(5)
loop_
_geom_bond_atom_site_label_1
_geom_bond_atom_site_label_2
_geom_bond_site_symmetry_1
_geom_bond_site_symmetry_2
C1 C2 1_555 1_555
C2 H1 1_555 1_555
C3 C2 1_555 1_555
H2 C3 1_555 1_555
C4 C3 1_555 1_555
C5 C4 1_555 1_555
H3 C5 1_555 1_555
C6 C1 1_555 1_555
H4 C6 1_555 1_555
C7 N1 1_555 1_555
C8 C9 1_555 1_555
C9 C10 1_555 1_555
C10 C11 1_555 1_555
C11 C12 1_555 1_555
C12 H5 1_555 1_555
C13 C8 1_555 1_555
H6 C13 1_555 1_555
C14 H7 1_555 1_555
H8 C14 1_555 1_555
H9 C14 1_555 1_555
C15 C9 1_555 1_555
H10 C15 1_555 1_555
H11 C15 1_555 1_555
C16 C10 1_555 1_555
H12 C16 1_555 1_555
H13 C16 1_555 1_555
C17 N3 1_555 1_555
C18 N4 1_555 1_555
C19 C20 1_555 1_555
C20 O6 1_555 1_555
C21 H14 1_555 1_555
H15 C21 1_555 1_555
C22 C21 1_555 1_555
H16 C22 1_555 1_555
H17 C22 1_555 1_555
H18 C22 1_555 1_555
C23 C19 1_555 1_555
C24 C23 1_555 1_555
C25 H19 1_555 1_555
H20 C25 1_555 1_555
C26 C25 1_555 1_555
H21 C26 1_555 1_555
H22 C26 1_555 1_555
H23 C26 1_555 1_555
C27 H24 1_555 1_555
H25 C27 1_555 1_555
C28 H26 1_555 1_555
H27 C28 1_555 1_555
C29 N7 1_555 1_555
C30 N8 1_555 1_555
C31 C32 1_555 1_555
C32 O12 1_555 1_555
C33 H28 1_555 1_555
H29 C33 1_555 1_555
C34 C33 1_555 1_555
H30 C34 1_555 1_555
H31 C34 1_555 1_555
H32 C34 1_555 1_555
C35 C31 1_555 1_555
C36 C35 1_555 1_555
C37 H33 1_555 1_555
H34 C37 1_555 1_555
C38 C37 1_555 1_555
H35 C38 1_555 1_555
H36 C38 1_555 1_555
H37 C38 1_555 1_555
O1 C36 1_555 1_555
C39 H38 1_555 1_555
H39 C39 1_555 1_555
C40 H40 1_555 1_555
H41 C40 1_555 1_555
C41 C39 1_555 1_555
C42 C40 1_555 1_555
C43 C42 1_555 1_555
C44 C43 1_555 1_555
H42 C44 1_555 1_555
C45 C44 1_555 1_555
H43 C45 1_555 1_555
C46 C41 1_555 1_555
C47 N11 1_555 1_555
C48 C49 1_555 1_555
C49 H44 1_555 1_555
C50 C49 1_555 1_555
H45 C50 1_555 1_555
C51 C50 1_555 1_555
C52 C51 1_555 1_555
H46 C52 1_555 1_555
C53 C48 1_555 1_555
H47 C53 1_555 1_555
C54 H48 1_555 1_555
H49 C54 1_555 1_555
H50 C54 1_555 1_555
Cl1 C1 1_555 1_555
Cl2 C51 1_555 1_555
N1 C4 1_555 1_555
H51 N1 1_555 1_555
N2 C7 1_555 1_555
H52 N2 1_555 1_555
N3 C15 1_555 1_555
N4 C16 1_555 1_555
N5 C17 1_555 1_555
N6 C18 1_555 1_555
N7 C28 1_555 1_555
N8 C27 1_555 1_555
N9 C29 1_555 1_555
N10 C30 1_555 1_555
N11 C43 1_555 1_555
H53 N11 1_555 1_555
N12 C47 1_555 1_555
H54 N12 1_555 1_555
O2 C7 1_555 1_555
O3 C11 1_555 1_555
O4 C17 1_555 1_555
O5 C18 1_555 1_555
O7 C20 1_555 1_555
O8 C24 1_555 1_555
O9 C24 1_555 1_555
O10 C29 1_555 1_555
O11 C30 1_555 1_555
O13 C32 1_555 1_555
O14 C36 1_555 1_555
O15 C46 1_555 1_555
O16 C47 1_555 1_555
C55 H55 1_555 1_555
H56 C55 1_555 1_555
Cl3 C55 1_555 1_555
Cl4 C55 1_555 1_555
C56 H57 1_555 1_555
H58 C56 1_555 1_555
Cl5 C56 1_555 1_555
Cl6 C56 1_555 1_555
C57 H59 1_555 1_555
H60 C57 1_555 1_555
H61 C57 1_555 1_555
O17 C57 1_555 1_555
H62 O17 1_555 1_555
C5 C6 1_555 1_555
C8 N2 1_555 1_555
C12 C13 1_555 1_555
C14 O3 1_555 1_555
C19 N3 1_555 1_555
C19 N4 1_555 1_555
C21 O7 1_555 1_555
C23 N5 1_555 1_555
C23 N6 1_555 1_555
C25 O9 1_555 1_555
C27 N6 1_555 1_555
C28 N5 1_555 1_555
C31 N7 1_555 1_555
C31 N8 1_555 1_555
C33 O13 1_555 1_555
C35 N9 1_555 1_555
C35 N10 1_555 1_555
C37 O1 1_555 1_555
C39 N9 1_555 1_555
C40 N10 1_555 1_555
C41 C42 1_555 1_555
C45 C46 1_555 1_555
C48 N12 1_555 1_555
C52 C53 1_555 1_555
C54 O15 1_555 1_555

#END
