
#######################################################################
#
#                 Cambridge Crystallographic Data Centre
#                                CCDC 
#
#######################################################################
#
# If this CIF has been generated from an entry in the Cambridge 
# Structural Database, then it will include bibliographic, chemical, 
# crystal, experimental, refinement or atomic coordinate data resulting 
# from the CCDC's data processing and validation procedures.
#
#######################################################################

data_EXESAC
_chemical_name_common            
'9,15,31,37,50,56-Hexaazadecacyclo[21.21.17.2$4,7!.2$17,20!.2$26,29!.2$39,42!.2$45,48!.2$58,61!.1$3,43!.1$21,25!]pentaheptaconta-1,3(66),4,6,8,15,17,19,21(71),22,24,26,28,30,37,39,41,43,45,47,49,56,58,60,62,64,67,69,72,74-triacontaene methanol solvate'
_chemical_formula_moiety         'C69 H66 N6,3(C1 H4 O1)'
_chemical_name_systematic        
'4,10,16,22,27,33-Hexa-aza-1,13(1,3,5),2,12,14,24,25,35(1,4)-octabenzenabicyclo[11.11.11]pentatriacontaphane-3,10,15,22,27,33-hexa-ene methanol solvate'
_symmetry_cell_setting           orthorhombic
_symmetry_space_group_name_H-M   'P c a 21'
_symmetry_Int_Tables_number      29
_space_group_name_Hall           'P 2c -2ac'
loop_
_symmetry_equiv_pos_site_id
_symmetry_equiv_pos_as_xyz
1 x,y,z
2 -x,-y,1/2+z
3 1/2-x,y,1/2+z
4 1/2+x,-y,z
_cell_length_a                   26.055(4)
_cell_length_b                   15.571(2)
_cell_length_c                   14.686(2)
_cell_angle_alpha                90
_cell_angle_beta                 90
_cell_angle_gamma                90
_cell_volume                     5958.15
_exptl_crystal_colour            colorless
_exptl_crystal_description       prism
_cell_formula_units_Z            4
loop_
_atom_site_label
_atom_site_type_symbol
_atom_site_fract_x
_atom_site_fract_y
_atom_site_fract_z
C1 C 1.03605(11) 0.3046(2) 1.0112(2)
H1 H 1.0620 0.3237 1.0518
C2 C 0.99006(10) 0.3594(2) 0.9985(2)
C3 C 0.95017(10) 0.3325(2) 0.9421(2)
H2 H 0.9528 0.2802 0.9092
C4 C 0.90629(10) 0.38346(19) 0.9343(2)
H3 H 0.8791 0.3646 0.8962
C5 C 0.90113(10) 0.4615(2) 0.9809(2)
C6 C 0.94204(10) 0.4879(2) 1.0361(2)
H4 H 0.9402 0.5413 1.0674
C7 C 0.98525(10) 0.4364(2) 1.0452(2)
H5 H 1.0122 0.4544 1.0844
C8 C 0.85397(10) 0.5134(2) 0.9720(2)
C9 C 0.80615(11) 0.4746(2) 0.9712(2)
H6 H 0.8041 0.4139 0.9765
C10 C 0.76085(10) 0.52209(19) 0.9630(2)
C11 C 0.71032(10) 0.4764(2) 0.9627(2)
C12 C 0.70593(11) 0.3917(2) 0.9364(2)
H7 H 0.7357 0.3620 0.9165
C13 C 0.65966(12) 0.3488(2) 0.9384(2)
H8 H 0.6582 0.2898 0.9221
C14 C 0.61512(11) 0.3916(2) 0.9639(2)
C15 C 0.56524(12) 0.3476(2) 0.9633(2)
H9 H 0.5357 0.3827 0.9550
C16 C 0.61199(11) 0.30204(19) 0.6656(2)
H10 H 0.5799 0.3306 0.6604
C17 C 0.65875(10) 0.35261(19) 0.6791(2)
C18 C 0.65448(10) 0.43711(19) 0.7086(2)
H11 H 0.6215 0.4606 0.7200
C19 C 0.69725(10) 0.48699(18) 0.7213(2)
H12 H 0.6933 0.5434 0.7448
C20 C 0.74648(10) 0.45744(17) 0.7006(2)
C21 C 0.75007(11) 0.37301(19) 0.6697(2)
H13 H 0.7830 0.3507 0.6553
C22 C 0.70805(10) 0.32073(19) 0.6593(2)
H14 H 0.7122 0.2633 0.6388
C23 C 0.79287(10) 0.51282(18) 0.7102(2)
C24 C 0.84056(10) 0.47683(18) 0.7247(2)
H15 H 0.8433 0.4164 0.7321
C25 C 0.88462(10) 0.52688(18) 0.72876(19)
C26 C 0.93582(10) 0.48504(18) 0.7397(2)
C27 C 0.97453(9) 0.52231(19) 0.7916(2)
H16 H 0.9682 0.5751 0.8221
C28 C 1.02208(10) 0.48344(18) 0.7992(2)
H17 H 1.0477 0.5088 0.8366
C29 C 1.03274(10) 0.40728(18) 0.7526(2)
C30 C 1.08407(10) 0.36784(18) 0.7602(2)
H18 H 1.1064 0.3867 0.8073
C31 C 0.99440(10) 0.37001(18) 0.7003(2)
H19 H 1.0009 0.3180 0.6685
C32 C 0.94685(10) 0.40834(18) 0.6944(2)
H20 H 0.9209 0.3819 0.6587
C33 C 0.88022(10) 0.61551(18) 0.71986(19)
H21 H 0.9101 0.6502 0.7233
C34 C 0.83255(10) 0.65417(17) 0.7060(2)
C35 C 0.82891(10) 0.74896(18) 0.6922(2)
C36 C 0.86431(10) 0.80464(18) 0.7305(2)
H22 H 0.8905 0.7822 0.7686
C37 C 0.86249(11) 0.89260(19) 0.7144(2)
H23 H 0.8877 0.9295 0.7400
C38 C 0.82340(12) 0.9261(2) 0.6605(2)
C39 C 0.81988(12) 1.0194(2) 0.6430(3)
H24 H 0.7890 1.0418 0.6183
C40 C 0.81819(15) 1.0235(2) 0.9500(3)
H25 H 0.8478 1.0536 0.9701
C41 C 0.81733(12) 0.9283(2) 0.9453(2)
C42 C 0.85550(12) 0.8833(2) 0.9904(2)
H26 H 0.8827 0.9134 1.0193
C43 C 0.85389(11) 0.7933(2) 0.9935(2)
H27 H 0.8800 0.7631 1.0252
C44 C 0.81477(10) 0.74742(19) 0.9510(2)
C45 C 0.77747(10) 0.7943(2) 0.9040(2)
H28 H 0.7507 0.7646 0.8732
C46 C 0.77878(12) 0.8828(2) 0.9014(2)
H29 H 0.7529 0.9131 0.8690
C47 C 0.81210(10) 0.6532(2) 0.9575(2)
C48 C 0.85627(11) 0.6026(2) 0.9660(2)
H30 H 0.8888 0.6300 0.9677
C49 C 0.76454(10) 0.6112(2) 0.9566(2)
H31 H 0.7340 0.6443 0.9514
C50 C 0.78676(12) 0.8717(2) 0.6258(2)
H32 H 0.7589 0.8947 0.5920
C51 C 0.78987(10) 0.78404(19) 0.6394(2)
H33 H 0.7650 0.7473 0.6125
C52 C 0.78923(10) 0.60163(19) 0.7010(2)
H34 H 0.7565 0.6270 0.6911
C53 C 0.61850(11) 0.4770(2) 0.9874(2)
H35 H 0.5883 0.5077 1.0036
C54 C 0.66539(10) 0.5186(2) 0.9877(2)
H36 H 0.6670 0.5773 1.0053
N1 N 1.04233(8) 0.23387(18) 0.97076(19)
C55 C 1.08954(10) 0.1864(2) 0.9917(2)
H37 H 1.0811 0.1251 1.0018
H38 H 1.1048 0.2093 1.0485
C56 C 1.12815(11) 0.1937(2) 0.9152(2)
H39 H 1.1598 0.1631 0.9332
H40 H 1.1371 0.2550 0.9069
C57 C 1.10980(11) 0.1580(2) 0.8247(2)
H41 H 1.0754 0.1819 0.8115
H42 H 1.1061 0.0949 0.8305
C58 C 1.14490(11) 0.17706(18) 0.7444(2)
H43 H 1.1314 0.1473 0.6899
H44 H 1.1794 0.1534 0.7575
C59 C 1.15005(10) 0.27256(18) 0.7233(2)
H45 H 1.1665 0.3022 0.7753
H46 H 1.1720 0.2805 0.6690
N2 N 1.09944(8) 0.30980(15) 0.70646(18)
N3 N 0.7773(3) 1.0634(6) 0.9258(9)
C60 C 0.7799(4) 1.1586(7) 0.9338(8)
H47 H 0.8044 1.1746 0.9824
H48 H 0.7457 1.1816 0.9504
C61 C 0.7972(4) 1.1975(9) 0.8436(9)
H49 H 0.7759 1.1743 0.7935
H50 H 0.7924 1.2606 0.8453
C62 C 0.8534(3) 1.1770(6) 0.8257(7)
H51 H 0.8742 1.2017 0.8756
H52 H 0.8579 1.1139 0.8272
C63 C 0.8737(4) 1.2106(5) 0.7357(7)
H53 H 0.9115 1.2055 0.7360
H54 H 0.8652 1.2724 0.7310
C64 C 0.8530(4) 1.1649(6) 0.6517(7)
H55 H 0.8167 1.1812 0.6424
H56 H 0.8727 1.1839 0.5976
N4 N 0.8567(3) 1.0711(5) 0.6598(7)
N5 N 0.5647(4) 0.2682(3) 0.9430(8)
C65 C 0.5158(4) 0.2196(8) 0.9354(8)
H57 H 0.4865 0.2563 0.9535
H58 H 0.5165 0.1686 0.9757
C66 C 0.5101(3) 0.1916(6) 0.8355(7)
H59 H 0.4771 0.1609 0.8283
H60 H 0.5088 0.2436 0.7967
C67 C 0.5534(3) 0.1338(4) 0.8020(5)
H61 H 0.5865 0.1632 0.8133
H62 H 0.5532 0.0804 0.8385
C68 C 0.5507(4) 0.1098(7) 0.7019(7)
H63 H 0.5174 0.0813 0.6900
H64 H 0.5782 0.0677 0.6887
C69 C 0.5564(6) 0.1857(12) 0.6369(9)
H65 H 0.5495 0.1662 0.5738
H66 H 0.5307 0.2301 0.6525
N6 N 0.6086(6) 0.2233(3) 0.6417(13)
C70? C 0.7997(6) 1.1680(8) 0.9081(10)
C71? C 0.5029(5) 0.2436(9) 0.9573(9)
C72? C 0.8079(5) 1.2043(11) 0.8116(10)
C73? C 0.5040(4) 0.1773(7) 0.8816(7)
C74? C 0.8604(4) 1.1881(7) 0.7742(8)
C75? C 0.5255(3) 0.2101(5) 0.7931(6)
C76? C 0.8703(4) 1.2132(7) 0.6759(8)
C77? C 0.5388(5) 0.1424(6) 0.7226(7)
C78? C 0.8434(4) 1.1558(7) 0.6057(8)
C79? C 0.5638(6) 0.1796(13) 0.6371(9)
H67? H 0.7700 1.1967 0.9372
H68? H 0.8305 1.1789 0.9459
H69? H 0.4826 0.2944 0.9389
H70? H 0.4877 0.2190 1.0133
H71? H 0.7823 1.1784 0.7701
H72? H 0.8017 1.2670 0.8128
H73? H 0.4686 0.1566 0.8709
H74? H 0.5248 0.1276 0.9018
H75? H 0.8677 1.1260 0.7805
H76? H 0.8853 1.2191 0.8129
H77? H 0.5003 0.2501 0.7659
H78? H 0.5569 0.2435 0.8066
H79? H 0.8589 1.2732 0.6667
H80? H 0.9078 1.2113 0.6645
H81? H 0.5070 0.1117 0.7049
H82? H 0.5624 0.1000 0.7503
H83? H 0.8056 1.1624 0.6101
H84? H 0.8543 1.1712 0.5432
H85? H 0.5408 0.2228 0.6093
H86? H 0.5695 0.1332 0.5920
N7? N 0.7901(4) 1.0738(8) 0.9021(11)
N8? N 0.5575(5) 0.2675(3) 0.9726(10)
N9? N 0.8586(3) 1.0672(6) 0.6275(10)
N10? N 0.6136(7) 0.2202(3) 0.6606(16)
loop_
_geom_bond_atom_site_label_1
_geom_bond_atom_site_label_2
_geom_bond_site_symmetry_1
_geom_bond_site_symmetry_2
C1 H1 1_555 1_555
C2 C1 1_555 1_555
C3 C2 1_555 1_555
H2 C3 1_555 1_555
C4 C3 1_555 1_555
H3 C4 1_555 1_555
C5 C4 1_555 1_555
C6 C5 1_555 1_555
H4 C6 1_555 1_555
C7 C2 1_555 1_555
H5 C7 1_555 1_555
C8 C5 1_555 1_555
C9 C8 1_555 1_555
H6 C9 1_555 1_555
C10 C9 1_555 1_555
C11 C10 1_555 1_555
C12 C11 1_555 1_555
H7 C12 1_555 1_555
C13 C12 1_555 1_555
H8 C13 1_555 1_555
C14 C13 1_555 1_555
C15 C14 1_555 1_555
H9 C15 1_555 1_555
C16 H10 1_555 1_555
C17 C16 1_555 1_555
C18 C17 1_555 1_555
H11 C18 1_555 1_555
C19 C18 1_555 1_555
H12 C19 1_555 1_555
C20 C19 1_555 1_555
C21 C20 1_555 1_555
H13 C21 1_555 1_555
C22 C17 1_555 1_555
H14 C22 1_555 1_555
C23 C20 1_555 1_555
C24 C23 1_555 1_555
H15 C24 1_555 1_555
C25 C24 1_555 1_555
C26 C25 1_555 1_555
C27 C26 1_555 1_555
H16 C27 1_555 1_555
C28 C27 1_555 1_555
H17 C28 1_555 1_555
C29 C28 1_555 1_555
C30 C29 1_555 1_555
H18 C30 1_555 1_555
C31 C29 1_555 1_555
H19 C31 1_555 1_555
C32 C26 1_555 1_555
H20 C32 1_555 1_555
C33 C25 1_555 1_555
H21 C33 1_555 1_555
C34 C33 1_555 1_555
C35 C34 1_555 1_555
C36 C35 1_555 1_555
H22 C36 1_555 1_555
C37 C36 1_555 1_555
H23 C37 1_555 1_555
C38 C37 1_555 1_555
C39 C38 1_555 1_555
H24 C39 1_555 1_555
C40 H25 1_555 1_555
C41 C40 1_555 1_555
C42 C41 1_555 1_555
H26 C42 1_555 1_555
C43 C42 1_555 1_555
H27 C43 1_555 1_555
C44 C43 1_555 1_555
C45 C44 1_555 1_555
H28 C45 1_555 1_555
C46 C41 1_555 1_555
H29 C46 1_555 1_555
C47 C44 1_555 1_555
C48 C8 1_555 1_555
H30 C48 1_555 1_555
C49 C10 1_555 1_555
H31 C49 1_555 1_555
C50 C38 1_555 1_555
H32 C50 1_555 1_555
C51 C35 1_555 1_555
H33 C51 1_555 1_555
C52 C23 1_555 1_555
H34 C52 1_555 1_555
C53 C14 1_555 1_555
H35 C53 1_555 1_555
C54 C11 1_555 1_555
H36 C54 1_555 1_555
N1 C1 1_555 1_555
C55 N1 1_555 1_555
H37 C55 1_555 1_555
H38 C55 1_555 1_555
C56 C55 1_555 1_555
H39 C56 1_555 1_555
H40 C56 1_555 1_555
C57 C56 1_555 1_555
H41 C57 1_555 1_555
H42 C57 1_555 1_555
C58 C57 1_555 1_555
H43 C58 1_555 1_555
H44 C58 1_555 1_555
C59 C58 1_555 1_555
H45 C59 1_555 1_555
H46 C59 1_555 1_555
N2 C30 1_555 1_555
N3 C40 1_555 1_555
C60 N3 1_555 1_555
H47 C60 1_555 1_555
H48 C60 1_555 1_555
C61 C60 1_555 1_555
H49 C61 1_555 1_555
H50 C61 1_555 1_555
C62 C61 1_555 1_555
H51 C62 1_555 1_555
H52 C62 1_555 1_555
C63 C62 1_555 1_555
H53 C63 1_555 1_555
H54 C63 1_555 1_555
C64 C63 1_555 1_555
H55 C64 1_555 1_555
H56 C64 1_555 1_555
N4 C39 1_555 1_555
N5 C15 1_555 1_555
C65 N5 1_555 1_555
H57 C65 1_555 1_555
H58 C65 1_555 1_555
C66 C65 1_555 1_555
H59 C66 1_555 1_555
H60 C66 1_555 1_555
C67 C66 1_555 1_555
H61 C67 1_555 1_555
H62 C67 1_555 1_555
C68 C67 1_555 1_555
H63 C68 1_555 1_555
H64 C68 1_555 1_555
C69 C68 1_555 1_555
H65 C69 1_555 1_555
H66 C69 1_555 1_555
N6 C16 1_555 1_555
C6 C7 1_555 1_555
C21 C22 1_555 1_555
C31 C32 1_555 1_555
C34 C52 1_555 1_555
C45 C46 1_555 1_555
C47 C48 1_555 1_555
C47 C49 1_555 1_555
C50 C51 1_555 1_555
C53 C54 1_555 1_555
C59 N2 1_555 1_555
C64 N4 1_555 1_555
C69 N6 1_555 1_555

#END
