
#######################################################################
#
#                 Cambridge Crystallographic Data Centre
#                                CCDC 
#
#######################################################################
#
# If this CIF has been generated from an entry in the Cambridge 
# Structural Database, then it will include bibliographic, chemical, 
# crystal, experimental, refinement or atomic coordinate data resulting 
# from the CCDC's data processing and validation procedures.
#
#######################################################################

data_EXIJAX01
_chemical_formula_moiety         'C6 H16 N1 1+,C3 H2 N3 S3 1-'
_chemical_name_systematic        
'Triethylammonium 2,4,6-trisulfanylidene-1,3,5-triazinan-1-ide'
_symmetry_cell_setting           monoclinic
_symmetry_space_group_name_H-M   'P 21/c'
_symmetry_Int_Tables_number      14
_space_group_name_Hall           '-P 2ybc'
loop_
_symmetry_equiv_pos_site_id
_symmetry_equiv_pos_as_xyz
1 x,y,z
2 -x,1/2+y,1/2-z
3 -x,-y,-z
4 x,1/2-y,1/2+z
_cell_length_a                   12.8444(3)
_cell_length_b                   15.7980(5)
_cell_length_c                   14.1803(4)
_cell_angle_alpha                90
_cell_angle_beta                 98.293(2)
_cell_angle_gamma                90
_cell_volume                     2847.32
_exptl_crystal_colour            colorless
_exptl_crystal_description       block
_cell_formula_units_Z            8
loop_
_atom_site_label
_atom_site_type_symbol
_atom_site_fract_x
_atom_site_fract_y
_atom_site_fract_z
S1 S 0.68466(5) 0.12886(5) 0.00357(5)
C1 C 0.80581(19) 0.09770(16) 0.05150(18)
N1 N 0.89232(16) 0.12565(13) 0.01821(15)
S2 S 1.09725(5) 0.13404(5) 0.02222(6)
C2 C 0.91021(19) 0.01758(15) 0.17583(18)
N2 N 0.99451(16) 0.04690(13) 0.13803(15)
H1 H 1.0555(12) 0.0327(19) 0.164(2)
S3 S 0.92109(6) -0.03944(5) 0.27461(6)
C3 C 0.98661(19) 0.10015(16) 0.06119(17)
N3 N 0.81654(16) 0.04279(13) 0.12726(16)
H2 H 0.7604(15) 0.0293(19) 0.148(2)
S4 S 0.63874(6) 0.02075(6) 0.26842(6)
C4 C 0.5128(2) 0.03323(17) 0.21762(19)
N4 N 0.43332(16) 0.01389(16) 0.26449(16)
S5 S 0.37445(6) 0.11787(5) -0.03062(5)
C5 C 0.39637(18) 0.07989(15) 0.07926(17)
N5 N 0.49408(16) 0.06437(14) 0.12591(15)
H3 H 0.5479(16) 0.076(2) 0.098(2)
S6 S 0.22892(6) 0.00516(6) 0.27428(6)
C6 C 0.3346(2) 0.02759(17) 0.22170(19)
N6 N 0.31891(16) 0.06264(14) 0.13169(15)
H4 H 0.2553(11) 0.0696(19) 0.105(2)
C7 C 0.8759(3) 0.2031(2) 0.8076(2)
H5 H 0.9252 0.1627 0.7876
H6 H 0.8254 0.1718 0.8386
N7 N 0.9346(2) 0.26284(16) 0.87827(18)
H7 H 0.965(3) 0.2287(19) 0.922(2)
C8 C 0.8190(4) 0.2461(3) 0.7211(3)
H8 H 0.7837 0.2044 0.6786
H9 H 0.8685 0.2765 0.6893
H10 H 0.7682 0.2848 0.7399
C9 C 1.0190(3) 0.3137(2) 0.8416(3)
H11 H 0.9856 0.3539 0.7951
H12 H 1.0563 0.3459 0.8942
C10 C 1.0972(4) 0.2638(3) 0.7968(3)
H13 H 1.1474 0.3015 0.7751
H14 H 1.0616 0.2326 0.7436
H15 H 1.1330 0.2252 0.8427
C11 C 0.8616(3) 0.3179(2) 0.9237(3)
H16 H 0.8058 0.2830 0.9424
H17 H 0.8295 0.3585 0.8770
C12 C 0.9140(4) 0.3652(3) 1.0098(3)
H18 H 0.8628 0.3996 1.0349
H19 H 0.9686 0.4006 0.9919
H20 H 0.9438 0.3255 1.0574
N8 N 0.4374(3) 0.1429(2) 0.6133(3)
H21 H 0.428(4) 0.0948(16) 0.639(3)
C13 C 0.5185(6) 0.1976(4) 0.6726(5)
H22 H 0.5856 0.1683 0.6811
H23 H 0.5270 0.2497 0.6384
C14 C 0.4904(7) 0.2185(5) 0.7672(4)
H24 H 0.5450 0.2525 0.8018
H25 H 0.4826 0.1672 0.8018
H26 H 0.4254 0.2494 0.7594
C15 C 0.3344(5) 0.1814(4) 0.6119(6)
H27 H 0.3352 0.2396 0.5902
H28 H 0.3142 0.1809 0.6752
C16 C 0.2523(6) 0.1251(5) 0.5386(5)
H29 H 0.1827 0.1481 0.5357
H30 H 0.2528 0.0676 0.5607
H31 H 0.2731 0.1265 0.4763
C17 C 0.4738(7) 0.1347(7) 0.5220(7)
H32 H 0.4331 0.0890 0.4894
H33 H 0.4516 0.1860 0.4871
C18 C 0.5709(7) 0.1218(5) 0.5084(6)
H34 H 0.5740 0.1187 0.4412
H35 H 0.5956 0.0695 0.5381
H36 H 0.6143 0.1675 0.5358
loop_
_geom_bond_atom_site_label_1
_geom_bond_atom_site_label_2
_geom_bond_site_symmetry_1
_geom_bond_site_symmetry_2
S1 C1 1_555 1_555
C1 N1 1_555 1_555
N1 C3 1_555 1_555
S2 C3 1_555 1_555
C2 N2 1_555 1_555
N2 H1 1_555 1_555
S3 C2 1_555 1_555
C3 N2 1_555 1_555
N3 C1 1_555 1_555
H2 N3 1_555 1_555
S4 C4 1_555 1_555
C4 N4 1_555 1_555
N4 C6 1_555 1_555
S5 C5 1_555 1_555
C5 N5 1_555 1_555
N5 C4 1_555 1_555
H3 N5 1_555 1_555
S6 C6 1_555 1_555
C6 N6 1_555 1_555
N6 C5 1_555 1_555
H4 N6 1_555 1_555
C7 H5 1_555 1_555
H6 C7 1_555 1_555
N7 C7 1_555 1_555
H7 N7 1_555 1_555
C8 C7 1_555 1_555
H8 C8 1_555 1_555
H9 C8 1_555 1_555
H10 C8 1_555 1_555
C9 N7 1_555 1_555
H11 C9 1_555 1_555
H12 C9 1_555 1_555
C10 C9 1_555 1_555
H13 C10 1_555 1_555
H14 C10 1_555 1_555
H15 C10 1_555 1_555
C11 N7 1_555 1_555
H16 C11 1_555 1_555
H17 C11 1_555 1_555
C12 C11 1_555 1_555
H18 C12 1_555 1_555
H19 C12 1_555 1_555
H20 C12 1_555 1_555
N8 H21 1_555 1_555
C13 N8 1_555 1_555
H22 C13 1_555 1_555
H23 C13 1_555 1_555
C14 C13 1_555 1_555
H24 C14 1_555 1_555
H25 C14 1_555 1_555
H26 C14 1_555 1_555
C15 N8 1_555 1_555
H27 C15 1_555 1_555
H28 C15 1_555 1_555
C16 C15 1_555 1_555
H29 C16 1_555 1_555
H30 C16 1_555 1_555
H31 C16 1_555 1_555
C17 N8 1_555 1_555
H32 C17 1_555 1_555
H33 C17 1_555 1_555
C18 C17 1_555 1_555
H34 C18 1_555 1_555
H35 C18 1_555 1_555
H36 C18 1_555 1_555
C2 N3 1_555 1_555

#END
