
#######################################################################
#
#                 Cambridge Crystallographic Data Centre
#                                CCDC 
#
#######################################################################
#
# If this CIF has been generated from an entry in the Cambridge 
# Structural Database, then it will include bibliographic, chemical, 
# crystal, experimental, refinement or atomic coordinate data resulting 
# from the CCDC's data processing and validation procedures.
#
#######################################################################

data_EXIMUU
_chemical_name_common            
'9,15-Dihydroxy-6,6,9-trimethyl-3,7,12-trioxapentacyclo[9.2.1.1$5,8!.0$1,8!.0$2,4!]pentadec-14-yl methanesulfonate'
_chemical_formula_moiety         'C16 H24 O8 S1'
_chemical_name_systematic        
4\a,6\a-Dihydroxy-1\b-methylsulfonyl-8\a,9\a-epoxy-2\b,12-epoxymethano-\b-dihydroagarofuran
_symmetry_cell_setting           orthorhombic
_symmetry_space_group_name_H-M   'P 21 21 21'
_symmetry_Int_Tables_number      19
_space_group_name_Hall           'P 2ac 2ab'
loop_
_symmetry_equiv_pos_site_id
_symmetry_equiv_pos_as_xyz
1 x,y,z
2 1/2-x,-y,1/2+z
3 -x,1/2+y,1/2-z
4 1/2+x,1/2-y,-z
_cell_length_a                   9.530(3)
_cell_length_b                   10.228(3)
_cell_length_c                   17.424(5)
_cell_angle_alpha                90
_cell_angle_beta                 90
_cell_angle_gamma                90
_cell_volume                     1698.37
_exptl_crystal_colour            colorless
_exptl_crystal_description       block
_cell_formula_units_Z            4
loop_
_atom_site_label
_atom_site_type_symbol
_atom_site_fract_x
_atom_site_fract_y
_atom_site_fract_z
C1 C 0.8202(3) 0.4554(2) 0.91912(13)
C2 C 0.9087(3) 0.5765(2) 0.90120(14)
H1 H 0.8965 0.6079 0.8485
C3 C 1.0539(3) 0.5224(3) 0.91630(14)
H2 H 1.1223 0.5932 0.9220
C4 C 1.0957(3) 0.4311(3) 0.85095(16)
H3 H 1.1915 0.4021 0.8590
H4 H 1.0930 0.4793 0.8030
C5 C 1.0002(3) 0.3113(3) 0.84427(14)
C6 C 0.8443(3) 0.3563(2) 0.85189(13)
C7 C 0.7308(3) 0.2501(3) 0.85700(16)
H5 H 0.7108 0.2316 0.9111
C8 C 0.6076(3) 0.3248(3) 0.82229(14)
H6 H 0.5317 0.2652 0.8077
C9 C 0.5590(3) 0.4210(3) 0.88392(16)
H7 H 0.4683 0.4023 0.9081
C10 C 0.6664(3) 0.4827(2) 0.93331(15)
H8 H 0.6393 0.4986 0.9867
C11 C 0.8932(3) 0.4131(3) 0.99432(15)
H9 H 0.8498 0.4555 1.0381
H10 H 0.8863 0.3192 1.0010
C12 C 0.6735(3) 0.3883(3) 0.75151(14)
C13 C 0.6056(3) 0.5133(3) 0.72187(17)
H11 H 0.6224 0.5830 0.7576
H12 H 0.5063 0.5000 0.7164
H13 H 0.6452 0.5356 0.6729
C14 C 0.6857(3) 0.2946(3) 0.68275(15)
H14 H 0.7452 0.3329 0.6444
H15 H 0.5943 0.2793 0.6615
H16 H 0.7254 0.2132 0.6995
C15 C 1.0454(4) 0.2017(3) 0.89920(18)
H17 H 0.9702 0.1399 0.9047
H18 H 1.0677 0.2384 0.9484
H19 H 1.1266 0.1582 0.8788
C16 C 0.7165(3) 0.8404(3) 0.88369(19)
H20 H 0.6393 0.8104 0.9143
H21 H 0.7223 0.7891 0.8377
H22 H 0.7025 0.9306 0.8705
O1 O 1.0156(2) 0.2516(2) 0.76988(11)
H23 H 0.9832 0.3003 0.7370
O2 O 0.7634(3) 0.13165(18) 0.81877(13)
H24 H 0.8383 0.1396 0.7961
O3 O 1.0372(2) 0.4519(2) 0.98764(10)
O4 O 0.59795(19) 0.56021(18) 0.87714(11)
O5 O 0.81435(16) 0.42256(15) 0.77981(8)
O6 O 0.87426(18) 0.67549(17) 0.95895(9)
O7 O 0.9879(2) 0.85121(19) 0.88633(12)
O8 O 0.8610(2) 0.89333(19) 1.00595(11)
S1 S 0.87153(7) 0.82442(6) 0.93543(4)
loop_
_geom_bond_atom_site_label_1
_geom_bond_atom_site_label_2
_geom_bond_site_symmetry_1
_geom_bond_site_symmetry_2
C1 C2 1_555 1_555
C2 H1 1_555 1_555
C3 C2 1_555 1_555
H2 C3 1_555 1_555
C4 C3 1_555 1_555
H3 C4 1_555 1_555
H4 C4 1_555 1_555
C5 C4 1_555 1_555
C6 C1 1_555 1_555
C7 C6 1_555 1_555
H5 C7 1_555 1_555
C8 C7 1_555 1_555
H6 C8 1_555 1_555
C9 C8 1_555 1_555
H7 C9 1_555 1_555
C10 C1 1_555 1_555
H8 C10 1_555 1_555
C11 C1 1_555 1_555
H9 C11 1_555 1_555
H10 C11 1_555 1_555
C12 C8 1_555 1_555
C13 C12 1_555 1_555
H11 C13 1_555 1_555
H12 C13 1_555 1_555
H13 C13 1_555 1_555
C14 C12 1_555 1_555
H14 C14 1_555 1_555
H15 C14 1_555 1_555
H16 C14 1_555 1_555
C15 C5 1_555 1_555
H17 C15 1_555 1_555
H18 C15 1_555 1_555
H19 C15 1_555 1_555
C16 H20 1_555 1_555
H21 C16 1_555 1_555
H22 C16 1_555 1_555
O1 C5 1_555 1_555
H23 O1 1_555 1_555
O2 C7 1_555 1_555
H24 O2 1_555 1_555
O3 C3 1_555 1_555
O4 C9 1_555 1_555
O5 C6 1_555 1_555
O6 C2 1_555 1_555
O7 S1 1_555 1_555
O8 S1 1_555 1_555
S1 C16 1_555 1_555
C5 C6 1_555 1_555
C9 C10 1_555 1_555
C10 O4 1_555 1_555
C11 O3 1_555 1_555
C12 O5 1_555 1_555
O6 S1 1_555 1_555

#END
