
#######################################################################
#
#                 Cambridge Crystallographic Data Centre
#                                CCDC 
#
#######################################################################
#
# If this CIF has been generated from an entry in the Cambridge 
# Structural Database, then it will include bibliographic, chemical, 
# crystal, experimental, refinement or atomic coordinate data resulting 
# from the CCDC's data processing and validation procedures.
#
#######################################################################

data_EXIPAD
_chemical_formula_moiety         'C12 H11 Br2 N1 O4'
_chemical_name_systematic        'Methyl 3,5-dibromo-2-(diacetylamino)benzoate'
_symmetry_cell_setting           triclinic
_symmetry_space_group_name_H-M   'P -1'
_symmetry_Int_Tables_number      2
_space_group_name_Hall           '-P 1'
loop_
_symmetry_equiv_pos_site_id
_symmetry_equiv_pos_as_xyz
1 x,y,z
2 -x,-y,-z
_cell_length_a                   7.6386(8)
_cell_length_b                   8.8870(6)
_cell_length_c                   10.8691(8)
_cell_angle_alpha                78.186(6)
_cell_angle_beta                 76.155(7)
_cell_angle_gamma                82.750(7)
_cell_volume                     698.911
_exptl_crystal_colour            colorless
_exptl_crystal_description       block
_cell_formula_units_Z            2
loop_
_atom_site_label
_atom_site_type_symbol
_atom_site_fract_x
_atom_site_fract_y
_atom_site_fract_z
Br1 Br 0.13746(6) 0.87278(3) 0.09518(4)
Br2 Br 0.30614(5) 0.27415(4) -0.01150(3)
O1 O 0.2257(4) 0.2652(3) 0.5162(2)
O2 O 0.2736(3) 0.5047(2) 0.5174(2)
O3 O 0.2313(3) -0.0469(2) 0.3783(2)
O4 O 0.6102(3) 0.2554(2) 0.2194(2)
N1 N 0.3244(3) 0.1887(2) 0.2730(2)
C1 C 0.2881(5) 0.4583(4) 0.6502(3)
H1 H 0.3009 0.5492 0.6844
H2 H 0.3942 0.3848 0.6553
H3 H 0.1789 0.4095 0.7009
C2 C 0.2475(4) 0.3942(3) 0.4608(3)
C3 C 0.2407(4) 0.4522(3) 0.3230(3)
C4 C 0.2016(4) 0.6093(3) 0.2801(3)
H4 H 0.1821 0.6801 0.3377
C5 C 0.1916(4) 0.6603(3) 0.1535(3)
C6 C 0.2210(4) 0.5630(3) 0.0665(3)
H5 H 0.2134 0.6009 -0.0206
C7 C 0.2621(4) 0.4075(3) 0.1094(3)
C8 C 0.2720(4) 0.3498(3) 0.2359(3)
C9 C 0.1899(4) 0.0844(3) 0.3316(3)
C10 C -0.0001(5) 0.1457(4) 0.3313(4)
H6 H -0.0798 0.0614 0.3641
H7 H -0.0102 0.1924 0.2431
H8 H -0.0359 0.2239 0.3865
C11 C 0.5116(5) 0.1516(3) 0.2524(3)
C12 C 0.5843(5) -0.0138(4) 0.2654(4)
H9 H 0.7103 -0.0208 0.2173
H10 H 0.5118 -0.0714 0.2308
H11 H 0.5785 -0.0575 0.3565
loop_
_geom_bond_atom_site_label_1
_geom_bond_atom_site_label_2
_geom_bond_site_symmetry_1
_geom_bond_site_symmetry_2
Br1 C5 1_555 1_555
Br2 C7 1_555 1_555
O1 C2 1_555 1_555
O2 C1 1_555 1_555
O3 C9 1_555 1_555
O4 C11 1_555 1_555
N1 C8 1_555 1_555
C1 H1 1_555 1_555
H2 C1 1_555 1_555
H3 C1 1_555 1_555
C2 O2 1_555 1_555
C3 C2 1_555 1_555
C4 C3 1_555 1_555
H4 C4 1_555 1_555
C5 C4 1_555 1_555
C6 C5 1_555 1_555
H5 C6 1_555 1_555
C7 C6 1_555 1_555
C8 C3 1_555 1_555
C9 N1 1_555 1_555
C10 C9 1_555 1_555
H6 C10 1_555 1_555
H7 C10 1_555 1_555
H8 C10 1_555 1_555
C11 N1 1_555 1_555
C12 C11 1_555 1_555
H9 C12 1_555 1_555
H10 C12 1_555 1_555
H11 C12 1_555 1_555
C7 C8 1_555 1_555

#END
