
#######################################################################
#
#                 Cambridge Crystallographic Data Centre
#                                CCDC 
#
#######################################################################
#
# If this CIF has been generated from an entry in the Cambridge 
# Structural Database, then it will include bibliographic, chemical, 
# crystal, experimental, refinement or atomic coordinate data resulting 
# from the CCDC's data processing and validation procedures.
#
#######################################################################

data_EXIPUX
_chemical_formula_moiety         'C16 H11 Br1 N2'
_chemical_name_systematic        
1-(4-Bromophenyl)-2-methyl-1H-indole-3-carbonitrile
_symmetry_cell_setting           monoclinic
_symmetry_space_group_name_H-M   'P 21/n'
_symmetry_Int_Tables_number      14
_space_group_name_Hall           '-P 2yn'
loop_
_symmetry_equiv_pos_site_id
_symmetry_equiv_pos_as_xyz
1 x,y,z
2 1/2-x,1/2+y,1/2-z
3 -x,-y,-z
4 1/2+x,1/2-y,1/2+z
_cell_length_a                   9.170(7)
_cell_length_b                   8.849(6)
_cell_length_c                   16.337(12)
_cell_angle_alpha                90
_cell_angle_beta                 94.415(15)
_cell_angle_gamma                90
_cell_volume                     1321.74
_exptl_crystal_colour            colorless
_exptl_crystal_description       prism
_cell_formula_units_Z            4
loop_
_atom_site_label
_atom_site_type_symbol
_atom_site_fract_x
_atom_site_fract_y
_atom_site_fract_z
Br1 Br 1.31610(4) 0.01069(4) 0.08227(2)
N1 N 0.8376(3) 0.4726(3) 0.12974(16)
N2 N 0.3390(3) 0.6165(3) 0.11113(18)
C1 C 1.1681(3) 0.1574(3) 0.0968(2)
C2 C 1.1611(4) 0.2252(3) 0.1735(2)
H1 H 1.2302 0.2002 0.2178
C3 C 1.0509(4) 0.3301(3) 0.18380(19)
H2 H 1.0444 0.3783 0.2354
C4 C 0.9508(3) 0.3642(3) 0.11868(19)
C5 C 0.9610(3) 0.2969(3) 0.04233(19)
H3 H 0.8934 0.3230 -0.0024
C6 C 1.0702(3) 0.1913(3) 0.0317(2)
H4 H 1.0770 0.1434 -0.0199
C7 C 0.8620(3) 0.6253(3) 0.15065(18)
C8 C 0.9938(3) 0.6992(3) 0.17217(18)
H5 H 1.0846 0.6470 0.1749
C9 C 0.9861(4) 0.8520(3) 0.18934(19)
H6 H 1.0732 0.9057 0.2058
C10 C 0.8526(4) 0.9285(4) 0.18296(19)
H7 H 0.8513 1.0340 0.1938
C11 C 0.7227(4) 0.8555(3) 0.16141(18)
H8 H 0.6327 0.9093 0.1574
C12 C 0.7265(3) 0.6991(3) 0.14552(18)
C13 C 0.6191(3) 0.5860(3) 0.12233(18)
C14 C 0.6892(3) 0.4497(3) 0.11365(19)
C15 C 0.6229(4) 0.2960(3) 0.0985(2)
H9 H 0.6327 0.2370 0.1494
H10 H 0.6736 0.2440 0.0560
H11 H 0.5190 0.3068 0.0803
C16 C 0.4642(4) 0.6019(3) 0.11543(19)
loop_
_geom_bond_atom_site_label_1
_geom_bond_atom_site_label_2
_geom_bond_site_symmetry_1
_geom_bond_site_symmetry_2
Br1 C1 1_555 1_555
N1 C4 1_555 1_555
N2 C16 1_555 1_555
C1 C2 1_555 1_555
C2 H1 1_555 1_555
C3 C2 1_555 1_555
H2 C3 1_555 1_555
C4 C3 1_555 1_555
C5 C4 1_555 1_555
H3 C5 1_555 1_555
C6 C1 1_555 1_555
H4 C6 1_555 1_555
C7 N1 1_555 1_555
C8 C7 1_555 1_555
H5 C8 1_555 1_555
C9 C8 1_555 1_555
H6 C9 1_555 1_555
C10 C9 1_555 1_555
H7 C10 1_555 1_555
C11 C10 1_555 1_555
H8 C11 1_555 1_555
C12 C7 1_555 1_555
C13 C12 1_555 1_555
C14 N1 1_555 1_555
C15 C14 1_555 1_555
H9 C15 1_555 1_555
H10 C15 1_555 1_555
H11 C15 1_555 1_555
C16 C13 1_555 1_555
C5 C6 1_555 1_555
C11 C12 1_555 1_555
C13 C14 1_555 1_555

#END
