
#######################################################################
#
#                 Cambridge Crystallographic Data Centre
#                                CCDC 
#
#######################################################################
#
# If this CIF has been generated from an entry in the Cambridge 
# Structural Database, then it will include bibliographic, chemical, 
# crystal, experimental, refinement or atomic coordinate data resulting 
# from the CCDC's data processing and validation procedures.
#
#######################################################################

data_EXIQIN
_chemical_formula_moiety         'C18 H20 Br1 N1 O2 S1'
_chemical_name_systematic        
2-(bromomethyl)-1-((4-methylphenyl)sulfonyl)-4-phenylpyrrolidine
_symmetry_cell_setting           triclinic
_symmetry_space_group_name_H-M   'P -1'
_symmetry_Int_Tables_number      2
_space_group_name_Hall           '-P 1'
loop_
_symmetry_equiv_pos_site_id
_symmetry_equiv_pos_as_xyz
1 x,y,z
2 -x,-y,-z
_cell_length_a                   8.787(3)
_cell_length_b                   10.709(4)
_cell_length_c                   11.313(4)
_cell_angle_alpha                114.295(5)
_cell_angle_beta                 106.536(6)
_cell_angle_gamma                97.097(6)
_cell_volume                     894.17
_exptl_crystal_colour            colorless
_exptl_crystal_description       block
_cell_formula_units_Z            2
loop_
_atom_site_label
_atom_site_type_symbol
_atom_site_fract_x
_atom_site_fract_y
_atom_site_fract_z
Br1 Br 0.21040(5) 0.54594(5) -0.04986(6)
S1 S 0.70187(11) 0.99845(10) 0.22850(9)
N1 N 0.6017(4) 0.8903(3) 0.0611(3)
O1 O 0.7533(4) 1.1369(3) 0.2410(3)
O2 O 0.5945(4) 0.9730(3) 0.2962(3)
C1 C 1.2995(6) 0.7855(5) 0.3756(5)
H1 H 1.2978 0.7105 0.2907
H2 H 1.2939 0.7487 0.4391
H3 H 1.3999 0.8605 0.4174
C2 C 1.1535(5) 0.8432(4) 0.3436(4)
C3 C 1.1597(5) 0.9473(4) 0.3013(4)
H4 H 1.2560 0.9833 0.2932
C4 C 1.0240(5) 0.9989(4) 0.2708(4)
H5 H 1.0301 1.0696 0.2434
C5 C 0.8797(4) 0.9449(4) 0.2815(3)
C6 C 0.8742(5) 0.8449(4) 0.3291(4)
H6 H 0.7792 0.8112 0.3401
C7 C 1.0099(5) 0.7953(4) 0.3600(4)
H7 H 1.0055 0.7286 0.3925
C8 C 0.6831(5) 0.8899(4) -0.0373(4)
H8 H 0.7929 0.9556 0.0123
H9 H 0.6187 0.9159 -0.1044
C9 C 0.6909(5) 0.7368(4) -0.1094(4)
H10 H 0.7825 0.7247 -0.0454
C10 C 0.5309(5) 0.6532(4) -0.1198(4)
H11 H 0.5376 0.5596 -0.1308
H12 H 0.4389 0.6421 -0.1986
C11 C 0.5104(4) 0.7413(4) 0.0170(4)
H13 H 0.5630 0.7118 0.0862
C12 C 0.3340(5) 0.7372(4) 0.0058(4)
H14 H 0.2823 0.7668 -0.0625
H15 H 0.3329 0.8030 0.0952
C13 C 0.7171(5) 0.6923(4) -0.2463(4)
C14 C 0.8483(6) 0.6377(5) -0.2593(5)
H16 H 0.9187 0.6313 -0.1844
C15 C 0.8771(6) 0.5925(6) -0.3811(6)
H17 H 0.9672 0.5565 -0.3875
C16 C 0.7758(6) 0.5995(5) -0.4928(5)
H18 H 0.7954 0.5669 -0.5755
C17 C 0.6441(6) 0.6550(5) -0.4829(5)
H19 H 0.5754 0.6620 -0.5581
C18 C 0.6152(5) 0.7005(5) -0.3589(5)
H20 H 0.5256 0.7370 -0.3521
loop_
_geom_bond_atom_site_label_1
_geom_bond_atom_site_label_2
_geom_bond_site_symmetry_1
_geom_bond_site_symmetry_2
Br1 C12 1_555 1_555
S1 N1 1_555 1_555
N1 C8 1_555 1_555
O1 S1 1_555 1_555
O2 S1 1_555 1_555
C1 H1 1_555 1_555
H2 C1 1_555 1_555
H3 C1 1_555 1_555
C2 C1 1_555 1_555
C3 C2 1_555 1_555
H4 C3 1_555 1_555
C4 C3 1_555 1_555
H5 C4 1_555 1_555
C5 S1 1_555 1_555
C6 C5 1_555 1_555
H6 C6 1_555 1_555
C7 C2 1_555 1_555
H7 C7 1_555 1_555
C8 H8 1_555 1_555
H9 C8 1_555 1_555
C9 C8 1_555 1_555
H10 C9 1_555 1_555
C10 C9 1_555 1_555
H11 C10 1_555 1_555
H12 C10 1_555 1_555
C11 N1 1_555 1_555
H13 C11 1_555 1_555
C12 C11 1_555 1_555
H14 C12 1_555 1_555
H15 C12 1_555 1_555
C13 C9 1_555 1_555
C14 C13 1_555 1_555
H16 C14 1_555 1_555
C15 C14 1_555 1_555
H17 C15 1_555 1_555
C16 C15 1_555 1_555
H18 C16 1_555 1_555
C17 C16 1_555 1_555
H19 C17 1_555 1_555
C18 C13 1_555 1_555
H20 C18 1_555 1_555
C4 C5 1_555 1_555
C6 C7 1_555 1_555
C10 C11 1_555 1_555
C17 C18 1_555 1_555

#END
