
#######################################################################
#
#                 Cambridge Crystallographic Data Centre
#                                CCDC 
#
#######################################################################
#
# If this CIF has been generated from an entry in the Cambridge 
# Structural Database, then it will include bibliographic, chemical, 
# crystal, experimental, refinement or atomic coordinate data resulting 
# from the CCDC's data processing and validation procedures.
#
#######################################################################

data_EXIQUY
_chemical_formula_moiety         'C8 H6 Cl1 N2 S2'
_chemical_name_systematic        
'4-(3-chloro-4-methylphenyl)-1,2,3,5-dithiadiazol-3-yl radical'
_symmetry_cell_setting           monoclinic
_symmetry_space_group_name_H-M   'P 21'
_symmetry_Int_Tables_number      4
_space_group_name_Hall           'P 2yb'
loop_
_symmetry_equiv_pos_site_id
_symmetry_equiv_pos_as_xyz
1 x,y,z
2 -x,1/2+y,-z
_cell_length_a                   5.937(3)
_cell_length_b                   13.407(3)
_cell_length_c                   11.573(3)
_cell_angle_alpha                90
_cell_angle_beta                 95.87(4)
_cell_angle_gamma                90
_cell_volume                     916.35
_exptl_crystal_colour            colorless
_exptl_crystal_description       prism
_cell_formula_units_Z            4
loop_
_atom_site_label
_atom_site_type_symbol
_atom_site_fract_x
_atom_site_fract_y
_atom_site_fract_z
S1 S 0.5244(5) 0.3269(2) -0.1014(2)
S2 S 0.2324(4) 0.3359(2) -0.0142(2)
N1 N 0.6580(15) 0.4154(7) -0.0244(7)
N2 N 0.3323(14) 0.4260(6) 0.0724(7)
C1 C 0.5430(17) 0.4558(8) 0.0533(9)
C2 C 0.6477(16) 0.5355(8) 0.1287(8)
C3 C 0.9463(14) 0.6549(7) 0.1743(7)
H1 H 1.0823 0.6826 0.1567
C4 C 0.8533(15) 0.5770(8) 0.1066(8)
H2 H 0.9289 0.5524 0.046
C5 C 0.5398(15) 0.5719(7) 0.2224(8)
H3 H 0.4034 0.5447 0.2401
C6 C 0.8434(15) 0.6933(8) 0.2681(8)
C7 C 0.9427(16) 0.7782(8) 0.3392(8)
H4 H 1.061 0.8085 0.3007
H5 H 1.004 0.7542 0.414
H6 H 0.827 0.8267 0.3488
C8 C 0.6413(15) 0.6499(7) 0.2885(7)
Cl1 Cl 0.5049(4) 0.6884(2) 0.4074(2)
S3 S 0.3937(5) 0.1726(2) 0.1531(2)
S4 S 0.7080(4) 0.1669(2) 0.0853(2)
Cl2 Cl 0.5678(4) 0.47502(19) 0.6289(2)
N3 N 0.8253(12) 0.2511(6) 0.1763(7)
C9 C 0.7757(15) 0.3556(7) 0.3403(7)
C10 C 0.9878(16) 0.4033(8) 0.3377(8)
H7 H 1.079 0.3871 0.2797
C11 C 0.6891(16) 0.2851(8) 0.2539(8)
C12 C 0.7250(15) 0.4511(7) 0.5142(7)
C13 C 0.6480(15) 0.3831(7) 0.4301(8)
H8 H 0.506 0.3544 0.4332
C14 C 1.0611(14) 0.4740(8) 0.4206(7)
H9 H 1.2004 0.5047 0.4161
C15 C 0.9336(16) 0.5008(7) 0.5106(8)
C16 C 1.0139(17) 0.5799(8) 0.6005(9)
H10 H 0.8912 0.6245 0.6114
H11 H 1.1369 0.6169 0.5738
H12 H 1.0639 0.5482 0.673
N4 N 0.4777(14) 0.2515(7) 0.2537(7)
loop_
_geom_bond_atom_site_label_1
_geom_bond_atom_site_label_2
_geom_bond_site_symmetry_1
_geom_bond_site_symmetry_2
S1 S2 1_555 1_555
S2 N2 1_555 1_555
N1 S1 1_555 1_555
N2 C1 1_555 1_555
C1 N1 1_555 1_555
C2 C1 1_555 1_555
C3 H1 1_555 1_555
C4 C2 1_555 1_555
H2 C4 1_555 1_555
C5 C2 1_555 1_555
H3 C5 1_555 1_555
C6 C3 1_555 1_555
C7 C6 1_555 1_555
H4 C7 1_555 1_555
H5 C7 1_555 1_555
H6 C7 1_555 1_555
C8 C5 1_555 1_555
Cl1 C8 1_555 1_555
S3 S4 1_555 1_555
S4 N3 1_555 1_555
Cl2 C12 1_555 1_555
N3 C11 1_555 1_555
C9 C10 1_555 1_555
C10 H7 1_555 1_555
C11 C9 1_555 1_555
C12 C13 1_555 1_555
C13 C9 1_555 1_555
H8 C13 1_555 1_555
C14 C10 1_555 1_555
H9 C14 1_555 1_555
C15 C12 1_555 1_555
C16 C15 1_555 1_555
H10 C16 1_555 1_555
H11 C16 1_555 1_555
H12 C16 1_555 1_555
N4 S3 1_555 1_555
C3 C4 1_555 1_555
C6 C8 1_555 1_555
C11 N4 1_555 1_555
C14 C15 1_555 1_555

#END
