
#######################################################################
#
#                 Cambridge Crystallographic Data Centre
#                                CCDC 
#
#######################################################################
#
# If this CIF has been generated from an entry in the Cambridge 
# Structural Database, then it will include bibliographic, chemical, 
# crystal, experimental, refinement or atomic coordinate data resulting 
# from the CCDC's data processing and validation procedures.
#
#######################################################################

data_EXIWOY
_chemical_formula_moiety         'C10 H12 O2 S1'
_chemical_name_systematic        
1,1'-(2,5-Dimethylthiophene-3,4-diyl)diethanone
_symmetry_cell_setting           monoclinic
_symmetry_space_group_name_H-M   'C c'
_symmetry_Int_Tables_number      9
_space_group_name_Hall           'C -2yc'
loop_
_symmetry_equiv_pos_site_id
_symmetry_equiv_pos_as_xyz
1 x,y,z
2 x,-y,1/2+z
3 1/2+x,1/2+y,z
4 1/2+x,1/2-y,1/2+z
_cell_length_a                   12.142(2)
_cell_length_b                   12.129(2)
_cell_length_c                   27.446(6)
_cell_angle_alpha                90
_cell_angle_beta                 99.387(2)
_cell_angle_gamma                90
_cell_volume                     3987.86
_exptl_crystal_colour            colorless
_exptl_crystal_description       block
_chemical_melting_point          '363 K'
_cell_formula_units_Z            16
loop_
_atom_site_label
_atom_site_type_symbol
_atom_site_fract_x
_atom_site_fract_y
_atom_site_fract_z
C1 C 0.1299(4) 0.1176(4) 0.4644(2)
C2 C 0.0669(4) 0.1446(4) 0.4207(2)
C3 C -0.0256(4) 0.0686(3) 0.40549(18)
C4 C -0.0279(3) -0.0142(3) 0.43893(16)
C5 C 0.2301(5) 0.1710(4) 0.4926(2)
H1 H 0.2746 0.2015 0.4700
H2 H 0.2731 0.1173 0.5132
H3 H 0.2076 0.2287 0.5128
C6 C 0.0987(4) 0.2391(4) 0.3911(2)
C7 C -0.1085(4) 0.0924(4) 0.36101(17)
C8 C -0.1080(4) -0.1097(3) 0.44085(17)
H4 H -0.1834 -0.0828 0.4352
H5 H -0.0927 -0.1441 0.4727
H6 H -0.0985 -0.1626 0.4158
C9 C 0.1385(4) 0.2160(4) 0.34303(15)
H7 H 0.1178 0.2760 0.3206
H8 H 0.1049 0.1491 0.3290
H9 H 0.2182 0.2081 0.3488
C10 C -0.1952(4) 0.0083(4) 0.34150(19)
H10 H -0.2475 0.0008 0.3640
H11 H -0.1598 -0.0614 0.3381
H12 H -0.2339 0.0316 0.3099
O1 O 0.1038(3) 0.3320(2) 0.40784(13)
O2 O -0.1062(2) 0.1817(3) 0.34011(12)
S1 S 0.07809(11) -0.00057(11) 0.48785(5)
C11 C 0.2336(3) 0.7569(3) 0.43718(15)
C12 C 0.1384(4) 0.7388(4) 0.40351(18)
C13 C 0.0706(4) 0.6523(4) 0.4191(2)
C14 C 0.1126(4) 0.6077(4) 0.4636(2)
C15 C 0.3259(4) 0.8407(4) 0.43894(17)
H13 H 0.3723 0.8218 0.4150
H14 H 0.3700 0.8411 0.4713
H15 H 0.2941 0.9124 0.4316
C16 C 0.0998(4) 0.8043(3) 0.35802(16)
C17 C -0.0341(4) 0.6062(4) 0.38910(18)
C18 C 0.0672(5) 0.5167(4) 0.4928(2)
H16 H 0.0370 0.4588 0.4707
H17 H 0.0096 0.5460 0.5092
H18 H 0.1264 0.4877 0.5169
C19 C 0.1763(4) 0.8807(4) 0.33769(18)
H19 H 0.1419 0.9050 0.3055
H20 H 0.2448 0.8433 0.3353
H21 H 0.1915 0.9433 0.3591
C20 C -0.0254(4) 0.5480(4) 0.34209(16)
H22 H -0.0164 0.4704 0.3483
H23 H 0.0378 0.5756 0.3290
H24 H -0.0922 0.5605 0.3187
O3 O 0.0032(3) 0.7933(3) 0.33761(11)
O4 O -0.1202(2) 0.6078(3) 0.40579(13)
S2 S 0.23678(11) 0.67089(12) 0.48713(5)
C21 C 0.3487(3) -0.0066(3) 0.13375(16)
C22 C 0.4442(4) 0.0093(4) 0.16737(18)
C23 C 0.5136(4) 0.0960(4) 0.1516(2)
C24 C 0.4702(4) 0.1402(4) 0.1073(2)
C25 C 0.2538(4) -0.0864(4) 0.13179(18)
H25 H 0.2771 -0.1578 0.1223
H26 H 0.1918 -0.0614 0.1081
H27 H 0.2317 -0.0911 0.1638
C26 C 0.4849(4) -0.0570(3) 0.21115(17)
C27 C 0.6200(4) 0.1393(4) 0.18038(19)
C28 C 0.5153(5) 0.2308(5) 0.0799(2)
H28 H 0.4779 0.2985 0.0851
H29 H 0.5034 0.2137 0.0452
H30 H 0.5939 0.2387 0.0915
C29 C 0.4078(4) -0.1369(4) 0.23122(17)
H31 H 0.3862 -0.1943 0.2075
H32 H 0.3425 -0.0985 0.2375
H33 H 0.4457 -0.1687 0.2614
C30 C 0.6137(4) 0.1957(3) 0.22774(17)
H34 H 0.6874 0.2024 0.2465
H35 H 0.5677 0.1535 0.2462
H36 H 0.5820 0.2677 0.2212
O5 O 0.5817(3) -0.0474(2) 0.23140(12)
O6 O 0.7055(2) 0.1377(3) 0.16305(12)
S3 S 0.34281(10) 0.08175(12) 0.08483(5)
C31 C -0.0373(4) 0.1242(4) 0.1086(2)
C32 C 0.0215(4) 0.0999(4) 0.1535(2)
C33 C 0.1135(4) 0.1744(3) 0.16831(18)
C34 C 0.1199(3) 0.2560(3) 0.13392(15)
C35 C -0.1391(5) 0.0656(4) 0.0813(2)
H37 H -0.1332 -0.0119 0.0883
H38 H -0.1435 0.0773 0.0464
H39 H -0.2050 0.0943 0.0919
C36 C -0.0130(4) 0.0059(4) 0.1833(2)
C37 C 0.1960(3) 0.1528(4) 0.21315(17)
C38 C 0.1999(4) 0.3480(3) 0.13055(18)
H40 H 0.2176 0.3837 0.1621
H41 H 0.1667 0.4004 0.1063
H42 H 0.2670 0.3191 0.1211
C39 C -0.0535(4) 0.0325(4) 0.22985(16)
H43 H -0.1235 0.0707 0.2225
H44 H 0.0001 0.0785 0.2500
H45 H -0.0634 -0.0345 0.2473
C40 C 0.2819(3) 0.2373(4) 0.23302(17)
H46 H 0.3211 0.2133 0.2645
H47 H 0.2458 0.3064 0.2369
H48 H 0.3339 0.2461 0.2104
O7 O -0.0166(3) -0.0868(2) 0.16659(12)
O8 O 0.1926(2) 0.0637(2) 0.23397(12)
S4 S 0.01417(10) 0.23984(11) 0.08442(5)
loop_
_geom_bond_atom_site_label_1
_geom_bond_atom_site_label_2
_geom_bond_site_symmetry_1
_geom_bond_site_symmetry_2
C1 C2 1_555 1_555
C2 C3 1_555 1_555
C3 C4 1_555 1_555
C4 C8 1_555 1_555
C5 C1 1_555 1_555
H1 C5 1_555 1_555
H2 C5 1_555 1_555
H3 C5 1_555 1_555
C6 C2 1_555 1_555
C7 C3 1_555 1_555
C8 H4 1_555 1_555
H5 C8 1_555 1_555
H6 C8 1_555 1_555
C9 C6 1_555 1_555
H7 C9 1_555 1_555
H8 C9 1_555 1_555
H9 C9 1_555 1_555
C10 C7 1_555 1_555
H10 C10 1_555 1_555
H11 C10 1_555 1_555
H12 C10 1_555 1_555
C11 C12 1_555 1_555
C12 C13 1_555 1_555
C13 C14 1_555 1_555
C14 C18 1_555 1_555
C15 C11 1_555 1_555
H13 C15 1_555 1_555
H14 C15 1_555 1_555
H15 C15 1_555 1_555
C16 C12 1_555 1_555
C17 C13 1_555 1_555
C18 H16 1_555 1_555
H17 C18 1_555 1_555
H18 C18 1_555 1_555
C19 C16 1_555 1_555
H19 C19 1_555 1_555
H20 C19 1_555 1_555
H21 C19 1_555 1_555
C20 C17 1_555 1_555
H22 C20 1_555 1_555
H23 C20 1_555 1_555
H24 C20 1_555 1_555
C21 C22 1_555 1_555
C22 C23 1_555 1_555
C23 C24 1_555 1_555
C24 C28 1_555 1_555
C25 C21 1_555 1_555
H25 C25 1_555 1_555
H26 C25 1_555 1_555
H27 C25 1_555 1_555
C26 C22 1_555 1_555
C27 C23 1_555 1_555
C28 H28 1_555 1_555
H29 C28 1_555 1_555
H30 C28 1_555 1_555
C29 C26 1_555 1_555
H31 C29 1_555 1_555
H32 C29 1_555 1_555
H33 C29 1_555 1_555
C30 C27 1_555 1_555
H34 C30 1_555 1_555
H35 C30 1_555 1_555
H36 C30 1_555 1_555
C31 C32 1_555 1_555
C32 C33 1_555 1_555
C33 C34 1_555 1_555
C34 C38 1_555 1_555
C35 C31 1_555 1_555
H37 C35 1_555 1_555
H38 C35 1_555 1_555
H39 C35 1_555 1_555
C36 C32 1_555 1_555
C37 C33 1_555 1_555
C38 H40 1_555 1_555
H41 C38 1_555 1_555
H42 C38 1_555 1_555
C39 C36 1_555 1_555
H43 C39 1_555 1_555
H44 C39 1_555 1_555
H45 C39 1_555 1_555
C40 C37 1_555 1_555
H46 C40 1_555 1_555
H47 C40 1_555 1_555
H48 C40 1_555 1_555
O1 C6 1_555 1_555
O2 C7 1_555 1_555
O3 C16 1_555 1_555
O4 C17 1_555 1_555
O5 C26 1_555 1_555
O6 C27 1_555 1_555
O7 C36 1_555 1_555
O8 C37 1_555 1_555
S1 C1 1_555 1_555
S2 C11 1_555 1_555
S3 C21 1_555 1_555
S4 C31 1_555 1_555
C4 S1 1_555 1_555
C14 S2 1_555 1_555
C24 S3 1_555 1_555
C34 S4 1_555 1_555

#END
