
#######################################################################
#
#                 Cambridge Crystallographic Data Centre
#                                CCDC 
#
#######################################################################
#
# If this CIF has been generated from an entry in the Cambridge 
# Structural Database, then it will include bibliographic, chemical, 
# crystal, experimental, refinement or atomic coordinate data resulting 
# from the CCDC's data processing and validation procedures.
#
#######################################################################

data_EXIWIS
_chemical_formula_moiety         'C12 H10 N2 O2 S1'
_chemical_name_systematic        
4-Methyl-N-[(5-nitrothiophen-2-yl)methylidene]aniline
_symmetry_cell_setting           monoclinic
_symmetry_space_group_name_H-M   'P 21/n'
_symmetry_Int_Tables_number      14
_space_group_name_Hall           '-P 2yn'
loop_
_symmetry_equiv_pos_site_id
_symmetry_equiv_pos_as_xyz
1 x,y,z
2 1/2-x,1/2+y,1/2-z
3 -x,-y,-z
4 1/2+x,1/2-y,1/2+z
_cell_length_a                   4.7606(4)
_cell_length_b                   22.415(2)
_cell_length_c                   10.7008(15)
_cell_angle_alpha                90
_cell_angle_beta                 92.566(13)
_cell_angle_gamma                90
_cell_volume                     1140.73
_exptl_crystal_colour            colorless
_exptl_crystal_description       prism
_cell_formula_units_Z            4
loop_
_atom_site_label
_atom_site_type_symbol
_atom_site_fract_x
_atom_site_fract_y
_atom_site_fract_z
S1 S 0.12948(8) 0.223694(17) 0.24141(3)
O1 O -0.4301(2) 0.10562(5) 0.14443(11)
O2 O -0.2638(2) 0.13512(5) 0.32720(10)
N1 N 0.5743(3) 0.32247(6) 0.21001(11)
N2 N -0.2748(3) 0.13695(6) 0.21144(12)
C1 C 1.3858(3) 0.51381(7) 0.21589(19)
H1 H 1.5510 0.5020 0.1704
H2 H 1.4432 0.5230 0.3028
H3 H 1.2998 0.5492 0.1763
C2 C 1.1750(3) 0.46324(7) 0.21303(16)
C3 C 1.0879(3) 0.43701(7) 0.10002(15)
H4 H 1.1645 0.4507 0.0248
C4 C 0.8909(3) 0.39115(7) 0.09487(14)
H5 H 0.8337 0.3742 0.0164
C5 C 0.7759(3) 0.36966(7) 0.20461(14)
C6 C 0.8680(3) 0.39494(7) 0.31778(14)
H6 H 0.7965 0.3804 0.3935
C7 C 1.0628(3) 0.44113(7) 0.32203(16)
H7 H 1.1207 0.4579 0.4005
C8 C 0.4454(3) 0.30556(7) 0.10888(14)
H8 H 0.4859 0.3248 0.0327
C9 C 0.2385(3) 0.25772(7) 0.10682(14)
C10 C 0.1041(3) 0.23474(7) 0.00118(14)
H9 H 0.1382 0.2483 -0.0809
C11 C -0.0895(3) 0.18913(7) 0.02644(14)
H10 H -0.2003 0.1683 -0.0354
C12 C -0.0955(3) 0.17906(7) 0.15201(14)
loop_
_geom_bond_atom_site_label_1
_geom_bond_atom_site_label_2
_geom_bond_site_symmetry_1
_geom_bond_site_symmetry_2
S1 C9 1_555 1_555
O1 N2 1_555 1_555
O2 N2 1_555 1_555
N1 C5 1_555 1_555
N2 C12 1_555 1_555
C1 H1 1_555 1_555
H2 C1 1_555 1_555
H3 C1 1_555 1_555
C2 C1 1_555 1_555
C3 C2 1_555 1_555
H4 C3 1_555 1_555
C4 C3 1_555 1_555
H5 C4 1_555 1_555
C5 C4 1_555 1_555
C6 C5 1_555 1_555
H6 C6 1_555 1_555
C7 C2 1_555 1_555
H7 C7 1_555 1_555
C8 N1 1_555 1_555
H8 C8 1_555 1_555
C9 C8 1_555 1_555
C10 C9 1_555 1_555
H9 C10 1_555 1_555
C11 C10 1_555 1_555
H10 C11 1_555 1_555
C12 S1 1_555 1_555
C6 C7 1_555 1_555
C11 C12 1_555 1_555

#END
