
#######################################################################
#
#                 Cambridge Crystallographic Data Centre
#                                CCDC 
#
#######################################################################
#
# If this CIF has been generated from an entry in the Cambridge 
# Structural Database, then it will include bibliographic, chemical, 
# crystal, experimental, refinement or atomic coordinate data resulting 
# from the CCDC's data processing and validation procedures.
#
#######################################################################

data_EXIXEP
_chemical_formula_moiety         'C20 H27 N1 O2'
_chemical_name_systematic        
rac-2-([1-(1-Adamantyl)ethyl]iminomethyl)-5-methoxyphenol
_symmetry_cell_setting           monoclinic
_symmetry_space_group_name_H-M   'P 21/c'
_symmetry_Int_Tables_number      14
_space_group_name_Hall           '-P 2ybc'
loop_
_symmetry_equiv_pos_site_id
_symmetry_equiv_pos_as_xyz
1 x,y,z
2 -x,1/2+y,1/2-z
3 -x,-y,-z
4 x,1/2-y,1/2+z
_cell_length_a                   9.9656(12)
_cell_length_b                   16.1791(17)
_cell_length_c                   11.6239(13)
_cell_angle_alpha                90
_cell_angle_beta                 113.5750(10)
_cell_angle_gamma                90
_cell_volume                     1717.75
_exptl_crystal_colour            yellow
_exptl_crystal_description       block
_chemical_melting_point          '376.2 K'
_cell_formula_units_Z            4
loop_
_atom_site_label
_atom_site_type_symbol
_atom_site_fract_x
_atom_site_fract_y
_atom_site_fract_z
N1 N 0.7126(2) 0.67451(12) 0.40697(18)
O1 O 0.71762(19) 0.61250(12) 0.20647(17)
H1 H 0.7474 0.6253 0.2808
O2 O 0.29257(19) 0.64043(11) -0.17264(15)
C1 C 0.5815(3) 0.69731(14) 0.3429(2)
H2 H 0.5313 0.7255 0.3832
C2 C 0.5078(3) 0.68105(13) 0.2104(2)
C3 C 0.5797(3) 0.63829(14) 0.1467(2)
C4 C 0.5086(3) 0.62210(15) 0.0188(2)
H3 H 0.5559 0.5922 -0.0223
C5 C 0.3691(3) 0.65031(14) -0.0462(2)
C6 C 0.2963(3) 0.69355(16) 0.0147(2)
H4 H 0.2016 0.7129 -0.0298
C7 C 0.3655(3) 0.70733(15) 0.1408(2)
H5 H 0.3155 0.7353 0.1815
C8 C 0.3556(3) 0.59070(19) -0.2388(3)
H6 H 0.4444 0.6160 -0.2350
H7 H 0.2880 0.5858 -0.3249
H8 H 0.3769 0.5368 -0.2013
C9 C 0.9245(4) 0.7408(2) 0.5605(3)
H9 H 0.9899 0.7055 0.5409
H10 H 0.9710 0.7585 0.6464
H11 H 0.9008 0.7883 0.5064
C10 C 0.7852(3) 0.69376(16) 0.5414(2)
H12 H 0.7210 0.7305 0.5634
C11 C 0.8090(2) 0.61413(14) 0.6205(2)
C12 C 0.8917(3) 0.54740(15) 0.5831(2)
H13 H 0.9874 0.5681 0.5939
H14 H 0.8386 0.5334 0.4953
C13 C 0.9097(3) 0.46995(17) 0.6640(2)
H15 H 0.9618 0.4271 0.6386
C14 C 0.9970(3) 0.49280(17) 0.8023(2)
H16 H 1.0115 0.4441 0.8545
H17 H 1.0923 0.5142 0.8134
C15 C 0.9132(3) 0.55750(16) 0.8406(2)
H18 H 0.9688 0.5721 0.9288
C16 C 0.7645(3) 0.52422(19) 0.8248(2)
H19 H 0.7765 0.4751 0.8758
H20 H 0.7124 0.5653 0.8519
C17 C 0.6783(3) 0.50353(18) 0.6881(2)
H21 H 0.5814 0.4827 0.6767
C18 C 0.6608(3) 0.57904(17) 0.6055(2)
H22 H 0.6060 0.6211 0.6277
H23 H 0.6057 0.5640 0.5185
C19 C 0.8941(3) 0.63435(15) 0.7596(2)
H24 H 0.9896 0.6563 0.7722
H25 H 0.8420 0.6763 0.7850
C20 C 0.7582(4) 0.43828(18) 0.6474(3)
H26 H 0.7021 0.4243 0.5600
H27 H 0.7686 0.3887 0.6971
loop_
_geom_bond_atom_site_label_1
_geom_bond_atom_site_label_2
_geom_bond_site_symmetry_1
_geom_bond_site_symmetry_2
N1 C1 1_555 1_555
O1 H1 1_555 1_555
O2 C5 1_555 1_555
C1 H2 1_555 1_555
C2 C1 1_555 1_555
C3 O1 1_555 1_555
C4 C3 1_555 1_555
H3 C4 1_555 1_555
C5 C4 1_555 1_555
C6 C5 1_555 1_555
H4 C6 1_555 1_555
C7 C2 1_555 1_555
H5 C7 1_555 1_555
C8 O2 1_555 1_555
H6 C8 1_555 1_555
H7 C8 1_555 1_555
H8 C8 1_555 1_555
C9 H9 1_555 1_555
H10 C9 1_555 1_555
H11 C9 1_555 1_555
C10 N1 1_555 1_555
H12 C10 1_555 1_555
C11 C10 1_555 1_555
C12 C11 1_555 1_555
H13 C12 1_555 1_555
H14 C12 1_555 1_555
C13 C12 1_555 1_555
H15 C13 1_555 1_555
C14 C13 1_555 1_555
H16 C14 1_555 1_555
H17 C14 1_555 1_555
C15 C14 1_555 1_555
H18 C15 1_555 1_555
C16 C15 1_555 1_555
H19 C16 1_555 1_555
H20 C16 1_555 1_555
C17 C16 1_555 1_555
H21 C17 1_555 1_555
C18 C11 1_555 1_555
H22 C18 1_555 1_555
H23 C18 1_555 1_555
C19 C11 1_555 1_555
H24 C19 1_555 1_555
H25 C19 1_555 1_555
C20 C13 1_555 1_555
H26 C20 1_555 1_555
H27 C20 1_555 1_555
C2 C3 1_555 1_555
C6 C7 1_555 1_555
C9 C10 1_555 1_555
C15 C19 1_555 1_555
C17 C18 1_555 1_555
C17 C20 1_555 1_555

#END
