
#######################################################################
#
#                 Cambridge Crystallographic Data Centre
#                                CCDC 
#
#######################################################################
#
# If this CIF has been generated from an entry in the Cambridge 
# Structural Database, then it will include bibliographic, chemical, 
# crystal, experimental, refinement or atomic coordinate data resulting 
# from the CCDC's data processing and validation procedures.
#
#######################################################################

data_EXIZIV
_chemical_name_common            
(E)-3-(2-Hydroxy-5-methylphenylimino)indolin-2-one
_chemical_formula_moiety         'C15 H12 N2 O2'
_chemical_name_systematic        
3-((2-Hydroxy-5-methylphenyl)imino)-1,3-dihydro-2H-indol-2-one
_symmetry_cell_setting           monoclinic
_symmetry_space_group_name_H-M   'P 21/c'
_symmetry_Int_Tables_number      14
_space_group_name_Hall           '-P 2ybc'
loop_
_symmetry_equiv_pos_site_id
_symmetry_equiv_pos_as_xyz
1 x,y,z
2 -x,1/2+y,1/2-z
3 -x,-y,-z
4 x,1/2-y,1/2+z
_cell_length_a                   12.6211(11)
_cell_length_b                   8.7100(7)
_cell_length_c                   11.2835(10)
_cell_angle_alpha                90
_cell_angle_beta                 90.7800(10)
_cell_angle_gamma                90
_cell_volume                     1240.28
_exptl_crystal_colour            'dark brown'
_exptl_crystal_description       block
_cell_formula_units_Z            4
loop_
_atom_site_label
_atom_site_type_symbol
_atom_site_fract_x
_atom_site_fract_y
_atom_site_fract_z
N1 N 0.53216(12) 0.37862(19) 0.37637(13)
H1 H 0.4865 0.3785 0.3191
N2 N 0.62133(12) 0.28888(19) 0.66041(14)
O1 O 0.45391(11) 0.19850(16) 0.49452(12)
O2 O 0.58728(11) 0.51425(16) 0.82237(12)
H2 H 0.5830 0.5750 0.8776
C1 C 0.52386(15) 0.2918(2) 0.47439(16)
C2 C 0.61738(14) 0.3381(2) 0.55449(16)
C3 C 0.67930(15) 0.4476(2) 0.48520(17)
C4 C 0.62382(14) 0.4693(2) 0.37841(17)
C5 C 0.65726(16) 0.5680(2) 0.29187(18)
H3 H 0.6188 0.5816 0.2218
C6 C 0.75054(18) 0.6460(3) 0.3136(2)
H4 H 0.7756 0.7137 0.2567
C7 C 0.80770(18) 0.6262(3) 0.4179(2)
H5 H 0.8704 0.6805 0.4299
C8 C 0.77297(16) 0.5266(3) 0.5045(2)
H6 H 0.8118 0.5131 0.5744
C9 C 0.68333(15) 0.4423(2) 0.82729(17)
C10 C 0.70454(15) 0.3352(2) 0.73941(16)
C11 C 0.80213(16) 0.2627(3) 0.73843(19)
H7 H 0.8161 0.1920 0.6789
C12 C 0.87940(17) 0.2925(3) 0.8235(2)
C13 C 0.85588(18) 0.3980(3) 0.9110(2)
H8 H 0.9064 0.4195 0.9695
C14 C 0.75915(17) 0.4720(3) 0.91347(19)
H9 H 0.7451 0.5421 0.9734
C15 C 0.98450(19) 0.2096(4) 0.8213(3)
H10 H 1.0391 0.2757 0.8522
H11 H 1.0006 0.1817 0.7412
H12 H 0.9806 0.1186 0.8691
loop_
_geom_bond_atom_site_label_1
_geom_bond_atom_site_label_2
_geom_bond_site_symmetry_1
_geom_bond_site_symmetry_2
N1 H1 1_555 1_555
N2 C2 1_555 1_555
O1 C1 1_555 1_555
O2 H2 1_555 1_555
C1 N1 1_555 1_555
C2 C1 1_555 1_555
C3 C2 1_555 1_555
C4 N1 1_555 1_555
C5 C4 1_555 1_555
H3 C5 1_555 1_555
C6 C5 1_555 1_555
H4 C6 1_555 1_555
C7 C6 1_555 1_555
H5 C7 1_555 1_555
C8 C3 1_555 1_555
H6 C8 1_555 1_555
C9 O2 1_555 1_555
C10 N2 1_555 1_555
C11 C10 1_555 1_555
H7 C11 1_555 1_555
C12 C11 1_555 1_555
C13 C12 1_555 1_555
H8 C13 1_555 1_555
C14 C9 1_555 1_555
H9 C14 1_555 1_555
C15 C12 1_555 1_555
H10 C15 1_555 1_555
H11 C15 1_555 1_555
H12 C15 1_555 1_555
C3 C4 1_555 1_555
C7 C8 1_555 1_555
C9 C10 1_555 1_555
C13 C14 1_555 1_555

#END
