
#######################################################################
#
#                 Cambridge Crystallographic Data Centre
#                                CCDC 
#
#######################################################################
#
# If this CIF has been generated from an entry in the Cambridge 
# Structural Database, then it will include bibliographic, chemical, 
# crystal, experimental, refinement or atomic coordinate data resulting 
# from the CCDC's data processing and validation procedures.
#
#######################################################################

data_EXIZAN
_chemical_name_common            
1,1'-(1,2-Phenylene)bis(3,3,4,4-tetrafluoropyrrolidine)
_chemical_formula_moiety         'C14 H12 F8 N2'
_chemical_name_systematic        
3,3,4,4-Tetrafluoro-1-[2-(3,3,4,4-tetrafluoropyrrolidin-1-yl)phenyl]pyrrolidine
_symmetry_cell_setting           orthorhombic
_symmetry_space_group_name_H-M   'P b c n'
_symmetry_Int_Tables_number      60
_space_group_name_Hall           '-P 2n 2ab'
loop_
_symmetry_equiv_pos_site_id
_symmetry_equiv_pos_as_xyz
1 x,y,z
2 1/2-x,1/2-y,1/2+z
3 1/2+x,1/2-y,-z
4 -x,y,1/2-z
5 -x,-y,-z
6 1/2+x,1/2+y,1/2-z
7 1/2-x,1/2+y,z
8 x,-y,1/2+z
_cell_length_a                   8.678(3)
_cell_length_b                   9.818(3)
_cell_length_c                   17.088(5)
_cell_angle_alpha                90
_cell_angle_beta                 90
_cell_angle_gamma                90
_cell_volume                     1455.91
_exptl_crystal_colour            colorless
_exptl_crystal_description       block
_cell_formula_units_Z            4
loop_
_atom_site_label
_atom_site_type_symbol
_atom_site_fract_x
_atom_site_fract_y
_atom_site_fract_z
F1 F -0.1645(4) -0.1228(3) -0.4379(2)
F2 F 0.0115(4) -0.1911(3) -0.51367(13)
F3 F 0.0249(6) -0.0376(3) -0.34538(19)
F4 F 0.2023(4) -0.0915(4) -0.42295(19)
N1 N -0.0183(3) -0.3376(3) -0.33165(14)
C1 C -0.0181(5) -0.7079(3) -0.2889(2)
H1 H -0.0338 -0.7897 -0.3151
C2 C -0.0311(4) -0.5864(3) -0.3283(2)
H2 H -0.0529 -0.5872 -0.3815
C3 C -0.0126(4) -0.4627(3) -0.29036(18)
C4 C -0.0670(5) -0.3406(4) -0.4133(2)
H3 H -0.1751 -0.3646 -0.4179
H4 H -0.0060 -0.4047 -0.4434
C5 C -0.0388(5) -0.1976(4) -0.4393(2)
C6 C 0.0846(6) -0.1425(4) -0.3851(2)
C7 C 0.1226(5) -0.2548(4) -0.3301(2)
H5 H 0.2110 -0.3065 -0.3481
H6 H 0.1432 -0.2204 -0.2779
F1C F 0.1645(4) -0.1228(3) -0.0621(2)
F2C F -0.0115(4) -0.1911(3) 0.01367(13)
F3C F -0.0249(6) -0.0376(3) -0.15462(19)
F4C F -0.2023(4) -0.0915(4) -0.07705(19)
N1C N 0.0183(3) -0.3376(3) -0.16835(14)
C1C C 0.0181(5) -0.7079(3) -0.2111(2)
H1C H 0.0338 -0.7897 -0.1849
C2C C 0.0311(4) -0.5864(3) -0.1717(2)
H2C H 0.0529 -0.5872 -0.1185
C3C C 0.0126(4) -0.4627(3) -0.20964(18)
C4C C 0.0670(5) -0.3406(4) -0.0867(2)
H3C H 0.1751 -0.3646 -0.0821
H4C H 0.0060 -0.4047 -0.0566
C5C C 0.0388(5) -0.1976(4) -0.0607(2)
C6C C -0.0846(6) -0.1425(4) -0.1149(2)
C7C C -0.1226(5) -0.2548(4) -0.1699(2)
H5C H -0.2110 -0.3065 -0.1519
H6C H -0.1432 -0.2204 -0.2221
loop_
_geom_bond_atom_site_label_1
_geom_bond_atom_site_label_2
_geom_bond_site_symmetry_1
_geom_bond_site_symmetry_2
F1 C5 1_555 1_555
F2 C5 1_555 1_555
F3 C6 1_555 1_555
F4 C6 1_555 1_555
N1 C3 1_555 1_555
C1 H1 1_555 1_555
C2 C1 1_555 1_555
H2 C2 1_555 1_555
C3 C2 1_555 1_555
C4 N1 1_555 1_555
H3 C4 1_555 1_555
H4 C4 1_555 1_555
C5 C4 1_555 1_555
C6 C5 1_555 1_555
C7 N1 1_555 1_555
H5 C7 1_555 1_555
H6 C7 1_555 1_555
F1C C5C 1_555 1_555
F2C C5C 1_555 1_555
F3C C6C 1_555 1_555
F4C C6C 1_555 1_555
N1C C3C 1_555 1_555
C1C C1 1_555 1_555
H1C C1C 1_555 1_555
C2C C1C 1_555 1_555
H2C C2C 1_555 1_555
C3C C3 1_555 1_555
C4C N1C 1_555 1_555
H3C C4C 1_555 1_555
H4C C4C 1_555 1_555
C5C C4C 1_555 1_555
C6C C5C 1_555 1_555
C7C N1C 1_555 1_555
H5C C7C 1_555 1_555
H6C C7C 1_555 1_555
C6 C7 1_555 1_555
C2C C3C 1_555 1_555
C6C C7C 1_555 1_555

#END
