
#######################################################################
#
#                 Cambridge Crystallographic Data Centre
#                                CCDC 
#
#######################################################################
#
# If this CIF has been generated from an entry in the Cambridge 
# Structural Database, then it will include bibliographic, chemical, 
# crystal, experimental, refinement or atomic coordinate data resulting 
# from the CCDC's data processing and validation procedures.
#
#######################################################################

data_EXOGUV
_chemical_formula_moiety         'C30 H30 Cl2 N2 O1'
_chemical_name_systematic        
N-(1-(2,8-bis(4-chlorophenyl)adamantan-1-yl)ethyl)pyridine-2-carboxamide
_symmetry_cell_setting           monoclinic
_symmetry_space_group_name_H-M   'P 21'
_symmetry_Int_Tables_number      4
_space_group_name_Hall           'P 2yb'
loop_
_symmetry_equiv_pos_site_id
_symmetry_equiv_pos_as_xyz
1 x,y,z
2 -x,1/2+y,-z
_cell_length_a                   8.696(2)
_cell_length_b                   24.085(6)
_cell_length_c                   12.216(3)
_cell_angle_alpha                90
_cell_angle_beta                 90.726(4)
_cell_angle_gamma                90
_cell_volume                     2558.35
_exptl_crystal_colour            colorless
_exptl_crystal_description       plate
_cell_formula_units_Z            4
_exptl_crystal_recrystallization_method dichloromethane/n-Hexane
loop_
_atom_site_label
_atom_site_type_symbol
_atom_site_fract_x
_atom_site_fract_y
_atom_site_fract_z
Cl1 Cl 0.83990(19) 0.53157(7) 0.06804(13)
Cl2 Cl 0.31525(16) 0.47164(6) 0.95462(15)
O1 O 0.4975(4) 0.61387(17) 0.3701(3)
N1 N 0.4522(5) 0.4828(2) 0.5019(4)
N2 N 0.5851(5) 0.58191(18) 0.5355(4)
H1 H 0.5770 0.5565 0.5845
C1 C 0.2991(7) 0.4212(3) 0.3904(6)
H2 H 0.2586 0.3858 0.3807
C2 C 0.3874(7) 0.4330(3) 0.4804(6)
H3 H 0.4042 0.4046 0.5308
C3 C 0.4252(5) 0.5222(2) 0.4235(5)
C4 C 0.5055(6) 0.5771(2) 0.4425(5)
C5 C 0.6854(6) 0.6290(2) 0.5566(5)
H4 H 0.7142 0.6434 0.4847
C6 C 0.8375(6) 0.6129(2) 0.6151(5)
C7 C 0.9062(6) 0.5590(2) 0.5611(5)
H5 H 0.8431 0.5282 0.5877
C8 C 0.9004(6) 0.5546(2) 0.4378(5)
C9 C 0.8052(6) 0.5128(2) 0.3910(5)
H6 H 0.7539 0.4888 0.4378
C10 C 0.7844(6) 0.5058(2) 0.2782(5)
H7 H 0.7188 0.4785 0.2506
C11 C 0.8633(6) 0.5401(2) 0.2094(5)
C12 C 0.4614(6) 0.5093(3) 0.8890(5)
C13 C 0.5549(6) 0.4817(2) 0.8163(5)
H8 H 0.5399 0.4442 0.8010
C14 C 0.6712(7) 0.5113(2) 0.7669(5)
H9 H 0.7372 0.4926 0.7203
C15 C 0.6939(6) 0.5680(2) 0.7840(5)
C16 C 0.5951(6) 0.5944(2) 0.8588(5)
H10 H 0.6083 0.6320 0.8739
C17 C 0.4786(6) 0.5652(2) 0.9102(5)
H11 H 0.4130 0.5832 0.9583
C18 C 0.8226(6) 0.6043(2) 0.7394(5)
H12 H 0.8020 0.6414 0.7687
C19 C 0.2700(7) 0.4621(3) 0.3136(6)
H13 H 0.2088 0.4551 0.2521
C20 C 0.3358(6) 0.5145(2) 0.3316(6)
H14 H 0.3191 0.5433 0.2823
C21 C 0.5921(6) 0.6753(2) 0.6116(5)
H15 H 0.5078 0.6858 0.5646
H16 H 0.6572 0.7069 0.6245
H17 H 0.5533 0.6621 0.6800
C22 C 0.9515(6) 0.6620(2) 0.5994(5)
H18 H 0.9627 0.6693 0.5218
H19 H 0.9101 0.6951 0.6333
C23 C 1.1106(6) 0.6488(3) 0.6505(5)
H20 H 1.1792 0.6806 0.6400
C24 C 1.1790(6) 0.5981(2) 0.5967(6)
H21 H 1.2777 0.5894 0.6305
H22 H 1.1954 0.6054 0.5196
C25 C 1.0695(6) 0.5486(2) 0.6094(5)
H23 H 1.1142 0.5159 0.5741
C26 C 0.9790(6) 0.5882(2) 0.3614(5)
H24 H 1.0437 0.6162 0.3869
C27 C 0.9615(6) 0.5802(3) 0.2499(5)
H25 H 1.0166 0.6022 0.2017
C28 C 1.0520(6) 0.5371(3) 0.7305(5)
H26 H 1.1515 0.5284 0.7629
H27 H 0.9847 0.5055 0.7407
C29 C 0.9840(6) 0.5884(2) 0.7872(5)
H28 H 0.9746 0.5807 0.8656
C30 C 1.0926(7) 0.6382(3) 0.7716(5)
H29 H 1.0503 0.6709 0.8068
H30 H 1.1921 0.6303 0.8049
Cl3 Cl 0.3424(2) 0.82119(8) -0.38200(14)
Cl4 Cl 1.04524(15) 0.90242(6) 0.46072(13)
O2 O 0.7104(5) 0.72762(17) -0.1309(3)
N3 N 0.9000(5) 0.8422(2) -0.0070(4)
N4 N 0.7163(5) 0.75975(19) 0.0482(4)
C31 C 1.0479(7) 0.8934(3) -0.1367(6)
H31 H 1.1144 0.9229 -0.1498
C32 C 0.9934(6) 0.8840(3) -0.0329(6)
H32 H 1.0236 0.9083 0.0225
C33 C 0.8573(6) 0.8081(2) -0.0893(5)
C34 C 0.7551(6) 0.7609(2) -0.0598(5)
C35 C 0.6140(6) 0.7173(2) 0.0910(5)
H33 H 0.5633 0.6998 0.0278
C36 C 0.4849(6) 0.7429(2) 0.1620(5)
C37 C 0.4162(6) 0.7967(2) 0.1068(5)
H34 H 0.4930 0.8255 0.1225
C38 C 0.3946(6) 0.7990(2) -0.0143(5)
C39 C 0.4540(6) 0.8448(2) -0.0690(5)
H35 H 0.5047 0.8719 -0.0279
C40 C 0.4418(6) 0.8524(3) -0.1818(5)
H36 H 0.4848 0.8832 -0.2155
C41 C 0.3644(6) 0.8129(3) -0.2414(5)
C42 C 0.9101(6) 0.8583(2) 0.3994(5)
C43 C 0.8785(6) 0.8079(2) 0.4474(5)
H37 H 0.9320 0.7959 0.5094
C44 C 0.7625(6) 0.7753(2) 0.3991(5)
H38 H 0.7420 0.7409 0.4301
C45 C 0.6756(6) 0.7913(2) 0.3072(5)
C46 C 0.5377(6) 0.7546(2) 0.2821(5)
H39 H 0.5616 0.7183 0.3144
C47 C 1.0027(7) 0.8586(3) -0.2213(6)
H40 H 1.0363 0.8641 -0.2925
C48 C 0.9044(7) 0.8147(3) -0.1950(5)
H41 H 0.8711 0.7902 -0.2491
C49 C 0.7101(7) 0.6726(2) 0.1473(5)
H42 H 0.7718 0.6540 0.0940
H43 H 0.6434 0.6462 0.1816
H44 H 0.7758 0.6893 0.2017
C50 C 0.3010(7) 0.7677(3) -0.1914(6)
H45 H 0.2483 0.7415 -0.2333
C51 C 0.3142(7) 0.7604(3) -0.0786(5)
H46 H 0.2692 0.7297 -0.0458
C52 C 0.2726(6) 0.8152(3) 0.1732(5)
H47 H 0.2285 0.8486 0.1393
C53 C 0.1508(6) 0.7706(3) 0.1774(5)
H48 H 0.1163 0.7615 0.1038
H49 H 0.0631 0.7839 0.2181
C54 C 0.2181(6) 0.7187(3) 0.2333(5)
H50 H 0.1391 0.6897 0.2353
C55 C 0.2690(7) 0.7327(3) 0.3504(5)
H51 H 0.3078 0.6996 0.3867
H52 H 0.1822 0.7465 0.3914
C56 C 0.3966(6) 0.7775(3) 0.3464(5)
H53 H 0.4289 0.7873 0.4211
C57 C 0.3263(6) 0.8291(3) 0.2888(5)
H54 H 0.2398 0.8426 0.3307
H55 H 0.4026 0.8585 0.2862
C58 C 0.3556(6) 0.6974(2) 0.1702(5)
H56 H 0.3226 0.6866 0.0972
H57 H 0.3971 0.6648 0.2066
C59 C 0.7162(6) 0.8428(2) 0.2603(5)
H58 H 0.6652 0.8554 0.1977
C60 C 0.8339(6) 0.8750(2) 0.3083(5)
H59 H 0.8600 0.9087 0.2763
loop_
_geom_bond_atom_site_label_1
_geom_bond_atom_site_label_2
_geom_bond_site_symmetry_1
_geom_bond_site_symmetry_2
Cl1 C11 1_555 1_555
Cl2 C12 1_555 1_555
O1 C4 1_555 1_555
N1 C2 1_555 1_555
N2 H1 1_555 1_555
C1 H2 1_555 1_555
C2 C1 1_555 1_555
H3 C2 1_555 1_555
C3 N1 1_555 1_555
C4 N2 1_555 1_555
C5 N2 1_555 1_555
H4 C5 1_555 1_555
C6 C5 1_555 1_555
C7 C6 1_555 1_555
H5 C7 1_555 1_555
C8 C7 1_555 1_555
C9 C8 1_555 1_555
H6 C9 1_555 1_555
C10 C9 1_555 1_555
H7 C10 1_555 1_555
C11 C10 1_555 1_555
C12 C13 1_555 1_555
C13 H8 1_555 1_555
C14 C13 1_555 1_555
H9 C14 1_555 1_555
C15 C14 1_555 1_555
C16 C15 1_555 1_555
H10 C16 1_555 1_555
C17 C12 1_555 1_555
H11 C17 1_555 1_555
C18 C6 1_555 1_555
H12 C18 1_555 1_555
C19 C1 1_555 1_555
H13 C19 1_555 1_555
C20 C3 1_555 1_555
H14 C20 1_555 1_555
C21 C5 1_555 1_555
H15 C21 1_555 1_555
H16 C21 1_555 1_555
H17 C21 1_555 1_555
C22 C6 1_555 1_555
H18 C22 1_555 1_555
H19 C22 1_555 1_555
C23 C22 1_555 1_555
H20 C23 1_555 1_555
C24 C23 1_555 1_555
H21 C24 1_555 1_555
H22 C24 1_555 1_555
C25 C7 1_555 1_555
H23 C25 1_555 1_555
C26 C8 1_555 1_555
H24 C26 1_555 1_555
C27 C11 1_555 1_555
H25 C27 1_555 1_555
C28 C25 1_555 1_555
H26 C28 1_555 1_555
H27 C28 1_555 1_555
C29 C18 1_555 1_555
H28 C29 1_555 1_555
C30 C23 1_555 1_555
H29 C30 1_555 1_555
H30 C30 1_555 1_555
Cl3 C41 1_555 1_555
Cl4 C42 1_555 1_555
O2 C34 1_555 1_555
N3 C32 1_555 1_555
N4 C34 1_555 1_555
C31 H31 1_555 1_555
C32 C31 1_555 1_555
H32 C32 1_555 1_555
C33 N3 1_555 1_555
C34 C33 1_555 1_555
C35 N4 1_555 1_555
H33 C35 1_555 1_555
C36 C35 1_555 1_555
C37 C36 1_555 1_555
H34 C37 1_555 1_555
C38 C37 1_555 1_555
C39 C38 1_555 1_555
H35 C39 1_555 1_555
C40 C39 1_555 1_555
H36 C40 1_555 1_555
C41 C40 1_555 1_555
C42 C43 1_555 1_555
C43 H37 1_555 1_555
C44 C43 1_555 1_555
H38 C44 1_555 1_555
C45 C44 1_555 1_555
C46 C36 1_555 1_555
H39 C46 1_555 1_555
C47 C31 1_555 1_555
H40 C47 1_555 1_555
C48 C33 1_555 1_555
H41 C48 1_555 1_555
C49 C35 1_555 1_555
H42 C49 1_555 1_555
H43 C49 1_555 1_555
H44 C49 1_555 1_555
C50 C41 1_555 1_555
H45 C50 1_555 1_555
C51 C38 1_555 1_555
H46 C51 1_555 1_555
C52 C37 1_555 1_555
H47 C52 1_555 1_555
C53 C52 1_555 1_555
H48 C53 1_555 1_555
H49 C53 1_555 1_555
C54 C53 1_555 1_555
H50 C54 1_555 1_555
C55 C54 1_555 1_555
H51 C55 1_555 1_555
H52 C55 1_555 1_555
C56 C46 1_555 1_555
H53 C56 1_555 1_555
C57 C52 1_555 1_555
H54 C57 1_555 1_555
H55 C57 1_555 1_555
C58 C36 1_555 1_555
H56 C58 1_555 1_555
H57 C58 1_555 1_555
C59 C45 1_555 1_555
H58 C59 1_555 1_555
C60 C42 1_555 1_555
H59 C60 1_555 1_555
C3 C4 1_555 1_555
C15 C18 1_555 1_555
C16 C17 1_555 1_555
C19 C20 1_555 1_555
C24 C25 1_555 1_555
C26 C27 1_555 1_555
C28 C29 1_555 1_555
C29 C30 1_555 1_555
C45 C46 1_555 1_555
C47 C48 1_555 1_555
C50 C51 1_555 1_555
C54 C58 1_555 1_555
C55 C56 1_555 1_555
C56 C57 1_555 1_555
C59 C60 1_555 1_555

#END
