
#######################################################################
#
#                 Cambridge Crystallographic Data Centre
#                                CCDC 
#
#######################################################################
#
# If this CIF has been generated from an entry in the Cambridge 
# Structural Database, then it will include bibliographic, chemical, 
# crystal, experimental, refinement or atomic coordinate data resulting 
# from the CCDC's data processing and validation procedures.
#
#######################################################################

data_EXORUF
_chemical_formula_moiety         'C6 H16 Mg1 N10 O8'
_chemical_name_systematic        
bis((5-amino-1H-tetrazol-1-yl)acetato)-tetraaqua-magnesium
_symmetry_cell_setting           triclinic
_symmetry_space_group_name_H-M   'P -1'
_symmetry_Int_Tables_number      2
_space_group_name_Hall           '-P 1'
loop_
_symmetry_equiv_pos_site_id
_symmetry_equiv_pos_as_xyz
1 x,y,z
2 -x,-y,-z
_cell_length_a                   6.1197(12)
_cell_length_b                   6.6055(13)
_cell_length_c                   9.5845(19)
_cell_angle_alpha                78.47(3)
_cell_angle_beta                 82.74(3)
_cell_angle_gamma                75.65(3)
_cell_volume                     366.571
_exptl_crystal_colour            colorless
_exptl_crystal_description       prism
_cell_formula_units_Z            1
loop_
_atom_site_label
_atom_site_type_symbol
_atom_site_fract_x
_atom_site_fract_y
_atom_site_fract_z
Mg1 Mg 0.5000 1.0000 1.0000
O1 O 0.22801(18) 1.22432(17) 1.06828(12)
O2 O 0.01036(18) 1.03085(17) 1.21018(11)
O3 O 0.3139(2) 0.7632(2) 1.05661(14)
H1 H 0.204(5) 0.813(4) 1.112(3)
H2 H 0.375(4) 0.643(4) 1.100(3)
O4 O 0.3857(2) 1.0893(2) 0.79654(13)
H3 H 0.281(4) 1.041(4) 0.789(2)
H4 H 0.460(5) 1.128(4) 0.703(3)
N1 N -0.2504(2) 1.3704(2) 1.31667(13)
N2 N -0.4663(2) 1.3867(2) 1.28636(14)
N3 N -0.5680(2) 1.3097(2) 1.40294(15)
N4 N -0.4278(2) 1.2409(2) 1.51120(14)
N5 N -0.0421(3) 1.2473(2) 1.52145(17)
H5 H 0.084(4) 1.269(3) 1.471(2)
H6 H -0.037(3) 1.163(3) 1.600(2)
C1 C -0.2301(3) 1.2814(2) 1.45426(16)
C2 C -0.0726(3) 1.4067(3) 1.20632(17)
H7 H -0.140(3) 1.501(3) 1.1264(19)
H8 H 0.027(3) 1.471(3) 1.2420(19)
C3 C 0.0657(2) 1.2028(2) 1.15809(15)
O1A O 0.77199(18) 0.77568(17) 0.93172(12)
O2A O 0.98964(18) 0.96915(17) 0.78982(11)
O3A O 0.6861(2) 1.2368(2) 0.94339(14)
H1A H 0.796(5) 1.187(4) 0.888(3)
H2A H 0.625(4) 1.357(4) 0.900(3)
O4A O 0.6143(2) 0.9107(2) 1.20346(13)
H3A H 0.719(4) 0.959(4) 1.211(2)
H4A H 0.540(5) 0.872(4) 1.297(3)
N1A N 1.2504(2) 0.6296(2) 0.68333(13)
N2A N 1.4663(2) 0.6133(2) 0.71364(14)
N3A N 1.5680(2) 0.6903(2) 0.59706(15)
N4A N 1.4278(2) 0.7591(2) 0.48880(14)
N5A N 1.0421(3) 0.7527(2) 0.47855(17)
H5A H 0.916(4) 0.731(3) 0.529(2)
H6A H 1.037(3) 0.837(3) 0.400(2)
C1A C 1.2301(3) 0.7186(2) 0.54574(16)
C2A C 1.0726(3) 0.5933(3) 0.79368(17)
H7A H 1.140(3) 0.499(3) 0.8736(19)
H8A H 0.973(3) 0.529(3) 0.7580(19)
C3A C 0.9343(2) 0.7972(2) 0.84191(15)
loop_
_geom_bond_atom_site_label_1
_geom_bond_atom_site_label_2
_geom_bond_site_symmetry_1
_geom_bond_site_symmetry_2
Mg1 O1 1_555 1_555
O1 C3 1_555 1_555
O2 C3 1_555 1_555
O3 Mg1 1_555 1_555
H1 O3 1_555 1_555
H2 O3 1_555 1_555
O4 Mg1 1_555 1_555
H3 O4 1_555 1_555
H4 O4 1_555 1_555
N1 N2 1_555 1_555
N2 N3 1_555 1_555
N3 N4 1_555 1_555
N4 C1 1_555 1_555
N5 H5 1_555 1_555
H6 N5 1_555 1_555
C1 N1 1_555 1_555
C2 N1 1_555 1_555
H7 C2 1_555 1_555
H8 C2 1_555 1_555
C3 C2 1_555 1_555
O1A Mg1 1_555 1_555
O2A C3A 1_555 1_555
O3A Mg1 1_555 1_555
H1A O3A 1_555 1_555
H2A O3A 1_555 1_555
O4A Mg1 1_555 1_555
H3A O4A 1_555 1_555
H4A O4A 1_555 1_555
N1A N2A 1_555 1_555
N2A N3A 1_555 1_555
N3A N4A 1_555 1_555
N4A C1A 1_555 1_555
N5A H5A 1_555 1_555
H6A N5A 1_555 1_555
C1A N1A 1_555 1_555
C2A N1A 1_555 1_555
H7A C2A 1_555 1_555
H8A C2A 1_555 1_555
C3A O1A 1_555 1_555
N5 C1 1_555 1_555
N5A C1A 1_555 1_555
C2A C3A 1_555 1_555

#END
