
#######################################################################
#
#                 Cambridge Crystallographic Data Centre
#                                CCDC 
#
#######################################################################
#
# If this CIF has been generated from an entry in the Cambridge 
# Structural Database, then it will include bibliographic, chemical, 
# crystal, experimental, refinement or atomic coordinate data resulting 
# from the CCDC's data processing and validation procedures.
#
#######################################################################

data_EXOSAM
_chemical_formula_moiety         'C6 H16 Ca1 N10 O8'
_chemical_name_systematic        
bis((5-amino-1H-tetrazol-1-yl)acetato)-tetraaqua-calcium
_symmetry_cell_setting           triclinic
_symmetry_space_group_name_H-M   'P -1'
_symmetry_Int_Tables_number      2
_space_group_name_Hall           '-P 1'
loop_
_symmetry_equiv_pos_site_id
_symmetry_equiv_pos_as_xyz
1 x,y,z
2 -x,-y,-z
_cell_length_a                   7.9671(16)
_cell_length_b                   9.828(2)
_cell_length_c                   10.1195(12)
_cell_angle_alpha                76.39(2)
_cell_angle_beta                 88.85(3)
_cell_angle_gamma                85.361(18)
_cell_volume                     767.591
_cell_formula_units_Z            2
loop_
_atom_site_label
_atom_site_type_symbol
_atom_site_fract_x
_atom_site_fract_y
_atom_site_fract_z
C1 C 0.5458(4) 0.7160(3) 0.4312(4)
C2 C 0.4873(5) 0.9339(4) 0.2443(4)
H1 H 0.5577 0.9839 0.1727
H2 H 0.4666 0.9917 0.3094
C3 C 0.3223(5) 0.9177(4) 0.1833(4)
Ca1 Ca 0.0000 1.0000 0.0000
N1 N 0.5768(3) 0.8081(3) 0.3097(3)
N2 N 0.7195(4) 0.7646(3) 0.2442(3)
N3 N 0.7730(4) 0.6348(3) 0.3313(3)
N4 N 0.6653(3) 0.6068(3) 0.4439(3)
N5 N 0.4204(4) 0.7155(3) 0.5326(3)
H5 H 0.368(5) 0.636(4) 0.539(4)
H6 H 0.344(5) 0.788(4) 0.500(4)
O1 O 0.2684(3) 1.0263(2) 0.0906(2)
O2 O 0.2615(3) 0.8044(3) 0.2054(2)
O3 O 0.0134(3) 1.2412(3) -0.0624(3)
H9 H -0.059(5) 1.280(4) -0.139(4)
H10 H 0.127(6) 1.262(4) -0.087(4)
O4 O 0.1203(3) 0.9726(2) -0.2054(3)
H11 H 0.186(5) 0.884(4) -0.191(4)
H12 H 0.033(5) 0.975(4) -0.270(4)
C1A C -0.5458(4) 1.2840(3) -0.4312(4)
C2A C -0.4873(5) 1.0661(4) -0.2443(4)
H1A H -0.5577 1.0161 -0.1727
H2A H -0.4666 1.0083 -0.3094
C3A C -0.3223(5) 1.0823(4) -0.1833(4)
N1A N -0.5768(3) 1.1919(3) -0.3097(3)
N2A N -0.7195(4) 1.2354(3) -0.2442(3)
N3A N -0.7730(4) 1.3652(3) -0.3313(3)
N4A N -0.6653(3) 1.3932(3) -0.4439(3)
N5A N -0.4204(4) 1.2845(3) -0.5326(3)
H5A H -0.368(5) 1.364(4) -0.539(4)
H6A H -0.344(5) 1.212(4) -0.500(4)
O1A O -0.2684(3) 0.9737(2) -0.0906(2)
O2A O -0.2615(3) 1.1956(3) -0.2054(2)
O3A O -0.0134(3) 0.7588(3) 0.0624(3)
H9A H 0.059(5) 0.720(4) 0.139(4)
H10A H -0.127(6) 0.738(4) 0.087(4)
O4A O -0.1203(3) 1.0274(2) 0.2054(3)
H11A H -0.186(5) 1.116(4) 0.191(4)
H12A H -0.033(5) 1.025(4) 0.270(4)
C4 C 1.0183(4) 0.2537(4) 1.4623(3)
C5 C 1.0038(5) 0.4068(4) 1.2168(4)
H3 H 1.0861 0.4145 1.1440
H4 H 1.0020 0.4920 1.2496
C6 C 0.8352(4) 0.4002(4) 1.1586(4)
Ca2 Ca 0.5000 0.5000 1.0000
N6 N 1.0599(4) 0.2915(3) 1.3248(3)
N7 N 1.1714(4) 0.1876(3) 1.2957(3)
N8 N 1.1984(4) 0.0823(3) 1.4123(3)
N9 N 1.1022(3) 0.1222(3) 1.5170(3)
N10 N 0.9180(4) 0.3494(3) 1.5241(3)
H7 H 0.977(5) 0.360(4) 1.595(4)
H8 H 0.876(4) 0.436(4) 1.481(4)
O5 O 0.7808(3) 0.5012(2) 1.0671(2)
O6 O 0.7463(3) 0.2959(2) 1.2068(2)
O7 O 0.5463(3) 0.7372(2) 0.9597(3)
H13 H 0.568(5) 0.761(4) 1.044(4)
H14 H 0.448(5) 0.792(4) 0.918(4)
O8 O 0.6025(3) 0.5088(3) 0.7801(2)
H15 H 0.537(5) 0.569(4) 0.727(4)
H16 H 0.586(5) 0.430(4) 0.764(4)
C4A C -0.0183(4) 0.7463(4) 0.5377(3)
C5A C -0.0038(5) 0.5932(4) 0.7832(4)
H3A H -0.0861 0.5855 0.8560
H4A H -0.0020 0.5080 0.7504
C6A C 0.1648(4) 0.5998(4) 0.8414(4)
N6A N -0.0599(4) 0.7085(3) 0.6752(3)
N7A N -0.1714(4) 0.8124(3) 0.7043(3)
N8A N -0.1984(4) 0.9177(3) 0.5877(3)
N9A N -0.1022(3) 0.8778(3) 0.4830(3)
N10A N 0.0820(4) 0.6506(3) 0.4759(3)
H7A H 0.023(5) 0.640(4) 0.405(4)
H8A H 0.124(4) 0.564(4) 0.519(4)
O5A O 0.2192(3) 0.4988(2) 0.9329(2)
O6A O 0.2537(3) 0.7041(2) 0.7932(2)
O7A O 0.4537(3) 0.2628(2) 1.0403(3)
H13A H 0.432(5) 0.239(4) 0.956(4)
H14A H 0.552(5) 0.208(4) 1.082(4)
O8A O 0.3975(3) 0.4912(3) 1.2199(2)
H15A H 0.463(5) 0.431(4) 1.273(4)
H16A H 0.414(5) 0.570(4) 1.236(4)
loop_
_geom_bond_atom_site_label_1
_geom_bond_atom_site_label_2
_geom_bond_site_symmetry_1
_geom_bond_site_symmetry_2
C1 N1 1_555 1_555
C2 H1 1_555 1_555
H2 C2 1_555 1_555
C3 C2 1_555 1_555
C4 N6 1_555 1_555
C5 H3 1_555 1_555
H4 C5 1_555 1_555
C6 C5 1_555 1_555
Ca1 O1 1_555 1_555
Ca2 O5 1_555 1_555
N1 C2 1_555 1_555
N2 N1 1_555 1_555
N3 N2 1_555 1_555
N4 C1 1_555 1_555
N5 C1 1_555 1_555
H5 N5 1_555 1_555
H6 N5 1_555 1_555
N6 C5 1_555 1_555
N7 N6 1_555 1_555
N8 N7 1_555 1_555
N9 C4 1_555 1_555
N10 C4 1_555 1_555
H7 N10 1_555 1_555
H8 N10 1_555 1_555
O1 C3 1_555 1_555
O2 C3 1_555 1_555
O3 Ca1 1_555 1_555
H9 O3 1_555 1_555
H10 O3 1_555 1_555
O4 Ca1 1_555 1_555
H11 O4 1_555 1_555
H12 O4 1_555 1_555
O5 C6 1_555 1_555
O6 C6 1_555 1_555
O7 Ca2 1_555 1_555
H13 O7 1_555 1_555
H14 O7 1_555 1_555
O8 Ca2 1_555 1_555
H15 O8 1_555 1_555
H16 O8 1_555 1_555
C1A N1A 1_555 1_555
C2A H1A 1_555 1_555
H2A C2A 1_555 1_555
C3A C2A 1_555 1_555
C4A N6A 1_555 1_555
C5A H3A 1_555 1_555
H4A C5A 1_555 1_555
C6A C5A 1_555 1_555
N1A C2A 1_555 1_555
N2A N1A 1_555 1_555
N3A N2A 1_555 1_555
N4A C1A 1_555 1_555
N5A C1A 1_555 1_555
H5A N5A 1_555 1_555
H6A N5A 1_555 1_555
N6A C5A 1_555 1_555
N7A N6A 1_555 1_555
N8A N7A 1_555 1_555
N9A C4A 1_555 1_555
N10A C4A 1_555 1_555
H7A N10A 1_555 1_555
H8A N10A 1_555 1_555
O1A Ca1 1_555 1_555
O2A C3A 1_555 1_555
O3A Ca1 1_555 1_555
H9A O3A 1_555 1_555
H10A O3A 1_555 1_555
O4A Ca1 1_555 1_555
H11A O4A 1_555 1_555
H12A O4A 1_555 1_555
O5A Ca2 1_555 1_555
O6A C6A 1_555 1_555
O7A Ca2 1_555 1_555
H13A O7A 1_555 1_555
H14A O7A 1_555 1_555
O8A Ca2 1_555 1_555
H15A O8A 1_555 1_555
H16A O8A 1_555 1_555
N3 N4 1_555 1_555
N8 N9 1_555 1_555
C3A O1A 1_555 1_555
C6A O5A 1_555 1_555
N3A N4A 1_555 1_555
N8A N9A 1_555 1_555

#END
