
#######################################################################
#
#                 Cambridge Crystallographic Data Centre
#                                CCDC 
#
#######################################################################
#
# If this CIF has been generated from an entry in the Cambridge 
# Structural Database, then it will include bibliographic, chemical, 
# crystal, experimental, refinement or atomic coordinate data resulting 
# from the CCDC's data processing and validation procedures.
#
#######################################################################

data_EXUFIM
_chemical_formula_moiety         'C18 H16 N4 O2 S1'
_chemical_name_systematic        
2-(4-methoxybenzoyl)-N-phenyl-2-(1,2,4-triazol-1-yl)thioacetamide
_symmetry_cell_setting           monoclinic
_symmetry_space_group_name_H-M   'P 21/c'
_symmetry_Int_Tables_number      14
_space_group_name_Hall           '-P 2ybc'
loop_
_symmetry_equiv_pos_site_id
_symmetry_equiv_pos_as_xyz
1 x,y,z
2 x,1/2-y,1/2+z
3 -x,-y,-z
4 -x,1/2+y,1/2-z
_cell_length_a                   9.806(2)
_cell_length_b                   11.677(2)
_cell_length_c                   16.002(5)
_cell_angle_alpha                90
_cell_angle_beta                 112.55(2)
_cell_angle_gamma                90
_cell_volume                     1692.22
_exptl_crystal_colour            yellow
_exptl_crystal_description       pillar
_cell_formula_units_Z            4
loop_
_atom_site_label
_atom_site_type_symbol
_atom_site_fract_x
_atom_site_fract_y
_atom_site_fract_z
S1 S 0.85567(14) 0.23060(9) 0.25834(9)
O1 O 0.5280(4) 0.2515(3) 0.0498(2)
O2 O 0.8662(4) 0.6326(3) -0.0805(2)
N1 N 0.8238(4) 0.4515(3) 0.2963(2)
H1 H 0.7601 0.5058 0.2853
N2 N 0.4584(4) 0.3389(3) 0.2740(3)
N3 N 0.3946(4) 0.1531(3) 0.2488(3)
N4 N 0.5138(4) 0.2917(3) 0.2161(2)
C1 C 1.0942(6) 0.4214(5) 0.3759(4)
H2 H 1.0917 0.3544 0.3439
C2 C 1.2294(6) 0.4598(6) 0.4417(5)
H3 H 1.3147 0.4164 0.4549
C3 C 1.2353(7) 0.5587(5) 0.4858(4)
H4 H 1.3250 0.5843 0.5281
C4 C 1.1087(7) 0.6236(5) 0.4688(4)
H5 H 1.1142 0.6915 0.5003
C5 C 0.9748(6) 0.5876(4) 0.4052(4)
H6 H 0.8902 0.6317 0.3925
C6 C 0.9679(5) 0.4812(4) 0.3589(3)
C7 C 0.7697(5) 0.3541(3) 0.2516(3)
C8 C 0.6075(4) 0.3643(3) 0.1851(3)
H7 H 0.5765 0.4439 0.1860
C9 C 0.3868(6) 0.2520(4) 0.2905(4)
H8 H 0.3344 0.2584 0.3279
C10 C 0.4757(5) 0.1814(4) 0.2029(3)
H9 H 0.5022 0.1318 0.1662
C11 C 0.5935(4) 0.3365(3) 0.0889(3)
C12 C 0.6662(4) 0.4152(3) 0.0455(3)
C13 C 0.7097(5) 0.5280(3) 0.0766(3)
H10 H 0.6944 0.5552 0.1269
C14 C 0.7741(5) 0.5974(4) 0.0335(3)
H11 H 0.8021 0.6714 0.0545
C15 C 0.7982(5) 0.5574(4) -0.0423(3)
C16 C 0.7521(5) 0.4478(4) -0.0749(3)
H12 H 0.7650 0.4211 -0.1262
C17 C 0.6870(5) 0.3790(4) -0.0307(3)
H13 H 0.6562 0.3059 -0.0530
C18 C 0.9067(6) 0.5924(5) -0.1494(4)
H14 H 0.9528 0.6530 -0.1695
H15 H 0.8206 0.5664 -0.1990
H16 H 0.9750 0.5300 -0.1272
loop_
_geom_bond_atom_site_label_1
_geom_bond_atom_site_label_2
_geom_bond_site_symmetry_1
_geom_bond_site_symmetry_2
S1 C7 1_555 1_555
O1 C11 1_555 1_555
O2 C15 1_555 1_555
N1 H1 1_555 1_555
N2 N4 1_555 1_555
N3 C9 1_555 1_555
N4 C8 1_555 1_555
C1 H2 1_555 1_555
C2 C1 1_555 1_555
H3 C2 1_555 1_555
C3 C2 1_555 1_555
H4 C3 1_555 1_555
C4 C3 1_555 1_555
H5 C4 1_555 1_555
C5 C4 1_555 1_555
H6 C5 1_555 1_555
C6 N1 1_555 1_555
C7 N1 1_555 1_555
C8 C7 1_555 1_555
H7 C8 1_555 1_555
C9 N2 1_555 1_555
H8 C9 1_555 1_555
C10 N3 1_555 1_555
H9 C10 1_555 1_555
C11 C8 1_555 1_555
C12 C11 1_555 1_555
C13 C12 1_555 1_555
H10 C13 1_555 1_555
C14 C13 1_555 1_555
H11 C14 1_555 1_555
C15 C14 1_555 1_555
C16 C15 1_555 1_555
H12 C16 1_555 1_555
C17 C12 1_555 1_555
H13 C17 1_555 1_555
C18 O2 1_555 1_555
H14 C18 1_555 1_555
H15 C18 1_555 1_555
H16 C18 1_555 1_555
N4 C10 1_555 1_555
C1 C6 1_555 1_555
C5 C6 1_555 1_555
C16 C17 1_555 1_555

#END
