
#######################################################################
#
#                 Cambridge Crystallographic Data Centre
#                                CCDC 
#
#######################################################################
#
# If this CIF has been generated from an entry in the Cambridge 
# Structural Database, then it will include bibliographic, chemical, 
# crystal, experimental, refinement or atomic coordinate data resulting 
# from the CCDC's data processing and validation procedures.
#
#######################################################################

data_EXUFEI
_chemical_formula_moiety         'C17 H14 N4 O1 S1'
_chemical_name_systematic        
2-Benzoyl-N-phenyl-2-(1,2,4-triazol-1-yl)thioacetamide
_symmetry_cell_setting           monoclinic
_symmetry_space_group_name_H-M   'P 21/c'
_symmetry_Int_Tables_number      14
_space_group_name_Hall           '-P 2ybc'
loop_
_symmetry_equiv_pos_site_id
_symmetry_equiv_pos_as_xyz
1 x,y,z
2 x,1/2-y,1/2+z
3 -x,-y,-z
4 -x,1/2+y,1/2-z
_cell_length_a                   8.8060(18)
_cell_length_b                   12.097(2)
_cell_length_c                   14.809(3)
_cell_angle_alpha                90
_cell_angle_beta                 105.88(3)
_cell_angle_gamma                90
_cell_volume                     1517.34
_exptl_crystal_colour            yellow
_exptl_crystal_description       pillar
_cell_formula_units_Z            4
_exptl_crystal_recrystallization_method 'chloroform/ethyl acetate (1:3)'
loop_
_atom_site_label
_atom_site_type_symbol
_atom_site_fract_x
_atom_site_fract_y
_atom_site_fract_z
S1 S 0.60565(6) 0.22561(4) 0.25140(4)
O1 O 0.95863(16) 0.20732(12) 0.46472(10)
N1 N 0.66517(16) 0.01437(12) 0.20930(10)
H1 H 0.7376 -0.0353 0.2199
N2 N 1.04861(19) 0.14709(14) 0.22077(12)
N3 N 1.10034(18) 0.32874(14) 0.25183(12)
N4 N 0.97639(16) 0.18423(12) 0.28582(11)
C1 C 0.3754(2) 0.02803(18) 0.14525(15)
H2 H 0.3694 0.0816 0.1891
C2 C 0.2401(2) -0.00698(19) 0.07853(17)
H3 H 0.1433 0.0244 0.0775
C3 C 0.2468(2) -0.08728(19) 0.01398(15)
H4 H 0.1558 -0.1087 -0.0313
C4 C 0.3897(2) -0.13574(17) 0.01711(14)
H5 H 0.3945 -0.1917 -0.0250
C5 C 0.5255(2) -0.10163(15) 0.08247(13)
H6 H 0.6215 -0.1347 0.0844
C6 C 0.5190(2) -0.01775(15) 0.14557(12)
C7 C 0.70743(19) 0.10999(14) 0.25532(12)
C8 C 0.87825(19) 0.10642(14) 0.31995(12)
H7 H 0.9198 0.0319 0.3165
C9 C 1.1203(2) 0.23689(17) 0.20362(15)
H8 H 1.1810 0.2375 0.1611
C10 C 1.0075(2) 0.29222(16) 0.30207(15)
H9 H 0.9692 0.3353 0.3429
C11 C 0.8834(2) 0.12955(15) 0.42344(13)
C12 C 0.7988(2) 0.05222(16) 0.47172(13)
C13 C 0.7414(2) -0.05099(17) 0.43599(15)
H10 H 0.7513 -0.0732 0.3778
C14 C 0.6701(2) -0.12046(19) 0.48630(16)
H11 H 0.6338 -0.1896 0.4624
C15 C 0.6528(2) -0.0873(2) 0.57203(16)
H12 H 0.6034 -0.1337 0.6055
C16 C 0.7088(3) 0.0151(2) 0.60830(15)
H13 H 0.6971 0.0372 0.6661
C17 C 0.7819(2) 0.08434(18) 0.55880(14)
H14 H 0.8200 0.1528 0.5837
loop_
_geom_bond_atom_site_label_1
_geom_bond_atom_site_label_2
_geom_bond_site_symmetry_1
_geom_bond_site_symmetry_2
S1 C7 1_555 1_555
O1 C11 1_555 1_555
N1 H1 1_555 1_555
N2 N4 1_555 1_555
N3 C9 1_555 1_555
N4 C8 1_555 1_555
C1 H2 1_555 1_555
C2 C1 1_555 1_555
H3 C2 1_555 1_555
C3 C2 1_555 1_555
H4 C3 1_555 1_555
C4 C3 1_555 1_555
H5 C4 1_555 1_555
C5 C4 1_555 1_555
H6 C5 1_555 1_555
C6 N1 1_555 1_555
C7 N1 1_555 1_555
C8 C7 1_555 1_555
H7 C8 1_555 1_555
C9 N2 1_555 1_555
H8 C9 1_555 1_555
C10 N3 1_555 1_555
H9 C10 1_555 1_555
C11 C8 1_555 1_555
C12 C11 1_555 1_555
C13 C12 1_555 1_555
H10 C13 1_555 1_555
C14 C13 1_555 1_555
H11 C14 1_555 1_555
C15 C14 1_555 1_555
H12 C15 1_555 1_555
C16 C15 1_555 1_555
H13 C16 1_555 1_555
C17 C12 1_555 1_555
H14 C17 1_555 1_555
N4 C10 1_555 1_555
C1 C6 1_555 1_555
C5 C6 1_555 1_555
C16 C17 1_555 1_555

#END
