
#######################################################################
#
#                 Cambridge Crystallographic Data Centre
#                                CCDC 
#
#######################################################################
#
# If this CIF has been generated from an entry in the Cambridge 
# Structural Database, then it will include bibliographic, chemical, 
# crystal, experimental, refinement or atomic coordinate data resulting 
# from the CCDC's data processing and validation procedures.
#
#######################################################################

data_EXUJUE
_chemical_formula_moiety         'C13 H11 Br1 Cl1 N1 O2 S1'
_chemical_name_systematic        
N-(4-bromo-2-chlorophenyl)-4-methylbenzenesulfonamide
_symmetry_cell_setting           monoclinic
_symmetry_space_group_name_H-M   'P 21/c'
_symmetry_Int_Tables_number      14
_space_group_name_Hall           '-P 2ybc'
loop_
_symmetry_equiv_pos_site_id
_symmetry_equiv_pos_as_xyz
1 x,y,z
2 -x,1/2+y,1/2-z
3 -x,-y,-z
4 x,1/2-y,1/2+z
_cell_length_a                   11.4390(8)
_cell_length_b                   12.0050(8)
_cell_length_c                   11.6034(6)
_cell_angle_alpha                90
_cell_angle_beta                 113.262(8)
_cell_angle_gamma                90
_cell_volume                     1463.91
_exptl_crystal_colour            colorless
_exptl_crystal_description       parallelepiped
_cell_formula_units_Z            4
loop_
_atom_site_label
_atom_site_type_symbol
_atom_site_fract_x
_atom_site_fract_y
_atom_site_fract_z
Br1 Br 0.24013(6) 0.01313(6) 0.41774(5)
Cl1 Cl 0.04825(12) 0.19207(9) 0.74175(11)
S1 S 0.18389(9) -0.06785(9) 0.99603(9)
O1 O 0.2621(3) -0.1551(2) 0.9827(3)
O2 O 0.1120(3) -0.0858(3) 1.0710(3)
N1 N 0.0800(3) -0.0382(3) 0.8552(3)
H1 H 0.035(4) 0.004(3) 0.857(4)
C1 C 0.1049(4) 0.0755(3) 0.6912(4)
C2 C 0.1386(4) 0.0874(4) 0.5898(4)
H2 H 0.1277 0.1550 0.5476
C3 C 0.1886(4) -0.0029(4) 0.5532(4)
C4 C 0.2016(4) -0.1046(4) 0.6115(4)
H3 H 0.2347 -0.1651 0.5844
C5 C 0.1648(4) -0.1154(3) 0.7105(4)
H4 H 0.1719 -0.1843 0.7493
C6 C 0.1172(3) -0.0252(3) 0.7532(3)
C7 C 0.2801(3) 0.0503(3) 1.0529(3)
C8 C 0.2675(4) 0.1159(4) 1.1446(4)
H5 H 0.2055 0.0993 1.1750
C9 C 0.3462(5) 0.2055(4) 1.1911(4)
H6 H 0.3382 0.2481 1.2545
C10 C 0.4371(4) 0.2338(4) 1.1459(4)
C11 C 0.4468(4) 0.1698(4) 1.0520(4)
H7 H 0.5060 0.1893 1.0189
C12 C 0.3708(4) 0.0770(4) 1.0052(4)
H8 H 0.3803 0.0333 0.9433
C13 C 0.5206(5) 0.3358(5) 1.1949(5)
H9 H 0.5011 0.3701 1.2600
H10 H 0.5049 0.3879 1.1276
H11 H 0.6084 0.3140 1.2280
loop_
_geom_bond_atom_site_label_1
_geom_bond_atom_site_label_2
_geom_bond_site_symmetry_1
_geom_bond_site_symmetry_2
Br1 C3 1_555 1_555
Cl1 C1 1_555 1_555
S1 O1 1_555 1_555
O2 S1 1_555 1_555
N1 S1 1_555 1_555
H1 N1 1_555 1_555
C1 C2 1_555 1_555
C2 H2 1_555 1_555
C3 C2 1_555 1_555
C4 C3 1_555 1_555
H3 C4 1_555 1_555
C5 C4 1_555 1_555
H4 C5 1_555 1_555
C6 N1 1_555 1_555
C7 S1 1_555 1_555
C8 C7 1_555 1_555
H5 C8 1_555 1_555
C9 C8 1_555 1_555
H6 C9 1_555 1_555
C10 C9 1_555 1_555
C11 C10 1_555 1_555
H7 C11 1_555 1_555
C12 C7 1_555 1_555
H8 C12 1_555 1_555
C13 C10 1_555 1_555
H9 C13 1_555 1_555
H10 C13 1_555 1_555
H11 C13 1_555 1_555
C1 C6 1_555 1_555
C5 C6 1_555 1_555
C11 C12 1_555 1_555

#END
