
#######################################################################
#
#                 Cambridge Crystallographic Data Centre
#                                CCDC 
#
#######################################################################
#
# If this CIF has been generated from an entry in the Cambridge 
# Structural Database, then it will include bibliographic, chemical, 
# crystal, experimental, refinement or atomic coordinate data resulting 
# from the CCDC's data processing and validation procedures.
#
#######################################################################

data_EXULUG
_chemical_formula_moiety         'C8 H18 N2 O1'
_chemical_name_systematic        (rac)-1-heptan-2-ylurea
_symmetry_cell_setting           monoclinic
_symmetry_space_group_name_H-M   'P 21/c'
_symmetry_Int_Tables_number      14
_space_group_name_Hall           '-P 2ybc'
loop_
_symmetry_equiv_pos_site_id
_symmetry_equiv_pos_as_xyz
1 x,y,z
2 -x,1/2+y,1/2-z
3 -x,-y,-z
4 x,1/2-y,1/2+z
_cell_length_a                   19.45(5)
_cell_length_b                   5.777(4)
_cell_length_c                   9.13(2)
_cell_angle_alpha                90
_cell_angle_beta                 91.95(13)
_cell_angle_gamma                90
_cell_volume                     1025.28
_exptl_crystal_colour            colorless
_exptl_crystal_description       plate
_cell_formula_units_Z            4
loop_
_atom_site_label
_atom_site_type_symbol
_atom_site_fract_x
_atom_site_fract_y
_atom_site_fract_z
C1 C 0.0806(5) 0.6907(18) 0.4146(13)
N1 N 0.1333(5) 0.7972(19) 0.3552(14)
H1 H 0.1347 0.7968 0.2612
C2 C 0.1893(7) 0.916(3) 0.4364(17)
H2 H 0.1973 0.8320 0.5288
C3 C 0.2544(7) 0.902(3) 0.3530(19)
H3 H 0.2462 0.9755 0.2584
H4 H 0.2895 0.9918 0.4055
C4 C 0.2822(8) 0.666(3) 0.328(2)
H5 H 0.2483 0.5789 0.2703
H6 H 0.2883 0.5894 0.4218
C5 C 0.3493(9) 0.659(3) 0.251(2)
H7 H 0.3435 0.7362 0.1570
H8 H 0.3835 0.7453 0.3088
C6 C 0.3755(9) 0.422(3) 0.227(2)
H9 H 0.3382 0.3282 0.1857
H10 H 0.3889 0.3554 0.3212
C7 C 0.4384(12) 0.403(5) 0.123(3)
H11 H 0.4498 0.2434 0.1090
H12 H 0.4772 0.4828 0.1670
H13 H 0.4264 0.4727 0.0302
O1 O 0.0788(4) 0.6736(13) 0.5552(10)
N2 N 0.0305(5) 0.6133(18) 0.3335(13)
H14 H -0.0043 0.5500 0.3729
H15 H 0.0318 0.6249 0.2397
C8 C 0.1658(9) 1.166(3) 0.475(2)
H16 H 0.1481 1.2415 0.3885
H17 H 0.2042 1.2513 0.5157
H18 H 0.1304 1.1579 0.5462
loop_
_geom_bond_atom_site_label_1
_geom_bond_atom_site_label_2
_geom_bond_site_symmetry_1
_geom_bond_site_symmetry_2
C1 N1 1_555 1_555
N1 H1 1_555 1_555
C2 N1 1_555 1_555
H2 C2 1_555 1_555
C3 C2 1_555 1_555
H3 C3 1_555 1_555
H4 C3 1_555 1_555
C4 C3 1_555 1_555
H5 C4 1_555 1_555
H6 C4 1_555 1_555
C5 C4 1_555 1_555
H7 C5 1_555 1_555
H8 C5 1_555 1_555
C6 C5 1_555 1_555
H9 C6 1_555 1_555
H10 C6 1_555 1_555
C7 C6 1_555 1_555
H11 C7 1_555 1_555
H12 C7 1_555 1_555
H13 C7 1_555 1_555
O1 C1 1_555 1_555
N2 C1 1_555 1_555
H14 N2 1_555 1_555
H15 N2 1_555 1_555
C8 C2 1_555 1_555
H16 C8 1_555 1_555
H17 C8 1_555 1_555
H18 C8 1_555 1_555

#END
