
#######################################################################
#
#                 Cambridge Crystallographic Data Centre
#                                CCDC 
#
#######################################################################
#
# If this CIF has been generated from an entry in the Cambridge 
# Structural Database, then it will include bibliographic, chemical, 
# crystal, experimental, refinement or atomic coordinate data resulting 
# from the CCDC's data processing and validation procedures.
#
#######################################################################

data_EXUQAP
_chemical_formula_moiety         'C8 H7 N3'
_chemical_name_systematic        
'syn-1,3-Di-iminoisoindoline anti-1,3-di-iminoisoindoine'
_symmetry_cell_setting           monoclinic
_symmetry_space_group_name_H-M   'P 21/c'
_symmetry_Int_Tables_number      14
_space_group_name_Hall           '-P 2ybc'
loop_
_symmetry_equiv_pos_site_id
_symmetry_equiv_pos_as_xyz
1 x,y,z
2 -x,1/2+y,1/2-z
3 -x,-y,-z
4 x,1/2-y,1/2+z
_cell_length_a                   10.8323(16)
_cell_length_b                   7.0661(7)
_cell_length_c                   19.696(3)
_cell_angle_alpha                90
_cell_angle_beta                 102.916(11)
_cell_angle_gamma                90
_cell_volume                     1469.43
_exptl_crystal_colour            colorless
_exptl_crystal_description       prism
_cell_formula_units_Z            8
_exptl_crystal_recrystallization_method dichloromethane
loop_
_atom_site_label
_atom_site_type_symbol
_atom_site_fract_x
_atom_site_fract_y
_atom_site_fract_z
N1 N 0.09425(12) 0.12167(18) 0.94255(7)
N2 N -0.09691(10) 0.21370(16) 0.96920(6)
N3 N -0.27894(12) 0.39976(19) 0.97425(7)
C1 C -0.00128(12) 0.24032(18) 0.93830(6)
C2 C -0.01235(11) 0.42043(17) 0.89920(6)
C3 C 0.06096(12) 0.5041(2) 0.85863(8)
C4 C 0.02074(14) 0.6777(2) 0.82901(9)
C5 C -0.08741(14) 0.7642(2) 0.84089(9)
C6 C -0.16066(12) 0.6796(2) 0.88182(8)
C7 C -0.12165(11) 0.50538(18) 0.91046(6)
C8 C -0.17552(11) 0.37176(18) 0.95452(6)
H1 H -0.2958(17) 0.296(3) 1.0035(10)
H2 H 0.1528(15) 0.142(2) 0.9167(8)
H3 H 0.0957(18) 0.004(3) 0.9693(11)
H4 H 0.1357 0.4452 0.8513
H5 H 0.0681 0.7386 0.8001
H6 H -0.1119 0.8839 0.8204
H7 H -0.2347 0.7394 0.8899
N4 N 0.44530(12) 0.2579(2) 1.02561(6)
N5 N 0.59693(11) 0.04107(17) 1.08090(6)
N6 N 0.74873(12) -0.11779(19) 1.16354(7)
C9 C 0.53222(11) 0.20191(19) 1.07985(6)
C10 C 0.56827(11) 0.30566(18) 1.14662(6)
C11 C 0.53285(12) 0.4777(2) 1.16958(8)
C12 C 0.58475(14) 0.5268(2) 1.23817(8)
C13 C 0.66696(14) 0.4072(2) 1.28231(8)
C14 C 0.70530(12) 0.2373(2) 1.25826(7)
C15 C 0.65510(11) 0.18916(19) 1.18988(7)
C16 C 0.67377(11) 0.0231(2) 1.14716(7)
H8 H 0.7894(17) -0.105(3) 1.2097(10)
H9 H 0.4025(17) 0.367(3) 1.0286(9)
H10 H 0.4275(18) 0.178(3) 0.9860(11)
H11 H 0.4754 0.5590 1.1396
H12 H 0.5633 0.6451 1.2553
H13 H 0.6976 0.4420 1.3296
H14 H 0.7640 0.1570 1.2879
loop_
_geom_bond_atom_site_label_1
_geom_bond_atom_site_label_2
_geom_bond_site_symmetry_1
_geom_bond_site_symmetry_2
N1 C1 1_555 1_555
N2 C1 1_555 1_555
N3 C8 1_555 1_555
C1 C2 1_555 1_555
C2 C3 1_555 1_555
C3 C4 1_555 1_555
C4 C5 1_555 1_555
C5 C6 1_555 1_555
C6 C7 1_555 1_555
C7 C2 1_555 1_555
C8 N2 1_555 1_555
H1 N3 1_555 1_555
H2 N1 1_555 1_555
H3 N1 1_555 1_555
H4 C3 1_555 1_555
H5 C4 1_555 1_555
H6 C5 1_555 1_555
H7 C6 1_555 1_555
N4 C9 1_555 1_555
N5 C9 1_555 1_555
N6 C16 1_555 1_555
C9 C10 1_555 1_555
C10 C11 1_555 1_555
C11 C12 1_555 1_555
C12 C13 1_555 1_555
C13 C14 1_555 1_555
C14 C15 1_555 1_555
C15 C10 1_555 1_555
C16 N5 1_555 1_555
H8 N6 1_555 1_555
H9 N4 1_555 1_555
H10 N4 1_555 1_555
H11 C11 1_555 1_555
H12 C12 1_555 1_555
H13 C13 1_555 1_555
H14 C14 1_555 1_555
C7 C8 1_555 1_555
C15 C16 1_555 1_555

#END
