
#######################################################################
#
#                 Cambridge Crystallographic Data Centre
#                                CCDC 
#
#######################################################################
#
# If this CIF has been generated from an entry in the Cambridge 
# Structural Database, then it will include bibliographic, chemical, 
# crystal, experimental, refinement or atomic coordinate data resulting 
# from the CCDC's data processing and validation procedures.
#
#######################################################################

data_EXUQET
_chemical_formula_moiety         'C8 H7 N3'
_chemical_name_systematic        syn-1,3-Di-iminoisoindoline
_symmetry_cell_setting           monoclinic
_symmetry_space_group_name_H-M   'P 21/c'
_symmetry_Int_Tables_number      14
_space_group_name_Hall           '-P 2ybc'
loop_
_symmetry_equiv_pos_site_id
_symmetry_equiv_pos_as_xyz
1 x,y,z
2 -x,1/2+y,1/2-z
3 -x,-y,-z
4 x,1/2-y,1/2+z
_cell_length_a                   8.3777(4)
_cell_length_b                   6.4807(2)
_cell_length_c                   12.9513(5)
_cell_angle_alpha                90
_cell_angle_beta                 97.793(4)
_cell_angle_gamma                90
_cell_volume                     696.675
_exptl_crystal_colour            colorless
_exptl_crystal_description       prism
_cell_formula_units_Z            4
_exptl_crystal_recrystallization_method benzene/methanol
loop_
_atom_site_label
_atom_site_type_symbol
_atom_site_fract_x
_atom_site_fract_y
_atom_site_fract_z
C1 C 0.36724(14) 0.27466(18) 0.56743(9)
C2 C 0.26962(13) 0.10111(18) 0.59998(8)
C3 C 0.20575(14) 0.0576(2) 0.69103(9)
C4 C 0.11145(16) -0.1181(2) 0.69149(10)
C5 C 0.08626(17) -0.2482(2) 0.60570(11)
C6 C 0.15258(17) -0.2047(2) 0.51552(10)
C7 C 0.24240(13) -0.02715(18) 0.51375(9)
C8 C 0.32194(13) 0.07338(18) 0.43031(9)
N1 N 0.42384(14) 0.42558(18) 0.62920(8)
N2 N 0.39146(12) 0.25787(15) 0.46810(7)
N3 N 0.32870(14) 0.01039(18) 0.33754(8)
H1 H 0.403(2) 0.432(3) 0.6971(14)
H2 H 0.4800(19) 0.527(3) 0.6021(13)
H3 H 0.276(2) -0.113(3) 0.3294(14)
H4 H 0.2258 0.1447 0.7505
H5 H 0.0631 -0.1502 0.7518
H6 H 0.0227 -0.3689 0.6087
H7 H 0.1364 -0.2944 0.4570
loop_
_geom_bond_atom_site_label_1
_geom_bond_atom_site_label_2
_geom_bond_site_symmetry_1
_geom_bond_site_symmetry_2
C1 C2 1_555 1_555
C2 C3 1_555 1_555
C3 C4 1_555 1_555
C4 C5 1_555 1_555
C5 C6 1_555 1_555
C6 C7 1_555 1_555
C7 C2 1_555 1_555
C8 C7 1_555 1_555
N1 C1 1_555 1_555
N2 C1 1_555 1_555
N3 C8 1_555 1_555
H1 N1 1_555 1_555
H2 N1 1_555 1_555
H3 N3 1_555 1_555
H4 C3 1_555 1_555
H5 C4 1_555 1_555
H6 C5 1_555 1_555
H7 C6 1_555 1_555
C8 N2 1_555 1_555

#END
