
#######################################################################
#
#                 Cambridge Crystallographic Data Centre
#                                CCDC 
#
#######################################################################
#
# If this CIF has been generated from an entry in the Cambridge 
# Structural Database, then it will include bibliographic, chemical, 
# crystal, experimental, refinement or atomic coordinate data resulting 
# from the CCDC's data processing and validation procedures.
#
#######################################################################

data_EXURIY
_chemical_compound_source        'whole plant of Huperzia serrata'
_chemical_name_common            21-Episerratonediol
_chemical_formula_moiety         'C30 H50 O3'
_chemical_name_systematic        14\b,15\b-Epoxy-3\b-hydroxyserratan-21\b-ol
_symmetry_cell_setting           orthorhombic
_symmetry_space_group_name_H-M   'P 21 21 2'
_symmetry_Int_Tables_number      18
_space_group_name_Hall           'P 2 2ab'
loop_
_symmetry_equiv_pos_site_id
_symmetry_equiv_pos_as_xyz
1 x,y,z
2 -x,-y,z
3 1/2-x,1/2+y,-z
4 1/2+x,1/2-y,-z
_cell_length_a                   11.142(2)
_cell_length_b                   31.433(7)
_cell_length_c                   7.1516(16)
_cell_angle_alpha                90
_cell_angle_beta                 90
_cell_angle_gamma                90
_cell_volume                     2504.68
_exptl_crystal_colour            colorless
_exptl_crystal_description       prisms
_chemical_melting_point          '272-274 deg.C'
_cell_formula_units_Z            4
_exptl_crystal_recrystallization_method chloroform/methanol
loop_
_atom_site_label
_atom_site_type_symbol
_atom_site_fract_x
_atom_site_fract_y
_atom_site_fract_z
O1 O 0.6037(1) 0.6632(1) 0.5688(3)
O2 O 0.9353(2) 0.9438(1) 0.9304(4)
O3 O 0.6798(2) 0.5293(1) 1.0487(3)
C1 C 0.8958(2) 0.8261(1) 0.9963(5)
C2 C 0.9080(3) 0.8725(1) 1.0456(5)
C3 C 0.9215(2) 0.8999(1) 0.8776(4)
C4 C 0.8194(2) 0.8956(1) 0.7399(4)
C5 C 0.8037(2) 0.8477(1) 0.6979(4)
C6 C 0.7085(3) 0.8387(1) 0.5524(4)
C7 C 0.7220(3) 0.7942(1) 0.4781(4)
C8 C 0.7146(2) 0.7597(1) 0.6256(4)
C9 C 0.7984(2) 0.7712(1) 0.7889(4)
C10 C 0.7896(2) 0.8174(1) 0.8660(3)
C11 C 0.7999(3) 0.7372(1) 0.9394(4)
C12 C 0.8545(3) 0.6950(1) 0.8861(5)
C13 C 0.7724(2) 0.6621(1) 0.7953(4)
C14 C 0.7262(2) 0.6759(1) 0.6053(4)
C15 C 0.6988(3) 0.6436(1) 0.4663(5)
C16 C 0.7195(3) 0.5981(1) 0.4959(5)
C17 C 0.7354(2) 0.5867(1) 0.7009(4)
C18 C 0.8269(2) 0.6168(1) 0.7934(4)
C19 C 0.8450(3) 0.6018(1) 0.9934(5)
C20 C 0.8781(3) 0.5552(1) 1.0091(6)
C21 C 0.7834(2) 0.5270(1) 0.9287(4)
C22 C 0.7523(2) 0.5381(1) 0.7266(4)
C23 C 0.8570(4) 0.9178(1) 0.5580(5)
C24 C 0.7081(3) 0.9180(1) 0.8131(6)
C25 C 0.6751(3) 0.8239(1) 0.9770(5)
C26 C 0.5822(2) 0.7542(1) 0.6831(5)
C27 C 0.7555(2) 0.7190(1) 0.5283(4)
C28 C 0.9465(3) 0.6187(1) 0.6901(6)
C29 C 0.8508(3) 0.5190(1) 0.6034(6)
C30 C 0.6365(3) 0.5165(1) 0.6745(6)
H1 H 0.8850(20) 0.8082(8) 1.1070(40)
H2 H 0.9702(18) 0.8153(7) 0.9280(30)
H3 H 0.8360(20) 0.8840(8) 1.1130(30)
H4 H 0.9770(20) 0.8755(7) 1.1220(30)
H5 H 0.9960(20) 0.8909(7) 0.8110(30)
H6 H 0.8807(17) 0.8390(7) 0.6400(30)
H7 H 0.7200(20) 0.8593(8) 0.4510(40)
H8 H 0.6310(20) 0.8444(8) 0.5970(40)
H9 H 0.6600(20) 0.7902(7) 0.3900(30)
H10 H 0.8070(20) 0.7934(9) 0.4210(40)
H11 H 0.8757(18) 0.7706(7) 0.7430(30)
H12 H 0.8442(17) 0.7492(7) 1.0540(30)
H13 H 0.7200(20) 0.7307(8) 0.9840(40)
H14 H 0.9290(20) 0.6995(8) 0.8100(40)
H15 H 0.8830(20) 0.6815(8) 0.9940(40)
H16 H 0.7021(17) 0.6608(7) 0.8670(30)
H17 H 0.7010(20) 0.6514(9) 0.3400(40)
H18 H 0.7930(20) 0.5866(9) 0.4310(40)
H19 H 0.6530(20) 0.5830(8) 0.4390(40)
H20 H 0.6632(19) 0.5934(7) 0.7750(30)
H21 H 0.9118(19) 0.6178(8) 1.0570(40)
H22 H 0.7690(19) 0.6039(7) 1.0620(40)
H23 H 0.9560(20) 0.5490(8) 0.9510(40)
H24 H 0.8920(20) 0.5459(9) 1.1370(40)
H25 H 0.8085(14) 0.4959(7) 0.9270(30)
H26 H 0.9200(20) 0.8994(9) 0.4950(40)
H27 H 0.7820(30) 0.9212(13) 0.4630(60)
H28 H 0.8790(20) 0.9446(9) 0.5850(40)
H29 H 0.6450(30) 0.9105(9) 0.7380(40)
H30 H 0.7189(17) 0.9500(8) 0.8030(30)
H31 H 0.6740(20) 0.9087(9) 0.9450(40)
H32 H 0.6020(20) 0.8324(8) 0.8980(40)
H33 H 0.6810(20) 0.8480(9) 1.0610(40)
H34 H 0.6490(20) 0.7984(10) 1.0340(40)
H35 H 0.5484(17) 0.7834(7) 0.7040(30)
H36 H 0.5780(20) 0.7291(9) 0.7700(40)
H37 H 0.5400(20) 0.7408(10) 0.5640(40)
H38 H 0.8439(19) 0.7207(7) 0.5120(30)
H39 H 0.7150(20) 0.7212(8) 0.3990(40)
H40 H 1.0000(20) 0.6375(8) 0.7600(40)
H41 H 0.9744(18) 0.5905(8) 0.6730(30)
H42 H 0.9390(20) 0.6342(8) 0.5590(40)
H43 H 0.9310(20) 0.5304(9) 0.6440(40)
H44 H 0.8320(30) 0.5275(10) 0.4640(50)
H45 H 0.8529(17) 0.4876(8) 0.6130(30)
H46 H 0.6210(20) 0.5159(10) 0.5400(40)
H47 H 0.6410(19) 0.4864(8) 0.6980(30)
H48 H 0.5680(20) 0.5322(9) 0.7550(40)
H49 H 1.0074(19) 0.9531(10) 0.9470(50)
H50 H 0.6520(20) 0.5021(10) 1.0520(40)
loop_
_geom_bond_atom_site_label_1
_geom_bond_atom_site_label_2
_geom_bond_site_symmetry_1
_geom_bond_site_symmetry_2
O1 C14 1_555 1_555
O2 C3 1_555 1_555
O3 C21 1_555 1_555
C1 C2 1_555 1_555
C2 C3 1_555 1_555
C3 C4 1_555 1_555
C4 C5 1_555 1_555
C5 C6 1_555 1_555
C6 C7 1_555 1_555
C7 C8 1_555 1_555
C8 C9 1_555 1_555
C9 C10 1_555 1_555
C10 C1 1_555 1_555
C11 C9 1_555 1_555
C12 C11 1_555 1_555
C13 C12 1_555 1_555
C14 C13 1_555 1_555
C15 O1 1_555 1_555
C16 C15 1_555 1_555
C17 C16 1_555 1_555
C18 C13 1_555 1_555
C19 C18 1_555 1_555
C20 C19 1_555 1_555
C21 C20 1_555 1_555
C22 C17 1_555 1_555
C23 C4 1_555 1_555
C24 C4 1_555 1_555
C25 C10 1_555 1_555
C26 C8 1_555 1_555
C27 C8 1_555 1_555
C28 C18 1_555 1_555
C29 C22 1_555 1_555
C30 C22 1_555 1_555
H1 C1 1_555 1_555
H2 C1 1_555 1_555
H3 C2 1_555 1_555
H4 C2 1_555 1_555
H5 C3 1_555 1_555
H6 C5 1_555 1_555
H7 C6 1_555 1_555
H8 C6 1_555 1_555
H9 C7 1_555 1_555
H10 C7 1_555 1_555
H11 C9 1_555 1_555
H12 C11 1_555 1_555
H13 C11 1_555 1_555
H14 C12 1_555 1_555
H15 C12 1_555 1_555
H16 C13 1_555 1_555
H17 C15 1_555 1_555
H18 C16 1_555 1_555
H19 C16 1_555 1_555
H20 C17 1_555 1_555
H21 C19 1_555 1_555
H22 C19 1_555 1_555
H23 C20 1_555 1_555
H24 C20 1_555 1_555
H25 C21 1_555 1_555
H26 C23 1_555 1_555
H27 C23 1_555 1_555
H28 C23 1_555 1_555
H29 C24 1_555 1_555
H30 C24 1_555 1_555
H31 C24 1_555 1_555
H32 C25 1_555 1_555
H33 C25 1_555 1_555
H34 C25 1_555 1_555
H35 C26 1_555 1_555
H36 C26 1_555 1_555
H37 C26 1_555 1_555
H38 C27 1_555 1_555
H39 C27 1_555 1_555
H40 C28 1_555 1_555
H41 C28 1_555 1_555
H42 C28 1_555 1_555
H43 C29 1_555 1_555
H44 C29 1_555 1_555
H45 C29 1_555 1_555
H46 C30 1_555 1_555
H47 C30 1_555 1_555
H48 C30 1_555 1_555
H49 O2 1_555 1_555
H50 O3 1_555 1_555
C5 C10 1_555 1_555
C14 C15 1_555 1_555
C14 C27 1_555 1_555
C17 C18 1_555 1_555
C21 C22 1_555 1_555

#END
