
#######################################################################
#
#                 Cambridge Crystallographic Data Centre
#                                CCDC 
#
#######################################################################
#
# If this CIF has been generated from an entry in the Cambridge 
# Structural Database, then it will include bibliographic, chemical, 
# crystal, experimental, refinement or atomic coordinate data resulting 
# from the CCDC's data processing and validation procedures.
#
#######################################################################

data_EXUSUM
_chemical_formula_moiety         'C32 H33 N1 O2 S1'
_chemical_name_systematic        
1-((4-Methylphenyl)sulfonyl)-2,4-diphenyl-3-(1-phenylpropyl)pyrrolidine
_symmetry_cell_setting           orthorhombic
_symmetry_space_group_name_H-M   'P 21 21 21'
_symmetry_Int_Tables_number      19
_space_group_name_Hall           'P 2ac 2ab'
loop_
_symmetry_equiv_pos_site_id
_symmetry_equiv_pos_as_xyz
1 x,y,z
2 1/2-x,-y,1/2+z
3 1/2+x,1/2-y,-z
4 -x,1/2+y,1/2-z
_cell_length_a                   7.4163(3)
_cell_length_b                   14.0432(6)
_cell_length_c                   25.9274(10)
_cell_angle_alpha                90
_cell_angle_beta                 90
_cell_angle_gamma                90
_cell_volume                     2700.3
_exptl_crystal_colour            colorless
_exptl_crystal_description       block
_cell_formula_units_Z            4
loop_
_atom_site_label
_atom_site_type_symbol
_atom_site_fract_x
_atom_site_fract_y
_atom_site_fract_z
S1 S 0.50859(10) 0.38907(5) 0.18488(2)
O1 O 0.4209(3) 0.29806(12) 0.18479(7)
N1 N 0.5269(3) 0.42071(13) 0.12511(7)
O2 O 0.6841(3) 0.40012(14) 0.20745(7)
C1 C 0.4528(3) 0.44264(18) 0.03627(9)
H1 H 0.3813 0.5005 0.0310
C2 C 0.4241(3) 0.37741(18) -0.00971(9)
C3 C 0.1316(4) 0.6132(2) 0.24946(10)
C4 C 0.6500(3) 0.47223(17) 0.04764(9)
H2 H 0.7256 0.4156 0.0430
C5 C 0.3620(4) 0.47127(18) 0.21469(10)
C6 C 0.7294(4) 0.55195(18) 0.01359(10)
H3 H 0.6619 0.6104 0.0208
C7 C 0.3894(4) 0.3949(2) 0.08681(9)
H4 H 0.2718 0.4186 0.0970
H5 H 0.3825 0.3263 0.0828
C8 C 0.5886(4) 0.59644(19) 0.12072(9)
C9 C 0.3146(4) 0.4043(2) -0.05038(10)
H6 H 0.2573 0.4631 -0.0494
C10 C 0.5056(4) 0.28836(17) -0.01204(10)
H7 H 0.5792 0.2683 0.0149
C11 C 0.1777(4) 0.46112(19) 0.20875(10)
H8 H 0.1306 0.4068 0.1933
C12 C 0.7099(4) 0.53057(18) -0.04370(10)
C13 C 0.6482(4) 0.49591(18) 0.10625(9)
H9 H 0.7690 0.4848 0.1203
C14 C 0.9284(4) 0.5704(2) 0.02755(11)
H10 H 0.9372 0.5812 0.0644
H11 H 0.9981 0.5138 0.0195
C15 C 0.5870(5) 0.5674(3) -0.12740(14)
H12 H 0.5140 0.6055 -0.1480
C16 C 0.4309(4) 0.5504(2) 0.23940(10)
H13 H 0.5546 0.5561 0.2445
C17 C 0.0636(4) 0.5324(2) 0.22601(11)
H14 H -0.0603 0.5258 0.2218
C18 C 0.3713(4) 0.2584(2) -0.09418(12)
H15 H 0.3549 0.2187 -0.1225
C19 C 0.4787(4) 0.2297(2) -0.05371(12)
H16 H 0.5335 0.1702 -0.0546
C20 C 0.4113(4) 0.6265(2) 0.11576(11)
H17 H 0.3258 0.5851 0.1022
C21 C 0.2888(4) 0.3452(2) -0.09251(11)
H18 H 0.2155 0.3647 -0.1196
C22 C 0.8002(4) 0.4552(2) -0.06620(11)
H19 H 0.8737 0.4169 -0.0459
C23 C 0.7100(5) 0.6588(2) 0.14182(11)
H20 H 0.8293 0.6400 0.1463
C24 C 0.3164(5) 0.6209(2) 0.25662(10)
H21 H 0.3635 0.6741 0.2732
C25 C 0.6031(4) 0.5865(2) -0.07484(12)
H22 H 0.5409 0.6376 -0.0606
C26 C 1.0103(5) 0.6543(2) -0.00028(13)
H23 H 1.0106 0.6421 -0.0367
H24 H 1.1318 0.6636 0.0114
H25 H 0.9406 0.7104 0.0067
C27 C 0.0079(6) 0.6938(2) 0.26597(12)
H26 H -0.1113 0.6824 0.2529
H27 H 0.0526 0.7529 0.2525
H28 H 0.0042 0.6969 0.3029
C28 C 0.7837(5) 0.4356(2) -0.11813(14)
H29 H 0.8438 0.3837 -0.1324
C29 C 0.6788(6) 0.4925(3) -0.14863(13)
H30 H 0.6699 0.4804 -0.1838
C30 C 0.4815(7) 0.7784(2) 0.15097(14)
H31 H 0.4458 0.8392 0.1609
C31 C 0.3598(5) 0.7170(2) 0.13069(12)
H32 H 0.2403 0.7358 0.1268
C32 C 0.6564(6) 0.7509(3) 0.15682(14)
H33 H 0.7404 0.7929 0.1707
loop_
_geom_bond_atom_site_label_1
_geom_bond_atom_site_label_2
_geom_bond_site_symmetry_1
_geom_bond_site_symmetry_2
S1 O1 1_555 1_555
N1 S1 1_555 1_555
O2 S1 1_555 1_555
C1 H1 1_555 1_555
C2 C1 1_555 1_555
C3 C17 1_555 1_555
C4 C1 1_555 1_555
H2 C4 1_555 1_555
C5 S1 1_555 1_555
C6 C4 1_555 1_555
H3 C6 1_555 1_555
C7 N1 1_555 1_555
H4 C7 1_555 1_555
H5 C7 1_555 1_555
C8 C13 1_555 1_555
C9 C2 1_555 1_555
H6 C9 1_555 1_555
C10 C2 1_555 1_555
H7 C10 1_555 1_555
C11 C5 1_555 1_555
H8 C11 1_555 1_555
C12 C6 1_555 1_555
C13 N1 1_555 1_555
H9 C13 1_555 1_555
C14 C6 1_555 1_555
H10 C14 1_555 1_555
H11 C14 1_555 1_555
C15 H12 1_555 1_555
C16 C5 1_555 1_555
H13 C16 1_555 1_555
C17 C11 1_555 1_555
H14 C17 1_555 1_555
C18 H15 1_555 1_555
C19 C10 1_555 1_555
H16 C19 1_555 1_555
C20 C8 1_555 1_555
H17 C20 1_555 1_555
C21 C9 1_555 1_555
H18 C21 1_555 1_555
C22 C12 1_555 1_555
H19 C22 1_555 1_555
C23 C8 1_555 1_555
H20 C23 1_555 1_555
C24 C3 1_555 1_555
H21 C24 1_555 1_555
C25 C12 1_555 1_555
H22 C25 1_555 1_555
C26 C14 1_555 1_555
H23 C26 1_555 1_555
H24 C26 1_555 1_555
H25 C26 1_555 1_555
C27 C3 1_555 1_555
H26 C27 1_555 1_555
H27 C27 1_555 1_555
H28 C27 1_555 1_555
C28 C22 1_555 1_555
H29 C28 1_555 1_555
C29 C15 1_555 1_555
H30 C29 1_555 1_555
C30 H31 1_555 1_555
C31 C20 1_555 1_555
H32 C31 1_555 1_555
C32 C23 1_555 1_555
H33 C32 1_555 1_555
C1 C7 1_555 1_555
C4 C13 1_555 1_555
C15 C25 1_555 1_555
C16 C24 1_555 1_555
C18 C19 1_555 1_555
C18 C21 1_555 1_555
C28 C29 1_555 1_555
C30 C31 1_555 1_555
C30 C32 1_555 1_555

#END
