
#######################################################################
#
#                 Cambridge Crystallographic Data Centre
#                                CCDC 
#
#######################################################################
#
# If this CIF has been generated from an entry in the Cambridge 
# Structural Database, then it will include bibliographic, chemical, 
# crystal, experimental, refinement or atomic coordinate data resulting 
# from the CCDC's data processing and validation procedures.
#
#######################################################################

data_EYABOX
_chemical_formula_moiety         'C12 H32 N3 3+,3(I3 1-),1.5(I2)'
_chemical_name_systematic        
'N^1^,N^1^,N^1^,N^2^,N^2^-pentamethyl-N^2^-[2-(trimethylazaniumyl)ethyl]ethane-1,2-diaminium triiodide diiodine solvate'
_symmetry_cell_setting           triclinic
_symmetry_space_group_name_H-M   'P -1'
_symmetry_Int_Tables_number      2
_space_group_name_Hall           '-P 1'
loop_
_symmetry_equiv_pos_site_id
_symmetry_equiv_pos_as_xyz
1 x,y,z
2 -x,-y,-z
_cell_length_a                   9.8116(7)
_cell_length_b                   9.9865(8)
_cell_length_c                   20.0349(16)
_cell_angle_alpha                89.158(7)
_cell_angle_beta                 82.452(6)
_cell_angle_gamma                69.953(7)
_cell_volume                     1827.2
_exptl_crystal_colour            black
_exptl_crystal_description       block
_cell_formula_units_Z            2
loop_
_atom_site_label
_atom_site_type_symbol
_atom_site_fract_x
_atom_site_fract_y
_atom_site_fract_z
I1 I 0.12227(7) 1.11081(7) 0.40159(3)
I2 I 0.16880(6) 0.81025(7) 0.35646(3)
I3 I 0.23403(7) 0.52297(7) 0.30882(3)
I4 I 0.34040(7) 0.11572(6) 0.24953(3)
I5 I 0.53426(6) 0.12008(6) 0.13583(3)
I6 I 0.82560(6) 0.79286(6) 0.25253(3)
I7 I 1.01695(7) 0.81169(7) 0.13957(3)
I8 I 0.60232(6) 0.74483(7) 0.37531(3)
I9 I 0.11635(8) 0.43036(8) 0.08942(3)
I10 I 0.17699(7) 0.15190(8) 0.04353(3)
I11 I 0.24610(7) -0.16757(7) -0.00840(3)
I12 I 0.11481(7) 0.43079(7) 0.53544(3)
I12A I -0.11481(7) 0.56921(7) 0.46456(3)
N1 N 0.5497(7) 0.6103(6) 0.1453(3)
N2 N 0.7952(7) 0.3102(7) 0.2469(3)
N3 N 0.6373(8) 0.2015(7) 0.4154(3)
C1 C 0.4492(11) 0.7528(9) 0.1725(5)
H1 H 0.3676 0.7420 0.2013
H2 H 0.4144 0.8125 0.1360
H3 H 0.5008 0.7958 0.1979
C2 C 0.6571(11) 0.6348(12) 0.0912(5)
H4 H 0.7181 0.6767 0.1106
H5 H 0.6058 0.6981 0.0591
H6 H 0.7168 0.5455 0.0690
C3 C 0.4609(10) 0.5319(9) 0.1183(4)
H7 H 0.3937 0.5166 0.1544
H8 H 0.5251 0.4417 0.0985
H9 H 0.4071 0.5876 0.0846
C4 C 0.6184(9) 0.5343(8) 0.2044(4)
H10 H 0.6660 0.5917 0.2242
H11 H 0.5419 0.5255 0.2382
C5 C 0.7288(10) 0.3884(9) 0.1862(4)
H12 H 0.8069 0.3973 0.1534
H13 H 0.6820 0.3317 0.1654
C6 C 0.8850(10) 0.3831(9) 0.2751(4)
H14 H 0.9396 0.3236 0.3074
H15 H 0.8220 0.4720 0.2967
H16 H 0.9515 0.4010 0.2394
C7 C 0.8957(9) 0.1676(8) 0.2183(4)
H17 H 0.9399 0.1103 0.2538
H18 H 0.9706 0.1800 0.1855
H19 H 0.8409 0.1209 0.1972
C8 C 0.6760(9) 0.2904(10) 0.2973(4)
H20 H 0.6106 0.2609 0.2735
H21 H 0.6196 0.3812 0.3202
C9 C 0.7338(10) 0.1815(10) 0.3490(4)
H22 H 0.7493 0.0876 0.3303
H23 H 0.8283 0.1838 0.3571
C10 C 0.7141(10) 0.0782(10) 0.4562(5)
H24 H 0.8110 0.0778 0.4594
H25 H 0.7200 -0.0094 0.4348
H26 H 0.6604 0.0874 0.5006
C11 C 0.4918(10) 0.1947(12) 0.4081(5)
H27 H 0.4351 0.2041 0.4517
H28 H 0.5035 0.1047 0.3872
H29 H 0.4423 0.2707 0.3806
C12 C 0.6244(16) 0.3370(12) 0.4496(5)
H30 H 0.7180 0.3495 0.4437
H31 H 0.5925 0.3337 0.4968
H32 H 0.5545 0.4153 0.4305
loop_
_geom_bond_atom_site_label_1
_geom_bond_atom_site_label_2
_geom_bond_site_symmetry_1
_geom_bond_site_symmetry_2
I1 I2 1_555 1_555
I2 I3 1_555 1_555
I4 I5 1_555 1_555
I6 I7 1_555 1_555
I8 I6 1_555 1_555
I9 I10 1_555 1_555
I10 I11 1_555 1_555
I12 I12A 1_555 1_555
N1 C1 1_555 1_555
N2 C5 1_555 1_555
N3 C9 1_555 1_555
C1 H1 1_555 1_555
H2 C1 1_555 1_555
H3 C1 1_555 1_555
C2 N1 1_555 1_555
H4 C2 1_555 1_555
H5 C2 1_555 1_555
H6 C2 1_555 1_555
C3 N1 1_555 1_555
H7 C3 1_555 1_555
H8 C3 1_555 1_555
H9 C3 1_555 1_555
C4 N1 1_555 1_555
H10 C4 1_555 1_555
H11 C4 1_555 1_555
C5 C4 1_555 1_555
H12 C5 1_555 1_555
H13 C5 1_555 1_555
C6 N2 1_555 1_555
H14 C6 1_555 1_555
H15 C6 1_555 1_555
H16 C6 1_555 1_555
C7 N2 1_555 1_555
H17 C7 1_555 1_555
H18 C7 1_555 1_555
H19 C7 1_555 1_555
C8 N2 1_555 1_555
H20 C8 1_555 1_555
H21 C8 1_555 1_555
C9 C8 1_555 1_555
H22 C9 1_555 1_555
H23 C9 1_555 1_555
C10 N3 1_555 1_555
H24 C10 1_555 1_555
H25 C10 1_555 1_555
H26 C10 1_555 1_555
C11 N3 1_555 1_555
H27 C11 1_555 1_555
H28 C11 1_555 1_555
H29 C11 1_555 1_555
C12 N3 1_555 1_555
H30 C12 1_555 1_555
H31 C12 1_555 1_555
H32 C12 1_555 1_555

#END
