
#######################################################################
#
#                 Cambridge Crystallographic Data Centre
#                                CCDC 
#
#######################################################################
#
# If this CIF has been generated from an entry in the Cambridge 
# Structural Database, then it will include bibliographic, chemical, 
# crystal, experimental, refinement or atomic coordinate data resulting 
# from the CCDC's data processing and validation procedures.
#
#######################################################################

data_EYABIR
_chemical_formula_moiety         'C12 H32 N3 3+,C2 H3 N1,3(I1 1-)'
_chemical_name_systematic        
'N^1^,N^1^,N^1^,N^2^,N^2^-pentamethyl-N^2^-[2-(trimethylazaniumyl)ethyl]ethane-1,2-diaminium triiodide acetonitrile solvate'
_symmetry_cell_setting           monoclinic
_symmetry_space_group_name_H-M   'P 21/m'
_symmetry_Int_Tables_number      11
_space_group_name_Hall           '-P 2yb'
loop_
_symmetry_equiv_pos_site_id
_symmetry_equiv_pos_as_xyz
1 x,y,z
2 -x,1/2+y,-z
3 -x,-y,-z
4 x,1/2-y,z
_cell_length_a                   9.0251(7)
_cell_length_b                   7.7004(5)
_cell_length_c                   17.2640(13)
_cell_angle_alpha                90
_cell_angle_beta                 99.681(7)
_cell_angle_gamma                90
_cell_volume                     1182.71
_exptl_crystal_colour            colorless
_exptl_crystal_description       strip
_cell_formula_units_Z            2
loop_
_atom_site_label
_atom_site_type_symbol
_atom_site_fract_x
_atom_site_fract_y
_atom_site_fract_z
I2 I 0.55245(16) 0.7500 0.18006(7)
I3 I 0.89744(9) 0.2500 0.14329(6)
N1 N 0.4268(11) 0.2500 0.2930(6)
N2 N 0.8426(10) 0.2500 0.3961(6)
C1 C 0.4533(13) 0.2500 0.2074(7)
H1 H 0.4753 0.1338 0.1928
C2 C 0.8227(17) 0.2500 0.4806(8)
C3 C 0.3437(16) 0.4084(15) 0.3104(7)
H2 H 0.3513 0.3932 0.3630
H3 H 0.3993 0.5042 0.2909
H4 H 0.2790 0.4000 0.2856
C4 C 0.9280(14) 0.4066(16) 0.3779(8)
H5 H 1.0294 0.3973 0.4053
H6 H 0.9283 0.4148 0.3224
H7 H 0.8820 0.5086 0.3953
C5 C 0.6979(15) 0.324(2) 0.3439(9)
C6 C 0.5646(17) 0.329(2) 0.3448(11)
N3 N 0.3285(12) 0.2500 0.0666(6)
C7 C 0.4891(16) 0.2500 0.0514(9)
C8 C 0.2498(15) 0.4002(18) 0.0277(9)
H8 H 0.2394 0.3868 -0.0282
H9 H 0.1521 0.4091 0.0423
H10 H 0.3063 0.5036 0.0435
H11 H 0.3242 0.4410 0.1515
C9 C 0.3230(18) 0.316(2) 0.1513(7)
H1C H 0.4753 0.3662 0.1928
C3C C 0.3437(16) 0.0916(15) 0.3104(7)
H2C H 0.3513 0.1068 0.3630
H3C H 0.3993 -0.0042 0.2909
H4C H 0.2790 0.1000 0.2856
C4C C 0.9280(14) 0.0934(16) 0.3779(8)
H5C H 1.0294 0.1027 0.4053
H6C H 0.9283 0.0852 0.3224
H7C H 0.8820 -0.0086 0.3953
C5C C 0.6979(15) 0.176(2) 0.3439(9)
C6C C 0.5646(17) 0.171(2) 0.3448(11)
C8C C 0.2498(15) 0.0998(18) 0.0277(9)
H8C H 0.2394 0.1132 -0.0282
H9C H 0.1521 0.0909 0.0423
H10C H 0.3063 -0.0036 0.0435
H11C H 0.3242 0.0590 0.1515
C9C C 0.3230(18) 0.184(2) 0.1513(7)
N4 N 1.108(2) 0.7500 0.3242(12)
C10 C 1.071(2) 0.7500 0.2634(14)
C11 C 1.032(4) 0.7500 0.1754(16)
I1 I 0.65929(11) 0.7500 0.46879(5)
H12? H 0.9118 0.2050 0.5125
H13? H 0.8054 0.3665 0.4967
H14? H 0.7383 0.1785 0.4867
H15? H 0.5561 0.2923 0.3971
H16? H 0.5433 0.4510 0.3434
H17? H 0.7026 0.2713 0.2939
H18? H 0.7233 0.4436 0.3378
H19? H 0.2315 0.2786 0.1675
H20? H 0.5395 0.3207 0.2039
H21? H 0.4919 0.2083 -0.0007
H22? H 0.5284 0.3660 0.0568
H23? H 0.5489 0.1757 0.0890
loop_
_geom_bond_atom_site_label_1
_geom_bond_atom_site_label_2
_geom_bond_site_symmetry_1
_geom_bond_site_symmetry_2
N1 C1 1_555 1_555
N2 C2 1_555 1_555
C1 H1 1_555 1_555
C3 N1 1_555 1_555
H2 C3 1_555 1_555
H3 C3 1_555 1_555
H4 C3 1_555 1_555
C4 N2 1_555 1_555
H5 C4 1_555 1_555
H6 C4 1_555 1_555
H7 C4 1_555 1_555
C5 N2 1_555 1_555
C6 N1 1_555 1_555
N3 C7 1_555 1_555
C8 N3 1_555 1_555
H8 C8 1_555 1_555
H9 C8 1_555 1_555
H10 C8 1_555 1_555
H11 C9 1_555 1_555
C9 C1 1_555 1_555
N4 C10 1_555 1_555
C10 C11 1_555 1_555
H1C C1 1_555 1_555
C3C N1 1_555 1_555
H2C C3C 1_555 1_555
H3C C3C 1_555 1_555
H4C C3C 1_555 1_555
C4C N2 1_555 1_555
H5C C4C 1_555 1_555
H6C C4C 1_555 1_555
H7C C4C 1_555 1_555
C5C N2 1_555 1_555
C6C N1 1_555 1_555
C8C N3 1_555 1_555
H8C C8C 1_555 1_555
H9C C8C 1_555 1_555
H10C C8C 1_555 1_555
H11C C9C 1_555 1_555
C9C C1 1_555 1_555
C5 C6 1_555 1_555
C5 C5C 1_555 1_555
C6 C6C 1_555 1_555
N3 C9 1_555 1_555
N3 C9C 1_555 1_555
C9 C9C 1_555 1_555
C5C C6C 1_555 1_555

#END
