
#######################################################################
#
#                 Cambridge Crystallographic Data Centre
#                                CCDC 
#
#######################################################################
#
# If this CIF has been generated from an entry in the Cambridge 
# Structural Database, then it will include bibliographic, chemical, 
# crystal, experimental, refinement or atomic coordinate data resulting 
# from the CCDC's data processing and validation procedures.
#
#######################################################################

data_EYAKUL01
_chemical_formula_moiety         'C27 H34 Br1 N1 O1'
_chemical_name_systematic        N-(5-bromosalicylaldehyde)dehydroabietylamine
_symmetry_cell_setting           monoclinic
_symmetry_space_group_name_H-M   'P 21'
_symmetry_Int_Tables_number      4
_space_group_name_Hall           'P 2yb'
loop_
_symmetry_equiv_pos_site_id
_symmetry_equiv_pos_as_xyz
1 x,y,z
2 -x,1/2+y,-z
_cell_length_a                   11.2772(2)
_cell_length_b                   6.19200(10)
_cell_length_c                   17.3411(4)
_cell_angle_alpha                90
_cell_angle_beta                 102.7570(10)
_cell_angle_gamma                90
_cell_volume                     1181.01
_cell_formula_units_Z            2
loop_
_atom_site_label
_atom_site_type_symbol
_atom_site_fract_x
_atom_site_fract_y
_atom_site_fract_z
Br1 Br 1.38674(3) 0.66520(11) 0.52151(3)
C1 C 0.7149(2) 0.6577(9) 0.20742(17)
H1 H 0.7398 0.8031 0.2245
H2 H 0.7876 0.5698 0.2142
C2 C 1.1342(3) 0.6111(6) 0.45695(18)
H3 H 1.1277 0.7518 0.4743
C3 C 0.5117(2) 0.6904(7) 0.24178(17)
C4 C 0.4453(3) 0.7061(6) 0.15292(17)
C5 C 1.0302(3) 0.5027(6) 0.41785(19)
C6 C 1.2459(3) 0.5143(7) 0.4703(2)
C7 C 0.6346(3) 0.5686(5) 0.26058(19)
C8 C 0.6538(3) 0.6629(10) 0.12076(18)
H4 H 0.6360 0.5164 0.1019
H5 H 0.7089 0.7259 0.0912
C9 C 1.1555(3) 0.1952(8) 0.40793(19)
H6 H 1.1639 0.0545 0.3911
C10 C 0.6997(3) 0.6191(6) 0.34659(18)
H7 H 0.7114 0.7739 0.3528
H8 H 0.6493 0.5723 0.3821
C11 C 1.0411(3) 0.2869(6) 0.3938(2)
C12 C 0.3358(3) 0.8584(5) 0.14558(19)
C13 C 0.1247(3) 1.1177(6) 0.1235(2)
C14 C 0.9131(3) 0.6120(7) 0.4003(2)
C15 C 0.1800(3) 1.0740(6) 0.0620(2)
H9 H 0.1475 1.1309 0.0122
C16 C 0.3285(3) 0.8028(8) 0.2893(2)
H10 H 0.2608 0.7463 0.3092
H11 H 0.3656 0.9176 0.3245
C17 C 0.4209(3) 0.6247(7) 0.2911(2)
H12 H 0.3798 0.4927 0.2701
H13 H 0.4635 0.5979 0.3452
C18 C 1.2568(3) 0.3054(7) 0.4459(2)
H14 H 1.3327 0.2393 0.4552
C19 C 0.1760(3) 1.0276(6) 0.1957(2)
H15 H 0.1402 1.0545 0.2382
C20 C 0.2804(3) 0.8963(6) 0.2080(2)
C21 C 0.2822(3) 0.9479(6) 0.0731(2)
H16 H 0.3171 0.9214 0.0301
C22 C 0.5362(3) 0.7935(6) 0.1056(2)
H17 H 0.4987 0.7893 0.0496
H18 H 0.5551 0.9429 0.1201
C23 C 0.6201(3) 0.3238(6) 0.2523(2)
H19 H 0.6951 0.2549 0.2770
H20 H 0.5993 0.2859 0.1973
H21 H 0.5567 0.2768 0.2774
C24 C -0.0966(3) 1.1349(11) 0.1242(3)
H22 H -0.1065 1.0056 0.0928
H23 H -0.1680 1.2230 0.1090
H24 H -0.0847 1.0974 0.1790
C25 C 0.3937(3) 0.4904(6) 0.1153(2)
H25 H 0.3539 0.4154 0.1509
H26 H 0.4589 0.4031 0.1050
H27 H 0.3363 0.5185 0.0666
C26 C 0.0326(4) 1.4632(8) 0.1565(3)
H28 H -0.0408 1.5469 0.1461
H29 H 0.0960 1.5435 0.1405
H30 H 0.0563 1.4318 0.2120
C27 C 0.0115(4) 1.2571(7) 0.1110(3)
H31 H 0.885(3) 0.250(7) 0.357(3)
H32 H 0.906(3) 0.758(6) 0.415(2)
H33 H 0.536(3) 0.843(6) 0.2553(17)
H34 H -0.013(5) 1.294(9) 0.053(3)
N1 N 0.8172(3) 0.5113(5) 0.36773(16)
O1 O 0.9443(3) 0.1724(6) 0.35766(15)
loop_
_geom_bond_atom_site_label_1
_geom_bond_atom_site_label_2
_geom_bond_site_symmetry_1
_geom_bond_site_symmetry_2
Br1 C6 1_555 1_555
C1 H1 1_555 1_555
H2 C1 1_555 1_555
C2 H3 1_555 1_555
C3 C4 1_555 1_555
C4 C12 1_555 1_555
C5 C2 1_555 1_555
C6 C2 1_555 1_555
C7 C1 1_555 1_555
C8 C1 1_555 1_555
H4 C8 1_555 1_555
H5 C8 1_555 1_555
C9 H6 1_555 1_555
C10 C7 1_555 1_555
H7 C10 1_555 1_555
H8 C10 1_555 1_555
C11 C5 1_555 1_555
C12 C20 1_555 1_555
C13 C15 1_555 1_555
C14 C5 1_555 1_555
C15 H9 1_555 1_555
C16 H10 1_555 1_555
H11 C16 1_555 1_555
C17 C3 1_555 1_555
H12 C17 1_555 1_555
H13 C17 1_555 1_555
C18 C6 1_555 1_555
H14 C18 1_555 1_555
C19 C13 1_555 1_555
H15 C19 1_555 1_555
C20 C16 1_555 1_555
C21 C12 1_555 1_555
H16 C21 1_555 1_555
C22 C4 1_555 1_555
H17 C22 1_555 1_555
H18 C22 1_555 1_555
C23 C7 1_555 1_555
H19 C23 1_555 1_555
H20 C23 1_555 1_555
H21 C23 1_555 1_555
C24 H22 1_555 1_555
H23 C24 1_555 1_555
H24 C24 1_555 1_555
C25 C4 1_555 1_555
H25 C25 1_555 1_555
H26 C25 1_555 1_555
H27 C25 1_555 1_555
C26 H28 1_555 1_555
H29 C26 1_555 1_555
H30 C26 1_555 1_555
C27 C13 1_555 1_555
H31 O1 1_555 1_555
H32 C14 1_555 1_555
H33 C3 1_555 1_555
H34 C27 1_555 1_555
N1 C10 1_555 1_555
O1 C11 1_555 1_555
C3 C7 1_555 1_555
C8 C22 1_555 1_555
C9 C11 1_555 1_555
C9 C18 1_555 1_555
C14 N1 1_555 1_555
C15 C21 1_555 1_555
C16 C17 1_555 1_555
C19 C20 1_555 1_555
C24 C27 1_555 1_555
C26 C27 1_555 1_555

#END
