
#######################################################################
#
#                 Cambridge Crystallographic Data Centre
#                                CCDC 
#
#######################################################################
#
# If this CIF has been generated from an entry in the Cambridge 
# Structural Database, then it will include bibliographic, chemical, 
# crystal, experimental, refinement or atomic coordinate data resulting 
# from the CCDC's data processing and validation procedures.
#
#######################################################################

data_EYAPUQ
_chemical_formula_moiety         'C88 H144 Li4 N4 O12 S4'
_chemical_name_systematic        
bis-(\m~4~-(R,R)-trans-1,2-bis(2,4,6-Tri-isopropylbenzenesulfonamidato)cyclohexane)-tetrakis(tetrahydrofuran)-tetra-lithium
_symmetry_cell_setting           orthorhombic
_symmetry_space_group_name_H-M   'P 21 21 21'
_symmetry_Int_Tables_number      19
_space_group_name_Hall           'P 2ac 2ab'
loop_
_symmetry_equiv_pos_site_id
_symmetry_equiv_pos_as_xyz
1 x,y,z
2 1/2-x,-y,1/2+z
3 -x,1/2+y,1/2-z
4 1/2+x,1/2-y,-z
_cell_length_a                   14.2086(9)
_cell_length_b                   14.7081(8)
_cell_length_c                   51.359(3)
_cell_angle_alpha                90
_cell_angle_beta                 90
_cell_angle_gamma                90
_cell_volume                     10733.1
_exptl_crystal_colour            colorless
_exptl_crystal_description       parallelepiped
_chemical_melting_point          '322 K'
_cell_formula_units_Z            4
loop_
_atom_site_label
_atom_site_type_symbol
_atom_site_fract_x
_atom_site_fract_y
_atom_site_fract_z
Li1 Li 0.8749(6) 0.7150(7) 0.92809(19)
Li2 Li 0.7048(7) 0.5840(6) 0.89527(18)
Li3 Li 0.8705(7) 0.7143(7) 0.84792(18)
Li4 Li 0.9758(8) 0.5322(9) 0.8807(2)
S1 S 0.72650(10) 0.77852(10) 0.88636(3)
S2 S 0.80052(11) 0.51871(10) 0.84509(3)
S3 S 1.03661(10) 0.71023(11) 0.88910(3)
S4 S 0.87918(11) 0.52118(10) 0.93217(3)
O1 O 0.7544(3) 0.7490(2) 0.91235(7)
O2 O 0.8059(2) 0.8064(2) 0.86983(7)
O3 O 0.7477(3) 0.4934(2) 0.86840(7)
O4 O 0.9029(3) 0.5122(3) 0.84871(7)
O5 O 0.9798(3) 0.7674(3) 0.90652(7)
O6 O 0.9873(2) 0.6810(3) 0.86553(7)
O7 O 0.9176(3) 0.4711(3) 0.91021(7)
O8 O 0.7902(3) 0.5682(3) 0.92623(7)
O9 O 0.8723(4) 0.8101(4) 0.95725(10)
O10 O 0.5935(3) 0.5230(3) 0.90969(10)
O11 O 0.9151(4) 0.7917(4) 0.81900(10)
N1 N 0.6673(3) 0.7020(3) 0.87420(8)
N2 N 0.7773(3) 0.6141(3) 0.83459(8)
N3 N 1.0747(3) 0.6221(3) 0.90189(10)
N4 N 0.9463(4) 0.5933(3) 0.94396(9)
C1 C 0.6437(4) 0.7145(4) 0.84605(11)
H1 H 0.6789 0.7668 0.8393
C2 C 0.5392(4) 0.7320(5) 0.84250(13)
H2 H 0.5038 0.6814 0.8496
H3 H 0.5215 0.7864 0.8519
C3 C 0.5153(5) 0.7434(6) 0.81415(16)
H4 H 0.5478 0.7962 0.8073
H5 H 0.4481 0.7536 0.8123
C4 C 0.5433(5) 0.6599(6) 0.79859(14)
H6 H 0.5296 0.6693 0.7803
H7 H 0.5078 0.6075 0.8045
C5 C 0.6500(5) 0.6427(5) 0.80235(12)
H8 H 0.6684 0.5887 0.7928
H9 H 0.6853 0.6938 0.7955
C6 C 0.6734(4) 0.6302(4) 0.83138(11)
H10 H 0.6387 0.5776 0.8382
C7 C 0.6576(4) 0.8803(4) 0.89223(11)
C8 C 0.5870(4) 0.8727(4) 0.91162(12)
C9 C 0.5452(5) 0.9551(5) 0.92022(13)
H11 H 0.5003 0.9525 0.9334
C10 C 0.5681(6) 1.0383(5) 0.91000(16)
C11 C 0.6296(6) 1.0403(4) 0.88976(15)
H12 H 0.6426 1.0963 0.8822
C12 C 0.6737(4) 0.9652(4) 0.87988(11)
C13 C 0.7733(5) 0.4348(4) 0.82090(12)
C14 C 0.8290(5) 0.4313(5) 0.79855(13)
C15 C 0.8150(7) 0.3613(6) 0.78072(16)
H13 H 0.8524 0.3600 0.7659
C16 C 0.7478(8) 0.2931(7) 0.78400(18)
C17 C 0.6907(7) 0.3019(5) 0.80462(18)
H14 H 0.6432 0.2590 0.8068
C18 C 0.6978(6) 0.3721(5) 0.82327(13)
C19 C 0.5511(5) 0.7853(4) 0.92364(13)
H15 H 0.5813 0.7336 0.9149
C20 C 0.4445(5) 0.7787(6) 0.91975(17)
H16 H 0.4304 0.7794 0.9015
H17 H 0.4144 0.8294 0.9281
H18 H 0.4218 0.7231 0.9273
C21 C 0.5730(6) 0.7808(6) 0.95301(15)
H19 H 0.6398 0.7839 0.9556
H20 H 0.5494 0.7248 0.9600
H21 H 0.5434 0.8311 0.9617
C22 C 0.5272(9) 1.1296(6) 0.9219(2)
H22 H 0.5596 1.1801 0.9133
C23 C 0.4268(10) 1.1352(9) 0.9144(4)
H23 H 0.4001 1.1901 0.9213
H24 H 0.3937 1.0837 0.9214
H25 H 0.4216 1.1353 0.8958
C24 C 0.5476(13) 1.1373(8) 0.9501(3)
H26 H 0.5208 1.1926 0.9567
H27 H 0.6145 1.1380 0.9528
H28 H 0.5207 1.0864 0.9591
C25 C 0.7344(5) 0.9809(5) 0.85593(14)
H29 H 0.7663 0.9234 0.8520
C26 C 0.8079(7) 1.0508(7) 0.8589(2)
H30 H 0.8482 1.0351 0.8732
H31 H 0.7789 1.1087 0.8622
H32 H 0.8443 1.0544 0.8432
C27 C 0.6708(8) 1.0041(6) 0.83216(17)
H33 H 0.7094 1.0131 0.8170
H34 H 0.6360 1.0587 0.8357
H35 H 0.6278 0.9549 0.8291
C28 C 0.9018(6) 0.5005(6) 0.79091(16)
H36 H 0.8998 0.5481 0.8042
C29 C 1.0021(6) 0.4627(7) 0.79110(18)
H37 H 1.0151 0.4360 0.8078
H38 H 1.0459 0.5112 0.7879
H39 H 1.0083 0.4173 0.7778
C30 C 0.8800(8) 0.5471(8) 0.76489(17)
H40 H 0.8171 0.5709 0.7653
H41 H 0.8856 0.5038 0.7510
H42 H 0.9237 0.5959 0.7621
C31 C 0.7393(10) 0.2141(9) 0.7640(3)
C32 C 0.8185(10) 0.1576(8) 0.7639(2)
H43 H 0.8108 0.1111 0.7510
H44 H 0.8257 0.1299 0.7808
H45 H 0.8735 0.1930 0.7600
C33 C 0.6868(11) 0.2371(10) 0.7408(3)
H46 H 0.6852 0.1855 0.7293
H47 H 0.7167 0.2872 0.7321
H48 H 0.6237 0.2537 0.7455
C34 C 0.6218(5) 0.3721(5) 0.84362(14)
H49 H 0.6324 0.4246 0.8550
C35 C 0.5228(6) 0.3857(7) 0.82987(19)
H50 H 0.4741 0.3872 0.8428
H51 H 0.5115 0.3362 0.8181
H52 H 0.5229 0.4419 0.8204
C36 C 0.6227(10) 0.2877(6) 0.8605(2)
H53 H 0.6834 0.2813 0.8685
H54 H 0.6099 0.2353 0.8500
H55 H 0.5753 0.2931 0.8738
C37 C 1.1049(4) 0.6312(4) 0.92897(12)
H56 H 1.0933 0.6938 0.9346
C38 C 1.2081(5) 0.6113(6) 0.93185(15)
H57 H 1.2437 0.6539 0.9213
H58 H 1.2208 0.5505 0.9254
C39 C 1.2403(6) 0.6181(8) 0.95972(19)
H59 H 1.3070 0.6045 0.9608
H60 H 1.2306 0.6795 0.9660
C40 C 1.1872(7) 0.5535(8) 0.97606(19)
H61 H 1.2076 0.5596 0.9940
H62 H 1.2010 0.4920 0.9705
C41 C 1.0779(5) 0.5700(5) 0.97453(12)
H63 H 1.0624 0.6284 0.9822
H64 H 1.0450 0.5230 0.9842
C42 C 1.0474(5) 0.5682(4) 0.94574(12)
H65 H 1.0549 0.5061 0.9392
C43 C 1.1294(4) 0.7829(5) 0.87681(11)
C44 C 1.1876(4) 0.7443(5) 0.85674(13)
C45 C 1.2501(5) 0.8023(6) 0.84446(15)
H66 H 1.2902 0.7773 0.8321
C46 C 1.2573(6) 0.8942(6) 0.84923(17)
C47 C 1.2097(6) 0.9251(5) 0.87001(17)
H67 H 1.2207 0.9847 0.8753
C48 C 1.1433(4) 0.8726(5) 0.88451(12)
C49 C 0.8442(4) 0.4371(4) 0.95631(12)
C50 C 0.8078(5) 0.4697(5) 0.97991(12)
C51 C 0.7737(7) 0.4073(7) 0.99752(14)
C52 C 0.7766(8) 0.3116(8) 0.9927(3)
C53 C 0.8151(7) 0.2815(6) 0.9696(2)
H70 H 0.8187 0.2194 0.9663
C54 C 0.8482(6) 0.3422(5) 0.95136(15)
C55 C 1.1864(5) 0.6459(5) 0.84814(15)
H71 H 1.1416 0.6132 0.8592
C56 C 1.2857(6) 0.6025(6) 0.8523(2)
H72 H 1.3039 0.6089 0.8702
H73 H 1.3307 0.6328 0.8414
H74 H 1.2834 0.5392 0.8478
C57 C 1.1550(7) 0.6365(7) 0.82111(19)
H75 H 1.0926 0.6609 0.8194
H76 H 1.1547 0.5734 0.8164
H77 H 1.1971 0.6692 0.8099
C58 C 1.3205(9) 0.9530(7) 0.8324(2)
H78 H 1.3552 0.9109 0.8212
C59 C 1.3882(10) 0.9988(12) 0.8469(3)
H79 H 1.4266 1.0347 0.8354
H80 H 1.4270 0.9556 0.8559
H81 H 1.3579 1.0377 0.8593
C60 C 1.2724(10) 1.0091(12) 0.8161(4)
H82 H 1.3162 1.0447 0.8062
H83 H 1.2328 1.0488 0.8262
H84 H 1.2343 0.9735 0.8046
C61 C 1.0964(6) 0.9176(5) 0.90782(15)
H85 H 1.0627 0.8700 0.9174
C62 C 1.1658(10) 0.9611(13) 0.9266(3)
H86 H 1.1321 0.9886 0.9407
H87 H 1.2016 1.0067 0.9176
H88 H 1.2076 0.9154 0.9333
C63 C 1.0247(12) 0.9832(11) 0.8980(2)
H89 H 0.9821 0.9525 0.8865
H90 H 1.0556 1.0315 0.8888
H91 H 0.9902 1.0080 0.9124
C64 C 0.7971(5) 0.5687(5) 0.98760(13)
H92 H 0.8268 0.6057 0.9740
C65 C 0.8468(6) 0.5889(6) 1.01310(14)
H93 H 0.9118 0.5714 1.0118
H94 H 0.8174 0.5551 1.0269
H95 H 0.8428 0.6527 1.0168
C66 C 0.6934(6) 0.5981(7) 0.98966(17)
H96 H 0.6621 0.5863 0.9734
H97 H 0.6902 0.6619 0.9935
H98 H 0.6632 0.5644 1.0033
C67 C 0.7311(17) 0.2497(10) 1.0126(3)
H99 H 0.7265 0.1991 1.0002
C68 C 0.8056(15) 0.2058(13) 1.0274(3)
H100 H 0.7787 0.1735 1.0418
H101 H 0.8486 0.2510 1.0337
H102 H 0.8388 0.1639 1.0164
C69 C 0.6383(19) 0.2520(18) 1.0164(5)
H103 H 0.6226 0.2155 1.0313
H104 H 0.6068 0.2285 1.0013
H105 H 0.6188 0.3136 1.0194
C70 C 0.8880(7) 0.2961(5) 0.92794(17)
H106 H 0.9275 0.3407 0.9189
C71 C 0.9484(14) 0.2128(12) 0.9329(4)
H107 H 0.9707 0.1892 0.9166
H108 H 0.9116 0.1672 0.9415
H109 H 1.0011 0.2291 0.9436
C72 C 0.8154(10) 0.2696(13) 0.9103(3)
H110 H 0.8430 0.2415 0.8953
H111 H 0.7804 0.3223 0.9050
H112 H 0.7740 0.2273 0.9187
C73 C 0.9311(10) 0.8180(9) 0.97793(19)
H113 H 0.9066 0.7815 0.9921
H114 H 0.9920 0.7935 0.9732
C74 C 0.9426(9) 0.9038(11) 0.9864(3)
H115 H 1.0086 0.9209 0.9858
H116 H 0.9202 0.9101 1.0041
C75 C 0.8849(10) 0.9636(7) 0.9679(2)
H117 H 0.8393 0.9996 0.9775
H118 H 0.9254 1.0042 0.9581
C76 C 0.8382(8) 0.8995(6) 0.95077(19)
H119 H 0.7706 0.9025 0.9532
H120 H 0.8524 0.9135 0.9327
C77 C 0.4998(5) 0.5290(6) 0.89961(18)
H121 H 0.4980 0.5098 0.8816
H122 H 0.4766 0.5909 0.9007
C78 C 0.4431(8) 0.4680(10) 0.9159(4)
H123 H 0.3930 0.5018 0.9243
H124 H 0.4150 0.4207 0.9053
C79 C 0.5073(9) 0.4266(10) 0.9360(3)
H125 H 0.4953 0.4525 0.9531
H126 H 0.4982 0.3613 0.9369
C80 C 0.6012(7) 0.4478(8) 0.9275(2)
H127 H 0.6292 0.3957 0.9189
H128 H 0.6404 0.4643 0.9422
C81 C 0.9785(8) 0.8646(7) 0.82298(19)
H129 H 0.9505 0.9088 0.8347
H130 H 1.0359 0.8421 0.8309
C82 C 0.9998(11) 0.9067(12) 0.7987(3)
H131 H 1.0667 0.9030 0.7950
H132 H 0.9814 0.9702 0.7989
C83 C 0.9490(16) 0.8594(14) 0.7802(3)
H133 H 0.9914 0.8253 0.7690
H134 H 0.9134 0.9013 0.7694
C84 C 0.8827(9) 0.7949(10) 0.7941(2)
H135 H 0.8186 0.8176 0.7936
H136 H 0.8843 0.7350 0.7862
O12 O 1.0755(10) 0.4084(8) 0.8718(2)
C85 C 1.043(3) 0.3221(18) 0.8600(5)
H137 H 0.9911 0.2976 0.8700
H138 H 1.0216 0.3330 0.8424
C86 C 1.121(4) 0.2563(17) 0.8597(8)
H139 H 1.1479 0.2484 0.8424
H140 H 1.1034 0.1977 0.8668
C87 C 1.1597(16) 0.3872(17) 0.8846(5)
H141 H 1.2043 0.4349 0.8804
H142 H 1.1476 0.3911 0.9031
C88 C 1.197(3) 0.318(3) 0.8808(10)
H143 H 1.2063 0.2855 0.8970
H144 H 1.2579 0.3278 0.8727
H68? H 0.7083 0.4229 1.0007
H69? H 0.8069 0.4176 1.0137
loop_
_geom_bond_atom_site_label_1
_geom_bond_atom_site_label_2
_geom_bond_site_symmetry_1
_geom_bond_site_symmetry_2
Li1 O1 1_555 1_555
Li2 O3 1_555 1_555
Li3 O2 1_555 1_555
Li4 O4 1_555 1_555
S1 O1 1_555 1_555
S2 O3 1_555 1_555
S3 O5 1_555 1_555
S4 O7 1_555 1_555
O2 S1 1_555 1_555
O4 S2 1_555 1_555
O5 Li1 1_555 1_555
O6 Li3 1_555 1_555
O7 Li4 1_555 1_555
O8 Li2 1_555 1_555
O9 Li1 1_555 1_555
O10 Li2 1_555 1_555
O11 Li3 1_555 1_555
N1 Li2 1_555 1_555
N2 Li3 1_555 1_555
N3 Li4 1_555 1_555
N4 Li1 1_555 1_555
C1 N1 1_555 1_555
H1 C1 1_555 1_555
C2 C1 1_555 1_555
H2 C2 1_555 1_555
H3 C2 1_555 1_555
C3 C2 1_555 1_555
H4 C3 1_555 1_555
H5 C3 1_555 1_555
C4 C3 1_555 1_555
H6 C4 1_555 1_555
H7 C4 1_555 1_555
C5 C4 1_555 1_555
H8 C5 1_555 1_555
H9 C5 1_555 1_555
C6 N2 1_555 1_555
H10 C6 1_555 1_555
C7 S1 1_555 1_555
C8 C7 1_555 1_555
C9 C8 1_555 1_555
H11 C9 1_555 1_555
C10 C9 1_555 1_555
C11 C10 1_555 1_555
H12 C11 1_555 1_555
C12 C7 1_555 1_555
C13 S2 1_555 1_555
C14 C13 1_555 1_555
C15 C14 1_555 1_555
H13 C15 1_555 1_555
C16 C15 1_555 1_555
C17 C16 1_555 1_555
H14 C17 1_555 1_555
C18 C13 1_555 1_555
C19 C8 1_555 1_555
H15 C19 1_555 1_555
C20 C19 1_555 1_555
H16 C20 1_555 1_555
H17 C20 1_555 1_555
H18 C20 1_555 1_555
C21 C19 1_555 1_555
H19 C21 1_555 1_555
H20 C21 1_555 1_555
H21 C21 1_555 1_555
C22 C10 1_555 1_555
H22 C22 1_555 1_555
C23 C22 1_555 1_555
H23 C23 1_555 1_555
H24 C23 1_555 1_555
H25 C23 1_555 1_555
C24 C22 1_555 1_555
H26 C24 1_555 1_555
H27 C24 1_555 1_555
H28 C24 1_555 1_555
C25 C12 1_555 1_555
H29 C25 1_555 1_555
C26 C25 1_555 1_555
H30 C26 1_555 1_555
H31 C26 1_555 1_555
H32 C26 1_555 1_555
C27 C25 1_555 1_555
H33 C27 1_555 1_555
H34 C27 1_555 1_555
H35 C27 1_555 1_555
C28 C14 1_555 1_555
H36 C28 1_555 1_555
C29 C28 1_555 1_555
H37 C29 1_555 1_555
H38 C29 1_555 1_555
H39 C29 1_555 1_555
C30 C28 1_555 1_555
H40 C30 1_555 1_555
H41 C30 1_555 1_555
H42 C30 1_555 1_555
C31 C16 1_555 1_555
C32 C31 1_555 1_555
H43 C32 1_555 1_555
H44 C32 1_555 1_555
H45 C32 1_555 1_555
C33 C31 1_555 1_555
H46 C33 1_555 1_555
H47 C33 1_555 1_555
H48 C33 1_555 1_555
C34 C18 1_555 1_555
H49 C34 1_555 1_555
C35 C34 1_555 1_555
H50 C35 1_555 1_555
H51 C35 1_555 1_555
H52 C35 1_555 1_555
C36 C34 1_555 1_555
H53 C36 1_555 1_555
H54 C36 1_555 1_555
H55 C36 1_555 1_555
C37 N3 1_555 1_555
H56 C37 1_555 1_555
C38 C37 1_555 1_555
H57 C38 1_555 1_555
H58 C38 1_555 1_555
C39 C38 1_555 1_555
H59 C39 1_555 1_555
H60 C39 1_555 1_555
C40 C39 1_555 1_555
H61 C40 1_555 1_555
H62 C40 1_555 1_555
C41 C40 1_555 1_555
H63 C41 1_555 1_555
H64 C41 1_555 1_555
C42 N4 1_555 1_555
H65 C42 1_555 1_555
C43 S3 1_555 1_555
C44 C43 1_555 1_555
C45 C44 1_555 1_555
H66 C45 1_555 1_555
C46 C45 1_555 1_555
C47 C46 1_555 1_555
H67 C47 1_555 1_555
C48 C43 1_555 1_555
C49 S4 1_555 1_555
C50 C49 1_555 1_555
C51 C50 1_555 1_555
C52 C51 1_555 1_555
C53 C52 1_555 1_555
H70 C53 1_555 1_555
C54 C49 1_555 1_555
C55 C44 1_555 1_555
H71 C55 1_555 1_555
C56 C55 1_555 1_555
H72 C56 1_555 1_555
H73 C56 1_555 1_555
H74 C56 1_555 1_555
C57 C55 1_555 1_555
H75 C57 1_555 1_555
H76 C57 1_555 1_555
H77 C57 1_555 1_555
C58 C46 1_555 1_555
H78 C58 1_555 1_555
C59 C58 1_555 1_555
H79 C59 1_555 1_555
H80 C59 1_555 1_555
H81 C59 1_555 1_555
C60 C58 1_555 1_555
H82 C60 1_555 1_555
H83 C60 1_555 1_555
H84 C60 1_555 1_555
C61 C48 1_555 1_555
H85 C61 1_555 1_555
C62 C61 1_555 1_555
H86 C62 1_555 1_555
H87 C62 1_555 1_555
H88 C62 1_555 1_555
C63 C61 1_555 1_555
H89 C63 1_555 1_555
H90 C63 1_555 1_555
H91 C63 1_555 1_555
C64 C50 1_555 1_555
H92 C64 1_555 1_555
C65 C64 1_555 1_555
H93 C65 1_555 1_555
H94 C65 1_555 1_555
H95 C65 1_555 1_555
C66 C64 1_555 1_555
H96 C66 1_555 1_555
H97 C66 1_555 1_555
H98 C66 1_555 1_555
C67 C52 1_555 1_555
H99 C67 1_555 1_555
C68 C67 1_555 1_555
H100 C68 1_555 1_555
H101 C68 1_555 1_555
H102 C68 1_555 1_555
C69 C67 1_555 1_555
H103 C69 1_555 1_555
H104 C69 1_555 1_555
H105 C69 1_555 1_555
C70 C54 1_555 1_555
H106 C70 1_555 1_555
C71 C70 1_555 1_555
H107 C71 1_555 1_555
H108 C71 1_555 1_555
H109 C71 1_555 1_555
C72 C70 1_555 1_555
H110 C72 1_555 1_555
H111 C72 1_555 1_555
H112 C72 1_555 1_555
C73 O9 1_555 1_555
H113 C73 1_555 1_555
H114 C73 1_555 1_555
C74 C73 1_555 1_555
H115 C74 1_555 1_555
H116 C74 1_555 1_555
C75 C74 1_555 1_555
H117 C75 1_555 1_555
H118 C75 1_555 1_555
C76 O9 1_555 1_555
H119 C76 1_555 1_555
H120 C76 1_555 1_555
C77 O10 1_555 1_555
H121 C77 1_555 1_555
H122 C77 1_555 1_555
C78 C77 1_555 1_555
H123 C78 1_555 1_555
H124 C78 1_555 1_555
C79 C78 1_555 1_555
H125 C79 1_555 1_555
H126 C79 1_555 1_555
C80 O10 1_555 1_555
H127 C80 1_555 1_555
H128 C80 1_555 1_555
C81 O11 1_555 1_555
H129 C81 1_555 1_555
H130 C81 1_555 1_555
C82 C81 1_555 1_555
H131 C82 1_555 1_555
H132 C82 1_555 1_555
C83 C82 1_555 1_555
H133 C83 1_555 1_555
H134 C83 1_555 1_555
C84 O11 1_555 1_555
H135 C84 1_555 1_555
H136 C84 1_555 1_555
O12 Li4 1_555 1_555
C85 O12 1_555 1_555
H137 C85 1_555 1_555
H138 C85 1_555 1_555
C86 C85 1_555 1_555
H139 C86 1_555 1_555
H140 C86 1_555 1_555
C87 O12 1_555 1_555
H141 C87 1_555 1_555
H142 C87 1_555 1_555
C88 C86 1_555 1_555
H143 C88 1_555 1_555
H144 C88 1_555 1_555
Li4 O6 1_555 1_555
S1 N1 1_555 1_555
S2 N2 1_555 1_555
S3 O6 1_555 1_555
S3 N3 1_555 1_555
S4 O8 1_555 1_555
S4 N4 1_555 1_555
C1 C6 1_555 1_555
C5 C6 1_555 1_555
C11 C12 1_555 1_555
C17 C18 1_555 1_555
C37 C42 1_555 1_555
C41 C42 1_555 1_555
C47 C48 1_555 1_555
C53 C54 1_555 1_555
C75 C76 1_555 1_555
C79 C80 1_555 1_555
C83 C84 1_555 1_555
C87 C88 1_555 1_555

#END
