
#######################################################################
#
#                 Cambridge Crystallographic Data Centre
#                                CCDC 
#
#######################################################################
#
# If this CIF has been generated from an entry in the Cambridge 
# Structural Database, then it will include bibliographic, chemical, 
# crystal, experimental, refinement or atomic coordinate data resulting 
# from the CCDC's data processing and validation procedures.
#
#######################################################################

data_EYAQEB
_chemical_formula_moiety         'C42 H70 O35,1.5(C9 H6 O3),9.5(H2 O1)'
_chemical_name_systematic        
'\b-Cyclodextrin sesquikis(4-hydroxycoumarin) clathrate hydrate'
_symmetry_cell_setting           triclinic
_symmetry_space_group_name_H-M   'P 1'
_symmetry_Int_Tables_number      1
_space_group_name_Hall           'P 1'
loop_
_symmetry_equiv_pos_site_id
_symmetry_equiv_pos_as_xyz
1 x,y,z
_cell_length_a                   17.958(3)
_cell_length_b                   15.4072(16)
_cell_length_c                   15.2961(15)
_cell_angle_alpha                102.543(9)
_cell_angle_beta                 113.432(13)
_cell_angle_gamma                99.393(11)
_cell_volume                     3640.34
_cell_formula_units_Z            2
loop_
_atom_site_label
_atom_site_type_symbol
_atom_site_fract_x
_atom_site_fract_y
_atom_site_fract_z
C1 C 0.2095(6) -0.0078(7) 0.2419(7)
H1 H 0.2010 -0.0636 0.2640
C2 C 0.2807(6) -0.0057(7) 0.2096(7)
H2 H 0.2616 -0.0617 0.1505
C3 C 0.2944(5) 0.0782(7) 0.1767(7)
H3 H 0.3135 0.1354 0.2347
C4 C 0.2115(5) 0.0774(7) 0.0916(7)
H4 H 0.1968 0.0264 0.0294
C5 C 0.1391(5) 0.0650(7) 0.1222(6)
H5 H 0.1498 0.1223 0.1762
C6 C 0.0544(6) 0.0487(8) 0.0352(7)
H6 H 0.0555 0.1002 0.0063
H7 H 0.0415 -0.0095 -0.0176
C7 C 0.2058(6) 0.1673(8) -0.0238(7)
H8 H 0.1910 0.1030 -0.0690
C8 C 0.2874(6) 0.2265(8) -0.0169(7)
H9 H 0.2748 0.2311 -0.0853
C9 C 0.3096(5) 0.3231(7) 0.0522(7)
H10 H 0.3214 0.3200 0.1209
C10 C 0.2352(5) 0.3633(7) 0.0141(7)
H11 H 0.2280 0.3735 -0.0509
C11 C 0.1530(5) 0.2997(7) -0.0025(7)
H12 H 0.1567 0.2994 0.0644
C12 C 0.0759(5) 0.3287(7) -0.0577(7)
H13 H 0.0245 0.2818 -0.0714
H14 H 0.0777 0.3885 -0.0157
C13 C 0.2423(6) 0.5265(7) 0.0496(7)
H15 H 0.2236 0.5051 -0.0243
C14 C 0.3248(6) 0.6023(7) 0.0985(7)
H16 H 0.3155 0.6529 0.0675
C15 C 0.3526(5) 0.6426(7) 0.2107(7)
H17 H 0.3631 0.5935 0.2438
C16 C 0.2805(5) 0.6773(7) 0.2218(7)
H18 H 0.2712 0.7275 0.1902
C17 C 0.2003(5) 0.5983(8) 0.1718(7)
H19 H 0.2092 0.5492 0.2052
C18 C 0.1266(6) 0.6295(10) 0.1756(9)
H20 H 0.0744 0.5776 0.1350
H21 H 0.1348 0.6471 0.2457
C19 C 0.3023(5) 0.8062(6) 0.3618(7)
H22 H 0.2959 0.8362 0.3085
C20 C 0.3861(5) 0.8570(6) 0.4546(7)
H23 H 0.3850 0.9220 0.4803
C21 C 0.3968(5) 0.8128(7) 0.5357(6)
H24 H 0.3989 0.7478 0.5117
C22 C 0.3217(6) 0.8109(7) 0.5590(7)
H25 H 0.3253 0.8752 0.5945
C23 C 0.2367(6) 0.7695(7) 0.4646(6)
H26 H 0.2279 0.7013 0.4388
C24 C 0.1631(6) 0.7850(8) 0.4843(7)
H27 H 0.1103 0.7593 0.4207
H28 H 0.1579 0.7518 0.5311
C25 C 0.3246(7) 0.7906(7) 0.7153(7)
H29 H 0.3252 0.8571 0.7251
C26 C 0.4033(6) 0.7857(7) 0.8007(7)
H30 H 0.4023 0.8124 0.8658
C27 C 0.4017(5) 0.6834(7) 0.7860(7)
H31 H 0.4036 0.6561 0.7216
C28 C 0.3213(6) 0.6323(7) 0.7839(7)
H32 H 0.3220 0.6556 0.8507
C29 C 0.2435(6) 0.6459(8) 0.7013(9)
H33 H 0.2385 0.6158 0.6336
C30 C 0.1624(7) 0.6062(11) 0.7074(16)
H34 H 0.1556 0.5398 0.7014
H35 H 0.1671 0.6386 0.7735
C31 C 0.3081(6) 0.4888(7) 0.8274(7)
H36 H 0.3134 0.5348 0.8883
C32 C 0.3790(5) 0.4437(7) 0.8587(7)
H37 H 0.3716 0.4090 0.9042
C33 C 0.3719(5) 0.3743(7) 0.7666(7)
H38 H 0.3776 0.4069 0.7189
C34 C 0.2850(5) 0.3040(7) 0.7170(6)
H39 H 0.2820 0.2681 0.7632
C35 C 0.2141(5) 0.3508(7) 0.6940(6)
H40 H 0.2120 0.3797 0.6407
C36 C 0.1290(6) 0.2850(7) 0.6595(7)
H41 H 0.0861 0.3198 0.6485
H42 H 0.1135 0.2386 0.5946
C37 C 0.2540(6) 0.1448(7) 0.6130(7)
H43 H 0.2527 0.1355 0.6751
C38 C 0.3216(6) 0.1052(7) 0.5967(7)
H44 H 0.3087 0.0383 0.5923
C39 C 0.3223(5) 0.1133(6) 0.4991(6)
H45 H 0.3344 0.1798 0.5022
C40 C 0.2347(6) 0.0604(7) 0.4150(7)
H46 H 0.2232 -0.0068 0.4095
C41 C 0.1676(6) 0.0989(8) 0.4331(8)
H47 H 0.1736 0.1632 0.4284
C42 C 0.0796(7) 0.0392(11) 0.3632(10)
H48 H 0.0387 0.0709 0.3737
H49 H 0.0702 0.0303 0.2932
O1 O 0.2352(4) 0.0728(5) 0.3235(5)
O2 O 0.3567(4) -0.0097(5) 0.2872(5)
H101 H 0.3602 0.0168 0.3434
O3 O 0.3569(4) 0.0793(6) 0.1399(5)
H102 H 0.4042 0.1128 0.1859
O4 O 0.1342(4) -0.0131(5) 0.1598(5)
O5 O -0.0087(4) 0.0429(6) 0.0687(6)
H103 H -0.0401 0.0756 0.0460
O6 O 0.2248(4) 0.1649(5) 0.0747(5)
O7 O 0.3528(4) 0.1850(6) 0.0111(6)
H104 H 0.3513 0.1500 -0.0404
O8 O 0.3822(4) 0.3807(5) 0.0568(6)
H105 H 0.3824 0.4363 0.0744
O9 O 0.1385(4) 0.2056(5) -0.0608(5)
O10 O 0.0726(4) 0.3378(6) -0.1500(6)
H106 H 0.0786 0.3935 -0.1480
O11 O 0.2541(4) 0.4505(5) 0.0858(5)
O12 O 0.3877(4) 0.5673(5) 0.0801(5)
H107 H 0.3871 0.5163 0.0914
O13 O 0.4265(4) 0.7187(6) 0.2569(6)
H108 H 0.4690 0.6990 0.2653
O14 O 0.1786(4) 0.5596(5) 0.0666(5)
O15 O 0.1167(5) 0.7058(8) 0.1390(7)
H109 H 0.1640 0.7446 0.1628
O16 O 0.3043(4) 0.7132(5) 0.3276(4)
O17 O 0.4553(4) 0.8604(5) 0.4284(5)
H110 H 0.4506 0.8073 0.3944
O18 O 0.4716(4) 0.8621(5) 0.6252(5)
H111 H 0.4714 0.8416 0.6717
O19 O 0.2353(4) 0.8091(5) 0.3878(5)
O20 O 0.1741(5) 0.8828(7) 0.5270(7)
H112 H 0.1471 0.9037 0.4814
O21 O 0.3271(4) 0.7549(4) 0.6235(5)
O22 O 0.4789(4) 0.8351(5) 0.8032(5)
H113 H 0.4736 0.8247 0.7445
O23 O 0.4724(4) 0.6755(5) 0.8683(5)
H114 H 0.5149 0.7197 0.8859
O24 O 0.2525(4) 0.7437(5) 0.7175(6)
O25 O 0.0911(10) 0.6160(16) 0.631(2)
H115 H 0.0485 0.5997 0.6403
O26 O 0.3166(4) 0.5360(4) 0.7611(4)
O27 O 0.4597(4) 0.5088(5) 0.9114(5)
H116 H 0.4763 0.5192 0.9733
O28 O 0.4365(4) 0.3285(5) 0.7955(6)
H117 H 0.4252 0.2814 0.7478
O29 O 0.2293(4) 0.4223(5) 0.7831(5)
O30 O 0.1277(4) 0.2376(6) 0.7309(6)
H118 H 0.1540 0.1974 0.7292
O31 O 0.2755(4) 0.2414(4) 0.6260(4)
O32 O 0.4022(4) 0.1535(5) 0.6802(5)
H119 H 0.3970 0.1967 0.7194
O33 O 0.3835(4) 0.0756(5) 0.4827(5)
H120 H 0.4319 0.1079 0.5271
O34 O 0.1744(4) 0.0986(5) 0.5309(5)
O35 O 0.0640(5) -0.0524(6) 0.3787(7)
H121 H 0.1005 -0.0782 0.3733
C84 C 0.0610(15) 0.415(3) 0.4637(19)
C85 C 0.0349(19) 0.318(3) 0.388(2)
H96 H -0.0134 0.2737 0.3786
C86 C 0.0702(17) 0.2941(18) 0.3409(16)
C87 C 0.1512(15) 0.359(2) 0.363(3)
C88 C 0.1759(12) 0.442(2) 0.4283(17)
C89 C 0.2527(15) 0.508(2) 0.452(2)
H97 H 0.2737 0.5642 0.5050
C90 C 0.2930(13) 0.4886(19) 0.399(2)
H98 H 0.3419 0.5352 0.4138
C91 C 0.273(2) 0.412(2) 0.328(2)
H99 H 0.3057 0.4041 0.2923
C92 C 0.2003(17) 0.338(2) 0.304(2)
H100 H 0.1842 0.2805 0.2544
O70 O 0.1357(10) 0.4683(13) 0.4859(13)
O71 O 0.0186(14) 0.424(2) 0.5057(18)
O72 O 0.0493(10) 0.2135(13) 0.2706(14)
H142 H 0.0580 0.2233 0.2231
O73 O 0.928(3) 0.649(3) 0.792(3)
O74 O 0.0721(19) 0.668(2) 0.939(2)
O76 O 0.9697(5) 0.6402(7) 0.2503(7)
O77 O 0.0551(5) 0.0542(6) 0.6669(7)
O78 O 0.7919(5) 0.1699(7) 0.0650(7)
O79 O 0.9144(5) 0.1687(7) 0.0023(6)
O80 O 0.4722(5) 0.0302(7) 0.7566(7)
O81 O 0.0392(7) 0.8056(8) 0.2267(8)
O82 O 0.1765(7) 0.9575(8) 0.7074(9)
O83 O 0.6327(7) 0.0547(9) 0.9225(9)
O84 O 0.0128(6) 0.3486(10) 0.1202(10)
O85 O 0.5027(9) 0.2063(10) 0.9257(8)
O86 O 0.9498(7) 0.9811(14) 0.4599(11)
O87 O 0.5299(17) 0.8938(12) 0.2423(11)
O88 O 0.3466(12) 0.0473(15) 0.8447(13)
O89 O 0.8960(12) 0.1145(18) 0.2250(18)
O90 O 0.5878(17) 0.9267(15) 0.0140(19)
O91 O 0.0702(18) 0.564(2) 0.396(3)
O92 O 0.071(5) 0.794(6) 0.710(9)
O93 O 0.859(2) 0.872(5) 0.218(3)
O94 O 0.707(5) 0.927(4) 0.182(4)
O98 O 0.4701(12) 0.7175(14) 0.0565(13)
O99 O 0.4354(13) 0.9706(18) 1.0128(19)
C43? C 0.6792(7) 0.2060(9) 0.2075(8)
H50? H 0.6810 0.1993 0.1419
C44? C 0.5982(8) 0.1365(8) 0.1901(8)
H51? H 0.6006 0.0724 0.1630
C45? C 0.5968(6) 0.1465(8) 0.2908(7)
H52? H 0.5941 0.2103 0.3188
C46? C 0.6753(7) 0.1309(8) 0.3615(8)
H53? H 0.6755 0.0652 0.3373
C47? C 0.7550(7) 0.1972(11) 0.3721(9)
H54? H 0.7587 0.2626 0.4047
C48? C 0.8361(9) 0.1736(16) 0.4321(12)
H55? H 0.8852 0.2139 0.4324
H56? H 0.8456 0.1838 0.5024
C49? C 0.6968(6) 0.5474(7) 0.1939(7)
H57? H 0.7015 0.5968 0.1618
C50? C 0.6114(5) 0.4757(7) 0.1286(7)
H58? H 0.6085 0.4475 0.0616
C51? C 0.6039(6) 0.4016(7) 0.1744(7)
H59? H 0.6046 0.4282 0.2405
C52? C 0.6778(6) 0.3580(7) 0.1901(7)
H60? H 0.6727 0.3241 0.1235
C53? C 0.7624(6) 0.4341(7) 0.2489(7)
H61? H 0.7713 0.4603 0.3193
C54? C 0.8361(6) 0.3974(9) 0.2515(8)
H62? H 0.8887 0.4491 0.2868
H63? H 0.8424 0.3522 0.2892
C55? C 0.7575(6) 0.8527(8) 0.4834(8)
H64? H 0.7752 0.9219 0.5099
C56? C 0.6752(6) 0.8213(8) 0.3881(8)
H65? H 0.6831 0.8499 0.3385
C57? C 0.6491(5) 0.7150(7) 0.3433(7)
H66? H 0.6391 0.6858 0.3915
C58? C 0.7210(6) 0.6875(7) 0.3258(8)
H67? H 0.7295 0.7144 0.2754
C59? C 0.8024(6) 0.7234(9) 0.4254(9)
H68? H 0.7943 0.6952 0.4751
C60? C 0.8784(8) 0.7021(13) 0.4112(14)
H69? H 0.9308 0.7341 0.4744
H70? H 0.8719 0.6347 0.3965
C61? C 0.7893(6) 0.9018(7) 0.8531(8)
H71? H 0.8033 0.9403 0.9222
C62? C 0.7103(6) 0.9172(8) 0.7751(8)
H72? H 0.7228 0.9837 0.7778
C63? C 0.6895(5) 0.8579(7) 0.6720(7)
H73? H 0.6770 0.7912 0.6688
C64? C 0.7657(5) 0.8825(7) 0.6513(7)
H74? H 0.7746 0.9467 0.6464
C65? C 0.8460(6) 0.8746(7) 0.7329(8)
H75? H 0.8406 0.8080 0.7287
C66? C 0.9237(5) 0.9139(8) 0.7240(8)
H76? H 0.9745 0.9121 0.7812
H77? H 0.9216 0.8761 0.6614
C67? C 0.7803(6) 0.6343(7) 1.0197(8)
H78? H 0.7894 0.6127 1.0793
C68? C 0.7096(6) 0.6817(8) 0.9995(8)
H79? H 0.7280 0.7364 1.0598
C69? C 0.6972(6) 0.7168(8) 0.9119(8)
H80? H 0.6796 0.6632 0.8508
C70? C 0.7773(7) 0.7814(8) 0.9318(8)
H81? H 0.7914 0.8388 0.9875
C71? C 0.8502(6) 0.7369(9) 0.9599(9)
C72? C 0.7338(5) 0.2750(7) 0.8654(6)
H82? H 0.7344 0.2128 0.8748
C73? C 0.6655(5) 0.3055(7) 0.8870(7)
H83? H 0.6778 0.3083 0.9575
C74? C 0.6643(5) 0.4002(7) 0.8767(6)
H84? H 0.6516 0.3981 0.8063
C75? C 0.7519(5) 0.4668(7) 0.9486(7)
H85? H 0.7630 0.4728 1.0194
C76? C 0.8214(5) 0.4319(7) 0.9281(7)
H86? H 0.8140 0.4342 0.8604
C77? C 0.9088(6) 0.4867(8) 1.0040(9)
H87? H 0.9501 0.4643 0.9839
H88? H 0.9166 0.5527 1.0075
C78? C 0.6830(5) 0.0796(7) 0.5036(7)
H89? H 0.6775 0.0213 0.4545
C79? C 0.6097(5) 0.0636(7) 0.5317(7)
H90? H 0.6124 0.0131 0.5635
C80? C 0.6189(6) 0.1534(7) 0.6062(7)
H91? H 0.6161 0.2041 0.5747
C81? C 0.7033(5) 0.1790(7) 0.6982(7)
H92? H 0.7043 0.1311 0.7332
C82? C 0.7758(5) 0.1871(7) 0.6672(7)
H93? H 0.7786 0.2404 0.6400
C83? C 0.8609(5) 0.2011(7) 0.7550(7)
H94? H 0.9046 0.2021 0.7309
H95? H 0.8764 0.2620 0.8054
C93? C 0.52(2) 0.34(3) 0.64(3)
C94? C 1.037(4) 0.508(5) 0.820(5)
C95? C 0.942(2) 0.462(3) 0.747(2)
C96? C 0.478(9) 0.334(11) 0.513(13)
C97? C 0.877(2) 0.482(3) 0.677(3)
C98? C 0.4751(19) 0.281(3) 0.427(3)
C99? C 0.928(13) 0.651(14) 0.593(15)
C100? C 0.41(4) 0.28(5) 0.35(6)
C101? C 0.792(5) 0.593(5) 0.633(6)
C102? C 0.476(2) 0.347(3) 0.324(3)
C103? C 0.485(3) 0.409(4) 0.337(4)
C104? C 0.744(4) 0.442(4) 0.507(4)
C105? C 0.473(5) 0.463(6) 0.422(7)
C106? C 0.821(6) 0.396(7) 0.593(7)
C107? C 0.4944(17) 0.456(2) 0.490(2)
C108? C 0.480(3) 0.353(4) 0.404(4)
C109? C 0.500(4) 0.479(6) 0.579(6)
C110? C 0.512(4) 0.530(5) 0.664(5)
C111? C 0.521(2) 0.621(3) 0.602(3)
C112? C 0.522(4) 0.629(5) 0.525(5)
C113? C 0.504(4) 0.557(5) 0.433(5)
C114? C 0.501(3) 0.537(3) 0.363(4)
C115? C 0.988(7) 0.487(8) 0.673(8)
C116? C 0.887(4) 0.439(5) 0.577(5)
C117? C 0.817(3) 0.481(4) 0.590(4)
O36? O 0.6733(4) 0.2946(5) 0.2441(5)
O37? O 0.5250(5) 0.1507(6) 0.1197(6)
H122? H 0.5343 0.2067 0.1224
O38? O 0.5221(5) 0.0790(6) 0.2748(6)
H123? H 0.5024 0.1020 0.3129
O39? O 0.7493(5) 0.1869(7) 0.2721(7)
O40? O 0.8266(11) 0.0733(13) 0.3836(12)
H124? H 0.8720 0.0605 0.4128
O41? O 0.6990(4) 0.5878(5) 0.2888(5)
O42? O 0.5445(4) 0.5181(5) 0.1144(5)
H125? H 0.4982 0.4770 0.0870
O43? O 0.5267(4) 0.3286(5) 0.1104(5)
H126? H 0.5180 0.2938 0.1427
O44? O 0.7637(4) 0.5077(5) 0.2050(5)
O45? O 0.8239(5) 0.3535(6) 0.1516(6)
H127? H 0.8429 0.3932 0.1303
O46? O 0.7459(4) 0.8163(5) 0.5563(5)
O47? O 0.6121(4) 0.8497(5) 0.4093(5)
H128? H 0.6327 0.9032 0.4508
O48? O 0.5736(4) 0.6864(5) 0.2514(5)
H129? H 0.5749 0.7252 0.2206
O49? O 0.8226(4) 0.8221(6) 0.4633(6)
O50? O 0.8861(9) 0.7300(12) 0.3339(15)
H130? H 0.9325 0.7703 0.3570
O51? O 0.7685(4) 0.8052(5) 0.8437(5)
O52? O 0.6404(4) 0.8962(6) 0.7983(5)
H131? H 0.6589 0.9038 0.8601
O53? O 0.6179(4) 0.8726(5) 0.6003(5)
H132? H 0.5779 0.8237 0.5728
O54? O 0.8578(4) 0.9261(5) 0.8305(5)
O55? O 0.9291(4) 1.0065(5) 0.7232(7)
H133? H 0.9636 1.0231 0.7017
O56? O 0.7545(4) 0.5559(5) 0.9332(5)
O57? O 0.6337(4) 0.6214(5) 0.9859(5)
H134? H 0.5981 0.6042 0.9253
O58? O 0.6319(5) 0.7641(6) 0.8949(6)
H135? H 0.5926 0.7382 0.8366
O59? O 0.8550(4) 0.6951(6) 1.0378(6)
O60? O 0.7130(4) 0.2665(5) 0.7628(5)
O61? O 0.5874(4) 0.2403(5) 0.8218(5)
H136? H 0.5644 0.2219 0.8553
O62? O 0.6042(4) 0.4333(5) 0.9012(5)
H137? H 0.6165 0.4912 0.9148
O63? O 0.8138(4) 0.3371(5) 0.9295(5)
O64? O 0.9242(4) 0.4773(6) 1.1041(6)
H138? H 0.9066 0.4213 1.0983
O65? O 0.6776(4) 0.1499(5) 0.4586(5)
O66? O 0.5313(4) 0.0379(5) 0.4435(5)
H139? H 0.5095 -0.0195 0.4252
O67? O 0.5492(4) 0.1362(6) 0.6314(5)
H140? H 0.5036 0.1127 0.5785
O68? O 0.7606(4) 0.1026(5) 0.5909(5)
O69? O 0.8602(4) 0.1307(5) 0.8014(5)
H141? H 0.8881 0.0960 0.7874
O75? O 0.944(3) 0.366(4) 0.710(4)
O95? O 0.9334(3) 0.5091(4) 1.0710(5)
O96? O 0.997(6) 0.520(7) 0.851(8)
O97? O 0.892(12) 0.400(13) 0.488(15)
C118? C 0.756(6) 0.545(6) 0.687(7)
C119? C 0.725(3) 0.538(4) 0.538(4)
C120? C 0.679(9) 0.591(11) 0.600(11)
C121? C 0.838(5) 0.551(5) 0.683(6)
O100? O 0.569(3) 0.729(2) 0.086(2)
O101? O 0.350(8) 0.946(3) 0.979(4)
loop_
_geom_bond_atom_site_label_1
_geom_bond_atom_site_label_2
_geom_bond_site_symmetry_1
_geom_bond_site_symmetry_2
C1 H1 1_555 1_555
C2 C1 1_555 1_555
H2 C2 1_555 1_555
C3 C2 1_555 1_555
H3 C3 1_555 1_555
C4 C3 1_555 1_555
H4 C4 1_555 1_555
C5 C4 1_555 1_555
H5 C5 1_555 1_555
C6 C5 1_555 1_555
H6 C6 1_555 1_555
H7 C6 1_555 1_555
C7 H8 1_555 1_555
C8 C7 1_555 1_555
H9 C8 1_555 1_555
C9 C8 1_555 1_555
H10 C9 1_555 1_555
C10 C9 1_555 1_555
H11 C10 1_555 1_555
C11 C10 1_555 1_555
H12 C11 1_555 1_555
C12 C11 1_555 1_555
H13 C12 1_555 1_555
H14 C12 1_555 1_555
C13 H15 1_555 1_555
C14 C13 1_555 1_555
H16 C14 1_555 1_555
C15 C14 1_555 1_555
H17 C15 1_555 1_555
C16 C15 1_555 1_555
H18 C16 1_555 1_555
C17 C16 1_555 1_555
H19 C17 1_555 1_555
C18 C17 1_555 1_555
H20 C18 1_555 1_555
H21 C18 1_555 1_555
C19 H22 1_555 1_555
C20 C19 1_555 1_555
H23 C20 1_555 1_555
C21 C20 1_555 1_555
H24 C21 1_555 1_555
C22 C21 1_555 1_555
H25 C22 1_555 1_555
C23 C22 1_555 1_555
H26 C23 1_555 1_555
C24 C23 1_555 1_555
H27 C24 1_555 1_555
H28 C24 1_555 1_555
C25 H29 1_555 1_555
C26 C25 1_555 1_555
H30 C26 1_555 1_555
C27 C26 1_555 1_555
H31 C27 1_555 1_555
C28 C27 1_555 1_555
H32 C28 1_555 1_555
C29 C28 1_555 1_555
H33 C29 1_555 1_555
C30 C29 1_555 1_555
H34 C30 1_555 1_555
H35 C30 1_555 1_555
C31 H36 1_555 1_555
C32 C31 1_555 1_555
H37 C32 1_555 1_555
C33 C32 1_555 1_555
H38 C33 1_555 1_555
C34 C33 1_555 1_555
H39 C34 1_555 1_555
C35 C34 1_555 1_555
H40 C35 1_555 1_555
C36 C35 1_555 1_555
H41 C36 1_555 1_555
H42 C36 1_555 1_555
C37 H43 1_555 1_555
C38 C37 1_555 1_555
H44 C38 1_555 1_555
C39 C38 1_555 1_555
H45 C39 1_555 1_555
C40 C39 1_555 1_555
H46 C40 1_555 1_555
C41 C40 1_555 1_555
H47 C41 1_555 1_555
C42 C41 1_555 1_555
H48 C42 1_555 1_555
H49 C42 1_555 1_555
C84 C85 1_555 1_555
C85 H96 1_555 1_555
C86 C85 1_555 1_555
C87 C86 1_555 1_555
C88 C87 1_555 1_555
C89 C88 1_555 1_555
H97 C89 1_555 1_555
C90 C89 1_555 1_555
H98 C90 1_555 1_555
C91 C90 1_555 1_555
H99 C91 1_555 1_555
C92 C87 1_555 1_555
H100 C92 1_555 1_555
O1 C1 1_555 1_555
O2 C2 1_555 1_555
H101 O2 1_555 1_555
O3 C3 1_555 1_555
H102 O3 1_555 1_555
O4 C1 1_555 1_555
O5 C6 1_555 1_555
H103 O5 1_555 1_555
O6 C4 1_555 1_555
O7 C8 1_555 1_555
H104 O7 1_555 1_555
O8 C9 1_555 1_555
H105 O8 1_555 1_555
O9 C7 1_555 1_555
O10 C12 1_555 1_555
H106 O10 1_555 1_555
O11 C10 1_555 1_555
O12 C14 1_555 1_555
H107 O12 1_555 1_555
O13 C15 1_555 1_555
H108 O13 1_555 1_555
O14 C13 1_555 1_555
O15 C18 1_555 1_555
H109 O15 1_555 1_555
O16 C16 1_555 1_555
O17 C20 1_555 1_555
H110 O17 1_555 1_555
O18 C21 1_555 1_555
H111 O18 1_555 1_555
O19 C19 1_555 1_555
O20 C24 1_555 1_555
H112 O20 1_555 1_555
O21 C22 1_555 1_555
O22 C26 1_555 1_555
H113 O22 1_555 1_555
O23 C27 1_555 1_555
H114 O23 1_555 1_555
O24 C25 1_555 1_555
O25 C30 1_555 1_555
H115 O25 1_555 1_555
O26 C28 1_555 1_555
O27 C32 1_555 1_555
H116 O27 1_555 1_555
O28 C33 1_555 1_555
H117 O28 1_555 1_555
O29 C31 1_555 1_555
O30 C36 1_555 1_555
H118 O30 1_555 1_555
O31 C34 1_555 1_555
O32 C38 1_555 1_555
H119 O32 1_555 1_555
O33 C39 1_555 1_555
H120 O33 1_555 1_555
O34 C37 1_555 1_555
O35 C42 1_555 1_555
H121 O35 1_555 1_555
O70 C84 1_555 1_555
O71 C84 1_555 1_555
O72 C86 1_555 1_555
H142 O72 1_555 1_555
C5 O4 1_555 1_555
C7 O6 1_555 1_555
C11 O9 1_555 1_555
C13 O11 1_555 1_555
C17 O14 1_555 1_555
C19 O16 1_555 1_555
C23 O19 1_555 1_555
C25 O21 1_555 1_555
C29 O24 1_555 1_555
C31 O26 1_555 1_555
C35 O29 1_555 1_555
C37 O31 1_555 1_555
C40 O1 1_555 1_555
C41 O34 1_555 1_555
C88 O70 1_555 1_555
C91 C92 1_555 1_555

#END
