
#######################################################################
#
#                 Cambridge Crystallographic Data Centre
#                                CCDC 
#
#######################################################################
#
# If this CIF has been generated from an entry in the Cambridge 
# Structural Database, then it will include bibliographic, chemical, 
# crystal, experimental, refinement or atomic coordinate data resulting 
# from the CCDC's data processing and validation procedures.
#
#######################################################################

data_EYAYUA
_chemical_name_common            'Stanozolol acesulfame'
_chemical_formula_moiety         'C21 H33 N2 O1 1+,C4 H4 N1 O4 S1 1-'
_chemical_name_systematic        
'1-hydroxy-1,10a,12a-trimethyl-1,2,3,3a,3b,4,5,5a,6,7,10,10a,10b,11,12,12a-hexadecahydrocyclopenta[5,6]naphtho[1,2-f]indazol-8-ium 6-methyl-4-oxo-4H-1,2,3-oxathiazin-3-ide 2,2-dioxide'
_chemical_properties_biological  
'Stanozolol is used for treating anemia, hereditary angioedema and osteoporosis'
_symmetry_cell_setting           monoclinic
_symmetry_space_group_name_H-M   'P 21'
_symmetry_Int_Tables_number      4
_space_group_name_Hall           'P 2yb'
loop_
_symmetry_equiv_pos_site_id
_symmetry_equiv_pos_as_xyz
1 x,y,z
2 -x,1/2+y,-z
_cell_length_a                   7.3761(5)
_cell_length_b                   17.7987(15)
_cell_length_c                   9.5359(9)
_cell_angle_alpha                90
_cell_angle_beta                 98.633(6)
_cell_angle_gamma                90
_cell_volume                     1237.74
_exptl_crystal_colour            colorless
_exptl_crystal_description       plate
_cell_formula_units_Z            2
loop_
_atom_site_label
_atom_site_type_symbol
_atom_site_fract_x
_atom_site_fract_y
_atom_site_fract_z
C1 C 0.6489(4) 0.52856(19) 0.8421(3)
C2 C 1.3114(5) 0.7243(2) 0.1628(4)
H1 H 1.3864 0.6827 0.1578
C3 C 1.1634(5) 0.72816(19) 0.2381(4)
C4 C 1.0935(5) 0.80009(19) 0.2169(4)
C5 C 0.9420(5) 0.83268(19) 0.2835(4)
H2 H 0.8518 0.8552 0.2112
H3 H 0.9898 0.8717 0.3500
C6 C 0.8506(4) 0.77072(19) 0.3621(4)
H4 H 0.7714 0.7413 0.2906
C7 C 0.9917(4) 0.71553(18) 0.4456(4)
C8 C 1.0901(5) 0.67298(19) 0.3358(4)
H5 H 1.1903 0.6434 0.3852
H6 H 1.0045 0.6390 0.2808
C9 C 1.1353(4) 0.75763(19) 0.5490(4)
H7 H 1.1949 0.7944 0.4981
H8 H 1.2247 0.7227 0.5941
H9 H 1.0765 0.7822 0.6196
C10 C 0.8852(4) 0.65724(17) 0.5240(4)
H10 H 0.7974 0.6329 0.4506
C11 C 0.7699(4) 0.69600(17) 0.6258(4)
H11 H 0.8522 0.7241 0.6974
C12 C 0.6348(4) 0.75105(19) 0.5421(4)
H12 H 0.5455 0.7229 0.4777
H13 H 0.5694 0.7778 0.6076
C13 C 0.7280(4) 0.80739(19) 0.4580(4)
H14 H 0.8015 0.8411 0.5233
H15 H 0.6351 0.8372 0.4003
C14 C 1.0058(4) 0.59435(18) 0.5977(4)
H16 H 1.0669 0.5689 0.5279
H17 H 1.0996 0.6165 0.6677
C15 C 0.8982(5) 0.53640(18) 0.6710(4)
H18 H 0.9820 0.4995 0.7194
H19 H 0.8120 0.5104 0.6006
C16 C 0.7939(4) 0.57543(18) 0.7785(4)
C17 C 0.6696(4) 0.63606(18) 0.7002(4)
H20 H 0.5870 0.6101 0.6256
C18 C 0.9323(5) 0.6083(2) 0.9007(4)
H21 H 0.8671 0.6319 0.9686
H22 H 1.0084 0.6447 0.8635
H23 H 1.0076 0.5686 0.9461
C19 C 0.5509(5) 0.6613(2) 0.8119(4)
H24 H 0.6100 0.7018 0.8697
H25 H 0.4313 0.6782 0.7666
C20 C 0.5337(5) 0.5909(2) 0.9019(4)
H26 H 0.4065 0.5756 0.8946
H27 H 0.5806 0.6006 1.0008
C21 C 0.5258(5) 0.4789(2) 0.7372(4)
H28 H 0.4558 0.5099 0.6664
H29 H 0.4440 0.4509 0.7869
H30 H 0.6002 0.4448 0.6925
N1 N 1.3272(4) 0.78973(16) 0.0995(4)
H31 H 1.4081 0.8006 0.0465
N2 N 1.1950(4) 0.83677(16) 0.1320(3)
H32 H 1.1785 0.8824 0.1033
O1 O 0.7408(3) 0.47954(13) 0.9527(2)
H33 H 0.6707 0.4698 1.0093
C22 C 0.3595(4) 0.38350(19) 0.0948(4)
C23 C 0.1871(4) 0.3849(2) 0.1504(4)
H34 H 0.1075 0.3445 0.1300
C24 C 0.1359(5) 0.4407(2) 0.2289(4)
C25 C -0.0437(4) 0.4511(2) 0.2777(4)
H35 H -0.1258 0.4119 0.2395
H36 H -0.0940 0.4990 0.2460
H37 H -0.0276 0.4492 0.3795
N3 N 0.4865(4) 0.43781(16) 0.1340(3)
O2 O 0.2530(3) 0.49993(15) 0.2688(3)
O3 O 0.5305(3) 0.44318(17) 0.3978(3)
O4 O 0.5456(4) 0.55848(16) 0.2606(3)
O5 O 0.3842(3) 0.33521(14) 0.0044(3)
S1 S 0.47177(10) 0.48502(5) 0.27209(9)
loop_
_geom_bond_atom_site_label_1
_geom_bond_atom_site_label_2
_geom_bond_site_symmetry_1
_geom_bond_site_symmetry_2
C1 C16 1_555 1_555
C2 H1 1_555 1_555
C3 C2 1_555 1_555
C4 C3 1_555 1_555
C5 C4 1_555 1_555
H2 C5 1_555 1_555
H3 C5 1_555 1_555
C6 C5 1_555 1_555
H4 C6 1_555 1_555
C7 C6 1_555 1_555
C8 C3 1_555 1_555
H5 C8 1_555 1_555
H6 C8 1_555 1_555
C9 C7 1_555 1_555
H7 C9 1_555 1_555
H8 C9 1_555 1_555
H9 C9 1_555 1_555
C10 C7 1_555 1_555
H10 C10 1_555 1_555
C11 C10 1_555 1_555
H11 C11 1_555 1_555
C12 C11 1_555 1_555
H12 C12 1_555 1_555
H13 C12 1_555 1_555
C13 C6 1_555 1_555
H14 C13 1_555 1_555
H15 C13 1_555 1_555
C14 C10 1_555 1_555
H16 C14 1_555 1_555
H17 C14 1_555 1_555
C15 C14 1_555 1_555
H18 C15 1_555 1_555
H19 C15 1_555 1_555
C16 C15 1_555 1_555
C17 C11 1_555 1_555
H20 C17 1_555 1_555
C18 C16 1_555 1_555
H21 C18 1_555 1_555
H22 C18 1_555 1_555
H23 C18 1_555 1_555
C19 C17 1_555 1_555
H24 C19 1_555 1_555
H25 C19 1_555 1_555
C20 C1 1_555 1_555
H26 C20 1_555 1_555
H27 C20 1_555 1_555
C21 C1 1_555 1_555
H28 C21 1_555 1_555
H29 C21 1_555 1_555
H30 C21 1_555 1_555
N1 C2 1_555 1_555
H31 N1 1_555 1_555
N2 C4 1_555 1_555
H32 N2 1_555 1_555
O1 C1 1_555 1_555
H33 O1 1_555 1_555
C22 C23 1_555 1_555
C23 H34 1_555 1_555
C24 C23 1_555 1_555
C25 C24 1_555 1_555
H35 C25 1_555 1_555
H36 C25 1_555 1_555
H37 C25 1_555 1_555
N3 C22 1_555 1_555
O2 C24 1_555 1_555
O3 S1 1_555 1_555
O4 S1 1_555 1_555
O5 C22 1_555 1_555
S1 N3 1_555 1_555
C7 C8 1_555 1_555
C12 C13 1_555 1_555
C16 C17 1_555 1_555
C19 C20 1_555 1_555
N1 N2 1_555 1_555
O2 S1 1_555 1_555

#END
