
#######################################################################
#
#                 Cambridge Crystallographic Data Centre
#                                CCDC 
#
#######################################################################
#
# If this CIF has been generated from an entry in the Cambridge 
# Structural Database, then it will include bibliographic, chemical, 
# crystal, experimental, refinement or atomic coordinate data resulting 
# from the CCDC's data processing and validation procedures.
#
#######################################################################

data_EYAZAH
_chemical_name_common            
'O-(4,8-dimethyl-12-oxo-11,14-dioxatetracyclo[6.5.1.0$1,10!.0$3,7!]tetradecan-5-yl) O-phenyl carbonothioate'
_chemical_formula_moiety         'C21 H24 O5 S1'
_chemical_name_systematic        
'O-((3aS,4aS,5S,6S,7aR,8R,9aS)-5,8-dimethyl-2-oxodecahydro-4H-3a,8-epoxyazuleno[6,5-b]furan-6-yl) O-phenyl carbonothioate'
_symmetry_cell_setting           orthorhombic
_symmetry_space_group_name_H-M   'P 21 21 21'
_symmetry_Int_Tables_number      19
_space_group_name_Hall           'P 2ac 2ab'
loop_
_symmetry_equiv_pos_site_id
_symmetry_equiv_pos_as_xyz
1 x,y,z
2 1/2+x,1/2-y,-z
3 -x,1/2+y,1/2-z
4 1/2-x,-y,1/2+z
_cell_length_a                   10.2408(11)
_cell_length_b                   11.0014(12)
_cell_length_c                   17.5608(19)
_cell_angle_alpha                90
_cell_angle_beta                 90
_cell_angle_gamma                90
_cell_volume                     1978.45
_exptl_crystal_colour            colorless
_exptl_crystal_description       block
_chemical_melting_point          '111-112 deg.C'
_cell_formula_units_Z            4
loop_
_atom_site_label
_atom_site_type_symbol
_atom_site_fract_x
_atom_site_fract_y
_atom_site_fract_z
C1 C 0.57762(16) 0.49869(16) 0.87743(11)
C2 C 0.57925(17) 0.56365(15) 0.95270(10)
H1 H 0.6574 0.5438 0.9813
H2 H 0.5033 0.5425 0.9829
C3 C 0.57728(14) 0.69743(14) 0.93113(8)
C4 C 0.63596(15) 0.69807(14) 0.85039(8)
H3 H 0.7289 0.7193 0.8508
C5 C 0.63827(15) 0.78403(14) 0.98824(8)
H4 H 0.7317 0.7697 0.9897
H5 H 0.6036 0.7660 1.0384
C6 C 0.61403(14) 0.91972(13) 0.97050(8)
H6 H 0.5863 0.9554 1.0190
C7 C 0.49909(13) 0.94528(13) 0.91437(8)
H7 H 0.4239 0.9692 0.9455
C8 C 0.45524(14) 0.83668(13) 0.86567(8)
C9 C 0.55536(17) 0.79025(15) 0.80696(8)
H8 H 0.5118 0.7525 0.7640
H9 H 0.6097 0.8562 0.7886
C10 C 0.32227(16) 0.86043(17) 0.83118(11)
H10 H 0.2943 0.7900 0.8033
H11 H 0.3275 0.9288 0.7973
H12 H 0.2607 0.8775 0.8710
C11 C 0.54091(15) 1.05904(14) 0.86886(9)
H13 H 0.5648 1.0375 0.8171
H14 H 0.4710 1.1184 0.8673
C12 C 0.65882(14) 1.10889(13) 0.91230(9)
H15 H 0.6297 1.1617 0.9539
C13 C 0.73101(14) 0.99820(15) 0.94434(8)
H16 H 0.7797 1.0239 0.9896
C14 C 0.82727(16) 0.94292(16) 0.88778(10)
H17 H 0.7835 0.9272 0.8405
H18 H 0.8610 0.8682 0.9080
H19 H 0.8979 0.9986 0.8793
C15 C 0.82368(15) 1.25608(14) 0.88339(9)
C16 C 0.99346(16) 1.37429(15) 0.82906(9)
C17 C 1.11113(18) 1.32484(18) 0.84881(11)
H20 H 1.1174 1.2427 0.8609
C18 C 1.22010(18) 1.3978(2) 0.85060(11)
H21 H 1.3005 1.3652 0.8643
C19 C 1.21047(19) 1.5184(2) 0.83222(11)
H22 H 1.2844 1.5674 0.8335
C20 C 1.0923(2) 1.56715(19) 0.81203(11)
H23 H 1.0864 1.6492 0.7997
C21 C 0.98103(19) 1.49440(17) 0.80984(10)
H24 H 0.9006 1.5265 0.7957
O1 O 0.61388(12) 0.57617(11) 0.82103(7)
O2 O 0.55046(14) 0.39499(11) 0.86453(9)
O3 O 0.44433(9) 0.73284(9) 0.91701(6)
O4 O 0.73696(10) 1.17790(10) 0.85815(6)
O5 O 0.88340(12) 1.29900(12) 0.82118(7)
S1 S 0.85420(5) 1.29567(5) 0.97114(2)
loop_
_geom_bond_atom_site_label_1
_geom_bond_atom_site_label_2
_geom_bond_site_symmetry_1
_geom_bond_site_symmetry_2
C1 C2 1_555 1_555
C2 H1 1_555 1_555
H2 C2 1_555 1_555
C3 C2 1_555 1_555
C4 C3 1_555 1_555
H3 C4 1_555 1_555
C5 C3 1_555 1_555
H4 C5 1_555 1_555
H5 C5 1_555 1_555
C6 C5 1_555 1_555
H6 C6 1_555 1_555
C7 C6 1_555 1_555
H7 C7 1_555 1_555
C8 C7 1_555 1_555
C9 C4 1_555 1_555
H8 C9 1_555 1_555
H9 C9 1_555 1_555
C10 C8 1_555 1_555
H10 C10 1_555 1_555
H11 C10 1_555 1_555
H12 C10 1_555 1_555
C11 C7 1_555 1_555
H13 C11 1_555 1_555
H14 C11 1_555 1_555
C12 C11 1_555 1_555
H15 C12 1_555 1_555
C13 C6 1_555 1_555
H16 C13 1_555 1_555
C14 C13 1_555 1_555
H17 C14 1_555 1_555
H18 C14 1_555 1_555
H19 C14 1_555 1_555
C15 O4 1_555 1_555
C16 C17 1_555 1_555
C17 H20 1_555 1_555
C18 C17 1_555 1_555
H21 C18 1_555 1_555
C19 C18 1_555 1_555
H22 C19 1_555 1_555
C20 C19 1_555 1_555
H23 C20 1_555 1_555
C21 C16 1_555 1_555
H24 C21 1_555 1_555
O1 C1 1_555 1_555
O2 C1 1_555 1_555
O3 C3 1_555 1_555
O4 C12 1_555 1_555
O5 C15 1_555 1_555
S1 C15 1_555 1_555
C4 O1 1_555 1_555
C8 C9 1_555 1_555
C8 O3 1_555 1_555
C12 C13 1_555 1_555
C16 O5 1_555 1_555
C20 C21 1_555 1_555

#END
