
#######################################################################
#
#                 Cambridge Crystallographic Data Centre
#                                CCDC 
#
#######################################################################
#
# If this CIF has been generated from an entry in the Cambridge 
# Structural Database, then it will include bibliographic, chemical, 
# crystal, experimental, refinement or atomic coordinate data resulting 
# from the CCDC's data processing and validation procedures.
#
#######################################################################

data_EYECES
_chemical_formula_moiety         'C23 H17 F3 N4 O4'
_chemical_name_systematic        
1-(4-(5-(3-phenyl-4-(trifluoromethyl)-1,2-oxazol-5-yl)-1,2,4-oxadiazol-3-yl)benzyl)azetidinium-3-carboxylate
_chemical_properties_biological  
'Sphingosine-1-phosphate Receptor 1 (S1P1) agonist'
_symmetry_cell_setting           monoclinic
_symmetry_space_group_name_H-M   'P 21/c'
_symmetry_Int_Tables_number      14
_space_group_name_Hall           '-P 2ybc'
loop_
_symmetry_equiv_pos_site_id
_symmetry_equiv_pos_as_xyz
1 x,y,z
2 -x,1/2+y,1/2-z
3 -x,-y,-z
4 x,1/2-y,1/2+z
_cell_length_a                   10.925(2)
_cell_length_b                   5.8473(13)
_cell_length_c                   33.106(6)
_cell_angle_alpha                90
_cell_angle_beta                 97.979(16)
_cell_angle_gamma                90
_cell_volume                     2094.4
_exptl_crystal_colour            colorless
_exptl_crystal_description       needle
_cell_formula_units_Z            4
_exptl_crystal_recrystallization_method 'isopropyl acetate'
loop_
_atom_site_label
_atom_site_type_symbol
_atom_site_fract_x
_atom_site_fract_y
_atom_site_fract_z
C1 C 0.9953(4) 0.1427(8) 0.55651(14)
H1 H 1.0627 0.2319 0.5670
C2 C 0.8777(5) -0.1993(7) 0.55689(14)
H2 H 0.8665 -0.3438 0.5676
C3 C 0.5395(5) 0.8355(7) 0.35167(13)
C4 C 0.8096(4) 0.0961(8) 0.50903(13)
C5 C 1.1053(4) -0.2046(7) 0.68483(13)
H3 H 1.1379 -0.0976 0.7060
H4 H 1.1696 -0.3070 0.6783
C6 C 0.9170(4) -0.1914(7) 0.65885(12)
H5 H 0.8734 -0.2865 0.6375
H6 H 0.8618 -0.0786 0.6680
C7 C 0.9886(4) -0.3292(7) 0.69384(12)
H7 H 0.9655 -0.2892 0.7205
C8 C 0.4525(6) 1.3315(8) 0.28151(16)
H8 H 0.4858 1.4702 0.2746
C9 C 0.9877(4) -0.5834(8) 0.68635(16)
C10 C 0.4664(4) 0.9880(8) 0.32143(12)
C11 C 0.9792(4) -0.0701(8) 0.57307(13)
C12 C 0.9116(5) 0.2253(7) 0.52425(14)
H9 H 0.9243 0.3674 0.5129
C13 C 0.7933(4) -0.1187(8) 0.52548(14)
H10 H 0.7255 -0.2077 0.5152
C14 C 0.5172(4) 1.1955(9) 0.31096(14)
H11 H 0.5944 1.2414 0.3239
C15 C 0.2883(4) 1.0572(10) 0.27219(14)
H12 H 0.2115 1.0112 0.2590
C16 C 0.3526(5) 0.9205(8) 0.30172(14)
H13 H 0.3190 0.7817 0.3084
C17 C 0.3388(6) 1.2637(10) 0.26217(14)
H14 H 0.2955 1.3566 0.2423
C18 C 0.6094(5) 0.5865(8) 0.39900(13)
C19 C 0.5043(5) 0.6869(8) 0.38213(13)
C20 C 0.6410(5) 0.4086(9) 0.42966(15)
C21 C 1.0686(4) -0.1594(7) 0.60830(13)
H15 H 1.0710 -0.3250 0.6069
H16 H 1.1508 -0.1026 0.6060
N1 N 1.0342(3) -0.0902(5) 0.64768(10)
H17 H 1.0349 0.0766 0.6506
C22 C 0.3815(6) 0.6646(11) 0.39488(17)
C23 C 0.7225(5) 0.1888(9) 0.47553(14)
O1 O 0.7053(3) 0.6645(6) 0.38175(10)
O2 O 0.5660(3) 0.2273(7) 0.42866(10)
O3 O 1.0329(3) -0.6490(5) 0.65494(11)
O4 O 0.9388(4) -0.7117(6) 0.70855(10)
N2 N 0.7373(4) 0.3966(6) 0.45674(12)
N3 N 0.6599(4) 0.8236(7) 0.35114(11)
N4 N 0.6227(5) 0.0793(7) 0.45972(13)
F1 F 0.3201(3) 0.8614(7) 0.39356(9)
F2 F 0.3883(3) 0.5882(6) 0.43327(9)
F3 F 0.3082(3) 0.5182(6) 0.37235(10)
loop_
_geom_bond_atom_site_label_1
_geom_bond_atom_site_label_2
_geom_bond_site_symmetry_1
_geom_bond_site_symmetry_2
C1 H1 1_555 1_555
C2 H2 1_555 1_555
C3 C10 1_555 1_555
C4 C12 1_555 1_555
C5 H3 1_555 1_555
H4 C5 1_555 1_555
C6 H5 1_555 1_555
H6 C6 1_555 1_555
C7 C5 1_555 1_555
H7 C7 1_555 1_555
C8 H8 1_555 1_555
C9 C7 1_555 1_555
C10 C14 1_555 1_555
C11 C1 1_555 1_555
C12 C1 1_555 1_555
H9 C12 1_555 1_555
C13 C2 1_555 1_555
H10 C13 1_555 1_555
C14 C8 1_555 1_555
H11 C14 1_555 1_555
C15 H12 1_555 1_555
C16 C10 1_555 1_555
H13 C16 1_555 1_555
C17 C8 1_555 1_555
H14 C17 1_555 1_555
C18 C19 1_555 1_555
C19 C3 1_555 1_555
C20 C18 1_555 1_555
C21 C11 1_555 1_555
H15 C21 1_555 1_555
H16 C21 1_555 1_555
N1 C5 1_555 1_555
H17 N1 1_555 1_555
C22 C19 1_555 1_555
C23 C4 1_555 1_555
O1 C18 1_555 1_555
O2 C20 1_555 1_555
O3 C9 1_555 1_555
O4 C9 1_555 1_555
N2 C20 1_555 1_555
N3 C3 1_555 1_555
N4 C23 1_555 1_555
F1 C22 1_555 1_555
F2 C22 1_555 1_555
F3 C22 1_555 1_555
C2 C11 1_555 1_555
C4 C13 1_555 1_555
C6 C7 1_555 1_555
C6 N1 1_555 1_555
C15 C16 1_555 1_555
C15 C17 1_555 1_555
C21 N1 1_555 1_555
C23 N2 1_555 1_555
O1 N3 1_555 1_555
O2 N4 1_555 1_555

#END
