
#######################################################################
#
#                 Cambridge Crystallographic Data Centre
#                                CCDC 
#
#######################################################################
#
# If this CIF has been generated from an entry in the Cambridge 
# Structural Database, then it will include bibliographic, chemical, 
# crystal, experimental, refinement or atomic coordinate data resulting 
# from the CCDC's data processing and validation procedures.
#
#######################################################################

data_EYEDAN
_chemical_formula_moiety         'C32 H40 N4 Te2 4+,4(Br1 1-),3(H2 O1)'
_chemical_name_systematic        
"bis(\m~2~-N,N'-bis(2-Phenylformyl)ethylene-1,2-diammonium-C,C')-di-tellurium tetrabromide trihydrate"
_symmetry_cell_setting           monoclinic
_symmetry_space_group_name_H-M   'P 2/n'
_symmetry_Int_Tables_number      13
_space_group_name_Hall           '-P 2yac'
loop_
_symmetry_equiv_pos_site_id
_symmetry_equiv_pos_as_xyz
1 x,y,z
2 1/2+x,-y,1/2+z
3 -x,-y,-z
4 1/2-x,y,1/2-z
_cell_length_a                   10.890(5)
_cell_length_b                   7.414(4)
_cell_length_c                   24.334(13)
_cell_angle_alpha                90
_cell_angle_beta                 96.43
_cell_angle_gamma                90
_cell_volume                     1952.33
_cell_formula_units_Z            2
_exptl_crystal_recrystallization_method water/methanol(1:1)
loop_
_atom_site_label
_atom_site_type_symbol
_atom_site_fract_x
_atom_site_fract_y
_atom_site_fract_z
Te1 Te 0.73376(3) -0.76802(4) 0.103335(15)
N1 N 1.0647(3) -0.7333(5) 0.15904(14)
H1 H 1.1344 -0.7869 0.1506
H2 H 1.0063 -0.8191 0.1592
N2 N 0.5085(3) -0.5244(5) 0.20532(14)
H3 H 0.4527 -0.4345 0.2040
H4 H 0.4777 -0.6121 0.1822
C1 C 0.8662(4) -0.7560(6) 0.04580(18)
C2 C 0.8353(5) -0.8264(7) -0.0072(2)
H5 H 0.7561 -0.8709 -0.0172
C3 C 0.9197(6) -0.8308(7) -0.0445(2)
H6 H 0.8971 -0.8769 -0.0797
C4 C 1.0399(5) -0.7667(7) -0.0304(2)
H7 H 1.0979 -0.7705 -0.0556
C5 C 1.0701(5) -0.6976(7) 0.0221(2)
H8 H 1.1501 -0.6564 0.0321
C6 C 0.9854(4) -0.6875(6) 0.06019(17)
C7 C 1.0236(5) -0.5974(6) 0.11459(18)
H9 H 0.9547 -0.5285 0.1256
H10 H 1.0907 -0.5142 0.1105
C8 C 1.0885(4) -0.6534(7) 0.21633(19)
H11 H 1.1407 -0.5496 0.2149
H12 H 1.1304 -0.7392 0.2414
C9 C 0.6557(4) -0.5083(6) 0.08523(18)
C10 C 0.6431(4) -0.4471(7) 0.0316(2)
H13 H 0.6713 -0.5183 0.0042
C11 C 0.5888(5) -0.2803(7) 0.0175(2)
H14 H 0.5832 -0.2390 -0.0188
C12 C 0.5441(5) -0.1789(7) 0.0575(2)
H15 H 0.5060 -0.0692 0.0481
C13 C 0.5546(4) -0.2365(7) 0.1113(2)
H16 H 0.5240 -0.1656 0.1382
C14 C 0.6119(4) -0.4037(6) 0.12610(19)
C15 C 0.6270(4) -0.4549(7) 0.18698(18)
H17 H 0.6903 -0.5468 0.1934
H18 H 0.6541 -0.3501 0.2089
C16 C 0.9702(4) -0.5970(7) 0.23731(18)
H19 H 0.9305 -0.5065 0.2133
H20 H 0.9163 -0.6995 0.2368
N2C N 0.9915(3) -0.5244(5) 0.29468(14)
H3C H 1.0473 -0.4345 0.2960
H4C H 1.0223 -0.6121 0.3178
C15C C 0.8730(4) -0.4549(7) 0.31302(18)
C14C C 0.8881(4) -0.4037(6) 0.37390(19)
C9C C 0.8443(4) -0.5083(6) 0.41477(18)
Te1C Te 0.76624(3) -0.76802(4) 0.396665(15)
C1C C 0.6338(4) -0.7560(6) 0.45420(18)
C2C C 0.6647(5) -0.8264(7) 0.5072(2)
H5C H 0.7439 -0.8709 0.5172
C3C C 0.5803(6) -0.8308(7) 0.5445(2)
H6C H 0.6029 -0.8769 0.5797
C4C C 0.4601(5) -0.7667(7) 0.5304(2)
H7C H 0.4021 -0.7705 0.5556
C5C C 0.4299(5) -0.6976(7) 0.4779(2)
H8C H 0.3499 -0.6564 0.4679
C6C C 0.5146(4) -0.6875(6) 0.43981(17)
C7C C 0.4764(5) -0.5974(6) 0.38541(18)
N1C N 0.4353(3) -0.7333(5) 0.34096(14)
H1C H 0.3656 -0.7869 0.3494
H2C H 0.4937 -0.8191 0.3408
C8C C 0.4115(4) -0.6534(7) 0.28367(19)
H11C H 0.3593 -0.5496 0.2851
H12C H 0.3696 -0.7392 0.2586
C16C C 0.5298(4) -0.5970(7) 0.26269(18)
H19C H 0.5695 -0.5065 0.2867
H20C H 0.5837 -0.6995 0.2632
H9C H 0.5453 -0.5285 0.3744
H10C H 0.4093 -0.5142 0.3895
C10C C 0.8569(4) -0.4471(7) 0.4684(2)
H13C H 0.8287 -0.5183 0.4958
C11C C 0.9112(5) -0.2803(7) 0.4825(2)
H14C H 0.9168 -0.2390 0.5188
C12C C 0.9559(5) -0.1789(7) 0.4425(2)
H15C H 0.9940 -0.0692 0.4519
C13C C 0.9454(4) -0.2365(7) 0.3887(2)
H16C H 0.9760 -0.1656 0.3618
H17C H 0.8097 -0.5468 0.3066
H18C H 0.8459 -0.3501 0.2911
Br1 Br 1.34315(5) -0.84629(8) 0.13915(2)
Br2 Br 0.94886(7) -1.13166(8) 0.18556(3)
O2 O 0.3404(19) -0.238(3) 0.2151(11)
O1? O 0.304(3) -0.284(3) 0.196(2)
O3? O 0.312(3) -0.265(6) 0.1833(13)
O4? O 0.723(3) -0.9035(12) 0.244(2)
loop_
_geom_bond_atom_site_label_1
_geom_bond_atom_site_label_2
_geom_bond_site_symmetry_1
_geom_bond_site_symmetry_2
Te1 C1 1_555 1_555
N1 H1 1_555 1_555
H2 N1 1_555 1_555
N2 H3 1_555 1_555
H4 N2 1_555 1_555
C1 C2 1_555 1_555
C2 H5 1_555 1_555
C3 C2 1_555 1_555
H6 C3 1_555 1_555
C4 C3 1_555 1_555
H7 C4 1_555 1_555
C5 C4 1_555 1_555
H8 C5 1_555 1_555
C6 C1 1_555 1_555
C7 N1 1_555 1_555
H9 C7 1_555 1_555
H10 C7 1_555 1_555
C8 N1 1_555 1_555
H11 C8 1_555 1_555
H12 C8 1_555 1_555
C9 Te1 1_555 1_555
C10 C9 1_555 1_555
H13 C10 1_555 1_555
C11 C10 1_555 1_555
H14 C11 1_555 1_555
C12 C11 1_555 1_555
H15 C12 1_555 1_555
C13 C12 1_555 1_555
H16 C13 1_555 1_555
C14 C9 1_555 1_555
C15 N2 1_555 1_555
H17 C15 1_555 1_555
H18 C15 1_555 1_555
C16 C8 1_555 1_555
H19 C16 1_555 1_555
H20 C16 1_555 1_555
N2C C16 1_555 1_555
H3C N2C 1_555 1_555
H4C N2C 1_555 1_555
C15C N2C 1_555 1_555
C14C C15C 1_555 1_555
C9C C14C 1_555 1_555
Te1C C9C 1_555 1_555
C1C Te1C 1_555 1_555
C2C C1C 1_555 1_555
H5C C2C 1_555 1_555
C3C C2C 1_555 1_555
H6C C3C 1_555 1_555
C4C C3C 1_555 1_555
H7C C4C 1_555 1_555
C5C C4C 1_555 1_555
H8C C5C 1_555 1_555
C6C C1C 1_555 1_555
C7C C6C 1_555 1_555
N1C C7C 1_555 1_555
H1C N1C 1_555 1_555
H2C N1C 1_555 1_555
C8C N1C 1_555 1_555
H11C C8C 1_555 1_555
H12C C8C 1_555 1_555
C16C N2 1_555 1_555
H19C C16C 1_555 1_555
H20C C16C 1_555 1_555
H9C C7C 1_555 1_555
H10C C7C 1_555 1_555
C10C C9C 1_555 1_555
H13C C10C 1_555 1_555
C11C C10C 1_555 1_555
H14C C11C 1_555 1_555
C12C C11C 1_555 1_555
H15C C12C 1_555 1_555
C13C C14C 1_555 1_555
H16C C13C 1_555 1_555
H17C C15C 1_555 1_555
H18C C15C 1_555 1_555
C5 C6 1_555 1_555
C6 C7 1_555 1_555
C13 C14 1_555 1_555
C14 C15 1_555 1_555
C5C C6C 1_555 1_555
C8C C16C 1_555 1_555
C12C C13C 1_555 1_555

#END
