
#######################################################################
#
#                 Cambridge Crystallographic Data Centre
#                                CCDC 
#
#######################################################################
#
# If this CIF has been generated from an entry in the Cambridge 
# Structural Database, then it will include bibliographic, chemical, 
# crystal, experimental, refinement or atomic coordinate data resulting 
# from the CCDC's data processing and validation procedures.
#
#######################################################################

data_EYEJEY
_chemical_formula_moiety         'C13 H17 N1 O3 S1'
_chemical_name_systematic        
7-(Phenylsulfonyl)octahydrofuro[2,3-b]pyridine
_symmetry_cell_setting           monoclinic
_symmetry_space_group_name_H-M   'P 21/c'
_symmetry_Int_Tables_number      14
_space_group_name_Hall           '-P 2ybc'
loop_
_symmetry_equiv_pos_site_id
_symmetry_equiv_pos_as_xyz
1 x,y,z
2 -x,1/2+y,1/2-z
3 -x,-y,-z
4 x,1/2-y,1/2+z
_cell_length_a                   13.6992(7)
_cell_length_b                   8.8534(4)
_cell_length_c                   11.0552(6)
_cell_angle_alpha                90
_cell_angle_beta                 103.4170(10)
_cell_angle_gamma                90
_cell_volume                     1304.23
_exptl_crystal_colour            colorless
_cell_formula_units_Z            4
loop_
_atom_site_label
_atom_site_type_symbol
_atom_site_fract_x
_atom_site_fract_y
_atom_site_fract_z
S1 S 0.73343(4) 1.14578(5) 0.64271(4)
O1 O 0.76293(10) 0.80786(15) 0.54654(13)
O2 O 0.69599(12) 1.29572(15) 0.61462(14)
O3 O 0.72705(12) 1.07794(17) 0.75786(12)
N1 N 0.67124(11) 1.03680(16) 0.53124(13)
C1 C 0.74348(18) 0.6505(2) 0.5220(3)
H1 H 0.7708 0.5905 0.5979
H2 H 0.7760 0.6161 0.4557
C2 C 0.66969(13) 0.87576(19) 0.55342(17)
H3 H 0.6579 0.8581 0.6383
C3 C 0.86006(15) 1.1461(2) 0.63317(17)
C4 C 0.89066(17) 1.2431(2) 0.5501(2)
H4 H 0.8443 1.3105 0.5001
C5 C 0.98987(19) 1.2395(3) 0.5416(2)
H5 H 1.0118 1.3047 0.4849
C6 C 1.05659(19) 1.1429(3) 0.6142(3)
H6 H 1.1247 1.1420 0.6082
C7 C 0.92753(17) 1.0474(3) 0.7051(2)
H7 H 0.9062 0.9801 0.7608
C8 C 1.02585(19) 1.0473(3) 0.6955(3)
H8 H 1.0727 0.9806 0.7455
C9 C 0.66616(15) 1.0867(2) 0.40248(16)
H9 H 0.7288 1.0586 0.3780
H10 H 0.6589 1.1979 0.3969
C10 C 0.57776(15) 1.0128(2) 0.31633(17)
H11 H 0.5751 1.0439 0.2296
H12 H 0.5149 1.0462 0.3378
C11 C 0.58622(16) 0.8428(2) 0.32666(18)
H13 H 0.6474 0.8094 0.3011
H14 H 0.5276 0.7961 0.2695
C12 C 0.59101(14) 0.7895(2) 0.45872(17)
H15 H 0.5237 0.7978 0.4787
C13 C 0.63173(16) 0.6289(2) 0.4815(2)
H16 H 0.6054 0.5786 0.5473
H17 H 0.6137 0.5678 0.4045
loop_
_geom_bond_atom_site_label_1
_geom_bond_atom_site_label_2
_geom_bond_site_symmetry_1
_geom_bond_site_symmetry_2
S1 O2 1_555 1_555
O1 C1 1_555 1_555
O3 S1 1_555 1_555
N1 S1 1_555 1_555
C1 H1 1_555 1_555
H2 C1 1_555 1_555
C2 O1 1_555 1_555
H3 C2 1_555 1_555
C3 S1 1_555 1_555
C4 C3 1_555 1_555
H4 C4 1_555 1_555
C5 C4 1_555 1_555
H5 C5 1_555 1_555
C6 C5 1_555 1_555
H6 C6 1_555 1_555
C7 C3 1_555 1_555
H7 C7 1_555 1_555
C8 C6 1_555 1_555
H8 C8 1_555 1_555
C9 N1 1_555 1_555
H9 C9 1_555 1_555
H10 C9 1_555 1_555
C10 C9 1_555 1_555
H11 C10 1_555 1_555
H12 C10 1_555 1_555
C11 C10 1_555 1_555
H13 C11 1_555 1_555
H14 C11 1_555 1_555
C12 C2 1_555 1_555
H15 C12 1_555 1_555
C13 C1 1_555 1_555
H16 C13 1_555 1_555
H17 C13 1_555 1_555
N1 C2 1_555 1_555
C7 C8 1_555 1_555
C11 C12 1_555 1_555
C12 C13 1_555 1_555

#END
