
#######################################################################
#
#                 Cambridge Crystallographic Data Centre
#                                CCDC 
#
#######################################################################
#
# If this CIF has been generated from an entry in the Cambridge 
# Structural Database, then it will include bibliographic, chemical, 
# crystal, experimental, refinement or atomic coordinate data resulting 
# from the CCDC's data processing and validation procedures.
#
#######################################################################

data_EYENOM
_chemical_formula_moiety         'C30 H33 Cl1 N4 O3,H2 O1'
_chemical_name_systematic        
'2,4-Dimethyl-3-pentyl (R)-3-(2-benzoyl-1-benzylhydrazinyl)-3-(3-chlorophenyl)-2-diazopropanoate monohydrate'
_symmetry_cell_setting           monoclinic
_symmetry_space_group_name_H-M   'P 21'
_symmetry_Int_Tables_number      4
_space_group_name_Hall           'P 2yb'
loop_
_symmetry_equiv_pos_site_id
_symmetry_equiv_pos_as_xyz
1 x,y,z
2 -x,1/2+y,-z
_cell_length_a                   9.48719(17)
_cell_length_b                   12.8846(3)
_cell_length_c                   12.0111(3)
_cell_angle_alpha                90
_cell_angle_beta                 96.4486(10)
_cell_angle_gamma                90
_cell_volume                     1458.93
_exptl_crystal_colour            yellow
_exptl_crystal_description       block
_cell_formula_units_Z            2
_exptl_crystal_recrystallization_method dichloromethane/hexane
loop_
_atom_site_label
_atom_site_type_symbol
_atom_site_fract_x
_atom_site_fract_y
_atom_site_fract_z
Cl1 Cl 0.53043(7) 0.54957(5) 1.20281(5)
O1 O 1.07260(18) 0.57848(13) 0.95453(14)
O2 O 0.79557(18) 0.72267(14) 0.65987(12)
O3 O 0.89358(19) 0.86777(13) 0.74247(13)
N1 N 0.7413(3) 0.55212(19) 0.84808(16)
N2 N 0.9538(2) 0.75245(15) 1.03734(15)
N3 N 0.7722(2) 0.63663(18) 0.84827(15)
N4 N 1.0738(2) 0.75349(17) 0.97695(16)
C1 C 0.6948(3) 0.77190(19) 1.02473(18)
C2 C 0.8391(3) 0.78305(19) 0.74816(19)
C3 C 1.2356(3) 0.6751(2) 0.85889(18)
C4 C 0.5891(3) 0.8477(2) 1.01938(19)
C5 C 0.6763(3) 0.6795(2) 1.08147(18)
C6 C 0.8387(3) 0.7489(2) 0.54974(19)
C7 C 0.9818(3) 0.8199(2) 1.13704(18)
C8 C 1.0858(3) 0.77211(19) 1.22722(18)
C9 C 0.8258(3) 0.78906(19) 0.96442(18)
C10 C 1.2004(3) 0.6241(3) 1.3201(2)
C11 C 1.1205(3) 0.66458(19) 0.93485(18)
C12 C 1.2979(3) 0.5832(2) 0.8271(2)
C13 C 0.7073(3) 0.7870(2) 0.47539(19)
C14 C 0.5529(3) 0.6653(2) 1.13122(19)
C15 C 1.1074(3) 0.6663(2) 1.23467(19)
C16 C 1.4015(3) 0.5855(3) 0.7540(3)
C17 C 1.2775(3) 0.7683(2) 0.8154(3)
C18 C 1.1580(3) 0.8355(3) 1.3077(2)
C19 C 0.7442(3) 0.8085(3) 0.35697(19)
C20 C 1.4425(3) 0.6785(3) 0.7123(2)
C21 C 0.8109(3) 0.73559(19) 0.85256(18)
C22 C 0.4674(3) 0.8312(3) 1.0702(2)
C23 C 1.3809(3) 0.7702(3) 0.7422(3)
C24 C 0.6443(3) 0.8839(3) 0.5222(3)
C25 C 0.9106(3) 0.6519(3) 0.5092(2)
C26 C 0.4473(3) 0.7400(3) 1.1266(2)
C27 C 1.2721(3) 0.6874(3) 1.3990(3)
C28 C 1.0351(3) 0.6190(3) 0.5933(3)
C29 C 1.2508(3) 0.7930(3) 1.3941(3)
C30 C 0.8097(4) 0.5618(3) 0.4815(3)
H3 H 1.102(3) 0.817(3) 0.960(2)
H4 H 0.6009 0.9108 0.9807
H5 H 0.7471 0.6270 1.0860
H6 H 0.9098 0.8065 0.5591
H7 H 0.8913 0.8337 1.1682
H8 H 1.0198 0.8872 1.1141
H9 H 0.8360 0.8652 0.9516
H10 H 1.2146 0.5511 1.3239
H11 H 1.2693 0.5186 0.8555
H12 H 0.6341 0.7309 0.4711
H13 H 1.0580 0.6218 1.1806
H14 H 1.4439 0.5228 0.7329
H15 H 1.2352 0.8313 0.8358
H16 H 1.1442 0.9085 1.3040
H17 H 0.7690 0.7431 0.3222
H18 H 0.8249 0.8562 0.3605
H19 H 0.6623 0.8397 0.3123
H20 H 1.5137 0.6799 0.6626
H21 H 0.3964 0.8835 1.0663
H22 H 1.4092 0.8344 0.7127
H23 H 0.6254 0.8710 0.5995
H24 H 0.5555 0.9016 0.4764
H25 H 0.7114 0.9415 0.5208
H26 H 0.9506 0.6711 0.4385
H27 H 0.3634 0.7287 1.1612
H28 H 1.3363 0.6583 1.4571
H29 H 1.0974 0.6787 0.6117
H30 H 1.0885 0.5638 0.5607
H31 H 0.9994 0.5933 0.6616
H32 H 1.2991 0.8368 1.4494
H33 H 0.8609 0.5043 0.4508
H34 H 0.7319 0.5841 0.4260
H35 H 0.7710 0.5388 0.5496
O4 O 1.0914(2) 0.96859(14) 0.90990(16)
H1 H 1.041(4) 1.013(4) 0.945(4)
H2 H 1.030(4) 0.950(3) 0.844(3)
loop_
_geom_bond_atom_site_label_1
_geom_bond_atom_site_label_2
_geom_bond_site_symmetry_1
_geom_bond_site_symmetry_2
Cl1 C14 1_555 1_555
O1 C11 1_555 1_555
O2 C2 1_555 1_555
O3 C2 1_555 1_555
O4 H1 1_555 1_555
N1 N3 1_555 1_555
N2 N4 1_555 1_555
N3 C21 1_555 1_555
N4 C11 1_555 1_555
C1 C4 1_555 1_555
C2 C21 1_555 1_555
C3 C11 1_555 1_555
C4 C22 1_555 1_555
C5 C1 1_555 1_555
C6 O2 1_555 1_555
C7 N2 1_555 1_555
C8 C7 1_555 1_555
C9 N2 1_555 1_555
C10 C15 1_555 1_555
C12 C3 1_555 1_555
C13 C6 1_555 1_555
C14 C5 1_555 1_555
C15 C8 1_555 1_555
C16 C12 1_555 1_555
C17 C3 1_555 1_555
C18 C8 1_555 1_555
C19 C13 1_555 1_555
C20 C16 1_555 1_555
C21 C9 1_555 1_555
C22 C26 1_555 1_555
C23 C17 1_555 1_555
C24 C13 1_555 1_555
C25 C6 1_555 1_555
C26 C14 1_555 1_555
C27 C10 1_555 1_555
C28 C25 1_555 1_555
C29 C18 1_555 1_555
C30 C25 1_555 1_555
H2 O4 1_555 1_555
H3 N4 1_555 1_555
H4 C4 1_555 1_555
H5 C5 1_555 1_555
H6 C6 1_555 1_555
H7 C7 1_555 1_555
H8 C7 1_555 1_555
H9 C9 1_555 1_555
H10 C10 1_555 1_555
H11 C12 1_555 1_555
H12 C13 1_555 1_555
H13 C15 1_555 1_555
H14 C16 1_555 1_555
H15 C17 1_555 1_555
H16 C18 1_555 1_555
H17 C19 1_555 1_555
H18 C19 1_555 1_555
H19 C19 1_555 1_555
H20 C20 1_555 1_555
H21 C22 1_555 1_555
H22 C23 1_555 1_555
H23 C24 1_555 1_555
H24 C24 1_555 1_555
H25 C24 1_555 1_555
H26 C25 1_555 1_555
H27 C26 1_555 1_555
H28 C27 1_555 1_555
H29 C28 1_555 1_555
H30 C28 1_555 1_555
H31 C28 1_555 1_555
H32 C29 1_555 1_555
H33 C30 1_555 1_555
H34 C30 1_555 1_555
H35 C30 1_555 1_555
C1 C9 1_555 1_555
C20 C23 1_555 1_555
C27 C29 1_555 1_555

#END
