
#######################################################################
#
#                 Cambridge Crystallographic Data Centre
#                                CCDC 
#
#######################################################################
#
# If this CIF has been generated from an entry in the Cambridge 
# Structural Database, then it will include bibliographic, chemical, 
# crystal, experimental, refinement or atomic coordinate data resulting 
# from the CCDC's data processing and validation procedures.
#
#######################################################################

data_EYESAE
_chemical_formula_moiety         'C23 H21 O3 P1'
_chemical_name_systematic        
'ethyl 2-oxo-3-(triphenylphosphoranylidene)propanoate'
_symmetry_cell_setting           monoclinic
_symmetry_space_group_name_H-M   'P 21/n'
_symmetry_Int_Tables_number      14
_space_group_name_Hall           '-P 2yn'
loop_
_symmetry_equiv_pos_site_id
_symmetry_equiv_pos_as_xyz
1 x,y,z
2 1/2-x,1/2+y,1/2-z
3 -x,-y,-z
4 1/2+x,1/2-y,1/2+z
_cell_length_a                   12.00380(10)
_cell_length_b                   9.02880(10)
_cell_length_c                   19.0573(3)
_cell_angle_alpha                90
_cell_angle_beta                 106.6540(10)
_cell_angle_gamma                90
_cell_volume                     1978.79
_exptl_crystal_colour            colorless
_exptl_crystal_description       prism
_cell_formula_units_Z            4
loop_
_atom_site_label
_atom_site_type_symbol
_atom_site_fract_x
_atom_site_fract_y
_atom_site_fract_z
P1 P 0.74884(4) 0.69600(5) 0.05940(2)
C1 C 0.86858(16) 0.8110(2) 0.08046(10)
H1 H 0.8728 0.8907 0.0504
C2 C 0.95801(15) 0.7822(2) 0.14291(10)
O1 O 0.96315(11) 0.67733(16) 0.18652(7)
C3 C 1.05901(16) 0.8932(2) 0.15925(11)
O2 O 1.06287(14) 1.00163(18) 0.12410(9)
O3 O 1.14245(14) 0.8551(2) 0.21775(10)
C4 C 1.2432(3) 0.9539(4) 0.2387(2)
H2 H 1.2739 0.9662 0.1972
H3 H 1.2182 1.0504 0.2507
C5 C 1.3258(3) 0.9050(6) 0.2945(3)
H4 H 1.3895 0.9737 0.3057
H5 H 1.3520 0.8103 0.2826
H6 H 1.2966 0.8951 0.3362
C6 C 0.68880(15) 0.67376(19) 0.13559(9)
C7 C 0.69580(18) 0.7907(2) 0.18353(11)
H7 H 0.7342 0.8771 0.1775
C8 C 0.6461(2) 0.7797(3) 0.24021(12)
H8 H 0.6502 0.8592 0.2719
C9 C 0.5905(2) 0.6517(3) 0.25001(12)
H9 H 0.5577 0.6444 0.2886
C10 C 0.5833(2) 0.5344(2) 0.20294(12)
H10 H 0.5452 0.4480 0.2095
C11 C 0.63271(18) 0.5450(2) 0.14578(10)
H11 H 0.6282 0.4653 0.1142
C12 C 0.63720(16) 0.7759(2) -0.01572(9)
C13 C 0.52529(17) 0.7968(2) -0.01170(11)
H12 H 0.5080 0.7803 0.0322
C14 C 0.43856(19) 0.8427(3) -0.07320(12)
H13 H 0.3635 0.8584 -0.0703
C15 C 0.4636(2) 0.8646(2) -0.13802(11)
H14 H 0.4048 0.8921 -0.1795
C16 C 0.5748(2) 0.8464(3) -0.14235(11)
H15 H 0.5914 0.8628 -0.1865
C17 C 0.66216(19) 0.8036(2) -0.08105(11)
H16 H 0.7379 0.7934 -0.0837
C18 C 0.77406(17) 0.5124(2) 0.02792(10)
C19 C 0.6931(2) 0.4445(3) -0.02984(12)
H17 H 0.6235 0.4922 -0.0527
C20 C 0.7154(3) 0.3063(3) -0.05349(15)
H18 H 0.6606 0.2613 -0.0922
C21 C 0.8169(3) 0.2352(3) -0.02070(15)
H19 H 0.8321 0.1429 -0.0376
C22 C 0.8961(3) 0.2999(3) 0.03708(18)
H20 H 0.9646 0.2503 0.0605
C23 C 0.8754(2) 0.4387(3) 0.06112(14)
H21 H 0.9305 0.4824 0.1001
loop_
_geom_bond_atom_site_label_1
_geom_bond_atom_site_label_2
_geom_bond_site_symmetry_1
_geom_bond_site_symmetry_2
P1 C1 1_555 1_555
C1 H1 1_555 1_555
C2 C1 1_555 1_555
O1 C2 1_555 1_555
C3 C2 1_555 1_555
O2 C3 1_555 1_555
O3 C3 1_555 1_555
C4 O3 1_555 1_555
H2 C4 1_555 1_555
H3 C4 1_555 1_555
C5 C4 1_555 1_555
H4 C5 1_555 1_555
H5 C5 1_555 1_555
H6 C5 1_555 1_555
C6 P1 1_555 1_555
C7 C6 1_555 1_555
H7 C7 1_555 1_555
C8 C7 1_555 1_555
H8 C8 1_555 1_555
C9 C8 1_555 1_555
H9 C9 1_555 1_555
C10 C9 1_555 1_555
H10 C10 1_555 1_555
C11 C6 1_555 1_555
H11 C11 1_555 1_555
C12 P1 1_555 1_555
C13 C12 1_555 1_555
H12 C13 1_555 1_555
C14 C13 1_555 1_555
H13 C14 1_555 1_555
C15 C14 1_555 1_555
H14 C15 1_555 1_555
C16 C15 1_555 1_555
H15 C16 1_555 1_555
C17 C12 1_555 1_555
H16 C17 1_555 1_555
C18 P1 1_555 1_555
C19 C18 1_555 1_555
H17 C19 1_555 1_555
C20 C19 1_555 1_555
H18 C20 1_555 1_555
C21 C20 1_555 1_555
H19 C21 1_555 1_555
C22 C21 1_555 1_555
H20 C22 1_555 1_555
C23 C18 1_555 1_555
H21 C23 1_555 1_555
C10 C11 1_555 1_555
C16 C17 1_555 1_555
C22 C23 1_555 1_555

#END
