
#######################################################################
#
#                 Cambridge Crystallographic Data Centre
#                                CCDC 
#
#######################################################################
#
# If this CIF has been generated from an entry in the Cambridge 
# Structural Database, then it will include bibliographic, chemical, 
# crystal, experimental, refinement or atomic coordinate data resulting 
# from the CCDC's data processing and validation procedures.
#
#######################################################################

data_EYESOS
_chemical_formula_moiety         'C28 H15 F10 O1 P1,C1 H1 Cl3'
_chemical_name_systematic        
'1,1,1-trifluoro-3-(2,3,5,6-tetrafluoro-4-(trifluoromethyl)phenyl)-3-(triphenylphosphanylidene)-propan-2-one chloroform solvate'
_symmetry_cell_setting           monoclinic
_symmetry_space_group_name_H-M   'P 21/c'
_symmetry_Int_Tables_number      14
_space_group_name_Hall           '-P 2ybc'
loop_
_symmetry_equiv_pos_site_id
_symmetry_equiv_pos_as_xyz
1 x,y,z
2 -x,1/2+y,1/2-z
3 -x,-y,-z
4 x,1/2-y,1/2+z
_cell_length_a                   9.8234(14)
_cell_length_b                   18.318(3)
_cell_length_c                   16.330(3)
_cell_angle_alpha                90
_cell_angle_beta                 97.022(7)
_cell_angle_gamma                90
_cell_volume                     2916.46
_exptl_crystal_colour            colorless
_exptl_crystal_description       prism
_cell_formula_units_Z            4
loop_
_atom_site_label
_atom_site_type_symbol
_atom_site_fract_x
_atom_site_fract_y
_atom_site_fract_z
Cl1 Cl 0.78641(18) -0.10648(7) 0.42151(10)
Cl2 Cl 0.99177(13) -0.20564(8) 0.37748(6)
Cl3 Cl 0.78125(14) -0.25562(7) 0.47170(8)
C1 C 0.8857(5) -0.1825(3) 0.4530(3)
H1 H 0.9451 -0.1702 0.5053
P1 P 0.70058(9) 0.17449(5) 0.37903(5)
F1 F 1.0617(3) 0.03534(14) 0.24775(13)
F2 F 0.8632(3) -0.01184(15) 0.22717(19)
F3 F 0.9066(4) 0.08424(17) 0.16304(14)
F4 F 0.5784(3) -0.00997(11) 0.29878(12)
F5 F 0.3829(3) -0.04316(12) 0.17735(12)
F6 F 0.4974(3) 0.16703(12) 0.03160(12)
F7 F 0.6851(3) 0.20080(11) 0.15346(12)
F8 F 0.1959(3) 0.04322(13) 0.05951(14)
F9 F 0.3159(3) 0.07998(15) -0.03350(13)
F10 F 0.3358(3) -0.03010(13) 0.01047(13)
O1 O 0.9755(3) 0.11581(13) 0.36277(14)
C2 C 0.9309(4) 0.0523(3) 0.2356(2)
C3 C 0.8839(4) 0.09840(18) 0.30569(19)
C4 C 0.7466(4) 0.11750(18) 0.30037(19)
C5 C 0.6396(4) 0.09696(18) 0.23169(19)
C6 C 0.5585(4) 0.03469(19) 0.2332(2)
C7 C 0.4577(4) 0.01756(19) 0.1707(2)
C8 C 0.4310(4) 0.0611(2) 0.1007(2)
C9 C 0.5117(4) 0.12264(19) 0.0977(2)
C10 C 0.6121(4) 0.13977(18) 0.1611(2)
C11 C 0.3194(4) 0.0391(3) 0.0340(3)
C12 C 0.7085(4) 0.13009(18) 0.47861(19)
C13 C 0.7926(4) 0.07015(19) 0.4974(2)
C14 C 0.7981(4) 0.0367(2) 0.5737(3)
C15 C 0.7185(4) 0.0633(2) 0.6311(3)
C16 C 0.6333(4) 0.1228(2) 0.6128(2)
C17 C 0.6270(4) 0.1560(2) 0.5369(2)
C18 C 0.8039(4) 0.25608(18) 0.38808(19)
C19 C 0.8254(4) 0.29429(19) 0.4621(2)
C20 C 0.9002(4) 0.3583(2) 0.4669(3)
C21 C 0.9525(4) 0.3851(2) 0.3982(3)
C22 C 0.9299(4) 0.3484(2) 0.3243(2)
C23 C 0.8563(4) 0.2838(2) 0.3188(2)
C24 C 0.5245(4) 0.20082(19) 0.35103(19)
C25 C 0.4217(4) 0.1503(3) 0.3598(2)
C26 C 0.2865(4) 0.1680(3) 0.3359(3)
C27 C 0.2535(5) 0.2368(3) 0.3033(3)
C28 C 0.3551(5) 0.2870(3) 0.2946(3)
C29 C 0.4909(4) 0.2696(3) 0.3189(3)
H2 H 0.8469 0.0519 0.4576
H3 H 0.8562 -0.0042 0.5866
H4 H 0.7221 0.0405 0.6836
H5 H 0.5791 0.1407 0.6527
H6 H 0.5675 0.1964 0.5241
H7 H 0.7886 0.2764 0.5094
H8 H 0.9157 0.3840 0.5177
H9 H 1.0043 0.4290 0.4020
H10 H 0.9648 0.3675 0.2769
H11 H 0.8416 0.2584 0.2678
H12 H 0.4448 0.1035 0.3824
H13 H 0.2162 0.1334 0.3416
H14 H 0.1603 0.2492 0.2870
H15 H 0.3318 0.3337 0.2718
H16 H 0.5609 0.3045 0.3137
loop_
_geom_bond_atom_site_label_1
_geom_bond_atom_site_label_2
_geom_bond_site_symmetry_1
_geom_bond_site_symmetry_2
Cl1 C1 1_555 1_555
Cl2 C1 1_555 1_555
Cl3 C1 1_555 1_555
C1 H1 1_555 1_555
P1 C4 1_555 1_555
F1 C2 1_555 1_555
F2 C2 1_555 1_555
F3 C2 1_555 1_555
F4 C6 1_555 1_555
F5 C7 1_555 1_555
F6 C9 1_555 1_555
F7 C10 1_555 1_555
F8 C11 1_555 1_555
F9 C11 1_555 1_555
F10 C11 1_555 1_555
O1 C3 1_555 1_555
C2 C3 1_555 1_555
C3 C4 1_555 1_555
C4 C5 1_555 1_555
C5 C6 1_555 1_555
C6 C7 1_555 1_555
C7 C8 1_555 1_555
C8 C9 1_555 1_555
C9 C10 1_555 1_555
C10 C5 1_555 1_555
C11 C8 1_555 1_555
C12 P1 1_555 1_555
C13 C12 1_555 1_555
C14 C13 1_555 1_555
C15 C14 1_555 1_555
C16 C15 1_555 1_555
C17 C12 1_555 1_555
C18 P1 1_555 1_555
C19 C18 1_555 1_555
C20 C19 1_555 1_555
C21 C20 1_555 1_555
C22 C21 1_555 1_555
C23 C18 1_555 1_555
C24 P1 1_555 1_555
C25 C24 1_555 1_555
C26 C25 1_555 1_555
C27 C26 1_555 1_555
C28 C27 1_555 1_555
C29 C24 1_555 1_555
H2 C13 1_555 1_555
H3 C14 1_555 1_555
H4 C15 1_555 1_555
H5 C16 1_555 1_555
H6 C17 1_555 1_555
H7 C19 1_555 1_555
H8 C20 1_555 1_555
H9 C21 1_555 1_555
H10 C22 1_555 1_555
H11 C23 1_555 1_555
H12 C25 1_555 1_555
H13 C26 1_555 1_555
H14 C27 1_555 1_555
H15 C28 1_555 1_555
H16 C29 1_555 1_555
C16 C17 1_555 1_555
C22 C23 1_555 1_555
C28 C29 1_555 1_555

#END
