
#######################################################################
#
#                 Cambridge Crystallographic Data Centre
#                                CCDC 
#
#######################################################################
#
# If this CIF has been generated from an entry in the Cambridge 
# Structural Database, then it will include bibliographic, chemical, 
# crystal, experimental, refinement or atomic coordinate data resulting 
# from the CCDC's data processing and validation procedures.
#
#######################################################################

data_EYIDEW
_chemical_formula_moiety         'C18 H26 O7'
_chemical_name_systematic        
'Methyl 2-(3-acetoxy-8a-hydroperoxy-5-hydroxy-4a-methyl-8-methylenedecahydronaphthalen-2-yl)acrylate'
_symmetry_cell_setting           orthorhombic
_symmetry_space_group_name_H-M   'P 21 21 21'
_symmetry_Int_Tables_number      19
_space_group_name_Hall           'P 2ac 2ab'
loop_
_symmetry_equiv_pos_site_id
_symmetry_equiv_pos_as_xyz
1 x,y,z
2 1/2-x,-y,1/2+z
3 -x,1/2+y,1/2-z
4 1/2+x,1/2-y,-z
_cell_length_a                   7.322(17)
_cell_length_b                   8.86(2)
_cell_length_c                   27.80(7)
_cell_angle_alpha                90
_cell_angle_beta                 90
_cell_angle_gamma                90
_cell_volume                     1803.47
_exptl_crystal_colour            colorless
_exptl_crystal_description       block
_cell_formula_units_Z            4
loop_
_atom_site_label
_atom_site_type_symbol
_atom_site_fract_x
_atom_site_fract_y
_atom_site_fract_z
C1 C -0.0706(7) 0.3912(6) 0.96582(19)
H1 H 0.0037 0.3460 0.9914
C2 C -0.1052(9) 0.5566(7) 0.9786(2)
H2 H -0.1598 0.5624 1.0103
H3 H -0.1909 0.5994 0.9557
C3 C 0.0733(9) 0.6499(7) 0.9779(2)
H4 H 0.0447 0.7562 0.9817
H5 H 0.1502 0.6197 1.0047
C4 C 0.1722(8) 0.6263(7) 0.9323(2)
C5 C 0.2158(8) 0.4620(6) 0.92059(19)
C6 C 0.3341(8) 0.4346(6) 0.87662(19)
H6 H 0.2699 0.4684 0.8481
H7 H 0.4459 0.4927 0.8794
C7 C 0.3803(8) 0.2685(6) 0.87170(19)
H8 H 0.4460 0.2392 0.9010
C8 C 0.2066(8) 0.1719(6) 0.86956(19)
H9 H 0.2414 0.0652 0.8715
C9 C 0.0735(8) 0.2053(6) 0.90914(19)
H10 H 0.1205 0.1623 0.9387
H11 H -0.0405 0.1544 0.9019
C10 C 0.0325(7) 0.3742(6) 0.91792(18)
C11 C 0.5055(9) 0.2340(8) 0.8294(2)
C12 C 0.6098(9) 0.0849(9) 0.8284(3)
C13 C 0.5259(10) 0.3229(9) 0.7921(3)
H12 H 0.4617 0.4133 0.7903
H13 H 0.6046 0.2955 0.7673
C14 C -0.0870(8) 0.4369(7) 0.87694(19)
H14 H -0.0991 0.5443 0.8805
H15 H -0.2056 0.3909 0.8782
H16 H -0.0308 0.4147 0.8466
C15 C 0.2080(10) 0.7383(8) 0.9020(3)
H17 H 0.1703 0.8360 0.9092
H18 H 0.2706 0.7192 0.8735
C16 C 0.1341(10) 0.0913(9) 0.7892(2)
C17 C 0.0627(12) 0.1451(10) 0.7428(3)
H19 H 0.1415 0.1118 0.7174
H20 H 0.0578 0.2534 0.7430
H21 H -0.0577 0.1053 0.7379
C18 C 0.6940(14) -0.1268(10) 0.8730(4)
H22 H 0.6291 -0.1995 0.8539
H23 H 0.6996 -0.1611 0.9058
H24 H 0.8156 -0.1152 0.8607
O1 O -0.2413(5) 0.3138(4) 0.96402(15)
H25 H -0.3201 0.3707 0.9535
O2 O 0.3037(5) 0.3988(4) 0.96283(13)
O3 O 0.4573(7) 0.4919(6) 0.9744(2)
H26 H 0.5519 0.4460 0.9685
O4 O 0.6886(8) 0.0371(7) 0.7946(2)
O5 O 0.6002(7) 0.0167(6) 0.8711(2)
O6 O 0.1200(5) 0.1990(4) 0.82296(13)
O7 O 0.1973(9) -0.0282(7) 0.79629(19)
loop_
_geom_bond_atom_site_label_1
_geom_bond_atom_site_label_2
_geom_bond_site_symmetry_1
_geom_bond_site_symmetry_2
C1 H1 1_555 1_555
C2 C1 1_555 1_555
H2 C2 1_555 1_555
H3 C2 1_555 1_555
C3 C2 1_555 1_555
H4 C3 1_555 1_555
H5 C3 1_555 1_555
C4 C3 1_555 1_555
C5 C4 1_555 1_555
C6 C5 1_555 1_555
H6 C6 1_555 1_555
H7 C6 1_555 1_555
C7 C6 1_555 1_555
H8 C7 1_555 1_555
C8 C7 1_555 1_555
H9 C8 1_555 1_555
C9 C8 1_555 1_555
H10 C9 1_555 1_555
H11 C9 1_555 1_555
C10 C1 1_555 1_555
C11 C7 1_555 1_555
C12 C11 1_555 1_555
C13 C11 1_555 1_555
H12 C13 1_555 1_555
H13 C13 1_555 1_555
C14 C10 1_555 1_555
H14 C14 1_555 1_555
H15 C14 1_555 1_555
H16 C14 1_555 1_555
C15 C4 1_555 1_555
H17 C15 1_555 1_555
H18 C15 1_555 1_555
C16 C17 1_555 1_555
C17 H19 1_555 1_555
H20 C17 1_555 1_555
H21 C17 1_555 1_555
C18 H22 1_555 1_555
H23 C18 1_555 1_555
H24 C18 1_555 1_555
O1 C1 1_555 1_555
H25 O1 1_555 1_555
O2 C5 1_555 1_555
O3 O2 1_555 1_555
H26 O3 1_555 1_555
O4 C12 1_555 1_555
O5 C12 1_555 1_555
O6 C8 1_555 1_555
O7 C16 1_555 1_555
C5 C10 1_555 1_555
C9 C10 1_555 1_555
C16 O6 1_555 1_555
C18 O5 1_555 1_555

#END
