
#######################################################################
#
#                 Cambridge Crystallographic Data Centre
#                                CCDC 
#
#######################################################################
#
# If this CIF has been generated from an entry in the Cambridge 
# Structural Database, then it will include bibliographic, chemical, 
# crystal, experimental, refinement or atomic coordinate data resulting 
# from the CCDC's data processing and validation procedures.
#
#######################################################################

data_EYIVUD
_chemical_formula_moiety         'C9 H13 N1 O3 S2'
_chemical_name_systematic        S-(4-(Trimethylammonio)phenyl)-4-thiosulfate
_symmetry_cell_setting           orthorhombic
_symmetry_space_group_name_H-M   'P m n 21'
_symmetry_Int_Tables_number      31
_space_group_name_Hall           'P 2ac -2'
loop_
_symmetry_equiv_pos_site_id
_symmetry_equiv_pos_as_xyz
1 x,y,z
2 -x,y,z
3 1/2+x,-y,1/2+z
4 1/2-x,-y,1/2+z
_cell_length_a                   9.0937(11)
_cell_length_b                   5.6809(6)
_cell_length_c                   10.3830(11)
_cell_angle_alpha                90
_cell_angle_beta                 90
_cell_angle_gamma                90
_cell_volume                     536.39
_exptl_crystal_colour            colorless
_exptl_crystal_description       prism
_cell_formula_units_Z            2
loop_
_atom_site_label
_atom_site_type_symbol
_atom_site_fract_x
_atom_site_fract_y
_atom_site_fract_z
S1 S 0.5000 0.38765(11) 0.49997(4)
S2 S 0.5000 0.63423(9) 0.34752(5)
O1 O 0.36708(14) 0.2514(2) 0.48708(14)
O2 O 0.5000 0.5471(4) 0.60992(18)
N1 N 0.5000 0.0100(3) -0.12406(17)
C1 C 0.5000 0.4377(4) 0.2145(2)
C2 C 0.63165(18) 0.3659(3) 0.15927(17)
C3 C 0.63226(17) 0.2256(3) 0.05058(17)
C4 C 0.5000 0.1583(3) -0.0050(2)
C5 C 0.5000 -0.2466(4) -0.0864(3)
C6 C 0.6330(2) 0.0554(3) -0.20634(16)
H1 H 0.721(3) 0.422(4) 0.192(2)
H2 H 0.720(3) 0.183(4) 0.014(2)
H3 H 0.582(3) -0.272(4) -0.035(2)
H4 H 0.714(2) 0.002(3) -0.164(2)
H5 H 0.5000 -0.334(5) -0.167(4)
H6 H 0.639(2) 0.220(4) -0.228(2)
H7 H 0.622(2) -0.021(3) -0.281(2)
H3A H 0.418(3) -0.272(4) -0.035(2)
C6A C 0.3670(2) 0.0554(3) -0.20634(16)
H4A H 0.286(2) 0.002(3) -0.164(2)
H6A H 0.361(2) 0.220(4) -0.228(2)
H7A H 0.378(2) -0.021(3) -0.281(2)
C3A C 0.36774(17) 0.2256(3) 0.05058(17)
C2A C 0.36835(18) 0.3659(3) 0.15927(17)
H1A H 0.279(3) 0.422(4) 0.192(2)
H2A H 0.280(3) 0.183(4) 0.014(2)
O1A O 0.63292(14) 0.2514(2) 0.48708(14)
loop_
_geom_bond_atom_site_label_1
_geom_bond_atom_site_label_2
_geom_bond_site_symmetry_1
_geom_bond_site_symmetry_2
S1 S2 1_555 1_555
S2 C1 1_555 1_555
O1 S1 1_555 1_555
O2 S1 1_555 1_555
N1 C4 1_555 1_555
C1 C2 1_555 1_555
C2 C3 1_555 1_555
C3 C4 1_555 1_555
C4 C3A 1_555 1_555
C5 N1 1_555 1_555
C6 N1 1_555 1_555
H1 C2 1_555 1_555
H2 C3 1_555 1_555
H3 C5 1_555 1_555
H4 C6 1_555 1_555
H5 C5 1_555 1_555
H6 C6 1_555 1_555
H7 C6 1_555 1_555
H3A C5 1_555 1_555
C6A N1 1_555 1_555
H4A C6A 1_555 1_555
H6A C6A 1_555 1_555
H7A C6A 1_555 1_555
C3A C2A 1_555 1_555
C2A C1 1_555 1_555
H1A C2A 1_555 1_555
H2A C3A 1_555 1_555
O1A S1 1_555 1_555

#END
