
#######################################################################
#
#                 Cambridge Crystallographic Data Centre
#                                CCDC 
#
#######################################################################
#
# If this CIF has been generated from an entry in the Cambridge 
# Structural Database, then it will include bibliographic, chemical, 
# crystal, experimental, refinement or atomic coordinate data resulting 
# from the CCDC's data processing and validation procedures.
#
#######################################################################

data_EYOBUP
_chemical_name_common            'KNI-272 methanol solvate'
_chemical_formula_moiety         'C33 H41 N5 O6 S2,C1 H4 O1'
_chemical_name_systematic        
'3-(3-Benzyl-2-hydroxy-9-(isoquinolin-5-yloxy)-6-methylsulfanylmethyl-5,8-dioxo-4,7-diazanonanoyl)-N-t-butyl-1,3-thiazolidine-4-carboxamide methanol solvate'
_chemical_properties_biological  'HIV protease inhibitor'
_symmetry_cell_setting           monoclinic
_symmetry_space_group_name_H-M   'P 21'
_symmetry_Int_Tables_number      4
_space_group_name_Hall           'P 2yb'
loop_
_symmetry_equiv_pos_site_id
_symmetry_equiv_pos_as_xyz
1 x,y,z
2 -x,1/2+y,-z
_cell_length_a                   10.5077(9)
_cell_length_b                   13.2881(12)
_cell_length_c                   13.5150(12)
_cell_angle_alpha                90
_cell_angle_beta                 101.9240(10)
_cell_angle_gamma                90
_cell_volume                     1846.35
_exptl_crystal_colour            colorless
_exptl_crystal_description       block
_cell_formula_units_Z            2
loop_
_atom_site_label
_atom_site_type_symbol
_atom_site_fract_x
_atom_site_fract_y
_atom_site_fract_z
N1 N 0.94101(16) 0.28151(14) 0.35820(12)
C1 C 0.93237(19) 0.26127(16) 0.45592(15)
H1 H 0.8629 0.2909 0.4809
C2 C 1.01756(18) 0.20103(15) 0.51978(13)
H2 H 1.0067 0.1891 0.5869
C3 C 1.21615(16) 0.09126(12) 0.54315(12)
C4 C 1.31546(17) 0.05175(13) 0.50399(13)
H3 H 1.3769 0.0080 0.5439
C5 C 1.32696(18) 0.07593(15) 0.40391(14)
H4 H 1.3972 0.0491 0.3779
C6 C 1.23869(17) 0.13706(15) 0.34482(13)
H5 H 1.2469 0.1525 0.2778
C7 C 1.03914(18) 0.24079(15) 0.32599(14)
H6 H 1.0465 0.2550 0.2585
C8 C 1.12239(16) 0.15658(12) 0.48440(12)
C9 C 1.13436(16) 0.17763(13) 0.38397(13)
O1 O 1.19710(11) 0.07288(9) 0.63905(8)
C10 C 1.27514(16) -0.00522(12) 0.69247(12)
H7 H 1.3685 0.0097 0.6969
H8 H 1.2548 -0.0701 0.6568
C11 C 1.24565(14) -0.01142(11) 0.79817(11)
O2 O 1.28286(11) 0.05489(8) 0.86116(8)
N2 N 1.18485(12) -0.09577(10) 0.81575(9)
H9 H 1.1487 -0.1336 0.7641
C12 C 1.17621(14) -0.12736(11) 0.91771(11)
H10 H 1.2418 -0.0897 0.9684
C13 C 1.04137(15) -0.11318(12) 0.94119(12)
H11 H 1.0429 -0.1386 1.0103
H12 H 0.9785 -0.1547 0.8935
S1 S 0.98423(4) 0.01541(3) 0.93325(3)
C14 C 1.09900(17) 0.07242(15) 1.03563(16)
H13 H 1.0787 0.1441 1.0398
H14 H 1.1872 0.0649 1.0233
H15 H 1.0935 0.0392 1.0994
C15 C 1.21295(14) -0.23976(11) 0.92068(11)
O3 O 1.12940(11) -0.30515(8) 0.89820(9)
N3 N 1.34142(12) -0.25902(10) 0.93946(10)
H16 H 1.3975 -0.2126 0.9668
C16 C 1.38702(14) -0.35779(11) 0.91403(11)
H17 H 1.3302 -0.3803 0.8491
C17 C 1.52765(15) -0.35174(12) 0.89819(12)
H18 H 1.5863 -0.3389 0.9643
H19 H 1.5517 -0.4177 0.8735
C18 C 1.54962(15) -0.27116(12) 0.82450(12)
C19 C 1.47507(16) -0.26719(14) 0.72630(13)
H20 H 1.4069 -0.3144 0.7057
C20 C 1.49942(18) -0.19511(14) 0.65857(14)
H21 H 1.4487 -0.1940 0.5917
C21 C 1.59760(19) -0.12428(15) 0.68757(15)
H22 H 1.6137 -0.0748 0.6409
C22 C 1.67152(17) -0.12653(14) 0.78488(15)
H23 H 1.7385 -0.0782 0.8053
C23 C 1.64807(16) -0.19946(12) 0.85300(13)
H24 H 1.6995 -0.2006 0.9196
C24 C 1.37385(15) -0.43526(11) 0.99683(11)
H25 H 1.2818 -0.4351 1.0059
O4 O 1.45616(10) -0.41189(8) 1.09016(8)
H26 H 1.5043 -0.4633 1.1081
C25 C 1.40530(15) -0.53983(11) 0.96041(11)
O5 O 1.51282(11) -0.57815(8) 0.99376(9)
N4 N 1.31738(12) -0.58395(10) 0.88763(10)
C26 C 1.35277(14) -0.67771(11) 0.84227(12)
H27 H 1.3830 -0.7290 0.8962
C27 C 1.23016(15) -0.71537(12) 0.76929(13)
H28 H 1.2288 -0.7898 0.7666
H29 H 1.2266 -0.6890 0.7003
S2 S 1.09519(4) -0.66828(3) 0.81963(4)
C28 C 1.18309(15) -0.55092(13) 0.84885(14)
H30 H 1.1768 -0.5089 0.7876
H31 H 1.1495 -0.5122 0.9006
C29 C 1.46038(15) -0.65686(12) 0.78337(11)
O6 O 1.45933(12) -0.57817(9) 0.73512(9)
N5 N 1.54594(13) -0.73163(11) 0.78609(10)
H32 H 1.5364 -0.7855 0.8217
C30 C 1.65615(17) -0.72972(15) 0.73291(14)
C31 C 1.6037(2) -0.72352(18) 0.61858(14)
H33 H 1.5553 -0.6606 0.6024
H34 H 1.5458 -0.7807 0.5968
H35 H 1.6764 -0.7253 0.5835
C32 C 1.74314(19) -0.6394(2) 0.77065(17)
H36 H 1.6941 -0.5770 0.7526
H37 H 1.8192 -0.6400 0.7392
H38 H 1.7718 -0.6433 0.8443
C33 C 1.7314(3) -0.8271(2) 0.7605(2)
H39 H 1.6752 -0.8846 0.7358
H40 H 1.7596 -0.8316 0.8341
H41 H 1.8076 -0.8279 0.7293
O7 O 1.3388(5) -0.4948(3) 0.5452(3)
H42 H 1.3701 -0.5204 0.6035
C34 C 1.2133(10) -0.5338(9) 0.5164(9)
H43 H 1.1607 -0.5118 0.5645
H44 H 1.2173 -0.6075 0.5160
H45 H 1.1736 -0.5096 0.4486
O8? O 1.2636(4) -0.4640(3) 0.6308(3)
H46? H 1.3225 -0.4957 0.6746
C35? C 1.2229(19) -0.5051(12) 0.5380(11)
H47? H 1.1547 -0.5548 0.5405
H48? H 1.2964 -0.5381 0.5169
H49? H 1.1882 -0.4521 0.4895
loop_
_geom_bond_atom_site_label_1
_geom_bond_atom_site_label_2
_geom_bond_site_symmetry_1
_geom_bond_site_symmetry_2
N1 C1 1_555 1_555
C1 H1 1_555 1_555
C2 C1 1_555 1_555
H2 C2 1_555 1_555
C3 C4 1_555 1_555
C4 H3 1_555 1_555
C5 C4 1_555 1_555
H4 C5 1_555 1_555
C6 C5 1_555 1_555
H5 C6 1_555 1_555
C7 N1 1_555 1_555
H6 C7 1_555 1_555
C8 C2 1_555 1_555
C9 C6 1_555 1_555
O1 C3 1_555 1_555
C10 O1 1_555 1_555
H7 C10 1_555 1_555
H8 C10 1_555 1_555
C11 C10 1_555 1_555
O2 C11 1_555 1_555
N2 C11 1_555 1_555
H9 N2 1_555 1_555
C12 N2 1_555 1_555
H10 C12 1_555 1_555
C13 C12 1_555 1_555
H11 C13 1_555 1_555
H12 C13 1_555 1_555
S1 C13 1_555 1_555
C14 S1 1_555 1_555
H13 C14 1_555 1_555
H14 C14 1_555 1_555
H15 C14 1_555 1_555
C15 C12 1_555 1_555
O3 C15 1_555 1_555
N3 C15 1_555 1_555
H16 N3 1_555 1_555
C16 N3 1_555 1_555
H17 C16 1_555 1_555
C17 C16 1_555 1_555
H18 C17 1_555 1_555
H19 C17 1_555 1_555
C18 C17 1_555 1_555
C19 C18 1_555 1_555
H20 C19 1_555 1_555
C20 C19 1_555 1_555
H21 C20 1_555 1_555
C21 C20 1_555 1_555
H22 C21 1_555 1_555
C22 C21 1_555 1_555
H23 C22 1_555 1_555
C23 C18 1_555 1_555
H24 C23 1_555 1_555
C24 C16 1_555 1_555
H25 C24 1_555 1_555
O4 C24 1_555 1_555
H26 O4 1_555 1_555
C25 C24 1_555 1_555
O5 C25 1_555 1_555
N4 C25 1_555 1_555
C26 N4 1_555 1_555
H27 C26 1_555 1_555
C27 C26 1_555 1_555
H28 C27 1_555 1_555
H29 C27 1_555 1_555
S2 C27 1_555 1_555
C28 N4 1_555 1_555
H30 C28 1_555 1_555
H31 C28 1_555 1_555
C29 C26 1_555 1_555
O6 C29 1_555 1_555
N5 C29 1_555 1_555
H32 N5 1_555 1_555
C30 N5 1_555 1_555
C31 C30 1_555 1_555
H33 C31 1_555 1_555
H34 C31 1_555 1_555
H35 C31 1_555 1_555
C32 C30 1_555 1_555
H36 C32 1_555 1_555
H37 C32 1_555 1_555
H38 C32 1_555 1_555
C33 C30 1_555 1_555
H39 C33 1_555 1_555
H40 C33 1_555 1_555
H41 C33 1_555 1_555
O7 H42 1_555 1_555
C34 O7 1_555 1_555
H43 C34 1_555 1_555
H44 C34 1_555 1_555
H45 C34 1_555 1_555
C3 C8 1_555 1_555
C7 C9 1_555 1_555
C8 C9 1_555 1_555
C22 C23 1_555 1_555
S2 C28 1_555 1_555

#END
