
#######################################################################
#
#                 Cambridge Crystallographic Data Centre
#                                CCDC 
#
#######################################################################
#
# If this CIF has been generated from an entry in the Cambridge 
# Structural Database, then it will include bibliographic, chemical, 
# crystal, experimental, refinement or atomic coordinate data resulting 
# from the CCDC's data processing and validation procedures.
#
#######################################################################

data_EYOCAW
_chemical_name_common            'KNI-272 acetone solvate'
_chemical_formula_moiety         'C33 H41 N5 O6 S2,2(C3 H6 O1)'
_chemical_name_systematic        
'3-(3-Benzyl-2-hydroxy-9-(isoquinolin-5-yloxy)-6-methylsulfanylmethyl-5,8-dioxo-4,7-diazanonanoyl)-N-t-butyl-1,3-thiazolidine-4-carboxamide acetone solvate'
_chemical_properties_biological  'HIV protease inhibitor'
_symmetry_cell_setting           monoclinic
_symmetry_space_group_name_H-M   'P 21'
_symmetry_Int_Tables_number      4
_space_group_name_Hall           'P 2yb'
loop_
_symmetry_equiv_pos_site_id
_symmetry_equiv_pos_as_xyz
1 x,y,z
2 -x,1/2+y,-z
_cell_length_a                   10.6395(7)
_cell_length_b                   13.2130(9)
_cell_length_c                   14.6921(10)
_cell_angle_alpha                90
_cell_angle_beta                 98.9310(10)
_cell_angle_gamma                90
_cell_volume                     2040.37
_exptl_crystal_colour            colorless
_exptl_crystal_description       plate
_cell_formula_units_Z            2
_exptl_crystal_recrystallization_method acetone/hexane
loop_
_atom_site_label
_atom_site_type_symbol
_atom_site_fract_x
_atom_site_fract_y
_atom_site_fract_z
N1 N -0.07954(14) 0.10000(11) -0.09446(9)
C1 C 0.04808(17) 0.11322(13) -0.06927(11)
H1 H 0.1036 0.0734 -0.0994
C2 C 0.10117(15) 0.17999(12) -0.00352(10)
H2 H 0.1910 0.1857 0.0115
C3 C 0.06700(13) 0.31126(11) 0.11277(9)
C4 C -0.01681(14) 0.36727(11) 0.15413(10)
H3 H 0.0141 0.4145 0.2010
C5 C -0.14906(15) 0.35463(12) 0.12695(11)
H4 H -0.2061 0.3943 0.1557
C6 C -0.19713(14) 0.28687(12) 0.06038(11)
H5 H -0.2865 0.2790 0.0435
C7 C -0.15456(15) 0.15623(12) -0.05261(10)
H6 H -0.2437 0.1480 -0.0701
C8 C 0.02067(13) 0.24054(10) 0.04196(9)
C9 C -0.11217(14) 0.22866(11) 0.01697(10)
O1 O 0.19662(9) 0.31441(8) 0.13445(7)
C10 C 0.25102(13) 0.39161(11) 0.19649(9)
H7 H 0.2048 0.4557 0.1800
H8 H 0.3405 0.4020 0.1876
C11 C 0.24864(12) 0.36996(10) 0.29779(9)
O2 O 0.29023(9) 0.43583(7) 0.35413(7)
N2 N 0.20124(11) 0.28116(8) 0.31976(8)
H9 H 0.1769 0.2369 0.2758
C12 C 0.18856(12) 0.25546(10) 0.41489(9)
H10 H 0.2494 0.2970 0.4584
C13 C 0.05287(13) 0.27241(10) 0.43412(10)
H11 H 0.0493 0.2527 0.4987
H12 H -0.0049 0.2267 0.3938
S1 S -0.00638(3) 0.40015(3) 0.41691(2)
C14 C 0.09446(14) 0.46548(12) 0.50841(11)
H13 H 0.0718 0.5374 0.5071
H14 H 0.1836 0.4581 0.5000
H15 H 0.0827 0.4364 0.5679
C15 C 0.22331(13) 0.14280(10) 0.42696(9)
O3 O 0.14129(9) 0.07678(7) 0.41379(7)
N3 N 0.34826(11) 0.12283(8) 0.44646(8)
H16 H 0.4020 0.1703 0.4696
C16 C 0.39420(12) 0.02170(10) 0.42900(9)
H17 H 0.3409 -0.0046 0.3718
C17 C 0.53304(13) 0.02490(10) 0.41162(10)
H18 H 0.5897 0.0331 0.4713
H19 H 0.5540 -0.0405 0.3847
C18 C 0.55882(13) 0.10933(11) 0.34799(10)
C19 C 0.47411(14) 0.12963(12) 0.26761(10)
H20 H 0.4021 0.0872 0.2508
C20 C 0.49400(14) 0.21116(12) 0.21191(10)
H21 H 0.4357 0.2242 0.1574
C21 C 0.59836(15) 0.27340(12) 0.23556(11)
H22 H 0.6108 0.3299 0.1980
C22 C 0.68471(15) 0.25320(12) 0.31400(11)
H23 H 0.7574 0.2951 0.3297
C23 C 0.66517(14) 0.17135(12) 0.36998(10)
H24 H 0.7249 0.1577 0.4236
C24 C 0.37700(12) -0.05090(10) 0.50885(9)
H25 H 0.2863 -0.0483 0.5192
O4 O 0.45618(9) -0.02476(7) 0.59132(6)
H26 H 0.5337 -0.0482 0.5959
C25 C 0.40623(13) -0.15728(10) 0.47774(9)
O5 O 0.51155(9) -0.19462(7) 0.50290(7)
N4 N 0.31776(10) -0.20291(9) 0.41584(8)
C26 C 0.35347(12) -0.29276(10) 0.36681(9)
H27 H 0.3837 -0.3481 0.4113
C27 C 0.23433(13) -0.32591(11) 0.30136(10)
H28 H 0.2327 -0.4004 0.2942
H29 H 0.2325 -0.2947 0.2399
S2 S 0.10020(3) -0.28365(3) 0.35318(3)
C28 C 0.18687(13) -0.16853(11) 0.38751(11)
H30 H 0.1814 -0.1204 0.3354
H31 H 0.1535 -0.1354 0.4393
C29 C 0.45807(13) -0.26347(10) 0.31001(9)
O6 O 0.45038(10) -0.18324(8) 0.26728(7)
N5 N 0.54993(11) -0.33279(9) 0.31061(8)
H32 H 0.5446 -0.3884 0.3428
C30 C 0.65993(14) -0.32226(12) 0.26080(10)
C31 C 0.73310(16) -0.22576(13) 0.29145(13)
H33 H 0.7617 -0.2281 0.3581
H34 H 0.6775 -0.1670 0.2764
H35 H 0.8071 -0.2201 0.2595
C32 C 0.74504(17) -0.41421(14) 0.28837(14)
H36 H 0.6983 -0.4763 0.2685
H37 H 0.7700 -0.4152 0.3554
H38 H 0.8213 -0.4100 0.2588
C33 C 0.61313(18) -0.32189(17) 0.15706(12)
H39 H 0.5664 -0.3846 0.1395
H40 H 0.6862 -0.3171 0.1240
H41 H 0.5568 -0.2638 0.1411
O7 O 0.15523(11) 0.09130(9) 0.20515(8)
C34 C 0.06108(17) 0.03804(12) 0.19271(10)
C35 C 0.0623(2) -0.06264(15) 0.14552(14)
H42 H 0.1469 -0.0750 0.1293
H43 H -0.0010 -0.0625 0.0894
H44 H 0.0417 -0.1161 0.1870
C36 C -0.06078(17) 0.07024(16) 0.22283(13)
H45 H -0.0492 0.1366 0.2528
H46 H -0.0852 0.0206 0.2664
H47 H -0.1277 0.0747 0.1690
C37 C 0.4861(2) 0.45162(16) -0.01770(13)
C38 C 0.5968(2) 0.47560(18) -0.06442(15)
H48 H 0.6757 0.4587 -0.0235
H49 H 0.5963 0.5479 -0.0793
H50 H 0.5913 0.4360 -0.1213
O8 O 0.50005(16) 0.41811(17) 0.05945(11)
C39 C 0.3584(3) 0.4725(2) -0.0710(2)
H51 H 0.2928 0.4542 -0.0340
H52 H 0.3468 0.4325 -0.1279
H53 H 0.3514 0.5447 -0.0864
loop_
_geom_bond_atom_site_label_1
_geom_bond_atom_site_label_2
_geom_bond_site_symmetry_1
_geom_bond_site_symmetry_2
N1 C1 1_555 1_555
C1 H1 1_555 1_555
C2 C1 1_555 1_555
H2 C2 1_555 1_555
C3 C4 1_555 1_555
C4 H3 1_555 1_555
C5 C4 1_555 1_555
H4 C5 1_555 1_555
C6 C5 1_555 1_555
H5 C6 1_555 1_555
C7 N1 1_555 1_555
H6 C7 1_555 1_555
C8 C2 1_555 1_555
C9 C6 1_555 1_555
O1 C3 1_555 1_555
C10 O1 1_555 1_555
H7 C10 1_555 1_555
H8 C10 1_555 1_555
C11 C10 1_555 1_555
O2 C11 1_555 1_555
N2 C11 1_555 1_555
H9 N2 1_555 1_555
C12 N2 1_555 1_555
H10 C12 1_555 1_555
C13 C12 1_555 1_555
H11 C13 1_555 1_555
H12 C13 1_555 1_555
S1 C13 1_555 1_555
C14 S1 1_555 1_555
H13 C14 1_555 1_555
H14 C14 1_555 1_555
H15 C14 1_555 1_555
C15 C12 1_555 1_555
O3 C15 1_555 1_555
N3 C15 1_555 1_555
H16 N3 1_555 1_555
C16 N3 1_555 1_555
H17 C16 1_555 1_555
C17 C16 1_555 1_555
H18 C17 1_555 1_555
H19 C17 1_555 1_555
C18 C17 1_555 1_555
C19 C18 1_555 1_555
H20 C19 1_555 1_555
C20 C19 1_555 1_555
H21 C20 1_555 1_555
C21 C20 1_555 1_555
H22 C21 1_555 1_555
C22 C21 1_555 1_555
H23 C22 1_555 1_555
C23 C18 1_555 1_555
H24 C23 1_555 1_555
C24 C16 1_555 1_555
H25 C24 1_555 1_555
O4 C24 1_555 1_555
H26 O4 1_555 1_555
C25 C24 1_555 1_555
O5 C25 1_555 1_555
N4 C25 1_555 1_555
C26 N4 1_555 1_555
H27 C26 1_555 1_555
C27 C26 1_555 1_555
H28 C27 1_555 1_555
H29 C27 1_555 1_555
S2 C27 1_555 1_555
C28 N4 1_555 1_555
H30 C28 1_555 1_555
H31 C28 1_555 1_555
C29 C26 1_555 1_555
O6 C29 1_555 1_555
N5 C29 1_555 1_555
H32 N5 1_555 1_555
C30 N5 1_555 1_555
C31 C30 1_555 1_555
H33 C31 1_555 1_555
H34 C31 1_555 1_555
H35 C31 1_555 1_555
C32 C30 1_555 1_555
H36 C32 1_555 1_555
H37 C32 1_555 1_555
H38 C32 1_555 1_555
C33 C30 1_555 1_555
H39 C33 1_555 1_555
H40 C33 1_555 1_555
H41 C33 1_555 1_555
O7 C34 1_555 1_555
C34 C35 1_555 1_555
C35 H42 1_555 1_555
H43 C35 1_555 1_555
H44 C35 1_555 1_555
C36 C34 1_555 1_555
H45 C36 1_555 1_555
H46 C36 1_555 1_555
H47 C36 1_555 1_555
C37 C38 1_555 1_555
C38 H48 1_555 1_555
H49 C38 1_555 1_555
H50 C38 1_555 1_555
O8 C37 1_555 1_555
C39 C37 1_555 1_555
H51 C39 1_555 1_555
H52 C39 1_555 1_555
H53 C39 1_555 1_555
C3 C8 1_555 1_555
C7 C9 1_555 1_555
C8 C9 1_555 1_555
C22 C23 1_555 1_555
S2 C28 1_555 1_555

#END
