
#######################################################################
#
#                 Cambridge Crystallographic Data Centre
#                                CCDC 
#
#######################################################################
#
# If this CIF has been generated from an entry in the Cambridge 
# Structural Database, then it will include bibliographic, chemical, 
# crystal, experimental, refinement or atomic coordinate data resulting 
# from the CCDC's data processing and validation procedures.
#
#######################################################################

data_EYOCEA
_chemical_name_common            'KNI-272 dimethylsulfoxide solvate'
_chemical_formula_moiety         'C33 H41 N5 O6 S2,C2 H6 O1 S1'
_chemical_name_systematic        
'3-(3-Benzyl-2-hydroxy-9-(isoquinolin-5-yloxy)-6-methylsulfanylmethyl-5,8-dioxo-4,7-diazanonanoyl)-N-t-butyl-1,3-thiazolidine-4-carboxamide dimethylsulfoxide solvate'
_chemical_properties_biological  'HIV protease inhibitor'
_symmetry_cell_setting           monoclinic
_symmetry_space_group_name_H-M   'C 2'
_symmetry_Int_Tables_number      5
_space_group_name_Hall           'C 2y'
loop_
_symmetry_equiv_pos_site_id
_symmetry_equiv_pos_as_xyz
1 x,y,z
2 -x,y,-z
3 1/2+x,1/2+y,z
4 1/2-x,1/2+y,-z
_cell_length_a                   29.390(6)
_cell_length_b                   12.882(3)
_cell_length_c                   10.609(2)
_cell_angle_alpha                90
_cell_angle_beta                 103.373(3)
_cell_angle_gamma                90
_cell_volume                     3907.68
_exptl_crystal_colour            colorless
_exptl_crystal_description       plate
_cell_formula_units_Z            4
_exptl_crystal_recrystallization_method dimethylsulfoxide/water
loop_
_atom_site_label
_atom_site_type_symbol
_atom_site_fract_x
_atom_site_fract_y
_atom_site_fract_z
N1 N 1.02536(9) -0.5563(2) 0.8583(2)
C1 C 0.98119(10) -0.5277(2) 0.7962(3)
H1 H 0.9594 -0.5810 0.7628
C2 C 0.96637(9) -0.4272(2) 0.7792(2)
H2 H 0.9349 -0.4124 0.7366
C3 C 0.98541(9) -0.2385(2) 0.8116(2)
C4 C 1.01892(9) -0.1627(2) 0.8470(3)
H3 H 1.0108 -0.0915 0.8339
C5 C 1.06582(10) -0.1921(2) 0.9035(3)
H4 H 1.0891 -0.1399 0.9259
C6 C 1.07805(10) -0.2929(2) 0.9260(2)
H5 H 1.1092 -0.3105 0.9689
C7 C 1.05498(10) -0.4794(2) 0.8996(2)
H6 H 1.0860 -0.4978 0.9424
C8 C 0.99770(9) -0.3453(2) 0.8247(2)
C9 C 1.04448(9) -0.3719(2) 0.8856(2)
O1 O 0.93869(6) -0.22046(15) 0.76374(19)
C10 C 0.92336(9) -0.1169(2) 0.7768(3)
H7 H 0.9310 -0.0723 0.7084
H8 H 0.9394 -0.0884 0.8622
C11 C 0.87093(9) -0.1182(2) 0.7646(2)
O2 O 0.84474(7) -0.17831(16) 0.69161(18)
N2 N 0.85664(7) -0.04619(17) 0.83750(19)
H9 H 0.8780 -0.0119 0.8942
C12 C 0.80760(9) -0.02151(19) 0.8280(2)
H10 H 0.7873 -0.0645 0.7587
C13 C 0.79374(10) -0.0383(2) 0.9565(2)
H11 H 0.7621 -0.0092 0.9497
H12 H 0.8157 0.0007 1.0250
S1 S 0.79359(2) -0.17316(5) 1.00555(7)
C14 C 0.74211(12) -0.2185(3) 0.8908(3)
H13 H 0.7156 -0.1734 0.8942
H14 H 0.7351 -0.2897 0.9126
H15 H 0.7477 -0.2169 0.8033
C15 C 0.80294(8) 0.09361(19) 0.7901(2)
O3 O 0.81358(7) 0.16255(15) 0.87218(17)
N3 N 0.79126(8) 0.11292(17) 0.6623(2)
H16 H 0.7806 0.0624 0.6076
C16 C 0.79612(9) 0.2169(2) 0.6138(2)
H17 H 0.8239 0.2500 0.6723
C17 C 0.80521(10) 0.2123(2) 0.4778(2)
H18 H 0.7773 0.1826 0.4179
H19 H 0.8094 0.2839 0.4485
C18 C 0.84729(12) 0.1490(2) 0.4691(3)
C19 C 0.89255(12) 0.1818(3) 0.5306(3)
H20 H 0.8968 0.2447 0.5787
C20 C 0.93118(15) 0.1226(4) 0.5217(4)
H21 H 0.9616 0.1452 0.5641
C21 C 0.9258(2) 0.0313(4) 0.4518(5)
H22 H 0.9524 -0.0088 0.4463
C22 C 0.8821(3) -0.0012(3) 0.3907(6)
H23 H 0.8785 -0.0639 0.3422
C23 C 0.84261(17) 0.0566(3) 0.3985(4)
H24 H 0.8124 0.0328 0.3555
C24 C 0.75265(9) 0.2827(2) 0.6193(2)
H25 H 0.7457 0.2744 0.7067
O4 O 0.71327(7) 0.25110(14) 0.52398(19)
H26 H 0.7048 0.3009 0.4716
C25 C 0.76401(9) 0.3965(2) 0.5999(3)
O5 O 0.75156(7) 0.43628(14) 0.49167(17)
N4 N 0.79103(7) 0.44741(16) 0.70099(19)
C26 C 0.81483(9) 0.5422(2) 0.6759(2)
H27 H 0.7916 0.5950 0.6316
C27 C 0.84202(9) 0.5830(2) 0.8079(2)
H28 H 0.8421 0.6598 0.8089
H29 H 0.8748 0.5583 0.8267
S2 S 0.81201(2) 0.53242(5) 0.92603(6)
C28 C 0.80312(10) 0.4124(2) 0.8357(2)
H30 H 0.8320 0.3699 0.8535
H31 H 0.7774 0.3714 0.8569
C29 C 0.84855(9) 0.5125(2) 0.5895(2)
O6 O 0.87015(7) 0.43057(15) 0.60930(19)
N5 N 0.84996(10) 0.5810(2) 0.4984(3)
H32 H 0.8351 0.6399 0.5016
C30 C 0.87409(15) 0.5688(3) 0.3912(4)
C31 C 0.92499(14) 0.5647(4) 0.4391(4)
H33 H 0.9358 0.6281 0.4882
H34 H 0.9398 0.5592 0.3657
H35 H 0.9334 0.5042 0.4957
C32 C 0.8525(2) 0.6513(5) 0.2908(5)
H36 H 0.8185 0.6425 0.2669
H37 H 0.8651 0.6435 0.2135
H38 H 0.8601 0.7206 0.3278
C33 C 0.85780(18) 0.4634(5) 0.3186(4)
H39 H 0.8689 0.4051 0.3768
H40 H 0.8708 0.4581 0.2417
H41 H 0.8236 0.4618 0.2922
S3 S 1.05749(2) 0.16033(5) 0.92752(7)
O7 O 1.07410(8) 0.05270(15) 0.9698(2)
C34 C 1.06893(11) 0.2385(2) 1.0702(3)
H42 H 1.0504 0.2131 1.1297
H43 H 1.0604 0.3107 1.0467
H44 H 1.1023 0.2348 1.1125
C35 C 1.10036(12) 0.2172(3) 0.8539(3)
H45 H 1.1313 0.2111 0.9128
H46 H 1.0929 0.2906 0.8359
H47 H 1.1004 0.1809 0.7727
loop_
_geom_bond_atom_site_label_1
_geom_bond_atom_site_label_2
_geom_bond_site_symmetry_1
_geom_bond_site_symmetry_2
N1 C1 1_555 1_555
C1 H1 1_555 1_555
C2 C1 1_555 1_555
H2 C2 1_555 1_555
C3 C4 1_555 1_555
C4 H3 1_555 1_555
C5 C4 1_555 1_555
H4 C5 1_555 1_555
C6 C5 1_555 1_555
H5 C6 1_555 1_555
C7 N1 1_555 1_555
H6 C7 1_555 1_555
C8 C2 1_555 1_555
C9 C6 1_555 1_555
O1 C3 1_555 1_555
C10 O1 1_555 1_555
H7 C10 1_555 1_555
H8 C10 1_555 1_555
C11 C10 1_555 1_555
O2 C11 1_555 1_555
N2 C11 1_555 1_555
H9 N2 1_555 1_555
C12 N2 1_555 1_555
H10 C12 1_555 1_555
C13 C12 1_555 1_555
H11 C13 1_555 1_555
H12 C13 1_555 1_555
S1 C13 1_555 1_555
C14 S1 1_555 1_555
H13 C14 1_555 1_555
H14 C14 1_555 1_555
H15 C14 1_555 1_555
C15 C12 1_555 1_555
O3 C15 1_555 1_555
N3 C15 1_555 1_555
H16 N3 1_555 1_555
C16 N3 1_555 1_555
H17 C16 1_555 1_555
C17 C16 1_555 1_555
H18 C17 1_555 1_555
H19 C17 1_555 1_555
C18 C17 1_555 1_555
C19 C18 1_555 1_555
H20 C19 1_555 1_555
C20 C19 1_555 1_555
H21 C20 1_555 1_555
C21 C20 1_555 1_555
H22 C21 1_555 1_555
C22 C21 1_555 1_555
H23 C22 1_555 1_555
C23 C18 1_555 1_555
H24 C23 1_555 1_555
C24 C16 1_555 1_555
H25 C24 1_555 1_555
O4 C24 1_555 1_555
H26 O4 1_555 1_555
C25 C24 1_555 1_555
O5 C25 1_555 1_555
N4 C25 1_555 1_555
C26 N4 1_555 1_555
H27 C26 1_555 1_555
C27 C26 1_555 1_555
H28 C27 1_555 1_555
H29 C27 1_555 1_555
S2 C27 1_555 1_555
C28 N4 1_555 1_555
H30 C28 1_555 1_555
H31 C28 1_555 1_555
C29 C26 1_555 1_555
O6 C29 1_555 1_555
N5 C29 1_555 1_555
H32 N5 1_555 1_555
C30 N5 1_555 1_555
C31 C30 1_555 1_555
H33 C31 1_555 1_555
H34 C31 1_555 1_555
H35 C31 1_555 1_555
C32 C30 1_555 1_555
H36 C32 1_555 1_555
H37 C32 1_555 1_555
H38 C32 1_555 1_555
C33 C30 1_555 1_555
H39 C33 1_555 1_555
H40 C33 1_555 1_555
H41 C33 1_555 1_555
S3 O7 1_555 1_555
C34 S3 1_555 1_555
H42 C34 1_555 1_555
H43 C34 1_555 1_555
H44 C34 1_555 1_555
C35 S3 1_555 1_555
H45 C35 1_555 1_555
H46 C35 1_555 1_555
H47 C35 1_555 1_555
C3 C8 1_555 1_555
C7 C9 1_555 1_555
C8 C9 1_555 1_555
C22 C23 1_555 1_555
S2 C28 1_555 1_555

#END
