
#######################################################################
#
#                 Cambridge Crystallographic Data Centre
#                                CCDC 
#
#######################################################################
#
# If this CIF has been generated from an entry in the Cambridge 
# Structural Database, then it will include bibliographic, chemical, 
# crystal, experimental, refinement or atomic coordinate data resulting 
# from the CCDC's data processing and validation procedures.
#
#######################################################################

data_EYODAX
_chemical_formula_moiety         'C26 H38 O21 S2'
_chemical_name_systematic        
2,2',3,3',4,4'-Hexa-O-acetyl-6,6'-di-O-methylsulfonyl-\a,\a'-trehalose
_symmetry_cell_setting           monoclinic
_symmetry_space_group_name_H-M   'C 2'
_symmetry_Int_Tables_number      5
_space_group_name_Hall           'C 2y'
loop_
_symmetry_equiv_pos_site_id
_symmetry_equiv_pos_as_xyz
1 x,y,z
2 -x,y,-z
3 1/2+x,1/2+y,z
4 1/2-x,1/2+y,-z
_cell_length_a                   21.3279(8)
_cell_length_b                   8.9299(4)
_cell_length_c                   8.8382(4)
_cell_angle_alpha                90
_cell_angle_beta                 99.4537(17)
_cell_angle_gamma                90
_cell_volume                     1660.43
_exptl_crystal_colour            colorless
_exptl_crystal_description       block
_chemical_melting_point          '441 K'
_cell_formula_units_Z            2
_exptl_crystal_recrystallization_method ethanol
loop_
_atom_site_label
_atom_site_type_symbol
_atom_site_fract_x
_atom_site_fract_y
_atom_site_fract_z
C1 C 0.48997(13) 0.6069(4) 0.3623(3)
C2 C 0.48718(13) 0.7206(4) 0.2339(3)
C3 C 0.43143(13) 0.8265(4) 0.2393(3)
C4 C 0.37131(13) 0.7332(4) 0.2258(3)
C5 C 0.37716(13) 0.6118(3) 0.3488(3)
O1 O 0.43313(9) 0.5223(3) 0.3446(2)
O2 O 0.32153(9) 0.8347(3) 0.2519(2)
C6 C 0.26512(14) 0.8250(4) 0.1554(4)
C7 C 0.22101(15) 0.9469(4) 0.1858(4)
O3 O 0.25405(11) 0.7303(4) 0.0591(3)
O4 O 0.42296(10) 0.9264(3) 0.1097(2)
C8 C 0.43967(14) 1.0730(4) 0.1390(4)
C9 C 0.41495(17) 1.1692(4) 0.0048(4)
O5 O 0.46981(11) 1.1150(3) 0.2575(3)
O6 O 0.54540(9) 0.8073(3) 0.2558(2)
C10 C 0.59471(14) 0.7434(4) 0.1995(3)
O7 O 0.58974(10) 0.6302(3) 0.1271(3)
C11 C 0.65478(15) 0.8328(5) 0.2437(4)
O8 O 0.5000 0.6900(3) 0.5000
C12 C 0.32139(15) 0.5049(4) 0.3221(4)
O9 O 0.32225(11) 0.4119(3) 0.4579(3)
S1 S 0.33306(4) 0.23747(10) 0.45198(9)
C13 C 0.41110(16) 0.2172(5) 0.5466(4)
O10 O 0.29125(12) 0.1756(3) 0.5459(3)
O11 O 0.32804(12) 0.1905(3) 0.2964(3)
H1 H 0.5268 0.5381 0.3601
H2 H 0.4817 0.6682 0.1326
H3 H 0.4380 0.8846 0.3374
H4 H 0.3611 0.6877 0.1213
H5 H 0.3798 0.6593 0.4521
H6 H 0.2301 1.0378 0.1310
H7 H 0.2269 0.9674 0.2961
H8 H 0.1770 0.9157 0.1501
H9 H 0.3684 1.1713 -0.0096
H10 H 0.4287 1.1284 -0.0874
H11 H 0.4315 1.2711 0.0230
H12 H 0.6739 0.8085 0.3494
H13 H 0.6448 0.9399 0.2362
H14 H 0.6847 0.8082 0.1744
H15 H 0.2811 0.5621 0.3014
H16 H 0.3242 0.4410 0.2320
H17 H 0.4159 0.2675 0.6464
H18 H 0.4403 0.2623 0.4847
H19 H 0.4210 0.1106 0.5618
C1A C 0.51003(13) 0.6069(4) 0.6377(3)
C2A C 0.51282(13) 0.7206(4) 0.7661(3)
C3A C 0.56857(13) 0.8265(4) 0.7607(3)
C4A C 0.62869(13) 0.7332(4) 0.7742(3)
C5A C 0.62284(13) 0.6118(3) 0.6512(3)
O1A O 0.56687(9) 0.5223(3) 0.6554(2)
H1A H 0.4732 0.5381 0.6399
C12A C 0.67861(15) 0.5049(4) 0.6779(4)
O9A O 0.67775(11) 0.4119(3) 0.5421(3)
S1A S 0.66694(4) 0.23747(10) 0.54802(9)
C13A C 0.58890(16) 0.2172(5) 0.4534(4)
H17A H 0.5841 0.2675 0.3536
H18A H 0.5597 0.2623 0.5153
H19A H 0.5790 0.1106 0.4382
O10A O 0.70875(12) 0.1756(3) 0.4541(3)
O11A O 0.67196(12) 0.1905(3) 0.7036(3)
H15A H 0.7189 0.5621 0.6986
H16A H 0.6758 0.4410 0.7680
H5A H 0.6202 0.6593 0.5479
O2A O 0.67847(9) 0.8347(3) 0.7481(2)
C6A C 0.73488(14) 0.8250(4) 0.8446(4)
C7A C 0.77899(15) 0.9469(4) 0.8142(4)
H6A H 0.7699 1.0378 0.8690
H7A H 0.7731 0.9674 0.7039
H8A H 0.8230 0.9157 0.8499
O3A O 0.74595(11) 0.7303(4) 0.9409(3)
H4A H 0.6389 0.6877 0.8787
O4A O 0.57704(10) 0.9264(3) 0.8903(2)
C8A C 0.56033(14) 1.0730(4) 0.8610(4)
C9A C 0.58505(17) 1.1692(4) 0.9952(4)
H9A H 0.6316 1.1713 1.0096
H10A H 0.5713 1.1284 1.0874
H11A H 0.5685 1.2711 0.9770
O5A O 0.53019(11) 1.1150(3) 0.7425(3)
H3A H 0.5620 0.8846 0.6626
O6A O 0.45460(9) 0.8073(3) 0.7442(2)
C10A C 0.40529(14) 0.7434(4) 0.8005(3)
O7A O 0.41026(10) 0.6302(3) 0.8729(3)
C11A C 0.34522(15) 0.8328(5) 0.7563(4)
H12A H 0.3261 0.8085 0.6506
H13A H 0.3552 0.9399 0.7638
H14A H 0.3153 0.8082 0.8256
H2A H 0.5183 0.6682 0.8674
loop_
_geom_bond_atom_site_label_1
_geom_bond_atom_site_label_2
_geom_bond_site_symmetry_1
_geom_bond_site_symmetry_2
C1 C2 1_555 1_555
C2 C3 1_555 1_555
C3 C4 1_555 1_555
C4 C5 1_555 1_555
C5 O1 1_555 1_555
O1 C1 1_555 1_555
O2 C4 1_555 1_555
C6 O2 1_555 1_555
C7 C6 1_555 1_555
O3 C6 1_555 1_555
O4 C3 1_555 1_555
C8 O4 1_555 1_555
C9 C8 1_555 1_555
O5 C8 1_555 1_555
O6 C2 1_555 1_555
C10 O6 1_555 1_555
O7 C10 1_555 1_555
C11 C10 1_555 1_555
O8 C1 1_555 1_555
C12 C5 1_555 1_555
O9 C12 1_555 1_555
S1 O9 1_555 1_555
C13 S1 1_555 1_555
O10 S1 1_555 1_555
O11 S1 1_555 1_555
H1 C1 1_555 1_555
H2 C2 1_555 1_555
H3 C3 1_555 1_555
H4 C4 1_555 1_555
H5 C5 1_555 1_555
H6 C7 1_555 1_555
H7 C7 1_555 1_555
H8 C7 1_555 1_555
H9 C9 1_555 1_555
H10 C9 1_555 1_555
H11 C9 1_555 1_555
H12 C11 1_555 1_555
H13 C11 1_555 1_555
H14 C11 1_555 1_555
H15 C12 1_555 1_555
H16 C12 1_555 1_555
H17 C13 1_555 1_555
H18 C13 1_555 1_555
H19 C13 1_555 1_555
C1A O8 1_555 1_555
C2A C1A 1_555 1_555
C3A C2A 1_555 1_555
C4A C3A 1_555 1_555
C5A C4A 1_555 1_555
O1A C1A 1_555 1_555
H1A C1A 1_555 1_555
C12A C5A 1_555 1_555
O9A C12A 1_555 1_555
S1A O9A 1_555 1_555
C13A S1A 1_555 1_555
H17A C13A 1_555 1_555
H18A C13A 1_555 1_555
H19A C13A 1_555 1_555
O10A S1A 1_555 1_555
O11A S1A 1_555 1_555
H15A C12A 1_555 1_555
H16A C12A 1_555 1_555
H5A C5A 1_555 1_555
O2A C4A 1_555 1_555
C6A O2A 1_555 1_555
C7A C6A 1_555 1_555
H6A C7A 1_555 1_555
H7A C7A 1_555 1_555
H8A C7A 1_555 1_555
O3A C6A 1_555 1_555
H4A C4A 1_555 1_555
O4A C3A 1_555 1_555
C8A O4A 1_555 1_555
C9A C8A 1_555 1_555
H9A C9A 1_555 1_555
H10A C9A 1_555 1_555
H11A C9A 1_555 1_555
O5A C8A 1_555 1_555
H3A C3A 1_555 1_555
O6A C2A 1_555 1_555
C10A O6A 1_555 1_555
O7A C10A 1_555 1_555
C11A C10A 1_555 1_555
H12A C11A 1_555 1_555
H13A C11A 1_555 1_555
H14A C11A 1_555 1_555
H2A C2A 1_555 1_555
C5A O1A 1_555 1_555

#END
