
#######################################################################
#
#                 Cambridge Crystallographic Data Centre
#                                CCDC 
#
#######################################################################
#
# If this CIF has been generated from an entry in the Cambridge 
# Structural Database, then it will include bibliographic, chemical, 
# crystal, experimental, refinement or atomic coordinate data resulting 
# from the CCDC's data processing and validation procedures.
#
#######################################################################

data_EYODOL
_chemical_formula_moiety         'C24 H36 N2 O15,2(H2 O1)'
_chemical_name_systematic        
"2,2',3,3'-Tetra-O-acetyl-6,6'-dideoxy-6,6'-bis(N-acetylamino)-\a,\a'-trehalose dihydrate"
_symmetry_cell_setting           orthorhombic
_symmetry_space_group_name_H-M   'P 21 21 2'
_symmetry_Int_Tables_number      18
_space_group_name_Hall           'P 2 2ab'
loop_
_symmetry_equiv_pos_site_id
_symmetry_equiv_pos_as_xyz
1 x,y,z
2 -x,-y,z
3 1/2+x,1/2-y,-z
4 1/2-x,1/2+y,-z
_cell_length_a                   8.8385(2)
_cell_length_b                   21.8363(8)
_cell_length_c                   8.0831(2)
_cell_angle_alpha                90
_cell_angle_beta                 90
_cell_angle_gamma                90
_cell_volume                     1560.04
_exptl_crystal_colour            colorless
_exptl_crystal_description       block
_chemical_melting_point          '477 K'
_cell_formula_units_Z            2
_exptl_crystal_recrystallization_method ethanol
loop_
_atom_site_label
_atom_site_type_symbol
_atom_site_fract_x
_atom_site_fract_y
_atom_site_fract_z
O1 O 0.5000 0.5000 0.4133(3)
O2 O 0.2355(2) 0.54797(8) 0.5288(3)
O3 O 0.1489(2) 0.43759(11) 0.6972(3)
O4 O 0.3628(2) 0.34172(10) 0.6395(3)
O5 O 0.37591(19) 0.42726(8) 0.2523(2)
O6 O 0.0861(2) 0.58510(9) 0.3284(3)
O7 O 0.2831(3) 0.48702(15) 0.8978(3)
O8 O 0.6545(3) 0.24019(11) 0.3050(4)
N1 N 0.5457(3) 0.31774(11) 0.1653(3)
C1 C 0.3683(3) 0.48644(11) 0.3225(3)
C2 C 0.2395(3) 0.48866(12) 0.4482(3)
C3 C 0.2746(3) 0.44260(13) 0.5831(4)
C4 C 0.3005(3) 0.37896(12) 0.5128(4)
C5 C 0.4137(3) 0.38047(12) 0.3698(3)
C6 C 0.4163(3) 0.32100(12) 0.2744(4)
C7 C 0.1520(3) 0.59248(13) 0.4567(4)
C8 C 0.1565(4) 0.65001(14) 0.5568(5)
C9 C 0.1770(4) 0.4547(2) 0.8561(5)
C10 C 0.0645(6) 0.4261(3) 0.9678(6)
C11 C 0.6580(4) 0.27806(13) 0.1897(4)
C12 C 0.7924(4) 0.28368(16) 0.0767(4)
H1 H 0.2937 0.3204 0.6746
H2 H 0.5423 0.3408 0.0871
H3 H 0.3521 0.5178 0.2341
H4 H 0.1404 0.4793 0.3943
H5 H 0.3669 0.4560 0.6448
H6 H 0.2023 0.3612 0.4744
H7 H 0.5171 0.3886 0.4147
H8 H 0.4194 0.2862 0.3529
H9 H 0.3224 0.3175 0.2084
H10 H 0.2154 0.6812 0.4979
H11 H 0.2040 0.6416 0.6640
H12 H 0.0533 0.6650 0.5745
H13 H 0.1057 0.3875 1.0105
H14 H -0.0290 0.4178 0.9066
H15 H 0.0429 0.4537 1.0603
H16 H 0.8749 0.3045 0.1351
H17 H 0.7640 0.3075 -0.0212
H18 H 0.8257 0.2428 0.0427
C1A C 0.6317(3) 0.51356(11) 0.3225(3)
O5A O 0.62409(19) 0.57274(8) 0.2523(2)
C5A C 0.5863(3) 0.61953(12) 0.3698(3)
C4A C 0.6995(3) 0.62104(12) 0.5128(4)
O4A O 0.6372(2) 0.65828(10) 0.6395(3)
H1A H 0.7063 0.6796 0.6746
C3A C 0.7254(3) 0.55740(13) 0.5831(4)
O3A O 0.8511(2) 0.56241(11) 0.6972(3)
C9A C 0.8230(4) 0.5453(2) 0.8561(5)
O7A O 0.7169(3) 0.51298(15) 0.8978(3)
C10A C 0.9355(6) 0.5739(3) 0.9678(6)
H13A H 0.8943 0.6125 1.0105
H14A H 1.0290 0.5822 0.9066
H15A H 0.9571 0.5463 1.0603
C2A C 0.7605(3) 0.51134(12) 0.4482(3)
O2A O 0.7645(2) 0.45203(8) 0.5288(3)
C7A C 0.8480(3) 0.40752(13) 0.4567(4)
O6A O 0.9139(2) 0.41490(9) 0.3284(3)
C8A C 0.8435(4) 0.34999(14) 0.5568(5)
H10A H 0.7846 0.3188 0.4979
H11A H 0.7960 0.3584 0.6640
H12A H 0.9467 0.3350 0.5745
H3A H 0.6479 0.4822 0.2341
H4A H 0.8596 0.5207 0.3943
H5A H 0.6331 0.5440 0.6448
H6A H 0.7977 0.6388 0.4744
C6A C 0.5837(3) 0.67900(12) 0.2744(4)
N1A N 0.4543(3) 0.68226(11) 0.1653(3)
C11A C 0.3420(4) 0.72194(13) 0.1897(4)
O8A O 0.3455(3) 0.75981(11) 0.3050(4)
C12A C 0.2076(4) 0.71632(16) 0.0767(4)
H16A H 0.1251 0.6955 0.1351
H17A H 0.2360 0.6925 -0.0212
H18A H 0.1743 0.7572 0.0427
H2A H 0.4577 0.6592 0.0871
H8A H 0.5806 0.7138 0.3529
H9A H 0.6776 0.6825 0.2084
H7A H 0.4829 0.6114 0.4147
O9 O 0.5812(3) 0.38698(13) -0.1289(3)
H19 H 0.5873 0.4269 -0.0731
H20 H 0.4972 0.3785 -0.2002
loop_
_geom_bond_atom_site_label_1
_geom_bond_atom_site_label_2
_geom_bond_site_symmetry_1
_geom_bond_site_symmetry_2
O1 C1 1_555 1_555
O2 C2 1_555 1_555
O3 C3 1_555 1_555
O4 C4 1_555 1_555
O5 C1 1_555 1_555
O6 C7 1_555 1_555
O7 C9 1_555 1_555
O8 C11 1_555 1_555
N1 C6 1_555 1_555
C1 C2 1_555 1_555
C2 C3 1_555 1_555
C3 C4 1_555 1_555
C4 C5 1_555 1_555
C5 O5 1_555 1_555
C6 C5 1_555 1_555
C7 O2 1_555 1_555
C8 C7 1_555 1_555
C9 O3 1_555 1_555
C10 C9 1_555 1_555
C11 N1 1_555 1_555
C12 C11 1_555 1_555
O9 H19 1_555 1_555
H1 O4 1_555 1_555
H2 N1 1_555 1_555
H3 C1 1_555 1_555
H4 C2 1_555 1_555
H5 C3 1_555 1_555
H6 C4 1_555 1_555
H7 C5 1_555 1_555
H8 C6 1_555 1_555
H9 C6 1_555 1_555
H10 C8 1_555 1_555
H11 C8 1_555 1_555
H12 C8 1_555 1_555
H13 C10 1_555 1_555
H14 C10 1_555 1_555
H15 C10 1_555 1_555
H16 C12 1_555 1_555
H17 C12 1_555 1_555
H18 C12 1_555 1_555
H20 O9 1_555 1_555
C1A O1 1_555 1_555
O5A C1A 1_555 1_555
C5A O5A 1_555 1_555
C4A C5A 1_555 1_555
O4A C4A 1_555 1_555
H1A O4A 1_555 1_555
C3A C4A 1_555 1_555
O3A C3A 1_555 1_555
C9A O3A 1_555 1_555
O7A C9A 1_555 1_555
C10A C9A 1_555 1_555
H13A C10A 1_555 1_555
H14A C10A 1_555 1_555
H15A C10A 1_555 1_555
C2A C1A 1_555 1_555
O2A C2A 1_555 1_555
C7A O2A 1_555 1_555
O6A C7A 1_555 1_555
C8A C7A 1_555 1_555
H10A C8A 1_555 1_555
H11A C8A 1_555 1_555
H12A C8A 1_555 1_555
H3A C1A 1_555 1_555
H4A C2A 1_555 1_555
H5A C3A 1_555 1_555
H6A C4A 1_555 1_555
C6A C5A 1_555 1_555
N1A C6A 1_555 1_555
C11A N1A 1_555 1_555
O8A C11A 1_555 1_555
C12A C11A 1_555 1_555
H16A C12A 1_555 1_555
H17A C12A 1_555 1_555
H18A C12A 1_555 1_555
H2A N1A 1_555 1_555
H8A C6A 1_555 1_555
H9A C6A 1_555 1_555
H7A C5A 1_555 1_555
C3A C2A 1_555 1_555

#END
