
#######################################################################
#
#                 Cambridge Crystallographic Data Centre
#                                CCDC 
#
#######################################################################
#
# If this CIF has been generated from an entry in the Cambridge 
# Structural Database, then it will include bibliographic, chemical, 
# crystal, experimental, refinement or atomic coordinate data resulting 
# from the CCDC's data processing and validation procedures.
#
#######################################################################

data_EYOFII01
_chemical_formula_moiety         'C18 H11 N1 O1'
_chemical_name_systematic        7H-[1]Benzofuro[2,3-b]carbazole
_symmetry_cell_setting           orthorhombic
_symmetry_space_group_name_H-M   'P c a 21'
_symmetry_Int_Tables_number      29
_space_group_name_Hall           'P 2c -2ac'
loop_
_symmetry_equiv_pos_site_id
_symmetry_equiv_pos_as_xyz
1 x,y,z
2 -x,-y,1/2+z
3 1/2-x,y,1/2+z
4 1/2+x,-y,z
_cell_length_a                   26.087(3)
_cell_length_b                   5.9585(8)
_cell_length_c                   7.8146(10)
_cell_angle_alpha                90
_cell_angle_beta                 90
_cell_angle_gamma                90
_cell_volume                     1214.7
_exptl_crystal_colour            colorless
_exptl_crystal_description       block
_cell_formula_units_Z            4
loop_
_atom_site_label
_atom_site_type_symbol
_atom_site_fract_x
_atom_site_fract_y
_atom_site_fract_z
C1 C 0.95422(6) 0.1951(2) 0.5133(2)
C2 C 0.90187(6) 0.2333(3) 0.5252(2)
H1 H 0.8802 0.1313 0.5790
C3 C 0.88330(6) 0.4286(3) 0.4541(2)
H2 H 0.8484 0.4587 0.4602
C4 C 0.91550(6) 0.5822(3) 0.3733(2)
H3 H 0.9017 0.7122 0.3262
C5 C 0.96747(6) 0.5437(2) 0.3624(2)
H4 H 0.9889 0.6474 0.3093
C6 C 0.98745(5) 0.3475(2) 0.43203(19)
C7 C 1.03818(5) 0.2503(2) 0.43841(19)
C8 C 1.08582(5) 0.3196(2) 0.37727(18)
H5 H 1.0899 0.4576 0.3233
C9 C 1.12697(6) 0.1751(2) 0.4000(2)
C10 C 1.11930(6) -0.0328(2) 0.4815(2)
C11 C 1.07375(6) -0.1066(3) 0.5477(2)
H6 H 1.0703 -0.2431 0.6042
C12 C 1.03323(6) 0.0405(2) 0.5230(2)
C13 C 1.18108(6) 0.1825(3) 0.3568(2)
C14 C 1.21349(6) 0.3394(3) 0.2832(2)
H7 H 1.2009 0.4763 0.2444
C15 C 1.26512(6) 0.2873(4) 0.2688(3)
H8 H 1.2874 0.3903 0.2192
C16 C 1.28401(7) 0.0836(4) 0.3275(3)
H9 H 1.3188 0.0533 0.3169
C17 C 1.25258(7) -0.0744(3) 0.4009(2)
H10 H 1.2652 -0.2110 0.4403
C18 C 1.20141(6) -0.0194(3) 0.4131(2)
N1 N 0.98259(5) 0.0150(2) 0.57102(18)
H11 H 0.9706 -0.0965 0.6283
O1 O 1.16449(4) -0.15463(18) 0.48849(17)
loop_
_geom_bond_atom_site_label_1
_geom_bond_atom_site_label_2
_geom_bond_site_symmetry_1
_geom_bond_site_symmetry_2
C1 C2 1_555 1_555
C2 H1 1_555 1_555
C3 C2 1_555 1_555
H2 C3 1_555 1_555
C4 C3 1_555 1_555
H3 C4 1_555 1_555
C5 C4 1_555 1_555
H4 C5 1_555 1_555
C6 C1 1_555 1_555
C7 C6 1_555 1_555
C8 C7 1_555 1_555
H5 C8 1_555 1_555
C9 C8 1_555 1_555
C10 C9 1_555 1_555
C11 C10 1_555 1_555
H6 C11 1_555 1_555
C12 C7 1_555 1_555
C13 C9 1_555 1_555
C14 C13 1_555 1_555
H7 C14 1_555 1_555
C15 C14 1_555 1_555
H8 C15 1_555 1_555
C16 C15 1_555 1_555
H9 C16 1_555 1_555
C17 C16 1_555 1_555
H10 C17 1_555 1_555
C18 C13 1_555 1_555
N1 C1 1_555 1_555
H11 N1 1_555 1_555
O1 C10 1_555 1_555
C5 C6 1_555 1_555
C11 C12 1_555 1_555
C12 N1 1_555 1_555
C17 C18 1_555 1_555
C18 O1 1_555 1_555

#END
