
#######################################################################
#
#                 Cambridge Crystallographic Data Centre
#                                CCDC 
#
#######################################################################
#
# If this CIF has been generated from an entry in the Cambridge 
# Structural Database, then it will include bibliographic, chemical, 
# crystal, experimental, refinement or atomic coordinate data resulting 
# from the CCDC's data processing and validation procedures.
#
#######################################################################

data_EYOKUZ
_chemical_formula_moiety         'C26 H34 N2 O4'
_chemical_name_systematic        
4-(Benzyloxy)-6-((benzyloxy)imino)-2,5-di-sec-butylmorpholin-3-one
_symmetry_cell_setting           monoclinic
_symmetry_space_group_name_H-M   'P 21'
_symmetry_Int_Tables_number      4
_space_group_name_Hall           'P 2yb'
loop_
_symmetry_equiv_pos_site_id
_symmetry_equiv_pos_as_xyz
1 x,y,z
2 -x,1/2+y,-z
_cell_length_a                   13.7524(8)
_cell_length_b                   6.0384(4)
_cell_length_c                   28.938(2)
_cell_angle_alpha                90
_cell_angle_beta                 96.020(5)
_cell_angle_gamma                90
_cell_volume                     2389.83
_exptl_crystal_colour            colorless
_exptl_crystal_description       needle
_cell_formula_units_Z            4
loop_
_atom_site_label
_atom_site_type_symbol
_atom_site_fract_x
_atom_site_fract_y
_atom_site_fract_z
C1 C -0.1602(5) 0.5877(13) 0.1662(3)
C3 C -0.2304(4) 0.5908(13) 0.2029(2)
H1 H -0.2553 0.7457 0.2050
C5 C -0.2971(4) 0.2479(12) 0.1731(2)
C8 C -0.2310(5) 0.2309(13) 0.1351(2)
H4 H -0.1917 0.0925 0.1408
C10 C -0.1793(5) 0.5262(12) 0.2516(3)
H6 H -0.2314 0.4590 0.2687
C11 C -0.1032(6) 0.3543(15) 0.2505(3)
H7 H -0.1290 0.2303 0.2311
H8 H -0.0839 0.3014 0.2822
H9 H -0.0461 0.4170 0.2376
C14 C -0.1419(5) 0.7238(13) 0.2799(3)
H15 H -0.1014 0.8156 0.2610
H16 H -0.0994 0.6711 0.3074
C16 C -0.2219(5) 0.8666(13) 0.2961(2)
H20 H -0.2642 0.9208 0.2691
H21 H -0.1927 0.9927 0.3138
H22 H -0.2608 0.7789 0.3159
C18 C -0.4735(4) -0.0706(12) 0.2171(2)
H25 H -0.5134 -0.0557 0.2434
H26 H -0.4334 -0.2064 0.2220
C20 C -0.5409(4) -0.0918(13) 0.1718(2)
C21 C -0.5390(5) -0.2846(13) 0.1460(2)
H27 H -0.4973 -0.4035 0.1568
C24 C -0.5980(5) -0.3027(16) 0.1046(3)
H30 H -0.5959 -0.4333 0.0864
C26 C -0.6597(6) -0.1325(17) 0.0895(3)
H32 H -0.7005 -0.1458 0.0610
C28 C -0.6621(6) 0.0492(15) 0.1146(3)
H34 H -0.7064 0.1639 0.1043
C29 C -0.6013(5) 0.0783(14) 0.1561(2)
H35 H -0.6020 0.2131 0.1730
C32 C -0.2901(5) 0.2075(14) 0.0867(2)
H38 H -0.2436 0.2456 0.0636
C34 C -0.3710(6) 0.3815(19) 0.0806(2)
H42 H -0.3947 0.3950 0.0476
H43 H -0.3452 0.5246 0.0923
H44 H -0.4250 0.3367 0.0981
C36 C -0.3232(8) -0.0256(16) 0.0757(3)
H47 H -0.3552 -0.0846 0.1022
H48 H -0.2651 -0.1184 0.0723
C38 C -0.3978(9) -0.048(5) 0.0293(4)
H52 H -0.4371 0.0876 0.0250
H53 H -0.4410 -0.1749 0.0322
H54 H -0.3608 -0.0690 0.0025
C40 C -0.0064(4) 0.3030(16) 0.1235(2)
H57 H -0.0185 0.1667 0.1411
H58 H 0.0302 0.4090 0.1449
C41 C 0.0497(5) 0.2508(14) 0.0835(2)
C44 C 0.1099(4) 0.4073(14) 0.0667(2)
H60 H 0.1185 0.5466 0.0818
C45 C 0.1569(5) 0.3637(14) 0.0287(2)
H61 H 0.1987 0.4729 0.0178
C48 C 0.1451(5) 0.1613(15) 0.0055(2)
H64 H 0.1778 0.1327 -0.0212
C49 C 0.0864(5) 0.0075(15) 0.0216(3)
H65 H 0.0777 -0.1313 0.0063
C52 C 0.0389(5) 0.0497(15) 0.0601(3)
H68 H -0.0022 -0.0608 0.0710
N1 N -0.1643(4) 0.4103(11) 0.13726(18)
N4 N -0.3442(4) 0.0771(9) 0.18251(18)
O1 O -0.3139(3) 0.4483(8) 0.19079(16)
O3 O -0.0984(3) 0.7388(9) 0.16446(18)
O5 O -0.4103(3) 0.1187(8) 0.21582(14)
O8 O -0.0983(3) 0.3998(9) 0.10380(14)
C2 C 0.1573(5) -0.1891(12) 0.3429(3)
C4 C 0.2219(5) -0.2054(12) 0.3046(3)
H2 H 0.2503 -0.3579 0.3067
C6 C 0.2957(5) 0.1458(13) 0.3275(2)
C7 C 0.2353(5) 0.1803(13) 0.3676(2)
H3 H 0.2009 0.3261 0.3638
C9 C 0.1639(7) -0.1910(17) 0.2577(3)
H5 H 0.1091 -0.3003 0.2568
C12 C 0.1188(6) 0.044(2) 0.2495(3)
H10 H 0.1712 0.1522 0.2474
H11 H 0.0817 0.0828 0.2755
H12 H 0.0750 0.0447 0.2205
C13 C 0.2241(7) -0.245(2) 0.2191(3)
H13 H 0.2420 -0.1016 0.2059
H14 H 0.2857 -0.3101 0.2341
C15 C 0.2003(9) -0.357(4) 0.1879(4)
H17 H 0.1491 -0.4587 0.1960
H18 H 0.2565 -0.4427 0.1797
H19 H 0.1748 -0.2656 0.1614
C17 C 0.4719(4) 0.4497(13) 0.2801(2)
H23 H 0.4325 0.5857 0.2737
H24 H 0.5111 0.4271 0.2537
C19 C 0.5388(5) 0.4841(13) 0.3225(2)
C22 C 0.5394(5) 0.6750(14) 0.3484(2)
H28 H 0.4936 0.7876 0.3386
C23 C 0.6028(5) 0.7122(15) 0.3877(2)
H29 H 0.6016 0.8483 0.4042
C25 C 0.6680(6) 0.5470(17) 0.4027(3)
H31 H 0.7118 0.5670 0.4301
C27 C 0.6692(6) 0.3461(17) 0.3769(3)
H33 H 0.7129 0.2298 0.3870
C30 C 0.6063(5) 0.3241(14) 0.3374(3)
H36 H 0.6092 0.1929 0.3195
C31 C 0.2982(6) 0.1736(17) 0.4160(3)
H37 H 0.2536 0.1359 0.4401
C33 C 0.3388(7) 0.406(2) 0.4267(3)
H39 H 0.3672 0.4125 0.4592
H40 H 0.2858 0.5143 0.4215
H41 H 0.3893 0.4388 0.4062
C35 C 0.3749(6) 0.0096(17) 0.4186(3)
H45 H 0.4259 0.0566 0.3989
H46 H 0.3477 -0.1331 0.4064
C37 C 0.4201(7) -0.022(3) 0.4676(3)
H49 H 0.4537 0.1149 0.4785
H50 H 0.4673 -0.1436 0.4688
H51 H 0.3689 -0.0563 0.4876
C39 C 0.0070(4) 0.1234(12) 0.3789(2)
H55 H -0.0266 0.0167 0.3566
H56 H 0.0196 0.2618 0.3622
C42 C -0.0531(4) 0.1684(11) 0.4187(2)
C43 C -0.1141(4) 0.0075(12) 0.4334(2)
H59 H -0.1222 -0.1283 0.4169
C46 C -0.1637(4) 0.0424(13) 0.4721(2)
H62 H -0.2049 -0.0695 0.4825
C47 C -0.1526(5) 0.2394(14) 0.4953(2)
H63 H -0.1859 0.2645 0.5219
C50 C -0.0927(5) 0.4032(13) 0.4799(2)
H66 H -0.0851 0.5399 0.4962
C51 C -0.0445(5) 0.3680(11) 0.4413(2)
H67 H -0.0052 0.4819 0.4303
N2 N 0.1612(4) -0.0019(10) 0.36604(18)
N3 N 0.3462(4) 0.3128(9) 0.3176(2)
O2 O 0.3047(3) -0.0544(8) 0.30825(16)
O4 O 0.0995(3) -0.3376(9) 0.34924(18)
O6 O 0.4064(3) 0.2643(8) 0.28233(15)
O7 O 0.0980(3) 0.0299(8) 0.40150(14)
loop_
_geom_bond_atom_site_label_1
_geom_bond_atom_site_label_2
_geom_bond_site_symmetry_1
_geom_bond_site_symmetry_2
C1 C3 1_555 1_555
C2 C4 1_555 1_555
C3 H1 1_555 1_555
C4 H2 1_555 1_555
C5 C8 1_555 1_555
C6 C7 1_555 1_555
C7 H3 1_555 1_555
C8 H4 1_555 1_555
C9 C4 1_555 1_555
H5 C9 1_555 1_555
C10 C3 1_555 1_555
H6 C10 1_555 1_555
C11 C10 1_555 1_555
H7 C11 1_555 1_555
H8 C11 1_555 1_555
H9 C11 1_555 1_555
C12 C9 1_555 1_555
H10 C12 1_555 1_555
H11 C12 1_555 1_555
H12 C12 1_555 1_555
C13 C9 1_555 1_555
H13 C13 1_555 1_555
H14 C13 1_555 1_555
C14 C10 1_555 1_555
H15 C14 1_555 1_555
H16 C14 1_555 1_555
C15 C13 1_555 1_555
H17 C15 1_555 1_555
H18 C15 1_555 1_555
H19 C15 1_555 1_555
C16 C14 1_555 1_555
H20 C16 1_555 1_555
H21 C16 1_555 1_555
H22 C16 1_555 1_555
C17 H23 1_555 1_555
H24 C17 1_555 1_555
C18 H25 1_555 1_555
H26 C18 1_555 1_555
C19 C17 1_555 1_555
C20 C18 1_555 1_555
C21 C20 1_555 1_555
H27 C21 1_555 1_555
C22 C19 1_555 1_555
H28 C22 1_555 1_555
C23 C22 1_555 1_555
H29 C23 1_555 1_555
C24 C21 1_555 1_555
H30 C24 1_555 1_555
C25 C23 1_555 1_555
H31 C25 1_555 1_555
C26 C24 1_555 1_555
H32 C26 1_555 1_555
C27 C25 1_555 1_555
H33 C27 1_555 1_555
C28 C26 1_555 1_555
H34 C28 1_555 1_555
C29 C20 1_555 1_555
H35 C29 1_555 1_555
C30 C19 1_555 1_555
H36 C30 1_555 1_555
C31 C7 1_555 1_555
H37 C31 1_555 1_555
C32 C8 1_555 1_555
H38 C32 1_555 1_555
C33 C31 1_555 1_555
H39 C33 1_555 1_555
H40 C33 1_555 1_555
H41 C33 1_555 1_555
C34 C32 1_555 1_555
H42 C34 1_555 1_555
H43 C34 1_555 1_555
H44 C34 1_555 1_555
C35 C31 1_555 1_555
H45 C35 1_555 1_555
H46 C35 1_555 1_555
C36 C32 1_555 1_555
H47 C36 1_555 1_555
H48 C36 1_555 1_555
C37 C35 1_555 1_555
H49 C37 1_555 1_555
H50 C37 1_555 1_555
H51 C37 1_555 1_555
C38 C36 1_555 1_555
H52 C38 1_555 1_555
H53 C38 1_555 1_555
H54 C38 1_555 1_555
C39 H55 1_555 1_555
H56 C39 1_555 1_555
C40 H57 1_555 1_555
H58 C40 1_555 1_555
C41 C40 1_555 1_555
C42 C39 1_555 1_555
C43 C42 1_555 1_555
H59 C43 1_555 1_555
C44 C41 1_555 1_555
H60 C44 1_555 1_555
C45 C44 1_555 1_555
H61 C45 1_555 1_555
C46 C43 1_555 1_555
H62 C46 1_555 1_555
C47 C46 1_555 1_555
H63 C47 1_555 1_555
C48 C45 1_555 1_555
H64 C48 1_555 1_555
C49 C48 1_555 1_555
H65 C49 1_555 1_555
C50 C47 1_555 1_555
H66 C50 1_555 1_555
C51 C42 1_555 1_555
H67 C51 1_555 1_555
C52 C41 1_555 1_555
H68 C52 1_555 1_555
N1 C1 1_555 1_555
N2 C2 1_555 1_555
N3 C6 1_555 1_555
N4 C5 1_555 1_555
O1 C3 1_555 1_555
O2 C4 1_555 1_555
O3 C1 1_555 1_555
O4 C2 1_555 1_555
O5 C18 1_555 1_555
O6 C17 1_555 1_555
O7 C39 1_555 1_555
O8 C40 1_555 1_555
C5 O1 1_555 1_555
C6 O2 1_555 1_555
C7 N2 1_555 1_555
C8 N1 1_555 1_555
C27 C30 1_555 1_555
C28 C29 1_555 1_555
C49 C52 1_555 1_555
C50 C51 1_555 1_555
N1 O8 1_555 1_555
N2 O7 1_555 1_555
N3 O6 1_555 1_555
N4 O5 1_555 1_555

#END
