
#######################################################################
#
#                 Cambridge Crystallographic Data Centre
#                                CCDC 
#
#######################################################################
#
# If this CIF has been generated from an entry in the Cambridge 
# Structural Database, then it will include bibliographic, chemical, 
# crystal, experimental, refinement or atomic coordinate data resulting 
# from the CCDC's data processing and validation procedures.
#
#######################################################################

data_EYOLAG
_chemical_formula_moiety         'C26 H34 N2 O4'
_chemical_name_systematic        
1,4-bis(benzyloxy)-3,6-di-sec-butylpiperazine-2,5-dione
_symmetry_cell_setting           triclinic
_symmetry_space_group_name_H-M   'P 1'
_symmetry_Int_Tables_number      1
_space_group_name_Hall           'P 1'
loop_
_symmetry_equiv_pos_site_id
_symmetry_equiv_pos_as_xyz
1 x,y,z
_cell_length_a                   6.2724(2)
_cell_length_b                   8.1395(3)
_cell_length_c                   11.9150(5)
_cell_angle_alpha                99.035(3)
_cell_angle_beta                 95.226(3)
_cell_angle_gamma                96.713(3)
_cell_volume                     592.919
_exptl_crystal_colour            colorless
_exptl_crystal_description       needle
_cell_formula_units_Z            1
loop_
_atom_site_label
_atom_site_type_symbol
_atom_site_fract_x
_atom_site_fract_y
_atom_site_fract_z
C1 C 0.1544(5) 0.9633(4) 0.6053(2)
C2 C 0.0993(5) 0.7743(4) 0.5882(2)
H1 H -0.0378 0.7492 0.6226
C3 C 0.4770(5) 0.7582(4) 0.6721(2)
C4 C 0.5328(5) 0.9479(4) 0.6855(2)
H2 H 0.6684 0.9703 0.6490
C5 C 0.0532(5) 0.7077(4) 0.4573(3)
H3 H -0.0062 0.7991 0.4223
C6 C -0.1211(5) 0.5545(4) 0.4284(2)
H4 H -0.0610 0.4563 0.4518
H5 H -0.2435 0.5759 0.4731
C7 C -0.2050(6) 0.5127(5) 0.3018(3)
H6 H -0.0888 0.4775 0.2577
H7 H -0.2542 0.6122 0.2765
H8 H -0.3258 0.4216 0.2897
C8 C 0.2611(6) 0.6795(4) 0.4042(3)
H9 H 0.2314 0.6602 0.3206
H10 H 0.3163 0.5814 0.4285
H11 H 0.3690 0.7788 0.4292
C9 C 0.5795(5) 1.0343(4) 0.8130(3)
H12 H 0.6273 1.1559 0.8130
C10 C 0.7636(5) 0.9684(4) 0.8772(3)
H13 H 0.8758 0.9464 0.8255
H14 H 0.7081 0.8606 0.8994
C11 C 0.8661(6) 1.0902(5) 0.9841(3)
H15 H 0.7558 1.1131 1.0355
H16 H 0.9282 1.1953 0.9624
H17 H 0.9804 1.0404 1.0232
C12 C 0.3766(5) 1.0252(4) 0.8743(3)
H18 H 0.4091 1.0905 0.9516
H19 H 0.3272 0.9079 0.8789
H20 H 0.2631 1.0712 0.8317
C13 C 0.5603(5) 1.2486(4) 0.5627(3)
H21 H 0.7018 1.2143 0.5860
H22 H 0.5799 1.3724 0.5700
C14 C 0.4902(5) 1.1728(4) 0.4397(3)
C15 C 0.2881(5) 1.1916(4) 0.3892(3)
H23 H 0.1937 1.2518 0.4326
C16 C 0.2239(6) 1.1224(5) 0.2752(3)
H24 H 0.0853 1.1348 0.2408
C17 C 0.3620(6) 1.0354(5) 0.2117(3)
H25 H 0.3182 0.9882 0.1338
C18 C 0.5642(6) 1.0174(5) 0.2620(3)
H26 H 0.6589 0.9578 0.2184
C19 C 0.6283(5) 1.0859(4) 0.3754(3)
H27 H 0.7671 1.0735 0.4095
C20 C 0.0815(5) 0.4631(4) 0.7082(3)
H28 H 0.0491 0.3392 0.6903
H29 H -0.0564 0.5094 0.6967
C21 C 0.1718(5) 0.5129(4) 0.8319(3)
C22 C 0.0437(6) 0.5853(4) 0.9107(3)
H30 H -0.0957 0.6089 0.8853
C23 C 0.1196(6) 0.6226(5) 1.0260(3)
H31 H 0.0307 0.6701 1.0793
C24 C 0.3211(6) 0.5918(5) 1.0636(3)
H32 H 0.3721 0.6188 1.1427
C25 C 0.4510(6) 0.5210(5) 0.9864(3)
H33 H 0.5908 0.4988 1.0124
C26 C 0.3760(5) 0.4828(4) 0.8710(3)
H34 H 0.4658 0.4354 0.8181
N1 N 0.3661(4) 1.0239(3) 0.6260(2)
N2 N 0.2665(4) 0.6959(3) 0.6473(2)
O1 O 0.0109(3) 1.0492(3) 0.58921(19)
O2 O 0.6203(3) 0.6724(3) 0.68947(19)
O3 O 0.4076(3) 1.1994(2) 0.63951(17)
O4 O 0.2245(3) 0.5197(2) 0.62825(17)
loop_
_geom_bond_atom_site_label_1
_geom_bond_atom_site_label_2
_geom_bond_site_symmetry_1
_geom_bond_site_symmetry_2
C1 C2 1_555 1_555
C2 H1 1_555 1_555
C3 C4 1_555 1_555
C4 H2 1_555 1_555
C5 C2 1_555 1_555
H3 C5 1_555 1_555
C6 C5 1_555 1_555
H4 C6 1_555 1_555
H5 C6 1_555 1_555
C7 C6 1_555 1_555
H6 C7 1_555 1_555
H7 C7 1_555 1_555
H8 C7 1_555 1_555
C8 C5 1_555 1_555
H9 C8 1_555 1_555
H10 C8 1_555 1_555
H11 C8 1_555 1_555
C9 C4 1_555 1_555
H12 C9 1_555 1_555
C10 C9 1_555 1_555
H13 C10 1_555 1_555
H14 C10 1_555 1_555
C11 C10 1_555 1_555
H15 C11 1_555 1_555
H16 C11 1_555 1_555
H17 C11 1_555 1_555
C12 C9 1_555 1_555
H18 C12 1_555 1_555
H19 C12 1_555 1_555
H20 C12 1_555 1_555
C13 H21 1_555 1_555
H22 C13 1_555 1_555
C14 C13 1_555 1_555
C15 C14 1_555 1_555
H23 C15 1_555 1_555
C16 C15 1_555 1_555
H24 C16 1_555 1_555
C17 C16 1_555 1_555
H25 C17 1_555 1_555
C18 C17 1_555 1_555
H26 C18 1_555 1_555
C19 C14 1_555 1_555
H27 C19 1_555 1_555
C20 H28 1_555 1_555
H29 C20 1_555 1_555
C21 C20 1_555 1_555
C22 C21 1_555 1_555
H30 C22 1_555 1_555
C23 C22 1_555 1_555
H31 C23 1_555 1_555
C24 C23 1_555 1_555
H32 C24 1_555 1_555
C25 C24 1_555 1_555
H33 C25 1_555 1_555
C26 C21 1_555 1_555
H34 C26 1_555 1_555
N1 C1 1_555 1_555
N2 C2 1_555 1_555
O1 C1 1_555 1_555
O2 C3 1_555 1_555
O3 C13 1_555 1_555
O4 C20 1_555 1_555
C3 N2 1_555 1_555
C4 N1 1_555 1_555
C18 C19 1_555 1_555
C25 C26 1_555 1_555
N1 O3 1_555 1_555
N2 O4 1_555 1_555

#END
