
#######################################################################
#
#                 Cambridge Crystallographic Data Centre
#                                CCDC 
#
#######################################################################
#
# If this CIF has been generated from an entry in the Cambridge 
# Structural Database, then it will include bibliographic, chemical, 
# crystal, experimental, refinement or atomic coordinate data resulting 
# from the CCDC's data processing and validation procedures.
#
#######################################################################

data_EYOQOY
_chemical_formula_moiety         'C3 H7 N1 O3,C3 H8 N1 O3 1+,H2 O4 P1 1-,H2 O1'
_chemical_name_systematic        'bis(L-Serine) phosphate monohydrate'
_symmetry_cell_setting           monoclinic
_symmetry_space_group_name_H-M   'P 21'
_symmetry_Int_Tables_number      4
_space_group_name_Hall           'P 2yb'
loop_
_symmetry_equiv_pos_site_id
_symmetry_equiv_pos_as_xyz
1 x,y,z
2 -x,1/2+y,-z
_cell_length_a                   4.704(5)
_cell_length_b                   10.512(5)
_cell_length_c                   13.573(3)
_cell_angle_alpha                90
_cell_angle_beta                 98.73(5)
_cell_angle_gamma                90
_cell_volume                     663.388
_exptl_crystal_colour            colorless
_cell_formula_units_Z            2
loop_
_atom_site_label
_atom_site_type_symbol
_atom_site_fract_x
_atom_site_fract_y
_atom_site_fract_z
P1 P 0.05339(5) 0.65189(2) 0.24138(2)
O1 O -0.00540(19) 0.51247(9) 0.22114(8)
O2 O -0.18764(17) 0.72715(9) 0.27598(8)
O3 O 0.13069(18) 0.71983(9) 0.14711(8)
O4 O 0.32675(17) 0.66183(13) 0.32538(8)
H1 H 0.246(5) 0.675(3) 0.1226(19)
H2 H 0.487(8) 0.663(5) 0.311(5)
O5 O 0.08244(19) 0.20332(11) 0.25228(8)
O6 O 0.2747(3) 0.12542(12) 0.40126(10)
C1 C 0.2688(2) 0.20107(12) 0.32377(10)
C2 C 0.5315(2) 0.28586(12) 0.33227(10)
C3 C 0.5730(3) 0.36569(16) 0.42652(12)
O7 O 0.3217(3) 0.43459(12) 0.43828(9)
N1 N 0.5079(2) 0.36553(10) 0.24097(9)
H3 H 0.127(7) 0.086(3) 0.391(2)
H4 H 0.693(4) 0.236(2) 0.334(2)
H5 H 0.628(4) 0.311(2) 0.485(2)
H6 H 0.755(5) 0.424(3) 0.424(2)
H7 H 0.315(7) 0.489(4) 0.396(2)
H8 H 0.511(5) 0.316(3) 0.181(2)
H9 H 0.345(4) 0.419(2) 0.236(2)
H10 H 0.650(5) 0.419(3) 0.242(2)
O8 O 0.4607(2) 0.73740(9) -0.05717(8)
O9 O 0.4617(2) 0.59009(10) 0.06228(8)
C4 C 0.5370(2) 0.63412(10) -0.01567(10)
C5 C 0.7309(2) 0.55024(10) -0.06892(9)
C6 C 0.5498(2) 0.49113(11) -0.16007(10)
O10 O 0.33541(19) 0.41453(10) -0.12571(8)
N2 N 0.8653(2) 0.44712(9) -0.00126(8)
H11 H 0.897(4) 0.598(2) -0.089(2)
H12 H 0.465(3) 0.560(2) -0.204(2)
H13 H 0.666(3) 0.442(2) -0.197(2)
H14 H 0.301(5) 0.366(2) -0.168(2)
H15 H 1.014(4) 0.416(2) -0.021(2)
H16 H 0.732(5) 0.380(3) 0.000(2)
H17 H 0.920(4) 0.473(2) 0.062(2)
O11 O 0.1285(3) 0.45925(11) 0.61932(10)
H18 H 0.213(5) 0.450(2) 0.577(2)
H19 H 0.134(4) 0.397(3) 0.661(2)
loop_
_geom_bond_atom_site_label_1
_geom_bond_atom_site_label_2
_geom_bond_site_symmetry_1
_geom_bond_site_symmetry_2
P1 O1 1_555 1_555
O2 P1 1_555 1_555
O3 P1 1_555 1_555
O4 P1 1_555 1_555
O5 C1 1_555 1_555
O6 C1 1_555 1_555
C1 C2 1_555 1_555
C2 C3 1_555 1_555
C3 O7 1_555 1_555
O7 H7 1_555 1_555
N1 C2 1_555 1_555
O8 C4 1_555 1_555
O9 C4 1_555 1_555
C4 C5 1_555 1_555
C5 C6 1_555 1_555
C6 O10 1_555 1_555
O10 H14 1_555 1_555
N2 C5 1_555 1_555
O11 H18 1_555 1_555
H1 O3 1_555 1_555
H2 O4 1_555 1_555
H3 O6 1_555 1_555
H4 C2 1_555 1_555
H5 C3 1_555 1_555
H6 C3 1_555 1_555
H8 N1 1_555 1_555
H9 N1 1_555 1_555
H10 N1 1_555 1_555
H11 C5 1_555 1_555
H12 C6 1_555 1_555
H13 C6 1_555 1_555
H15 N2 1_555 1_555
H16 N2 1_555 1_555
H17 N2 1_555 1_555
H19 O11 1_555 1_555

#END
