
#######################################################################
#
#                 Cambridge Crystallographic Data Centre
#                                CCDC 
#
#######################################################################
#
# If this CIF has been generated from an entry in the Cambridge 
# Structural Database, then it will include bibliographic, chemical, 
# crystal, experimental, refinement or atomic coordinate data resulting 
# from the CCDC's data processing and validation procedures.
#
#######################################################################

data_EYOSIU
_chemical_formula_moiety         'C23 H21 N1 O1'
_chemical_name_systematic        
3-(4,5,6,7-Tetrahydro-1H-indol-2-yl)-1,3-diphenylprop-2-en-1-one
_symmetry_cell_setting           monoclinic
_symmetry_space_group_name_H-M   'P 21/c'
_symmetry_Int_Tables_number      14
_space_group_name_Hall           '-P 2ybc'
loop_
_symmetry_equiv_pos_site_id
_symmetry_equiv_pos_as_xyz
1 x,y,z
2 x,1/2-y,1/2+z
3 -x,-y,-z
4 -x,1/2+y,1/2-z
_cell_length_a                   11.925(3)
_cell_length_b                   6.224(2)
_cell_length_c                   23.133(6)
_cell_angle_alpha                90
_cell_angle_beta                 92.55(2)
_cell_angle_gamma                90
_cell_volume                     1715.26
_exptl_crystal_colour            orange
_exptl_crystal_description       prism
_chemical_melting_point          '112-113 deg.C'
_cell_formula_units_Z            4
loop_
_atom_site_label
_atom_site_type_symbol
_atom_site_fract_x
_atom_site_fract_y
_atom_site_fract_z
O1 O 0.40046(11) -0.2392(2) 0.05051(6)
N1 N 0.41155(13) 0.0999(3) 0.11908(7)
H1 H 0.4319(17) -0.0079(36) 0.0950(9)
C1 C 0.4755(2) 0.2625(3) 0.14063(8)
C2 C 0.5968(2) 0.2937(4) 0.13036(10)
H2 H 0.6051(17) 0.3454(35) 0.0891(10)
H3 H 0.6392(15) 0.1545(33) 0.1350(8)
C3 C 0.6452(2) 0.4669(3) 0.17148(10)
H4 H 0.7172(16) 0.5141(30) 0.1588(8)
H5 H 0.6583(16) 0.4025(34) 0.2131(9)
C4 C 0.5663(2) 0.6587(3) 0.17586(10)
H6 H 0.5509(16) 0.7242(32) 0.1361(9)
H7 H 0.6050(17) 0.7827(36) 0.1993(9)
C5 C 0.4552(2) 0.5951(4) 0.20181(9)
H8 H 0.3967(17) 0.7132(34) 0.1964(9)
H9 H 0.4675(15) 0.5687(31) 0.2441(9)
C6 C 0.4091(2) 0.3952(3) 0.17322(8)
C7 C 0.3016(2) 0.3061(3) 0.17121(8)
H10 H 0.2333(16) 0.3582(31) 0.1893(8)
C8 C 0.3028(2) 0.1213(3) 0.13652(8)
C9 C 0.2144(2) -0.0245(3) 0.12016(8)
C10 C 0.2149(2) -0.2020(3) 0.08495(8)
H11 H 0.1435(16) -0.2769(30) 0.0803(8)
C11 C 0.3008(2) -0.2986(3) 0.05106(8)
C12 C 0.2673(2) -0.4890(3) 0.01448(8)
C13 C 0.1589(2) -0.5202(4) -0.00891(9)
H12 H 0.1019(18) -0.4114(36) -0.0033(9)
C14 C 0.1339(2) -0.7012(5) -0.04191(10)
H13 H 0.0594(20) -0.7116(39) -0.0602(10)
C15 C 0.2155(2) -0.8532(4) -0.05146(10)
H14 H 0.1963(18) -0.9859(40) -0.0735(10)
C16 C 0.3234(2) -0.8209(4) -0.02960(9)
H15 H 0.3823(16) -0.9194(33) -0.0378(8)
C17 C 0.3495(2) -0.6396(3) 0.00247(8)
H16 H 0.4266(17) -0.6068(32) 0.0172(9)
C18 C 0.1027(2) 0.0211(3) 0.14520(8)
C19 C 0.0452(2) 0.2125(4) 0.13366(9)
H17 H 0.0755(17) 0.3171(35) 0.1102(9)
C20 C -0.0594(2) 0.2478(4) 0.15533(10)
H18 H -0.1035(17) 0.3870(35) 0.1466(9)
C21 C -0.1084(2) 0.0928(4) 0.18930(9)
H19 H -0.1834(17) 0.1196(31) 0.2051(8)
C22 C -0.0522(2) -0.0968(4) 0.20112(9)
H20 H -0.0886(18) -0.2124(37) 0.2261(10)
C23 C 0.0529(2) -0.1324(4) 0.17923(9)
H21 H 0.0881(16) -0.2686(35) 0.1865(8)
loop_
_geom_bond_atom_site_label_1
_geom_bond_atom_site_label_2
_geom_bond_site_symmetry_1
_geom_bond_site_symmetry_2
O1 C11 1_555 1_555
N1 H1 1_555 1_555
C1 N1 1_555 1_555
C2 C1 1_555 1_555
H2 C2 1_555 1_555
H3 C2 1_555 1_555
C3 C2 1_555 1_555
H4 C3 1_555 1_555
H5 C3 1_555 1_555
C4 C3 1_555 1_555
H6 C4 1_555 1_555
H7 C4 1_555 1_555
C5 C4 1_555 1_555
H8 C5 1_555 1_555
H9 C5 1_555 1_555
C6 C1 1_555 1_555
C7 C6 1_555 1_555
H10 C7 1_555 1_555
C8 N1 1_555 1_555
C9 C8 1_555 1_555
C10 C9 1_555 1_555
H11 C10 1_555 1_555
C11 C10 1_555 1_555
C12 C11 1_555 1_555
C13 C12 1_555 1_555
H12 C13 1_555 1_555
C14 C13 1_555 1_555
H13 C14 1_555 1_555
C15 C14 1_555 1_555
H14 C15 1_555 1_555
C16 C15 1_555 1_555
H15 C16 1_555 1_555
C17 C12 1_555 1_555
H16 C17 1_555 1_555
C18 C9 1_555 1_555
C19 C18 1_555 1_555
H17 C19 1_555 1_555
C20 C19 1_555 1_555
H18 C20 1_555 1_555
C21 C20 1_555 1_555
H19 C21 1_555 1_555
C22 C21 1_555 1_555
H20 C22 1_555 1_555
C23 C18 1_555 1_555
H21 C23 1_555 1_555
C5 C6 1_555 1_555
C7 C8 1_555 1_555
C16 C17 1_555 1_555
C22 C23 1_555 1_555

#END
