
#######################################################################
#
#                 Cambridge Crystallographic Data Centre
#                                CCDC 
#
#######################################################################
#
# If this CIF has been generated from an entry in the Cambridge 
# Structural Database, then it will include bibliographic, chemical, 
# crystal, experimental, refinement or atomic coordinate data resulting 
# from the CCDC's data processing and validation procedures.
#
#######################################################################

data_EYOYOI
_chemical_formula_moiety         'C13 H13 F1 O2'
_chemical_name_systematic        
2-(fluoro(4-methoxyphenyl)methylene)cyclopentanone
_symmetry_cell_setting           monoclinic
_symmetry_space_group_name_H-M   'P 21/c'
_symmetry_Int_Tables_number      14
_space_group_name_Hall           '-P 2ybc'
loop_
_symmetry_equiv_pos_site_id
_symmetry_equiv_pos_as_xyz
1 x,y,z
2 -x,1/2+y,1/2-z
3 -x,-y,-z
4 x,1/2-y,1/2+z
_cell_length_a                   14.2255(14)
_cell_length_b                   6.0009(6)
_cell_length_c                   13.9246(13)
_cell_angle_alpha                90
_cell_angle_beta                 114.3980(10)
_cell_angle_gamma                90
_cell_volume                     1082.53
_exptl_crystal_colour            colorless
_exptl_crystal_description       block
_cell_formula_units_Z            4
loop_
_atom_site_label
_atom_site_type_symbol
_atom_site_fract_x
_atom_site_fract_y
_atom_site_fract_z
F1 F 0.25448(8) 0.30357(15) 0.40084(7)
O1 O 0.12373(9) 0.92972(19) 0.24376(9)
O2 O 0.42215(9) 0.57138(18) 0.07171(9)
C1 C 0.11607(11) 0.8432(2) 0.31919(12)
C2 C 0.04474(18) 0.9222(3) 0.36785(19)
H1 H 0.0544 1.0836 0.3836
H2 H -0.0281 0.8958 0.3190
C3 C 0.07153(17) 0.7933(4) 0.46600(16)
H3 H 0.0080 0.7529 0.4747
H4 H 0.1158 0.8839 0.5275
C4 C 0.12853(13) 0.5841(2) 0.45952(13)
H5 H 0.1870 0.5528 0.5280
H6 H 0.0816 0.4539 0.4392
C5 C 0.16670(10) 0.6356(2) 0.37568(10)
C6 C 0.22796(10) 0.5035(2) 0.34919(10)
C7 C 0.27547(9) 0.5316(2) 0.27456(10)
C8 C 0.32723(10) 0.7274(2) 0.27244(11)
H7 H 0.3281 0.8482 0.3169
C9 C 0.37786(10) 0.7483(2) 0.20575(11)
H8 H 0.4136 0.8817 0.2053
C10 C 0.37540(10) 0.5710(2) 0.13978(10)
C11 C 0.32376(11) 0.3735(2) 0.14173(10)
H9 H 0.3225 0.2531 0.0969
C12 C 0.27453(10) 0.3533(2) 0.20885(10)
H10 H 0.2401 0.2187 0.2104
C13 C 0.47193(12) 0.7726(3) 0.06295(12)
H11 H 0.5021 0.7514 0.0118
H12 H 0.5266 0.8105 0.1318
H13 H 0.4212 0.8937 0.0392
loop_
_geom_bond_atom_site_label_1
_geom_bond_atom_site_label_2
_geom_bond_site_symmetry_1
_geom_bond_site_symmetry_2
F1 C6 1_555 1_555
O1 C1 1_555 1_555
O2 C10 1_555 1_555
C1 C2 1_555 1_555
C2 H1 1_555 1_555
H2 C2 1_555 1_555
C3 C2 1_555 1_555
H3 C3 1_555 1_555
H4 C3 1_555 1_555
C4 C3 1_555 1_555
H5 C4 1_555 1_555
H6 C4 1_555 1_555
C5 C1 1_555 1_555
C6 C5 1_555 1_555
C7 C6 1_555 1_555
C8 C7 1_555 1_555
H7 C8 1_555 1_555
C9 C8 1_555 1_555
H8 C9 1_555 1_555
C10 C9 1_555 1_555
C11 C10 1_555 1_555
H9 C11 1_555 1_555
C12 C7 1_555 1_555
H10 C12 1_555 1_555
C13 O2 1_555 1_555
H11 C13 1_555 1_555
H12 C13 1_555 1_555
H13 C13 1_555 1_555
C4 C5 1_555 1_555
C11 C12 1_555 1_555

#END
