
#######################################################################
#
#                 Cambridge Crystallographic Data Centre
#                                CCDC 
#
#######################################################################
#
# If this CIF has been generated from an entry in the Cambridge 
# Structural Database, then it will include bibliographic, chemical, 
# crystal, experimental, refinement or atomic coordinate data resulting 
# from the CCDC's data processing and validation procedures.
#
#######################################################################

data_EYUBAD
_chemical_formula_moiety         'C14 H13 N3 O3 S1'
_chemical_name_systematic        
N-methyl-N'-(2-nitrobenzylidene)-2-(2-thienyl)acetohydrazide
_symmetry_cell_setting           monoclinic
_symmetry_space_group_name_H-M   'P 21/c'
_symmetry_Int_Tables_number      14
_space_group_name_Hall           '-P 2ybc'
loop_
_symmetry_equiv_pos_site_id
_symmetry_equiv_pos_as_xyz
1 x,y,z
2 -x,1/2+y,1/2-z
3 -x,-y,-z
4 x,1/2-y,1/2+z
_cell_length_a                   7.3989(5)
_cell_length_b                   24.4910(17)
_cell_length_c                   7.7126(5)
_cell_angle_alpha                90
_cell_angle_beta                 96.022(2)
_cell_angle_gamma                90
_cell_volume                     1389.86
_exptl_crystal_colour            'pale yellow'
_exptl_crystal_description       block
_cell_formula_units_Z            4
loop_
_atom_site_label
_atom_site_type_symbol
_atom_site_fract_x
_atom_site_fract_y
_atom_site_fract_z
C1 C 0.2369(2) 0.49283(6) 0.4509(2)
C2 C 0.2812(2) 0.50348(7) 0.6291(2)
H1 H 0.2668 0.4754 0.7116
C3 C 0.3455(2) 0.55416(7) 0.6873(2)
H2 H 0.3774 0.5601 0.8084
C4 C 0.3637(2) 0.59635(7) 0.5702(2)
H3 H 0.4078 0.6310 0.6111
C5 C 0.3173(2) 0.58784(7) 0.3934(2)
H4 H 0.3267 0.6166 0.3122
C6 C 0.2570(2) 0.53656(7) 0.3373(2)
C7 C 0.1640(2) 0.43927(6) 0.3917(2)
H5 H 0.1346 0.4320 0.2710
C8 C 0.0311(2) 0.34081(7) 0.2640(2)
H6 H 0.1427 0.3440 0.2066
H7 H -0.0598 0.3665 0.2108
H8 H -0.0161 0.3035 0.2504
C9 C 0.0357(2) 0.31573(7) 0.5737(2)
C10 C 0.0923(2) 0.33017(7) 0.7629(2)
H9 H 0.0681 0.3693 0.7822
H10 H 0.0197 0.3086 0.8391
C11 C 0.2913(2) 0.31855(7) 0.8097(2)
C12 C 0.39380(13) 0.27005(4) 0.74418(13)
H11 H 0.3487 0.2421 0.6658
C13 C 0.5816(3) 0.27681(9) 0.8322(3)
H12 H 0.6795 0.2541 0.8069
C14 C 0.6023(3) 0.31711(10) 0.9492(3)
H13 H 0.7135 0.3238 1.0191
N1 N 0.14114(17) 0.40276(5) 0.50578(17)
N2 N 0.07069(18) 0.35331(5) 0.44877(16)
N3 N 0.21802(19) 0.52965(6) 0.14698(17)
O1 O -0.03469(16) 0.27167(5) 0.53215(15)
O2 O 0.27226(18) 0.48824(5) 0.07864(15)
O3 O 0.13598(19) 0.56675(5) 0.06483(16)
S1 S 0.42291(8) 0.35327(2) 0.96161(7)
S2? S 0.39380(13) 0.27005(4) 0.74418(13)
C15? C 0.42291(8) 0.35327(2) 0.96161(7)
H14? H 0.3995 0.3839 1.0314
loop_
_geom_bond_atom_site_label_1
_geom_bond_atom_site_label_2
_geom_bond_site_symmetry_1
_geom_bond_site_symmetry_2
C1 C2 1_555 1_555
C2 H1 1_555 1_555
C3 C2 1_555 1_555
H2 C3 1_555 1_555
C4 C3 1_555 1_555
H3 C4 1_555 1_555
C5 C4 1_555 1_555
H4 C5 1_555 1_555
C6 C1 1_555 1_555
C7 C1 1_555 1_555
H5 C7 1_555 1_555
C8 H6 1_555 1_555
H7 C8 1_555 1_555
H8 C8 1_555 1_555
C9 C10 1_555 1_555
C10 H9 1_555 1_555
H10 C10 1_555 1_555
C11 C10 1_555 1_555
C12 C11 1_555 1_555
H11 C12 1_555 1_555
C13 C12 1_555 1_555
H12 C13 1_555 1_555
C14 C13 1_555 1_555
H13 C14 1_555 1_555
N1 C7 1_555 1_555
N2 C8 1_555 1_555
N3 C6 1_555 1_555
O1 C9 1_555 1_555
O2 N3 1_555 1_555
O3 N3 1_555 1_555
S1 C11 1_555 1_555
C5 C6 1_555 1_555
C9 N2 1_555 1_555
C14 S1 1_555 1_555
N1 N2 1_555 1_555

#END
