
#######################################################################
#
#                 Cambridge Crystallographic Data Centre
#                                CCDC 
#
#######################################################################
#
# If this CIF has been generated from an entry in the Cambridge 
# Structural Database, then it will include bibliographic, chemical, 
# crystal, experimental, refinement or atomic coordinate data resulting 
# from the CCDC's data processing and validation procedures.
#
#######################################################################

data_EYUBIL
_chemical_formula_moiety         'C14 H13 N3 O3 S1'
_chemical_name_systematic        
N-methyl-N'-(4-nitrobenzylidene)-2-(2-thienyl)acetohydrazide
_symmetry_cell_setting           triclinic
_symmetry_space_group_name_H-M   'P -1'
_symmetry_Int_Tables_number      2
_space_group_name_Hall           '-P 1'
loop_
_symmetry_equiv_pos_site_id
_symmetry_equiv_pos_as_xyz
1 x,y,z
2 -x,-y,-z
_cell_length_a                   6.1893(4)
_cell_length_b                   12.9177(9)
_cell_length_c                   17.3828(12)
_cell_angle_alpha                93.995(7)
_cell_angle_beta                 90.386(6)
_cell_angle_gamma                95.963(7)
_cell_volume                     1378.77
_exptl_crystal_colour            yellow
_exptl_crystal_description       'cut block'
_cell_formula_units_Z            4
loop_
_atom_site_label
_atom_site_type_symbol
_atom_site_fract_x
_atom_site_fract_y
_atom_site_fract_z
C1 C 0.3947(3) 0.10043(14) 0.12117(11)
C2 C 0.3601(3) 0.01607(15) 0.16786(12)
H1 H 0.2397 0.0115 0.2015
C3 C 0.5005(4) -0.06029(15) 0.16500(12)
H2 H 0.4784 -0.1176 0.1965
C4 C 0.6747(3) -0.05157(14) 0.11517(12)
C5 C 0.7135(3) 0.03028(14) 0.06866(11)
H3 H 0.8345 0.0344 0.0353
C6 C 0.5712(3) 0.10625(14) 0.07199(11)
H4 H 0.5945 0.1632 0.0402
C7 C 0.2465(3) 0.18208(14) 0.12183(11)
H5 H 0.2660 0.2356 0.0869
C8 C -0.0467(4) 0.32516(15) 0.10527(12)
H6 H -0.0462 0.2846 0.0555
H7 H 0.0845 0.3748 0.1104
H8 H -0.1755 0.3634 0.1081
C9 C -0.2093(3) 0.25364(14) 0.22263(11)
C10 C -0.2139(3) 0.17041(14) 0.28040(12)
H9 H -0.3660 0.1502 0.2950
H10 H -0.1553 0.1077 0.2562
C11 C -0.0820(3) 0.20882(14) 0.35164(11)
C12 C -0.1921(3) 0.21642(9) 0.43327(7)
H11 H -0.3381 0.1994 0.4483
C13 C 0.0169(4) 0.26112(17) 0.48174(13)
H12 H 0.0111 0.2762 0.5359
C14 C 0.2039(4) 0.27710(16) 0.44338(13)
H13 H 0.3361 0.3048 0.4687
N1 N 0.0911(3) 0.18039(12) 0.16982(9)
N2 N -0.0509(3) 0.25508(12) 0.16718(10)
N3 N 0.8213(3) -0.13383(13) 0.11193(11)
O1 O -0.3402(2) 0.31816(11) 0.22537(9)
O2 O 0.9584(2) -0.13473(11) 0.06134(9)
O3 O 0.7993(3) -0.19851(13) 0.16061(11)
S1 S 0.18984(12) 0.24543(5) 0.34894(4)
C16 C -0.1307(3) 0.45425(14) 0.76584(11)
C17 C -0.3149(3) 0.50824(13) 0.77270(11)
H15 H -0.3395 0.5585 0.7371
C18 C -0.4611(3) 0.48896(14) 0.83085(11)
H16 H -0.5869 0.5252 0.8355
C19 C -0.4209(3) 0.41575(14) 0.88233(11)
C20 C -0.2380(3) 0.36200(15) 0.87768(12)
H17 H -0.2135 0.3122 0.9136
C21 C -0.0932(3) 0.38266(14) 0.81973(12)
H18 H 0.0344 0.3477 0.8163
C22 C 0.0221(3) 0.47259(14) 0.70286(11)
H19 H 0.0129 0.5292 0.6713
C23 C 0.3281(4) 0.52050(16) 0.59201(12)
H20 H 0.3299 0.5823 0.6281
H21 H 0.2012 0.5167 0.5575
H22 H 0.4609 0.5252 0.5615
C24 C 0.4675(3) 0.35588(14) 0.62403(11)
C25 C 0.4422(3) 0.26350(14) 0.67397(12)
H23 H 0.4741 0.2890 0.7283
H24 H 0.2893 0.2322 0.6708
C26 C 0.5867(4) 0.18068(14) 0.65165(12)
C27 C 0.8082(3) 0.17391(11) 0.67653(9)
H25 H 0.8933 0.2246 0.7093
C28 C 0.8783(4) 0.07846(18) 0.64370(14)
H26 H 1.0182 0.0579 0.6536
C29 C 0.7311(5) 0.02082(17) 0.59807(15)
H27 H 0.7552 -0.0441 0.5722
N4 N 0.1678(3) 0.41024(12) 0.69164(9)
N5 N 0.3168(3) 0.42739(12) 0.63490(9)
N6 N -0.5754(3) 0.39473(13) 0.94419(10)
O4 O 0.6102(2) 0.36793(11) 0.57669(8)
O5 O -0.7216(2) 0.45094(11) 0.95462(9)
O6 O -0.5498(3) 0.32116(12) 0.98361(10)
S3 S 0.49917(12) 0.07608(5) 0.59164(4)
S2? S -0.1921(3) 0.21642(9) 0.43327(7)
C15? C 0.18984(12) 0.24543(5) 0.34894(4)
H14? H 0.2936 0.2471 0.3089
S4? S 0.8082(3) 0.17391(11) 0.67653(9)
C30? C 0.49917(12) 0.07608(5) 0.59164(4)
H28? H 0.3665 0.0559 0.5642
loop_
_geom_bond_atom_site_label_1
_geom_bond_atom_site_label_2
_geom_bond_site_symmetry_1
_geom_bond_site_symmetry_2
C1 C2 1_555 1_555
C2 H1 1_555 1_555
C3 C2 1_555 1_555
H2 C3 1_555 1_555
C4 C3 1_555 1_555
C5 C4 1_555 1_555
H3 C5 1_555 1_555
C6 C1 1_555 1_555
H4 C6 1_555 1_555
C7 C1 1_555 1_555
H5 C7 1_555 1_555
C8 H6 1_555 1_555
H7 C8 1_555 1_555
H8 C8 1_555 1_555
C9 C10 1_555 1_555
C10 H9 1_555 1_555
H10 C10 1_555 1_555
C11 C10 1_555 1_555
C12 C11 1_555 1_555
H11 C12 1_555 1_555
C13 C12 1_555 1_555
H12 C13 1_555 1_555
C14 C13 1_555 1_555
H13 C14 1_555 1_555
N1 C7 1_555 1_555
N2 C8 1_555 1_555
N3 C4 1_555 1_555
O1 C9 1_555 1_555
O2 N3 1_555 1_555
O3 N3 1_555 1_555
S1 C11 1_555 1_555
C16 C17 1_555 1_555
C17 H15 1_555 1_555
C18 C17 1_555 1_555
H16 C18 1_555 1_555
C19 C18 1_555 1_555
C20 C19 1_555 1_555
H17 C20 1_555 1_555
C21 C16 1_555 1_555
H18 C21 1_555 1_555
C22 C16 1_555 1_555
H19 C22 1_555 1_555
C23 H20 1_555 1_555
H21 C23 1_555 1_555
H22 C23 1_555 1_555
C24 C25 1_555 1_555
C25 H23 1_555 1_555
H24 C25 1_555 1_555
C26 C25 1_555 1_555
C27 C26 1_555 1_555
H25 C27 1_555 1_555
C28 C27 1_555 1_555
H26 C28 1_555 1_555
C29 C28 1_555 1_555
H27 C29 1_555 1_555
N4 C22 1_555 1_555
N5 C23 1_555 1_555
N6 C19 1_555 1_555
O4 C24 1_555 1_555
O5 N6 1_555 1_555
O6 N6 1_555 1_555
S3 C26 1_555 1_555
C5 C6 1_555 1_555
C9 N2 1_555 1_555
C14 S1 1_555 1_555
N1 N2 1_555 1_555
C20 C21 1_555 1_555
C24 N5 1_555 1_555
C29 S3 1_555 1_555
N4 N5 1_555 1_555

#END
