
#######################################################################
#
#                 Cambridge Crystallographic Data Centre
#                                CCDC 
#
#######################################################################
#
# If this CIF has been generated from an entry in the Cambridge 
# Structural Database, then it will include bibliographic, chemical, 
# crystal, experimental, refinement or atomic coordinate data resulting 
# from the CCDC's data processing and validation procedures.
#
#######################################################################

data_EYUBEH
_chemical_formula_moiety         'C14 H13 N3 O3 S1'
_chemical_name_systematic        
N-methyl-N'-(3-nitrobenzylidene)-2-(2-thienyl)acetohydrazide
_symmetry_cell_setting           monoclinic
_symmetry_space_group_name_H-M   'P 21/n'
_symmetry_Int_Tables_number      14
_space_group_name_Hall           '-P 2yn'
loop_
_symmetry_equiv_pos_site_id
_symmetry_equiv_pos_as_xyz
1 x,y,z
2 1/2-x,1/2+y,1/2-z
3 -x,-y,-z
4 1/2+x,1/2-y,1/2+z
_cell_length_a                   5.6629(4)
_cell_length_b                   15.6864(11)
_cell_length_c                   15.2842(11)
_cell_angle_alpha                90
_cell_angle_beta                 93.3800(18)
_cell_angle_gamma                90
_cell_volume                     1355.34
_exptl_crystal_colour            yellow
_exptl_crystal_description       block
_cell_formula_units_Z            4
loop_
_atom_site_label
_atom_site_type_symbol
_atom_site_fract_x
_atom_site_fract_y
_atom_site_fract_z
C1 C 0.3945(2) 0.25348(8) 0.28563(8)
C2 C 0.4786(2) 0.33560(8) 0.27161(8)
H1 H 0.6256 0.3540 0.2983
C3 C 0.3425(2) 0.38950(8) 0.21792(8)
C4 C 0.1240(2) 0.36637(9) 0.17844(8)
H2 H 0.0333 0.4055 0.1430
C5 C 0.0432(2) 0.28453(9) 0.19246(8)
H3 H -0.1045 0.2667 0.1659
C6 C 0.1768(2) 0.22833(8) 0.24516(8)
H4 H 0.1202 0.1721 0.2539
C7 C 0.5216(2) 0.19343(8) 0.34489(8)
H5 H 0.4668 0.1365 0.3494
C8 C 0.7162(2) 0.07490(8) 0.45928(9)
H6 H 0.5539 0.0795 0.4777
H7 H 0.8134 0.0441 0.5040
H8 H 0.7160 0.0439 0.4036
C9 C 1.0134(2) 0.18638(9) 0.49611(8)
C10 C 1.1004(2) 0.27656(8) 0.48044(8)
H9 H 1.2731 0.2785 0.4947
H10 H 1.0732 0.2901 0.4174
C11 C 0.9841(2) 0.34407(8) 0.53279(8)
C12 C 1.0854(2) 0.38920(9) 0.60202(9)
H11 H 1.2409 0.3788 0.6265
C13 C 0.9330(2) 0.45351(9) 0.63371(9)
H12 H 0.9760 0.4907 0.6810
C14 C 0.7188(2) 0.45511(9) 0.58811(9)
H13 H 0.5950 0.4936 0.5998
N1 N 0.70671(18) 0.21766(7) 0.39066(7)
N2 N 0.81324(18) 0.15999(7) 0.44806(7)
N3 N 0.43337(19) 0.47517(7) 0.20197(7)
O1 O 1.11711(16) 0.13877(6) 0.54872(6)
O2 O 0.31572(17) 0.52296(6) 0.15251(6)
O3 O 0.62386(17) 0.49615(7) 0.23846(7)
S1 S 0.69978(5) 0.37937(2) 0.50723(2)
loop_
_geom_bond_atom_site_label_1
_geom_bond_atom_site_label_2
_geom_bond_site_symmetry_1
_geom_bond_site_symmetry_2
C1 C2 1_555 1_555
C2 H1 1_555 1_555
C3 C2 1_555 1_555
C4 C3 1_555 1_555
H2 C4 1_555 1_555
C5 C4 1_555 1_555
H3 C5 1_555 1_555
C6 C1 1_555 1_555
H4 C6 1_555 1_555
C7 C1 1_555 1_555
H5 C7 1_555 1_555
C8 H6 1_555 1_555
H7 C8 1_555 1_555
H8 C8 1_555 1_555
C9 C10 1_555 1_555
C10 H9 1_555 1_555
H10 C10 1_555 1_555
C11 C10 1_555 1_555
C12 C11 1_555 1_555
H11 C12 1_555 1_555
C13 C12 1_555 1_555
H12 C13 1_555 1_555
C14 C13 1_555 1_555
H13 C14 1_555 1_555
N1 C7 1_555 1_555
N2 C8 1_555 1_555
N3 C3 1_555 1_555
O1 C9 1_555 1_555
O2 N3 1_555 1_555
O3 N3 1_555 1_555
S1 C11 1_555 1_555
C5 C6 1_555 1_555
C9 N2 1_555 1_555
C14 S1 1_555 1_555
N1 N2 1_555 1_555

#END
