
#######################################################################
#
#                 Cambridge Crystallographic Data Centre
#                                CCDC 
#
#######################################################################
#
# If this CIF has been generated from an entry in the Cambridge 
# Structural Database, then it will include bibliographic, chemical, 
# crystal, experimental, refinement or atomic coordinate data resulting 
# from the CCDC's data processing and validation procedures.
#
#######################################################################

data_EYUGAI
_chemical_name_common            'isoliquiritigenin nicotinamide'
_chemical_formula_moiety         'C15 H12 O4,C6 H6 N2 O1'
_chemical_name_systematic        
'nicotinamide 1-(2,4-dihydroxyphenyl)-3-(4-hydroxyphenyl)prop-2-en-1-one'
_symmetry_cell_setting           monoclinic
_symmetry_space_group_name_H-M   'P 2/n'
_symmetry_Int_Tables_number      13
_space_group_name_Hall           '-P 2yac'
loop_
_symmetry_equiv_pos_site_id
_symmetry_equiv_pos_as_xyz
1 x,y,z
2 1/2-x,y,1/2-z
3 -x,-y,-z
4 1/2+x,-y,1/2+z
_cell_length_a                   21.909(6)
_cell_length_b                   3.7898(13)
_cell_length_c                   23.918(7)
_cell_angle_alpha                90
_cell_angle_beta                 114.968(8)
_cell_angle_gamma                90
_cell_volume                     1800.33
_exptl_crystal_colour            yellow
_exptl_crystal_description       block
_cell_formula_units_Z            4
loop_
_atom_site_label
_atom_site_type_symbol
_atom_site_fract_x
_atom_site_fract_y
_atom_site_fract_z
C1 C 0.7492(3) 1.0100(17) 0.1026(2)
C2 C 0.6898(3) 1.0284(17) 0.0496(2)
H1 H 0.6897 1.1209 0.0135
C3 C 0.6307(3) 0.9092(17) 0.0504(3)
H2 H 0.5910 0.9209 0.0145
C4 C 0.6289(2) 0.7718(16) 0.1037(2)
C5 C 0.6899(3) 0.7490(18) 0.1568(3)
H3 H 0.6902 0.6540 0.1927
C6 C 0.7499(3) 0.866(2) 0.1564(3)
H4 H 0.7901 0.8482 0.1917
C7 C 0.5653(2) 0.6529(16) 0.1030(3)
H5 H 0.5273 0.6780 0.0660
C8 C 0.5557(3) 0.5111(16) 0.1500(2)
H6 H 0.5926 0.4828 0.1878
C9 C 0.4889(3) 0.3985(16) 0.1440(2)
C10 C 0.4826(2) 0.2415(15) 0.1978(2)
C11 C 0.5364(2) 0.1997(16) 0.2560(2)
H7 H 0.5793 0.2695 0.2615
C12 C 0.5278(2) 0.0587(16) 0.3051(2)
H8 H 0.5644 0.0358 0.3432
C13 C 0.4637(2) -0.0507(14) 0.2978(2)
C14 C 0.4100(2) -0.0124(16) 0.2411(2)
H9 H 0.3674 -0.0852 0.2358
C15 C 0.4185(2) 0.1328(14) 0.1916(2)
O1 O 0.80986(17) 1.1213(13) 0.10568(17)
H10 H 0.8041 1.2265 0.0739
O2 O 0.43840(18) 0.4350(12) 0.09409(16)
O3 O 0.36319(17) 0.1644(12) 0.13675(16)
H11 H 0.3733 0.2728 0.1122
O4 O 0.45830(17) -0.1843(12) 0.34818(16)
H12 H 0.4202 -0.2615 0.3382
C16 C 0.1997(3) 0.5698(15) 0.0508(2)
H13 H 0.2438 0.6498 0.0709
C17 C 0.1676(2) 0.4571(14) 0.0866(2)
C18 C 0.1017(2) 0.3334(15) 0.0561(2)
H14 H 0.0777 0.2615 0.0783
C19 C 0.0727(2) 0.3200(15) -0.0072(2)
H15 H 0.0296 0.2294 -0.0285
C20 C 0.1087(3) 0.4431(16) -0.0388(2)
H16 H 0.0883 0.4364 -0.0817
C21 C 0.2007(2) 0.4731(14) 0.1556(2)
N1 N 0.2673(2) 0.4281(15) 0.18293(19)
H17 H 0.2788 0.3493 0.2211
H18 H 0.2792 0.2702 0.1618
N2 N 0.1714(2) 0.5711(14) -0.01108(19)
O5 O 0.16690(16) 0.5328(12) 0.18525(16)
loop_
_geom_bond_atom_site_label_1
_geom_bond_atom_site_label_2
_geom_bond_site_symmetry_1
_geom_bond_site_symmetry_2
C1 C2 1_555 1_555
C2 H1 1_555 1_555
C3 C2 1_555 1_555
H2 C3 1_555 1_555
C4 C3 1_555 1_555
C5 C4 1_555 1_555
H3 C5 1_555 1_555
C6 C1 1_555 1_555
H4 C6 1_555 1_555
C7 C4 1_555 1_555
H5 C7 1_555 1_555
C8 C7 1_555 1_555
H6 C8 1_555 1_555
C9 C8 1_555 1_555
C10 C9 1_555 1_555
C11 C10 1_555 1_555
H7 C11 1_555 1_555
C12 C11 1_555 1_555
H8 C12 1_555 1_555
C13 C12 1_555 1_555
C14 C13 1_555 1_555
H9 C14 1_555 1_555
C15 C10 1_555 1_555
O1 C1 1_555 1_555
H10 O1 1_555 1_555
O2 C9 1_555 1_555
O3 C15 1_555 1_555
H11 O3 1_555 1_555
O4 C13 1_555 1_555
H12 O4 1_555 1_555
C16 H13 1_555 1_555
C17 C16 1_555 1_555
C18 C17 1_555 1_555
H14 C18 1_555 1_555
C19 C18 1_555 1_555
H15 C19 1_555 1_555
C20 C19 1_555 1_555
H16 C20 1_555 1_555
C21 C17 1_555 1_555
N1 C21 1_555 1_555
H17 N1 1_555 1_555
H18 N1 1_555 1_555
N2 C16 1_555 1_555
O5 C21 1_555 1_555
C5 C6 1_555 1_555
C14 C15 1_555 1_555
C20 N2 1_555 1_555

#END
