
#######################################################################
#
#                 Cambridge Crystallographic Data Centre
#                                CCDC 
#
#######################################################################
#
# If this CIF has been generated from an entry in the Cambridge 
# Structural Database, then it will include bibliographic, chemical, 
# crystal, experimental, refinement or atomic coordinate data resulting 
# from the CCDC's data processing and validation procedures.
#
#######################################################################

data_EYUKAL
_chemical_formula_moiety         'C22 H16 Cl2 N2 O3,C4 H8 O2'
_chemical_name_systematic        
'3-(1-(2,4-dichlorophenyl)-2-nitroethyl)-3-phenyl-1,3-dihydro-2H-indol-2-one ethyl acetate solvate'
_symmetry_cell_setting           triclinic
_symmetry_space_group_name_H-M   'P -1'
_symmetry_Int_Tables_number      2
_space_group_name_Hall           '-P 1'
loop_
_symmetry_equiv_pos_site_id
_symmetry_equiv_pos_as_xyz
1 x,y,z
2 -x,-y,-z
_cell_length_a                   12.5561(5)
_cell_length_b                   12.8030(5)
_cell_length_c                   16.3869(7)
_cell_angle_alpha                83.5940(10)
_cell_angle_beta                 83.9170(10)
_cell_angle_gamma                75.0880(10)
_cell_volume                     2521.48
_exptl_crystal_colour            colorless
_exptl_crystal_description       block
_cell_formula_units_Z            4
loop_
_atom_site_label
_atom_site_type_symbol
_atom_site_fract_x
_atom_site_fract_y
_atom_site_fract_z
Cl1 Cl 0.28023(7) 0.36890(6) 0.18763(5)
Cl2 Cl 0.05532(7) 0.07153(7) 0.28978(5)
O1 O 0.5246(2) 0.2319(2) 0.0927(2)
O2 O 0.55554(18) 0.06668(16) 0.07403(15)
O3 O 0.14743(13) 0.47778(14) 0.01507(12)
N1 N 0.50956(16) 0.15972(17) 0.05879(13)
N2 N 0.06616(15) 0.37856(16) -0.05477(12)
H1 H -0.0012 0.4157 -0.0474
C1 C 0.1335(2) 0.1281(2) 0.21157(15)
C2 C 0.1690(2) 0.2168(2) 0.22542(16)
H2 H 0.1507 0.2469 0.2757
C3 C 0.2323(2) 0.26075(19) 0.16374(15)
C4 C 0.25877(17) 0.21999(17) 0.08668(13)
C5 C 0.22226(19) 0.12846(18) 0.07713(14)
H3 H 0.2408 0.0970 0.0274
C6 C 0.1600(2) 0.0825(2) 0.13786(15)
H4 H 0.1364 0.0217 0.1292
C7 C 0.15253(18) 0.40387(18) -0.02740(14)
C8 C 0.26025(17) 0.32286(17) -0.05874(13)
C9 C 0.21302(17) 0.24666(17) -0.10079(13)
C10 C 0.26133(19) 0.15238(18) -0.13729(14)
H5 H 0.3378 0.1258 -0.1410
C11 C 0.1953(2) 0.0971(2) -0.16856(15)
H6 H 0.2275 0.0325 -0.1924
C12 C 0.0821(2) 0.1372(2) -0.16455(17)
H7 H 0.0389 0.0997 -0.1863
C13 C 0.0318(2) 0.2320(2) -0.12896(17)
H8 H -0.0445 0.2595 -0.1267
C14 C 0.09850(18) 0.28473(19) -0.09673(14)
C15 C 0.33032(17) 0.38603(17) -0.11784(14)
C16 C 0.3583(2) 0.4744(2) -0.09268(17)
H9 H 0.3322 0.4970 -0.0407
C17 C 0.4245(2) 0.5298(2) -0.1437(2)
H10 H 0.4424 0.5890 -0.1256
C18 C 0.4639(2) 0.4984(2) -0.22043(18)
H11 H 0.5089 0.5354 -0.2544
C19 C 0.4363(3) 0.4119(2) -0.24645(18)
H12 H 0.4626 0.3900 -0.2986
C20 C 0.3696(2) 0.3566(2) -0.19605(16)
H13 H 0.3509 0.2985 -0.2152
C21 C 0.32616(17) 0.26969(17) 0.01800(13)
H14 H 0.3479 0.3280 0.0407
C22 C 0.43279(18) 0.18798(18) -0.00826(14)
H15 H 0.4154 0.1227 -0.0219
H16 H 0.4687 0.2185 -0.0571
Cl3 Cl 0.44344(7) -0.04869(7) 0.22214(5)
Cl4 Cl 0.12216(6) -0.24978(7) 0.31033(4)
O4 O 0.44029(18) -0.5470(2) 0.42697(18)
O5 O 0.2881(2) -0.4911(2) 0.37816(16)
O6 O 0.01039(14) -0.14586(13) 0.48605(11)
N3 N 0.34784(17) -0.49398(16) 0.43076(15)
N4 N 0.12356(15) -0.07273(14) 0.55011(12)
H17 H 0.0924 -0.0053 0.5386
C23 C 0.3818(2) -0.1280(2) 0.29591(15)
C24 C 0.2892(2) -0.1553(2) 0.27850(15)
H18 H 0.2602 -0.1329 0.2277
C25 C 0.23896(19) -0.21677(19) 0.33745(14)
C26 C 0.27961(17) -0.25232(17) 0.41428(13)
C27 C 0.37585(18) -0.22439(19) 0.42776(14)
H19 H 0.4071 -0.2484 0.4776
C28 C 0.4266(2) -0.1622(2) 0.36980(16)
H20 H 0.4903 -0.1438 0.3808
C29 C 0.08923(18) -0.15495(17) 0.52584(13)
C30 C 0.16894(17) -0.26350(16) 0.55696(13)
C31 C 0.24646(18) -0.22223(17) 0.60269(13)
C32 C 0.21520(18) -0.10946(17) 0.59600(13)
C33 C 0.2709(2) -0.0486(2) 0.63125(17)
H21 H 0.2490 0.0268 0.6261
C34 C 0.3603(2) -0.1031(2) 0.67434(18)
H22 H 0.3989 -0.0638 0.6990
C35 C 0.3935(2) -0.2147(2) 0.68150(17)
H23 H 0.4544 -0.2498 0.7104
C36 C 0.3365(2) -0.2750(2) 0.64577(14)
H24 H 0.3589 -0.3504 0.6508
C37 C 0.10303(19) -0.33556(17) 0.61039(15)
C38 C 0.0218(2) -0.3695(2) 0.57738(19)
H25 H 0.0060 -0.3468 0.5231
C39 C -0.0364(3) -0.4372(3) 0.6245(3)
H26 H -0.0910 -0.4590 0.6016
C40 C -0.0139(3) -0.4717(3) 0.7042(3)
H27 H -0.0519 -0.5179 0.7353
C41 C 0.0646(3) -0.4379(3) 0.7377(2)
H28 H 0.0794 -0.4605 0.7921
C42 C 0.1230(2) -0.3700(2) 0.69158(17)
H29 H 0.1762 -0.3474 0.7156
C43 C 0.22577(17) -0.32168(16) 0.47813(13)
H30 H 0.1674 -0.3403 0.4518
C44 C 0.30725(19) -0.42813(18) 0.50322(15)
H31 H 0.3696 -0.4130 0.5257
H32 H 0.2715 -0.4694 0.5458
O7 O 0.2627(4) 0.8392(2) 0.07072(18)
O8 O 0.2202(2) 0.73108(19) -0.00517(15)
C45 C 0.3096(3) 0.6529(3) 0.1100(2)
H33 H 0.3400 0.6723 0.1558
H34 H 0.3668 0.6049 0.0787
H35 H 0.2522 0.6172 0.1300
C46 C 0.2636(3) 0.7509(3) 0.05756(18)
C47 C 0.1756(5) 0.8227(4) -0.0623(3)
H36 H 0.1097 0.8689 -0.0366
H37 H 0.2295 0.8652 -0.0777
C48 C 0.1493(5) 0.7832(5) -0.1331(3)
H38 H 0.1205 0.8432 -0.1719
H39 H 0.0948 0.7425 -0.1175
H40 H 0.2148 0.7372 -0.1579
O9 O 0.7871(8) 0.6330(6) 0.4796(5)
O10 O 0.7473(14) 0.7851(13) 0.4797(9)
C49 C 0.796(2) 0.708(2) 0.3536(17)
H41 H 0.7905 0.6425 0.3335
H42 H 0.8721 0.7103 0.3508
H43 H 0.7557 0.7695 0.3203
C50 C 0.754(2) 0.7127(14) 0.4299(13)
C51 C 0.6944(13) 0.7836(8) 0.5614(9)
H44 H 0.7452 0.7402 0.6000
C52 C 0.6600(13) 0.8992(9) 0.5812(8)
H45 H 0.6249 0.9032 0.6361
H46 H 0.6091 0.9407 0.5428
H47 H 0.7239 0.9281 0.5773
H48 H 0.6259 0.7534 0.5591
H49? H 0.6306 0.7535 0.5638
O11? O 0.6696(7) 0.6765(7) 0.4359(5)
O12? O 0.7154(14) 0.8045(8) 0.4630(9)
C53? C 0.7519(9) 0.7264(11) 0.4327(6)
C54? C 0.8343(15) 0.718(2) 0.3614(18)
H50? H 0.8880 0.7567 0.3693
H51? H 0.7982 0.7486 0.3124
H52? H 0.8707 0.6430 0.3560
C55? C 0.6428(12) 0.8210(14) 0.5360(9)
H53? H 0.5742 0.8736 0.5242
C56? C 0.7021(18) 0.8615(15) 0.5936(12)
H54? H 0.6590 0.8693 0.6455
H55? H 0.7138 0.9306 0.5713
H56? H 0.7722 0.8109 0.6014
loop_
_geom_bond_atom_site_label_1
_geom_bond_atom_site_label_2
_geom_bond_site_symmetry_1
_geom_bond_site_symmetry_2
Cl1 C3 1_555 1_555
Cl2 C1 1_555 1_555
O1 N1 1_555 1_555
O2 N1 1_555 1_555
O3 C7 1_555 1_555
N1 C22 1_555 1_555
N2 H1 1_555 1_555
C1 C2 1_555 1_555
C2 H2 1_555 1_555
C3 C2 1_555 1_555
C4 C3 1_555 1_555
C5 C4 1_555 1_555
H3 C5 1_555 1_555
C6 C1 1_555 1_555
H4 C6 1_555 1_555
C7 N2 1_555 1_555
C8 C7 1_555 1_555
C9 C8 1_555 1_555
C10 C9 1_555 1_555
H5 C10 1_555 1_555
C11 C10 1_555 1_555
H6 C11 1_555 1_555
C12 C11 1_555 1_555
H7 C12 1_555 1_555
C13 C12 1_555 1_555
H8 C13 1_555 1_555
C14 N2 1_555 1_555
C15 C8 1_555 1_555
C16 C15 1_555 1_555
H9 C16 1_555 1_555
C17 C16 1_555 1_555
H10 C17 1_555 1_555
C18 C17 1_555 1_555
H11 C18 1_555 1_555
C19 C18 1_555 1_555
H12 C19 1_555 1_555
C20 C15 1_555 1_555
H13 C20 1_555 1_555
C21 C4 1_555 1_555
H14 C21 1_555 1_555
C22 C21 1_555 1_555
H15 C22 1_555 1_555
H16 C22 1_555 1_555
Cl3 C23 1_555 1_555
Cl4 C25 1_555 1_555
O4 N3 1_555 1_555
O5 N3 1_555 1_555
O6 C29 1_555 1_555
N3 C44 1_555 1_555
N4 H17 1_555 1_555
C23 C24 1_555 1_555
C24 H18 1_555 1_555
C25 C24 1_555 1_555
C26 C25 1_555 1_555
C27 C26 1_555 1_555
H19 C27 1_555 1_555
C28 C23 1_555 1_555
H20 C28 1_555 1_555
C29 N4 1_555 1_555
C30 C29 1_555 1_555
C31 C30 1_555 1_555
C32 N4 1_555 1_555
C33 C32 1_555 1_555
H21 C33 1_555 1_555
C34 C33 1_555 1_555
H22 C34 1_555 1_555
C35 C34 1_555 1_555
H23 C35 1_555 1_555
C36 C31 1_555 1_555
H24 C36 1_555 1_555
C37 C30 1_555 1_555
C38 C37 1_555 1_555
H25 C38 1_555 1_555
C39 C38 1_555 1_555
H26 C39 1_555 1_555
C40 C39 1_555 1_555
H27 C40 1_555 1_555
C41 C40 1_555 1_555
H28 C41 1_555 1_555
C42 C37 1_555 1_555
H29 C42 1_555 1_555
C43 C26 1_555 1_555
H30 C43 1_555 1_555
C44 C43 1_555 1_555
H31 C44 1_555 1_555
H32 C44 1_555 1_555
O7 C46 1_555 1_555
O8 C46 1_555 1_555
C45 H33 1_555 1_555
H34 C45 1_555 1_555
H35 C45 1_555 1_555
C46 C45 1_555 1_555
C47 O8 1_555 1_555
H36 C47 1_555 1_555
H37 C47 1_555 1_555
C48 C47 1_555 1_555
H38 C48 1_555 1_555
H39 C48 1_555 1_555
H40 C48 1_555 1_555
O9 C50 1_555 1_555
O10 C50 1_555 1_555
C49 H41 1_555 1_555
H42 C49 1_555 1_555
H43 C49 1_555 1_555
C50 C49 1_555 1_555
C51 O10 1_555 1_555
H44 C51 1_555 1_555
C52 C51 1_555 1_555
H45 C52 1_555 1_555
H46 C52 1_555 1_555
H47 C52 1_555 1_555
H48 C51 1_555 1_555
C5 C6 1_555 1_555
C8 C21 1_555 1_555
C9 C14 1_555 1_555
C13 C14 1_555 1_555
C19 C20 1_555 1_555
C27 C28 1_555 1_555
C30 C43 1_555 1_555
C31 C32 1_555 1_555
C35 C36 1_555 1_555
C41 C42 1_555 1_555

#END
