
#######################################################################
#
#                 Cambridge Crystallographic Data Centre
#                                CCDC 
#
#######################################################################
#
# If this CIF has been generated from an entry in the Cambridge 
# Structural Database, then it will include bibliographic, chemical, 
# crystal, experimental, refinement or atomic coordinate data resulting 
# from the CCDC's data processing and validation procedures.
#
#######################################################################

data_EZAHOE
_chemical_formula_moiety         'C20 H15 N3 O1,C1 H4 O1'
_chemical_name_systematic        
'5-(1H-indol-2-yl)-3,10-dihydroazepino[3,4-b]indol-1(2H)-one methanol solvate'
_symmetry_cell_setting           orthorhombic
_symmetry_space_group_name_H-M   'P b c a'
_symmetry_Int_Tables_number      61
_space_group_name_Hall           '-P 2ac 2ab'
loop_
_symmetry_equiv_pos_site_id
_symmetry_equiv_pos_as_xyz
1 x,y,z
2 1/2-x,-y,1/2+z
3 1/2+x,1/2-y,-z
4 -x,1/2+y,1/2-z
5 -x,-y,-z
6 1/2+x,y,1/2-z
7 1/2-x,1/2+y,z
8 x,1/2-y,1/2+z
_cell_length_a                   11.4468(4)
_cell_length_b                   7.8988(2)
_cell_length_c                   38.0197(13)
_cell_angle_alpha                90
_cell_angle_beta                 90
_cell_angle_gamma                90
_cell_volume                     3437.59
_exptl_crystal_colour            colorless
_exptl_crystal_description       prism
_cell_formula_units_Z            8
loop_
_atom_site_label
_atom_site_type_symbol
_atom_site_fract_x
_atom_site_fract_y
_atom_site_fract_z
C1 C 0.18146(11) 0.0471(2) 0.57568(3)
H1 H 0.2015 -0.0744 0.5778
H2 H 0.0961 0.0557 0.5720
C2 C 0.21289(11) 0.13534(19) 0.60909(3)
H3 H 0.1537 0.1944 0.6216
C3 C 0.32181(11) 0.13405(18) 0.62205(3)
C4 C 0.41612(11) 0.04299(18) 0.60379(3)
C5 C 0.51499(11) -0.04402(19) 0.61870(3)
C6 C 0.55342(12) -0.0771(2) 0.65312(4)
H4 H 0.5120 -0.0335 0.6728
C7 C 0.65205(12) -0.1738(2) 0.65780(4)
H5 H 0.6793 -0.1951 0.6810
C8 C 0.71321(12) -0.2417(2) 0.62920(4)
H6 H 0.7806 -0.3089 0.6334
C9 C 0.67785(11) -0.2131(2) 0.59526(4)
H7 H 0.7189 -0.2601 0.5759
C10 C 0.57905(11) -0.11211(19) 0.59040(3)
C11 C 0.42576(11) 0.02454(19) 0.56774(3)
C12 C 0.35586(11) 0.09907(19) 0.53937(4)
C13 C 0.35207(11) 0.23315(18) 0.65320(3)
C14 C 0.45133(11) 0.32254(19) 0.65982(3)
H8 H 0.5193 0.3247 0.6455
C15 C 0.43579(12) 0.41174(19) 0.69181(4)
C16 C 0.50536(14) 0.5216(2) 0.71191(4)
H9 H 0.5812 0.5528 0.7041
C17 C 0.46146(16) 0.5835(2) 0.74319(4)
H10 H 0.5079 0.6579 0.7570
C18 C 0.35121(16) 0.5392(2) 0.75480(4)
H11 H 0.3237 0.5836 0.7765
C19 C 0.28066(14) 0.4334(2) 0.73596(4)
H12 H 0.2051 0.4034 0.7442
C20 C 0.32339(12) 0.37106(19) 0.70421(3)
N1 N 0.24215(10) 0.11844(16) 0.54508(3)
N2 N 0.52460(9) -0.06623(17) 0.55968(3)
N3 N 0.27301(10) 0.26403(17) 0.67992(3)
O1 O 0.40346(8) 0.14432(14) 0.51118(2)
H13 H 0.5496(13) -0.089(2) 0.5379(4)
H14 H 0.2001(14) 0.160(2) 0.5260(4)
H15 H 0.2010(15) 0.204(2) 0.6829(4)
C21 C 0.61803(15) 0.4372(3) 0.53427(4)
H16 H 0.6014 0.4140 0.5591
H17 H 0.5564 0.5093 0.5245
H18 H 0.6935 0.4950 0.5323
O2 O 0.62212(10) 0.28248(16) 0.51539(3)
H19 H 0.5445(19) 0.233(3) 0.5136(5)
loop_
_geom_bond_atom_site_label_1
_geom_bond_atom_site_label_2
_geom_bond_site_symmetry_1
_geom_bond_site_symmetry_2
C1 H1 1_555 1_555
H2 C1 1_555 1_555
C2 C1 1_555 1_555
H3 C2 1_555 1_555
C3 C2 1_555 1_555
C4 C3 1_555 1_555
C5 C4 1_555 1_555
C6 C5 1_555 1_555
H4 C6 1_555 1_555
C7 C6 1_555 1_555
H5 C7 1_555 1_555
C8 C7 1_555 1_555
H6 C8 1_555 1_555
C9 C8 1_555 1_555
H7 C9 1_555 1_555
C10 C5 1_555 1_555
C11 C4 1_555 1_555
C12 C11 1_555 1_555
C13 C3 1_555 1_555
C14 C13 1_555 1_555
H8 C14 1_555 1_555
C15 C14 1_555 1_555
C16 C15 1_555 1_555
H9 C16 1_555 1_555
C17 C16 1_555 1_555
H10 C17 1_555 1_555
C18 C17 1_555 1_555
H11 C18 1_555 1_555
C19 C18 1_555 1_555
H12 C19 1_555 1_555
C20 C15 1_555 1_555
N1 C1 1_555 1_555
N2 C10 1_555 1_555
N3 C13 1_555 1_555
O1 C12 1_555 1_555
H13 N2 1_555 1_555
H14 N1 1_555 1_555
H15 N3 1_555 1_555
C21 H16 1_555 1_555
H17 C21 1_555 1_555
H18 C21 1_555 1_555
O2 C21 1_555 1_555
H19 O2 1_555 1_555
C9 C10 1_555 1_555
C11 N2 1_555 1_555
C12 N1 1_555 1_555
C19 C20 1_555 1_555
C20 N3 1_555 1_555

#END
