
#######################################################################
#
#                 Cambridge Crystallographic Data Centre
#                                CCDC 
#
#######################################################################
#
# If this CIF has been generated from an entry in the Cambridge 
# Structural Database, then it will include bibliographic, chemical, 
# crystal, experimental, refinement or atomic coordinate data resulting 
# from the CCDC's data processing and validation procedures.
#
#######################################################################

data_EZAJIZ
_chemical_formula_moiety         'C32 H31 O3 P1'
_chemical_name_systematic        
'Ethyl 5-oxo-3-phenyl-2-(triphenylphosphoranylidene)hexanoate'
_symmetry_cell_setting           orthorhombic
_symmetry_space_group_name_H-M   'P 21 21 21'
_symmetry_Int_Tables_number      19
_space_group_name_Hall           'P 2ac 2ab'
loop_
_symmetry_equiv_pos_site_id
_symmetry_equiv_pos_as_xyz
1 x,y,z
2 1/2-x,-y,1/2+z
3 -x,1/2+y,1/2-z
4 1/2+x,1/2-y,-z
_cell_length_a                   8.811(3)
_cell_length_b                   10.090(4)
_cell_length_c                   30.018(12)
_cell_angle_alpha                90
_cell_angle_beta                 90
_cell_angle_gamma                90
_cell_volume                     2668.69
_cell_formula_units_Z            4
loop_
_atom_site_label
_atom_site_type_symbol
_atom_site_fract_x
_atom_site_fract_y
_atom_site_fract_z
C1 C 1.1626(6) 0.7483(6) 0.06909(19)
H1 H 1.2337 0.8076 0.0553
H2 H 1.1666 0.6638 0.0545
H3 H 1.1881 0.7376 0.1000
C2 C 1.0033(8) 0.8051(7) 0.0652(2)
C3 C 0.8826(6) 0.7048(5) 0.07645(19)
H4 H 0.9168 0.6516 0.1014
H5 H 0.8684 0.6461 0.0512
C4 C 0.7281(6) 0.7698(5) 0.08849(18)
H6 H 0.6985 0.8257 0.0632
C5 C 0.6114(6) 0.6559(6) 0.0915(2)
C6 C 0.5690(7) 0.5910(6) 0.0527(2)
H7 H 0.6071 0.6192 0.0254
C7 C 0.4706(7) 0.4847(7) 0.0546(2)
H8 H 0.4449 0.4402 0.0285
C8 C 0.4108(7) 0.4446(6) 0.0941(2)
H9 H 0.3435 0.3736 0.0950
C9 C 0.4503(6) 0.5093(6) 0.1328(2)
H10 H 0.4098 0.4816 0.1599
C10 C 0.5503(6) 0.6157(5) 0.1316(2)
H11 H 0.5760 0.6597 0.1578
C11 C 0.7351(5) 0.8574(5) 0.1287(2)
C12 C 0.8089(7) 0.8184(6) 0.1680(2)
C13 C 0.8911(7) 0.9098(6) 0.2375(2)
H12 H 0.9957 0.8959 0.2285
H13 H 0.8604 0.8371 0.2566
C14 C 0.8749(7) 1.0401(6) 0.26161(18)
H14 H 0.9056 1.1110 0.2423
H15 H 0.9379 1.0396 0.2877
H16 H 0.7709 1.0525 0.2702
C15 C 0.5669(7) 1.0557(5) 0.07658(18)
C16 C 0.4116(7) 1.0546(5) 0.0749(2)
H17 H 0.3547 1.0332 0.1000
C17 C 0.3398(7) 1.0866(6) 0.0344(2)
H18 H 0.2344 1.0884 0.0330
C18 C 0.4237(8) 1.1154(6) -0.0031(2)
H19 H 0.3763 1.1349 -0.0300
C19 C 0.5794(8) 1.1144(6) 0.0002(2)
H20 H 0.6368 1.1349 -0.0248
C20 C 0.6536(7) 1.0841(6) 0.0394(2)
H21 H 0.7591 1.0827 0.0408
C21 C 0.8063(6) 1.1480(5) 0.13271(19)
C22 C 0.7662(6) 1.2780(6) 0.1294(2)
H22 H 0.6655 1.2998 0.1237
C23 C 0.8717(8) 1.3779(6) 0.1344(2)
H23 H 0.8424 1.4665 0.1339
C24 C 1.0223(8) 1.3429(7) 0.1402(2)
H24 H 1.0953 1.4091 0.1425
C25 C 1.0655(7) 1.2145(6) 0.14262(18)
H25 H 1.1673 1.1934 0.1467
C26 C 0.9580(6) 1.1134(5) 0.13906(18)
H26 H 0.9870 1.0249 0.1409
C27 C 0.5258(6) 1.0421(6) 0.17318(17)
C28 C 0.5228(7) 1.1546(6) 0.1997(2)
H27 H 0.5902 1.2239 0.1946
C29 C 0.4168(7) 1.1622(7) 0.2342(2)
H28 H 0.4125 1.2373 0.2521
C30 C 0.3193(8) 1.0588(8) 0.2416(2)
H29 H 0.2501 1.0638 0.2649
C31 C 0.3220(7) 0.9482(7) 0.2153(2)
H30 H 0.2542 0.8792 0.2203
C32 C 0.4268(7) 0.9400(6) 0.1808(2)
H31 H 0.4298 0.8648 0.1629
O1 O 0.9840(5) 0.9153(4) 0.05432(14)
O2 O 0.8764(4) 0.7153(4) 0.17594(12)
O3 O 0.7958(4) 0.9169(4) 0.19955(12)
P1 P 0.66500(15) 1.01713(14) 0.12839(5)
loop_
_geom_bond_atom_site_label_1
_geom_bond_atom_site_label_2
_geom_bond_site_symmetry_1
_geom_bond_site_symmetry_2
C1 H1 1_555 1_555
H2 C1 1_555 1_555
H3 C1 1_555 1_555
C2 C1 1_555 1_555
C3 C2 1_555 1_555
H4 C3 1_555 1_555
H5 C3 1_555 1_555
C4 C3 1_555 1_555
H6 C4 1_555 1_555
C5 C4 1_555 1_555
C6 C5 1_555 1_555
H7 C6 1_555 1_555
C7 C6 1_555 1_555
H8 C7 1_555 1_555
C8 C7 1_555 1_555
H9 C8 1_555 1_555
C9 C8 1_555 1_555
H10 C9 1_555 1_555
C10 C5 1_555 1_555
H11 C10 1_555 1_555
C11 C4 1_555 1_555
C12 C11 1_555 1_555
C13 H12 1_555 1_555
H13 C13 1_555 1_555
C14 C13 1_555 1_555
H14 C14 1_555 1_555
H15 C14 1_555 1_555
H16 C14 1_555 1_555
C15 C16 1_555 1_555
C16 H17 1_555 1_555
C17 C16 1_555 1_555
H18 C17 1_555 1_555
C18 C17 1_555 1_555
H19 C18 1_555 1_555
C19 C18 1_555 1_555
H20 C19 1_555 1_555
C20 C15 1_555 1_555
H21 C20 1_555 1_555
C21 C22 1_555 1_555
C22 H22 1_555 1_555
C23 C22 1_555 1_555
H23 C23 1_555 1_555
C24 C23 1_555 1_555
H24 C24 1_555 1_555
C25 C24 1_555 1_555
H25 C25 1_555 1_555
C26 C21 1_555 1_555
H26 C26 1_555 1_555
C27 C28 1_555 1_555
C28 H27 1_555 1_555
C29 C28 1_555 1_555
H28 C29 1_555 1_555
C30 C29 1_555 1_555
H29 C30 1_555 1_555
C31 C30 1_555 1_555
H30 C31 1_555 1_555
C32 C27 1_555 1_555
H31 C32 1_555 1_555
O1 C2 1_555 1_555
O2 C12 1_555 1_555
O3 C12 1_555 1_555
P1 C11 1_555 1_555
C9 C10 1_555 1_555
C13 O3 1_555 1_555
C15 P1 1_555 1_555
C19 C20 1_555 1_555
C21 P1 1_555 1_555
C25 C26 1_555 1_555
C27 P1 1_555 1_555
C31 C32 1_555 1_555

#END
