
#######################################################################
#
#                 Cambridge Crystallographic Data Centre
#                                CCDC 
#
#######################################################################
#
# If this CIF has been generated from an entry in the Cambridge 
# Structural Database, then it will include bibliographic, chemical, 
# crystal, experimental, refinement or atomic coordinate data resulting 
# from the CCDC's data processing and validation procedures.
#
#######################################################################

data_EZAJEV
_chemical_formula_moiety         'C84 H96 S3 Si3'
_chemical_name_systematic        
2,6,10-tris(triisopropylsilyl)-4,4,8,8,12,12-hexaphenyl-8,12-dihydro-4H-thieno[2',3':6,7]thieno[3'',2'':4',5']cyclopenta[1',2':4,5]-as-indaceno[1,2-b]thiene
_symmetry_cell_setting           monoclinic
_symmetry_space_group_name_H-M   'C 2/c'
_symmetry_Int_Tables_number      15
_space_group_name_Hall           '-C 2yn'
loop_
_symmetry_equiv_pos_site_id
_symmetry_equiv_pos_as_xyz
1 x,y,z
2 -x,y,1/2-z
3 1/2+x,1/2+y,z
4 1/2-x,1/2+y,1/2-z
5 -x,-y,-z
6 x,-y,1/2+z
7 1/2-x,1/2-y,-z
8 1/2+x,1/2-y,1/2+z
_cell_length_a                   48.8020(10)
_cell_length_b                   9.1918(2)
_cell_length_c                   39.5359(7)
_cell_angle_alpha                90
_cell_angle_beta                 123.360(2)
_cell_angle_gamma                90
_cell_volume                     14812.8
_cell_formula_units_Z            8
loop_
_atom_site_label
_atom_site_type_symbol
_atom_site_fract_x
_atom_site_fract_y
_atom_site_fract_z
S1 S 0.013156(15) -0.01492(8) 0.604341(18)
S2 S 0.134154(14) 0.21426(7) 0.821892(16)
S3 S 0.175143(14) 0.31017(7) 0.664880(17)
Si1 Si -0.058786(16) -0.06686(8) 0.58060(2)
Si2 Si 0.185984(16) 0.35687(7) 0.906791(18)
Si3 Si 0.188480(16) 0.32763(7) 0.595465(18)
C1 C 0.08908(6) 0.1180(3) 0.71281(7)
C2 C 0.11963(6) 0.1816(3) 0.73854(7)
C3 C 0.13870(5) 0.2270(2) 0.72314(7)
C4 C 0.12768(6) 0.1981(3) 0.68323(7)
C5 C 0.09757(6) 0.1238(3) 0.65749(7)
C6 C 0.07816(6) 0.0895(3) 0.67186(7)
C7 C 0.04465(6) 0.0343(3) 0.65218(7)
C8 C 0.03457(6) 0.0346(3) 0.67829(7)
C9 C 0.00129(6) -0.0049(3) 0.65984(7)
H1 H -0.0093 -0.0102 0.6740
C10 C -0.01414(6) -0.0347(3) 0.61920(7)
C11 C -0.07171(7) 0.0713(4) 0.53910(9)
H2 H -0.0599 0.0464 0.5257
C12 C -0.06255(10) 0.2290(4) 0.55420(14)
H3 H -0.0700 0.2940 0.5311
H4 H -0.0387 0.2369 0.5728
H5 H -0.0731 0.2565 0.5684
C13 C -0.10878(8) 0.0614(5) 0.50638(11)
H6 H -0.1147 0.1342 0.4853
H7 H -0.1212 0.0796 0.5187
H8 H -0.1140 -0.0360 0.4943
C14 C -0.06497(9) -0.2560(4) 0.55901(13)
H9 H -0.0892 -0.2720 0.5410
C15 C -0.05104(10) -0.2758(6) 0.53263(16)
H10 H -0.0550 -0.3757 0.5223
H11 H -0.0274 -0.2566 0.5489
H12 H -0.0618 -0.2076 0.5098
C16 C -0.05168(16) -0.3676(5) 0.5934(2)
H13 H -0.0549 -0.4660 0.5823
H14 H -0.0634 -0.3577 0.6070
H15 H -0.0282 -0.3505 0.6130
C17 C -0.08018(7) -0.0494(5) 0.60803(10)
H16 H -0.0677 -0.1131 0.6324
C18 C -0.11569(9) -0.1091(7) 0.58394(12)
H17 H -0.1253 -0.0967 0.6000
H18 H -0.1154 -0.2126 0.5782
H19 H -0.1288 -0.0557 0.5584
C19 C -0.07928(10) 0.1020(6) 0.62421(12)
H20 H -0.0909 0.1009 0.6380
H21 H -0.0899 0.1712 0.6017
H22 H -0.0564 0.1312 0.6433
C20 C 0.06096(6) 0.0948(3) 0.71960(7)
C21 C 0.06783(6) -0.0117(3) 0.75246(7)
C22 C 0.04343(7) -0.0409(3) 0.76010(8)
H23 H 0.0234 0.0120 0.7459
C23 C 0.04810(8) -0.1455(3) 0.78800(9)
H24 H 0.0313 -0.1640 0.7927
C24 C 0.07735(8) -0.2235(3) 0.80916(9)
H25 H 0.0806 -0.2948 0.8285
C25 C 0.10155(8) -0.1968(3) 0.80197(9)
H26 H 0.1215 -0.2505 0.8161
C26 C 0.09676(7) -0.0915(3) 0.77422(8)
H27 H 0.1138 -0.0731 0.7699
C27 C 0.05004(6) 0.2489(3) 0.72442(8)
C28 C 0.05207(7) 0.2952(3) 0.75902(9)
H28 H 0.0598 0.2305 0.7812
C29 C 0.04295(10) 0.4345(4) 0.76145(11)
H29 H 0.0439 0.4644 0.7851
C30 C 0.03229(11) 0.5319(4) 0.72970(13)
H30 H 0.0262 0.6283 0.7316
C31 C 0.03064(11) 0.4871(4) 0.69535(12)
H31 H 0.0236 0.5533 0.6736
C32 C 0.03910(8) 0.3467(3) 0.69234(10)
H32 H 0.0375 0.3163 0.6683
C33 C 0.13778(6) 0.2261(3) 0.78117(7)
C34 C 0.16533(6) 0.3020(2) 0.79102(7)
C35 C 0.18359(6) 0.3523(3) 0.83143(7)
H33 H 0.2032 0.4072 0.8428
C36 C 0.16989(6) 0.3136(3) 0.85262(7)
C37 C 0.15018(7) 0.3478(3) 0.91260(8)
H34 H 0.1393 0.2524 0.9006
C38 C 0.12378(10) 0.4643(4) 0.88803(13)
H35 H 0.1060 0.4533 0.8924
H36 H 0.1151 0.4524 0.8592
H37 H 0.1335 0.5613 0.8969
C39 C 0.15984(11) 0.3438(5) 0.95671(11)
H38 H 0.1400 0.3388 0.9572
H39 H 0.1722 0.4320 0.9708
H40 H 0.1735 0.2581 0.9703
C40 C 0.21702(7) 0.2134(3) 0.94000(7)
H41 H 0.2232 0.2301 0.9683
C41 C 0.20229(9) 0.0603(3) 0.92740(10)
H42 H 0.2188 -0.0118 0.9451
H43 H 0.1953 0.0422 0.8993
H44 H 0.1833 0.0527 0.9297
C42 C 0.24849(8) 0.2240(4) 0.94019(9)
H45 H 0.2639 0.1481 0.9578
H46 H 0.2585 0.3198 0.9503
H47 H 0.2431 0.2109 0.9126
C43 C 0.20759(7) 0.5383(3) 0.91803(7)
H48 H 0.2262 0.5230 0.9146
C44 C 0.22319(9) 0.5850(4) 0.96232(9)
H49 H 0.2341 0.6792 0.9668
H50 H 0.2393 0.5120 0.9803
H51 H 0.2061 0.5935 0.9680
C45 C 0.18718(8) 0.6623(3) 0.88934(10)
H52 H 0.2004 0.7512 0.8976
H53 H 0.1678 0.6786 0.8904
H54 H 0.1802 0.6366 0.8617
C46 C 0.16799(5) 0.3202(3) 0.75467(6)
C47 C 0.20175(6) 0.2659(3) 0.76603(7)
C48 C 0.20625(6) 0.1325(3) 0.75346(7)
H55 H 0.1877 0.0746 0.7353
C49 C 0.23762(7) 0.0819(3) 0.76700(8)
H56 H 0.2402 -0.0089 0.7576
C50 C 0.26470(7) 0.1623(3) 0.79378(8)
H57 H 0.2860 0.1274 0.8029
C51 C 0.26095(7) 0.2955(3) 0.80764(8)
H58 H 0.2797 0.3514 0.8263
C52 C 0.22975(6) 0.3461(3) 0.79401(8)
H59 H 0.2273 0.4364 0.8037
C53 C 0.16027(6) 0.4819(3) 0.74126(7)
C54 C 0.17969(7) 0.5698(3) 0.73527(8)
H60 H 0.1986 0.5306 0.7374
C55 C 0.17209(7) 0.7170(3) 0.72595(9)
H61 H 0.1862 0.7769 0.7224
C56 C 0.14484(8) 0.7759(3) 0.72189(9)
H62 H 0.1403 0.8769 0.7166
C57 C 0.12365(8) 0.6847(3) 0.72570(10)
H63 H 0.1039 0.7229 0.7216
C58 C 0.13132(7) 0.5396(3) 0.73542(9)
H64 H 0.1170 0.4785 0.7382
C59 C 0.14076(6) 0.2311(3) 0.65849(7)
C60 C 0.12004(6) 0.1813(3) 0.61962(7)
C61 C 0.13206(6) 0.2084(3) 0.59483(7)
H65 H 0.1205 0.1818 0.5671
C62 C 0.16224(6) 0.2773(3) 0.61485(7)
C63 C 0.23105(7) 0.3622(3) 0.64116(8)
H66 H 0.2282 0.4216 0.6602
C64 C 0.24925(8) 0.2238(4) 0.66441(11)
H67 H 0.2711 0.2497 0.6876
H68 H 0.2514 0.1582 0.6465
H69 H 0.2369 0.1751 0.6740
C65 C 0.25300(8) 0.4525(4) 0.63247(10)
H70 H 0.2746 0.4655 0.6576
H71 H 0.2429 0.5478 0.6218
H72 H 0.2555 0.4017 0.6125
C66 C 0.18421(8) 0.1797(3) 0.56023(9)
H73 H 0.1605 0.1790 0.5377
C67 C 0.19177(10) 0.0257(4) 0.57715(12)
H74 H 0.1888 -0.0421 0.5562
H75 H 0.1769 -0.0007 0.5855
H76 H 0.2145 0.0208 0.6006
C68 C 0.20301(11) 0.2146(5) 0.54019(13)
H77 H 0.2001 0.1348 0.5221
H78 H 0.2264 0.2264 0.5612
H79 H 0.1945 0.3049 0.5246
C69 C 0.17151(7) 0.5024(3) 0.56544(9)
H80 H 0.1860 0.5317 0.5561
C70 C 0.13674(8) 0.4833(4) 0.52788(10)
H81 H 0.1290 0.5761 0.5134
H82 H 0.1221 0.4519 0.5362
H83 H 0.1369 0.4097 0.5101
C71 C 0.17208(10) 0.6260(4) 0.59215(13)
H84 H 0.1632 0.7149 0.5760
H85 H 0.1947 0.6434 0.6148
H86 H 0.1587 0.5983 0.6027
C72 C 0.09035(6) 0.1039(3) 0.61451(7)
C73 C 0.05851(6) 0.1854(3) 0.58307(7)
C74 C 0.03582(11) 0.1361(4) 0.54456(10)
H87 H 0.0394 0.0463 0.5357
C75 C 0.00735(11) 0.2176(5) 0.51826(12)
H88 H -0.0081 0.1806 0.4920
C76 C 0.00157(8) 0.3435(5) 0.52899(13)
H89 H -0.0174 0.3983 0.5104
C77 C 0.02312(9) 0.3938(4) 0.56691(12)
H90 H 0.0189 0.4833 0.5753
C78 C 0.05129(7) 0.3156(3) 0.59368(9)
H91 H 0.0660 0.3531 0.6201
C79 C 0.09028(8) -0.0586(3) 0.60470(8)
C80 C 0.08866(10) -0.0993(5) 0.56934(12)
H92 H 0.0882 -0.0258 0.5521
C81 C 0.08772(11) -0.2446(5) 0.55898(13)
H93 H 0.0875 -0.2683 0.5355
C82 C 0.08707(17) -0.3554(6) 0.58225(19)
H94 H 0.0870 -0.4545 0.5754
C83 C 0.08648(13) -0.3177(5) 0.61575(17)
H95 H 0.0858 -0.3919 0.6320
C84 C 0.08694(10) -0.1729(4) 0.62589(11)
H96 H 0.0849 -0.1501 0.6479
C85? C 0.0705(2) -0.1450(11) 0.5887(3)
C86? C 0.0765(4) -0.2982(15) 0.5863(5)
C87? C 0.1073(5) -0.3513(15) 0.6048(5)
C88? C 0.1323(3) -0.2576(16) 0.6257(4)
C89? C 0.1282(3) -0.1087(13) 0.6265(3)
H97? H 0.0483 -0.1148 0.5760
H98? H 0.0584 -0.3623 0.5713
H99? H 0.1112 -0.4516 0.6032
H100? H 0.1540 -0.2954 0.6406
H101? H 0.1460 -0.0420 0.6387
loop_
_geom_bond_atom_site_label_1
_geom_bond_atom_site_label_2
_geom_bond_site_symmetry_1
_geom_bond_site_symmetry_2
S1 C7 1_555 1_555
S2 C33 1_555 1_555
S3 C59 1_555 1_555
Si1 C10 1_555 1_555
Si2 C36 1_555 1_555
Si3 C62 1_555 1_555
C1 C2 1_555 1_555
C2 C3 1_555 1_555
C3 C4 1_555 1_555
C4 C5 1_555 1_555
C5 C6 1_555 1_555
C6 C1 1_555 1_555
C7 C6 1_555 1_555
C8 C7 1_555 1_555
C9 C8 1_555 1_555
H1 C9 1_555 1_555
C10 S1 1_555 1_555
C11 Si1 1_555 1_555
H2 C11 1_555 1_555
C12 C11 1_555 1_555
H3 C12 1_555 1_555
H4 C12 1_555 1_555
H5 C12 1_555 1_555
C13 C11 1_555 1_555
H6 C13 1_555 1_555
H7 C13 1_555 1_555
H8 C13 1_555 1_555
C14 Si1 1_555 1_555
H9 C14 1_555 1_555
C15 C14 1_555 1_555
H10 C15 1_555 1_555
H11 C15 1_555 1_555
H12 C15 1_555 1_555
C16 C14 1_555 1_555
H13 C16 1_555 1_555
H14 C16 1_555 1_555
H15 C16 1_555 1_555
C17 Si1 1_555 1_555
H16 C17 1_555 1_555
C18 C17 1_555 1_555
H17 C18 1_555 1_555
H18 C18 1_555 1_555
H19 C18 1_555 1_555
C19 C17 1_555 1_555
H20 C19 1_555 1_555
H21 C19 1_555 1_555
H22 C19 1_555 1_555
C20 C1 1_555 1_555
C21 C20 1_555 1_555
C22 C21 1_555 1_555
H23 C22 1_555 1_555
C23 C22 1_555 1_555
H24 C23 1_555 1_555
C24 C23 1_555 1_555
H25 C24 1_555 1_555
C25 C24 1_555 1_555
H26 C25 1_555 1_555
C26 C21 1_555 1_555
H27 C26 1_555 1_555
C27 C20 1_555 1_555
C28 C27 1_555 1_555
H28 C28 1_555 1_555
C29 C28 1_555 1_555
H29 C29 1_555 1_555
C30 C29 1_555 1_555
H30 C30 1_555 1_555
C31 C30 1_555 1_555
H31 C31 1_555 1_555
C32 C27 1_555 1_555
H32 C32 1_555 1_555
C33 C2 1_555 1_555
C34 C33 1_555 1_555
C35 C34 1_555 1_555
H33 C35 1_555 1_555
C36 S2 1_555 1_555
C37 Si2 1_555 1_555
H34 C37 1_555 1_555
C38 C37 1_555 1_555
H35 C38 1_555 1_555
H36 C38 1_555 1_555
H37 C38 1_555 1_555
C39 C37 1_555 1_555
H38 C39 1_555 1_555
H39 C39 1_555 1_555
H40 C39 1_555 1_555
C40 Si2 1_555 1_555
H41 C40 1_555 1_555
C41 C40 1_555 1_555
H42 C41 1_555 1_555
H43 C41 1_555 1_555
H44 C41 1_555 1_555
C42 C40 1_555 1_555
H45 C42 1_555 1_555
H46 C42 1_555 1_555
H47 C42 1_555 1_555
C43 Si2 1_555 1_555
H48 C43 1_555 1_555
C44 C43 1_555 1_555
H49 C44 1_555 1_555
H50 C44 1_555 1_555
H51 C44 1_555 1_555
C45 C43 1_555 1_555
H52 C45 1_555 1_555
H53 C45 1_555 1_555
H54 C45 1_555 1_555
C46 C3 1_555 1_555
C47 C46 1_555 1_555
C48 C47 1_555 1_555
H55 C48 1_555 1_555
C49 C48 1_555 1_555
H56 C49 1_555 1_555
C50 C49 1_555 1_555
H57 C50 1_555 1_555
C51 C50 1_555 1_555
H58 C51 1_555 1_555
C52 C47 1_555 1_555
H59 C52 1_555 1_555
C53 C46 1_555 1_555
C54 C53 1_555 1_555
H60 C54 1_555 1_555
C55 C54 1_555 1_555
H61 C55 1_555 1_555
C56 C55 1_555 1_555
H62 C56 1_555 1_555
C57 C56 1_555 1_555
H63 C57 1_555 1_555
C58 C53 1_555 1_555
H64 C58 1_555 1_555
C59 C4 1_555 1_555
C60 C59 1_555 1_555
C61 C60 1_555 1_555
H65 C61 1_555 1_555
C62 S3 1_555 1_555
C63 Si3 1_555 1_555
H66 C63 1_555 1_555
C64 C63 1_555 1_555
H67 C64 1_555 1_555
H68 C64 1_555 1_555
H69 C64 1_555 1_555
C65 C63 1_555 1_555
H70 C65 1_555 1_555
H71 C65 1_555 1_555
H72 C65 1_555 1_555
C66 Si3 1_555 1_555
H73 C66 1_555 1_555
C67 C66 1_555 1_555
H74 C67 1_555 1_555
H75 C67 1_555 1_555
H76 C67 1_555 1_555
C68 C66 1_555 1_555
H77 C68 1_555 1_555
H78 C68 1_555 1_555
H79 C68 1_555 1_555
C69 Si3 1_555 1_555
H80 C69 1_555 1_555
C70 C69 1_555 1_555
H81 C70 1_555 1_555
H82 C70 1_555 1_555
H83 C70 1_555 1_555
C71 C69 1_555 1_555
H84 C71 1_555 1_555
H85 C71 1_555 1_555
H86 C71 1_555 1_555
C72 C5 1_555 1_555
C73 C72 1_555 1_555
C74 C73 1_555 1_555
H87 C74 1_555 1_555
C75 C74 1_555 1_555
H88 C75 1_555 1_555
C76 C75 1_555 1_555
H89 C76 1_555 1_555
C77 C76 1_555 1_555
H90 C77 1_555 1_555
C78 C73 1_555 1_555
H91 C78 1_555 1_555
C79 C72 1_555 1_555
C80 C79 1_555 1_555
H92 C80 1_555 1_555
C81 C80 1_555 1_555
H93 C81 1_555 1_555
C82 C81 1_555 1_555
H94 C82 1_555 1_555
C83 C82 1_555 1_555
H95 C83 1_555 1_555
C84 C79 1_555 1_555
H96 C84 1_555 1_555
C8 C20 1_555 1_555
C9 C10 1_555 1_555
C25 C26 1_555 1_555
C31 C32 1_555 1_555
C34 C46 1_555 1_555
C35 C36 1_555 1_555
C51 C52 1_555 1_555
C57 C58 1_555 1_555
C60 C72 1_555 1_555
C61 C62 1_555 1_555
C77 C78 1_555 1_555
C83 C84 1_555 1_555

#END
