
#######################################################################
#
#                 Cambridge Crystallographic Data Centre
#                                CCDC 
#
#######################################################################
#
# If this CIF has been generated from an entry in the Cambridge 
# Structural Database, then it will include bibliographic, chemical, 
# crystal, experimental, refinement or atomic coordinate data resulting 
# from the CCDC's data processing and validation procedures.
#
#######################################################################

data_EZAMAU
_chemical_formula_moiety         'C15 H14 O2 S1'
_chemical_name_systematic        
3-(Ethylsulfanyl)-1-(2-furyl)-3-phenylprop-2-en-1-one
_symmetry_cell_setting           triclinic
_symmetry_space_group_name_H-M   'P -1'
_symmetry_Int_Tables_number      2
_space_group_name_Hall           '-P 1'
loop_
_symmetry_equiv_pos_site_id
_symmetry_equiv_pos_as_xyz
1 x,y,z
2 -x,-y,-z
_cell_length_a                   10.5132(12)
_cell_length_b                   10.9768(12)
_cell_length_c                   12.1803(14)
_cell_angle_alpha                106.285(2)
_cell_angle_beta                 91.850(2)
_cell_angle_gamma                90.480(2)
_cell_volume                     1348.3
_exptl_crystal_colour            colorless
_exptl_crystal_description       prismatic
_cell_formula_units_Z            4
loop_
_atom_site_label
_atom_site_type_symbol
_atom_site_fract_x
_atom_site_fract_y
_atom_site_fract_z
S1 S 0.25855(7) 0.95485(6) 0.43661(6)
O1 O 0.39329(19) 1.18347(18) 0.48198(16)
O2 O 0.5564(3) 1.3589(2) 0.4335(2)
C1 C 0.3687(2) 0.9305(2) 0.32937(19)
C2 C 0.4531(2) 1.0196(2) 0.3232(2)
H1 H 0.5107 0.9983 0.2647
C3 C 0.4623(2) 1.1472(2) 0.4004(2)
C4 C 0.5549(3) 1.2331(2) 0.3746(2)
C5 C 0.6375(3) 1.2126(3) 0.2916(2)
H2 H 0.6536 1.1351 0.2390
C6 C 0.6964(4) 1.3306(4) 0.2982(4)
H3 H 0.7585 1.3457 0.2506
C7 C 0.6473(5) 1.4148(4) 0.3838(4)
H4 H 0.6705 1.5004 0.4078
C8 C 0.3665(2) 0.8050(2) 0.2405(2)
C9 C 0.4418(3) 0.7086(2) 0.2550(2)
H5 H 0.4939 0.7206 0.3204
C10 C 0.4394(3) 0.5931(3) 0.1711(3)
H6 H 0.4912 0.5280 0.1800
C11 C 0.3619(3) 0.5741(3) 0.0755(2)
H7 H 0.3600 0.4958 0.0204
C12 C 0.2871(3) 0.6695(3) 0.0607(2)
H8 H 0.2349 0.6567 -0.0047
C13 C 0.2893(3) 0.7854(2) 0.1435(2)
H9 H 0.2383 0.8506 0.1334
C14 C 0.1736(3) 0.8044(3) 0.4082(3)
H10 H 0.1268 0.7866 0.3354
H11 H 0.2332 0.7366 0.4047
C15 C 0.0837(4) 0.8122(4) 0.5024(3)
H12 H 0.1300 0.8358 0.5747
H13 H 0.0427 0.7310 0.4918
H14 H 0.0207 0.8746 0.5013
S2 S 0.75855(7) 0.95463(6) 0.03926(7)
O3 O 0.89794(19) 1.18082(17) 0.09153(17)
O4 O 1.0774(2) 1.35393(16) 0.19827(18)
C16 C 0.8745(2) 0.9399(2) 0.1393(2)
C17 C 0.9621(2) 1.0310(2) 0.1850(2)
H15 H 1.0221 1.0153 0.2370
C18 C 0.9704(2) 1.1519(2) 0.1596(2)
C19 C 1.0708(2) 1.2397(2) 0.2222(2)
C20 C 1.1604(3) 1.2373(3) 0.3021(3)
H16 H 1.1754 1.1708 0.3340
C21 C 1.2275(3) 1.3532(3) 0.3287(3)
H17 H 1.2961 1.3783 0.3805
C22 C 1.1740(3) 1.4194(3) 0.2656(3)
H18 H 1.1995 1.5012 0.2670
C23 C 0.8743(2) 0.8215(2) 0.1754(2)
C24 C 0.9406(3) 0.7168(2) 0.1154(2)
H19 H 0.9837 0.7194 0.0505
C25 C 0.9428(3) 0.6095(2) 0.1517(2)
H20 H 0.9877 0.5394 0.1113
C26 C 0.8803(3) 0.6043(3) 0.2458(3)
H21 H 0.8829 0.5312 0.2700
C27 C 0.8130(3) 0.7067(3) 0.3053(3)
H22 H 0.7695 0.7027 0.3695
C28 C 0.8097(3) 0.8153(3) 0.2703(2)
H23 H 0.7639 0.8846 0.3107
C29 C 0.6680(3) 0.8061(3) 0.0089(3)
H24 H 0.7225 0.7356 -0.0248
H25 H 0.6365 0.7948 0.0794
C30 C 0.5616(4) 0.8087(4) -0.0700(4)
H26 H 0.5093 0.8801 -0.0373
H27 H 0.5118 0.7318 -0.0838
H28 H 0.5934 0.8158 -0.1410
loop_
_geom_bond_atom_site_label_1
_geom_bond_atom_site_label_2
_geom_bond_site_symmetry_1
_geom_bond_site_symmetry_2
S1 C1 1_555 1_555
S2 C16 1_555 1_555
O1 C3 1_555 1_555
O2 C4 1_555 1_555
O3 C18 1_555 1_555
O4 C19 1_555 1_555
C1 C2 1_555 1_555
C2 H1 1_555 1_555
C3 C2 1_555 1_555
C4 C3 1_555 1_555
C5 C4 1_555 1_555
H2 C5 1_555 1_555
C6 C5 1_555 1_555
H3 C6 1_555 1_555
C7 O2 1_555 1_555
H4 C7 1_555 1_555
C8 C1 1_555 1_555
C9 C8 1_555 1_555
H5 C9 1_555 1_555
C10 C9 1_555 1_555
H6 C10 1_555 1_555
C11 C10 1_555 1_555
H7 C11 1_555 1_555
C12 C11 1_555 1_555
H8 C12 1_555 1_555
C13 C8 1_555 1_555
H9 C13 1_555 1_555
C14 S1 1_555 1_555
H10 C14 1_555 1_555
H11 C14 1_555 1_555
C15 C14 1_555 1_555
H12 C15 1_555 1_555
H13 C15 1_555 1_555
H14 C15 1_555 1_555
C16 C17 1_555 1_555
C17 H15 1_555 1_555
C18 C17 1_555 1_555
C19 C18 1_555 1_555
C20 C19 1_555 1_555
H16 C20 1_555 1_555
C21 C20 1_555 1_555
H17 C21 1_555 1_555
C22 O4 1_555 1_555
H18 C22 1_555 1_555
C23 C16 1_555 1_555
C24 C23 1_555 1_555
H19 C24 1_555 1_555
C25 C24 1_555 1_555
H20 C25 1_555 1_555
C26 C25 1_555 1_555
H21 C26 1_555 1_555
C27 C26 1_555 1_555
H22 C27 1_555 1_555
C28 C23 1_555 1_555
H23 C28 1_555 1_555
C29 S2 1_555 1_555
H24 C29 1_555 1_555
H25 C29 1_555 1_555
C30 C29 1_555 1_555
H26 C30 1_555 1_555
H27 C30 1_555 1_555
H28 C30 1_555 1_555
C6 C7 1_555 1_555
C12 C13 1_555 1_555
C21 C22 1_555 1_555
C27 C28 1_555 1_555

#END
