
#######################################################################
#
#                 Cambridge Crystallographic Data Centre
#                                CCDC 
#
#######################################################################
#
# If this CIF has been generated from an entry in the Cambridge 
# Structural Database, then it will include bibliographic, chemical, 
# crystal, experimental, refinement or atomic coordinate data resulting 
# from the CCDC's data processing and validation procedures.
#
#######################################################################

data_EZAVUW
_chemical_name_common            
1$2!,2$2!,3$2!,4$2!-Tetraphenyl-1(2,4),2,3,4(4,2)-tetrakis((1,3,2)dioxaborolo(4,5-b)pyridina)cyclotetraphane
_chemical_formula_moiety         'C44 H32 B4 N4 O8'
_chemical_name_systematic        
tetrakis(\m~2~-2,3-Dioxypyridine-N,O,O')-tetraphenyl-tetra-boron
_symmetry_cell_setting           tetragonal
_symmetry_space_group_name_H-M   'I 41/a'
_symmetry_Int_Tables_number      88
_space_group_name_Hall           '-I 4ad'
loop_
_symmetry_equiv_pos_site_id
_symmetry_equiv_pos_as_xyz
1 x,y,z
2 3/4-y,1/4+x,1/4+z
3 1/2+x,1/2+y,1/2+z
4 1/4-y,3/4+x,3/4+z
5 1/4+y,1/4-x,1/4+z
6 1/2+x,y,1/2-z
7 1/4-y,1/4+x,1/4-z
8 x,1/2+y,-z
9 -x,-y,-z
10 1/4+y,3/4-x,3/4-z
11 1/2-x,1/2-y,1/2-z
12 3/4+y,1/4-x,1/4-z
13 3/4-y,3/4+x,3/4-z
14 1/2-x,-y,1/2+z
15 3/4+y,3/4-x,3/4+z
16 -x,1/2-y,z
_cell_length_a                   16.7128(8)
_cell_length_b                   16.7128(8)
_cell_length_c                   13.9916(11)
_cell_angle_alpha                90
_cell_angle_beta                 90
_cell_angle_gamma                90
_cell_volume                     3908.1
_exptl_crystal_colour            colorless
_exptl_crystal_description       block
_cell_formula_units_Z            4
_exptl_crystal_recrystallization_method pentane/dichloromethane
loop_
_atom_site_label
_atom_site_type_symbol
_atom_site_fract_x
_atom_site_fract_y
_atom_site_fract_z
O1 O 0.38001(6) -0.23523(6) 0.08966(7)
O2 O 0.34729(6) -0.10489(6) 0.14639(7)
N1 N 0.37030(7) -0.30133(7) 0.23745(8)
C1 C 0.36622(8) -0.23555(8) 0.18279(10)
C2 C 0.34634(8) -0.15913(8) 0.21845(10)
C3 C 0.32879(9) -0.14964(9) 0.31337(11)
H1 H 0.3154 -0.0988 0.3393
C4 C 0.33151(9) -0.21901(9) 0.37080(10)
H2 H 0.3189 -0.2151 0.4368
C5 C 0.35192(9) -0.29155(9) 0.33349(10)
H3 H 0.3536 -0.3368 0.3745
C6 C 0.29263(8) -0.14383(9) -0.01929(10)
C7 C 0.27489(9) -0.20499(9) -0.08481(11)
H4 H 0.3094 -0.2501 -0.0889
C8 C 0.20794(10) -0.20106(10) -0.14382(11)
H5 H 0.1972 -0.2433 -0.1874
C9 C 0.15682(10) -0.13565(10) -0.13920(11)
H6 H 0.1110 -0.1331 -0.1792
C10 C 0.17320(9) -0.07397(10) -0.07567(12)
H7 H 0.1388 -0.0288 -0.0726
C11 C 0.24029(9) -0.07826(9) -0.01629(11)
H8 H 0.2507 -0.0358 0.0271
B1 B 0.36505(10) -0.14949(10) 0.05611(12)
N1K N 0.44867(7) -0.12030(7) 0.01255(8)
C1K C 0.51445(8) -0.11622(8) 0.06721(10)
O1K O 0.51477(6) -0.13001(6) 0.16034(7)
B1K B 0.60051(10) -0.11505(10) 0.19389(12)
O2K O 0.64511(6) -0.09729(6) 0.10361(7)
C2K C 0.59087(8) -0.09634(8) 0.03155(10)
C3K C 0.60036(9) -0.07879(9) -0.06337(11)
H1K H 0.6512 -0.0654 -0.0893
C4K C 0.53099(9) -0.08151(9) -0.12080(10)
H2K H 0.5349 -0.0689 -0.1868
C5K C 0.45845(9) -0.10192(9) -0.08349(10)
H3K H 0.4132 -0.1036 -0.1245
N1O N 0.62970(7) -0.19867(7) 0.23745(8)
C1O C 0.63378(8) -0.26445(8) 0.18279(10)
O1O O 0.61999(6) -0.26477(6) 0.08966(7)
B1O B 0.63495(10) -0.35051(10) 0.05611(12)
O2O O 0.65271(6) -0.39511(6) 0.14639(7)
C2O C 0.65366(8) -0.34087(8) 0.21845(10)
C3O C 0.67121(9) -0.35036(9) 0.31337(11)
H1O H 0.6846 -0.4012 0.3393
C4O C 0.66849(9) -0.28099(9) 0.37080(10)
H2O H 0.6811 -0.2849 0.4368
C5O C 0.64808(9) -0.20845(9) 0.33349(10)
H3O H 0.6464 -0.1632 0.3745
N1F N 0.55133(7) -0.37970(7) 0.01255(8)
C1F C 0.48555(8) -0.38378(8) 0.06721(10)
O1F O 0.48523(6) -0.36999(6) 0.16034(7)
B1F B 0.39949(10) -0.38495(10) 0.19389(12)
O2F O 0.35489(6) -0.40271(6) 0.10361(7)
C2F C 0.40913(8) -0.40366(8) 0.03155(10)
C3F C 0.39964(9) -0.42121(9) -0.06337(11)
H1F H 0.3488 -0.4346 -0.0893
C4F C 0.46901(9) -0.41849(9) -0.12080(10)
H2F H 0.4651 -0.4311 -0.1868
C5F C 0.54155(9) -0.39808(9) -0.08349(10)
H3F H 0.5868 -0.3964 -0.1245
C6F C 0.39383(9) -0.45737(8) 0.26929(10)
C7F C 0.45499(9) -0.47511(9) 0.33481(11)
H4F H 0.5001 -0.4406 0.3389
C8F C 0.45106(10) -0.54206(10) 0.39382(11)
H5F H 0.4933 -0.5528 0.4374
C9F C 0.38565(10) -0.59318(10) 0.38920(11)
H6F H 0.3831 -0.6390 0.4292
C10F C 0.32397(10) -0.57680(9) 0.32567(12)
H7F H 0.2788 -0.6112 0.3226
C11F C 0.32826(9) -0.50971(9) 0.26629(11)
H8F H 0.2858 -0.4993 0.2229
C6O C 0.70737(8) -0.35617(9) -0.01929(10)
C7O C 0.72511(9) -0.29501(9) -0.08481(11)
H4O H 0.6906 -0.2499 -0.0889
C8O C 0.79206(10) -0.29894(10) -0.14382(11)
H5O H 0.8028 -0.2567 -0.1874
C9O C 0.84318(10) -0.36435(10) -0.13920(11)
H6O H 0.8890 -0.3669 -0.1792
C10O C 0.82680(9) -0.42603(10) -0.07567(12)
H7O H 0.8612 -0.4712 -0.0726
C11O C 0.75971(9) -0.42174(9) -0.01629(11)
H8O H 0.7493 -0.4642 0.0271
C6K C 0.60617(9) -0.04263(8) 0.26929(10)
C7K C 0.54501(9) -0.02489(9) 0.33481(11)
H4K H 0.4999 -0.0594 0.3389
C8K C 0.54894(10) 0.04206(10) 0.39382(11)
H5K H 0.5067 0.0528 0.4374
C9K C 0.61435(10) 0.09318(10) 0.38920(11)
H6K H 0.6169 0.1390 0.4292
C10K C 0.67603(10) 0.07680(9) 0.32567(12)
H7K H 0.7212 0.1112 0.3226
C11K C 0.67174(9) 0.00971(9) 0.26629(11)
H8K H 0.7142 -0.0007 0.2229
loop_
_geom_bond_atom_site_label_1
_geom_bond_atom_site_label_2
_geom_bond_site_symmetry_1
_geom_bond_site_symmetry_2
O1 C1 1_555 1_555
O2 C2 1_555 1_555
N1 C1 1_555 1_555
C1 C2 1_555 1_555
C2 C3 1_555 1_555
C3 H1 1_555 1_555
C4 C3 1_555 1_555
H2 C4 1_555 1_555
C5 N1 1_555 1_555
H3 C5 1_555 1_555
C6 C7 1_555 1_555
C7 H4 1_555 1_555
C8 C7 1_555 1_555
H5 C8 1_555 1_555
C9 C8 1_555 1_555
H6 C9 1_555 1_555
C10 C9 1_555 1_555
H7 C10 1_555 1_555
C11 C6 1_555 1_555
H8 C11 1_555 1_555
B1 O1 1_555 1_555
N1K B1 1_555 1_555
C1K N1K 1_555 1_555
O1K C1K 1_555 1_555
B1K O1K 1_555 1_555
O2K B1K 1_555 1_555
C2K C1K 1_555 1_555
C3K C2K 1_555 1_555
H1K C3K 1_555 1_555
C4K C3K 1_555 1_555
H2K C4K 1_555 1_555
C5K N1K 1_555 1_555
H3K C5K 1_555 1_555
N1O B1K 1_555 1_555
C1O N1O 1_555 1_555
O1O C1O 1_555 1_555
B1O O1O 1_555 1_555
O2O B1O 1_555 1_555
C2O C1O 1_555 1_555
C3O C2O 1_555 1_555
H1O C3O 1_555 1_555
C4O C3O 1_555 1_555
H2O C4O 1_555 1_555
C5O N1O 1_555 1_555
H3O C5O 1_555 1_555
N1F B1O 1_555 1_555
C1F N1F 1_555 1_555
O1F C1F 1_555 1_555
B1F N1 1_555 1_555
O2F B1F 1_555 1_555
C2F C1F 1_555 1_555
C3F C2F 1_555 1_555
H1F C3F 1_555 1_555
C4F C3F 1_555 1_555
H2F C4F 1_555 1_555
C5F N1F 1_555 1_555
H3F C5F 1_555 1_555
C6F B1F 1_555 1_555
C7F C6F 1_555 1_555
H4F C7F 1_555 1_555
C8F C7F 1_555 1_555
H5F C8F 1_555 1_555
C9F C8F 1_555 1_555
H6F C9F 1_555 1_555
C10F C9F 1_555 1_555
H7F C10F 1_555 1_555
C11F C6F 1_555 1_555
H8F C11F 1_555 1_555
C6O B1O 1_555 1_555
C7O C6O 1_555 1_555
H4O C7O 1_555 1_555
C8O C7O 1_555 1_555
H5O C8O 1_555 1_555
C9O C8O 1_555 1_555
H6O C9O 1_555 1_555
C10O C9O 1_555 1_555
H7O C10O 1_555 1_555
C11O C6O 1_555 1_555
H8O C11O 1_555 1_555
C6K B1K 1_555 1_555
C7K C6K 1_555 1_555
H4K C7K 1_555 1_555
C8K C7K 1_555 1_555
H5K C8K 1_555 1_555
C9K C8K 1_555 1_555
H6K C9K 1_555 1_555
C10K C9K 1_555 1_555
H7K C10K 1_555 1_555
C11K C6K 1_555 1_555
H8K C11K 1_555 1_555
O2 B1 1_555 1_555
C4 C5 1_555 1_555
C6 B1 1_555 1_555
C10 C11 1_555 1_555
O2K C2K 1_555 1_555
C4K C5K 1_555 1_555
O2O C2O 1_555 1_555
C4O C5O 1_555 1_555
O1F B1F 1_555 1_555
O2F C2F 1_555 1_555
C4F C5F 1_555 1_555
C10F C11F 1_555 1_555
C10O C11O 1_555 1_555
C10K C11K 1_555 1_555

#END
