
#######################################################################
#
#                 Cambridge Crystallographic Data Centre
#                                CCDC 
#
#######################################################################
#
# If this CIF has been generated from an entry in the Cambridge 
# Structural Database, then it will include bibliographic, chemical, 
# crystal, experimental, refinement or atomic coordinate data resulting 
# from the CCDC's data processing and validation procedures.
#
#######################################################################

data_EZAVEH
_chemical_formula_moiety         'C28 H24 O4'
_chemical_name_systematic        
'1,2,3-Trimethoxy-4-phenyl-7,11b-dihydro-6bH-indeno[1,2-a]acenaphthylen-6-ol unknown solvate'
_symmetry_cell_setting           monoclinic
_symmetry_space_group_name_H-M   'P 21/c'
_symmetry_Int_Tables_number      14
_space_group_name_Hall           '-P 2ybc'
loop_
_symmetry_equiv_pos_site_id
_symmetry_equiv_pos_as_xyz
1 x,y,z
2 -x,1/2+y,1/2-z
3 -x,-y,-z
4 x,1/2-y,1/2+z
_cell_length_a                   11.1319(2)
_cell_length_b                   17.6950(2)
_cell_length_c                   13.8306(2)
_cell_angle_alpha                90
_cell_angle_beta                 113.7040(10)
_cell_angle_gamma                90
_cell_volume                     2494.5
_exptl_crystal_colour            gold
_exptl_crystal_description       prism
_cell_formula_units_Z            4
loop_
_atom_site_label
_atom_site_type_symbol
_atom_site_fract_x
_atom_site_fract_y
_atom_site_fract_z
C1 C -0.10163(12) 0.85083(7) 0.71254(10)
C2 C -0.00948(13) 0.79399(7) 0.73013(11)
H1 H -0.0381 0.7465 0.6967
C3 C 0.12492(13) 0.80330(7) 0.79538(11)
C4 C 0.16829(12) 0.87154(7) 0.84330(10)
C5 C 0.30437(12) 0.89769(7) 0.91509(10)
H2 H 0.3358 0.8706 0.9843
C6 C 0.40661(13) 0.89188(8) 0.86582(12)
H3 H 0.4929 0.8757 0.9192
H4 H 0.3777 0.8554 0.8065
C7 C 0.41409(12) 0.97055(8) 0.82738(11)
C8 C 0.47514(15) 0.99402(9) 0.76252(13)
H5 H 0.5178 0.9585 0.7356
C9 C 0.47289(18) 1.06990(10) 0.73766(15)
H6 H 0.5139 1.0865 0.6930
C10 C 0.41121(18) 1.12178(9) 0.77745(15)
H7 H 0.4107 1.1737 0.7600
C11 C 0.35030(15) 1.09890(8) 0.84224(12)
H8 H 0.3086 1.1347 0.8697
C12 C 0.35130(12) 1.02242(7) 0.86641(10)
C13 C 0.28517(12) 0.98420(7) 0.93027(10)
H9 H 0.3253 0.9994 1.0063
C14 C 0.13726(12) 0.99631(7) 0.88140(9)
C15 C 0.06044(12) 1.05813(7) 0.87401(10)
C16 C -0.07576(12) 1.05407(7) 0.80808(10)
C17 C -0.13453(12) 0.98982(7) 0.75180(10)
C18 C -0.05895(12) 0.92310(7) 0.76144(10)
C19 C 0.07622(12) 0.92967(7) 0.82643(9)
C20 C -0.24088(12) 0.83232(7) 0.64348(10)
C21 C -0.27324(15) 0.80903(8) 0.54013(11)
H10 H -0.2075 0.8068 0.5128
C22 C -0.40226(17) 0.78888(9) 0.47628(12)
H11 H -0.4235 0.7728 0.4057
C23 C -0.49863(15) 0.79195(8) 0.51416(14)
H12 H -0.5863 0.7785 0.4700
C24 C -0.46717(14) 0.81478(9) 0.61707(14)
H13 H -0.5334 0.8169 0.6439
C25 C -0.33940(13) 0.83460(8) 0.68114(12)
H14 H -0.3187 0.8500 0.7519
C26 C 0.17723(17) 1.12565(8) 1.03221(11)
H15 H 0.2039 1.1772 1.0577
H16 H 0.2554 1.0941 1.0492
H17 H 0.1226 1.1048 1.0664
C27 C -0.19760(17) 1.12586(9) 0.88003(14)
H18 H -0.2506 1.1719 0.8682
H19 H -0.1224 1.1293 0.9483
H20 H -0.2513 1.0819 0.8800
C28 C -0.29818(16) 1.01879(10) 0.58616(13)
H21 H -0.3936 1.0188 0.5468
H22 H -0.2580 0.9859 0.5505
H23 H -0.2646 1.0703 0.5894
O1 O 0.21387(10) 0.74627(5) 0.81338(9)
H24 H 0.1789 0.7103 0.7720
O2 O 0.10466(10) 1.12689(5) 0.92143(7)
O3 O -0.15180(9) 1.11783(5) 0.79780(7)
O4 O -0.26653(9) 0.99164(5) 0.69064(8)
loop_
_geom_bond_atom_site_label_1
_geom_bond_atom_site_label_2
_geom_bond_site_symmetry_1
_geom_bond_site_symmetry_2
C1 C2 1_555 1_555
C2 H1 1_555 1_555
C3 C2 1_555 1_555
C4 C3 1_555 1_555
C5 C4 1_555 1_555
H2 C5 1_555 1_555
C6 C5 1_555 1_555
H3 C6 1_555 1_555
H4 C6 1_555 1_555
C7 C6 1_555 1_555
C8 C7 1_555 1_555
H5 C8 1_555 1_555
C9 C8 1_555 1_555
H6 C9 1_555 1_555
C10 C9 1_555 1_555
H7 C10 1_555 1_555
C11 C10 1_555 1_555
H8 C11 1_555 1_555
C12 C7 1_555 1_555
C13 C5 1_555 1_555
H9 C13 1_555 1_555
C14 C13 1_555 1_555
C15 C14 1_555 1_555
C16 C15 1_555 1_555
C17 C16 1_555 1_555
C18 C1 1_555 1_555
C19 C4 1_555 1_555
C20 C1 1_555 1_555
C21 C20 1_555 1_555
H10 C21 1_555 1_555
C22 C21 1_555 1_555
H11 C22 1_555 1_555
C23 C22 1_555 1_555
H12 C23 1_555 1_555
C24 C23 1_555 1_555
H13 C24 1_555 1_555
C25 C20 1_555 1_555
H14 C25 1_555 1_555
C26 H15 1_555 1_555
H16 C26 1_555 1_555
H17 C26 1_555 1_555
C27 H18 1_555 1_555
H19 C27 1_555 1_555
H20 C27 1_555 1_555
C28 H21 1_555 1_555
H22 C28 1_555 1_555
H23 C28 1_555 1_555
O1 C3 1_555 1_555
H24 O1 1_555 1_555
O2 C15 1_555 1_555
O3 C16 1_555 1_555
O4 C17 1_555 1_555
C11 C12 1_555 1_555
C12 C13 1_555 1_555
C14 C19 1_555 1_555
C17 C18 1_555 1_555
C18 C19 1_555 1_555
C24 C25 1_555 1_555
C26 O2 1_555 1_555
C27 O3 1_555 1_555
C28 O4 1_555 1_555

#END
