
#######################################################################
#
#                 Cambridge Crystallographic Data Centre
#                                CCDC 
#
#######################################################################
#
# If this CIF has been generated from an entry in the Cambridge 
# Structural Database, then it will include bibliographic, chemical, 
# crystal, experimental, refinement or atomic coordinate data resulting 
# from the CCDC's data processing and validation procedures.
#
#######################################################################

data_EZAVAD
_chemical_formula_moiety         'C28 H20 O1'
_chemical_name_systematic        
2,10-Diphenyl-2,3-dihydrophenanthro[2,1-b]furan
_symmetry_cell_setting           triclinic
_symmetry_space_group_name_H-M   'P -1'
_symmetry_Int_Tables_number      2
_space_group_name_Hall           '-P 1'
loop_
_symmetry_equiv_pos_site_id
_symmetry_equiv_pos_as_xyz
1 x,y,z
2 -x,-y,-z
_cell_length_a                   8.3369(2)
_cell_length_b                   10.0978(3)
_cell_length_c                   12.2085(3)
_cell_angle_alpha                79.8140(10)
_cell_angle_beta                 84.0220(10)
_cell_angle_gamma                74.0140(10)
_cell_volume                     970.777
_exptl_crystal_colour            colorless
_exptl_crystal_description       rod
_cell_formula_units_Z            2
loop_
_atom_site_label
_atom_site_type_symbol
_atom_site_fract_x
_atom_site_fract_y
_atom_site_fract_z
C1 C 0.89543(15) 0.88891(12) -0.04116(10)
C2 C 0.84537(15) 0.83442(12) 0.06671(10)
C3 C 0.69416(17) 0.90800(14) 0.12095(11)
C4 C 0.64050(17) 0.85712(15) 0.22326(11)
C5 C 0.72776(16) 0.72481(14) 0.28043(11)
C6 C 0.66267(18) 0.66958(17) 0.38439(12)
C7 C 0.7399(2) 0.54094(18) 0.43962(13)
C8 C 0.8844(2) 0.46194(17) 0.38987(13)
C9 C 0.94963(18) 0.51251(15) 0.28845(12)
C10 C 0.87862(15) 0.64683(13) 0.23086(10)
C11 C 0.94459(15) 0.70618(12) 0.12298(10)
C12 C 1.10008(15) 0.64266(12) 0.06745(10)
C13 C 1.14127(16) 0.69570(13) -0.04126(10)
C14 C 1.03762(16) 0.81779(13) -0.09420(10)
C15 C 0.94038(17) 1.01151(13) -0.22303(11)
C16 C 0.81753(18) 1.01955(14) -0.11849(11)
C17 C 1.23442(14) 0.52398(12) 0.12015(10)
C18 C 1.32280(18) 0.54035(15) 0.20499(11)
C19 C 1.45267(18) 0.43158(17) 0.24925(12)
C20 C 1.49540(17) 0.30584(16) 0.20946(13)
C21 C 1.41046(19) 0.29035(15) 0.12425(14)
C22 C 1.28123(17) 0.39877(14) 0.07877(12)
C23 C 0.86146(15) 1.01209(13) -0.32867(10)
C24 C 0.80377(18) 0.89989(14) -0.34185(12)
C25 C 0.7307(2) 0.90052(17) -0.43825(13)
C26 C 0.71499(19) 1.01324(17) -0.52314(12)
C27 C 0.77094(18) 1.12552(16) -0.51080(11)
C28 C 0.84432(17) 1.12511(14) -0.41362(11)
H1 H 0.6335(19) 0.9984(16) 0.0820(12)
H2 H 0.538(2) 0.9077(17) 0.2616(13)
H3 H 0.557(2) 0.7275(19) 0.4147(15)
H4 H 0.696(2) 0.5039(17) 0.5124(14)
H5 H 0.939(2) 0.3676(19) 0.4274(14)
H6 H 1.046(2) 0.4505(17) 0.2562(13)
H7 H 1.2478(19) 0.6506(15) -0.0778(11)
H8 H 0.9986(18) 1.0887(15) -0.2347(11)
H9 H 1.293(2) 0.6288(17) 0.2331(13)
H10 H 1.513(2) 0.4450(18) 0.3075(14)
H11 H 1.585(2) 0.2301(17) 0.2415(13)
H12 H 1.440(2) 0.203(2) 0.0930(15)
H13 H 1.222(2) 0.3874(16) 0.0175(13)
H14 H 0.820(2) 0.8177(17) -0.2804(14)
H15 H 0.694(2) 0.8195(19) -0.4473(14)
H16 H 0.662(2) 1.0113(17) -0.5925(15)
H17 H 0.761(2) 1.2052(18) -0.5707(14)
H18 H 0.8877(19) 1.2037(16) -0.4049(12)
H19 H 0.808(2) 1.1065(17) -0.0885(12)
H20 H 0.703(2) 1.0197(15) -0.1370(12)
O1 O 1.07078(11) 0.87970(10) -0.19992(7)
loop_
_geom_bond_atom_site_label_1
_geom_bond_atom_site_label_2
_geom_bond_site_symmetry_1
_geom_bond_site_symmetry_2
C1 C2 1_555 1_555
C2 C3 1_555 1_555
C3 C4 1_555 1_555
C4 C5 1_555 1_555
C5 C6 1_555 1_555
C6 C7 1_555 1_555
C7 C8 1_555 1_555
C8 C9 1_555 1_555
C9 C10 1_555 1_555
C10 C5 1_555 1_555
C11 C2 1_555 1_555
C12 C11 1_555 1_555
C13 C12 1_555 1_555
C14 C1 1_555 1_555
C15 C16 1_555 1_555
C16 C1 1_555 1_555
C17 C12 1_555 1_555
C18 C17 1_555 1_555
C19 C18 1_555 1_555
C20 C19 1_555 1_555
C21 C20 1_555 1_555
C22 C17 1_555 1_555
C23 C15 1_555 1_555
C24 C23 1_555 1_555
C25 C24 1_555 1_555
C26 C25 1_555 1_555
C27 C26 1_555 1_555
C28 C23 1_555 1_555
H1 C3 1_555 1_555
H2 C4 1_555 1_555
H3 C6 1_555 1_555
H4 C7 1_555 1_555
H5 C8 1_555 1_555
H6 C9 1_555 1_555
H7 C13 1_555 1_555
H8 C15 1_555 1_555
H9 C18 1_555 1_555
H10 C19 1_555 1_555
H11 C20 1_555 1_555
H12 C21 1_555 1_555
H13 C22 1_555 1_555
H14 C24 1_555 1_555
H15 C25 1_555 1_555
H16 C26 1_555 1_555
H17 C27 1_555 1_555
H18 C28 1_555 1_555
H19 C16 1_555 1_555
H20 C16 1_555 1_555
O1 C14 1_555 1_555
C10 C11 1_555 1_555
C13 C14 1_555 1_555
C15 O1 1_555 1_555
C21 C22 1_555 1_555
C27 C28 1_555 1_555

#END
