
#######################################################################
#
#                 Cambridge Crystallographic Data Centre
#                                CCDC 
#
#######################################################################
#
# If this CIF has been generated from an entry in the Cambridge 
# Structural Database, then it will include bibliographic, chemical, 
# crystal, experimental, refinement or atomic coordinate data resulting 
# from the CCDC's data processing and validation procedures.
#
#######################################################################

data_EZEDOE
_chemical_formula_moiety         'C17 H15 N1 O2'
_chemical_name_systematic        
(6-methoxy-1H-indol-2-yl)(4-methylphenyl)methanone
_symmetry_cell_setting           triclinic
_symmetry_space_group_name_H-M   'P -1'
_symmetry_Int_Tables_number      2
_space_group_name_Hall           '-P 1'
loop_
_symmetry_equiv_pos_site_id
_symmetry_equiv_pos_as_xyz
1 x,y,z
2 -x,-y,-z
_cell_length_a                   13.451(4)
_cell_length_b                   14.313(4)
_cell_length_c                   15.248(4)
_cell_angle_alpha                86.714(4)
_cell_angle_beta                 63.827(3)
_cell_angle_gamma                90.014(4)
_cell_volume                     2629.21
_exptl_crystal_colour            colorless
_exptl_crystal_description       block
_cell_formula_units_Z            8
loop_
_atom_site_label
_atom_site_type_symbol
_atom_site_fract_x
_atom_site_fract_y
_atom_site_fract_z
O1 O -0.0694(2) 0.82086(19) 0.3858(2)
O2 O 0.0698(2) 0.31075(19) 0.3842(2)
N1 N -0.0024(3) 0.4875(2) 0.3896(2)
H1 H 0.0576 0.4831 0.3989
C1 C -0.0868(4) 0.7278(3) 0.3814(3)
C2 C -0.1817(4) 0.7073(3) 0.3683(3)
H2 H -0.2254 0.7571 0.3623
C3 C -0.2120(4) 0.6179(3) 0.3640(3)
H3 H -0.2770 0.6050 0.3564
C4 C -0.1466(4) 0.5454(3) 0.3709(3)
C5 C -0.0522(4) 0.5687(3) 0.3842(3)
C6 C -0.0201(3) 0.6585(3) 0.3892(3)
H4 H 0.0443 0.6718 0.3975
C7 C 0.0211(4) 0.8463(3) 0.4054(3)
H5 H 0.0908 0.8287 0.3515
H6 H 0.0126 0.8135 0.4666
H7 H 0.0222 0.9140 0.4114
C8 C -0.1507(4) 0.4465(3) 0.3681(3)
H8 H -0.2055 0.4107 0.3606
C9 C -0.0603(4) 0.4123(3) 0.3784(3)
C10 C -0.0196(3) 0.3207(3) 0.3799(3)
C11 C -0.0802(4) 0.2369(3) 0.3752(3)
C12 C -0.1946(4) 0.2282(3) 0.4160(3)
H9 H -0.2385 0.2791 0.4477
C13 C -0.2446(4) 0.1479(3) 0.4113(3)
H10 H -0.3232 0.1443 0.4402
C14 C -0.1865(4) 0.0705(3) 0.3665(3)
C15 C -0.0720(4) 0.0794(3) 0.3254(3)
H11 H -0.0286 0.0285 0.2929
C16 C -0.0188(4) 0.1613(3) 0.3305(3)
H12 H 0.0598 0.1649 0.3033
C17 C -0.2438(4) -0.0164(3) 0.3646(3)
H13 H -0.2540 -0.0586 0.4210
H14 H -0.1993 -0.0469 0.3040
H15 H -0.3163 -0.0016 0.3674
O3 O 0.3504(3) 0.0181(2) 0.3658(2)
O4 O 0.2047(2) 0.52938(19) 0.3842(2)
N2 N 0.2718(3) 0.3492(2) 0.3894(2)
H16 H 0.2014 0.3516 0.4020
C18 C 0.3721(4) 0.1116(3) 0.3646(3)
C19 C 0.4821(4) 0.1356(3) 0.3448(3)
H17 H 0.5341 0.0875 0.3340
C20 C 0.5148(3) 0.2243(3) 0.3410(3)
H18 H 0.5893 0.2388 0.3274
C21 C 0.4394(4) 0.2962(3) 0.3569(3)
C22 C 0.3296(4) 0.2696(3) 0.3776(3)
C23 C 0.2936(4) 0.1783(3) 0.3816(3)
H19 H 0.2193 0.1627 0.3953
C24 C 0.2430(4) -0.0100(3) 0.3817(3)
H20 H 0.2265 0.0196 0.3302
H21 H 0.1888 0.0091 0.4457
H22 H 0.2389 -0.0782 0.3802
C25 C 0.4437(4) 0.3949(3) 0.3580(3)
H23 H 0.5069 0.4326 0.3465
C26 C 0.3392(4) 0.4263(3) 0.3787(3)
C27 C 0.2963(4) 0.5178(3) 0.3837(3)
C28 C 0.3612(3) 0.6001(3) 0.3850(3)
C29 C 0.4274(3) 0.5973(3) 0.4346(3)
H24 H 0.4340 0.5402 0.4663
C30 C 0.4834(3) 0.6770(3) 0.4378(3)
H25 H 0.5269 0.6744 0.4728
C31 C 0.4767(4) 0.7600(3) 0.3911(3)
C32 C 0.4108(4) 0.7630(3) 0.3422(3)
H26 H 0.4056 0.8200 0.3096
C33 C 0.3527(4) 0.6845(3) 0.3403(3)
H27 H 0.3065 0.6884 0.3079
C34 C 0.5368(4) 0.8467(3) 0.3948(3)
H28 H 0.5354 0.8482 0.4595
H29 H 0.5005 0.9020 0.3828
H30 H 0.6138 0.8466 0.3446
O5 O 0.3169(2) -0.32445(18) 0.1219(2)
O6 O 0.4532(2) 0.18895(19) 0.1121(2)
N3 N 0.3836(3) 0.0105(2) 0.1163(2)
H31 H 0.4528 0.0156 0.1070
C35 C 0.2920(4) -0.2316(3) 0.1277(3)
C36 C 0.1843(4) -0.2131(3) 0.1450(3)
H32 H 0.1350 -0.2640 0.1533
C37 C 0.1468(3) -0.1255(3) 0.1506(3)
H33 H 0.0729 -0.1141 0.1613
C38 C 0.2208(4) -0.0510(3) 0.1400(3)
C39 C 0.3286(4) -0.0714(3) 0.1239(3)
C40 C 0.3670(4) -0.1620(3) 0.1175(3)
H34 H 0.4406 -0.1750 0.1068
C41 C 0.4300(4) -0.3473(3) 0.0886(3)
H35 H 0.4735 -0.3180 0.0227
H36 H 0.4369 -0.4154 0.0868
H37 H 0.4577 -0.3242 0.1332
C42 C 0.2128(4) 0.0483(3) 0.1412(3)
H38 H 0.1491 0.0832 0.1511
C43 C 0.3152(4) 0.0839(3) 0.1252(3)
C44 C 0.3577(4) 0.1776(3) 0.1196(3)
C45 C 0.2919(3) 0.2602(3) 0.1244(3)
C46 C 0.2133(4) 0.2637(3) 0.0881(3)
H39 H 0.1986 0.2106 0.0605
C47 C 0.1568(4) 0.3453(3) 0.0929(3)
H40 H 0.1030 0.3475 0.0683
C48 C 0.1760(4) 0.4234(3) 0.1321(3)
C49 C 0.2544(4) 0.4190(3) 0.1676(3)
H41 H 0.2684 0.4722 0.1953
C50 C 0.3111(4) 0.3409(3) 0.1635(3)
H42 H 0.3653 0.3402 0.1875
C51 C 0.1149(4) 0.5106(3) 0.1330(3)
H43 H 0.1199 0.5255 0.0676
H44 H 0.1477 0.5624 0.1517
H45 H 0.0369 0.5012 0.1803
O7 O 0.7125(3) 0.48530(19) 0.1337(2)
O8 O 0.5921(2) -0.02943(18) 0.1073(2)
N4 N 0.6618(3) 0.1530(2) 0.1022(2)
H46 H 0.6059 0.1502 0.0872
C52 C 0.7315(4) 0.3908(3) 0.1342(3)
C53 C 0.8179(4) 0.3684(3) 0.1587(3)
H47 H 0.8556 0.4171 0.1728
C54 C 0.8494(4) 0.2779(3) 0.1628(3)
H48 H 0.9078 0.2629 0.1798
C55 C 0.7921(4) 0.2086(3) 0.1411(3)
C56 C 0.7062(4) 0.2332(3) 0.1166(3)
C57 C 0.6749(4) 0.3250(3) 0.1128(3)
H49 H 0.6166 0.3408 0.0961
C58 C 0.6258(4) 0.5132(3) 0.1091(4)
H50 H 0.6401 0.4906 0.0453
H51 H 0.6228 0.5817 0.1060
H52 H 0.5549 0.4866 0.1590
C59 C 0.7988(4) 0.1083(3) 0.1387(3)
H53 H 0.8497 0.0705 0.1512
C60 C 0.7178(4) 0.0779(3) 0.1149(3)
C61 C 0.6826(3) -0.0151(3) 0.1082(3)
C62 C 0.7512(4) -0.0954(3) 0.1067(3)
C63 C 0.8652(3) -0.0900(3) 0.0615(3)
H54 H 0.9024 -0.0321 0.0310
C64 C 0.9261(4) -0.1683(3) 0.0601(3)
H55 H 1.0047 -0.1638 0.0267
C65 C 0.8751(4) -0.2524(3) 0.1061(3)
C66 C 0.7607(4) -0.2570(3) 0.1499(3)
H56 H 0.7239 -0.3147 0.1813
C67 C 0.6989(4) -0.1820(3) 0.1496(3)
H57 H 0.6204 -0.1884 0.1786
C68 C 0.9413(4) -0.3357(3) 0.1062(3)
H58 H 1.0146 -0.3292 0.0499
H59 H 0.9032 -0.3924 0.1018
H60 H 0.9499 -0.3405 0.1668
loop_
_geom_bond_atom_site_label_1
_geom_bond_atom_site_label_2
_geom_bond_site_symmetry_1
_geom_bond_site_symmetry_2
O1 C1 1_555 1_555
O2 C10 1_555 1_555
N1 H1 1_555 1_555
C1 C2 1_555 1_555
C2 H2 1_555 1_555
C3 C2 1_555 1_555
H3 C3 1_555 1_555
C4 C3 1_555 1_555
C5 N1 1_555 1_555
C6 C1 1_555 1_555
H4 C6 1_555 1_555
C7 O1 1_555 1_555
H5 C7 1_555 1_555
H6 C7 1_555 1_555
H7 C7 1_555 1_555
C8 C4 1_555 1_555
H8 C8 1_555 1_555
C9 N1 1_555 1_555
C10 C9 1_555 1_555
C11 C10 1_555 1_555
C12 C11 1_555 1_555
H9 C12 1_555 1_555
C13 C12 1_555 1_555
H10 C13 1_555 1_555
C14 C13 1_555 1_555
C15 C14 1_555 1_555
H11 C15 1_555 1_555
C16 C11 1_555 1_555
H12 C16 1_555 1_555
C17 C14 1_555 1_555
H13 C17 1_555 1_555
H14 C17 1_555 1_555
H15 C17 1_555 1_555
O3 C18 1_555 1_555
O4 C27 1_555 1_555
N2 H16 1_555 1_555
C18 C19 1_555 1_555
C19 H17 1_555 1_555
C20 C19 1_555 1_555
H18 C20 1_555 1_555
C21 C20 1_555 1_555
C22 N2 1_555 1_555
C23 C18 1_555 1_555
H19 C23 1_555 1_555
C24 O3 1_555 1_555
H20 C24 1_555 1_555
H21 C24 1_555 1_555
H22 C24 1_555 1_555
C25 C21 1_555 1_555
H23 C25 1_555 1_555
C26 N2 1_555 1_555
C27 C26 1_555 1_555
C28 C27 1_555 1_555
C29 C28 1_555 1_555
H24 C29 1_555 1_555
C30 C29 1_555 1_555
H25 C30 1_555 1_555
C31 C30 1_555 1_555
C32 C31 1_555 1_555
H26 C32 1_555 1_555
C33 C28 1_555 1_555
H27 C33 1_555 1_555
C34 C31 1_555 1_555
H28 C34 1_555 1_555
H29 C34 1_555 1_555
H30 C34 1_555 1_555
O5 C35 1_555 1_555
O6 C44 1_555 1_555
N3 H31 1_555 1_555
C35 C36 1_555 1_555
C36 H32 1_555 1_555
C37 C36 1_555 1_555
H33 C37 1_555 1_555
C38 C37 1_555 1_555
C39 N3 1_555 1_555
C40 C35 1_555 1_555
H34 C40 1_555 1_555
C41 O5 1_555 1_555
H35 C41 1_555 1_555
H36 C41 1_555 1_555
H37 C41 1_555 1_555
C42 C38 1_555 1_555
H38 C42 1_555 1_555
C43 N3 1_555 1_555
C44 C43 1_555 1_555
C45 C44 1_555 1_555
C46 C45 1_555 1_555
H39 C46 1_555 1_555
C47 C46 1_555 1_555
H40 C47 1_555 1_555
C48 C47 1_555 1_555
C49 C48 1_555 1_555
H41 C49 1_555 1_555
C50 C45 1_555 1_555
H42 C50 1_555 1_555
C51 C48 1_555 1_555
H43 C51 1_555 1_555
H44 C51 1_555 1_555
H45 C51 1_555 1_555
O7 C52 1_555 1_555
O8 C61 1_555 1_555
N4 H46 1_555 1_555
C52 C53 1_555 1_555
C53 H47 1_555 1_555
C54 C53 1_555 1_555
H48 C54 1_555 1_555
C55 C54 1_555 1_555
C56 N4 1_555 1_555
C57 C52 1_555 1_555
H49 C57 1_555 1_555
C58 O7 1_555 1_555
H50 C58 1_555 1_555
H51 C58 1_555 1_555
H52 C58 1_555 1_555
C59 C55 1_555 1_555
H53 C59 1_555 1_555
C60 N4 1_555 1_555
C61 C60 1_555 1_555
C62 C61 1_555 1_555
C63 C62 1_555 1_555
H54 C63 1_555 1_555
C64 C63 1_555 1_555
H55 C64 1_555 1_555
C65 C64 1_555 1_555
C66 C65 1_555 1_555
H56 C66 1_555 1_555
C67 C62 1_555 1_555
H57 C67 1_555 1_555
C68 C65 1_555 1_555
H58 C68 1_555 1_555
H59 C68 1_555 1_555
H60 C68 1_555 1_555
C4 C5 1_555 1_555
C5 C6 1_555 1_555
C8 C9 1_555 1_555
C15 C16 1_555 1_555
C21 C22 1_555 1_555
C22 C23 1_555 1_555
C25 C26 1_555 1_555
C32 C33 1_555 1_555
C38 C39 1_555 1_555
C39 C40 1_555 1_555
C42 C43 1_555 1_555
C49 C50 1_555 1_555
C55 C56 1_555 1_555
C56 C57 1_555 1_555
C59 C60 1_555 1_555
C66 C67 1_555 1_555

#END
