
#######################################################################
#
#                 Cambridge Crystallographic Data Centre
#                                CCDC 
#
#######################################################################
#
# If this CIF has been generated from an entry in the Cambridge 
# Structural Database, then it will include bibliographic, chemical, 
# crystal, experimental, refinement or atomic coordinate data resulting 
# from the CCDC's data processing and validation procedures.
#
#######################################################################

data_EZEJUP
_chemical_formula_moiety         'C28 H22 Cl1 N3 O2 S1,C2 H6 O1'
_chemical_name_systematic        
'N-(1-(4-Chlorophenyl)-3,4-diphenyl-1H-pyrazol-5-yl)-4-methylbenzenesulfonamide ethanol solvate'
_symmetry_cell_setting           triclinic
_symmetry_space_group_name_H-M   'P -1'
_symmetry_Int_Tables_number      2
_space_group_name_Hall           '-P 1'
loop_
_symmetry_equiv_pos_site_id
_symmetry_equiv_pos_as_xyz
1 x,y,z
2 -x,-y,-z
_cell_length_a                   9.2644(6)
_cell_length_b                   12.8603(8)
_cell_length_c                   13.9998(10)
_cell_angle_alpha                108.549(6)
_cell_angle_beta                 107.513(6)
_cell_angle_gamma                102.843(5)
_cell_volume                     1411.67
_exptl_crystal_colour            yellow
_exptl_crystal_description       block
_cell_formula_units_Z            2
loop_
_atom_site_label
_atom_site_type_symbol
_atom_site_fract_x
_atom_site_fract_y
_atom_site_fract_z
S1 S 0.21461(8) 0.20314(5) 0.36598(5)
Cl1 Cl 0.44069(11) 0.27408(8) 0.90573(6)
N1 N 0.2469(2) -0.03022(16) 0.43921(14)
N2 N 0.1755(2) -0.14783(16) 0.40362(15)
N3 N 0.3147(2) 0.11423(16) 0.36783(15)
H1 H 0.4146 0.1395 0.3781
C1 C 0.1730(3) -0.1028(2) 0.25887(18)
C2 C 0.2956(3) 0.0445(2) 0.55194(18)
O1 O 0.0499(2) 0.13620(15) 0.33443(15)
O2 O 0.2577(3) 0.26331(16) 0.30322(14)
C3 C 0.2468(3) -0.0012(2) 0.35353(18)
C4 C 0.4434(3) 0.1357(2) 0.60896(18)
H2 H 0.5125 0.1487 0.5743
C5 C 0.3842(3) 0.1850(2) 0.76830(19)
C6 C 0.1320(3) -0.1921(2) 0.29445(18)
C7 C 0.1939(3) 0.0238(2) 0.60360(19)
H3 H 0.0949 -0.0376 0.5645
C8 C 0.4457(3) 0.3906(2) 0.5456(2)
H4 H 0.5045 0.3910 0.5022
C9 C 0.2384(3) 0.0935(2) 0.7126(2)
H5 H 0.1711 0.0790 0.7482
C10 C 0.0608(3) -0.3211(2) 0.2318(2)
C11 C 0.4868(3) 0.2071(2) 0.71787(19)
H6 H 0.5847 0.2697 0.7569
C12 C 0.1570(3) -0.1079(2) 0.14834(18)
C13 C 0.2039(3) 0.3076(2) 0.5665(2)
H7 H 0.1008 0.2522 0.5377
C14 C 0.5103(4) 0.4719(2) 0.6526(2)
H8 H 0.6137 0.5269 0.6815
C15 C -0.0601(4) -0.3734(2) 0.1268(2)
H9 H -0.0967 -0.3268 0.0934
C16 C 0.4245(4) 0.4737(2) 0.7181(2)
C17 C 0.0074(4) -0.1370(2) 0.0654(2)
H10 H -0.0857 -0.1549 0.0786
C18 C 0.2713(4) 0.3910(3) 0.6737(2)
H11 H 0.2123 0.3915 0.7170
C19 C 0.2924(4) -0.0793(3) 0.1273(2)
H12 H 0.3942 -0.0577 0.1819
C20 C 0.1124(4) -0.3930(2) 0.2782(3)
H13 H 0.1940 -0.3602 0.3485
C21 C -0.1272(4) -0.4943(3) 0.0708(3)
H14 H -0.2082 -0.5280 0.0001
C22 C -0.0764(4) -0.5640(3) 0.1175(3)
H15 H -0.1228 -0.6451 0.0795
C23 C 0.4974(5) 0.5636(3) 0.8360(3)
H16 H 0.5011 0.5244 0.8842
H17 H 0.4325 0.6116 0.8453
H18 H 0.6050 0.6119 0.8534
C24 C -0.0046(5) -0.1398(3) -0.0360(2)
H19 H -0.1057 -0.1596 -0.0905
C25 C 0.1289(6) -0.1142(3) -0.0568(3)
H20 H 0.1197 -0.1180 -0.1260
C26 C 0.2778(5) -0.0827(3) 0.0241(3)
H21 H 0.3700 -0.0635 0.0102
C27 C 0.0434(4) -0.5145(3) 0.2207(3)
H22 H 0.0793 -0.5622 0.2529
C28 C 0.2924(3) 0.3081(2) 0.50267(19)
O3 O 0.6442(3) 0.2057(2) 0.4169(2)
H23 H 0.7131 0.1953 0.4619
C29 C 0.7108(9) 0.2422(7) 0.3478(7)
H24 H 0.7661 0.1903 0.3228
H25 H 0.6227 0.2330 0.2834
C30 C 0.8117(13) 0.3499(10) 0.3943(9)
H26 H 0.8349 0.3715 0.3394
H27 H 0.9100 0.3562 0.4483
H28 H 0.7643 0.4013 0.4293
C31? C 0.664(3) 0.219(2) 0.262(2)
H29? H 0.7423 0.3268 0.3802
H30? H 0.8113 0.2268 0.3634
H31? H 0.5626 0.2302 0.2398
H32? H 0.6494 0.1382 0.2242
H33? H 0.7392 0.2672 0.2456
loop_
_geom_bond_atom_site_label_1
_geom_bond_atom_site_label_2
_geom_bond_site_symmetry_1
_geom_bond_site_symmetry_2
S1 N3 1_555 1_555
Cl1 C5 1_555 1_555
N1 N2 1_555 1_555
N2 C6 1_555 1_555
N3 H1 1_555 1_555
C1 C3 1_555 1_555
C2 N1 1_555 1_555
O1 S1 1_555 1_555
O2 S1 1_555 1_555
C3 N1 1_555 1_555
C4 C2 1_555 1_555
H2 C4 1_555 1_555
C5 C9 1_555 1_555
C6 C1 1_555 1_555
C7 C2 1_555 1_555
H3 C7 1_555 1_555
C8 H4 1_555 1_555
C9 C7 1_555 1_555
H5 C9 1_555 1_555
C10 C6 1_555 1_555
C11 C4 1_555 1_555
H6 C11 1_555 1_555
C12 C1 1_555 1_555
C13 H7 1_555 1_555
C14 C8 1_555 1_555
H8 C14 1_555 1_555
C15 C10 1_555 1_555
H9 C15 1_555 1_555
C16 C14 1_555 1_555
C17 C12 1_555 1_555
H10 C17 1_555 1_555
C18 C13 1_555 1_555
H11 C18 1_555 1_555
C19 C12 1_555 1_555
H12 C19 1_555 1_555
C20 C10 1_555 1_555
H13 C20 1_555 1_555
C21 C15 1_555 1_555
H14 C21 1_555 1_555
C22 C21 1_555 1_555
H15 C22 1_555 1_555
C23 C16 1_555 1_555
H16 C23 1_555 1_555
H17 C23 1_555 1_555
H18 C23 1_555 1_555
C24 C17 1_555 1_555
H19 C24 1_555 1_555
C25 C24 1_555 1_555
H20 C25 1_555 1_555
C26 C19 1_555 1_555
H21 C26 1_555 1_555
C27 C20 1_555 1_555
H22 C27 1_555 1_555
O3 H23 1_555 1_555
C28 S1 1_555 1_555
C29 O3 1_555 1_555
H24 C29 1_555 1_555
H25 C29 1_555 1_555
C30 C29 1_555 1_555
H26 C30 1_555 1_555
H27 C30 1_555 1_555
H28 C30 1_555 1_555
N3 C3 1_555 1_555
C5 C11 1_555 1_555
C8 C28 1_555 1_555
C13 C28 1_555 1_555
C16 C18 1_555 1_555
C22 C27 1_555 1_555
C25 C26 1_555 1_555

#END
