
#######################################################################
#
#                 Cambridge Crystallographic Data Centre
#                                CCDC 
#
#######################################################################
#
# If this CIF has been generated from an entry in the Cambridge 
# Structural Database, then it will include bibliographic, chemical, 
# crystal, experimental, refinement or atomic coordinate data resulting 
# from the CCDC's data processing and validation procedures.
#
#######################################################################

data_EZEJID
_chemical_formula_moiety         'C33 H33 N9 O2'
_chemical_name_systematic        
N,N'-bis(2-(bis(2-pyridylmethyl)amino)-1-oxoethyl)pyridine-2,6-diamine
_symmetry_cell_setting           triclinic
_symmetry_space_group_name_H-M   'P -1'
_symmetry_Int_Tables_number      2
_space_group_name_Hall           '-P 1'
loop_
_symmetry_equiv_pos_site_id
_symmetry_equiv_pos_as_xyz
1 x,y,z
2 -x,-y,-z
_cell_length_a                   9.1396(14)
_cell_length_b                   12.868(2)
_cell_length_c                   14.649(2)
_cell_angle_alpha                68.976(3)
_cell_angle_beta                 75.392(3)
_cell_angle_gamma                69.902(3)
_cell_volume                     1493.81
_exptl_crystal_colour            colorless
_exptl_crystal_description       rod
_cell_formula_units_Z            2
loop_
_atom_site_label
_atom_site_type_symbol
_atom_site_fract_x
_atom_site_fract_y
_atom_site_fract_z
N1 N 0.34464(18) 1.38875(14) 0.38137(12)
N2 N 0.95417(19) 1.11092(15) 0.23031(12)
N3 N 0.56829(15) 1.26900(11) 0.18439(10)
N4 N 0.40149(17) 1.20768(13) 0.09680(11)
H1 H 0.4621(16) 1.1741(14) 0.1416(9)
N5 N 0.38851(15) 1.02747(12) 0.11814(10)
N6 N 0.39773(16) 0.83841(13) 0.15282(11)
H2 H 0.4602(17) 0.8294(15) 0.1919(10)
N7 N 0.50905(15) 0.64947(11) 0.30026(10)
N8 N 0.85793(17) 0.64170(12) 0.27050(11)
N9 N 0.22823(16) 0.78047(13) 0.48550(10)
O1 O 0.31412(13) 1.39249(10) -0.00513(9)
O2 O 0.30298(14) 0.73575(10) 0.09418(9)
C1 C 0.2018(2) 1.40046(19) 0.43670(16)
H3 H 0.1662 1.4578 0.4701
C2 C 0.1042(2) 1.33464(19) 0.44805(16)
H4 H 0.0032 1.3468 0.4872
C3 C 0.1566(3) 1.2522(2) 0.40171(17)
H5 H 0.0925 1.2048 0.4079
C4 C 0.3044(2) 1.23691(18) 0.34512(15)
H6 H 0.3434 1.1782 0.3131
C5 C 0.3935(2) 1.30774(15) 0.33591(13)
C6 C 0.55594(19) 1.29618(15) 0.27497(13)
H7 H 0.5832 1.3698 0.2576
H8 H 0.6338 1.2343 0.3157
C7 C 1.0334(2) 1.00345(19) 0.28469(14)
H9 H 1.1275 0.9952 0.3064
C8 C 0.9820(2) 0.90878(18) 0.30846(14)
H10 H 1.0368 0.8359 0.3483
C9 C 0.8494(2) 0.92010(18) 0.27387(15)
H11 H 0.8134 0.8541 0.2884
C10 C 0.76875(19) 1.02588(15) 0.21854(13)
H12 H 0.6765 1.0339 0.1949
C11 C 0.82186(19) 1.11790(15) 0.19827(12)
C12 C 0.73341(19) 1.23478(14) 0.13841(13)
H13 H 0.7855 1.2934 0.1323
H14 H 0.7365 1.2325 0.0711
C13 C 0.4713(2) 1.36318(14) 0.11424(13)
H15 H 0.5390 1.4093 0.0645
H16 H 0.3909 1.4149 0.1502
C14 C 0.38922(19) 1.32310(15) 0.06121(13)
C15 C 0.33854(19) 1.14037(16) 0.06956(13)
C16 C 0.2342(2) 1.18501(16) 0.00155(13)
H17 H 0.2004 1.2658 -0.0313
C17 C 0.1818(2) 1.10613(17) -0.01601(14)
H18 H 0.1100 1.1333 -0.0620
C18 C 0.2313(2) 0.98891(16) 0.03161(13)
H19 H 0.1956 0.9345 0.0196
C19 C 0.33606(19) 0.95451(15) 0.09796(12)
C20 C 0.38107(19) 0.73964(15) 0.14895(13)
C21 C 0.47230(19) 0.62976(14) 0.21712(12)
H20 H 0.4100 0.5730 0.2432
H21 H 0.5718 0.5957 0.1787
C22 C 0.64219(18) 0.55742(15) 0.34577(13)
H22 H 0.6229 0.4811 0.3626
H23 H 0.6487 0.5687 0.4079
C23 C 0.79644(19) 0.55765(15) 0.27803(13)
C24 C 0.8676(2) 0.47846(18) 0.22652(16)
H24 H 0.8228 0.4182 0.2357
C25 C 1.0053(2) 0.48639(19) 0.16094(16)
H25 H 1.0540 0.4337 0.1231
C26 C 1.0689(2) 0.57175(18) 0.15209(15)
H26 H 1.1633 0.5799 0.1081
C27 C 0.9932(2) 0.64543(17) 0.20832(15)
H27 H 1.0398 0.7034 0.2029
C28 C 0.37005(18) 0.66778(14) 0.37557(12)
H28 H 0.3728 0.5937 0.4289
H29 H 0.2741 0.6903 0.3452
C29 C 0.35920(19) 0.75894(14) 0.42000(12)
C30 C 0.4687(2) 0.82008(16) 0.39326(13)
H30 H 0.5611 0.8019 0.3479
C31 C 0.4422(2) 0.90816(18) 0.43327(15)
H31 H 0.5163 0.9514 0.4156
C32 C 0.3076(2) 0.93295(18) 0.49899(15)
H32 H 0.2855 0.9938 0.5270
C33 C 0.2069(2) 0.86624(18) 0.52238(14)
H33 H 0.1146 0.8824 0.5685
loop_
_geom_bond_atom_site_label_1
_geom_bond_atom_site_label_2
_geom_bond_site_symmetry_1
_geom_bond_site_symmetry_2
N1 C1 1_555 1_555
N2 C7 1_555 1_555
N3 C6 1_555 1_555
N4 H1 1_555 1_555
N5 C15 1_555 1_555
N6 H2 1_555 1_555
N7 C21 1_555 1_555
N8 C23 1_555 1_555
N9 C29 1_555 1_555
O1 C14 1_555 1_555
O2 C20 1_555 1_555
C1 H3 1_555 1_555
C2 C1 1_555 1_555
H4 C2 1_555 1_555
C3 C2 1_555 1_555
H5 C3 1_555 1_555
C4 C3 1_555 1_555
H6 C4 1_555 1_555
C5 N1 1_555 1_555
C6 C5 1_555 1_555
H7 C6 1_555 1_555
H8 C6 1_555 1_555
C7 H9 1_555 1_555
C8 C7 1_555 1_555
H10 C8 1_555 1_555
C9 C8 1_555 1_555
H11 C9 1_555 1_555
C10 C9 1_555 1_555
H12 C10 1_555 1_555
C11 N2 1_555 1_555
C12 N3 1_555 1_555
H13 C12 1_555 1_555
H14 C12 1_555 1_555
C13 N3 1_555 1_555
H15 C13 1_555 1_555
H16 C13 1_555 1_555
C14 N4 1_555 1_555
C15 N4 1_555 1_555
C16 C15 1_555 1_555
H17 C16 1_555 1_555
C17 C16 1_555 1_555
H18 C17 1_555 1_555
C18 C17 1_555 1_555
H19 C18 1_555 1_555
C19 N5 1_555 1_555
C20 N6 1_555 1_555
C21 C20 1_555 1_555
H20 C21 1_555 1_555
H21 C21 1_555 1_555
C22 N7 1_555 1_555
H22 C22 1_555 1_555
H23 C22 1_555 1_555
C23 C22 1_555 1_555
C24 C23 1_555 1_555
H24 C24 1_555 1_555
C25 C24 1_555 1_555
H25 C25 1_555 1_555
C26 C25 1_555 1_555
H26 C26 1_555 1_555
C27 N8 1_555 1_555
H27 C27 1_555 1_555
C28 N7 1_555 1_555
H28 C28 1_555 1_555
H29 C28 1_555 1_555
C29 C28 1_555 1_555
C30 C29 1_555 1_555
H30 C30 1_555 1_555
C31 C30 1_555 1_555
H31 C31 1_555 1_555
C32 C31 1_555 1_555
H32 C32 1_555 1_555
C33 N9 1_555 1_555
H33 C33 1_555 1_555
N6 C19 1_555 1_555
C4 C5 1_555 1_555
C10 C11 1_555 1_555
C11 C12 1_555 1_555
C13 C14 1_555 1_555
C18 C19 1_555 1_555
C26 C27 1_555 1_555
C32 C33 1_555 1_555

#END
