
#######################################################################
#
#                 Cambridge Crystallographic Data Centre
#                                CCDC 
#
#######################################################################
#
# If this CIF has been generated from an entry in the Cambridge 
# Structural Database, then it will include bibliographic, chemical, 
# crystal, experimental, refinement or atomic coordinate data resulting 
# from the CCDC's data processing and validation procedures.
#
#######################################################################

data_EZERUW
_chemical_formula_moiety         'C30 H28 N4 2+,2(Cl1 1-),H2 O1'
_chemical_name_systematic        
"1,1'-bis(1-Naphthalenemethyl)-3,3'-ethylenediimidazolium dichloride monohydrate"
_symmetry_cell_setting           triclinic
_symmetry_space_group_name_H-M   'P -1'
_symmetry_Int_Tables_number      2
_space_group_name_Hall           '-P 1'
loop_
_symmetry_equiv_pos_site_id
_symmetry_equiv_pos_as_xyz
1 x,y,z
2 -x,-y,-z
_cell_length_a                   7.976(3)
_cell_length_b                   8.668(3)
_cell_length_c                   19.359(7)
_cell_angle_alpha                92.081(10)
_cell_angle_beta                 90.37(2)
_cell_angle_gamma                99.961(19)
_cell_volume                     1317.25
_exptl_crystal_colour            colorless
_exptl_crystal_description       parallelepiped
_chemical_melting_point          '521 K(dec.)'
_cell_formula_units_Z            2
_exptl_crystal_recrystallization_method 'diethyl ether/dimethylformamide'
loop_
_atom_site_label
_atom_site_type_symbol
_atom_site_fract_x
_atom_site_fract_y
_atom_site_fract_z
Cl1 Cl 0.30597(8) 0.88145(7) 0.42849(3)
Cl2 Cl 0.07288(8) 0.62543(7) 0.68766(3)
N1 N 0.2287(2) 0.2020(2) 0.57528(8)
N2 N 0.0686(2) 0.1548(2) 0.66402(8)
N3 N 0.3022(2) 0.3406(2) 0.39655(8)
N4 N 0.4217(2) 0.5099(2) 0.32520(9)
C1 C 0.1292(3) 0.2635(3) 0.61982(10)
H1 H 0.1058 0.3673 0.6199
C2 C 0.1277(3) 0.0181(3) 0.64653(10)
H2 H 0.1023 -0.0784 0.6691
C3 C 0.2285(3) 0.0482(3) 0.59110(10)
H3 H 0.2880 -0.0233 0.5675
C4 C 0.3206(3) 0.2811(3) 0.51768(10)
H4 H 0.4196 0.2308 0.5060
H5 H 0.3633 0.3922 0.5313
C5 C -0.0575(3) 0.1727(3) 0.71817(10)
H6 H -0.1706 0.1149 0.7030
H7 H -0.0662 0.2849 0.7244
C6 C -0.0097(3) 0.1122(3) 0.78627(10)
C7 C -0.0696(3) -0.0408(3) 0.80125(12)
H8 H -0.1400 -0.1064 0.7684
C8 C -0.0293(4) -0.1024(3) 0.86380(14)
H9 H -0.0703 -0.2094 0.8726
C9 C 0.0683(4) -0.0096(3) 0.91210(12)
H10 H 0.0938 -0.0521 0.9547
C10 C 0.1324(3) 0.1493(3) 0.89989(11)
C11 C 0.2308(3) 0.2497(3) 0.94989(12)
H11 H 0.2548 0.2093 0.9931
C12 C 0.2918(3) 0.4021(3) 0.93759(13)
H12 H 0.3575 0.4674 0.9719
C13 C 0.2572(3) 0.4626(3) 0.87384(13)
H13 H 0.3012 0.5691 0.8652
C14 C 0.1613(3) 0.3713(3) 0.82387(11)
H14 H 0.1388 0.4149 0.7812
C15 C 0.0955(3) 0.2121(3) 0.83563(10)
C16 C 0.3139(3) 0.4875(3) 0.37734(10)
H15 H 0.2550 0.5639 0.3975
C17 C 0.4056(3) 0.2649(3) 0.35491(11)
H16 H 0.4214 0.1591 0.3573
C18 C 0.4792(3) 0.3711(3) 0.31046(11)
H17 H 0.5569 0.3538 0.2752
C19 C 0.2032(3) 0.2722(3) 0.45496(10)
H18 H 0.1531 0.1616 0.4434
H19 H 0.1093 0.3305 0.4651
C20 C 0.4727(3) 0.6588(3) 0.29106(10)
H20 H 0.5982 0.6788 0.2869
H21 H 0.4413 0.7441 0.3210
C21 C 0.3946(3) 0.6662(3) 0.22002(10)
C22 C 0.2877(3) 0.5422(3) 0.18892(11)
H22 H 0.2570 0.4478 0.2127
C23 C 0.2225(3) 0.5540(3) 0.12154(11)
H23 H 0.1498 0.4668 0.1002
C24 C 0.2629(3) 0.6888(3) 0.08716(11)
H24 H 0.2188 0.6947 0.0418
C25 C 0.3696(3) 0.8203(3) 0.11792(11)
C26 C 0.4119(3) 0.9628(3) 0.08361(12)
H25 H 0.3667 0.9706 0.0386
C27 C 0.5159(4) 1.0891(3) 0.11358(13)
H26 H 0.5424 1.1836 0.0895
C28 C 0.5838(3) 1.0798(3) 0.18004(12)
H27 H 0.6568 1.1678 0.2007
C29 C 0.5451(3) 0.9441(3) 0.21522(11)
H28 H 0.5911 0.9396 0.2604
C30 C 0.4376(3) 0.8101(3) 0.18539(10)
O1 O 0.2313(4) 0.6173(3) 0.53777(13)
H29 H 0.203(4) 0.640(4) 0.5757(18)
H30 H 0.242(5) 0.692(5) 0.5152(19)
loop_
_geom_bond_atom_site_label_1
_geom_bond_atom_site_label_2
_geom_bond_site_symmetry_1
_geom_bond_site_symmetry_2
N1 C1 1_555 1_555
N2 C1 1_555 1_555
N3 C16 1_555 1_555
N4 C16 1_555 1_555
O1 H29 1_555 1_555
C1 H1 1_555 1_555
C2 N2 1_555 1_555
H2 C2 1_555 1_555
C3 N1 1_555 1_555
H3 C3 1_555 1_555
C4 N1 1_555 1_555
H4 C4 1_555 1_555
H5 C4 1_555 1_555
C5 N2 1_555 1_555
H6 C5 1_555 1_555
H7 C5 1_555 1_555
C6 C5 1_555 1_555
C7 C6 1_555 1_555
H8 C7 1_555 1_555
C8 C7 1_555 1_555
H9 C8 1_555 1_555
C9 C8 1_555 1_555
H10 C9 1_555 1_555
C10 C9 1_555 1_555
C11 C10 1_555 1_555
H11 C11 1_555 1_555
C12 C11 1_555 1_555
H12 C12 1_555 1_555
C13 C12 1_555 1_555
H13 C13 1_555 1_555
C14 C13 1_555 1_555
H14 C14 1_555 1_555
C15 C6 1_555 1_555
C16 H15 1_555 1_555
C17 N3 1_555 1_555
H16 C17 1_555 1_555
C18 N4 1_555 1_555
H17 C18 1_555 1_555
C19 N3 1_555 1_555
H18 C19 1_555 1_555
H19 C19 1_555 1_555
C20 N4 1_555 1_555
H20 C20 1_555 1_555
H21 C20 1_555 1_555
C21 C20 1_555 1_555
C22 C21 1_555 1_555
H22 C22 1_555 1_555
C23 C22 1_555 1_555
H23 C23 1_555 1_555
C24 C23 1_555 1_555
H24 C24 1_555 1_555
C25 C24 1_555 1_555
C26 C25 1_555 1_555
H25 C26 1_555 1_555
C27 C26 1_555 1_555
H26 C27 1_555 1_555
C28 C27 1_555 1_555
H27 C28 1_555 1_555
C29 C28 1_555 1_555
H28 C29 1_555 1_555
C30 C21 1_555 1_555
H30 O1 1_555 1_555
C2 C3 1_555 1_555
C4 C19 1_555 1_555
C10 C15 1_555 1_555
C14 C15 1_555 1_555
C17 C18 1_555 1_555
C25 C30 1_555 1_555
C29 C30 1_555 1_555

#END
