
#######################################################################
#
#                 Cambridge Crystallographic Data Centre
#                                CCDC 
#
#######################################################################
#
# If this CIF has been generated from an entry in the Cambridge 
# Structural Database, then it will include bibliographic, chemical, 
# crystal, experimental, refinement or atomic coordinate data resulting 
# from the CCDC's data processing and validation procedures.
#
#######################################################################

data_EZESAD
_chemical_formula_moiety         'C22 H24 N4 2+,2(Cl1 1-)'
_chemical_name_systematic        
"1,1'-Dibenzyl-3,3'-ethylenediimidazolium dichloride"
_symmetry_cell_setting           monoclinic
_symmetry_space_group_name_H-M   'P 21/c'
_symmetry_Int_Tables_number      14
_space_group_name_Hall           '-P 2ybc'
loop_
_symmetry_equiv_pos_site_id
_symmetry_equiv_pos_as_xyz
1 x,y,z
2 x,1/2-y,1/2+z
3 -x,-y,-z
4 -x,1/2+y,1/2-z
_cell_length_a                   5.941(3)
_cell_length_b                   12.728(6)
_cell_length_c                   13.843(4)
_cell_angle_alpha                90
_cell_angle_beta                 98.05(2)
_cell_angle_gamma                90
_cell_volume                     1036.45
_exptl_crystal_colour            colorless
_exptl_crystal_description       block
_chemical_melting_point          '533 K'
_cell_formula_units_Z            2
_exptl_crystal_recrystallization_method 'diethyl ether/dimethylformamide'
loop_
_atom_site_label
_atom_site_type_symbol
_atom_site_fract_x
_atom_site_fract_y
_atom_site_fract_z
Cl1 Cl 0.47200(5) 0.66934(2) 0.09104(2)
N1 N -0.10166(16) 0.61926(7) -0.07027(6)
N2 N -0.06523(17) 0.73423(7) -0.18141(7)
C1 C -0.04947(19) 0.55141(8) 0.01537(7)
H1 H -0.1896 0.5375 0.0444
H2 H 0.0612 0.5867 0.0650
C2 C 0.0382(2) 0.92206(9) -0.18676(8)
C3 C 0.2381(2) 0.95572(10) -0.13145(9)
H3 H 0.3709 0.9134 -0.1269
C4 C -0.2779(2) 0.68992(10) -0.20461(9)
H4 H -0.3877 0.7072 -0.2590
C5 C 0.0283(2) 0.81792(9) -0.23874(9)
H5 H -0.0680 0.8247 -0.3028
H6 H 0.1831 0.7979 -0.2505
C6 C -0.3006(2) 0.61709(10) -0.13507(9)
H7 H -0.4285 0.5731 -0.1316
C7 C 0.03893(19) 0.69012(9) -0.09981(8)
H8 H 0.1873 0.7064 -0.0683
C8 C -0.1489(3) 1.07932(11) -0.14330(12)
H9 H -0.2817 1.1216 -0.1468
C9 C 0.0507(3) 1.11228(11) -0.08863(10)
H10 H 0.0549 1.1774 -0.0549
C10 C -0.1558(2) 0.98454(10) -0.19309(10)
H11 H -0.2927 0.9623 -0.2315
C11 C 0.2442(3) 1.05127(11) -0.08267(10)
H12 H 0.3814 1.0746 -0.0453
C1B C 0.04947(19) 0.44859(8) -0.01537(7)
N1B N 0.10166(16) 0.38074(7) 0.07027(6)
C6B C 0.3006(2) 0.38291(10) 0.13507(9)
C4B C 0.2779(2) 0.31008(10) 0.20461(9)
N2B N 0.06523(17) 0.26577(7) 0.18141(7)
C5B C -0.0283(2) 0.18208(9) 0.23874(9)
C2B C -0.0382(2) 0.07794(9) 0.18676(8)
C3B C -0.2381(2) 0.04428(10) 0.13145(9)
H3B H -0.3709 0.0866 0.1269
C11B C -0.2442(3) -0.05127(11) 0.08267(10)
C9B C -0.0507(3) -0.11228(11) 0.08863(10)
C8B C 0.1489(3) -0.07932(11) 0.14330(12)
H9B H 0.2817 -0.1216 0.1468
C10B C 0.1558(2) 0.01546(10) 0.19309(10)
H11B H 0.2927 0.0377 0.2315
H10B H -0.0549 -0.1774 0.0549
H12B H -0.3814 -0.0746 0.0453
H5B H 0.0680 0.1753 0.3028
H6B H -0.1831 0.2021 0.2505
C7B C -0.03893(19) 0.30988(9) 0.09981(8)
H8B H -0.1873 0.2936 0.0683
H4B H 0.3877 0.2928 0.2590
H7B H 0.4285 0.4269 0.1316
H1B H 0.1896 0.4625 -0.0444
H2B H -0.0612 0.4133 -0.0650
loop_
_geom_bond_atom_site_label_1
_geom_bond_atom_site_label_2
_geom_bond_site_symmetry_1
_geom_bond_site_symmetry_2
N1 C1 1_555 1_555
N2 C4 1_555 1_555
C1 H1 1_555 1_555
H2 C1 1_555 1_555
C2 C3 1_555 1_555
C3 H3 1_555 1_555
C4 H4 1_555 1_555
C5 N2 1_555 1_555
H5 C5 1_555 1_555
H6 C5 1_555 1_555
C6 N1 1_555 1_555
H7 C6 1_555 1_555
C7 N1 1_555 1_555
H8 C7 1_555 1_555
C8 H9 1_555 1_555
C9 C8 1_555 1_555
H10 C9 1_555 1_555
C10 C2 1_555 1_555
H11 C10 1_555 1_555
C11 C3 1_555 1_555
H12 C11 1_555 1_555
C1B C1 1_555 1_555
N1B C1B 1_555 1_555
C6B N1B 1_555 1_555
C4B C6B 1_555 1_555
N2B C4B 1_555 1_555
C5B N2B 1_555 1_555
C2B C5B 1_555 1_555
C3B C2B 1_555 1_555
H3B C3B 1_555 1_555
C11B C3B 1_555 1_555
C9B C11B 1_555 1_555
C8B C9B 1_555 1_555
H9B C8B 1_555 1_555
C10B C2B 1_555 1_555
H11B C10B 1_555 1_555
H10B C9B 1_555 1_555
H12B C11B 1_555 1_555
H5B C5B 1_555 1_555
H6B C5B 1_555 1_555
C7B N1B 1_555 1_555
H8B C7B 1_555 1_555
H4B C4B 1_555 1_555
H7B C6B 1_555 1_555
H1B C1B 1_555 1_555
H2B C1B 1_555 1_555
N2 C7 1_555 1_555
C2 C5 1_555 1_555
C4 C6 1_555 1_555
C8 C10 1_555 1_555
C9 C11 1_555 1_555
N2B C7B 1_555 1_555
C8B C10B 1_555 1_555

#END
