
#######################################################################
#
#                 Cambridge Crystallographic Data Centre
#                                CCDC 
#
#######################################################################
#
# If this CIF has been generated from an entry in the Cambridge 
# Structural Database, then it will include bibliographic, chemical, 
# crystal, experimental, refinement or atomic coordinate data resulting 
# from the CCDC's data processing and validation procedures.
#
#######################################################################

data_EZESEH
_chemical_formula_moiety         'C23 H26 N4 O2 2+,2(Br1 1-)'
_chemical_name_systematic        
"1,1'-bis(4-Methoxybenzyl)-3,3'-methylenediimidazolium dibromide"
_symmetry_cell_setting           monoclinic
_symmetry_space_group_name_H-M   'C 2/c'
_symmetry_Int_Tables_number      15
_space_group_name_Hall           '-C 2yn'
loop_
_symmetry_equiv_pos_site_id
_symmetry_equiv_pos_as_xyz
1 x,y,z
2 1/2+x,1/2+y,z
3 x,-y,1/2+z
4 1/2+x,1/2-y,1/2+z
5 -x,-y,-z
6 1/2-x,1/2-y,-z
7 -x,y,1/2-z
8 1/2-x,1/2+y,1/2-z
_cell_length_a                   37.952(11)
_cell_length_b                   5.2200(14)
_cell_length_c                   12.383(3)
_cell_angle_alpha                90
_cell_angle_beta                 99.929(5)
_cell_angle_gamma                90
_cell_volume                     2416.45
_exptl_crystal_colour            colorless
_exptl_crystal_description       needle
_chemical_melting_point          '522 K'
_cell_formula_units_Z            4
_exptl_crystal_recrystallization_method 'diethyl ether/dimethylformamide'
loop_
_atom_site_label
_atom_site_type_symbol
_atom_site_fract_x
_atom_site_fract_y
_atom_site_fract_z
Br1 Br 0.07388(2) 0.14454(14) -0.07133(7)
O1 O 0.21261(19) -0.0798(14) 0.4031(7)
N1 N 0.07334(16) 0.5354(11) 0.1707(5)
N2 N 0.02471(15) 0.3663(11) 0.2034(5)
C1 C 0.2317(3) -0.257(2) 0.3450(12)
H1 H 0.2479 -0.3556 0.3966
H2 H 0.2448 -0.1633 0.2982
H3 H 0.2149 -0.3692 0.3014
C2 C 0.1880(3) 0.0782(19) 0.3396(9)
C3 C 0.1703(3) 0.239(2) 0.3977(8)
H4 H 0.1749 0.2332 0.4739
C4 C 0.1456(2) 0.4131(19) 0.3446(7)
H5 H 0.1344 0.5283 0.3850
C5 C 0.13756(19) 0.4149(14) 0.2314(7)
C6 C 0.1552(2) 0.2414(17) 0.1762(8)
H6 H 0.1497 0.2375 0.1000
C7 C 0.1807(2) 0.0733(17) 0.2279(9)
H7 H 0.1924 -0.0396 0.1881
C8 C 0.1113(2) 0.6038(17) 0.1735(8)
H8 H 0.1158 0.7690 0.2092
H9 H 0.1155 0.6223 0.0988
C9 C 0.06031(19) 0.3558(14) 0.2271(6)
H10 H 0.0736 0.2413 0.2753
C10 C 0.0154(2) 0.5637(15) 0.1310(6)
H11 H -0.0078 0.6142 0.1016
C11 C 0.0456(2) 0.6709(15) 0.1102(6)
H12 H 0.0474 0.8092 0.0642
C12 C 0.0000 0.2059(19) 0.2500
H13 H -0.0131 0.0970 0.1935
H14 H 0.0131 0.0970 0.3065
N2F N -0.02471(15) 0.3663(11) 0.2966(5)
C9F C -0.06031(19) 0.3558(14) 0.2729(6)
N1F N -0.07334(16) 0.5354(11) 0.3293(5)
C8F C -0.1113(2) 0.6038(17) 0.3265(8)
C5F C -0.13756(19) 0.4149(14) 0.2686(7)
C4F C -0.1456(2) 0.4131(19) 0.1554(7)
C3F C -0.1703(3) 0.239(2) 0.1023(8)
C2F C -0.1880(3) 0.0782(19) 0.1604(9)
O1F O -0.21261(19) -0.0798(14) 0.0969(7)
C1F C -0.2317(3) -0.257(2) 0.1550(12)
H1F H -0.2479 -0.3556 0.1034
H2F H -0.2448 -0.1633 0.2018
H3F H -0.2149 -0.3692 0.1986
C7F C -0.1807(2) 0.0733(17) 0.2721(9)
C6F C -0.1552(2) 0.2414(17) 0.3238(8)
H6F H -0.1497 0.2375 0.4000
H7F H -0.1924 -0.0396 0.3119
H4F H -0.1749 0.2332 0.0261
H5F H -0.1344 0.5283 0.1150
H8F H -0.1158 0.7690 0.2908
H9F H -0.1155 0.6223 0.4012
C11F C -0.0456(2) 0.6709(15) 0.3898(6)
C10F C -0.0154(2) 0.5637(15) 0.3690(6)
H11F H 0.0078 0.6142 0.3984
H12F H -0.0474 0.8092 0.4358
H10F H -0.0736 0.2413 0.2247
loop_
_geom_bond_atom_site_label_1
_geom_bond_atom_site_label_2
_geom_bond_site_symmetry_1
_geom_bond_site_symmetry_2
O1 C1 1_555 1_555
N1 C8 1_555 1_555
N2 C9 1_555 1_555
C1 H1 1_555 1_555
H2 C1 1_555 1_555
H3 C1 1_555 1_555
C2 O1 1_555 1_555
C3 C2 1_555 1_555
H4 C3 1_555 1_555
C4 C3 1_555 1_555
H5 C4 1_555 1_555
C5 C4 1_555 1_555
C6 C5 1_555 1_555
H6 C6 1_555 1_555
C7 C2 1_555 1_555
H7 C7 1_555 1_555
C8 C5 1_555 1_555
H8 C8 1_555 1_555
H9 C8 1_555 1_555
C9 N1 1_555 1_555
H10 C9 1_555 1_555
C10 N2 1_555 1_555
H11 C10 1_555 1_555
C11 N1 1_555 1_555
H12 C11 1_555 1_555
C12 N2 1_555 1_555
H13 C12 1_555 1_555
H14 C12 1_555 1_555
N2F C12 1_555 1_555
C9F N2F 1_555 1_555
N1F C9F 1_555 1_555
C8F N1F 1_555 1_555
C5F C8F 1_555 1_555
C4F C5F 1_555 1_555
C3F C4F 1_555 1_555
C2F C3F 1_555 1_555
O1F C2F 1_555 1_555
C1F O1F 1_555 1_555
H1F C1F 1_555 1_555
H2F C1F 1_555 1_555
H3F C1F 1_555 1_555
C7F C2F 1_555 1_555
C6F C5F 1_555 1_555
H6F C6F 1_555 1_555
H7F C7F 1_555 1_555
H4F C3F 1_555 1_555
H5F C4F 1_555 1_555
H8F C8F 1_555 1_555
H9F C8F 1_555 1_555
C11F N1F 1_555 1_555
C10F N2F 1_555 1_555
H11F C10F 1_555 1_555
H12F C11F 1_555 1_555
H10F C9F 1_555 1_555
C6 C7 1_555 1_555
C10 C11 1_555 1_555
C7F C6F 1_555 1_555
C11F C10F 1_555 1_555

#END
