
#######################################################################
#
#                 Cambridge Crystallographic Data Centre
#                                CCDC 
#
#######################################################################
#
# If this CIF has been generated from an entry in the Cambridge 
# Structural Database, then it will include bibliographic, chemical, 
# crystal, experimental, refinement or atomic coordinate data resulting 
# from the CCDC's data processing and validation procedures.
#
#######################################################################

data_EZEVOV
_chemical_formula_moiety         'C14 H14 Br1 N1 O4'
_chemical_name_systematic        
6-Bromo-3-(2-methylprop-1-en-1-yl)-4-(nitromethyl)chroman-2-one
_symmetry_cell_setting           orthorhombic
_symmetry_space_group_name_H-M   'P 21 21 21'
_symmetry_Int_Tables_number      19
_space_group_name_Hall           'P 2ac 2ab'
loop_
_symmetry_equiv_pos_site_id
_symmetry_equiv_pos_as_xyz
1 x,y,z
2 1/2-x,-y,1/2+z
3 1/2+x,1/2-y,-z
4 -x,1/2+y,1/2-z
_cell_length_a                   8.0865(2)
_cell_length_b                   8.8411(3)
_cell_length_c                   20.3348(6)
_cell_angle_alpha                90
_cell_angle_beta                 90
_cell_angle_gamma                90
_cell_volume                     1453.81
_exptl_crystal_colour            colorless
_exptl_crystal_description       slab
_cell_formula_units_Z            4
loop_
_atom_site_label
_atom_site_type_symbol
_atom_site_fract_x
_atom_site_fract_y
_atom_site_fract_z
Br1 Br 0.39765(5) 0.24640(5) -0.11083(2)
C1 C 0.3742(3) 0.5901(3) 0.10742(13)
C2 C 0.3884(3) 0.4386(3) 0.07487(14)
C3 C 0.4041(4) 0.2735(4) -0.01832(16)
C4 C 0.3524(4) 0.4492(4) 0.21458(15)
C5 C 0.3840(4) 0.4179(4) 0.00713(14)
C6 C 0.5445(4) 0.6589(4) 0.12270(15)
C7 C 0.1468(4) 0.8232(4) 0.19571(14)
C8 C 0.1439(6) 0.9695(5) 0.2332(2)
C9 C 0.2756(4) 0.5714(3) 0.17218(13)
C10 C 0.2532(3) 0.7168(3) 0.20989(13)
O1 O 0.3620(4) 0.4529(3) 0.27281(11)
N1 N 0.6263(3) 0.7060(3) 0.06087(14)
O2 O 0.5797(6) 0.8117(5) 0.0321(2)
O3 O 0.7398(5) 0.6349(7) 0.0415(2)
O4 O 0.4141(3) 0.3261(3) 0.18350(10)
C11 C 0.4088(4) 0.3121(4) 0.11509(16)
C12 C 0.4293(5) 0.1708(5) 0.0894(2)
C13 C 0.4268(5) 0.1496(4) 0.02189(19)
C14 C 0.0222(8) 0.8132(7) 0.1416(3)
H1 H 0.328(4) 0.731(4) 0.2480(14)
H2 H 0.622(4) 0.593(4) 0.1430(17)
H3 H 0.370(4) 0.498(4) -0.0187(17)
H4 H 0.450(5) 0.092(6) 0.110(2)
H5 H 0.319(4) 0.654(5) 0.0809(17)
H6 H 0.184(4) 0.536(4) 0.1645(16)
H7 H 0.532(4) 0.754(6) 0.1496(17)
H8 H 0.034(13) 0.83(2) 0.096(6)
H9 H 0.455(5) 0.051(6) 0.004(2)
H10 H -0.057(5) 0.883(6) 0.145(2)
H11 H 0.030(7) 1.011(7) 0.239(3)
H12 H 0.198(6) 1.054(7) 0.212(3)
H13 H 0.008(5) 0.711(5) 0.124(2)
H14 H 0.251(7) 0.987(8) 0.266(3)
loop_
_geom_bond_atom_site_label_1
_geom_bond_atom_site_label_2
_geom_bond_site_symmetry_1
_geom_bond_site_symmetry_2
Br1 C3 1_555 1_555
C1 C2 1_555 1_555
C2 C5 1_555 1_555
C3 C5 1_555 1_555
C4 C9 1_555 1_555
C5 H3 1_555 1_555
C6 C1 1_555 1_555
C7 C8 1_555 1_555
C8 H11 1_555 1_555
C9 C1 1_555 1_555
C10 C7 1_555 1_555
O1 C4 1_555 1_555
N1 C6 1_555 1_555
O2 N1 1_555 1_555
O3 N1 1_555 1_555
O4 C4 1_555 1_555
C11 C2 1_555 1_555
C12 C11 1_555 1_555
C13 C3 1_555 1_555
C14 C7 1_555 1_555
H1 C10 1_555 1_555
H2 C6 1_555 1_555
H4 C12 1_555 1_555
H5 C1 1_555 1_555
H6 C9 1_555 1_555
H7 C6 1_555 1_555
H8 C14 1_555 1_555
H9 C13 1_555 1_555
H10 C14 1_555 1_555
H12 C8 1_555 1_555
H13 C14 1_555 1_555
H14 C8 1_555 1_555
C9 C10 1_555 1_555
O4 C11 1_555 1_555
C12 C13 1_555 1_555

#END
