
#######################################################################
#
#                 Cambridge Crystallographic Data Centre
#                                CCDC 
#
#######################################################################
#
# If this CIF has been generated from an entry in the Cambridge 
# Structural Database, then it will include bibliographic, chemical, 
# crystal, experimental, refinement or atomic coordinate data resulting 
# from the CCDC's data processing and validation procedures.
#
#######################################################################

data_EZEVIP
_chemical_formula_moiety         'C29 H24 N2 O2 S1'
_chemical_name_systematic        
5-(Dimethylamino)-N-(pyren-1-ylmethyl)naphthalene-1-sulfonamide
_symmetry_cell_setting           monoclinic
_symmetry_space_group_name_H-M   'C 2/c'
_symmetry_Int_Tables_number      15
_space_group_name_Hall           '-C 2yn'
loop_
_symmetry_equiv_pos_site_id
_symmetry_equiv_pos_as_xyz
1 x,y,z
2 -x,y,1/2-z
3 1/2+x,1/2+y,z
4 1/2-x,1/2+y,1/2-z
5 -x,-y,-z
6 x,-y,1/2+z
7 1/2-x,1/2-y,-z
8 1/2+x,1/2-y,1/2+z
_cell_length_a                   20.295(3)
_cell_length_b                   16.568(3)
_cell_length_c                   13.265(2)
_cell_angle_alpha                90
_cell_angle_beta                 92.057(4)
_cell_angle_gamma                90
_cell_volume                     4457.45
_exptl_crystal_colour            yellow
_cell_formula_units_Z            8
loop_
_atom_site_label
_atom_site_type_symbol
_atom_site_fract_x
_atom_site_fract_y
_atom_site_fract_z
S1 S 0.02923(3) 0.19893(4) 0.08709(5)
O1 O -0.02948(8) 0.22895(11) 0.13254(13)
O2 O 0.02752(9) 0.11848(10) 0.04763(14)
N1 N 0.08826(11) 0.20986(13) 0.17103(19)
N2 N 0.12958(10) 0.52000(12) -0.14541(17)
C1 C 0.12728(14) 0.60803(14) -0.1392(2)
H1 H 0.0842 0.6247 -0.1200
H2 H 0.1366 0.6308 -0.2037
H3 H 0.1595 0.6264 -0.0897
C2 C 0.19358(13) 0.49358(17) -0.1786(2)
H4 H 0.2277 0.5167 -0.1358
H5 H 0.1992 0.5108 -0.2469
H6 H 0.1962 0.4358 -0.1752
C3 C 0.10414(12) 0.47741(14) -0.0627(2)
C4 C 0.09343(12) 0.51267(15) 0.0292(2)
H7 H 0.1032 0.5670 0.0389
C5 C 0.06792(12) 0.46771(15) 0.10849(19)
H8 H 0.0599 0.4933 0.1693
C6 C 0.05462(12) 0.38764(15) 0.09849(19)
H9 H 0.0394 0.3587 0.1531
C7 C 0.06372(11) 0.34805(14) 0.00567(19)
C8 C 0.08613(12) 0.39409(14) -0.07823(19)
C9 C 0.08765(12) 0.35732(15) -0.1746(2)
H10 H 0.0991 0.3882 -0.2297
C10 C 0.07272(12) 0.27801(15) -0.1884(2)
H11 H 0.0732 0.2557 -0.2527
C11 C 0.05658(12) 0.22958(15) -0.1058(2)
H12 H 0.0494 0.1745 -0.1144
C12 C 0.05145(11) 0.26404(15) -0.0123(2)
C13 C 0.15152(12) 0.16956(15) 0.1561(2)
H13 H 0.1630 0.1742 0.0860
H14 H 0.1477 0.1127 0.1721
C14 C 0.20488(12) 0.20730(14) 0.2226(2)
C15 C 0.22033(13) 0.17347(16) 0.3158(2)
H15 H 0.1981 0.1273 0.3354
C16 C 0.26791(13) 0.20647(17) 0.3809(2)
H16 H 0.2769 0.1822 0.4431
C17 C 0.30245(12) 0.27513(16) 0.3548(2)
C18 C 0.35321(13) 0.31107(17) 0.4196(2)
H17 H 0.3621 0.2891 0.4832
C19 C 0.38786(13) 0.37538(17) 0.3901(2)
H18 H 0.4201 0.3971 0.4337
C20 C 0.37616(12) 0.41152(16) 0.2923(2)
C21 C 0.41380(13) 0.47502(17) 0.2582(3)
H19 H 0.4470 0.4965 0.3002
C22 C 0.40293(14) 0.50693(17) 0.1633(3)
H20 H 0.4296 0.5486 0.1415
C23 C 0.35248(14) 0.47745(16) 0.0997(2)
H21 H 0.3452 0.4998 0.0360
C24 C 0.31279(12) 0.41414(15) 0.1318(2)
C25 C 0.26029(12) 0.38133(15) 0.0687(2)
H22 H 0.2502 0.4052 0.0066
C26 C 0.22538(12) 0.31674(15) 0.0977(2)
H23 H 0.1917 0.2972 0.0549
C27 C 0.23851(12) 0.27714(15) 0.19256(19)
C28 C 0.28839(12) 0.31094(14) 0.2588(2)
C29 C 0.32530(12) 0.37904(14) 0.2287(2)
H24 H 0.0772(15) 0.2140(17) 0.226(2)
loop_
_geom_bond_atom_site_label_1
_geom_bond_atom_site_label_2
_geom_bond_site_symmetry_1
_geom_bond_site_symmetry_2
S1 O1 1_555 1_555
O2 S1 1_555 1_555
N1 S1 1_555 1_555
N2 C1 1_555 1_555
C1 H1 1_555 1_555
H2 C1 1_555 1_555
H3 C1 1_555 1_555
C2 N2 1_555 1_555
H4 C2 1_555 1_555
H5 C2 1_555 1_555
H6 C2 1_555 1_555
C3 N2 1_555 1_555
C4 C3 1_555 1_555
H7 C4 1_555 1_555
C5 C4 1_555 1_555
H8 C5 1_555 1_555
C6 C5 1_555 1_555
H9 C6 1_555 1_555
C7 C6 1_555 1_555
C8 C3 1_555 1_555
C9 C8 1_555 1_555
H10 C9 1_555 1_555
C10 C9 1_555 1_555
H11 C10 1_555 1_555
C11 C10 1_555 1_555
H12 C11 1_555 1_555
C12 S1 1_555 1_555
C13 N1 1_555 1_555
H13 C13 1_555 1_555
H14 C13 1_555 1_555
C14 C13 1_555 1_555
C15 C14 1_555 1_555
H15 C15 1_555 1_555
C16 C15 1_555 1_555
H16 C16 1_555 1_555
C17 C16 1_555 1_555
C18 C17 1_555 1_555
H17 C18 1_555 1_555
C19 C18 1_555 1_555
H18 C19 1_555 1_555
C20 C19 1_555 1_555
C21 C20 1_555 1_555
H19 C21 1_555 1_555
C22 C21 1_555 1_555
H20 C22 1_555 1_555
C23 C22 1_555 1_555
H21 C23 1_555 1_555
C24 C23 1_555 1_555
C25 C24 1_555 1_555
H22 C25 1_555 1_555
C26 C25 1_555 1_555
H23 C26 1_555 1_555
C27 C14 1_555 1_555
C28 C17 1_555 1_555
C29 C20 1_555 1_555
H24 N1 1_555 1_555
C7 C8 1_555 1_555
C7 C12 1_555 1_555
C11 C12 1_555 1_555
C24 C29 1_555 1_555
C26 C27 1_555 1_555
C27 C28 1_555 1_555
C28 C29 1_555 1_555

#END
