
#######################################################################
#
#                 Cambridge Crystallographic Data Centre
#                                CCDC 
#
#######################################################################
#
# If this CIF has been generated from an entry in the Cambridge 
# Structural Database, then it will include bibliographic, chemical, 
# crystal, experimental, refinement or atomic coordinate data resulting 
# from the CCDC's data processing and validation procedures.
#
#######################################################################

data_EZEYOX
_chemical_compound_source        'Linaria vulgaris'
_chemical_name_common            'Linarinic acid dihydrate'
_chemical_formula_moiety         'C12 H12 N2 O2,2(H2 O1)'
_chemical_name_systematic        
'1,2,3,9-Tetrahydropyrrolo(2,1-b)quinazolin-1-carboxylic acid dihydrate'
_chemical_properties_biological  
'used in traditional Chinese folk medicine for treatment of coughs and asthma and as an expectorant'
_symmetry_cell_setting           orthorhombic
_symmetry_space_group_name_H-M   'P 21 21 21'
_symmetry_Int_Tables_number      19
_space_group_name_Hall           'P 2ac 2ab'
loop_
_symmetry_equiv_pos_site_id
_symmetry_equiv_pos_as_xyz
1 x,y,z
2 1/2-x,-y,1/2+z
3 1/2+x,1/2-y,-z
4 -x,1/2+y,1/2-z
_cell_length_a                   7.240(1)
_cell_length_b                   8.051(2)
_cell_length_c                   21.127(5)
_cell_angle_alpha                90
_cell_angle_beta                 90
_cell_angle_gamma                90
_cell_volume                     1231.48
_exptl_crystal_colour            colorless
_exptl_crystal_description       needle
_chemical_melting_point          '218 deg.C(dec.)'
_cell_formula_units_Z            4
_exptl_crystal_recrystallization_method ethanol
loop_
_atom_site_label
_atom_site_type_symbol
_atom_site_fract_x
_atom_site_fract_y
_atom_site_fract_z
N1 N 0.0461(9) 0.2315(8) 0.4219(2)
N2 N 0.0901(8) 0.5180(6) 0.4194(2)
O1 O 0.0652(10) 0.9364(5) 0.3601(3)
O2 O -0.1564(8) 0.7766(6) 0.4022(2)
C1 C 0.0731(13) 0.3778(9) 0.5885(3)
C2 C 0.0732(14) 0.2250(11) 0.6202(4)
C3 C 0.0657(13) 0.0781(9) 0.5869(4)
C4 C 0.0539(12) 0.0805(8) 0.5211(3)
C5 C 0.0549(10) 0.2319(8) 0.4899(3)
C6 C 0.0657(11) 0.3795(8) 0.5226(3)
C7 C 0.0702(13) 0.5440(8) 0.4879(3)
C8 C 0.0722(11) 0.3729(8) 0.3914(3)
C9 C 0.0875(13) 0.3864(8) 0.3214(3)
C10 C 0.1276(15) 0.5697(8) 0.3103(3)
C11 C 0.1361(11) 0.6541(7) 0.3758(3)
C12 C 0.0005(11) 0.8011(8) 0.3808(3)
H1 H 0.072 0.497 0.615
H2 H 0.073 0.222 0.672
H3 H 0.076 -0.040 0.613
H4 H 0.041 -0.036 0.494
H5 H 0.184 0.621 0.506
H6 H -0.059 0.614 0.498
H7 H 0.203 0.308 0.303
H8 H -0.036 0.347 0.298
H9 H 0.259 0.587 0.282
H10 H 0.020 0.627 0.280
H11 H 0.278 0.699 0.385
O3 O 0.4023(9) 0.2651(7) 0.2017(3)
H12 H 0.368 0.156 0.218
H13 H 0.317 0.261 0.165
O4 O 0.1700(9) 0.0240(7) 0.7653(2)
H14 H 0.139 -0.007 0.811
H15 H 0.269 0.014 0.794
loop_
_geom_bond_atom_site_label_1
_geom_bond_atom_site_label_2
_geom_bond_site_symmetry_1
_geom_bond_site_symmetry_2
N1 C5 1_555 1_555
N2 C7 1_555 1_555
O1 C12 1_555 1_555
O2 C12 1_555 1_555
O3 H12 1_555 1_555
O4 H14 1_555 1_555
C1 C2 1_555 1_555
C2 C3 1_555 1_555
C3 C4 1_555 1_555
C4 C5 1_555 1_555
C5 C6 1_555 1_555
C6 C1 1_555 1_555
C7 C6 1_555 1_555
C8 N1 1_555 1_555
C9 C8 1_555 1_555
C10 C9 1_555 1_555
C11 N2 1_555 1_555
C12 C11 1_555 1_555
H1 C1 1_555 1_555
H2 C2 1_555 1_555
H3 C3 1_555 1_555
H4 C4 1_555 1_555
H5 C7 1_555 1_555
H6 C7 1_555 1_555
H7 C9 1_555 1_555
H8 C9 1_555 1_555
H9 C10 1_555 1_555
H10 C10 1_555 1_555
H11 C11 1_555 1_555
H13 O3 1_555 1_555
H15 O4 1_555 1_555
N2 C8 1_555 1_555
C10 C11 1_555 1_555

#END
