
#######################################################################
#
#                 Cambridge Crystallographic Data Centre
#                                CCDC 
#
#######################################################################
#
# If this CIF has been generated from an entry in the Cambridge 
# Structural Database, then it will include bibliographic, chemical, 
# crystal, experimental, refinement or atomic coordinate data resulting 
# from the CCDC's data processing and validation procedures.
#
#######################################################################

data_EZIGIF
_chemical_formula_moiety         'C17 H18 Cl3 N1 O6'
_chemical_name_systematic        
'3-(benzyloxy)-4-((trichloroacetyl)amino)-6,8-dioxabicyclo[3.2.1]octan-2-yl acetate'
_symmetry_cell_setting           monoclinic
_symmetry_space_group_name_H-M   'P 21'
_symmetry_Int_Tables_number      4
_space_group_name_Hall           'P 2yb'
loop_
_symmetry_equiv_pos_site_id
_symmetry_equiv_pos_as_xyz
1 x,y,z
2 -x,1/2+y,-z
_cell_length_a                   10.7676(4)
_cell_length_b                   6.1959(2)
_cell_length_c                   13.8977(5)
_cell_angle_alpha                90
_cell_angle_beta                 91.2550(10)
_cell_angle_gamma                90
_cell_volume                     926.962
_exptl_crystal_colour            colorless
_exptl_crystal_description       plate
_cell_formula_units_Z            2
loop_
_atom_site_label
_atom_site_type_symbol
_atom_site_fract_x
_atom_site_fract_y
_atom_site_fract_z
Cl1 Cl 0.06456(6) 0.58884(14) 0.59131(5)
Cl2 Cl 0.15232(7) 0.77714(14) 0.76977(5)
Cl3 Cl 0.16947(7) 1.01572(13) 0.59212(8)
O1 O 0.59804(16) 1.0690(3) 0.59081(12)
O2 O 0.67251(16) 0.6192(3) 0.77052(12)
O3 O 0.50548(17) 1.1334(3) 0.77756(13)
O4 O 0.73942(17) 0.7971(3) 0.58490(13)
O5 O 0.31896(19) 0.4576(3) 0.64616(15)
O6 O 0.49755(18) 1.0076(3) 0.92921(14)
N1 N 0.4041(2) 0.7900(4) 0.62771(16)
C1 C 0.6118(3) 0.8458(5) 0.5710(2)
H1 H 0.5846 0.8135 0.5033
C2 C 0.5325(2) 0.7196(4) 0.64189(19)
H2 H 0.5388 0.5617 0.6279
C3 C 0.5736(2) 0.7624(4) 0.74694(17)
H3 H 0.5024 0.7305 0.7897
C4 C 0.6139(2) 1.0000(4) 0.76246(19)
H4 H 0.6712 1.0098 0.8199
C5 C 0.6775(2) 1.0943(5) 0.67497(18)
H5 H 0.6997 1.2494 0.6856
C6 C 0.7911(2) 0.9627(5) 0.6473(2)
H6 H 0.8517 1.0530 0.6129
H7 H 0.8325 0.8986 0.7048
C7 C 0.3091(3) 0.6512(4) 0.63676(19)
C8 C 0.1789(2) 0.7573(5) 0.64341(19)
C9 C 0.6874(2) 0.5868(5) 0.87186(18)
H8 H 0.6075 0.5414 0.8995
H9 H 0.7140 0.7229 0.9034
C10 C 0.7842(3) 0.4145(4) 0.88867(19)
C11 C 0.7733(2) 0.2712(5) 0.96507(18)
H10 H 0.7042 0.2810 1.0062
C12 C 0.8633(3) 0.1137(5) 0.98142(19)
H11 H 0.8557 0.0165 1.0338
C13 C 0.9640(3) 0.0983(5) 0.9214(2)
H12 H 1.0257 -0.0088 0.9328
C14 C 0.9744(3) 0.2395(5) 0.8447(2)
H13 H 1.0427 0.2275 0.8029
C15 C 0.8857(3) 0.3982(5) 0.8286(2)
H14 H 0.8941 0.4961 0.7766
C16 C 0.4559(2) 1.1220(4) 0.86621(19)
C17 C 0.3460(3) 1.2674(5) 0.8746(2)
H15 H 0.3214 1.3212 0.8107
H16 H 0.3677 1.3895 0.9166
H17 H 0.2769 1.1870 0.9021
H18 H 0.389(3) 0.933(4) 0.619(2)
loop_
_geom_bond_atom_site_label_1
_geom_bond_atom_site_label_2
_geom_bond_site_symmetry_1
_geom_bond_site_symmetry_2
Cl1 C8 1_555 1_555
Cl2 C8 1_555 1_555
Cl3 C8 1_555 1_555
O1 C1 1_555 1_555
O2 C3 1_555 1_555
O3 C4 1_555 1_555
O4 C1 1_555 1_555
O5 C7 1_555 1_555
O6 C16 1_555 1_555
N1 C2 1_555 1_555
C1 H1 1_555 1_555
C2 C1 1_555 1_555
H2 C2 1_555 1_555
C3 C2 1_555 1_555
H3 C3 1_555 1_555
C4 C3 1_555 1_555
H4 C4 1_555 1_555
C5 O1 1_555 1_555
H5 C5 1_555 1_555
C6 O4 1_555 1_555
H6 C6 1_555 1_555
H7 C6 1_555 1_555
C7 N1 1_555 1_555
C8 C7 1_555 1_555
C9 O2 1_555 1_555
H8 C9 1_555 1_555
H9 C9 1_555 1_555
C10 C9 1_555 1_555
C11 C10 1_555 1_555
H10 C11 1_555 1_555
C12 C11 1_555 1_555
H11 C12 1_555 1_555
C13 C12 1_555 1_555
H12 C13 1_555 1_555
C14 C13 1_555 1_555
H13 C14 1_555 1_555
C15 C10 1_555 1_555
H14 C15 1_555 1_555
C16 O3 1_555 1_555
C17 C16 1_555 1_555
H15 C17 1_555 1_555
H16 C17 1_555 1_555
H17 C17 1_555 1_555
H18 N1 1_555 1_555
C4 C5 1_555 1_555
C5 C6 1_555 1_555
C14 C15 1_555 1_555

#END
