
#######################################################################
#
#                 Cambridge Crystallographic Data Centre
#                                CCDC 
#
#######################################################################
#
# If this CIF has been generated from an entry in the Cambridge 
# Structural Database, then it will include bibliographic, chemical, 
# crystal, experimental, refinement or atomic coordinate data resulting 
# from the CCDC's data processing and validation procedures.
#
#######################################################################

data_EZIHEC
_chemical_compound_source        'root bark of Celastrus orbiculatus'
_chemical_name_common            
'(4R,5S,8S,9S,10S,13S,14R,17S,18R,20R)-3-Oxo-29-(6 ,7 -di-Oacetyl)caffeoyloxyfriedelin acetonitrile solvate'
_chemical_formula_moiety         'C43 H60 O7,C2 H3 N1'
_chemical_name_systematic        
'(2,4a,6a,8a,9,12b,14a-heptamethyl-10-oxodocosahydropicen-2-yl)methyl 3-(3,4-diacetoxyphenyl)acrylate acetonitrile solvate'
_symmetry_cell_setting           triclinic
_symmetry_space_group_name_H-M   'P 1'
_symmetry_Int_Tables_number      1
_space_group_name_Hall           'P 1'
loop_
_symmetry_equiv_pos_site_id
_symmetry_equiv_pos_as_xyz
1 x,y,z
_cell_length_a                   6.34290(10)
_cell_length_b                   7.22950(10)
_cell_length_c                   22.8350(4)
_cell_angle_alpha                86.8970(10)
_cell_angle_beta                 87.8660(10)
_cell_angle_gamma                68.1660(10)
_cell_volume                     970.416
_exptl_crystal_colour            colorless
_exptl_crystal_description       block
_cell_formula_units_Z            1
_exptl_crystal_recrystallization_method acetonitrile
loop_
_atom_site_label
_atom_site_type_symbol
_atom_site_fract_x
_atom_site_fract_y
_atom_site_fract_z
O1 O 0.5660(3) 0.7834(3) 0.27803(7)
C1 C 0.7425(4) 0.6672(3) 0.42407(10)
H1 H 0.8816 0.6837 0.4107
H2 H 0.7819 0.5586 0.4535
C2 C 0.7268(4) 0.7337(3) 0.55405(9)
H3 H 0.5961 0.6945 0.5554
H4 H 0.8569 0.6210 0.5411
C3 C 0.7699(4) 0.7812(3) 0.61637(9)
H5 H 0.9096 0.8069 0.6158
H6 H 0.7910 0.6652 0.6423
C4 C 0.6858(4) 0.8354(3) 0.74765(9)
H7 H 0.5497 0.8042 0.7515
H8 H 0.8069 0.7191 0.7329
O2 O 0.5829(3) 0.6450(2) 0.85979(6)
O3 O -0.3770(3) 0.1519(3) 1.02742(8)
O4 O -0.1485(4) -0.0752(3) 1.08977(9)
C5 C 0.3196(4) 1.3221(3) 0.61981(9)
H9 H 0.3343 1.4472 0.6073
H10 H 0.1881 1.3170 0.6006
C6 C 0.7359(4) 1.2194(3) 0.59647(10)
H11 H 0.8762 1.1060 0.5956
H12 H 0.7293 1.2922 0.6309
H13 H 0.7274 1.3043 0.5621
C7 C 0.6815(4) 1.0878(3) 0.37223(10)
H14 H 0.6166 1.1815 0.3403
H15 H 0.7932 0.9686 0.3572
H16 H 0.7522 1.1454 0.3985
C8 C 0.5620(4) 1.0668(3) 0.83222(9)
H17 H 0.4912 1.0317 0.8672
H18 H 0.6320 1.1584 0.8430
O5 O 0.5371(3) 0.7501(3) 0.95240(7)
O6 O -0.3014(3) 0.3861(3) 1.10768(7)
O7 O 0.0152(4) 0.2689(4) 1.16104(8)
C9 C 0.5833(4) 0.8608(3) 0.45203(9)
H19 H 0.4491 0.8334 0.4658
C10 C 0.6844(3) 0.9085(3) 0.50872(9)
C11 C 0.5761(3) 0.9621(3) 0.64133(9)
C12 C 0.6437(3) 1.0101(3) 0.70224(9)
H20 H 0.7902 1.0252 0.6959
C13 C 0.7496(3) 0.8744(3) 0.80880(9)
C14 C 0.4909(4) 0.6610(3) 0.91492(10)
C15 C 0.3358(4) 0.5526(4) 0.92175(10)
C16 C 0.4750(4) 1.2151(3) 0.72725(9)
C17 C 0.2731(4) 1.3238(3) 0.68632(10)
H21 H 0.1591 1.2657 0.6944
H22 H 0.2068 1.4619 0.6971
C18 C 0.5346(3) 1.1480(3) 0.59786(9)
C19 C 0.4946(3) 1.0954(3) 0.53458(9)
H23 H 0.3607 1.0586 0.5388
C20 C 0.9139(4) 0.9317(4) 0.49533(10)
H24 H 1.0059 0.8926 0.5296
H25 H 0.8875 1.0684 0.4843
H26 H 0.9908 0.8485 0.4638
C21 C 0.4938(3) 1.0363(3) 0.40528(9)
C22 C 0.4264(4) 1.2717(3) 0.48976(9)
H27 H 0.3134 1.3874 0.5072
H28 H 0.5581 1.3044 0.4788
C23 C 0.2269(4) 1.1300(4) 0.31405(10)
H29 H 0.3304 1.1724 0.2904
H30 H 0.1208 1.2420 0.3337
H31 H 0.1462 1.0762 0.2895
C24 C 0.3801(4) 1.1706(3) 0.78690(9)
H32 H 0.2764 1.2951 0.8022
H33 H 0.2937 1.0872 0.7812
C25 C 0.5954(4) 1.3606(3) 0.73779(10)
H34 H 0.5058 1.4586 0.7646
H35 H 0.6130 1.4258 0.7012
H36 H 0.7421 1.2878 0.7541
C26 C 0.9828(4) 0.8944(4) 0.80584(10)
H37 H 1.0211 0.9193 0.8441
H38 H 0.9771 1.0032 0.7791
H39 H 1.0957 0.7731 0.7924
C27 C 0.5238(4) 0.7868(3) 0.33049(10)
C28 C 0.6328(4) 0.6127(3) 0.37206(10)
H40 H 0.7480 0.5078 0.3510
H41 H 0.5190 0.5613 0.3869
C29 C 0.7825(4) 0.6962(3) 0.85088(10)
H42 H 0.9057 0.5816 0.8360
H43 H 0.8277 0.7241 0.8885
C30 C 0.2330(4) 0.5408(3) 0.97298(10)
C31 C 0.0854(4) 0.4290(4) 0.98695(10)
C32 C 0.0521(4) 0.2991(4) 0.94836(10)
H44 H 0.1303 0.2773 0.9126
C33 C -0.0955(4) 0.2027(4) 0.96274(11)
H45 H -0.1166 0.1168 0.9367
C34 C -0.2113(4) 0.2341(4) 1.01577(10)
C35 C -0.3306(4) -0.0009(4) 1.06827(11)
C36 C -0.5332(5) -0.0537(4) 1.08112(12)
H46 H -0.4898 -0.1758 1.1046
H47 H -0.5954 -0.0705 1.0450
H48 H -0.6453 0.0511 1.1021
C37 C 0.3634(4) 0.9040(3) 0.64787(9)
H49 H 0.2879 0.9276 0.6110
H50 H 0.2614 0.9831 0.6770
H51 H 0.4095 0.7653 0.6597
C38 C 0.3593(4) 0.9707(3) 0.35931(9)
H52 H 0.2482 0.9291 0.3816
C39 C 0.3299(4) 1.2220(3) 0.43511(9)
H53 H 0.2916 1.3352 0.4072
H54 H 0.1907 1.2012 0.4459
C40 C -0.0305(4) 0.4560(4) 1.04086(10)
H55 H -0.0097 0.5408 1.0673
C41 C -0.1759(4) 0.3575(4) 1.05514(10)
C42 C -0.1838(5) 0.3262(4) 1.15908(11)
C43 C -0.3452(6) 0.3480(6) 1.21003(13)
H56 H -0.2706 0.2548 1.2412
H57 H -0.4748 0.3221 1.1981
H58 H -0.3939 0.4813 1.2235
H59 H 0.321(4) 0.484(4) 0.8874(12)
H60 H 0.263(4) 0.615(4) 1.0027(12)
N1 N 0.1474(4) 0.6278(4) 0.31602(11)
C44 C 0.1025(4) 0.6765(4) 0.26871(13)
C45 C 0.0431(6) 0.7436(7) 0.20858(14)
H61 H -0.1186 0.8110 0.2061
H62 H 0.0917 0.6308 0.1841
H63 H 0.1166 0.8335 0.1956
loop_
_geom_bond_atom_site_label_1
_geom_bond_atom_site_label_2
_geom_bond_site_symmetry_1
_geom_bond_site_symmetry_2
O1 C27 1_555 1_555
C1 H1 1_555 1_555
H2 C1 1_555 1_555
C2 H3 1_555 1_555
H4 C2 1_555 1_555
C3 C2 1_555 1_555
H5 C3 1_555 1_555
H6 C3 1_555 1_555
C4 H7 1_555 1_555
H8 C4 1_555 1_555
O2 C14 1_555 1_555
O3 C34 1_555 1_555
O4 C35 1_555 1_555
C5 H9 1_555 1_555
H10 C5 1_555 1_555
C6 H11 1_555 1_555
H12 C6 1_555 1_555
H13 C6 1_555 1_555
C7 H14 1_555 1_555
H15 C7 1_555 1_555
H16 C7 1_555 1_555
C8 H17 1_555 1_555
H18 C8 1_555 1_555
O5 C14 1_555 1_555
O6 C41 1_555 1_555
O7 C42 1_555 1_555
C9 C1 1_555 1_555
H19 C9 1_555 1_555
C10 C2 1_555 1_555
C11 C3 1_555 1_555
C12 C4 1_555 1_555
H20 C12 1_555 1_555
C13 C4 1_555 1_555
C14 C15 1_555 1_555
C15 C30 1_555 1_555
C16 C12 1_555 1_555
C17 C5 1_555 1_555
H21 C17 1_555 1_555
H22 C17 1_555 1_555
C18 C5 1_555 1_555
C19 C10 1_555 1_555
H23 C19 1_555 1_555
C20 C10 1_555 1_555
H24 C20 1_555 1_555
H25 C20 1_555 1_555
H26 C20 1_555 1_555
C21 C7 1_555 1_555
C22 C19 1_555 1_555
H27 C22 1_555 1_555
H28 C22 1_555 1_555
C23 H29 1_555 1_555
H30 C23 1_555 1_555
H31 C23 1_555 1_555
C24 C8 1_555 1_555
H32 C24 1_555 1_555
H33 C24 1_555 1_555
C25 C16 1_555 1_555
H34 C25 1_555 1_555
H35 C25 1_555 1_555
H36 C25 1_555 1_555
C26 C13 1_555 1_555
H37 C26 1_555 1_555
H38 C26 1_555 1_555
H39 C26 1_555 1_555
C27 C28 1_555 1_555
C28 C1 1_555 1_555
H40 C28 1_555 1_555
H41 C28 1_555 1_555
C29 O2 1_555 1_555
H42 C29 1_555 1_555
H43 C29 1_555 1_555
C30 C31 1_555 1_555
C31 C32 1_555 1_555
C32 H44 1_555 1_555
C33 C32 1_555 1_555
H45 C33 1_555 1_555
C34 C33 1_555 1_555
C35 O3 1_555 1_555
C36 C35 1_555 1_555
H46 C36 1_555 1_555
H47 C36 1_555 1_555
H48 C36 1_555 1_555
C37 C11 1_555 1_555
H49 C37 1_555 1_555
H50 C37 1_555 1_555
H51 C37 1_555 1_555
C38 C21 1_555 1_555
H52 C38 1_555 1_555
C39 C21 1_555 1_555
H53 C39 1_555 1_555
H54 C39 1_555 1_555
C40 C31 1_555 1_555
H55 C40 1_555 1_555
C41 C34 1_555 1_555
C42 O6 1_555 1_555
C43 C42 1_555 1_555
H56 C43 1_555 1_555
H57 C43 1_555 1_555
H58 C43 1_555 1_555
H59 C15 1_555 1_555
H60 C30 1_555 1_555
N1 C44 1_555 1_555
C44 C45 1_555 1_555
C45 H61 1_555 1_555
H62 C45 1_555 1_555
H63 C45 1_555 1_555
C6 C18 1_555 1_555
C8 C13 1_555 1_555
C9 C10 1_555 1_555
C9 C21 1_555 1_555
C11 C12 1_555 1_555
C11 C18 1_555 1_555
C13 C29 1_555 1_555
C16 C17 1_555 1_555
C16 C24 1_555 1_555
C18 C19 1_555 1_555
C22 C39 1_555 1_555
C23 C38 1_555 1_555
C27 C38 1_555 1_555
C40 C41 1_555 1_555

#END
