
#######################################################################
#
#                 Cambridge Crystallographic Data Centre
#                                CCDC 
#
#######################################################################
#
# If this CIF has been generated from an entry in the Cambridge 
# Structural Database, then it will include bibliographic, chemical, 
# crystal, experimental, refinement or atomic coordinate data resulting 
# from the CCDC's data processing and validation procedures.
#
#######################################################################

data_EZIHOM
_chemical_compound_source        'the twigs and leaves of Lyonia ovalifolia'
_chemical_name_common            
'3alpha,25-dihydroxy-9,10-seco-cycloartan-24-oxo-5(10)-en-30-oic acid'
_chemical_formula_moiety         'C30 H48 O5'
_chemical_name_systematic        
'3,25-dihydroxy-4,4-dimethyl-24-oxo-9,19-cyclo-9,10-secocholest-5(10)-ene-14-carboxylic acid'
_chemical_properties_biological  
'potent activity against HSV-1; potent activity against A/95 359; potent activity against CVB3'
_symmetry_cell_setting           monoclinic
_symmetry_space_group_name_H-M   'P 21'
_symmetry_Int_Tables_number      4
_space_group_name_Hall           'P 2yb'
loop_
_symmetry_equiv_pos_site_id
_symmetry_equiv_pos_as_xyz
1 x,y,z
2 -x,1/2+y,-z
_cell_length_a                   11.3157(4)
_cell_length_b                   38.8550(13)
_cell_length_c                   13.6376(6)
_cell_angle_alpha                90
_cell_angle_beta                 113.036(5)
_cell_angle_gamma                90
_cell_volume                     5517.93
_exptl_crystal_colour            colorless
_exptl_crystal_description       plate
_cell_formula_units_Z            8
loop_
_atom_site_label
_atom_site_type_symbol
_atom_site_fract_x
_atom_site_fract_y
_atom_site_fract_z
O1 O -0.4247(2) 0.59728(6) 0.6470(2)
H1 H -0.4076 0.6141 0.6163
O2 O -0.5880(2) 0.39572(7) 0.58025(19)
O3 O -0.5318(3) 0.38387(7) 0.7509(2)
H2 H -0.6104 0.3874 0.7353
O4 O -0.6256(2) 0.21418(7) 0.5458(2)
O5 O -0.6094(2) 0.15556(7) 0.4601(2)
H3 H -0.6696 0.1673 0.4640
C1 C -0.3939(3) 0.32352(8) 0.6504(2)
H4 H -0.4891 0.3263 0.6252
C2 C -0.3361(3) 0.32847(8) 0.7736(2)
H5 H -0.4012 0.3229 0.8030
H6 H -0.2615 0.3130 0.8071
C3 C -0.2939(3) 0.36631(8) 0.7967(3)
H7 H -0.3225 0.3763 0.8505
H8 H -0.1994 0.3685 0.8221
C4 C -0.3612(3) 0.38358(8) 0.6882(2)
C5 C -0.3417(3) 0.35567(7) 0.6115(3)
C6 C -0.4086(3) 0.36740(8) 0.4950(2)
H9 H -0.3911 0.3506 0.4477
H10 H -0.5026 0.3683 0.4751
C7 C -0.3600(3) 0.40314(8) 0.4799(3)
H11 H -0.4111 0.4109 0.4062
H12 H -0.2698 0.4009 0.4872
C8 C -0.3659(3) 0.43136(8) 0.5578(3)
H13 H -0.4580 0.4375 0.5394
C9 C -0.3073(3) 0.41919(8) 0.6743(2)
H14 H -0.2134 0.4159 0.6927
C10 C -0.3190(3) 0.44562(8) 0.7540(2)
H15 H -0.2893 0.4347 0.8252
H16 H -0.4109 0.4515 0.7327
C11 C -0.2432(3) 0.47927(8) 0.7637(3)
H17 H -0.2284 0.4900 0.8334
H18 H -0.1582 0.4735 0.7633
C12 C -0.3079(3) 0.50551(8) 0.6765(3)
C13 C -0.3367(3) 0.49749(8) 0.5744(3)
C14 C -0.2954(3) 0.46361(8) 0.5426(3)
H19 H -0.2023 0.4606 0.5847
H20 H -0.3082 0.4651 0.4666
C15 C -0.3437(3) 0.54037(8) 0.7112(3)
C16 C -0.3763(3) 0.56608(8) 0.6184(3)
H21 H -0.2949 0.5719 0.6095
C17 C -0.4700(3) 0.55176(9) 0.5139(3)
H22 H -0.4920 0.5697 0.4580
H23 H -0.5500 0.5445 0.5214
C18 C -0.4090(3) 0.52103(9) 0.4826(3)
H24 H -0.4771 0.5076 0.4272
H25 H -0.3492 0.5295 0.4510
C19 C -0.3683(3) 0.28717(8) 0.6187(2)
H26 H -0.2733 0.2838 0.6448
C20 C -0.4224(3) 0.26039(8) 0.6738(3)
H27 H -0.3819 0.2641 0.7518
H28 H -0.5157 0.2644 0.6511
C21 C -0.4012(3) 0.22290(8) 0.6503(3)
H29 H -0.3290 0.2221 0.6266
H30 H -0.3751 0.2097 0.7175
C22 C -0.5155(3) 0.20527(8) 0.5674(3)
C23 C -0.4909(3) 0.17382(8) 0.5098(3)
C24 C -0.4264(4) 0.28156(9) 0.4980(3)
H31 H -0.5191 0.2860 0.4704
H32 H -0.4112 0.2578 0.4821
H33 H -0.3863 0.2974 0.4642
C25 C -0.4476(4) 0.18649(9) 0.4227(3)
H34 H -0.4382 0.1668 0.3815
H35 H -0.3650 0.1984 0.4557
H36 H -0.5119 0.2024 0.3754
C26 C -0.3942(3) 0.14914(8) 0.5866(3)
H37 H -0.4229 0.1426 0.6432
H38 H -0.3101 0.1604 0.6181
H39 H -0.3872 0.1285 0.5480
C27 C -0.5060(3) 0.38818(7) 0.6646(3)
C28 C -0.1984(3) 0.34967(8) 0.6351(3)
H40 H -0.1574 0.3717 0.6328
H41 H -0.1904 0.3341 0.5816
H42 H -0.1563 0.3394 0.7060
C29 C -0.4578(4) 0.53507(9) 0.7441(3)
H43 H -0.5333 0.5278 0.6820
H44 H -0.4769 0.5567 0.7717
H45 H -0.4362 0.5173 0.7995
C30 C -0.2295(4) 0.55558(9) 0.8061(3)
H46 H -0.2136 0.5416 0.8698
H47 H -0.2498 0.5792 0.8193
H48 H -0.1527 0.5556 0.7895
O6 O 0.6880(2) 0.34787(6) 1.1861(2)
H49 H 0.6450 0.3651 1.1547
O7 O 0.6925(2) 0.15461(6) 1.01688(18)
H50 H 0.7667 0.1572 1.0179
O8 O 0.6390(2) 0.16100(6) 0.84332(19)
O9 O 0.5419(3) -0.03184(7) 0.8614(3)
O10 O 0.4326(3) -0.08820(7) 0.8860(3)
H51 H 0.5097 -0.0819 0.9088
C31 C 0.4587(3) 0.09516(8) 0.8778(2)
H52 H 0.5543 0.0942 0.9020
C32 C 0.4037(3) 0.11215(8) 0.7649(2)
H53 H 0.4633 0.1087 0.7287
H54 H 0.3197 0.1018 0.7206
C33 C 0.3879(3) 0.15115(8) 0.7817(2)
H55 H 0.4242 0.1653 0.7398
H56 H 0.2963 0.1572 0.7609
C34 C 0.4636(3) 0.15625(8) 0.9018(2)
C35 C 0.4265(3) 0.12240(8) 0.9470(3)
C36 C 0.4944(3) 0.12092(8) 1.0683(2)
H57 H 0.5883 0.1192 1.0887
H58 H 0.4657 0.1003 1.0954
C37 C 0.4636(3) 0.15344(8) 1.1183(3)
H59 H 0.5146 0.1528 1.1961
H60 H 0.3718 0.1528 1.1072
C38 C 0.4904(3) 0.18781(8) 1.0744(2)
H61 H 0.5855 0.1908 1.1001
C39 C 0.4330(3) 0.18913(8) 0.9516(2)
H62 H 0.3376 0.1898 0.9287
C40 C 0.4705(3) 0.22210(8) 0.9072(2)
H63 H 0.5653 0.2236 0.9356
H64 H 0.4394 0.2199 0.8288
C41 C 0.4181(3) 0.25600(8) 0.9333(3)
H65 H 0.4178 0.2736 0.8809
H66 H 0.3278 0.2523 0.9243
C42 C 0.4924(3) 0.27007(8) 1.0447(3)
C43 C 0.5035(3) 0.25131(8) 1.1294(3)
C44 C 0.4362(3) 0.21734(8) 1.1203(3)
H67 H 0.3442 0.2204 1.0743
H68 H 0.4417 0.2105 1.1919
C45 C 0.5580(3) 0.30514(8) 1.0521(3)
C46 C 0.6047(3) 0.31860(8) 1.1680(3)
H69 H 0.5277 0.3257 1.1818
C47 C 0.6758(3) 0.29172(9) 1.2487(3)
H70 H 0.7078 0.3018 1.3212
H71 H 0.7507 0.2835 1.2349
C48 C 0.5864(3) 0.26157(8) 1.2421(3)
H72 H 0.6387 0.2415 1.2794
H73 H 0.5302 0.2679 1.2796
C49 C 0.4104(3) 0.05801(8) 0.8782(3)
H74 H 0.3164 0.0591 0.8622
C50 C 0.4284(4) 0.03587(9) 0.7925(3)
H75 H 0.5208 0.0307 0.8141
H76 H 0.3993 0.0490 0.7249
C51 C 0.3534(4) 0.00192(8) 0.7740(3)
H77 H 0.2792 0.0053 0.7942
H78 H 0.3189 -0.0033 0.6968
C52 C 0.4278(3) -0.02909(9) 0.8335(3)
C53 C 0.3512(3) -0.05883(8) 0.8553(3)
C54 C 0.4764(6) 0.04082(10) 0.9868(3)
H79 H 0.5697 0.0412 1.0072
H80 H 0.4470 0.0169 0.9828
H81 H 0.4550 0.0533 1.0401
C55 C 0.3138(4) -0.04881(10) 0.9474(3)
H82 H 0.2669 -0.0678 0.9629
H83 H 0.2590 -0.0283 0.9279
H84 H 0.3915 -0.0438 1.0107
C56 C 0.2339(4) -0.06832(9) 0.7564(3)
H85 H 0.2612 -0.0752 0.6994
H86 H 0.1766 -0.0484 0.7330
H87 H 0.1884 -0.0874 0.7731
C57 C 0.6064(3) 0.15710(7) 0.9168(2)
C58 C 0.2796(3) 0.12107(8) 0.9190(3)
H88 H 0.2514 0.1431 0.9376
H89 H 0.2608 0.1025 0.9592
H90 H 0.2341 0.1168 0.8425
C59 C 0.6726(4) 0.30095(9) 1.0187(3)
H91 H 0.7405 0.2877 1.0731
H92 H 0.7058 0.3237 1.0116
H93 H 0.6445 0.2888 0.9504
C60 C 0.4636(4) 0.33200(9) 0.9796(3)
H94 H 0.4392 0.3254 0.9049
H95 H 0.5050 0.3546 0.9920
H96 H 0.3868 0.3330 0.9961
O11 O -0.0663(2) 0.15609(6) 1.0282(2)
H97 H -0.0459 0.1433 0.9876
O12 O -0.0638(3) 0.34602(7) 1.2012(2)
H98 H -0.1356 0.3497 1.2039
O13 O -0.1499(2) 0.37788(7) 1.0565(2)
O14 O -0.0532(3) 0.54851(7) 1.1612(3)
O15 O 0.0160(3) 0.60412(8) 1.0935(3)
H99 H -0.0560 0.5952 1.0812
C61 C 0.1095(3) 0.42224(8) 1.1875(3)
H100 H 0.0345 0.4200 1.2086
C62 C 0.0557(4) 0.42536(9) 1.0636(3)
H101 H -0.0331 0.4344 1.0360
H102 H 0.1097 0.4412 1.0420
C63 C 0.0579(4) 0.38871(9) 1.0191(3)
H103 H -0.0239 0.3835 0.9586
H104 H 0.1297 0.3862 0.9953
C64 C 0.0767(3) 0.36531(8) 1.1146(2)
C65 C 0.1788(3) 0.38696(8) 1.2072(3)
C66 C 0.2061(4) 0.36809(9) 1.3141(3)
H105 H 0.2720 0.3809 1.3731
H106 H 0.1267 0.3673 1.3282
C67 C 0.2538(4) 0.33117(10) 1.3097(3)
H107 H 0.3404 0.3325 1.3081
H108 H 0.2624 0.3191 1.3760
C68 C 0.1678(3) 0.30941(9) 1.2143(3)
H109 H 0.0886 0.3033 1.2262
C69 C 0.1256(3) 0.32873(8) 1.1075(3)
H110 H 0.2046 0.3316 1.0923
C70 C 0.0292(3) 0.30883(8) 1.0126(3)
H111 H -0.0011 0.3242 0.9497
H112 H -0.0462 0.3028 1.0290
C71 C 0.0824(3) 0.27556(9) 0.9836(3)
H113 H 0.0305 0.2699 0.9081
H114 H 0.1715 0.2799 0.9903
C72 C 0.0825(3) 0.24481(8) 1.0517(3)
C73 C 0.1501(3) 0.24564(9) 1.1564(3)
C74 C 0.2377(3) 0.27547(9) 1.2108(3)
H115 H 0.2956 0.2799 1.1734
H116 H 0.2918 0.2686 1.2847
C75 C -0.0037(3) 0.21445(9) 0.9940(3)
C76 C 0.0280(3) 0.18315(8) 1.0695(3)
H117 H 0.1131 0.1738 1.0760
C77 C 0.0368(4) 0.19223(9) 1.1793(3)
H118 H 0.0511 0.1711 1.2230
H119 H -0.0447 0.2028 1.1746
C78 C 0.1472(4) 0.21726(9) 1.2315(3)
H120 H 0.1390 0.2276 1.2948
H121 H 0.2294 0.2045 1.2560
C79 C 0.1836(3) 0.45505(8) 1.2407(3)
H122 H 0.2488 0.4598 1.2098
C80 C 0.0876(3) 0.48509(8) 1.2113(3)
H123 H 0.0335 0.4838 1.1341
H124 H 0.0306 0.4824 1.2503
C81 C 0.1503(4) 0.52073(9) 1.2362(3)
H125 H 0.1799 0.5252 1.3136
H126 H 0.2265 0.5211 1.2174
C82 C 0.0592(3) 0.54873(9) 1.1759(3)
C83 C 0.1129(3) 0.57855(9) 1.1324(3)
C84 C 0.2541(4) 0.45217(10) 1.3623(3)
H127 H 0.2891 0.4747 1.3917
H128 H 0.3243 0.4355 1.3792
H129 H 0.1938 0.4445 1.3933
C85 C 0.1474(4) 0.56615(12) 1.0417(4)
H130 H 0.0713 0.5561 0.9858
H131 H 0.2151 0.5487 1.0681
H132 H 0.1782 0.5856 1.0124
C86 C 0.2280(4) 0.59410(10) 1.2223(4)
H133 H 0.2525 0.6157 1.1981
H134 H 0.3002 0.5779 1.2433
H135 H 0.2055 0.5987 1.2835
C87 C -0.0546(3) 0.36385(9) 1.1226(3)
C88 C 0.3061(4) 0.39096(10) 1.1927(4)
H136 H 0.3352 0.3683 1.1795
H137 H 0.3709 0.4009 1.2574
H138 H 0.2933 0.4062 1.1321
C89 C -0.1452(3) 0.22539(9) 0.9585(3)
H139 H -0.1652 0.2292 1.0214
H140 H -0.2008 0.2072 0.9144
H141 H -0.1597 0.2467 0.9170
C90 C 0.0191(4) 0.20401(10) 0.8941(3)
H142 H -0.0135 0.2221 0.8401
H143 H -0.0261 0.1824 0.8658
H144 H 0.1113 0.2009 0.9128
O16 O 0.2275(2) 0.39364(7) 1.7337(2)
H145 H 0.1951 0.3751 1.7034
O17 O 0.2446(2) 0.58365(7) 1.5090(2)
O18 O 0.3512(2) 0.60773(6) 1.6664(2)
H146 H 0.4149 0.6017 1.6533
O19 O 0.0223(3) 0.77388(8) 1.3358(3)
O20 O -0.1223(4) 0.82796(9) 1.3033(3)
H147 H -0.0784 0.8186 1.2733
C91 C 0.0924(3) 0.65993(9) 1.5324(3)
H148 H 0.1625 0.6565 1.5059
C92 C 0.1567(4) 0.66439(9) 1.6560(3)
H149 H 0.2464 0.6725 1.6776
H150 H 0.1089 0.6815 1.6799
C93 C 0.1540(3) 0.62877(9) 1.7062(3)
H151 H 0.2383 0.6233 1.7632
H152 H 0.0873 0.6281 1.7363
C94 C 0.1219(3) 0.60368(9) 1.6121(3)
C95 C 0.0192(3) 0.62498(9) 1.5194(3)
C96 C -0.0218(3) 0.60497(10) 1.4145(3)
H153 H 0.0520 0.6030 1.3929
H154 H -0.0912 0.6176 1.3579
C97 C -0.0693(3) 0.56880(10) 1.4268(3)
H155 H -0.0847 0.5557 1.3606
H156 H -0.1528 0.5711 1.4336
C98 C 0.0218(3) 0.54735(9) 1.5226(3)
H157 H 0.0974 0.5400 1.5070
C99 C 0.0707(3) 0.56807(9) 1.6264(3)
H158 H -0.0057 0.5725 1.6442
C100 C 0.1686(3) 0.54875(9) 1.7221(3)
H159 H 0.2404 0.5411 1.7031
H160 H 0.2042 0.5650 1.7824
C101 C 0.1154(4) 0.51728(10) 1.7597(3)
H161 H 0.1714 0.5125 1.8349
H162 H 0.0289 0.5230 1.7571
C102 C 0.1056(3) 0.48493(10) 1.6948(3)
C103 C 0.0334(3) 0.48473(9) 1.5902(3)
C104 C -0.0500(3) 0.51490(10) 1.5340(3)
H163 H -0.1042 0.5212 1.5733
H164 H -0.1081 0.5073 1.4619
C105 C 0.1848(3) 0.45366(10) 1.7548(3)
C106 C 0.1418(3) 0.42165(10) 1.6840(3)
H165 H 0.0542 0.4152 1.6793
C107 C 0.1331(4) 0.42836(10) 1.5719(3)
H166 H 0.2164 0.4371 1.5745
H167 H 0.1130 0.4067 1.5305
C108 C 0.0288(3) 0.45468(10) 1.5187(3)
H168 H 0.0378 0.4634 1.4537
H169 H -0.0560 0.4433 1.4965
C109 C 0.0161(4) 0.69269(11) 1.4776(4)
H170 H -0.0550 0.6960 1.5028
C110 C 0.1039(5) 0.72509(11) 1.5095(4)
H171 H 0.1698 0.7217 1.5823
H172 H 0.1490 0.7273 1.4606
C111 C 0.0315(6) 0.75897(13) 1.5069(4)
H173 H -0.0421 0.7535 1.5263
H174 H 0.0898 0.7742 1.5633
C112 C -0.0180(4) 0.77871(10) 1.4063(4)
C113 C -0.1152(4) 0.80747(12) 1.3941(4)
C114 C -0.0431(6) 0.68934(13) 1.3568(4)
H175 H 0.0230 0.6823 1.3313
H176 H -0.0791 0.7116 1.3251
H177 H -0.1116 0.6720 1.3361
C115 C -0.0766(6) 0.83030(13) 1.4876(5)
H178 H 0.0061 0.8410 1.4988
H179 H -0.0685 0.8169 1.5507
H180 H -0.1417 0.8482 1.4754
C116 C -0.2450(5) 0.79003(16) 1.3652(5)
H181 H -0.3122 0.8076 1.3489
H182 H -0.2437 0.7760 1.4253
H183 H -0.2626 0.7753 1.3027
C117 C 0.2441(3) 0.59739(8) 1.5878(3)
C118 C -0.1037(3) 0.63158(11) 1.5420(3)
H184 H -0.0828 0.6470 1.6033
H185 H -0.1356 0.6097 1.5577
H186 H -0.1700 0.6422 1.4794
C119 C 0.3286(4) 0.46083(11) 1.7867(3)
H187 H 0.3470 0.4628 1.7224
H188 H 0.3789 0.4419 1.8308
H189 H 0.3517 0.4824 1.8271
C120 C 0.1618(4) 0.44644(11) 1.8574(3)
H190 H 0.1999 0.4650 1.9089
H191 H 0.2016 0.4245 1.8881
H192 H 0.0693 0.4453 1.8401
loop_
_geom_bond_atom_site_label_1
_geom_bond_atom_site_label_2
_geom_bond_site_symmetry_1
_geom_bond_site_symmetry_2
O1 H1 1_555 1_555
O2 C27 1_555 1_555
O3 H2 1_555 1_555
O4 C22 1_555 1_555
O5 H3 1_555 1_555
C1 H4 1_555 1_555
C2 C1 1_555 1_555
H5 C2 1_555 1_555
H6 C2 1_555 1_555
C3 C2 1_555 1_555
H7 C3 1_555 1_555
H8 C3 1_555 1_555
C4 C3 1_555 1_555
C5 C1 1_555 1_555
C6 C5 1_555 1_555
H9 C6 1_555 1_555
H10 C6 1_555 1_555
C7 C6 1_555 1_555
H11 C7 1_555 1_555
H12 C7 1_555 1_555
C8 C7 1_555 1_555
H13 C8 1_555 1_555
C9 C4 1_555 1_555
H14 C9 1_555 1_555
C10 C9 1_555 1_555
H15 C10 1_555 1_555
H16 C10 1_555 1_555
C11 C10 1_555 1_555
H17 C11 1_555 1_555
H18 C11 1_555 1_555
C12 C11 1_555 1_555
C13 C12 1_555 1_555
C14 C8 1_555 1_555
H19 C14 1_555 1_555
H20 C14 1_555 1_555
C15 C12 1_555 1_555
C16 O1 1_555 1_555
H21 C16 1_555 1_555
C17 C16 1_555 1_555
H22 C17 1_555 1_555
H23 C17 1_555 1_555
C18 C13 1_555 1_555
H24 C18 1_555 1_555
H25 C18 1_555 1_555
C19 C1 1_555 1_555
H26 C19 1_555 1_555
C20 C19 1_555 1_555
H27 C20 1_555 1_555
H28 C20 1_555 1_555
C21 C20 1_555 1_555
H29 C21 1_555 1_555
H30 C21 1_555 1_555
C22 C21 1_555 1_555
C23 O5 1_555 1_555
C24 C19 1_555 1_555
H31 C24 1_555 1_555
H32 C24 1_555 1_555
H33 C24 1_555 1_555
C25 C23 1_555 1_555
H34 C25 1_555 1_555
H35 C25 1_555 1_555
H36 C25 1_555 1_555
C26 C23 1_555 1_555
H37 C26 1_555 1_555
H38 C26 1_555 1_555
H39 C26 1_555 1_555
C27 O3 1_555 1_555
C28 C5 1_555 1_555
H40 C28 1_555 1_555
H41 C28 1_555 1_555
H42 C28 1_555 1_555
C29 C15 1_555 1_555
H43 C29 1_555 1_555
H44 C29 1_555 1_555
H45 C29 1_555 1_555
C30 C15 1_555 1_555
H46 C30 1_555 1_555
H47 C30 1_555 1_555
H48 C30 1_555 1_555
O6 H49 1_555 1_555
O7 H50 1_555 1_555
O8 C57 1_555 1_555
O9 C52 1_555 1_555
O10 H51 1_555 1_555
C31 H52 1_555 1_555
C32 C31 1_555 1_555
H53 C32 1_555 1_555
H54 C32 1_555 1_555
C33 C32 1_555 1_555
H55 C33 1_555 1_555
H56 C33 1_555 1_555
C34 C33 1_555 1_555
C35 C31 1_555 1_555
C36 C35 1_555 1_555
H57 C36 1_555 1_555
H58 C36 1_555 1_555
C37 C36 1_555 1_555
H59 C37 1_555 1_555
H60 C37 1_555 1_555
C38 C37 1_555 1_555
H61 C38 1_555 1_555
C39 C34 1_555 1_555
H62 C39 1_555 1_555
C40 C39 1_555 1_555
H63 C40 1_555 1_555
H64 C40 1_555 1_555
C41 C40 1_555 1_555
H65 C41 1_555 1_555
H66 C41 1_555 1_555
C42 C41 1_555 1_555
C43 C42 1_555 1_555
C44 C38 1_555 1_555
H67 C44 1_555 1_555
H68 C44 1_555 1_555
C45 C42 1_555 1_555
C46 O6 1_555 1_555
H69 C46 1_555 1_555
C47 C46 1_555 1_555
H70 C47 1_555 1_555
H71 C47 1_555 1_555
C48 C43 1_555 1_555
H72 C48 1_555 1_555
H73 C48 1_555 1_555
C49 C31 1_555 1_555
H74 C49 1_555 1_555
C50 C49 1_555 1_555
H75 C50 1_555 1_555
H76 C50 1_555 1_555
C51 C50 1_555 1_555
H77 C51 1_555 1_555
H78 C51 1_555 1_555
C52 C51 1_555 1_555
C53 O10 1_555 1_555
C54 C49 1_555 1_555
H79 C54 1_555 1_555
H80 C54 1_555 1_555
H81 C54 1_555 1_555
C55 C53 1_555 1_555
H82 C55 1_555 1_555
H83 C55 1_555 1_555
H84 C55 1_555 1_555
C56 C53 1_555 1_555
H85 C56 1_555 1_555
H86 C56 1_555 1_555
H87 C56 1_555 1_555
C57 O7 1_555 1_555
C58 C35 1_555 1_555
H88 C58 1_555 1_555
H89 C58 1_555 1_555
H90 C58 1_555 1_555
C59 C45 1_555 1_555
H91 C59 1_555 1_555
H92 C59 1_555 1_555
H93 C59 1_555 1_555
C60 C45 1_555 1_555
H94 C60 1_555 1_555
H95 C60 1_555 1_555
H96 C60 1_555 1_555
O11 H97 1_555 1_555
O12 H98 1_555 1_555
O13 C87 1_555 1_555
O14 C82 1_555 1_555
O15 H99 1_555 1_555
C61 H100 1_555 1_555
C62 C61 1_555 1_555
H101 C62 1_555 1_555
H102 C62 1_555 1_555
C63 C62 1_555 1_555
H103 C63 1_555 1_555
H104 C63 1_555 1_555
C64 C63 1_555 1_555
C65 C61 1_555 1_555
C66 C65 1_555 1_555
H105 C66 1_555 1_555
H106 C66 1_555 1_555
C67 C66 1_555 1_555
H107 C67 1_555 1_555
H108 C67 1_555 1_555
C68 C67 1_555 1_555
H109 C68 1_555 1_555
C69 C64 1_555 1_555
H110 C69 1_555 1_555
C70 C69 1_555 1_555
H111 C70 1_555 1_555
H112 C70 1_555 1_555
C71 C70 1_555 1_555
H113 C71 1_555 1_555
H114 C71 1_555 1_555
C72 C71 1_555 1_555
C73 C72 1_555 1_555
C74 C68 1_555 1_555
H115 C74 1_555 1_555
H116 C74 1_555 1_555
C75 C72 1_555 1_555
C76 O11 1_555 1_555
H117 C76 1_555 1_555
C77 C76 1_555 1_555
H118 C77 1_555 1_555
H119 C77 1_555 1_555
C78 C73 1_555 1_555
H120 C78 1_555 1_555
H121 C78 1_555 1_555
C79 C61 1_555 1_555
H122 C79 1_555 1_555
C80 C79 1_555 1_555
H123 C80 1_555 1_555
H124 C80 1_555 1_555
C81 C80 1_555 1_555
H125 C81 1_555 1_555
H126 C81 1_555 1_555
C82 C81 1_555 1_555
C83 O15 1_555 1_555
C84 C79 1_555 1_555
H127 C84 1_555 1_555
H128 C84 1_555 1_555
H129 C84 1_555 1_555
C85 C83 1_555 1_555
H130 C85 1_555 1_555
H131 C85 1_555 1_555
H132 C85 1_555 1_555
C86 C83 1_555 1_555
H133 C86 1_555 1_555
H134 C86 1_555 1_555
H135 C86 1_555 1_555
C87 O12 1_555 1_555
C88 C65 1_555 1_555
H136 C88 1_555 1_555
H137 C88 1_555 1_555
H138 C88 1_555 1_555
C89 C75 1_555 1_555
H139 C89 1_555 1_555
H140 C89 1_555 1_555
H141 C89 1_555 1_555
C90 C75 1_555 1_555
H142 C90 1_555 1_555
H143 C90 1_555 1_555
H144 C90 1_555 1_555
O16 H145 1_555 1_555
O17 C117 1_555 1_555
O18 H146 1_555 1_555
O19 C112 1_555 1_555
O20 H147 1_555 1_555
C91 H148 1_555 1_555
C92 C91 1_555 1_555
H149 C92 1_555 1_555
H150 C92 1_555 1_555
C93 C92 1_555 1_555
H151 C93 1_555 1_555
H152 C93 1_555 1_555
C94 C93 1_555 1_555
C95 C91 1_555 1_555
C96 C95 1_555 1_555
H153 C96 1_555 1_555
H154 C96 1_555 1_555
C97 C96 1_555 1_555
H155 C97 1_555 1_555
H156 C97 1_555 1_555
C98 C97 1_555 1_555
H157 C98 1_555 1_555
C99 C94 1_555 1_555
H158 C99 1_555 1_555
C100 C99 1_555 1_555
H159 C100 1_555 1_555
H160 C100 1_555 1_555
C101 C100 1_555 1_555
H161 C101 1_555 1_555
H162 C101 1_555 1_555
C102 C101 1_555 1_555
C103 C102 1_555 1_555
C104 C98 1_555 1_555
H163 C104 1_555 1_555
H164 C104 1_555 1_555
C105 C102 1_555 1_555
C106 O16 1_555 1_555
H165 C106 1_555 1_555
C107 C106 1_555 1_555
H166 C107 1_555 1_555
H167 C107 1_555 1_555
C108 C103 1_555 1_555
H168 C108 1_555 1_555
H169 C108 1_555 1_555
C109 C91 1_555 1_555
H170 C109 1_555 1_555
C110 C109 1_555 1_555
H171 C110 1_555 1_555
H172 C110 1_555 1_555
C111 C110 1_555 1_555
H173 C111 1_555 1_555
H174 C111 1_555 1_555
C112 C111 1_555 1_555
C113 O20 1_555 1_555
C114 C109 1_555 1_555
H175 C114 1_555 1_555
H176 C114 1_555 1_555
H177 C114 1_555 1_555
C115 C113 1_555 1_555
H178 C115 1_555 1_555
H179 C115 1_555 1_555
H180 C115 1_555 1_555
C116 C113 1_555 1_555
H181 C116 1_555 1_555
H182 C116 1_555 1_555
H183 C116 1_555 1_555
C117 O18 1_555 1_555
C118 C95 1_555 1_555
H184 C118 1_555 1_555
H185 C118 1_555 1_555
H186 C118 1_555 1_555
C119 C105 1_555 1_555
H187 C119 1_555 1_555
H188 C119 1_555 1_555
H189 C119 1_555 1_555
C120 C105 1_555 1_555
H190 C120 1_555 1_555
H191 C120 1_555 1_555
H192 C120 1_555 1_555
C4 C5 1_555 1_555
C4 C27 1_555 1_555
C8 C9 1_555 1_555
C13 C14 1_555 1_555
C15 C16 1_555 1_555
C17 C18 1_555 1_555
C22 C23 1_555 1_555
C34 C35 1_555 1_555
C34 C57 1_555 1_555
C38 C39 1_555 1_555
C43 C44 1_555 1_555
C45 C46 1_555 1_555
C47 C48 1_555 1_555
C52 C53 1_555 1_555
C64 C65 1_555 1_555
C64 C87 1_555 1_555
C68 C69 1_555 1_555
C73 C74 1_555 1_555
C75 C76 1_555 1_555
C77 C78 1_555 1_555
C82 C83 1_555 1_555
C94 C95 1_555 1_555
C94 C117 1_555 1_555
C98 C99 1_555 1_555
C103 C104 1_555 1_555
C105 C106 1_555 1_555
C107 C108 1_555 1_555
C112 C113 1_555 1_555

#END
