
#######################################################################
#
#                 Cambridge Crystallographic Data Centre
#                                CCDC 
#
#######################################################################
#
# If this CIF has been generated from an entry in the Cambridge 
# Structural Database, then it will include bibliographic, chemical, 
# crystal, experimental, refinement or atomic coordinate data resulting 
# from the CCDC's data processing and validation procedures.
#
#######################################################################

data_EZIJIG
_chemical_formula_moiety         'C10 H14 N3 O2 S1'
_chemical_name_systematic        
"4,4,5,5-Tetramethyl-2-(2'-thiazolyl)imidazolin-1-oxyl 3-oxide"
_symmetry_cell_setting           monoclinic
_symmetry_space_group_name_H-M   'C 2/c'
_symmetry_Int_Tables_number      15
_space_group_name_Hall           '-C 2yn'
loop_
_symmetry_equiv_pos_site_id
_symmetry_equiv_pos_as_xyz
1 x,y,z
2 1/2+x,1/2+y,z
3 x,-y,1/2+z
4 1/2+x,1/2-y,1/2+z
5 -x,-y,-z
6 1/2-x,1/2-y,-z
7 -x,y,1/2-z
8 1/2-x,1/2+y,1/2-z
_cell_length_a                   23.257(11)
_cell_length_b                   23.447(10)
_cell_length_c                   9.136(4)
_cell_angle_alpha                90
_cell_angle_beta                 96.458(9)
_cell_angle_gamma                90
_cell_volume                     4950.31
_exptl_crystal_colour            'dark green'
_cell_formula_units_Z            16
_exptl_crystal_recrystallization_method 'cyclohexane/ethyl acetate'
loop_
_atom_site_label
_atom_site_type_symbol
_atom_site_fract_x
_atom_site_fract_y
_atom_site_fract_z
S1 S 1.03569(5) 0.30947(5) 0.47733(16)
O1 O 0.92471(13) 0.27036(13) 0.4498(5)
O2 O 1.03832(12) 0.10896(11) 0.5195(3)
N1 N 1.09621(15) 0.21861(14) 0.4790(4)
N2 N 0.99376(13) 0.14108(13) 0.4981(3)
N3 N 0.93938(14) 0.21780(14) 0.4677(4)
C1 C 1.10835(19) 0.31565(19) 0.4820(5)
C2 C 1.13226(19) 0.26465(19) 0.4813(5)
H1 H 1.1720 0.2602 0.4824
C3 C 1.04289(15) 0.23609(15) 0.4774(4)
C4 C 0.99386(16) 0.19817(15) 0.4804(4)
C5 C 0.93279(17) 0.11729(17) 0.4813(4)
C6 C 0.9247(2) 0.0880(2) 0.3285(5)
H2 H 0.9273 0.1160 0.2529
H3 H 0.8875 0.0699 0.3143
H4 H 0.9544 0.0598 0.3234
C7 C 0.9280(2) 0.07292(18) 0.6008(5)
H5 H 0.9328 0.0911 0.6955
H6 H 0.9576 0.0446 0.5965
H7 H 0.8907 0.0550 0.5857
C8 C 0.89595(17) 0.17199(17) 0.4907(5)
C9 C 0.8773(3) 0.1825(2) 0.6437(6)
H8 H 0.8550 0.2170 0.6424
H9 H 0.9110 0.1861 0.7141
H10 H 0.8542 0.1510 0.6705
C10 C 0.8452(2) 0.1790(2) 0.3720(6)
H11 H 0.8579 0.1726 0.2770
H12 H 0.8299 0.2170 0.3761
H13 H 0.8156 0.1519 0.3879
H28 H 1.1255(17) 0.3512(9) 0.481(4)
S2 S 0.69433(5) 0.53513(5) 0.54377(19)
O3 O 0.73528(17) 0.42711(14) 0.5488(6)
O4 O 0.89122(12) 0.53781(12) 0.4637(4)
N4 N 0.78010(14) 0.59481(13) 0.4852(4)
N5 N 0.78687(15) 0.44048(14) 0.5241(5)
N6 N 0.86032(13) 0.49393(12) 0.4828(3)
C11 C 0.68494(19) 0.60566(19) 0.5228(5)
C12 C 0.73401(19) 0.63041(18) 0.4933(5)
H14 H 0.7367 0.6695 0.4790
C13 C 0.76581(16) 0.54282(16) 0.5097(4)
C14 C 0.80349(16) 0.49406(15) 0.5065(4)
C15 C 0.88564(16) 0.43461(15) 0.4871(4)
C16 C 0.9116(2) 0.4249(2) 0.3411(5)
H15 H 0.9441 0.4497 0.3367
H16 H 0.8828 0.4329 0.2599
H17 H 0.9239 0.3859 0.3357
C17 C 0.93434(19) 0.4327(2) 0.6137(5)
H18 H 0.9653 0.4572 0.5917
H19 H 0.9484 0.3943 0.6264
H20 H 0.9200 0.4453 0.7027
C18 C 0.83193(17) 0.39649(16) 0.5085(4)
C19 C 0.8378(2) 0.3600(2) 0.6471(5)
H21 H 0.8031 0.3381 0.6508
H22 H 0.8437 0.3842 0.7322
H23 H 0.8702 0.3347 0.6457
C20 C 0.8100(2) 0.3598(2) 0.3773(6)
H24 H 0.7772 0.3380 0.4003
H25 H 0.8401 0.3343 0.3549
H26 H 0.7988 0.3837 0.2938
H27 H 0.6495(8) 0.6235(13) 0.528(4)
loop_
_geom_bond_atom_site_label_1
_geom_bond_atom_site_label_2
_geom_bond_site_symmetry_1
_geom_bond_site_symmetry_2
S1 C1 1_555 1_555
S2 C11 1_555 1_555
O1 N3 1_555 1_555
O2 N2 1_555 1_555
O3 N5 1_555 1_555
O4 N6 1_555 1_555
N1 C2 1_555 1_555
N2 C4 1_555 1_555
N3 C4 1_555 1_555
N4 C12 1_555 1_555
N5 C14 1_555 1_555
N6 C14 1_555 1_555
C1 C2 1_555 1_555
C2 H1 1_555 1_555
C3 S1 1_555 1_555
C4 C3 1_555 1_555
C5 N2 1_555 1_555
C6 C5 1_555 1_555
H2 C6 1_555 1_555
H3 C6 1_555 1_555
H4 C6 1_555 1_555
C7 C5 1_555 1_555
H5 C7 1_555 1_555
H6 C7 1_555 1_555
H7 C7 1_555 1_555
C8 N3 1_555 1_555
C9 C8 1_555 1_555
H8 C9 1_555 1_555
H9 C9 1_555 1_555
H10 C9 1_555 1_555
C10 C8 1_555 1_555
H11 C10 1_555 1_555
H12 C10 1_555 1_555
H13 C10 1_555 1_555
C11 C12 1_555 1_555
C12 H14 1_555 1_555
C13 S2 1_555 1_555
C14 C13 1_555 1_555
C15 N6 1_555 1_555
C16 C15 1_555 1_555
H15 C16 1_555 1_555
H16 C16 1_555 1_555
H17 C16 1_555 1_555
C17 C15 1_555 1_555
H18 C17 1_555 1_555
H19 C17 1_555 1_555
H20 C17 1_555 1_555
C18 N5 1_555 1_555
C19 C18 1_555 1_555
H21 C19 1_555 1_555
H22 C19 1_555 1_555
H23 C19 1_555 1_555
C20 C18 1_555 1_555
H24 C20 1_555 1_555
H25 C20 1_555 1_555
H26 C20 1_555 1_555
H27 C11 1_555 1_555
H28 C1 1_555 1_555
N1 C3 1_555 1_555
N4 C13 1_555 1_555
C5 C8 1_555 1_555
C15 C18 1_555 1_555

#END
