
#######################################################################
#
#                 Cambridge Crystallographic Data Centre
#                                CCDC 
#
#######################################################################
#
# If this CIF has been generated from an entry in the Cambridge 
# Structural Database, then it will include bibliographic, chemical, 
# crystal, experimental, refinement or atomic coordinate data resulting 
# from the CCDC's data processing and validation procedures.
#
#######################################################################

data_EZIMUX
_chemical_formula_moiety         'C16 H23 Cl1 O2'
_chemical_name_systematic        
2-(t-butoxy(4-chlorophenyl)methyl)-3-methylbutanal
_symmetry_cell_setting           monoclinic
_symmetry_space_group_name_H-M   'P 21/c'
_symmetry_Int_Tables_number      14
_space_group_name_Hall           '-P 2ybc'
loop_
_symmetry_equiv_pos_site_id
_symmetry_equiv_pos_as_xyz
1 x,y,z
2 -x,1/2+y,1/2-z
3 -x,-y,-z
4 x,1/2-y,1/2+z
_cell_length_a                   8.4532(10)
_cell_length_b                   16.3048(18)
_cell_length_c                   11.7886(14)
_cell_angle_alpha                90
_cell_angle_beta                 97.987(6)
_cell_angle_gamma                90
_cell_volume                     1609.03
_exptl_crystal_colour            colorless
_exptl_crystal_description       Block
_cell_formula_units_Z            4
_exptl_crystal_recrystallization_method 'Re-crystallisation from solvent'
loop_
_atom_site_label
_atom_site_type_symbol
_atom_site_fract_x
_atom_site_fract_y
_atom_site_fract_z
C1 C 1.00709(18) 0.87793(9) 0.66151(13)
H1 H 1.0446 0.8333 0.7157
C2 C 0.91358(18) 0.93951(9) 0.72118(13)
C3 C 0.8750(2) 1.01610(10) 0.67404(15)
H2 H 0.9049 1.0296 0.6025
C4 C 0.7932(2) 1.07279(11) 0.73082(16)
H3 H 0.7685 1.1248 0.6988
C5 C 0.7484(2) 1.05207(11) 0.83481(16)
C6 C 0.7820(2) 0.97657(12) 0.88268(16)
H4 H 0.7489 0.9629 0.9532
C7 C 0.8653(2) 0.92063(11) 0.82571(15)
H5 H 0.8897 0.8688 0.8585
Cl1 Cl 0.64508(7) 1.12318(3) 0.90738(5)
O1 O 1.14125(13) 0.91370(7) 0.61872(9)
C8 C 1.2911(2) 0.92424(11) 0.69466(15)
C9 C 1.3525(3) 0.84356(15) 0.7449(2)
H6 H 1.2841 0.8245 0.7990
H7 H 1.4604 0.8506 0.7840
H8 H 1.3527 0.8035 0.6841
C10 C 1.4008(2) 0.95673(15) 0.6145(2)
H9 H 1.4079 0.9172 0.5539
H10 H 1.5062 0.9659 0.6567
H11 H 1.3588 1.0080 0.5813
C11 C 1.2735(3) 0.98671(18) 0.7870(2)
H12 H 1.2276 1.0367 0.7520
H13 H 1.3776 0.9985 0.8296
H14 H 1.2039 0.9649 0.8386
C12 C 0.91098(19) 0.84085(10) 0.55397(14)
H15 H 0.8814 0.8859 0.4988
C13 C 1.0206(2) 0.78370(11) 0.50207(16)
H16 H 1.0884 0.7504 0.5526
O2 O 1.02897(19) 0.77694(10) 0.40180(12)
C14 C 0.7561(2) 0.79640(12) 0.57407(16)
H17 H 0.6991 0.8327 0.6222
C15 C 0.7869(3) 0.71538(14) 0.6379(2)
H18 H 0.6870 0.6938 0.6569
H19 H 0.8602 0.7244 0.7077
H20 H 0.8333 0.6765 0.5897
C16 C 0.6464(2) 0.78288(13) 0.46195(18)
H21 H 0.6977 0.7464 0.4133
H22 H 0.6245 0.8351 0.4234
H23 H 0.5469 0.7586 0.4776
loop_
_geom_bond_atom_site_label_1
_geom_bond_atom_site_label_2
_geom_bond_site_symmetry_1
_geom_bond_site_symmetry_2
C1 H1 1_555 1_555
C2 C1 1_555 1_555
C3 C2 1_555 1_555
H2 C3 1_555 1_555
C4 C3 1_555 1_555
H3 C4 1_555 1_555
C5 C4 1_555 1_555
C6 C5 1_555 1_555
H4 C6 1_555 1_555
C7 C2 1_555 1_555
H5 C7 1_555 1_555
Cl1 C5 1_555 1_555
O1 C1 1_555 1_555
C8 O1 1_555 1_555
C9 C8 1_555 1_555
H6 C9 1_555 1_555
H7 C9 1_555 1_555
H8 C9 1_555 1_555
C10 C8 1_555 1_555
H9 C10 1_555 1_555
H10 C10 1_555 1_555
H11 C10 1_555 1_555
C11 C8 1_555 1_555
H12 C11 1_555 1_555
H13 C11 1_555 1_555
H14 C11 1_555 1_555
C12 C1 1_555 1_555
H15 C12 1_555 1_555
C13 C12 1_555 1_555
H16 C13 1_555 1_555
O2 C13 1_555 1_555
C14 C12 1_555 1_555
H17 C14 1_555 1_555
C15 C14 1_555 1_555
H18 C15 1_555 1_555
H19 C15 1_555 1_555
H20 C15 1_555 1_555
C16 C14 1_555 1_555
H21 C16 1_555 1_555
H22 C16 1_555 1_555
H23 C16 1_555 1_555
C6 C7 1_555 1_555

#END
