
#######################################################################
#
#                 Cambridge Crystallographic Data Centre
#                                CCDC 
#
#######################################################################
#
# If this CIF has been generated from an entry in the Cambridge 
# Structural Database, then it will include bibliographic, chemical, 
# crystal, experimental, refinement or atomic coordinate data resulting 
# from the CCDC's data processing and validation procedures.
#
#######################################################################

data_EZIVIU
_chemical_formula_moiety         'C21 H18 O2'
_chemical_name_systematic        'phenyl 2-(biphenyl-4-yl)propanoate'
_symmetry_cell_setting           orthorhombic
_symmetry_space_group_name_H-M   'P 21 21 21'
_symmetry_Int_Tables_number      19
_space_group_name_Hall           'P 2ac 2ab'
loop_
_symmetry_equiv_pos_site_id
_symmetry_equiv_pos_as_xyz
1 x,y,z
2 1/2-x,-y,1/2+z
3 -x,1/2+y,1/2-z
4 1/2+x,1/2-y,-z
_cell_length_a                   12.151(2)
_cell_length_b                   23.564(5)
_cell_length_c                   5.8640(12)
_cell_angle_alpha                90
_cell_angle_beta                 90
_cell_angle_gamma                90
_cell_volume                     1679.02
_exptl_crystal_colour            colorless
_exptl_crystal_description       block
_cell_formula_units_Z            4
loop_
_atom_site_label
_atom_site_type_symbol
_atom_site_fract_x
_atom_site_fract_y
_atom_site_fract_z
O1 O 0.9065(2) -0.01768(11) 0.3782(5)
C1 C 1.0475(4) 0.29530(17) 0.8819(9)
H1 H 0.9875 0.3076 0.7968
O2 O 1.0012(2) 0.02719(10) 0.1043(5)
C2 C 1.0999(6) 0.3328(2) 1.0330(10)
H2 H 1.0740 0.3698 1.0490
C3 C 1.1885(5) 0.3154(3) 1.1557(10)
H3 H 1.2231 0.3402 1.2558
C4 C 1.2262(4) 0.2618(3) 1.1320(11)
H4 H 1.2869 0.2499 1.2159
C5 C 1.1758(4) 0.2250(2) 0.9859(9)
H5 H 1.2036 0.1884 0.9708
C6 C 1.0844(3) 0.24058(15) 0.8595(7)
C7 C 1.0277(3) 0.19977(16) 0.7048(7)
C8 C 1.0131(3) 0.14357(16) 0.7724(7)
H6 H 1.0398 0.1318 0.9134
C9 C 0.9599(3) 0.10516(15) 0.6346(7)
H7 H 0.9521 0.0678 0.6837
C10 C 0.9177(3) 0.12075(14) 0.4242(6)
C11 C 0.9313(3) 0.17659(15) 0.3569(7)
H8 H 0.9036 0.1884 0.2169
C12 C 0.9856(3) 0.21526(16) 0.4958(7)
H9 H 0.9937 0.2525 0.4464
C13 C 0.8561(3) 0.07827(14) 0.2788(7)
H10 H 0.8493 0.0938 0.1245
C14 C 0.7408(3) 0.06732(17) 0.3713(8)
H11 H 0.7037 0.0405 0.2749
H12 H 0.7002 0.1023 0.3741
H13 H 0.7459 0.0523 0.5231
C15 C 0.9210(3) 0.02379(16) 0.2654(6)
C16 C 1.0744(3) -0.01884(16) 0.0816(7)
C17 C 1.1524(3) -0.02856(18) 0.2452(8)
H14 H 1.1542 -0.0065 0.3767
C18 C 1.2282(3) -0.07133(19) 0.2137(9)
H15 H 1.2811 -0.0785 0.3246
C19 C 1.2254(4) -0.10352(19) 0.0167(9)
H16 H 1.2760 -0.1326 -0.0047
C20 C 1.1471(3) -0.09232(17) -0.1483(9)
H17 H 1.1460 -0.1135 -0.2820
C21 C 1.0707(3) -0.04994(16) -0.1158(8)
H18 H 1.0176 -0.0425 -0.2259
loop_
_geom_bond_atom_site_label_1
_geom_bond_atom_site_label_2
_geom_bond_site_symmetry_1
_geom_bond_site_symmetry_2
O1 C15 1_555 1_555
C1 H1 1_555 1_555
O2 C15 1_555 1_555
C2 C1 1_555 1_555
H2 C2 1_555 1_555
C3 C2 1_555 1_555
H3 C3 1_555 1_555
C4 C3 1_555 1_555
H4 C4 1_555 1_555
C5 C4 1_555 1_555
H5 C5 1_555 1_555
C6 C1 1_555 1_555
C7 C6 1_555 1_555
C8 C7 1_555 1_555
H6 C8 1_555 1_555
C9 C8 1_555 1_555
H7 C9 1_555 1_555
C10 C9 1_555 1_555
C11 C10 1_555 1_555
H8 C11 1_555 1_555
C12 C7 1_555 1_555
H9 C12 1_555 1_555
C13 C10 1_555 1_555
H10 C13 1_555 1_555
C14 C13 1_555 1_555
H11 C14 1_555 1_555
H12 C14 1_555 1_555
H13 C14 1_555 1_555
C15 C13 1_555 1_555
C16 O2 1_555 1_555
C17 C16 1_555 1_555
H14 C17 1_555 1_555
C18 C17 1_555 1_555
H15 C18 1_555 1_555
C19 C18 1_555 1_555
H16 C19 1_555 1_555
C20 C19 1_555 1_555
H17 C20 1_555 1_555
C21 C16 1_555 1_555
H18 C21 1_555 1_555
C5 C6 1_555 1_555
C11 C12 1_555 1_555
C20 C21 1_555 1_555

#END
