
#######################################################################
#
#                 Cambridge Crystallographic Data Centre
#                                CCDC 
#
#######################################################################
#
# If this CIF has been generated from an entry in the Cambridge 
# Structural Database, then it will include bibliographic, chemical, 
# crystal, experimental, refinement or atomic coordinate data resulting 
# from the CCDC's data processing and validation procedures.
#
#######################################################################

data_EZIVUG
_chemical_compound_source        'culture of Daldinia eschscholzii IFB-TL01'
_chemical_name_common            selesconol
_chemical_formula_moiety         'C29 H18 O6'
_chemical_name_systematic        
1,6,11-trihydroxy-8a,9-dihydro-7H-benzo[4,5]cyclohepta[1,2,3-gh]benzo[no]pleiadene-7,10,17(8H,8bH)-trione
_chemical_properties_biological  
'skeletally unprecedented inducer for the differentiation of rat bone marrow mesenchymal stem cells into neural cells'
_symmetry_cell_setting           triclinic
_symmetry_space_group_name_H-M   'P -1'
_symmetry_Int_Tables_number      2
_space_group_name_Hall           '-P 1'
loop_
_symmetry_equiv_pos_site_id
_symmetry_equiv_pos_as_xyz
1 x,y,z
2 -x,-y,-z
_cell_length_a                   9.2923(7)
_cell_length_b                   11.3936(8)
_cell_length_c                   11.6396(9)
_cell_angle_alpha                103.190(4)
_cell_angle_beta                 103.534(4)
_cell_angle_gamma                111.799(4)
_cell_volume                     1042.46
_cell_formula_units_Z            2
loop_
_atom_site_label
_atom_site_type_symbol
_atom_site_fract_x
_atom_site_fract_y
_atom_site_fract_z
C1 C 1.2435(2) 0.36572(16) 0.17497(16)
C2 C 1.23560(19) 0.40333(15) 0.30220(15)
C3 C 1.3357(2) 0.53902(16) 0.38346(16)
C4 C 1.3185(2) 0.58534(17) 0.49882(18)
H1 H 1.3820 0.6754 0.5504
C5 C 1.2091(3) 0.49896(18) 0.53578(17)
H2 H 1.1958 0.5310 0.6116
C6 C 1.1163(2) 0.36270(17) 0.46131(16)
H3 H 1.0450 0.3043 0.4895
C7 C 1.12931(19) 0.31359(15) 0.34608(14)
C8 C 1.03537(18) 0.16465(14) 0.27848(14)
C9 C 1.06288(19) 0.07856(15) 0.33522(14)
C10 C 1.2196(2) 0.12670(16) 0.43546(15)
H4 H 1.2776 0.2183 0.4829
C11 C 1.2843(2) 0.04505(17) 0.46254(16)
H5 H 1.3879 0.0815 0.5249
C12 C 1.1960(2) -0.09811(18) 0.39683(17)
C13 C 1.0249(2) -0.15405(16) 0.31082(15)
C14 C 0.9291(2) -0.29510(16) 0.25994(16)
C15 C 0.7608(2) -0.35024(16) 0.19195(17)
H6 H 0.6968 -0.4433 0.1572
C16 C 0.6901(2) -0.26565(15) 0.17663(15)
H7 H 0.5763 -0.3037 0.1345
C17 C 0.78089(19) -0.12476(15) 0.22134(14)
C18 C 0.95325(19) -0.06764(15) 0.28532(14)
C19 C 0.90482(18) 0.10656(14) 0.14862(14)
H8 H 0.9060 0.0229 0.1043
C20 C 0.74156(18) 0.06619(15) 0.16847(14)
C21 C 0.68632(19) -0.04578(15) 0.20474(14)
C22 C 0.5338(2) -0.08473(17) 0.22376(15)
H9 H 0.4932 -0.1604 0.2465
C23 C 0.4436(2) -0.01415(19) 0.20963(16)
H10 H 0.3448 -0.0409 0.2252
C24 C 0.4981(2) 0.09664(19) 0.17232(16)
C25 C 0.6493(2) 0.13900(16) 0.15106(15)
C26 C 0.7060(2) 0.25361(16) 0.10853(16)
C27 C 0.8718(2) 0.30240(17) 0.09389(18)
H11 H 0.9529 0.3757 0.1707
H12 H 0.8668 0.3382 0.0258
C28 C 0.93028(19) 0.19322(15) 0.06628(14)
H13 H 0.8591 0.1321 -0.0201
C29 C 1.1070(2) 0.24515(16) 0.06613(15)
H14 H 1.1366 0.1713 0.0597
H15 H 1.1061 0.2663 -0.0101
O1 O 1.36119(18) 0.43728(14) 0.15154(14)
O2 O 1.44656(18) 0.62846(12) 0.35268(14)
H16 H 1.4499 0.5904 0.2852
O3 O 1.26324(18) -0.17233(14) 0.41417(15)
O4 O 0.99524(18) -0.37868(12) 0.27740(14)
H17 H 1.0952 -0.3347 0.3163
O5 O 0.40242(17) 0.16010(16) 0.15645(16)
H18 H 0.4482 0.2249 0.1364
O6 O 0.62079(17) 0.31307(13) 0.08769(15)
loop_
_geom_bond_atom_site_label_1
_geom_bond_atom_site_label_2
_geom_bond_site_symmetry_1
_geom_bond_site_symmetry_2
C1 C2 1_555 1_555
C2 C3 1_555 1_555
C3 C4 1_555 1_555
C4 H1 1_555 1_555
C5 C4 1_555 1_555
H2 C5 1_555 1_555
C6 C5 1_555 1_555
H3 C6 1_555 1_555
C7 C2 1_555 1_555
C8 C7 1_555 1_555
C9 C8 1_555 1_555
C10 C9 1_555 1_555
H4 C10 1_555 1_555
C11 C10 1_555 1_555
H5 C11 1_555 1_555
C12 C11 1_555 1_555
C13 C12 1_555 1_555
C14 C13 1_555 1_555
C15 C14 1_555 1_555
H6 C15 1_555 1_555
C16 C15 1_555 1_555
H7 C16 1_555 1_555
C17 C16 1_555 1_555
C18 C9 1_555 1_555
C19 C8 1_555 1_555
H8 C19 1_555 1_555
C20 C19 1_555 1_555
C21 C17 1_555 1_555
C22 C21 1_555 1_555
H9 C22 1_555 1_555
C23 C22 1_555 1_555
H10 C23 1_555 1_555
C24 C23 1_555 1_555
C25 C20 1_555 1_555
C26 C25 1_555 1_555
C27 C26 1_555 1_555
H11 C27 1_555 1_555
H12 C27 1_555 1_555
C28 C19 1_555 1_555
H13 C28 1_555 1_555
C29 C1 1_555 1_555
H14 C29 1_555 1_555
H15 C29 1_555 1_555
O1 C1 1_555 1_555
O2 C3 1_555 1_555
H16 O2 1_555 1_555
O3 C12 1_555 1_555
O4 C14 1_555 1_555
H17 O4 1_555 1_555
O5 C24 1_555 1_555
H18 O5 1_555 1_555
O6 C26 1_555 1_555
C6 C7 1_555 1_555
C13 C18 1_555 1_555
C17 C18 1_555 1_555
C20 C21 1_555 1_555
C24 C25 1_555 1_555
C27 C28 1_555 1_555
C28 C29 1_555 1_555

#END
