
#######################################################################
#
#                 Cambridge Crystallographic Data Centre
#                                CCDC 
#
#######################################################################
#
# If this CIF has been generated from an entry in the Cambridge 
# Structural Database, then it will include bibliographic, chemical, 
# crystal, experimental, refinement or atomic coordinate data resulting 
# from the CCDC's data processing and validation procedures.
#
#######################################################################

data_EZIXUI
_chemical_name_common            'Verubecestat (MK-8931)'
_chemical_formula_moiety         'C17 H17 F2 N5 O3 S1'
_chemical_name_systematic        
N-(3-((5R)-3-amino-2,5-dimethyl-1,1-dioxido-5,6-dihydro-2H-1,2,4-thiadiazin-5-yl)-4-fluorophenyl)-5-fluoropyridine-2-carboxamide
_chemical_properties_biological  
'safety, pharmacokinetics, and pharmacodynamics assessed in Phase 1 clinical trials for mild to moderate and prodromal Alzheimer s disease'
_symmetry_cell_setting           orthorhombic
_symmetry_space_group_name_H-M   'P 21 21 2'
_symmetry_Int_Tables_number      18
_space_group_name_Hall           'P 2 2ab'
loop_
_symmetry_equiv_pos_site_id
_symmetry_equiv_pos_as_xyz
1 x,y,z
2 1/2+x,1/2-y,-z
3 1/2-x,1/2+y,-z
4 -x,-y,z
_cell_length_a                   12.5926(3)
_cell_length_b                   12.6632(3)
_cell_length_c                   11.5816(2)
_cell_angle_alpha                90
_cell_angle_beta                 90
_cell_angle_gamma                90
_cell_volume                     1846.83
_exptl_crystal_colour            colorless
_exptl_crystal_description       'cut block'
_cell_formula_units_Z            4
_exptl_crystal_recrystallization_method 'ethyl acetate'
loop_
_atom_site_label
_atom_site_type_symbol
_atom_site_fract_x
_atom_site_fract_y
_atom_site_fract_z
S1 S 0.81882(5) 0.68645(5) 0.71492(5)
O1 O 0.80069(18) 0.70191(17) 0.83468(15)
O2 O 0.8105(2) 0.58075(17) 0.6738(2)
N1 N 0.9371(2) 0.73041(18) 0.6781(2)
C1 C 0.9526(2) 0.83692(19) 0.64799(19)
N2 N 0.88232(17) 0.90827(16) 0.63777(16)
N3 N 1.0557(2) 0.8600(2) 0.6213(2)
H1 H 1.107(3) 0.828(3) 0.646(3)
H2 H 1.069(3) 0.925(3) 0.617(3)
C2 C 0.7697(2) 0.8902(2) 0.6599(2)
C3 C 0.7395(2) 0.7731(2) 0.6361(2)
H3 H 0.7475 0.7584 0.5544
H4 H 0.6656 0.7619 0.6565
C4 C 1.0267(3) 0.6594(3) 0.7047(5)
H5 H 1.0779 0.6626 0.6434
H6 H 1.0011 0.5884 0.7124
H7 H 1.0595 0.6811 0.7757
C5 C 0.7075(3) 0.9589(3) 0.5744(3)
H8 H 0.7226 1.0320 0.5890
H9 H 0.6329 0.9464 0.5838
H10 H 0.7283 0.9414 0.4970
C6 C 0.74061(18) 0.92420(19) 0.7840(2)
C7 C 0.6403(2) 0.9081(2) 0.8309(3)
F1 F 0.56218(13) 0.86723(15) 0.76333(19)
C8 C 0.6150(2) 0.9294(2) 0.9444(3)
H11 H 0.5485 0.9120 0.9738
C9 C 0.6902(2) 0.9770(2) 1.0136(3)
H12 H 0.6749 0.9921 1.0904
C10 C 0.78824(17) 1.00192(18) 0.9681(2)
C11 C 0.81439(18) 0.97305(17) 0.8550(2)
H13 H 0.8822 0.9868 0.8271
N4 N 0.86396(17) 1.05189(17) 1.03970(19)
H14 H 0.861(2) 1.043(2) 1.108(3)
C12 C 0.93465(19) 1.12547(19) 1.00640(19)
O3 O 0.94335(19) 1.15954(18) 0.90833(16)
C13 C 1.00810(19) 1.16169(19) 1.10100(19)
N5 N 0.98632(16) 1.12886(17) 1.20811(17)
C14 C 1.0541(2) 1.1564(2) 1.2910(2)
H15 H 1.0413 1.1349 1.3665
F2 F 1.20914(17) 1.2419(2) 1.35595(18)
C15 C 1.1425(2) 1.2160(2) 1.2673(2)
C16 C 1.1656(2) 1.2507(2) 1.1593(2)
H16 H 1.2257 1.2910 1.1441
C17 C 1.0951(2) 1.2231(2) 1.0732(2)
H17 H 1.1060 1.2455 0.9977
loop_
_geom_bond_atom_site_label_1
_geom_bond_atom_site_label_2
_geom_bond_site_symmetry_1
_geom_bond_site_symmetry_2
S1 O1 1_555 1_555
O2 S1 1_555 1_555
N1 S1 1_555 1_555
C1 N1 1_555 1_555
N2 C1 1_555 1_555
N3 C1 1_555 1_555
H1 N3 1_555 1_555
H2 N3 1_555 1_555
C2 N2 1_555 1_555
C3 S1 1_555 1_555
H3 C3 1_555 1_555
H4 C3 1_555 1_555
C4 N1 1_555 1_555
H5 C4 1_555 1_555
H6 C4 1_555 1_555
H7 C4 1_555 1_555
C5 C2 1_555 1_555
H8 C5 1_555 1_555
H9 C5 1_555 1_555
H10 C5 1_555 1_555
C6 C2 1_555 1_555
C7 C6 1_555 1_555
F1 C7 1_555 1_555
C8 C7 1_555 1_555
H11 C8 1_555 1_555
C9 C8 1_555 1_555
H12 C9 1_555 1_555
C10 C9 1_555 1_555
C11 C6 1_555 1_555
H13 C11 1_555 1_555
N4 C10 1_555 1_555
H14 N4 1_555 1_555
C12 N4 1_555 1_555
O3 C12 1_555 1_555
C13 C12 1_555 1_555
N5 C13 1_555 1_555
C14 N5 1_555 1_555
H15 C14 1_555 1_555
F2 C15 1_555 1_555
C15 C14 1_555 1_555
C16 C15 1_555 1_555
H16 C16 1_555 1_555
C17 C13 1_555 1_555
H17 C17 1_555 1_555
C2 C3 1_555 1_555
C10 C11 1_555 1_555
C16 C17 1_555 1_555

#END
