
#######################################################################
#
#                 Cambridge Crystallographic Data Centre
#                                CCDC 
#
#######################################################################
#
# If this CIF has been generated from an entry in the Cambridge 
# Structural Database, then it will include bibliographic, chemical, 
# crystal, experimental, refinement or atomic coordinate data resulting 
# from the CCDC's data processing and validation procedures.
#
#######################################################################

data_EZIYUJ
_chemical_formula_moiety         'C28 H31 N1 O7 S1'
_chemical_name_systematic        
'dimethyl 1-cyclohexyl-8-((((4-methylphenyl)sulfonyl)amino)methyl)-11-oxatricyclo[6.2.1.0^2,7^]undeca-2,4,6,9-tetraene-9,10-dicarboxylate'
_symmetry_cell_setting           monoclinic
_symmetry_space_group_name_H-M   'P 21/c'
_symmetry_Int_Tables_number      14
_space_group_name_Hall           '-P 2ybc'
loop_
_symmetry_equiv_pos_site_id
_symmetry_equiv_pos_as_xyz
1 x,y,z
2 -x,1/2+y,1/2-z
3 -x,-y,-z
4 x,1/2-y,1/2+z
_cell_length_a                   16.125(6)
_cell_length_b                   19.416(6)
_cell_length_c                   9.015(3)
_cell_angle_alpha                90
_cell_angle_beta                 102.099(16)
_cell_angle_gamma                90
_cell_volume                     2759.75
_exptl_crystal_colour            colorless
_exptl_crystal_description       Prism
_cell_formula_units_Z            4
loop_
_atom_site_label
_atom_site_type_symbol
_atom_site_fract_x
_atom_site_fract_y
_atom_site_fract_z
S1 S 1.01727(5) 0.38540(4) 0.98724(10)
O1 O 0.75274(13) 0.46411(12) 0.8633(2)
O2 O 1.06134(14) 0.43689(13) 1.0892(3)
O3 O 1.01422(15) 0.31550(12) 1.0399(3)
O4 O 0.82668(19) 0.28676(15) 1.1580(3)
O5 O 0.87144(18) 0.37948(14) 1.2997(3)
O6 O 0.7009(2) 0.4135(3) 1.3295(4)
N1 N 0.92185(16) 0.41270(15) 0.9365(3)
H1 H 0.9111 0.4543 0.9593
C1 C 0.6873(2) 0.3592(2) 0.8301(4)
C2 C 1.0637(2) 0.38380(15) 0.8275(4)
C3 C 1.1459(3) 0.3824(2) 0.5847(5)
C4 C 1.0901(2) 0.3227(2) 0.7755(4)
H2 H 1.0805 0.2816 0.8220
C5 C 0.6265(2) 0.4087(2) 0.8454(4)
C6 C 0.8253(2) 0.3480(2) 1.1820(4)
C7 C 0.6418(2) 0.5423(2) 0.9093(4)
H3 H 0.5906 0.5434 0.9518
C8 C 1.0771(2) 0.4453(2) 0.7565(4)
H4 H 1.0587 0.4867 0.7901
C9 C 0.7745(2) 0.39621(19) 1.0733(4)
C10 C 0.7720(2) 0.39298(18) 0.9021(4)
C11 C 0.8525(2) 0.3710(2) 0.8538(4)
H5 H 0.8636 0.3226 0.8764
H6 H 0.8467 0.3777 0.7455
C12 C 0.5183(3) 0.3332(3) 0.7274(7)
H7 H 0.4611 0.3238 0.6905
C13 C 0.5412(3) 0.3965(3) 0.7973(5)
H8 H 0.5008 0.4288 0.8105
C14 C 0.7135(2) 0.44192(19) 1.0882(4)
C15 C 0.6767(2) 0.4697(2) 0.9269(4)
C16 C 0.6717(4) 0.6676(3) 0.9765(7)
H9 H 0.6215 0.6719 1.0193
H10 H 0.7145 0.6987 1.0310
C17 C 1.1918(4) 0.3832(3) 0.4537(6)
H11 H 1.2518 0.3798 0.4926
H12 H 1.1794 0.4254 0.3980
H13 H 1.1732 0.3449 0.3877
C18 C 1.1177(3) 0.4448(2) 0.6366(5)
H14 H 1.1266 0.4860 0.5895
C19 C 1.1306(3) 0.3218(2) 0.6553(5)
H15 H 1.1478 0.2800 0.6212
C20 C 0.5856(5) 0.6392(3) 0.7266(7)
H16 H 0.5742 0.6520 0.6203
H17 H 0.5331 0.6435 0.7623
C21 C 0.6643(3) 0.2953(2) 0.7659(5)
H18 H 0.7047 0.2618 0.7597
C22 C 0.6734(3) 0.4516(3) 1.2179(5)
C23 C 0.6165(3) 0.5633(2) 0.7437(5)
H19 H 0.5715 0.5332 0.6921
H20 H 0.6647 0.5577 0.6960
C24 C 0.6505(4) 0.6874(3) 0.8150(8)
H21 H 0.7014 0.6862 0.7736
H22 H 0.6286 0.7340 0.8056
C25 C 0.7044(3) 0.5942(2) 0.9972(6)
H23 H 0.7155 0.5826 1.1042
H24 H 0.7576 0.5911 0.9634
C26 C 0.9237(3) 0.3354(3) 1.4117(6)
H25 H 0.8880 0.3050 1.4545
H26 H 0.9565 0.3633 1.4907
H27 H 0.9611 0.3088 1.3641
C27 C 0.6643(4) 0.4174(5) 1.4630(6)
H28 H 0.7033 0.4400 1.5433
H29 H 0.6530 0.3717 1.4946
H30 H 0.6123 0.4430 1.4395
C28 C 0.5783(4) 0.2834(3) 0.7112(7)
H31 H 0.5606 0.2419 0.6633
O7 O 0.5974(11) 0.4706(18) 1.194(2)
O8? O 0.641(2) 0.5067(10) 1.248(2)
loop_
_geom_bond_atom_site_label_1
_geom_bond_atom_site_label_2
_geom_bond_site_symmetry_1
_geom_bond_site_symmetry_2
S1 O2 1_555 1_555
O1 C10 1_555 1_555
O3 S1 1_555 1_555
O4 C6 1_555 1_555
O5 C6 1_555 1_555
O6 C22 1_555 1_555
N1 S1 1_555 1_555
H1 N1 1_555 1_555
C1 C5 1_555 1_555
C2 S1 1_555 1_555
C3 C17 1_555 1_555
C4 C2 1_555 1_555
H2 C4 1_555 1_555
C5 C13 1_555 1_555
C6 C9 1_555 1_555
C7 H3 1_555 1_555
C8 C2 1_555 1_555
H4 C8 1_555 1_555
C9 C10 1_555 1_555
C10 C1 1_555 1_555
C11 N1 1_555 1_555
H5 C11 1_555 1_555
H6 C11 1_555 1_555
C12 H7 1_555 1_555
C13 C12 1_555 1_555
H8 C13 1_555 1_555
C14 C9 1_555 1_555
C15 O1 1_555 1_555
C16 H9 1_555 1_555
H10 C16 1_555 1_555
C17 H11 1_555 1_555
H12 C17 1_555 1_555
H13 C17 1_555 1_555
C18 C3 1_555 1_555
H14 C18 1_555 1_555
C19 C3 1_555 1_555
H15 C19 1_555 1_555
C20 H16 1_555 1_555
H17 C20 1_555 1_555
C21 C1 1_555 1_555
H18 C21 1_555 1_555
C22 C14 1_555 1_555
C23 C7 1_555 1_555
H19 C23 1_555 1_555
H20 C23 1_555 1_555
C24 C16 1_555 1_555
H21 C24 1_555 1_555
H22 C24 1_555 1_555
C25 C7 1_555 1_555
H23 C25 1_555 1_555
H24 C25 1_555 1_555
C26 O5 1_555 1_555
H25 C26 1_555 1_555
H26 C26 1_555 1_555
H27 C26 1_555 1_555
C27 O6 1_555 1_555
H28 C27 1_555 1_555
H29 C27 1_555 1_555
H30 C27 1_555 1_555
C28 C12 1_555 1_555
H31 C28 1_555 1_555
O7 C22 1_555 1_555
C4 C19 1_555 1_555
C5 C15 1_555 1_555
C7 C15 1_555 1_555
C8 C18 1_555 1_555
C10 C11 1_555 1_555
C14 C15 1_555 1_555
C16 C25 1_555 1_555
C20 C23 1_555 1_555
C20 C24 1_555 1_555
C21 C28 1_555 1_555

#END
