
#######################################################################
#
#                 Cambridge Crystallographic Data Centre
#                                CCDC 
#
#######################################################################
#
# If this CIF has been generated from an entry in the Cambridge 
# Structural Database, then it will include bibliographic, chemical, 
# crystal, experimental, refinement or atomic coordinate data resulting 
# from the CCDC's data processing and validation procedures.
#
#######################################################################

data_EZIYOD
_chemical_formula_moiety         'C23 H23 N1 O7 S1'
_chemical_name_systematic        
'dimethyl 1-methyl-8-((((4-methylphenyl)sulfonyl)amino)methyl)-11-oxatricyclo[6.2.1.0^2,7^]undeca-2,4,6,9-tetraene-9,10-dicarboxylate'
_symmetry_cell_setting           monoclinic
_symmetry_space_group_name_H-M   'P 21/c'
_symmetry_Int_Tables_number      14
_space_group_name_Hall           '-P 2ybc'
loop_
_symmetry_equiv_pos_site_id
_symmetry_equiv_pos_as_xyz
1 x,y,z
2 -x,1/2+y,1/2-z
3 -x,-y,-z
4 x,1/2-y,1/2+z
_cell_length_a                   12.0449(8)
_cell_length_b                   17.5590(3)
_cell_length_c                   11.2780(2)
_cell_angle_alpha                90
_cell_angle_beta                 105.674(7)
_cell_angle_gamma                90
_cell_volume                     2296.56
_exptl_crystal_colour            colorless
_exptl_crystal_description       prism
_cell_formula_units_Z            4
loop_
_atom_site_label
_atom_site_type_symbol
_atom_site_fract_x
_atom_site_fract_y
_atom_site_fract_z
S1 S 0.58855(6) 0.21865(5) 0.02203(6)
O1 O 0.22010(16) 0.28844(12) -0.03010(16)
O2 O 0.59493(18) 0.18203(14) -0.08947(18)
O3 O 0.62335(19) 0.17803(13) 0.13581(17)
O4 O 0.39967(19) 0.15383(14) 0.28803(18)
O5 O 0.35398(18) 0.07374(12) 0.1304(2)
O6 O -0.03813(18) 0.15216(15) 0.0436(2)
O7 O 0.0986(2) 0.06586(15) 0.1109(2)
N1 N 0.4540(2) 0.24140(16) 0.0006(2)
H1 H 0.424(3) 0.2616(17) -0.072(3)
C1 C 0.1482(2) 0.18922(17) 0.0579(2)
C2 C 0.2620(2) 0.19249(17) 0.1089(2)
C3 C 0.6665(2) 0.30416(17) 0.0389(2)
C4 C 0.1278(2) 0.32234(17) 0.1127(2)
C5 C 0.4220(2) 0.29042(19) 0.0916(3)
H2 H 0.4309 0.3435 0.0722
H3 H 0.4719 0.2801 0.1731
C6 C 0.3445(2) 0.13807(18) 0.1872(2)
C7 C 0.2985(2) 0.27483(17) 0.0891(2)
C8 C 0.1148(3) 0.26955(18) 0.0019(2)
C9 C 0.2446(2) 0.32603(17) 0.1687(2)
C10 C 0.7075(3) 0.3375(2) 0.1549(2)
H4 H 0.6999 0.3122 0.2247
C11 C 0.6806(3) 0.3410(2) -0.0641(2)
H5 H 0.6552 0.3187 -0.1415
C12 C 0.2886(3) 0.37093(18) 0.2697(2)
H6 H 0.3675 0.3734 0.3067
C13 C 0.0946(3) 0.4091(2) 0.2598(3)
H7 H 0.0444 0.4382 0.2908
C14 C 0.7730(3) 0.4461(2) 0.0632(3)
C15 C 0.0703(2) 0.12868(19) 0.0735(2)
C16 C 0.0498(3) 0.36240(19) 0.1577(3)
H8 H -0.0291 0.3586 0.1218
C17 C 0.0103(3) 0.2797(2) -0.1073(3)
H9 H -0.0581 0.2668 -0.0836
H10 H 0.0058 0.3317 -0.1343
H11 H 0.0171 0.2470 -0.1732
C18 C 0.7591(3) 0.4076(2) 0.1656(3)
H12 H 0.7853 0.4298 0.2430
C19 C 0.2102(3) 0.4130(2) 0.3150(3)
H13 H 0.2372 0.4440 0.3836
C20 C 0.7332(3) 0.4119(2) -0.0503(3)
H14 H 0.7420 0.4371 -0.1198
C21 C 0.8289(4) 0.5232(2) 0.0760(4)
H15 H 0.8509 0.5378 0.1611
H16 H 0.8960 0.5213 0.0456
H17 H 0.7753 0.5598 0.0293
C22 C -0.1233(3) 0.0988(3) 0.0604(5)
H18 H -0.1982 0.1220 0.0359
H19 H -0.1225 0.0544 0.0109
H20 H -0.1060 0.0843 0.1455
C23 C 0.4416(3) 0.0218(2) 0.1963(4)
H21 H 0.4414 -0.0229 0.1473
H22 H 0.5157 0.0461 0.2130
H23 H 0.4261 0.0077 0.2725
loop_
_geom_bond_atom_site_label_1
_geom_bond_atom_site_label_2
_geom_bond_site_symmetry_1
_geom_bond_site_symmetry_2
S1 O2 1_555 1_555
O1 C7 1_555 1_555
O3 S1 1_555 1_555
O4 C6 1_555 1_555
O5 C6 1_555 1_555
O6 C15 1_555 1_555
O7 C15 1_555 1_555
N1 S1 1_555 1_555
H1 N1 1_555 1_555
C1 C2 1_555 1_555
C2 C6 1_555 1_555
C3 S1 1_555 1_555
C4 C8 1_555 1_555
C5 N1 1_555 1_555
H2 C5 1_555 1_555
H3 C5 1_555 1_555
C7 C2 1_555 1_555
C8 O1 1_555 1_555
C9 C4 1_555 1_555
C10 C3 1_555 1_555
H4 C10 1_555 1_555
C11 C3 1_555 1_555
H5 C11 1_555 1_555
C12 C9 1_555 1_555
H6 C12 1_555 1_555
C13 H7 1_555 1_555
C14 C18 1_555 1_555
C15 C1 1_555 1_555
C16 C4 1_555 1_555
H8 C16 1_555 1_555
C17 C8 1_555 1_555
H9 C17 1_555 1_555
H10 C17 1_555 1_555
H11 C17 1_555 1_555
C18 C10 1_555 1_555
H12 C18 1_555 1_555
C19 C12 1_555 1_555
H13 C19 1_555 1_555
C20 C11 1_555 1_555
H14 C20 1_555 1_555
C21 C14 1_555 1_555
H15 C21 1_555 1_555
H16 C21 1_555 1_555
H17 C21 1_555 1_555
C22 O6 1_555 1_555
H18 C22 1_555 1_555
H19 C22 1_555 1_555
H20 C22 1_555 1_555
C23 O5 1_555 1_555
H21 C23 1_555 1_555
H22 C23 1_555 1_555
H23 C23 1_555 1_555
C1 C8 1_555 1_555
C5 C7 1_555 1_555
C7 C9 1_555 1_555
C13 C16 1_555 1_555
C13 C19 1_555 1_555
C14 C20 1_555 1_555

#END
