
#######################################################################
#
#                 Cambridge Crystallographic Data Centre
#                                CCDC 
#
#######################################################################
#
# If this CIF has been generated from an entry in the Cambridge 
# Structural Database, then it will include bibliographic, chemical, 
# crystal, experimental, refinement or atomic coordinate data resulting 
# from the CCDC's data processing and validation procedures.
#
#######################################################################

data_EZOCUT
_chemical_formula_moiety         'C30 H36 S4'
_chemical_name_systematic        
2',2''-(ethene-1,2-diyl)bis(5-hexyl-2,3'-bithiophene)
_symmetry_cell_setting           triclinic
_symmetry_space_group_name_H-M   'P -1'
_symmetry_Int_Tables_number      2
_space_group_name_Hall           '-P 1'
loop_
_symmetry_equiv_pos_site_id
_symmetry_equiv_pos_as_xyz
1 x,y,z
2 -x,-y,-z
_cell_length_a                   9.0286(14)
_cell_length_b                   9.0591(15)
_cell_length_c                   9.4956(15)
_cell_angle_alpha                81.785(2)
_cell_angle_beta                 73.648(2)
_cell_angle_gamma                66.336(2)
_cell_volume                     682.181
_cell_formula_units_Z            1
loop_
_atom_site_label
_atom_site_type_symbol
_atom_site_fract_x
_atom_site_fract_y
_atom_site_fract_z
S1 S 0.32456(5) 1.00207(5) 0.17418(5)
S2 S 0.06290(6) 0.66067(6) 0.04523(6)
C1 C 0.5187(2) 1.1260(2) 0.2651(2)
H1 H 0.4152 1.1980 0.3252
H2 H 0.5435 1.1822 0.1721
C2 C 0.6886(2) 1.2373(2) 0.3593(2)
H3 H 0.7101 1.2908 0.2641
H4 H 0.5893 1.3119 0.4217
C3 C 0.4943(2) 0.9791(2) 0.23714(18)
C4 C 0.5277(2) 0.7168(2) 0.2085(2)
H5 H 0.5806 0.6051 0.2112
C5 C 0.2829(2) 0.7218(2) 0.12477(19)
C6 C 0.0740(2) 0.9641(2) 0.01648(19)
H6 H 0.1362 1.0271 0.0077
C7 C 0.3821(2) 0.7957(2) 0.16435(19)
C8 C 0.5902(2) 0.8201(2) 0.2495(2)
H7 H 0.6875 0.7828 0.2818
C9 C 0.1464(2) 0.7975(2) 0.06448(19)
C10 C 0.6579(2) 1.0885(2) 0.34121(19)
H8 H 0.7600 1.0110 0.2847
H9 H 0.6295 1.0393 0.4373
C11 C 0.8358(2) 1.1946(2) 0.4264(2)
H10 H 0.8108 1.1456 0.5232
H11 H 0.9325 1.1145 0.3667
C12 C 0.8809(3) 1.3351(3) 0.4405(3)
H12 H 0.7849 1.4165 0.4995
H13 H 0.9097 1.3831 0.3439
C13 C 0.2112(3) 0.5047(2) 0.1151(2)
H14 H 0.2175 0.3988 0.1262
C14 C 0.3170(2) 0.5533(2) 0.1517(2)
H15 H 0.4048 0.4837 0.1912
C15 C 1.0268(3) 1.2821(3) 0.5111(3)
H16 H 0.9958 1.2414 0.6093
H17 H 1.0558 1.3725 0.5138
H18 H 1.1209 1.1989 0.4547
S1A S -0.32456(5) 0.99793(5) -0.17418(5)
S2A S -0.06290(6) 1.33933(6) -0.04523(6)
C1A C -0.5187(2) 0.8740(2) -0.2651(2)
H1A H -0.4152 0.8020 -0.3252
H2A H -0.5435 0.8178 -0.1721
C2A C -0.6886(2) 0.7627(2) -0.3593(2)
H3A H -0.7101 0.7092 -0.2641
H4A H -0.5893 0.6881 -0.4217
C3A C -0.4943(2) 1.0209(2) -0.23714(18)
C4A C -0.5277(2) 1.2832(2) -0.2085(2)
H5A H -0.5806 1.3949 -0.2112
C5A C -0.2829(2) 1.2782(2) -0.12477(19)
C6A C -0.0740(2) 1.0359(2) -0.01648(19)
H6A H -0.1362 0.9729 -0.0077
C7A C -0.3821(2) 1.2043(2) -0.16435(19)
C8A C -0.5902(2) 1.1799(2) -0.2495(2)
H7A H -0.6875 1.2172 -0.2818
C9A C -0.1464(2) 1.2025(2) -0.06448(19)
C10A C -0.6579(2) 0.9115(2) -0.34121(19)
H8A H -0.7600 0.9890 -0.2847
H9A H -0.6295 0.9607 -0.4373
C11A C -0.8358(2) 0.8054(2) -0.4264(2)
H10A H -0.8108 0.8544 -0.5232
H11A H -0.9325 0.8855 -0.3667
C12A C -0.8809(3) 0.6649(3) -0.4405(3)
H12A H -0.7849 0.5835 -0.4995
H13A H -0.9097 0.6169 -0.3439
C13A C -0.2112(3) 1.4953(2) -0.1151(2)
H14A H -0.2175 1.6012 -0.1262
C14A C -0.3170(2) 1.4467(2) -0.1517(2)
H15A H -0.4048 1.5163 -0.1912
C15A C -1.0268(3) 0.7179(3) -0.5111(3)
H16A H -0.9958 0.7586 -0.6093
H17A H -1.0558 0.6275 -0.5138
H18A H -1.1209 0.8011 -0.4547
loop_
_geom_bond_atom_site_label_1
_geom_bond_atom_site_label_2
_geom_bond_site_symmetry_1
_geom_bond_site_symmetry_2
S1 C3 1_555 1_555
S2 C9 1_555 1_555
C1 H1 1_555 1_555
H2 C1 1_555 1_555
C2 H3 1_555 1_555
H4 C2 1_555 1_555
C3 C1 1_555 1_555
C4 H5 1_555 1_555
C5 C7 1_555 1_555
C6 H6 1_555 1_555
C7 S1 1_555 1_555
C8 C3 1_555 1_555
H7 C8 1_555 1_555
C9 C5 1_555 1_555
C10 C1 1_555 1_555
H8 C10 1_555 1_555
H9 C10 1_555 1_555
C11 C2 1_555 1_555
H10 C11 1_555 1_555
H11 C11 1_555 1_555
C12 C11 1_555 1_555
H12 C12 1_555 1_555
H13 C12 1_555 1_555
C13 S2 1_555 1_555
H14 C13 1_555 1_555
C14 C5 1_555 1_555
H15 C14 1_555 1_555
C15 C12 1_555 1_555
H16 C15 1_555 1_555
H17 C15 1_555 1_555
H18 C15 1_555 1_555
S1A C3A 1_555 1_555
S2A C9A 1_555 1_555
C1A H1A 1_555 1_555
H2A C1A 1_555 1_555
C2A H3A 1_555 1_555
H4A C2A 1_555 1_555
C3A C1A 1_555 1_555
C4A H5A 1_555 1_555
C5A C7A 1_555 1_555
C6A C6 1_555 1_555
H6A C6A 1_555 1_555
C7A S1A 1_555 1_555
C8A C3A 1_555 1_555
H7A C8A 1_555 1_555
C9A C5A 1_555 1_555
C10A C1A 1_555 1_555
H8A C10A 1_555 1_555
H9A C10A 1_555 1_555
C11A C2A 1_555 1_555
H10A C11A 1_555 1_555
H11A C11A 1_555 1_555
C12A C11A 1_555 1_555
H12A C12A 1_555 1_555
H13A C12A 1_555 1_555
C13A S2A 1_555 1_555
H14A C13A 1_555 1_555
C14A C5A 1_555 1_555
H15A C14A 1_555 1_555
C15A C12A 1_555 1_555
H16A C15A 1_555 1_555
H17A C15A 1_555 1_555
H18A C15A 1_555 1_555
C2 C10 1_555 1_555
C4 C7 1_555 1_555
C4 C8 1_555 1_555
C6 C9 1_555 1_555
C13 C14 1_555 1_555
C2A C10A 1_555 1_555
C4A C7A 1_555 1_555
C4A C8A 1_555 1_555
C6A C9A 1_555 1_555
C13A C14A 1_555 1_555

#END
