
#######################################################################
#
#                 Cambridge Crystallographic Data Centre
#                                CCDC 
#
#######################################################################
#
# If this CIF has been generated from an entry in the Cambridge 
# Structural Database, then it will include bibliographic, chemical, 
# crystal, experimental, refinement or atomic coordinate data resulting 
# from the CCDC's data processing and validation procedures.
#
#######################################################################

data_EZOHOR
_chemical_compound_source        
'endophytic fungus Aspergillus terreus IFB-E030'
_chemical_name_common            15b-Dehydro-5-N-acetylardeemin
_chemical_formula_moiety         'C28 H26 N4 O3'
_chemical_name_systematic        
10-Acetyl-7-methyl-14b-(2-methylbut-3-en-2-yl)-10,14b-dihydroindolo[3'',2'':4',5']pyrrolo[2',1':3,4]pyrazino[2,1-b]quinazoline-5,8(7H,9aH)-dione
_symmetry_cell_setting           orthorhombic
_symmetry_space_group_name_H-M   'P 21 21 21'
_symmetry_Int_Tables_number      19
_space_group_name_Hall           'P 2ac 2ab'
loop_
_symmetry_equiv_pos_site_id
_symmetry_equiv_pos_as_xyz
1 x,y,z
2 1/2-x,-y,1/2+z
3 -x,1/2+y,1/2-z
4 1/2+x,1/2-y,-z
_cell_length_a                   11.572(2)
_cell_length_b                   13.818(3)
_cell_length_c                   15.152(3)
_cell_angle_alpha                90
_cell_angle_beta                 90
_cell_angle_gamma                90
_cell_volume                     2422.83
_cell_formula_units_Z            4
_exptl_crystal_recrystallization_method methanol/ethanol
loop_
_atom_site_label
_atom_site_type_symbol
_atom_site_fract_x
_atom_site_fract_y
_atom_site_fract_z
O1 O 0.7343(9) 0.7212(6) 0.2364(6)
O2 O 0.9718(8) 0.4376(8) 0.2499(6)
C1 C 0.8304(13) 0.3433(9) 0.4443(9)
C2 C 0.3822(12) 0.6205(10) 0.3835(10)
N1 N 0.7391(10) 0.4107(8) 0.4513(7)
O3 O 0.4079(14) 0.8446(8) 0.2114(8)
C3 C 0.7369(13) 0.4763(10) 0.3902(8)
N2 N 0.4828(10) 0.7346(8) 0.3055(7)
C4 C 0.5604(12) 0.7052(10) 0.3734(8)
H1 H 0.5970 0.7614 0.4013
N3 N 0.8088(9) 0.4862(8) 0.3221(6)
C5 C 0.9109(13) 0.3510(11) 0.3780(9)
C6 C 0.7248(11) 0.6454(9) 0.2766(8)
N4 N 0.6494(9) 0.6328(7) 0.3444(6)
C7 C 0.7919(14) 0.5594(9) 0.2503(8)
H2 H 0.8683 0.5813 0.2310
C8 C 0.9040(12) 0.4239(11) 0.3106(10)
C9 C 0.6445(12) 0.5504(10) 0.3979(9)
C10 C 0.9342(15) 0.2111(11) 0.5111(11)
H3 H 0.9409 0.1649 0.5555
C11 C 0.5621(13) 0.5557(9) 0.4576(8)
H4 H 0.5507 0.5113 0.5029
C12 C 0.2993(15) 0.6608(15) 0.2408(13)
H5 H 0.3002 0.6958 0.1884
C13 C 1.0082(15) 0.2842(13) 0.3757(11)
H6 H 1.0629 0.2878 0.3308
C14 C 0.8450(14) 0.2746(9) 0.5121(10)
H7 H 0.7924 0.2728 0.5585
C15 C 0.4585(12) 0.7062(10) 0.5247(9)
C16 C 0.4906(15) 0.8253(11) 0.2638(10)
C17 C 0.3010(14) 0.5495(10) 0.3988(11)
H8 H 0.3027 0.5100 0.4484
C18 C 0.5775(16) 0.8928(11) 0.2828(12)
H9 H 0.5759 0.9438 0.2398
H10 H 0.6515 0.8614 0.2813
H11 H 0.5648 0.9196 0.3405
C19 C 0.4041(14) 0.8038(11) 0.4956(9)
H12 H 0.3364 0.7998 0.4628
C20 C 0.7320(15) 0.5102(10) 0.1709(9)
H13 H 0.6573 0.4870 0.1886
H14 H 0.7783 0.4569 0.1509
H15 H 0.7232 0.5563 0.1239
C21 C 0.4865(14) 0.6475(10) 0.4412(9)
C22 C 1.0179(15) 0.2149(12) 0.4419(13)
H16 H 1.0789 0.1711 0.4412
C23 C 0.3724(13) 0.6556(12) 0.5826(10)
H17 H 0.3544 0.6959 0.6324
H18 H 0.4045 0.5956 0.6029
H19 H 0.3032 0.6431 0.5496
C24 C 0.3865(14) 0.6733(10) 0.3076(9)
C25 C 0.5685(13) 0.7238(12) 0.5800(10)
H20 H 0.5489 0.7595 0.6322
H21 H 0.6233 0.7601 0.5457
H22 H 0.6019 0.6627 0.5963
C26 C 0.2163(19) 0.5416(16) 0.3342(17)
H23 H 0.1568 0.4974 0.3432
C27 C 0.2154(17) 0.5947(17) 0.2589(13)
H24 H 0.1558 0.5856 0.2185
C28 C 0.4419(19) 0.8890(11) 0.5118(10)
H25 H 0.5093 0.8972 0.5444
H26 H 0.4020 0.9428 0.4909
loop_
_geom_bond_atom_site_label_1
_geom_bond_atom_site_label_2
_geom_bond_site_symmetry_1
_geom_bond_site_symmetry_2
O1 C6 1_555 1_555
O2 C8 1_555 1_555
C1 N1 1_555 1_555
C2 C17 1_555 1_555
N1 C3 1_555 1_555
O3 C16 1_555 1_555
C3 N3 1_555 1_555
N2 C4 1_555 1_555
C4 H1 1_555 1_555
N3 C7 1_555 1_555
C5 C1 1_555 1_555
C6 N4 1_555 1_555
N4 C4 1_555 1_555
C7 C6 1_555 1_555
H2 C7 1_555 1_555
C8 N3 1_555 1_555
C9 C3 1_555 1_555
C10 H3 1_555 1_555
C11 C9 1_555 1_555
H4 C11 1_555 1_555
C12 H5 1_555 1_555
C13 C5 1_555 1_555
H6 C13 1_555 1_555
C14 C1 1_555 1_555
H7 C14 1_555 1_555
C15 C19 1_555 1_555
C16 N2 1_555 1_555
C17 H8 1_555 1_555
C18 C16 1_555 1_555
H9 C18 1_555 1_555
H10 C18 1_555 1_555
H11 C18 1_555 1_555
C19 H12 1_555 1_555
C20 C7 1_555 1_555
H13 C20 1_555 1_555
H14 C20 1_555 1_555
H15 C20 1_555 1_555
C21 C2 1_555 1_555
C22 C10 1_555 1_555
H16 C22 1_555 1_555
C23 C15 1_555 1_555
H17 C23 1_555 1_555
H18 C23 1_555 1_555
H19 C23 1_555 1_555
C24 C2 1_555 1_555
C25 C15 1_555 1_555
H20 C25 1_555 1_555
H21 C25 1_555 1_555
H22 C25 1_555 1_555
C26 C17 1_555 1_555
H23 C26 1_555 1_555
C27 C12 1_555 1_555
H24 C27 1_555 1_555
C28 C19 1_555 1_555
H25 C28 1_555 1_555
H26 C28 1_555 1_555
N2 C24 1_555 1_555
C4 C21 1_555 1_555
C5 C8 1_555 1_555
N4 C9 1_555 1_555
C10 C14 1_555 1_555
C11 C21 1_555 1_555
C12 C24 1_555 1_555
C13 C22 1_555 1_555
C15 C21 1_555 1_555
C26 C27 1_555 1_555

#END
