
#######################################################################
#
#                 Cambridge Crystallographic Data Centre
#                                CCDC 
#
#######################################################################
#
# If this CIF has been generated from an entry in the Cambridge 
# Structural Database, then it will include bibliographic, chemical, 
# crystal, experimental, refinement or atomic coordinate data resulting 
# from the CCDC's data processing and validation procedures.
#
#######################################################################

data_EZOHAE
_chemical_formula_moiety         'C14 H13 N1 O4'
_chemical_name_systematic        
5-ethoxy-1'-methyl-3H-spiro[furan-2,3'-indole]-2',3(1'H)-dione
_symmetry_cell_setting           monoclinic
_symmetry_space_group_name_H-M   'P 21/c'
_symmetry_Int_Tables_number      14
_space_group_name_Hall           '-P 2ybc'
loop_
_symmetry_equiv_pos_site_id
_symmetry_equiv_pos_as_xyz
1 x,y,z
2 -x,1/2+y,1/2-z
3 -x,-y,-z
4 x,1/2-y,1/2+z
_cell_length_a                   9.625(3)
_cell_length_b                   16.950(5)
_cell_length_c                   8.295(3)
_cell_angle_alpha                90
_cell_angle_beta                 114.355(6)
_cell_angle_gamma                90
_cell_volume                     1232.85
_exptl_crystal_colour            colorless
_exptl_crystal_description       Prism
_cell_formula_units_Z            4
loop_
_atom_site_label
_atom_site_type_symbol
_atom_site_fract_x
_atom_site_fract_y
_atom_site_fract_z
O1 O 1.0293(3) 0.13736(16) 0.1972(4)
O2 O 0.9266(3) 0.06791(16) 0.3440(4)
O3 O 0.9006(4) 0.12802(19) 0.6697(4)
O4 O 0.5690(4) 0.15306(18) 0.2685(4)
N1 N 0.7475(4) 0.01799(19) 0.6168(4)
C1 C 0.6813(4) -0.0365(2) 0.4768(5)
C2 C 0.6021(5) -0.1049(2) 0.4751(5)
H1 H 0.5821 -0.1200 0.5738
C3 C 0.5530(5) -0.1504(2) 0.3217(6)
H2 H 0.4987 -0.1979 0.3161
C4 C 0.5812(5) -0.1284(3) 0.1771(6)
H3 H 0.5481 -0.1612 0.0753
C5 C 0.6582(5) -0.0582(2) 0.1805(5)
H4 H 0.6752 -0.0419 0.0805
C6 C 0.7091(5) -0.0130(2) 0.3323(5)
C7 C 0.7900(5) 0.0647(2) 0.3762(5)
C8 C 0.8253(5) 0.0751(2) 0.5744(5)
C9 C 0.7450(5) 0.0115(2) 0.7899(5)
H5 H 0.8327 -0.0197 0.8680
H6 H 0.6505 -0.0146 0.7786
H7 H 0.7500 0.0643 0.8401
C10 C 0.6934(5) 0.1366(2) 0.2714(5)
C11 C 0.7817(5) 0.1729(2) 0.1913(5)
H8 H 0.7547 0.2186 0.1186
C12 C 0.9116(5) 0.1305(2) 0.2374(5)
C13 C 1.0217(5) 0.2041(2) 0.0794(5)
H9 H 1.0152 0.2546 0.1358
H10 H 0.9305 0.1992 -0.0338
C14 C 1.1635(5) 0.2022(3) 0.0468(6)
H11 H 1.2531 0.2028 0.1603
H12 H 1.1658 0.2484 -0.0230
H13 H 1.1644 0.1540 -0.0182
loop_
_geom_bond_atom_site_label_1
_geom_bond_atom_site_label_2
_geom_bond_site_symmetry_1
_geom_bond_site_symmetry_2
O1 C12 1_555 1_555
O2 C7 1_555 1_555
O3 C8 1_555 1_555
O4 C10 1_555 1_555
N1 C1 1_555 1_555
C1 C2 1_555 1_555
C2 H1 1_555 1_555
C3 C2 1_555 1_555
H2 C3 1_555 1_555
C4 C3 1_555 1_555
H3 C4 1_555 1_555
C5 C4 1_555 1_555
H4 C5 1_555 1_555
C6 C1 1_555 1_555
C7 C6 1_555 1_555
C8 N1 1_555 1_555
C9 N1 1_555 1_555
H5 C9 1_555 1_555
H6 C9 1_555 1_555
H7 C9 1_555 1_555
C10 C7 1_555 1_555
C11 C10 1_555 1_555
H8 C11 1_555 1_555
C12 O2 1_555 1_555
C13 O1 1_555 1_555
H9 C13 1_555 1_555
H10 C13 1_555 1_555
C14 C13 1_555 1_555
H11 C14 1_555 1_555
H12 C14 1_555 1_555
H13 C14 1_555 1_555
C5 C6 1_555 1_555
C7 C8 1_555 1_555
C11 C12 1_555 1_555

#END
