
#######################################################################
#
#                 Cambridge Crystallographic Data Centre
#                                CCDC 
#
#######################################################################
#
# If this CIF has been generated from an entry in the Cambridge 
# Structural Database, then it will include bibliographic, chemical, 
# crystal, experimental, refinement or atomic coordinate data resulting 
# from the CCDC's data processing and validation procedures.
#
#######################################################################

data_EZOJUA
_chemical_formula_moiety         'C28 H27 N3 O4 S1'
_chemical_name_systematic        
'ethyl 5-((4-methylphenyl)sulfonyl)-4-phenyl-1,4,5,12b-tetrahydro[1,2]diazepino[1,7-c]quinazoline-3-carboxylate'
_symmetry_cell_setting           monoclinic
_symmetry_space_group_name_H-M   'P 21/n'
_symmetry_Int_Tables_number      14
_space_group_name_Hall           '-P 2yn'
loop_
_symmetry_equiv_pos_site_id
_symmetry_equiv_pos_as_xyz
1 x,y,z
2 1/2-x,1/2+y,1/2-z
3 -x,-y,-z
4 1/2+x,1/2-y,1/2+z
_cell_length_a                   12.294(3)
_cell_length_b                   12.519(4)
_cell_length_c                   16.523(4)
_cell_angle_alpha                90
_cell_angle_beta                 100.996(3)
_cell_angle_gamma                90
_cell_volume                     2496.34
_exptl_crystal_colour            colorless
_exptl_crystal_description       block
_cell_formula_units_Z            4
loop_
_atom_site_label
_atom_site_type_symbol
_atom_site_fract_x
_atom_site_fract_y
_atom_site_fract_z
S1 S 0.50800(4) 0.69457(4) 0.35726(3)
O1 O 0.41884(12) 0.63337(13) 0.37788(9)
O2 O 0.57859(12) 0.64796(12) 0.30711(8)
O3 O 0.84549(13) 0.55222(14) 0.40176(10)
O4 O 0.83476(12) 0.43639(12) 0.50352(9)
N1 N 0.45578(14) 0.89594(14) 0.57249(10)
N2 N 0.53796(12) 0.75682(13) 0.50842(9)
N3 N 0.59147(12) 0.73339(13) 0.44355(9)
C1 C 0.41447(15) 0.81764(16) 0.62034(11)
C2 C 0.34408(17) 0.85136(18) 0.67271(12)
H1 H 0.3256 0.9232 0.6743
C3 C 0.30177(18) 0.7793(2) 0.72196(14)
H2 H 0.2564 0.8030 0.7573
C4 C 0.32716(19) 0.6717(2) 0.71854(15)
H3 H 0.2985 0.6231 0.7515
C5 C 0.39514(18) 0.63665(18) 0.66613(14)
H4 H 0.4111 0.5643 0.6635
C6 C 0.43980(16) 0.70896(16) 0.61726(12)
C7 C 0.51867(16) 0.66874(16) 0.56363(12)
H5 H 0.4830 0.6096 0.5297
C8 C 0.51287(15) 0.86147(15) 0.52021(11)
H6 H 0.5394 0.9121 0.4876
C9 C 0.62692(17) 0.62811(17) 0.61587(12)
H7 H 0.6688 0.6888 0.6417
H8 H 0.6094 0.5832 0.6595
C10 C 0.69883(16) 0.56560(17) 0.56848(13)
H9 H 0.7199 0.4975 0.5880
C11 C 0.73566(14) 0.59785(15) 0.50116(11)
C12 C 0.71126(14) 0.70583(15) 0.46015(11)
H10 H 0.7327 0.7002 0.4061
C13 C 0.81032(15) 0.52825(16) 0.46286(12)
C14 C 0.90194(19) 0.36007(18) 0.46829(15)
H11 H 0.9705 0.3931 0.4603
H12 H 0.8621 0.3347 0.4154
C15 C 0.9257(3) 0.2695(2) 0.5282(2)
H13 H 0.9664 0.2151 0.5058
H14 H 0.8572 0.2403 0.5380
H15 H 0.9688 0.2950 0.5791
C16 C 0.77719(14) 0.79917(15) 0.50407(11)
C17 C 0.84915(16) 0.78904(16) 0.57933(12)
H16 H 0.8557 0.7238 0.6067
C18 C 0.91178(17) 0.87627(18) 0.61409(13)
H17 H 0.9601 0.8688 0.6644
C19 C 0.90232(18) 0.97347(19) 0.57425(14)
H18 H 0.9443 1.0314 0.5975
C20 C 0.8301(2) 0.98458(19) 0.49943(15)
H19 H 0.8230 1.0501 0.4725
C21 C 0.76825(17) 0.89771(18) 0.46485(13)
H20 H 0.7200 0.9056 0.4145
C22 C 0.45358(15) 0.81514(16) 0.31251(11)
C23 C 0.35975(16) 0.85911(19) 0.33499(13)
H21 H 0.3214 0.8220 0.3694
C24 C 0.32450(17) 0.9591(2) 0.30517(13)
H22 H 0.2625 0.9894 0.3206
C25 C 0.37950(17) 1.01537(17) 0.25275(12)
C26 C 0.47088(17) 0.96719(17) 0.22813(12)
H23 H 0.5067 1.0023 0.1910
C27 C 0.50830(16) 0.86831(16) 0.25828(11)
H24 H 0.5698 0.8375 0.2424
C28 C 0.3448(2) 1.12707(19) 0.22522(16)
H25 H 0.2803 1.1468 0.2466
H26 H 0.3281 1.1298 0.1661
H27 H 0.4041 1.1759 0.2455
loop_
_geom_bond_atom_site_label_1
_geom_bond_atom_site_label_2
_geom_bond_site_symmetry_1
_geom_bond_site_symmetry_2
S1 O1 1_555 1_555
O2 S1 1_555 1_555
O3 C13 1_555 1_555
O4 C13 1_555 1_555
N1 C1 1_555 1_555
N2 N3 1_555 1_555
N3 S1 1_555 1_555
C1 C2 1_555 1_555
C2 H1 1_555 1_555
C3 C2 1_555 1_555
H2 C3 1_555 1_555
C4 C3 1_555 1_555
H3 C4 1_555 1_555
C5 C4 1_555 1_555
H4 C5 1_555 1_555
C6 C1 1_555 1_555
C7 N2 1_555 1_555
H5 C7 1_555 1_555
C8 N1 1_555 1_555
H6 C8 1_555 1_555
C9 C7 1_555 1_555
H7 C9 1_555 1_555
H8 C9 1_555 1_555
C10 C9 1_555 1_555
H9 C10 1_555 1_555
C11 C10 1_555 1_555
C12 N3 1_555 1_555
H10 C12 1_555 1_555
C13 C11 1_555 1_555
C14 O4 1_555 1_555
H11 C14 1_555 1_555
H12 C14 1_555 1_555
C15 C14 1_555 1_555
H13 C15 1_555 1_555
H14 C15 1_555 1_555
H15 C15 1_555 1_555
C16 C12 1_555 1_555
C17 C16 1_555 1_555
H16 C17 1_555 1_555
C18 C17 1_555 1_555
H17 C18 1_555 1_555
C19 C18 1_555 1_555
H18 C19 1_555 1_555
C20 C19 1_555 1_555
H19 C20 1_555 1_555
C21 C16 1_555 1_555
H20 C21 1_555 1_555
C22 S1 1_555 1_555
C23 C22 1_555 1_555
H21 C23 1_555 1_555
C24 C23 1_555 1_555
H22 C24 1_555 1_555
C25 C24 1_555 1_555
C26 C25 1_555 1_555
H23 C26 1_555 1_555
C27 C22 1_555 1_555
H24 C27 1_555 1_555
C28 C25 1_555 1_555
H25 C28 1_555 1_555
H26 C28 1_555 1_555
H27 C28 1_555 1_555
N2 C8 1_555 1_555
C5 C6 1_555 1_555
C6 C7 1_555 1_555
C11 C12 1_555 1_555
C20 C21 1_555 1_555
C26 C27 1_555 1_555

#END
