
#######################################################################
#
#                 Cambridge Crystallographic Data Centre
#                                CCDC 
#
#######################################################################
#
# If this CIF has been generated from an entry in the Cambridge 
# Structural Database, then it will include bibliographic, chemical, 
# crystal, experimental, refinement or atomic coordinate data resulting 
# from the CCDC's data processing and validation procedures.
#
#######################################################################

data_EZOJOT
_chemical_compound_source        'stems and roots of Illicium henryi'
_chemical_name_common            'Henrylactone A monohydrate'
_chemical_formula_moiety         'C17 H24 O7,H2 O1'
_chemical_name_systematic        
"1-(8a-Hydroxy-8,10a-dimethyl-2,5-dioxodecahydrofuro[3',2':1,5]cyclopenta[1,2-d]oxepin-8-yl)ethyl acetate monohydrate"
_chemical_properties_biological  'tested for anti-hepatitis B virus activity'
_symmetry_cell_setting           orthorhombic
_symmetry_space_group_name_H-M   'P 21 21 21'
_symmetry_Int_Tables_number      19
_space_group_name_Hall           'P 2ac 2ab'
loop_
_symmetry_equiv_pos_site_id
_symmetry_equiv_pos_as_xyz
1 x,y,z
2 1/2-x,-y,1/2+z
3 -x,1/2+y,1/2-z
4 1/2+x,1/2-y,-z
_cell_length_a                   9.9636(11)
_cell_length_b                   9.9959(11)
_cell_length_c                   18.1246(19)
_cell_angle_alpha                90
_cell_angle_beta                 90
_cell_angle_gamma                90
_cell_volume                     1805.12
_exptl_crystal_colour            colorless
_exptl_crystal_description       block
_cell_formula_units_Z            4
loop_
_atom_site_label
_atom_site_type_symbol
_atom_site_fract_x
_atom_site_fract_y
_atom_site_fract_z
O1 O 0.8795(3) 0.1297(3) 0.06090(16)
O2 O 0.8385(3) -0.0808(3) 0.09494(19)
O3 O 0.3912(3) 0.2642(3) 0.17445(16)
O4 O 0.5087(3) 0.3863(2) 0.25095(14)
O5 O 0.6179(3) 0.2727(2) 0.38758(13)
O6 O 0.4343(4) 0.1449(4) 0.3720(2)
O7 O 0.9082(2) 0.1875(2) 0.22019(15)
H1 H 0.9784 0.2150 0.2383
C1 C 0.8260(4) 0.2652(4) 0.07353(19)
C2 C 0.9429(5) 0.3551(5) 0.0991(3)
H2 H 1.0246 0.3033 0.1042
H3 H 0.9585 0.4265 0.0639
C3 C 0.8993(4) 0.4125(4) 0.1740(2)
H4 H 0.9764 0.4354 0.2041
H5 H 0.8436 0.4913 0.1677
C4 C 0.8193(3) 0.2971(3) 0.20824(18)
C5 C 0.7485(3) 0.3356(3) 0.28298(19)
C6 C 0.6822(4) 0.2142(3) 0.32210(17)
H6 H 0.6130 0.1764 0.2898
C7 C 0.8113(4) 0.0382(4) 0.0984(2)
C8 C 0.6986(3) 0.1002(4) 0.1417(2)
H7 H 0.6966 0.0654 0.1916
H8 H 0.6129 0.0824 0.1183
C9 C 0.7286(3) 0.2492(3) 0.14184(19)
C10 C 0.6037(4) 0.3366(4) 0.1294(2)
H9 H 0.6320 0.4294 0.1274
H10 H 0.5659 0.3143 0.0816
C11 C 0.4952(4) 0.3247(3) 0.1859(2)
C12 C 0.7714(5) 0.1022(4) 0.3504(2)
H11 H 0.8491 0.1398 0.3739
H12 H 0.7989 0.0468 0.3099
H13 H 0.7224 0.0492 0.3855
C13 C 0.4964(4) 0.2258(4) 0.4074(2)
C14 C 0.6391(3) 0.4423(3) 0.2711(2)
H14 H 0.6291 0.4940 0.3161
H15 H 0.6680 0.5029 0.2325
C15 C 0.7654(6) 0.3101(6) 0.0011(2)
H16 H 0.8295 0.2975 -0.0378
H17 H 0.7419 0.4031 0.0042
H18 H 0.6864 0.2583 -0.0091
C16 C 0.4524(5) 0.2836(5) 0.4791(2)
H19 H 0.3562 0.2820 0.4819
H20 H 0.4834 0.3742 0.4829
H21 H 0.4892 0.2317 0.5188
C17 C 0.8517(4) 0.4010(4) 0.3337(2)
H22 H 0.8721 0.4892 0.3159
H23 H 0.9321 0.3481 0.3343
H24 H 0.8159 0.4069 0.3827
O8 O 0.1653(3) 0.2602(3) 0.26971(19)
loop_
_geom_bond_atom_site_label_1
_geom_bond_atom_site_label_2
_geom_bond_site_symmetry_1
_geom_bond_site_symmetry_2
O1 C1 1_555 1_555
O2 C7 1_555 1_555
O3 C11 1_555 1_555
O4 C11 1_555 1_555
O5 C6 1_555 1_555
O6 C13 1_555 1_555
O7 H1 1_555 1_555
C1 C2 1_555 1_555
C2 H2 1_555 1_555
H3 C2 1_555 1_555
C3 C2 1_555 1_555
H4 C3 1_555 1_555
H5 C3 1_555 1_555
C4 O7 1_555 1_555
C5 C4 1_555 1_555
C6 C5 1_555 1_555
H6 C6 1_555 1_555
C7 O1 1_555 1_555
C8 C7 1_555 1_555
H7 C8 1_555 1_555
H8 C8 1_555 1_555
C9 C1 1_555 1_555
C10 C9 1_555 1_555
H9 C10 1_555 1_555
H10 C10 1_555 1_555
C11 C10 1_555 1_555
C12 C6 1_555 1_555
H11 C12 1_555 1_555
H12 C12 1_555 1_555
H13 C12 1_555 1_555
C13 O5 1_555 1_555
C14 O4 1_555 1_555
H14 C14 1_555 1_555
H15 C14 1_555 1_555
C15 C1 1_555 1_555
H16 C15 1_555 1_555
H17 C15 1_555 1_555
H18 C15 1_555 1_555
C16 C13 1_555 1_555
H19 C16 1_555 1_555
H20 C16 1_555 1_555
H21 C16 1_555 1_555
C17 C5 1_555 1_555
H22 C17 1_555 1_555
H23 C17 1_555 1_555
H24 C17 1_555 1_555
C3 C4 1_555 1_555
C4 C9 1_555 1_555
C5 C14 1_555 1_555
C8 C9 1_555 1_555

#END
