
#######################################################################
#
#                 Cambridge Crystallographic Data Centre
#                                CCDC 
#
#######################################################################
#
# If this CIF has been generated from an entry in the Cambridge 
# Structural Database, then it will include bibliographic, chemical, 
# crystal, experimental, refinement or atomic coordinate data resulting 
# from the CCDC's data processing and validation procedures.
#
#######################################################################

data_EZOJIN
_chemical_compound_source        'Diphasiastrum complanatum'
_chemical_name_common            
'14alpha,15alpha,20beta,21beta,24,27alpha,29-Heptahydroxyserrat-3-one monohydrate'
_chemical_formula_moiety         'C30 H50 O8,H2 O1'
_chemical_name_systematic        
"7,7a,8,11,12-Pentahydroxy-4,10-bis(hydroxymethyl)-4,6a,10,13a,15b-pentamethyldocosahydro-3H-naphtho[2',1':4,5]cyclohepta[1,2-a]naphthalen-3-one monohydrate"
_chemical_properties_biological  
'tested for cytotoxicity against leukaemia K562/S and doxorubicin-resistant K562/R cell lines'
_symmetry_cell_setting           orthorhombic
_symmetry_space_group_name_H-M   'P 21 21 21'
_symmetry_Int_Tables_number      19
_space_group_name_Hall           'P 2ac 2ab'
loop_
_symmetry_equiv_pos_site_id
_symmetry_equiv_pos_as_xyz
1 x,y,z
2 1/2-x,-y,1/2+z
3 -x,1/2+y,1/2-z
4 1/2+x,1/2-y,-z
_cell_length_a                   7.3117(5)
_cell_length_b                   16.7260(11)
_cell_length_c                   21.7827(14)
_cell_angle_alpha                90
_cell_angle_beta                 90
_cell_angle_gamma                90
_cell_volume                     2663.93
_exptl_crystal_colour            colorless
_exptl_crystal_description       block
_cell_formula_units_Z            4
loop_
_atom_site_label
_atom_site_type_symbol
_atom_site_fract_x
_atom_site_fract_y
_atom_site_fract_z
C1 C 0.8822(11) 0.7433(4) 0.8916(4)
H1 H 0.9491 0.7037 0.8664
H2 H 0.9259 0.7380 0.9344
C2 C 0.9281(12) 0.8280(5) 0.8682(4)
H3 H 0.8676 0.8685 0.8943
H4 H 1.0619 0.8370 0.8700
C3 C 0.8623(12) 0.8355(5) 0.8032(4)
C4 C 0.6572(12) 0.8218(4) 0.7925(3)
C5 C 0.6083(10) 0.7394(4) 0.8227(3)
H5 H 0.6751 0.6992 0.7972
C6 C 0.4090(10) 0.7164(4) 0.8162(3)
H6 H 0.3645 0.7310 0.7748
H7 H 0.3348 0.7456 0.8469
C7 C 0.3887(11) 0.6265(4) 0.8261(3)
H8 H 0.4575 0.5982 0.7936
H9 H 0.2581 0.6120 0.8216
C8 C 0.4579(10) 0.5969(4) 0.8901(3)
C9 C 0.6530(10) 0.6304(4) 0.9019(3)
H10 H 0.7308 0.6042 0.8700
C10 C 0.6769(10) 0.7235(4) 0.8896(3)
C11 C 0.7393(11) 0.6051(4) 0.9631(3)
H11 H 0.8644 0.6276 0.9648
H12 H 0.6683 0.6303 0.9966
C12 C 0.7524(10) 0.5157(4) 0.9767(3)
H13 H 0.7981 0.4880 0.9396
H14 H 0.8431 0.5073 1.0099
C13 C 0.5724(10) 0.4777(4) 0.9959(3)
H15 H 0.4980 0.5233 1.0120
C14 C 0.4635(10) 0.4470(4) 0.9403(3)
C15 C 0.2692(10) 0.4239(4) 0.9608(3)
H16 H 0.2053 0.4735 0.9748
C16 C 0.2748(11) 0.3657(5) 1.0142(3)
H17 H 0.3320 0.3151 1.0005
H18 H 0.1482 0.3536 1.0274
C17 C 0.3819(10) 0.3990(4) 1.0685(3)
H19 H 0.3263 0.4527 1.0760
C18 C 0.5824(9) 0.4176(4) 1.0505(3)
C19 C 0.6689(10) 0.4596(4) 1.1074(3)
H20 H 0.7998 0.4702 1.0991
H21 H 0.6076 0.5116 1.1140
C20 C 0.6521(11) 0.4091(5) 1.1658(3)
H22 H 0.7180 0.3573 1.1597
C21 C 0.4498(11) 0.3918(5) 1.1813(3)
H23 H 0.4461 0.3556 1.2178
C22 C 0.3469(11) 0.3521(5) 1.1296(3)
C23 C 0.6231(13) 0.8150(5) 0.7232(3)
H24 H 0.6730 0.7643 0.7082
H25 H 0.6832 0.8595 0.7021
H26 H 0.4913 0.8168 0.7152
C24 C 0.5414(12) 0.8920(4) 0.8179(4)
H27 H 0.4129 0.8742 0.8221
H28 H 0.5867 0.9061 0.8593
C25 C 0.5782(12) 0.7754(4) 0.9377(3)
H29 H 0.6338 0.8287 0.9386
H30 H 0.5895 0.7504 0.9782
H31 H 0.4486 0.7801 0.9268
C26 C 0.3124(10) 0.6227(4) 0.9369(3)
H32 H 0.3581 0.6133 0.9786
H33 H 0.2004 0.5917 0.9304
H34 H 0.2858 0.6798 0.9317
C27 C 0.4578(10) 0.5049(4) 0.8837(3)
H35 H 0.3407 0.4920 0.8621
C28 C 0.7022(10) 0.3444(4) 1.0338(4)
H36 H 0.6292 0.3059 1.0104
H37 H 0.7469 0.3191 1.0715
H38 H 0.8065 0.3620 1.0090
C29 C 0.4017(13) 0.2632(5) 1.1244(4)
H39 H 0.3607 0.2420 1.0843
H40 H 0.5365 0.2586 1.1262
C30 C 0.1416(11) 0.3539(6) 1.1439(4)
H41 H 0.0914 0.4062 1.1325
H42 H 0.1226 0.3449 1.1879
H43 H 0.0795 0.3120 1.1204
O1 O 0.9653(16) 0.8468(13) 0.7606(5)
O2 O 0.5380(8) 0.3730(3) 0.9183(2)
H44 H 0.6068 0.3820 0.8882
O3 O 0.1683(9) 0.3909(4) 0.9110(3)
H45 H 0.2346 0.3586 0.8917
O4 O 0.7244(9) 0.4480(4) 1.2175(3)
H46 H 0.8182 0.4738 1.2072
O5 O 0.3634(8) 0.4664(4) 1.1978(3)
H47 H 0.4266 0.4897 1.2246
O6 O 0.5464(8) 0.9613(3) 0.7803(2)
H48 H 0.6431 0.9868 0.7872
O7 O 0.6005(8) 0.4804(3) 0.8415(3)
H49 H 0.5588 0.4460 0.8171
O8 O 0.3240(11) 0.2171(5) 1.1718(4)
H50 H 0.4023 0.2093 1.1994
O9 O 0.9946(12) 0.4941(7) 0.8216(4)
H51 H 0.9592 0.4494 0.8405
H52 H 1.0254 0.4976 0.7830
O10? O 0.940(5) 0.897(2) 0.7811(19)
loop_
_geom_bond_atom_site_label_1
_geom_bond_atom_site_label_2
_geom_bond_site_symmetry_1
_geom_bond_site_symmetry_2
C1 H1 1_555 1_555
H2 C1 1_555 1_555
C2 C1 1_555 1_555
H3 C2 1_555 1_555
H4 C2 1_555 1_555
C3 C2 1_555 1_555
C4 C3 1_555 1_555
C5 C4 1_555 1_555
H5 C5 1_555 1_555
C6 C5 1_555 1_555
H6 C6 1_555 1_555
H7 C6 1_555 1_555
C7 C6 1_555 1_555
H8 C7 1_555 1_555
H9 C7 1_555 1_555
C8 C7 1_555 1_555
C9 C8 1_555 1_555
H10 C9 1_555 1_555
C10 C1 1_555 1_555
C11 C9 1_555 1_555
H11 C11 1_555 1_555
H12 C11 1_555 1_555
C12 C11 1_555 1_555
H13 C12 1_555 1_555
H14 C12 1_555 1_555
C13 C12 1_555 1_555
H15 C13 1_555 1_555
C14 C13 1_555 1_555
C15 C14 1_555 1_555
H16 C15 1_555 1_555
C16 C15 1_555 1_555
H17 C16 1_555 1_555
H18 C16 1_555 1_555
C17 C16 1_555 1_555
H19 C17 1_555 1_555
C18 C13 1_555 1_555
C19 C18 1_555 1_555
H20 C19 1_555 1_555
H21 C19 1_555 1_555
C20 C19 1_555 1_555
H22 C20 1_555 1_555
C21 C20 1_555 1_555
H23 C21 1_555 1_555
C22 C17 1_555 1_555
C23 C4 1_555 1_555
H24 C23 1_555 1_555
H25 C23 1_555 1_555
H26 C23 1_555 1_555
C24 C4 1_555 1_555
H27 C24 1_555 1_555
H28 C24 1_555 1_555
C25 C10 1_555 1_555
H29 C25 1_555 1_555
H30 C25 1_555 1_555
H31 C25 1_555 1_555
C26 C8 1_555 1_555
H32 C26 1_555 1_555
H33 C26 1_555 1_555
H34 C26 1_555 1_555
C27 C8 1_555 1_555
H35 C27 1_555 1_555
C28 C18 1_555 1_555
H36 C28 1_555 1_555
H37 C28 1_555 1_555
H38 C28 1_555 1_555
C29 C22 1_555 1_555
H39 C29 1_555 1_555
H40 C29 1_555 1_555
C30 C22 1_555 1_555
H41 C30 1_555 1_555
H42 C30 1_555 1_555
H43 C30 1_555 1_555
O1 C3 1_555 1_555
O2 C14 1_555 1_555
H44 O2 1_555 1_555
O3 C15 1_555 1_555
H45 O3 1_555 1_555
O4 C20 1_555 1_555
H46 O4 1_555 1_555
O5 C21 1_555 1_555
H47 O5 1_555 1_555
O6 C24 1_555 1_555
H48 O6 1_555 1_555
O7 C27 1_555 1_555
H49 O7 1_555 1_555
O8 C29 1_555 1_555
H50 O8 1_555 1_555
O9 H51 1_555 1_555
H52 O9 1_555 1_555
C5 C10 1_555 1_555
C9 C10 1_555 1_555
C14 C27 1_555 1_555
C17 C18 1_555 1_555
C21 C22 1_555 1_555

#END
