
#######################################################################
#
#                 Cambridge Crystallographic Data Centre
#                                CCDC 
#
#######################################################################
#
# If this CIF has been generated from an entry in the Cambridge 
# Structural Database, then it will include bibliographic, chemical, 
# crystal, experimental, refinement or atomic coordinate data resulting 
# from the CCDC's data processing and validation procedures.
#
#######################################################################

data_EZOKUA
_chemical_compound_source        'roots of Acacia farnesiana'
_chemical_name_common            'Acasiane A methanol solvate'
_chemical_formula_moiety         'C20 H34 O2,0.5(C1 H4 O1)'
_chemical_name_systematic        
'14,15-Cyclopimarane-16,18-diol methanol solvate'
_chemical_properties_biological  
'tested in vitro for activity against six human cancer cell lines'
_symmetry_cell_setting           orthorhombic
_symmetry_space_group_name_H-M   'P 21 21 2'
_symmetry_Int_Tables_number      18
_space_group_name_Hall           'P 2 2ab'
loop_
_symmetry_equiv_pos_site_id
_symmetry_equiv_pos_as_xyz
1 x,y,z
2 -x,-y,z
3 1/2-x,1/2+y,-z
4 1/2+x,1/2-y,-z
_cell_length_a                   10.424(2)
_cell_length_b                   22.579(5)
_cell_length_c                   7.8422(16)
_cell_angle_alpha                90
_cell_angle_beta                 90
_cell_angle_gamma                90
_cell_volume                     1845.77
_exptl_crystal_colour            colorless
_exptl_crystal_description       prism
_cell_formula_units_Z            4
loop_
_atom_site_label
_atom_site_type_symbol
_atom_site_fract_x
_atom_site_fract_y
_atom_site_fract_z
O1 O 0.63439(15) 0.98312(6) 0.5340(2)
O2 O 0.71547(19) 0.54600(7) 1.2275(2)
C1 C 0.67009(18) 0.76886(7) 0.4057(2)
H1 H 0.7506 0.7533 0.3628
H2 H 0.6043 0.7394 0.3850
C2 C 0.63639(19) 0.82532(8) 0.3076(2)
H3 H 0.6334 0.8166 0.1865
H4 H 0.5520 0.8389 0.3421
C3 C 0.73341(18) 0.87413(7) 0.3392(2)
H6 H 0.8148 0.8624 0.2897
C4 C 0.75495(15) 0.88924(6) 0.5282(2)
C5 C 0.77985(15) 0.83035(6) 0.6290(2)
H7 H 0.8605 0.8153 0.5818
C6 C 0.80853(19) 0.83938(7) 0.8192(2)
H8 H 0.8712 0.8708 0.8324
H9 H 0.7307 0.8514 0.8774
C7 C 0.85987(19) 0.78286(7) 0.9008(2)
H10 H 0.8722 0.7894 1.0219
H11 H 0.9426 0.7733 0.8513
C8 C 0.76836(17) 0.73092(6) 0.8746(2)
H12 H 0.6873 0.7410 0.9309
C9 C 0.73970(15) 0.72241(6) 0.6828(2)
H13 H 0.8223 0.7152 0.6268
C10 C 0.68215(14) 0.77903(6) 0.5993(2)
C11 C 0.66020(18) 0.66567(7) 0.6620(2)
H14 H 0.5864 0.6672 0.7372
H15 H 0.6292 0.6629 0.5457
C12 C 0.7407(2) 0.61124(7) 0.7040(2)
H16 H 0.6858 0.5766 0.7008
H17 H 0.8055 0.6064 0.6164
C13 C 0.80639(17) 0.61371(7) 0.8757(2)
C14 C 0.81898(18) 0.67440(7) 0.9570(2)
H18 H 0.8980 0.6799 1.0228
C15 C 0.72789(19) 0.62894(7) 1.0318(2)
H19 H 0.6366 0.6363 1.0107
C16 C 0.7595(3) 0.60443(8) 1.2048(2)
H20 H 0.8518 0.6053 1.2207
H21 H 0.7213 0.6296 1.2913
C17 C 0.9136(2) 0.56899(8) 0.8934(3)
H22 H 0.9711 0.5726 0.7983
H23 H 0.8782 0.5298 0.8958
H24 H 0.9597 0.5762 0.9973
C18 C 0.87519(17) 0.92828(7) 0.5387(3)
H25 H 0.8835 0.9438 0.6520
H26 H 0.8678 0.9604 0.4590
H27 H 0.9495 0.9050 0.5115
C19 C 0.63985(18) 0.92413(7) 0.6003(3)
H28 H 0.5610 0.9035 0.5718
H29 H 0.6465 0.9258 0.7235
C20 C 0.54810(16) 0.79083(8) 0.6737(3)
H30 H 0.5563 0.8063 0.7872
H31 H 0.5003 0.7545 0.6768
H32 H 0.5039 0.8191 0.6035
H33 H 0.576(2) 0.9909(11) 0.545(3)
H34 H 0.7480 0.5274 1.3164
O3 O 0.5000 0.5000 1.0806(4)
C21 C 0.5000 0.5000 0.9142(7)
H5? H 0.7051 0.9096 0.2805
H35? H 0.4428 0.5302 0.8734
H36? H 0.4720 0.4621 0.8734
H37? H 0.5852 0.5078 0.8734
H38? H 0.434(13) 0.487(6) 1.109(16)
loop_
_geom_bond_atom_site_label_1
_geom_bond_atom_site_label_2
_geom_bond_site_symmetry_1
_geom_bond_site_symmetry_2
O1 C19 1_555 1_555
O2 C16 1_555 1_555
C1 H1 1_555 1_555
H2 C1 1_555 1_555
C2 C1 1_555 1_555
H3 C2 1_555 1_555
H4 C2 1_555 1_555
C3 C2 1_555 1_555
H6 C3 1_555 1_555
C4 C3 1_555 1_555
C5 C4 1_555 1_555
H7 C5 1_555 1_555
C6 C5 1_555 1_555
H8 C6 1_555 1_555
H9 C6 1_555 1_555
C7 C6 1_555 1_555
H10 C7 1_555 1_555
H11 C7 1_555 1_555
C8 C7 1_555 1_555
H12 C8 1_555 1_555
C9 C8 1_555 1_555
H13 C9 1_555 1_555
C10 C1 1_555 1_555
C11 C9 1_555 1_555
H14 C11 1_555 1_555
H15 C11 1_555 1_555
C12 C11 1_555 1_555
H16 C12 1_555 1_555
H17 C12 1_555 1_555
C13 C12 1_555 1_555
C14 C8 1_555 1_555
H18 C14 1_555 1_555
C15 C13 1_555 1_555
H19 C15 1_555 1_555
C16 C15 1_555 1_555
H20 C16 1_555 1_555
H21 C16 1_555 1_555
C17 C13 1_555 1_555
H22 C17 1_555 1_555
H23 C17 1_555 1_555
H24 C17 1_555 1_555
C18 C4 1_555 1_555
H25 C18 1_555 1_555
H26 C18 1_555 1_555
H27 C18 1_555 1_555
C19 C4 1_555 1_555
H28 C19 1_555 1_555
H29 C19 1_555 1_555
C20 C10 1_555 1_555
H30 C20 1_555 1_555
H31 C20 1_555 1_555
H32 C20 1_555 1_555
H33 O1 1_555 1_555
H34 O2 1_555 1_555
O3 C21 1_555 1_555
C5 C10 1_555 1_555
C9 C10 1_555 1_555
C13 C14 1_555 1_555
C14 C15 1_555 1_555

#END
