
#######################################################################
#
#                 Cambridge Crystallographic Data Centre
#                                CCDC 
#
#######################################################################
#
# If this CIF has been generated from an entry in the Cambridge 
# Structural Database, then it will include bibliographic, chemical, 
# crystal, experimental, refinement or atomic coordinate data resulting 
# from the CCDC's data processing and validation procedures.
#
#######################################################################

data_EZONUD
_chemical_formula_moiety         'C21 H14 Br1 N3 O2,0.5(C3 H6 O1),0.25(H2 O1)'
_chemical_name_systematic        
"6'-Bromo-2',5-dioxo-3-phenyl-1',2'-dihydro-2H-spiro[cyclohexane-1,3'-indole]-2,2-dicarbonitrile acetone solvate hydrate"
_symmetry_cell_setting           monoclinic
_symmetry_space_group_name_H-M   'P 21'
_symmetry_Int_Tables_number      4
_space_group_name_Hall           'P 2yb'
loop_
_symmetry_equiv_pos_site_id
_symmetry_equiv_pos_as_xyz
1 x,y,z
2 -x,1/2+y,-z
_cell_length_a                   11.1402(16)
_cell_length_b                   8.2454(11)
_cell_length_c                   22.881(3)
_cell_angle_alpha                90
_cell_angle_beta                 99.420(3)
_cell_angle_gamma                90
_cell_volume                     2073.4
_exptl_crystal_colour            colorless
_exptl_crystal_description       block
_cell_formula_units_Z            4
loop_
_atom_site_label
_atom_site_type_symbol
_atom_site_fract_x
_atom_site_fract_y
_atom_site_fract_z
Br1 Br 1.22469(5) 0.90681(6) 0.85435(2)
O1 O 1.0712(3) 0.7996(4) 0.52415(14)
O2 O 1.0119(3) 0.2502(4) 0.64302(16)
N1 N 1.1234(3) 0.8969(5) 0.61957(15)
H3 H 1.1646 0.9820 0.6123
N2 N 0.7790(4) 0.9713(5) 0.6113(2)
N3 N 0.8078(4) 0.6623(5) 0.46798(18)
C1 C 1.1417(4) 0.8330(6) 0.7807(2)
C2 C 1.1640(4) 0.9104(6) 0.72965(18)
H5 H 1.2156 1.0011 0.7315
C3 C 1.1078(4) 0.8491(6) 0.67642(18)
C4 C 1.0328(4) 0.7113(5) 0.67237(19)
C5 C 1.0135(4) 0.6365(6) 0.72387(19)
H6 H 0.9644 0.5433 0.7220
C6 C 1.0663(4) 0.6980(6) 0.7785(2)
H7 H 1.0511 0.6489 0.8137
C7 C 1.0672(4) 0.7959(5) 0.5771(2)
C8 C 0.9964(4) 0.6669(5) 0.6075(2)
C9 C 1.0388(4) 0.4981(5) 0.59275(19)
H8 H 1.0327 0.4879 0.5497
H9 H 1.1246 0.4847 0.6103
C10 C 0.9654(4) 0.3660(5) 0.6151(2)
C11 C 0.8297(3) 0.3824(5) 0.59940(19)
H10 H 0.7914 0.3028 0.6223
H11 H 0.8053 0.3564 0.5573
C12 C 0.7809(4) 0.5547(5) 0.6113(2)
H12 H 0.7949 0.5713 0.6547
C13 C 0.8567(4) 0.6874(5) 0.58375(19)
C14 C 0.8148(4) 0.8491(6) 0.5991(2)
C15 C 0.8317(4) 0.6723(6) 0.5177(2)
C16 C 0.6445(4) 0.5719(5) 0.5897(2)
C17 C 0.5758(5) 0.6596(6) 0.6233(2)
H13 H 0.6133 0.7042 0.6595
C18 C 0.4526(5) 0.6832(7) 0.6047(3)
H14 H 0.4082 0.7482 0.6273
C19 C 0.3951(5) 0.6137(7) 0.5540(3)
H15 H 0.3106 0.6259 0.5426
C20 C 0.4619(5) 0.5242(7) 0.5192(2)
H16 H 0.4232 0.4780 0.4834
C21 C 0.5872(4) 0.5034(6) 0.5376(2)
H17 H 0.6325 0.4422 0.5142
Br2 Br 0.25041(5) 0.34135(6) 0.72683(3)
O3 O 0.6409(4) 1.0247(5) 0.86995(18)
O4 O 0.6174(4) 0.5644(6) 1.03507(18)
N4 N 0.5168(3) 0.8488(5) 0.80872(18)
H4 H 0.4903 0.9156 0.7801
N5 N 0.9186(4) 0.9158(7) 0.9180(2)
N6 N 0.7596(4) 0.6107(6) 0.7743(2)
C22 C 0.3704(4) 0.4476(6) 0.7814(2)
C23 C 0.3954(4) 0.6094(6) 0.7695(2)
H18 H 0.3561 0.6624 0.7353
C24 C 0.4795(4) 0.6861(6) 0.8099(2)
C25 C 0.5391(4) 0.6104(6) 0.8614(2)
C26 C 0.5113(4) 0.4513(6) 0.8716(2)
H19 H 0.5506 0.3980 0.9057
C27 C 0.4265(4) 0.3706(7) 0.8321(2)
H20 H 0.4065 0.2626 0.8396
C28 C 0.5982(4) 0.8903(8) 0.8569(2)
C29 C 0.6305(5) 0.7297(7) 0.8934(2)
C30 C 0.6227(5) 0.7600(7) 0.9589(2)
H21 H 0.6681 0.8588 0.9721
H22 H 0.5374 0.7777 0.9629
C31 C 0.6724(6) 0.6217(7) 0.9979(3)
C32 C 0.7979(5) 0.5613(7) 0.9905(2)
H23 H 0.8162 0.4611 1.0132
H24 H 0.8590 0.6424 1.0062
C33 C 0.8053(5) 0.5287(6) 0.9249(2)
H25 H 0.7455 0.4420 0.9117
C34 C 0.7632(4) 0.6819(6) 0.8857(2)
C35 C 0.8495(4) 0.8191(8) 0.9035(2)
C36 C 0.7643(5) 0.6435(7) 0.8232(2)
C37 C 0.9273(5) 0.4660(7) 0.9143(2)
C38 C 1.0341(5) 0.5365(8) 0.9401(3)
H26 H 1.0336 0.6219 0.9673
C39 C 1.1465(6) 0.4790(10) 0.9254(3)
H27 H 1.2207 0.5269 0.9422
C40 C 1.1438(6) 0.3543(11) 0.8869(4)
H28 H 1.2177 0.3179 0.8768
C41 C 1.0378(7) 0.2782(9) 0.8617(3)
H29 H 1.0389 0.1892 0.8361
C42 C 0.9289(5) 0.3378(8) 0.8755(3)
H30 H 0.8551 0.2899 0.8581
O5 O 0.4516(3) 0.0195(5) 0.70312(17)
C43 C 0.6250(5) 0.1956(8) 0.7242(3)
H31 H 0.6280 0.1615 0.7649
H32 H 0.6213 0.3130 0.7220
H33 H 0.6974 0.1579 0.7098
C44 C 0.5142(5) 0.1250(7) 0.6866(2)
C45 C 0.4833(6) 0.1895(8) 0.6250(3)
H34 H 0.4141 0.1307 0.6039
H35 H 0.5525 0.1759 0.6046
H36 H 0.4632 0.3038 0.6264
O6 O 0.6497(13) 0.1971(13) 0.9713(7)
H1 H 0.588(5) 0.147(9) 0.981(4)
H2 H 0.703(6) 0.124(8) 0.968(4)
loop_
_geom_bond_atom_site_label_1
_geom_bond_atom_site_label_2
_geom_bond_site_symmetry_1
_geom_bond_site_symmetry_2
Br1 C1 1_555 1_555
Br2 C22 1_555 1_555
O1 C7 1_555 1_555
O2 C10 1_555 1_555
O3 C28 1_555 1_555
O4 C31 1_555 1_555
O5 C44 1_555 1_555
O6 H1 1_555 1_555
H2 O6 1_555 1_555
N1 H3 1_555 1_555
N2 C14 1_555 1_555
N3 C15 1_555 1_555
N4 H4 1_555 1_555
N5 C35 1_555 1_555
N6 C36 1_555 1_555
C1 C2 1_555 1_555
C2 H5 1_555 1_555
C3 N1 1_555 1_555
C4 C3 1_555 1_555
C5 C4 1_555 1_555
H6 C5 1_555 1_555
C6 C1 1_555 1_555
H7 C6 1_555 1_555
C7 N1 1_555 1_555
C8 C4 1_555 1_555
C9 C8 1_555 1_555
H8 C9 1_555 1_555
H9 C9 1_555 1_555
C10 C9 1_555 1_555
C11 C10 1_555 1_555
H10 C11 1_555 1_555
H11 C11 1_555 1_555
C12 C11 1_555 1_555
H12 C12 1_555 1_555
C13 C8 1_555 1_555
C14 C13 1_555 1_555
C15 C13 1_555 1_555
C16 C12 1_555 1_555
C17 C16 1_555 1_555
H13 C17 1_555 1_555
C18 C17 1_555 1_555
H14 C18 1_555 1_555
C19 C18 1_555 1_555
H15 C19 1_555 1_555
C20 C19 1_555 1_555
H16 C20 1_555 1_555
C21 C16 1_555 1_555
H17 C21 1_555 1_555
C22 C23 1_555 1_555
C23 H18 1_555 1_555
C24 N4 1_555 1_555
C25 C24 1_555 1_555
C26 C25 1_555 1_555
H19 C26 1_555 1_555
C27 C22 1_555 1_555
H20 C27 1_555 1_555
C28 N4 1_555 1_555
C29 C25 1_555 1_555
C30 C29 1_555 1_555
H21 C30 1_555 1_555
H22 C30 1_555 1_555
C31 C30 1_555 1_555
C32 C31 1_555 1_555
H23 C32 1_555 1_555
H24 C32 1_555 1_555
C33 C32 1_555 1_555
H25 C33 1_555 1_555
C34 C29 1_555 1_555
C35 C34 1_555 1_555
C36 C34 1_555 1_555
C37 C33 1_555 1_555
C38 C37 1_555 1_555
H26 C38 1_555 1_555
C39 C38 1_555 1_555
H27 C39 1_555 1_555
C40 C39 1_555 1_555
H28 C40 1_555 1_555
C41 C40 1_555 1_555
H29 C41 1_555 1_555
C42 C37 1_555 1_555
H30 C42 1_555 1_555
C43 H31 1_555 1_555
H32 C43 1_555 1_555
H33 C43 1_555 1_555
C44 C43 1_555 1_555
C45 C44 1_555 1_555
H34 C45 1_555 1_555
H35 C45 1_555 1_555
H36 C45 1_555 1_555
C2 C3 1_555 1_555
C5 C6 1_555 1_555
C7 C8 1_555 1_555
C12 C13 1_555 1_555
C20 C21 1_555 1_555
C23 C24 1_555 1_555
C26 C27 1_555 1_555
C28 C29 1_555 1_555
C33 C34 1_555 1_555
C41 C42 1_555 1_555

#END
