
#######################################################################
#
#                 Cambridge Crystallographic Data Centre
#                                CCDC 
#
#######################################################################
#
# If this CIF has been generated from an entry in the Cambridge 
# Structural Database, then it will include bibliographic, chemical, 
# crystal, experimental, refinement or atomic coordinate data resulting 
# from the CCDC's data processing and validation procedures.
#
#######################################################################

data_EZONOY
_chemical_name_common            fluroxypyr
_chemical_formula_moiety         'C7 H5 Cl2 F1 N2 O3'
_chemical_name_systematic        
'((4-amino-3,5-dichloro-6-fluoropyridin-2-yl)oxy)acetic acid'
_chemical_properties_biological  
'Herbicide used on cereal crops, olive trees and fallow cropland to control broad-leaf weeds.'
_symmetry_cell_setting           triclinic
_symmetry_space_group_name_H-M   'P -1'
_symmetry_Int_Tables_number      2
_space_group_name_Hall           '-P 1'
loop_
_symmetry_equiv_pos_site_id
_symmetry_equiv_pos_as_xyz
1 x,y,z
2 -x,-y,-z
_cell_length_a                   7.1116(9)
_cell_length_b                   7.6131(9)
_cell_length_c                   8.9414(11)
_cell_angle_alpha                86.927(6)
_cell_angle_beta                 80.354(6)
_cell_angle_gamma                72.587(5)
_cell_volume                     455.38
_exptl_crystal_colour            colorless
_exptl_crystal_description       plate
_cell_formula_units_Z            2
loop_
_atom_site_label
_atom_site_type_symbol
_atom_site_fract_x
_atom_site_fract_y
_atom_site_fract_z
Cl1 Cl 0.43701(6) 0.90760(5) -0.32138(4)
Cl2 Cl 0.09018(6) 1.29195(5) 0.19394(4)
F1 F 0.37852(14) 0.60390(12) -0.12163(11)
O1 O 0.08333(16) 0.93076(14) 0.31061(11)
O2 O 0.41952(15) 0.68493(14) 0.39455(11)
O3 O 0.24193(16) 0.50096(15) 0.50373(13)
H1 H 0.3515 0.4408 0.5295
N1 N 0.23296(18) 0.76320(16) 0.09169(14)
N2 N 0.2865(2) 1.24580(17) -0.12976(14)
H2 H 0.2414 1.3515 -0.0813
H3 H 0.3429 1.2417 -0.2255
C1 C 0.3133(2) 0.76709(19) -0.05118(17)
C2 C 0.3356(2) 0.91926(19) -0.13244(15)
C3 C 0.26931(19) 1.08983(18) -0.05718(15)
C4 C 0.1811(2) 1.08826(18) 0.09480(15)
C5 C 0.16793(19) 0.92352(19) 0.16331(15)
C6 C 0.0683(2) 0.7624(2) 0.38160(17)
H4 H 0.0248 0.6917 0.3114
H5 H -0.0345 0.7900 0.4736
C7 C 0.2634(2) 0.64680(19) 0.42518(15)
loop_
_geom_bond_atom_site_label_1
_geom_bond_atom_site_label_2
_geom_bond_site_symmetry_1
_geom_bond_site_symmetry_2
Cl1 C2 1_555 1_555
Cl2 C4 1_555 1_555
F1 C1 1_555 1_555
O1 C5 1_555 1_555
O2 C7 1_555 1_555
O3 H1 1_555 1_555
N1 C1 1_555 1_555
N2 H2 1_555 1_555
H3 N2 1_555 1_555
C1 C2 1_555 1_555
C2 C3 1_555 1_555
C3 N2 1_555 1_555
C4 C3 1_555 1_555
C5 N1 1_555 1_555
C6 O1 1_555 1_555
H4 C6 1_555 1_555
H5 C6 1_555 1_555
C7 O3 1_555 1_555
C4 C5 1_555 1_555
C6 C7 1_555 1_555

#END
