
#######################################################################
#
#                 Cambridge Crystallographic Data Centre
#                                CCDC 
#
#######################################################################
#
# If this CIF has been generated from an entry in the Cambridge 
# Structural Database, then it will include bibliographic, chemical, 
# crystal, experimental, refinement or atomic coordinate data resulting 
# from the CCDC's data processing and validation procedures.
#
#######################################################################

data_EZUDUY
_chemical_formula_moiety         'C14 H26 N2 O3'
_chemical_name_systematic        
1-Cyclohexyl-4,8,8-trimethyl-2,7-dioxo-1,6-diaza-5-oxanonane
_symmetry_cell_setting           monoclinic
_symmetry_space_group_name_H-M   'P 21'
_symmetry_Int_Tables_number      4
_space_group_name_Hall           'P 2yb'
loop_
_symmetry_equiv_pos_site_id
_symmetry_equiv_pos_as_xyz
1 x,y,z
2 -x,1/2+y,-z
_cell_length_a                   11.469(2)
_cell_length_b                   4.8310(10)
_cell_length_c                   14.575(3)
_cell_angle_alpha                90
_cell_angle_beta                 93.67(3)
_cell_angle_gamma                90
_cell_volume                     805.897
_exptl_crystal_colour            colorless
_exptl_crystal_description       prism
_chemical_melting_point          166-167deg.C
_cell_formula_units_Z            2
loop_
_atom_site_label
_atom_site_type_symbol
_atom_site_fract_x
_atom_site_fract_y
_atom_site_fract_z
O1 O 0.2436(3) -0.0762(6) 0.36563(19)
O2 O 0.07986(18) 0.3117(5) 0.58468(13)
O3 O 0.0883(3) 0.6640(6) 0.72873(18)
N1 N 0.2799(3) 0.3556(8) 0.3205(2)
N2 N 0.0897(3) 0.2284(8) 0.6759(2)
C1 C 0.2265(3) 0.1747(9) 0.3710(2)
C2 C 0.1420(3) 0.2885(7) 0.43590(18)
H1 H 0.0646 0.2169 0.4193
H2 H 0.1391 0.4885 0.4301
C3 C 0.1764(3) 0.2127(8) 0.5347(2)
H3 H 0.1823 0.0110 0.5406
C4 C 0.2906(3) 0.3451(12) 0.5699(2)
H4 H 0.3095 0.2867 0.6321
H5 H 0.2827 0.5429 0.5681
H6 H 0.3517 0.2895 0.5319
C5 C 0.3676(3) 0.2844(8) 0.2562(2)
H7 H 0.3680 0.0824 0.2500
C6 C 0.4880(3) 0.3719(11) 0.2921(2)
H8 H 0.5073 0.2806 0.3504
H9 H 0.4886 0.5700 0.3029
C7 C 0.5799(3) 0.3002(13) 0.2250(2)
H10 H 0.6550 0.3732 0.2480
H11 H 0.5869 0.1006 0.2207
C8 C 0.5490(3) 0.4173(10) 0.1307(3)
H12 H 0.5527 0.6177 0.1333
H13 H 0.6055 0.3542 0.0885
C9 C 0.4290(3) 0.3299(12) 0.0956(2)
H14 H 0.4281 0.1314 0.0856
H15 H 0.4095 0.4193 0.0370
C10 C 0.3380(3) 0.4044(11) 0.1625(2)
H16 H 0.3327 0.6043 0.1673
H17 H 0.2623 0.3355 0.1393
C11 C 0.0843(3) 0.4139(10) 0.7429(2)
C12 C 0.0724(3) 0.2949(8) 0.8368(2)
H18 H 0.0792 0.0929 0.8340
C13 C -0.0460(3) 0.3711(16) 0.8685(3)
H19 H -0.1058 0.2977 0.8262
H20 H -0.0530 0.5690 0.8709
H21 H -0.0546 0.2952 0.9286
C14 C 0.1663(4) 0.4076(14) 0.9036(3)
H22 H 0.2416 0.3552 0.8842
H23 H 0.1563 0.3337 0.9637
H24 H 0.1608 0.6058 0.9055
H25 H 0.271(3) 0.500(8) 0.323(2)
H26 H 0.087(3) 0.064(9) 0.684(2)
loop_
_geom_bond_atom_site_label_1
_geom_bond_atom_site_label_2
_geom_bond_site_symmetry_1
_geom_bond_site_symmetry_2
O1 C1 1_555 1_555
O2 N2 1_555 1_555
O3 C11 1_555 1_555
N1 C1 1_555 1_555
N2 C11 1_555 1_555
C1 C2 1_555 1_555
C2 H1 1_555 1_555
H2 C2 1_555 1_555
C3 O2 1_555 1_555
H3 C3 1_555 1_555
C4 C3 1_555 1_555
H4 C4 1_555 1_555
H5 C4 1_555 1_555
H6 C4 1_555 1_555
C5 N1 1_555 1_555
H7 C5 1_555 1_555
C6 C5 1_555 1_555
H8 C6 1_555 1_555
H9 C6 1_555 1_555
C7 C6 1_555 1_555
H10 C7 1_555 1_555
H11 C7 1_555 1_555
C8 C7 1_555 1_555
H12 C8 1_555 1_555
H13 C8 1_555 1_555
C9 C8 1_555 1_555
H14 C9 1_555 1_555
H15 C9 1_555 1_555
C10 C5 1_555 1_555
H16 C10 1_555 1_555
H17 C10 1_555 1_555
C11 C12 1_555 1_555
C12 H18 1_555 1_555
C13 C12 1_555 1_555
H19 C13 1_555 1_555
H20 C13 1_555 1_555
H21 C13 1_555 1_555
C14 C12 1_555 1_555
H22 C14 1_555 1_555
H23 C14 1_555 1_555
H24 C14 1_555 1_555
H25 N1 1_555 1_555
H26 N2 1_555 1_555
C2 C3 1_555 1_555
C9 C10 1_555 1_555

#END
