
#######################################################################
#
#                 Cambridge Crystallographic Data Centre
#                                CCDC 
#
#######################################################################
#
# If this CIF has been generated from an entry in the Cambridge 
# Structural Database, then it will include bibliographic, chemical, 
# crystal, experimental, refinement or atomic coordinate data resulting 
# from the CCDC's data processing and validation procedures.
#
#######################################################################

data_EZUHUC
_chemical_formula_moiety         'C40 H24 N6'
_chemical_name_systematic        
4,6-bis(6-(Acridin-9-yl)pyridin-2-yl)pyrimidine
_symmetry_cell_setting           monoclinic
_symmetry_space_group_name_H-M   'C 2/c'
_symmetry_Int_Tables_number      15
_space_group_name_Hall           '-C 2yn'
loop_
_symmetry_equiv_pos_site_id
_symmetry_equiv_pos_as_xyz
1 x,y,z
2 1/2+x,1/2+y,z
3 x,-y,1/2+z
4 1/2+x,1/2-y,1/2+z
5 -x,-y,-z
6 1/2-x,1/2-y,-z
7 -x,y,1/2-z
8 1/2-x,1/2+y,1/2-z
_cell_length_a                   26.825
_cell_length_b                   11.593
_cell_length_c                   9.322
_cell_angle_alpha                90.00
_cell_angle_beta                 93.60
_cell_angle_gamma                90.00
_cell_volume                     2893.26
_cell_formula_units_Z            4
_exptl_crystal_recrystallization_method 'diethyl ether/chloroform'
loop_
_atom_site_label
_atom_site_type_symbol
_atom_site_fract_x
_atom_site_fract_y
_atom_site_fract_z
N1 N 0.96511(7) -0.09858(14) 0.1632(2)
N2 N 0.91329(6) 0.18364(14) 0.1173(2)
N3 N 0.83557(7) 0.57695(13) 0.1916(2)
C1 C 1.0000 -0.1487(3) 0.2500
H1 H 1.0000 -0.2307 0.2500
C2 C 0.96471(8) 0.01687(17) 0.1671(2)
C3 C 1.0000 0.0786(2) 0.2500
H2 H 1.0000 0.1605 0.2500
C4 C 0.92365(8) 0.07441(17) 0.0794(2)
C5 C 0.89768(8) 0.01627(19) -0.0314(3)
H3 H 0.9054 -0.0615 -0.0529
C6 C 0.86013(10) 0.07450(18) -0.1097(3)
H4 H 0.8422 0.0381 -0.1884
C7 C 0.84909(9) 0.18633(19) -0.0719(3)
H5 H 0.8234 0.2278 -0.1242
C8 C 0.87577(8) 0.23719(17) 0.0427(2)
C9 C 0.86224(8) 0.35552(16) 0.0940(2)
C10 C 0.82423(8) 0.36771(16) 0.1872(2)
C11 C 0.79632(9) 0.27386(18) 0.2390(3)
H6 H 0.8042 0.1976 0.2109
C12 C 0.75868(9) 0.2905(2) 0.3278(3)
H7 H 0.7399 0.2265 0.3583
C13 C 0.74724(9) 0.4038(2) 0.3753(3)
H8 H 0.7210 0.4149 0.4378
C14 C 0.77340(8) 0.49468(19) 0.3320(3)
H9 H 0.7661 0.5693 0.3671
C15 C 0.81192(8) 0.48161(17) 0.2341(3)
C16 C 0.87173(9) 0.56425(16) 0.0996(3)
C17 C 0.89604(9) 0.66560(19) 0.0562(3)
H10 H 0.8868 0.7385 0.0926
C18 C 0.93264(10) 0.6586(2) -0.0376(3)
H11 H 0.9489 0.7269 -0.0659
C19 C 0.94694(9) 0.5506(2) -0.0940(3)
H12 H 0.9719 0.5478 -0.1617
C20 C 0.92519(9) 0.4511(2) -0.0522(3)
H13 H 0.9355 0.3793 -0.0895
C21 C 0.88705(8) 0.45392(18) 0.0472(2)
N1F N 1.03489(7) -0.09858(14) 0.3368(2)
C2F C 1.03529(8) 0.01687(17) 0.3329(2)
C4F C 1.07635(8) 0.07441(17) 0.4206(2)
N2F N 1.08671(6) 0.18364(14) 0.3827(2)
C8F C 1.12423(8) 0.23719(17) 0.4573(2)
C7F C 1.15091(9) 0.18633(19) 0.5719(3)
C6F C 1.13987(10) 0.07450(18) 0.6097(3)
C5F C 1.10232(8) 0.01627(19) 0.5314(3)
H3F H 1.0946 -0.0615 0.5529
H4F H 1.1578 0.0381 0.6884
H5F H 1.1766 0.2278 0.6242
C9F C 1.13776(8) 0.35552(16) 0.4060(2)
C10F C 1.17577(8) 0.36771(16) 0.3128(2)
C11F C 1.20368(9) 0.27386(18) 0.2610(3)
H6F H 1.1958 0.1976 0.2891
C12F C 1.24132(9) 0.2905(2) 0.1722(3)
H7F H 1.2601 0.2265 0.1417
C13F C 1.25276(9) 0.4038(2) 0.1247(3)
H8F H 1.2790 0.4149 0.0622
C14F C 1.22660(8) 0.49468(19) 0.1680(3)
H9F H 1.2339 0.5693 0.1329
C15F C 1.18808(8) 0.48161(17) 0.2659(3)
N3F N 1.16443(7) 0.57695(13) 0.3084(2)
C16F C 1.12827(9) 0.56425(16) 0.4004(3)
C17F C 1.10396(9) 0.66560(19) 0.4438(3)
H10F H 1.1132 0.7385 0.4074
C18F C 1.06736(10) 0.6586(2) 0.5376(3)
H11F H 1.0511 0.7269 0.5659
C19F C 1.05306(9) 0.5506(2) 0.5940(3)
H12F H 1.0281 0.5478 0.6617
C20F C 1.07481(9) 0.4511(2) 0.5522(3)
H13F H 1.0645 0.3793 0.5895
C21F C 1.11295(8) 0.45392(18) 0.4528(2)
loop_
_geom_bond_atom_site_label_1
_geom_bond_atom_site_label_2
_geom_bond_site_symmetry_1
_geom_bond_site_symmetry_2
N1 C1 1_555 1_555
N2 C4 1_555 1_555
N3 C15 1_555 1_555
C1 H1 1_555 1_555
C2 N1 1_555 1_555
C3 C2 1_555 1_555
H2 C3 1_555 1_555
C4 C2 1_555 1_555
C5 C4 1_555 1_555
H3 C5 1_555 1_555
C6 C5 1_555 1_555
H4 C6 1_555 1_555
C7 C6 1_555 1_555
H5 C7 1_555 1_555
C8 N2 1_555 1_555
C9 C8 1_555 1_555
C10 C9 1_555 1_555
C11 C10 1_555 1_555
H6 C11 1_555 1_555
C12 C11 1_555 1_555
H7 C12 1_555 1_555
C13 C12 1_555 1_555
H8 C13 1_555 1_555
C14 C13 1_555 1_555
H9 C14 1_555 1_555
C15 C10 1_555 1_555
C16 N3 1_555 1_555
C17 C16 1_555 1_555
H10 C17 1_555 1_555
C18 C17 1_555 1_555
H11 C18 1_555 1_555
C19 C18 1_555 1_555
H12 C19 1_555 1_555
C20 C19 1_555 1_555
H13 C20 1_555 1_555
C21 C9 1_555 1_555
N1F C1 1_555 1_555
C2F C3 1_555 1_555
C4F C2F 1_555 1_555
N2F C4F 1_555 1_555
C8F N2F 1_555 1_555
C7F C8F 1_555 1_555
C6F C7F 1_555 1_555
C5F C4F 1_555 1_555
H3F C5F 1_555 1_555
H4F C6F 1_555 1_555
H5F C7F 1_555 1_555
C9F C8F 1_555 1_555
C10F C9F 1_555 1_555
C11F C10F 1_555 1_555
H6F C11F 1_555 1_555
C12F C11F 1_555 1_555
H7F C12F 1_555 1_555
C13F C12F 1_555 1_555
H8F C13F 1_555 1_555
C14F C13F 1_555 1_555
H9F C14F 1_555 1_555
C15F C10F 1_555 1_555
N3F C15F 1_555 1_555
C16F N3F 1_555 1_555
C17F C16F 1_555 1_555
H10F C17F 1_555 1_555
C18F C17F 1_555 1_555
H11F C18F 1_555 1_555
C19F C18F 1_555 1_555
H12F C19F 1_555 1_555
C20F C19F 1_555 1_555
H13F C20F 1_555 1_555
C21F C9F 1_555 1_555
C7 C8 1_555 1_555
C14 C15 1_555 1_555
C16 C21 1_555 1_555
C20 C21 1_555 1_555
N1F C2F 1_555 1_555
C6F C5F 1_555 1_555
C14F C15F 1_555 1_555
C16F C21F 1_555 1_555
C20F C21F 1_555 1_555

#END
