
#######################################################################
#
#                 Cambridge Crystallographic Data Centre
#                                CCDC 
#
#######################################################################
#
# If this CIF has been generated from an entry in the Cambridge 
# Structural Database, then it will include bibliographic, chemical, 
# crystal, experimental, refinement or atomic coordinate data resulting 
# from the CCDC's data processing and validation procedures.
#
#######################################################################

data_EZUHUD
_chemical_formula_moiety         'C24 H19 N1 O1'
_chemical_name_systematic        
(3,5-Diphenyl-1H-pyrrol-2-yl)(4-methylphenyl)methanone
_symmetry_cell_setting           triclinic
_symmetry_space_group_name_H-M   'P -1'
_symmetry_Int_Tables_number      2
_space_group_name_Hall           '-P 1'
loop_
_symmetry_equiv_pos_site_id
_symmetry_equiv_pos_as_xyz
1 x,y,z
2 -x,-y,-z
_cell_length_a                   8.9942(5)
_cell_length_b                   9.2272(6)
_cell_length_c                   12.0198(8)
_cell_angle_alpha                99.073(5)
_cell_angle_beta                 104.225(5)
_cell_angle_gamma                101.470(5)
_cell_volume                     924.969
_exptl_crystal_colour            green
_exptl_crystal_description       platelet
_cell_formula_units_Z            2
loop_
_atom_site_label
_atom_site_type_symbol
_atom_site_fract_x
_atom_site_fract_y
_atom_site_fract_z
O1 O 0.40594(12) 0.39605(12) 0.37390(10)
N1 N 0.30407(13) 0.64174(13) 0.45699(10)
H1 H 0.3979 0.6439 0.4978
C1 C 0.44513(18) 0.93163(18) 0.63717(15)
H2 H 0.4868 0.8503 0.6537
C2 C 0.5154(2) 1.0740(2) 0.70762(17)
H3 H 0.6038 1.0879 0.7714
C3 C 0.4561(2) 1.19543(19) 0.68443(17)
H4 H 0.5035 1.2912 0.7325
C4 C 0.3271(2) 1.17463(19) 0.59049(16)
H5 H 0.2869 1.2568 0.5742
C5 C 0.2560(2) 1.03351(18) 0.51973(14)
H6 H 0.1683 1.0211 0.4558
C6 C 0.31349(16) 0.90847(16) 0.54227(13)
C7 C 0.23500(17) 0.75998(16) 0.46529(13)
C8 C 0.08580(17) 0.71035(17) 0.38594(13)
H7 H 0.0117 0.7678 0.3730
C9 C 0.06338(16) 0.56072(16) 0.32829(13)
C10 C -0.07986(17) 0.47668(16) 0.23194(14)
C11 C -0.22836(19) 0.46035(19) 0.24973(16)
H8 H -0.2370 0.4957 0.3241
C12 C -0.3632(2) 0.3923(2) 0.1583(2)
H9 H -0.4620 0.3822 0.1715
C13 C -0.3528(3) 0.3391(2) 0.0478(2)
H10 H -0.4441 0.2937 -0.0139
C14 C -0.2067(2) 0.3537(2) 0.02936(17)
H11 H -0.1988 0.3176 -0.0452
C15 C -0.07169(19) 0.42129(17) 0.12008(15)
H12 H 0.0267 0.4300 0.1063
C16 C 0.20356(16) 0.51841(16) 0.37453(13)
C17 C 0.26140(17) 0.38577(16) 0.34592(13)
C18 C 0.14897(17) 0.23864(16) 0.28345(12)
C19 C 0.00394(18) 0.19149(17) 0.30438(14)
H13 H -0.0261 0.2544 0.3586
C20 C -0.09597(19) 0.05241(18) 0.24555(15)
H14 H -0.1924 0.0227 0.2612
C21 C -0.05614(19) -0.04408(17) 0.16362(14)
C22 C 0.08919(19) 0.00319(18) 0.14398(14)
H15 H 0.1190 -0.0596 0.0895
C23 C 0.19053(18) 0.14097(18) 0.20323(14)
H16 H 0.2884 0.1690 0.1893
C24 C -0.1676(2) -0.19416(19) 0.09892(17)
H17 H -0.2548 -0.1783 0.0417
H18 H -0.2066 -0.2450 0.1537
H19 H -0.1126 -0.2552 0.0600
loop_
_geom_bond_atom_site_label_1
_geom_bond_atom_site_label_2
_geom_bond_site_symmetry_1
_geom_bond_site_symmetry_2
O1 C17 1_555 1_555
N1 H1 1_555 1_555
C1 H2 1_555 1_555
C2 C1 1_555 1_555
H3 C2 1_555 1_555
C3 C2 1_555 1_555
H4 C3 1_555 1_555
C4 C3 1_555 1_555
H5 C4 1_555 1_555
C5 C4 1_555 1_555
H6 C5 1_555 1_555
C6 C1 1_555 1_555
C7 N1 1_555 1_555
C8 C7 1_555 1_555
H7 C8 1_555 1_555
C9 C8 1_555 1_555
C10 C9 1_555 1_555
C11 C10 1_555 1_555
H8 C11 1_555 1_555
C12 C11 1_555 1_555
H9 C12 1_555 1_555
C13 C12 1_555 1_555
H10 C13 1_555 1_555
C14 C13 1_555 1_555
H11 C14 1_555 1_555
C15 C10 1_555 1_555
H12 C15 1_555 1_555
C16 N1 1_555 1_555
C17 C16 1_555 1_555
C18 C17 1_555 1_555
C19 C18 1_555 1_555
H13 C19 1_555 1_555
C20 C19 1_555 1_555
H14 C20 1_555 1_555
C21 C20 1_555 1_555
C22 C21 1_555 1_555
H15 C22 1_555 1_555
C23 C18 1_555 1_555
H16 C23 1_555 1_555
C24 C21 1_555 1_555
H17 C24 1_555 1_555
H18 C24 1_555 1_555
H19 C24 1_555 1_555
C5 C6 1_555 1_555
C6 C7 1_555 1_555
C9 C16 1_555 1_555
C14 C15 1_555 1_555
C22 C23 1_555 1_555

#END
