
#######################################################################
#
#                 Cambridge Crystallographic Data Centre
#                                CCDC 
#
#######################################################################
#
# If this CIF has been generated from an entry in the Cambridge 
# Structural Database, then it will include bibliographic, chemical, 
# crystal, experimental, refinement or atomic coordinate data resulting 
# from the CCDC's data processing and validation procedures.
#
#######################################################################

data_EZUJOA
_chemical_formula_moiety         'C26 H36 B1 F2 N3 O1'
_chemical_name_systematic        
(2-dodecyl-5-[(4'-methoxy[1H,5'H-[2,2'-bipyrrole]]-5'-ylidene)methyl]-1H-pyrrol-1-yl)-difluoro-boron
_symmetry_cell_setting           triclinic
_symmetry_space_group_name_H-M   'P -1'
_symmetry_Int_Tables_number      2
_space_group_name_Hall           '-P 1'
loop_
_symmetry_equiv_pos_site_id
_symmetry_equiv_pos_as_xyz
1 x,y,z
2 -x,-y,-z
_cell_length_a                   7.5729(9)
_cell_length_b                   10.5422(13)
_cell_length_c                   16.273(2)
_cell_angle_alpha                91.8130(10)
_cell_angle_beta                 99.1980(10)
_cell_angle_gamma                102.1900(10)
_cell_volume                     1250.65
_exptl_crystal_colour            colorless
_exptl_crystal_description       block
_cell_formula_units_Z            2
loop_
_atom_site_label
_atom_site_type_symbol
_atom_site_fract_x
_atom_site_fract_y
_atom_site_fract_z
B1 B -0.1887(2) -0.01595(16) 0.17540(10)
C1 C -0.3637(2) 0.35417(16) 0.10840(11)
H1 H -0.2760 0.4317 0.1199
C2 C -0.5385(2) 0.34185(16) 0.06957(12)
H2 H -0.5929 0.4088 0.0499
C3 C -0.6221(2) 0.21057(16) 0.06447(11)
H3 H -0.7427 0.1739 0.0403
C4 C -0.49555(18) 0.14396(14) 0.10131(8)
C5 C -0.52315(17) 0.00632(13) 0.10842(8)
C6 C -0.69377(18) -0.07966(14) 0.07946(9)
H4 H -0.8011 -0.0569 0.0547
C7 C -0.67173(19) -0.20151(14) 0.09456(9)
C8 C -0.48772(19) -0.19320(13) 0.13457(8)
C9 C -0.4022(2) -0.28756(14) 0.16430(9)
H5 H -0.4665 -0.3737 0.1572
C10 C -0.2211(2) -0.25888(15) 0.20502(9)
C11 C -0.1105(2) -0.33685(17) 0.24396(11)
H6 H -0.1429 -0.4265 0.2469
C12 C 0.0554(2) -0.25704(17) 0.27727(11)
H7 H 0.1553 -0.2836 0.3069
C13 C 0.0490(2) -0.12994(15) 0.25935(9)
C14 C 0.1916(2) -0.00900(16) 0.28457(9)
H8 H 0.1438 0.0480 0.3190
H9 H 0.2165 0.0352 0.2349
C15 C 0.3713(2) -0.03160(17) 0.33262(10)
H10 H 0.3459 -0.0814 0.3801
H11 H 0.4248 -0.0826 0.2968
C16 C 0.5073(2) 0.09288(18) 0.36288(10)
H12 H 0.4511 0.1446 0.3970
H13 H 0.5334 0.1413 0.3149
C17 C 0.6880(2) 0.07721(18) 0.41322(10)
H14 H 0.6635 0.0288 0.4614
H15 H 0.7469 0.0274 0.3792
C18 C 0.8157(2) 0.20583(19) 0.44219(12)
H16 H 0.7566 0.2533 0.4776
H17 H 0.8327 0.2553 0.3937
C19 C 1.0032(2) 0.20085(18) 0.48963(11)
H18 H 0.9879 0.1489 0.5372
H19 H 1.0667 0.1582 0.4537
C20 C 1.1200(2) 0.33399(18) 0.52006(12)
H20 H 1.1343 0.3853 0.4722
H21 H 1.0549 0.3765 0.5554
C21 C 1.3085(2) 0.33464(17) 0.56827(12)
H22 H 1.3802 0.3027 0.5312
H23 H 1.2961 0.2756 0.6126
C22 C 1.4101(2) 0.46853(17) 0.60592(12)
H24 H 1.4267 0.5260 0.5611
H25 H 1.3344 0.5019 0.6403
C23 C 1.5954(2) 0.47300(17) 0.65833(12)
H26 H 1.6777 0.4530 0.6223
H27 H 1.5823 0.4063 0.6980
C24 C 1.6810(3) 0.60361(19) 0.70567(14)
H28 H 1.7003 0.6693 0.6657
H29 H 1.5951 0.6259 0.7390
C25 C 1.8605(3) 0.6079(2) 0.76209(17)
H30 H 1.8442 0.5413 0.8008
H31 H 1.9018 0.6915 0.7923
H32 H 1.9500 0.5938 0.7292
C26 C -0.9705(2) -0.31242(18) 0.03818(12)
H33 H -1.0216 -0.2586 0.0723
H34 H -1.0467 -0.3986 0.0303
H35 H -0.9642 -0.2765 -0.0150
F1 F -0.09751(11) 0.02572(9) 0.11013(5)
F2 F -0.15717(12) 0.08832(8) 0.23452(5)
N1 N -0.33739(17) 0.23509(12) 0.12770(8)
H36 H -0.2364 0.2191 0.1528
N2 N -0.39807(14) -0.06153(11) 0.14166(7)
N3 N -0.12039(15) -0.13094(11) 0.21462(7)
O1 O -0.78958(14) -0.31787(10) 0.07855(7)
loop_
_geom_bond_atom_site_label_1
_geom_bond_atom_site_label_2
_geom_bond_site_symmetry_1
_geom_bond_site_symmetry_2
B1 F1 1_555 1_555
C1 H1 1_555 1_555
C2 C1 1_555 1_555
H2 C2 1_555 1_555
C3 C2 1_555 1_555
H3 C3 1_555 1_555
C4 C3 1_555 1_555
C5 C4 1_555 1_555
C6 C5 1_555 1_555
H4 C6 1_555 1_555
C7 C6 1_555 1_555
C8 C7 1_555 1_555
C9 C8 1_555 1_555
H5 C9 1_555 1_555
C10 C9 1_555 1_555
C11 C10 1_555 1_555
H6 C11 1_555 1_555
C12 C11 1_555 1_555
H7 C12 1_555 1_555
C13 C12 1_555 1_555
C14 C13 1_555 1_555
H8 C14 1_555 1_555
H9 C14 1_555 1_555
C15 C14 1_555 1_555
H10 C15 1_555 1_555
H11 C15 1_555 1_555
C16 C15 1_555 1_555
H12 C16 1_555 1_555
H13 C16 1_555 1_555
C17 C16 1_555 1_555
H14 C17 1_555 1_555
H15 C17 1_555 1_555
C18 C17 1_555 1_555
H16 C18 1_555 1_555
H17 C18 1_555 1_555
C19 C18 1_555 1_555
H18 C19 1_555 1_555
H19 C19 1_555 1_555
C20 C19 1_555 1_555
H20 C20 1_555 1_555
H21 C20 1_555 1_555
C21 C20 1_555 1_555
H22 C21 1_555 1_555
H23 C21 1_555 1_555
C22 C21 1_555 1_555
H24 C22 1_555 1_555
H25 C22 1_555 1_555
C23 C22 1_555 1_555
H26 C23 1_555 1_555
H27 C23 1_555 1_555
C24 C23 1_555 1_555
H28 C24 1_555 1_555
H29 C24 1_555 1_555
C25 C24 1_555 1_555
H30 C25 1_555 1_555
H31 C25 1_555 1_555
H32 C25 1_555 1_555
C26 H33 1_555 1_555
H34 C26 1_555 1_555
H35 C26 1_555 1_555
F2 B1 1_555 1_555
N1 C1 1_555 1_555
H36 N1 1_555 1_555
N2 B1 1_555 1_555
N3 B1 1_555 1_555
O1 C7 1_555 1_555
C4 N1 1_555 1_555
C5 N2 1_555 1_555
C8 N2 1_555 1_555
C10 N3 1_555 1_555
C13 N3 1_555 1_555
C26 O1 1_555 1_555

#END
