
#######################################################################
#
#                 Cambridge Crystallographic Data Centre
#                                CCDC 
#
#######################################################################
#
# If this CIF has been generated from an entry in the Cambridge 
# Structural Database, then it will include bibliographic, chemical, 
# crystal, experimental, refinement or atomic coordinate data resulting 
# from the CCDC's data processing and validation procedures.
#
#######################################################################

data_EZUJAK
_chemical_formula_moiety         
'C50 H38 N6 2+,2(C2 F3 O2 1-),2(C1 H1 Cl3),0.5(C6 H12)'
_chemical_name_systematic        
'4,6-bis(6-(Acridinium-9-yl)pyridin-2-yl)-2-(4-butylphenyl)pyrimidine bis(trifluoroacetate) chloroform cyclohexane solvate'
_symmetry_cell_setting           triclinic
_symmetry_space_group_name_H-M   'P -1'
_symmetry_Int_Tables_number      2
_space_group_name_Hall           '-P 1'
loop_
_symmetry_equiv_pos_site_id
_symmetry_equiv_pos_as_xyz
1 x,y,z
2 -x,-y,-z
_cell_length_a                   13.310(3)
_cell_length_b                   13.490(3)
_cell_length_c                   16.660(3)
_cell_angle_alpha                81.15(3)
_cell_angle_beta                 74.62(3)
_cell_angle_gamma                80.74(3)
_cell_volume                     2827.13
_cell_formula_units_Z            2
loop_
_atom_site_label
_atom_site_type_symbol
_atom_site_fract_x
_atom_site_fract_y
_atom_site_fract_z
C1 C 0.3531(6) 0.7607(6) 0.3446(4)
C2 C 0.4346(5) 0.8211(6) 0.3252(4)
C3 C 0.4210(6) 0.9230(6) 0.3404(5)
H1 H 0.3529 0.9545 0.3649
C4 C 0.5048(6) 0.9774(6) 0.3203(5)
H2 H 0.4943 1.0465 0.3295
C5 C 0.6076(6) 0.9299(7) 0.2856(5)
H3 H 0.6656 0.9672 0.2737
C6 C 0.6241(6) 0.8327(6) 0.2691(5)
H4 H 0.6930 0.8023 0.2455
C7 C 0.5383(6) 0.7769(6) 0.2875(4)
C8 C 0.4754(6) 0.6220(6) 0.2841(4)
C9 C 0.4990(7) 0.5228(6) 0.2602(5)
H5 H 0.5687 0.4970 0.2337
C10 C 0.4187(8) 0.4653(7) 0.2764(6)
H6 H 0.4330 0.3985 0.2612
C11 C 0.3148(8) 0.5035(7) 0.3153(6)
H7 H 0.2605 0.4619 0.3256
C12 C 0.2911(7) 0.5981(6) 0.3380(5)
H8 H 0.2205 0.6221 0.3638
C13 C 0.3713(6) 0.6627(6) 0.3238(5)
C14 C 0.2438(5) 0.8028(6) 0.3888(4)
C15 C 0.2035(6) 0.7698(6) 0.4734(5)
H9 H 0.2440 0.7225 0.5045
C16 C 0.1015(6) 0.8095(6) 0.5099(5)
H10 H 0.0711 0.7901 0.5675
C17 C 0.0453(6) 0.8759(6) 0.4633(4)
H11 H -0.0252 0.9018 0.4876
C18 C 0.0928(5) 0.9061(5) 0.3785(4)
C19 C 0.0382(5) 0.9817(5) 0.3254(4)
C20 C 0.0885(5) 1.0185(6) 0.2455(5)
H12 H 0.1589 0.9924 0.2209
C21 C -0.1108(5) 1.0872(6) 0.3114(5)
C22 C 0.0350(6) 1.0931(6) 0.2026(5)
C23 C 0.0858(5) 1.1408(6) 0.1174(5)
C24 C 0.0425(6) 1.2319(6) 0.0839(5)
H13 H -0.0217 1.2654 0.1139
C25 C 0.0944(6) 1.2745(7) 0.0049(5)
H14 H 0.0666 1.3376 -0.0198
C26 C 0.1864(6) 1.2229(6) -0.0359(5)
H15 H 0.2247 1.2505 -0.0891
C27 C 0.2226(6) 1.1304(6) 0.0013(5)
C28 C 0.3203(6) 1.0689(6) -0.0420(4)
C29 C 0.4181(6) 1.1077(6) -0.0661(4)
C30 C 0.4313(6) 1.2036(7) -0.0483(5)
H16 H 0.3726 1.2446 -0.0186
C31 C 0.5270(7) 1.2377(7) -0.0733(5)
H17 H 0.5350 1.3017 -0.0605
C32 C 0.6148(6) 1.1770(8) -0.1186(5)
H18 H 0.6806 1.2027 -0.1376
C33 C 0.6077(6) 1.0841(7) -0.1355(5)
H19 H 0.6676 1.0442 -0.1650
C34 C 0.5079(6) 1.0474(6) -0.1080(4)
C35 C 0.4085(6) 0.9146(6) -0.1042(5)
C36 C 0.4058(7) 0.8202(7) -0.1265(5)
H20 H 0.4685 0.7833 -0.1555
C37 C 0.3140(8) 0.7808(8) -0.1068(6)
H21 H 0.3123 0.7167 -0.1230
C38 C 0.2201(7) 0.8340(8) -0.0624(6)
H22 H 0.1564 0.8049 -0.0485
C39 C 0.2204(7) 0.9257(7) -0.0397(6)
H23 H 0.1571 0.9604 -0.0097
C40 C 0.3159(6) 0.9711(6) -0.0605(5)
C41 C -0.2688(6) 1.2165(7) 0.3181(5)
H24 H -0.2294 1.2558 0.2717
C42 C -0.3707(7) 1.2535(8) 0.3544(6)
H25 H -0.3993 1.3191 0.3348
C43 C -0.4325(6) 1.1946(7) 0.4205(5)
C44 C -0.3857(6) 1.1012(6) 0.4488(5)
H26 H -0.4256 1.0602 0.4935
C45 C -0.2829(5) 1.0665(6) 0.4138(4)
H27 H -0.2528 1.0026 0.4354
C46 C -0.2222(5) 1.1233(6) 0.3474(4)
C47 C -0.5433(6) 1.2351(8) 0.4627(6)
H28 H -0.5709 1.1855 0.5106
H29 H -0.5876 1.2413 0.4225
C48 C -0.5539(6) 1.3390(7) 0.4949(5)
H30 H -0.5085 1.3336 0.5342
H31 H -0.5286 1.3894 0.4469
C49 C -0.6655(7) 1.3758(8) 0.5388(6)
H32 H -0.6895 1.3279 0.5892
H33 H -0.7120 1.3775 0.5009
C50 C -0.6743(8) 1.4811(8) 0.5649(6)
H34 H -0.7476 1.5031 0.5923
H35 H -0.6507 1.5287 0.5152
H36 H -0.6302 1.4791 0.6040
N1 N 0.5538(5) 0.6807(5) 0.2691(4)
H37 H 0.6182 0.6546 0.2461
N2 N 0.1920(4) 0.8686(4) 0.3419(4)
N3 N -0.0631(4) 1.0162(5) 0.3586(4)
N4 N -0.0657(5) 1.1289(5) 0.2346(4)
N5 N 0.1745(5) 1.0883(5) 0.0772(4)
N6 N 0.5001(5) 0.9555(5) -0.1258(4)
H38 H 0.5572 0.9201 -0.1526
C51 C 0.0921(11) 0.5061(11) -0.1909(10)
C52 C 0.2064(9) 0.4673(11) -0.1994(7)
O1 O 0.2386(5) 0.3832(5) -0.2128(4)
O2 O 0.2546(8) 0.5400(11) -0.1937(10)
F1 F 0.0451(6) 0.5243(7) -0.1107(7)
F2 F 0.0415(7) 0.4429(7) -0.2053(10)
F3 F 0.0767(7) 0.5943(6) -0.2363(6)
C53 C 0.3163(7) 0.1882(7) 0.2620(7)
C54 C 0.2122(8) 0.2036(9) 0.3285(8)
O3 O 0.3216(5) 0.1291(5) 0.2142(4)
O4 O 0.3872(6) 0.2296(6) 0.2756(5)
F4 F 0.2107(5) 0.2721(6) 0.3771(5)
F5 F 0.1924(6) 0.1182(6) 0.3778(5)
F6 F 0.1304(5) 0.2275(6) 0.2988(6)
C55 C -0.0318(15) 0.4371(14) 0.448(2)
H39 H -0.0102 0.3895 0.4053
H40 H -0.1092 0.4421 0.4686
C56 C 0.0163(10) 0.3912(7) 0.5219(9)
H41 H 0.0917 0.3680 0.4995
H42 H -0.0181 0.3310 0.5504
C57 C -0.0057(13) 0.532(3) 0.4095(18)
H43 H 0.0674 0.5251 0.3746
H44 H -0.0527 0.5608 0.3722
C57A C 0.0057(13) 0.468(3) 0.5905(18)
C55A C 0.0318(15) 0.5629(14) 0.552(2)
H39A H 0.0102 0.6105 0.5947
H40A H 0.1092 0.5579 0.5314
C56A C -0.0163(10) 0.6088(7) 0.4781(9)
H41A H -0.0917 0.6320 0.5005
H42A H 0.0181 0.6690 0.4496
H43A H -0.0674 0.4749 0.6254
H44A H 0.0527 0.4392 0.6278
C58 C -0.0623(9) 0.7860(9) 0.2202(8)
H45 H -0.0899 0.7328 0.1994
Cl1 Cl -0.1006(3) 0.9036(2) 0.1718(2)
Cl2 Cl -0.1173(3) 0.7865(3) 0.3278(3)
Cl3 Cl 0.0740(3) 0.7576(3) 0.2047(4)
C59? C 0.282(3) 0.486(3) 0.048(2)
Cl4? Cl 0.2482(9) 0.3776(8) 0.1201(6)
Cl5? Cl 0.3093(13) 0.3820(11) 0.1077(9)
Cl6? Cl 0.2426(15) 0.5767(13) 0.1127(12)
Cl7? Cl 0.2252(10) 0.5975(10) 0.0744(9)
Cl8? Cl 0.2975(11) 0.5828(9) 0.1088(7)
Cl9? Cl 0.4231(13) 0.5112(12) -0.0126(11)
Cl10? Cl 0.4412(15) 0.4652(15) 0.0543(12)
O5? O 0.2961(10) 0.4769(9) -0.0336(8)
O6? O 0.2244(13) 0.5139(11) -0.0140(9)
loop_
_geom_bond_atom_site_label_1
_geom_bond_atom_site_label_2
_geom_bond_site_symmetry_1
_geom_bond_site_symmetry_2
C1 C2 1_555 1_555
C2 C3 1_555 1_555
C3 H1 1_555 1_555
C4 C3 1_555 1_555
H2 C4 1_555 1_555
C5 C4 1_555 1_555
H3 C5 1_555 1_555
C6 C5 1_555 1_555
H4 C6 1_555 1_555
C7 C2 1_555 1_555
C8 C9 1_555 1_555
C9 H5 1_555 1_555
C10 C9 1_555 1_555
H6 C10 1_555 1_555
C11 C10 1_555 1_555
H7 C11 1_555 1_555
C12 C11 1_555 1_555
H8 C12 1_555 1_555
C13 C1 1_555 1_555
C14 C1 1_555 1_555
C15 C14 1_555 1_555
H9 C15 1_555 1_555
C16 C15 1_555 1_555
H10 C16 1_555 1_555
C17 C16 1_555 1_555
H11 C17 1_555 1_555
C18 C17 1_555 1_555
C19 C18 1_555 1_555
C20 C19 1_555 1_555
H12 C20 1_555 1_555
C21 C46 1_555 1_555
C22 C20 1_555 1_555
C23 C22 1_555 1_555
C24 C23 1_555 1_555
H13 C24 1_555 1_555
C25 C24 1_555 1_555
H14 C25 1_555 1_555
C26 C25 1_555 1_555
H15 C26 1_555 1_555
C27 C26 1_555 1_555
C28 C27 1_555 1_555
C29 C28 1_555 1_555
C30 C29 1_555 1_555
H16 C30 1_555 1_555
C31 C30 1_555 1_555
H17 C31 1_555 1_555
C32 C31 1_555 1_555
H18 C32 1_555 1_555
C33 C32 1_555 1_555
H19 C33 1_555 1_555
C34 C29 1_555 1_555
C35 C36 1_555 1_555
C36 H20 1_555 1_555
C37 C36 1_555 1_555
H21 C37 1_555 1_555
C38 C37 1_555 1_555
H22 C38 1_555 1_555
C39 C38 1_555 1_555
H23 C39 1_555 1_555
C40 C28 1_555 1_555
C41 H24 1_555 1_555
C42 C41 1_555 1_555
H25 C42 1_555 1_555
C43 C42 1_555 1_555
C44 C43 1_555 1_555
H26 C44 1_555 1_555
C45 C44 1_555 1_555
H27 C45 1_555 1_555
C46 C41 1_555 1_555
C47 C43 1_555 1_555
H28 C47 1_555 1_555
H29 C47 1_555 1_555
C48 C47 1_555 1_555
H30 C48 1_555 1_555
H31 C48 1_555 1_555
C49 C48 1_555 1_555
H32 C49 1_555 1_555
H33 C49 1_555 1_555
C50 C49 1_555 1_555
H34 C50 1_555 1_555
H35 C50 1_555 1_555
H36 C50 1_555 1_555
N1 C7 1_555 1_555
H37 N1 1_555 1_555
N2 C14 1_555 1_555
N3 C19 1_555 1_555
N4 C21 1_555 1_555
N5 C23 1_555 1_555
N6 C34 1_555 1_555
H38 N6 1_555 1_555
C51 C52 1_555 1_555
C52 O1 1_555 1_555
O2 C52 1_555 1_555
F1 C51 1_555 1_555
F2 C51 1_555 1_555
F3 C51 1_555 1_555
C53 C54 1_555 1_555
C54 F4 1_555 1_555
O3 C53 1_555 1_555
O4 C53 1_555 1_555
F5 C54 1_555 1_555
F6 C54 1_555 1_555
C55 H39 1_555 1_555
H40 C55 1_555 1_555
C56 C55 1_555 1_555
H41 C56 1_555 1_555
H42 C56 1_555 1_555
C57 C55 1_555 1_555
H43 C57 1_555 1_555
H44 C57 1_555 1_555
C58 H45 1_555 1_555
Cl1 C58 1_555 1_555
Cl2 C58 1_555 1_555
Cl3 C58 1_555 1_555
C57A C56 1_555 1_555
C55A C57A 1_555 1_555
H39A C55A 1_555 1_555
H40A C55A 1_555 1_555
C56A C57 1_555 1_555
H41A C56A 1_555 1_555
H42A C56A 1_555 1_555
H43A C57A 1_555 1_555
H44A C57A 1_555 1_555
C6 C7 1_555 1_555
C8 N1 1_555 1_555
C8 C13 1_555 1_555
C12 C13 1_555 1_555
C18 N2 1_555 1_555
C21 N3 1_555 1_555
C22 N4 1_555 1_555
C27 N5 1_555 1_555
C33 C34 1_555 1_555
C35 N6 1_555 1_555
C35 C40 1_555 1_555
C39 C40 1_555 1_555
C45 C46 1_555 1_555
C55A C56A 1_555 1_555

#END
