
#######################################################################
#
#                 Cambridge Crystallographic Data Centre
#                                CCDC 
#
#######################################################################
#
# If this CIF has been generated from an entry in the Cambridge 
# Structural Database, then it will include bibliographic, chemical, 
# crystal, experimental, refinement or atomic coordinate data resulting 
# from the CCDC's data processing and validation procedures.
#
#######################################################################

data_EZUJEO
_chemical_formula_moiety         'C41 H27 N6 1+,C1 F3 O3 S1 1-,C1 H4 O1'
_chemical_name_systematic        
'4-((6-Acridin-9-yl)pyridin-2-yl)-6-((10-methylacridinium-9-yl)pyridin-2-yl)pyrimidine trifluorosulfonate methanol solvate'
_symmetry_cell_setting           triclinic
_symmetry_space_group_name_H-M   'P -1'
_symmetry_Int_Tables_number      2
_space_group_name_Hall           '-P 1'
loop_
_symmetry_equiv_pos_site_id
_symmetry_equiv_pos_as_xyz
1 x,y,z
2 -x,-y,-z
_cell_length_a                   11.161
_cell_length_b                   13.733
_cell_length_c                   14.107
_cell_angle_alpha                67.50
_cell_angle_beta                 74.02
_cell_angle_gamma                71.86
_cell_volume                     1868.09
_cell_formula_units_Z            2
_exptl_crystal_recrystallization_method chloroform
loop_
_atom_site_label
_atom_site_type_symbol
_atom_site_fract_x
_atom_site_fract_y
_atom_site_fract_z
N1 N 0.3219(5) 0.5932(3) 0.0962(4)
N2 N 0.3171(6) 0.6018(4) 0.2658(4)
N3 N 0.4081(4) 0.3156(3) 0.1030(3)
N4 N 0.5558(5) -0.0924(3) 0.1573(3)
N5 N 0.3675(5) 0.3342(3) 0.4525(3)
N6 N 0.4050(5) -0.0589(3) 0.6547(3)
C1 C 0.3478(6) 0.4846(4) 0.1365(4)
C2 C 0.3058(7) 0.6442(5) 0.1642(5)
H1 H 0.2832 0.7211 0.1373
C3 C 0.3406(6) 0.4943(4) 0.3046(4)
C4 C 0.3567(6) 0.4317(4) 0.2413(4)
H2 H 0.3732 0.3549 0.2695
C5 C 0.3635(6) 0.4230(4) 0.0654(4)
C6 C 0.3348(6) 0.4773(4) -0.0348(4)
H3 H 0.3073 0.5540 -0.0598
C7 C 0.3478(6) 0.4161(5) -0.0957(5)
H4 H 0.3273 0.4502 -0.1637
C8 C 0.3908(6) 0.3046(5) -0.0585(4)
H5 H 0.3999 0.2615 -0.1002
C9 C 0.4205(5) 0.2569(4) 0.0414(4)
C10 C 0.4695(6) 0.1370(4) 0.0842(4)
C11 C 0.3841(6) 0.0678(4) 0.1134(4)
C12 C 0.2496(6) 0.1084(5) 0.1109(4)
H6 H 0.2149 0.1843 0.0871
C13 C 0.1726(6) 0.0397(5) 0.1418(4)
H7 H 0.0840 0.0676 0.1386
C14 C 0.2211(7) -0.0726(5) 0.1788(5)
H8 H 0.1651 -0.1199 0.2005
C15 C 0.3465(7) -0.1140(5) 0.1839(4)
H9 H 0.3773 -0.1903 0.2100
C16 C 0.4334(6) -0.0462(4) 0.1513(4)
C17 C 0.6381(6) -0.0276(4) 0.1279(4)
C18 C 0.7693(6) -0.0770(5) 0.1329(4)
H10 H 0.7971 -0.1538 0.1549
C19 C 0.8566(6) -0.0147(5) 0.1060(4)
H11 H 0.9443 -0.0488 0.1095
C20 C 0.8174(6) 0.0981(4) 0.0736(4)
H12 H 0.8786 0.1400 0.0559
C21 C 0.6933(6) 0.1487(4) 0.0670(4)
H13 H 0.6693 0.2256 0.0446
C22 C 0.5975(6) 0.0892(4) 0.0927(4)
C23 C 0.3524(6) 0.4421(4) 0.4165(4)
C24 C 0.3426(6) 0.5007(5) 0.4802(5)
H14 H 0.3274 0.5775 0.4537
C25 C 0.3550(7) 0.4462(5) 0.5819(5)
H15 H 0.3507 0.4851 0.6263
C26 C 0.3736(7) 0.3366(5) 0.6201(5)
H16 H 0.3839 0.2978 0.6905
C27 C 0.3773(6) 0.2824(4) 0.5527(4)
C28 C 0.3876(6) 0.1639(4) 0.5879(4)
C29 C 0.2776(6) 0.1257(4) 0.6077(4)
C30 C 0.1563(6) 0.1953(5) 0.5935(4)
H17 H 0.1472 0.2713 0.5730
C31 C 0.0509(7) 0.1563(6) 0.6084(5)
H18 H -0.0304 0.2043 0.5991
C32 C 0.0661(7) 0.0439(5) 0.6376(5)
H19 H -0.0062 0.0173 0.6452
C33 C 0.1782(6) -0.0281(5) 0.6555(4)
H20 H 0.1833 -0.1036 0.6773
C34 C 0.2886(6) 0.0101(4) 0.6415(4)
C35 C 0.5155(6) -0.0230(5) 0.6324(4)
C36 C 0.6362(6) -0.0956(5) 0.6444(4)
H21 H 0.6430 -0.1716 0.6714
C37 C 0.7419(7) -0.0558(5) 0.6169(5)
H22 H 0.8228 -0.1053 0.6234
C38 C 0.7370(6) 0.0555(5) 0.5791(5)
H23 H 0.8132 0.0807 0.5603
C39 C 0.6224(6) 0.1263(5) 0.5698(4)
H24 H 0.6195 0.2017 0.5436
C40 C 0.5048(6) 0.0921(4) 0.5981(4)
C41 C 0.4162(6) -0.1787(4) 0.6941(5)
H25 H 0.3316 -0.1930 0.7067
H26 H 0.4500 -0.2107 0.7593
H27 H 0.4745 -0.2107 0.6421
S1 S 0.8855(2) 0.29961(15) 0.33962(16)
O2 O 0.9514(7) 0.1899(5) 0.3706(5)
O4 O 0.9132(12) 0.3743(9) 0.3814(9)
O5 O 0.7701(9) 0.3329(7) 0.3048(7)
C42 C 0.9692(18) 0.3344(14) 0.2000(13)
F1 F 0.9311(12) 0.4343(9) 0.1537(9)
F2 F 1.0894(9) 0.3354(7) 0.2032(6)
F3 F 0.9566(12) 0.2711(10) 0.1551(10)
O6 O 0.9908(14) 0.2892(11) 0.8204(11)
C44 C 1.024(3) 0.334(3) 0.906(3)
O1? O 1.0142(18) 0.4531(14) 0.6223(14)
O3? O 0.8270(15) 0.3066(11) 0.4387(11)
F4? F 1.0721(19) 0.3509(14) 0.3486(15)
F5? F 0.9340(18) 0.4772(14) 0.2758(13)
C43? C 1.023(4) 0.394(3) 0.249(3)
C45? C 1.0000 0.5000 0.5000
loop_
_geom_bond_atom_site_label_1
_geom_bond_atom_site_label_2
_geom_bond_site_symmetry_1
_geom_bond_site_symmetry_2
N1 C1 1_555 1_555
N2 C2 1_555 1_555
N3 C5 1_555 1_555
N4 C16 1_555 1_555
N5 C23 1_555 1_555
N6 C34 1_555 1_555
C1 C4 1_555 1_555
C2 N1 1_555 1_555
H1 C2 1_555 1_555
C3 N2 1_555 1_555
C4 C3 1_555 1_555
H2 C4 1_555 1_555
C5 C1 1_555 1_555
C6 C5 1_555 1_555
H3 C6 1_555 1_555
C7 C6 1_555 1_555
H4 C7 1_555 1_555
C8 C7 1_555 1_555
H5 C8 1_555 1_555
C9 N3 1_555 1_555
C10 C9 1_555 1_555
C11 C10 1_555 1_555
C12 C11 1_555 1_555
H6 C12 1_555 1_555
C13 C12 1_555 1_555
H7 C13 1_555 1_555
C14 C13 1_555 1_555
H8 C14 1_555 1_555
C15 C14 1_555 1_555
H9 C15 1_555 1_555
C16 C11 1_555 1_555
C17 N4 1_555 1_555
C18 C17 1_555 1_555
H10 C18 1_555 1_555
C19 C18 1_555 1_555
H11 C19 1_555 1_555
C20 C19 1_555 1_555
H12 C20 1_555 1_555
C21 C20 1_555 1_555
H13 C21 1_555 1_555
C22 C10 1_555 1_555
C23 C3 1_555 1_555
C24 C23 1_555 1_555
H14 C24 1_555 1_555
C25 C24 1_555 1_555
H15 C25 1_555 1_555
C26 C25 1_555 1_555
H16 C26 1_555 1_555
C27 N5 1_555 1_555
C28 C27 1_555 1_555
C29 C28 1_555 1_555
C30 C29 1_555 1_555
H17 C30 1_555 1_555
C31 C30 1_555 1_555
H18 C31 1_555 1_555
C32 C31 1_555 1_555
H19 C32 1_555 1_555
C33 C32 1_555 1_555
H20 C33 1_555 1_555
C34 C29 1_555 1_555
C35 N6 1_555 1_555
C36 C35 1_555 1_555
H21 C36 1_555 1_555
C37 C36 1_555 1_555
H22 C37 1_555 1_555
C38 C37 1_555 1_555
H23 C38 1_555 1_555
C39 C38 1_555 1_555
H24 C39 1_555 1_555
C40 C28 1_555 1_555
C41 N6 1_555 1_555
H25 C41 1_555 1_555
H26 C41 1_555 1_555
H27 C41 1_555 1_555
S1 O2 1_555 1_555
O4 S1 1_555 1_555
O5 S1 1_555 1_555
C42 S1 1_555 1_555
F1 C42 1_555 1_555
F2 C42 1_555 1_555
F3 C42 1_555 1_555
O6 C44 1_555 1_555
C8 C9 1_555 1_555
C15 C16 1_555 1_555
C17 C22 1_555 1_555
C21 C22 1_555 1_555
C26 C27 1_555 1_555
C33 C34 1_555 1_555
C35 C40 1_555 1_555
C39 C40 1_555 1_555

#END
