
#######################################################################
#
#                 Cambridge Crystallographic Data Centre
#                                CCDC 
#
#######################################################################
#
# If this CIF has been generated from an entry in the Cambridge 
# Structural Database, then it will include bibliographic, chemical, 
# crystal, experimental, refinement or atomic coordinate data resulting 
# from the CCDC's data processing and validation procedures.
#
#######################################################################

data_EZUQEX
_chemical_formula_moiety         'C19 H15 N3 O3'
_chemical_name_systematic        
2-(2-(hydroxyimino)-2-(4-methylphenyl)ethyl)chromeno[4,3-c]pyrazol-4(2H)-one
_symmetry_cell_setting           triclinic
_symmetry_space_group_name_H-M   'P -1'
_symmetry_Int_Tables_number      2
_space_group_name_Hall           '-P 1'
loop_
_symmetry_equiv_pos_site_id
_symmetry_equiv_pos_as_xyz
1 x,y,z
2 -x,-y,-z
_cell_length_a                   10.2139(6)
_cell_length_b                   12.0821(7)
_cell_length_c                   13.5275(9)
_cell_angle_alpha                75.933(2)
_cell_angle_beta                 82.704(2)
_cell_angle_gamma                81.336(2)
_cell_volume                     1593.7
_exptl_crystal_description       block
_cell_formula_units_Z            4
loop_
_atom_site_label
_atom_site_type_symbol
_atom_site_fract_x
_atom_site_fract_y
_atom_site_fract_z
O1 O 0.66717(15) 1.23845(12) -0.02015(10)
O2 O 0.85015(17) 1.14463(14) -0.08003(11)
O3 O 0.87338(14) 0.92819(12) 0.51079(10)
H1 H 0.8478 0.9405 0.5673
N1 N 0.84438(15) 0.98274(12) 0.24199(11)
N2 N 0.72953(15) 1.04762(12) 0.26807(11)
N3 N 0.80544(15) 0.84429(13) 0.49375(12)
C1 C 0.48359(19) 1.23168(16) 0.23379(16)
H2 H 0.4872 1.1938 0.3022
C2 C 0.3802(2) 1.31634(18) 0.20555(19)
H3 H 0.3140 1.3351 0.2548
C3 C 0.3745(2) 1.37337(19) 0.1043(2)
H4 H 0.3045 1.4307 0.0858
C4 C 0.4706(2) 1.34664(18) 0.03075(19)
H5 H 0.4663 1.3855 -0.0374
C5 C 0.5743(2) 1.26127(16) 0.05871(16)
C6 C 0.58262(19) 1.20249(14) 0.16077(14)
C7 C 0.69612(18) 1.11552(14) 0.17911(13)
C8 C 0.78807(19) 1.09471(15) 0.09837(14)
C9 C 0.7766(2) 1.15614(17) -0.00576(16)
C10 C 0.88253(19) 1.00826(15) 0.14197(13)
H6 H 0.9575 0.9747 0.1083
C11 C 0.91684(18) 0.90077(16) 0.32115(14)
H7 H 0.9661 0.9424 0.3538
H8 H 0.9806 0.8488 0.2893
C12 C 0.82667(17) 0.83152(14) 0.40150(13)
C13 C 0.76232(17) 0.74065(15) 0.37748(13)
C14 C 0.7574(2) 0.73152(16) 0.27838(14)
H9 H 0.7949 0.7845 0.2244
C15 C 0.6978(2) 0.64521(17) 0.25748(16)
H10 H 0.6947 0.6424 0.1897
C16 C 0.64327(18) 0.56358(16) 0.33433(16)
C17 C 0.6509(2) 0.57054(19) 0.43375(17)
H11 H 0.6170 0.5151 0.4875
C18 C 0.7073(2) 0.65748(19) 0.45540(15)
H12 H 0.7087 0.6607 0.5232
C19 C 0.5773(2) 0.47021(18) 0.31226(19)
H13 H 0.4825 0.4879 0.3229
H14 H 0.6053 0.3982 0.3572
H15 H 0.6020 0.4650 0.2425
O4 O 0.82753(14) -0.21948(12) 1.00029(9)
O5 O 0.64734(16) -0.12100(14) 1.05762(10)
O6 O 0.61702(14) 0.08837(12) 0.45761(11)
H16 H 0.6511 0.0711 0.4045
N4 N 0.64868(14) 0.02526(12) 0.73274(11)
N5 N 0.76378(14) -0.04068(12) 0.70876(11)
N6 N 0.68635(16) 0.16861(13) 0.48008(12)
C20 C 1.00973(19) -0.22259(16) 0.74734(15)
H17 H 1.0071 -0.1856 0.6786
C21 C 1.1104(2) -0.30866(18) 0.77702(18)
H18 H 1.1763 -0.3294 0.7284
C22 C 1.1143(2) -0.36475(19) 0.87873(19)
H19 H 1.1823 -0.4239 0.8978
C23 C 1.0198(2) -0.33454(18) 0.95177(17)
H20 H 1.0232 -0.3724 1.0202
C24 C 0.91900(19) -0.24691(16) 0.92231(14)
C25 C 0.91168(18) -0.19042(14) 0.81969(13)
C26 C 0.79878(17) -0.10309(14) 0.79877(12)
C27 C 0.70788(18) -0.07781(15) 0.87880(13)
C28 C 0.7192(2) -0.13607(17) 0.98394(15)
C29 C 0.61231(18) 0.00538(15) 0.83306(13)
H21 H 0.5376 0.0405 0.8656
C30 C 0.57567(18) 0.10069(16) 0.65047(14)
H22 H 0.5047 0.1496 0.6795
H23 H 0.5356 0.0543 0.6161
C31 C 0.66484(17) 0.17413(14) 0.57407(13)
C32 C 0.73552(17) 0.25535(14) 0.60657(13)
C33 C 0.84725(18) 0.29723(16) 0.54801(14)
H24 H 0.8777 0.2737 0.4877
C34 C 0.91307(19) 0.37272(16) 0.57785(16)
H25 H 0.9870 0.3998 0.5369
C35 C 0.8724(2) 0.40974(16) 0.66743(16)
C36 C 0.7637(2) 0.36683(17) 0.72621(16)
H26 H 0.7347 0.3893 0.7872
C37 C 0.6963(2) 0.29117(16) 0.69679(15)
H27 H 0.6231 0.2636 0.7384
C38 C 0.9461(2) 0.4925(2) 0.6998(2)
H28 H 1.0401 0.4732 0.6852
H29 H 0.9258 0.4873 0.7719
H30 H 0.9192 0.5694 0.6629
loop_
_geom_bond_atom_site_label_1
_geom_bond_atom_site_label_2
_geom_bond_site_symmetry_1
_geom_bond_site_symmetry_2
O1 C5 1_555 1_555
O2 C9 1_555 1_555
O3 H1 1_555 1_555
N1 N2 1_555 1_555
N2 C7 1_555 1_555
N3 O3 1_555 1_555
C1 H2 1_555 1_555
C2 C1 1_555 1_555
H3 C2 1_555 1_555
C3 C2 1_555 1_555
H4 C3 1_555 1_555
C4 C3 1_555 1_555
H5 C4 1_555 1_555
C5 C4 1_555 1_555
C6 C1 1_555 1_555
C7 C6 1_555 1_555
C8 C7 1_555 1_555
C9 O1 1_555 1_555
C10 N1 1_555 1_555
H6 C10 1_555 1_555
C11 N1 1_555 1_555
H7 C11 1_555 1_555
H8 C11 1_555 1_555
C12 N3 1_555 1_555
C13 C12 1_555 1_555
C14 C13 1_555 1_555
H9 C14 1_555 1_555
C15 C14 1_555 1_555
H10 C15 1_555 1_555
C16 C15 1_555 1_555
C17 C16 1_555 1_555
H11 C17 1_555 1_555
C18 C13 1_555 1_555
H12 C18 1_555 1_555
C19 C16 1_555 1_555
H13 C19 1_555 1_555
H14 C19 1_555 1_555
H15 C19 1_555 1_555
O4 C24 1_555 1_555
O5 C28 1_555 1_555
O6 H16 1_555 1_555
N4 N5 1_555 1_555
N5 C26 1_555 1_555
N6 O6 1_555 1_555
C20 H17 1_555 1_555
C21 C20 1_555 1_555
H18 C21 1_555 1_555
C22 C21 1_555 1_555
H19 C22 1_555 1_555
C23 C22 1_555 1_555
H20 C23 1_555 1_555
C24 C23 1_555 1_555
C25 C20 1_555 1_555
C26 C25 1_555 1_555
C27 C26 1_555 1_555
C28 O4 1_555 1_555
C29 N4 1_555 1_555
H21 C29 1_555 1_555
C30 N4 1_555 1_555
H22 C30 1_555 1_555
H23 C30 1_555 1_555
C31 N6 1_555 1_555
C32 C31 1_555 1_555
C33 C32 1_555 1_555
H24 C33 1_555 1_555
C34 C33 1_555 1_555
H25 C34 1_555 1_555
C35 C34 1_555 1_555
C36 C35 1_555 1_555
H26 C36 1_555 1_555
C37 C32 1_555 1_555
H27 C37 1_555 1_555
C38 C35 1_555 1_555
H28 C38 1_555 1_555
H29 C38 1_555 1_555
H30 C38 1_555 1_555
C5 C6 1_555 1_555
C8 C9 1_555 1_555
C8 C10 1_555 1_555
C11 C12 1_555 1_555
C17 C18 1_555 1_555
C24 C25 1_555 1_555
C27 C28 1_555 1_555
C27 C29 1_555 1_555
C30 C31 1_555 1_555
C36 C37 1_555 1_555

#END
