
#######################################################################
#
#                 Cambridge Crystallographic Data Centre
#                                CCDC 
#
#######################################################################
#
# If this CIF has been generated from an entry in the Cambridge 
# Structural Database, then it will include bibliographic, chemical, 
# crystal, experimental, refinement or atomic coordinate data resulting 
# from the CCDC's data processing and validation procedures.
#
#######################################################################

data_EZUQIB
_chemical_formula_moiety         'C18 H12 N2 O3'
_chemical_name_systematic        
2-(2-oxo-2-phenylethyl)chromeno[4,3-c]pyrazol-4(2H)-one
_symmetry_cell_setting           monoclinic
_symmetry_space_group_name_H-M   'P 21/c'
_symmetry_Int_Tables_number      14
_space_group_name_Hall           '-P 2ybc'
loop_
_symmetry_equiv_pos_site_id
_symmetry_equiv_pos_as_xyz
1 x,y,z
2 -x,1/2+y,1/2-z
3 -x,-y,-z
4 x,1/2-y,1/2+z
_cell_length_a                   12.648(3)
_cell_length_b                   14.309(3)
_cell_length_c                   8.0559(16)
_cell_angle_alpha                90
_cell_angle_beta                 101.822(7)
_cell_angle_gamma                90
_cell_volume                     1427.03
_exptl_crystal_description       block
_cell_formula_units_Z            4
loop_
_atom_site_label
_atom_site_type_symbol
_atom_site_fract_x
_atom_site_fract_y
_atom_site_fract_z
O1 O 1.19918(9) 0.81523(8) 0.82204(15)
O2 O 0.71083(10) 0.85284(10) 0.44577(17)
O3 O 1.14326(11) 0.95922(9) 0.76187(17)
N1 N 0.91049(11) 0.80298(10) 0.39892(18)
N2 N 0.95376(12) 0.71767(10) 0.45192(18)
C1 C 1.04444(14) 0.83596(12) 0.6047(2)
C2 C 1.03555(13) 0.73943(12) 0.5780(2)
C3 C 1.19123(14) 0.71893(13) 0.8005(2)
C4 C 0.62616(14) 0.85828(12) 0.1558(2)
C5 C 1.11087(14) 0.67697(12) 0.6810(2)
C6 C 0.96196(14) 0.87392(13) 0.4866(2)
H1 H 0.9453 0.9370 0.4709
C7 C 1.12788(14) 0.87736(14) 0.7300(2)
C8 C 0.71761(14) 0.84237(12) 0.2993(2)
C9 C 1.10969(16) 0.57973(13) 0.6718(2)
H2 H 1.0567 0.5498 0.5927
C10 C 1.26846(15) 0.66686(14) 0.9073(2)
H3 H 1.3222 0.6962 0.9862
C11 C 0.63943(16) 0.86619(14) -0.0089(3)
H4 H 0.7082 0.8618 -0.0324
C12 C 0.82221(14) 0.80992(14) 0.2550(2)
H5 H 0.8106 0.7492 0.2007
H6 H 0.8420 0.8532 0.1738
C13 C 0.52297(16) 0.86531(14) 0.1879(3)
H7 H 0.5126 0.8604 0.2986
C14 C 1.26483(17) 0.57135(15) 0.8955(3)
H8 H 1.3162 0.5357 0.9675
C15 C 0.45032(19) 0.88723(15) -0.1044(3)
H9 H 0.3911 0.8972 -0.1921
C16 C 0.43566(17) 0.87946(15) 0.0573(3)
H10 H 0.3666 0.8837 0.0798
C17 C 1.18604(18) 0.52785(15) 0.7783(3)
H11 H 1.1845 0.4630 0.7712
C18 C 0.55140(19) 0.88058(15) -0.1396(3)
H12 H 0.5608 0.8857 -0.2508
loop_
_geom_bond_atom_site_label_1
_geom_bond_atom_site_label_2
_geom_bond_site_symmetry_1
_geom_bond_site_symmetry_2
O1 C3 1_555 1_555
O2 C8 1_555 1_555
O3 C7 1_555 1_555
N1 N2 1_555 1_555
N2 C2 1_555 1_555
C1 C2 1_555 1_555
C2 C5 1_555 1_555
C3 C5 1_555 1_555
C4 C8 1_555 1_555
C5 C9 1_555 1_555
C6 N1 1_555 1_555
H1 C6 1_555 1_555
C7 O1 1_555 1_555
C8 C12 1_555 1_555
C9 H2 1_555 1_555
C10 C3 1_555 1_555
H3 C10 1_555 1_555
C11 C4 1_555 1_555
H4 C11 1_555 1_555
C12 N1 1_555 1_555
H5 C12 1_555 1_555
H6 C12 1_555 1_555
C13 C4 1_555 1_555
H7 C13 1_555 1_555
C14 C10 1_555 1_555
H8 C14 1_555 1_555
C15 H9 1_555 1_555
C16 C13 1_555 1_555
H10 C16 1_555 1_555
C17 C9 1_555 1_555
H11 C17 1_555 1_555
C18 C11 1_555 1_555
H12 C18 1_555 1_555
C1 C6 1_555 1_555
C1 C7 1_555 1_555
C14 C17 1_555 1_555
C15 C16 1_555 1_555
C15 C18 1_555 1_555

#END
