
#######################################################################
#
#                 Cambridge Crystallographic Data Centre
#                                CCDC 
#
#######################################################################
#
# If this CIF has been generated from an entry in the Cambridge 
# Structural Database, then it will include bibliographic, chemical, 
# crystal, experimental, refinement or atomic coordinate data resulting 
# from the CCDC's data processing and validation procedures.
#
#######################################################################

data_EZUXOO
_chemical_formula_moiety         'C14 H21 N1 O5'
_chemical_name_systematic        
'ethyl 3-((2,2-dimethyl-1,3-dioxolan-4-yl)(methoxy)methyl)-1H-pyrrole-2-carboxylate'
_symmetry_cell_setting           orthorhombic
_symmetry_space_group_name_H-M   'P 21 21 21'
_symmetry_Int_Tables_number      19
_space_group_name_Hall           'P 2ac 2ab'
loop_
_symmetry_equiv_pos_site_id
_symmetry_equiv_pos_as_xyz
1 x,y,z
2 1/2-x,-y,1/2+z
3 1/2+x,1/2-y,-z
4 -x,1/2+y,1/2-z
_cell_length_a                   7.4821(4)
_cell_length_b                   13.9447(9)
_cell_length_c                   14.9797(12)
_cell_angle_alpha                90
_cell_angle_beta                 90
_cell_angle_gamma                90
_cell_volume                     1562.92
_exptl_crystal_description       block
_chemical_melting_point          '163 deg.C'
_cell_formula_units_Z            4
loop_
_atom_site_label
_atom_site_type_symbol
_atom_site_fract_x
_atom_site_fract_y
_atom_site_fract_z
O1 O 0.4833(3) 0.61330(18) 0.4959(2)
O2 O 0.7689(3) 0.56670(17) 0.48705(17)
O3 O 0.1149(2) 0.39249(16) 0.58237(16)
N1 N 0.7226(3) 0.42063(17) 0.59890(18)
H1 H 0.8322 0.4321 0.5855
C1 C 0.5797(3) 0.4745(2) 0.5724(2)
C2 C 0.4280(4) 0.4333(2) 0.6080(2)
C3 C 0.4837(4) 0.3524(2) 0.6559(2)
H2 H 0.4102 0.3100 0.6867
C4 C 0.6657(4) 0.3470(2) 0.6491(2)
H3 H 0.7378 0.3003 0.6749
C5 C 0.6004(4) 0.5585(3) 0.5159(2)
C6 C 0.8084(6) 0.6497(3) 0.4313(3)
H4 H 0.7814 0.7085 0.4632
H5 H 0.7367 0.6480 0.3773
C7 C 0.9997(6) 0.6461(3) 0.4086(3)
H6 H 1.0295 0.6998 0.3714
H7 H 1.0251 0.5876 0.3774
H8 H 1.0694 0.6487 0.4624
C8 C 0.2379(3) 0.4685(2) 0.6007(2)
H9 H 0.2294 0.5175 0.5540
C9 C 0.1791(4) 0.5097(2) 0.6885(2)
H10 H 0.1706 0.4600 0.7346
C10 C 0.2878(4) 0.5955(2) 0.7207(3)
H11 H 0.3897 0.5750 0.7558
H12 H 0.3296 0.6337 0.6708
C11 C -0.0119(5) 0.6276(2) 0.7398(3)
C12 C -0.0984(8) 0.5956(4) 0.8235(3)
H13 H -0.2215 0.5807 0.8120
H14 H -0.0913 0.6458 0.8672
H15 H -0.0385 0.5395 0.8456
C13 C -0.1106(6) 0.7069(3) 0.6945(3)
H16 H -0.0485 0.7248 0.6410
H17 H -0.1177 0.7612 0.7338
H18 H -0.2290 0.6857 0.6797
C14 C 0.1357(5) 0.3523(4) 0.4960(3)
H19 H 0.1235 0.4018 0.4519
H20 H 0.0458 0.3043 0.4865
H21 H 0.2520 0.3237 0.4911
O4 O -0.002(3) 0.5583(14) 0.6725(16)
O5 O 0.1636(18) 0.6476(10) 0.7737(10)
H22? H 0.1899 0.4590 0.7336
H23? H 0.3487 0.5802 0.7760
H24? H 0.3763 0.6133 0.6764
O6? O 0.017(4) 0.539(2) 0.689(2)
O7? O 0.168(3) 0.6696(14) 0.7337(12)
loop_
_geom_bond_atom_site_label_1
_geom_bond_atom_site_label_2
_geom_bond_site_symmetry_1
_geom_bond_site_symmetry_2
O1 C5 1_555 1_555
O2 C5 1_555 1_555
O3 C8 1_555 1_555
N1 H1 1_555 1_555
C1 N1 1_555 1_555
C2 C1 1_555 1_555
C3 C2 1_555 1_555
H2 C3 1_555 1_555
C4 N1 1_555 1_555
H3 C4 1_555 1_555
C5 C1 1_555 1_555
C6 O2 1_555 1_555
H4 C6 1_555 1_555
H5 C6 1_555 1_555
C7 C6 1_555 1_555
H6 C7 1_555 1_555
H7 C7 1_555 1_555
H8 C7 1_555 1_555
C8 C2 1_555 1_555
H9 C8 1_555 1_555
C9 C8 1_555 1_555
H10 C9 1_555 1_555
C10 C9 1_555 1_555
H11 C10 1_555 1_555
H12 C10 1_555 1_555
C11 C12 1_555 1_555
C12 H13 1_555 1_555
H14 C12 1_555 1_555
H15 C12 1_555 1_555
C13 C11 1_555 1_555
H16 C13 1_555 1_555
H17 C13 1_555 1_555
H18 C13 1_555 1_555
C14 O3 1_555 1_555
H19 C14 1_555 1_555
H20 C14 1_555 1_555
H21 C14 1_555 1_555
O4 C9 1_555 1_555
O5 C10 1_555 1_555
C3 C4 1_555 1_555
C11 O4 1_555 1_555
C11 O5 1_555 1_555

#END
