
#######################################################################
#
#                 Cambridge Crystallographic Data Centre
#                                CCDC 
#
#######################################################################
#
# If this CIF has been generated from an entry in the Cambridge 
# Structural Database, then it will include bibliographic, chemical, 
# crystal, experimental, refinement or atomic coordinate data resulting 
# from the CCDC's data processing and validation procedures.
#
#######################################################################

data_EZUYEE
_chemical_formula_moiety         'C54 H67 Br1 O10'
_chemical_name_systematic        
'4-((10-Bromodecyl)oxy)-9,14,19,24,26,28,30,32,34-nonamethoxyhexacyclo[21.2.2.2^3,6^.2^8,11^.2^13,16^.2^18,21^]pentatriaconta-1(25),3,5,8,10,13,15,18,20,23,26,28,30,32,34-pentadecaene unknown solvate'
_symmetry_cell_setting           monoclinic
_symmetry_space_group_name_H-M   'P 21/n'
_symmetry_Int_Tables_number      14
_space_group_name_Hall           '-P 2yn'
loop_
_symmetry_equiv_pos_site_id
_symmetry_equiv_pos_as_xyz
1 x,y,z
2 1/2-x,1/2+y,1/2-z
3 -x,-y,-z
4 1/2+x,1/2-y,1/2+z
_cell_length_a                   12.6266(3)
_cell_length_b                   23.2738(5)
_cell_length_c                   19.6457(4)
_cell_angle_alpha                90
_cell_angle_beta                 95.122(2)
_cell_angle_gamma                90
_cell_volume                     5750.21
_exptl_crystal_colour            colorless
_exptl_crystal_description       block
_cell_formula_units_Z            4
loop_
_atom_site_label
_atom_site_type_symbol
_atom_site_fract_x
_atom_site_fract_y
_atom_site_fract_z
Br1 Br 0.95574(2) 0.183541(13) 0.302462(15)
O1 O 0.28598(15) 0.68264(8) -0.39082(10)
O2 O 0.33272(14) 0.51529(8) -0.19028(9)
O3 O 0.41397(16) 0.86483(8) -0.27359(9)
O4 O 0.61926(15) 0.66027(9) -0.20296(10)
O5 O 0.16223(17) 0.90871(9) -0.09504(11)
O6 O 0.54521(15) 0.79980(10) -0.02263(10)
O7 O -0.11311(15) 0.74805(8) -0.09350(9)
O8 O 0.22491(15) 0.75269(8) 0.10675(9)
O9 O -0.02951(15) 0.61470(8) -0.27443(9)
O10 O 0.09147(15) 0.55844(8) -0.00505(9)
C1 C 0.06281(19) 0.57091(10) -0.07289(12)
C2 C 0.3263(2) 0.55642(11) -0.24112(13)
C3 C 0.4135(2) 0.58621(11) -0.26072(13)
H1 H 0.4806 0.5782 -0.2395
C4 C 0.4026(2) 0.62796(11) -0.31163(13)
C5 C 0.3008(2) 0.63891(11) -0.34227(13)
C6 C 0.2140(2) 0.60810(11) -0.32382(13)
H2 H 0.1473 0.6156 -0.3461
C7 C 0.2235(2) 0.56643(10) -0.27317(13)
C8 C 0.2860(3) 0.66149(16) -0.45935(15)
H3 H 0.2828 0.6933 -0.4906
H4 H 0.2253 0.6371 -0.4696
H5 H 0.3498 0.6399 -0.4637
C9 C 0.4366(2) 0.50049(11) -0.16043(14)
H6 H 0.4736 0.5347 -0.1430
H7 H 0.4775 0.4831 -0.1945
C10 C 0.4246(2) 0.45869(12) -0.10309(14)
H8 H 0.3824 0.4261 -0.1203
H9 H 0.3874 0.4772 -0.0680
C11 C 0.5324(2) 0.43753(12) -0.07201(14)
H10 H 0.5673 0.4171 -0.1068
H11 H 0.5761 0.4705 -0.0581
C12 C 0.5260(2) 0.39819(11) -0.01070(13)
H12 H 0.4976 0.4199 0.0257
H13 H 0.4764 0.3674 -0.0234
C13 C 0.6309(2) 0.37214(13) 0.01639(15)
H14 H 0.6821 0.4029 0.0255
H15 H 0.6564 0.3480 -0.0189
C14 C 0.6275(2) 0.33649(11) 0.08093(13)
H16 H 0.6023 0.3605 0.1165
H17 H 0.5767 0.3055 0.0720
C15 C 0.7342(2) 0.31105(11) 0.10668(14)
H18 H 0.7587 0.2860 0.0718
H19 H 0.7857 0.3418 0.1147
C16 C 0.7284(2) 0.27714(12) 0.17215(13)
H20 H 0.6769 0.2464 0.1639
H21 H 0.7033 0.3022 0.2067
C17 C 0.8345(2) 0.25129(12) 0.19953(14)
H22 H 0.8597 0.2254 0.1658
H23 H 0.8867 0.2816 0.2081
C18 C 0.8219(2) 0.21903(13) 0.26476(14)
H24 H 0.7685 0.1893 0.2560
H25 H 0.7971 0.2453 0.2982
C19 C 0.4978(2) 0.66307(12) -0.32909(13)
H26 H 0.5613 0.6395 -0.3237
H27 H 0.4875 0.6754 -0.3764
C20 C 0.5123(2) 0.71503(11) -0.28317(13)
C21 C 0.5709(2) 0.71228(12) -0.21941(14)
C22 C 0.5780(2) 0.75962(12) -0.17660(13)
H28 H 0.6182 0.7571 -0.1347
C23 C 0.5261(2) 0.81101(12) -0.19500(14)
C24 C 0.4673(2) 0.81380(11) -0.25861(13)
C25 C 0.4616(2) 0.76675(11) -0.30199(13)
H29 H 0.4232 0.7696 -0.3445
C26 C 0.3749(3) 0.87402(13) -0.34294(14)
H30 H 0.4317 0.8690 -0.3718
H31 H 0.3473 0.9124 -0.3482
H32 H 0.3193 0.8469 -0.3557
C27 C 0.6656(2) 0.65394(15) -0.13459(15)
H33 H 0.6963 0.6163 -0.1288
H34 H 0.6118 0.6588 -0.1035
H35 H 0.7200 0.6824 -0.1254
C28 C 0.5303(2) 0.86131(13) -0.14587(14)
H36 H 0.5262 0.8969 -0.1716
H37 H 0.5977 0.8608 -0.1179
C29 C 0.4400(2) 0.85916(12) -0.09999(13)
C30 C 0.4502(2) 0.82844(12) -0.03823(14)
C31 C 0.3674(2) 0.82780(11) 0.00334(13)
H38 H 0.3759 0.8081 0.0446
C32 C 0.2723(2) 0.85576(11) -0.01486(13)
C33 C 0.2601(2) 0.88422(11) -0.07792(14)
C34 C 0.3443(2) 0.88632(11) -0.11866(13)
H39 H 0.3362 0.9065 -0.1596
C35 C 0.1508(3) 0.94127(18) -0.15642(18)
H40 H 0.1607 0.9167 -0.1945
H41 H 0.2029 0.9714 -0.1542
H42 H 0.0809 0.9578 -0.1620
C36 C 0.5550(2) 0.76760(14) 0.03909(15)
H43 H 0.6214 0.7473 0.0428
H44 H 0.4975 0.7406 0.0389
H45 H 0.5527 0.7932 0.0773
C37 C 0.1835(2) 0.85365(11) 0.03188(14)
H46 H 0.1385 0.8872 0.0240
H47 H 0.2135 0.8545 0.0791
C38 C 0.1173(2) 0.79974(11) 0.01956(13)
C39 C 0.1411(2) 0.74955(11) 0.05648(12)
C40 C 0.0815(2) 0.69993(11) 0.04174(13)
H48 H 0.0979 0.6665 0.0665
C41 C -0.0019(2) 0.69959(11) -0.00928(12)
C42 C -0.0269(2) 0.75026(11) -0.04505(13)
C43 C 0.0332(2) 0.79935(11) -0.03097(13)
H49 H 0.0168 0.8327 -0.0559
C44 C -0.1324(2) 0.79688(13) -0.13635(14)
H50 H -0.1905 0.7890 -0.1699
H51 H -0.0698 0.8054 -0.1588
H52 H -0.1499 0.8292 -0.1092
C45 C 0.2400(2) 0.70505(12) 0.15190(14)
H53 H 0.2587 0.6718 0.1267
H54 H 0.1754 0.6977 0.1728
H55 H 0.2961 0.7135 0.1867
C46 C -0.0611(2) 0.64411(11) -0.02708(13)
H56 H -0.0570 0.6193 0.0127
H57 H -0.1355 0.6526 -0.0397
C47 C -0.0152(2) 0.61321(11) -0.08538(13)
C48 C 0.1291(2) 0.53256(11) -0.25334(13)
H58 H 0.1519 0.4939 -0.2406
H59 H 0.0769 0.5297 -0.2925
C49 C 0.1079(2) 0.54467(10) -0.12692(13)
H60 H 0.1594 0.5165 -0.1178
C50 C 0.07745(19) 0.55979(10) -0.19433(13)
C51 C -0.0011(2) 0.60165(11) -0.20641(12)
C52 C -0.0458(2) 0.62788(11) -0.15284(13)
H61 H -0.0975 0.6560 -0.1621
C53 C -0.1074(2) 0.65843(13) -0.28814(14)
H62 H -0.1242 0.6618 -0.3366
H63 H -0.0801 0.6944 -0.2702
H64 H -0.1705 0.6486 -0.2668
C54 C 0.1539(2) 0.50782(12) 0.00880(15)
H65 H 0.1200 0.4758 -0.0149
H66 H 0.1604 0.5004 0.0571
H67 H 0.2233 0.5133 -0.0065
loop_
_geom_bond_atom_site_label_1
_geom_bond_atom_site_label_2
_geom_bond_site_symmetry_1
_geom_bond_site_symmetry_2
Br1 C18 1_555 1_555
O1 C5 1_555 1_555
O2 C2 1_555 1_555
O3 C24 1_555 1_555
O4 C21 1_555 1_555
O5 C33 1_555 1_555
O6 C30 1_555 1_555
O7 C42 1_555 1_555
O8 C39 1_555 1_555
O9 C51 1_555 1_555
O10 C1 1_555 1_555
C1 C47 1_555 1_555
C2 C3 1_555 1_555
C3 H1 1_555 1_555
C4 C3 1_555 1_555
C5 C4 1_555 1_555
C6 C5 1_555 1_555
H2 C6 1_555 1_555
C7 C2 1_555 1_555
C8 O1 1_555 1_555
H3 C8 1_555 1_555
H4 C8 1_555 1_555
H5 C8 1_555 1_555
C9 O2 1_555 1_555
H6 C9 1_555 1_555
H7 C9 1_555 1_555
C10 C9 1_555 1_555
H8 C10 1_555 1_555
H9 C10 1_555 1_555
C11 C10 1_555 1_555
H10 C11 1_555 1_555
H11 C11 1_555 1_555
C12 C11 1_555 1_555
H12 C12 1_555 1_555
H13 C12 1_555 1_555
C13 C12 1_555 1_555
H14 C13 1_555 1_555
H15 C13 1_555 1_555
C14 C13 1_555 1_555
H16 C14 1_555 1_555
H17 C14 1_555 1_555
C15 C14 1_555 1_555
H18 C15 1_555 1_555
H19 C15 1_555 1_555
C16 C15 1_555 1_555
H20 C16 1_555 1_555
H21 C16 1_555 1_555
C17 C16 1_555 1_555
H22 C17 1_555 1_555
H23 C17 1_555 1_555
C18 C17 1_555 1_555
H24 C18 1_555 1_555
H25 C18 1_555 1_555
C19 C4 1_555 1_555
H26 C19 1_555 1_555
H27 C19 1_555 1_555
C20 C19 1_555 1_555
C21 C20 1_555 1_555
C22 C21 1_555 1_555
H28 C22 1_555 1_555
C23 C22 1_555 1_555
C24 C23 1_555 1_555
C25 C20 1_555 1_555
H29 C25 1_555 1_555
C26 O3 1_555 1_555
H30 C26 1_555 1_555
H31 C26 1_555 1_555
H32 C26 1_555 1_555
C27 O4 1_555 1_555
H33 C27 1_555 1_555
H34 C27 1_555 1_555
H35 C27 1_555 1_555
C28 C23 1_555 1_555
H36 C28 1_555 1_555
H37 C28 1_555 1_555
C29 C28 1_555 1_555
C30 C29 1_555 1_555
C31 C30 1_555 1_555
H38 C31 1_555 1_555
C32 C31 1_555 1_555
C33 C32 1_555 1_555
C34 C29 1_555 1_555
H39 C34 1_555 1_555
C35 O5 1_555 1_555
H40 C35 1_555 1_555
H41 C35 1_555 1_555
H42 C35 1_555 1_555
C36 O6 1_555 1_555
H43 C36 1_555 1_555
H44 C36 1_555 1_555
H45 C36 1_555 1_555
C37 C32 1_555 1_555
H46 C37 1_555 1_555
H47 C37 1_555 1_555
C38 C37 1_555 1_555
C39 C38 1_555 1_555
C40 C39 1_555 1_555
H48 C40 1_555 1_555
C41 C40 1_555 1_555
C42 C41 1_555 1_555
C43 C38 1_555 1_555
H49 C43 1_555 1_555
C44 O7 1_555 1_555
H50 C44 1_555 1_555
H51 C44 1_555 1_555
H52 C44 1_555 1_555
C45 O8 1_555 1_555
H53 C45 1_555 1_555
H54 C45 1_555 1_555
H55 C45 1_555 1_555
C46 C41 1_555 1_555
H56 C46 1_555 1_555
H57 C46 1_555 1_555
C47 C46 1_555 1_555
C48 C7 1_555 1_555
H58 C48 1_555 1_555
H59 C48 1_555 1_555
C49 C1 1_555 1_555
H60 C49 1_555 1_555
C50 C48 1_555 1_555
C51 C50 1_555 1_555
C52 C47 1_555 1_555
H61 C52 1_555 1_555
C53 O9 1_555 1_555
H62 C53 1_555 1_555
H63 C53 1_555 1_555
H64 C53 1_555 1_555
C54 O10 1_555 1_555
H65 C54 1_555 1_555
H66 C54 1_555 1_555
H67 C54 1_555 1_555
C6 C7 1_555 1_555
C24 C25 1_555 1_555
C33 C34 1_555 1_555
C42 C43 1_555 1_555
C49 C50 1_555 1_555
C51 C52 1_555 1_555

#END
