
#######################################################################
#
#                 Cambridge Crystallographic Data Centre
#                                CCDC 
#
#######################################################################
#
# If this CIF has been generated from an entry in the Cambridge 
# Structural Database, then it will include bibliographic, chemical, 
# crystal, experimental, refinement or atomic coordinate data resulting 
# from the CCDC's data processing and validation procedures.
#
#######################################################################

data_EZUZEF
_chemical_formula_moiety         'C27 H29 N1 O3'
_chemical_name_systematic        
'(+-)-t-Butyl 2-(biphenyl-4-ylmethyl)-5-phenyl-1,3-oxazolidine-3-carboxylate'
_symmetry_cell_setting           monoclinic
_symmetry_space_group_name_H-M   'I 2/a'
_symmetry_Int_Tables_number      15
_space_group_name_Hall           '-I 2ya'
loop_
_symmetry_equiv_pos_site_id
_symmetry_equiv_pos_as_xyz
1 x,y,z
2 1/2-x,y,-z
3 1/2+x,1/2+y,1/2+z
4 -x,1/2+y,1/2-z
5 -x,-y,-z
6 1/2+x,-y,z
7 1/2-x,1/2-y,1/2-z
8 x,1/2-y,1/2+z
_cell_length_a                   27.1086(4)
_cell_length_b                   5.97410(10)
_cell_length_c                   29.628(2)
_cell_angle_alpha                90
_cell_angle_beta                 113.480(8)
_cell_angle_gamma                90
_cell_volume                     4400.94
_exptl_crystal_colour            colorless
_exptl_crystal_description       needle
_cell_formula_units_Z            8
loop_
_atom_site_label
_atom_site_type_symbol
_atom_site_fract_x
_atom_site_fract_y
_atom_site_fract_z
N1 N 0.99144(8) 0.3586(4) 0.07500(8)
O1 O 0.93120(8) 0.0736(4) 0.04899(7)
O2 O 0.90540(7) 0.4307(3) 0.05701(7)
O3 O 1.04453(7) 0.6246(3) 0.06216(7)
C1 C 0.84910(10) 0.3749(5) 0.04733(10)
C2 C 0.82536(11) 0.6017(5) 0.04918(11)
H1 H 0.8451 0.6699 0.0815
H2 H 0.7875 0.5843 0.0438
H3 H 0.8281 0.6980 0.0235
C3 C 0.84760(11) 0.2248(5) 0.08825(10)
H4 H 0.8640 0.0800 0.0870
H5 H 0.8102 0.2020 0.0840
H6 H 0.8677 0.2958 0.1202
C4 C 0.82209(11) 0.2679(5) -0.00282(10)
H7 H 0.8277 0.3617 -0.0275
H8 H 0.7835 0.2533 -0.0111
H9 H 0.8376 0.1194 -0.0024
C5 C 0.94101(10) 0.2713(5) 0.05899(9)
C6 C 1.03666(11) 0.2349(5) 0.07318(11)
H10 H 1.0244 0.1085 0.0497
H11 H 1.0601 0.1768 0.1061
C7 C 1.06571(11) 0.4125(5) 0.05552(10)
H12 H 1.0561 0.3896 0.0196
C8 C 1.00621(11) 0.5931(5) 0.08385(9)
H13 H 0.9740 0.6902 0.0671
C9 C 1.12629(11) 0.4010(5) 0.08226(9)
C10 C 1.15227(11) 0.2110(5) 0.07564(10)
H14 H 1.1319 0.0951 0.0544
C11 C 1.20764(12) 0.1888(6) 0.09969(11)
H15 H 1.2249 0.0575 0.0952
C12 C 1.23777(12) 0.3583(6) 0.13032(11)
H16 H 1.2757 0.3434 0.1469
C13 C 1.21233(11) 0.5481(6) 0.13646(10)
H17 H 1.2329 0.6650 0.1572
C14 C 1.15676(11) 0.5703(5) 0.11263(10)
H18 H 1.1396 0.7019 0.1172
C15 C 1.03227(11) 0.6476(5) 0.13876(9)
H19 H 1.0635 0.5474 0.1548
H20 H 1.0457 0.8035 0.1430
C16 C 0.99392(11) 0.6214(5) 0.16382(9)
C17 C 0.95817(11) 0.7916(5) 0.16224(9)
H21 H 0.9585 0.9274 0.1457
C18 C 0.92230(11) 0.7662(5) 0.18436(10)
H22 H 0.8982 0.8847 0.1826
C19 C 0.92070(10) 0.5698(5) 0.20932(9)
C20 C 0.95609(11) 0.3991(5) 0.21074(9)
H23 H 0.9559 0.2636 0.2274
C21 C 0.99188(11) 0.4242(5) 0.18794(9)
H24 H 1.0153 0.3044 0.1889
C22 C 0.88280(11) 0.5442(5) 0.23405(9)
C23 C 0.87175(11) 0.7214(5) 0.25930(9)
H25 H 0.8880 0.8630 0.2600
C24 C 0.83767(11) 0.6952(5) 0.28334(10)
H26 H 0.8309 0.8179 0.3005
C25 C 0.81339(12) 0.4913(6) 0.28253(11)
H27 H 0.7902 0.4735 0.2993
C26 C 0.82293(11) 0.3124(6) 0.25722(10)
H28 H 0.8059 0.1723 0.2562
C27 C 0.85746(11) 0.3399(5) 0.23351(10)
H29 H 0.8641 0.2167 0.2164
loop_
_geom_bond_atom_site_label_1
_geom_bond_atom_site_label_2
_geom_bond_site_symmetry_1
_geom_bond_site_symmetry_2
N1 C5 1_555 1_555
O1 C5 1_555 1_555
O2 C1 1_555 1_555
O3 C7 1_555 1_555
C1 C2 1_555 1_555
C2 H1 1_555 1_555
H2 C2 1_555 1_555
H3 C2 1_555 1_555
C3 C1 1_555 1_555
H4 C3 1_555 1_555
H5 C3 1_555 1_555
H6 C3 1_555 1_555
C4 C1 1_555 1_555
H7 C4 1_555 1_555
H8 C4 1_555 1_555
H9 C4 1_555 1_555
C5 O2 1_555 1_555
C6 N1 1_555 1_555
H10 C6 1_555 1_555
H11 C6 1_555 1_555
C7 C6 1_555 1_555
H12 C7 1_555 1_555
C8 N1 1_555 1_555
H13 C8 1_555 1_555
C9 C7 1_555 1_555
C10 C9 1_555 1_555
H14 C10 1_555 1_555
C11 C10 1_555 1_555
H15 C11 1_555 1_555
C12 C11 1_555 1_555
H16 C12 1_555 1_555
C13 C12 1_555 1_555
H17 C13 1_555 1_555
C14 C9 1_555 1_555
H18 C14 1_555 1_555
C15 C8 1_555 1_555
H19 C15 1_555 1_555
H20 C15 1_555 1_555
C16 C15 1_555 1_555
C17 C16 1_555 1_555
H21 C17 1_555 1_555
C18 C17 1_555 1_555
H22 C18 1_555 1_555
C19 C18 1_555 1_555
C20 C19 1_555 1_555
H23 C20 1_555 1_555
C21 C16 1_555 1_555
H24 C21 1_555 1_555
C22 C19 1_555 1_555
C23 C22 1_555 1_555
H25 C23 1_555 1_555
C24 C23 1_555 1_555
H26 C24 1_555 1_555
C25 C24 1_555 1_555
H27 C25 1_555 1_555
C26 C25 1_555 1_555
H28 C26 1_555 1_555
C27 C22 1_555 1_555
H29 C27 1_555 1_555
O3 C8 1_555 1_555
C13 C14 1_555 1_555
C20 C21 1_555 1_555
C26 C27 1_555 1_555

#END
