
#######################################################################
#
#                 Cambridge Crystallographic Data Centre
#                                CCDC 
#
#######################################################################
#
# If this CIF has been generated from an entry in the Cambridge 
# Structural Database, then it will include bibliographic, chemical, 
# crystal, experimental, refinement or atomic coordinate data resulting 
# from the CCDC's data processing and validation procedures.
#
#######################################################################

data_EZUZAB
_chemical_formula_moiety         'C22 H29 N1 O4'
_chemical_name_systematic        
'(+)-t-Butyl 4-ethyl-2-((6-methoxy-2-naphthyl)methyl)-1,3-oxazolidine-3-carboxylate'
_symmetry_cell_setting           monoclinic
_symmetry_space_group_name_H-M   'P 21'
_symmetry_Int_Tables_number      4
_space_group_name_Hall           'P 2yb'
loop_
_symmetry_equiv_pos_site_id
_symmetry_equiv_pos_as_xyz
1 x,y,z
2 -x,1/2+y,-z
_cell_length_a                   9.2829(2)
_cell_length_b                   5.74950(10)
_cell_length_c                   38.036(3)
_cell_angle_alpha                90
_cell_angle_beta                 95.679(7)
_cell_angle_gamma                90
_cell_volume                     2020.09
_exptl_crystal_colour            colorless
_exptl_crystal_description       needle
_cell_formula_units_Z            4
loop_
_atom_site_label
_atom_site_type_symbol
_atom_site_fract_x
_atom_site_fract_y
_atom_site_fract_z
O1 O 0.21227(11) 0.1235(2) 0.81565(3)
O2 O -0.02042(11) 0.1941(2) 0.79214(3)
O3 O 0.10809(11) 0.4126(2) 0.90458(3)
O4 O 0.88664(11) 0.4840(2) 1.03922(3)
N1 N 0.06944(13) 0.3389(3) 0.84567(3)
C1 C 0.26022(17) 0.0117(3) 0.78375(4)
C2 C 0.25797(18) 0.1880(4) 0.75413(4)
H1 H 0.1583 0.2401 0.7477
H2 H 0.2957 0.1163 0.7335
H3 H 0.3184 0.3216 0.7620
C3 C 0.16857(19) -0.2009(4) 0.77355(5)
H4 H 0.1670 -0.3035 0.7941
H5 H 0.2099 -0.2843 0.7544
H6 H 0.0696 -0.1520 0.7655
C4 C 0.41491(18) -0.0580(4) 0.79620(4)
H7 H 0.4713 0.0811 0.8034
H8 H 0.4584 -0.1358 0.7769
H9 H 0.4147 -0.1643 0.8163
C5 C 0.07808(16) 0.2150(3) 0.81538(4)
C6 C -0.07043(16) 0.4057(3) 0.85749(4)
H10 H -0.1496 0.3050 0.8461
C7 C -0.04023(16) 0.3463(3) 0.89663(4)
H11 H -0.1041 0.4358 0.9110
H12 H -0.0537 0.1781 0.9008
C8 C 0.18191(16) 0.3337(3) 0.87592(4)
H13 H 0.2175 0.1712 0.8803
C9 C -0.10516(16) 0.6622(3) 0.85053(4)
H14 H -0.0944 0.6978 0.8255
H15 H -0.0346 0.7588 0.8653
C10 C -0.25798(18) 0.7265(4) 0.85854(5)
H16 H -0.3284 0.6329 0.8438
H17 H -0.2753 0.8918 0.8535
H18 H -0.2684 0.6960 0.8835
C11 C 0.30811(16) 0.4959(3) 0.87148(4)
H19 H 0.3455 0.4650 0.8484
H20 H 0.2738 0.6590 0.8714
C12 C 0.42910(15) 0.4648(3) 0.90074(4)
C13 C 0.45562(16) 0.6249(3) 0.92754(4)
H21 H 0.3983 0.7618 0.9274
C14 C 0.56733(16) 0.5888(3) 0.95540(4)
C15 C 0.59322(16) 0.7488(3) 0.98394(4)
H22 H 0.5373 0.8871 0.9841
C16 C 0.69779(16) 0.7057(3) 1.01120(4)
H23 H 0.7127 0.8125 1.0303
C17 C 0.78334(16) 0.5029(3) 1.01098(4)
C18 C 0.76294(16) 0.3447(3) 0.98378(4)
H24 H 0.8218 0.2095 0.9838
C19 C 0.65293(16) 0.3849(3) 0.95560(4)
C20 C 0.62501(16) 0.2225(3) 0.92760(4)
H25 H 0.6818 0.0853 0.9272
C21 C 0.51601(16) 0.2629(3) 0.90100(4)
H26 H 0.4989 0.1527 0.8825
C22 C 0.98430(17) 0.2938(3) 1.03848(4)
H27 H 0.9307 0.1474 1.0392
H28 H 1.0569 0.3027 1.0590
H29 H 1.0326 0.3003 1.0167
O5 O 0.65434(12) 0.5953(2) 0.68771(3)
O6 O 0.45021(12) 0.6690(2) 0.71474(3)
O7 O 0.51923(14) 1.0852(2) 0.62061(3)
O8 O 1.34317(11) 0.7652(2) 0.52332(3)
N2 N 0.47591(13) 0.7955(3) 0.65881(3)
C23 C 0.72963(17) 0.4615(3) 0.71729(4)
C24 C 0.7571(2) 0.6122(4) 0.74956(5)
H30 H 0.8072 0.7545 0.7434
H31 H 0.8174 0.5274 0.7679
H32 H 0.6647 0.6530 0.7584
C25 C 0.6441(2) 0.2469(4) 0.72413(6)
H33 H 0.5517 0.2921 0.7326
H34 H 0.6992 0.1514 0.7421
H35 H 0.6258 0.1575 0.7022
C26 C 0.8696(2) 0.3957(5) 0.70282(5)
H36 H 0.8483 0.3133 0.6803
H37 H 0.9259 0.2943 0.7197
H38 H 0.9253 0.5366 0.6990
C27 C 0.52173(16) 0.6851(3) 0.68973(4)
C28 C 0.34698(16) 0.9442(3) 0.65672(4)
H39 H 0.3523 1.0517 0.6775
C29 C 0.36933(19) 1.0804(4) 0.62326(5)
H40 H 0.3184 1.0033 0.6023
H41 H 0.3312 1.2404 0.6248
C30 C 0.57682(17) 0.8707(3) 0.63355(4)
H42 H 0.6744 0.8980 0.6465
C31 C 0.20730(18) 0.8064(4) 0.65453(5)
H43 H 0.2076 0.7049 0.6756
H44 H 0.2013 0.7056 0.6333
C32 C 0.07464(19) 0.9650(4) 0.65256(5)
H45 H 0.0830 1.0714 0.6728
H46 H -0.0129 0.8703 0.6530
H47 H 0.0688 1.0551 0.6306
C33 C 0.59043(16) 0.6910(3) 0.60443(4)
H48 H 0.5984 0.5338 0.6151
H49 H 0.5018 0.6949 0.5877
C34 C 0.72085(16) 0.7357(3) 0.58451(4)
C35 C 0.83595(17) 0.5832(3) 0.58680(4)
H50 H 0.8308 0.4449 0.6003
C36 C 0.96205(16) 0.6270(3) 0.56955(4)
C37 C 1.08188(17) 0.4726(3) 0.57176(4)
H51 H 1.0770 0.3307 0.5844
C38 C 1.20403(17) 0.5242(3) 0.55612(4)
H52 H 1.2831 0.4186 0.5580
C39 C 1.21360(16) 0.7348(3) 0.53700(4)
C40 C 1.09908(17) 0.8867(3) 0.53336(4)
H53 H 1.1050 1.0253 0.5200
C41 C 0.97112(16) 0.8355(3) 0.54977(4)
C42 C 0.85081(16) 0.9892(3) 0.54730(4)
H54 H 0.8539 1.1279 0.5338
C43 C 0.73008(16) 0.9400(3) 0.56410(4)
H55 H 0.6510 1.0455 0.5620
C44 C 1.36214(18) 0.9766(3) 0.50445(4)
H56 H 1.2902 0.9845 0.4838
H57 H 1.4597 0.9803 0.4967
H58 H 1.3495 1.1097 0.5199
loop_
_geom_bond_atom_site_label_1
_geom_bond_atom_site_label_2
_geom_bond_site_symmetry_1
_geom_bond_site_symmetry_2
O1 C1 1_555 1_555
O2 C5 1_555 1_555
O3 C7 1_555 1_555
O4 C17 1_555 1_555
O5 C23 1_555 1_555
O6 C27 1_555 1_555
O7 C29 1_555 1_555
O8 C39 1_555 1_555
N1 C5 1_555 1_555
N2 C27 1_555 1_555
C1 C2 1_555 1_555
C2 H1 1_555 1_555
H2 C2 1_555 1_555
H3 C2 1_555 1_555
C3 C1 1_555 1_555
H4 C3 1_555 1_555
H5 C3 1_555 1_555
H6 C3 1_555 1_555
C4 C1 1_555 1_555
H7 C4 1_555 1_555
H8 C4 1_555 1_555
H9 C4 1_555 1_555
C5 O1 1_555 1_555
C6 N1 1_555 1_555
H10 C6 1_555 1_555
C7 C6 1_555 1_555
H11 C7 1_555 1_555
H12 C7 1_555 1_555
C8 O3 1_555 1_555
H13 C8 1_555 1_555
C9 C6 1_555 1_555
H14 C9 1_555 1_555
H15 C9 1_555 1_555
C10 C9 1_555 1_555
H16 C10 1_555 1_555
H17 C10 1_555 1_555
H18 C10 1_555 1_555
C11 C8 1_555 1_555
H19 C11 1_555 1_555
H20 C11 1_555 1_555
C12 C11 1_555 1_555
C13 C12 1_555 1_555
H21 C13 1_555 1_555
C14 C13 1_555 1_555
C15 C14 1_555 1_555
H22 C15 1_555 1_555
C16 C15 1_555 1_555
H23 C16 1_555 1_555
C17 C16 1_555 1_555
C18 C17 1_555 1_555
H24 C18 1_555 1_555
C19 C14 1_555 1_555
C20 C19 1_555 1_555
H25 C20 1_555 1_555
C21 C12 1_555 1_555
H26 C21 1_555 1_555
C22 O4 1_555 1_555
H27 C22 1_555 1_555
H28 C22 1_555 1_555
H29 C22 1_555 1_555
C23 C24 1_555 1_555
C24 H30 1_555 1_555
H31 C24 1_555 1_555
H32 C24 1_555 1_555
C25 C23 1_555 1_555
H33 C25 1_555 1_555
H34 C25 1_555 1_555
H35 C25 1_555 1_555
C26 C23 1_555 1_555
H36 C26 1_555 1_555
H37 C26 1_555 1_555
H38 C26 1_555 1_555
C27 O5 1_555 1_555
C28 N2 1_555 1_555
H39 C28 1_555 1_555
C29 C28 1_555 1_555
H40 C29 1_555 1_555
H41 C29 1_555 1_555
C30 O7 1_555 1_555
H42 C30 1_555 1_555
C31 C28 1_555 1_555
H43 C31 1_555 1_555
H44 C31 1_555 1_555
C32 C31 1_555 1_555
H45 C32 1_555 1_555
H46 C32 1_555 1_555
H47 C32 1_555 1_555
C33 C30 1_555 1_555
H48 C33 1_555 1_555
H49 C33 1_555 1_555
C34 C33 1_555 1_555
C35 C34 1_555 1_555
H50 C35 1_555 1_555
C36 C35 1_555 1_555
C37 C36 1_555 1_555
H51 C37 1_555 1_555
C38 C37 1_555 1_555
H52 C38 1_555 1_555
C39 C38 1_555 1_555
C40 C39 1_555 1_555
H53 C40 1_555 1_555
C41 C36 1_555 1_555
C42 C41 1_555 1_555
H54 C42 1_555 1_555
C43 C34 1_555 1_555
H55 C43 1_555 1_555
C44 O8 1_555 1_555
H56 C44 1_555 1_555
H57 C44 1_555 1_555
H58 C44 1_555 1_555
N1 C8 1_555 1_555
N2 C30 1_555 1_555
C18 C19 1_555 1_555
C20 C21 1_555 1_555
C40 C41 1_555 1_555
C42 C43 1_555 1_555

#END
