
#######################################################################
#
#                 Cambridge Crystallographic Data Centre
#                                CCDC 
#
#######################################################################
#
# If this CIF has been generated from an entry in the Cambridge 
# Structural Database, then it will include bibliographic, chemical, 
# crystal, experimental, refinement or atomic coordinate data resulting 
# from the CCDC's data processing and validation procedures.
#
#######################################################################

data_FABDOD
_chemical_formula_moiety         'C21 H15 N3 O2,C1 H4 O1'
_chemical_name_systematic        
"4-(2,2':6',2''-Terpyridin-4'-yl)benzene-1,2-diol methanol solvate"
_symmetry_cell_setting           triclinic
_symmetry_space_group_name_H-M   'P -1'
_symmetry_Int_Tables_number      2
_space_group_name_Hall           '-P 1'
loop_
_symmetry_equiv_pos_site_id
_symmetry_equiv_pos_as_xyz
1 x,y,z
2 -x,-y,-z
_cell_length_a                   9.2981(5)
_cell_length_b                   10.6691(3)
_cell_length_c                   10.7603(3)
_cell_angle_alpha                116.0750(10)
_cell_angle_beta                 106.391(2)
_cell_angle_gamma                97.3390(10)
_cell_volume                     879.696
_exptl_crystal_colour            colorless
_exptl_crystal_description       plate
_cell_formula_units_Z            2
loop_
_atom_site_label
_atom_site_type_symbol
_atom_site_fract_x
_atom_site_fract_y
_atom_site_fract_z
C1 C 1.14058(11) 1.08802(12) 0.82807(12)
C2 C 1.27963(11) 1.07794(12) 0.90891(11)
C3 C 1.27233(11) 0.96624(12) 0.94172(12)
C4 C 1.12751(11) 0.87005(11) 0.89293(11)
C5 C 0.99325(10) 0.88900(10) 0.81326(10)
C6 C 0.83600(10) 0.78852(10) 0.76320(10)
C7 C 0.69900(10) 0.81589(10) 0.69950(10)
C8 C 0.55282(10) 0.72418(10) 0.66055(9)
C9 C 0.55452(10) 0.60487(10) 0.68332(10)
C10 C 0.69594(10) 0.58504(10) 0.74725(10)
C11 C 0.69938(10) 0.46026(10) 0.77459(10)
C12 C 0.84046(11) 0.43077(11) 0.82263(11)
C13 C 0.83990(11) 0.31364(11) 0.84744(11)
C14 C 0.69866(12) 0.22750(11) 0.82233(11)
C15 C 0.56289(11) 0.26271(11) 0.77410(11)
C16 C 0.40254(10) 0.75132(10) 0.60166(10)
C17 C 0.39873(10) 0.86554(10) 0.56953(10)
C18 C 0.25796(10) 0.89098(10) 0.51650(10)
C19 C 0.11653(10) 0.80220(10) 0.49213(10)
C20 C 0.11872(10) 0.68979(11) 0.52381(11)
C21 C 0.26023(10) 0.66441(11) 0.57776(11)
N1 N 0.99916(9) 0.99679(10) 0.78030(10)
N2 N 0.83597(9) 0.67590(9) 0.78842(9)
N3 N 0.56212(9) 0.37672(9) 0.75130(9)
O1 O 0.25886(8) 1.00221(8) 0.48514(9)
O2 O -0.01594(8) 0.83274(8) 0.43574(8)
H1 H 0.1689 1.0002 0.4491
H2 H -0.0926 0.7664 0.4091
H4 H 1.1446 1.1637 0.8043
H5 H 1.3774 1.1469 0.9426
H6 H 1.3654 0.9556 0.9973
H7 H 1.1194 0.7942 0.9166
H8 H 0.7058 0.8951 0.6809
H9 H 0.4585 0.5352 0.6512
H10 H 0.9363 0.4918 0.8407
H11 H 0.9358 0.2945 0.8840
H12 H 0.6945 0.1475 0.8403
H13 H 0.4647 0.2044 0.7563
H14 H 0.4907 0.9218 0.5776
H15 H 0.0221 0.6298 0.5075
H16 H 0.2576 0.5854 0.5959
C22 C 0.27449(15) 0.50310(15) 0.83012(14)
O3 O 0.26354(8) 0.39226(8) 0.68920(8)
H3 H 0.3512 0.3823 0.6986
H17 H 0.1897 0.5452 0.8201
H18 H 0.2724 0.4679 0.8990
H19 H 0.3708 0.5835 0.8805
loop_
_geom_bond_atom_site_label_1
_geom_bond_atom_site_label_2
_geom_bond_site_symmetry_1
_geom_bond_site_symmetry_2
C1 C2 1_555 1_555
C2 C3 1_555 1_555
C3 C4 1_555 1_555
C4 C5 1_555 1_555
C5 C6 1_555 1_555
C6 C7 1_555 1_555
C7 C8 1_555 1_555
C8 C9 1_555 1_555
C9 C10 1_555 1_555
C10 C11 1_555 1_555
C11 C12 1_555 1_555
C12 C13 1_555 1_555
C13 C14 1_555 1_555
C14 C15 1_555 1_555
C15 N3 1_555 1_555
C16 C8 1_555 1_555
C17 C16 1_555 1_555
C18 C17 1_555 1_555
C19 C18 1_555 1_555
C20 C19 1_555 1_555
C21 C16 1_555 1_555
C22 O3 1_555 1_555
N1 C1 1_555 1_555
N2 C6 1_555 1_555
N3 C11 1_555 1_555
O1 C18 1_555 1_555
O2 C19 1_555 1_555
O3 H3 1_555 1_555
H1 O1 1_555 1_555
H2 O2 1_555 1_555
H4 C1 1_555 1_555
H5 C2 1_555 1_555
H6 C3 1_555 1_555
H7 C4 1_555 1_555
H8 C7 1_555 1_555
H9 C9 1_555 1_555
H10 C12 1_555 1_555
H11 C13 1_555 1_555
H12 C14 1_555 1_555
H13 C15 1_555 1_555
H14 C17 1_555 1_555
H15 C20 1_555 1_555
H16 C21 1_555 1_555
H17 C22 1_555 1_555
H18 C22 1_555 1_555
H19 C22 1_555 1_555
C5 N1 1_555 1_555
C10 N2 1_555 1_555
C20 C21 1_555 1_555

#END
