
#######################################################################
#
#                 Cambridge Crystallographic Data Centre
#                                CCDC 
#
#######################################################################
#
# If this CIF has been generated from an entry in the Cambridge 
# Structural Database, then it will include bibliographic, chemical, 
# crystal, experimental, refinement or atomic coordinate data resulting 
# from the CCDC's data processing and validation procedures.
#
#######################################################################

data_FABDOB
_chemical_formula_moiety         'C17 H21 N3 O6'
_chemical_name_systematic        
'4a\a,5\b,8a\a-1-Methyldecahydroquinolin-5-yl 3,5-dinitrobenzoate'
_symmetry_cell_setting           orthorhombic
_symmetry_space_group_name_H-M   'P b c a'
_symmetry_Int_Tables_number      61
_space_group_name_Hall           '-P 2ac 2ab'
loop_
_symmetry_equiv_pos_site_id
_symmetry_equiv_pos_as_xyz
1 x,y,z
2 1/2-x,-y,1/2+z
3 1/2+x,1/2-y,-z
4 -x,1/2+y,1/2-z
5 -x,-y,-z
6 1/2+x,y,1/2-z
7 1/2-x,1/2+y,z
8 x,1/2-y,1/2+z
_cell_length_a                   6.338(2)
_cell_length_b                   25.355(8)
_cell_length_c                   21.774(6)
_cell_angle_alpha                90
_cell_angle_beta                 90
_cell_angle_gamma                90
_cell_volume                     3499.08
_exptl_crystal_colour            yellow
_chemical_melting_point          '408-418 K decomposition'
_cell_formula_units_Z            8
loop_
_atom_site_label
_atom_site_type_symbol
_atom_site_fract_x
_atom_site_fract_y
_atom_site_fract_z
N1 N 0.2246(7) 0.1065(1) 0.0296(1)
C1 C 0.1555(11) 0.0517(2) 0.0225(2)
C2 C 0.0481(9) 0.1406(2) 0.0142(2)
C3 C 0.1113(10) 0.1982(2) 0.0158(2)
C4 C 0.2015(9) 0.2124(2) 0.0779(2)
C5 C 0.3752(8) 0.1747(1) 0.0957(2)
C6 C 0.4630(8) 0.1872(1) 0.1587(2)
C7 C 0.6316(9) 0.1497(2) 0.1797(2)
C8 C 0.5497(10) 0.0934(2) 0.1765(2)
C9 C 0.4746(9) 0.0804(2) 0.1125(2)
C10 C 0.3011(8) 0.1174(1) 0.0926(2)
C11 C 0.5650(8) 0.3312(1) 0.1715(2)
C12 C 0.4588(8) 0.3764(1) 0.1877(2)
C13 C 0.5408(8) 0.4249(2) 0.1721(2)
N2 N 0.4213(7) 0.4729(1) 0.1879(2)
O1 O 0.4949(7) 0.5149(1) 0.1723(2)
O2 O 0.2560(7) 0.4680(1) 0.2146(1)
C14 C 0.7279(8) 0.4295(1) 0.1417(2)
C15 C 0.8339(7) 0.3841(2) 0.1264(2)
N3 N 1.0342(7) 0.3878(1) 0.0927(2)
O3 O 1.1034(6) 0.4315(1) 0.0807(2)
O4 O 1.1190(6) 0.3471(1) 0.0774(2)
C16 C 0.7572(7) 0.3346(1) 0.1410(2)
C17 C 0.4629(9) 0.2787(2) 0.1863(2)
O5 O 0.5561(5) 0.2403(1) 0.1560(1)
O6 O 0.3122(7) 0.2751(1) 0.2187(1)
H1 H 0.2764 0.0295 0.0283
H2 H 0.0946 0.0448 -0.0171
H3 H 0.0532 0.0445 0.0539
H4 H -0.0009 0.1319 -0.0263
H5 H -0.0635 0.1349 0.0433
H6 H -0.0104 0.2197 0.0078
H7 H 0.2160 0.2046 -0.0152
H8 H 0.0912 0.2108 0.1080
H9 H 0.2574 0.2476 0.0763
H10 H 0.4867 0.1792 0.0664
H11 H 0.3486 0.1844 0.1874
H12 H 0.7528 0.1531 0.1536
H13 H 0.6705 0.1579 0.2212
H14 H 0.4343 0.0896 0.2047
H15 H 0.6610 0.0696 0.1877
H16 H 0.4222 0.0449 0.1118
H17 H 0.5909 0.0835 0.0845
H18 H 0.1866 0.1117 0.1207
H19 H 0.3281 0.3742 0.2098
H20 H 0.7839 0.4635 0.1312
H21 H 0.8347 0.3034 0.1303
loop_
_geom_bond_atom_site_label_1
_geom_bond_atom_site_label_2
_geom_bond_site_symmetry_1
_geom_bond_site_symmetry_2
N1 C1 1_555 1_555
C1 H1 1_555 1_555
C2 N1 1_555 1_555
C3 C2 1_555 1_555
C4 C3 1_555 1_555
C5 C4 1_555 1_555
C6 C5 1_555 1_555
C7 C6 1_555 1_555
C8 C7 1_555 1_555
C9 C8 1_555 1_555
C10 N1 1_555 1_555
C11 C12 1_555 1_555
C12 C13 1_555 1_555
C13 N2 1_555 1_555
N2 O1 1_555 1_555
O2 N2 1_555 1_555
C14 C13 1_555 1_555
C15 C14 1_555 1_555
N3 C15 1_555 1_555
O3 N3 1_555 1_555
O4 N3 1_555 1_555
C16 C11 1_555 1_555
C17 C11 1_555 1_555
O5 C6 1_555 1_555
O6 C17 1_555 1_555
H2 C1 1_555 1_555
H3 C1 1_555 1_555
H4 C2 1_555 1_555
H5 C2 1_555 1_555
H6 C3 1_555 1_555
H7 C3 1_555 1_555
H8 C4 1_555 1_555
H9 C4 1_555 1_555
H10 C5 1_555 1_555
H11 C6 1_555 1_555
H12 C7 1_555 1_555
H13 C7 1_555 1_555
H14 C8 1_555 1_555
H15 C8 1_555 1_555
H16 C9 1_555 1_555
H17 C9 1_555 1_555
H18 C10 1_555 1_555
H19 C12 1_555 1_555
H20 C14 1_555 1_555
H21 C16 1_555 1_555
C5 C10 1_555 1_555
C9 C10 1_555 1_555
C15 C16 1_555 1_555
C17 O5 1_555 1_555

#END
