
#######################################################################
#
#                 Cambridge Crystallographic Data Centre
#                                CCDC 
#
#######################################################################
#
# If this CIF has been generated from an entry in the Cambridge 
# Structural Database, then it will include bibliographic, chemical, 
# crystal, experimental, refinement or atomic coordinate data resulting 
# from the CCDC's data processing and validation procedures.
#
#######################################################################

data_FABFOD
_chemical_formula_moiety         'C20 H18 N1 O6 P1'
_chemical_name_systematic        '1-(4-Nitrophenyl)ethyl diphenylphosphate'
_symmetry_cell_setting           triclinic
_symmetry_space_group_name_H-M   'P -1'
_symmetry_Int_Tables_number      2
_space_group_name_Hall           '-P 1'
loop_
_symmetry_equiv_pos_site_id
_symmetry_equiv_pos_as_xyz
1 x,y,z
2 -x,-y,-z
_cell_length_a                   8.441(2)
_cell_length_b                   10.177(2)
_cell_length_c                   11.638(3)
_cell_angle_alpha                72.30(2)
_cell_angle_beta                 87.76(2)
_cell_angle_gamma                86.79(2)
_cell_volume                     950.675
_exptl_crystal_colour            'pale yellow'
_chemical_melting_point          339-340K
_cell_formula_units_Z            2
loop_
_atom_site_label
_atom_site_type_symbol
_atom_site_fract_x
_atom_site_fract_y
_atom_site_fract_z
P1 P 0.3064(1) 0.3611(1) 0.3206(1)
O1 O 0.2683(2) 0.2370(1) 0.4153(1)
O2 O 0.4692(1) 0.3540(1) 0.2531(1)
O3 O 0.3094(2) 0.4896(1) 0.3676(1)
O4 O 0.1838(2) 0.4132(1) 0.2158(1)
C1 C 0.5678(2) 0.2255(2) 0.2803(2)
C2 C 0.6453(3) 0.2200(2) 0.1632(2)
C3 C 0.6867(2) 0.2236(2) 0.3743(2)
C4 C 0.7265(2) 0.1000(2) 0.4610(2)
C5 C 0.8398(2) 0.0939(2) 0.5444(2)
C6 C 0.9124(2) 0.2136(2) 0.5400(2)
C7 C 0.8754(2) 0.3378(2) 0.4561(2)
C8 C 0.7625(2) 0.3413(2) 0.3728(2)
N1 N 1.0328(2) 0.2072(2) 0.6303(1)
O5 O 1.0772(2) 0.0935(2) 0.6963(1)
O6 O 1.0816(2) 0.3161(2) 0.6355(1)
C9 C 0.3542(2) 0.6231(2) 0.2999(2)
C10 C 0.2675(2) 0.7014(2) 0.2032(2)
C11 C 0.3104(3) 0.8330(2) 0.1454(2)
C12 C 0.4361(3) 0.8874(2) 0.1844(2)
C13 C 0.5197(3) 0.8084(2) 0.2830(2)
C14 C 0.4796(2) 0.6751(2) 0.3412(2)
C15 C 0.1710(2) 0.3427(2) 0.1297(2)
C16 C 0.0823(2) 0.2299(2) 0.1554(2)
C17 C 0.0680(3) 0.1643(2) 0.0685(2)
C18 C 0.1396(3) 0.2102(3) -0.0404(2)
C19 C 0.2337(4) 0.3219(3) -0.0652(2)
C20 C 0.2499(4) 0.3908(3) 0.0200(2)
H1 H 0.5066 0.1453 0.3135
H2 H 0.7038 0.1333 0.1764
H3 H 0.7168 0.2940 0.1369
H4 H 0.5678 0.2298 0.1026
H5 H 0.6744 0.0179 0.4627
H6 H 0.8679 0.0083 0.6043
H7 H 0.9267 0.4198 0.4554
H8 H 0.7358 0.4270 0.3125
H9 H 0.1785 0.6641 0.1768
H10 H 0.2521 0.8882 0.0768
H11 H 0.4655 0.9800 0.1431
H12 H 0.6063 0.8466 0.3112
H13 H 0.5381 0.6193 0.4094
H14 H 0.0301 0.1961 0.2328
H15 H 0.0056 0.0842 0.0865
H16 H 0.1251 0.1655 -0.1007
H17 H 0.2888 0.3525 -0.1417
H18 H 0.3142 0.4696 0.0030
loop_
_geom_bond_atom_site_label_1
_geom_bond_atom_site_label_2
_geom_bond_site_symmetry_1
_geom_bond_site_symmetry_2
P1 O1 1_555 1_555
O2 P1 1_555 1_555
O3 P1 1_555 1_555
O4 P1 1_555 1_555
C1 O2 1_555 1_555
C2 C1 1_555 1_555
C3 C1 1_555 1_555
C4 C3 1_555 1_555
C5 C4 1_555 1_555
C6 C5 1_555 1_555
C7 C6 1_555 1_555
C8 C3 1_555 1_555
N1 C6 1_555 1_555
O5 N1 1_555 1_555
O6 N1 1_555 1_555
C9 O3 1_555 1_555
C10 C9 1_555 1_555
C11 C10 1_555 1_555
C12 C11 1_555 1_555
C13 C12 1_555 1_555
C14 C9 1_555 1_555
C15 O4 1_555 1_555
C16 C15 1_555 1_555
C17 C16 1_555 1_555
C18 C17 1_555 1_555
C19 C18 1_555 1_555
C20 C15 1_555 1_555
H1 C1 1_555 1_555
H2 C2 1_555 1_555
H3 C2 1_555 1_555
H4 C2 1_555 1_555
H5 C4 1_555 1_555
H6 C5 1_555 1_555
H7 C7 1_555 1_555
H8 C8 1_555 1_555
H9 C10 1_555 1_555
H10 C11 1_555 1_555
H11 C12 1_555 1_555
H12 C13 1_555 1_555
H13 C14 1_555 1_555
H14 C16 1_555 1_555
H15 C17 1_555 1_555
H16 C18 1_555 1_555
H17 C19 1_555 1_555
H18 C20 1_555 1_555
C7 C8 1_555 1_555
C13 C14 1_555 1_555
C19 C20 1_555 1_555

#END
