
#######################################################################
#
#                 Cambridge Crystallographic Data Centre
#                                CCDC 
#
#######################################################################
#
# If this CIF has been generated from an entry in the Cambridge 
# Structural Database, then it will include bibliographic, chemical, 
# crystal, experimental, refinement or atomic coordinate data resulting 
# from the CCDC's data processing and validation procedures.
#
#######################################################################

data_FABFUM
_chemical_formula_moiety         'C15 H12 O3'
_chemical_name_systematic        '(Z)-3-Phenoxy-3-phenylacrylic acid'
_symmetry_cell_setting           monoclinic
_symmetry_space_group_name_H-M   'P 21/n'
_symmetry_Int_Tables_number      14
_space_group_name_Hall           '-P 2yn'
loop_
_symmetry_equiv_pos_site_id
_symmetry_equiv_pos_as_xyz
1 x,y,z
2 1/2-x,1/2+y,1/2-z
3 -x,-y,-z
4 1/2+x,1/2-y,1/2+z
_cell_length_a                   8.695(3)
_cell_length_b                   14.842(6)
_cell_length_c                   10.559(4)
_cell_angle_alpha                90
_cell_angle_beta                 112.467(9)
_cell_angle_gamma                90
_cell_volume                     1259.23
_exptl_crystal_colour            colorless
_exptl_crystal_description       prismatic
_cell_formula_units_Z            4
loop_
_atom_site_label
_atom_site_type_symbol
_atom_site_fract_x
_atom_site_fract_y
_atom_site_fract_z
O1 O 0.3510(3) 0.08281(17) 0.0002(2)
O2 O 0.5567(3) 0.01667(16) 0.16525(19)
O3 O 0.5924(2) 0.06837(11) 0.42119(16)
C1 C 0.4432(4) 0.07208(18) 0.1279(3)
C2 C 0.4015(3) 0.13190(17) 0.2194(3)
H1 H 0.3124 0.1710 0.1799
C3 C 0.4813(3) 0.13517(17) 0.3561(3)
C4 C 0.4518(3) 0.2027(2) 0.4457(3)
C5 C 0.3980(4) 0.2875(2) 0.3985(4)
H2 H 0.3793 0.3030 0.3085
C6 C 0.3707(6) 0.3517(3) 0.4874(6)
H3 H 0.3333 0.4095 0.4576
C7 C 0.4028(6) 0.3240(4) 0.6228(6)
H4 H 0.3864 0.3651 0.6830
C8 C 0.4552(5) 0.2420(4) 0.6677(4)
H5 H 0.4738 0.2261 0.7576
C9 C 0.4817(4) 0.1810(2) 0.5821(3)
H6 H 0.5205 0.1238 0.6147
C10 C 0.7567(3) 0.09182(17) 0.4970(2)
C11 C 0.8296(3) 0.16711(17) 0.4698(3)
H7 H 0.7679 0.2073 0.4018
C12 C 0.9968(4) 0.1823(2) 0.5454(3)
H8 H 1.0481 0.2331 0.5278
C13 C 1.0870(5) 0.1234(2) 0.6458(4)
H9 H 1.1993 0.1338 0.6962
C14 C 1.0113(5) 0.0495(3) 0.6713(5)
H10 H 1.0727 0.0097 0.7400
C15 C 0.8462(4) 0.0325(2) 0.5977(3)
H11 H 0.7957 -0.0184 0.6158
H12 H 0.384(6) 0.047(3) -0.048(4)
loop_
_geom_bond_atom_site_label_1
_geom_bond_atom_site_label_2
_geom_bond_site_symmetry_1
_geom_bond_site_symmetry_2
O1 C1 1_555 1_555
O2 C1 1_555 1_555
O3 C3 1_555 1_555
C1 C2 1_555 1_555
C2 H1 1_555 1_555
C3 C2 1_555 1_555
C4 C3 1_555 1_555
C5 C4 1_555 1_555
H2 C5 1_555 1_555
C6 C5 1_555 1_555
H3 C6 1_555 1_555
C7 C6 1_555 1_555
H4 C7 1_555 1_555
C8 C7 1_555 1_555
H5 C8 1_555 1_555
C9 C4 1_555 1_555
H6 C9 1_555 1_555
C10 O3 1_555 1_555
C11 C10 1_555 1_555
H7 C11 1_555 1_555
C12 C11 1_555 1_555
H8 C12 1_555 1_555
C13 C12 1_555 1_555
H9 C13 1_555 1_555
C14 C13 1_555 1_555
H10 C14 1_555 1_555
C15 C10 1_555 1_555
H11 C15 1_555 1_555
H12 O1 1_555 1_555
C8 C9 1_555 1_555
C14 C15 1_555 1_555

#END
