
#######################################################################
#
#                 Cambridge Crystallographic Data Centre
#                                CCDC 
#
#######################################################################
#
# If this CIF has been generated from an entry in the Cambridge 
# Structural Database, then it will include bibliographic, chemical, 
# crystal, experimental, refinement or atomic coordinate data resulting 
# from the CCDC's data processing and validation procedures.
#
#######################################################################

data_FABGIB
_chemical_formula_moiety         'C16 H14 O3'
_chemical_name_systematic        '(Z)-3-(2-Methylphenoxy)-3-phenylacrylic acid'
_symmetry_cell_setting           monoclinic
_symmetry_space_group_name_H-M   'P 21/n'
_symmetry_Int_Tables_number      14
_space_group_name_Hall           '-P 2yn'
loop_
_symmetry_equiv_pos_site_id
_symmetry_equiv_pos_as_xyz
1 x,y,z
2 1/2-x,1/2+y,1/2-z
3 -x,-y,-z
4 1/2+x,1/2-y,1/2+z
_cell_length_a                   8.4978(10)
_cell_length_b                   16.2478(18)
_cell_length_c                   10.4450(13)
_cell_angle_alpha                90
_cell_angle_beta                 111.623(2)
_cell_angle_gamma                90
_cell_volume                     1340.66
_exptl_crystal_colour            colorless
_exptl_crystal_description       prismatic
_cell_formula_units_Z            4
loop_
_atom_site_label
_atom_site_type_symbol
_atom_site_fract_x
_atom_site_fract_y
_atom_site_fract_z
O1 O 0.4305(2) 0.02838(11) 0.83829(15)
O2 O 0.6273(3) 0.08939(12) 1.00813(15)
O3 O 0.38468(14) 0.09218(7) 0.58599(11)
C1 C 0.5352(2) 0.08246(12) 0.87946(18)
C2 C 0.5678(2) 0.14598(11) 0.79449(17)
H1 H 0.6505 0.1847 0.8390
C3 C 0.49001(19) 0.15385(10) 0.65821(16)
C4 C 0.5226(2) 0.22028(11) 0.57512(18)
C5 C 0.4903(2) 0.20817(13) 0.43625(19)
H2 H 0.4456 0.1584 0.3949
C6 C 0.5242(3) 0.26969(17) 0.3595(2)
H3 H 0.5007 0.2614 0.2661
C7 C 0.5916(3) 0.34259(18) 0.4188(3)
H4 H 0.6161 0.3835 0.3667
C8 C 0.6232(3) 0.35544(15) 0.5556(3)
H5 H 0.6691 0.4052 0.5962
C9 C 0.5874(3) 0.29523(13) 0.6332(2)
H6 H 0.6069 0.3050 0.7255
C10 C 0.2153(2) 0.10949(10) 0.51263(16)
C11 C 0.1346(2) 0.17572(12) 0.54309(18)
H7 H 0.1938 0.2123 0.6126
C12 C -0.0364(2) 0.18692(14) 0.4683(2)
H8 H -0.0929 0.2318 0.4862
C13 C -0.1223(2) 0.13137(16) 0.3674(2)
H9 H -0.2375 0.1383 0.3180
C14 C -0.0387(3) 0.06601(15) 0.3395(2)
H10 H -0.0988 0.0289 0.2711
C15 C 0.1321(2) 0.05352(11) 0.40975(18)
C16 C 0.2258(3) -0.01622(13) 0.3773(2)
H11 H 0.1493 -0.0481 0.3030
H12 H 0.2737 -0.0505 0.4572
H13 H 0.3148 0.0051 0.3509
H14 H 0.608(5) 0.0529(19) 1.059(3)
loop_
_geom_bond_atom_site_label_1
_geom_bond_atom_site_label_2
_geom_bond_site_symmetry_1
_geom_bond_site_symmetry_2
O1 C1 1_555 1_555
O2 C1 1_555 1_555
O3 C3 1_555 1_555
C1 C2 1_555 1_555
C2 H1 1_555 1_555
C3 C2 1_555 1_555
C4 C3 1_555 1_555
C5 C4 1_555 1_555
H2 C5 1_555 1_555
C6 C5 1_555 1_555
H3 C6 1_555 1_555
C7 C6 1_555 1_555
H4 C7 1_555 1_555
C8 C7 1_555 1_555
H5 C8 1_555 1_555
C9 C4 1_555 1_555
H6 C9 1_555 1_555
C10 O3 1_555 1_555
C11 C10 1_555 1_555
H7 C11 1_555 1_555
C12 C11 1_555 1_555
H8 C12 1_555 1_555
C13 C12 1_555 1_555
H9 C13 1_555 1_555
C14 C13 1_555 1_555
H10 C14 1_555 1_555
C15 C10 1_555 1_555
C16 C15 1_555 1_555
H11 C16 1_555 1_555
H12 C16 1_555 1_555
H13 C16 1_555 1_555
H14 O2 1_555 1_555
C8 C9 1_555 1_555
C14 C15 1_555 1_555

#END
