
#######################################################################
#
#                 Cambridge Crystallographic Data Centre
#                                CCDC 
#
#######################################################################
#
# If this CIF has been generated from an entry in the Cambridge 
# Structural Database, then it will include bibliographic, chemical, 
# crystal, experimental, refinement or atomic coordinate data resulting 
# from the CCDC's data processing and validation procedures.
#
#######################################################################

data_FABMAW10
_chemical_formula_moiety         'C24 H48 Cs1 O12 1+,Na1 1-'
_chemical_name_systematic        'bis(18-Crown-6)-cesium sodide'
_symmetry_cell_setting           monoclinic
_symmetry_space_group_name_H-M   'C 2/c'
_symmetry_Int_Tables_number      15
_space_group_name_Hall           '-C 2yn'
loop_
_symmetry_equiv_pos_site_id
_symmetry_equiv_pos_as_xyz
1 x,y,z
2 1/2+x,1/2+y,z
3 -x,y,1/2-z
4 1/2-x,1/2+y,1/2-z
5 -x,-y,-z
6 1/2-x,1/2-y,-z
7 x,-y,1/2+z
8 1/2+x,1/2-y,1/2+z
_cell_length_a                   13.581(3)
_cell_length_b                   15.684(2)
_cell_length_c                   17.429(4)
_cell_angle_alpha                90
_cell_angle_beta                 93.16(2)
_cell_angle_gamma                90
_cell_volume                     3706.81
_cell_formula_units_Z            4
loop_
_atom_site_label
_atom_site_type_symbol
_atom_site_fract_x
_atom_site_fract_y
_atom_site_fract_z
Cs1 Cs 0.0000 0.02094(3) 0.2500
O1 O -0.0980(2) 0.1741(2) 0.3653(2)
O2 O 0.1135(2) 0.1611(2) 0.3643(2)
O3 O 0.1361(2) -0.0171(2) 0.4081(2)
O4 O -0.0224(2) -0.1364(2) 0.3877(2)
O5 O -0.1820(3) -0.1166(2) 0.2736(2)
O6 O -0.2335(2) 0.0605(2) 0.2861(2)
C1 C -0.0319(4) 0.2435(3) 0.3715(3)
C2 C 0.0614(4) 0.2169(4) 0.4119(3)
C3 C 0.1980(4) 0.1252(4) 0.4032(3)
C4 C 0.1767(4) 0.0506(4) 0.4540(3)
C5 C 0.1279(4) -0.0932(4) 0.4518(3)
C6 C 0.0766(4) -0.1601(4) 0.4053(3)
C7 C -0.0822(5) -0.2029(3) 0.3564(3)
C8 C -0.1830(4) -0.1706(4) 0.3369(3)
C9 C -0.2755(4) -0.0767(5) 0.2480(4)
C10 C -0.307(1) 0.003(1) 0.274(1)
C12 C -0.2617(4) 0.1299(4) 0.3319(3)
C13 C -0.1878(4) 0.1982(4) 0.3284(3)
H1 H -0.060(4) 0.297(3) 0.397(3)
H2 H -0.024(4) 0.264(3) 0.327(3)
H3 H 0.054(3) 0.187(3) 0.449(3)
H4 H 0.107(4) 0.268(4) 0.426(3)
H5 H 0.230(4) 0.176(3) 0.435(3)
H6 H 0.238(3) 0.102(3) 0.367(3)
H7 H 0.130(4) 0.068(4) 0.487(3)
H8 H 0.241(4) 0.028(3) 0.478(3)
H9 H 0.093(3) -0.080(3) 0.493(3)
H10 H 0.198(4) -0.111(3) 0.468(3)
H11 H 0.079(3) -0.215(3) 0.426(3)
H12 H 0.105(3) -0.166(3) 0.364(2)
H13 H -0.083(3) -0.250(3) 0.386(3)
H14 H -0.061(4) -0.223(3) 0.319(3)
H15 H -0.212(4) -0.134(4) 0.368(3)
H16 H -0.226(4) -0.217(4) 0.327(3)
H17 H -0.326 -0.117 0.252
H18 H -0.281 -0.061 0.196
H19 H -0.355 0.027 0.238
H20 H -0.335 -0.005 0.322
H23 H -0.267(4) 0.111(3) 0.383(3)
H24 H -0.330(4) 0.148(3) 0.309(3)
H25 H -0.216(4) 0.249(3) 0.351(3)
H26 H -0.180(4) 0.215(3) 0.277(3)
O1B O 0.0980(2) 0.1741(2) 0.1347(2)
O2B O -0.1135(2) 0.1611(2) 0.1357(2)
O3B O -0.1361(2) -0.0171(2) 0.0919(2)
O4B O 0.0224(2) -0.1364(2) 0.1123(2)
O5B O 0.1820(3) -0.1166(2) 0.2264(2)
O6B O 0.2335(2) 0.0605(2) 0.2139(2)
C1B C 0.0319(4) 0.2435(3) 0.1285(3)
C13B C 0.1878(4) 0.1982(4) 0.1716(3)
C2B C -0.0614(4) 0.2169(4) 0.0881(3)
C3B C -0.1980(4) 0.1252(4) 0.0968(3)
C4B C -0.1767(4) 0.0506(4) 0.0460(3)
C5B C -0.1279(4) -0.0932(4) 0.0482(3)
C6B C -0.0766(4) -0.1601(4) 0.0947(3)
C7B C 0.0822(5) -0.2029(3) 0.1436(3)
C8B C 0.1830(4) -0.1706(4) 0.1631(3)
C9B C 0.2755(4) -0.0767(5) 0.2520(4)
C10B C 0.307(1) 0.003(1) 0.226(1)
C12B C 0.2617(4) 0.1299(4) 0.1681(3)
H1B H 0.060(4) 0.297(3) 0.103(3)
H2B H 0.024(4) 0.264(3) 0.173(3)
H25B H 0.216(4) 0.249(3) 0.149(3)
H26B H 0.180(4) 0.215(3) 0.223(3)
H3B H -0.054(3) 0.187(3) 0.051(3)
H4B H -0.107(4) 0.268(4) 0.074(3)
H5B H -0.230(4) 0.176(3) 0.065(3)
H6B H -0.238(3) 0.102(3) 0.133(3)
H7B H -0.130(4) 0.068(4) 0.013(3)
H8B H -0.241(4) 0.028(3) 0.022(3)
H9B H -0.093(3) -0.080(3) 0.007(3)
H10B H -0.198(4) -0.111(3) 0.032(3)
H11B H -0.079(3) -0.215(3) 0.074(3)
H12B H -0.105(3) -0.166(3) 0.136(2)
H13B H 0.083(3) -0.250(3) 0.114(3)
H14B H 0.061(4) -0.223(3) 0.181(3)
H15B H 0.212(4) -0.134(4) 0.132(3)
H16B H 0.226(4) -0.217(4) 0.173(3)
H17B H 0.326 -0.117 0.248
H18B H 0.281 -0.061 0.304
H19B H 0.355 0.027 0.262
H20B H 0.335 -0.005 0.178
H23B H 0.267(4) 0.111(3) 0.117(3)
H24B H 0.330(4) 0.148(3) 0.191(3)
Na1 Na 0.0000 0.50000 0.0000
C11? C -0.3013(7) -0.0095(6) 0.2990(5)
H21? H -0.368 0.007 0.289
H22? H -0.292 -0.029 0.350
loop_
_geom_bond_atom_site_label_1
_geom_bond_atom_site_label_2
_geom_bond_site_symmetry_1
_geom_bond_site_symmetry_2
Cs1 O1 1_555 1_555
O1 C1 1_555 1_555
O2 Cs1 1_555 1_555
O3 Cs1 1_555 1_555
O4 Cs1 1_555 1_555
O5 Cs1 1_555 1_555
O6 Cs1 1_555 1_555
C1 C2 1_555 1_555
C2 O2 1_555 1_555
C3 O2 1_555 1_555
C4 O3 1_555 1_555
C5 O3 1_555 1_555
C6 O4 1_555 1_555
C7 O4 1_555 1_555
C8 O5 1_555 1_555
C9 O5 1_555 1_555
C10 O6 1_555 1_555
C12 O6 1_555 1_555
C13 O1 1_555 1_555
H1 C1 1_555 1_555
H2 C1 1_555 1_555
H3 C2 1_555 1_555
H4 C2 1_555 1_555
H5 C3 1_555 1_555
H6 C3 1_555 1_555
H7 C4 1_555 1_555
H8 C4 1_555 1_555
H9 C5 1_555 1_555
H10 C5 1_555 1_555
H11 C6 1_555 1_555
H12 C6 1_555 1_555
H13 C7 1_555 1_555
H14 C7 1_555 1_555
H15 C8 1_555 1_555
H16 C8 1_555 1_555
H17 C9 1_555 1_555
H18 C9 1_555 1_555
H19 C10 1_555 1_555
H20 C10 1_555 1_555
H23 C12 1_555 1_555
H24 C12 1_555 1_555
H25 C13 1_555 1_555
H26 C13 1_555 1_555
O1B Cs1 1_555 1_555
O2B Cs1 1_555 1_555
O3B Cs1 1_555 1_555
O4B Cs1 1_555 1_555
O5B Cs1 1_555 1_555
O6B Cs1 1_555 1_555
C1B O1B 1_555 1_555
C13B O1B 1_555 1_555
C2B O2B 1_555 1_555
C3B O2B 1_555 1_555
C4B O3B 1_555 1_555
C5B O3B 1_555 1_555
C6B O4B 1_555 1_555
C7B O4B 1_555 1_555
C8B O5B 1_555 1_555
C9B O5B 1_555 1_555
C10B O6B 1_555 1_555
C12B O6B 1_555 1_555
H1B C1B 1_555 1_555
H2B C1B 1_555 1_555
H25B C13B 1_555 1_555
H26B C13B 1_555 1_555
H3B C2B 1_555 1_555
H4B C2B 1_555 1_555
H5B C3B 1_555 1_555
H6B C3B 1_555 1_555
H7B C4B 1_555 1_555
H8B C4B 1_555 1_555
H9B C5B 1_555 1_555
H10B C5B 1_555 1_555
H11B C6B 1_555 1_555
H12B C6B 1_555 1_555
H13B C7B 1_555 1_555
H14B C7B 1_555 1_555
H15B C8B 1_555 1_555
H16B C8B 1_555 1_555
H17B C9B 1_555 1_555
H18B C9B 1_555 1_555
H19B C10B 1_555 1_555
H20B C10B 1_555 1_555
H23B C12B 1_555 1_555
H24B C12B 1_555 1_555
C3 C4 1_555 1_555
C5 C6 1_555 1_555
C7 C8 1_555 1_555
C9 C10 1_555 1_555
C12 C13 1_555 1_555
C1B C2B 1_555 1_555
C13B C12B 1_555 1_555
C3B C4B 1_555 1_555
C5B C6B 1_555 1_555
C7B C8B 1_555 1_555
C9B C10B 1_555 1_555

#END
