
#######################################################################
#
#                 Cambridge Crystallographic Data Centre
#                                CCDC 
#
#######################################################################
#
# If this CIF has been generated from an entry in the Cambridge 
# Structural Database, then it will include bibliographic, chemical, 
# crystal, experimental, refinement or atomic coordinate data resulting 
# from the CCDC's data processing and validation procedures.
#
#######################################################################

data_FABMEA10
_chemical_formula_moiety         'C20 H40 O10 Rb1 1+,Na1 1-'
_chemical_name_systematic        'bis(15-Crown-5)-rubidium sodide'
_symmetry_cell_setting           monoclinic
_symmetry_space_group_name_H-M   'C 2/m'
_symmetry_Int_Tables_number      12
_space_group_name_Hall           '-C 2y'
loop_
_symmetry_equiv_pos_site_id
_symmetry_equiv_pos_as_xyz
1 x,y,z
2 1/2+x,1/2+y,z
3 -x,y,-z
4 1/2-x,1/2+y,-z
5 -x,-y,-z
6 1/2-x,1/2-y,-z
7 x,-y,z
8 1/2+x,1/2-y,z
_cell_length_a                   11.555(3)
_cell_length_b                   13.587(3)
_cell_length_c                   9.958(2)
_cell_angle_alpha                90
_cell_angle_beta                 92.03(2)
_cell_angle_gamma                90
_cell_volume                     1562.4
_cell_formula_units_Z            2
loop_
_atom_site_label
_atom_site_type_symbol
_atom_site_fract_x
_atom_site_fract_y
_atom_site_fract_z
Rb1 Rb 0.5000 0.0000 0.5000
O1 O 0.4537(6) 0.0000 0.1948(7)
O2 O 0.5015(4) -0.1794(4) 0.3268(5)
O3 O 0.7204(4) -0.1047(4) 0.4366(6)
C1 C 0.3880(7) -0.0891(6) 0.1675(8)
C2 C 0.4714(8) -0.1713(6) 0.1891(8)
C3 C 0.6058(8) -0.2347(6) 0.3525(9)
C4 C 0.7115(7) -0.1780(8) 0.335(1)
C6 C 0.811(1) -0.053(1) 0.370(2)
H1 H 0.365(6) -0.078(5) 0.066(7)
H2 H 0.333(5) -0.081(4) 0.245(6)
H3 H 0.544(7) -0.148(7) 0.134(9)
H4 H 0.437(5) -0.223(4) 0.154(6)
H5 H 0.606(5) -0.281(5) 0.284(6)
H6 H 0.585(5) -0.259(5) 0.439(6)
H7 H 0.708(7) -0.153(7) 0.230(9)
H8 H 0.774(5) -0.209(5) 0.334(6)
H11 H 0.790 -0.035 0.281
H12 H 0.880 -0.091 0.370
O1D O 0.5463(6) 0.0000 0.8052(7)
O2D O 0.4985(4) 0.1794(4) 0.6732(5)
O2B O 0.4985(4) -0.1794(4) 0.6732(5)
O2F O 0.5015(4) 0.1794(4) 0.3268(5)
O3D O 0.2796(4) 0.1047(4) 0.5634(6)
O3B O 0.2796(4) -0.1047(4) 0.5634(6)
O3F O 0.7204(4) 0.1047(4) 0.4366(6)
C1F C 0.3880(7) 0.0891(6) 0.1675(8)
C6F C 0.811(1) 0.053(1) 0.370(2)
C1D C 0.6120(7) 0.0891(6) 0.8325(8)
C1B C 0.6120(7) -0.0891(6) 0.8325(8)
C2D C 0.5286(8) 0.1713(6) 0.8109(8)
C3D C 0.3942(8) 0.2347(6) 0.6475(9)
C2B C 0.5286(8) -0.1713(6) 0.8109(8)
C3B C 0.3942(8) -0.2347(6) 0.6475(9)
C2F C 0.4714(8) 0.1713(6) 0.1891(8)
C3F C 0.6058(8) 0.2347(6) 0.3525(9)
C4D C 0.2885(7) 0.1780(8) 0.665(1)
C6D C 0.189(1) 0.053(1) 0.630(2)
C4B C 0.2885(7) -0.1780(8) 0.665(1)
C6B C 0.189(1) -0.053(1) 0.630(2)
C4F C 0.7115(7) 0.1780(8) 0.335(1)
H1F H 0.365(6) 0.078(5) 0.066(7)
H2F H 0.333(5) 0.081(4) 0.245(6)
H11F H 0.790 0.035 0.281
H12F H 0.880 0.091 0.370
H1D H 0.635(6) 0.078(5) 0.934(7)
H2D H 0.667(5) 0.081(4) 0.755(6)
H1B H 0.635(6) -0.078(5) 0.934(7)
H2B H 0.667(5) -0.081(4) 0.755(6)
H3D H 0.456(7) 0.148(7) 0.866(9)
H4D H 0.563(5) 0.223(4) 0.846(6)
H5D H 0.394(5) 0.281(5) 0.716(6)
H6D H 0.415(5) 0.259(5) 0.561(6)
H3B H 0.456(7) -0.148(7) 0.866(9)
H4B H 0.563(5) -0.223(4) 0.846(6)
H5B H 0.394(5) -0.281(5) 0.716(6)
H6B H 0.415(5) -0.259(5) 0.561(6)
H3F H 0.544(7) 0.148(7) 0.134(9)
H4F H 0.437(5) 0.223(4) 0.154(6)
H5F H 0.606(5) 0.281(5) 0.284(6)
H6F H 0.585(5) 0.259(5) 0.439(6)
H7D H 0.292(7) 0.153(7) 0.770(9)
H8D H 0.226(5) 0.209(5) 0.666(6)
H11D H 0.210 0.035 0.719
H12D H 0.120 0.091 0.630
H7B H 0.292(7) -0.153(7) 0.770(9)
H8B H 0.226(5) -0.209(5) 0.666(6)
H11B H 0.210 -0.035 0.719
H12B H 0.120 -0.091 0.630
H7F H 0.708(7) 0.153(7) 0.230(9)
H8F H 0.774(5) 0.209(5) 0.334(6)
Na1 Na 0.5000 0.5000 0.0000
C5? C 0.823(1) -0.0331(9) 0.465(1)
H9? H 0.823 -0.012 0.556
H10? H 0.894 -0.067 0.449
loop_
_geom_bond_atom_site_label_1
_geom_bond_atom_site_label_2
_geom_bond_site_symmetry_1
_geom_bond_site_symmetry_2
Rb1 O1 1_555 1_555
O1 C1 1_555 1_555
O2 Rb1 1_555 1_555
O3 Rb1 1_555 1_555
C1 C2 1_555 1_555
C2 O2 1_555 1_555
C3 O2 1_555 1_555
C4 O3 1_555 1_555
C6 O3 1_555 1_555
H1 C1 1_555 1_555
H2 C1 1_555 1_555
H3 C2 1_555 1_555
H4 C2 1_555 1_555
H5 C3 1_555 1_555
H6 C3 1_555 1_555
H7 C4 1_555 1_555
H8 C4 1_555 1_555
H11 C6 1_555 1_555
H12 C6 1_555 1_555
O1D Rb1 1_555 1_555
O2D Rb1 1_555 1_555
O2B Rb1 1_555 1_555
O2F Rb1 1_555 1_555
O3D Rb1 1_555 1_555
O3B Rb1 1_555 1_555
O3F Rb1 1_555 1_555
C1F O1 1_555 1_555
C6F C6 1_555 1_555
C1D O1D 1_555 1_555
C1B O1D 1_555 1_555
C2D O2D 1_555 1_555
C3D O2D 1_555 1_555
C2B O2B 1_555 1_555
C3B O2B 1_555 1_555
C2F O2F 1_555 1_555
C3F O2F 1_555 1_555
C4D O3D 1_555 1_555
C6D O3D 1_555 1_555
C4B O3B 1_555 1_555
C6B O3B 1_555 1_555
C4F O3F 1_555 1_555
H1F C1F 1_555 1_555
H2F C1F 1_555 1_555
H11F C6F 1_555 1_555
H12F C6F 1_555 1_555
H1D C1D 1_555 1_555
H2D C1D 1_555 1_555
H1B C1B 1_555 1_555
H2B C1B 1_555 1_555
H3D C2D 1_555 1_555
H4D C2D 1_555 1_555
H5D C3D 1_555 1_555
H6D C3D 1_555 1_555
H3B C2B 1_555 1_555
H4B C2B 1_555 1_555
H5B C3B 1_555 1_555
H6B C3B 1_555 1_555
H3F C2F 1_555 1_555
H4F C2F 1_555 1_555
H5F C3F 1_555 1_555
H6F C3F 1_555 1_555
H7D C4D 1_555 1_555
H8D C4D 1_555 1_555
H11D C6D 1_555 1_555
H12D C6D 1_555 1_555
H7B C4B 1_555 1_555
H8B C4B 1_555 1_555
H11B C6B 1_555 1_555
H12B C6B 1_555 1_555
H7F C4F 1_555 1_555
H8F C4F 1_555 1_555
C3 C4 1_555 1_555
O3F C6F 1_555 1_555
C1F C2F 1_555 1_555
C1D C2D 1_555 1_555
C1B C2B 1_555 1_555
C3D C4D 1_555 1_555
C3B C4B 1_555 1_555
C3F C4F 1_555 1_555
C6D C6B 1_555 1_555

#END
