
#######################################################################
#
#                 Cambridge Crystallographic Data Centre
#                                CCDC 
#
#######################################################################
#
# If this CIF has been generated from an entry in the Cambridge 
# Structural Database, then it will include bibliographic, chemical, 
# crystal, experimental, refinement or atomic coordinate data resulting 
# from the CCDC's data processing and validation procedures.
#
#######################################################################

data_FABNIH
_chemical_formula_moiety         'C9 H19 O4 P1 Si1'
_chemical_name_systematic        
'Dimethyl (2-hydroxy-4-(trimethylsilyl)but-3-yn-2-yl)phosphonate'
_symmetry_cell_setting           monoclinic
_symmetry_space_group_name_H-M   'P 21'
_symmetry_Int_Tables_number      4
_space_group_name_Hall           'P 2yb'
loop_
_symmetry_equiv_pos_site_id
_symmetry_equiv_pos_as_xyz
1 x,y,z
2 -x,1/2+y,-z
_cell_length_a                   9.5228(13)
_cell_length_b                   7.4316(11)
_cell_length_c                   9.7945(14)
_cell_angle_alpha                90
_cell_angle_beta                 103.092(3)
_cell_angle_gamma                90
_cell_volume                     675.137
_exptl_crystal_colour            colorless
_exptl_crystal_description       prism
_cell_formula_units_Z            2
loop_
_atom_site_label
_atom_site_type_symbol
_atom_site_fract_x
_atom_site_fract_y
_atom_site_fract_z
P1 P 0.31889(5) 0.20155(7) 0.47926(5)
Si1 Si 0.22767(6) 0.43048(9) -0.02839(6)
O1 O 0.47379(15) 0.2224(2) 0.48653(16)
O2 O 0.27652(16) 0.5514(2) 0.51921(15)
H1 H 0.3247 0.5086 0.5948
C1 C 0.2147(2) 0.4093(3) 0.4293(2)
C2 C 0.2205(2) 0.4381(3) 0.2804(2)
O3 O 0.27764(17) 0.1513(2) 0.62106(15)
O4 O 0.24245(17) 0.0513(2) 0.37566(16)
C3 C 0.2239(2) 0.4444(3) 0.1592(2)
C4 C 0.4121(3) 0.3619(4) -0.0404(3)
H2 H 0.4799 0.4596 -0.0058
H3 H 0.4130 0.3359 -0.1383
H4 H 0.4407 0.2540 0.0166
C5 C 0.0962(3) 0.2563(5) -0.1106(3)
H5 H 0.1235 0.1401 -0.0649
H6 H 0.0959 0.2467 -0.2105
H7 H -0.0003 0.2898 -0.1000
C6 C 0.3380(3) -0.0117(4) 0.6917(3)
H8 H 0.3029 -0.1159 0.6325
H9 H 0.3085 -0.0227 0.7809
H10 H 0.4434 -0.0067 0.7095
C7 C 0.3086(3) -0.0264(4) 0.2701(3)
H11 H 0.2637 0.0241 0.1782
H12 H 0.2951 -0.1572 0.2681
H13 H 0.4119 0.0013 0.2926
C8 C 0.0590(2) 0.3892(3) 0.4425(2)
H14 H 0.0569 0.3742 0.5414
H15 H 0.0157 0.2835 0.3894
H16 H 0.0043 0.4970 0.4052
C9 C 0.1834(3) 0.6526(4) -0.1122(3)
H17 H 0.0822 0.6814 -0.1155
H18 H 0.1990 0.6494 -0.2077
H19 H 0.2455 0.7448 -0.0577
loop_
_geom_bond_atom_site_label_1
_geom_bond_atom_site_label_2
_geom_bond_site_symmetry_1
_geom_bond_site_symmetry_2
P1 O1 1_555 1_555
Si1 C3 1_555 1_555
O2 H1 1_555 1_555
C1 P1 1_555 1_555
C2 C1 1_555 1_555
O3 P1 1_555 1_555
O4 P1 1_555 1_555
C3 C2 1_555 1_555
C4 Si1 1_555 1_555
H2 C4 1_555 1_555
H3 C4 1_555 1_555
H4 C4 1_555 1_555
C5 Si1 1_555 1_555
H5 C5 1_555 1_555
H6 C5 1_555 1_555
H7 C5 1_555 1_555
C6 O3 1_555 1_555
H8 C6 1_555 1_555
H9 C6 1_555 1_555
H10 C6 1_555 1_555
C7 O4 1_555 1_555
H11 C7 1_555 1_555
H12 C7 1_555 1_555
H13 C7 1_555 1_555
C8 C1 1_555 1_555
H14 C8 1_555 1_555
H15 C8 1_555 1_555
H16 C8 1_555 1_555
C9 Si1 1_555 1_555
H17 C9 1_555 1_555
H18 C9 1_555 1_555
H19 C9 1_555 1_555
O2 C1 1_555 1_555

#END
