
#######################################################################
#
#                 Cambridge Crystallographic Data Centre
#                                CCDC 
#
#######################################################################
#
# If this CIF has been generated from an entry in the Cambridge 
# Structural Database, then it will include bibliographic, chemical, 
# crystal, experimental, refinement or atomic coordinate data resulting 
# from the CCDC's data processing and validation procedures.
#
#######################################################################

data_FABNUU
_chemical_formula_moiety         
'2(C111 H109 F6 N19 O17),C43 H48 N4 O4,10(C1 H1 Cl3)'
_chemical_name_systematic        
"[3]-(4-(4'-Methyl-2,2'-bipyridin-4-yl)butyl 2-(pyren-1-yl)ethyl octane-1,8-diylbiscarbamate)-bis(N-(6-((6-((6-(2,2-dimethylpropanamido)pyridin-2-yl)carbamoyl)pyridine-2-carbonyl)amino)pyridin-2-yl)-(7-((7-((7-((7-((7-((7-((t-butoxycarbonyl)amino)-8-fluoro-4-(2-methylpropoxy)quinoline-2-carbonyl)amino)-8-fluoro-4-(2-methylpropoxy)quinoline-2-carbonyl)amino)-8-fluoro-4-(2-methylpropoxy)quinoline-2-carbonyl)amino)-8-fluoro-4-(2-methylpropoxy)quinoline-2-carbonyl)amino)-8-fluoro-4-(2-methylpropoxy)quinoline-2-carbonyl)amino)-8-fluoro-4-(2-methylpropoxy)quinoline-2-carbonyl)amine)-pseudorotaxane chloroform solvate"
_symmetry_cell_setting           triclinic
_symmetry_space_group_name_H-M   'P -1'
_symmetry_Int_Tables_number      2
_space_group_name_Hall           '-P 1'
loop_
_symmetry_equiv_pos_site_id
_symmetry_equiv_pos_as_xyz
1 x,y,z
2 -x,-y,-z
_cell_length_a                   20.2500(14)
_cell_length_b                   29.674(2)
_cell_length_c                   30.922(2)
_cell_angle_alpha                99.704(7)
_cell_angle_beta                 98.045(7)
_cell_angle_gamma                106.601(7)
_cell_volume                     17200.2
_exptl_crystal_colour            yellow
_exptl_crystal_description       Prism
_cell_formula_units_Z            2
_chemical_properties_physical    
'Air-sensitive, Light-sensitive, Photo-sensitive'
loop_
_atom_site_label
_atom_site_type_symbol
_atom_site_fract_x
_atom_site_fract_y
_atom_site_fract_z
Cl1 Cl 0.2091(2) 0.52166(15) 0.52482(13)
Cl2 Cl 0.2522(3) 0.57533(17) 0.61586(13)
Cl3 Cl 0.1439(2) 0.48360(18) 0.59406(17)
C1 C 0.2224(7) 0.5158(5) 0.5799(5)
H1 H 0.2579 0.4997 0.5849
C2 C 1.0531(12) 0.2574(10) 0.9094(8)
C3 C 1.0320(9) 0.2269(7) 0.8582(8)
H2 H 1.0101 0.2435 0.8395
H3 H 0.9999 0.1956 0.8565
H4 H 1.0736 0.2237 0.8482
C4 C 0.9895(9) 0.2416(6) 0.9326(7)
H5 H 0.9536 0.2545 0.9217
H6 H 1.0046 0.2535 0.9644
H7 H 0.9710 0.2070 0.9260
F1 F 0.9229(3) 0.30291(19) 0.7341(2)
N1 N 1.0091(7) 0.4023(10) 0.9234(4)
O1 O 1.0063(5) 0.5412(3) 0.9346(3)
N2 N 0.9644(7) 0.4617(7) 0.9369(4)
H8 H 0.9301 0.4402 0.9425
F2 F 0.7953(3) 0.4217(2) 0.72955(18)
O2 O 0.7123(5) 0.4489(3) 1.0256(3)
C5 C 1.1105(9) 0.2345(6) 0.9308(6)
H9 H 1.1556 0.2502 0.9248
H10 H 1.0964 0.2006 0.9176
H11 H 1.1133 0.2391 0.9625
C6 C 1.084(2) 0.3072(12) 0.9077(9)
C7 C 1.0544(18) 0.3848(9) 0.9100(6)
C8 C 1.1180(10) 0.4081(10) 0.8970(5)
H12 H 1.1501 0.3926 0.8895
C9 C 1.1268(9) 0.4534(10) 0.8967(5)
H13 H 1.1652 0.4707 0.8864
C10 C 1.0810(11) 0.4763(6) 0.9110(4)
H14 H 1.0897 0.5092 0.9131
C11 C 0.9627(9) 0.5078(9) 0.9423(4)
C12 C 0.8919(10) 0.5573(8) 0.9684(5)
H15 H 0.9226 0.5827 0.9600
C13 C 0.9024(10) 0.5120(8) 0.9616(4)
C14 C 0.7919(9) 0.5269(8) 0.9985(4)
H16 H 0.7542 0.5291 1.0118
C15 C 0.8346(11) 0.5654(7) 0.9881(5)
H17 H 0.8278 0.5954 0.9933
C16 C 0.8065(10) 0.4824(7) 0.9885(5)
C17 C 0.7536(9) 0.4405(7) 1.0016(5)
C18 C 0.4693(9) 0.5719(6) 0.8873(7)
H18 H 0.4322 0.5703 0.8626
C19 C 0.6638(9) 0.3462(6) 1.0174(4)
H19 H 0.6519 0.3728 1.0302
C20 C 0.7175(8) 0.3526(8) 0.9925(5)
O3 O 0.7356(4) 0.2556(5) 0.4835(3)
N3 N 0.5406(5) 0.0842(4) 0.6756(4)
H20 H 0.5551 0.1087 0.6641
O4 O 0.7490(6) 0.1848(4) 0.4524(3)
N4 N 0.4643(6) 0.1961(5) 0.7663(4)
O5 O 0.6875(4) -0.0142(5) 0.5493(3)
N5 N 0.4748(5) 0.2899(6) 0.7939(3)
H21 H 0.4966 0.2784 0.7751
O6 O 0.5368(5) 0.0046(3) 0.6672(2)
N6 N 0.6199(6) 0.4401(5) 0.7811(3)
O7 O 1.1448(9) 0.3234(7) 0.9017(6)
F3 F 0.8388(3) 0.2105(3) 0.83406(18)
N7 N 1.0439(9) 0.3381(12) 0.9120(5)
H22 H 1.0030 0.3244 0.9171
O8 O 0.4927(4) 0.5079(4) 0.8420(3)
N8 N 0.9730(5) 0.3673(6) 0.6853(3)
H23 H 0.9366 0.3674 0.6966
C21 C 0.7586(7) 0.3323(5) 0.4659(5)
H24 H 0.7103 0.3294 0.4664
H25 H 0.7865 0.3463 0.4955
H26 H 0.7751 0.3525 0.4459
O9 O 0.7156(4) 0.5589(4) 0.7763(3)
N9 N 0.9469(5) 0.2154(5) 0.7264(3)
C22 C 0.7140(7) 0.2580(5) 0.4039(4)
H27 H 0.7271 0.2759 0.3816
H28 H 0.6663 0.2554 0.4063
H29 H 0.7179 0.2263 0.3955
C23 C 0.8382(7) 0.2836(5) 0.4480(4)
H30 H 0.8370 0.2508 0.4387
H31 H 0.8684 0.2975 0.4769
H32 H 0.8559 0.3017 0.4268
C24 C 0.7645(8) 0.2850(6) 0.4506(5)
C25 C 0.7338(8) 0.2098(6) 0.4797(6)
C26 C 0.7174(7) -0.0918(5) 0.4980(6)
H33 H 0.7237 -0.0632 0.4863
H34 H 0.6700 -0.1128 0.4871
H35 H 0.7495 -0.1080 0.4886
C27 C 0.7215(10) -0.1242(7) 0.5639(5)
H36 H 0.6730 -0.1438 0.5547
H37 H 0.7346 -0.1172 0.5959
H38 H 0.7504 -0.1413 0.5510
C28 C 0.7316(9) -0.0781(6) 0.5483(5)
H39 H 0.7800 -0.0568 0.5597
C29 C 0.6812(8) -0.0559(6) 0.5679(5)
H40 H 0.6335 -0.0779 0.5592
H41 H 0.6942 -0.0469 0.6003
C30 C 0.6463(6) 0.0972(6) 0.5747(5)
C31 C 0.6606(6) 0.1419(6) 0.5606(5)
C32 C 0.6280(8) 0.3005(8) 1.0233(5)
H42 H 0.5938 0.2964 1.0407
C33 C 0.6445(7) 0.2631(6) 1.0031(5)
H43 H 0.6220 0.2318 1.0054
F4 F 0.5880(4) 0.3428(2) 0.7704(2)
N10 N 0.8566(9) 0.4745(5) 0.9716(4)
O10 O 0.6671(5) 0.1702(3) 0.9819(3)
C34 C 0.6980(9) 0.2733(7) 0.9777(5)
C35 C 0.7028(8) 0.1888(7) 0.9575(5)
C36 C 0.7218(7) 0.1102(7) 0.9305(4)
H44 H 0.6965 0.0994 0.9517
C37 C 0.7807(7) 0.0987(7) 0.8711(5)
C38 C 0.8055(8) 0.0699(5) 0.8403(6)
H45 H 0.7977 0.0375 0.8408
C39 C 0.8414(7) 0.0894(6) 0.8094(4)
H46 H 0.8583 0.0704 0.7896
O11 O 0.3968(5) 0.2670(3) 0.8384(3)
N11 N 0.9188(7) 0.4377(4) 0.7007(3)
C40 C 0.8520(6) 0.1372(6) 0.8080(5)
C41 C 0.7914(7) 0.1470(7) 0.8703(5)
C42 C 0.8266(7) 0.1638(6) 0.8375(5)
C43 C 0.9298(7) 0.1393(6) 0.7509(5)
C44 C 0.9607(7) 0.1737(7) 0.7229(5)
C45 C 0.7060(7) 0.0131(6) 0.9364(5)
H47 H 0.6583 0.0145 0.9339
H48 H 0.7326 0.0307 0.9660
C46 C 0.6793(8) -0.0577(6) 0.9684(6)
H49 H 0.6348 -0.0526 0.9698
H50 H 0.7127 -0.0397 0.9953
H51 H 0.6738 -0.0914 0.9653
C47 C 0.7059(9) -0.0407(8) 0.9279(7)
H52 H 0.6772 -0.0604 0.8990
C48 C 0.7774(14) -0.0389(7) 0.9332(8)
H53 H 0.7964 -0.0284 0.9085
H54 H 0.8036 -0.0167 0.9607
H55 H 0.7807 -0.0704 0.9341
C49 C 1.0000(7) 0.1607(4) 0.6939(5)
H56 H 1.0087 0.1315 0.6931
C50 C 0.5052(6) 0.0919(7) 0.7093(5)
C51 C 1.0413(7) 0.2671(6) 0.6444(4)
H57 H 1.0694 0.2597 0.6247
C52 C 1.0289(6) 0.3105(6) 0.6471(4)
H58 H 1.0460 0.3309 0.6287
C53 C 0.9883(6) 0.3236(6) 0.6796(5)
C54 C 0.9610(6) 0.2918(6) 0.7033(4)
C55 C 1.1685(16) 0.1729(9) 0.5917(10)
H59 H 1.1969 0.1643 0.5714
H60 H 1.1368 0.1870 0.5773
H61 H 1.1982 0.1956 0.6179
C56 C 1.1313(10) 0.1330(6) 0.6036(6)
H62 H 1.0953 0.1199 0.5760
C57 C 1.0850(7) 0.1375(5) 0.6339(4)
H63 H 1.0423 0.1101 0.6244
H64 H 1.1073 0.1367 0.6635
N12 N 0.7692(6) 0.1780(4) 0.8986(4)
O12 O 1.0591(5) 0.4149(3) 0.6584(3)
C58 C 1.1552(7) 0.0901(5) 0.6034(4)
H65 H 1.1903 0.0912 0.5853
H66 H 1.1160 0.0613 0.5913
H67 H 1.1750 0.0900 0.6334
C59 C 0.4677(7) 0.0547(4) 0.7288(5)
H68 H 0.4675 0.0232 0.7195
C60 C 0.4291(7) 0.1111(7) 0.7748(5)
C61 C 0.9749(6) 0.2465(6) 0.7007(5)
C62 C 1.0076(8) 0.4087(7) 0.6754(4)
C63 C 0.4991(7) 0.1358(6) 0.7209(5)
C64 C 0.9772(9) 0.4493(5) 0.6876(4)
C65 C 0.4329(7) 0.0655(7) 0.7604(5)
H69 H 0.4100 0.0410 0.7734
C66 C 1.0175(6) 0.4951(6) 0.6823(4)
H70 H 1.0585 0.4990 0.6711
C67 C 0.9937(7) 0.5328(6) 0.6941(4)
C68 C 0.8940(8) 0.5599(5) 0.7191(4)
H71 H 0.9140 0.5911 0.7155
C69 C 0.9282(9) 0.5240(6) 0.7077(4)
C70 C 0.8335(8) 0.5491(5) 0.7350(4)
H72 H 0.8140 0.5735 0.7424
C71 C 0.7987(8) 0.5030(6) 0.7407(4)
C72 C 0.8287(8) 0.4680(5) 0.7260(4)
C73 C 0.8946(7) 0.4749(7) 0.7114(4)
C74 C 0.3959(8) 0.1245(6) 0.8096(6)
C75 C 1.0926(8) 0.5918(4) 0.6878(4)
H73 H 1.0946 0.5744 0.6587
H74 H 1.1228 0.5840 0.7107
C76 C 1.1880(9) 0.6610(5) 0.6839(6)
H75 H 1.1906 0.6388 0.6583
H76 H 1.2180 0.6589 0.7099
H77 H 1.2029 0.6932 0.6791
C77 C 1.1176(9) 0.6493(7) 0.6905(6)
H78 H 1.0858 0.6616 0.6726
C78 C 1.1313(9) 0.6667(6) 0.7414(9)
H79 H 1.1729 0.6609 0.7547
H80 H 1.0919 0.6496 0.7526
H81 H 1.1376 0.7007 0.7487
C79 C 0.7008(8) 0.5142(7) 0.7719(5)
C80 C 0.6359(8) 0.4861(7) 0.7865(4)
C81 C 0.5964(9) 0.5129(5) 0.8085(4)
H82 H 0.6111 0.5464 0.8134
C82 C 0.5371(9) 0.4893(7) 0.8222(5)
C83 C 0.4570(8) 0.4075(8) 0.8253(4)
H83 H 0.4252 0.4211 0.8367
C84 C 0.5195(8) 0.4393(7) 0.8144(4)
C85 C 0.3928(6) 0.1705(7) 0.8198(4)
H84 H 0.3671 0.1792 0.8406
C86 C 0.4439(7) 0.3608(7) 0.8198(4)
H85 H 0.4048 0.3421 0.8283
C87 C 0.5465(8) 0.3660(7) 0.7884(4)
C88 C 0.4890(10) 0.3396(6) 0.8010(4)
C89 C 0.5646(8) 0.4143(7) 0.7942(4)
N13 N 0.7211(5) 0.2369(5) 0.9551(3)
H86 H 0.7499 0.2456 0.9378
O13 O 1.0670(5) 0.1807(4) 0.6365(3)
C90 C 0.4304(7) 0.2045(7) 0.7973(6)
C91 C 0.4239(18) 0.5403(8) 0.9037(11)
H87 H 0.4020 0.5572 0.9235
H88 H 0.3886 0.5180 0.8796
H89 H 0.4484 0.5231 0.9200
C92 C 0.4862(8) 0.6261(5) 0.9018(6)
H90 H 0.4449 0.6348 0.8930
H91 H 0.5229 0.6420 0.8878
H92 H 0.5014 0.6358 0.9337
C93 C 0.4314(8) 0.2555(8) 0.8118(5)
C94 C 0.3226(8) 0.0986(5) 0.8607(5)
H93 H 0.2881 0.1125 0.8486
H94 H 0.3541 0.1222 0.8864
C95 C 0.4649(7) 0.1510(7) 0.7555(5)
C96 C 0.5136(7) 0.5601(6) 0.8556(5)
H95 H 0.5067 0.5739 0.8297
H96 H 0.5629 0.5730 0.8699
C97 C 1.0207(13) 0.4476(9) 0.9223(5)
O14 O 0.3616(5) 0.0884(3) 0.8277(3)
N14 N 0.7374(7) 0.4876(4) 0.7561(3)
H97 H 0.7215 0.4573 0.7553
C98 C 0.2870(9) 0.0556(6) 0.8751(5)
H98 H 0.2582 0.0307 0.8489
C99 C 0.5948(7) 0.0508(7) 0.6204(4)
C100 C 0.5571(7) 0.0449(7) 0.6569(5)
C101 C 0.2414(8) 0.0655(6) 0.9077(5)
H99 H 0.2689 0.0915 0.9322
H100 H 0.2227 0.0371 0.9188
H101 H 0.2034 0.0741 0.8928
C102 C 0.3379(10) 0.0381(6) 0.8982(6)
H102 H 0.3140 0.0097 0.9077
H103 H 0.3678 0.0306 0.8785
H104 H 0.3659 0.0625 0.9239
C103 C 0.6709(7) 0.0619(7) 0.5523(5)
C104 C 0.6578(8) 0.0182(6) 0.5690(6)
C105 C 0.6201(8) 0.0141(5) 0.6022(5)
H105 H 0.6109 -0.0140 0.6131
C106 C 0.6967(8) 0.1497(7) 0.5270(5)
C107 C 0.7205(6) 0.1125(8) 0.5056(4)
H106 H 0.7436 0.1171 0.4820
C108 C 0.7099(7) 0.0720(6) 0.5191(5)
H107 H 0.7289 0.0492 0.5063
N15 N 0.6100(5) 0.0924(5) 0.6086(4)
F5 F 0.6390(3) 0.1772(3) 0.5821(2)
N16 N 0.7333(6) 0.3163(6) 0.9721(4)
O15 O 0.9412(5) 0.1032(4) 0.7496(3)
F6 F 0.5355(3) 0.1712(2) 0.70232(18)
N17 N 0.7577(5) 0.3965(6) 0.9855(3)
H108 H 0.7886 0.3954 0.9692
O16 O 0.7380(5) 0.0328(4) 0.9028(3)
C109 C 1.0147(7) 0.2334(7) 0.6691(4)
C110 C 1.0272(7) 0.1888(7) 0.6660(5)
N18 N 0.7072(5) 0.1972(5) 0.5172(4)
H109 H 0.6966 0.2184 0.5350
N19 N 0.8895(6) 0.1586(3) 0.7754(4)
H110 H 0.8858 0.1858 0.7714
O17 O 1.0247(5) 0.5797(3) 0.6946(2)
C111 C 0.7351(7) 0.1582(6) 0.9259(5)
C112 C 0.7465(7) 0.0785(6) 0.9031(5)
Cl4 Cl 0.9208(4) 0.1643(3) 0.4289(3)
Cl5 Cl 0.8308(4) 0.1422(3) 0.3425(3)
Cl6 Cl 0.7980(4) 0.0770(3) 0.3996(2)
C113 C 0.8329(12) 0.1340(8) 0.3959(7)
H111 H 0.8030 0.1514 0.4085
Cl7 Cl 0.5498(4) 0.1148(2) 0.29582(18)
Cl8 Cl 0.6457(3) 0.11792(18) 0.37210(17)
Cl9 Cl 0.6456(3) 0.06252(17) 0.28883(17)
C114 C 0.5937(9) 0.0836(5) 0.3256(4)
H112 H 0.5596 0.0561 0.3322
Cl10 Cl 0.6310(3) 0.05882(15) 1.03945(15)
Cl11 Cl 0.5277(2) 0.04214(17) 0.96107(15)
Cl12 Cl 0.5216(3) 0.10115(18) 1.04399(16)
C115 C 0.5743(9) 0.0838(5) 1.0097(5)
H113 H 0.6031 0.1125 1.0015
F7 F 0.7553(3) 0.3327(2) 0.61580(19)
N20 N 0.5125(6) 0.2092(8) 0.5083(4)
O18 O 0.4998(4) 0.0656(3) 0.4941(3)
O19 O 1.1147(4) 0.3988(4) 0.7848(3)
N21 N 0.7585(7) 0.4857(4) 0.8745(3)
H114 H 0.7830 0.4683 0.8647
O20 O 1.1638(5) 0.4783(3) 0.7880(3)
N22 N 0.6124(6) 0.3377(6) 0.8926(3)
O21 O 0.9865(4) 0.6444(4) 0.8336(3)
N23 N 0.5826(5) 0.2419(5) 0.8749(3)
H115 H 0.6104 0.2621 0.8634
O22 O 0.7590(5) 0.5643(3) 0.8853(3)
N24 N 0.6556(5) 0.1304(4) 0.7822(4)
O23 O 0.5752(5) 0.3245(3) 0.4468(4)
F8 F 0.5825(3) 0.3813(3) 0.66125(18)
N25 N 0.5339(6) 0.2837(6) 0.4991(3)
H116 H 0.5200 0.2869 0.5241
O24 O 0.5595(5) 0.0202(4) 0.8431(3)
N26 N 0.8529(5) 0.2933(5) 0.5928(3)
H117 H 0.8273 0.2837 0.6115
O25 O 0.7030(4) 0.0352(3) 0.7197(3)
N27 N 0.7668(6) 0.4251(5) 0.6140(3)
F9 F 0.6432(3) 0.2190(2) 0.80662(18)
N28 N 0.4169(7) 0.0884(4) 0.5840(5)
O26 O 0.3079(4) 0.3352(3) 0.7309(3)
O27 O 0.4983(5) 0.2353(3) 0.9183(3)
O28 O 0.3135(4) 0.0677(3) 0.6675(3)
F10 F 0.7572(3) 0.1950(2) 0.68505(19)
N29 N 0.4826(5) 0.1348(6) 0.5249(3)
H118 H 0.4687 0.1481 0.5473
N30 N 0.4645(6) 0.3795(4) 0.6918(3)
O29 O 0.9160(4) 0.2697(3) 0.5443(3)
C116 C 1.2432(6) 0.4108(4) 0.8116(4)
H119 H 1.2804 0.3980 0.8057
H120 H 1.2320 0.4054 0.8399
H121 H 1.2581 0.4447 0.8126
C117 C 1.1893(6) 0.3963(4) 0.7284(4)
H122 H 1.2281 0.3864 0.7208
H123 H 1.2001 0.4304 0.7306
H124 H 1.1480 0.3795 0.7057
C118 C 1.1528(6) 0.3307(5) 0.7701(4)
H125 H 1.1167 0.3149 0.7439
H126 H 1.1348 0.3239 0.7962
H127 H 1.1923 0.3192 0.7682
C119 C 1.1760(7) 0.3847(6) 0.7733(5)
C120 C 1.1184(8) 0.4448(7) 0.7896(4)
C121 C 0.9825(11) 0.7718(6) 0.8539(8)
H128 H 0.9426 0.7661 0.8305
H129 H 1.0129 0.8043 0.8582
H130 H 0.9667 0.7671 0.8812
C122 C 1.0056(10) 0.7241(6) 0.7947(6)
H131 H 1.0270 0.7018 0.7811
H132 H 0.9554 0.7102 0.7867
H133 H 1.0198 0.7535 0.7844
C123 C 1.0262(13) 0.7336(6) 0.8398(7)
H134 H 1.0754 0.7401 0.8540
C124 C 0.9622(9) 0.6850(5) 0.8447(5)
H135 H 0.9539 0.6887 0.8751
H136 H 0.9187 0.6808 0.8245
C125 C 0.9368(8) 0.5178(5) 0.8310(4)
C126 C 0.9655(8) 0.4787(6) 0.8182(4)
C127 C 1.0270(8) 0.4846(6) 0.8035(4)
C128 C 1.0639(6) 0.5308(7) 0.7984(4)
H137 H 1.1040 0.5349 0.7860
C129 C 1.0423(8) 0.5693(5) 0.8112(4)
H138 H 1.0704 0.5999 0.8102
C130 C 0.9774(8) 0.5641(6) 0.8259(4)
C131 C 0.9468(10) 0.6006(6) 0.8389(5)
C132 C 0.8866(10) 0.5914(6) 0.8526(4)
H139 H 0.8671 0.6160 0.8592
C133 C 0.8523(8) 0.5456(7) 0.8571(4)
C134 C 0.7838(8) 0.5318(8) 0.8725(4)
C135 C 0.3159(12) 0.3809(9) 0.9916(9)
H140 H 0.2823 0.3661 0.9640
H141 H 0.2941 0.3955 1.0131
H142 H 0.3321 0.3569 1.0028
C136 C 0.3515(10) 0.4227(8) 0.9330(7)
H143 H 0.3814 0.4160 0.9131
H144 H 0.3451 0.4533 0.9313
H145 H 0.3067 0.3979 0.9245
C137 C 0.3861(12) 0.4244(9) 0.9822(7)
H146 H 0.4165 0.4533 1.0041
C138 C 0.4121(8) 0.3771(6) 0.9570(5)
H147 H 0.4184 0.3561 0.9771
H148 H 0.3796 0.3583 0.9295
C139 C 0.6239(8) 0.3853(7) 0.8990(4)
C140 C 0.6825(9) 0.4125(7) 0.8845(4)
C141 C 0.6999(8) 0.4599(8) 0.8895(4)
C142 C 0.6597(9) 0.4857(5) 0.9084(4)
H149 H 0.6719 0.5188 0.9110
C143 C 0.6018(10) 0.4616(7) 0.9230(4)
H150 H 0.5743 0.4786 0.9351
C144 C 0.5825(8) 0.4102(6) 0.9199(4)
C145 C 0.5206(9) 0.3823(7) 0.9325(4)
C146 C 0.5113(7) 0.3344(7) 0.9276(4)
H151 H 0.4751 0.3146 0.9378
C147 C 0.5600(10) 0.3144(6) 0.9054(4)
C148 C 0.5443(8) 0.2609(7) 0.9019(4)
C149 C 0.5086(9) -0.1109(6) 0.8364(5)
H152 H 0.4671 -0.1291 0.8142
H153 H 0.5095 -0.1254 0.8619
H154 H 0.5496 -0.1106 0.8240
C150 C 0.4335(10) -0.0585(6) 0.8394(6)
H155 H 0.4198 -0.0637 0.8075
H156 H 0.4294 -0.0282 0.8533
H157 H 0.4033 -0.0841 0.8498
C151 C 0.5079(11) -0.0578(5) 0.8513(5)
H158 H 0.5255 -0.0461 0.8836
C152 C 0.5551(8) -0.0282(6) 0.8266(4)
H159 H 0.6014 -0.0321 0.8318
H160 H 0.5359 -0.0379 0.7946
C153 C 0.6203(6) 0.1370(6) 0.8152(5)
C154 C 0.6140(6) 0.1841(5) 0.8274(5)
C155 C 0.5825(6) 0.1962(6) 0.8639(5)
C156 C 0.5509(7) 0.1582(8) 0.8846(5)
H161 H 0.5275 0.1645 0.9076
C157 C 0.5544(7) 0.1140(6) 0.8715(5)
H162 H 0.5327 0.0902 0.8856
C158 C 0.5899(7) 0.1013(6) 0.8368(5)
C159 C 0.5938(7) 0.0551(6) 0.8249(5)
C160 C 0.6276(6) 0.0466(4) 0.7895(5)
H163 H 0.6297 0.0160 0.7785
C161 C 0.6598(6) 0.0877(6) 0.7699(4)
C162 C 0.6982(6) 0.0738(5) 0.7329(4)
C163 C 0.9779(8) 0.0571(5) 0.4681(5)
H164 H 0.9538 0.0698 0.4465
H165 H 0.9787 0.0259 0.4542
H166 H 1.0252 0.0784 0.4790
C164 C 0.8758(8) 0.0119(5) 0.4986(5)
H167 H 0.8465 0.0096 0.4706
H168 H 0.8510 0.0166 0.5224
H169 H 0.8876 -0.0173 0.4980
C165 C 0.9404(8) 0.0529(6) 0.5062(5)
H170 H 0.9732 0.0493 0.5308
C166 C 0.9262(7) 0.1023(5) 0.5225(5)
H171 H 0.9697 0.1290 0.5287
H172 H 0.8931 0.1075 0.4994
C167 C 0.8193(7) 0.1666(7) 0.6324(4)
C168 C 0.7803(7) 0.1586(6) 0.6665(4)
C169 C 0.7646(6) 0.1180(6) 0.6822(4)
C170 C 0.7889(7) 0.0804(5) 0.6636(5)
H173 H 0.7800 0.0521 0.6741
C171 C 0.8253(7) 0.0860(5) 0.6305(5)
H174 H 0.8402 0.0608 0.6181
C172 C 0.8417(7) 0.1276(7) 0.6140(4)
C173 C 0.8779(6) 0.1381(6) 0.5785(6)
C174 C 0.8914(6) 0.1786(6) 0.5633(4)
C175 C 0.8659(6) 0.2134(6) 0.5869(5)
C176 C 0.8795(6) 0.2602(6) 0.5726(5)
C177 C 0.9868(7) 0.6182(6) 0.5236(4)
H175 H 1.0232 0.6309 0.5080
H176 H 0.9937 0.6400 0.5518
H177 H 0.9418 0.6143 0.5059
C178 C 1.0635(7) 0.5745(5) 0.5555(5)
H178 H 1.0666 0.5431 0.5571
H179 H 1.0732 0.5939 0.5853
H180 H 1.0972 0.5896 0.5391
C179 C 0.9894(9) 0.5697(5) 0.5319(5)
H181 H 0.9749 0.5453 0.5037
C180 C 0.9376(7) 0.5562(5) 0.5644(4)
H182 H 0.9558 0.5780 0.5936
H183 H 0.8919 0.5582 0.5526
N31 N 0.3751(4) 0.2956(5) 0.6975(3)
H184 H 0.4098 0.3000 0.6838
O30 O 0.9324(4) 0.5084(4) 0.5679(2)
C181 C 0.8158(6) 0.4044(7) 0.5995(4)
C182 C 0.8118(9) 0.3591(6) 0.6012(4)
C183 C 0.8603(9) 0.3398(6) 0.5883(4)
C184 C 0.9169(6) 0.3690(7) 0.5726(4)
H185 H 0.9504 0.3560 0.5628
C185 C 0.9224(7) 0.4143(7) 0.5718(4)
H186 H 0.9611 0.4324 0.5622
C186 C 0.8741(8) 0.4369(7) 0.5842(4)
C187 C 0.8796(8) 0.4835(7) 0.5834(4)
C188 C 0.8277(8) 0.5019(5) 0.5968(4)
H187 H 0.8283 0.5331 0.5955
C189 C 0.7722(7) 0.4694(7) 0.6130(4)
C190 C 0.7200(8) 0.4924(6) 0.6297(4)
C191 C 0.2723(7) 0.5573(4) 0.7404(4)
H188 H 0.2358 0.5294 0.7224
H189 H 0.2636 0.5858 0.7340
H190 H 0.2728 0.5574 0.7715
C192 C 0.4030(7) 0.5990(5) 0.7588(5)
H191 H 0.4474 0.5935 0.7583
H192 H 0.3953 0.6034 0.7889
H193 H 0.4033 0.6273 0.7477
C193 C 0.3449(7) 0.5561(6) 0.7295(4)
H194 H 0.3444 0.5582 0.6982
C194 C 0.3558(8) 0.5093(5) 0.7350(4)
H195 H 0.3562 0.5060 0.7657
H196 H 0.3182 0.4824 0.7155
C195 C 0.5067(8) 0.4215(6) 0.6866(4)
C196 C 0.5686(8) 0.4230(5) 0.6709(4)
C197 C 0.6147(8) 0.4657(6) 0.6638(4)
C198 C 0.6003(9) 0.5092(6) 0.6765(4)
H197 H 0.6313 0.5378 0.6734
C199 C 0.5429(8) 0.5102(4) 0.6931(4)
H198 H 0.5348 0.5394 0.7019
C200 C 0.4951(7) 0.4673(7) 0.6971(4)
C201 C 0.4333(9) 0.4675(6) 0.7139(4)
C202 C 0.3878(7) 0.4249(6) 0.7206(4)
H199 H 0.3476 0.4238 0.7323
C203 C 0.4088(9) 0.3830(6) 0.7079(4)
C204 C 0.3586(8) 0.3356(6) 0.7133(4)
C205 C 0.3432(7) 0.2479(6) 0.7007(5)
C206 C 0.2969(7) 0.2359(5) 0.7279(4)
H200 H 0.2833 0.2591 0.7452
C207 C 0.2715(7) 0.1889(6) 0.7290(4)
H201 H 0.2400 0.1799 0.7476
C208 C 0.2905(7) 0.1537(5) 0.7035(5)
H202 H 0.2729 0.1214 0.7045
C209 C 0.3378(7) 0.1693(6) 0.6760(5)
C210 C 0.3491(7) 0.0911(7) 0.6457(5)
C211 C 0.3815(7) 0.0659(6) 0.6122(5)
C212 C 0.3753(6) 0.0181(7) 0.6117(4)
H203 H 0.3519 0.0032 0.6318
C213 C 0.4024(8) -0.0073(5) 0.5826(6)
H204 H 0.3972 -0.0397 0.5816
C214 C 0.4376(7) 0.0169(7) 0.5550(4)
H205 H 0.4589 0.0009 0.5356
C215 C 0.4429(7) 0.0624(8) 0.5545(6)
C216 C 0.4772(8) 0.0874(7) 0.5225(6)
C217 C 0.5076(6) 0.1657(9) 0.4960(7)
C218 C 0.5209(7) 0.1459(5) 0.4546(7)
H206 H 0.5174 0.1135 0.4468
C219 C 0.5395(8) 0.1767(8) 0.4259(6)
H207 H 0.5504 0.1652 0.3988
C220 C 0.5418(7) 0.2198(9) 0.4362(6)
H208 H 0.5495 0.2397 0.4160
C221 C 0.5320(7) 0.2378(7) 0.4801(9)
C222 C 0.5548(7) 0.3246(8) 0.4835(6)
C223 C 0.4807(9) 0.3745(6) 0.4908(5)
H209 H 0.4770 0.3733 0.4593
H210 H 0.4450 0.3475 0.4953
H211 H 0.4746 0.4039 0.5053
C224 C 0.6096(7) 0.4154(4) 0.5025(4)
H212 H 0.6535 0.4198 0.5218
H213 H 0.5964 0.4440 0.5089
H214 H 0.6145 0.4091 0.4718
C225 C 0.5590(7) 0.3745(4) 0.5589(4)
H215 H 0.5132 0.3677 0.5663
H216 H 0.5880 0.4061 0.5754
H217 H 0.5799 0.3510 0.5666
C226 C 0.5527(9) 0.3727(5) 0.5105(6)
O31 O 0.4790(5) 0.4059(3) 0.9487(3)
N32 N 0.7255(5) 0.1135(4) 0.7160(3)
H218 H 0.7174 0.1393 0.7279
N33 N 0.8735(6) 0.5076(4) 0.8445(3)
O32 O 0.7164(4) 0.5315(4) 0.6269(3)
F11 F 0.9292(3) 0.4350(2) 0.82163(18)
N34 N 0.3629(5) 0.2162(5) 0.6747(3)
F12 F 0.7218(3) 0.3917(2) 0.8642(2)
N35 N 0.3623(5) 0.1379(5) 0.6468(3)
H219 H 0.3872 0.1500 0.6287
N36 N 0.8292(5) 0.2090(4) 0.6186(4)
O33 O 0.4216(5) 0.5101(4) 0.7233(3)
N37 N 1.0513(7) 0.4447(4) 0.7928(3)
H220 H 1.0201 0.4168 0.7877
N38 N 0.6744(6) 0.4604(4) 0.6464(3)
H221 H 0.6822 0.4334 0.6466
O34 O 0.8980(4) 0.0995(3) 0.5622(3)
Cl13 Cl 0.7497(4) -0.0635(2) 0.7008(2)
Cl14 Cl 0.6500(4) -0.08658(18) 0.7537(2)
C227 C 0.6612(10) -0.0701(6) 0.7083(6)
H222 H 0.6527 -0.0391 0.7095
Cl15 Cl 0.6101(3) -0.11157(18) 0.6566(2)
Cl16 Cl 0.6570(3) 0.55659(19) 0.51352(18)
Cl17 Cl 0.7024(3) 0.6479(2) 0.57255(17)
Cl18 Cl 0.7956(3) 0.6142(2) 0.5260(2)
C228 C 0.7200(6) 0.5926(6) 0.5516(5)
H223 H 0.7314 0.5771 0.5760
Cl19 Cl 0.9379(6) -0.0280(5) 0.1916(4)
Cl20 Cl 1.0889(6) 0.0120(4) 0.1958(4)
Cl21 Cl 0.9937(5) -0.0728(3) 0.1304(3)
C229 C 1.0113(17) -0.0496(14) 0.1893(14)
H224 H 1.0185 -0.0712 0.2090
C230 C 0.9491(7) 0.3371(5) 1.0408(5)
H225 H 0.9860 0.3248 1.0322
H226 H 0.9698 0.3624 1.0676
C231 C 0.8950(9) 0.2980(8) 1.0514(5)
C232 C 0.8465(10) 0.3098(7) 1.0782(5)
C233 C 0.7444(11) 0.2825(10) 1.1142(6)
N39 N 0.8316(6) 0.2955(4) 0.8936(5)
H227 H 0.8389 0.2685 0.8944
O35 O 0.8951(5) 0.3199(3) 0.9630(4)
C234 C 0.8431(12) 0.2135(8) 1.0477(5)
H228 H 0.8436 0.1823 1.0375
C235 C 0.7915(11) 0.2208(8) 1.0726(7)
C236 C 0.8443(11) 0.3597(7) 1.0954(6)
H229 H 0.8785 0.3859 1.0907
C237 C 0.7921(7) 0.3001(4) 0.8532(5)
H230 H 0.7611 0.3184 0.8608
H231 H 0.7632 0.2683 0.8362
N40 N 0.4909(7) 0.2769(4) 0.6264(5)
H232 H 0.4888 0.3058 0.6296
O36 O 0.8526(4) 0.3720(3) 0.9314(3)
C238 C 0.7933(12) 0.3682(9) 1.1182(6)
H233 H 0.7925 0.3995 1.1273
N41 N 0.4627(10) 0.4700(5) 0.5788(4)
O37 O 0.4304(4) 0.1997(3) 0.5876(3)
C239 C 0.7437(11) 0.3300(10) 1.1272(6)
N42 N 0.2991(9) 0.4497(5) 0.6186(4)
O38 O 0.4194(6) 0.2647(3) 0.5611(4)
C240 C 0.6959(14) 0.3399(8) 1.1504(7)
H234 H 0.6954 0.3713 1.1599
C241 C 0.6457(12) 0.2991(14) 1.1597(7)
H235 H 0.6125 0.3056 1.1756
C242 C 0.6422(16) 0.2526(14) 1.1475(9)
H236 H 0.6081 0.2273 1.1537
C243 C 0.6931(18) 0.2462(9) 1.1255(8)
C244 C 0.6890(9) 0.1992(11) 1.1107(7)
H237 H 0.6538 0.1749 1.1173
C245 C 0.8916(9) 0.2509(8) 1.0384(4)
H238 H 0.9244 0.2441 1.0223
C246 C 0.7953(9) 0.2702(9) 1.0878(5)
C247 C 0.9231(7) 0.3581(5) 1.0048(5)
H239 H 0.9610 0.3843 1.0003
H240 H 0.8863 0.3708 1.0129
C248 C 0.4462(8) 0.2423(7) 0.5913(6)
C249 C 0.5428(8) 0.2670(5) 0.6592(4)
H241 H 0.5226 0.2352 0.6648
H242 H 0.5532 0.2904 0.6872
C250 C 0.6097(7) 0.2694(4) 0.6429(4)
H243 H 0.6295 0.3009 0.6367
H244 H 0.5996 0.2455 0.6152
C251 C 0.6628(7) 0.2602(5) 0.6771(5)
H245 H 0.6947 0.2479 0.6616
H246 H 0.6380 0.2353 0.6911
C252 C 0.7066(7) 0.3046(4) 0.7141(5)
H247 H 0.7354 0.3285 0.7008
H248 H 0.6752 0.3188 0.7283
C253 C 0.7531(6) 0.2920(4) 0.7490(4)
H249 H 0.7834 0.2767 0.7348
H250 H 0.7243 0.2692 0.7632
C254 C 0.7980(7) 0.3363(4) 0.7841(5)
H251 H 0.7678 0.3538 0.7952
H252 H 0.8306 0.3571 0.7702
C255 C 0.8400(6) 0.3251(4) 0.8241(4)
H253 H 0.8734 0.3549 0.8423
H254 H 0.8663 0.3046 0.8130
C256 C 0.7367(13) 0.1866(6) 1.0859(5)
H255 H 0.7323 0.1541 1.0775
C257 C 0.3610(11) 0.2344(5) 0.5233(5)
H256 H 0.3673 0.2469 0.4966
H257 H 0.3633 0.2018 0.5175
C258 C 0.4711(11) 0.5701(9) 0.6170(5)
C259 C 0.5188(11) 0.5551(8) 0.5945(7)
H258 H 0.5577 0.5796 0.5921
C260 C 0.5164(9) 0.5093(9) 0.5755(5)
H259 H 0.5512 0.5047 0.5603
C261 C 0.4791(7) 0.6198(5) 0.6382(5)
H260 H 0.5270 0.6394 0.6415
H261 H 0.4667 0.6207 0.6671
H262 H 0.4488 0.6318 0.6199
C262 C 0.4153(8) 0.5282(8) 0.6162(4)
H263 H 0.3764 0.5321 0.6274
C263 C 0.4151(10) 0.4827(7) 0.6002(5)
C264 C 0.3542(11) 0.4388(9) 0.6034(4)
C265 C 0.3549(9) 0.3918(8) 0.5952(5)
H264 H 0.3928 0.3855 0.5844
C266 C 0.2452(9) 0.4123(9) 0.6256(4)
H265 H 0.2061 0.4188 0.6341
C267 C 0.2479(9) 0.3656(8) 0.6202(5)
H266 H 0.2137 0.3422 0.6286
C268 C 0.3029(11) 0.3534(7) 0.6020(5)
C269 C 0.3063(7) 0.3040(6) 0.5925(6)
H267 H 0.2748 0.2843 0.6079
H268 H 0.3537 0.3043 0.6037
C270 C 0.2855(8) 0.2815(6) 0.5415(5)
H269 H 0.2368 0.2786 0.5307
H270 H 0.3144 0.3026 0.5258
C271 C 0.2949(8) 0.2332(7) 0.5318(6)
H271 H 0.2872 0.2184 0.5571
H272 H 0.2595 0.2131 0.5060
C272 C 0.8582(8) 0.3320(6) 0.9312(7)
Cl22 Cl 1.0998(3) 0.3190(2) 0.54232(17)
Cl23 Cl 1.0702(3) 0.2194(2) 0.51820(18)
C273 C 1.0501(9) 0.2653(5) 0.5046(4)
H273 H 1.0009 0.2603 0.5071
Cl24 Cl 1.0557(3) 0.27157(19) 0.4506(2)
Cl25 Cl 0.7648(5) 0.6924(4) 0.7758(4)
Cl26 Cl 0.6982(5) 0.6434(3) 0.6890(3)
Cl27 Cl 0.6160(4) 0.6504(2) 0.7583(3)
C274 C 0.6904(13) 0.6461(8) 0.7407(9)
H274 H 0.6954 0.6159 0.7472
Cl28 Cl 0.8040(3) -0.0604(2) 0.24511(18)
C275 C 0.7854(12) -0.0139(7) 0.2779(9)
H275 H 0.7428 -0.0271 0.2893
Cl29 Cl 0.7736(3) 0.0266(2) 0.2483(2)
Cl30 Cl 0.8579(5) 0.0172(3) 0.3243(3)
loop_
_geom_bond_atom_site_label_1
_geom_bond_atom_site_label_2
_geom_bond_site_symmetry_1
_geom_bond_site_symmetry_2
Cl1 C1 1_555 1_555
Cl2 C1 1_555 1_555
Cl3 C1 1_555 1_555
C1 H1 1_555 1_555
C2 C3 1_555 1_555
C3 H2 1_555 1_555
H3 C3 1_555 1_555
H4 C3 1_555 1_555
C4 C2 1_555 1_555
H5 C4 1_555 1_555
H6 C4 1_555 1_555
H7 C4 1_555 1_555
F1 C54 1_555 1_555
N1 C7 1_555 1_555
O1 C11 1_555 1_555
N2 H8 1_555 1_555
F2 C72 1_555 1_555
O2 C17 1_555 1_555
C5 C2 1_555 1_555
H9 C5 1_555 1_555
H10 C5 1_555 1_555
H11 C5 1_555 1_555
C6 C2 1_555 1_555
C7 C8 1_555 1_555
C8 H12 1_555 1_555
C9 C8 1_555 1_555
H13 C9 1_555 1_555
C10 C9 1_555 1_555
H14 C10 1_555 1_555
C11 N2 1_555 1_555
C12 H15 1_555 1_555
C13 C11 1_555 1_555
C14 H16 1_555 1_555
C15 C12 1_555 1_555
H17 C15 1_555 1_555
C16 C14 1_555 1_555
C17 C16 1_555 1_555
C18 H18 1_555 1_555
C19 H19 1_555 1_555
C20 C19 1_555 1_555
O3 C24 1_555 1_555
N3 H20 1_555 1_555
O4 C25 1_555 1_555
N4 C90 1_555 1_555
O5 C29 1_555 1_555
N5 H21 1_555 1_555
O6 C100 1_555 1_555
N6 C80 1_555 1_555
O7 C6 1_555 1_555
F3 C42 1_555 1_555
N7 C6 1_555 1_555
H22 N7 1_555 1_555
O8 C82 1_555 1_555
N8 H23 1_555 1_555
C21 H24 1_555 1_555
H25 C21 1_555 1_555
H26 C21 1_555 1_555
O9 C79 1_555 1_555
N9 C44 1_555 1_555
C22 H27 1_555 1_555
H28 C22 1_555 1_555
H29 C22 1_555 1_555
C23 H30 1_555 1_555
H31 C23 1_555 1_555
H32 C23 1_555 1_555
C24 C21 1_555 1_555
C25 O3 1_555 1_555
C26 H33 1_555 1_555
H34 C26 1_555 1_555
H35 C26 1_555 1_555
C27 H36 1_555 1_555
H37 C27 1_555 1_555
H38 C27 1_555 1_555
C28 C26 1_555 1_555
H39 C28 1_555 1_555
C29 C28 1_555 1_555
H40 C29 1_555 1_555
H41 C29 1_555 1_555
C30 C31 1_555 1_555
C31 C106 1_555 1_555
C32 C19 1_555 1_555
H42 C32 1_555 1_555
C33 C32 1_555 1_555
H43 C33 1_555 1_555
F4 C87 1_555 1_555
N10 C13 1_555 1_555
O10 C35 1_555 1_555
C34 C33 1_555 1_555
C35 N13 1_555 1_555
C36 H44 1_555 1_555
C37 C38 1_555 1_555
C38 H45 1_555 1_555
C39 C38 1_555 1_555
H46 C39 1_555 1_555
O11 C93 1_555 1_555
N11 C64 1_555 1_555
C40 C39 1_555 1_555
C41 C37 1_555 1_555
C42 C40 1_555 1_555
C43 C44 1_555 1_555
C44 C49 1_555 1_555
C45 H47 1_555 1_555
H48 C45 1_555 1_555
C46 H49 1_555 1_555
H50 C46 1_555 1_555
H51 C46 1_555 1_555
C47 C45 1_555 1_555
H52 C47 1_555 1_555
C48 C47 1_555 1_555
H53 C48 1_555 1_555
H54 C48 1_555 1_555
H55 C48 1_555 1_555
C49 H56 1_555 1_555
C50 N3 1_555 1_555
C51 H57 1_555 1_555
C52 C51 1_555 1_555
H58 C52 1_555 1_555
C53 N8 1_555 1_555
C54 C53 1_555 1_555
C55 H59 1_555 1_555
H60 C55 1_555 1_555
H61 C55 1_555 1_555
C56 C55 1_555 1_555
H62 C56 1_555 1_555
C57 C56 1_555 1_555
H63 C57 1_555 1_555
H64 C57 1_555 1_555
N12 C41 1_555 1_555
O12 C62 1_555 1_555
C58 C56 1_555 1_555
H65 C58 1_555 1_555
H66 C58 1_555 1_555
H67 C58 1_555 1_555
C59 C50 1_555 1_555
H68 C59 1_555 1_555
C60 C65 1_555 1_555
C61 N9 1_555 1_555
C62 N8 1_555 1_555
C63 C50 1_555 1_555
C64 C62 1_555 1_555
C65 C59 1_555 1_555
H69 C65 1_555 1_555
C66 C64 1_555 1_555
H70 C66 1_555 1_555
C67 C66 1_555 1_555
C68 H71 1_555 1_555
C69 C67 1_555 1_555
C70 C68 1_555 1_555
H72 C70 1_555 1_555
C71 C70 1_555 1_555
C72 C71 1_555 1_555
C73 N11 1_555 1_555
C74 C60 1_555 1_555
C75 H73 1_555 1_555
H74 C75 1_555 1_555
C76 H75 1_555 1_555
H76 C76 1_555 1_555
H77 C76 1_555 1_555
C77 C75 1_555 1_555
H78 C77 1_555 1_555
C78 C77 1_555 1_555
H79 C78 1_555 1_555
H80 C78 1_555 1_555
H81 C78 1_555 1_555
C79 C80 1_555 1_555
C80 C81 1_555 1_555
C81 H82 1_555 1_555
C82 C81 1_555 1_555
C83 H83 1_555 1_555
C84 C82 1_555 1_555
C85 C74 1_555 1_555
H84 C85 1_555 1_555
C86 C83 1_555 1_555
H85 C86 1_555 1_555
C87 C88 1_555 1_555
C88 N5 1_555 1_555
C89 N6 1_555 1_555
N13 C34 1_555 1_555
H86 N13 1_555 1_555
O13 C57 1_555 1_555
C90 C85 1_555 1_555
C91 C18 1_555 1_555
H87 C91 1_555 1_555
H88 C91 1_555 1_555
H89 C91 1_555 1_555
C92 C18 1_555 1_555
H90 C92 1_555 1_555
H91 C92 1_555 1_555
H92 C92 1_555 1_555
C93 N5 1_555 1_555
C94 H93 1_555 1_555
H94 C94 1_555 1_555
C95 N4 1_555 1_555
C96 C18 1_555 1_555
H95 C96 1_555 1_555
H96 C96 1_555 1_555
C97 N1 1_555 1_555
O14 C74 1_555 1_555
N14 C71 1_555 1_555
H97 N14 1_555 1_555
C98 C94 1_555 1_555
H98 C98 1_555 1_555
C99 C100 1_555 1_555
C100 N3 1_555 1_555
C101 C98 1_555 1_555
H99 C101 1_555 1_555
H100 C101 1_555 1_555
H101 C101 1_555 1_555
C102 C98 1_555 1_555
H102 C102 1_555 1_555
H103 C102 1_555 1_555
H104 C102 1_555 1_555
C103 C30 1_555 1_555
C104 O5 1_555 1_555
C105 C99 1_555 1_555
H105 C105 1_555 1_555
C106 C107 1_555 1_555
C107 H106 1_555 1_555
C108 C103 1_555 1_555
H107 C108 1_555 1_555
N15 C30 1_555 1_555
F5 C31 1_555 1_555
N16 C20 1_555 1_555
O15 C43 1_555 1_555
F6 C63 1_555 1_555
N17 C17 1_555 1_555
H108 N17 1_555 1_555
O16 C45 1_555 1_555
C109 C51 1_555 1_555
C110 C49 1_555 1_555
N18 C25 1_555 1_555
H109 N18 1_555 1_555
N19 C40 1_555 1_555
H110 N19 1_555 1_555
O17 C67 1_555 1_555
C111 C35 1_555 1_555
C112 C36 1_555 1_555
Cl4 C113 1_555 1_555
Cl5 C113 1_555 1_555
Cl6 C113 1_555 1_555
C113 H111 1_555 1_555
Cl7 C114 1_555 1_555
Cl8 C114 1_555 1_555
Cl9 C114 1_555 1_555
C114 H112 1_555 1_555
Cl10 C115 1_555 1_555
Cl11 C115 1_555 1_555
Cl12 C115 1_555 1_555
C115 H113 1_555 1_555
F7 C182 1_555 1_555
N20 C217 1_555 1_555
O18 C216 1_555 1_555
O19 C119 1_555 1_555
N21 H114 1_555 1_555
O20 C120 1_555 1_555
N22 C139 1_555 1_555
O21 C124 1_555 1_555
N23 H115 1_555 1_555
O22 C134 1_555 1_555
N24 C153 1_555 1_555
O23 C222 1_555 1_555
F8 C196 1_555 1_555
N25 H116 1_555 1_555
O24 C152 1_555 1_555
N26 H117 1_555 1_555
O25 C162 1_555 1_555
N27 C181 1_555 1_555
F9 C154 1_555 1_555
N28 C211 1_555 1_555
O26 C204 1_555 1_555
O27 C148 1_555 1_555
O28 C210 1_555 1_555
F10 C168 1_555 1_555
N29 H118 1_555 1_555
N30 C195 1_555 1_555
O29 C176 1_555 1_555
C116 H119 1_555 1_555
H120 C116 1_555 1_555
H121 C116 1_555 1_555
C117 H122 1_555 1_555
H123 C117 1_555 1_555
H124 C117 1_555 1_555
C118 H125 1_555 1_555
H126 C118 1_555 1_555
H127 C118 1_555 1_555
C119 C116 1_555 1_555
C120 O19 1_555 1_555
C121 H128 1_555 1_555
H129 C121 1_555 1_555
H130 C121 1_555 1_555
C122 H131 1_555 1_555
H132 C122 1_555 1_555
H133 C122 1_555 1_555
C123 C121 1_555 1_555
H134 C123 1_555 1_555
C124 C123 1_555 1_555
H135 C124 1_555 1_555
H136 C124 1_555 1_555
C125 C126 1_555 1_555
C126 C127 1_555 1_555
C127 C128 1_555 1_555
C128 H137 1_555 1_555
C129 C128 1_555 1_555
H138 C129 1_555 1_555
C130 C125 1_555 1_555
C131 O21 1_555 1_555
C132 C131 1_555 1_555
H139 C132 1_555 1_555
C133 C132 1_555 1_555
C134 N21 1_555 1_555
C135 H140 1_555 1_555
H141 C135 1_555 1_555
H142 C135 1_555 1_555
C136 H143 1_555 1_555
H144 C136 1_555 1_555
H145 C136 1_555 1_555
C137 C135 1_555 1_555
H146 C137 1_555 1_555
C138 C137 1_555 1_555
H147 C138 1_555 1_555
H148 C138 1_555 1_555
C139 C140 1_555 1_555
C140 C141 1_555 1_555
C141 N21 1_555 1_555
C142 C141 1_555 1_555
H149 C142 1_555 1_555
C143 C142 1_555 1_555
H150 C143 1_555 1_555
C144 C139 1_555 1_555
C145 C144 1_555 1_555
C146 C145 1_555 1_555
H151 C146 1_555 1_555
C147 N22 1_555 1_555
C148 N23 1_555 1_555
C149 H152 1_555 1_555
H153 C149 1_555 1_555
H154 C149 1_555 1_555
C150 H155 1_555 1_555
H156 C150 1_555 1_555
H157 C150 1_555 1_555
C151 C149 1_555 1_555
H158 C151 1_555 1_555
C152 C151 1_555 1_555
H159 C152 1_555 1_555
H160 C152 1_555 1_555
C153 C154 1_555 1_555
C154 C155 1_555 1_555
C155 N23 1_555 1_555
C156 C155 1_555 1_555
H161 C156 1_555 1_555
C157 C156 1_555 1_555
H162 C157 1_555 1_555
C158 C153 1_555 1_555
C159 O24 1_555 1_555
C160 C159 1_555 1_555
H163 C160 1_555 1_555
C161 N24 1_555 1_555
C162 C161 1_555 1_555
C163 H164 1_555 1_555
H165 C163 1_555 1_555
H166 C163 1_555 1_555
C164 H167 1_555 1_555
H168 C164 1_555 1_555
H169 C164 1_555 1_555
C165 C163 1_555 1_555
H170 C165 1_555 1_555
C166 C165 1_555 1_555
H171 C166 1_555 1_555
H172 C166 1_555 1_555
C167 C168 1_555 1_555
C168 C169 1_555 1_555
C169 C170 1_555 1_555
C170 H173 1_555 1_555
C171 C170 1_555 1_555
H174 C171 1_555 1_555
C172 C167 1_555 1_555
C173 C172 1_555 1_555
C174 C173 1_555 1_555
C175 C174 1_555 1_555
C176 N26 1_555 1_555
C177 H175 1_555 1_555
H176 C177 1_555 1_555
H177 C177 1_555 1_555
C178 H178 1_555 1_555
H179 C178 1_555 1_555
H180 C178 1_555 1_555
C179 C177 1_555 1_555
H181 C179 1_555 1_555
C180 C179 1_555 1_555
H182 C180 1_555 1_555
H183 C180 1_555 1_555
N31 H184 1_555 1_555
O30 C180 1_555 1_555
C181 C182 1_555 1_555
C182 C183 1_555 1_555
C183 N26 1_555 1_555
C184 C183 1_555 1_555
H185 C184 1_555 1_555
C185 C184 1_555 1_555
H186 C185 1_555 1_555
C186 C181 1_555 1_555
C187 O30 1_555 1_555
C188 C187 1_555 1_555
H187 C188 1_555 1_555
C189 N27 1_555 1_555
C190 C189 1_555 1_555
C191 H188 1_555 1_555
H189 C191 1_555 1_555
H190 C191 1_555 1_555
C192 H191 1_555 1_555
H192 C192 1_555 1_555
H193 C192 1_555 1_555
C193 C191 1_555 1_555
H194 C193 1_555 1_555
C194 C193 1_555 1_555
H195 C194 1_555 1_555
H196 C194 1_555 1_555
C195 C196 1_555 1_555
C196 C197 1_555 1_555
C197 C198 1_555 1_555
C198 H197 1_555 1_555
C199 C198 1_555 1_555
H198 C199 1_555 1_555
C200 C195 1_555 1_555
C201 C200 1_555 1_555
C202 C201 1_555 1_555
H199 C202 1_555 1_555
C203 N30 1_555 1_555
C204 N31 1_555 1_555
C205 N31 1_555 1_555
C206 C205 1_555 1_555
H200 C206 1_555 1_555
C207 C206 1_555 1_555
H201 C207 1_555 1_555
C208 C207 1_555 1_555
H202 C208 1_555 1_555
C209 C208 1_555 1_555
C210 C211 1_555 1_555
C211 C212 1_555 1_555
C212 H203 1_555 1_555
C213 C212 1_555 1_555
H204 C213 1_555 1_555
C214 C213 1_555 1_555
H205 C214 1_555 1_555
C215 N28 1_555 1_555
C216 N29 1_555 1_555
C217 N29 1_555 1_555
C218 C217 1_555 1_555
H206 C218 1_555 1_555
C219 C218 1_555 1_555
H207 C219 1_555 1_555
C220 C219 1_555 1_555
H208 C220 1_555 1_555
C221 N20 1_555 1_555
C222 N25 1_555 1_555
C223 H209 1_555 1_555
H210 C223 1_555 1_555
H211 C223 1_555 1_555
C224 H212 1_555 1_555
H213 C224 1_555 1_555
H214 C224 1_555 1_555
C225 H215 1_555 1_555
H216 C225 1_555 1_555
H217 C225 1_555 1_555
C226 C222 1_555 1_555
O31 C138 1_555 1_555
N32 C162 1_555 1_555
H218 N32 1_555 1_555
N33 C125 1_555 1_555
O32 C190 1_555 1_555
F11 C126 1_555 1_555
N34 C205 1_555 1_555
F12 C140 1_555 1_555
N35 C209 1_555 1_555
H219 N35 1_555 1_555
N36 C167 1_555 1_555
O33 C194 1_555 1_555
N37 C120 1_555 1_555
H220 N37 1_555 1_555
N38 C190 1_555 1_555
H221 N38 1_555 1_555
O34 C166 1_555 1_555
Cl13 C227 1_555 1_555
Cl14 C227 1_555 1_555
C227 H222 1_555 1_555
Cl15 C227 1_555 1_555
Cl16 C228 1_555 1_555
Cl17 C228 1_555 1_555
Cl18 C228 1_555 1_555
C228 H223 1_555 1_555
Cl19 C229 1_555 1_555
Cl20 C229 1_555 1_555
Cl21 C229 1_555 1_555
C229 H224 1_555 1_555
C230 H225 1_555 1_555
H226 C230 1_555 1_555
C231 C230 1_555 1_555
C232 C231 1_555 1_555
C233 C239 1_555 1_555
N39 H227 1_555 1_555
O35 C247 1_555 1_555
C234 H228 1_555 1_555
C235 C234 1_555 1_555
C236 C232 1_555 1_555
H229 C236 1_555 1_555
C237 N39 1_555 1_555
H230 C237 1_555 1_555
H231 C237 1_555 1_555
N40 H232 1_555 1_555
O36 C272 1_555 1_555
C238 C236 1_555 1_555
H233 C238 1_555 1_555
N41 C260 1_555 1_555
O37 C248 1_555 1_555
C239 C238 1_555 1_555
N42 C264 1_555 1_555
O38 C248 1_555 1_555
C240 C239 1_555 1_555
H234 C240 1_555 1_555
C241 C240 1_555 1_555
H235 C241 1_555 1_555
C242 C241 1_555 1_555
H236 C242 1_555 1_555
C243 C233 1_555 1_555
C244 C243 1_555 1_555
H237 C244 1_555 1_555
C245 C231 1_555 1_555
H238 C245 1_555 1_555
C246 C232 1_555 1_555
C247 C230 1_555 1_555
H239 C247 1_555 1_555
H240 C247 1_555 1_555
C248 N40 1_555 1_555
C249 N40 1_555 1_555
H241 C249 1_555 1_555
H242 C249 1_555 1_555
C250 C249 1_555 1_555
H243 C250 1_555 1_555
H244 C250 1_555 1_555
C251 C250 1_555 1_555
H245 C251 1_555 1_555
H246 C251 1_555 1_555
C252 C251 1_555 1_555
H247 C252 1_555 1_555
H248 C252 1_555 1_555
C253 C252 1_555 1_555
H249 C253 1_555 1_555
H250 C253 1_555 1_555
C254 C253 1_555 1_555
H251 C254 1_555 1_555
H252 C254 1_555 1_555
C255 C237 1_555 1_555
H253 C255 1_555 1_555
H254 C255 1_555 1_555
C256 C235 1_555 1_555
H255 C256 1_555 1_555
C257 O38 1_555 1_555
H256 C257 1_555 1_555
H257 C257 1_555 1_555
C258 C259 1_555 1_555
C259 H258 1_555 1_555
C260 C259 1_555 1_555
H259 C260 1_555 1_555
C261 C258 1_555 1_555
H260 C261 1_555 1_555
H261 C261 1_555 1_555
H262 C261 1_555 1_555
C262 C258 1_555 1_555
H263 C262 1_555 1_555
C263 N41 1_555 1_555
C264 C263 1_555 1_555
C265 C264 1_555 1_555
H264 C265 1_555 1_555
C266 N42 1_555 1_555
H265 C266 1_555 1_555
C267 C266 1_555 1_555
H266 C267 1_555 1_555
C268 C265 1_555 1_555
C269 C268 1_555 1_555
H267 C269 1_555 1_555
H268 C269 1_555 1_555
C270 C269 1_555 1_555
H269 C270 1_555 1_555
H270 C270 1_555 1_555
C271 C257 1_555 1_555
H271 C271 1_555 1_555
H272 C271 1_555 1_555
C272 N39 1_555 1_555
Cl22 C273 1_555 1_555
Cl23 C273 1_555 1_555
C273 H273 1_555 1_555
Cl24 C273 1_555 1_555
Cl25 C274 1_555 1_555
Cl26 C274 1_555 1_555
Cl27 C274 1_555 1_555
C274 H274 1_555 1_555
Cl28 C275 1_555 1_555
C275 H275 1_555 1_555
Cl29 C275 1_555 1_555
Cl30 C275 1_555 1_555
N2 C97 1_555 1_555
C7 N7 1_555 1_555
C10 C97 1_555 1_555
C12 C13 1_555 1_555
C14 C15 1_555 1_555
C16 N10 1_555 1_555
C20 N17 1_555 1_555
O8 C96 1_555 1_555
C22 C24 1_555 1_555
C23 C24 1_555 1_555
C27 C28 1_555 1_555
C34 N16 1_555 1_555
C36 C111 1_555 1_555
C37 C112 1_555 1_555
C41 C42 1_555 1_555
C43 N19 1_555 1_555
C46 C47 1_555 1_555
C52 C53 1_555 1_555
C54 C61 1_555 1_555
N12 C111 1_555 1_555
C60 C95 1_555 1_555
C61 C109 1_555 1_555
C63 C95 1_555 1_555
C68 C69 1_555 1_555
C69 C73 1_555 1_555
C72 C73 1_555 1_555
C75 O17 1_555 1_555
C76 C77 1_555 1_555
C79 N14 1_555 1_555
C83 C84 1_555 1_555
C84 C89 1_555 1_555
C86 C88 1_555 1_555
C87 C89 1_555 1_555
O13 C110 1_555 1_555
C90 C93 1_555 1_555
C94 O14 1_555 1_555
C99 N15 1_555 1_555
C103 C104 1_555 1_555
C104 C105 1_555 1_555
C106 N18 1_555 1_555
C107 C108 1_555 1_555
O16 C112 1_555 1_555
C109 C110 1_555 1_555
N25 C221 1_555 1_555
C117 C119 1_555 1_555
C118 C119 1_555 1_555
C122 C123 1_555 1_555
C127 N37 1_555 1_555
C129 C130 1_555 1_555
C130 C131 1_555 1_555
C133 C134 1_555 1_555
C133 N33 1_555 1_555
C136 C137 1_555 1_555
C143 C144 1_555 1_555
C145 O31 1_555 1_555
C146 C147 1_555 1_555
C147 C148 1_555 1_555
C150 C151 1_555 1_555
C157 C158 1_555 1_555
C158 C159 1_555 1_555
C160 C161 1_555 1_555
C164 C165 1_555 1_555
C169 N32 1_555 1_555
C171 C172 1_555 1_555
C173 O34 1_555 1_555
C175 C176 1_555 1_555
C175 N36 1_555 1_555
C178 C179 1_555 1_555
C185 C186 1_555 1_555
C186 C187 1_555 1_555
C188 C189 1_555 1_555
C192 C193 1_555 1_555
C197 N38 1_555 1_555
C199 C200 1_555 1_555
C201 O33 1_555 1_555
C202 C203 1_555 1_555
C203 C204 1_555 1_555
C209 N34 1_555 1_555
C210 N35 1_555 1_555
C214 C215 1_555 1_555
C215 C216 1_555 1_555
C220 C221 1_555 1_555
C223 C226 1_555 1_555
C224 C226 1_555 1_555
C225 C226 1_555 1_555
C233 C246 1_555 1_555
O35 C272 1_555 1_555
C234 C245 1_555 1_555
C235 C246 1_555 1_555
C242 C243 1_555 1_555
C244 C256 1_555 1_555
C254 C255 1_555 1_555
C262 C263 1_555 1_555
C267 C268 1_555 1_555
C270 C271 1_555 1_555

#END
