
#######################################################################
#
#                 Cambridge Crystallographic Data Centre
#                                CCDC 
#
#######################################################################
#
# If this CIF has been generated from an entry in the Cambridge 
# Structural Database, then it will include bibliographic, chemical, 
# crystal, experimental, refinement or atomic coordinate data resulting 
# from the CCDC's data processing and validation procedures.
#
#######################################################################

data_FABRIM
_chemical_formula_moiety         'C106 H110 O6,2(C1 H1 Cl3)'
_chemical_name_systematic        
'1,9,13,21-tetrakis(Hexyloxy)-7,11,19,23-tetramesitylbenzo[jk]benzo[7,8]pentaceno[2,1,14-uva]pentacene-4,16-dione chloroform solvate'
_symmetry_cell_setting           triclinic
_symmetry_space_group_name_H-M   'P -1'
_symmetry_Int_Tables_number      2
_space_group_name_Hall           '-P 1'
loop_
_symmetry_equiv_pos_site_id
_symmetry_equiv_pos_as_xyz
1 x,y,z
2 -x,-y,-z
_cell_length_a                   15.7254(8)
_cell_length_b                   16.3000(8)
_cell_length_c                   19.7644(10)
_cell_angle_alpha                88.0843(9)
_cell_angle_beta                 73.1877(9)
_cell_angle_gamma                70.5165(9)
_cell_volume                     4560.69
_exptl_crystal_colour            black
_exptl_crystal_description       prism
_cell_formula_units_Z            2
loop_
_atom_site_label
_atom_site_type_symbol
_atom_site_fract_x
_atom_site_fract_y
_atom_site_fract_z
C1 C 0.30589(14) 0.13992(13) 0.51025(10)
C2 C 0.33102(14) 0.16963(13) 0.44154(10)
C3 C 0.26359(14) 0.23774(13) 0.41910(11)
H1 H 0.2002 0.2581 0.4488
C4 C 0.28587(14) 0.27596(13) 0.35585(11)
C5 C 0.21838(15) 0.34679(14) 0.33050(11)
C6 C 0.11807(16) 0.37674(15) 0.36240(12)
C7 C 0.05915(16) 0.44588(16) 0.33622(13)
H2 H -0.0072 0.4645 0.3577
C8 C 0.09653(16) 0.48735(15) 0.27944(13)
H3 H 0.0556 0.5357 0.2632
C9 C 0.19252(16) 0.46001(14) 0.24549(12)
C10 C 0.22759(17) 0.50538(14) 0.18287(12)
C11 C 0.32852(17) 0.47534(15) 0.14906(12)
H4 H 0.3541 0.5043 0.1100
C12 C 0.38681(16) 0.40675(14) 0.17223(11)
H5 H 0.4524 0.3881 0.1478
C13 C 0.35423(15) 0.36022(13) 0.23240(11)
C14 C 0.25411(15) 0.38921(13) 0.27044(11)
C15 C 0.41664(14) 0.28951(13) 0.25223(11)
C16 C 0.38379(14) 0.24571(13) 0.31381(11)
C17 C 0.44922(14) 0.17550(13) 0.33361(11)
H6 H 0.5126 0.1556 0.3039
C18 C 0.42576(14) 0.13271(13) 0.39559(10)
C19 C 0.49214(14) 0.05972(13) 0.41694(10)
C20 C 0.46746(13) 0.03424(12) 0.48662(10)
C21 C 0.37411(13) 0.07669(13) 0.53380(10)
C22 C 0.64696(14) -0.05414(13) 0.39470(11)
H7 H 0.7077 -0.0839 0.3631
C23 C 0.58359(14) 0.00837(13) 0.36968(10)
C24 C 0.20830(14) 0.17705(13) 0.56021(10)
C25 C 0.18286(15) 0.25381(14) 0.60255(11)
C26 C 0.09577(16) 0.28136(16) 0.65445(13)
H8 H 0.0788 0.3328 0.6837
C27 C 0.03274(16) 0.23562(16) 0.66480(13)
C28 C 0.05896(16) 0.16084(15) 0.62121(12)
H9 H 0.0167 0.1291 0.6274
C29 C 0.14561(15) 0.13100(14) 0.56852(11)
C30 C 0.24942(17) 0.30471(16) 0.59383(14)
H10 H 0.2137 0.3645 0.6145
H11 H 0.2808 0.3059 0.5433
H12 H 0.2970 0.2768 0.6180
C31 C -0.0618(2) 0.2670(2) 0.72128(16)
H13 H -0.1048 0.3171 0.7054
H14 H -0.0534 0.2844 0.7652
H15 H -0.0885 0.2198 0.7298
C32 C 0.17150(17) 0.04932(16) 0.52277(13)
H16 H 0.2172 0.0012 0.5383
H17 H 0.1995 0.0588 0.4733
H18 H 0.1147 0.0347 0.5269
C33 C -0.0170(5) 0.3793(4) 0.4523(4)
H19 H -0.0547 0.3735 0.4215
H20 H -0.0302 0.4420 0.4627
C34 C -0.0405(3) 0.3352(3) 0.5196(2)
H21 H -0.0121 0.3513 0.5536
H22 H -0.0134 0.2711 0.5095
C35 C -0.1489(3) 0.3626(3) 0.5530(2)
H23 H -0.1749 0.3387 0.5214
H24 H -0.1617 0.3354 0.5987
C36 C -0.2016(4) 0.4610(4) 0.5663(3)
H25 H -0.1670 0.4869 0.5889
H26 H -0.2007 0.4865 0.5201
C37 C -0.3030(3) 0.4865(3) 0.6125(2)
H27 H -0.3291 0.5505 0.6229
H28 H -0.3050 0.4588 0.6580
C38 C -0.3648(6) 0.4584(10) 0.5763(7)
H29 H -0.3538 0.4764 0.5277
H30 H -0.4315 0.4861 0.6028
H31 H -0.3484 0.3948 0.5756
C39 C 0.51917(14) 0.25555(13) 0.21038(11)
C40 C 0.58308(15) 0.29144(14) 0.22348(11)
C41 C 0.67731(15) 0.25898(14) 0.18298(12)
H32 H 0.7206 0.2833 0.1916
C42 C 0.71009(15) 0.19182(14) 0.13007(12)
C43 C 0.64601(15) 0.15615(14) 0.11935(11)
H33 H 0.6675 0.1097 0.0841
C44 C 0.55085(15) 0.18646(14) 0.15883(11)
C45 C 0.55003(17) 0.36410(17) 0.28017(13)
H34 H 0.6048 0.3753 0.2867
H35 H 0.5150 0.3472 0.3248
H36 H 0.5088 0.4171 0.2660
C46 C 0.81234(16) 0.15902(17) 0.08559(14)
H37 H 0.8357 0.2082 0.0758
H38 H 0.8177 0.1308 0.0408
H39 H 0.8499 0.1168 0.1113
C47 C 0.48501(17) 0.14400(17) 0.14610(14)
H40 H 0.5141 0.1097 0.1004
H41 H 0.4256 0.1890 0.1455
H42 H 0.4724 0.1056 0.1841
C48 C 0.68474(15) -0.02892(15) 0.24917(11)
H43 H 0.6760 -0.0252 0.2014
H44 H 0.6986 -0.0905 0.2611
C49 C 0.76778(17) -0.00095(16) 0.24789(13)
H45 H 0.7761 -0.0039 0.2958
H46 H 0.7545 0.0604 0.2352
C50 C 0.85880(17) -0.05843(19) 0.19495(13)
H47 H 0.8530 -0.0501 0.1464
H48 H 0.8679 -0.1204 0.2043
C51 C 0.94527(17) -0.03779(18) 0.19906(14)
H49 H 0.9329 0.0255 0.1948
H50 H 0.9542 -0.0515 0.2462
C52 C 1.03604(19) -0.0874(2) 0.14252(17)
H51 H 1.0302 -0.0694 0.0953
H52 H 1.0461 -0.1507 0.1436
C53 C 1.1211(2) -0.0707(2) 0.1537(2)
H53 H 1.1111 -0.0081 0.1529
H54 H 1.1780 -0.1024 0.1157
H55 H 1.1287 -0.0909 0.1995
O1 O 0.08315(11) 0.33515(14) 0.41811(9)
O2 O 0.17253(13) 0.56519(11) 0.16014(9)
O3 O 0.59861(10) 0.02412(10) 0.29972(8)
C1A C 0.69411(14) -0.13992(13) 0.48975(10)
C2A C 0.66898(14) -0.16963(13) 0.55846(10)
C3A C 0.73641(14) -0.23774(13) 0.58090(11)
H1A H 0.7998 -0.2581 0.5512
C4A C 0.71413(14) -0.27596(13) 0.64415(11)
C5A C 0.78162(15) -0.34679(14) 0.66950(11)
C6A C 0.88193(16) -0.37674(15) 0.63760(12)
C7A C 0.94085(16) -0.44588(16) 0.66378(13)
H2A H 1.0072 -0.4645 0.6423
C8A C 0.90347(16) -0.48735(15) 0.72056(13)
H3A H 0.9444 -0.5357 0.7368
C9A C 0.80748(16) -0.46001(14) 0.75451(12)
C10A C 0.77241(17) -0.50538(14) 0.81713(12)
C11A C 0.67148(17) -0.47534(15) 0.85094(12)
H4A H 0.6459 -0.5043 0.8900
C12A C 0.61319(16) -0.40675(14) 0.82777(11)
H5A H 0.5476 -0.3881 0.8522
C13A C 0.64577(15) -0.36022(13) 0.76760(11)
C14A C 0.74589(15) -0.38921(13) 0.72956(11)
C15A C 0.58336(14) -0.28951(13) 0.74777(11)
C16A C 0.61621(14) -0.24571(13) 0.68619(11)
C17A C 0.55078(14) -0.17550(13) 0.66639(11)
H6A H 0.4874 -0.1556 0.6961
C18A C 0.57424(14) -0.13271(13) 0.60441(10)
C19A C 0.50786(14) -0.05972(13) 0.58306(10)
C20A C 0.53254(13) -0.03424(12) 0.51338(10)
C21A C 0.62589(13) -0.07669(13) 0.46620(10)
C22A C 0.35304(14) 0.05414(13) 0.60530(11)
H7A H 0.2923 0.0839 0.6369
C23A C 0.41641(14) -0.00837(13) 0.63032(10)
C24A C 0.79170(14) -0.17705(13) 0.43979(10)
C25A C 0.81714(15) -0.25381(14) 0.39745(11)
C26A C 0.90423(16) -0.28136(16) 0.34555(13)
H8A H 0.9212 -0.3328 0.3163
C27A C 0.96726(16) -0.23562(16) 0.33520(13)
C28A C 0.94104(16) -0.16084(15) 0.37879(12)
H9A H 0.9833 -0.1291 0.3726
C29A C 0.85439(15) -0.13100(14) 0.43148(11)
C30A C 0.75058(17) -0.30471(16) 0.40617(14)
H10A H 0.7863 -0.3645 0.3855
H11A H 0.7192 -0.3059 0.4567
H12A H 0.7030 -0.2768 0.3820
C31A C 1.0618(2) -0.2670(2) 0.27872(16)
H13A H 1.1048 -0.3171 0.2946
H14A H 1.0534 -0.2844 0.2348
H15A H 1.0885 -0.2198 0.2702
C32A C 0.82850(17) -0.04932(16) 0.47723(13)
H16A H 0.7828 -0.0012 0.4617
H17A H 0.8005 -0.0588 0.5267
H18A H 0.8853 -0.0347 0.4731
C33A C 1.0170(5) -0.3793(4) 0.5477(4)
H19A H 1.0547 -0.3735 0.5785
H20A H 1.0302 -0.4420 0.5373
C34A C 1.0405(3) -0.3352(3) 0.4804(2)
H21A H 1.0121 -0.3513 0.4464
H22A H 1.0134 -0.2711 0.4905
C35A C 1.1489(3) -0.3626(3) 0.4470(2)
H23A H 1.1749 -0.3387 0.4786
H24A H 1.1617 -0.3354 0.4013
C36A C 1.2016(4) -0.4610(4) 0.4337(3)
H25A H 1.1670 -0.4869 0.4111
H26A H 1.2007 -0.4865 0.4799
C37A C 1.3030(3) -0.4865(3) 0.3875(2)
H27A H 1.3291 -0.5505 0.3771
H28A H 1.3050 -0.4588 0.3420
C38A C 1.3648(6) -0.4584(10) 0.4237(7)
H29A H 1.3538 -0.4764 0.4723
H30A H 1.4315 -0.4861 0.3972
H31A H 1.3484 -0.3948 0.4244
C39A C 0.48083(14) -0.25555(13) 0.78962(11)
C40A C 0.41692(15) -0.29144(14) 0.77652(11)
C41A C 0.32269(15) -0.25898(14) 0.81702(12)
H32A H 0.2794 -0.2833 0.8084
C42A C 0.28991(15) -0.19182(14) 0.86993(12)
C43A C 0.35399(15) -0.15615(14) 0.88065(11)
H33A H 0.3325 -0.1097 0.9159
C44A C 0.44915(15) -0.18646(14) 0.84117(11)
C45A C 0.44997(17) -0.36410(17) 0.71983(13)
H34A H 0.3952 -0.3753 0.7133
H35A H 0.4850 -0.3472 0.6752
H36A H 0.4912 -0.4171 0.7340
C46A C 0.18766(16) -0.15902(17) 0.91441(14)
H37A H 0.1643 -0.2082 0.9242
H38A H 0.1823 -0.1308 0.9592
H39A H 0.1501 -0.1168 0.8887
C47A C 0.51499(17) -0.14400(17) 0.85390(14)
H40A H 0.4859 -0.1097 0.8996
H41A H 0.5744 -0.1890 0.8545
H42A H 0.5276 -0.1056 0.8159
C48A C 0.31526(15) 0.02892(15) 0.75083(11)
H43A H 0.3240 0.0252 0.7986
H44A H 0.3014 0.0905 0.7389
C49A C 0.23222(17) 0.00095(16) 0.75211(13)
H45A H 0.2239 0.0039 0.7042
H46A H 0.2455 -0.0604 0.7648
C50A C 0.14120(17) 0.05843(19) 0.80505(13)
H47A H 0.1470 0.0501 0.8536
H48A H 0.1321 0.1204 0.7957
C51A C 0.05473(17) 0.03779(18) 0.80094(14)
H49A H 0.0671 -0.0255 0.8052
H50A H 0.0458 0.0515 0.7538
C52A C -0.03604(19) 0.0874(2) 0.85748(17)
H51A H -0.0302 0.0694 0.9047
H52A H -0.0461 0.1507 0.8564
C53A C -0.1211(2) 0.0707(2) 0.8463(2)
H53A H -0.1111 0.0081 0.8471
H54A H -0.1780 0.1024 0.8843
H55A H -0.1287 0.0909 0.8005
O1A O 0.91685(11) -0.33515(14) 0.58189(9)
O2A O 0.82747(13) -0.56519(11) 0.83986(9)
O3A O 0.40139(10) -0.02412(10) 0.70028(8)
C60 C 0.69074(14) 0.86007(13) -0.00244(10)
C61 C 0.66053(14) 0.83129(13) 0.06591(11)
C62 C 0.72647(14) 0.76647(13) 0.09175(11)
H69 H 0.7909 0.7473 0.0642
C63 C 0.70168(14) 0.72949(13) 0.15522(11)
C64 C 0.76842(14) 0.66102(13) 0.18265(10)
C65 C 0.86814(15) 0.63862(14) 0.15592(11)
C66 C 0.92825(15) 0.56783(14) 0.18032(11)
H70 H 0.9948 0.5525 0.1611
C67 C 0.89082(15) 0.52032(14) 0.23239(11)
H71 H 0.9322 0.4712 0.2476
C68 C 0.79389(15) 0.54279(13) 0.26307(11)
C69 C 0.75853(15) 0.49332(14) 0.32245(11)
C70 C 0.65664(16) 0.52273(14) 0.35509(11)
H72 H 0.6307 0.4926 0.3930
C71 C 0.59842(15) 0.59185(14) 0.33253(11)
H73 H 0.5326 0.6095 0.3562
C72 C 0.63113(14) 0.64044(13) 0.27409(10)
C73 C 0.73201(14) 0.61401(13) 0.23871(10)
C74 C 0.56897(14) 0.71117(13) 0.25403(10)
C75 C 0.60266(14) 0.75661(13) 0.19335(10)
C76 C 0.53804(14) 0.82435(13) 0.17066(11)
H74 H 0.4736 0.8431 0.1983
C77 C 0.56399(14) 0.86665(13) 0.10826(10)
C78 C 0.49915(14) 0.93773(13) 0.08331(10)
C79 C 0.40310(14) 0.98461(13) 0.12526(10)
C80 C 0.34384(14) 1.04860(13) 0.09822(11)
H75 H 0.2808 1.0767 0.1269
C81 C 0.37307(14) 1.07498(13) 0.02823(10)
C82 C 0.53069(13) 0.96566(12) 0.01468(10)
C83 C 0.79084(14) 0.81906(13) -0.04753(10)
C84 C 0.81838(15) 0.74093(14) -0.08879(11)
C85 C 0.91166(16) 0.70578(15) -0.13138(12)
H76 H 0.9302 0.6531 -0.1595
C86 C 0.97834(15) 0.74526(15) -0.13401(12)
C87 C 0.94975(16) 0.82214(16) -0.09231(13)
H77 H 0.9943 0.8501 -0.0935
C88 C 0.85715(15) 0.85944(14) -0.04871(12)
C89 C 0.74911(17) 0.69489(16) -0.08750(14)
H78 H 0.7072 0.7257 -0.1154
H79 H 0.7115 0.6943 -0.0385
H80 H 0.7836 0.6348 -0.1078
C90 C 1.07915(17) 0.70556(18) -0.18048(15)
H81 H 1.1153 0.6613 -0.1552
H82 H 1.1076 0.7513 -0.1922
H83 H 1.0798 0.6784 -0.2242
C91 C 0.82872(17) 0.94272(17) -0.00389(14)
H84 H 0.8845 0.9591 -0.0082
H85 H 0.8007 0.9339 0.0457
H86 H 0.7824 0.9893 -0.0201
C92 C 1.00115(15) 0.67110(15) 0.07721(12)
H87 H 1.0319 0.6558 0.1153
H88 H 1.0127 0.7241 0.0568
C93 C 1.04554(16) 0.59710(16) 0.02018(12)
H89 H 1.0175 0.6131 -0.0193
H90 H 1.0326 0.5443 0.0397
C94 C 1.15209(16) 0.57774(16) -0.00747(13)
H91 H 1.1641 0.6288 -0.0315
H92 H 1.1781 0.5695 0.0333
C95 C 1.20395(17) 0.49729(16) -0.05892(13)
H93 H 1.1876 0.5098 -0.1038
H94 H 1.1823 0.4488 -0.0387
C96 C 1.31123(17) 0.46867(17) -0.07475(14)
H95 H 1.3272 0.4581 -0.0296
H96 H 1.3404 0.4128 -0.1042
C97 C 1.3531(2) 0.5344(2) -0.11258(18)
H97 H 1.3393 0.5440 -0.1580
H98 H 1.4216 0.5123 -0.1209
H99 H 1.3257 0.5896 -0.0834
C98 C 0.46545(14) 0.74417(13) 0.29394(10)
C99 C 0.40249(16) 0.71032(15) 0.27630(12)
C100 C 0.30671(17) 0.74571(17) 0.31255(13)
H100 H 0.2639 0.7233 0.3006
C101 C 0.27160(16) 0.81249(17) 0.36547(13)
C102 C 0.33513(15) 0.84433(14) 0.38213(11)
H101 H 0.3123 0.8897 0.4185
C103 C 0.43140(15) 0.81149(14) 0.34699(11)
C104 C 0.43745(18) 0.63780(18) 0.21941(14)
H102 H 0.3835 0.6271 0.2110
H103 H 0.4771 0.5846 0.2346
H104 H 0.4745 0.6544 0.1756
C105 C 0.16719(19) 0.8520(2) 0.40276(18)
H105 H 0.1357 0.8886 0.3708
H106 H 0.1574 0.8876 0.4451
H107 H 0.1406 0.8053 0.4166
C106 C 0.49695(17) 0.85031(18) 0.36542(15)
H108 H 0.4616 0.8933 0.4059
H109 H 0.5244 0.8788 0.3246
H110 H 0.5475 0.8040 0.3778
C107 C 0.28112(15) 0.99815(16) 0.23667(12)
H111 H 0.2672 0.9558 0.2715
H112 H 0.2390 1.0068 0.2063
C108 C 0.26030(17) 1.08417(18) 0.27577(13)
H113 H 0.2662 1.1289 0.2413
H114 H 0.3068 1.0776 0.3021
C109 C 0.15968(19) 1.1141(2) 0.32802(15)
H115 H 0.1503 1.0645 0.3558
H116 H 0.1536 1.1609 0.3616
C110 C 0.0834(2) 1.1471(3) 0.29224(19)
H117 H 0.0912 1.1008 0.2576
H118 H 0.0922 1.1976 0.2655
C111 C -0.0171(2) 1.1749(2) 0.3422(2)
H119 H -0.0232 1.2175 0.3794
H120 H -0.0612 1.2050 0.3150
C112 C -0.0455(3) 1.1034(3) 0.3763(3)
H121 H -0.0296 1.0561 0.3406
H122 H -0.1138 1.1245 0.3996
H123 H -0.0123 1.0817 0.4117
O4 O 0.90097(10) 0.69006(10) 0.10734(8)
O5 O 0.81289(11) 0.43225(11) 0.34429(9)
O6 O 0.37780(10) 0.96242(10) 0.19330(8)
C60A C 0.30926(14) 1.13993(13) 0.00244(10)
C61A C 0.33947(14) 1.16871(13) -0.06591(11)
C62A C 0.27353(14) 1.23353(13) -0.09175(11)
H69A H 0.2091 1.2527 -0.0642
C63A C 0.29832(14) 1.27051(13) -0.15522(11)
C64A C 0.23158(14) 1.33898(13) -0.18265(10)
C65A C 0.13186(15) 1.36138(14) -0.15592(11)
C66A C 0.07175(15) 1.43217(14) -0.18032(11)
H70A H 0.0052 1.4475 -0.1611
C67A C 0.10918(15) 1.47968(14) -0.23239(11)
H71A H 0.0678 1.5288 -0.2476
C68A C 0.20611(15) 1.45721(13) -0.26307(11)
C69A C 0.24147(15) 1.50668(14) -0.32245(11)
C70A C 0.34336(16) 1.47727(14) -0.35509(11)
H72A H 0.3693 1.5074 -0.3930
C71A C 0.40158(15) 1.40815(14) -0.33253(11)
H73A H 0.4674 1.3905 -0.3562
C72A C 0.36887(14) 1.35956(13) -0.27409(10)
C73A C 0.26799(14) 1.38599(13) -0.23871(10)
C74A C 0.43103(14) 1.28883(13) -0.25403(10)
C75A C 0.39734(14) 1.24339(13) -0.19335(10)
C76A C 0.46196(14) 1.17565(13) -0.17066(11)
H74A H 0.5264 1.1569 -0.1983
C77A C 0.43601(14) 1.13335(13) -0.10826(10)
C78A C 0.50085(14) 1.06227(13) -0.08331(10)
C79A C 0.59690(14) 1.01539(13) -0.12526(10)
C80A C 0.65616(14) 0.95140(13) -0.09822(11)
H75A H 0.7192 0.9233 -0.1269
C81A C 0.62693(14) 0.92502(13) -0.02823(10)
C82A C 0.46931(13) 1.03434(12) -0.01468(10)
C83A C 0.20916(14) 1.18094(13) 0.04753(10)
C84A C 0.18162(15) 1.25907(14) 0.08879(11)
C85A C 0.08834(16) 1.29422(15) 0.13138(12)
H76A H 0.0698 1.3469 0.1595
C86A C 0.02166(15) 1.25474(15) 0.13401(12)
C87A C 0.05025(16) 1.17786(16) 0.09231(13)
H77A H 0.0057 1.1499 0.0935
C88A C 0.14285(15) 1.14056(14) 0.04871(12)
C89A C 0.25089(17) 1.30511(16) 0.08750(14)
H78A H 0.2928 1.2743 0.1154
H79A H 0.2885 1.3057 0.0385
H80A H 0.2164 1.3652 0.1078
C90A C -0.07915(17) 1.29444(18) 0.18048(15)
H81A H -0.1153 1.3387 0.1552
H82A H -0.1076 1.2487 0.1922
H83A H -0.0798 1.3216 0.2242
C91A C 0.17128(17) 1.05728(17) 0.00389(14)
H84A H 0.1155 1.0409 0.0082
H85A H 0.1993 1.0661 -0.0457
H86A H 0.2176 1.0107 0.0201
C92A C -0.00115(15) 1.32890(15) -0.07721(12)
H87A H -0.0319 1.3442 -0.1153
H88A H -0.0127 1.2759 -0.0568
C93A C -0.04554(16) 1.40290(16) -0.02018(12)
H89A H -0.0175 1.3869 0.0193
H90A H -0.0326 1.4557 -0.0397
C94A C -0.15209(16) 1.42226(16) 0.00747(13)
H91A H -0.1641 1.3712 0.0315
H92A H -0.1781 1.4305 -0.0333
C95A C -0.20395(17) 1.50271(16) 0.05892(13)
H93A H -0.1876 1.4902 0.1038
H94A H -0.1823 1.5512 0.0387
C96A C -0.31123(17) 1.53133(17) 0.07475(14)
H95A H -0.3272 1.5419 0.0296
H96A H -0.3404 1.5872 0.1042
C97A C -0.3531(2) 1.4656(2) 0.11258(18)
H97A H -0.3393 1.4560 0.1580
H98A H -0.4216 1.4877 0.1209
H99A H -0.3257 1.4104 0.0834
C98A C 0.53455(14) 1.25583(13) -0.29394(10)
C99A C 0.59751(16) 1.28968(15) -0.27630(12)
C100A C 0.69329(17) 1.25429(17) -0.31255(13)
H100A H 0.7361 1.2767 -0.3006
C101A C 0.72840(16) 1.18751(17) -0.36547(13)
C102A C 0.66487(15) 1.15567(14) -0.38213(11)
H101A H 0.6877 1.1103 -0.4185
C103A C 0.56860(15) 1.18851(14) -0.34699(11)
C104A C 0.56255(18) 1.36220(18) -0.21941(14)
H102A H 0.6165 1.3729 -0.2110
H103A H 0.5229 1.4154 -0.2346
H104A H 0.5255 1.3456 -0.1756
C105A C 0.83281(19) 1.1480(2) -0.40276(18)
H105A H 0.8643 1.1114 -0.3708
H106A H 0.8426 1.1124 -0.4451
H107A H 0.8594 1.1947 -0.4166
C106A C 0.50305(17) 1.14969(18) -0.36542(15)
H108A H 0.5384 1.1067 -0.4059
H109A H 0.4756 1.1212 -0.3246
H110A H 0.4525 1.1960 -0.3778
C107A C 0.71888(15) 1.00185(16) -0.23667(12)
H111A H 0.7328 1.0442 -0.2715
H112A H 0.7610 0.9932 -0.2063
C108A C 0.73970(17) 0.91583(18) -0.27577(13)
H113A H 0.7338 0.8711 -0.2413
H114A H 0.6932 0.9224 -0.3021
C109A C 0.84032(19) 0.8859(2) -0.32802(15)
H115A H 0.8497 0.9355 -0.3558
H116A H 0.8464 0.8391 -0.3616
C110A C 0.9166(2) 0.8529(3) -0.29224(19)
H117A H 0.9088 0.8992 -0.2576
H118A H 0.9078 0.8024 -0.2655
C111A C 1.0171(2) 0.8251(2) -0.3422(2)
H119A H 1.0232 0.7825 -0.3794
H120A H 1.0612 0.7950 -0.3150
C112A C 1.0455(3) 0.8966(3) -0.3763(3)
H121A H 1.0296 0.9439 -0.3406
H122A H 1.1138 0.8755 -0.3996
H123A H 1.0123 0.9183 -0.4117
O4A O 0.09903(10) 1.30994(10) -0.10734(8)
O5A O 0.18711(11) 1.56775(11) -0.34429(9)
O6A O 0.62220(10) 1.03758(10) -0.19330(8)
C113 C 0.6379(2) 0.25740(18) 0.46375(15)
H124 H 0.6521 0.2449 0.5099
Cl1 Cl 0.52157(6) 0.32932(7) 0.48197(4)
Cl2 Cl 0.71782(5) 0.30509(4) 0.41237(4)
Cl3 Cl 0.64934(7) 0.15889(5) 0.42376(6)
C114 C 0.3784(2) 0.71245(19) 0.02050(16)
H125 H 0.3712 0.7234 -0.0280
Cl4 Cl 0.27609(5) 0.69675(5) 0.07510(5)
Cl5 Cl 0.39519(8) 0.80299(7) 0.05282(5)
Cl6 Cl 0.47561(6) 0.61698(7) 0.01454(4)
C54? C -0.0194(7) 0.3454(6) 0.4537(6)
H56? H -0.0263 0.2892 0.4699
H57? H -0.0583 0.3685 0.4214
C55? C -0.0463(4) 0.4106(5) 0.5161(4)
H58? H -0.0337 0.4642 0.4984
H59? H -0.0068 0.3854 0.5477
C56? C -0.1549(6) 0.4348(6) 0.5598(4)
H60? H -0.1741 0.3826 0.5616
H61? H -0.1651 0.4556 0.6090
C57? C -0.2130(5) 0.5048(5) 0.5246(4)
H62? H -0.2055 0.4824 0.4765
H63? H -0.1903 0.5552 0.5197
C58? C -0.3189(4) 0.5352(5) 0.5681(4)
H64? H -0.3246 0.5579 0.6157
H65? H -0.3533 0.5847 0.5450
C59? C -0.3680(15) 0.4692(17) 0.5778(14)
H66? H -0.3639 0.4463 0.5314
H67? H -0.4344 0.4968 0.6049
H68? H -0.3376 0.4213 0.6036
loop_
_geom_bond_atom_site_label_1
_geom_bond_atom_site_label_2
_geom_bond_site_symmetry_1
_geom_bond_site_symmetry_2
C1 C2 1_555 1_555
C2 C3 1_555 1_555
C3 H1 1_555 1_555
C4 C3 1_555 1_555
C5 C4 1_555 1_555
C6 C5 1_555 1_555
C7 C6 1_555 1_555
H2 C7 1_555 1_555
C8 C7 1_555 1_555
H3 C8 1_555 1_555
C9 C8 1_555 1_555
C10 C9 1_555 1_555
C11 C10 1_555 1_555
H4 C11 1_555 1_555
C12 C11 1_555 1_555
H5 C12 1_555 1_555
C13 C12 1_555 1_555
C14 C5 1_555 1_555
C15 C13 1_555 1_555
C16 C4 1_555 1_555
C17 C16 1_555 1_555
H6 C17 1_555 1_555
C18 C2 1_555 1_555
C19 C18 1_555 1_555
C20 C19 1_555 1_555
C21 C1 1_555 1_555
C22 H7 1_555 1_555
C23 C19 1_555 1_555
C24 C1 1_555 1_555
C25 C24 1_555 1_555
C26 C25 1_555 1_555
H8 C26 1_555 1_555
C27 C26 1_555 1_555
C28 C27 1_555 1_555
H9 C28 1_555 1_555
C29 C24 1_555 1_555
C30 C25 1_555 1_555
H10 C30 1_555 1_555
H11 C30 1_555 1_555
H12 C30 1_555 1_555
C31 C27 1_555 1_555
H13 C31 1_555 1_555
H14 C31 1_555 1_555
H15 C31 1_555 1_555
C32 C29 1_555 1_555
H16 C32 1_555 1_555
H17 C32 1_555 1_555
H18 C32 1_555 1_555
C33 H19 1_555 1_555
H20 C33 1_555 1_555
C34 C33 1_555 1_555
H21 C34 1_555 1_555
H22 C34 1_555 1_555
C35 C34 1_555 1_555
H23 C35 1_555 1_555
H24 C35 1_555 1_555
C36 C35 1_555 1_555
H25 C36 1_555 1_555
H26 C36 1_555 1_555
C37 C36 1_555 1_555
H27 C37 1_555 1_555
H28 C37 1_555 1_555
C38 C37 1_555 1_555
H29 C38 1_555 1_555
H30 C38 1_555 1_555
H31 C38 1_555 1_555
C39 C15 1_555 1_555
C40 C39 1_555 1_555
C41 C40 1_555 1_555
H32 C41 1_555 1_555
C42 C41 1_555 1_555
C43 C42 1_555 1_555
H33 C43 1_555 1_555
C44 C39 1_555 1_555
C45 C40 1_555 1_555
H34 C45 1_555 1_555
H35 C45 1_555 1_555
H36 C45 1_555 1_555
C46 C42 1_555 1_555
H37 C46 1_555 1_555
H38 C46 1_555 1_555
H39 C46 1_555 1_555
C47 C44 1_555 1_555
H40 C47 1_555 1_555
H41 C47 1_555 1_555
H42 C47 1_555 1_555
C48 H43 1_555 1_555
H44 C48 1_555 1_555
C49 C48 1_555 1_555
H45 C49 1_555 1_555
H46 C49 1_555 1_555
C50 C49 1_555 1_555
H47 C50 1_555 1_555
H48 C50 1_555 1_555
C51 C50 1_555 1_555
H49 C51 1_555 1_555
H50 C51 1_555 1_555
C52 C51 1_555 1_555
H51 C52 1_555 1_555
H52 C52 1_555 1_555
C53 C52 1_555 1_555
H53 C53 1_555 1_555
H54 C53 1_555 1_555
H55 C53 1_555 1_555
O1 C6 1_555 1_555
O2 C10 1_555 1_555
O3 C23 1_555 1_555
C60 C61 1_555 1_555
C61 C62 1_555 1_555
C62 H69 1_555 1_555
C63 C62 1_555 1_555
C64 C63 1_555 1_555
C65 C64 1_555 1_555
C66 C65 1_555 1_555
H70 C66 1_555 1_555
C67 C66 1_555 1_555
H71 C67 1_555 1_555
C68 C67 1_555 1_555
C69 C68 1_555 1_555
C70 C69 1_555 1_555
H72 C70 1_555 1_555
C71 C70 1_555 1_555
H73 C71 1_555 1_555
C72 C71 1_555 1_555
C73 C64 1_555 1_555
C74 C72 1_555 1_555
C75 C63 1_555 1_555
C76 C75 1_555 1_555
H74 C76 1_555 1_555
C77 C61 1_555 1_555
C78 C77 1_555 1_555
C79 C78 1_555 1_555
C80 C79 1_555 1_555
H75 C80 1_555 1_555
C81 C80 1_555 1_555
C82 C78 1_555 1_555
C83 C60 1_555 1_555
C84 C83 1_555 1_555
C85 C84 1_555 1_555
H76 C85 1_555 1_555
C86 C85 1_555 1_555
C87 C86 1_555 1_555
H77 C87 1_555 1_555
C88 C83 1_555 1_555
C89 C84 1_555 1_555
H78 C89 1_555 1_555
H79 C89 1_555 1_555
H80 C89 1_555 1_555
C90 C86 1_555 1_555
H81 C90 1_555 1_555
H82 C90 1_555 1_555
H83 C90 1_555 1_555
C91 C88 1_555 1_555
H84 C91 1_555 1_555
H85 C91 1_555 1_555
H86 C91 1_555 1_555
C92 H87 1_555 1_555
H88 C92 1_555 1_555
C93 C92 1_555 1_555
H89 C93 1_555 1_555
H90 C93 1_555 1_555
C94 C93 1_555 1_555
H91 C94 1_555 1_555
H92 C94 1_555 1_555
C95 C94 1_555 1_555
H93 C95 1_555 1_555
H94 C95 1_555 1_555
C96 C95 1_555 1_555
H95 C96 1_555 1_555
H96 C96 1_555 1_555
C97 C96 1_555 1_555
H97 C97 1_555 1_555
H98 C97 1_555 1_555
H99 C97 1_555 1_555
C98 C74 1_555 1_555
C99 C98 1_555 1_555
C100 C99 1_555 1_555
H100 C100 1_555 1_555
C101 C100 1_555 1_555
C102 C101 1_555 1_555
H101 C102 1_555 1_555
C103 C98 1_555 1_555
C104 C99 1_555 1_555
H102 C104 1_555 1_555
H103 C104 1_555 1_555
H104 C104 1_555 1_555
C105 C101 1_555 1_555
H105 C105 1_555 1_555
H106 C105 1_555 1_555
H107 C105 1_555 1_555
C106 C103 1_555 1_555
H108 C106 1_555 1_555
H109 C106 1_555 1_555
H110 C106 1_555 1_555
C107 H111 1_555 1_555
H112 C107 1_555 1_555
C108 C107 1_555 1_555
H113 C108 1_555 1_555
H114 C108 1_555 1_555
C109 C108 1_555 1_555
H115 C109 1_555 1_555
H116 C109 1_555 1_555
C110 C109 1_555 1_555
H117 C110 1_555 1_555
H118 C110 1_555 1_555
C111 C110 1_555 1_555
H119 C111 1_555 1_555
H120 C111 1_555 1_555
C112 C111 1_555 1_555
H121 C112 1_555 1_555
H122 C112 1_555 1_555
H123 C112 1_555 1_555
O4 C65 1_555 1_555
O5 C69 1_555 1_555
O6 C79 1_555 1_555
C113 H124 1_555 1_555
Cl1 C113 1_555 1_555
Cl2 C113 1_555 1_555
Cl3 C113 1_555 1_555
C114 H125 1_555 1_555
Cl4 C114 1_555 1_555
Cl5 C114 1_555 1_555
Cl6 C114 1_555 1_555
C1A C2A 1_555 1_555
C2A C3A 1_555 1_555
C3A H1A 1_555 1_555
C4A C3A 1_555 1_555
C5A C4A 1_555 1_555
C6A C5A 1_555 1_555
C7A C6A 1_555 1_555
H2A C7A 1_555 1_555
C8A C7A 1_555 1_555
H3A C8A 1_555 1_555
C9A C8A 1_555 1_555
C10A C9A 1_555 1_555
C11A C10A 1_555 1_555
H4A C11A 1_555 1_555
C12A C11A 1_555 1_555
H5A C12A 1_555 1_555
C13A C12A 1_555 1_555
C14A C5A 1_555 1_555
C15A C13A 1_555 1_555
C16A C4A 1_555 1_555
C17A C16A 1_555 1_555
H6A C17A 1_555 1_555
C18A C2A 1_555 1_555
C19A C18A 1_555 1_555
C20A C20 1_555 1_555
C21A C22 1_555 1_555
C22A C21 1_555 1_555
H7A C22A 1_555 1_555
C23A C19A 1_555 1_555
C24A C1A 1_555 1_555
C25A C24A 1_555 1_555
C26A C25A 1_555 1_555
H8A C26A 1_555 1_555
C27A C26A 1_555 1_555
C28A C27A 1_555 1_555
H9A C28A 1_555 1_555
C29A C24A 1_555 1_555
C30A C25A 1_555 1_555
H10A C30A 1_555 1_555
H11A C30A 1_555 1_555
H12A C30A 1_555 1_555
C31A C27A 1_555 1_555
H13A C31A 1_555 1_555
H14A C31A 1_555 1_555
H15A C31A 1_555 1_555
C32A C29A 1_555 1_555
H16A C32A 1_555 1_555
H17A C32A 1_555 1_555
H18A C32A 1_555 1_555
C33A H19A 1_555 1_555
H20A C33A 1_555 1_555
C34A C33A 1_555 1_555
H21A C34A 1_555 1_555
H22A C34A 1_555 1_555
C35A C34A 1_555 1_555
H23A C35A 1_555 1_555
H24A C35A 1_555 1_555
C36A C35A 1_555 1_555
H25A C36A 1_555 1_555
H26A C36A 1_555 1_555
C37A C36A 1_555 1_555
H27A C37A 1_555 1_555
H28A C37A 1_555 1_555
C38A C37A 1_555 1_555
H29A C38A 1_555 1_555
H30A C38A 1_555 1_555
H31A C38A 1_555 1_555
C39A C15A 1_555 1_555
C40A C39A 1_555 1_555
C41A C40A 1_555 1_555
H32A C41A 1_555 1_555
C42A C41A 1_555 1_555
C43A C42A 1_555 1_555
H33A C43A 1_555 1_555
C44A C39A 1_555 1_555
C45A C40A 1_555 1_555
H34A C45A 1_555 1_555
H35A C45A 1_555 1_555
H36A C45A 1_555 1_555
C46A C42A 1_555 1_555
H37A C46A 1_555 1_555
H38A C46A 1_555 1_555
H39A C46A 1_555 1_555
C47A C44A 1_555 1_555
H40A C47A 1_555 1_555
H41A C47A 1_555 1_555
H42A C47A 1_555 1_555
C48A H43A 1_555 1_555
H44A C48A 1_555 1_555
C49A C48A 1_555 1_555
H45A C49A 1_555 1_555
H46A C49A 1_555 1_555
C50A C49A 1_555 1_555
H47A C50A 1_555 1_555
H48A C50A 1_555 1_555
C51A C50A 1_555 1_555
H49A C51A 1_555 1_555
H50A C51A 1_555 1_555
C52A C51A 1_555 1_555
H51A C52A 1_555 1_555
H52A C52A 1_555 1_555
C53A C52A 1_555 1_555
H53A C53A 1_555 1_555
H54A C53A 1_555 1_555
H55A C53A 1_555 1_555
O1A C6A 1_555 1_555
O2A C10A 1_555 1_555
O3A C23A 1_555 1_555
C60A C81 1_555 1_555
C61A C60A 1_555 1_555
C62A C61A 1_555 1_555
H69A C62A 1_555 1_555
C63A C62A 1_555 1_555
C64A C63A 1_555 1_555
C65A C64A 1_555 1_555
C66A C65A 1_555 1_555
H70A C66A 1_555 1_555
C67A C66A 1_555 1_555
H71A C67A 1_555 1_555
C68A C67A 1_555 1_555
C69A C68A 1_555 1_555
C70A C69A 1_555 1_555
H72A C70A 1_555 1_555
C71A C70A 1_555 1_555
H73A C71A 1_555 1_555
C72A C71A 1_555 1_555
C73A C64A 1_555 1_555
C74A C72A 1_555 1_555
C75A C63A 1_555 1_555
C76A C75A 1_555 1_555
H74A C76A 1_555 1_555
C77A C61A 1_555 1_555
C78A C77A 1_555 1_555
C79A C78A 1_555 1_555
C80A C79A 1_555 1_555
H75A C80A 1_555 1_555
C81A C60 1_555 1_555
C82A C81 1_555 1_555
C83A C60A 1_555 1_555
C84A C83A 1_555 1_555
C85A C84A 1_555 1_555
H76A C85A 1_555 1_555
C86A C85A 1_555 1_555
C87A C86A 1_555 1_555
H77A C87A 1_555 1_555
C88A C83A 1_555 1_555
C89A C84A 1_555 1_555
H78A C89A 1_555 1_555
H79A C89A 1_555 1_555
H80A C89A 1_555 1_555
C90A C86A 1_555 1_555
H81A C90A 1_555 1_555
H82A C90A 1_555 1_555
H83A C90A 1_555 1_555
C91A C88A 1_555 1_555
H84A C91A 1_555 1_555
H85A C91A 1_555 1_555
H86A C91A 1_555 1_555
C92A H87A 1_555 1_555
H88A C92A 1_555 1_555
C93A C92A 1_555 1_555
H89A C93A 1_555 1_555
H90A C93A 1_555 1_555
C94A C93A 1_555 1_555
H91A C94A 1_555 1_555
H92A C94A 1_555 1_555
C95A C94A 1_555 1_555
H93A C95A 1_555 1_555
H94A C95A 1_555 1_555
C96A C95A 1_555 1_555
H95A C96A 1_555 1_555
H96A C96A 1_555 1_555
C97A C96A 1_555 1_555
H97A C97A 1_555 1_555
H98A C97A 1_555 1_555
H99A C97A 1_555 1_555
C98A C74A 1_555 1_555
C99A C98A 1_555 1_555
C100A C99A 1_555 1_555
H100A C100A 1_555 1_555
C101A C100A 1_555 1_555
C102A C101A 1_555 1_555
H101A C102A 1_555 1_555
C103A C98A 1_555 1_555
C104A C99A 1_555 1_555
H102A C104A 1_555 1_555
H103A C104A 1_555 1_555
H104A C104A 1_555 1_555
C105A C101A 1_555 1_555
H105A C105A 1_555 1_555
H106A C105A 1_555 1_555
H107A C105A 1_555 1_555
C106A C103A 1_555 1_555
H108A C106A 1_555 1_555
H109A C106A 1_555 1_555
H110A C106A 1_555 1_555
C107A H111A 1_555 1_555
H112A C107A 1_555 1_555
C108A C107A 1_555 1_555
H113A C108A 1_555 1_555
H114A C108A 1_555 1_555
C109A C108A 1_555 1_555
H115A C109A 1_555 1_555
H116A C109A 1_555 1_555
C110A C109A 1_555 1_555
H117A C110A 1_555 1_555
H118A C110A 1_555 1_555
C111A C110A 1_555 1_555
H119A C111A 1_555 1_555
H120A C111A 1_555 1_555
C112A C111A 1_555 1_555
H121A C112A 1_555 1_555
H122A C112A 1_555 1_555
H123A C112A 1_555 1_555
O4A C65A 1_555 1_555
O5A C69A 1_555 1_555
O6A C79A 1_555 1_555
C9 C14 1_555 1_555
C13 C14 1_555 1_555
C15 C16 1_555 1_555
C17 C18 1_555 1_555
C20 C21 1_555 1_555
C22 C23 1_555 1_555
C28 C29 1_555 1_555
C33 O1 1_555 1_555
C43 C44 1_555 1_555
C48 O3 1_555 1_555
C68 C73 1_555 1_555
C72 C73 1_555 1_555
C74 C75 1_555 1_555
C76 C77 1_555 1_555
C82 C81A 1_555 1_555
C82 C82A 1_555 1_555
C87 C88 1_555 1_555
C92 O4 1_555 1_555
C102 C103 1_555 1_555
C107 O6 1_555 1_555
C1A C21A 1_555 1_555
C9A C14A 1_555 1_555
C13A C14A 1_555 1_555
C15A C16A 1_555 1_555
C17A C18A 1_555 1_555
C19A C20A 1_555 1_555
C20A C21A 1_555 1_555
C22A C23A 1_555 1_555
C28A C29A 1_555 1_555
C33A O1A 1_555 1_555
C43A C44A 1_555 1_555
C48A O3A 1_555 1_555
C68A C73A 1_555 1_555
C72A C73A 1_555 1_555
C74A C75A 1_555 1_555
C76A C77A 1_555 1_555
C78A C82A 1_555 1_555
C80A C81A 1_555 1_555
C87A C88A 1_555 1_555
C92A O4A 1_555 1_555
C102A C103A 1_555 1_555
C107A O6A 1_555 1_555

#END
