
#######################################################################
#
#                 Cambridge Crystallographic Data Centre
#                                CCDC 
#
#######################################################################
#
# If this CIF has been generated from an entry in the Cambridge 
# Structural Database, then it will include bibliographic, chemical, 
# crystal, experimental, refinement or atomic coordinate data resulting 
# from the CCDC's data processing and validation procedures.
#
#######################################################################

data_FABROS
_chemical_formula_moiety         'C102 H108 O6'
_chemical_name_systematic        
1,9,12,20-tetrakis(Hexyloxy)-7,10,18,21-tetramesitylbenzo[5',10']anthra[2',3':5,6]-s-indaceno[1,2-b]benzo[fg]anthracene-6,17-diol
_symmetry_cell_setting           triclinic
_symmetry_space_group_name_H-M   'P -1'
_symmetry_Int_Tables_number      2
_space_group_name_Hall           '-P 1'
loop_
_symmetry_equiv_pos_site_id
_symmetry_equiv_pos_as_xyz
1 x,y,z
2 -x,-y,-z
_cell_length_a                   10.9480(4)
_cell_length_b                   12.0802(4)
_cell_length_c                   16.2323(6)
_cell_angle_alpha                69.553(2)
_cell_angle_beta                 76.264(2)
_cell_angle_gamma                79.814(2)
_cell_volume                     1943.58
_exptl_crystal_colour            black
_exptl_crystal_description       'Thin Plate'
_cell_formula_units_Z            1
loop_
_atom_site_label
_atom_site_type_symbol
_atom_site_fract_x
_atom_site_fract_y
_atom_site_fract_z
C13 C 0.2075(6) 0.3893(5) 0.5405(3)
H27 H 0.2688 0.3402 0.5784
H28 H 0.1370 0.4230 0.5785
C14 C -0.0374(5) 0.2533(4) 0.6236(3)
H29 H -0.0865 0.3121 0.5805
H30 H -0.0190 0.2938 0.6622
C15 C 0.0863(4) 0.2118(4) 0.5722(3)
H31 H 0.0689 0.1589 0.5425
H32 H 0.1416 0.1645 0.6153
C16 C 0.1569(5) 0.3123(5) 0.5017(3)
H33 H 0.0993 0.3633 0.4615
H34 H 0.2286 0.2777 0.4651
C17 C -0.1177(5) 0.1529(6) 0.6818(3)
H35 H -0.1973 0.1868 0.7120
H36 H -0.1400 0.1153 0.6427
C18 C -0.0529(13) 0.0580(9) 0.7522(6)
H37 H 0.0233 0.0202 0.7227
H38 H -0.1107 -0.0020 0.7886
H39 H -0.0293 0.0944 0.7907
O1 O 0.6730(2) 0.96959(18) 0.28359(14)
O2 O 0.27204(19) 0.4899(2) 0.46469(12)
O3 O 0.34050(13) 0.31934(12) 0.04693(9)
C19 C 0.5474(3) 0.8063(2) 0.33047(17)
C20 C 0.6101(3) 0.8973(2) 0.34626(17)
C21 C 0.5692(7) 0.9041(6) 0.4331(3)
H40 H 0.5956 0.9679 0.4437
C22 C 0.4946(7) 0.8290(5) 0.5058(4)
H41 H 0.4754 0.8406 0.5626
C23 C 0.4484(5) 0.7364(5) 0.4936(2)
C24 C 0.3791(5) 0.6559(6) 0.5703(4)
H42 H 0.3668 0.6665 0.6271
C25 C 0.3295(13) 0.5623(6) 0.5630(2)
H43 H 0.2930 0.5011 0.6134
C26 C 0.4758(3) 0.7252(2) 0.40786(14)
C27 C 0.4111(2) 0.6398(2) 0.39623(15)
C28 C 0.4271(2) 0.62977(19) 0.30720(14)
C29 C 0.3701(2) 0.54562(19) 0.28894(14)
H44 H 0.3124 0.4970 0.3350
C30 C 0.39868(19) 0.53469(18) 0.20468(14)
C31 C 0.48657(19) 0.60469(18) 0.13435(14)
C32 C 0.5361(2) 0.69147(18) 0.14831(14)
H45 H 0.5905 0.7416 0.1007
C33 C 0.5060(2) 0.70674(19) 0.23438(14)
C34 C 0.5587(2) 0.79979(19) 0.24578(16)
C35 C 0.6177(2) 0.89185(19) 0.16324(15)
C36 C 0.5394(2) 0.99048(19) 0.12221(15)
C37 C 0.5937(2) 1.08012(19) 0.04870(16)
H46 H 0.5411 1.1482 0.0216
C38 C 0.7227(2) 1.0731(2) 0.01369(17)
C39 C 0.7970(2) 0.9710(2) 0.05238(17)
H47 H 0.8846 0.9628 0.0274
C40 C 0.7469(2) 0.8801(2) 0.12677(17)
C41 C 0.3981(2) 1.0014(2) 0.15621(16)
H48 H 0.3612 1.0806 0.1247
H49 H 0.3811 0.9895 0.2206
H50 H 0.3606 0.9411 0.1453
C42 C 0.7786(3) 1.1738(2) -0.06325(19)
H51 H 0.8710 1.1596 -0.0729
H52 H 0.7512 1.2483 -0.0496
H53 H 0.7500 1.1793 -0.1175
C43 C 0.8306(3) 0.7723(2) 0.1690(2)
H54 H 0.9138 0.7720 0.1297
H55 H 0.7924 0.7005 0.1777
H56 H 0.8402 0.7741 0.2270
C44 C 0.3382(2) 0.5663(2) 0.47526(13)
C45 C 0.3544(2) 0.45281(18) 0.17262(14)
C46 C 0.41948(19) 0.46812(17) 0.08535(13)
C47 C 0.41898(19) 0.40800(17) 0.02303(13)
C48 C 0.49708(19) 0.43786(17) -0.05810(13)
C49 C 0.2150(2) 0.36683(19) 0.02987(15)
H57 H 0.2167 0.3963 -0.0354
H58 H 0.1843 0.4341 0.0535
C50 C 0.1281(2) 0.27026(19) 0.07503(15)
H59 H 0.1359 0.2335 0.1387
H60 H 0.1531 0.2078 0.0460
C51 C -0.0087(2) 0.3202(2) 0.06920(16)
H61 H -0.0312 0.3854 0.0955
H62 H -0.0160 0.3543 0.0053
C52 C -0.1029(2) 0.2286(2) 0.11687(18)
H63 H -0.0846 0.1834 0.1773
H64 H -0.0911 0.1718 0.0833
C53 C -0.2406(2) 0.2827(2) 0.12625(19)
H65 H -0.2553 0.3392 0.0675
H66 H -0.2965 0.2190 0.1440
C54 C -0.2743(2) 0.3470(3) 0.19503(18)
H67 H -0.2654 0.2902 0.2541
H68 H -0.3618 0.3836 0.1969
H69 H -0.2174 0.4087 0.1786
C55 C 0.2569(2) 0.37180(18) 0.22844(13)
C56 C 0.1298(2) 0.41871(19) 0.24193(14)
C57 C 0.0382(2) 0.3430(2) 0.29519(15)
H70 H -0.0479 0.3747 0.3035
C58 C 0.0694(2) 0.2228(2) 0.33639(15)
C59 C 0.1961(2) 0.17871(19) 0.32413(14)
H71 H 0.2192 0.0969 0.3528
C60 C 0.2907(2) 0.25130(19) 0.27080(14)
C61 C 0.0898(2) 0.5484(2) 0.19996(17)
H72 H -0.0027 0.5624 0.2122
H73 H 0.1209 0.5716 0.1351
H74 H 0.1251 0.5956 0.2253
C62 C 0.4276(2) 0.2011(2) 0.25925(16)
H75 H 0.4584 0.2023 0.1972
H76 H 0.4356 0.1192 0.2996
H77 H 0.4777 0.2493 0.2735
C63 C -0.0334(3) 0.1444(2) 0.39242(18)
H78 H -0.0803 0.1748 0.4409
H79 H 0.0047 0.0632 0.4180
H80 H -0.0912 0.1442 0.3547
C13A C 0.7925(6) 0.6107(5) -0.5405(3)
H27A H 0.7312 0.6598 -0.5784
H28A H 0.8630 0.5770 -0.5785
C14A C 1.0374(5) 0.7467(4) -0.6236(3)
H29A H 1.0865 0.6879 -0.5805
H30A H 1.0190 0.7062 -0.6622
C15A C 0.9137(4) 0.7882(4) -0.5722(3)
H31A H 0.9311 0.8411 -0.5425
H32A H 0.8584 0.8355 -0.6153
C16A C 0.8431(5) 0.6877(5) -0.5017(3)
H33A H 0.9007 0.6367 -0.4615
H34A H 0.7714 0.7223 -0.4651
C17A C 1.1177(5) 0.8471(6) -0.6818(3)
H35A H 1.1973 0.8132 -0.7120
H36A H 1.1400 0.8847 -0.6427
C18A C 1.0529(13) 0.9420(9) -0.7522(6)
H37A H 0.9767 0.9798 -0.7227
H38A H 1.1107 1.0020 -0.7886
H39A H 1.0293 0.9056 -0.7907
O1A O 0.3270(2) 0.03041(18) -0.28359(14)
O2A O 0.72796(19) 0.5101(2) -0.46469(12)
O3A O 0.65950(13) 0.68066(12) -0.04693(9)
C19A C 0.4526(3) 0.1937(2) -0.33047(17)
C20A C 0.3899(3) 0.1027(2) -0.34626(17)
C21A C 0.4308(7) 0.0959(6) -0.4331(3)
H40A H 0.4044 0.0321 -0.4437
C22A C 0.5054(7) 0.1710(5) -0.5058(4)
H41A H 0.5246 0.1594 -0.5626
C23A C 0.5516(5) 0.2636(5) -0.4936(2)
C24A C 0.6209(5) 0.3441(6) -0.5703(4)
H42A H 0.6332 0.3335 -0.6271
C25A C 0.6705(13) 0.4377(6) -0.5630(2)
H43A H 0.7070 0.4989 -0.6134
C26A C 0.5242(3) 0.2748(2) -0.40786(14)
C27A C 0.5889(2) 0.3602(2) -0.39623(15)
C28A C 0.5729(2) 0.37023(19) -0.30720(14)
C29A C 0.6299(2) 0.45438(19) -0.28894(14)
H44A H 0.6876 0.5030 -0.3350
C30A C 0.60132(19) 0.46531(18) -0.20468(14)
C31A C 0.51343(19) 0.39531(18) -0.13435(14)
C32A C 0.4639(2) 0.30853(18) -0.14831(14)
H45A H 0.4095 0.2584 -0.1007
C33A C 0.4940(2) 0.29326(19) -0.23438(14)
C34A C 0.4413(2) 0.20021(19) -0.24578(16)
C35A C 0.3823(2) 0.10815(19) -0.16324(15)
C36A C 0.4606(2) 0.00952(19) -0.12221(15)
C37A C 0.4063(2) -0.08012(19) -0.04870(16)
H46A H 0.4589 -0.1482 -0.0216
C38A C 0.2773(2) -0.0731(2) -0.01369(17)
C39A C 0.2030(2) 0.0290(2) -0.05238(17)
H47A H 0.1154 0.0372 -0.0274
C40A C 0.2531(2) 0.1199(2) -0.12677(17)
C41A C 0.6019(2) -0.0014(2) -0.15621(16)
H48A H 0.6388 -0.0806 -0.1247
H49A H 0.6189 0.0105 -0.2206
H50A H 0.6394 0.0589 -0.1453
C42A C 0.2214(3) -0.1738(2) 0.06325(19)
H51A H 0.1290 -0.1596 0.0729
H52A H 0.2488 -0.2483 0.0496
H53A H 0.2500 -0.1793 0.1175
C43A C 0.1694(3) 0.2277(2) -0.1690(2)
H54A H 0.0862 0.2280 -0.1297
H55A H 0.2076 0.2995 -0.1777
H56A H 0.1598 0.2259 -0.2270
C44A C 0.6618(2) 0.4337(2) -0.47526(13)
C45A C 0.6456(2) 0.54719(18) -0.17262(14)
C46A C 0.58052(19) 0.53188(17) -0.08535(13)
C47A C 0.58102(19) 0.59200(17) -0.02303(13)
C48A C 0.50292(19) 0.56214(17) 0.05810(13)
C49A C 0.7850(2) 0.63317(19) -0.02987(15)
H57A H 0.7833 0.6037 0.0354
H58A H 0.8157 0.5659 -0.0535
C50A C 0.8719(2) 0.72974(19) -0.07503(15)
H59A H 0.8641 0.7665 -0.1387
H60A H 0.8469 0.7922 -0.0460
C51A C 1.0087(2) 0.6798(2) -0.06920(16)
H61A H 1.0312 0.6146 -0.0955
H62A H 1.0160 0.6457 -0.0053
C52A C 1.1029(2) 0.7714(2) -0.11687(18)
H63A H 1.0846 0.8166 -0.1773
H64A H 1.0911 0.8282 -0.0833
C53A C 1.2406(2) 0.7173(2) -0.12625(19)
H65A H 1.2553 0.6608 -0.0675
H66A H 1.2965 0.7810 -0.1440
C54A C 1.2743(2) 0.6530(3) -0.19503(18)
H67A H 1.2654 0.7098 -0.2541
H68A H 1.3618 0.6164 -0.1969
H69A H 1.2174 0.5913 -0.1786
C55A C 0.7431(2) 0.62820(18) -0.22844(13)
C56A C 0.8702(2) 0.58129(19) -0.24193(14)
C57A C 0.9618(2) 0.6570(2) -0.29519(15)
H70A H 1.0479 0.6253 -0.3035
C58A C 0.9306(2) 0.7772(2) -0.33639(15)
C59A C 0.8039(2) 0.82129(19) -0.32413(14)
H71A H 0.7808 0.9031 -0.3528
C60A C 0.7093(2) 0.74870(19) -0.27080(14)
C61A C 0.9102(2) 0.4516(2) -0.19996(17)
H72A H 1.0027 0.4376 -0.2122
H73A H 0.8791 0.4284 -0.1351
H74A H 0.8749 0.4044 -0.2253
C62A C 0.5724(2) 0.7989(2) -0.25925(16)
H75A H 0.5416 0.7977 -0.1972
H76A H 0.5644 0.8808 -0.2996
H77A H 0.5223 0.7507 -0.2735
C63A C 1.0334(3) 0.8556(2) -0.39242(18)
H78A H 1.0803 0.8252 -0.4409
H79A H 0.9953 0.9368 -0.4180
H80A H 1.0912 0.8558 -0.3547
C1? C 0.1911(14) 0.4464(15) 0.5462(8)
H1? H 0.1373 0.5110 0.5658
H2? H 0.2376 0.3952 0.5938
C2? C 0.1154(10) 0.3755(10) 0.5188(6)
H3? H 0.1735 0.3229 0.4883
H4? H 0.0624 0.4302 0.4765
C3? C 0.0315(9) 0.3010(9) 0.6022(6)
H5? H 0.0853 0.2498 0.6451
H6? H -0.0274 0.3547 0.6312
C4? C -0.0452(9) 0.2228(9) 0.5818(7)
H7? H -0.0953 0.2743 0.5365
H8? H 0.0145 0.1676 0.5546
C5? C -0.1349(14) 0.1498(15) 0.6618(8)
H9? H -0.1990 0.2037 0.6875
H10? H -0.1794 0.1021 0.6418
C6? C -0.062(2) 0.0677(18) 0.7329(13)
H11? H 0.0104 0.0236 0.7051
H12? H -0.1173 0.0118 0.7788
H13? H -0.0310 0.1149 0.7607
C7? C -0.057(2) 0.0447(15) 0.7683(14)
H14? H -0.0144 -0.0137 0.7388
H15? H -0.1340 0.0143 0.8100
H16? H -0.0009 0.0590 0.8013
C8? C -0.0935(12) 0.1606(13) 0.6979(8)
H17? H -0.1375 0.2187 0.7285
H18? H -0.1537 0.1458 0.6670
C9? C 0.0186(10) 0.2150(9) 0.6281(7)
H19? H 0.0600 0.1593 0.5948
H20? H 0.0811 0.2265 0.6588
C10? C -0.0212(9) 0.3344(8) 0.5618(6)
H21? H -0.0815 0.3220 0.5297
H22? H -0.0658 0.3888 0.5955
C11? C 0.0897(9) 0.3929(9) 0.4933(7)
H23? H 0.0574 0.4593 0.4448
H24? H 0.1429 0.3343 0.4664
C12? C 0.1702(12) 0.4399(16) 0.5363(8)
H25? H 0.1198 0.5014 0.5613
H26? H 0.2038 0.3748 0.5850
C64? C 0.6338(7) 0.8885(7) 0.4293(3)
H81? H 0.6903 0.9341 0.4366
C65? C 0.5657(6) 0.8055(5) 0.5000(4)
H82? H 0.5680 0.8011 0.5592
C66? C 0.4941(5) 0.7284(6) 0.4893(2)
C67? C 0.4235(5) 0.6524(6) 0.5639(3)
H83? H 0.4314 0.6479 0.6221
C68? C 0.3418(12) 0.5828(6) 0.5553(3)
H84? H 0.2846 0.5441 0.6075
loop_
_geom_bond_atom_site_label_1
_geom_bond_atom_site_label_2
_geom_bond_site_symmetry_1
_geom_bond_site_symmetry_2
C13 H27 1_555 1_555
H28 C13 1_555 1_555
C14 H29 1_555 1_555
H30 C14 1_555 1_555
C15 C14 1_555 1_555
H31 C15 1_555 1_555
H32 C15 1_555 1_555
C16 C13 1_555 1_555
H33 C16 1_555 1_555
H34 C16 1_555 1_555
C17 C14 1_555 1_555
H35 C17 1_555 1_555
H36 C17 1_555 1_555
C18 C17 1_555 1_555
H37 C18 1_555 1_555
H38 C18 1_555 1_555
H39 C18 1_555 1_555
O1 C20 1_555 1_555
O2 C13 1_555 1_555
O3 C47 1_555 1_555
C19 C20 1_555 1_555
C20 C21 1_555 1_555
C21 H40 1_555 1_555
C22 C21 1_555 1_555
H41 C22 1_555 1_555
C23 C22 1_555 1_555
C24 C23 1_555 1_555
H42 C24 1_555 1_555
C25 C24 1_555 1_555
H43 C25 1_555 1_555
C26 C19 1_555 1_555
C27 C26 1_555 1_555
C28 C27 1_555 1_555
C29 C28 1_555 1_555
H44 C29 1_555 1_555
C30 C29 1_555 1_555
C31 C30 1_555 1_555
C32 C31 1_555 1_555
H45 C32 1_555 1_555
C33 C28 1_555 1_555
C34 C19 1_555 1_555
C35 C34 1_555 1_555
C36 C35 1_555 1_555
C37 C36 1_555 1_555
H46 C37 1_555 1_555
C38 C37 1_555 1_555
C39 C38 1_555 1_555
H47 C39 1_555 1_555
C40 C35 1_555 1_555
C41 C36 1_555 1_555
H48 C41 1_555 1_555
H49 C41 1_555 1_555
H50 C41 1_555 1_555
C42 C38 1_555 1_555
H51 C42 1_555 1_555
H52 C42 1_555 1_555
H53 C42 1_555 1_555
C43 C40 1_555 1_555
H54 C43 1_555 1_555
H55 C43 1_555 1_555
H56 C43 1_555 1_555
C44 O2 1_555 1_555
C45 C30 1_555 1_555
C46 C45 1_555 1_555
C47 C46 1_555 1_555
C48 C47 1_555 1_555
C49 O3 1_555 1_555
H57 C49 1_555 1_555
H58 C49 1_555 1_555
C50 C49 1_555 1_555
H59 C50 1_555 1_555
H60 C50 1_555 1_555
C51 C50 1_555 1_555
H61 C51 1_555 1_555
H62 C51 1_555 1_555
C52 C51 1_555 1_555
H63 C52 1_555 1_555
H64 C52 1_555 1_555
C53 C52 1_555 1_555
H65 C53 1_555 1_555
H66 C53 1_555 1_555
C54 C53 1_555 1_555
H67 C54 1_555 1_555
H68 C54 1_555 1_555
H69 C54 1_555 1_555
C55 C45 1_555 1_555
C56 C55 1_555 1_555
C57 C56 1_555 1_555
H70 C57 1_555 1_555
C58 C57 1_555 1_555
C59 C58 1_555 1_555
H71 C59 1_555 1_555
C60 C55 1_555 1_555
C61 C56 1_555 1_555
H72 C61 1_555 1_555
H73 C61 1_555 1_555
H74 C61 1_555 1_555
C62 C60 1_555 1_555
H75 C62 1_555 1_555
H76 C62 1_555 1_555
H77 C62 1_555 1_555
C63 C58 1_555 1_555
H78 C63 1_555 1_555
H79 C63 1_555 1_555
H80 C63 1_555 1_555
C13A H27A 1_555 1_555
H28A C13A 1_555 1_555
C14A H29A 1_555 1_555
H30A C14A 1_555 1_555
C15A C14A 1_555 1_555
H31A C15A 1_555 1_555
H32A C15A 1_555 1_555
C16A C13A 1_555 1_555
H33A C16A 1_555 1_555
H34A C16A 1_555 1_555
C17A C14A 1_555 1_555
H35A C17A 1_555 1_555
H36A C17A 1_555 1_555
C18A C17A 1_555 1_555
H37A C18A 1_555 1_555
H38A C18A 1_555 1_555
H39A C18A 1_555 1_555
O1A C20A 1_555 1_555
O2A C13A 1_555 1_555
O3A C47A 1_555 1_555
C19A C20A 1_555 1_555
C20A C21A 1_555 1_555
C21A H40A 1_555 1_555
C22A C21A 1_555 1_555
H41A C22A 1_555 1_555
C23A C22A 1_555 1_555
C24A C23A 1_555 1_555
H42A C24A 1_555 1_555
C25A C24A 1_555 1_555
H43A C25A 1_555 1_555
C26A C19A 1_555 1_555
C27A C26A 1_555 1_555
C28A C27A 1_555 1_555
C29A C28A 1_555 1_555
H44A C29A 1_555 1_555
C30A C29A 1_555 1_555
C31A C48 1_555 1_555
C32A C31A 1_555 1_555
H45A C32A 1_555 1_555
C33A C28A 1_555 1_555
C34A C19A 1_555 1_555
C35A C34A 1_555 1_555
C36A C35A 1_555 1_555
C37A C36A 1_555 1_555
H46A C37A 1_555 1_555
C38A C37A 1_555 1_555
C39A C38A 1_555 1_555
H47A C39A 1_555 1_555
C40A C35A 1_555 1_555
C41A C36A 1_555 1_555
H48A C41A 1_555 1_555
H49A C41A 1_555 1_555
H50A C41A 1_555 1_555
C42A C38A 1_555 1_555
H51A C42A 1_555 1_555
H52A C42A 1_555 1_555
H53A C42A 1_555 1_555
C43A C40A 1_555 1_555
H54A C43A 1_555 1_555
H55A C43A 1_555 1_555
H56A C43A 1_555 1_555
C44A O2A 1_555 1_555
C45A C30A 1_555 1_555
C46A C48 1_555 1_555
C47A C46A 1_555 1_555
C48A C31 1_555 1_555
C49A O3A 1_555 1_555
H57A C49A 1_555 1_555
H58A C49A 1_555 1_555
C50A C49A 1_555 1_555
H59A C50A 1_555 1_555
H60A C50A 1_555 1_555
C51A C50A 1_555 1_555
H61A C51A 1_555 1_555
H62A C51A 1_555 1_555
C52A C51A 1_555 1_555
H63A C52A 1_555 1_555
H64A C52A 1_555 1_555
C53A C52A 1_555 1_555
H65A C53A 1_555 1_555
H66A C53A 1_555 1_555
C54A C53A 1_555 1_555
H67A C54A 1_555 1_555
H68A C54A 1_555 1_555
H69A C54A 1_555 1_555
C55A C45A 1_555 1_555
C56A C55A 1_555 1_555
C57A C56A 1_555 1_555
H70A C57A 1_555 1_555
C58A C57A 1_555 1_555
C59A C58A 1_555 1_555
H71A C59A 1_555 1_555
C60A C55A 1_555 1_555
C61A C56A 1_555 1_555
H72A C61A 1_555 1_555
H73A C61A 1_555 1_555
H74A C61A 1_555 1_555
C62A C60A 1_555 1_555
H75A C62A 1_555 1_555
H76A C62A 1_555 1_555
H77A C62A 1_555 1_555
C63A C58A 1_555 1_555
H78A C63A 1_555 1_555
H79A C63A 1_555 1_555
H80A C63A 1_555 1_555
C15 C16 1_555 1_555
C23 C26 1_555 1_555
C25 C44 1_555 1_555
C27 C44 1_555 1_555
C32 C33 1_555 1_555
C33 C34 1_555 1_555
C39 C40 1_555 1_555
C46 C48A 1_555 1_555
C59 C60 1_555 1_555
C15A C16A 1_555 1_555
C23A C26A 1_555 1_555
C25A C44A 1_555 1_555
C27A C44A 1_555 1_555
C30A C31A 1_555 1_555
C32A C33A 1_555 1_555
C33A C34A 1_555 1_555
C39A C40A 1_555 1_555
C45A C46A 1_555 1_555
C47A C48A 1_555 1_555
C59A C60A 1_555 1_555

#END
