
#######################################################################
#
#                 Cambridge Crystallographic Data Centre
#                                CCDC 
#
#######################################################################
#
# If this CIF has been generated from an entry in the Cambridge 
# Structural Database, then it will include bibliographic, chemical, 
# crystal, experimental, refinement or atomic coordinate data resulting 
# from the CCDC's data processing and validation procedures.
#
#######################################################################

data_FABRUX
_chemical_formula_moiety         'C34 H23 N1'
_chemical_name_systematic        N,N-Diphenyl-4-(pyren-1-yl)aniline
_symmetry_cell_setting           monoclinic
_symmetry_space_group_name_H-M   'P 21/c'
_symmetry_Int_Tables_number      14
_space_group_name_Hall           '-P 2ybc'
loop_
_symmetry_equiv_pos_site_id
_symmetry_equiv_pos_as_xyz
1 x,y,z
2 -x,1/2+y,1/2-z
3 -x,-y,-z
4 x,1/2-y,1/2+z
_cell_length_a                   18.2364(19)
_cell_length_b                   10.7241(12)
_cell_length_c                   12.2551(13)
_cell_angle_alpha                90
_cell_angle_beta                 95.8830(10)
_cell_angle_gamma                90
_cell_volume                     2384.09
_exptl_crystal_colour            colorless
_exptl_crystal_description       block
_cell_formula_units_Z            4
loop_
_atom_site_label
_atom_site_type_symbol
_atom_site_fract_x
_atom_site_fract_y
_atom_site_fract_z
C1 C 0.73287(9) 0.56827(14) 0.14624(13)
C2 C 0.69515(9) 0.45631(15) 0.13033(14)
H1 H 0.7185 0.3878 0.1027
C3 C 0.62354(9) 0.44567(14) 0.15498(13)
H2 H 0.5996 0.3694 0.1441
C4 C 0.58568(8) 0.54502(14) 0.19567(12)
C5 C 0.62361(8) 0.65792(14) 0.20910(13)
H3 H 0.5997 0.7270 0.2346
C6 C 0.69572(9) 0.66975(14) 0.18554(14)
H4 H 0.7197 0.7460 0.1960
C7 C 0.83411(9) 0.69355(16) 0.08328(16)
C8 C 0.79869(11) 0.75259(18) -0.00720(16)
H5 H 0.7549 0.7197 -0.0409
C9 C 0.82722(13) 0.85946(19) -0.04820(18)
H6 H 0.8031 0.8978 -0.1098
C10 C 0.89106(12) 0.9093(2) 0.0017(2)
H7 H 0.9108 0.9810 -0.0265
C11 C 0.92572(11) 0.8539(2) 0.0928(2)
H8 H 0.9687 0.8887 0.1273
C12 C 0.89746(10) 0.74639(19) 0.13430(18)
H9 H 0.9213 0.7095 0.1969
C13 C 0.85420(9) 0.47390(17) 0.12929(16)
C14 C 0.90011(11) 0.4522(2) 0.0479(2)
H10 H 0.9006 0.5079 -0.0102
C15 C 0.94512(12) 0.3485(2) 0.0528(3)
H11 H 0.9759 0.3350 -0.0021
C16 C 0.94499(13) 0.2652(2) 0.1375(3)
H12 H 0.9752 0.1952 0.1398
C17 C 0.89991(12) 0.2856(2) 0.2190(2)
H13 H 0.8995 0.2292 0.2766
C18 C 0.85495(10) 0.39045(18) 0.21541(17)
H14 H 0.8251 0.4046 0.2713
C19 C 0.50718(8) 0.53026(13) 0.21585(13)
C20 C 0.45968(9) 0.47201(14) 0.13503(13)
H15 H 0.4791 0.4390 0.0740
C21 C 0.38518(9) 0.46170(15) 0.14237(13)
H16 H 0.3555 0.4228 0.0862
C22 C 0.35342(8) 0.50841(14) 0.23242(13)
C23 C 0.27608(9) 0.50372(16) 0.24089(15)
H17 H 0.2451 0.4683 0.1842
C24 C 0.24682(9) 0.54954(16) 0.32938(16)
H18 H 0.1961 0.5458 0.3322
C25 C 0.29226(9) 0.60361(14) 0.41874(14)
C26 C 0.26350(11) 0.65228(17) 0.51158(17)
H19 H 0.2129 0.6503 0.5155
C27 C 0.30861(12) 0.70275(16) 0.59682(17)
H20 H 0.2884 0.7340 0.6578
C28 C 0.38375(11) 0.70730(15) 0.59240(15)
H21 H 0.4137 0.7410 0.6511
C29 C 0.41568(9) 0.66238(13) 0.50161(13)
C30 C 0.49322(10) 0.66721(14) 0.49313(13)
H22 H 0.5241 0.6998 0.5513
C31 C 0.52294(9) 0.62612(14) 0.40363(13)
H23 H 0.5737 0.6315 0.4014
C32 C 0.47797(8) 0.57385(13) 0.31109(12)
C33 C 0.40081(8) 0.56344(13) 0.31933(12)
C34 C 0.36940(9) 0.60926(13) 0.41330(13)
N1 N 0.80720(8) 0.57939(13) 0.12350(13)
loop_
_geom_bond_atom_site_label_1
_geom_bond_atom_site_label_2
_geom_bond_site_symmetry_1
_geom_bond_site_symmetry_2
C1 C2 1_555 1_555
C2 H1 1_555 1_555
C3 C2 1_555 1_555
H2 C3 1_555 1_555
C4 C3 1_555 1_555
C5 C4 1_555 1_555
H3 C5 1_555 1_555
C6 C1 1_555 1_555
H4 C6 1_555 1_555
C7 C8 1_555 1_555
C8 H5 1_555 1_555
C9 C8 1_555 1_555
H6 C9 1_555 1_555
C10 C9 1_555 1_555
H7 C10 1_555 1_555
C11 C10 1_555 1_555
H8 C11 1_555 1_555
C12 C7 1_555 1_555
H9 C12 1_555 1_555
C13 C14 1_555 1_555
C14 H10 1_555 1_555
C15 C14 1_555 1_555
H11 C15 1_555 1_555
C16 C15 1_555 1_555
H12 C16 1_555 1_555
C17 C16 1_555 1_555
H13 C17 1_555 1_555
C18 C13 1_555 1_555
H14 C18 1_555 1_555
C19 C4 1_555 1_555
C20 C19 1_555 1_555
H15 C20 1_555 1_555
C21 C20 1_555 1_555
H16 C21 1_555 1_555
C22 C21 1_555 1_555
C23 C22 1_555 1_555
H17 C23 1_555 1_555
C24 C23 1_555 1_555
H18 C24 1_555 1_555
C25 C24 1_555 1_555
C26 C25 1_555 1_555
H19 C26 1_555 1_555
C27 C26 1_555 1_555
H20 C27 1_555 1_555
C28 C27 1_555 1_555
H21 C28 1_555 1_555
C29 C28 1_555 1_555
C30 C29 1_555 1_555
H22 C30 1_555 1_555
C31 C30 1_555 1_555
H23 C31 1_555 1_555
C32 C19 1_555 1_555
C33 C22 1_555 1_555
C34 C25 1_555 1_555
N1 C1 1_555 1_555
C5 C6 1_555 1_555
C7 N1 1_555 1_555
C11 C12 1_555 1_555
C13 N1 1_555 1_555
C17 C18 1_555 1_555
C29 C34 1_555 1_555
C31 C32 1_555 1_555
C32 C33 1_555 1_555
C33 C34 1_555 1_555

#END
