
#######################################################################
#
#                 Cambridge Crystallographic Data Centre
#                                CCDC 
#
#######################################################################
#
# If this CIF has been generated from an entry in the Cambridge 
# Structural Database, then it will include bibliographic, chemical, 
# crystal, experimental, refinement or atomic coordinate data resulting 
# from the CCDC's data processing and validation procedures.
#
#######################################################################

data_FABRAE
_chemical_formula_moiety         'C52 H38 F10 O2'
_chemical_name_systematic        
1,9-bis(Hexyloxy)-7,15-bis(pentafluorophenyl)dibenzo[de,op]pentacene
_symmetry_cell_setting           triclinic
_symmetry_space_group_name_H-M   'P -1'
_symmetry_Int_Tables_number      2
_space_group_name_Hall           '-P 1'
loop_
_symmetry_equiv_pos_site_id
_symmetry_equiv_pos_as_xyz
1 x,y,z
2 -x,-y,-z
_cell_length_a                   7.7536(3)
_cell_length_b                   8.4647(4)
_cell_length_c                   16.2224(8)
_cell_angle_alpha                83.656(2)
_cell_angle_beta                 80.330(2)
_cell_angle_gamma                65.6020(10)
_cell_volume                     954.847
_exptl_crystal_colour            black
_exptl_crystal_description       'prism frag'
_cell_formula_units_Z            1
loop_
_atom_site_label
_atom_site_type_symbol
_atom_site_fract_x
_atom_site_fract_y
_atom_site_fract_z
O1 O 0.12231(12) 0.06820(10) -0.11509(5)
F1 F 0.42465(10) 0.43012(10) 0.20128(5)
F2 F 0.37444(13) 0.56516(11) 0.35072(6)
F3 F 0.03902(15) 0.64014(11) 0.45388(5)
F4 F -0.25162(13) 0.58617(11) 0.40535(5)
F5 F -0.20492(10) 0.44488(9) 0.25831(5)
C1 C 0.34686(17) 0.07133(15) 0.22658(7)
H1 H 0.3272 0.1408 0.2723
C2 C 0.46042(17) -0.10721(16) 0.23292(8)
H2 H 0.5204 -0.1567 0.2815
C3 C 0.48452(17) -0.21016(15) 0.16858(8)
H3 H 0.5624 -0.3309 0.1726
C4 C 0.39417(17) -0.13760(15) 0.09630(7)
C5 C 0.40917(18) -0.24579(15) 0.03332(8)
H4 H 0.4833 -0.3672 0.0387
C6 C 0.31802(18) -0.17779(15) -0.03555(7)
H5 H 0.3258 -0.2529 -0.0767
C7 C 0.21261(16) 0.00243(15) -0.04624(7)
C8 C 0.19576(16) 0.11949(14) 0.01322(7)
C9 C 0.09684(16) 0.31055(14) 0.00402(7)
C10 C 0.07403(16) 0.41359(14) 0.07459(7)
C11 C 0.14857(17) 0.33418(15) 0.14764(7)
C12 C 0.26168(16) 0.15000(14) 0.15474(7)
C13 C 0.28452(16) 0.04473(14) 0.08694(7)
C14 C 0.11303(17) 0.43326(15) 0.22375(7)
C15 C -0.05711(18) 0.47507(15) 0.27820(8)
C16 C -0.0832(2) 0.54360(16) 0.35547(8)
C17 C 0.0633(2) 0.57190(16) 0.37994(8)
C18 C 0.2334(2) 0.53496(16) 0.32730(8)
C19 C 0.25512(18) 0.46751(15) 0.25029(8)
C20 C 0.15854(17) -0.04685(15) -0.18106(7)
H6 H 0.1057 -0.1350 -0.1619
H7 H 0.2976 -0.1071 -0.1989
C21 C 0.06046(17) 0.06687(15) -0.25212(7)
H8 H 0.1048 0.1621 -0.2654
H9 H -0.0789 0.1199 -0.2336
C22 C 0.09727(18) -0.03024(16) -0.33170(7)
H10 H 0.0495 -0.1233 -0.3188
H11 H 0.0233 0.0514 -0.3741
C23 C 0.30764(19) -0.11102(19) -0.36914(8)
H12 H 0.3782 -0.2058 -0.3304
H13 H 0.3608 -0.0218 -0.3737
C24 C 0.3418(2) -0.1838(2) -0.45534(9)
H14 H 0.4798 -0.2562 -0.4693
H15 H 0.2724 -0.2600 -0.4527
C25 C 0.2783(2) -0.0454(2) -0.52483(9)
H16 H 0.1405 0.0239 -0.5128
H17 H 0.3062 -0.1010 -0.5782
H18 H 0.3470 0.0302 -0.5283
C26 C -0.02384(16) 0.59966(14) 0.06691(7)
H19 H -0.0390 0.6645 0.1138
O1A O -0.12231(12) 0.93180(10) 0.11509(5)
F1A F -0.42465(10) 0.56988(10) -0.20128(5)
F2A F -0.37444(13) 0.43484(11) -0.35072(6)
F3A F -0.03902(15) 0.35986(11) -0.45388(5)
F4A F 0.25162(13) 0.41383(11) -0.40535(5)
F5A F 0.20492(10) 0.55512(9) -0.25831(5)
C1A C -0.34686(17) 0.92867(15) -0.22658(7)
H1A H -0.3272 0.8592 -0.2723
C2A C -0.46042(17) 1.10721(16) -0.23292(8)
H2A H -0.5204 1.1567 -0.2815
C3A C -0.48452(17) 1.21016(15) -0.16858(8)
H3A H -0.5624 1.3309 -0.1726
C4A C -0.39417(17) 1.13760(15) -0.09630(7)
C5A C -0.40917(18) 1.24579(15) -0.03332(8)
H4A H -0.4833 1.3672 -0.0387
C6A C -0.31802(18) 1.17779(15) 0.03555(7)
H5A H -0.3258 1.2529 0.0767
C7A C -0.21261(16) 0.99757(15) 0.04624(7)
C8A C -0.19576(16) 0.88051(14) -0.01322(7)
C9A C -0.09684(16) 0.68945(14) -0.00402(7)
C10A C -0.07403(16) 0.58641(14) -0.07459(7)
C11A C -0.14857(17) 0.66582(15) -0.14764(7)
C12A C -0.26168(16) 0.85000(14) -0.15474(7)
C13A C -0.28452(16) 0.95527(14) -0.08694(7)
C14A C -0.11303(17) 0.56674(15) -0.22375(7)
C15A C 0.05711(18) 0.52493(15) -0.27820(8)
C16A C 0.0832(2) 0.45640(16) -0.35547(8)
C17A C -0.0633(2) 0.42810(16) -0.37994(8)
C18A C -0.2334(2) 0.46504(16) -0.32730(8)
C19A C -0.25512(18) 0.53249(15) -0.25029(8)
C20A C -0.15854(17) 1.04685(15) 0.18106(7)
H6A H -0.1057 1.1350 0.1619
H7A H -0.2976 1.1071 0.1989
C21A C -0.06046(17) 0.93313(15) 0.25212(7)
H8A H -0.1048 0.8379 0.2654
H9A H 0.0789 0.8801 0.2336
C22A C -0.09727(18) 1.03024(16) 0.33170(7)
H10A H -0.0495 1.1233 0.3188
H11A H -0.0233 0.9486 0.3741
C23A C -0.30764(19) 1.11102(19) 0.36914(8)
H12A H -0.3782 1.2058 0.3304
H13A H -0.3608 1.0218 0.3737
C24A C -0.3418(2) 1.1838(2) 0.45534(9)
H14A H -0.4798 1.2562 0.4693
H15A H -0.2724 1.2600 0.4527
C25A C -0.2783(2) 1.0454(2) 0.52483(9)
H16A H -0.1405 0.9761 0.5128
H17A H -0.3062 1.1010 0.5782
H18A H -0.3470 0.9698 0.5283
C26A C 0.02384(16) 0.40034(14) -0.06691(7)
H19A H 0.0390 0.3355 -0.1138
loop_
_geom_bond_atom_site_label_1
_geom_bond_atom_site_label_2
_geom_bond_site_symmetry_1
_geom_bond_site_symmetry_2
O1 C7 1_555 1_555
F1 C19 1_555 1_555
F2 C18 1_555 1_555
F3 C17 1_555 1_555
F4 C16 1_555 1_555
F5 C15 1_555 1_555
C1 H1 1_555 1_555
C2 C1 1_555 1_555
H2 C2 1_555 1_555
C3 C2 1_555 1_555
H3 C3 1_555 1_555
C4 C3 1_555 1_555
C5 C4 1_555 1_555
H4 C5 1_555 1_555
C6 C5 1_555 1_555
H5 C6 1_555 1_555
C7 C6 1_555 1_555
C8 C7 1_555 1_555
C9 C8 1_555 1_555
C10 C9 1_555 1_555
C11 C10 1_555 1_555
C12 C1 1_555 1_555
C13 C4 1_555 1_555
C14 C11 1_555 1_555
C15 C14 1_555 1_555
C16 C15 1_555 1_555
C17 C16 1_555 1_555
C18 C17 1_555 1_555
C19 C14 1_555 1_555
C20 O1 1_555 1_555
H6 C20 1_555 1_555
H7 C20 1_555 1_555
C21 C20 1_555 1_555
H8 C21 1_555 1_555
H9 C21 1_555 1_555
C22 C21 1_555 1_555
H10 C22 1_555 1_555
H11 C22 1_555 1_555
C23 C22 1_555 1_555
H12 C23 1_555 1_555
H13 C23 1_555 1_555
C24 C23 1_555 1_555
H14 C24 1_555 1_555
H15 C24 1_555 1_555
C25 C24 1_555 1_555
H16 C25 1_555 1_555
H17 C25 1_555 1_555
H18 C25 1_555 1_555
C26 C10 1_555 1_555
H19 C26 1_555 1_555
O1A C7A 1_555 1_555
F1A C19A 1_555 1_555
F2A C18A 1_555 1_555
F3A C17A 1_555 1_555
F4A C16A 1_555 1_555
F5A C15A 1_555 1_555
C1A H1A 1_555 1_555
C2A C1A 1_555 1_555
H2A C2A 1_555 1_555
C3A C2A 1_555 1_555
H3A C3A 1_555 1_555
C4A C3A 1_555 1_555
C5A C4A 1_555 1_555
H4A C5A 1_555 1_555
C6A C5A 1_555 1_555
H5A C6A 1_555 1_555
C7A C6A 1_555 1_555
C8A C7A 1_555 1_555
C9A C26 1_555 1_555
C10A C9A 1_555 1_555
C11A C10A 1_555 1_555
C12A C1A 1_555 1_555
C13A C4A 1_555 1_555
C14A C11A 1_555 1_555
C15A C14A 1_555 1_555
C16A C15A 1_555 1_555
C17A C16A 1_555 1_555
C18A C17A 1_555 1_555
C19A C14A 1_555 1_555
C20A O1A 1_555 1_555
H6A C20A 1_555 1_555
H7A C20A 1_555 1_555
C21A C20A 1_555 1_555
H8A C21A 1_555 1_555
H9A C21A 1_555 1_555
C22A C21A 1_555 1_555
H10A C22A 1_555 1_555
H11A C22A 1_555 1_555
C23A C22A 1_555 1_555
H12A C23A 1_555 1_555
H13A C23A 1_555 1_555
C24A C23A 1_555 1_555
H14A C24A 1_555 1_555
H15A C24A 1_555 1_555
C25A C24A 1_555 1_555
H16A C25A 1_555 1_555
H17A C25A 1_555 1_555
H18A C25A 1_555 1_555
C26A C9 1_555 1_555
H19A C26A 1_555 1_555
C8 C13 1_555 1_555
C11 C12 1_555 1_555
C12 C13 1_555 1_555
C18 C19 1_555 1_555
C8A C9A 1_555 1_555
C8A C13A 1_555 1_555
C10A C26A 1_555 1_555
C11A C12A 1_555 1_555
C12A C13A 1_555 1_555
C18A C19A 1_555 1_555

#END
