
#######################################################################
#
#                 Cambridge Crystallographic Data Centre
#                                CCDC 
#
#######################################################################
#
# If this CIF has been generated from an entry in the Cambridge 
# Structural Database, then it will include bibliographic, chemical, 
# crystal, experimental, refinement or atomic coordinate data resulting 
# from the CCDC's data processing and validation procedures.
#
#######################################################################

data_FABRIJ02
_chemical_formula_moiety         'C18 H11 N7 O10,C1 H2 Cl2'
_chemical_name_systematic        
'2,2-bis(p-Nitrophenyl)-1-picrylhydrazine dichloromethane solvate'
_symmetry_cell_setting           monoclinic
_symmetry_space_group_name_H-M   'P 21/c'
_symmetry_Int_Tables_number      14
_space_group_name_Hall           '-P 2ybc'
loop_
_symmetry_equiv_pos_site_id
_symmetry_equiv_pos_as_xyz
1 x,y,z
2 -x,1/2+y,1/2-z
3 -x,-y,-z
4 x,1/2-y,1/2+z
_cell_length_a                   8.999(3)
_cell_length_b                   25.041(11)
_cell_length_c                   12.207(5)
_cell_angle_alpha                90
_cell_angle_beta                 121.66(2)
_cell_angle_gamma                90
_cell_volume                     2341.4
_exptl_crystal_colour            orange
_chemical_melting_point          119.5deg.C
_cell_formula_units_Z            4
loop_
_atom_site_label
_atom_site_type_symbol
_atom_site_fract_x
_atom_site_fract_y
_atom_site_fract_z
H1 H 1.000(4) 0.397(1) 0.579(3)
C1 C 0.7946(3) 0.38650(9) 0.5864(2)
C2 C 0.6759(3) 0.42040(9) 0.4841(2)
C3 C 0.5139(3) 0.4332(1) 0.4629(2)
C4 C 0.4635(3) 0.4119(1) 0.5416(2)
C5 C 0.5633(3) 0.3741(1) 0.6341(2)
C6 C 0.7217(3) 0.3606(1) 0.6514(2)
N1 N 0.7198(3) 0.44422(9) 0.3958(2)
O1 O 0.6096(3) 0.4708(1) 0.3063(2)
O2 O 0.8655(2) 0.43695(9) 0.4140(2)
N2 N 0.2959(3) 0.42767(9) 0.5227(2)
O3 O 0.2554(2) 0.40869(9) 0.5959(2)
O4 O 0.2069(2) 0.45935(9) 0.4372(2)
N3 N 0.8053(3) 0.31301(9) 0.7303(2)
O5 O 0.8461(3) 0.27784(8) 0.6819(2)
O6 O 0.8164(3) 0.3097(1) 0.8338(2)
N4 N 0.9625(3) 0.38038(9) 0.6209(2)
N5 N 1.0864(3) 0.36337(8) 0.7459(2)
C7 C 1.2036(3) 0.3241(1) 0.7526(2)
C8 C 1.3665(3) 0.3175(1) 0.8656(3)
C9 C 1.4786(3) 0.2780(1) 0.8728(3)
C10 C 1.4296(3) 0.2463(1) 0.7674(3)
C11 C 1.2702(4) 0.2529(1) 0.6538(3)
C12 C 1.1567(3) 0.2913(1) 0.6473(2)
N6 N 1.5469(3) 0.2040(1) 0.7752(2)
O7 O 1.6797(3) 0.1953(1) 0.8780(2)
O8 O 1.5087(5) 0.1788(2) 0.6804(3)
C13 C 1.1416(3) 0.4045(1) 0.8421(2)
C14 C 1.1401(4) 0.3936(1) 0.9524(3)
C15 C 1.1872(4) 0.4324(1) 1.0455(3)
C16 C 1.2350(3) 0.4816(1) 1.0262(3)
C17 C 1.2384(5) 0.4934(1) 0.9177(3)
C18 C 1.1893(5) 0.4545(1) 0.8238(3)
N7 N 1.2825(3) 0.5230(1) 1.1243(2)
O9 O 1.2432(3) 0.5160(1) 1.2057(2)
O10 O 1.3622(4) 0.5623(1) 1.1212(3)
H2 H 0.444(4) 0.455(1) 0.396(3)
H3 H 0.526(4) 0.359(1) 0.685(3)
H4 H 1.396(5) 0.340(1) 0.936(3)
H5 H 1.586(4) 0.273(1) 0.949(3)
H6 H 1.242(4) 0.230(1) 0.584(3)
H7 H 1.049(5) 0.294(1) 0.572(3)
H8 H 1.105(5) 0.361(2) 0.967(4)
H9 H 1.187(5) 0.429(1) 1.121(4)
H10 H 1.277(5) 0.527(2) 0.908(4)
H11 H 1.184(6) 0.462(2) 0.747(4)
C19 C 0.9534(5) 0.3448(2) 0.2667(4)
Cl1 Cl 1.1646(1) 0.31922(5) 0.3492(1)
Cl2 Cl 0.8738(2) 0.35391(6) 0.1035(1)
H12 H 0.963(7) 0.381(2) 0.298(5)
H13 H 0.875(7) 0.326(2) 0.275(5)
loop_
_geom_bond_atom_site_label_1
_geom_bond_atom_site_label_2
_geom_bond_site_symmetry_1
_geom_bond_site_symmetry_2
H1 N4 1_555 1_555
C1 C2 1_555 1_555
C2 C3 1_555 1_555
C3 C4 1_555 1_555
C4 C5 1_555 1_555
C5 C6 1_555 1_555
C6 C1 1_555 1_555
N1 C2 1_555 1_555
O1 N1 1_555 1_555
O2 N1 1_555 1_555
N2 C4 1_555 1_555
O3 N2 1_555 1_555
O4 N2 1_555 1_555
N3 C6 1_555 1_555
O5 N3 1_555 1_555
O6 N3 1_555 1_555
N4 C1 1_555 1_555
N5 N4 1_555 1_555
C7 N5 1_555 1_555
C8 C7 1_555 1_555
C9 C8 1_555 1_555
C10 C9 1_555 1_555
C11 C10 1_555 1_555
C12 C7 1_555 1_555
N6 C10 1_555 1_555
O7 N6 1_555 1_555
O8 N6 1_555 1_555
C13 N5 1_555 1_555
C14 C13 1_555 1_555
C15 C14 1_555 1_555
C16 C15 1_555 1_555
C17 C16 1_555 1_555
C18 C13 1_555 1_555
N7 C16 1_555 1_555
O9 N7 1_555 1_555
O10 N7 1_555 1_555
H2 C3 1_555 1_555
H3 C5 1_555 1_555
H4 C8 1_555 1_555
H5 C9 1_555 1_555
H6 C11 1_555 1_555
H7 C12 1_555 1_555
H8 C14 1_555 1_555
H9 C15 1_555 1_555
H10 C17 1_555 1_555
H11 C18 1_555 1_555
C19 Cl1 1_555 1_555
Cl2 C19 1_555 1_555
H12 C19 1_555 1_555
H13 C19 1_555 1_555
C11 C12 1_555 1_555
C17 C18 1_555 1_555

#END
