
#######################################################################
#
#                 Cambridge Crystallographic Data Centre
#                                CCDC 
#
#######################################################################
#
# If this CIF has been generated from an entry in the Cambridge 
# Structural Database, then it will include bibliographic, chemical, 
# crystal, experimental, refinement or atomic coordinate data resulting 
# from the CCDC's data processing and validation procedures.
#
#######################################################################

data_FABRUY
_chemical_formula_moiety         'C58 H60 O2'
_chemical_name_systematic        
1,9-bis(Hexyloxy)-7,15-dimesityldibenzo[de,op]pentacene
_symmetry_cell_setting           monoclinic
_symmetry_space_group_name_H-M   'C 2/c'
_symmetry_Int_Tables_number      15
_space_group_name_Hall           '-C 2yn'
loop_
_symmetry_equiv_pos_site_id
_symmetry_equiv_pos_as_xyz
1 x,y,z
2 -x,y,1/2-z
3 1/2+x,1/2+y,z
4 1/2-x,1/2+y,1/2-z
5 -x,-y,-z
6 x,-y,1/2+z
7 1/2-x,1/2-y,-z
8 1/2+x,1/2-y,1/2+z
_cell_length_a                   26.3642(16)
_cell_length_b                   16.1386(9)
_cell_length_c                   23.420(2)
_cell_angle_alpha                90
_cell_angle_beta                 119.4610(18)
_cell_angle_gamma                90
_cell_volume                     8676.23
_exptl_crystal_colour            black
_exptl_crystal_description       Block
_cell_formula_units_Z            8
loop_
_atom_site_label
_atom_site_type_symbol
_atom_site_fract_x
_atom_site_fract_y
_atom_site_fract_z
O1 O 0.58775(4) 0.67289(5) 0.41942(5)
C1 C 0.78771(5) 0.82262(7) 0.52187(6)
C2 C 0.81005(5) 0.74416(7) 0.53000(6)
H1 H 0.8512 0.7383 0.5507
C3 C 0.77533(5) 0.67025(7) 0.50924(6)
C4 C 0.80271(5) 0.59430(7) 0.51922(6)
C5 C 0.76905(5) 0.51922(7) 0.49993(6)
C6 C 0.79609(6) 0.44191(8) 0.51114(7)
H2 H 0.8374 0.4392 0.5324
C7 C 0.76378(6) 0.36816(8) 0.49176(7)
H3 H 0.7832 0.3164 0.4992
C8 C 0.70453(6) 0.37068(8) 0.46231(6)
H4 H 0.6829 0.3205 0.4490
C9 C 0.67476(6) 0.44745(8) 0.45123(6)
C10 C 0.61356(6) 0.45028(8) 0.42305(6)
H5 H 0.5919 0.4001 0.4110
C11 C 0.58519(6) 0.52392(8) 0.41297(6)
H6 H 0.5441 0.5243 0.3946
C12 C 0.61578(5) 0.59945(8) 0.42924(6)
C13 C 0.67718(5) 0.60114(7) 0.45768(6)
C14 C 0.70655(5) 0.52338(7) 0.46916(6)
C15 C 0.52579(5) 0.67511(9) 0.39683(7)
H7 H 0.5160 0.7280 0.4105
H8 H 0.5156 0.6293 0.4175
C16 C 0.49012(6) 0.66694(9) 0.32258(6)
H9 H 0.5028 0.6168 0.3086
H10 H 0.4976 0.7156 0.3020
C17 C 0.42471(6) 0.66096(9) 0.29857(7)
H11 H 0.4177 0.6154 0.3222
H12 H 0.4114 0.7132 0.3092
C18 C 0.38898(6) 0.64530(9) 0.22483(7)
H13 H 0.4026 0.5932 0.2144
H14 H 0.3962 0.6909 0.2015
C19 C 0.32316(6) 0.63886(9) 0.19922(7)
H15 H 0.3043 0.6149 0.1545
H16 H 0.3164 0.6003 0.2277
C20 C 0.29461(7) 0.72080(10) 0.19696(9)
H17 H 0.3138 0.7459 0.2407
H18 H 0.2533 0.7118 0.1827
H19 H 0.2982 0.7579 0.1660
C21 C 0.86773(5) 0.59022(7) 0.54842(7)
C22 C 0.90394(6) 0.58308(9) 0.61626(7)
C23 C 0.96449(6) 0.58170(10) 0.64194(8)
H20 H 0.9890 0.5760 0.6880
C24 C 0.98957(6) 0.58843(9) 0.60232(8)
C25 C 0.95299(6) 0.59602(8) 0.53516(7)
H21 H 0.9696 0.6008 0.5073
C26 C 0.89249(6) 0.59679(8) 0.50745(7)
C27 C 0.87858(7) 0.58032(13) 0.66150(8)
H22 H 0.8690 0.6367 0.6686
H23 H 0.9071 0.5561 0.7036
H24 H 0.8432 0.5464 0.6417
C28 C 1.05513(7) 0.58885(11) 0.63065(10)
H25 H 1.0740 0.5726 0.6769
H26 H 1.0679 0.6446 0.6270
H27 H 1.0658 0.5496 0.6064
C29 C 0.85473(7) 0.60785(11) 0.43472(7)
H28 H 0.8403 0.6650 0.4254
H29 H 0.8217 0.5695 0.4184
H30 H 0.8776 0.5963 0.4129
O1F O 0.91225(4) 0.82711(5) 0.58058(5)
C1F C 0.71229(5) 0.67738(7) 0.47813(6)
C2F C 0.68995(5) 0.75584(7) 0.47000(6)
H1F H 0.6488 0.7617 0.4493
C3F C 0.72467(5) 0.82975(7) 0.49076(6)
C4F C 0.69729(5) 0.90570(7) 0.48078(6)
C5F C 0.73095(5) 0.98078(7) 0.50007(6)
C6F C 0.70391(6) 1.05809(8) 0.48886(7)
H2F H 0.6626 1.0608 0.4676
C7F C 0.73622(6) 1.13184(8) 0.50824(7)
H3F H 0.7168 1.1836 0.5008
C8F C 0.79547(6) 1.12932(8) 0.53769(6)
H4F H 0.8171 1.1795 0.5510
C9F C 0.82524(6) 1.05255(8) 0.54877(6)
C10F C 0.88644(6) 1.04972(8) 0.57695(6)
H5F H 0.9081 1.0999 0.5890
C11F C 0.91481(6) 0.97608(8) 0.58703(6)
H6F H 0.9559 0.9757 0.6054
C12F C 0.88422(5) 0.90055(8) 0.57076(6)
C13F C 0.82282(5) 0.89886(7) 0.54232(6)
C14F C 0.79345(5) 0.97662(7) 0.53084(6)
C15F C 0.97421(5) 0.82489(9) 0.60317(7)
H7F H 0.9840 0.7720 0.5895
H8F H 0.9844 0.8707 0.5825
C16F C 1.00988(6) 0.83306(9) 0.67742(6)
H9F H 0.9972 0.8832 0.6914
H10F H 1.0024 0.7844 0.6980
C17F C 1.07529(6) 0.83904(9) 0.70143(7)
H11F H 1.0823 0.8846 0.6778
H12F H 1.0886 0.7868 0.6908
C18F C 1.11102(6) 0.85470(9) 0.77517(7)
H13F H 1.0974 0.9068 0.7856
H14F H 1.1038 0.8091 0.7985
C19F C 1.17684(6) 0.86114(9) 0.80078(7)
H15F H 1.1957 0.8851 0.8455
H16F H 1.1836 0.8997 0.7723
C20F C 1.20539(7) 0.77920(10) 0.80304(9)
H17F H 1.1862 0.7541 0.7593
H18F H 1.2467 0.7882 0.8173
H19F H 1.2018 0.7421 0.8340
C21F C 0.63227(5) 0.90978(7) 0.45158(7)
C22F C 0.59606(6) 0.91692(9) 0.38374(7)
C23F C 0.53551(6) 0.91830(10) 0.35806(8)
H20F H 0.5110 0.9240 0.3120
C24F C 0.51043(6) 0.91157(9) 0.39768(8)
C25F C 0.54701(6) 0.90398(8) 0.46484(7)
H21F H 0.5304 0.8992 0.4927
C26F C 0.60751(6) 0.90321(8) 0.49255(7)
C27F C 0.62142(7) 0.91968(13) 0.33850(8)
H22F H 0.6310 0.8633 0.3314
H23F H 0.5929 0.9439 0.2964
H24F H 0.6568 0.9536 0.3583
C28F C 0.44487(7) 0.91115(11) 0.36935(10)
H25F H 0.4260 0.9274 0.3231
H26F H 0.4321 0.8554 0.3730
H27F H 0.4342 0.9504 0.3936
C29F C 0.64527(7) 0.89215(11) 0.56528(7)
H28F H 0.6597 0.8350 0.5746
H29F H 0.6783 0.9305 0.5816
H30F H 0.6224 0.9037 0.5871
O2 O 0.34427(4) 0.59821(6) 0.39534(5)
C30 C 0.53391(5) 0.42508(7) 0.51148(6)
C31 C 0.55340(5) 0.48875(7) 0.55630(6)
H31 H 0.5893 0.4816 0.5957
C32 C 0.52274(5) 0.56511(7) 0.54698(5)
C33 C 0.54810(5) 0.62893(7) 0.59180(6)
C34 C 0.52054(5) 0.70900(7) 0.57893(6)
C35 C 0.54811(6) 0.77634(8) 0.62010(6)
H32 H 0.5860 0.7692 0.6566
C36 C 0.52127(6) 0.85415(8) 0.60888(6)
H33 H 0.5413 0.8993 0.6371
C37 C 0.46618(6) 0.86512(8) 0.55734(6)
H34 H 0.4480 0.9178 0.5501
C38 C 0.43601(5) 0.79836(8) 0.51457(6)
C39 C 0.37829(6) 0.80760(8) 0.46336(7)
H35 H 0.3601 0.8604 0.4553
C40 C 0.34806(6) 0.74170(9) 0.42505(7)
H36 H 0.3084 0.7485 0.3924
C41 C 0.37489(5) 0.66390(8) 0.43342(6)
C42 C 0.43381(5) 0.65217(7) 0.48016(6)
C43 C 0.46337(5) 0.71978(7) 0.52357(6)
C44 C 0.28261(5) 0.59282(9) 0.37445(7)
H37 H 0.2739 0.6288 0.4028
H38 H 0.2729 0.5351 0.3797
C45 C 0.24522(6) 0.61907(9) 0.30353(7)
H39 H 0.2543 0.5837 0.2752
H40 H 0.2545 0.6771 0.2984
C46 C 0.18018(5) 0.61196(9) 0.28149(7)
H41 H 0.1574 0.6216 0.2336
H42 H 0.1719 0.5549 0.2901
C47 C 0.15989(6) 0.67312(9) 0.31600(7)
H43 H 0.1841 0.6652 0.3640
H44 H 0.1668 0.7301 0.3058
C48 C 0.09625(6) 0.66504(11) 0.29742(8)
H45 H 0.0717 0.6738 0.2496
H46 H 0.0890 0.6081 0.3074
C49 C 0.07840(6) 0.72623(10) 0.33327(8)
H47 H 0.0998 0.7144 0.3804
H48 H 0.0365 0.7213 0.3172
H49 H 0.0873 0.7826 0.3254
C50 C 0.60533(5) 0.61649(7) 0.65298(6)
C51 C 0.65748(5) 0.62172(8) 0.65095(6)
C52 C 0.71010(5) 0.60810(8) 0.70815(6)
H50 H 0.7454 0.6116 0.7067
C53 C 0.71229(6) 0.58953(8) 0.76725(6)
C54 C 0.66041(6) 0.58550(8) 0.76875(6)
H51 H 0.6614 0.5735 0.8090
C55 C 0.60667(5) 0.59858(7) 0.71252(6)
C56 C 0.65700(6) 0.63855(10) 0.58748(7)
H52 H 0.6443 0.5887 0.5601
H53 H 0.6963 0.6538 0.5967
H54 H 0.6301 0.6841 0.5644
C57 C 0.76975(7) 0.57160(10) 0.82748(7)
H55 H 0.7820 0.5150 0.8250
H56 H 0.7655 0.5772 0.8666
H57 H 0.7991 0.6109 0.8300
C58 C 0.55134(6) 0.59192(9) 0.71615(7)
H58 H 0.5609 0.5798 0.7614
H59 H 0.5271 0.5472 0.6872
H60 H 0.5300 0.6444 0.7022
O2D O 0.65573(4) 0.40179(6) 0.60466(5)
C30D C 0.46609(5) 0.57492(7) 0.48852(6)
C31D C 0.44660(5) 0.51125(7) 0.44370(6)
H31D H 0.4107 0.5184 0.4043
C32D C 0.47726(5) 0.43489(7) 0.45302(5)
C33D C 0.45190(5) 0.37107(7) 0.40820(6)
C34D C 0.47946(5) 0.29100(7) 0.42107(6)
C35D C 0.45189(6) 0.22366(8) 0.37990(6)
H32D H 0.4140 0.2308 0.3434
C36D C 0.47873(6) 0.14585(8) 0.39112(6)
H33D H 0.4587 0.1007 0.3629
C37D C 0.53382(6) 0.13488(8) 0.44266(6)
H34D H 0.5520 0.0822 0.4499
C38D C 0.56399(5) 0.20164(8) 0.48543(6)
C39D C 0.62171(6) 0.19240(8) 0.53664(7)
H35D H 0.6399 0.1396 0.5447
C40D C 0.65194(6) 0.25830(9) 0.57495(7)
H36D H 0.6916 0.2515 0.6076
C41D C 0.62511(5) 0.33610(8) 0.56658(6)
C42D C 0.56619(5) 0.34783(7) 0.51984(6)
C43D C 0.53663(5) 0.28022(7) 0.47643(6)
C44D C 0.71739(5) 0.40718(9) 0.62555(7)
H37D H 0.7261 0.3712 0.5972
H38D H 0.7271 0.4649 0.6203
C45D C 0.75478(6) 0.38093(9) 0.69647(7)
H39D H 0.7457 0.4163 0.7248
H40D H 0.7455 0.3229 0.7016
C46D C 0.81982(5) 0.38804(9) 0.71851(7)
H41D H 0.8426 0.3784 0.7664
H42D H 0.8281 0.4451 0.7099
C47D C 0.84011(6) 0.32688(9) 0.68400(7)
H43D H 0.8159 0.3348 0.6360
H44D H 0.8332 0.2699 0.6942
C48D C 0.90375(6) 0.33496(11) 0.70258(8)
H45D H 0.9283 0.3262 0.7504
H46D H 0.9110 0.3919 0.6926
C49D C 0.92160(6) 0.27377(10) 0.66673(8)
H47D H 0.9002 0.2856 0.6196
H48D H 0.9635 0.2787 0.6828
H49D H 0.9127 0.2174 0.6746
C50D C 0.39467(5) 0.38351(7) 0.34702(6)
C51D C 0.34252(5) 0.37828(8) 0.34905(6)
C52D C 0.28990(5) 0.39190(8) 0.29185(6)
H50D H 0.2546 0.3884 0.2933
C53D C 0.28771(6) 0.41047(8) 0.23275(6)
C54D C 0.33959(6) 0.41450(8) 0.23125(6)
H51D H 0.3386 0.4265 0.1910
C55D C 0.39333(5) 0.40142(7) 0.28748(6)
C56D C 0.34300(6) 0.36145(10) 0.41252(7)
H52D H 0.3557 0.4113 0.4399
H53D H 0.3037 0.3462 0.4033
H54D H 0.3699 0.3159 0.4356
C57D C 0.23025(7) 0.42840(10) 0.17252(7)
H55D H 0.2180 0.4850 0.1750
H56D H 0.2345 0.4228 0.1334
H57D H 0.2009 0.3891 0.1700
C58D C 0.44866(6) 0.40808(9) 0.28385(7)
H58D H 0.4391 0.4202 0.2386
H59D H 0.4729 0.4528 0.3128
H60D H 0.4700 0.3556 0.2978
loop_
_geom_bond_atom_site_label_1
_geom_bond_atom_site_label_2
_geom_bond_site_symmetry_1
_geom_bond_site_symmetry_2
O1 C12 1_555 1_555
C1 C2 1_555 1_555
C2 H1 1_555 1_555
C3 C2 1_555 1_555
C4 C3 1_555 1_555
C5 C4 1_555 1_555
C6 C5 1_555 1_555
H2 C6 1_555 1_555
C7 C6 1_555 1_555
H3 C7 1_555 1_555
C8 C7 1_555 1_555
H4 C8 1_555 1_555
C9 C8 1_555 1_555
C10 C9 1_555 1_555
H5 C10 1_555 1_555
C11 C10 1_555 1_555
H6 C11 1_555 1_555
C12 C11 1_555 1_555
C13 C12 1_555 1_555
C14 C5 1_555 1_555
C15 O1 1_555 1_555
H7 C15 1_555 1_555
H8 C15 1_555 1_555
C16 C15 1_555 1_555
H9 C16 1_555 1_555
H10 C16 1_555 1_555
C17 C16 1_555 1_555
H11 C17 1_555 1_555
H12 C17 1_555 1_555
C18 C17 1_555 1_555
H13 C18 1_555 1_555
H14 C18 1_555 1_555
C19 C18 1_555 1_555
H15 C19 1_555 1_555
H16 C19 1_555 1_555
C20 C19 1_555 1_555
H17 C20 1_555 1_555
H18 C20 1_555 1_555
H19 C20 1_555 1_555
C21 C4 1_555 1_555
C22 C21 1_555 1_555
C23 C22 1_555 1_555
H20 C23 1_555 1_555
C24 C23 1_555 1_555
C25 C24 1_555 1_555
H21 C25 1_555 1_555
C26 C21 1_555 1_555
C27 C22 1_555 1_555
H22 C27 1_555 1_555
H23 C27 1_555 1_555
H24 C27 1_555 1_555
C28 C24 1_555 1_555
H25 C28 1_555 1_555
H26 C28 1_555 1_555
H27 C28 1_555 1_555
C29 C26 1_555 1_555
H28 C29 1_555 1_555
H29 C29 1_555 1_555
H30 C29 1_555 1_555
O2 C41 1_555 1_555
C30 C31 1_555 1_555
C31 H31 1_555 1_555
C32 C31 1_555 1_555
C33 C32 1_555 1_555
C34 C33 1_555 1_555
C35 C34 1_555 1_555
H32 C35 1_555 1_555
C36 C35 1_555 1_555
H33 C36 1_555 1_555
C37 C36 1_555 1_555
H34 C37 1_555 1_555
C38 C37 1_555 1_555
C39 C38 1_555 1_555
H35 C39 1_555 1_555
C40 C39 1_555 1_555
H36 C40 1_555 1_555
C41 C40 1_555 1_555
C42 C41 1_555 1_555
C43 C34 1_555 1_555
C44 O2 1_555 1_555
H37 C44 1_555 1_555
H38 C44 1_555 1_555
C45 C44 1_555 1_555
H39 C45 1_555 1_555
H40 C45 1_555 1_555
C46 C45 1_555 1_555
H41 C46 1_555 1_555
H42 C46 1_555 1_555
C47 C46 1_555 1_555
H43 C47 1_555 1_555
H44 C47 1_555 1_555
C48 C47 1_555 1_555
H45 C48 1_555 1_555
H46 C48 1_555 1_555
C49 C48 1_555 1_555
H47 C49 1_555 1_555
H48 C49 1_555 1_555
H49 C49 1_555 1_555
C50 C33 1_555 1_555
C51 C50 1_555 1_555
C52 C51 1_555 1_555
H50 C52 1_555 1_555
C53 C52 1_555 1_555
C54 C53 1_555 1_555
H51 C54 1_555 1_555
C55 C50 1_555 1_555
C56 C51 1_555 1_555
H52 C56 1_555 1_555
H53 C56 1_555 1_555
H54 C56 1_555 1_555
C57 C53 1_555 1_555
H55 C57 1_555 1_555
H56 C57 1_555 1_555
H57 C57 1_555 1_555
C58 C55 1_555 1_555
H58 C58 1_555 1_555
H59 C58 1_555 1_555
H60 C58 1_555 1_555
O1F C12F 1_555 1_555
C1F C3 1_555 1_555
C2F C1F 1_555 1_555
H1F C2F 1_555 1_555
C3F C1 1_555 1_555
C4F C3F 1_555 1_555
C5F C4F 1_555 1_555
C6F C5F 1_555 1_555
H2F C6F 1_555 1_555
C7F C6F 1_555 1_555
H3F C7F 1_555 1_555
C8F C7F 1_555 1_555
H4F C8F 1_555 1_555
C9F C8F 1_555 1_555
C10F C9F 1_555 1_555
H5F C10F 1_555 1_555
C11F C10F 1_555 1_555
H6F C11F 1_555 1_555
C12F C11F 1_555 1_555
C13F C1 1_555 1_555
C14F C5F 1_555 1_555
C15F O1F 1_555 1_555
H7F C15F 1_555 1_555
H8F C15F 1_555 1_555
C16F C15F 1_555 1_555
H9F C16F 1_555 1_555
H10F C16F 1_555 1_555
C17F C16F 1_555 1_555
H11F C17F 1_555 1_555
H12F C17F 1_555 1_555
C18F C17F 1_555 1_555
H13F C18F 1_555 1_555
H14F C18F 1_555 1_555
C19F C18F 1_555 1_555
H15F C19F 1_555 1_555
H16F C19F 1_555 1_555
C20F C19F 1_555 1_555
H17F C20F 1_555 1_555
H18F C20F 1_555 1_555
H19F C20F 1_555 1_555
C21F C4F 1_555 1_555
C22F C21F 1_555 1_555
C23F C22F 1_555 1_555
H20F C23F 1_555 1_555
C24F C23F 1_555 1_555
C25F C24F 1_555 1_555
H21F C25F 1_555 1_555
C26F C21F 1_555 1_555
C27F C22F 1_555 1_555
H22F C27F 1_555 1_555
H23F C27F 1_555 1_555
H24F C27F 1_555 1_555
C28F C24F 1_555 1_555
H25F C28F 1_555 1_555
H26F C28F 1_555 1_555
H27F C28F 1_555 1_555
C29F C26F 1_555 1_555
H28F C29F 1_555 1_555
H29F C29F 1_555 1_555
H30F C29F 1_555 1_555
O2D C41D 1_555 1_555
C30D C32 1_555 1_555
C31D C30D 1_555 1_555
H31D C31D 1_555 1_555
C32D C30 1_555 1_555
C33D C32D 1_555 1_555
C34D C33D 1_555 1_555
C35D C34D 1_555 1_555
H32D C35D 1_555 1_555
C36D C35D 1_555 1_555
H33D C36D 1_555 1_555
C37D C36D 1_555 1_555
H34D C37D 1_555 1_555
C38D C37D 1_555 1_555
C39D C38D 1_555 1_555
H35D C39D 1_555 1_555
C40D C39D 1_555 1_555
H36D C40D 1_555 1_555
C41D C40D 1_555 1_555
C42D C30 1_555 1_555
C43D C34D 1_555 1_555
C44D O2D 1_555 1_555
H37D C44D 1_555 1_555
H38D C44D 1_555 1_555
C45D C44D 1_555 1_555
H39D C45D 1_555 1_555
H40D C45D 1_555 1_555
C46D C45D 1_555 1_555
H41D C46D 1_555 1_555
H42D C46D 1_555 1_555
C47D C46D 1_555 1_555
H43D C47D 1_555 1_555
H44D C47D 1_555 1_555
C48D C47D 1_555 1_555
H45D C48D 1_555 1_555
H46D C48D 1_555 1_555
C49D C48D 1_555 1_555
H47D C49D 1_555 1_555
H48D C49D 1_555 1_555
H49D C49D 1_555 1_555
C50D C33D 1_555 1_555
C51D C50D 1_555 1_555
C52D C51D 1_555 1_555
H50D C52D 1_555 1_555
C53D C52D 1_555 1_555
C54D C53D 1_555 1_555
H51D C54D 1_555 1_555
C55D C50D 1_555 1_555
C56D C51D 1_555 1_555
H52D C56D 1_555 1_555
H53D C56D 1_555 1_555
H54D C56D 1_555 1_555
C57D C53D 1_555 1_555
H55D C57D 1_555 1_555
H56D C57D 1_555 1_555
H57D C57D 1_555 1_555
C58D C55D 1_555 1_555
H58D C58D 1_555 1_555
H59D C58D 1_555 1_555
H60D C58D 1_555 1_555
C9 C14 1_555 1_555
C13 C14 1_555 1_555
C13 C1F 1_555 1_555
C25 C26 1_555 1_555
C38 C43 1_555 1_555
C42 C43 1_555 1_555
C42 C30D 1_555 1_555
C54 C55 1_555 1_555
C2F C3F 1_555 1_555
C9F C14F 1_555 1_555
C12F C13F 1_555 1_555
C13F C14F 1_555 1_555
C25F C26F 1_555 1_555
C31D C32D 1_555 1_555
C38D C43D 1_555 1_555
C41D C42D 1_555 1_555
C42D C43D 1_555 1_555
C54D C55D 1_555 1_555

#END
