
#######################################################################
#
#                 Cambridge Crystallographic Data Centre
#                                CCDC 
#
#######################################################################
#
# If this CIF has been generated from an entry in the Cambridge 
# Structural Database, then it will include bibliographic, chemical, 
# crystal, experimental, refinement or atomic coordinate data resulting 
# from the CCDC's data processing and validation procedures.
#
#######################################################################

data_FABWIR
_chemical_formula_moiety         'C16 H9 Br1 Cl1 I1'
_chemical_name_systematic        7-(4-bromophenyl)-1-chloro-6-iodonaphthalene
_symmetry_cell_setting           monoclinic
_symmetry_space_group_name_H-M   'P 21/c'
_symmetry_Int_Tables_number      14
_space_group_name_Hall           '-P 2ybc'
loop_
_symmetry_equiv_pos_site_id
_symmetry_equiv_pos_as_xyz
1 x,y,z
2 -x,1/2+y,1/2-z
3 -x,-y,-z
4 x,1/2-y,1/2+z
_cell_length_a                   18.0026(6)
_cell_length_b                   4.1997(2)
_cell_length_c                   37.5864(12)
_cell_angle_alpha                90
_cell_angle_beta                 97.019(2)
_cell_angle_gamma                90
_cell_volume                     2820.44
_exptl_crystal_colour            colorless
_exptl_crystal_description       needle
_cell_formula_units_Z            8
loop_
_atom_site_label
_atom_site_type_symbol
_atom_site_fract_x
_atom_site_fract_y
_atom_site_fract_z
I1 I 0.438194(11) 0.55162(5) 0.043389(5)
Br1 Br 0.049041(17) 0.67582(10) 0.046413(9)
Cl1 Cl 0.36942(4) -0.2032(2) 0.214275(19)
C1 C 0.43571(15) 0.3338(7) 0.09375(6)
C2 C 0.50353(15) 0.2410(7) 0.11100(7)
H1 H 0.5483(17) 0.280(7) 0.1006(8)
C3 C 0.50914(15) 0.0892(7) 0.14483(7)
C4 C 0.57914(16) -0.0156(7) 0.16270(8)
H2 H 0.6270(19) 0.032(9) 0.1517(9)
C5 C 0.58276(18) -0.1702(8) 0.19474(8)
H3 H 0.6305(18) -0.226(7) 0.2072(8)
C6 C 0.51715(17) -0.2297(8) 0.21056(8)
H4 H 0.5178(17) -0.336(8) 0.2338(8)
C7 C 0.44973(15) -0.1260(7) 0.19410(7)
C8 C 0.44266(14) 0.0388(7) 0.16085(6)
C9 C 0.37408(15) 0.1483(7) 0.14275(7)
H5 H 0.3283(17) 0.130(8) 0.1539(8)
C10 C 0.36837(14) 0.2911(6) 0.10942(7)
C11 C 0.29268(14) 0.3914(7) 0.09279(6)
C12 C 0.24722(16) 0.5648(7) 0.11308(7)
H6 H 0.2692(18) 0.633(8) 0.1371(8)
C13 C 0.17544(16) 0.6506(8) 0.09907(8)
H7 H 0.149(2) 0.764(8) 0.1132(9)
C14 C 0.14776(15) 0.5572(7) 0.06490(7)
C15 C 0.19079(16) 0.3798(8) 0.04440(7)
H8 H 0.1739(16) 0.294(7) 0.0213(7)
C16 C 0.26325(16) 0.2965(7) 0.05858(7)
H9 H 0.2939(16) 0.166(7) 0.0441(8)
I2 I -0.204264(10) 0.26868(5) 0.199457(5)
Br2 Br 0.188636(17) 0.33214(9) 0.212631(9)
Cl2 Cl -0.12325(4) 1.1430(2) 0.038000(18)
C17 C -0.19964(15) 0.5047(6) 0.15053(6)
C18 C -0.26629(14) 0.5716(7) 0.13026(7)
H10 H -0.3120(15) 0.508(6) 0.1375(6)
C19 C -0.26918(14) 0.7379(7) 0.09743(7)
C20 C -0.33845(16) 0.8140(7) 0.07670(7)
H11 H -0.3833(17) 0.742(7) 0.0850(7)
C21 C -0.33926(17) 0.9833(8) 0.04571(8)
H12 H -0.3852(16) 1.032(7) 0.0321(7)
C22 C -0.27253(17) 1.0859(8) 0.03367(7)
H13 H -0.2708(16) 1.208(7) 0.0134(8)
C23 C -0.20527(15) 1.0114(7) 0.05323(6)
C24 C -0.20108(14) 0.8339(7) 0.08545(6)
C25 C -0.13306(15) 0.7526(7) 0.10632(7)
H14 H -0.0882(16) 0.815(7) 0.0977(7)
C26 C -0.13023(14) 0.5936(7) 0.13874(6)
C27 C -0.05499(14) 0.5227(6) 0.15821(6)
C28 C -0.00318(15) 0.3635(7) 0.14025(7)
H15 H -0.018(2) 0.289(9) 0.1175(10)
C29 C 0.06895(16) 0.3062(8) 0.15660(8)
H16 H 0.1028(18) 0.198(8) 0.1449(8)
C30 C 0.08895(15) 0.4097(7) 0.19124(7)
C31 C 0.03917(16) 0.5698(8) 0.20965(7)
H17 H 0.0537(16) 0.646(7) 0.2329(8)
C32 C -0.03309(16) 0.6241(8) 0.19309(7)
H18 H -0.0642(17) 0.754(7) 0.2042(8)
loop_
_geom_bond_atom_site_label_1
_geom_bond_atom_site_label_2
_geom_bond_site_symmetry_1
_geom_bond_site_symmetry_2
I1 C1 1_555 1_555
Br1 C14 1_555 1_555
Cl1 C7 1_555 1_555
C1 C2 1_555 1_555
C2 H1 1_555 1_555
C3 C2 1_555 1_555
C4 C3 1_555 1_555
H2 C4 1_555 1_555
C5 C4 1_555 1_555
H3 C5 1_555 1_555
C6 C5 1_555 1_555
H4 C6 1_555 1_555
C7 C6 1_555 1_555
C8 C3 1_555 1_555
C9 C8 1_555 1_555
H5 C9 1_555 1_555
C10 C1 1_555 1_555
C11 C10 1_555 1_555
C12 C11 1_555 1_555
H6 C12 1_555 1_555
C13 C12 1_555 1_555
H7 C13 1_555 1_555
C14 C13 1_555 1_555
C15 C14 1_555 1_555
H8 C15 1_555 1_555
C16 C11 1_555 1_555
H9 C16 1_555 1_555
I2 C17 1_555 1_555
Br2 C30 1_555 1_555
Cl2 C23 1_555 1_555
C17 C18 1_555 1_555
C18 H10 1_555 1_555
C19 C18 1_555 1_555
C20 C19 1_555 1_555
H11 C20 1_555 1_555
C21 C20 1_555 1_555
H12 C21 1_555 1_555
C22 C21 1_555 1_555
H13 C22 1_555 1_555
C23 C22 1_555 1_555
C24 C19 1_555 1_555
C25 C24 1_555 1_555
H14 C25 1_555 1_555
C26 C17 1_555 1_555
C27 C26 1_555 1_555
C28 C27 1_555 1_555
H15 C28 1_555 1_555
C29 C28 1_555 1_555
H16 C29 1_555 1_555
C30 C29 1_555 1_555
C31 C30 1_555 1_555
H17 C31 1_555 1_555
C32 C27 1_555 1_555
H18 C32 1_555 1_555
C7 C8 1_555 1_555
C9 C10 1_555 1_555
C15 C16 1_555 1_555
C23 C24 1_555 1_555
C25 C26 1_555 1_555
C31 C32 1_555 1_555

#END
