
#######################################################################
#
#                 Cambridge Crystallographic Data Centre
#                                CCDC 
#
#######################################################################
#
# If this CIF has been generated from an entry in the Cambridge 
# Structural Database, then it will include bibliographic, chemical, 
# crystal, experimental, refinement or atomic coordinate data resulting 
# from the CCDC's data processing and validation procedures.
#
#######################################################################

data_FABWEN
_chemical_formula_moiety         'C15 H8 Cl2 O1'
_chemical_name_systematic        4,5-dichloro-2-(phenylethynyl)benzaldehyde
_symmetry_cell_setting           monoclinic
_symmetry_space_group_name_H-M   'P 21/n'
_symmetry_Int_Tables_number      14
_space_group_name_Hall           '-P 2yn'
loop_
_symmetry_equiv_pos_site_id
_symmetry_equiv_pos_as_xyz
1 x,y,z
2 1/2-x,1/2+y,1/2-z
3 -x,-y,-z
4 1/2+x,1/2-y,1/2+z
_cell_length_a                   7.8925(5)
_cell_length_b                   5.9771(4)
_cell_length_c                   26.0176(16)
_cell_angle_alpha                90
_cell_angle_beta                 92.217(3)
_cell_angle_gamma                90
_cell_volume                     1226.44
_exptl_crystal_colour            colorless
_exptl_crystal_description       rod
_cell_formula_units_Z            4
loop_
_atom_site_label
_atom_site_type_symbol
_atom_site_fract_x
_atom_site_fract_y
_atom_site_fract_z
Cl1 Cl 0.87000(5) 0.36952(6) 0.083934(13)
Cl2 Cl 0.66496(5) -0.06789(6) 0.113098(12)
O1 O 0.57107(15) -0.45752(18) -0.06974(4)
C1 C 0.80709(17) 0.1760(2) 0.03759(5)
C2 C 0.71845(16) -0.0167(2) 0.05053(5)
C3 C 0.67060(17) -0.1687(2) 0.01262(5)
H1 H 0.6080(19) -0.297(3) 0.0200(6)
C4 C 0.71160(16) -0.1310(2) -0.03825(5)
C5 C 0.80172(16) 0.0623(2) -0.05150(5)
C6 C 0.84764(17) 0.2153(2) -0.01291(5)
H2 H 0.906(2) 0.346(3) -0.0211(6)
C7 C 0.65661(18) -0.2965(2) -0.07813(5)
H3 H 0.694(2) -0.256(3) -0.1127(6)
C8 C 0.84895(17) 0.1000(2) -0.10345(5)
C9 C 0.89283(18) 0.1153(2) -0.14672(5)
C10 C 0.94587(17) 0.1188(2) -0.19889(5)
C11 C 0.8968(2) -0.0544(3) -0.23231(6)
H4 H 0.826(2) -0.173(3) -0.2195(7)
C12 C 0.9500(2) -0.0546(3) -0.28241(6)
H5 H 0.919(3) -0.171(3) -0.3043(8)
C13 C 1.0525(2) 0.1144(3) -0.29952(6)
H6 H 1.088(2) 0.109(3) -0.3328(7)
C14 C 1.1012(2) 0.2858(3) -0.26683(6)
H7 H 1.174(3) 0.408(3) -0.2790(8)
C15 C 1.0481(2) 0.2892(3) -0.21661(5)
H8 H 1.084(2) 0.407(3) -0.1945(8)
loop_
_geom_bond_atom_site_label_1
_geom_bond_atom_site_label_2
_geom_bond_site_symmetry_1
_geom_bond_site_symmetry_2
Cl1 C1 1_555 1_555
Cl2 C2 1_555 1_555
O1 C7 1_555 1_555
C1 C2 1_555 1_555
C2 C3 1_555 1_555
C3 H1 1_555 1_555
C4 C3 1_555 1_555
C5 C4 1_555 1_555
C6 C1 1_555 1_555
H2 C6 1_555 1_555
C7 C4 1_555 1_555
H3 C7 1_555 1_555
C8 C5 1_555 1_555
C9 C8 1_555 1_555
C10 C9 1_555 1_555
C11 C10 1_555 1_555
H4 C11 1_555 1_555
C12 C11 1_555 1_555
H5 C12 1_555 1_555
C13 C12 1_555 1_555
H6 C13 1_555 1_555
C14 C13 1_555 1_555
H7 C14 1_555 1_555
C15 C10 1_555 1_555
H8 C15 1_555 1_555
C5 C6 1_555 1_555
C14 C15 1_555 1_555

#END
