
#######################################################################
#
#                 Cambridge Crystallographic Data Centre
#                                CCDC 
#
#######################################################################
#
# If this CIF has been generated from an entry in the Cambridge 
# Structural Database, then it will include bibliographic, chemical, 
# crystal, experimental, refinement or atomic coordinate data resulting 
# from the CCDC's data processing and validation procedures.
#
#######################################################################

data_FABXEO
_chemical_formula_moiety         'C17 H12 Br1 Cl1'
_chemical_name_systematic        
3-bromo-6-chloro-2-(4-methylphenyl)naphthalene
_symmetry_cell_setting           monoclinic
_symmetry_space_group_name_H-M   'P 21/n'
_symmetry_Int_Tables_number      14
_space_group_name_Hall           '-P 2yn'
loop_
_symmetry_equiv_pos_site_id
_symmetry_equiv_pos_as_xyz
1 x,y,z
2 1/2-x,1/2+y,1/2-z
3 -x,-y,-z
4 1/2+x,1/2-y,1/2+z
_cell_length_a                   15.1469(16)
_cell_length_b                   3.9839(5)
_cell_length_c                   23.108(3)
_cell_angle_alpha                90
_cell_angle_beta                 105.325(7)
_cell_angle_gamma                90
_cell_volume                     1344.84
_exptl_crystal_colour            colorless
_exptl_crystal_description       needle
_cell_formula_units_Z            4
loop_
_atom_site_label
_atom_site_type_symbol
_atom_site_fract_x
_atom_site_fract_y
_atom_site_fract_z
Br1 Br 0.899684(18) -0.54780(8) 0.122357(13)
Cl1 Cl 0.86988(6) 0.1886(3) -0.20114(3)
C1 C 0.82890(17) -0.3368(7) 0.05141(11)
C2 C 0.87178(18) -0.2748(7) 0.00795(12)
C3 C 0.82461(17) -0.1244(7) -0.04678(12)
C4 C 0.86748(19) -0.0538(8) -0.09309(13)
C5 C 0.81798(19) 0.0957(8) -0.14431(12)
C6 C 0.7252(2) 0.1776(8) -0.15391(13)
C7 C 0.68269(19) 0.1112(8) -0.10995(12)
C8 C 0.73085(17) -0.0415(7) -0.05532(11)
C9 C 0.68904(17) -0.1121(7) -0.00900(11)
C10 C 0.73481(17) -0.2553(7) 0.04495(11)
C11 C 0.68451(16) -0.3203(7) 0.09093(11)
C12 C 0.71581(18) -0.2098(7) 0.15010(12)
C13 C 0.66512(18) -0.2648(7) 0.19049(12)
C14 C 0.58161(18) -0.4329(7) 0.17440(12)
C15 C 0.55009(18) -0.5378(8) 0.11537(12)
C16 C 0.60025(17) -0.4825(7) 0.07431(12)
C17 C 0.5280(2) -0.4999(8) 0.21952(13)
H1 H 0.5658 -0.6243 0.2531
H2 H 0.4739 -0.6302 0.2008
H3 H 0.5098 -0.2884 0.2337
H4 H 0.6270(18) -0.055(7) -0.0159(11)
H5 H 0.5776(18) -0.565(7) 0.0344(12)
H6 H 0.934(2) -0.336(8) 0.0144(13)
H7 H 0.770(2) -0.087(8) 0.1604(13)
H8 H 0.6856(19) -0.183(8) 0.2287(13)
H9 H 0.620(2) 0.167(8) -0.1143(12)
H10 H 0.928(2) -0.113(8) -0.0895(13)
H11 H 0.695(2) 0.280(8) -0.1897(14)
H12 H 0.493(2) -0.647(9) 0.1040(13)
loop_
_geom_bond_atom_site_label_1
_geom_bond_atom_site_label_2
_geom_bond_site_symmetry_1
_geom_bond_site_symmetry_2
Br1 C1 1_555 1_555
Cl1 C5 1_555 1_555
C1 C2 1_555 1_555
C2 C3 1_555 1_555
C3 C4 1_555 1_555
C4 C5 1_555 1_555
C5 C6 1_555 1_555
C6 C7 1_555 1_555
C7 C8 1_555 1_555
C8 C3 1_555 1_555
C9 C8 1_555 1_555
C10 C1 1_555 1_555
C11 C10 1_555 1_555
C12 C11 1_555 1_555
C13 C12 1_555 1_555
C14 C13 1_555 1_555
C15 C14 1_555 1_555
C16 C11 1_555 1_555
C17 C14 1_555 1_555
H1 C17 1_555 1_555
H2 C17 1_555 1_555
H3 C17 1_555 1_555
H4 C9 1_555 1_555
H5 C16 1_555 1_555
H6 C2 1_555 1_555
H7 C12 1_555 1_555
H8 C13 1_555 1_555
H9 C7 1_555 1_555
H10 C4 1_555 1_555
H11 C6 1_555 1_555
H12 C15 1_555 1_555
C9 C10 1_555 1_555
C15 C16 1_555 1_555

#END
