
#######################################################################
#
#                 Cambridge Crystallographic Data Centre
#                                CCDC 
#
#######################################################################
#
# If this CIF has been generated from an entry in the Cambridge 
# Structural Database, then it will include bibliographic, chemical, 
# crystal, experimental, refinement or atomic coordinate data resulting 
# from the CCDC's data processing and validation procedures.
#
#######################################################################

data_FABXIS
_chemical_formula_moiety         'C19 H16 Br1 Cl1'
_chemical_name_systematic        2-bromo-6-chloro-3-mesitylnaphthalene
_symmetry_cell_setting           triclinic
_symmetry_space_group_name_H-M   'P -1'
_symmetry_Int_Tables_number      2
_space_group_name_Hall           '-P 1'
loop_
_symmetry_equiv_pos_site_id
_symmetry_equiv_pos_as_xyz
1 x,y,z
2 -x,-y,-z
_cell_length_a                   7.4170(14)
_cell_length_b                   8.1704(14)
_cell_length_c                   13.404(3)
_cell_angle_alpha                96.607(7)
_cell_angle_beta                 90.665(8)
_cell_angle_gamma                93.195(7)
_cell_volume                     805.499
_exptl_crystal_colour            colorless
_exptl_crystal_description       block
_cell_formula_units_Z            2
loop_
_atom_site_label
_atom_site_type_symbol
_atom_site_fract_x
_atom_site_fract_y
_atom_site_fract_z
Br1 Br 0.57277(2) 0.19433(2) 0.771052(14)
Cl1 Cl -0.36314(9) -0.36586(7) 0.94108(5)
C1 C 0.3478(2) 0.08271(19) 0.79228(12)
C2 C 0.3347(2) -0.0135(2) 0.86881(12)
H1 H 0.440(3) -0.028(2) 0.9105(15)
C3 C 0.1697(2) -0.09749(19) 0.88716(11)
C4 C 0.1495(3) -0.1976(2) 0.96681(13)
H2 H 0.250(3) -0.212(2) 1.0087(15)
C5 C -0.0114(3) -0.2770(2) 0.98269(13)
H3 H -0.019(3) -0.347(3) 1.0356(16)
C6 C -0.1595(3) -0.2605(2) 0.91955(13)
C7 C -0.1481(3) -0.1651(2) 0.84239(13)
H4 H -0.250(3) -0.154(2) 0.8014(15)
C8 C 0.0181(2) -0.08067(18) 0.82492(12)
C9 C 0.0384(2) 0.02057(19) 0.74576(12)
H5 H -0.066(3) 0.030(2) 0.7013(14)
C10 C 0.1986(2) 0.10269(18) 0.72789(11)
C11 C 0.2164(2) 0.20409(18) 0.64235(11)
C12 C 0.2005(2) 0.3750(2) 0.65787(12)
C13 C 0.2178(3) 0.4653(2) 0.57639(14)
H6 H 0.208(3) 0.576(3) 0.5878(17)
C14 C 0.2532(2) 0.3925(2) 0.48082(13)
C15 C 0.2681(2) 0.2232(2) 0.46727(12)
H7 H 0.292(3) 0.172(2) 0.4009(15)
C16 C 0.2487(2) 0.12681(19) 0.54570(12)
C17 C 0.2620(3) -0.0575(2) 0.52635(14)
H8 H 0.1427 -0.1116 0.5295
H9 H 0.3405 -0.0937 0.5768
H10 H 0.3112 -0.0858 0.4603
C18 C 0.1660(4) 0.4608(2) 0.76125(15)
H11 H 0.1671 0.5790 0.7586
H12 H 0.2596 0.4367 0.8077
H13 H 0.0492 0.4219 0.7838
C19 C 0.2782(3) 0.4950(3) 0.39459(15)
H14 H 0.2734 0.4231 0.3317
H15 H 0.3944 0.5562 0.4018
H16 H 0.1828 0.5716 0.3949
loop_
_geom_bond_atom_site_label_1
_geom_bond_atom_site_label_2
_geom_bond_site_symmetry_1
_geom_bond_site_symmetry_2
Br1 C1 1_555 1_555
Cl1 C6 1_555 1_555
C1 C2 1_555 1_555
C2 H1 1_555 1_555
C3 C2 1_555 1_555
C4 C3 1_555 1_555
H2 C4 1_555 1_555
C5 C4 1_555 1_555
H3 C5 1_555 1_555
C6 C5 1_555 1_555
C7 C6 1_555 1_555
H4 C7 1_555 1_555
C8 C3 1_555 1_555
C9 C8 1_555 1_555
H5 C9 1_555 1_555
C10 C1 1_555 1_555
C11 C10 1_555 1_555
C12 C11 1_555 1_555
C13 C12 1_555 1_555
H6 C13 1_555 1_555
C14 C13 1_555 1_555
C15 C14 1_555 1_555
H7 C15 1_555 1_555
C16 C11 1_555 1_555
C17 C16 1_555 1_555
H8 C17 1_555 1_555
H9 C17 1_555 1_555
H10 C17 1_555 1_555
C18 C12 1_555 1_555
H11 C18 1_555 1_555
H12 C18 1_555 1_555
H13 C18 1_555 1_555
C19 C14 1_555 1_555
H14 C19 1_555 1_555
H15 C19 1_555 1_555
H16 C19 1_555 1_555
C7 C8 1_555 1_555
C9 C10 1_555 1_555
C15 C16 1_555 1_555

#END
