
#######################################################################
#
#                 Cambridge Crystallographic Data Centre
#                                CCDC 
#
#######################################################################
#
# If this CIF has been generated from an entry in the Cambridge 
# Structural Database, then it will include bibliographic, chemical, 
# crystal, experimental, refinement or atomic coordinate data resulting 
# from the CCDC's data processing and validation procedures.
#
#######################################################################

data_FABYEP
_chemical_formula_moiety         'C18 H11 Br1 Cl1 I1 O2'
_chemical_name_systematic        
'methyl 4-(1-bromo-6-chloro-3-iodo-2-naphthyl)benzoate'
_symmetry_cell_setting           triclinic
_symmetry_space_group_name_H-M   'P -1'
_symmetry_Int_Tables_number      2
_space_group_name_Hall           '-P 1'
loop_
_symmetry_equiv_pos_site_id
_symmetry_equiv_pos_as_xyz
1 x,y,z
2 -x,-y,-z
_cell_length_a                   8.7777(5)
_cell_length_b                   10.5448(10)
_cell_length_c                   10.6718(6)
_cell_angle_alpha                105.450(4)
_cell_angle_beta                 106.915(3)
_cell_angle_gamma                102.395(4)
_cell_volume                     863.965
_exptl_crystal_colour            colorless
_exptl_crystal_description       plate
_cell_formula_units_Z            2
loop_
_atom_site_label
_atom_site_type_symbol
_atom_site_fract_x
_atom_site_fract_y
_atom_site_fract_z
I1 I 0.24979(7) 0.48039(5) 0.10135(5)
Br1 Br 0.25659(9) 0.03108(7) -0.37193(7)
Cl1 Cl 1.0037(2) 0.1450(3) 0.2008(3)
O1 O -0.2880(7) 0.4095(6) -0.5437(6)
O2 O -0.4428(6) 0.2578(6) -0.4823(6)
C1 C 0.3574(8) 0.3363(7) 0.0167(7)
C2 C 0.5019(8) 0.3308(7) 0.1049(7)
H1 H 0.5477 0.3888 0.1995
C3 C 0.5821(8) 0.2382(7) 0.0539(7)
C4 C 0.7386(9) 0.2382(7) 0.1437(8)
H2 H 0.7908 0.3016 0.2361
C5 C 0.8108(9) 0.1439(8) 0.0924(9)
C6 C 0.7386(9) 0.0473(8) -0.0440(9)
H3 H 0.7908 -0.0174 -0.0747
C7 C 0.5897(9) 0.0484(7) -0.1329(8)
H4 H 0.5396 -0.0163 -0.2247
C8 C 0.5114(8) 0.1462(7) -0.0870(7)
C9 C 0.3597(8) 0.1561(7) -0.1748(7)
C10 C 0.2826(8) 0.2491(6) -0.1280(6)
C11 C 0.1294(8) 0.2650(6) -0.2225(7)
C12 C -0.0276(9) 0.2092(8) -0.2199(7)
H5 H -0.0391 0.1582 -0.1613
C13 C -0.1686(8) 0.2291(7) -0.3047(7)
H6 H -0.2751 0.1903 -0.3040
C14 C -0.1516(8) 0.3060(7) -0.3898(7)
C15 C 0.0066(9) 0.3597(8) -0.3935(7)
H7 H 0.0189 0.4108 -0.4518
C16 C 0.1458(8) 0.3372(7) -0.3105(7)
H8 H 0.2516 0.3716 -0.3146
C17 C -0.2971(9) 0.3325(7) -0.4800(7)
C18 C -0.5925(10) 0.2791(11) -0.5653(10)
H9 H -0.6910 0.2208 -0.5606
H10 H -0.6006 0.2551 -0.6618
H11 H -0.5858 0.3756 -0.5287
loop_
_geom_bond_atom_site_label_1
_geom_bond_atom_site_label_2
_geom_bond_site_symmetry_1
_geom_bond_site_symmetry_2
I1 C1 1_555 1_555
Br1 C9 1_555 1_555
Cl1 C5 1_555 1_555
O1 C17 1_555 1_555
O2 C17 1_555 1_555
C1 C2 1_555 1_555
C2 H1 1_555 1_555
C3 C2 1_555 1_555
C4 C3 1_555 1_555
H2 C4 1_555 1_555
C5 C4 1_555 1_555
C6 C5 1_555 1_555
H3 C6 1_555 1_555
C7 C6 1_555 1_555
H4 C7 1_555 1_555
C8 C3 1_555 1_555
C9 C8 1_555 1_555
C10 C1 1_555 1_555
C11 C10 1_555 1_555
C12 C11 1_555 1_555
H5 C12 1_555 1_555
C13 C12 1_555 1_555
H6 C13 1_555 1_555
C14 C13 1_555 1_555
C15 C14 1_555 1_555
H7 C15 1_555 1_555
C16 C11 1_555 1_555
H8 C16 1_555 1_555
C17 C14 1_555 1_555
C18 O2 1_555 1_555
H9 C18 1_555 1_555
H10 C18 1_555 1_555
H11 C18 1_555 1_555
C7 C8 1_555 1_555
C9 C10 1_555 1_555
C15 C16 1_555 1_555

#END
