
#######################################################################
#
#                 Cambridge Crystallographic Data Centre
#                                CCDC 
#
#######################################################################
#
# If this CIF has been generated from an entry in the Cambridge 
# Structural Database, then it will include bibliographic, chemical, 
# crystal, experimental, refinement or atomic coordinate data resulting 
# from the CCDC's data processing and validation procedures.
#
#######################################################################

data_FABYUD
_chemical_formula_moiety         'C16 H25 N1 O2 S2'
_chemical_name_systematic        
13-Phenyl-1,10-dithia-4,7-dioxa-13-aza-15-crown-5
_symmetry_cell_setting           triclinic
_symmetry_space_group_name_H-M   'P 1'
_symmetry_Int_Tables_number      1
_space_group_name_Hall           'P 1'
loop_
_symmetry_equiv_pos_site_id
_symmetry_equiv_pos_as_xyz
1 x,y,z
_cell_length_a                   8.864(3)
_cell_length_b                   10.127(4)
_cell_length_c                   10.390(3)
_cell_angle_alpha                105.94(3)
_cell_angle_beta                 103.10(2)
_cell_angle_gamma                90.96(3)
_cell_volume                     870.353
_exptl_crystal_colour            colorless
_cell_formula_units_Z            2
_exptl_crystal_recrystallization_method benzene/ethanol
loop_
_atom_site_label
_atom_site_type_symbol
_atom_site_fract_x
_atom_site_fract_y
_atom_site_fract_z
S1 S 0.182 -0.100 0.059
S2 S 0.0853(5) 0.3656(4) -0.3875(3)
O1 O 0.018(1) 0.022(1) -0.4422(9)
O2 O 0.064(1) -0.1433(9) -0.2650(9)
N1 N 0.173(1) 0.272(1) -0.0206(9)
C1 C 0.106(2) 0.056(1) 0.021(1)
C2 C 0.227(2) 0.141(1) -0.011(1)
C3 C 0.081(2) 0.279(1) -0.156(1)
C4 C 0.196(2) 0.336(1) -0.226(1)
C5 C 0.099(2) 0.208(1) -0.515(1)
C6 C -0.028(2) 0.092(2) -0.540(1)
C7 C -0.101(2) -0.070(2) -0.439(1)
C8 C -0.030(2) -0.189(2) -0.400(2)
C9 C 0.141(2) -0.248(2) -0.221(2)
C10 C 0.271(2) -0.183(2) -0.083(2)
C12 C 0.181(1) 0.382(1) 0.097(1)
C15 C 0.251(1) 0.366(1) 0.228(1)
C16 C 0.261(2) 0.480(2) 0.345(1)
C19 C 0.206(2) 0.603(2) 0.331(2)
C21 C 0.141(2) 0.618(1) 0.209(2)
C22 C 0.125(2) 0.507(1) 0.087(1)
S3 S -0.4168(5) 0.6843(4) -0.2942(4)
S4 S -0.2688(5) 0.2298(4) 0.1718(3)
O3 O -0.299(1) 0.5859(9) 0.2267(8)
O4 O -0.349(1) 0.7416(8) 0.0339(8)
N2 N -0.364(1) 0.323(1) -0.1967(9)
C11 C -0.460(1) 0.534(1) -0.244(1)
C13 C -0.316(1) 0.455(1) -0.209(1)
C14 C -0.382(2) 0.322(1) -0.058(1)
C17 C -0.236(2) 0.261(1) 0.014(1)
C18 C -0.204(2) 0.394(1) 0.301(1)
C20 C -0.324(2) 0.500(1) 0.307(1)
C23 C -0.418(2) 0.682(2) 0.220(1)
C24 C -0.362(2) 0.794(1) 0.175(1)
C25 C -0.302(2) 0.847(1) -0.018(1)
C26 C -0.255(2) 0.782(1) -0.155(1)
C27 C -0.428(1) 0.212(1) -0.312(1)
C28 C -0.431(2) 0.221(1) -0.447(1)
C29 C -0.499(2) 0.112(1) -0.561(1)
C30 C -0.560(2) -0.007(1) -0.547(1)
C31 C -0.557(2) -0.019(1) -0.417(1)
C32 C -0.489(2) 0.091(1) -0.298(1)
loop_
_geom_bond_atom_site_label_1
_geom_bond_atom_site_label_2
_geom_bond_site_symmetry_1
_geom_bond_site_symmetry_2
S1 C1 1_555 1_555
S2 C4 1_555 1_555
S3 C11 1_555 1_555
S4 C17 1_555 1_555
O1 C6 1_555 1_555
O2 C8 1_555 1_555
O3 C20 1_555 1_555
O4 C24 1_555 1_555
N1 C2 1_555 1_555
N2 C13 1_555 1_555
C1 C2 1_555 1_555
C3 N1 1_555 1_555
C4 C3 1_555 1_555
C5 S2 1_555 1_555
C6 C5 1_555 1_555
C7 O1 1_555 1_555
C8 C7 1_555 1_555
C9 O2 1_555 1_555
C10 S1 1_555 1_555
C11 C13 1_555 1_555
C12 N1 1_555 1_555
C14 N2 1_555 1_555
C15 C12 1_555 1_555
C16 C15 1_555 1_555
C17 C14 1_555 1_555
C18 S4 1_555 1_555
C19 C16 1_555 1_555
C20 C18 1_555 1_555
C21 C19 1_555 1_555
C22 C12 1_555 1_555
C23 O3 1_555 1_555
C24 C23 1_555 1_555
C25 O4 1_555 1_555
C26 S3 1_555 1_555
C27 N2 1_555 1_555
C28 C27 1_555 1_555
C29 C28 1_555 1_555
C30 C29 1_555 1_555
C31 C30 1_555 1_555
C32 C27 1_555 1_555
C9 C10 1_555 1_555
C21 C22 1_555 1_555
C25 C26 1_555 1_555
C31 C32 1_555 1_555

#END
