
#######################################################################
#
#                 Cambridge Crystallographic Data Centre
#                                CCDC 
#
#######################################################################
#
# If this CIF has been generated from an entry in the Cambridge 
# Structural Database, then it will include bibliographic, chemical, 
# crystal, experimental, refinement or atomic coordinate data resulting 
# from the CCDC's data processing and validation procedures.
#
#######################################################################

data_FABYAL
_chemical_formula_moiety         'C30 H20 F2 O3'
_chemical_name_systematic        1,1'-oxybis(6-fluoro-3-phenyl-1H-isochromene)
_symmetry_cell_setting           monoclinic
_symmetry_space_group_name_H-M   'C 2'
_symmetry_Int_Tables_number      5
_space_group_name_Hall           'C 2y'
loop_
_symmetry_equiv_pos_site_id
_symmetry_equiv_pos_as_xyz
1 x,y,z
2 -x,y,-z
3 1/2+x,1/2+y,z
4 1/2-x,1/2+y,-z
_cell_length_a                   22.033(2)
_cell_length_b                   13.7588(15)
_cell_length_c                   11.1924(12)
_cell_angle_alpha                90
_cell_angle_beta                 93.954(3)
_cell_angle_gamma                90
_cell_volume                     3384.87
_exptl_crystal_colour            colorless
_exptl_crystal_description       block
_cell_formula_units_Z            6
loop_
_atom_site_label
_atom_site_type_symbol
_atom_site_fract_x
_atom_site_fract_y
_atom_site_fract_z
F1 F 0.28498(12) -0.7556(3) -0.2717(3)
O1 O 0.50070(13) -1.0460(2) -0.3330(3)
O2 O 0.5000 -0.9465(3) -0.5000
C1 C 0.46309(18) -1.0051(4) -0.4282(3)
H1 H 0.4440(18) -1.063(4) -0.477(3)
C2 C 0.4141(2) -0.9412(4) -0.3862(4)
C3 C 0.3598(3) -0.9259(4) -0.4551(5)
H2 H 0.3548(19) -0.965(4) -0.529(4)
C4 C 0.3167(3) -0.8636(5) -0.4161(6)
H3 H 0.283(2) -0.853(4) -0.468(4)
C5 C 0.3279(2) -0.8170(5) -0.3089(5)
C6 C 0.3806(2) -0.8301(5) -0.2391(5)
H4 H 0.3871(17) -0.792(4) -0.166(4)
C7 C 0.4250(2) -0.8927(4) -0.2775(4)
C8 C 0.4820(2) -0.9124(3) -0.2096(4)
H5 H 0.4944 -0.8722 -0.1457
C9 C 0.51719(18) -0.9874(3) -0.2370(4)
C10 C 0.5747(2) -1.0166(4) -0.1748(4)
C11 C 0.5902(2) -0.9877(5) -0.0578(4)
H6 H 0.5629 -0.9501 -0.0180
C12 C 0.6451(3) -1.0135(5) 0.0011(5)
H7 H 0.655(2) -0.993(4) 0.087(4)
C13 C 0.6856(3) -1.0677(5) -0.0555(6)
H8 H 0.726(2) -1.087(4) -0.020(4)
C14 C 0.6710(3) -1.0995(5) -0.1711(6)
H9 H 0.698(2) -1.142(5) -0.216(5)
C15 C 0.6161(2) -1.0741(4) -0.2298(5)
H10 H 0.600(2) -1.103(4) -0.315(4)
F1A F 0.71502(12) -0.7556(3) -0.7283(3)
O1A O 0.49930(13) -1.0460(2) -0.6670(3)
C1A C 0.53691(18) -1.0051(4) -0.5718(3)
H1A H 0.5560(18) -1.063(4) -0.523(3)
C2A C 0.5859(2) -0.9412(4) -0.6138(4)
C3A C 0.6402(3) -0.9259(4) -0.5449(5)
H2A H 0.6452(19) -0.965(4) -0.471(4)
C4A C 0.6833(3) -0.8636(5) -0.5839(6)
H3A H 0.717(2) -0.853(4) -0.532(4)
C5A C 0.6721(2) -0.8170(5) -0.6911(5)
C6A C 0.6194(2) -0.8301(5) -0.7609(5)
H4A H 0.6129(17) -0.792(4) -0.834(4)
C7A C 0.5750(2) -0.8927(4) -0.7225(4)
C8A C 0.5180(2) -0.9124(3) -0.7904(4)
H5A H 0.5056 -0.8722 -0.8543
C9A C 0.48281(18) -0.9874(3) -0.7630(4)
C10A C 0.4253(2) -1.0166(4) -0.8252(4)
C11A C 0.4098(2) -0.9877(5) -0.9422(4)
H6A H 0.4371 -0.9501 -0.9820
C12A C 0.3549(3) -1.0135(5) -1.0011(5)
H7A H 0.345(2) -0.993(4) -1.087(4)
C13A C 0.3144(3) -1.0677(5) -0.9445(6)
H8A H 0.274(2) -1.087(4) -0.980(4)
C14A C 0.3290(3) -1.0995(5) -0.8289(6)
H9A H 0.302(2) -1.142(5) -0.784(5)
C15A C 0.3839(2) -1.0741(4) -0.7702(5)
H10A H 0.400(2) -1.103(4) -0.685(4)
F2 F 0.20875(14) -0.0074(3) -0.2589(3)
O3 O -0.00520(13) 0.2778(2) -0.1672(2)
O4 O 0.0000 0.1776(3) 0.0000
C16 C 0.03487(18) 0.2354(4) -0.0766(3)
H11 H 0.0492(14) 0.293(3) -0.030(3)
C17 C 0.08281(18) 0.1725(4) -0.1256(4)
C18 C 0.1379(2) 0.1581(4) -0.0616(5)
H12 H 0.147(2) 0.181(4) 0.012(4)
C19 C 0.1809(3) 0.0955(5) -0.1077(7)
H13 H 0.217(2) 0.085(4) -0.071(4)
C20 C 0.1664(3) 0.0526(5) -0.2157(6)
C21 C 0.1129(2) 0.0646(4) -0.2808(5)
H14 H 0.105(2) 0.031(4) -0.357(4)
C22 C 0.06927(18) 0.1280(4) -0.2356(4)
C23 C 0.0120(2) 0.1486(4) -0.2985(4)
H15 H -0.0010 0.1105 -0.3640
C24 C -0.02321(18) 0.2216(4) -0.2648(3)
C25 C -0.0814(2) 0.2534(4) -0.3247(4)
C26 C -0.0984(2) 0.2282(5) -0.4423(4)
H16 H -0.074(2) 0.202(4) -0.482(4)
C27 C -0.1537(3) 0.2555(6) -0.4969(6)
H17 H -0.163(2) 0.236(5) -0.576(5)
C28 C -0.1927(3) 0.3097(5) -0.4349(7)
H18 H -0.2300 0.3288 -0.4717
C29 C -0.1777(3) 0.3360(6) -0.3202(7)
H19 H -0.201(2) 0.374(4) -0.272(4)
C30 C -0.1218(3) 0.3094(5) -0.2649(5)
H20 H -0.112(2) 0.330(4) -0.192(4)
F2A F -0.20875(14) -0.0074(3) 0.2589(3)
O3A O 0.00520(13) 0.2778(2) 0.1672(2)
C16A C -0.03487(18) 0.2354(4) 0.0766(3)
H11A H -0.0492(14) 0.293(3) 0.030(3)
C17A C -0.08281(18) 0.1725(4) 0.1256(4)
C18A C -0.1379(2) 0.1581(4) 0.0616(5)
H12A H -0.147(2) 0.181(4) -0.012(4)
C19A C -0.1809(3) 0.0955(5) 0.1077(7)
H13A H -0.217(2) 0.085(4) 0.071(4)
C20A C -0.1664(3) 0.0526(5) 0.2157(6)
C21A C -0.1129(2) 0.0646(4) 0.2808(5)
H14A H -0.105(2) 0.031(4) 0.357(4)
C22A C -0.06927(18) 0.1280(4) 0.2356(4)
C23A C -0.0120(2) 0.1486(4) 0.2985(4)
H15A H 0.0010 0.1105 0.3640
C24A C 0.02321(18) 0.2216(4) 0.2648(3)
C25A C 0.0814(2) 0.2534(4) 0.3247(4)
C26A C 0.0984(2) 0.2282(5) 0.4423(4)
H16A H 0.074(2) 0.202(4) 0.482(4)
C27A C 0.1537(3) 0.2555(6) 0.4969(6)
H17A H 0.163(2) 0.236(5) 0.576(5)
C28A C 0.1927(3) 0.3097(5) 0.4349(7)
H18A H 0.2300 0.3288 0.4717
C29A C 0.1777(3) 0.3360(6) 0.3202(7)
H19A H 0.201(2) 0.374(4) 0.272(4)
C30A C 0.1218(3) 0.3094(5) 0.2649(5)
H20A H 0.112(2) 0.330(4) 0.192(4)
F3 F 0.29152(15) -0.4190(3) -0.2464(4)
O5 O 0.50273(14) -0.7097(3) -0.3344(3)
O6 O 0.5000 -0.6082(3) -0.5000
C31 C 0.46397(19) -0.6672(4) -0.4263(4)
H21 H 0.4442(19) -0.727(4) -0.474(4)
C32 C 0.4163(2) -0.6036(4) -0.3771(5)
C33 C 0.3616(2) -0.5848(5) -0.4424(5)
H22 H 0.353(2) -0.624(4) -0.524(4)
C34 C 0.3188(3) -0.5251(5) -0.4004(7)
H23 H 0.279(2) -0.509(4) -0.442(4)
C35 C 0.3330(3) -0.4807(5) -0.2910(7)
C36 C 0.3863(3) -0.4952(5) -0.2243(6)
H24 H 0.394(2) -0.470(3) -0.157(4)
C37 C 0.4293(2) -0.5584(4) -0.2676(4)
C38 C 0.4867(2) -0.5802(4) -0.2024(5)
H25 H 0.4994 -0.5433 -0.1357
C39 C 0.52174(19) -0.6536(4) -0.2374(4)
C40 C 0.5798(2) -0.6858(4) -0.1800(4)
C41 C 0.6020(2) -0.6494(5) -0.0698(4)
H26 H 0.5786 -0.6052 -0.0299
C42 C 0.6575(3) -0.6770(6) -0.0187(6)
H27 H 0.674(2) -0.645(4) 0.061(4)
C43 C 0.6920(3) -0.7426(6) -0.0746(8)
H28 H 0.730(3) -0.760(4) -0.032(5)
C44 C 0.6709(3) -0.7819(6) -0.1836(8)
H29 H 0.6939 -0.8279 -0.2213
C45 C 0.6153(3) -0.7520(5) -0.2358(6)
H30 H 0.6016 -0.7771 -0.3100
F3A F 0.70848(15) -0.4190(3) -0.7536(4)
O5A O 0.49727(14) -0.7097(3) -0.6656(3)
C31A C 0.53603(19) -0.6672(4) -0.5737(4)
H21A H 0.5558(19) -0.727(4) -0.526(4)
C32A C 0.5837(2) -0.6036(4) -0.6229(5)
C33A C 0.6384(2) -0.5848(5) -0.5576(5)
H22A H 0.647(2) -0.624(4) -0.476(4)
C34A C 0.6812(3) -0.5251(5) -0.5996(7)
H23A H 0.721(2) -0.509(4) -0.558(4)
C35A C 0.6670(3) -0.4807(5) -0.7090(7)
C36A C 0.6137(3) -0.4952(5) -0.7757(6)
H24A H 0.606(2) -0.470(3) -0.843(4)
C37A C 0.5707(2) -0.5584(4) -0.7324(4)
C38A C 0.5133(2) -0.5802(4) -0.7976(5)
H25A H 0.5006 -0.5433 -0.8643
C39A C 0.47826(19) -0.6536(4) -0.7626(4)
C40A C 0.4202(2) -0.6858(4) -0.8200(4)
C41A C 0.3980(2) -0.6494(5) -0.9302(4)
H26A H 0.4214 -0.6052 -0.9701
C42A C 0.3425(3) -0.6770(6) -0.9813(6)
H27A H 0.326(2) -0.645(4) -1.061(4)
C43A C 0.3080(3) -0.7426(6) -0.9254(8)
H28A H 0.270(3) -0.760(4) -0.968(5)
C44A C 0.3291(3) -0.7819(6) -0.8164(8)
H29A H 0.3061 -0.8279 -0.7787
C45A C 0.3847(3) -0.7520(5) -0.7642(6)
H30A H 0.3984 -0.7771 -0.6900
loop_
_geom_bond_atom_site_label_1
_geom_bond_atom_site_label_2
_geom_bond_site_symmetry_1
_geom_bond_site_symmetry_2
F1 C5 1_555 1_555
O1 C1 1_555 1_555
O2 C1 1_555 1_555
C1 H1 1_555 1_555
C2 C1 1_555 1_555
C3 C2 1_555 1_555
H2 C3 1_555 1_555
C4 C3 1_555 1_555
H3 C4 1_555 1_555
C5 C4 1_555 1_555
C6 C5 1_555 1_555
H4 C6 1_555 1_555
C7 C2 1_555 1_555
C8 C7 1_555 1_555
H5 C8 1_555 1_555
C9 O1 1_555 1_555
C10 C9 1_555 1_555
C11 C10 1_555 1_555
H6 C11 1_555 1_555
C12 C11 1_555 1_555
H7 C12 1_555 1_555
C13 C12 1_555 1_555
H8 C13 1_555 1_555
C14 C13 1_555 1_555
H9 C14 1_555 1_555
C15 C10 1_555 1_555
H10 C15 1_555 1_555
F2 C20 1_555 1_555
O3 C16 1_555 1_555
O4 C16 1_555 1_555
C16 H11 1_555 1_555
C17 C16 1_555 1_555
C18 C17 1_555 1_555
H12 C18 1_555 1_555
C19 C18 1_555 1_555
H13 C19 1_555 1_555
C20 C19 1_555 1_555
C21 C20 1_555 1_555
H14 C21 1_555 1_555
C22 C17 1_555 1_555
C23 C22 1_555 1_555
H15 C23 1_555 1_555
C24 O3 1_555 1_555
C25 C24 1_555 1_555
C26 C25 1_555 1_555
H16 C26 1_555 1_555
C27 C26 1_555 1_555
H17 C27 1_555 1_555
C28 C27 1_555 1_555
H18 C28 1_555 1_555
C29 C28 1_555 1_555
H19 C29 1_555 1_555
C30 C25 1_555 1_555
H20 C30 1_555 1_555
F3 C35 1_555 1_555
O5 C31 1_555 1_555
O6 C31 1_555 1_555
C31 H21 1_555 1_555
C32 C31 1_555 1_555
C33 C32 1_555 1_555
H22 C33 1_555 1_555
C34 C33 1_555 1_555
H23 C34 1_555 1_555
C35 C34 1_555 1_555
C36 C35 1_555 1_555
H24 C36 1_555 1_555
C37 C32 1_555 1_555
C38 C37 1_555 1_555
H25 C38 1_555 1_555
C39 O5 1_555 1_555
C40 C39 1_555 1_555
C41 C40 1_555 1_555
H26 C41 1_555 1_555
C42 C41 1_555 1_555
H27 C42 1_555 1_555
C43 C42 1_555 1_555
H28 C43 1_555 1_555
C44 C43 1_555 1_555
H29 C44 1_555 1_555
C45 C40 1_555 1_555
H30 C45 1_555 1_555
F1A C5A 1_555 1_555
O1A C1A 1_555 1_555
C1A O2 1_555 1_555
H1A C1A 1_555 1_555
C2A C1A 1_555 1_555
C3A C2A 1_555 1_555
H2A C3A 1_555 1_555
C4A C3A 1_555 1_555
H3A C4A 1_555 1_555
C5A C4A 1_555 1_555
C6A C5A 1_555 1_555
H4A C6A 1_555 1_555
C7A C2A 1_555 1_555
C8A C7A 1_555 1_555
H5A C8A 1_555 1_555
C9A O1A 1_555 1_555
C10A C9A 1_555 1_555
C11A C10A 1_555 1_555
H6A C11A 1_555 1_555
C12A C11A 1_555 1_555
H7A C12A 1_555 1_555
C13A C12A 1_555 1_555
H8A C13A 1_555 1_555
C14A C13A 1_555 1_555
H9A C14A 1_555 1_555
C15A C10A 1_555 1_555
H10A C15A 1_555 1_555
F2A C20A 1_555 1_555
O3A C16A 1_555 1_555
C16A O4 1_555 1_555
H11A C16A 1_555 1_555
C17A C16A 1_555 1_555
C18A C17A 1_555 1_555
H12A C18A 1_555 1_555
C19A C18A 1_555 1_555
H13A C19A 1_555 1_555
C20A C19A 1_555 1_555
C21A C20A 1_555 1_555
H14A C21A 1_555 1_555
C22A C17A 1_555 1_555
C23A C22A 1_555 1_555
H15A C23A 1_555 1_555
C24A O3A 1_555 1_555
C25A C24A 1_555 1_555
C26A C25A 1_555 1_555
H16A C26A 1_555 1_555
C27A C26A 1_555 1_555
H17A C27A 1_555 1_555
C28A C27A 1_555 1_555
H18A C28A 1_555 1_555
C29A C28A 1_555 1_555
H19A C29A 1_555 1_555
C30A C25A 1_555 1_555
H20A C30A 1_555 1_555
F3A C35A 1_555 1_555
O5A C31A 1_555 1_555
C31A O6 1_555 1_555
H21A C31A 1_555 1_555
C32A C31A 1_555 1_555
C33A C32A 1_555 1_555
H22A C33A 1_555 1_555
C34A C33A 1_555 1_555
H23A C34A 1_555 1_555
C35A C34A 1_555 1_555
C36A C35A 1_555 1_555
H24A C36A 1_555 1_555
C37A C32A 1_555 1_555
C38A C37A 1_555 1_555
H25A C38A 1_555 1_555
C39A O5A 1_555 1_555
C40A C39A 1_555 1_555
C41A C40A 1_555 1_555
H26A C41A 1_555 1_555
C42A C41A 1_555 1_555
H27A C42A 1_555 1_555
C43A C42A 1_555 1_555
H28A C43A 1_555 1_555
C44A C43A 1_555 1_555
H29A C44A 1_555 1_555
C45A C40A 1_555 1_555
H30A C45A 1_555 1_555
C6 C7 1_555 1_555
C8 C9 1_555 1_555
C14 C15 1_555 1_555
C21 C22 1_555 1_555
C23 C24 1_555 1_555
C29 C30 1_555 1_555
C36 C37 1_555 1_555
C38 C39 1_555 1_555
C44 C45 1_555 1_555
C6A C7A 1_555 1_555
C8A C9A 1_555 1_555
C14A C15A 1_555 1_555
C21A C22A 1_555 1_555
C23A C24A 1_555 1_555
C29A C30A 1_555 1_555
C36A C37A 1_555 1_555
C38A C39A 1_555 1_555
C44A C45A 1_555 1_555

#END
