
#######################################################################
#
#                 Cambridge Crystallographic Data Centre
#                                CCDC 
#
#######################################################################
#
# If this CIF has been generated from an entry in the Cambridge 
# Structural Database, then it will include bibliographic, chemical, 
# crystal, experimental, refinement or atomic coordinate data resulting 
# from the CCDC's data processing and validation procedures.
#
#######################################################################

data_FACJIE
_chemical_formula_moiety         'C15 H22 F1 N1 O2 S1'
_chemical_name_systematic        
'(Z)-3-fluoro-4-(4-methoxyphenyl)but-3-en-2-one (S) t-butylsulfinamide'
_symmetry_cell_setting           orthorhombic
_symmetry_space_group_name_H-M   'P 21 21 21'
_symmetry_Int_Tables_number      19
_space_group_name_Hall           'P 2ac 2ab'
loop_
_symmetry_equiv_pos_site_id
_symmetry_equiv_pos_as_xyz
1 x,y,z
2 1/2-x,-y,1/2+z
3 -x,1/2+y,1/2-z
4 1/2+x,1/2-y,-z
_cell_length_a                   5.7229(4)
_cell_length_b                   10.7382(8)
_cell_length_c                   26.4785(18)
_cell_angle_alpha                90
_cell_angle_beta                 90
_cell_angle_gamma                90
_cell_volume                     1627.2
_exptl_crystal_colour            colorless
_exptl_crystal_description       polyhedron
_cell_formula_units_Z            4
loop_
_atom_site_label
_atom_site_type_symbol
_atom_site_fract_x
_atom_site_fract_y
_atom_site_fract_z
S1 S 0.70259(8) 0.27055(4) 0.801447(16)
O1 O 0.4864(3) 0.20162(15) 0.81408(7)
N1 N 0.8322(3) 0.32383(15) 0.85333(6)
F1 F 0.7097(3) 0.13529(10) 0.92804(5)
O2 O 0.6804(4) -0.47743(13) 0.94044(6)
C1 C 0.8610(3) -0.11793(17) 0.89655(6)
C2 C 0.9463(3) 0.00375(17) 0.88036(7)
H1 H 1.0648 0.0007 0.8564
C3 C 0.8847(3) 0.11668(17) 0.89378(6)
C4 C 0.9956(3) 0.23527(18) 0.87714(7)
H2 H 1.1149 0.2142 0.8520
C5 C 0.6070(3) 0.4195(2) 0.77355(7)
C6 C 0.9243(5) -0.3401(2) 0.89797(9)
H3 H 1.0134 -0.4083 0.8881
C7 C 0.7311(5) -0.35645(18) 0.92799(7)
C8 C 0.9853(4) -0.2218(2) 0.88252(8)
H4 H 1.1154 -0.2120 0.8618
C9 C 0.8223(4) 0.4951(2) 0.76102(9)
H5 H 0.7783 0.5663 0.7413
H6 H 0.9297 0.4447 0.7421
H7 H 0.8956 0.5223 0.7917
C10 C 0.6641(4) -0.1382(2) 0.92641(9)
H8 H 0.5723 -0.0707 0.9360
C11 C 1.1186(5) 0.3001(2) 0.92099(8)
H9 H 1.0072 0.3181 0.9471
H10 H 1.1876 0.3763 0.9093
H11 H 1.2384 0.2466 0.9342
C12 C 0.4780(4) 0.3808(3) 0.72560(8)
H12 H 0.5799 0.3317 0.7048
H13 H 0.4299 0.4537 0.7074
H14 H 0.3429 0.3324 0.7345
C13 C 0.4445(4) 0.4880(2) 0.80934(8)
H15 H 0.3840 0.5609 0.7929
H16 H 0.5292 0.5121 0.8391
H17 H 0.3175 0.4343 0.8187
C14 C 0.6026(4) -0.2562(2) 0.94202(10)
H18 H 0.4717 -0.2672 0.9624
C15 C 0.5388(7) -0.4976(3) 0.98282(10)
H19 H 0.3828 -0.4697 0.9758
H20 H 0.6002 -0.4522 1.0111
H21 H 0.5362 -0.5849 0.9907
H22 H 0.735(5) 0.360(2) 0.8708(8)
loop_
_geom_bond_atom_site_label_1
_geom_bond_atom_site_label_2
_geom_bond_site_symmetry_1
_geom_bond_site_symmetry_2
S1 O1 1_555 1_555
N1 S1 1_555 1_555
F1 C3 1_555 1_555
O2 C7 1_555 1_555
C1 C2 1_555 1_555
C2 H1 1_555 1_555
C3 C2 1_555 1_555
C4 N1 1_555 1_555
H2 C4 1_555 1_555
C5 S1 1_555 1_555
C6 H3 1_555 1_555
C7 C6 1_555 1_555
C8 C1 1_555 1_555
H4 C8 1_555 1_555
C9 C5 1_555 1_555
H5 C9 1_555 1_555
H6 C9 1_555 1_555
H7 C9 1_555 1_555
C10 C1 1_555 1_555
H8 C10 1_555 1_555
C11 C4 1_555 1_555
H9 C11 1_555 1_555
H10 C11 1_555 1_555
H11 C11 1_555 1_555
C12 C5 1_555 1_555
H12 C12 1_555 1_555
H13 C12 1_555 1_555
H14 C12 1_555 1_555
C13 C5 1_555 1_555
H15 C13 1_555 1_555
H16 C13 1_555 1_555
H17 C13 1_555 1_555
C14 C7 1_555 1_555
H18 C14 1_555 1_555
C15 O2 1_555 1_555
H19 C15 1_555 1_555
H20 C15 1_555 1_555
H21 C15 1_555 1_555
H22 N1 1_555 1_555
C3 C4 1_555 1_555
C6 C8 1_555 1_555
C10 C14 1_555 1_555

#END
