
#######################################################################
#
#                 Cambridge Crystallographic Data Centre
#                                CCDC 
#
#######################################################################
#
# If this CIF has been generated from an entry in the Cambridge 
# Structural Database, then it will include bibliographic, chemical, 
# crystal, experimental, refinement or atomic coordinate data resulting 
# from the CCDC's data processing and validation procedures.
#
#######################################################################

data_FACSEI01
_chemical_formula_moiety         'C19 H20 N4'
_chemical_name_systematic        
3-Amino-4'-(N,N-diethylamino)-5-methylbiphenyl-2,4-dicarbonitrile
_symmetry_cell_setting           orthorhombic
_symmetry_space_group_name_H-M   'F d d 2'
_symmetry_Int_Tables_number      43
_space_group_name_Hall           'F 2 -2d'
loop_
_symmetry_equiv_pos_site_id
_symmetry_equiv_pos_as_xyz
1 x,y,z
2 -x,-y,z
3 1/4+x,1/4-y,1/4+z
4 1/4-x,1/4+y,1/4+z
5 x,1/2+y,1/2+z
6 -x,1/2-y,1/2+z
7 1/4+x,3/4-y,3/4+z
8 1/4-x,3/4+y,3/4+z
9 1/2+x,y,1/2+z
10 1/2-x,-y,1/2+z
11 3/4+x,1/4-y,3/4+z
12 3/4-x,1/4+y,3/4+z
13 1/2+x,1/2+y,z
14 1/2-x,1/2-y,z
15 3/4+x,3/4-y,1/4+z
16 3/4-x,3/4+y,1/4+z
_cell_length_a                   23.03640(10)
_cell_length_b                   37.21650(10)
_cell_length_c                   7.749
_cell_angle_alpha                90
_cell_angle_beta                 90
_cell_angle_gamma                90
_cell_volume                     6643.48
_exptl_crystal_colour            yellow
_exptl_crystal_description       'rectangular rod'
_chemical_melting_point          154-156deg.C
_cell_formula_units_Z            16
loop_
_atom_site_label
_atom_site_type_symbol
_atom_site_fract_x
_atom_site_fract_y
_atom_site_fract_z
C1 C 0.19126(12) 0.06993(7) 0.9455(3)
C2 C 0.28940(12) -0.01337(7) 0.9225(3)
C3 C 0.24062(11) 0.04751(6) 0.9612(3)
C4 C 0.23807(11) 0.01067(6) 0.9235(3)
N1 N 0.42704(11) -0.08736(6) 0.8683(4)
C5 C 0.13851(12) 0.05361(7) 0.8962(4)
C6 C 0.13481(12) 0.01682(7) 0.8652(4)
C7 C 0.28466(13) -0.04866(7) 0.9801(4)
H1 H 0.2500 -0.0561 1.0301
C8 C 0.38729(12) -0.02717(7) 0.8345(4)
H2 H 0.4219 -0.0194 0.7851
C9 C 0.32945(13) -0.07292(7) 0.9657(4)
H3 H 0.3246 -0.0962 1.0067
C10 C 0.38243(12) -0.06300(7) 0.8901(4)
C11 C 0.08756(14) 0.07535(8) 0.8750(4)
N2 N 0.33380(12) 0.07705(7) 1.0801(4)
C12 C 0.34172(12) -0.00327(7) 0.8516(4)
H4 H 0.3465 0.0203 0.8141
C13 C 0.29344(13) 0.06348(7) 1.0258(4)
N3 N 0.19470(11) 0.10585(6) 0.9736(4)
H5 H 0.1644 0.1191 0.9614
H6 H 0.2272 0.1154 1.0036
C14 C 0.18408(12) -0.00408(7) 0.8801(4)
H7 H 0.1813 -0.0287 0.8608
C15 C 0.42182(15) -0.12408(7) 0.9314(5)
H8 H 0.4009 -0.1239 1.0399
H9 H 0.4603 -0.1335 0.9535
N4 N 0.04633(13) 0.09189(8) 0.8572(4)
C16 C 0.07836(13) -0.00049(9) 0.8135(5)
H10 H 0.0845 -0.0257 0.7939
H11 H 0.0642 0.0105 0.7096
H12 H 0.0504 0.0027 0.9040
C17 C 0.39089(18) -0.14874(9) 0.8069(6)
H13 H 0.3513 -0.1411 0.7940
H14 H 0.3917 -0.1729 0.8508
H15 H 0.4100 -0.1480 0.6969
C18 C 0.48197(15) -0.07706(9) 0.7920(6)
H16 H 0.4751 -0.0598 0.7003
H17 H 0.5004 -0.0980 0.7418
C19 C 0.52218(17) -0.06060(12) 0.9256(7)
H18 H 0.5066 -0.0380 0.9633
H19 H 0.5598 -0.0569 0.8754
H20 H 0.5255 -0.0765 1.0225
loop_
_geom_bond_atom_site_label_1
_geom_bond_atom_site_label_2
_geom_bond_site_symmetry_1
_geom_bond_site_symmetry_2
C1 C3 1_555 1_555
C2 C4 1_555 1_555
C3 C4 1_555 1_555
C4 C14 1_555 1_555
N1 C10 1_555 1_555
C5 C1 1_555 1_555
C6 C5 1_555 1_555
C7 C2 1_555 1_555
H1 C7 1_555 1_555
C8 H2 1_555 1_555
C9 C7 1_555 1_555
H3 C9 1_555 1_555
C10 C8 1_555 1_555
C11 C5 1_555 1_555
N2 C13 1_555 1_555
C12 C2 1_555 1_555
H4 C12 1_555 1_555
C13 C3 1_555 1_555
N3 C1 1_555 1_555
H5 N3 1_555 1_555
H6 N3 1_555 1_555
C14 C6 1_555 1_555
H7 C14 1_555 1_555
C15 N1 1_555 1_555
H8 C15 1_555 1_555
H9 C15 1_555 1_555
N4 C11 1_555 1_555
C16 C6 1_555 1_555
H10 C16 1_555 1_555
H11 C16 1_555 1_555
H12 C16 1_555 1_555
C17 C15 1_555 1_555
H13 C17 1_555 1_555
H14 C17 1_555 1_555
H15 C17 1_555 1_555
C18 N1 1_555 1_555
H16 C18 1_555 1_555
H17 C18 1_555 1_555
C19 C18 1_555 1_555
H18 C19 1_555 1_555
H19 C19 1_555 1_555
H20 C19 1_555 1_555
C8 C12 1_555 1_555
C9 C10 1_555 1_555

#END
