
#######################################################################
#
#                 Cambridge Crystallographic Data Centre
#                                CCDC 
#
#######################################################################
#
# If this CIF has been generated from an entry in the Cambridge 
# Structural Database, then it will include bibliographic, chemical, 
# crystal, experimental, refinement or atomic coordinate data resulting 
# from the CCDC's data processing and validation procedures.
#
#######################################################################

data_FACTAF
_chemical_formula_moiety         'C18 H23 N1 O3 S1'
_chemical_name_systematic        
(1R,2S)-3-Methyl-2-(p-methylphenylsulfonylamino)-1-phenylbutan-1-ol
_symmetry_cell_setting           orthorhombic
_symmetry_space_group_name_H-M   'P 21 21 21'
_symmetry_Int_Tables_number      19
_space_group_name_Hall           'P 2ac 2ab'
loop_
_symmetry_equiv_pos_site_id
_symmetry_equiv_pos_as_xyz
1 x,y,z
2 1/2-x,-y,1/2+z
3 -x,1/2+y,1/2-z
4 1/2+x,1/2-y,-z
_cell_length_a                   5.7407(6)
_cell_length_b                   13.0939(14)
_cell_length_c                   22.846(2)
_cell_angle_alpha                90
_cell_angle_beta                 90
_cell_angle_gamma                90
_cell_volume                     1717.29
_exptl_crystal_colour            colorless
_exptl_crystal_description       block
_cell_formula_units_Z            4
_exptl_crystal_recrystallization_method dichloromethane/hexane
loop_
_atom_site_label
_atom_site_type_symbol
_atom_site_fract_x
_atom_site_fract_y
_atom_site_fract_z
S1 S 0.56193(12) 0.64985(5) 0.19743(3)
O1 O 1.1936(3) 0.40088(15) 0.23822(8)
H1 H 1.2192 0.3487 0.2570
O2 O 0.7680(3) 0.71264(13) 0.19693(8)
O3 O 0.3652(3) 0.68540(14) 0.23001(8)
N1 N 0.6395(4) 0.53862(15) 0.21918(8)
H2 H 0.5389 0.4903 0.2162
C1 C 0.8692(4) 0.5123(2) 0.24380(10)
H3 H 0.9813 0.5619 0.2284
C2 C 0.9494(5) 0.40579(19) 0.22344(11)
H4 H 0.8664 0.3543 0.2465
C3 C 0.9113(5) 0.38307(19) 0.15951(12)
C4 C 0.7096(5) 0.3352(2) 0.14207(13)
H5 H 0.5978 0.3183 0.1699
C5 C 0.6701(6) 0.3117(2) 0.08365(14)
H6 H 0.5315 0.2806 0.0724
C6 C 0.8363(7) 0.3346(3) 0.04267(14)
H7 H 0.8118 0.3178 0.0036
C7 C 1.0390(6) 0.3822(2) 0.05911(14)
H8 H 1.1503 0.3988 0.0311
C8 C 1.0778(5) 0.4056(2) 0.11738(12)
H9 H 1.2166 0.4368 0.1284
C9 C 0.8739(5) 0.5215(2) 0.31081(11)
H10 H 1.0211 0.4914 0.3240
C10 C 0.8732(7) 0.6317(3) 0.33145(13)
H11 H 0.8758 0.6334 0.3735
H12 H 0.7351 0.6651 0.3175
H13 H 1.0081 0.6661 0.3164
C11 C 0.6800(6) 0.4621(3) 0.34030(13)
H14 H 0.6930 0.4693 0.3820
H15 H 0.6922 0.3913 0.3300
H16 H 0.5320 0.4882 0.3276
C12 C 0.4688(4) 0.63533(19) 0.12435(11)
C13 C 0.2579(5) 0.6742(2) 0.10686(12)
H17 H 0.1593 0.7051 0.1339
C14 C 0.1937(5) 0.6671(2) 0.04886(13)
H18 H 0.0510 0.6938 0.0372
C15 C 0.3346(6) 0.6217(2) 0.00783(12)
C16 C 0.5444(6) 0.5820(2) 0.02646(12)
H19 H 0.6416 0.5502 -0.0005
C17 C 0.6132(5) 0.5884(2) 0.08412(12)
H20 H 0.7555 0.5613 0.0959
C18 C 0.2583(6) 0.6113(3) -0.05538(13)
H21 H 0.1086 0.6429 -0.0604
H22 H 0.2480 0.5403 -0.0655
H23 H 0.3698 0.6442 -0.0804
loop_
_geom_bond_atom_site_label_1
_geom_bond_atom_site_label_2
_geom_bond_site_symmetry_1
_geom_bond_site_symmetry_2
S1 O2 1_555 1_555
O1 H1 1_555 1_555
O3 S1 1_555 1_555
N1 S1 1_555 1_555
H2 N1 1_555 1_555
C1 N1 1_555 1_555
H3 C1 1_555 1_555
C2 O1 1_555 1_555
H4 C2 1_555 1_555
C3 C2 1_555 1_555
C4 C3 1_555 1_555
H5 C4 1_555 1_555
C5 C4 1_555 1_555
H6 C5 1_555 1_555
C6 C5 1_555 1_555
H7 C6 1_555 1_555
C7 C6 1_555 1_555
H8 C7 1_555 1_555
C8 C3 1_555 1_555
H9 C8 1_555 1_555
C9 C1 1_555 1_555
H10 C9 1_555 1_555
C10 C9 1_555 1_555
H11 C10 1_555 1_555
H12 C10 1_555 1_555
H13 C10 1_555 1_555
C11 C9 1_555 1_555
H14 C11 1_555 1_555
H15 C11 1_555 1_555
H16 C11 1_555 1_555
C12 S1 1_555 1_555
C13 C12 1_555 1_555
H17 C13 1_555 1_555
C14 C13 1_555 1_555
H18 C14 1_555 1_555
C15 C14 1_555 1_555
C16 C15 1_555 1_555
H19 C16 1_555 1_555
C17 C12 1_555 1_555
H20 C17 1_555 1_555
C18 C15 1_555 1_555
H21 C18 1_555 1_555
H22 C18 1_555 1_555
H23 C18 1_555 1_555
C1 C2 1_555 1_555
C7 C8 1_555 1_555
C16 C17 1_555 1_555

#END
