
#######################################################################
#
#                 Cambridge Crystallographic Data Centre
#                                CCDC 
#
#######################################################################
#
# If this CIF has been generated from an entry in the Cambridge 
# Structural Database, then it will include bibliographic, chemical, 
# crystal, experimental, refinement or atomic coordinate data resulting 
# from the CCDC's data processing and validation procedures.
#
#######################################################################

data_FACTUZ
_chemical_formula_moiety         'C30 H30 S3'
_chemical_name_systematic        
cis,tran,trans-1,3,5-tris(phenylthiomethyl)-2,4,6-trimethylbenzene
_symmetry_cell_setting           monoclinic
_symmetry_space_group_name_H-M   'P 21/n'
_symmetry_Int_Tables_number      14
_space_group_name_Hall           '-P 2yn'
loop_
_symmetry_equiv_pos_site_id
_symmetry_equiv_pos_as_xyz
1 x,y,z
2 1/2+x,1/2-y,1/2+z
3 -x,-y,-z
4 1/2-x,1/2+y,1/2-z
_cell_length_a                   9.0660(6)
_cell_length_b                   18.5382(13)
_cell_length_c                   15.9779(11)
_cell_angle_alpha                90
_cell_angle_beta                 97.785(2)
_cell_angle_gamma                90
_cell_volume                     2660.61
_exptl_crystal_colour            colorless
_exptl_crystal_description       prism
_chemical_melting_point          381-383K
_cell_formula_units_Z            4
_exptl_crystal_recrystallization_method acetonitrile
loop_
_atom_site_label
_atom_site_type_symbol
_atom_site_fract_x
_atom_site_fract_y
_atom_site_fract_z
S1 S 0.15919(4) -0.23065(2) 0.56165(3)
S2 S 0.36132(4) 0.07225(2) 0.70997(2)
S3 S 0.12226(4) 0.05360(2) 0.27816(2)
C1 C 0.35191(12) -0.06840(7) 0.55858(8)
C2 C 0.34001(12) 0.00731(7) 0.55435(7)
C3 C 0.23419(11) 0.03940(7) 0.49402(7)
C4 C 0.14680(11) -0.00334(7) 0.43446(7)
C5 C 0.16710(12) -0.07840(7) 0.43336(7)
C6 C 0.26918(12) -0.11043(7) 0.49651(7)
C7 C 0.44373(13) 0.05267(8) 0.61383(8)
H1 H 0.4641 0.0975 0.5863
H2 H 0.5373 0.0273 0.6286
C8 C 0.03248(13) 0.03171(7) 0.36965(8)
H3 H -0.0058 0.0752 0.3928
H4 H -0.0501 -0.0010 0.3538
C9 C 0.29055(14) -0.19118(7) 0.49792(9)
H5 H 0.3917 -0.2030 0.5219
H6 H 0.2730 -0.2102 0.4409
C10 C 0.45595(14) -0.10300(9) 0.62991(9)
H7 H 0.4516 -0.1545 0.6240
H8 H 0.4261 -0.0895 0.6831
H9 H 0.5559 -0.0868 0.6276
C11 C 0.21394(15) 0.12047(7) 0.49345(9)
H10 H 0.2820 0.1415 0.5381
H11 H 0.1137 0.1318 0.5018
H12 H 0.2333 0.1395 0.4401
C12 C 0.08374(16) -0.12424(8) 0.36393(9)
H13 H 0.0190 -0.0941 0.3264
H14 H 0.0257 -0.1598 0.3884
H15 H 0.1537 -0.1478 0.3330
C13 C 0.20225(13) -0.32271(7) 0.55613(9)
C14 C 0.12771(17) -0.36647(9) 0.49694(11)
H16 H 0.0544 -0.3473 0.4567
C15 C 0.1603(2) -0.44050(10) 0.49580(13)
H17 H 0.1088 -0.4707 0.4555
C16 C 0.2686(2) -0.46698(10) 0.55464(14)
H18 H 0.2917 -0.5159 0.5542
C17 C 0.3420(2) -0.42476(10) 0.61247(13)
H19 H 0.4163 -0.4441 0.6519
C18 C 0.30949(17) -0.35287(8) 0.61478(10)
H20 H 0.3606 -0.3240 0.6566
C19 C 0.51273(14) 0.11943(8) 0.76665(8)
C20 C 0.62236(18) 0.08291(8) 0.81641(10)
H21 H 0.6166 0.0330 0.8211
C21 C 0.74132(19) 0.11922(10) 0.85977(11)
H22 H 0.8148 0.0939 0.8940
C22 C 0.75159(18) 0.19187(9) 0.85262(10)
H23 H 0.8319 0.2164 0.8820
C23 C 0.6458(2) 0.22828(9) 0.80313(11)
H24 H 0.6539 0.2780 0.7976
C24 C 0.52593(18) 0.19278(8) 0.76052(11)
H25 H 0.4526 0.2188 0.7270
C25 C -0.01243(13) 0.10182(7) 0.21093(8)
C26 C -0.15459(14) 0.11605(8) 0.22726(8)
H26 H -0.1860 0.0992 0.2767
C27 C -0.25084(17) 0.15537(9) 0.17031(10)
H27 H -0.3463 0.1654 0.1823
C28 C -0.20824(17) 0.17988(9) 0.09651(10)
H28 H -0.2742 0.2059 0.0582
C29 C -0.06792(17) 0.16561(9) 0.08004(10)
H29 H -0.0377 0.1822 0.0301
C30 C 0.02969(16) 0.12702(8) 0.13608(8)
H30 H 0.1252 0.1177 0.1237
loop_
_geom_bond_atom_site_label_1
_geom_bond_atom_site_label_2
_geom_bond_site_symmetry_1
_geom_bond_site_symmetry_2
S1 C9 1_555 1_555
S2 C7 1_555 1_555
S3 C8 1_555 1_555
C1 C2 1_555 1_555
C2 C3 1_555 1_555
C3 C4 1_555 1_555
C4 C5 1_555 1_555
C5 C6 1_555 1_555
C6 C1 1_555 1_555
C7 C2 1_555 1_555
H1 C7 1_555 1_555
H2 C7 1_555 1_555
C8 C4 1_555 1_555
H3 C8 1_555 1_555
H4 C8 1_555 1_555
C9 C6 1_555 1_555
H5 C9 1_555 1_555
H6 C9 1_555 1_555
C10 C1 1_555 1_555
H7 C10 1_555 1_555
H8 C10 1_555 1_555
H9 C10 1_555 1_555
C11 C3 1_555 1_555
H10 C11 1_555 1_555
H11 C11 1_555 1_555
H12 C11 1_555 1_555
C12 C5 1_555 1_555
H13 C12 1_555 1_555
H14 C12 1_555 1_555
H15 C12 1_555 1_555
C13 S1 1_555 1_555
C14 C13 1_555 1_555
H16 C14 1_555 1_555
C15 C14 1_555 1_555
H17 C15 1_555 1_555
C16 C15 1_555 1_555
H18 C16 1_555 1_555
C17 C16 1_555 1_555
H19 C17 1_555 1_555
C18 C13 1_555 1_555
H20 C18 1_555 1_555
C19 S2 1_555 1_555
C20 C19 1_555 1_555
H21 C20 1_555 1_555
C21 C20 1_555 1_555
H22 C21 1_555 1_555
C22 C21 1_555 1_555
H23 C22 1_555 1_555
C23 C22 1_555 1_555
H24 C23 1_555 1_555
C24 C19 1_555 1_555
H25 C24 1_555 1_555
C25 S3 1_555 1_555
C26 C25 1_555 1_555
H26 C26 1_555 1_555
C27 C26 1_555 1_555
H27 C27 1_555 1_555
C28 C27 1_555 1_555
H28 C28 1_555 1_555
C29 C28 1_555 1_555
H29 C29 1_555 1_555
C30 C25 1_555 1_555
H30 C30 1_555 1_555
C17 C18 1_555 1_555
C23 C24 1_555 1_555
C29 C30 1_555 1_555

#END
