
#######################################################################
#
#                 Cambridge Crystallographic Data Centre
#                                CCDC 
#
#######################################################################
#
# If this CIF has been generated from an entry in the Cambridge 
# Structural Database, then it will include bibliographic, chemical, 
# crystal, experimental, refinement or atomic coordinate data resulting 
# from the CCDC's data processing and validation procedures.
#
#######################################################################

data_FACVEL
_chemical_formula_moiety         'C11 H14 O5'
_chemical_name_systematic        
'(+-)-2,5-Dioxo-perhydrocycloocta(b)furan-3-carboxylic acid'
_symmetry_cell_setting           orthorhombic
_symmetry_space_group_name_H-M   'P b c a'
_symmetry_Int_Tables_number      61
_space_group_name_Hall           '-P 2ac 2ab'
loop_
_symmetry_equiv_pos_site_id
_symmetry_equiv_pos_as_xyz
1 x,y,z
2 1/2+x,y,1/2-z
3 1/2-x,1/2+y,z
4 x,1/2-y,1/2+z
5 -x,-y,-z
6 1/2-x,-y,1/2+z
7 1/2+x,1/2-y,-z
8 -x,1/2+y,1/2-z
_cell_length_a                   8.07920(10)
_cell_length_b                   10.6879(2)
_cell_length_c                   24.5704(5)
_cell_angle_alpha                90
_cell_angle_beta                 90
_cell_angle_gamma                90
_cell_volume                     2121.65
_exptl_crystal_colour            colorless
_exptl_crystal_description       tabular
_cell_formula_units_Z            8
_exptl_crystal_recrystallization_method 'ethyl acetate/hexane'
loop_
_atom_site_label
_atom_site_type_symbol
_atom_site_fract_x
_atom_site_fract_y
_atom_site_fract_z
C1 C 0.25936(17) 0.71910(12) 0.39367(5)
C2 C 0.18115(16) 0.76712(12) 0.34165(5)
H1 H 0.2445 0.8418 0.3287
C3 C 0.00819(16) 0.80962(12) 0.36046(5)
H2 H -0.0681 0.736 0.3604
C4 C -0.06406(16) 0.91178(12) 0.32415(5)
H3 H 0.0154 0.9823 0.3232
H4 H -0.0724 0.8783 0.2867
C5 C -0.23037(17) 0.96266(12) 0.33993(5)
C6 C -0.35421(17) 0.88299(13) 0.36949(6)
H5 H -0.3156 0.7951 0.3698
H6 H -0.4615 0.8859 0.3501
C7 C -0.37844(18) 0.92861(13) 0.42852(6)
H7 H -0.4421 1.0078 0.4278
H8 H -0.4455 0.866 0.4484
C8 C -0.21789(18) 0.95045(13) 0.45991(5)
H9 H -0.2465 0.9724 0.4979
H10 H -0.1608 1.0236 0.4438
C9 C -0.09544(17) 0.83986(13) 0.46108(5)
H11 H -0.0458 0.8347 0.4978
H12 H -0.1577 0.7614 0.4547
C10 C 0.04278(16) 0.84862(12) 0.41947(5)
H13 H 0.0877 0.9358 0.4196
C11 C 0.17803(15) 0.67021(13) 0.29689(5)
O1 O 0.17430(11) 0.76198(9) 0.43694(4)
O2 O 0.38100(12) 0.65480(9) 0.39857(4)
O3 O -0.26599(13) 1.07091(9) 0.32865(4)
O4 O 0.18102(12) 0.55878(9) 0.30398(4)
O5 O 0.16712(14) 0.72439(9) 0.24839(4)
H14 H 0.1795 0.6703 0.224
loop_
_geom_bond_atom_site_label_1
_geom_bond_atom_site_label_2
_geom_bond_site_symmetry_1
_geom_bond_site_symmetry_2
C1 C2 1_555 1_555
C2 H1 1_555 1_555
C3 C2 1_555 1_555
H2 C3 1_555 1_555
C4 C3 1_555 1_555
H3 C4 1_555 1_555
H4 C4 1_555 1_555
C5 C4 1_555 1_555
C6 C5 1_555 1_555
H5 C6 1_555 1_555
H6 C6 1_555 1_555
C7 C6 1_555 1_555
H7 C7 1_555 1_555
H8 C7 1_555 1_555
C8 C7 1_555 1_555
H9 C8 1_555 1_555
H10 C8 1_555 1_555
C9 C8 1_555 1_555
H11 C9 1_555 1_555
H12 C9 1_555 1_555
C10 C3 1_555 1_555
H13 C10 1_555 1_555
C11 C2 1_555 1_555
O1 C1 1_555 1_555
O2 C1 1_555 1_555
O3 C5 1_555 1_555
O4 C11 1_555 1_555
O5 C11 1_555 1_555
H14 O5 1_555 1_555
C9 C10 1_555 1_555
C10 O1 1_555 1_555

#END
