
#######################################################################
#
#                 Cambridge Crystallographic Data Centre
#                                CCDC 
#
#######################################################################
#
# If this CIF has been generated from an entry in the Cambridge 
# Structural Database, then it will include bibliographic, chemical, 
# crystal, experimental, refinement or atomic coordinate data resulting 
# from the CCDC's data processing and validation procedures.
#
#######################################################################

data_FACVIP
_chemical_formula_moiety         'C14 H13 N1 O1'
_chemical_name_systematic        1-Acetamido-1-(1-naphthyl)ethylene
_symmetry_cell_setting           orthorhombic
_symmetry_space_group_name_H-M   'P b c a'
_symmetry_Int_Tables_number      61
_space_group_name_Hall           '-P 2ac 2ab'
loop_
_symmetry_equiv_pos_site_id
_symmetry_equiv_pos_as_xyz
1 x,y,z
2 1/2+x,y,1/2-z
3 x,1/2-y,1/2+z
4 1/2-x,1/2+y,z
5 -x,-y,-z
6 1/2-x,-y,1/2+z
7 -x,1/2+y,1/2-z
8 1/2+x,1/2-y,-z
_cell_length_a                   11.2035(15)
_cell_length_b                   9.2977(13)
_cell_length_c                   22.738(3)
_cell_angle_alpha                90
_cell_angle_beta                 90
_cell_angle_gamma                90
_cell_volume                     2368.54
_exptl_crystal_colour            colorless
_exptl_crystal_description       block
_cell_formula_units_Z            8
_exptl_crystal_recrystallization_method 'hexane/ethyl acetate'
loop_
_atom_site_label
_atom_site_type_symbol
_atom_site_fract_x
_atom_site_fract_y
_atom_site_fract_z
O1 O 0.27806(13) 0.26222(14) 0.55689(7)
N1 N 0.32706(13) 0.03131(15) 0.57421(7)
H1 H 0.2945 -0.0590 0.5680
C1 C 0.43930(18) 0.0490(2) 0.60172(9)
C2 C 0.4909(2) 0.1736(3) 0.61349(12)
H2 H 0.4569 0.2668 0.6045
H3 H 0.5648 0.1731 0.6365
C3 C 0.49925(17) -0.0898(2) 0.61534(9)
C4 C 0.60170(19) -0.1258(3) 0.58605(10)
H4 H 0.6328 -0.0623 0.5584
C5 C 0.6604(2) -0.2551(3) 0.59665(13)
H5 H 0.7299 -0.2766 0.5761
C6 C 0.6178(2) -0.3489(3) 0.63617(13)
H6 H 0.6582 -0.4348 0.6427
C7 C 0.5116(2) -0.3189(2) 0.66842(10)
C8 C 0.4647(3) -0.4147(3) 0.70999(13)
H7 H 0.5029 -0.5019 0.7168
C9 C 0.3641(3) -0.3818(3) 0.74041(12)
H8 H 0.3341 -0.4462 0.7680
C10 C 0.3061(2) -0.2529(3) 0.73052(11)
H9 H 0.2372 -0.2315 0.7516
C11 C 0.34805(18) -0.1570(2) 0.69048(9)
H10 H 0.3077 -0.0708 0.6845
C12 C 0.45229(17) -0.1869(2) 0.65783(8)
C13 C 0.25292(17) 0.1346(2) 0.55456(8)
C14 C 0.13884(19) 0.0832(2) 0.52842(10)
H11 H 0.1286 -0.0107 0.5112
H12 H 0.1165 0.1514 0.4985
H13 H 0.0770 0.0908 0.5584
loop_
_geom_bond_atom_site_label_1
_geom_bond_atom_site_label_2
_geom_bond_site_symmetry_1
_geom_bond_site_symmetry_2
O1 C13 1_555 1_555
N1 H1 1_555 1_555
C1 N1 1_555 1_555
C2 C1 1_555 1_555
H2 C2 1_555 1_555
H3 C2 1_555 1_555
C3 C1 1_555 1_555
C4 C3 1_555 1_555
H4 C4 1_555 1_555
C5 C4 1_555 1_555
H5 C5 1_555 1_555
C6 C5 1_555 1_555
H6 C6 1_555 1_555
C7 C6 1_555 1_555
C8 C7 1_555 1_555
H7 C8 1_555 1_555
C9 C8 1_555 1_555
H8 C9 1_555 1_555
C10 C9 1_555 1_555
H9 C10 1_555 1_555
C11 C10 1_555 1_555
H10 C11 1_555 1_555
C12 C3 1_555 1_555
C13 N1 1_555 1_555
C14 C13 1_555 1_555
H11 C14 1_555 1_555
H12 C14 1_555 1_555
H13 C14 1_555 1_555
C7 C12 1_555 1_555
C11 C12 1_555 1_555

#END
