
#######################################################################
#
#                 Cambridge Crystallographic Data Centre
#                                CCDC 
#
#######################################################################
#
# If this CIF has been generated from an entry in the Cambridge 
# Structural Database, then it will include bibliographic, chemical, 
# crystal, experimental, refinement or atomic coordinate data resulting 
# from the CCDC's data processing and validation procedures.
#
#######################################################################

data_FACWIS
_chemical_formula_moiety         'C46 H36 N2 O2,0.5(H2 O1)'
_chemical_name_systematic        
"4,4'-(2-(4-(2,2-bis(4-methoxyphenyl)-1-phenylvinyl)phenyl)-2-phenylethene-1,1-diyl)dipyridine hemihydrate"
_symmetry_cell_setting           monoclinic
_symmetry_space_group_name_H-M   'P 21/n'
_symmetry_Int_Tables_number      14
_space_group_name_Hall           '-P 2yn'
loop_
_symmetry_equiv_pos_site_id
_symmetry_equiv_pos_as_xyz
1 x,y,z
2 1/2-x,1/2+y,1/2-z
3 -x,-y,-z
4 1/2+x,1/2-y,1/2+z
_cell_length_a                   13.6433(5)
_cell_length_b                   9.4097(4)
_cell_length_c                   27.9104(10)
_cell_angle_alpha                90
_cell_angle_beta                 102.079(4)
_cell_angle_gamma                90
_cell_volume                     3503.79
_exptl_crystal_colour            colorless
_exptl_crystal_description       plate
_cell_formula_units_Z            4
_exptl_crystal_recrystallization_method 
'Re-crystallisation from solvent: ethyl acetate'
_exptl_crystal_preparation       Luminescent
loop_
_atom_site_label
_atom_site_type_symbol
_atom_site_fract_x
_atom_site_fract_y
_atom_site_fract_z
O1 O 0.55659(12) 0.17926(19) 0.08467(6)
O2 O -0.01564(13) 0.3607(2) 0.23655(6)
C1 C 0.43687(16) 0.4589(2) 0.33230(8)
C2 C 0.47208(17) 0.3924(3) 0.37728(8)
H1 H 0.5211 0.3196 0.3797
C3 C 0.43660(17) 0.4311(2) 0.41861(8)
H2 H 0.4593 0.3818 0.4486
C4 C 0.36781(16) 0.5421(2) 0.41636(8)
C5 C 0.33438(17) 0.6104(2) 0.37155(8)
H3 H 0.2878 0.6863 0.3694
C6 C 0.36816(17) 0.5691(3) 0.33024(8)
H4 H 0.3441 0.6167 0.3000
C7 C 0.47080(17) 0.4069(2) 0.28811(8)
C8 C 0.58235(18) 0.4080(3) 0.29223(8)
C9 C 0.63672(19) 0.5246(3) 0.31408(9)
H5 H 0.6028 0.5992 0.3268
C10 C 0.7396(2) 0.5342(3) 0.31764(9)
H6 H 0.7750 0.6158 0.3320
C11 C 0.7905(2) 0.4251(4) 0.30021(9)
H7 H 0.8608 0.4317 0.3021
C12 C 0.7378(2) 0.3058(4) 0.27987(9)
H8 H 0.7726 0.2291 0.2689
C13 C 0.63476(19) 0.2978(3) 0.27550(8)
H9 H 0.5995 0.2163 0.2609
C14 C 0.40440(17) 0.3634(3) 0.24764(8)
C15 C 0.43760(17) 0.3174(3) 0.20231(8)
C16 C 0.48968(18) 0.4081(3) 0.17685(8)
H10 H 0.5004 0.5043 0.1870
C17 C 0.52593(18) 0.3598(3) 0.13709(8)
H11 H 0.5591 0.4236 0.1194
C18 C 0.51395(17) 0.2183(3) 0.12303(8)
C19 C 0.46017(17) 0.1264(3) 0.14718(8)
H12 H 0.4500 0.0301 0.1372
C20 C 0.42158(16) 0.1782(3) 0.18624(8)
H13 H 0.3834 0.1167 0.2022
C21 C 0.55099(19) 0.0330(3) 0.07064(9)
H14 H 0.5860 0.0189 0.0437
H15 H 0.4806 0.0052 0.0599
H16 H 0.5826 -0.0256 0.0987
C22 C 0.29414(17) 0.3598(2) 0.24462(8)
C23 C 0.22981(18) 0.4201(3) 0.20447(8)
H17 H 0.2574 0.4595 0.1789
C24 C 0.12653(18) 0.4248(3) 0.20047(8)
H18 H 0.0848 0.4692 0.1730
C25 C 0.08511(18) 0.3640(3) 0.23698(9)
C26 C 0.14706(18) 0.3010(3) 0.27741(8)
H19 H 0.1190 0.2596 0.3025
C27 C 0.25020(18) 0.2991(3) 0.28082(8)
H20 H 0.2919 0.2556 0.3084
C28 C -0.08073(19) 0.4150(3) 0.19372(10)
H21 H -0.0736 0.3580 0.1653
H22 H -0.0631 0.5140 0.1886
H23 H -0.1502 0.4102 0.1979
C29 C 0.32326(17) 0.5775(3) 0.45953(7)
C30 C 0.27752(16) 0.4533(2) 0.48009(8)
C31 C 0.30026(17) 0.4233(3) 0.53040(8)
H24 H 0.3422 0.4859 0.5523
C32 C 0.26180(18) 0.3030(3) 0.54826(9)
H25 H 0.2780 0.2831 0.5824
C33 C 0.19991(18) 0.2113(3) 0.51684(10)
H26 H 0.1744 0.1282 0.5293
C34 C 0.17531(18) 0.2413(3) 0.46715(9)
H27 H 0.1309 0.1807 0.4456
C35 C 0.21583(17) 0.3606(3) 0.44895(8)
H28 H 0.2009 0.3787 0.4147
C36 C 0.31919(17) 0.7116(3) 0.47556(8)
C37 C 0.25409(17) 0.7546(2) 0.50999(8)
C38 C 0.29306(18) 0.8034(3) 0.55741(8)
H29 H 0.3634 0.8103 0.5693
C39 C 0.2271(2) 0.8416(3) 0.58686(9)
H30 H 0.2548 0.8712 0.6194
N1 N 0.12757(18) 0.8398(3) 0.57262(9)
C40 C 0.0915(2) 0.7963(3) 0.52686(10)
H31 H 0.0208 0.7944 0.5155
C41 C 0.15028(18) 0.7539(3) 0.49509(9)
H32 H 0.1200 0.7240 0.4629
C42 C 0.37253(17) 0.8307(3) 0.45701(8)
C43 C 0.32449(18) 0.9573(3) 0.44051(8)
H33 H 0.2556 0.9698 0.4410
C44 C 0.37738(18) 1.0651(3) 0.42341(8)
H34 H 0.3423 1.1495 0.4115
N2 N 0.47532(15) 1.0570(2) 0.42273(7)
C45 C 0.52169(17) 0.9362(3) 0.43985(8)
H35 H 0.5914 0.9284 0.4405
C46 C 0.47444(17) 0.8222(3) 0.45666(8)
H36 H 0.5112 0.7386 0.4679
O3 O 0.0034(4) 0.7534(6) 0.64254(18)
loop_
_geom_bond_atom_site_label_1
_geom_bond_atom_site_label_2
_geom_bond_site_symmetry_1
_geom_bond_site_symmetry_2
O1 C18 1_555 1_555
O2 C25 1_555 1_555
C1 C2 1_555 1_555
C2 H1 1_555 1_555
C3 C2 1_555 1_555
H2 C3 1_555 1_555
C4 C3 1_555 1_555
C5 C4 1_555 1_555
H3 C5 1_555 1_555
C6 C1 1_555 1_555
H4 C6 1_555 1_555
C7 C1 1_555 1_555
C8 C7 1_555 1_555
C9 C8 1_555 1_555
H5 C9 1_555 1_555
C10 C9 1_555 1_555
H6 C10 1_555 1_555
C11 C10 1_555 1_555
H7 C11 1_555 1_555
C12 C11 1_555 1_555
H8 C12 1_555 1_555
C13 C8 1_555 1_555
H9 C13 1_555 1_555
C14 C7 1_555 1_555
C15 C14 1_555 1_555
C16 C15 1_555 1_555
H10 C16 1_555 1_555
C17 C16 1_555 1_555
H11 C17 1_555 1_555
C18 C17 1_555 1_555
C19 C18 1_555 1_555
H12 C19 1_555 1_555
C20 C15 1_555 1_555
H13 C20 1_555 1_555
C21 O1 1_555 1_555
H14 C21 1_555 1_555
H15 C21 1_555 1_555
H16 C21 1_555 1_555
C22 C14 1_555 1_555
C23 C22 1_555 1_555
H17 C23 1_555 1_555
C24 C23 1_555 1_555
H18 C24 1_555 1_555
C25 C24 1_555 1_555
C26 C25 1_555 1_555
H19 C26 1_555 1_555
C27 C22 1_555 1_555
H20 C27 1_555 1_555
C28 O2 1_555 1_555
H21 C28 1_555 1_555
H22 C28 1_555 1_555
H23 C28 1_555 1_555
C29 C4 1_555 1_555
C30 C29 1_555 1_555
C31 C30 1_555 1_555
H24 C31 1_555 1_555
C32 C31 1_555 1_555
H25 C32 1_555 1_555
C33 C32 1_555 1_555
H26 C33 1_555 1_555
C34 C33 1_555 1_555
H27 C34 1_555 1_555
C35 C30 1_555 1_555
H28 C35 1_555 1_555
C36 C29 1_555 1_555
C37 C36 1_555 1_555
C38 C37 1_555 1_555
H29 C38 1_555 1_555
C39 C38 1_555 1_555
H30 C39 1_555 1_555
N1 C39 1_555 1_555
C40 N1 1_555 1_555
H31 C40 1_555 1_555
C41 C37 1_555 1_555
H32 C41 1_555 1_555
C42 C36 1_555 1_555
C43 C42 1_555 1_555
H33 C43 1_555 1_555
C44 C43 1_555 1_555
H34 C44 1_555 1_555
N2 C44 1_555 1_555
C45 N2 1_555 1_555
H35 C45 1_555 1_555
C46 C42 1_555 1_555
H36 C46 1_555 1_555
C5 C6 1_555 1_555
C12 C13 1_555 1_555
C19 C20 1_555 1_555
C26 C27 1_555 1_555
C34 C35 1_555 1_555
C40 C41 1_555 1_555
C45 C46 1_555 1_555

#END
