
#######################################################################
#
#                 Cambridge Crystallographic Data Centre
#                                CCDC 
#
#######################################################################
#
# If this CIF has been generated from an entry in the Cambridge 
# Structural Database, then it will include bibliographic, chemical, 
# crystal, experimental, refinement or atomic coordinate data resulting 
# from the CCDC's data processing and validation procedures.
#
#######################################################################

data_FACWIP01
_chemical_formula_moiety         'C36 H60 N8 6+,6(N1 O3 1-),2(H2 O1)'
_chemical_name_systematic        
'6,16,25(1,3)-Tribenzena-1,11-diaza-4,8,14,18,23,27-hexa-azoniabicyclo[9.9.9]nonacosaphane dinitrate clathrate tetranitrate dihydrate'
_symmetry_cell_setting           triclinic
_symmetry_space_group_name_H-M   'P -1'
_symmetry_Int_Tables_number      2
_space_group_name_Hall           '-P 1'
loop_
_symmetry_equiv_pos_site_id
_symmetry_equiv_pos_as_xyz
1 x,y,z
2 -x,-y,-z
_cell_length_a                   10.1676(8)
_cell_length_b                   10.3453(8)
_cell_length_c                   25.510(2)
_cell_angle_alpha                80.453(2)
_cell_angle_beta                 84.666(2)
_cell_angle_gamma                62.182(2)
_cell_volume                     2339.98
_exptl_crystal_colour            colorless
_exptl_crystal_description       blocks
_cell_formula_units_Z            2
loop_
_atom_site_label
_atom_site_type_symbol
_atom_site_fract_x
_atom_site_fract_y
_atom_site_fract_z
N1 N 0.95467(11) 0.27261(11) 0.43552(4)
C1 C 0.83218(15) 0.25590(15) 0.46640(5)
H1 H 0.7491 0.3552 0.4695
H2 H 0.8671 0.2067 0.5027
C2 C 0.77432(15) 0.16789(14) 0.44243(5)
H3 H 0.8595 0.0812 0.4297
H4 H 0.7204 0.1313 0.4703
N2 N 0.67253(12) 0.25779(12) 0.39726(4)
C3 C 0.62533(15) 0.16680(14) 0.37154(5)
H5 H 0.5755 0.1230 0.3985
H6 H 0.7145 0.0850 0.3580
C4 C 0.52126(14) 0.25579(14) 0.32641(5)
C5 C 0.38056(15) 0.36807(15) 0.33559(5)
H7 H 0.3515 0.3936 0.3704
C6 C 0.28220(15) 0.44318(15) 0.29394(6)
H8 H 0.1868 0.5213 0.3003
C7 C 0.32263(15) 0.40458(15) 0.24316(5)
H9 H 0.2535 0.4533 0.2151
C8 C 0.46422(15) 0.29458(14) 0.23340(5)
C9 C 0.56350(14) 0.22122(14) 0.27504(5)
H10 H 0.6609 0.1469 0.2683
C10 C 0.51297(15) 0.25229(14) 0.17846(5)
H11 H 0.6085 0.1605 0.1806
H12 H 0.4380 0.2329 0.1639
N3 N 0.53140(12) 0.37194(12) 0.14216(4)
C11 C 0.59203(15) 0.32809(15) 0.08893(5)
H13 H 0.5200 0.3109 0.0713
H14 H 0.6855 0.2343 0.0935
C12 C 0.62251(14) 0.44469(15) 0.05391(5)
H15 H 0.6254 0.4306 0.0163
H16 H 0.5396 0.5432 0.0583
N4 N 0.76358(12) 0.44126(12) 0.06592(4)
C13 C 1.09451(14) 0.13646(14) 0.44830(5)
H17 H 1.0745 0.0506 0.4513
H18 H 1.1284 0.1372 0.4834
C14 C 1.21848(14) 0.11701(15) 0.40768(5)
H19 H 1.2142 0.2143 0.3942
H20 H 1.3156 0.0533 0.4249
N5 N 1.20646(12) 0.04924(13) 0.36216(5)
C15 C 1.33038(16) 0.02526(18) 0.32270(6)
H21 H 1.4254 -0.0481 0.3396
H22 H 1.3360 0.1190 0.3120
C16 C 1.31127(14) -0.02843(16) 0.27376(6)
C17 C 1.34182(16) -0.17435(16) 0.27403(6)
H23 H 1.3720 -0.2422 0.3059
C18 C 1.32817(17) -0.22083(16) 0.22765(6)
H24 H 1.3470 -0.3200 0.2281
C19 C 1.28731(15) -0.12356(16) 0.18067(6)
H25 H 1.2798 -0.1566 0.1490
C20 C 1.25732(14) 0.02225(15) 0.17993(6)
C21 C 1.26670(14) 0.06914(15) 0.22687(6)
H26 H 1.2422 0.1697 0.2269
C22 C 1.22186(16) 0.12808(17) 0.12899(6)
H27 H 1.2253 0.2185 0.1351
H28 H 1.2987 0.0824 0.1018
N6 N 1.07295(12) 0.16935(13) 0.10857(4)
C23 C 1.03893(15) 0.27926(16) 0.05928(5)
H29 H 1.1145 0.2356 0.0314
H30 H 1.0448 0.3672 0.0669
C24 C 0.88532(15) 0.32642(16) 0.03866(5)
H31 H 0.8831 0.3636 0.0002
H32 H 0.8678 0.2388 0.0426
C25 C 0.96823(14) 0.39613(14) 0.45197(5)
H33 H 1.0675 0.3876 0.4408
H34 H 0.9615 0.3879 0.4912
C26 C 0.85010(15) 0.54690(14) 0.42875(5)
H35 H 0.7547 0.5435 0.4277
H36 H 0.8356 0.6200 0.4522
N7 N 0.89039(12) 0.59594(12) 0.37408(4)
C27 C 0.76518(15) 0.73643(15) 0.34942(5)
H37 H 0.7430 0.8155 0.3711
H38 H 0.6751 0.7225 0.3497
C28 C 0.80048(14) 0.78399(14) 0.29309(5)
C29 C 0.89788(15) 0.84526(15) 0.28204(6)
H39 H 0.9471 0.8535 0.3102
C30 C 0.92336(16) 0.89430(16) 0.23001(6)
H40 H 0.9911 0.9346 0.2226
C31 C 0.85021(15) 0.88460(15) 0.18876(5)
H41 H 0.8674 0.9190 0.1532
C32 C 0.75165(14) 0.82463(14) 0.19927(5)
C33 C 0.73000(14) 0.77182(14) 0.25143(5)
H42 H 0.6662 0.7268 0.2587
C34 C 0.66304(16) 0.82132(16) 0.15585(6)
H43 H 0.5812 0.8009 0.1721
H44 H 0.6181 0.9195 0.1339
N8 N 0.75559(13) 0.70753(13) 0.12098(5)
C35 C 0.66379(16) 0.70449(15) 0.07914(6)
H45 H 0.6193 0.8019 0.0567
H46 H 0.5817 0.6859 0.0963
C36 C 0.75594(16) 0.58623(15) 0.04450(5)
H47 H 0.7128 0.6177 0.0086
H48 H 0.8581 0.5759 0.0409
H49 H 0.5843 0.3367 0.4100
H50 H 0.7154 0.2948 0.3716
H51 H 0.5871 0.4046 0.1587
H52 H 0.4407 0.4541 0.1367
H53 H 1.1211 0.1055 0.3460
H54 H 1.2105 -0.0444 0.3744
H55 H 1.0786 0.0828 0.1000
H56 H 1.0049 0.2085 0.1336
H57 H 0.9722 0.6127 0.3758
H58 H 0.9167 0.5233 0.3534
H59 H 0.8006 0.6178 0.1418
H60 H 0.8207 0.7335 0.1038
N9 N 0.90201(14) 0.33439(14) 0.31514(4)
O1 O 0.77447(11) 0.43512(12) 0.32274(4)
O2 O 0.92135(12) 0.20541(12) 0.31561(4)
O3 O 1.01092(12) 0.36108(12) 0.30959(4)
N10 N 0.81519(13) 0.38479(14) 0.18570(4)
O4 O 0.68635(11) 0.48618(11) 0.19164(4)
O5 O 0.83509(11) 0.25589(11) 0.18545(4)
O6 O 0.92237(11) 0.41379(13) 0.17769(4)
N11 N 1.41330(14) 0.18304(13) 0.51656(5)
O7 O 1.51001(14) 0.19207(15) 0.53991(6)
O8 O 1.35656(15) 0.10326(14) 0.53746(5)
O9 O 1.36863(17) 0.25886(15) 0.47240(5)
N12 N 0.63327(14) 0.06945(14) 0.02383(5)
O10 O 0.63458(14) 0.16588(14) -0.01259(5)
O11 O 0.75224(13) -0.04364(14) 0.03663(6)
O12 O 0.51495(12) 0.08743(12) 0.04771(5)
N13 N 0.16924(13) 0.59432(13) 0.10558(4)
O13 O 0.20530(16) 0.46363(13) 0.10416(6)
O14 O 0.26158(12) 0.62820(12) 0.12025(5)
O15 O 0.04309(11) 0.69498(13) 0.09115(4)
N14 N 1.13029(13) 0.74524(13) 0.39949(4)
O16 O 1.00924(14) 0.85575(14) 0.39682(5)
O17 O 1.24766(13) 0.75750(13) 0.40091(4)
O18 O 1.13942(12) 0.62019(12) 0.40177(5)
O19 O 1.07280(13) -0.04207(13) 0.06160(5)
H61 H 1.0528 -0.1229 0.0718
H62 H 1.1560 -0.0767 0.0390
O20 O 1.4601(3) 0.4689(2) 0.45489(10)
O21? O 1.4972(3) 0.5170(3) 0.43628(11)
loop_
_geom_bond_atom_site_label_1
_geom_bond_atom_site_label_2
_geom_bond_site_symmetry_1
_geom_bond_site_symmetry_2
N1 C1 1_555 1_555
C1 H1 1_555 1_555
H2 C1 1_555 1_555
C2 C1 1_555 1_555
H3 C2 1_555 1_555
H4 C2 1_555 1_555
N2 C2 1_555 1_555
C3 N2 1_555 1_555
H5 C3 1_555 1_555
H6 C3 1_555 1_555
C4 C3 1_555 1_555
C5 C4 1_555 1_555
H7 C5 1_555 1_555
C6 C5 1_555 1_555
H8 C6 1_555 1_555
C7 C6 1_555 1_555
H9 C7 1_555 1_555
C8 C7 1_555 1_555
C9 C4 1_555 1_555
H10 C9 1_555 1_555
C10 C8 1_555 1_555
H11 C10 1_555 1_555
H12 C10 1_555 1_555
N3 C10 1_555 1_555
C11 N3 1_555 1_555
H13 C11 1_555 1_555
H14 C11 1_555 1_555
C12 C11 1_555 1_555
H15 C12 1_555 1_555
H16 C12 1_555 1_555
N4 C12 1_555 1_555
C13 N1 1_555 1_555
H17 C13 1_555 1_555
H18 C13 1_555 1_555
C14 C13 1_555 1_555
H19 C14 1_555 1_555
H20 C14 1_555 1_555
N5 C14 1_555 1_555
C15 N5 1_555 1_555
H21 C15 1_555 1_555
H22 C15 1_555 1_555
C16 C15 1_555 1_555
C17 C16 1_555 1_555
H23 C17 1_555 1_555
C18 C17 1_555 1_555
H24 C18 1_555 1_555
C19 C18 1_555 1_555
H25 C19 1_555 1_555
C20 C19 1_555 1_555
C21 C16 1_555 1_555
H26 C21 1_555 1_555
C22 C20 1_555 1_555
H27 C22 1_555 1_555
H28 C22 1_555 1_555
N6 C22 1_555 1_555
C23 N6 1_555 1_555
H29 C23 1_555 1_555
H30 C23 1_555 1_555
C24 N4 1_555 1_555
H31 C24 1_555 1_555
H32 C24 1_555 1_555
C25 N1 1_555 1_555
H33 C25 1_555 1_555
H34 C25 1_555 1_555
C26 C25 1_555 1_555
H35 C26 1_555 1_555
H36 C26 1_555 1_555
N7 C26 1_555 1_555
C27 N7 1_555 1_555
H37 C27 1_555 1_555
H38 C27 1_555 1_555
C28 C27 1_555 1_555
C29 C28 1_555 1_555
H39 C29 1_555 1_555
C30 C29 1_555 1_555
H40 C30 1_555 1_555
C31 C30 1_555 1_555
H41 C31 1_555 1_555
C32 C31 1_555 1_555
C33 C28 1_555 1_555
H42 C33 1_555 1_555
C34 C32 1_555 1_555
H43 C34 1_555 1_555
H44 C34 1_555 1_555
N8 C34 1_555 1_555
C35 N8 1_555 1_555
H45 C35 1_555 1_555
H46 C35 1_555 1_555
C36 N4 1_555 1_555
H47 C36 1_555 1_555
H48 C36 1_555 1_555
N9 O1 1_555 1_555
O2 N9 1_555 1_555
O3 N9 1_555 1_555
N10 O4 1_555 1_555
O5 N10 1_555 1_555
O6 N10 1_555 1_555
N11 O7 1_555 1_555
O8 N11 1_555 1_555
O9 N11 1_555 1_555
N12 O10 1_555 1_555
O11 N12 1_555 1_555
O12 N12 1_555 1_555
N13 O13 1_555 1_555
O14 N13 1_555 1_555
O15 N13 1_555 1_555
N14 O16 1_555 1_555
O17 N14 1_555 1_555
O18 N14 1_555 1_555
O19 H61 1_555 1_555
H49 N2 1_555 1_555
H50 N2 1_555 1_555
H51 N3 1_555 1_555
H52 N3 1_555 1_555
H53 N5 1_555 1_555
H54 N5 1_555 1_555
H55 N6 1_555 1_555
H56 N6 1_555 1_555
H57 N7 1_555 1_555
H58 N7 1_555 1_555
H59 N8 1_555 1_555
H60 N8 1_555 1_555
H62 O19 1_555 1_555
C8 C9 1_555 1_555
C20 C21 1_555 1_555
C23 C24 1_555 1_555
C32 C33 1_555 1_555
C35 C36 1_555 1_555

#END
