
#######################################################################
#
#                 Cambridge Crystallographic Data Centre
#                                CCDC 
#
#######################################################################
#
# If this CIF has been generated from an entry in the Cambridge 
# Structural Database, then it will include bibliographic, chemical, 
# crystal, experimental, refinement or atomic coordinate data resulting 
# from the CCDC's data processing and validation procedures.
#
#######################################################################

data_FACXEM
_chemical_formula_moiety         'C21 H26 O4'
_chemical_name_systematic        
cis-1,4-Dimethoxy-14\a-methyl-11-oxo-9\b-estra-1,3,5(10)-triene
_symmetry_cell_setting           monoclinic
_symmetry_space_group_name_H-M   'P 21/c'
_symmetry_Int_Tables_number      14
_space_group_name_Hall           '-P 2ybc'
loop_
_symmetry_equiv_pos_site_id
_symmetry_equiv_pos_as_xyz
1 x,y,z
2 -x,1/2+y,1/2-z
3 -x,-y,-z
4 x,1/2-y,1/2+z
_cell_length_a                   9.261(3)
_cell_length_b                   11.532(4)
_cell_length_c                   16.589(5)
_cell_angle_alpha                90
_cell_angle_beta                 99.29(3)
_cell_angle_gamma                90
_cell_volume                     1748.43
_chemical_melting_point          229-231deg.C
_cell_formula_units_Z            4
loop_
_atom_site_label
_atom_site_type_symbol
_atom_site_fract_x
_atom_site_fract_y
_atom_site_fract_z
O1 O 0.7718(3) -0.0571(3) 0.6671(2)
O2 O 0.2188(3) 0.0985(3) 0.6889(2)
O3 O 0.8118(3) 0.2167(3) 0.6991(2)
O4 O 1.0479(3) 0.3791(3) 0.4541(2)
C1 C 0.6334(4) -0.0235(3) 0.6769(2)
C2 C 0.5514(4) -0.0786(3) 0.7271(2)
C3 C 0.4131(4) -0.0383(3) 0.7331(2)
C4 C 0.3571(4) 0.0552(4) 0.6878(2)
C5 C 0.4386(4) 0.1115(3) 0.6352(2)
C6 C 0.3756(6) 0.2105(4) 0.5813(3)
C7 C 0.4451(7) 0.2109(7) 0.5005(4)
C8 C 0.5927(4) 0.2067(4) 0.5057(3)
C9 C 0.6738(4) 0.1314(3) 0.5772(2)
C10 C 0.5783(4) 0.0736(3) 0.6311(2)
C11 C 0.8016(4) 0.1975(3) 0.6265(2)
C12 C 0.9169(4) 0.2380(4) 0.5770(2)
C13 C 0.8508(4) 0.2590(3) 0.4882(2)
C14 C 0.6932(4) 0.3033(3) 0.4828(2)
C15 C 0.6588(5) 0.3500(4) 0.3944(2)
C16 C 0.8014(5) 0.4093(4) 0.3816(2)
C17 C 0.9201(4) 0.3547(4) 0.4439(2)
C18 C 0.8686(6) 0.1515(4) 0.4344(3)
C19 C 0.6924(5) 0.4082(4) 0.5393(2)
C20 C 0.8207(5) -0.1653(5) 0.7014(3)
C21 C 0.1363(5) 0.0482(5) 0.7455(3)
H1 H 0.588(3) -0.145(3) 0.756(2)
H2 H 0.357(4) -0.081(3) 0.768(2)
H3 H 0.365 0.274 0.616
H4 H 0.282 0.187 0.554
H5 H 0.410 0.280 0.470
H6 H 0.402 0.146 0.468
H7 H 0.571 0.160 0.458
H8 H 0.724(3) 0.071(3) 0.555(2)
H9 H 0.994(4) 0.175(3) 0.584(2)
H10 H 0.959(4) 0.315(3) 0.602(2)
H11 H 0.568(4) 0.402(3) 0.388(2)
H12 H 0.633(4) 0.286(4) 0.355(2)
H13 H 0.800(4) 0.499(3) 0.396(2)
H14 H 0.818(4) 0.397(4) 0.324(2)
H15 H 0.973(6) 0.134(5) 0.435(3)
H16 H 0.818(4) 0.093(4) 0.447(2)
H17 H 0.834(4) 0.171(4) 0.376(2)
H18 H 0.599(4) 0.447(3) 0.529(2)
H19 H 0.707(4) 0.388(3) 0.597(2)
H20 H 0.769(4) 0.470(4) 0.527(2)
H21 H 0.919(5) -0.179(4) 0.687(3)
H22 H 0.834(4) -0.162(3) 0.761(2)
H23 H 0.753(7) -0.227(6) 0.674(4)
H24 H 0.050(5) 0.092(4) 0.741(3)
H25 H 0.123(5) -0.044(4) 0.738(3)
H26 H 0.184(4) 0.062(3) 0.801(2)
loop_
_geom_bond_atom_site_label_1
_geom_bond_atom_site_label_2
_geom_bond_site_symmetry_1
_geom_bond_site_symmetry_2
O1 C1 1_555 1_555
O2 C4 1_555 1_555
O3 C11 1_555 1_555
O4 C17 1_555 1_555
C1 C2 1_555 1_555
C2 C3 1_555 1_555
C3 C4 1_555 1_555
C4 C5 1_555 1_555
C5 C6 1_555 1_555
C6 C7 1_555 1_555
C7 C8 1_555 1_555
C8 C9 1_555 1_555
C9 C10 1_555 1_555
C10 C1 1_555 1_555
C11 C9 1_555 1_555
C12 C11 1_555 1_555
C13 C12 1_555 1_555
C14 C8 1_555 1_555
C15 C14 1_555 1_555
C16 C15 1_555 1_555
C17 C13 1_555 1_555
C18 C13 1_555 1_555
C19 C14 1_555 1_555
C20 O1 1_555 1_555
C21 O2 1_555 1_555
H1 C2 1_555 1_555
H2 C3 1_555 1_555
H3 C6 1_555 1_555
H4 C6 1_555 1_555
H5 C7 1_555 1_555
H6 C7 1_555 1_555
H7 C8 1_555 1_555
H8 C9 1_555 1_555
H9 C12 1_555 1_555
H10 C12 1_555 1_555
H11 C15 1_555 1_555
H12 C15 1_555 1_555
H13 C16 1_555 1_555
H14 C16 1_555 1_555
H15 C18 1_555 1_555
H16 C18 1_555 1_555
H17 C18 1_555 1_555
H18 C19 1_555 1_555
H19 C19 1_555 1_555
H20 C19 1_555 1_555
H21 C20 1_555 1_555
H22 C20 1_555 1_555
H23 C20 1_555 1_555
H24 C21 1_555 1_555
H25 C21 1_555 1_555
H26 C21 1_555 1_555
C5 C10 1_555 1_555
C13 C14 1_555 1_555
C16 C17 1_555 1_555

#END
