
#######################################################################
#
#                 Cambridge Crystallographic Data Centre
#                                CCDC 
#
#######################################################################
#
# If this CIF has been generated from an entry in the Cambridge 
# Structural Database, then it will include bibliographic, chemical, 
# crystal, experimental, refinement or atomic coordinate data resulting 
# from the CCDC's data processing and validation procedures.
#
#######################################################################

data_FACXEN
_chemical_formula_moiety         'C52 H56 O2 P2'
_chemical_name_systematic        
(S)-2,2'-bis(bis(3,5-Dimethylphenyl)phosphinoyl)-5,5',6,6',7,7',8,8'-octahydro-1,1'-binaphthyl
_symmetry_cell_setting           orthorhombic
_symmetry_space_group_name_H-M   'P 21 21 2'
_symmetry_Int_Tables_number      18
_space_group_name_Hall           'P 2 2ab'
loop_
_symmetry_equiv_pos_site_id
_symmetry_equiv_pos_as_xyz
1 x,y,z
2 -x,-y,z
3 1/2-x,1/2+y,-z
4 1/2+x,1/2-y,-z
_cell_length_a                   13.1983(18)
_cell_length_b                   19.015(3)
_cell_length_c                   8.8486(12)
_cell_angle_alpha                90
_cell_angle_beta                 90
_cell_angle_gamma                90
_cell_volume                     2220.69
_exptl_crystal_colour            colorless
_exptl_crystal_description       block
_cell_formula_units_Z            2
_exptl_crystal_recrystallization_method 'diethyl ether/dichloromethane'
loop_
_atom_site_label
_atom_site_type_symbol
_atom_site_fract_x
_atom_site_fract_y
_atom_site_fract_z
P1 P 0.25399(5) 0.04515(3) 0.63295(8)
O1 O 0.37731(12) 0.03915(9) 0.6105(2)
C1 C 0.44142(18) 0.07676(13) 0.7069(3)
C2 C 0.50291(17) 0.03932(12) 0.8033(3)
C3 C 0.57059(17) 0.07564(13) 0.8971(3)
C4 C 0.57599(19) 0.14848(13) 0.8897(3)
C5 C 0.5118(2) 0.18387(14) 0.7915(4)
H1 H 0.5142 0.2327 0.7880
C6 C 0.4453(2) 0.14923(14) 0.7000(4)
H2 H 0.4034 0.1740 0.6343
C7 C 0.6382(2) 0.03482(14) 1.0038(3)
H3 H 0.5972 0.0008 1.0580
H4 H 0.6877 0.0090 0.9449
C8 C 0.6920(3) 0.07922(18) 1.1146(5)
H5 H 0.6475 0.0870 1.2002
H6 H 0.7504 0.0533 1.1511
C9 C 0.7263(3) 0.14666(16) 1.0607(5)
H7 H 0.7535 0.1728 1.1456
H8 H 0.7812 0.1391 0.9897
C10 C 0.6488(2) 0.18970(14) 0.9872(4)
H9 H 0.6820 0.2248 0.9250
H10 H 0.6105 0.2143 1.0644
C11 C 0.22009(19) -0.04828(14) 0.6221(3)
C12 C 0.2805(2) -0.09767(14) 0.5532(3)
H11 H 0.3411 -0.0839 0.5087
C13 C 0.2518(3) -0.16836(14) 0.5493(3)
C14 C 0.1611(3) -0.18645(16) 0.6172(4)
H12 H 0.1411 -0.2333 0.6151
C15 C 0.0987(2) -0.13820(18) 0.6881(4)
C16 C 0.1307(2) -0.06902(16) 0.6912(3)
H13 H 0.0913 -0.0356 0.7408
C17 C 0.3180(3) -0.22299(16) 0.4754(5)
H14 H 0.2862 -0.2682 0.4833
H15 H 0.3826 -0.2242 0.5251
H16 H 0.3273 -0.2113 0.3708
C18 C 0.0027(3) -0.1618(2) 0.7629(5)
H17 H -0.0060 -0.2114 0.7477
H18 H -0.0537 -0.1370 0.7199
H19 H 0.0064 -0.1521 0.8693
C19 C 0.21828(19) 0.07338(12) 0.4439(3)
C20 C 0.1160(2) 0.07499(14) 0.4076(3)
H20 H 0.0688 0.0594 0.4782
C21 C 0.0828(2) 0.09904(15) 0.2698(4)
C22 C 0.1542(2) 0.12326(14) 0.1666(4)
H21 H 0.1326 0.1392 0.0726
C23 C 0.2572(2) 0.12426(13) 0.2001(3)
C24 C 0.2871(2) 0.09915(13) 0.3400(3)
H22 H 0.3556 0.0996 0.3648
C25 C -0.0300(2) 0.1007(2) 0.2327(5)
H23 H -0.0677 0.0819 0.3162
H24 H -0.0426 0.0728 0.1442
H25 H -0.0507 0.1483 0.2145
C26 C 0.3327(3) 0.15355(16) 0.0901(4)
H26 H 0.3997 0.1495 0.1316
H27 H 0.3177 0.2022 0.0712
H28 H 0.3291 0.1277 -0.0030
C2A C 0.49709(17) -0.03932(12) 0.8033(3)
C1A C 0.55858(18) -0.07676(13) 0.7069(3)
O1A O 0.62269(12) -0.03915(9) 0.6105(2)
P1A P 0.74601(5) -0.04515(3) 0.63295(8)
C11A C 0.77991(19) 0.04828(14) 0.6221(3)
C12A C 0.7195(2) 0.09767(14) 0.5532(3)
H11A H 0.6589 0.0839 0.5087
C13A C 0.7482(3) 0.16836(14) 0.5493(3)
C14A C 0.8389(3) 0.18645(16) 0.6172(4)
H12A H 0.8589 0.2333 0.6151
C15A C 0.9013(2) 0.13820(18) 0.6881(4)
C16A C 0.8693(2) 0.06902(16) 0.6912(3)
H13A H 0.9087 0.0356 0.7408
C18A C 0.9973(3) 0.1618(2) 0.7629(5)
H17A H 1.0060 0.2114 0.7477
H18A H 1.0537 0.1370 0.7199
H19A H 0.9936 0.1521 0.8693
C17A C 0.6820(3) 0.22299(16) 0.4754(5)
H14A H 0.7138 0.2682 0.4833
H15A H 0.6174 0.2242 0.5251
H16A H 0.6727 0.2113 0.3708
C19A C 0.78172(19) -0.07338(12) 0.4439(3)
C20A C 0.8840(2) -0.07499(14) 0.4076(3)
H20A H 0.9312 -0.0594 0.4782
C21A C 0.9172(2) -0.09904(15) 0.2698(4)
C22A C 0.8458(2) -0.12326(14) 0.1666(4)
H21A H 0.8674 -0.1392 0.0726
C23A C 0.7428(2) -0.12426(13) 0.2001(3)
C24A C 0.7129(2) -0.09915(13) 0.3400(3)
H22A H 0.6444 -0.0996 0.3648
C26A C 0.6673(3) -0.15355(16) 0.0901(4)
H26A H 0.6003 -0.1495 0.1316
H27A H 0.6823 -0.2022 0.0712
H28A H 0.6709 -0.1277 -0.0030
C25A C 1.0300(2) -0.1007(2) 0.2327(5)
H23A H 1.0677 -0.0819 0.3162
H24A H 1.0426 -0.0728 0.1442
H25A H 1.0507 -0.1483 0.2145
C6A C 0.5547(2) -0.14923(14) 0.7000(4)
C5A C 0.4882(2) -0.18387(14) 0.7915(4)
C4A C 0.42401(19) -0.14848(13) 0.8897(3)
C3A C 0.42941(17) -0.07564(13) 0.8971(3)
C7A C 0.3618(2) -0.03482(14) 1.0038(3)
H3A H 0.4028 -0.0008 1.0580
H4A H 0.3123 -0.0090 0.9449
C8A C 0.3080(3) -0.07922(18) 1.1146(5)
H5A H 0.3525 -0.0870 1.2002
H6A H 0.2496 -0.0533 1.1511
C9A C 0.2737(3) -0.14666(16) 1.0607(5)
H7A H 0.2465 -0.1728 1.1456
H8A H 0.2188 -0.1391 0.9897
C10A C 0.3512(2) -0.18970(14) 0.9872(4)
H9A H 0.3180 -0.2248 0.9250
H10A H 0.3895 -0.2143 1.0644
H1A H 0.4858 -0.2327 0.7880
H2A H 0.5966 -0.1740 0.6343
loop_
_geom_bond_atom_site_label_1
_geom_bond_atom_site_label_2
_geom_bond_site_symmetry_1
_geom_bond_site_symmetry_2
P1 O1 1_555 1_555
O1 C1 1_555 1_555
C1 C2 1_555 1_555
C2 C3 1_555 1_555
C3 C4 1_555 1_555
C4 C5 1_555 1_555
C5 H1 1_555 1_555
C6 C1 1_555 1_555
H2 C6 1_555 1_555
C7 C3 1_555 1_555
H3 C7 1_555 1_555
H4 C7 1_555 1_555
C8 C7 1_555 1_555
H5 C8 1_555 1_555
H6 C8 1_555 1_555
C9 C8 1_555 1_555
H7 C9 1_555 1_555
H8 C9 1_555 1_555
C10 C4 1_555 1_555
H9 C10 1_555 1_555
H10 C10 1_555 1_555
C11 P1 1_555 1_555
C12 C11 1_555 1_555
H11 C12 1_555 1_555
C13 C12 1_555 1_555
C14 C13 1_555 1_555
H12 C14 1_555 1_555
C15 C14 1_555 1_555
C16 C11 1_555 1_555
H13 C16 1_555 1_555
C17 C13 1_555 1_555
H14 C17 1_555 1_555
H15 C17 1_555 1_555
H16 C17 1_555 1_555
C18 C15 1_555 1_555
H17 C18 1_555 1_555
H18 C18 1_555 1_555
H19 C18 1_555 1_555
C19 P1 1_555 1_555
C20 C19 1_555 1_555
H20 C20 1_555 1_555
C21 C20 1_555 1_555
C22 C21 1_555 1_555
H21 C22 1_555 1_555
C23 C22 1_555 1_555
C24 C19 1_555 1_555
H22 C24 1_555 1_555
C25 C21 1_555 1_555
H23 C25 1_555 1_555
H24 C25 1_555 1_555
H25 C25 1_555 1_555
C26 C23 1_555 1_555
H26 C26 1_555 1_555
H27 C26 1_555 1_555
H28 C26 1_555 1_555
C2A C2 1_555 1_555
C1A C2A 1_555 1_555
O1A C1A 1_555 1_555
P1A O1A 1_555 1_555
C11A P1A 1_555 1_555
C12A C11A 1_555 1_555
H11A C12A 1_555 1_555
C13A C12A 1_555 1_555
C14A C13A 1_555 1_555
H12A C14A 1_555 1_555
C15A C14A 1_555 1_555
C16A C11A 1_555 1_555
H13A C16A 1_555 1_555
C18A C15A 1_555 1_555
H17A C18A 1_555 1_555
H18A C18A 1_555 1_555
H19A C18A 1_555 1_555
C17A C13A 1_555 1_555
H14A C17A 1_555 1_555
H15A C17A 1_555 1_555
H16A C17A 1_555 1_555
C19A P1A 1_555 1_555
C20A C19A 1_555 1_555
H20A C20A 1_555 1_555
C21A C20A 1_555 1_555
C22A C21A 1_555 1_555
H21A C22A 1_555 1_555
C23A C22A 1_555 1_555
C24A C19A 1_555 1_555
H22A C24A 1_555 1_555
C26A C23A 1_555 1_555
H26A C26A 1_555 1_555
H27A C26A 1_555 1_555
H28A C26A 1_555 1_555
C25A C21A 1_555 1_555
H23A C25A 1_555 1_555
H24A C25A 1_555 1_555
H25A C25A 1_555 1_555
C6A C1A 1_555 1_555
C5A C6A 1_555 1_555
C4A C5A 1_555 1_555
C3A C2A 1_555 1_555
C7A C3A 1_555 1_555
H3A C7A 1_555 1_555
H4A C7A 1_555 1_555
C8A C7A 1_555 1_555
H5A C8A 1_555 1_555
H6A C8A 1_555 1_555
C9A C8A 1_555 1_555
H7A C9A 1_555 1_555
H8A C9A 1_555 1_555
C10A C4A 1_555 1_555
H9A C10A 1_555 1_555
H10A C10A 1_555 1_555
H1A C5A 1_555 1_555
H2A C6A 1_555 1_555
C5 C6 1_555 1_555
C9 C10 1_555 1_555
C15 C16 1_555 1_555
C23 C24 1_555 1_555
C15A C16A 1_555 1_555
C23A C24A 1_555 1_555
C4A C3A 1_555 1_555
C9A C10A 1_555 1_555

#END
