
#######################################################################
#
#                 Cambridge Crystallographic Data Centre
#                                CCDC 
#
#######################################################################
#
# If this CIF has been generated from an entry in the Cambridge 
# Structural Database, then it will include bibliographic, chemical, 
# crystal, experimental, refinement or atomic coordinate data resulting 
# from the CCDC's data processing and validation procedures.
#
#######################################################################

data_FACYEP
_chemical_formula_moiety         'C14 H19 Br1 N2 O4'
_chemical_name_systematic        
't-Butyl 4-bromo-\b-(nitromethyl)phenylalaninate'
_symmetry_cell_setting           orthorhombic
_symmetry_space_group_name_H-M   'P 21 21 21'
_symmetry_Int_Tables_number      19
_space_group_name_Hall           'P 2ac 2ab'
loop_
_symmetry_equiv_pos_site_id
_symmetry_equiv_pos_as_xyz
1 x,y,z
2 1/2-x,-y,1/2+z
3 -x,1/2+y,1/2-z
4 1/2+x,1/2-y,-z
_cell_length_a                   5.8600(6)
_cell_length_b                   15.3822(15)
_cell_length_c                   18.6383(18)
_cell_angle_alpha                90
_cell_angle_beta                 90
_cell_angle_gamma                90
_cell_volume                     1680.05
_exptl_crystal_colour            colorless
_exptl_crystal_description       prismatic
_cell_formula_units_Z            4
loop_
_atom_site_label
_atom_site_type_symbol
_atom_site_fract_x
_atom_site_fract_y
_atom_site_fract_z
Br1 Br 0.95769(13) 0.76020(3) 0.09164(4)
N1 N 0.8782(7) 0.2392(2) 0.20079(19)
H1 H 0.7593 0.2195 0.2224
H2 H 0.9739 0.2037 0.1816
N2 N 1.1620(7) 0.3360(2) 0.0071(2)
O1 O 0.5306(6) 0.3768(2) 0.21754(16)
O2 O 0.8141(5) 0.43206(18) 0.28564(14)
O3 O 1.0195(7) 0.3094(2) -0.03371(18)
O4 O 1.3187(7) 0.3803(3) -0.01081(19)
C1 C 1.1387(7) 0.3135(3) 0.0844(2)
H3 H 1.2757 0.3308 0.1099
H4 H 1.1216 0.2510 0.0895
C2 C 0.9168(8) 0.3311(2) 0.1967(2)
H5 H 1.0625 0.3443 0.2201
C3 C 0.7302(8) 0.3823(3) 0.2335(2)
C4 C 0.9320(7) 0.3591(2) 0.11725(19)
H6 H 0.7949 0.3382 0.0926
C5 C 0.9419(7) 0.4579(2) 0.1094(2)
C6 C 0.7630(8) 0.5021(3) 0.0782(2)
H7 H 0.6369 0.4717 0.0613
C7 C 0.7708(9) 0.5928(3) 0.0721(2)
H8 H 0.6503 0.6227 0.0510
C8 C 0.9523(10) 0.6364(2) 0.0968(2)
C9 C 1.1318(9) 0.5949(3) 0.1272(2)
H9 H 1.2564 0.6264 0.1438
C10 C 1.1283(8) 0.5049(3) 0.1334(2)
H10 H 1.2518 0.4761 0.1538
C11 C 0.6709(8) 0.4883(3) 0.3318(2)
C12 C 0.5644(11) 0.5586(3) 0.2866(3)
H11 H 0.6799 0.5858 0.2578
H12 H 0.4949 0.6013 0.3172
H13 H 0.4503 0.5336 0.2559
C13 C 0.8450(10) 0.5263(3) 0.3829(2)
H14 H 0.9236 0.4800 0.4071
H15 H 0.7691 0.5623 0.4175
H16 H 0.9529 0.5606 0.3565
C14 C 0.5005(9) 0.4341(4) 0.3719(3)
H17 H 0.3914 0.4105 0.3388
H18 H 0.4231 0.4696 0.4066
H19 H 0.5779 0.3875 0.3960
loop_
_geom_bond_atom_site_label_1
_geom_bond_atom_site_label_2
_geom_bond_site_symmetry_1
_geom_bond_site_symmetry_2
Br1 C8 1_555 1_555
N1 H1 1_555 1_555
H2 N1 1_555 1_555
N2 O3 1_555 1_555
O1 C3 1_555 1_555
O2 C3 1_555 1_555
O4 N2 1_555 1_555
C1 N2 1_555 1_555
H3 C1 1_555 1_555
H4 C1 1_555 1_555
C2 N1 1_555 1_555
H5 C2 1_555 1_555
C3 C2 1_555 1_555
C4 C1 1_555 1_555
H6 C4 1_555 1_555
C5 C4 1_555 1_555
C6 C5 1_555 1_555
H7 C6 1_555 1_555
C7 C6 1_555 1_555
H8 C7 1_555 1_555
C8 C7 1_555 1_555
C9 C8 1_555 1_555
H9 C9 1_555 1_555
C10 C5 1_555 1_555
H10 C10 1_555 1_555
C11 O2 1_555 1_555
C12 C11 1_555 1_555
H11 C12 1_555 1_555
H12 C12 1_555 1_555
H13 C12 1_555 1_555
C13 C11 1_555 1_555
H14 C13 1_555 1_555
H15 C13 1_555 1_555
H16 C13 1_555 1_555
C14 C11 1_555 1_555
H17 C14 1_555 1_555
H18 C14 1_555 1_555
H19 C14 1_555 1_555
C2 C4 1_555 1_555
C9 C10 1_555 1_555

#END
