
#######################################################################
#
#                 Cambridge Crystallographic Data Centre
#                                CCDC 
#
#######################################################################
#
# If this CIF has been generated from an entry in the Cambridge 
# Structural Database, then it will include bibliographic, chemical, 
# crystal, experimental, refinement or atomic coordinate data resulting 
# from the CCDC's data processing and validation procedures.
#
#######################################################################

data_FACYAL
_chemical_formula_moiety         'C20 H19 Cl1 N2 O2'
_chemical_name_systematic        
4-(4-Chlorophenyl)-2,9-dimethyl-3-nitro-2,3,4,9-tetrahydro-1H-carbazole
_symmetry_cell_setting           monoclinic
_symmetry_space_group_name_H-M   'C 2'
_symmetry_Int_Tables_number      5
_space_group_name_Hall           'C 2y'
loop_
_symmetry_equiv_pos_site_id
_symmetry_equiv_pos_as_xyz
1 x,y,z
2 -x,y,-z
3 1/2+x,1/2+y,z
4 1/2-x,1/2+y,-z
_cell_length_a                   17.1435(6)
_cell_length_b                   10.1913(5)
_cell_length_c                   10.6419(4)
_cell_angle_alpha                90
_cell_angle_beta                 109.586(2)
_cell_angle_gamma                90
_cell_volume                     1751.71
_exptl_crystal_colour            yellow
_exptl_crystal_description       block
_cell_formula_units_Z            4
loop_
_atom_site_label
_atom_site_type_symbol
_atom_site_fract_x
_atom_site_fract_y
_atom_site_fract_z
C1 C 0.8634(2) 0.1689(3) 0.4226(3)
C2 C 0.9127(2) 0.1083(4) 0.3645(3)
H1 H 0.9362 0.0275 0.3967
C3 C 0.9286(2) 0.1653(3) 0.2576(3)
H2 H 0.9622 0.1225 0.2178
C4 C 0.89440(18) 0.2861(3) 0.2097(3)
C5 C 0.8428(2) 0.3468(3) 0.2695(3)
H3 H 0.8187 0.4272 0.2375
C6 C 0.8274(2) 0.2883(4) 0.3755(4)
H4 H 0.7929 0.3290 0.4150
C7 C 0.91208(19) 0.3500(3) 0.0935(3)
H5 H 0.9604 0.3071 0.0820
C8 C 0.83767(19) 0.3310(3) -0.0346(3)
H6 H 0.7869 0.3506 -0.0153
C9 C 0.8394(2) 0.4162(3) -0.1537(3)
H7 H 0.8920 0.4006 -0.1686
C10 C 0.8359(2) 0.5609(3) -0.1174(4)
H8 H 0.8503 0.6154 -0.1810
H9 H 0.7800 0.5831 -0.1219
C11 C 0.89417(19) 0.5874(3) 0.0195(3)
C12 C 0.92948(19) 0.4952(3) 0.1128(3)
C13 C 0.7698(3) 0.3841(5) -0.2809(4)
H10 H 0.7729 0.2933 -0.3027
H11 H 0.7745 0.4378 -0.3521
H12 H 0.7176 0.4007 -0.2689
C14 C 0.9838(2) 0.5619(3) 0.2275(3)
C15 C 0.9773(2) 0.6962(3) 0.1949(4)
C16 C 0.8928(2) 0.8351(4) 0.0024(5)
H13 H 0.8708 0.8871 0.0579
H14 H 0.8502 0.8188 -0.0815
H15 H 0.9377 0.8813 -0.0126
C17 C 1.0240(2) 0.7913(4) 0.2832(5)
H16 H 1.0193 0.8799 0.2610
C18 C 1.0775(3) 0.7480(4) 0.4046(5)
H17 H 1.1094 0.8088 0.4654
C19 C 1.0846(2) 0.6149(4) 0.4382(4)
H18 H 1.1213 0.5888 0.5206
C20 C 1.0384(2) 0.5222(4) 0.3517(4)
H19 H 1.0432 0.4340 0.3753
Cl1 Cl 0.84737(7) 0.09935(10) 0.56169(9)
N1 N 0.8356(2) 0.1892(3) -0.0756(3)
N2 N 0.92279(19) 0.7110(3) 0.0681(3)
O1 O 0.7747(2) 0.1254(3) -0.0823(4)
O2 O 0.89494(19) 0.1449(3) -0.0997(3)
loop_
_geom_bond_atom_site_label_1
_geom_bond_atom_site_label_2
_geom_bond_site_symmetry_1
_geom_bond_site_symmetry_2
C1 C2 1_555 1_555
C2 H1 1_555 1_555
C3 C2 1_555 1_555
H2 C3 1_555 1_555
C4 C3 1_555 1_555
C5 C4 1_555 1_555
H3 C5 1_555 1_555
C6 C1 1_555 1_555
H4 C6 1_555 1_555
C7 C4 1_555 1_555
H5 C7 1_555 1_555
C8 C7 1_555 1_555
H6 C8 1_555 1_555
C9 C8 1_555 1_555
H7 C9 1_555 1_555
C10 C9 1_555 1_555
H8 C10 1_555 1_555
H9 C10 1_555 1_555
C11 C10 1_555 1_555
C12 C7 1_555 1_555
C13 C9 1_555 1_555
H10 C13 1_555 1_555
H11 C13 1_555 1_555
H12 C13 1_555 1_555
C14 C12 1_555 1_555
C15 C14 1_555 1_555
C16 H13 1_555 1_555
H14 C16 1_555 1_555
H15 C16 1_555 1_555
C17 C15 1_555 1_555
H16 C17 1_555 1_555
C18 C17 1_555 1_555
H17 C18 1_555 1_555
C19 C18 1_555 1_555
H18 C19 1_555 1_555
C20 C14 1_555 1_555
H19 C20 1_555 1_555
Cl1 C1 1_555 1_555
N1 C8 1_555 1_555
N2 C11 1_555 1_555
O1 N1 1_555 1_555
O2 N1 1_555 1_555
C5 C6 1_555 1_555
C11 C12 1_555 1_555
C15 N2 1_555 1_555
C16 N2 1_555 1_555
C19 C20 1_555 1_555

#END
