
#######################################################################
#
#                 Cambridge Crystallographic Data Centre
#                                CCDC 
#
#######################################################################
#
# If this CIF has been generated from an entry in the Cambridge 
# Structural Database, then it will include bibliographic, chemical, 
# crystal, experimental, refinement or atomic coordinate data resulting 
# from the CCDC's data processing and validation procedures.
#
#######################################################################

data_FACZUG
_chemical_formula_moiety         'C16 H18 N1 O3 P1'
_chemical_name_systematic        
'2-(2,6-Dimethylphenoxy)-8-methyl-3,4-dihydro-2H-1,3,2-benzoxazaphosphinine 2-oxide'
_symmetry_cell_setting           triclinic
_symmetry_space_group_name_H-M   'P -1'
_symmetry_Int_Tables_number      2
_space_group_name_Hall           '-P 1'
loop_
_symmetry_equiv_pos_site_id
_symmetry_equiv_pos_as_xyz
1 x,y,z
2 -x,-y,-z
_cell_length_a                   8.1176(7)
_cell_length_b                   8.2044(7)
_cell_length_c                   11.2871(9)
_cell_angle_alpha                86.804(6)
_cell_angle_beta                 88.979(5)
_cell_angle_gamma                76.988(5)
_cell_volume                     731.269
_exptl_crystal_colour            colorless
_exptl_crystal_description       plate
_cell_formula_units_Z            2
loop_
_atom_site_label
_atom_site_type_symbol
_atom_site_fract_x
_atom_site_fract_y
_atom_site_fract_z
P1 P 0.10536(8) 0.36235(8) 0.17018(5)
C1 C 0.2463(3) 0.0385(3) 0.1830(2)
C2 C 0.4205(3) 0.0174(3) 0.1837(2)
C3 C 0.5152(3) -0.1258(3) 0.1332(2)
H1 H 0.6349 -0.1436 0.1296
C4 C 0.4366(3) -0.2420(3) 0.0884(2)
H2 H 0.5027 -0.3385 0.0538
C5 C 0.2634(3) -0.2190(3) 0.0934(2)
H3 H 0.2115 -0.3010 0.0636
C6 C 0.1634(3) -0.0774(3) 0.1417(2)
C7 C -0.0252(3) -0.0510(3) 0.1492(2)
H4 H -0.0597 -0.0603 0.2325
H5 H -0.0617 -0.1361 0.1050
H6 H -0.0776 0.0607 0.1149
C8 C 0.5054(3) 0.1440(3) 0.2338(2)
H7 H 0.4972 0.2400 0.1768
H8 H 0.6247 0.0923 0.2491
H9 H 0.4495 0.1821 0.3082
C9 C 0.0409(3) 0.5783(3) 0.3405(2)
C10 C 0.1123(3) 0.6767(3) 0.4115(2)
C11 C 0.0018(3) 0.7895(3) 0.4799(2)
H10 H 0.0463 0.8569 0.5311
C12 C -0.1713(3) 0.8057(3) 0.4750(2)
H11 H -0.2446 0.8857 0.5208
C13 C -0.2377(3) 0.7054(3) 0.4033(2)
H12 H -0.3566 0.7172 0.3998
C14 C -0.1312(3) 0.5870(3) 0.3362(2)
C15 C -0.1990(3) 0.4678(3) 0.2639(2)
H13 H -0.2000 0.3644 0.3133
H14 H -0.3170 0.5199 0.2410
C16 C 0.3000(3) 0.6612(3) 0.4142(2)
H15 H 0.3567 0.5442 0.4330
H16 H 0.3271 0.7318 0.4749
H17 H 0.3387 0.6974 0.3365
O1 O 0.1452(2) 0.1812(2) 0.23402(14)
O2 O 0.15556(19) 0.4637(2) 0.27476(15)
O3 O 0.1990(2) 0.3754(2) 0.05944(15)
N1 N -0.0979(2) 0.4235(2) 0.15648(17)
H18 H -0.1226 0.4840 0.0843
loop_
_geom_bond_atom_site_label_1
_geom_bond_atom_site_label_2
_geom_bond_site_symmetry_1
_geom_bond_site_symmetry_2
P1 O1 1_555 1_555
C1 C2 1_555 1_555
C2 C3 1_555 1_555
C3 H1 1_555 1_555
C4 C3 1_555 1_555
H2 C4 1_555 1_555
C5 C4 1_555 1_555
H3 C5 1_555 1_555
C6 C1 1_555 1_555
C7 C6 1_555 1_555
H4 C7 1_555 1_555
H5 C7 1_555 1_555
H6 C7 1_555 1_555
C8 C2 1_555 1_555
H7 C8 1_555 1_555
H8 C8 1_555 1_555
H9 C8 1_555 1_555
C9 C10 1_555 1_555
C10 C11 1_555 1_555
C11 H10 1_555 1_555
C12 C11 1_555 1_555
H11 C12 1_555 1_555
C13 C12 1_555 1_555
H12 C13 1_555 1_555
C14 C9 1_555 1_555
C15 C14 1_555 1_555
H13 C15 1_555 1_555
H14 C15 1_555 1_555
C16 C10 1_555 1_555
H15 C16 1_555 1_555
H16 C16 1_555 1_555
H17 C16 1_555 1_555
O1 C1 1_555 1_555
O2 P1 1_555 1_555
O3 P1 1_555 1_555
N1 P1 1_555 1_555
H18 N1 1_555 1_555
C5 C6 1_555 1_555
C9 O2 1_555 1_555
C13 C14 1_555 1_555
C15 N1 1_555 1_555

#END
