
#######################################################################
#
#                 Cambridge Crystallographic Data Centre
#                                CCDC 
#
#######################################################################
#
# If this CIF has been generated from an entry in the Cambridge 
# Structural Database, then it will include bibliographic, chemical, 
# crystal, experimental, refinement or atomic coordinate data resulting 
# from the CCDC's data processing and validation procedures.
#
#######################################################################

data_FADBAP
_chemical_formula_moiety         'C22 H30 N1 O5 P1,0.38(C1 H1 Cl3)'
_chemical_name_systematic        
'2-(2-t-Butyl-4-methoxyphenoxy)-7-methoxy-5,5-dimethyl-2,3,4,5-tetrahydro-1,3,2-benzoxazaphosphepine 2-oxide chloroform solvate'
_symmetry_cell_setting           monoclinic
_symmetry_space_group_name_H-M   'C 2/c'
_symmetry_Int_Tables_number      15
_space_group_name_Hall           '-C 2yn'
loop_
_symmetry_equiv_pos_site_id
_symmetry_equiv_pos_as_xyz
1 x,y,z
2 -x,y,1/2-z
3 1/2+x,1/2+y,z
4 1/2-x,1/2+y,1/2-z
5 -x,-y,-z
6 x,-y,1/2+z
7 1/2-x,1/2-y,-z
8 1/2+x,1/2-y,1/2+z
_cell_length_a                   17.2209(2)
_cell_length_b                   11.0759(2)
_cell_length_c                   25.2187(4)
_cell_angle_alpha                90
_cell_angle_beta                 90.108(1)
_cell_angle_gamma                90
_cell_volume                     4810.13
_exptl_crystal_colour            red
_exptl_crystal_description       plates
_cell_formula_units_Z            8
loop_
_atom_site_label
_atom_site_type_symbol
_atom_site_fract_x
_atom_site_fract_y
_atom_site_fract_z
C23 C 0.5295(4) 0.4293(7) 0.7654(2)
H31 H 0.5742 0.4259 0.7890
Cl1 Cl 0.54835(5) 0.35638(9) 0.70405(3)
C23A C 0.4705(4) 0.4293(7) 0.7346(2)
H31A H 0.4258 0.4259 0.7110
Cl1A Cl 0.45165(5) 0.35638(9) 0.79595(3)
P1 P 0.51066(3) 1.02867(4) 0.585850(17)
C1 C 0.69994(11) 1.11029(18) 0.62608(7)
H1 H 0.6783 1.1875 0.6330
C2 C 0.65131(11) 1.01076(17) 0.62100(7)
C3 C 0.77912(12) 1.09809(19) 0.62113(8)
H2 H 0.8122 1.1662 0.6246
C4 C 0.67956(11) 0.89608(17) 0.60913(7)
C5 C 0.76054(12) 0.88624(18) 0.60465(7)
H3 H 0.7824 0.8094 0.5970
C6 C 0.80993(11) 0.98377(19) 0.61099(7)
C7 C 0.63173(12) 0.77943(17) 0.60115(8)
C8 C 0.54362(11) 0.79862(17) 0.60064(8)
H4 H 0.5180 0.7219 0.5906
H5 H 0.5264 0.8198 0.6369
C9 C 0.36275(11) 0.99855(17) 0.60712(7)
C10 C 0.31012(11) 0.96622(16) 0.64725(7)
C11 C 0.23843(11) 0.92468(16) 0.62991(7)
H6 H 0.2012 0.9015 0.6557
C12 C 0.21828(11) 0.91532(16) 0.57646(7)
C13 C 0.27125(11) 0.94805(17) 0.53788(7)
H7 H 0.2586 0.9416 0.5013
C14 C 0.34359(11) 0.99074(18) 0.55400(7)
H8 H 0.3804 1.0149 0.5280
C15 C 0.12343(12) 0.85490(19) 0.51272(8)
H9 H 0.0696 0.8265 0.5110
H10 H 0.1579 0.7938 0.4974
H11 H 0.1283 0.9304 0.4927
C16 C 0.32952(11) 0.97618(18) 0.70660(7)
C17 C 0.35060(13) 1.1070(2) 0.72136(8)
H12 H 0.3629 1.1114 0.7593
H13 H 0.3065 1.1600 0.7135
H14 H 0.3958 1.1328 0.7007
C18 C 0.39773(13) 0.8928(2) 0.72053(8)
H15 H 0.4097 0.9001 0.7584
H16 H 0.4433 0.9160 0.6997
H17 H 0.3837 0.8091 0.7124
C19 C 0.26029(13) 0.9387(2) 0.74096(8)
H18 H 0.2743 0.9460 0.7785
H19 H 0.2463 0.8548 0.7331
H20 H 0.2159 0.9914 0.7332
C20 C 0.64930(13) 0.69185(19) 0.64660(8)
H21 H 0.6190 0.6178 0.6418
H22 H 0.6354 0.7295 0.6804
H23 H 0.7048 0.6722 0.6467
C21 C 0.65360(13) 0.72186(19) 0.54769(8)
H24 H 0.6233 0.6479 0.5424
H25 H 0.7091 0.7022 0.5477
H26 H 0.6424 0.7788 0.5189
C22 C 0.92309(13) 0.8647(2) 0.59475(9)
H27 H 0.9797 0.8729 0.5937
H28 H 0.9042 0.8384 0.5600
H29 H 0.9087 0.8049 0.6216
N1 N 0.51873(9) 0.89316(14) 0.56411(6)
H30 H 0.5102 0.8758 0.5294
O1 O 0.57221(7) 1.03390(11) 0.63274(5)
O2 O 0.51472(7) 1.12302(12) 0.54539(5)
O3 O 0.43633(7) 1.04014(12) 0.62286(5)
O4 O 0.88921(8) 0.97819(14) 0.60775(6)
O5 O 0.14461(8) 0.87535(12) 0.56681(5)
Cl2? Cl 0.4830(2) 0.57943(18) 0.73929(15)
loop_
_geom_bond_atom_site_label_1
_geom_bond_atom_site_label_2
_geom_bond_site_symmetry_1
_geom_bond_site_symmetry_2
P1 N1 1_555 1_555
C1 H1 1_555 1_555
C2 C1 1_555 1_555
C3 C1 1_555 1_555
H2 C3 1_555 1_555
C4 C2 1_555 1_555
C5 C4 1_555 1_555
H3 C5 1_555 1_555
C6 C3 1_555 1_555
C7 C4 1_555 1_555
C8 C7 1_555 1_555
H4 C8 1_555 1_555
H5 C8 1_555 1_555
C9 C10 1_555 1_555
C10 C11 1_555 1_555
C11 H6 1_555 1_555
C12 C11 1_555 1_555
C13 C12 1_555 1_555
H7 C13 1_555 1_555
C14 C9 1_555 1_555
H8 C14 1_555 1_555
C15 H9 1_555 1_555
H10 C15 1_555 1_555
H11 C15 1_555 1_555
C16 C10 1_555 1_555
C17 C16 1_555 1_555
H12 C17 1_555 1_555
H13 C17 1_555 1_555
H14 C17 1_555 1_555
C18 C16 1_555 1_555
H15 C18 1_555 1_555
H16 C18 1_555 1_555
H17 C18 1_555 1_555
C19 C16 1_555 1_555
H18 C19 1_555 1_555
H19 C19 1_555 1_555
H20 C19 1_555 1_555
C20 C7 1_555 1_555
H21 C20 1_555 1_555
H22 C20 1_555 1_555
H23 C20 1_555 1_555
C21 C7 1_555 1_555
H24 C21 1_555 1_555
H25 C21 1_555 1_555
H26 C21 1_555 1_555
C22 H27 1_555 1_555
H28 C22 1_555 1_555
H29 C22 1_555 1_555
N1 C8 1_555 1_555
H30 N1 1_555 1_555
O1 P1 1_555 1_555
O2 P1 1_555 1_555
O3 P1 1_555 1_555
O4 C6 1_555 1_555
O5 C12 1_555 1_555
C23 H31 1_555 1_555
Cl1 C23 1_555 1_555
C23A C23 1_555 1_555
H31A C23A 1_555 1_555
Cl1A C23 1_555 1_555
C2 O1 1_555 1_555
C5 C6 1_555 1_555
C9 O3 1_555 1_555
C13 C14 1_555 1_555
C15 O5 1_555 1_555
C22 O4 1_555 1_555
Cl1 C23A 1_555 1_555
C23A Cl1A 1_555 1_555

#END
