
#######################################################################
#
#                 Cambridge Crystallographic Data Centre
#                                CCDC 
#
#######################################################################
#
# If this CIF has been generated from an entry in the Cambridge 
# Structural Database, then it will include bibliographic, chemical, 
# crystal, experimental, refinement or atomic coordinate data resulting 
# from the CCDC's data processing and validation procedures.
#
#######################################################################

data_FADDUK
_chemical_formula_moiety         'C30 H26 N4'
_chemical_name_systematic        
N,N'-bis(4-(Phenylamino)phenyl)-1,4-phenylenediamine
_symmetry_cell_setting           triclinic
_symmetry_space_group_name_H-M   'P -1'
_symmetry_Int_Tables_number      2
_space_group_name_Hall           '-P 1'
loop_
_symmetry_equiv_pos_site_id
_symmetry_equiv_pos_as_xyz
1 x,y,z
2 -x,-y,-z
_cell_length_a                   5.73280(10)
_cell_length_b                   8.8866(2)
_cell_length_c                   22.6889(6)
_cell_angle_alpha                82.7481(8)
_cell_angle_beta                 84.5281(8)
_cell_angle_gamma                88.4739(11)
_cell_volume                     1141.29
_exptl_crystal_colour            colorless
_exptl_crystal_description       plate
_cell_formula_units_Z            2
_exptl_crystal_recrystallization_method 'by sublimation'
loop_
_atom_site_label
_atom_site_type_symbol
_atom_site_fract_x
_atom_site_fract_y
_atom_site_fract_z
C1 C 0.8575(2) -0.05123(13) 0.45970(5)
C2 C 1.0660(2) 0.02432(14) 0.43946(5)
C3 C 0.7954(2) -0.07449(13) 0.52058(6)
C4 C 0.6585(2) -0.03469(14) 0.36540(6)
C5 C 0.5622(2) -0.11795(13) 0.32598(6)
C6 C 0.4962(2) -0.05035(14) 0.27199(6)
C7 C 0.5239(2) 0.10463(14) 0.25507(6)
C8 C 0.6186(2) 0.18794(14) 0.29448(6)
C9 C 0.6856(2) 0.12031(14) 0.34852(6)
C10 C 0.3280(2) 0.11916(15) 0.16068(6)
C11 C 0.1199(2) 0.04433(15) 0.18143(6)
C12 C -0.0155(2) -0.01047(17) 0.14219(7)
C13 C 0.0505(3) 0.0085(2) 0.08241(8)
C14 C 0.2535(3) 0.0866(2) 0.06142(8)
C15 C 0.3911(2) 0.1403(2) 0.10008(7)
N1 N 0.7205(2) -0.11023(12) 0.42012(5)
N2 N 0.4637(2) 0.17924(13) 0.19979(5)
H1 H 1.1161 0.0424 0.3966
H2 H 0.6501 -0.1267 0.5359
H3 H 0.5405 -0.2275 0.3363
H4 H 0.4290 -0.1131 0.2454
H5 H 0.6397 0.2966 0.2835
H6 H 0.7524 0.1823 0.3752
H7 H 0.0675 0.0301 0.2240
H8 H -0.1603 -0.0647 0.1568
H9 H -0.0463 -0.0339 0.0551
H10 H 0.3016 0.1036 0.0184
H11 H 0.5342 0.1948 0.0843
H23 H 0.636(2) -0.1750(14) 0.4353(5)
H24 H 0.554(2) 0.2391(15) 0.1847(6)
C3A C 1.2046(2) 0.07449(13) 0.47942(6)
C1A C 1.1425(2) 0.05123(13) 0.54030(5)
C2A C 0.9340(2) -0.02432(14) 0.56054(5)
H1A H 0.8839 -0.0424 0.6034
N1A N 1.2795(2) 0.11023(12) 0.57988(5)
C4A C 1.3415(2) 0.03469(14) 0.63460(6)
C5A C 1.4378(2) 0.11795(13) 0.67402(6)
C6A C 1.5038(2) 0.05035(14) 0.72801(6)
C7A C 1.4761(2) -0.10463(14) 0.74493(6)
C8A C 1.3814(2) -0.18794(14) 0.70552(6)
C9A C 1.3144(2) -0.12031(14) 0.65148(6)
H6A H 1.2476 -0.1823 0.6248
H5A H 1.3603 -0.2966 0.7165
N2A N 1.5363(2) -0.17924(13) 0.80021(5)
C10A C 1.6720(2) -0.11916(15) 0.83932(6)
C11A C 1.8801(2) -0.04433(15) 0.81857(6)
C12A C 2.0155(2) 0.01047(17) 0.85781(7)
C13A C 1.9495(3) -0.0085(2) 0.91759(8)
C14A C 1.7465(3) -0.0866(2) 0.93858(8)
C15A C 1.6089(2) -0.1403(2) 0.89992(7)
H11A H 1.4658 -0.1948 0.9157
H10A H 1.6984 -0.1036 0.9816
H9A H 2.0463 0.0339 0.9449
H8A H 2.1603 0.0647 0.8432
H7A H 1.9325 -0.0301 0.7760
H24A H 1.446(2) -0.2391(15) 0.8153(6)
H4A H 1.5710 0.1131 0.7546
H3A H 1.4595 0.2275 0.6637
H23A H 1.364(2) 0.1750(14) 0.5647(5)
H2A H 1.3499 0.1267 0.4641
C16 C 0.6536(2) 0.43865(13) 0.54202(6)
C17 C 0.4494(2) 0.51663(15) 0.55949(6)
C18 C 0.6992(2) 0.42309(14) 0.48193(6)
C19 C 0.8519(2) 0.41984(14) 0.63659(6)
C20 C 0.9378(2) 0.31650(13) 0.68059(6)
C21 C 0.9953(2) 0.35959(14) 0.73336(6)
C22 C 0.9680(2) 0.50965(15) 0.74472(6)
C23 C 0.8822(2) 0.61356(13) 0.70062(6)
C24 C 0.8243(2) 0.57029(14) 0.64771(6)
C25 C 1.1668(2) 0.49323(16) 0.83912(6)
C26 C 1.3669(2) 0.41183(16) 0.82209(6)
C27 C 1.5147(2) 0.35163(18) 0.86367(8)
C28 C 1.4705(3) 0.3737(2) 0.92225(9)
C29 C 1.2760(4) 0.4578(3) 0.93902(8)
C30 C 1.1244(2) 0.5173(2) 0.89815(8)
N3 N 0.8041(2) 0.36994(13) 0.58306(5)
N4 N 1.0150(2) 0.55940(14) 0.79859(5)
H12 H 0.4097 0.5285 0.6015
H13 H 0.8407 0.3683 0.4684
H14 H 0.9586 0.2099 0.6744
H15 H 1.0570 0.2823 0.7629
H16 H 0.8630 0.7204 0.7068
H17 H 0.7626 0.6470 0.6179
H18 H 1.4043 0.3960 0.7801
H19 H 1.6538 0.2915 0.8513
H20 H 1.5768 0.3289 0.9514
H21 H 1.2453 0.4770 0.9806
H22 H 0.9867 0.5766 0.9111
H25 H 0.892(2) 0.2982(14) 0.5719(5)
H26 H 0.921(2) 0.6220(15) 0.8108(6)
C18A C 0.3008(2) 0.57691(14) 0.51807(6)
C16A C 0.3464(2) 0.56135(13) 0.45798(6)
C17A C 0.5506(2) 0.48337(15) 0.44051(6)
H12A H 0.5903 0.4715 0.3985
N3A N 0.1959(2) 0.63006(13) 0.41694(5)
C19A C 0.1481(2) 0.58016(14) 0.36341(6)
C20A C 0.0622(2) 0.68350(13) 0.31941(6)
C21A C 0.0047(2) 0.64041(14) 0.26664(6)
C22A C 0.0320(2) 0.49035(15) 0.25528(6)
C23A C 0.1178(2) 0.38644(13) 0.29938(6)
C24A C 0.1757(2) 0.42971(14) 0.35229(6)
H17A H 0.2374 0.3530 0.3821
H16A H 0.1370 0.2796 0.2932
N4A N -0.0150(2) 0.44060(14) 0.20141(5)
C25A C -0.1668(2) 0.50677(16) 0.16088(6)
C26A C -0.3669(2) 0.58817(16) 0.17791(6)
C27A C -0.5147(2) 0.64837(18) 0.13633(8)
C28A C -0.4705(3) 0.6263(2) 0.07775(9)
C29A C -0.2760(4) 0.5422(3) 0.06098(8)
C30A C -0.1244(2) 0.4827(2) 0.10185(8)
H22A H 0.0133 0.4234 0.0889
H21A H -0.2453 0.5230 0.0194
H20A H -0.5768 0.6711 0.0486
H19A H -0.6538 0.7085 0.1487
H18A H -0.4043 0.6040 0.2199
H26A H 0.079(2) 0.3780(15) 0.1892(6)
H15A H -0.0570 0.7177 0.2371
H14A H 0.0414 0.7901 0.3256
H25A H 0.108(2) 0.7018(14) 0.4281(5)
H13A H 0.1593 0.6317 0.5316
loop_
_geom_bond_atom_site_label_1
_geom_bond_atom_site_label_2
_geom_bond_site_symmetry_1
_geom_bond_site_symmetry_2
C1 C2 1_555 1_555
C2 H1 1_555 1_555
C3 C1 1_555 1_555
C4 C5 1_555 1_555
C5 C6 1_555 1_555
C6 C7 1_555 1_555
C7 C8 1_555 1_555
C8 C9 1_555 1_555
C9 C4 1_555 1_555
C10 C11 1_555 1_555
C11 C12 1_555 1_555
C12 C13 1_555 1_555
C13 C14 1_555 1_555
C14 C15 1_555 1_555
C15 C10 1_555 1_555
C16 C17 1_555 1_555
C17 H12 1_555 1_555
C18 C16 1_555 1_555
C19 C20 1_555 1_555
C20 C21 1_555 1_555
C21 C22 1_555 1_555
C22 C23 1_555 1_555
C23 C24 1_555 1_555
C24 C19 1_555 1_555
C25 C26 1_555 1_555
C26 C27 1_555 1_555
C27 C28 1_555 1_555
C28 C29 1_555 1_555
C29 C30 1_555 1_555
C30 C25 1_555 1_555
N1 C1 1_555 1_555
N2 C7 1_555 1_555
N3 C16 1_555 1_555
N4 C22 1_555 1_555
H2 C3 1_555 1_555
H3 C5 1_555 1_555
H4 C6 1_555 1_555
H5 C8 1_555 1_555
H6 C9 1_555 1_555
H7 C11 1_555 1_555
H8 C12 1_555 1_555
H9 C13 1_555 1_555
H10 C14 1_555 1_555
H11 C15 1_555 1_555
H13 C18 1_555 1_555
H14 C20 1_555 1_555
H15 C21 1_555 1_555
H16 C23 1_555 1_555
H17 C24 1_555 1_555
H18 C26 1_555 1_555
H19 C27 1_555 1_555
H20 C28 1_555 1_555
H21 C29 1_555 1_555
H22 C30 1_555 1_555
H23 N1 1_555 1_555
H24 N2 1_555 1_555
H25 N3 1_555 1_555
H26 N4 1_555 1_555
C3A C2 1_555 1_555
C1A C3A 1_555 1_555
C2A C3 1_555 1_555
H1A C2A 1_555 1_555
N1A C1A 1_555 1_555
C4A N1A 1_555 1_555
C5A C4A 1_555 1_555
C6A C5A 1_555 1_555
C7A C6A 1_555 1_555
C8A C7A 1_555 1_555
C9A C4A 1_555 1_555
H6A C9A 1_555 1_555
H5A C8A 1_555 1_555
N2A C7A 1_555 1_555
C10A N2A 1_555 1_555
C11A C10A 1_555 1_555
C12A C11A 1_555 1_555
C13A C12A 1_555 1_555
C14A C13A 1_555 1_555
C15A C10A 1_555 1_555
H11A C15A 1_555 1_555
H10A C14A 1_555 1_555
H9A C13A 1_555 1_555
H8A C12A 1_555 1_555
H7A C11A 1_555 1_555
H24A N2A 1_555 1_555
H4A C6A 1_555 1_555
H3A C5A 1_555 1_555
H23A N1A 1_555 1_555
H2A C3A 1_555 1_555
C18A C17 1_555 1_555
C16A C18A 1_555 1_555
C17A C18 1_555 1_555
H12A C17A 1_555 1_555
N3A C16A 1_555 1_555
C19A N3A 1_555 1_555
C20A C19A 1_555 1_555
C21A C20A 1_555 1_555
C22A C21A 1_555 1_555
C23A C22A 1_555 1_555
C24A C19A 1_555 1_555
H17A C24A 1_555 1_555
H16A C23A 1_555 1_555
N4A C22A 1_555 1_555
C25A N4A 1_555 1_555
C26A C25A 1_555 1_555
C27A C26A 1_555 1_555
C28A C27A 1_555 1_555
C29A C28A 1_555 1_555
C30A C25A 1_555 1_555
H22A C30A 1_555 1_555
H21A C29A 1_555 1_555
H20A C28A 1_555 1_555
H19A C27A 1_555 1_555
H18A C26A 1_555 1_555
H26A N4A 1_555 1_555
H15A C21A 1_555 1_555
H14A C20A 1_555 1_555
H25A N3A 1_555 1_555
H13A C18A 1_555 1_555
C4 N1 1_555 1_555
C10 N2 1_555 1_555
C19 N3 1_555 1_555
C25 N4 1_555 1_555
C1A C2A 1_555 1_555
C8A C9A 1_555 1_555
C14A C15A 1_555 1_555
C16A C17A 1_555 1_555
C23A C24A 1_555 1_555
C29A C30A 1_555 1_555

#END
