
#######################################################################
#
#                 Cambridge Crystallographic Data Centre
#                                CCDC 
#
#######################################################################
#
# If this CIF has been generated from an entry in the Cambridge 
# Structural Database, then it will include bibliographic, chemical, 
# crystal, experimental, refinement or atomic coordinate data resulting 
# from the CCDC's data processing and validation procedures.
#
#######################################################################

data_FADFAS
_chemical_formula_moiety         'C19 H19 N1 O2 Se1'
_chemical_name_systematic        N-(5-Phenylseleno)pentylphthalimide
_symmetry_cell_setting           monoclinic
_symmetry_space_group_name_H-M   'P 21/n'
_symmetry_Int_Tables_number      14
_space_group_name_Hall           '-P 2yn'
loop_
_symmetry_equiv_pos_site_id
_symmetry_equiv_pos_as_xyz
1 x,y,z
2 1/2+x,1/2-y,1/2+z
3 -x,-y,-z
4 1/2-x,1/2+y,1/2-z
_cell_length_a                   8.481(2)
_cell_length_b                   18.196(5)
_cell_length_c                   11.265(3)
_cell_angle_alpha                90
_cell_angle_beta                 99.361(5)
_cell_angle_gamma                90
_cell_volume                     1715.27
_exptl_crystal_colour            colorless
_exptl_crystal_description       prism
_cell_formula_units_Z            4
_exptl_crystal_recrystallization_method 'dichloromethane/petroleum ether'
loop_
_atom_site_label
_atom_site_type_symbol
_atom_site_fract_x
_atom_site_fract_y
_atom_site_fract_z
Se1 Se 0.39622(5) 1.00459(2) 0.68386(4)
O1 O 0.4897(3) 0.62297(13) 0.2221(2)
O2 O 0.0951(3) 0.60872(13) 0.4509(2)
N1 N 0.2850(3) 0.63466(14) 0.3326(2)
C1 C 0.4028(4) 0.59636(19) 0.2847(3)
C2 C 0.3935(4) 0.51971(16) 0.3272(3)
C3 C 0.4845(4) 0.4592(2) 0.3063(3)
H1 H 0.5645 0.4626 0.2592
C4 C 0.4506(5) 0.3940(2) 0.3588(3)
H2 H 0.5094 0.3522 0.3470
C5 C 0.3313(5) 0.3891(2) 0.4285(3)
H3 H 0.3107 0.3441 0.4622
C6 C 0.2422(4) 0.4498(2) 0.4492(3)
H4 H 0.1623 0.4467 0.4966
C7 C 0.2761(4) 0.51509(17) 0.3969(3)
C8 C 0.2026(4) 0.58839(19) 0.4007(3)
C9 C 0.2561(4) 0.71347(17) 0.3193(3)
H5 H 0.1418 0.7224 0.3054
H6 H 0.2986 0.7311 0.2496
C10 C 0.3326(4) 0.75602(17) 0.4297(3)
H7 H 0.3028 0.7334 0.5008
H8 H 0.4478 0.7530 0.4364
C11 C 0.2839(4) 0.83565(18) 0.4258(3)
H9 H 0.1682 0.8386 0.4151
H10 H 0.3182 0.8588 0.3568
C12 C 0.3536(4) 0.87762(18) 0.5385(3)
H11 H 0.4691 0.8786 0.5451
H12 H 0.3277 0.8519 0.6082
C13 C 0.2921(4) 0.95597(19) 0.5390(3)
H13 H 0.1773 0.9558 0.5368
H14 H 0.3150 0.9820 0.4686
C14 C 0.3168(4) 1.10262(18) 0.6620(3)
C15 C 0.2142(4) 1.1264(2) 0.5625(3)
H15 H 0.1801 1.0939 0.4998
C16 C 0.1609(4) 1.1988(2) 0.5550(4)
H16 H 0.0919 1.2148 0.4873
C17 C 0.2100(5) 1.2462(2) 0.6471(4)
H17 H 0.1742 1.2945 0.6427
C18 C 0.3119(5) 1.2224(2) 0.7460(4)
H18 H 0.3460 1.2551 0.8083
C19 C 0.3645(4) 1.1516(2) 0.7548(3)
H19 H 0.4326 1.1362 0.8234
loop_
_geom_bond_atom_site_label_1
_geom_bond_atom_site_label_2
_geom_bond_site_symmetry_1
_geom_bond_site_symmetry_2
Se1 C13 1_555 1_555
O1 C1 1_555 1_555
O2 C8 1_555 1_555
N1 C1 1_555 1_555
C1 C2 1_555 1_555
C2 C3 1_555 1_555
C3 H1 1_555 1_555
C4 C3 1_555 1_555
H2 C4 1_555 1_555
C5 C4 1_555 1_555
H3 C5 1_555 1_555
C6 C5 1_555 1_555
H4 C6 1_555 1_555
C7 C2 1_555 1_555
C8 N1 1_555 1_555
C9 N1 1_555 1_555
H5 C9 1_555 1_555
H6 C9 1_555 1_555
C10 C9 1_555 1_555
H7 C10 1_555 1_555
H8 C10 1_555 1_555
C11 C10 1_555 1_555
H9 C11 1_555 1_555
H10 C11 1_555 1_555
C12 C11 1_555 1_555
H11 C12 1_555 1_555
H12 C12 1_555 1_555
C13 C12 1_555 1_555
H13 C13 1_555 1_555
H14 C13 1_555 1_555
C14 Se1 1_555 1_555
C15 C14 1_555 1_555
H15 C15 1_555 1_555
C16 C15 1_555 1_555
H16 C16 1_555 1_555
C17 C16 1_555 1_555
H17 C17 1_555 1_555
C18 C17 1_555 1_555
H18 C18 1_555 1_555
C19 C14 1_555 1_555
H19 C19 1_555 1_555
C6 C7 1_555 1_555
C7 C8 1_555 1_555
C18 C19 1_555 1_555

#END
