
#######################################################################
#
#                 Cambridge Crystallographic Data Centre
#                                CCDC 
#
#######################################################################
#
# If this CIF has been generated from an entry in the Cambridge 
# Structural Database, then it will include bibliographic, chemical, 
# crystal, experimental, refinement or atomic coordinate data resulting 
# from the CCDC's data processing and validation procedures.
#
#######################################################################

data_FADMIJ
_chemical_formula_moiety         'C16 H10 N2 O2'
_chemical_name_systematic        3-Phenyl[1,3]oxazolo[3,4-a]quinoxalin-1-one
_symmetry_cell_setting           monoclinic
_symmetry_space_group_name_H-M   'P 21/c'
_symmetry_Int_Tables_number      14
_space_group_name_Hall           '-P 2ybc'
loop_
_symmetry_equiv_pos_site_id
_symmetry_equiv_pos_as_xyz
1 x,y,z
2 -x,1/2+y,1/2-z
3 -x,-y,-z
4 x,1/2-y,1/2+z
_cell_length_a                   6.5553(10)
_cell_length_b                   7.5635(11)
_cell_length_c                   24.087(4)
_cell_angle_alpha                90
_cell_angle_beta                 94.305(3)
_cell_angle_gamma                90
_cell_volume                     1190.89
_exptl_crystal_colour            colorless
_exptl_crystal_description       prismatic
_cell_formula_units_Z            4
loop_
_atom_site_label
_atom_site_type_symbol
_atom_site_fract_x
_atom_site_fract_y
_atom_site_fract_z
N1 N 0.45834(17) 0.25335(15) 0.04196(5)
N2 N 0.76691(19) 0.34972(17) -0.02560(5)
O1 O 0.16078(17) 0.16139(16) 0.08088(5)
O2 O 0.42777(15) 0.28751(14) 0.13086(4)
C1 C 0.5891(2) 0.26158(18) -0.04731(6)
C2 C 0.5690(3) 0.2242(2) -0.10379(6)
H1 H 0.6750 0.2526 -0.1258
C3 C 0.3955(3) 0.1461(2) -0.12771(7)
H2 H 0.3842 0.1226 -0.1657
C4 C 0.2377(3) 0.1024(2) -0.09558(7)
H3 H 0.1197 0.0503 -0.1121
C5 C 0.2535(2) 0.1353(2) -0.03930(7)
H4 H 0.1473 0.1049 -0.0176
C6 C 0.4292(2) 0.21411(17) -0.01522(6)
C7 C 0.3287(2) 0.2252(2) 0.08283(6)
C8 C 0.6181(2) 0.35372(18) 0.11999(6)
C9 C 0.6384(2) 0.33430(17) 0.06477(6)
C10 C 0.7867(2) 0.38186(19) 0.02709(6)
H5 H 0.9046 0.4394 0.0413
C11 C 0.7382(2) 0.42717(18) 0.16716(6)
C12 C 0.6540(3) 0.4435(2) 0.21817(6)
H6 H 0.5213 0.4044 0.2220
C13 C 0.7657(3) 0.5172(2) 0.26329(7)
H7 H 0.7073 0.5280 0.2971
C14 C 0.9611(3) 0.5741(2) 0.25857(7)
H8 H 1.0357 0.6242 0.2890
C15 C 1.0469(3) 0.5568(2) 0.20852(7)
H9 H 1.1805 0.5945 0.2053
C16 C 0.9379(3) 0.4848(2) 0.16327(6)
H10 H 0.9981 0.4744 0.1297
loop_
_geom_bond_atom_site_label_1
_geom_bond_atom_site_label_2
_geom_bond_site_symmetry_1
_geom_bond_site_symmetry_2
N1 C6 1_555 1_555
N2 C1 1_555 1_555
O1 C7 1_555 1_555
O2 C7 1_555 1_555
C1 C2 1_555 1_555
C2 H1 1_555 1_555
C3 C2 1_555 1_555
H2 C3 1_555 1_555
C4 C3 1_555 1_555
H3 C4 1_555 1_555
C5 C4 1_555 1_555
H4 C5 1_555 1_555
C6 C1 1_555 1_555
C7 N1 1_555 1_555
C8 O2 1_555 1_555
C9 N1 1_555 1_555
C10 N2 1_555 1_555
H5 C10 1_555 1_555
C11 C8 1_555 1_555
C12 C11 1_555 1_555
H6 C12 1_555 1_555
C13 C12 1_555 1_555
H7 C13 1_555 1_555
C14 C13 1_555 1_555
H8 C14 1_555 1_555
C15 C14 1_555 1_555
H9 C15 1_555 1_555
C16 C11 1_555 1_555
H10 C16 1_555 1_555
C5 C6 1_555 1_555
C8 C9 1_555 1_555
C9 C10 1_555 1_555
C15 C16 1_555 1_555

#END
