
#######################################################################
#
#                 Cambridge Crystallographic Data Centre
#                                CCDC 
#
#######################################################################
#
# If this CIF has been generated from an entry in the Cambridge 
# Structural Database, then it will include bibliographic, chemical, 
# crystal, experimental, refinement or atomic coordinate data resulting 
# from the CCDC's data processing and validation procedures.
#
#######################################################################

data_FADMAB
_chemical_formula_moiety         'C20 H19 N1 O6 S1'
_chemical_name_systematic        
'Methyl 2-(3,4,5-trimethoxybenzoyl)-4H-1,4-benzothiazine-4-carboxylate'
_symmetry_cell_setting           orthorhombic
_symmetry_space_group_name_H-M   'P 21 21 21'
_symmetry_Int_Tables_number      19
_space_group_name_Hall           'P 2ac 2ab'
loop_
_symmetry_equiv_pos_site_id
_symmetry_equiv_pos_as_xyz
1 x,y,z
2 1/2-x,-y,1/2+z
3 -x,1/2+y,1/2-z
4 1/2+x,1/2-y,-z
_cell_length_a                   4.1268(4)
_cell_length_b                   14.2648(12)
_cell_length_c                   31.861(3)
_cell_angle_alpha                90
_cell_angle_beta                 90
_cell_angle_gamma                90
_cell_volume                     1875.59
_exptl_crystal_colour            green
_exptl_crystal_description       prismatic
_cell_formula_units_Z            4
loop_
_atom_site_label
_atom_site_type_symbol
_atom_site_fract_x
_atom_site_fract_y
_atom_site_fract_z
S1 S 0.56753(16) 0.62704(4) 0.80382(2)
N1 N 0.2758(6) 0.66132(12) 0.88937(5)
O1 O 0.3720(8) 0.43939(11) 0.78089(5)
O2 O -0.0418(5) 0.12862(10) 0.83878(5)
O3 O 0.1798(5) 0.12559(11) 0.91718(5)
O4 O 0.5097(5) 0.26907(11) 0.94970(5)
O5 O 0.4044(6) 0.75339(12) 0.94565(6)
O6 O 0.3565(6) 0.59741(12) 0.95246(5)
C1 C 0.2409(6) 0.73829(14) 0.86057(7)
C2 C 0.0684(8) 0.81794(16) 0.87156(8)
H1 H -0.0296 0.8222 0.8978
C3 C 0.0430(9) 0.89069(17) 0.84344(9)
H2 H -0.0686 0.9448 0.8510
C4 C 0.1816(8) 0.88419(17) 0.80412(9)
H3 H 0.1689 0.9345 0.7856
C5 C 0.3382(7) 0.80337(16) 0.79231(8)
H4 H 0.4238 0.7979 0.7654
C6 C 0.3684(6) 0.72990(14) 0.82064(7)
C7 C 0.3761(6) 0.54503(14) 0.83656(6)
C8 C 0.2569(7) 0.56909(14) 0.87380(6)
H5 H 0.1574 0.5234 0.8902
C9 C 0.3497(7) 0.44925(15) 0.81853(7)
C10 C 0.3027(6) 0.36596(14) 0.84618(6)
C11 C 0.1437(6) 0.28912(14) 0.82906(7)
H6 H 0.0615 0.2922 0.8019
C12 C 0.1078(6) 0.20803(14) 0.85243(7)
C13 C 0.2336(7) 0.20359(15) 0.89328(7)
C14 C 0.3950(6) 0.28045(15) 0.90982(7)
C15 C 0.4316(6) 0.36180(15) 0.88648(6)
H7 H 0.5411 0.4130 0.8977
C16 C 0.3506(7) 0.67780(17) 0.93081(7)
C17 C 0.4383(12) 0.6070(2) 0.99638(7)
H8 H 0.2940 0.6511 1.0093
H9 H 0.6573 0.6290 0.9989
H10 H 0.4179 0.5473 1.0100
C18 C -0.1740(7) 0.12865(17) 0.79771(7)
H11 H -0.0037 0.1383 0.7776
H12 H -0.3304 0.1782 0.7953
H13 H -0.2774 0.0695 0.7924
C19 C 0.4258(9) 0.05698(19) 0.91657(11)
H14 H 0.6197 0.0823 0.9288
H15 H 0.4681 0.0386 0.8881
H16 H 0.3571 0.0033 0.9324
C20 C 0.6484(9) 0.3479(2) 0.96984(8)
H17 H 0.4956 0.3986 0.9698
H18 H 0.8408 0.3666 0.9551
H19 H 0.7028 0.3319 0.9982
loop_
_geom_bond_atom_site_label_1
_geom_bond_atom_site_label_2
_geom_bond_site_symmetry_1
_geom_bond_site_symmetry_2
S1 C6 1_555 1_555
N1 C1 1_555 1_555
O1 C9 1_555 1_555
O2 C12 1_555 1_555
O3 C13 1_555 1_555
O4 C14 1_555 1_555
O5 C16 1_555 1_555
O6 C16 1_555 1_555
C1 C2 1_555 1_555
C2 H1 1_555 1_555
C3 C2 1_555 1_555
H2 C3 1_555 1_555
C4 C3 1_555 1_555
H3 C4 1_555 1_555
C5 C4 1_555 1_555
H4 C5 1_555 1_555
C6 C1 1_555 1_555
C7 S1 1_555 1_555
C8 N1 1_555 1_555
H5 C8 1_555 1_555
C9 C7 1_555 1_555
C10 C9 1_555 1_555
C11 C10 1_555 1_555
H6 C11 1_555 1_555
C12 C11 1_555 1_555
C13 C12 1_555 1_555
C14 C13 1_555 1_555
C15 C10 1_555 1_555
H7 C15 1_555 1_555
C16 N1 1_555 1_555
C17 O6 1_555 1_555
H8 C17 1_555 1_555
H9 C17 1_555 1_555
H10 C17 1_555 1_555
C18 O2 1_555 1_555
H11 C18 1_555 1_555
H12 C18 1_555 1_555
H13 C18 1_555 1_555
C19 O3 1_555 1_555
H14 C19 1_555 1_555
H15 C19 1_555 1_555
H16 C19 1_555 1_555
C20 O4 1_555 1_555
H17 C20 1_555 1_555
H18 C20 1_555 1_555
H19 C20 1_555 1_555
C5 C6 1_555 1_555
C7 C8 1_555 1_555
C14 C15 1_555 1_555

#END
