
#######################################################################
#
#                 Cambridge Crystallographic Data Centre
#                                CCDC 
#
#######################################################################
#
# If this CIF has been generated from an entry in the Cambridge 
# Structural Database, then it will include bibliographic, chemical, 
# crystal, experimental, refinement or atomic coordinate data resulting 
# from the CCDC's data processing and validation procedures.
#
#######################################################################

data_FADMOP
_chemical_formula_moiety         'C19 H16 N2 O4'
_chemical_name_systematic        
'Dimethyl 2-(phenylethynyl)-1H-benzimidazole-1,3(2H)-dicarboxylate'
_symmetry_cell_setting           monoclinic
_symmetry_space_group_name_H-M   'P 21/c'
_symmetry_Int_Tables_number      14
_space_group_name_Hall           '-P 2ybc'
loop_
_symmetry_equiv_pos_site_id
_symmetry_equiv_pos_as_xyz
1 x,y,z
2 -x,1/2+y,1/2-z
3 -x,-y,-z
4 x,1/2-y,1/2+z
_cell_length_a                   8.452(2)
_cell_length_b                   11.035(3)
_cell_length_c                   17.764(5)
_cell_angle_alpha                90
_cell_angle_beta                 94.490(5)
_cell_angle_gamma                90
_cell_volume                     1651.72
_exptl_crystal_colour            colorless
_exptl_crystal_description       prismatic
_cell_formula_units_Z            4
loop_
_atom_site_label
_atom_site_type_symbol
_atom_site_fract_x
_atom_site_fract_y
_atom_site_fract_z
N1 N 0.32538(16) 0.53988(11) 0.37508(7)
N2 N 0.36500(17) 0.62506(12) 0.49148(7)
O1 O 0.47986(16) 0.56584(11) 0.27879(7)
O2 O 0.32445(15) 0.40113(10) 0.28515(6)
O3 O 0.39237(19) 0.68288(14) 0.61420(8)
O4 O 0.49660(17) 0.79258(12) 0.52339(8)
C1 C 0.24554(18) 0.46957(14) 0.42666(8)
C2 C 0.1527(2) 0.36807(16) 0.41510(11)
H1 H 0.1322 0.3353 0.3671
C3 C 0.0908(2) 0.31646(19) 0.47729(12)
H2 H 0.0278 0.2476 0.4711
C4 C 0.1206(3) 0.3648(2) 0.54741(12)
H3 H 0.0792 0.3272 0.5884
C5 C 0.2111(2) 0.46854(18) 0.55917(10)
H4 H 0.2300 0.5020 0.6071
C6 C 0.27192(18) 0.52009(14) 0.49747(9)
C7 C 0.3819(2) 0.65263(14) 0.41179(9)
H5 H 0.4934 0.6672 0.4031
C8 C 0.28271(19) 0.75697(14) 0.38601(9)
C9 C 0.2006(2) 0.84032(14) 0.36729(9)
C10 C 0.0999(2) 0.94109(14) 0.34592(9)
C11 C -0.0221(3) 0.97149(17) 0.38931(12)
H6 H -0.0391 0.9261 0.4320
C12 C -0.1194(3) 1.0690(2) 0.36984(16)
H7 H -0.2016 1.0887 0.3995
C13 C -0.0962(3) 1.1361(2) 0.30781(14)
H8 H -0.1626 1.2011 0.2946
C14 C 0.0240(4) 1.1079(2) 0.26529(14)
H9 H 0.0403 1.1545 0.2230
C15 C 0.1237(3) 1.01050(19) 0.28346(11)
H10 H 0.2061 0.9923 0.2536
C16 C 0.38600(19) 0.50591(14) 0.30962(9)
C17 C 0.3963(3) 0.34783(18) 0.22226(11)
H11 H 0.3958 0.4055 0.1818
H12 H 0.3373 0.2772 0.2054
H13 H 0.5036 0.3252 0.2376
C18 C 0.4163(2) 0.69940(16) 0.54959(10)
C19 C 0.5675(3) 0.8739(2) 0.58020(15)
H14 H 0.4856 0.9191 0.6021
H15 H 0.6378 0.9287 0.5574
H16 H 0.6261 0.8278 0.6188
loop_
_geom_bond_atom_site_label_1
_geom_bond_atom_site_label_2
_geom_bond_site_symmetry_1
_geom_bond_site_symmetry_2
N1 C1 1_555 1_555
N2 C6 1_555 1_555
O1 C16 1_555 1_555
O2 C16 1_555 1_555
O3 C18 1_555 1_555
O4 C18 1_555 1_555
C1 C2 1_555 1_555
C2 H1 1_555 1_555
C3 C2 1_555 1_555
H2 C3 1_555 1_555
C4 C3 1_555 1_555
H3 C4 1_555 1_555
C5 C4 1_555 1_555
H4 C5 1_555 1_555
C6 C1 1_555 1_555
C7 N1 1_555 1_555
H5 C7 1_555 1_555
C8 C7 1_555 1_555
C9 C8 1_555 1_555
C10 C9 1_555 1_555
C11 C10 1_555 1_555
H6 C11 1_555 1_555
C12 C11 1_555 1_555
H7 C12 1_555 1_555
C13 C12 1_555 1_555
H8 C13 1_555 1_555
C14 C13 1_555 1_555
H9 C14 1_555 1_555
C15 C10 1_555 1_555
H10 C15 1_555 1_555
C16 N1 1_555 1_555
C17 O2 1_555 1_555
H11 C17 1_555 1_555
H12 C17 1_555 1_555
H13 C17 1_555 1_555
C18 N2 1_555 1_555
C19 O4 1_555 1_555
H14 C19 1_555 1_555
H15 C19 1_555 1_555
H16 C19 1_555 1_555
N2 C7 1_555 1_555
C5 C6 1_555 1_555
C14 C15 1_555 1_555

#END
