
#######################################################################
#
#                 Cambridge Crystallographic Data Centre
#                                CCDC 
#
#######################################################################
#
# If this CIF has been generated from an entry in the Cambridge 
# Structural Database, then it will include bibliographic, chemical, 
# crystal, experimental, refinement or atomic coordinate data resulting 
# from the CCDC's data processing and validation procedures.
#
#######################################################################

data_FADPUX
_chemical_formula_moiety         
'C16 H36 N1 1+,0.5(C4 H4 O4),0.5(C4 H2 O4 2-),3(C1 H4 N2 S1)'
_chemical_name_systematic        
'Tetra-n-butylammonium hemifumarate hemifumaric acid tris(thiourea)'
_symmetry_cell_setting           triclinic
_symmetry_space_group_name_H-M   'P -1'
_symmetry_Int_Tables_number      2
_space_group_name_Hall           '-P 1'
loop_
_symmetry_equiv_pos_site_id
_symmetry_equiv_pos_as_xyz
1 x,y,z
2 -x,-y,-z
_cell_length_a                   9.4620(13)
_cell_length_b                   11.8428(16)
_cell_length_c                   16.703(2)
_cell_angle_alpha                93.742(2)
_cell_angle_beta                 91.171(2)
_cell_angle_gamma                109.783(2)
_cell_volume                     1755.66
_cell_formula_units_Z            2
loop_
_atom_site_label
_atom_site_type_symbol
_atom_site_fract_x
_atom_site_fract_y
_atom_site_fract_z
C1 C 0.8538(2) 0.7114(1) 0.9478(1)
N1 N 0.9161(2) 0.8187(1) 0.9846(1)
N2 N 0.7099(2) 0.6526(1) 0.9581(1)
S1 S 0.9569(1) 0.6493(1) 0.8889(1)
C2 C 0.3390(2) 0.6903(1) 0.0425(1)
N3 N 0.1973(2) 0.6245(1) 0.0302(1)
N4 N 0.3892(2) 0.7944(1) 0.0094(1)
S2 S 0.4566(1) 0.6466(1) 0.1016(1)
C3 C 0.7797(2) 0.9927(1) 0.1632(1)
N5 N 0.8787(2) 1.0844(1) 0.2034(1)
N6 N 0.7155(2) 0.8961(1) 0.2002(1)
S3 S 0.7363(1) 0.9983(1) 0.0633(1)
C4 C 0.8956(2) 0.9614(2) 0.3964(1)
C5 C 0.9428(2) 0.9599(2) 0.4809(1)
O3 O 0.7802(2) 0.8798(1) 0.3668(1)
O4 O 0.9735(2) 1.0418(2) 0.3564(1)
C4A C 1.1044(2) 1.0386(2) 0.6036(1)
C5A C 1.0572(2) 1.0401(2) 0.5191(1)
O3A O 1.2198(2) 1.1202(1) 0.6332(1)
O4A O 1.0265(2) 0.9582(2) 0.6436(1)
C6 C 0.6434(3) 0.6295(3) 0.4531(2)
C7 C 0.5640(4) 0.5076(3) 0.4858(2)
O1 O 0.7656(2) 0.6200(2) 0.4391(1)
O2 O 0.6083(2) 0.7153(2) 0.4389(1)
C6A C 0.3566(3) 0.3705(3) 0.5469(2)
C7A C 0.4360(4) 0.4924(3) 0.5142(2)
O1A O 0.2344(2) 0.3800(2) 0.5609(1)
O2A O 0.3917(2) 0.2847(2) 0.5611(1)
C8 C 0.2269(5) 0.8283(4) 0.3055(3)
C9 C 0.2542(4) 0.8561(3) 0.2282(2)
C10 C 0.2887(8) 1.0042(4) 0.2379(4)
C11 C 0.3252(8) 1.0547(4) 0.1681(2)
C12 C 0.0129(4) 0.6619(4) 0.2678(2)
C13 C -0.0735(6) 0.6198(6) 0.2046(3)
C14 C -0.2150(4) 0.5850(3) 0.1801(2)
C15 C -0.2901(5) 0.4708(4) 0.1914(4)
C16 C 0.2546(3) 0.6439(2) 0.2956(2)
C17 C 0.2110(4) 0.5127(3) 0.3226(2)
C18 C 0.3264(4) 0.4589(2) 0.2966(2)
C19 C 0.2767(6) 0.3271(3) 0.3159(2)
C20 C 0.1240(4) 0.7182(4) 0.3951(2)
C21 C 0.2614(4) 0.7651(4) 0.4506(3)
C22 C 0.2360(2) 0.7800(2) 0.5315(3)
C23 C 0.1501(12) 0.7078(6) 0.5948(4)
N7 N 0.1596(2) 0.7120(2) 0.3103(2)
C24? C 0.5047(5) 0.5554(3) 0.4952(3)
loop_
_geom_bond_atom_site_label_1
_geom_bond_atom_site_label_2
_geom_bond_site_symmetry_1
_geom_bond_site_symmetry_2
C1 N1 1_555 1_555
C2 N3 1_555 1_555
C3 N5 1_555 1_555
C4 C5 1_555 1_555
C5 C5A 1_555 1_555
C6 C7 1_555 1_555
C7 C7A 1_555 1_555
C8 C9 1_555 1_555
C9 C10 1_555 1_555
C10 C11 1_555 1_555
C12 C13 1_555 1_555
C13 C14 1_555 1_555
C14 C15 1_555 1_555
C16 C17 1_555 1_555
C17 C18 1_555 1_555
C18 C19 1_555 1_555
C20 C21 1_555 1_555
C21 C22 1_555 1_555
C22 C23 1_555 1_555
N2 C1 1_555 1_555
N4 C2 1_555 1_555
N6 C3 1_555 1_555
N7 C8 1_555 1_555
O1 C6 1_555 1_555
O2 C6 1_555 1_555
O3 C4 1_555 1_555
O4 C4 1_555 1_555
S1 C1 1_555 1_555
S2 C2 1_555 1_555
S3 C3 1_555 1_555
C4A C5A 1_555 1_555
C6A C7A 1_555 1_555
O1A C6A 1_555 1_555
O2A C6A 1_555 1_555
O3A C4A 1_555 1_555
O4A C4A 1_555 1_555
C12 N7 1_555 1_555
C16 N7 1_555 1_555
C20 N7 1_555 1_555

#END
