
#######################################################################
#
#                 Cambridge Crystallographic Data Centre
#                                CCDC 
#
#######################################################################
#
# If this CIF has been generated from an entry in the Cambridge 
# Structural Database, then it will include bibliographic, chemical, 
# crystal, experimental, refinement or atomic coordinate data resulting 
# from the CCDC's data processing and validation procedures.
#
#######################################################################

data_FADRAF
_chemical_compound_source        'Saururus chinensis'
_chemical_name_common            ent-sauchinone
_chemical_formula_moiety         'C20 H20 O6'
_chemical_name_systematic        
7,8-Dimethyl-5a,6,7,8,8a,14b-hexahydro-5H-benzo[kl]bis[1,3]dioxolo[4,5-b:4',5'-g]xanthen-5-one
_symmetry_cell_setting           orthorhombic
_symmetry_space_group_name_H-M   'P 21 21 21'
_symmetry_Int_Tables_number      19
_space_group_name_Hall           'P 2ac 2ab'
loop_
_symmetry_equiv_pos_site_id
_symmetry_equiv_pos_as_xyz
1 x,y,z
2 1/2-x,-y,1/2+z
3 -x,1/2+y,1/2-z
4 1/2+x,1/2-y,-z
_cell_length_a                   9.838(2)
_cell_length_b                   11.779(3)
_cell_length_c                   14.431(3)
_cell_angle_alpha                90
_cell_angle_beta                 90
_cell_angle_gamma                90
_cell_volume                     1672.29
_exptl_crystal_colour            colorless
_exptl_crystal_description       needle
_chemical_melting_point          205.6-206.8deg.C
_cell_formula_units_Z            4
_exptl_crystal_recrystallization_method methanol
loop_
_atom_site_label
_atom_site_type_symbol
_atom_site_fract_x
_atom_site_fract_y
_atom_site_fract_z
C1 C 0.8848(2) 0.5684(1) 0.6090(1)
C2 C 0.8882(2) 0.3798(1) 0.6005(1)
C3 C 0.9453(2) 0.4221(1) 0.5204(1)
C4 C 0.9845(2) 0.3530(1) 0.4496(1)
C5 C 0.9598(1) 0.2356(1) 0.4573(1)
C6 C 0.9047(1) 0.1955(1) 0.5395(1)
C7 C 0.8672(1) 0.2658(1) 0.6133(1)
C8 C 1.0006(1) 0.1546(1) 0.3803(1)
C9 C 0.9659(2) 0.1941(1) 0.2806(1)
C10 C 0.8146(2) 0.1795(2) 0.2552(1)
C11 C 0.7689(2) 0.0561(1) 0.2703(1)
C12 C 0.7945(1) 0.0174(1) 0.3697(1)
C13 C 0.9448(1) 0.0344(1) 0.3978(1)
C14 C 0.9529(1) 0.0036(1) 0.4988(1)
C15 C 1.0732(2) -0.0776(2) 0.6118(1)
C16 C 0.8957(2) -0.1121(1) 0.5193(1)
C17 C 0.8010(2) -0.1622(1) 0.4692(1)
C18 C 0.7515(2) -0.1058(1) 0.3857(1)
C19 C 1.0580(2) 0.1336(2) 0.2106(1)
C20 C 0.7211(2) 0.2644(2) 0.3031(1)
O1 O 0.8630(1) 0.4672(1) 0.6617(1)
O2 O 0.9598(2) 0.5385(1) 0.5278(1)
O3 O 0.8788(1) 0.0805(1) 0.5552(1)
O4 O 1.0873(1) -0.0079(1) 0.5323(1)
O5 O 0.9646(2) -0.1559(1) 0.5917(1)
O6 O 0.6809(1) -0.1562(1) 0.3296(1)
H1 H 0.7984 0.6020 0.5918
H2 H 0.9354 0.6232 0.6454
H3 H 1.0267 0.3827 0.3972
H4 H 0.8304 0.2370 0.6678
H5 H 1.0999 0.1484 0.3893
H6 H 0.9865 0.2754 0.2770
H7 H 0.8073 0.1942 0.1885
H8 H 0.6727 0.0496 0.2565
H9 H 0.8179 0.0068 0.2281
H10 H 0.7390 0.0652 0.4104
H11 H 1.0004 -0.0196 0.3628
H12 H 1.0511 -0.0319 0.6657
H13 H 1.1570 -0.1183 0.6240
H14 H 0.7663 -0.2324 0.4868
H15 H 1.0328 0.1555 0.1489
H16 H 1.0481 0.0530 0.2174
H17 H 1.1509 0.1545 0.2218
H18 H 0.7542 0.3400 0.2927
H19 H 0.7193 0.2491 0.3684
H20 H 0.6310 0.2576 0.2782
loop_
_geom_bond_atom_site_label_1
_geom_bond_atom_site_label_2
_geom_bond_site_symmetry_1
_geom_bond_site_symmetry_2
C1 O1 1_555 1_555
C2 C3 1_555 1_555
C3 C4 1_555 1_555
C4 C5 1_555 1_555
C5 C6 1_555 1_555
C6 C7 1_555 1_555
C7 C2 1_555 1_555
C8 C5 1_555 1_555
C9 C8 1_555 1_555
C10 C9 1_555 1_555
C11 C10 1_555 1_555
C12 C11 1_555 1_555
C13 C8 1_555 1_555
C14 C13 1_555 1_555
C15 O4 1_555 1_555
C16 C14 1_555 1_555
C17 C16 1_555 1_555
C18 C12 1_555 1_555
C19 C9 1_555 1_555
C20 C10 1_555 1_555
O1 C2 1_555 1_555
O2 C1 1_555 1_555
O3 C6 1_555 1_555
O4 C14 1_555 1_555
O5 C15 1_555 1_555
O6 C18 1_555 1_555
H1 C1 1_555 1_555
H2 C1 1_555 1_555
H3 C4 1_555 1_555
H4 C7 1_555 1_555
H5 C8 1_555 1_555
H6 C9 1_555 1_555
H7 C10 1_555 1_555
H8 C11 1_555 1_555
H9 C11 1_555 1_555
H10 C12 1_555 1_555
H11 C13 1_555 1_555
H12 C15 1_555 1_555
H13 C15 1_555 1_555
H14 C17 1_555 1_555
H15 C19 1_555 1_555
H16 C19 1_555 1_555
H17 C19 1_555 1_555
H18 C20 1_555 1_555
H19 C20 1_555 1_555
H20 C20 1_555 1_555
C3 O2 1_555 1_555
C12 C13 1_555 1_555
C14 O3 1_555 1_555
C16 O5 1_555 1_555
C17 C18 1_555 1_555

#END
