
#######################################################################
#
#                 Cambridge Crystallographic Data Centre
#                                CCDC 
#
#######################################################################
#
# If this CIF has been generated from an entry in the Cambridge 
# Structural Database, then it will include bibliographic, chemical, 
# crystal, experimental, refinement or atomic coordinate data resulting 
# from the CCDC's data processing and validation procedures.
#
#######################################################################

data_FADSUZ
_chemical_formula_moiety         'C12 H16 O2'
_chemical_name_systematic        
exo-8-methylpentacyclo(5.4.0.0^2,6^.0^3,10^.0^5,9^)undecane-endo-endo-8,11-diol
_symmetry_cell_setting           monoclinic
_symmetry_space_group_name_H-M   'P 21/c'
_symmetry_Int_Tables_number      14
_space_group_name_Hall           '-P 2ybc'
loop_
_symmetry_equiv_pos_site_id
_symmetry_equiv_pos_as_xyz
1 x,y,z
2 x,1/2-y,1/2+z
3 -x,-y,-z
4 -x,1/2+y,1/2-z
_cell_length_a                   8.308(2)
_cell_length_b                   10.893(2)
_cell_length_c                   22.233(3)
_cell_angle_alpha                90
_cell_angle_beta                 91.13(2)
_cell_angle_gamma                90
_cell_volume                     2011.67
_exptl_crystal_colour            colorless
_exptl_crystal_description       parallelepiped
_cell_formula_units_Z            8
loop_
_atom_site_label
_atom_site_type_symbol
_atom_site_fract_x
_atom_site_fract_y
_atom_site_fract_z
O1 O 0.3599(2) 0.4876(2) 0.1654(1)
O2 O 0.0594(2) 0.5295(2) 0.1718(1)
C1 C 0.3982(3) 0.5417(3) 0.2220(1)
C2 C 0.3199(4) 0.4797(3) 0.2745(1)
C3 C 0.3566(4) 0.5702(3) 0.3268(1)
C4 C 0.4114(4) 0.6894(3) 0.2984(1)
C5 C 0.3520(3) 0.6745(3) 0.2333(1)
C6 C 0.1644(3) 0.6982(3) 0.2385(1)
C7 C 0.1518(4) 0.7238(3) 0.3065(1)
C8 C 0.1705(4) 0.5929(3) 0.3327(1)
C9 C 0.1349(3) 0.5035(3) 0.2796(1)
C10 C 0.0608(3) 0.5824(3) 0.2307(1)
C11 C 0.3079(5) 0.7850(3) 0.3262(2)
C12 C -0.1171(4) 0.6079(4) 0.2429(2)
H1 H 0.418 0.5188 0.1294
H2 H 0.164 0.5000 0.1550
H3 H 0.518 0.5323 0.2205
H4 H 0.354 0.3917 0.2729
H5 H 0.431 0.5462 0.3608
H6 H 0.529 0.7081 0.3033
H7 H 0.393 0.7277 0.2003
H8 H 0.130 0.7609 0.2081
H9 H 0.054 0.7712 0.3175
H10 H 0.112 0.5838 0.3713
H11 H 0.064 0.4293 0.2806
H12 H 0.324 0.8680 0.3080
H13 H 0.322 0.7905 0.3709
H14 H -0.181 0.5318 0.2340
H15 H -0.153 0.6749 0.2149
H16 H -0.133 0.6337 0.2855
O3 O 0.1490(2) 0.0209(2) 0.4224(1)
O4 O 0.4400(2) 0.0884(2) 0.4126(1)
C13 C 0.1074(3) 0.1241(3) 0.4583(1)
C14 C 0.1316(4) 0.2501(3) 0.4314(2)
C15 C 0.1089(5) 0.3337(4) 0.4867(2)
C16 C 0.1153(5) 0.2543(4) 0.5414(2)
C17 C 0.1973(4) 0.1365(3) 0.5169(1)
C18 C 0.3784(4) 0.1776(3) 0.5125(1)
C19 C 0.3679(4) 0.3116(4) 0.5356(2)
C20 C 0.2906(6) 0.3771(3) 0.4820(2)
C21 C 0.3128(5) 0.2902(3) 0.4272(1)
C22 C 0.4350(4) 0.1967(3) 0.4487(1)
C23 C 0.2375(5) 0.3135(4) 0.5820(2)
C24 C 0.6068(5) 0.2480(4) 0.4476(2)
H17 H 0.076 -0.0018 0.3876
H18 H 0.336 0.0442 0.4050
H19 H -0.009 0.1046 0.4627
H20 H 0.067 0.2525 0.3930
H21 H 0.014 0.3904 0.4879
H22 H 0.010 0.2411 0.5614
H23 H 0.197 0.0566 0.5391
H24 H 0.449 0.1155 0.5330
H25 H 0.473 0.3453 0.5512
H26 H 0.326 0.4647 0.4805
H27 H 0.349 0.3147 0.3864
H28 H 0.264 0.2624 0.6183
H29 H 0.208 0.3982 0.5950
H30 H 0.637 0.2582 0.4046
H31 H 0.679 0.1859 0.4674
H32 H 0.616 0.3284 0.4692
loop_
_geom_bond_atom_site_label_1
_geom_bond_atom_site_label_2
_geom_bond_site_symmetry_1
_geom_bond_site_symmetry_2
O1 C1 1_555 1_555
O2 C10 1_555 1_555
C1 C2 1_555 1_555
C2 C3 1_555 1_555
C3 C4 1_555 1_555
C4 C5 1_555 1_555
C5 C1 1_555 1_555
C6 C5 1_555 1_555
C7 C6 1_555 1_555
C8 C3 1_555 1_555
C9 C2 1_555 1_555
C10 C6 1_555 1_555
C11 C4 1_555 1_555
C12 C10 1_555 1_555
H1 O1 1_555 1_555
H2 O2 1_555 1_555
H3 C1 1_555 1_555
H4 C2 1_555 1_555
H5 C3 1_555 1_555
H6 C4 1_555 1_555
H7 C5 1_555 1_555
H8 C6 1_555 1_555
H9 C7 1_555 1_555
H10 C8 1_555 1_555
H11 C9 1_555 1_555
H12 C11 1_555 1_555
H13 C11 1_555 1_555
H14 C12 1_555 1_555
H15 C12 1_555 1_555
H16 C12 1_555 1_555
O3 C13 1_555 1_555
O4 C22 1_555 1_555
C13 C14 1_555 1_555
C14 C15 1_555 1_555
C15 C16 1_555 1_555
C16 C17 1_555 1_555
C17 C13 1_555 1_555
C18 C17 1_555 1_555
C19 C18 1_555 1_555
C20 C15 1_555 1_555
C21 C14 1_555 1_555
C22 C18 1_555 1_555
C23 C16 1_555 1_555
C24 C22 1_555 1_555
H17 O3 1_555 1_555
H18 O4 1_555 1_555
H19 C13 1_555 1_555
H20 C14 1_555 1_555
H21 C15 1_555 1_555
H22 C16 1_555 1_555
H23 C17 1_555 1_555
H24 C18 1_555 1_555
H25 C19 1_555 1_555
H26 C20 1_555 1_555
H27 C21 1_555 1_555
H28 C23 1_555 1_555
H29 C23 1_555 1_555
H30 C24 1_555 1_555
H31 C24 1_555 1_555
H32 C24 1_555 1_555
C7 C8 1_555 1_555
C7 C11 1_555 1_555
C8 C9 1_555 1_555
C9 C10 1_555 1_555
C19 C20 1_555 1_555
C19 C23 1_555 1_555
C20 C21 1_555 1_555
C21 C22 1_555 1_555

#END
