
#######################################################################
#
#                 Cambridge Crystallographic Data Centre
#                                CCDC 
#
#######################################################################
#
# If this CIF has been generated from an entry in the Cambridge 
# Structural Database, then it will include bibliographic, chemical, 
# crystal, experimental, refinement or atomic coordinate data resulting 
# from the CCDC's data processing and validation procedures.
#
#######################################################################

data_FADSEI
_chemical_formula_moiety         'C15 H20 O4'
_chemical_name_systematic        
11-Acetyl-11,12-epoxy-4,8-dimethyl-2-oxatricyclo(7.3.0.0^1,5^)dodecan-3-one
_symmetry_cell_setting           orthorhombic
_symmetry_space_group_name_H-M   'P 21 21 21'
_symmetry_Int_Tables_number      19
_space_group_name_Hall           'P 2ac 2ab'
loop_
_symmetry_equiv_pos_site_id
_symmetry_equiv_pos_as_xyz
1 x,y,z
2 1/2+x,1/2-y,-z
3 -x,1/2+y,1/2-z
4 1/2-x,-y,1/2+z
_cell_length_a                   5.945(6)
_cell_length_b                   14.171(2)
_cell_length_c                   16.264(3)
_cell_angle_alpha                90
_cell_angle_beta                 90
_cell_angle_gamma                90
_cell_volume                     1370.19
_chemical_melting_point          222-224deg.C
_cell_formula_units_Z            4
loop_
_atom_site_label
_atom_site_type_symbol
_atom_site_fract_x
_atom_site_fract_y
_atom_site_fract_z
C1 C -0.0907(13) -0.02486(49) 0.61893(41)
C2 C -0.0455(12) 0.05480(48) 0.55536(37)
C3 C 0.0943(11) 0.12438(44) 0.60298(39)
C4 C 0.3129(12) 0.16207(50) 0.56889(41)
C5 C 0.0632(12) 0.10770(44) 0.69118(38)
C6 C -0.1088(11) 0.02640(46) 0.70132(40)
C7 C -0.0939(13) -0.03863(46) 0.77388(39)
C8 C 0.1319(14) -0.08779(48) 0.78014(46)
C9 C 0.1465(17) -0.14755(52) 0.70096(49)
C10 C 0.1154(13) -0.09041(48) 0.62157(45)
C11 C -0.1984(14) 0.02049(51) 0.84441(43)
C12 C -0.3623(12) 0.08047(53) 0.79699(43)
C13 C -0.0393(14) 0.07788(54) 0.89880(42)
C14 C 0.1174(21) -0.15888(57) 0.54885(50)
C15 C 0.4086(15) 0.24870(52) 0.60885(48)
O1 O -0.03249(78) 0.18885(30) 0.65288(27)
O2 O -0.33005(80) 0.07149(35) 0.71403(28)
O3 O -0.50775(89) 0.12998(42) 0.82301(31)
O4 O 0.39701(96) 0.12568(42) 0.51088(32)
H1 H -0.204(14) -0.0648(56) 0.6071(49)
H2 H -0.173(12) 0.0760(46) 0.5316(38)
H3 H -0.002(11) 0.0249(39) 0.5085(33)
H4 H 0.1530(94) 0.1154(36) 0.7330(31)
H5 H -0.2077(96) -0.0837(39) 0.7645(33)
H6 H 0.130(12) -0.1366(45) 0.8311(39)
H7 H 0.2474(93) -0.0410(37) 0.7855(33)
H8 H 0.034(15) -0.2022(53) 0.7030(46)
H9 H 0.257(14) -0.1828(52) 0.7109(47)
H10 H 0.2363(98) -0.0446(38) 0.6162(35)
H11 H -0.248(13) -0.0273(49) 0.8801(43)
H12 H 0.022(17) 0.0283(60) 0.9345(51)
H13 H -0.115(17) 0.1195(63) 0.9362(53)
H14 H 0.044(18) 0.1228(62) 0.8737(54)
H15 H -0.021(12) -0.1990(43) 0.5637(36)
H16 H 0.1014(97) -0.1303(37) 0.5034(31)
H17 H 0.200(20) -0.2140(78) 0.5483(63)
H18 H 0.319(13) 0.2952(50) 0.6020(44)
H19 H 0.518(19) 0.2762(69) 0.5619(56)
H20 H 0.437(11) 0.2366(42) 0.6573(36)
loop_
_geom_bond_atom_site_label_1
_geom_bond_atom_site_label_2
_geom_bond_site_symmetry_1
_geom_bond_site_symmetry_2
C1 C2 1_555 1_555
C2 C3 1_555 1_555
C3 C4 1_555 1_555
C4 C15 1_555 1_555
C5 C3 1_555 1_555
C6 C1 1_555 1_555
C7 C6 1_555 1_555
C8 C7 1_555 1_555
C9 C8 1_555 1_555
C10 C1 1_555 1_555
C11 C7 1_555 1_555
C12 C11 1_555 1_555
C13 C11 1_555 1_555
C14 C10 1_555 1_555
C15 H18 1_555 1_555
O1 C3 1_555 1_555
O2 C6 1_555 1_555
O3 C12 1_555 1_555
O4 C4 1_555 1_555
H1 C1 1_555 1_555
H2 C2 1_555 1_555
H3 C2 1_555 1_555
H4 C5 1_555 1_555
H5 C7 1_555 1_555
H6 C8 1_555 1_555
H7 C8 1_555 1_555
H8 C9 1_555 1_555
H9 C9 1_555 1_555
H10 C10 1_555 1_555
H11 C11 1_555 1_555
H12 C13 1_555 1_555
H13 C13 1_555 1_555
H14 C13 1_555 1_555
H15 C14 1_555 1_555
H16 C14 1_555 1_555
H17 C14 1_555 1_555
H19 C15 1_555 1_555
H20 C15 1_555 1_555
C5 C6 1_555 1_555
C5 O1 1_555 1_555
C9 C10 1_555 1_555
C12 O2 1_555 1_555

#END
