
#######################################################################
#
#                 Cambridge Crystallographic Data Centre
#                                CCDC 
#
#######################################################################
#
# If this CIF has been generated from an entry in the Cambridge 
# Structural Database, then it will include bibliographic, chemical, 
# crystal, experimental, refinement or atomic coordinate data resulting 
# from the CCDC's data processing and validation procedures.
#
#######################################################################

data_FADZAO
_chemical_formula_moiety         'C20 H19 N1 O5 S1'
_chemical_name_systematic        
'methyl 2-((3,4,5-trimethoxyphenyl)ethynyl)-1,3-benzothiazole-3(2H)-carboxylate'
_symmetry_cell_setting           monoclinic
_symmetry_space_group_name_H-M   'P 21/n'
_symmetry_Int_Tables_number      14
_space_group_name_Hall           '-P 2yn'
loop_
_symmetry_equiv_pos_site_id
_symmetry_equiv_pos_as_xyz
1 x,y,z
2 1/2-x,1/2+y,1/2-z
3 -x,-y,-z
4 1/2+x,1/2-y,1/2+z
_cell_length_a                   10.6674(13)
_cell_length_b                   23.731(3)
_cell_length_c                   15.2777(19)
_cell_angle_alpha                90
_cell_angle_beta                 105.586(2)
_cell_angle_gamma                90
_cell_volume                     3725.3
_exptl_crystal_colour            colorless
_exptl_crystal_description       block
_cell_formula_units_Z            8
loop_
_atom_site_label
_atom_site_type_symbol
_atom_site_fract_x
_atom_site_fract_y
_atom_site_fract_z
S1 S 0.09139(8) 0.17787(4) 0.74380(6)
O1 O -0.1049(3) 0.00833(11) 0.5843(2)
O2 O 0.1016(3) 0.00207(10) 0.66951(18)
O3 O 0.4128(2) 0.24287(9) 0.35743(16)
O4 O 0.4503(2) 0.15102(10) 0.26697(14)
O5 O 0.4100(2) 0.04876(10) 0.32136(15)
N1 N 0.0048(2) 0.08589(11) 0.65303(18)
C1 C -0.0596(3) 0.17922(13) 0.6606(2)
C2 C -0.1425(3) 0.22462(14) 0.6385(2)
H1 H -0.1192 0.2602 0.6667
C3 C -0.2606(3) 0.21727(15) 0.5741(2)
H2 H -0.3190 0.2481 0.5577
C4 C -0.2938(3) 0.16557(16) 0.5337(2)
H3 H -0.3756 0.1612 0.4903
C5 C -0.2108(3) 0.11983(14) 0.5550(2)
H4 H -0.2345 0.0845 0.5261
C6 C -0.0927(3) 0.12661(13) 0.6192(2)
C7 C -0.0084(3) 0.03029(15) 0.6312(3)
C8 C 0.0934(5) -0.05803(16) 0.6542(3)
H5 H 0.0798 -0.0657 0.5893
H6 H 0.0203 -0.0733 0.6742
H7 H 0.1744 -0.0759 0.6888
C9 C 0.1313(3) 0.11122(14) 0.6977(2)
H8 H 0.1816 0.0863 0.7477
C10 C 0.2043(3) 0.12028(14) 0.6291(2)
C11 C 0.2515(3) 0.12651(14) 0.5673(2)
C12 C 0.3080(3) 0.13277(14) 0.4920(2)
C13 C 0.3329(3) 0.18651(14) 0.4642(2)
H9 H 0.3152 0.2187 0.4959
C14 C 0.3833(3) 0.19294(13) 0.3905(2)
C15 C 0.4069(3) 0.14553(13) 0.3435(2)
C16 C 0.3829(3) 0.09188(13) 0.3724(2)
C17 C 0.3319(3) 0.08518(14) 0.4468(2)
H10 H 0.3140 0.0487 0.4660
C18 C 0.3888(4) 0.29261(15) 0.4031(3)
H11 H 0.4099 0.3259 0.3719
H12 H 0.4433 0.2922 0.4660
H13 H 0.2969 0.2939 0.4029
C19 C 0.5871(4) 0.15240(19) 0.2864(3)
H14 H 0.6128 0.1528 0.2295
H15 H 0.6236 0.1190 0.3218
H16 H 0.6201 0.1864 0.3215
C20 C 0.3879(4) -0.00726(15) 0.3473(3)
H17 H 0.4101 -0.0340 0.3049
H18 H 0.2961 -0.0117 0.3460
H19 H 0.4424 -0.0146 0.4089
S2 S 0.10694(7) 0.17434(3) 0.20996(6)
O6 O -0.0956(2) -0.00407(10) 0.10840(19)
O7 O 0.1240(2) -0.00066(9) 0.14263(16)
O8 O 0.5090(2) 0.23581(9) -0.13675(15)
O9 O 0.6009(2) 0.13810(10) -0.18842(15)
O10 O 0.4993(2) 0.04014(10) -0.16722(16)
N2 N 0.0134(2) 0.07944(10) 0.12967(17)
C21 C -0.0603(3) 0.16902(13) 0.1550(2)
C22 C -0.1542(3) 0.20991(13) 0.1512(2)
H20 H -0.1306 0.2458 0.1784
C23 C -0.2822(3) 0.19805(14) 0.1077(2)
H21 H -0.3474 0.2259 0.1037
C24 C -0.3154(3) 0.14523(14) 0.0697(2)
H22 H -0.4041 0.1373 0.0404
C25 C -0.2230(3) 0.10386(14) 0.0733(2)
H23 H -0.2470 0.0679 0.0467
C26 C -0.0955(3) 0.11610(12) 0.11650(19)
C27 C 0.0045(3) 0.02230(14) 0.1253(2)
C28 C 0.1259(4) -0.06133(14) 0.1384(3)
H24 H 0.0717 -0.0739 0.0791
H25 H 0.0917 -0.0770 0.1866
H26 H 0.2154 -0.0743 0.1464
C29 C 0.1398(3) 0.10937(13) 0.1548(2)
H27 H 0.2043 0.0862 0.2002
C30 C 0.1907(3) 0.12001(13) 0.0759(2)
C31 C 0.2441(3) 0.12642(13) 0.0171(2)
C32 C 0.3210(3) 0.13093(13) -0.0470(2)
C33 C 0.3645(3) 0.18378(13) -0.0666(2)
H28 H 0.3336 0.2172 -0.0452
C34 C 0.4541(3) 0.18651(13) -0.1183(2)
C35 C 0.4987(3) 0.13738(14) -0.1501(2)
C36 C 0.4501(3) 0.08557(14) -0.1328(2)
C37 C 0.3601(3) 0.08237(14) -0.0819(2)
H29 H 0.3256 0.0469 -0.0712
C38 C 0.4730(3) 0.28630(14) -0.0993(2)
H30 H 0.3793 0.2926 -0.1236
H31 H 0.5208 0.3182 -0.1155
H32 H 0.4943 0.2829 -0.0330
C39 C 0.5782(4) 0.15915(16) -0.2775(2)
H33 H 0.4968 0.1434 -0.3156
H34 H 0.6504 0.1483 -0.3024
H35 H 0.5717 0.2003 -0.2766
C40 C 0.4524(4) -0.01423(15) -0.1518(3)
H36 H 0.4903 -0.0427 -0.1834
H37 H 0.3573 -0.0151 -0.1749
H38 H 0.4772 -0.0223 -0.0865
loop_
_geom_bond_atom_site_label_1
_geom_bond_atom_site_label_2
_geom_bond_site_symmetry_1
_geom_bond_site_symmetry_2
S1 C1 1_555 1_555
O1 C7 1_555 1_555
O2 C7 1_555 1_555
O3 C14 1_555 1_555
O4 C15 1_555 1_555
O5 C16 1_555 1_555
N1 C6 1_555 1_555
C1 C2 1_555 1_555
C2 H1 1_555 1_555
C3 C2 1_555 1_555
H2 C3 1_555 1_555
C4 C3 1_555 1_555
H3 C4 1_555 1_555
C5 C4 1_555 1_555
H4 C5 1_555 1_555
C6 C1 1_555 1_555
C7 N1 1_555 1_555
C8 O2 1_555 1_555
H5 C8 1_555 1_555
H6 C8 1_555 1_555
H7 C8 1_555 1_555
C9 S1 1_555 1_555
H8 C9 1_555 1_555
C10 C9 1_555 1_555
C11 C10 1_555 1_555
C12 C11 1_555 1_555
C13 C12 1_555 1_555
H9 C13 1_555 1_555
C14 C13 1_555 1_555
C15 C14 1_555 1_555
C16 C15 1_555 1_555
C17 C12 1_555 1_555
H10 C17 1_555 1_555
C18 O3 1_555 1_555
H11 C18 1_555 1_555
H12 C18 1_555 1_555
H13 C18 1_555 1_555
C19 O4 1_555 1_555
H14 C19 1_555 1_555
H15 C19 1_555 1_555
H16 C19 1_555 1_555
C20 O5 1_555 1_555
H17 C20 1_555 1_555
H18 C20 1_555 1_555
H19 C20 1_555 1_555
S2 C21 1_555 1_555
O6 C27 1_555 1_555
O7 C27 1_555 1_555
O8 C34 1_555 1_555
O9 C35 1_555 1_555
O10 C36 1_555 1_555
N2 C26 1_555 1_555
C21 C22 1_555 1_555
C22 H20 1_555 1_555
C23 C22 1_555 1_555
H21 C23 1_555 1_555
C24 C23 1_555 1_555
H22 C24 1_555 1_555
C25 C24 1_555 1_555
H23 C25 1_555 1_555
C26 C21 1_555 1_555
C27 N2 1_555 1_555
C28 O7 1_555 1_555
H24 C28 1_555 1_555
H25 C28 1_555 1_555
H26 C28 1_555 1_555
C29 S2 1_555 1_555
H27 C29 1_555 1_555
C30 C29 1_555 1_555
C31 C30 1_555 1_555
C32 C31 1_555 1_555
C33 C32 1_555 1_555
H28 C33 1_555 1_555
C34 C33 1_555 1_555
C35 C34 1_555 1_555
C36 C35 1_555 1_555
C37 C32 1_555 1_555
H29 C37 1_555 1_555
C38 O8 1_555 1_555
H30 C38 1_555 1_555
H31 C38 1_555 1_555
H32 C38 1_555 1_555
C39 O9 1_555 1_555
H33 C39 1_555 1_555
H34 C39 1_555 1_555
H35 C39 1_555 1_555
C40 O10 1_555 1_555
H36 C40 1_555 1_555
H37 C40 1_555 1_555
H38 C40 1_555 1_555
N1 C9 1_555 1_555
C5 C6 1_555 1_555
C16 C17 1_555 1_555
N2 C29 1_555 1_555
C25 C26 1_555 1_555
C36 C37 1_555 1_555

#END
