
#######################################################################
#
#                 Cambridge Crystallographic Data Centre
#                                CCDC 
#
#######################################################################
#
# If this CIF has been generated from an entry in the Cambridge 
# Structural Database, then it will include bibliographic, chemical, 
# crystal, experimental, refinement or atomic coordinate data resulting 
# from the CCDC's data processing and validation procedures.
#
#######################################################################

data_FAFCOH
_chemical_name_common            
N'-(2-fluorobenzylidene)pyrazine-2-carbohydrazide
_chemical_formula_moiety         'C12 H9 F1 N4 O1'
_chemical_name_systematic        
'2-Fluorobenzaldehyde (pyrazin-2-ylcarbonyl)hydrazone'
_symmetry_cell_setting           monoclinic
_symmetry_space_group_name_H-M   'P 21/c'
_symmetry_Int_Tables_number      14
_space_group_name_Hall           '-P 2ybc'
loop_
_symmetry_equiv_pos_site_id
_symmetry_equiv_pos_as_xyz
1 x,y,z
2 -x,1/2+y,1/2-z
3 -x,-y,-z
4 x,1/2-y,1/2+z
_cell_length_a                   5.3475(6)
_cell_length_b                   29.760(4)
_cell_length_c                   7.2006(6)
_cell_angle_alpha                90
_cell_angle_beta                 110.259(6)
_cell_angle_gamma                90
_cell_volume                     1075.03
_exptl_crystal_colour            colorless
_exptl_crystal_description       slab
_cell_formula_units_Z            4
loop_
_atom_site_label
_atom_site_type_symbol
_atom_site_fract_x
_atom_site_fract_y
_atom_site_fract_z
F1 F 0.8919(4) 0.70134(8) 0.3630(3)
O1 O 0.0627(5) 0.58556(9) 0.6988(4)
N1 N 0.3920(7) 0.52201(11) 1.2421(5)
N2 N 0.6978(6) 0.57426(11) 1.0732(4)
N3 N 0.4753(6) 0.60183(11) 0.6911(4)
H1 H 0.6484 0.5990 0.7510
N4 N 0.3754(6) 0.62366(10) 0.5086(4)
C1 C 0.4394(7) 0.56525(13) 0.9780(5)
C2 C 0.2894(7) 0.54016(13) 1.0607(5)
H2 H 0.1061 0.5355 0.9867
C3 C 0.6481(8) 0.53175(13) 1.3398(6)
H3 H 0.7291 0.5208 1.4711
C4 C 0.7999(8) 0.55711(14) 1.2573(6)
H4 H 0.9818 0.5626 1.3328
C5 C 0.3067(7) 0.58528(13) 0.7747(5)
C6 C 0.5511(7) 0.64262(13) 0.4518(5)
H5 H 0.7341 0.6412 0.5324
C7 C 0.4700(7) 0.66647(13) 0.2624(5)
C8 C 0.6470(8) 0.69522(13) 0.2220(6)
C9 C 0.5865(8) 0.71920(14) 0.0476(6)
H6 H 0.7148 0.7387 0.0264
C10 C 0.3379(9) 0.71448(15) -0.0950(6)
H7 H 0.2927 0.7307 -0.2158
C11 C 0.1536(9) 0.68570(14) -0.0604(6)
H8 H -0.0182 0.6823 -0.1584
C12 C 0.2186(7) 0.66181(13) 0.1168(5)
H9 H 0.0911 0.6423 0.1384
loop_
_geom_bond_atom_site_label_1
_geom_bond_atom_site_label_2
_geom_bond_site_symmetry_1
_geom_bond_site_symmetry_2
F1 C8 1_555 1_555
O1 C5 1_555 1_555
N1 C2 1_555 1_555
N2 C1 1_555 1_555
N3 H1 1_555 1_555
N4 N3 1_555 1_555
C1 C2 1_555 1_555
C2 H2 1_555 1_555
C3 N1 1_555 1_555
H3 C3 1_555 1_555
C4 N2 1_555 1_555
H4 C4 1_555 1_555
C5 N3 1_555 1_555
C6 N4 1_555 1_555
H5 C6 1_555 1_555
C7 C6 1_555 1_555
C8 C7 1_555 1_555
C9 C8 1_555 1_555
H6 C9 1_555 1_555
C10 C9 1_555 1_555
H7 C10 1_555 1_555
C11 C10 1_555 1_555
H8 C11 1_555 1_555
C12 C7 1_555 1_555
H9 C12 1_555 1_555
C1 C5 1_555 1_555
C3 C4 1_555 1_555
C11 C12 1_555 1_555

#END
