
#######################################################################
#
#                 Cambridge Crystallographic Data Centre
#                                CCDC 
#
#######################################################################
#
# If this CIF has been generated from an entry in the Cambridge 
# Structural Database, then it will include bibliographic, chemical, 
# crystal, experimental, refinement or atomic coordinate data resulting 
# from the CCDC's data processing and validation procedures.
#
#######################################################################

data_FAFDAS01
_chemical_formula_moiety         'C7 H8 O2'
_chemical_name_systematic        5-Oxatricyclo[5.1.0.0^1,3^]octane-4-one
_symmetry_cell_setting           orthorhombic
_symmetry_space_group_name_H-M   'P 21 21 21'
_symmetry_Int_Tables_number      19
_space_group_name_Hall           'P 2ac 2ab'
loop_
_symmetry_equiv_pos_site_id
_symmetry_equiv_pos_as_xyz
1 x,y,z
2 1/2-x,-y,1/2+z
3 -x,1/2+y,1/2-z
4 1/2+x,1/2-y,-z
_cell_length_a                   9.9644(8)
_cell_length_b                   8.1854(7)
_cell_length_c                   7.4422(6)
_cell_angle_alpha                90
_cell_angle_beta                 90
_cell_angle_gamma                90
_cell_volume                     607.005
_exptl_crystal_colour            colorless
_exptl_crystal_description       plate
_chemical_melting_point          42-43deg.C
_cell_formula_units_Z            4
_exptl_crystal_preparation       'part of a composite crystal with FAFDAT'
loop_
_atom_site_label
_atom_site_type_symbol
_atom_site_fract_x
_atom_site_fract_y
_atom_site_fract_z
O1 O 0.21905(11) -0.15125(12) 0.26290(18)
O2 O 0.38301(9) 0.02799(12) 0.25365(16)
C1 C 0.34883(14) 0.32494(17) 0.2517(2)
C2 C 0.26266(16) 0.42739(19) 0.1214(2)
C3 C 0.15590(15) 0.12333(19) 0.1939(2)
C4 C 0.09789(14) 0.2307(2) 0.3476(2)
C5 C 0.20336(14) 0.29164(17) 0.2272(2)
C6 C 0.43111(15) 0.18587(19) 0.1806(2)
C7 C 0.25171(13) -0.01082(17) 0.23866(19)
H1 H 0.382(2) 0.378(2) 0.365(3)
H2 H 0.2750(19) 0.401(3) -0.013(3)
H3 H 0.2432(19) 0.536(3) 0.165(3)
H4 H 0.0930(16) 0.098(2) 0.090(2)
H5 H 0.125(2) 0.205(3) 0.476(3)
H6 H 0.0041(14) 0.262(2) 0.332(3)
H7 H 0.5222(16) 0.196(2) 0.208(2)
H8 H 0.4208(15) 0.175(3) 0.050(2)
loop_
_geom_bond_atom_site_label_1
_geom_bond_atom_site_label_2
_geom_bond_site_symmetry_1
_geom_bond_site_symmetry_2
O1 C7 1_555 1_555
O2 C6 1_555 1_555
C1 C2 1_555 1_555
C2 C5 1_555 1_555
C3 C4 1_555 1_555
C4 C5 1_555 1_555
C5 C1 1_555 1_555
C6 C1 1_555 1_555
C7 O2 1_555 1_555
H1 C1 1_555 1_555
H2 C2 1_555 1_555
H3 C2 1_555 1_555
H4 C3 1_555 1_555
H5 C4 1_555 1_555
H6 C4 1_555 1_555
H7 C6 1_555 1_555
H8 C6 1_555 1_555
C3 C5 1_555 1_555
C3 C7 1_555 1_555

#END
