
#######################################################################
#
#                 Cambridge Crystallographic Data Centre
#                                CCDC 
#
#######################################################################
#
# If this CIF has been generated from an entry in the Cambridge 
# Structural Database, then it will include bibliographic, chemical, 
# crystal, experimental, refinement or atomic coordinate data resulting 
# from the CCDC's data processing and validation procedures.
#
#######################################################################

data_FAFDEW
_chemical_formula_moiety         'C10 H12 O2'
_chemical_name_systematic        
'(1RS,3SR,4SR)-Trispiro(2.0.0.2.1.1)nonane-1-carboxylic acid'
_symmetry_cell_setting           monoclinic
_symmetry_space_group_name_H-M   'P 21/c'
_symmetry_Int_Tables_number      14
_space_group_name_Hall           '-P 2ybc'
loop_
_symmetry_equiv_pos_site_id
_symmetry_equiv_pos_as_xyz
1 x,y,z
2 x,1/2-y,1/2+z
3 -x,-y,-z
4 -x,1/2+y,1/2-z
_cell_length_a                   6.7097(4)
_cell_length_b                   9.5859(5)
_cell_length_c                   14.0695(8)
_cell_angle_alpha                90
_cell_angle_beta                 95.508(2)
_cell_angle_gamma                90
_cell_volume                     900.751
_exptl_crystal_colour            colorless
_exptl_crystal_description       prism
_chemical_melting_point          89-91deg.C
_cell_formula_units_Z            4
loop_
_atom_site_label
_atom_site_type_symbol
_atom_site_fract_x
_atom_site_fract_y
_atom_site_fract_z
O1 O 0.23573(11) 0.97321(9) 0.01867(5)
O2 O 0.00106(12) 0.86628(9) 0.09600(6)
C1 C 0.33692(16) 0.80981(11) 0.14107(7)
C2 C 0.54357(15) 0.78626(11) 0.10354(7)
C3 C 0.52205(15) 0.88784(10) 0.17966(7)
C4 C 0.57105(17) 1.03907(11) 0.19788(7)
C5 C 0.62204(16) 0.92811(11) 0.27264(7)
C6 C 0.60040(18) 0.90482(13) 0.37731(8)
C7 C 0.79563(16) 0.88045(11) 0.33483(7)
C8 C 0.94537(18) 0.76670(13) 0.33341(9)
C9 C 1.0103(2) 0.91737(15) 0.35555(10)
C10 C 0.18899(15) 0.89050(11) 0.07908(7)
H1 H -0.077(3) 0.9191(17) 0.0568(12)
H2 H 0.2829(19) 0.7383(14) 0.1789(9)
H3 H 0.608(2) 0.6977(14) 0.1230(9)
H4 H 0.5605(19) 0.8230(14) 0.0405(10)
H5 H 0.461(2) 1.1051(14) 0.2088(10)
H6 H 0.678(2) 1.0805(14) 0.1647(10)
H7 H 0.525(2) 0.8247(16) 0.3962(10)
H8 H 0.589(2) 0.9910(15) 0.4182(10)
H9 H 0.970(2) 0.7285(14) 0.2694(10)
H10 H 0.957(2) 0.7023(17) 0.3866(11)
H11 H 1.078(2) 0.9683(17) 0.3063(12)
H12 H 1.057(3) 0.9379(17) 0.4202(12)
loop_
_geom_bond_atom_site_label_1
_geom_bond_atom_site_label_2
_geom_bond_site_symmetry_1
_geom_bond_site_symmetry_2
O1 C10 1_555 1_555
O2 C10 1_555 1_555
C1 C2 1_555 1_555
C2 C3 1_555 1_555
C3 C1 1_555 1_555
C4 C3 1_555 1_555
C5 C3 1_555 1_555
C6 C5 1_555 1_555
C7 C5 1_555 1_555
C8 C7 1_555 1_555
C9 C7 1_555 1_555
C10 C1 1_555 1_555
H1 O2 1_555 1_555
H2 C1 1_555 1_555
H3 C2 1_555 1_555
H4 C2 1_555 1_555
H5 C4 1_555 1_555
H6 C4 1_555 1_555
H7 C6 1_555 1_555
H8 C6 1_555 1_555
H9 C8 1_555 1_555
H10 C8 1_555 1_555
H11 C9 1_555 1_555
H12 C9 1_555 1_555
C4 C5 1_555 1_555
C6 C7 1_555 1_555
C8 C9 1_555 1_555

#END
