
#######################################################################
#
#                 Cambridge Crystallographic Data Centre
#                                CCDC 
#
#######################################################################
#
# If this CIF has been generated from an entry in the Cambridge 
# Structural Database, then it will include bibliographic, chemical, 
# crystal, experimental, refinement or atomic coordinate data resulting 
# from the CCDC's data processing and validation procedures.
#
#######################################################################

data_FAFSUB
_chemical_formula_moiety         'C15 H15 N1 O3'
_chemical_name_systematic        
5-Amido-3a-hydroxy-4-phenyl-3,3a,6,6a-tetrahydro-2H-pentalen-1-one
_symmetry_cell_setting           orthorhombic
_symmetry_space_group_name_H-M   'P b c a'
_symmetry_Int_Tables_number      61
_space_group_name_Hall           '-P 2ac 2ab'
loop_
_symmetry_equiv_pos_site_id
_symmetry_equiv_pos_as_xyz
1 x,y,z
2 1/2-x,1/2+y,z
3 x,1/2-y,1/2+z
4 1/2+x,y,1/2-z
5 -x,-y,-z
6 1/2+x,1/2-y,-z
7 -x,1/2+y,1/2-z
8 1/2-x,-y,1/2+z
_cell_length_a                   9.498(1)
_cell_length_b                   22.50
_cell_length_c                   23.48
_cell_angle_alpha                90
_cell_angle_beta                 90
_cell_angle_gamma                90
_cell_volume                     5017.79
_exptl_crystal_colour            colorless
_exptl_crystal_description       rhombic
_cell_formula_units_Z            16
_exptl_crystal_recrystallization_method dichloromethane/pentane
loop_
_atom_site_label
_atom_site_type_symbol
_atom_site_fract_x
_atom_site_fract_y
_atom_site_fract_z
O1 O 0.579 0.225 0.5120(1)
O2 O 1.130 0.204 0.360
O3 O 0.647 0.179 0.312
N1 N 0.799 0.255 0.534
C1 C 0.698 0.245 0.391
C2 C 0.752 0.221 0.438
C3 C 0.861 0.174 0.426
C4 C 1.009 0.215 0.346
C5 C 0.965 0.268 0.311
C6 C 0.815 0.255 0.292
C7 C 0.755 0.214 0.338
C8 C 0.880 0.178 0.362
C9 C 0.593 0.293 0.389
C10 C 0.605 0.343 0.425
C11 C 0.505 0.388 0.424
C12 C 0.392 0.385 0.387
C13 C 0.377 0.336 0.352
C14 C 0.478 0.291 0.352
C15 C 0.703 0.234 0.498
H1 H 0.947 0.182 0.446
H2 H 0.827 0.136 0.438
H3 H 0.886 0.140 0.344
H4 H 0.967 0.303 0.334
H5 H 1.027 0.273 0.280
H6 H 0.760 0.290 0.289
H7 H 0.815 0.235 0.256
H8 H 0.683 0.346 0.450
H9 H 0.514 0.422 0.448
H10 H 0.323 0.415 0.387
H11 H 0.299 0.334 0.327
H12 H 0.469 0.258 0.327
H13 H 0.889 0.260 0.523
H14 H 0.774 0.263 0.570
H15 H 0.60 0.16 0.34
O4 O 0.353 -0.075 0.515
O5 O 0.019 0.050 0.393
O6 O 0.493 0.122 0.397
N2 N 0.474 -0.109 0.439
C16 C 0.438 0.016 0.393
C17 C 0.376 -0.008 0.439
C18 C 0.270 0.033 0.466
C19 C 0.136 0.065 0.379
C20 C 0.190 0.068 0.318
C21 C 0.338 0.093 0.322
C22 C 0.386 0.080 0.383
C23 C 0.254 0.081 0.420
C24 C 0.546 -0.012 0.356
C25 C 0.689 -0.003 0.363
C26 C 0.784 -0.034 0.329
C27 C 0.736 -0.074 0.288
C28 C 0.594 -0.081 0.280
C29 C 0.499 -0.050 0.313
C30 C 0.400 -0.067 0.466
H16 H 0.183 0.014 0.473
H17 H 0.305 0.049 0.501
H18 H 0.193 0.029 0.302
H19 H 0.130 0.092 0.296
H20 H 0.400 0.075 0.295
H21 H 0.336 0.135 0.316
H22 H 0.238 0.119 0.436
H23 H 0.722 0.023 0.391
H24 H 0.883 -0.028 0.333
H25 H 0.802 -0.097 0.267
H26 H 0.562 -0.107 0.251
H27 H 0.400 -0.054 0.307
H28 H 0.488 -0.144 0.456
H29 H 0.509 -0.101 0.404
H30 H 0.54 0.11 0.43
loop_
_geom_bond_atom_site_label_1
_geom_bond_atom_site_label_2
_geom_bond_site_symmetry_1
_geom_bond_site_symmetry_2
O1 C15 1_555 1_555
O2 C4 1_555 1_555
O3 C7 1_555 1_555
O4 C30 1_555 1_555
O5 C19 1_555 1_555
O6 C22 1_555 1_555
N1 C15 1_555 1_555
N2 C30 1_555 1_555
C1 C2 1_555 1_555
C2 C3 1_555 1_555
C3 C8 1_555 1_555
C4 C5 1_555 1_555
C5 C6 1_555 1_555
C6 C7 1_555 1_555
C7 C1 1_555 1_555
C8 C4 1_555 1_555
C9 C1 1_555 1_555
C10 C9 1_555 1_555
C11 C10 1_555 1_555
C12 C11 1_555 1_555
C13 C12 1_555 1_555
C14 C9 1_555 1_555
C15 C2 1_555 1_555
C16 C17 1_555 1_555
C17 C18 1_555 1_555
C18 C23 1_555 1_555
C19 C20 1_555 1_555
C20 C21 1_555 1_555
C21 C22 1_555 1_555
C22 C16 1_555 1_555
C23 C19 1_555 1_555
C24 C16 1_555 1_555
C25 C24 1_555 1_555
C26 C25 1_555 1_555
C27 C26 1_555 1_555
C28 C27 1_555 1_555
C29 C24 1_555 1_555
C30 C17 1_555 1_555
H1 C3 1_555 1_555
H2 C3 1_555 1_555
H3 C8 1_555 1_555
H4 C5 1_555 1_555
H5 C5 1_555 1_555
H6 C6 1_555 1_555
H7 C6 1_555 1_555
H8 C10 1_555 1_555
H9 C11 1_555 1_555
H10 C12 1_555 1_555
H11 C13 1_555 1_555
H12 C14 1_555 1_555
H13 N1 1_555 1_555
H14 N1 1_555 1_555
H15 O3 1_555 1_555
H16 C18 1_555 1_555
H17 C18 1_555 1_555
H18 C20 1_555 1_555
H19 C20 1_555 1_555
H20 C21 1_555 1_555
H21 C21 1_555 1_555
H22 C23 1_555 1_555
H23 C25 1_555 1_555
H24 C26 1_555 1_555
H25 C27 1_555 1_555
H26 C28 1_555 1_555
H27 C29 1_555 1_555
H28 N2 1_555 1_555
H29 N2 1_555 1_555
H30 O6 1_555 1_555
C7 C8 1_555 1_555
C13 C14 1_555 1_555
C22 C23 1_555 1_555
C28 C29 1_555 1_555

#END
