
#######################################################################
#
#                 Cambridge Crystallographic Data Centre
#                                CCDC 
#
#######################################################################
#
# If this CIF has been generated from an entry in the Cambridge 
# Structural Database, then it will include bibliographic, chemical, 
# crystal, experimental, refinement or atomic coordinate data resulting 
# from the CCDC's data processing and validation procedures.
#
#######################################################################

data_FAFTAI
_chemical_formula_moiety         'C14 H22 O4 Si1'
_chemical_name_systematic        
5-Ethoxycarbonyl-3a-hydroxy-4-trimethylsilyl-3,3a,6,6a-tetrahydro-2H-pentalen-1-one
_symmetry_cell_setting           monoclinic
_symmetry_space_group_name_H-M   'P 21/n'
_symmetry_Int_Tables_number      14
_space_group_name_Hall           '-P 2yn'
loop_
_symmetry_equiv_pos_site_id
_symmetry_equiv_pos_as_xyz
1 x,y,z
2 1/2+x,1/2-y,1/2+z
3 -x,-y,-z
4 1/2-x,1/2+y,1/2-z
_cell_length_a                   8.470
_cell_length_b                   11.582(1)
_cell_length_c                   16.209(1)
_cell_angle_alpha                90
_cell_angle_beta                 103.09
_cell_angle_gamma                90
_cell_volume                     1548.78
_exptl_crystal_colour            colorless
_exptl_crystal_description       rhombic
_cell_formula_units_Z            4
_exptl_crystal_recrystallization_method dichloromethane/pentane
loop_
_atom_site_label
_atom_site_type_symbol
_atom_site_fract_x
_atom_site_fract_y
_atom_site_fract_z
Si1 Si 0.2214(1) 0.8149(1) 0.1358
O1 O 0.819 1.110 0.329
O2 O 0.614 0.842 0.1267(1)
O3 O 0.222 0.741 0.317
O4 O 0.367 0.837 0.4277(1)
C1 C 0.414 0.859 0.214
C2 C 0.448 0.852 0.299
C3 C 0.610 0.901 0.344
C4 C 0.741 1.057 0.269
C5 C 0.677 1.104 0.181
C6 C 0.525 1.034 0.146
C7 C 0.558 0.912 0.187
C8 C 0.688 0.932 0.270
C9 C 0.048 0.889 0.164
C10 C 0.207 0.654 0.130
C11 C 0.228 0.868 0.028
C12 C 0.334 0.804 0.347
C13 C 0.255 0.797 0.478
C14 C 0.105 0.868 0.462
H1 H 0.63 0.78 0.15
H2 H 0.597 0.967 0.376
H3 H 0.672 0.845 0.380
H4 H 0.652 1.184 0.184
H5 H 0.754 1.094 0.147
H6 H 0.434 1.068 0.162
H7 H 0.505 1.029 0.087
H8 H 0.778 0.883 0.271
H9 H 0.064 0.971 0.164
H10 H -0.049 0.871 0.124
H11 H 0.039 0.865 0.219
H12 H 0.202 0.624 0.183
H13 H 0.112 0.632 0.089
H14 H 0.299 0.624 0.113
H15 H 0.243 0.949 0.030
H16 H 0.315 0.832 0.010
H17 H 0.128 0.850 -0.010
H18 H 0.227 0.719 0.465
H19 H 0.307 0.803 0.537
H20 H 0.131 0.946 0.476
H21 H 0.052 0.862 0.403
H22 H 0.034 0.840 0.495
loop_
_geom_bond_atom_site_label_1
_geom_bond_atom_site_label_2
_geom_bond_site_symmetry_1
_geom_bond_site_symmetry_2
Si1 C1 1_555 1_555
O1 C4 1_555 1_555
O2 C7 1_555 1_555
O3 C12 1_555 1_555
O4 C12 1_555 1_555
C1 C2 1_555 1_555
C2 C3 1_555 1_555
C3 C8 1_555 1_555
C4 C5 1_555 1_555
C5 C6 1_555 1_555
C6 C7 1_555 1_555
C7 C1 1_555 1_555
C8 C4 1_555 1_555
C9 Si1 1_555 1_555
C10 Si1 1_555 1_555
C11 Si1 1_555 1_555
C12 C2 1_555 1_555
C13 O4 1_555 1_555
C14 C13 1_555 1_555
H1 O2 1_555 1_555
H2 C3 1_555 1_555
H3 C3 1_555 1_555
H4 C5 1_555 1_555
H5 C5 1_555 1_555
H6 C6 1_555 1_555
H7 C6 1_555 1_555
H8 C8 1_555 1_555
H9 C9 1_555 1_555
H10 C9 1_555 1_555
H11 C9 1_555 1_555
H12 C10 1_555 1_555
H13 C10 1_555 1_555
H14 C10 1_555 1_555
H15 C11 1_555 1_555
H16 C11 1_555 1_555
H17 C11 1_555 1_555
H18 C13 1_555 1_555
H19 C13 1_555 1_555
H20 C14 1_555 1_555
H21 C14 1_555 1_555
H22 C14 1_555 1_555
C7 C8 1_555 1_555

#END
