
#######################################################################
#
#                 Cambridge Crystallographic Data Centre
#                                CCDC 
#
#######################################################################
#
# If this CIF has been generated from an entry in the Cambridge 
# Structural Database, then it will include bibliographic, chemical, 
# crystal, experimental, refinement or atomic coordinate data resulting 
# from the CCDC's data processing and validation procedures.
#
#######################################################################

data_FAFTAK
_chemical_formula_moiety         'C22 H24 Br1 N1 O1 Si1'
_chemical_name_systematic        
7-bromo-11-((t-butyl(dimethyl)silyl)oxy)-11H-indeno[1,2-b]quinoline
_symmetry_cell_setting           monoclinic
_symmetry_space_group_name_H-M   'P 21/c'
_symmetry_Int_Tables_number      14
_space_group_name_Hall           '-P 2ybc'
loop_
_symmetry_equiv_pos_site_id
_symmetry_equiv_pos_as_xyz
1 x,y,z
2 -x,1/2+y,1/2-z
3 -x,-y,-z
4 x,1/2-y,1/2+z
_cell_length_a                   13.1569(12)
_cell_length_b                   11.6292(10)
_cell_length_c                   13.1867(12)
_cell_angle_alpha                90
_cell_angle_beta                 96.818(2)
_cell_angle_gamma                90
_cell_volume                     2003.35
_exptl_crystal_colour            colorless
_exptl_crystal_description       block
_cell_formula_units_Z            4
loop_
_atom_site_label
_atom_site_type_symbol
_atom_site_fract_x
_atom_site_fract_y
_atom_site_fract_z
Br1 Br 0.70245(2) 1.04650(2) 1.06122(2)
Si1 Si 0.16288(4) 0.61563(4) 0.78327(4)
O1 O 0.24482(9) 0.50694(10) 0.80005(9)
N1 N 0.46509(11) 0.68709(11) 1.06330(10)
C1 C 0.51352(12) 0.76146(14) 1.00379(12)
C2 C 0.57360(13) 0.85040(14) 1.05307(13)
H1 H 0.5802 0.8576 1.1253
C3 C 0.62226(13) 0.92626(14) 0.99543(13)
C4 C 0.61533(13) 0.91946(15) 0.88908(13)
H2 H 0.6505 0.9729 0.8514
C5 C 0.55677(14) 0.83407(15) 0.84029(13)
H3 H 0.5507 0.8293 0.7679
C6 C 0.50535(12) 0.75323(14) 0.89512(12)
C7 C 0.44474(13) 0.66416(15) 0.84635(13)
H4 H 0.4385 0.6552 0.7743
C8 C 0.39593(12) 0.59208(14) 0.90491(12)
C9 C 0.40864(12) 0.60719(14) 1.01326(12)
C10 C 0.34749(13) 0.51875(14) 1.05799(13)
C11 C 0.33367(13) 0.49694(15) 1.15913(13)
H5 H 0.3677 0.5418 1.2131
C12 C 0.26885(14) 0.40793(16) 1.17884(14)
H6 H 0.2578 0.3920 1.2474
C13 C 0.21947(14) 0.34125(15) 1.09992(15)
H7 H 0.1754 0.2806 1.1153
C14 C 0.23414(14) 0.36275(14) 0.99910(14)
H8 H 0.2007 0.3174 0.9452
C15 C 0.29860(13) 0.45175(14) 0.97904(13)
C16 C 0.32855(13) 0.48932(14) 0.87667(12)
H9 H 0.3725 0.4276 0.8521
C17 C 0.13724(16) 0.67846(16) 0.90708(14)
H10 H 0.1138 0.6179 0.9505
H11 H 0.0842 0.7377 0.8949
H12 H 0.2002 0.7129 0.9412
C18 C 0.21484(15) 0.72686(15) 0.70183(15)
H13 H 0.2719 0.7669 0.7414
H14 H 0.1609 0.7823 0.6789
H15 H 0.2390 0.6899 0.6423
C19 C 0.04500(14) 0.54752(14) 0.71378(14)
C20 C -0.00791(17) 0.47261(17) 0.78733(19)
H16 H -0.0682 0.4358 0.7502
H17 H -0.0291 0.5207 0.8421
H18 H 0.0397 0.4134 0.8168
C21 C 0.07619(17) 0.47208(18) 0.62707(18)
H19 H 0.1246 0.4131 0.6556
H20 H 0.1086 0.5200 0.5789
H21 H 0.0153 0.4350 0.5914
C22 C -0.03050(15) 0.63993(16) 0.66887(16)
H22 H -0.0925 0.6030 0.6353
H23 H 0.0013 0.6859 0.6188
H24 H -0.0485 0.6900 0.7238
loop_
_geom_bond_atom_site_label_1
_geom_bond_atom_site_label_2
_geom_bond_site_symmetry_1
_geom_bond_site_symmetry_2
Br1 C3 1_555 1_555
Si1 O1 1_555 1_555
O1 C16 1_555 1_555
N1 C1 1_555 1_555
C1 C2 1_555 1_555
C2 H1 1_555 1_555
C3 C2 1_555 1_555
C4 C3 1_555 1_555
H2 C4 1_555 1_555
C5 C4 1_555 1_555
H3 C5 1_555 1_555
C6 C1 1_555 1_555
C7 C6 1_555 1_555
H4 C7 1_555 1_555
C8 C7 1_555 1_555
C9 N1 1_555 1_555
C10 C9 1_555 1_555
C11 C10 1_555 1_555
H5 C11 1_555 1_555
C12 C11 1_555 1_555
H6 C12 1_555 1_555
C13 C12 1_555 1_555
H7 C13 1_555 1_555
C14 C13 1_555 1_555
H8 C14 1_555 1_555
C15 C10 1_555 1_555
C16 C8 1_555 1_555
H9 C16 1_555 1_555
C17 Si1 1_555 1_555
H10 C17 1_555 1_555
H11 C17 1_555 1_555
H12 C17 1_555 1_555
C18 Si1 1_555 1_555
H13 C18 1_555 1_555
H14 C18 1_555 1_555
H15 C18 1_555 1_555
C19 Si1 1_555 1_555
C20 C19 1_555 1_555
H16 C20 1_555 1_555
H17 C20 1_555 1_555
H18 C20 1_555 1_555
C21 C19 1_555 1_555
H19 C21 1_555 1_555
H20 C21 1_555 1_555
H21 C21 1_555 1_555
C22 C19 1_555 1_555
H22 C22 1_555 1_555
H23 C22 1_555 1_555
H24 C22 1_555 1_555
C5 C6 1_555 1_555
C8 C9 1_555 1_555
C14 C15 1_555 1_555
C15 C16 1_555 1_555

#END
