
#######################################################################
#
#                 Cambridge Crystallographic Data Centre
#                                CCDC 
#
#######################################################################
#
# If this CIF has been generated from an entry in the Cambridge 
# Structural Database, then it will include bibliographic, chemical, 
# crystal, experimental, refinement or atomic coordinate data resulting 
# from the CCDC's data processing and validation procedures.
#
#######################################################################

data_FAFTOY
_chemical_formula_moiety         'C17 H13 N1 O1'
_chemical_name_systematic        1-phenyl-1,3-dihydrofuro[3,4-b]quinoline
_symmetry_cell_setting           monoclinic
_symmetry_space_group_name_H-M   'P 21/c'
_symmetry_Int_Tables_number      14
_space_group_name_Hall           '-P 2ybc'
loop_
_symmetry_equiv_pos_site_id
_symmetry_equiv_pos_as_xyz
1 x,y,z
2 -x,1/2+y,1/2-z
3 -x,-y,-z
4 x,1/2-y,1/2+z
_cell_length_a                   5.8567(13)
_cell_length_b                   23.328(5)
_cell_length_c                   9.050(2)
_cell_angle_alpha                90
_cell_angle_beta                 94.003(4)
_cell_angle_gamma                90
_cell_volume                     1233.44
_exptl_crystal_colour            colorless
_exptl_crystal_description       block
_cell_formula_units_Z            4
loop_
_atom_site_label
_atom_site_type_symbol
_atom_site_fract_x
_atom_site_fract_y
_atom_site_fract_z
O1 O 0.1880(2) 0.43881(5) 0.39368(13)
N1 N -0.2132(2) 0.45662(5) 0.07894(14)
C1 C -0.2097(3) 0.43008(6) -0.05663(17)
C2 C -0.3968(3) 0.43883(7) -0.16140(18)
H1 H -0.5185 0.4634 -0.1380
C3 C -0.4040(3) 0.41210(7) -0.29645(18)
H2 H -0.5306 0.4183 -0.3661
C4 C -0.2245(3) 0.37551(7) -0.33249(18)
H3 H -0.2320 0.3566 -0.4257
C5 C -0.0398(3) 0.36709(7) -0.23402(18)
H4 H 0.0815 0.3430 -0.2604
C6 C -0.0267(3) 0.39374(6) -0.09369(16)
C7 C 0.1605(3) 0.38566(6) 0.01291(17)
H5 H 0.2869 0.3623 -0.0082
C8 C 0.1534(3) 0.41234(6) 0.14576(17)
C9 C -0.0369(3) 0.44661(6) 0.17291(17)
C10 C -0.0066(3) 0.46900(7) 0.32814(18)
H6 H 0.0218 0.5108 0.3284
H7 H -0.1442 0.4612 0.3825
C11 C 0.3173(3) 0.41291(7) 0.28126(17)
H8 H 0.4514 0.4378 0.2627
C12 C 0.4006(3) 0.35416(7) 0.32918(17)
C13 C 0.5961(3) 0.33178(7) 0.27264(18)
H9 H 0.6795 0.3542 0.2073
C14 C 0.6710(3) 0.27685(7) 0.3107(2)
H10 H 0.8036 0.2617 0.2702
C15 C 0.5529(3) 0.24437(7) 0.4071(2)
H11 H 0.6043 0.2069 0.4337
C16 C 0.3590(3) 0.26661(8) 0.4651(2)
H12 H 0.2787 0.2445 0.5328
C17 C 0.2813(3) 0.32092(7) 0.42502(19)
H13 H 0.1458 0.3355 0.4633
loop_
_geom_bond_atom_site_label_1
_geom_bond_atom_site_label_2
_geom_bond_site_symmetry_1
_geom_bond_site_symmetry_2
O1 C10 1_555 1_555
N1 C1 1_555 1_555
C1 C2 1_555 1_555
C2 H1 1_555 1_555
C3 C2 1_555 1_555
H2 C3 1_555 1_555
C4 C3 1_555 1_555
H3 C4 1_555 1_555
C5 C4 1_555 1_555
H4 C5 1_555 1_555
C6 C1 1_555 1_555
C7 C6 1_555 1_555
H5 C7 1_555 1_555
C8 C7 1_555 1_555
C9 N1 1_555 1_555
C10 C9 1_555 1_555
H6 C10 1_555 1_555
H7 C10 1_555 1_555
C11 O1 1_555 1_555
H8 C11 1_555 1_555
C12 C11 1_555 1_555
C13 C12 1_555 1_555
H9 C13 1_555 1_555
C14 C13 1_555 1_555
H10 C14 1_555 1_555
C15 C14 1_555 1_555
H11 C15 1_555 1_555
C16 C15 1_555 1_555
H12 C16 1_555 1_555
C17 C12 1_555 1_555
H13 C17 1_555 1_555
C5 C6 1_555 1_555
C8 C9 1_555 1_555
C8 C11 1_555 1_555
C16 C17 1_555 1_555

#END
