
#######################################################################
#
#                 Cambridge Crystallographic Data Centre
#                                CCDC 
#
#######################################################################
#
# If this CIF has been generated from an entry in the Cambridge 
# Structural Database, then it will include bibliographic, chemical, 
# crystal, experimental, refinement or atomic coordinate data resulting 
# from the CCDC's data processing and validation procedures.
#
#######################################################################

data_FAGBIA
_chemical_formula_moiety         'C19 H18 Br1 N1 O3'
_chemical_name_systematic        
2-(1-(4-Bromophenyl)-2-nitroethyl)-2-phenylcyclopentanone
_symmetry_cell_setting           orthorhombic
_symmetry_space_group_name_H-M   'P 21 21 21'
_symmetry_Int_Tables_number      19
_space_group_name_Hall           'P 2ac 2ab'
loop_
_symmetry_equiv_pos_site_id
_symmetry_equiv_pos_as_xyz
1 x,y,z
2 1/2-x,-y,1/2+z
3 -x,1/2+y,1/2-z
4 1/2+x,1/2-y,-z
_cell_length_a                   8.367(4)
_cell_length_b                   13.132(6)
_cell_length_c                   16.078(8)
_cell_angle_alpha                90
_cell_angle_beta                 90
_cell_angle_gamma                90
_cell_volume                     1766.58
_exptl_crystal_colour            colorless
_exptl_crystal_description       block
_cell_formula_units_Z            4
loop_
_atom_site_label
_atom_site_type_symbol
_atom_site_fract_x
_atom_site_fract_y
_atom_site_fract_z
Br1 Br 0.03099(6) 0.28881(3) -0.02365(2)
C1 C 0.1433(4) 0.3173(2) 0.07625(17)
C2 C 0.2087(4) 0.4122(2) 0.0887(2)
H1 H 0.2000 0.4624 0.0482
C3 C 0.2874(4) 0.4314(2) 0.16248(19)
H2 H 0.3334 0.4950 0.1707
C4 C 0.3000(3) 0.3594(2) 0.22418(17)
C5 C 0.2324(4) 0.2645(2) 0.20890(17)
H3 H 0.2398 0.2141 0.2494
C6 C 0.1547(4) 0.2431(2) 0.13530(18)
H4 H 0.1108 0.1791 0.1261
C7 C 0.3764(3) 0.3797(2) 0.30814(18)
H5 H 0.3298 0.3306 0.3471
C8 C 0.5596(3) 0.3659(2) 0.31285(18)
C9 C 0.6556(4) 0.4328(2) 0.2531(2)
H6 H 0.5997 0.4405 0.2007
H7 H 0.6732 0.4997 0.2769
C10 C 0.8129(4) 0.3779(3) 0.2405(3)
H8 H 0.8858 0.3913 0.2861
H9 H 0.8631 0.3985 0.1888
C11 C 0.7653(5) 0.2663(3) 0.2380(3)
H10 H 0.7519 0.2438 0.1809
H11 H 0.8467 0.2246 0.2641
C12 C 0.6114(4) 0.2581(2) 0.28417(19)
C13 C 0.6127(4) 0.3748(2) 0.40414(19)
C14 C 0.7111(5) 0.4514(3) 0.4326(2)
H12 H 0.7551 0.4971 0.3948
C15 C 0.7457(6) 0.4614(4) 0.5160(3)
H13 H 0.8118 0.5140 0.5337
C16 C 0.6846(7) 0.3957(4) 0.5726(3)
H14 H 0.7066 0.4039 0.6289
C17 C 0.5910(7) 0.3176(4) 0.5462(3)
H15 H 0.5510 0.2711 0.5846
C18 C 0.5546(5) 0.3067(3) 0.4627(2)
H16 H 0.4902 0.2529 0.4457
C19 C 0.3357(4) 0.4855(2) 0.3414(2)
H17 H 0.3972 0.4988 0.3914
H18 H 0.3640 0.5365 0.3003
N1 N 0.1638(4) 0.4925(2) 0.3603(2)
O1 O 0.5378(3) 0.18117(15) 0.29601(16)
O2 O 0.1114(4) 0.4411(4) 0.4147(3)
O3 O 0.0817(4) 0.5471(2) 0.3174(3)
loop_
_geom_bond_atom_site_label_1
_geom_bond_atom_site_label_2
_geom_bond_site_symmetry_1
_geom_bond_site_symmetry_2
Br1 C1 1_555 1_555
C1 C2 1_555 1_555
C2 H1 1_555 1_555
C3 C2 1_555 1_555
H2 C3 1_555 1_555
C4 C3 1_555 1_555
C5 C4 1_555 1_555
H3 C5 1_555 1_555
C6 C1 1_555 1_555
H4 C6 1_555 1_555
C7 C4 1_555 1_555
H5 C7 1_555 1_555
C8 C7 1_555 1_555
C9 C8 1_555 1_555
H6 C9 1_555 1_555
H7 C9 1_555 1_555
C10 C9 1_555 1_555
H8 C10 1_555 1_555
H9 C10 1_555 1_555
C11 C10 1_555 1_555
H10 C11 1_555 1_555
H11 C11 1_555 1_555
C12 C8 1_555 1_555
C13 C8 1_555 1_555
C14 C13 1_555 1_555
H12 C14 1_555 1_555
C15 C14 1_555 1_555
H13 C15 1_555 1_555
C16 C15 1_555 1_555
H14 C16 1_555 1_555
C17 C16 1_555 1_555
H15 C17 1_555 1_555
C18 C13 1_555 1_555
H16 C18 1_555 1_555
C19 C7 1_555 1_555
H17 C19 1_555 1_555
H18 C19 1_555 1_555
N1 C19 1_555 1_555
O1 C12 1_555 1_555
O2 N1 1_555 1_555
O3 N1 1_555 1_555
C5 C6 1_555 1_555
C11 C12 1_555 1_555
C17 C18 1_555 1_555

#END
