
#######################################################################
#
#                 Cambridge Crystallographic Data Centre
#                                CCDC 
#
#######################################################################
#
# If this CIF has been generated from an entry in the Cambridge 
# Structural Database, then it will include bibliographic, chemical, 
# crystal, experimental, refinement or atomic coordinate data resulting 
# from the CCDC's data processing and validation procedures.
#
#######################################################################

data_FAGGAY
_chemical_formula_moiety         'C36 H24 N2 O2 S3'
_chemical_name_systematic        
10-(4-((4-(10H-phenothiazin-10-yl)phenyl)sulfonyl)phenyl)-10H-phenothiazine
_symmetry_cell_setting           monoclinic
_symmetry_space_group_name_H-M   'P 21/n'
_symmetry_Int_Tables_number      14
_space_group_name_Hall           '-P 2yn'
loop_
_symmetry_equiv_pos_site_id
_symmetry_equiv_pos_as_xyz
1 x,y,z
2 1/2-x,1/2+y,1/2-z
3 -x,-y,-z
4 1/2+x,1/2-y,1/2+z
_cell_length_a                   8.1912(3)
_cell_length_b                   20.1704(6)
_cell_length_c                   18.0457(6)
_cell_angle_alpha                90
_cell_angle_beta                 97.807(3)
_cell_angle_gamma                90
_cell_volume                     2953.87
_exptl_crystal_colour            colorless
_exptl_crystal_description       block
_cell_formula_units_Z            4
loop_
_atom_site_label
_atom_site_type_symbol
_atom_site_fract_x
_atom_site_fract_y
_atom_site_fract_z
C1 C -0.3360(4) 0.74285(12) 0.80752(14)
H1 H -0.4102 0.7145 0.8262
S1 S 0.17336(6) 1.07941(3) 0.62662(3)
S2 S -0.60703(8) 0.80906(3) 0.73888(3)
S3 S 0.94728(8) 1.12094(3) 0.86841(3)
O1 O 0.1072(2) 1.14558(8) 0.61744(9)
N1 N -0.3451(2) 0.88511(9) 0.67571(9)
O2 O 0.2676(2) 1.05361(9) 0.57150(9)
C2 C 0.2930(3) 1.07555(10) 0.71495(12)
C3 C 0.6844(3) 1.13235(10) 0.94582(11)
N2 N 0.6302(2) 1.07049(9) 0.91205(11)
C4 C -0.2276(3) 0.93338(11) 0.65729(11)
C5 C 0.4661(3) 1.01356(10) 0.80769(12)
H2 H 0.5081 0.9731 0.8262
C6 C -0.1019(3) 1.03965(11) 0.68244(11)
H3 H -0.0972 1.0804 0.7067
C7 C 0.3604(3) 1.01563(11) 0.74156(12)
H4 H 0.3342 0.9768 0.7147
C8 C -0.1194(3) 0.91923(11) 0.60667(12)
H5 H -0.1281 0.8795 0.5803
C9 C 0.4356(3) 1.13122(11) 0.82163(14)
H6 H 0.4593 1.1700 0.8488
C10 C -0.2205(3) 0.99390(11) 0.69404(12)
H7 H -0.2960 1.0036 0.7266
C11 C -0.6151(3) 0.83400(11) 0.64463(13)
C12 C 0.0020(3) 0.96464(11) 0.59554(12)
H8 H 0.0769 0.9553 0.5626
C13 C -0.4882(3) 0.87318(11) 0.62394(12)
C14 C 0.5108(3) 1.07201(10) 0.84738(12)
C15 C 0.8802(3) 1.22162(11) 0.96206(13)
H9 H 0.9775 1.2410 0.9516
C16 C 0.6447(3) 1.22327(12) 1.02703(13)
H10 H 0.5828 1.2440 1.0599
C17 C 0.3263(3) 1.13288(11) 0.75621(13)
H11 H 0.2752 1.1725 0.7400
C18 C 0.5941(3) 1.16328(11) 0.99543(14)
H12 H 0.4987 1.1434 1.0075
C19 C 0.8287(3) 1.16128(10) 0.92927(11)
C20 C 0.0103(2) 1.02408(10) 0.63405(11)
C21 C -0.6463(3) 0.88533(12) 0.50176(13)
H13 H -0.6586 0.9040 0.4542
C22 C -0.5069(3) 0.90004(12) 0.55180(12)
H14 H -0.4260 0.9277 0.5374
C23 C 0.9958(4) 0.92485(14) 0.91051(15)
H15 H 1.0741 0.8920 0.9072
C24 C -0.2830(3) 0.83473(11) 0.72734(11)
C25 C 0.7870(3) 1.25273(11) 1.01003(13)
H16 H 0.8202 1.2935 1.0309
C26 C 0.7309(4) 0.95709(12) 0.93768(17)
H17 H 0.6326 0.9466 0.9554
C27 C -0.7670(3) 0.84352(13) 0.52139(15)
H18 H -0.8578 0.8327 0.4868
C28 C 0.7583(3) 1.02096(11) 0.91439(13)
C29 C -0.1154(3) 0.82527(12) 0.74923(12)
H19 H -0.0400 0.8523 0.7295
C30 C -0.3934(3) 0.79332(11) 0.75819(12)
C31 C 0.9084(3) 1.03783(12) 0.89266(12)
C32 C -0.0587(3) 0.77603(12) 0.80030(13)
H20 H 0.0539 0.7710 0.8152
C33 C -0.7512(3) 0.81809(12) 0.59270(15)
H21 H -0.8321 0.7900 0.6064
C34 C -0.1683(4) 0.73480(13) 0.82884(14)
H22 H -0.1299 0.7015 0.8624
C35 C 1.0284(4) 0.98927(14) 0.89106(13)
H23 H 1.1301 1.0001 0.8770
C36 C 0.8488(4) 0.90903(14) 0.93460(18)
H24 H 0.8290 0.8658 0.9488
loop_
_geom_bond_atom_site_label_1
_geom_bond_atom_site_label_2
_geom_bond_site_symmetry_1
_geom_bond_site_symmetry_2
C1 H1 1_555 1_555
S1 O1 1_555 1_555
S2 C11 1_555 1_555
S3 C19 1_555 1_555
N1 C4 1_555 1_555
O2 S1 1_555 1_555
C2 S1 1_555 1_555
C3 N2 1_555 1_555
N2 C14 1_555 1_555
C4 C8 1_555 1_555
C5 H2 1_555 1_555
C6 H3 1_555 1_555
C7 C2 1_555 1_555
H4 C7 1_555 1_555
C8 H5 1_555 1_555
C9 H6 1_555 1_555
C10 C4 1_555 1_555
H7 C10 1_555 1_555
C11 C13 1_555 1_555
C12 C8 1_555 1_555
H8 C12 1_555 1_555
C13 N1 1_555 1_555
C14 C5 1_555 1_555
C15 H9 1_555 1_555
C16 H10 1_555 1_555
C17 C2 1_555 1_555
H11 C17 1_555 1_555
C18 C3 1_555 1_555
H12 C18 1_555 1_555
C19 C3 1_555 1_555
C20 S1 1_555 1_555
C21 H13 1_555 1_555
C22 C13 1_555 1_555
H14 C22 1_555 1_555
C23 H15 1_555 1_555
C24 N1 1_555 1_555
C25 C15 1_555 1_555
H16 C25 1_555 1_555
C26 H17 1_555 1_555
C27 C21 1_555 1_555
H18 C27 1_555 1_555
C28 N2 1_555 1_555
C29 C24 1_555 1_555
H19 C29 1_555 1_555
C30 C1 1_555 1_555
C31 S3 1_555 1_555
C32 C29 1_555 1_555
H20 C32 1_555 1_555
C33 C11 1_555 1_555
H21 C33 1_555 1_555
C34 C1 1_555 1_555
H22 C34 1_555 1_555
C35 C23 1_555 1_555
H23 C35 1_555 1_555
C36 C23 1_555 1_555
H24 C36 1_555 1_555
S2 C30 1_555 1_555
C5 C7 1_555 1_555
C6 C10 1_555 1_555
C6 C20 1_555 1_555
C9 C14 1_555 1_555
C9 C17 1_555 1_555
C12 C20 1_555 1_555
C15 C19 1_555 1_555
C16 C18 1_555 1_555
C16 C25 1_555 1_555
C21 C22 1_555 1_555
C24 C30 1_555 1_555
C26 C28 1_555 1_555
C26 C36 1_555 1_555
C27 C33 1_555 1_555
C28 C31 1_555 1_555
C31 C35 1_555 1_555
C32 C34 1_555 1_555

#END
