
#######################################################################
#
#                 Cambridge Crystallographic Data Centre
#                                CCDC 
#
#######################################################################
#
# If this CIF has been generated from an entry in the Cambridge 
# Structural Database, then it will include bibliographic, chemical, 
# crystal, experimental, refinement or atomic coordinate data resulting 
# from the CCDC's data processing and validation procedures.
#
#######################################################################

data_FAGKIK
_chemical_formula_moiety         'C25 H17 N1 O2 S2'
_chemical_name_systematic        
10-(5,5-dioxidodibenzo[b,d]thiophen-2-yl)-1-methyl-10H-phenothiazine
_symmetry_cell_setting           monoclinic
_symmetry_space_group_name_H-M   'P 21/c'
_symmetry_Int_Tables_number      14
_space_group_name_Hall           '-P 2ybc'
loop_
_symmetry_equiv_pos_site_id
_symmetry_equiv_pos_as_xyz
1 x,y,z
2 -x,1/2+y,1/2-z
3 -x,-y,-z
4 x,1/2-y,1/2+z
_cell_length_a                   11.3452(4)
_cell_length_b                   17.9768(6)
_cell_length_c                   10.1595(4)
_cell_angle_alpha                90
_cell_angle_beta                 110.1966(12)
_cell_angle_gamma                90
_cell_volume                     1944.63
_exptl_crystal_colour            colorless
_exptl_crystal_description       lath
_cell_formula_units_Z            4
_exptl_crystal_recrystallization_method dichloromethane/hexane
loop_
_atom_site_label
_atom_site_type_symbol
_atom_site_fract_x
_atom_site_fract_y
_atom_site_fract_z
S1 S 0.32313(4) 0.11650(2) -0.03464(5)
S2 S 0.97045(5) 0.20320(3) 0.43120(5)
O1 O 0.21407(13) 0.08249(8) -0.01821(16)
O2 O 0.36916(15) 0.08378(8) -0.13677(15)
N1 N 0.73416(14) 0.18755(8) 0.49378(16)
C1 C 0.30190(17) 0.21348(10) -0.06135(19)
C2 C 0.22689(18) 0.24829(11) -0.1822(2)
H1 H 0.1776 0.2206 -0.2617
C3 C 0.22631(18) 0.32591(11) -0.1828(2)
H2 H 0.1772 0.3519 -0.2648
C4 C 0.29709(18) 0.36544(11) -0.0641(2)
H3 H 0.2944 0.4183 -0.0658
C5 C 0.37182(17) 0.32922(10) 0.0571(2)
H4 H 0.4187 0.3568 0.1380
C6 C 0.37666(16) 0.25206(10) 0.05788(19)
C7 C 0.45886(16) 0.20229(9) 0.16726(18)
C8 C 0.55288(16) 0.22259(10) 0.29076(18)
H5 H 0.5625 0.2731 0.3199
C9 C 0.63397(16) 0.16793(10) 0.37271(18)
C10 C 0.61475(17) 0.09292(10) 0.33020(19)
H6 H 0.6685 0.0557 0.3861
C11 C 0.51904(17) 0.07256(10) 0.20857(19)
H7 H 0.5061 0.0219 0.1809
C12 C 0.44271(16) 0.12763(10) 0.12822(18)
C13 C 0.78208(17) 0.26233(10) 0.50760(18)
C14 C 0.72217(18) 0.31995(11) 0.55151(19)
H8 H 0.6510 0.3098 0.5775
C15 C 0.76662(19) 0.39200(11) 0.5572(2)
H9 H 0.7246 0.4315 0.5848
C16 C 0.87250(19) 0.40647(11) 0.5227(2)
H10 H 0.9016 0.4562 0.5248
C17 C 0.93615(18) 0.34936(11) 0.4852(2)
H11 H 1.0103 0.3594 0.4649
C18 C 0.89042(17) 0.27692(11) 0.47733(19)
C19 C 0.94195(18) 0.13392(10) 0.5392(2)
C20 C 0.82731(17) 0.13238(10) 0.56187(19)
C21 C 0.80373(18) 0.07912(10) 0.6497(2)
C22 C 0.8966(2) 0.02555(11) 0.7089(2)
H12 H 0.8820 -0.0121 0.7671
C23 C 1.0089(2) 0.02644(11) 0.6842(2)
H13 H 1.0698 -0.0110 0.7243
C24 C 1.03380(19) 0.08116(12) 0.6020(2)
H14 H 1.1126 0.0827 0.5885
C25 C 0.6829(2) 0.07893(12) 0.6786(2)
H15 H 0.6678 0.1286 0.7095
H16 H 0.6881 0.0426 0.7523
H17 H 0.6137 0.0655 0.5929
loop_
_geom_bond_atom_site_label_1
_geom_bond_atom_site_label_2
_geom_bond_site_symmetry_1
_geom_bond_site_symmetry_2
S1 O1 1_555 1_555
S2 C18 1_555 1_555
O2 S1 1_555 1_555
N1 C9 1_555 1_555
C1 S1 1_555 1_555
C2 C1 1_555 1_555
H1 C2 1_555 1_555
C3 C2 1_555 1_555
H2 C3 1_555 1_555
C4 C3 1_555 1_555
H3 C4 1_555 1_555
C5 C4 1_555 1_555
H4 C5 1_555 1_555
C6 C1 1_555 1_555
C7 C6 1_555 1_555
C8 C7 1_555 1_555
H5 C8 1_555 1_555
C9 C8 1_555 1_555
C10 C9 1_555 1_555
H6 C10 1_555 1_555
C11 C10 1_555 1_555
H7 C11 1_555 1_555
C12 S1 1_555 1_555
C13 N1 1_555 1_555
C14 C13 1_555 1_555
H8 C14 1_555 1_555
C15 C14 1_555 1_555
H9 C15 1_555 1_555
C16 C15 1_555 1_555
H10 C16 1_555 1_555
C17 C16 1_555 1_555
H11 C17 1_555 1_555
C18 C13 1_555 1_555
C19 S2 1_555 1_555
C20 N1 1_555 1_555
C21 C20 1_555 1_555
C22 C21 1_555 1_555
H12 C22 1_555 1_555
C23 C22 1_555 1_555
H13 C23 1_555 1_555
C24 C19 1_555 1_555
H14 C24 1_555 1_555
C25 C21 1_555 1_555
H15 C25 1_555 1_555
H16 C25 1_555 1_555
H17 C25 1_555 1_555
C5 C6 1_555 1_555
C7 C12 1_555 1_555
C11 C12 1_555 1_555
C17 C18 1_555 1_555
C19 C20 1_555 1_555
C23 C24 1_555 1_555

#END
