
#######################################################################
#
#                 Cambridge Crystallographic Data Centre
#                                CCDC 
#
#######################################################################
#
# If this CIF has been generated from an entry in the Cambridge 
# Structural Database, then it will include bibliographic, chemical, 
# crystal, experimental, refinement or atomic coordinate data resulting 
# from the CCDC's data processing and validation procedures.
#
#######################################################################

data_FAGKEG
_chemical_formula_moiety         'C40 H30 N2 O2 S3,C1 H2 Cl2'
_chemical_name_systematic        
"10,10'-(5,5-dioxidodibenzo[b,d]thiene-2,8-diyl)bis(1,9-dimethyl-10H-phenothiazine) dichloromethane solvate"
_symmetry_cell_setting           monoclinic
_symmetry_space_group_name_H-M   'C 2/c'
_symmetry_Int_Tables_number      15
_space_group_name_Hall           '-C 2yn'
loop_
_symmetry_equiv_pos_site_id
_symmetry_equiv_pos_as_xyz
1 x,y,z
2 -x,y,1/2-z
3 1/2+x,1/2+y,z
4 1/2-x,1/2+y,1/2-z
5 -x,-y,-z
6 x,-y,1/2+z
7 1/2-x,1/2-y,-z
8 1/2+x,1/2-y,1/2+z
_cell_length_a                   20.7971(13)
_cell_length_b                   11.4101(7)
_cell_length_c                   15.4184(10)
_cell_angle_alpha                90
_cell_angle_beta                 98.560(2)
_cell_angle_gamma                90
_cell_volume                     3617.98
_exptl_crystal_colour            colorless
_exptl_crystal_description       block
_cell_formula_units_Z            4
_exptl_crystal_recrystallization_method dichloromethane/hexane
loop_
_atom_site_label
_atom_site_type_symbol
_atom_site_fract_x
_atom_site_fract_y
_atom_site_fract_z
S1 S 0.5000 0.76634(4) 0.7500
S2 S 0.74830(2) 0.30349(4) 0.71748(3)
O1 O 0.45909(5) 0.83335(10) 0.68397(8)
N1 N 0.63034(6) 0.37220(10) 0.59834(8)
C1 C 0.54419(6) 0.66061(12) 0.70122(9)
C2 C 0.52535(6) 0.54773(12) 0.72114(9)
C3 C 0.55415(6) 0.45129(12) 0.68856(9)
H1 H 0.5418 0.3743 0.7027
C4 C 0.60207(6) 0.46850(12) 0.63418(9)
C5 C 0.62048(7) 0.58338(13) 0.61549(11)
H2 H 0.6531 0.5951 0.5792
C6 C 0.59186(7) 0.67976(13) 0.64905(11)
H3 H 0.6047 0.7571 0.6365
C7 C 0.68873(6) 0.38947(12) 0.56104(9)
C8 C 0.74806(7) 0.36274(12) 0.61174(10)
C9 C 0.80620(7) 0.38168(14) 0.57894(12)
H4 H 0.8467 0.3626 0.6131
C10 C 0.80380(8) 0.42859(14) 0.49590(13)
H5 H 0.8431 0.4453 0.4740
C11 C 0.74506(9) 0.45151(14) 0.44445(11)
H6 H 0.7446 0.4824 0.3871
C12 C 0.68630(8) 0.43017(13) 0.47511(10)
C13 C 0.62444(7) 0.25910(12) 0.63683(10)
C14 C 0.67651(8) 0.21895(14) 0.69710(11)
C15 C 0.67255(10) 0.11158(16) 0.73891(13)
H7 H 0.7082 0.0831 0.7791
C16 C 0.61587(11) 0.04712(16) 0.72083(14)
H8 H 0.6119 -0.0244 0.7511
C17 C 0.56481(9) 0.08526(15) 0.65931(13)
H9 H 0.5265 0.0390 0.6475
C18 C 0.56866(8) 0.19092(14) 0.61420(11)
C19 C 0.62267(9) 0.45000(17) 0.41708(12)
H10 H 0.6001 0.3750 0.4056
H11 H 0.6306 0.4847 0.3615
H12 H 0.5957 0.5033 0.4463
C20 C 0.51511(9) 0.22889(17) 0.54408(14)
H13 H 0.5003 0.3073 0.5577
H14 H 0.4788 0.1736 0.5410
H15 H 0.5312 0.2306 0.4875
S2A S 0.25170(2) 0.30349(4) 0.78252(3)
O1A O 0.54091(5) 0.83335(10) 0.81603(8)
N1A N 0.36966(6) 0.37220(10) 0.90166(8)
C1A C 0.45581(6) 0.66061(12) 0.79878(9)
C2A C 0.47465(6) 0.54773(12) 0.77886(9)
C3A C 0.44585(6) 0.45129(12) 0.81144(9)
H1A H 0.4582 0.3743 0.7973
C4A C 0.39793(6) 0.46850(12) 0.86582(9)
C5A C 0.37952(7) 0.58338(13) 0.88451(11)
H2A H 0.3469 0.5951 0.9208
C6A C 0.40814(7) 0.67976(13) 0.85095(11)
H3A H 0.3953 0.7571 0.8635
C7A C 0.31127(6) 0.38947(12) 0.93896(9)
C8A C 0.25194(7) 0.36274(12) 0.88826(10)
C9A C 0.19380(7) 0.38168(14) 0.92106(12)
H4A H 0.1533 0.3626 0.8869
C10A C 0.19620(8) 0.42859(14) 1.00410(13)
H5A H 0.1569 0.4453 1.0260
C11A C 0.25494(9) 0.45151(14) 1.05555(11)
H6A H 0.2554 0.4824 1.1129
C12A C 0.31370(8) 0.43017(13) 1.02489(10)
C13A C 0.37556(7) 0.25910(12) 0.86317(10)
C14A C 0.32349(8) 0.21895(14) 0.80290(11)
C15A C 0.32745(10) 0.11158(16) 0.76109(13)
H7A H 0.2918 0.0831 0.7209
C16A C 0.38413(11) 0.04712(16) 0.77917(14)
H8A H 0.3881 -0.0244 0.7489
C17A C 0.43519(9) 0.08526(15) 0.84069(13)
H9A H 0.4735 0.0390 0.8525
C18A C 0.43134(8) 0.19092(14) 0.88580(11)
C19A C 0.37733(9) 0.45000(17) 1.08292(12)
H10A H 0.3999 0.3750 1.0944
H11A H 0.3694 0.4847 1.1385
H12A H 0.4043 0.5033 1.0537
C20A C 0.48489(9) 0.22889(17) 0.95592(14)
H13A H 0.4997 0.3073 0.9423
H14A H 0.5212 0.1736 0.9590
H15A H 0.4688 0.2306 1.0125
Cl1 Cl 0.65015(6) 0.76568(12) 0.44422(9)
Cl2 Cl 0.77901(8) 0.74334(11) 0.54530(10)
C21 C 0.7325(4) 0.7842(6) 0.4429(5)
H16 H 0.7413 0.8673 0.4303
H17 H 0.7460 0.7358 0.3954
Cl1F Cl 0.84985(6) 0.73432(12) 0.55578(9)
Cl2F Cl 0.72099(8) 0.75666(11) 0.45470(10)
C21F C 0.7675(4) 0.7158(6) 0.5571(5)
H16F H 0.7587 0.6327 0.5697
H17F H 0.7540 0.7642 0.6046
loop_
_geom_bond_atom_site_label_1
_geom_bond_atom_site_label_2
_geom_bond_site_symmetry_1
_geom_bond_site_symmetry_2
S1 O1 1_555 1_555
S2 C8 1_555 1_555
N1 C4 1_555 1_555
C1 S1 1_555 1_555
C2 C1 1_555 1_555
C3 C2 1_555 1_555
H1 C3 1_555 1_555
C4 C3 1_555 1_555
C5 C4 1_555 1_555
H2 C5 1_555 1_555
C6 C1 1_555 1_555
H3 C6 1_555 1_555
C7 N1 1_555 1_555
C8 C7 1_555 1_555
C9 C8 1_555 1_555
H4 C9 1_555 1_555
C10 C9 1_555 1_555
H5 C10 1_555 1_555
C11 C10 1_555 1_555
H6 C11 1_555 1_555
C12 C7 1_555 1_555
C13 N1 1_555 1_555
C14 S2 1_555 1_555
C15 C14 1_555 1_555
H7 C15 1_555 1_555
C16 C15 1_555 1_555
H8 C16 1_555 1_555
C17 C16 1_555 1_555
H9 C17 1_555 1_555
C18 C13 1_555 1_555
C19 C12 1_555 1_555
H10 C19 1_555 1_555
H11 C19 1_555 1_555
H12 C19 1_555 1_555
C20 C18 1_555 1_555
H13 C20 1_555 1_555
H14 C20 1_555 1_555
H15 C20 1_555 1_555
Cl1 C21 1_555 1_555
Cl2 C21 1_555 1_555
C21 H16 1_555 1_555
H17 C21 1_555 1_555
S2A C8A 1_555 1_555
O1A S1 1_555 1_555
N1A C4A 1_555 1_555
C1A S1 1_555 1_555
C2A C2 1_555 1_555
C3A C2A 1_555 1_555
H1A C3A 1_555 1_555
C4A C3A 1_555 1_555
C5A C4A 1_555 1_555
H2A C5A 1_555 1_555
C6A C1A 1_555 1_555
H3A C6A 1_555 1_555
C7A N1A 1_555 1_555
C8A C7A 1_555 1_555
C9A C8A 1_555 1_555
H4A C9A 1_555 1_555
C10A C9A 1_555 1_555
H5A C10A 1_555 1_555
C11A C10A 1_555 1_555
H6A C11A 1_555 1_555
C12A C7A 1_555 1_555
C13A N1A 1_555 1_555
C14A S2A 1_555 1_555
C15A C14A 1_555 1_555
H7A C15A 1_555 1_555
C16A C15A 1_555 1_555
H8A C16A 1_555 1_555
C17A C16A 1_555 1_555
H9A C17A 1_555 1_555
C18A C13A 1_555 1_555
C19A C12A 1_555 1_555
H10A C19A 1_555 1_555
H11A C19A 1_555 1_555
H12A C19A 1_555 1_555
C20A C18A 1_555 1_555
H13A C20A 1_555 1_555
H14A C20A 1_555 1_555
H15A C20A 1_555 1_555
Cl1F C21F 1_555 1_555
Cl2F C21F 1_555 1_555
C21F H16F 1_555 1_555
H17F C21F 1_555 1_555
C5 C6 1_555 1_555
C11 C12 1_555 1_555
C13 C14 1_555 1_555
C17 C18 1_555 1_555
C1A C2A 1_555 1_555
C5A C6A 1_555 1_555
C11A C12A 1_555 1_555
C13A C14A 1_555 1_555
C17A C18A 1_555 1_555

#END
