
#######################################################################
#
#                 Cambridge Crystallographic Data Centre
#                                CCDC 
#
#######################################################################
#
# If this CIF has been generated from an entry in the Cambridge 
# Structural Database, then it will include bibliographic, chemical, 
# crystal, experimental, refinement or atomic coordinate data resulting 
# from the CCDC's data processing and validation procedures.
#
#######################################################################

data_FAGMIL
_chemical_formula_moiety         'C60 H72'
_chemical_name_systematic        
'1,3,8,10,15,17,22,24-Octa-t-butylcyclooctacosa-1,2,8,9,15,16,22,23-octaene-4,6,11,13,18,20,25,27-octayne unknown solvate'
_symmetry_cell_setting           tetragonal
_symmetry_space_group_name_H-M   'P 4/n n c'
_symmetry_Int_Tables_number      126
_space_group_name_Hall           '-P 4a 2bc'
loop_
_symmetry_equiv_pos_site_id
_symmetry_equiv_pos_as_xyz
1 x,y,z
2 1/2-y,x,z
3 1/2-x,1/2-y,z
4 y,1/2-x,z
5 x,1/2-y,1/2-z
6 y,x,1/2-z
7 1/2-x,y,1/2-z
8 1/2-y,1/2-x,1/2-z
9 -x,-y,-z
10 1/2+y,-x,-z
11 1/2+x,1/2+y,-z
12 -y,1/2+x,-z
13 -x,1/2+y,1/2+z
14 -y,-x,1/2+z
15 1/2+x,-y,1/2+z
16 1/2+y,1/2+x,1/2+z
_cell_length_a                   19.245(4)
_cell_length_b                   19.245(4)
_cell_length_c                   27.881(6)
_cell_angle_alpha                90
_cell_angle_beta                 90
_cell_angle_gamma                90
_cell_volume                     10326.3
_exptl_crystal_colour            colorless
_cell_formula_units_Z            6
_exptl_crystal_recrystallization_method hexane/ethanol/methanol
loop_
_atom_site_label
_atom_site_type_symbol
_atom_site_fract_x
_atom_site_fract_y
_atom_site_fract_z
C1 C 0.2148(3) 0.5494(3) 0.10615(17)
C2 C 0.2470(3) 0.5775(3) 0.07044(16)
C3 C 0.2475(3) 0.6518(3) 0.06575(15)
C4 C 0.2493(3) 0.7142(3) 0.06337(15)
C5 C 0.2871(3) 0.5355(3) 0.03234(17)
C6 C 0.2824(4) 0.4577(3) 0.0438(2)
H1 H 0.3084 0.4319 0.0204
H2 H 0.2347 0.4433 0.0430
H3 H 0.3013 0.4492 0.0752
C7 C 0.3628(4) 0.5584(4) 0.0326(2)
H4 H 0.3656 0.6067 0.0241
H5 H 0.3885 0.5313 0.0098
H6 H 0.3820 0.5517 0.0640
C8 C 0.2532(4) 0.5485(4) -0.01617(18)
H7 H 0.2597 0.5963 -0.0251
H8 H 0.2044 0.5386 -0.0141
H9 H 0.2742 0.5190 -0.0398
C9 C 0.1802(3) 0.5215(3) 0.14127(18)
C10 C 0.2128(3) 0.5131(3) 0.18801(19)
C11 C 0.2361(3) 0.5090(3) 0.22763(19)
C12 C 0.1039(3) 0.4968(3) 0.1368(2)
C13 C 0.0611(4) 0.5335(5) 0.1753(3)
H10 H 0.0139 0.5174 0.1740
H11 H 0.0622 0.5827 0.1699
H12 H 0.0803 0.5234 0.2064
C14 C 0.1013(5) 0.4194(4) 0.1483(3)
H13 H 0.1321 0.3947 0.1272
H14 H 0.0548 0.4025 0.1439
H15 H 0.1153 0.4120 0.1809
C15 C 0.0769(4) 0.5096(5) 0.0872(3)
H16 H 0.1007 0.4799 0.0649
H17 H 0.0847 0.5573 0.0786
H18 H 0.0280 0.4999 0.0862
C1B C 0.2852(3) 0.9506(3) 0.10615(17)
C1F C 0.2852(3) 0.5494(3) 0.39385(17)
C1D C 0.2148(3) 0.9506(3) 0.39385(17)
C2B C 0.2530(3) 0.9225(3) 0.07044(16)
C2F C 0.2530(3) 0.5775(3) 0.42956(16)
C2D C 0.2470(3) 0.9225(3) 0.42956(16)
C3B C 0.2525(3) 0.8482(3) 0.06575(15)
C3F C 0.2525(3) 0.6518(3) 0.43425(15)
C3D C 0.2475(3) 0.8482(3) 0.43425(15)
C4B C 0.2507(3) 0.7858(3) 0.06337(15)
C4F C 0.2507(3) 0.7142(3) 0.43663(15)
C4D C 0.2493(3) 0.7858(3) 0.43663(15)
C5B C 0.2129(3) 0.9645(3) 0.03234(17)
C5F C 0.2129(3) 0.5355(3) 0.46766(17)
C5D C 0.2871(3) 0.9645(3) 0.46766(17)
C6B C 0.2176(4) 1.0423(3) 0.0438(2)
C6F C 0.2176(4) 0.4577(3) 0.4562(2)
C6D C 0.2824(4) 1.0423(3) 0.4562(2)
H1B H 0.1916 1.0681 0.0204
H1F H 0.1916 0.4319 0.4796
H1D H 0.3084 1.0681 0.4796
H2B H 0.2653 1.0567 0.0430
H2F H 0.2653 0.4433 0.4570
H2D H 0.2347 1.0567 0.4570
H3B H 0.1987 1.0508 0.0752
H3F H 0.1987 0.4492 0.4248
H3D H 0.3013 1.0508 0.4248
C7B C 0.1372(4) 0.9416(4) 0.0326(2)
C7F C 0.1372(4) 0.5584(4) 0.4674(2)
C7D C 0.3628(4) 0.9416(4) 0.4674(2)
H4B H 0.1344 0.8933 0.0241
H4F H 0.1344 0.6067 0.4759
H4D H 0.3656 0.8933 0.4759
H5B H 0.1115 0.9687 0.0098
H5F H 0.1115 0.5313 0.4902
H5D H 0.3885 0.9687 0.4902
H6B H 0.1180 0.9483 0.0640
H6F H 0.1180 0.5517 0.4360
H6D H 0.3820 0.9483 0.4360
C8B C 0.2468(4) 0.9515(4) -0.01617(18)
C8F C 0.2468(4) 0.5485(4) 0.51617(18)
C8D C 0.2532(4) 0.9515(4) 0.51617(18)
H7B H 0.2403 0.9037 -0.0251
H7F H 0.2403 0.5963 0.5251
H7D H 0.2597 0.9037 0.5251
H8B H 0.2956 0.9614 -0.0141
H8F H 0.2956 0.5386 0.5141
H8D H 0.2044 0.9614 0.5141
H9B H 0.2258 0.9810 -0.0398
H9F H 0.2258 0.5190 0.5398
H9D H 0.2742 0.9810 0.5398
C9B C 0.3198(3) 0.9785(3) 0.14127(18)
C9F C 0.3198(3) 0.5215(3) 0.35873(18)
C9D C 0.1802(3) 0.9785(3) 0.35873(18)
C10B C 0.2872(3) 0.9869(3) 0.18801(19)
C10F C 0.2872(3) 0.5131(3) 0.31199(19)
C10D C 0.2128(3) 0.9869(3) 0.31199(19)
C11B C 0.2639(3) 0.9910(3) 0.22763(19)
C11F C 0.2639(3) 0.5090(3) 0.27237(19)
C11D C 0.2361(3) 0.9910(3) 0.27237(19)
C12B C 0.3961(3) 1.0032(3) 0.1368(2)
C12F C 0.3961(3) 0.4968(3) 0.3632(2)
C12D C 0.1039(3) 1.0032(3) 0.3632(2)
C13B C 0.4389(4) 0.9665(5) 0.1753(3)
C13F C 0.4389(4) 0.5335(5) 0.3247(3)
C13D C 0.0611(4) 0.9665(5) 0.3247(3)
H10B H 0.4861 0.9826 0.1740
H10F H 0.4861 0.5174 0.3260
H10D H 0.0139 0.9826 0.3260
H11B H 0.4378 0.9173 0.1699
H11F H 0.4378 0.5827 0.3301
H11D H 0.0622 0.9173 0.3301
H12B H 0.4197 0.9766 0.2064
H12F H 0.4197 0.5234 0.2936
H12D H 0.0803 0.9766 0.2936
C14B C 0.3987(5) 1.0806(4) 0.1483(3)
C14F C 0.3987(5) 0.4194(4) 0.3517(3)
C14D C 0.1013(5) 1.0806(4) 0.3517(3)
H13B H 0.3679 1.1053 0.1272
H13F H 0.3679 0.3947 0.3728
H13D H 0.1321 1.1053 0.3728
H14B H 0.4452 1.0975 0.1439
H14F H 0.4452 0.4025 0.3561
H14D H 0.0548 1.0975 0.3561
H15B H 0.3847 1.0880 0.1809
H15F H 0.3847 0.4120 0.3191
H15D H 0.1153 1.0880 0.3191
C15B C 0.4231(4) 0.9904(5) 0.0872(3)
C15F C 0.4231(4) 0.5096(5) 0.4128(3)
C15D C 0.0769(4) 0.9904(5) 0.4128(3)
H16B H 0.3993 1.0201 0.0649
H16F H 0.3993 0.4799 0.4351
H16D H 0.1007 1.0201 0.4351
H17B H 0.4153 0.9427 0.0786
H17F H 0.4153 0.5573 0.4214
H17D H 0.0847 0.9427 0.4214
H18B H 0.4720 1.0001 0.0862
H18F H 0.4720 0.4999 0.4138
H18D H 0.0280 1.0001 0.4138
C16 C 0.7500 0.0419(3) 0.2500
C17 C 0.6958(3) 0.0418(3) 0.22247(18)
C18 C 0.6421(3) -0.0067(3) 0.23367(17)
C19 C 0.5980(3) -0.0494(3) 0.24380(19)
C20 C 0.6867(3) 0.0899(4) 0.1796(2)
C21 C 0.6236(5) 0.1335(5) 0.1877(3)
H19 H 0.5857 0.1045 0.1976
H20 H 0.6114 0.1568 0.1584
H21 H 0.6330 0.1674 0.2121
C22 C 0.7520(5) 0.1311(6) 0.1717(4)
H22 H 0.7497 0.1540 0.1411
H23 H 0.7913 0.1005 0.1723
H24 H 0.7567 0.1652 0.1966
C23 C 0.6696(6) 0.0428(7) 0.1344(3)
H25 H 0.6392 0.0057 0.1439
H26 H 0.7120 0.0237 0.1219
H27 H 0.6474 0.0704 0.1103
C16A C 0.4581(3) -0.2500 0.2500
C16C C 1.0419(3) -0.2500 0.2500
C16B C 0.7500 -0.5419(3) 0.2500
C17F C 0.8042(3) 0.0418(3) 0.27753(18)
C17G C 0.4582(3) -0.1958(3) 0.27753(18)
C17A C 0.4582(3) -0.3042(3) 0.22247(18)
C17C C 1.0418(3) -0.1958(3) 0.22247(18)
C17E C 1.0418(3) -0.3042(3) 0.27753(18)
C17B C 0.8042(3) -0.5418(3) 0.22247(18)
C17D C 0.6958(3) -0.5418(3) 0.27753(18)
C18F C 0.8579(3) -0.0067(3) 0.26633(17)
C18G C 0.5067(3) -0.1421(3) 0.26633(17)
C18A C 0.5067(3) -0.3579(3) 0.23367(17)
C18C C 0.9933(3) -0.1421(3) 0.23367(17)
C18E C 0.9933(3) -0.3579(3) 0.26633(17)
C18B C 0.8579(3) -0.4933(3) 0.23367(17)
C18D C 0.6421(3) -0.4933(3) 0.26633(17)
C19F C 0.9020(3) -0.0494(3) 0.25620(19)
C19G C 0.5494(3) -0.0980(3) 0.25620(19)
C19A C 0.5494(3) -0.4020(3) 0.24380(19)
C19C C 0.9506(3) -0.0980(3) 0.24380(19)
C19E C 0.9506(3) -0.4020(3) 0.25620(19)
C19B C 0.9020(3) -0.4506(3) 0.24380(19)
C19D C 0.5980(3) -0.4506(3) 0.25620(19)
C20F C 0.8133(3) 0.0899(4) 0.3204(2)
C20G C 0.4101(4) -0.1867(3) 0.3204(2)
C20A C 0.4101(4) -0.3133(3) 0.1796(2)
C20C C 1.0899(4) -0.1867(3) 0.1796(2)
C20E C 1.0899(4) -0.3133(3) 0.3204(2)
C20B C 0.8133(3) -0.5899(4) 0.1796(2)
C20D C 0.6867(3) -0.5899(4) 0.3204(2)
C21F C 0.8764(5) 0.1335(5) 0.3123(3)
C21G C 0.3665(5) -0.1236(5) 0.3123(3)
C21A C 0.3665(5) -0.3764(5) 0.1877(3)
C21C C 1.1335(5) -0.1236(5) 0.1877(3)
C21E C 1.1335(5) -0.3764(5) 0.3123(3)
C21B C 0.8764(5) -0.6335(5) 0.1877(3)
C21D C 0.6236(5) -0.6335(5) 0.3123(3)
H19F H 0.9143 0.1045 0.3024
H19G H 0.3955 -0.0857 0.3024
H19A H 0.3955 -0.4143 0.1976
H19C H 1.1045 -0.0857 0.1976
H19E H 1.1045 -0.4143 0.3024
H19B H 0.9143 -0.6045 0.1976
H19D H 0.5857 -0.6045 0.3024
H20F H 0.8886 0.1568 0.3416
H20G H 0.3432 -0.1114 0.3416
H20A H 0.3432 -0.3886 0.1584
H20C H 1.1568 -0.1114 0.1584
H20E H 1.1568 -0.3886 0.3416
H20B H 0.8886 -0.6568 0.1584
H20D H 0.6114 -0.6568 0.3416
H21F H 0.8670 0.1674 0.2879
H21G H 0.3326 -0.1330 0.2879
H21A H 0.3326 -0.3670 0.2121
H21C H 1.1674 -0.1330 0.2121
H21E H 1.1674 -0.3670 0.2879
H21B H 0.8670 -0.6674 0.2121
H21D H 0.6330 -0.6674 0.2879
C22F C 0.7480(5) 0.1311(6) 0.3283(4)
C22G C 0.3689(6) -0.2520(5) 0.3283(4)
C22A C 0.3689(6) -0.2480(5) 0.1717(4)
C22C C 1.1311(6) -0.2520(5) 0.1717(4)
C22E C 1.1311(6) -0.2480(5) 0.3283(4)
C22B C 0.7480(5) -0.6311(6) 0.1717(4)
C22D C 0.7520(5) -0.6311(6) 0.3283(4)
H22F H 0.7503 0.1540 0.3589
H22G H 0.3460 -0.2497 0.3589
H22A H 0.3460 -0.2503 0.1411
H22C H 1.1540 -0.2497 0.1411
H22E H 1.1540 -0.2503 0.3589
H22B H 0.7503 -0.6540 0.1411
H22D H 0.7497 -0.6540 0.3589
H23F H 0.7087 0.1005 0.3277
H23G H 0.3995 -0.2913 0.3277
H23A H 0.3995 -0.2087 0.1723
H23C H 1.1005 -0.2913 0.1723
H23E H 1.1005 -0.2087 0.3277
H23B H 0.7087 -0.6005 0.1723
H23D H 0.7913 -0.6005 0.3277
H24F H 0.7433 0.1652 0.3034
H24G H 0.3348 -0.2567 0.3034
H24A H 0.3348 -0.2433 0.1966
H24C H 1.1652 -0.2567 0.1966
H24E H 1.1652 -0.2433 0.3034
H24B H 0.7433 -0.6652 0.1966
H24D H 0.7567 -0.6652 0.3034
C23F C 0.8304(6) 0.0428(7) 0.3656(3)
C23G C 0.4572(7) -0.1696(6) 0.3656(3)
C23A C 0.4572(7) -0.3304(6) 0.1344(3)
C23C C 1.0428(7) -0.1696(6) 0.1344(3)
C23E C 1.0428(7) -0.3304(6) 0.3656(3)
C23B C 0.8304(6) -0.5428(7) 0.1344(3)
C23D C 0.6696(6) -0.5428(7) 0.3656(3)
H25F H 0.8608 0.0057 0.3561
H25G H 0.4943 -0.1392 0.3561
H25A H 0.4943 -0.3608 0.1439
H25C H 1.0057 -0.1392 0.1439
H25E H 1.0057 -0.3608 0.3561
H25B H 0.8608 -0.5057 0.1439
H25D H 0.6392 -0.5057 0.3561
H26F H 0.7880 0.0237 0.3781
H26G H 0.4763 -0.2120 0.3781
H26A H 0.4763 -0.2880 0.1219
H26C H 1.0237 -0.2120 0.1219
H26E H 1.0237 -0.2880 0.3781
H26B H 0.7880 -0.5237 0.1219
H26D H 0.7120 -0.5237 0.3781
H27F H 0.8526 0.0704 0.3897
H27G H 0.4296 -0.1474 0.3897
H27A H 0.4296 -0.3526 0.1103
H27C H 1.0704 -0.1474 0.1103
H27E H 1.0704 -0.3526 0.3897
H27B H 0.8526 -0.5704 0.1103
H27D H 0.6474 -0.5704 0.3897
loop_
_geom_bond_atom_site_label_1
_geom_bond_atom_site_label_2
_geom_bond_site_symmetry_1
_geom_bond_site_symmetry_2
C1 C2 1_555 1_555
C2 C3 1_555 1_555
C3 C4 1_555 1_555
C4 C4B 1_555 1_555
C5 C2 1_555 1_555
C6 C5 1_555 1_555
H1 C6 1_555 1_555
H2 C6 1_555 1_555
H3 C6 1_555 1_555
C7 C5 1_555 1_555
H4 C7 1_555 1_555
H5 C7 1_555 1_555
H6 C7 1_555 1_555
C8 C5 1_555 1_555
H7 C8 1_555 1_555
H8 C8 1_555 1_555
H9 C8 1_555 1_555
C9 C1 1_555 1_555
C10 C9 1_555 1_555
C11 C10 1_555 1_555
C12 C9 1_555 1_555
C13 C12 1_555 1_555
H10 C13 1_555 1_555
H11 C13 1_555 1_555
H12 C13 1_555 1_555
C14 C12 1_555 1_555
H13 C14 1_555 1_555
H14 C14 1_555 1_555
H15 C14 1_555 1_555
C15 C12 1_555 1_555
H16 C15 1_555 1_555
H17 C15 1_555 1_555
H18 C15 1_555 1_555
C16 C17 1_555 1_555
C17 C18 1_555 1_555
C18 C19 1_555 1_555
C19 C19G 1_555 1_555
C20 C17 1_555 1_555
C21 C20 1_555 1_555
H19 C21 1_555 1_555
H20 C21 1_555 1_555
H21 C21 1_555 1_555
C22 C20 1_555 1_555
H22 C22 1_555 1_555
H23 C22 1_555 1_555
H24 C22 1_555 1_555
C23 C20 1_555 1_555
H25 C23 1_555 1_555
H26 C23 1_555 1_555
H27 C23 1_555 1_555
C1B C2B 1_555 1_555
C1F C2F 1_555 1_555
C1D C2D 1_555 1_555
C2B C3B 1_555 1_555
C2F C3F 1_555 1_555
C2D C3D 1_555 1_555
C3B C4B 1_555 1_555
C3F C4F 1_555 1_555
C3D C4D 1_555 1_555
C4F C4D 1_555 1_555
C5B C2B 1_555 1_555
C5F C2F 1_555 1_555
C5D C2D 1_555 1_555
C6B C5B 1_555 1_555
C6F C5F 1_555 1_555
C6D C5D 1_555 1_555
H1B C6B 1_555 1_555
H1F C6F 1_555 1_555
H1D C6D 1_555 1_555
H2B C6B 1_555 1_555
H2F C6F 1_555 1_555
H2D C6D 1_555 1_555
H3B C6B 1_555 1_555
H3F C6F 1_555 1_555
H3D C6D 1_555 1_555
C7B C5B 1_555 1_555
C7F C5F 1_555 1_555
C7D C5D 1_555 1_555
H4B C7B 1_555 1_555
H4F C7F 1_555 1_555
H4D C7D 1_555 1_555
H5B C7B 1_555 1_555
H5F C7F 1_555 1_555
H5D C7D 1_555 1_555
H6B C7B 1_555 1_555
H6F C7F 1_555 1_555
H6D C7D 1_555 1_555
C8B C5B 1_555 1_555
C8F C5F 1_555 1_555
C8D C5D 1_555 1_555
H7B C8B 1_555 1_555
H7F C8F 1_555 1_555
H7D C8D 1_555 1_555
H8B C8B 1_555 1_555
H8F C8F 1_555 1_555
H8D C8D 1_555 1_555
H9B C8B 1_555 1_555
H9F C8F 1_555 1_555
H9D C8D 1_555 1_555
C9B C1B 1_555 1_555
C9F C1F 1_555 1_555
C9D C1D 1_555 1_555
C10B C9B 1_555 1_555
C10F C9F 1_555 1_555
C10D C9D 1_555 1_555
C11B C10B 1_555 1_555
C11F C11 1_555 1_555
C11D C10D 1_555 1_555
C12B C9B 1_555 1_555
C12F C9F 1_555 1_555
C12D C9D 1_555 1_555
C13B C12B 1_555 1_555
C13F C12F 1_555 1_555
C13D C12D 1_555 1_555
H10B C13B 1_555 1_555
H10F C13F 1_555 1_555
H10D C13D 1_555 1_555
H11B C13B 1_555 1_555
H11F C13F 1_555 1_555
H11D C13D 1_555 1_555
H12B C13B 1_555 1_555
H12F C13F 1_555 1_555
H12D C13D 1_555 1_555
C14B C12B 1_555 1_555
C14F C12F 1_555 1_555
C14D C12D 1_555 1_555
H13B C14B 1_555 1_555
H13F C14F 1_555 1_555
H13D C14D 1_555 1_555
H14B C14B 1_555 1_555
H14F C14F 1_555 1_555
H14D C14D 1_555 1_555
H15B C14B 1_555 1_555
H15F C14F 1_555 1_555
H15D C14D 1_555 1_555
C15B C12B 1_555 1_555
C15F C12F 1_555 1_555
C15D C12D 1_555 1_555
H16B C15B 1_555 1_555
H16F C15F 1_555 1_555
H16D C15D 1_555 1_555
H17B C15B 1_555 1_555
H17F C15F 1_555 1_555
H17D C15D 1_555 1_555
H18B C15B 1_555 1_555
H18F C15F 1_555 1_555
H18D C15D 1_555 1_555
C16A C17G 1_555 1_555
C16C C17C 1_555 1_555
C16B C17B 1_555 1_555
C17F C16 1_555 1_555
C17G C18G 1_555 1_555
C17A C16A 1_555 1_555
C17C C18C 1_555 1_555
C17E C16C 1_555 1_555
C17B C18B 1_555 1_555
C17D C16B 1_555 1_555
C18F C17F 1_555 1_555
C18G C19G 1_555 1_555
C18A C17A 1_555 1_555
C18C C19C 1_555 1_555
C18E C17E 1_555 1_555
C18B C19B 1_555 1_555
C18D C17D 1_555 1_555
C19F C18F 1_555 1_555
C19A C18A 1_555 1_555
C19C C19F 1_555 1_555
C19E C18E 1_555 1_555
C19B C19E 1_555 1_555
C19D C18D 1_555 1_555
C20F C17F 1_555 1_555
C20G C17G 1_555 1_555
C20A C17A 1_555 1_555
C20C C17C 1_555 1_555
C20E C17E 1_555 1_555
C20B C17B 1_555 1_555
C20D C17D 1_555 1_555
C21F C20F 1_555 1_555
C21G C20G 1_555 1_555
C21A C20A 1_555 1_555
C21C C20C 1_555 1_555
C21E C20E 1_555 1_555
C21B C20B 1_555 1_555
C21D C20D 1_555 1_555
H19F C21F 1_555 1_555
H19G C21G 1_555 1_555
H19A C21A 1_555 1_555
H19C C21C 1_555 1_555
H19E C21E 1_555 1_555
H19B C21B 1_555 1_555
H19D C21D 1_555 1_555
H20F C21F 1_555 1_555
H20G C21G 1_555 1_555
H20A C21A 1_555 1_555
H20C C21C 1_555 1_555
H20E C21E 1_555 1_555
H20B C21B 1_555 1_555
H20D C21D 1_555 1_555
H21F C21F 1_555 1_555
H21G C21G 1_555 1_555
H21A C21A 1_555 1_555
H21C C21C 1_555 1_555
H21E C21E 1_555 1_555
H21B C21B 1_555 1_555
H21D C21D 1_555 1_555
C22F C20F 1_555 1_555
C22G C20G 1_555 1_555
C22A C20A 1_555 1_555
C22C C20C 1_555 1_555
C22E C20E 1_555 1_555
C22B C20B 1_555 1_555
C22D C20D 1_555 1_555
H22F C22F 1_555 1_555
H22G C22G 1_555 1_555
H22A C22A 1_555 1_555
H22C C22C 1_555 1_555
H22E C22E 1_555 1_555
H22B C22B 1_555 1_555
H22D C22D 1_555 1_555
H23F C22F 1_555 1_555
H23G C22G 1_555 1_555
H23A C22A 1_555 1_555
H23C C22C 1_555 1_555
H23E C22E 1_555 1_555
H23B C22B 1_555 1_555
H23D C22D 1_555 1_555
H24F C22F 1_555 1_555
H24G C22G 1_555 1_555
H24A C22A 1_555 1_555
H24C C22C 1_555 1_555
H24E C22E 1_555 1_555
H24B C22B 1_555 1_555
H24D C22D 1_555 1_555
C23F C20F 1_555 1_555
C23G C20G 1_555 1_555
C23A C20A 1_555 1_555
C23C C20C 1_555 1_555
C23E C20E 1_555 1_555
C23B C20B 1_555 1_555
C23D C20D 1_555 1_555
H25F C23F 1_555 1_555
H25G C23G 1_555 1_555
H25A C23A 1_555 1_555
H25C C23C 1_555 1_555
H25E C23E 1_555 1_555
H25B C23B 1_555 1_555
H25D C23D 1_555 1_555
H26F C23F 1_555 1_555
H26G C23G 1_555 1_555
H26A C23A 1_555 1_555
H26C C23C 1_555 1_555
H26E C23E 1_555 1_555
H26B C23B 1_555 1_555
H26D C23D 1_555 1_555
H27F C23F 1_555 1_555
H27G C23G 1_555 1_555
H27A C23A 1_555 1_555
H27C C23C 1_555 1_555
H27E C23E 1_555 1_555
H27B C23B 1_555 1_555
H27D C23D 1_555 1_555
C10F C11F 1_555 1_555
C11B C11D 1_555 1_555
C19A C19D 1_555 1_555

#END
