
#######################################################################
#
#                 Cambridge Crystallographic Data Centre
#                                CCDC 
#
#######################################################################
#
# If this CIF has been generated from an entry in the Cambridge 
# Structural Database, then it will include bibliographic, chemical, 
# crystal, experimental, refinement or atomic coordinate data resulting 
# from the CCDC's data processing and validation procedures.
#
#######################################################################

data_FAGQUA
_chemical_name_common            
2-(9-(10-Methyl-9,10-dihydroacridin-9-yl)-9H-fluoren-9-yl)malononitrile
_chemical_formula_moiety         'C30 H21 N3'
_chemical_name_systematic        
9-(10-Methyl-9,10-dihydroacridin-9-yl)-9-(dicyanomethyl)-9H-fluorene
_symmetry_cell_setting           monoclinic
_symmetry_space_group_name_H-M   'P 21/c'
_symmetry_Int_Tables_number      14
_space_group_name_Hall           '-P 2ybc'
loop_
_symmetry_equiv_pos_site_id
_symmetry_equiv_pos_as_xyz
1 x,y,z
2 x,1/2-y,1/2+z
3 -x,-y,-z
4 -x,1/2+y,1/2-z
_cell_length_a                   9.7538(5)
_cell_length_b                   9.4805(5)
_cell_length_c                   24.4914(13)
_cell_angle_alpha                90
_cell_angle_beta                 95.0710(10)
_cell_angle_gamma                90
_cell_volume                     2255.88
_exptl_crystal_colour            colorless
_exptl_crystal_description       prism
_chemical_melting_point          'decomposes above 80 deg.C'
_cell_formula_units_Z            4
loop_
_atom_site_label
_atom_site_type_symbol
_atom_site_fract_x
_atom_site_fract_y
_atom_site_fract_z
C1 C 0.2697(2) 0.2745(2) 0.46528(7)
H1 H 0.2334 0.1872 0.4737
C2 C 0.2483(2) 0.3915(2) 0.49717(9)
H2 H 0.1978 0.3823 0.5274
C3 C 0.3004(2) 0.5208(2) 0.48483(10)
H3 H 0.2817 0.5989 0.5059
C4 C 0.3799(2) 0.5361(2) 0.44173(9)
H4 H 0.4166 0.6236 0.4339
C5 C 0.40486(18) 0.41918(17) 0.40997(7)
C6 C 0.49318(17) 0.40132(18) 0.36516(7)
C7 C 0.5770(2) 0.4963(2) 0.34075(9)
H5 H 0.5811 0.5902 0.3517
C8 C 0.6539(2) 0.4494(3) 0.30013(9)
H6 H 0.7107 0.5123 0.2837
C9 C 0.6485(2) 0.3106(3) 0.28321(8)
H7 H 0.7023 0.2806 0.2559
C10 C 0.56310(19) 0.2157(2) 0.30666(7)
H8 H 0.5571 0.1227 0.2946
C11 C 0.48680(17) 0.26126(18) 0.34827(7)
C12 C 0.38314(17) 0.18045(16) 0.37902(6)
C13 C 0.34583(17) 0.28973(17) 0.42085(7)
C14 C 0.44821(19) 0.05001(17) 0.40999(7)
H9 H 0.3763 0.0057 0.4297
C15 C 0.5603(2) 0.09230(19) 0.45104(8)
N1 N 0.64640(19) 0.12217(19) 0.48326(7)
C16 C 0.5027(2) -0.0583(2) 0.37454(9)
N2 N 0.5458(2) -0.1414(2) 0.34786(9)
C17 C 0.1632(2) -0.1033(2) 0.36518(9)
H10 H 0.2333 -0.1474 0.3482
C18 C 0.0717(3) -0.1839(3) 0.39141(12)
H11 H 0.0801 -0.2815 0.3925
C19 C -0.0318(4) -0.1183(4) 0.41574(13)
H12 H -0.0919 -0.1722 0.4345
C20 C -0.0491(3) 0.0252(3) 0.41315(10)
H13 H -0.1215 0.0673 0.4293
C21 C 0.0427(2) 0.1082(2) 0.38599(8)
N3 N 0.02503(16) 0.2539(2) 0.38039(7)
C22 C 0.0778(2) 0.3217(2) 0.33608(8)
C23 C 0.0230(2) 0.4487(2) 0.31526(10)
H14 H -0.0461 0.4934 0.3326
C24 C 0.0703(3) 0.5083(3) 0.26935(12)
H15 H 0.0333 0.5933 0.2561
C25 C 0.1716(3) 0.4437(3) 0.24289(10)
H16 H 0.2006 0.4826 0.2110
C26 C 0.2296(2) 0.3208(2) 0.26404(8)
H17 H 0.2988 0.2773 0.2463
C27 C 0.18689(18) 0.26065(19) 0.31132(7)
C28 C 0.25765(17) 0.13276(17) 0.33779(7)
H18 H 0.2944 0.0768 0.3088
C29 C 0.1527(2) 0.0434(2) 0.36363(7)
C30 C -0.0701(2) 0.3272(3) 0.41328(10)
H19 H -0.0612 0.4271 0.4085
H20 H -0.0491 0.3038 0.4512
H21 H -0.1627 0.2988 0.4018
loop_
_geom_bond_atom_site_label_1
_geom_bond_atom_site_label_2
_geom_bond_site_symmetry_1
_geom_bond_site_symmetry_2
C1 H1 1_555 1_555
C2 C1 1_555 1_555
H2 C2 1_555 1_555
C3 C2 1_555 1_555
H3 C3 1_555 1_555
C4 C3 1_555 1_555
H4 C4 1_555 1_555
C5 C4 1_555 1_555
C6 C5 1_555 1_555
C7 C6 1_555 1_555
H5 C7 1_555 1_555
C8 C7 1_555 1_555
H6 C8 1_555 1_555
C9 C8 1_555 1_555
H7 C9 1_555 1_555
C10 C9 1_555 1_555
H8 C10 1_555 1_555
C11 C6 1_555 1_555
C12 C11 1_555 1_555
C13 C1 1_555 1_555
C14 C12 1_555 1_555
H9 C14 1_555 1_555
C15 C14 1_555 1_555
N1 C15 1_555 1_555
C16 C14 1_555 1_555
N2 C16 1_555 1_555
C17 H10 1_555 1_555
C18 C17 1_555 1_555
H11 C18 1_555 1_555
C19 C18 1_555 1_555
H12 C19 1_555 1_555
C20 C19 1_555 1_555
H13 C20 1_555 1_555
C21 C20 1_555 1_555
N3 C21 1_555 1_555
C22 N3 1_555 1_555
C23 C22 1_555 1_555
H14 C23 1_555 1_555
C24 C23 1_555 1_555
H15 C24 1_555 1_555
C25 C24 1_555 1_555
H16 C25 1_555 1_555
C26 C25 1_555 1_555
H17 C26 1_555 1_555
C27 C22 1_555 1_555
C28 C12 1_555 1_555
H18 C28 1_555 1_555
C29 C17 1_555 1_555
C30 N3 1_555 1_555
H19 C30 1_555 1_555
H20 C30 1_555 1_555
H21 C30 1_555 1_555
C5 C13 1_555 1_555
C10 C11 1_555 1_555
C12 C13 1_555 1_555
C21 C29 1_555 1_555
C26 C27 1_555 1_555
C27 C28 1_555 1_555
C28 C29 1_555 1_555

#END
