
#######################################################################
#
#                 Cambridge Crystallographic Data Centre
#                                CCDC 
#
#######################################################################
#
# If this CIF has been generated from an entry in the Cambridge 
# Structural Database, then it will include bibliographic, chemical, 
# crystal, experimental, refinement or atomic coordinate data resulting 
# from the CCDC's data processing and validation procedures.
#
#######################################################################

data_FAGSUB03
_chemical_formula_moiety         'C6 H9 N3'
_chemical_name_systematic        2,6-dimethylpyrimidin-4-amine
_symmetry_cell_setting           monoclinic
_symmetry_space_group_name_H-M   'P 21/n'
_symmetry_Int_Tables_number      14
_space_group_name_Hall           '-P 2yn'
loop_
_symmetry_equiv_pos_site_id
_symmetry_equiv_pos_as_xyz
1 x,y,z
2 1/2-x,1/2+y,1/2-z
3 -x,-y,-z
4 1/2+x,1/2-y,1/2+z
_cell_length_a                   7.4331(5)
_cell_length_b                   7.7243(3)
_cell_length_c                   11.7333(7)
_cell_angle_alpha                90
_cell_angle_beta                 98.979(5)
_cell_angle_gamma                90
_cell_volume                     665.418
_exptl_crystal_colour            colorless
_exptl_crystal_description       block
_cell_formula_units_Z            4
loop_
_atom_site_label
_atom_site_type_symbol
_atom_site_fract_x
_atom_site_fract_y
_atom_site_fract_z
N1 N 0.22582(9) 0.43810(10) 0.58456(6)
N2 N 0.52270(10) 0.35682(10) 0.67951(6)
N3 N 0.11312(11) 0.34352(13) 0.40166(7)
H1 H 0.014(2) 0.405(2) 0.4090(12)
H2 H 0.1227(19) 0.2795(19) 0.3405(13)
C1 C 0.25205(11) 0.34739(11) 0.48995(7)
C2 C 0.36205(11) 0.43631(11) 0.67435(7)
C3 C 0.55066(11) 0.27053(11) 0.58258(8)
C4 C 0.41904(12) 0.26145(12) 0.48626(8)
H3 H 0.439675 0.199535 0.419544
C5 C 0.32833(14) 0.53400(16) 0.77971(8)
H4 H 0.402596 0.484263 0.848244
H5 H 0.199194 0.525559 0.787336
H6 H 0.361193 0.655885 0.772271
C6 C 0.73389(13) 0.18584(14) 0.58834(9)
H7 H 0.828837 0.274952 0.595672
H8 H 0.737080 0.118784 0.517777
H9 H 0.755223 0.108542 0.655322
loop_
_geom_bond_atom_site_label_1
_geom_bond_atom_site_label_2
_geom_bond_site_symmetry_1
_geom_bond_site_symmetry_2
N1 C1 1_555 1_555
N2 C2 1_555 1_555
N3 H1 1_555 1_555
H2 N3 1_555 1_555
C1 N3 1_555 1_555
C2 N1 1_555 1_555
C3 N2 1_555 1_555
C4 C1 1_555 1_555
H3 C4 1_555 1_555
C5 C2 1_555 1_555
H4 C5 1_555 1_555
H5 C5 1_555 1_555
H6 C5 1_555 1_555
C6 C3 1_555 1_555
H7 C6 1_555 1_555
H8 C6 1_555 1_555
H9 C6 1_555 1_555
C3 C4 1_555 1_555

#END
