
#######################################################################
#
#                 Cambridge Crystallographic Data Centre
#                                CCDC 
#
#######################################################################
#
# If this CIF has been generated from an entry in the Cambridge 
# Structural Database, then it will include bibliographic, chemical, 
# crystal, experimental, refinement or atomic coordinate data resulting 
# from the CCDC's data processing and validation procedures.
#
#######################################################################

data_FAGSIP
_chemical_formula_moiety         'C21 H24 K1 N3 O11 S1'
_chemical_name_systematic        
trans-Aqua-isothiocyanato-(2,3:11,12-di(3-nitrobenzo)-18-crown-6)-potassium
_symmetry_cell_setting           triclinic
_symmetry_space_group_name_H-M   'P -1'
_symmetry_Int_Tables_number      2
_space_group_name_Hall           '-P 1'
loop_
_symmetry_equiv_pos_site_id
_symmetry_equiv_pos_as_xyz
1 x,y,z
2 -x,-y,-z
_cell_length_a                   7.844(4)
_cell_length_b                   11.978(8)
_cell_length_c                   14.436(11)
_cell_angle_alpha                75.62(6)
_cell_angle_beta                 80.15(5)
_cell_angle_gamma                71.46(5)
_cell_volume                     1239.38
_exptl_crystal_colour            'pale yellow'
_chemical_melting_point          248deg.C
_cell_formula_units_Z            2
loop_
_atom_site_label
_atom_site_type_symbol
_atom_site_fract_x
_atom_site_fract_y
_atom_site_fract_z
K1 K 0.6880(2) 0.3634(1) 0.7664(1)
S1 S 0.1281(2) 0.7579(1) 0.7153(1)
O1 O 0.8712(5) 0.1132(3) 0.8436(2)
O2 O 0.8802(4) 0.2033(3) 0.6383(2)
O3 O 0.7981(5) 0.4525(3) 0.5659(2)
O4 O 0.7182(5) 0.5981(3) 0.6820(2)
O5 O 0.7106(5) 0.5103(3) 0.8868(2)
O6 O 0.7918(5) 0.2567(3) 0.9602(2)
O7 O 0.7014(7) -0.2575(4) 1.0350(3)
O8 O 0.5531(6) -0.2041(4) 1.1643(3)
O9 O 0.3138(6) 0.9845(3) 0.5022(3)
O10 O 0.4122(7) 0.9751(3) 0.3531(3)
O11 O 1.0656(9) 0.3527(7) 0.7624(5)
N1 N 0.6497(7) -0.1866(4) 1.0891(3)
N2 N 0.4002(6) 0.9306(4) 0.4409(4)
N3 N 0.3246(7) 0.5151(4) 0.7537(4)
C1 C 0.9005(8) 0.0388(4) 0.7746(4)
C2 C 1.0006(7) 0.0928(4) 0.6859(4)
C3 C 0.9739(7) 0.2527(4) 0.5521(4)
C4 C 0.8484(7) 0.3686(4) 0.5025(3)
C5 C 0.6735(7) 0.6755(4) 0.7500(4)
C6 C 0.7779(8) 0.6093(5) 0.8349(4)
C7 C 0.8067(8) 0.4488(5) 0.9693(4)
C8 C 0.7395(8) 0.3433(4) 1.0216(4)
C9 C 0.8013(7) 0.0708(4) 0.9338(3)
C10 C 0.7575(7) 0.1485(4) 0.9982(4)
C11 C 0.6866(8) 0.1137(5) 1.0912(4)
C12 C 0.6524(8) 0.0018(5) 1.1230(4)
C13 C 0.6949(7) -0.0712(4) 1.0592(4)
C14 C 0.7696(7) -0.0415(4) 0.9645(4)
C15 C 0.7013(7) 0.5680(4) 0.5300(3)
C16 C 0.6547(7) 0.6465(4) 0.5944(3)
C17 C 0.5509(7) 0.7651(4) 0.5653(4)
C18 C 0.5079(7) 0.8042(4) 0.4717(4)
C19 C 0.5544(7) 0.7308(5) 0.4066(4)
C20 C 0.6504(7) 0.6096(4) 0.4374(4)
C21 C 0.2442(7) 0.6142(5) 0.7385(4)
loop_
_geom_bond_atom_site_label_1
_geom_bond_atom_site_label_2
_geom_bond_site_symmetry_1
_geom_bond_site_symmetry_2
K1 O1 1_555 1_555
S1 C21 1_555 1_555
O1 C1 1_555 1_555
O2 K1 1_555 1_555
O3 K1 1_555 1_555
O4 K1 1_555 1_555
O5 K1 1_555 1_555
O6 K1 1_555 1_555
O7 N1 1_555 1_555
O8 N1 1_555 1_555
O9 N2 1_555 1_555
O10 N2 1_555 1_555
O11 K1 1_555 1_555
N1 C13 1_555 1_555
N2 C18 1_555 1_555
N3 K1 1_555 1_555
C1 C2 1_555 1_555
C2 O2 1_555 1_555
C3 O2 1_555 1_555
C4 O3 1_555 1_555
C5 O4 1_555 1_555
C6 O5 1_555 1_555
C7 O5 1_555 1_555
C8 O6 1_555 1_555
C9 O1 1_555 1_555
C10 O6 1_555 1_555
C11 C10 1_555 1_555
C12 C11 1_555 1_555
C13 C12 1_555 1_555
C14 C9 1_555 1_555
C15 O3 1_555 1_555
C16 O4 1_555 1_555
C17 C16 1_555 1_555
C18 C17 1_555 1_555
C19 C18 1_555 1_555
C20 C15 1_555 1_555
C21 N3 1_555 1_555
C3 C4 1_555 1_555
C5 C6 1_555 1_555
C7 C8 1_555 1_555
C9 C10 1_555 1_555
C13 C14 1_555 1_555
C15 C16 1_555 1_555
C19 C20 1_555 1_555

#END
