
#######################################################################
#
#                 Cambridge Crystallographic Data Centre
#                                CCDC 
#
#######################################################################
#
# If this CIF has been generated from an entry in the Cambridge 
# Structural Database, then it will include bibliographic, chemical, 
# crystal, experimental, refinement or atomic coordinate data resulting 
# from the CCDC's data processing and validation procedures.
#
#######################################################################

data_FAGVIV
_chemical_formula_moiety         'C18 H19 N1 O3'
_chemical_name_systematic        
1-(2,3-dimethyl-2,3-dihydro-4H-1,4-benzoxazin-4-yl)-2-phenoxyethanone
_symmetry_cell_setting           triclinic
_symmetry_space_group_name_H-M   'P -1'
_symmetry_Int_Tables_number      2
_space_group_name_Hall           '-P 1'
loop_
_symmetry_equiv_pos_site_id
_symmetry_equiv_pos_as_xyz
1 x,y,z
2 -x,-y,-z
_cell_length_a                   7.9928(16)
_cell_length_b                   8.7582(18)
_cell_length_c                   11.692(2)
_cell_angle_alpha                97.00(3)
_cell_angle_beta                 105.63(3)
_cell_angle_gamma                99.16(3)
_cell_volume                     766.379
_exptl_crystal_colour            colorless
_exptl_crystal_description       block
_cell_formula_units_Z            2
loop_
_atom_site_label
_atom_site_type_symbol
_atom_site_fract_x
_atom_site_fract_y
_atom_site_fract_z
C1 C 0.73402(17) 0.88768(14) 0.81626(11)
C2 C 0.8639(2) 0.80820(18) 0.86811(13)
H1 H 0.9478 0.8537 0.9414
C3 C 0.8694(2) 0.66281(18) 0.81202(15)
H2 H 0.9564 0.6098 0.8473
C4 C 0.7453(2) 0.59560(17) 0.70313(14)
H3 H 0.7494 0.4974 0.6647
C5 C 0.61520(19) 0.67352(15) 0.65110(13)
H4 H 0.5319 0.6268 0.5778
C6 C 0.60637(16) 0.82082(14) 0.70634(10)
C7 C 0.44857(17) 1.03010(14) 0.74805(10)
H5 H 0.3781 1.0975 0.7035
C8 C 0.63274(17) 1.12660(14) 0.81166(11)
H6 H 0.6872 1.1589 0.7504
C9 C 0.3494(2) 0.96146(18) 0.83003(14)
H7 H 0.2332 0.9055 0.7826
H8 H 0.3391 1.0447 0.8876
H9 H 0.4133 0.8907 0.8717
C10 C 0.6412(2) 1.27184(17) 0.89931(13)
H10 H 0.5863 1.2425 0.9592
H11 H 0.5798 1.3431 0.8565
H12 H 0.7629 1.3221 0.9378
C11 C 0.36946(15) 0.87498(14) 0.54149(10)
C12 C 0.22318(16) 0.96946(15) 0.50855(11)
H13 H 0.1442 0.9519 0.5578
H14 H 0.2758 1.0805 0.5253
C13 C 0.00420(15) 0.78631(15) 0.34689(11)
C14 C -0.07090(18) 0.74728(17) 0.22288(12)
H15 H -0.0341 0.8114 0.1728
C15 C -0.1999(2) 0.6136(2) 0.17401(15)
H16 H -0.2493 0.5874 0.0908
C16 C -0.2561(2) 0.5189(2) 0.24712(18)
H17 H -0.3442 0.4293 0.2140
C17 C -0.1809(2) 0.55789(19) 0.36944(17)
H18 H -0.2188 0.4935 0.4190
C18 C -0.04983(19) 0.69087(17) 0.42111(14)
H19 H 0.0008 0.7153 0.5043
N1 N 0.46833(13) 0.90315(11) 0.65934(8)
O1 O 0.73933(13) 1.03161(11) 0.87973(8)
O2 O 0.39227(12) 0.78204(11) 0.46342(7)
O3 O 0.12514(11) 0.92528(11) 0.38537(7)
loop_
_geom_bond_atom_site_label_1
_geom_bond_atom_site_label_2
_geom_bond_site_symmetry_1
_geom_bond_site_symmetry_2
C1 C2 1_555 1_555
C2 H1 1_555 1_555
C3 C2 1_555 1_555
H2 C3 1_555 1_555
C4 C3 1_555 1_555
H3 C4 1_555 1_555
C5 C4 1_555 1_555
H4 C5 1_555 1_555
C6 C1 1_555 1_555
C7 H5 1_555 1_555
C8 C7 1_555 1_555
H6 C8 1_555 1_555
C9 C7 1_555 1_555
H7 C9 1_555 1_555
H8 C9 1_555 1_555
H9 C9 1_555 1_555
C10 C8 1_555 1_555
H10 C10 1_555 1_555
H11 C10 1_555 1_555
H12 C10 1_555 1_555
C11 C12 1_555 1_555
C12 H13 1_555 1_555
H14 C12 1_555 1_555
C13 C14 1_555 1_555
C14 H15 1_555 1_555
C15 C14 1_555 1_555
H16 C15 1_555 1_555
C16 C15 1_555 1_555
H17 C16 1_555 1_555
C17 C16 1_555 1_555
H18 C17 1_555 1_555
C18 C13 1_555 1_555
H19 C18 1_555 1_555
N1 C6 1_555 1_555
O1 C1 1_555 1_555
O2 C11 1_555 1_555
O3 C12 1_555 1_555
C5 C6 1_555 1_555
C7 N1 1_555 1_555
C8 O1 1_555 1_555
C11 N1 1_555 1_555
C13 O3 1_555 1_555
C17 C18 1_555 1_555

#END
