
#######################################################################
#
#                 Cambridge Crystallographic Data Centre
#                                CCDC 
#
#######################################################################
#
# If this CIF has been generated from an entry in the Cambridge 
# Structural Database, then it will include bibliographic, chemical, 
# crystal, experimental, refinement or atomic coordinate data resulting 
# from the CCDC's data processing and validation procedures.
#
#######################################################################

data_FAGWAO
_chemical_formula_moiety         'C24 H21 N3 O8'
_chemical_name_systematic        
'dimethyl 1-(4-methyl-3-nitrophenyl)-3-(2-oxo-2H-chromen-3-yl)-1,2,3,6-tetrahydropyrimidine-4,5-dicarboxylate'
_symmetry_cell_setting           triclinic
_symmetry_space_group_name_H-M   'P -1'
_symmetry_Int_Tables_number      2
_space_group_name_Hall           '-P 1'
loop_
_symmetry_equiv_pos_site_id
_symmetry_equiv_pos_as_xyz
1 x,y,z
2 -x,-y,-z
_cell_length_a                   9.3279(6)
_cell_length_b                   10.2240(7)
_cell_length_c                   14.0365(9)
_cell_angle_alpha                70.589(3)
_cell_angle_beta                 86.780(3)
_cell_angle_gamma                81.824(3)
_cell_volume                     1249.66
_exptl_crystal_colour            yellow
_exptl_crystal_description       Block
_chemical_melting_point          '383 K'
_cell_formula_units_Z            2
loop_
_atom_site_label
_atom_site_type_symbol
_atom_site_fract_x
_atom_site_fract_y
_atom_site_fract_z
O1 O 0.2436(4) 0.4866(4) 0.4927(3)
O2 O 0.0609(5) 0.6516(5) 0.4354(3)
O3 O 0.3015(4) 0.9177(4) 0.5553(3)
O4 O 0.3126(4) 0.8182(4) 0.7234(3)
O5 O -0.0798(5) 1.0657(4) 0.7798(3)
O6 O 0.1391(4) 1.0677(4) 0.7032(3)
O7 O -0.2121(16) 0.6345(14) 1.0551(7)
O8 O -0.339(3) 0.4484(12) 1.0965(7)
N1 N 0.0566(4) 0.7464(4) 0.6004(3)
N2 N -0.1816(4) 0.7500(4) 0.6790(3)
N3 N -0.235(3) 0.5402(13) 1.0393(6)
C1 C 0.3515(5) 0.4185(5) 0.5614(4)
C2 C 0.4449(7) 0.3140(6) 0.5413(5)
C3 C 0.5554(7) 0.2445(6) 0.6075(5)
C4 C 0.5737(6) 0.2811(6) 0.6918(6)
C5 C 0.4773(6) 0.3846(5) 0.7135(4)
C6 C 0.3633(5) 0.4565(5) 0.6473(4)
C7 C 0.2588(5) 0.5628(4) 0.6629(3)
C8 C 0.1571(5) 0.6335(4) 0.5936(3)
C9 C -0.1012(5) 0.7452(5) 0.5885(4)
C10 C -0.1712(5) 0.8861(5) 0.6904(5)
C11 C -0.0145(5) 0.9137(5) 0.6857(4)
C12 C 0.0886(5) 0.8396(4) 0.6454(3)
C13 C 0.2465(5) 0.8651(5) 0.6344(4)
C14 C 0.4626(6) 0.8467(9) 0.7169(7)
C15 C 0.0091(5) 1.0220(5) 0.7271(4)
C16 C 0.1730(7) 1.1630(6) 0.7517(6)
C17 C -0.1707(5) 0.6292(5) 0.7645(4)
C18 C -0.1422(6) 0.4949(5) 0.7577(4)
C19 C -0.1378(9) 0.3763(7) 0.8415(5)
C20 C -0.1606(12) 0.3830(8) 0.9408(6)
C21 C -0.1944(13) 0.5141(9) 0.9420(5)
C22 C -0.1958(9) 0.6360(7) 0.8599(5)
C23 C -0.1477(18) 0.2504(12) 1.0257(8)
C24 C 0.1474(5) 0.5960(5) 0.5024(4)
H1 H 0.4335 0.2907 0.4838
H2 H 0.6182 0.1724 0.5954
H3 H 0.6512 0.2360 0.7346
H4 H 0.4883 0.4061 0.7718
H5 H 0.2606 0.5841 0.7223
H6 H -0.1377 0.8252 0.5316
H7 H -0.1152 0.6611 0.5746
H8 H -0.2139 0.8879 0.7547
H9 H -0.2255 0.9596 0.6372
H10 H 0.4650 0.9459 0.6909
H11 H 0.5166 0.8034 0.6726
H12 H 0.5048 0.8096 0.7829
H13 H 0.1714 1.1186 0.8237
H14 H 0.1027 1.2452 0.7334
H15 H 0.2676 1.1888 0.7306
H16 H -0.1257 0.4850 0.6943
H17 H -0.1193 0.2892 0.8328
H18 H -0.2140 0.7225 0.8696
H19 H -0.2365 0.2436 1.0640
H20 H -0.0697 0.2476 1.0685
H21 H -0.1285 0.1734 1.0001
loop_
_geom_bond_atom_site_label_1
_geom_bond_atom_site_label_2
_geom_bond_site_symmetry_1
_geom_bond_site_symmetry_2
O1 C1 1_555 1_555
O2 C24 1_555 1_555
O3 C13 1_555 1_555
O4 C13 1_555 1_555
O5 C15 1_555 1_555
O6 C15 1_555 1_555
O7 N3 1_555 1_555
O8 N3 1_555 1_555
N1 C8 1_555 1_555
N2 C9 1_555 1_555
N3 C21 1_555 1_555
C1 C2 1_555 1_555
C2 C3 1_555 1_555
C3 C4 1_555 1_555
C4 C5 1_555 1_555
C5 C6 1_555 1_555
C6 C1 1_555 1_555
C7 C6 1_555 1_555
C8 C7 1_555 1_555
C9 N1 1_555 1_555
C10 N2 1_555 1_555
C11 C10 1_555 1_555
C12 N1 1_555 1_555
C13 C12 1_555 1_555
C14 O4 1_555 1_555
C15 C11 1_555 1_555
C16 O6 1_555 1_555
C17 N2 1_555 1_555
C18 C17 1_555 1_555
C19 C18 1_555 1_555
C20 C19 1_555 1_555
C21 C20 1_555 1_555
C22 C17 1_555 1_555
C23 C20 1_555 1_555
C24 O1 1_555 1_555
H1 C2 1_555 1_555
H2 C3 1_555 1_555
H3 C4 1_555 1_555
H4 C5 1_555 1_555
H5 C7 1_555 1_555
H6 C9 1_555 1_555
H7 C9 1_555 1_555
H8 C10 1_555 1_555
H9 C10 1_555 1_555
H10 C14 1_555 1_555
H11 C14 1_555 1_555
H12 C14 1_555 1_555
H13 C16 1_555 1_555
H14 C16 1_555 1_555
H15 C16 1_555 1_555
H16 C18 1_555 1_555
H17 C19 1_555 1_555
H18 C22 1_555 1_555
H19 C23 1_555 1_555
H20 C23 1_555 1_555
H21 C23 1_555 1_555
C8 C24 1_555 1_555
C11 C12 1_555 1_555
C21 C22 1_555 1_555

#END
