
#######################################################################
#
#                 Cambridge Crystallographic Data Centre
#                                CCDC 
#
#######################################################################
#
# If this CIF has been generated from an entry in the Cambridge 
# Structural Database, then it will include bibliographic, chemical, 
# crystal, experimental, refinement or atomic coordinate data resulting 
# from the CCDC's data processing and validation procedures.
#
#######################################################################

data_FAGXUI
_chemical_formula_moiety         
'6(C24 H14 N4),5(H2 O4 P1 1-),5(C2 H3 N1),5(C16 H36 N1 1+)'
_chemical_name_systematic        
"pentakis(Tetrabutylammonium) pentakis(dihydrogen phosphate) hexakis(5,6-dihydrodiindolo[3,2-a:2',3'-c]phenazine) acetonitrile solvate"
_symmetry_cell_setting           triclinic
_symmetry_space_group_name_H-M   'P 1'
_symmetry_Int_Tables_number      1
_space_group_name_Hall           'P 1'
loop_
_symmetry_equiv_pos_site_id
_symmetry_equiv_pos_as_xyz
1 x,y,z
_cell_length_a                   17.937(4)
_cell_length_b                   17.994(4)
_cell_length_c                   20.503(4)
_cell_angle_alpha                84.16(3)
_cell_angle_beta                 67.95(3)
_cell_angle_gamma                63.22(3)
_cell_volume                     5457.43
_cell_formula_units_Z            1
loop_
_atom_site_label
_atom_site_type_symbol
_atom_site_fract_x
_atom_site_fract_y
_atom_site_fract_z
P1 P 0.26876(18) 0.07611(18) 0.05026(15)
O1 O 0.1773(5) 0.1218(7) 0.0430(5)
O2 O 0.3417(5) 0.0367(6) -0.0246(5)
O3 O 0.2898(5) 0.1427(5) 0.0722(4)
O4 O 0.2723(10) 0.0114(7) 0.1000(6)
P2 P 0.2503(2) 0.1060(2) 0.26013(16)
O5 O 0.2504(6) 0.1656(5) 0.2025(4)
O6 O 0.2777(8) 0.0196(6) 0.2272(5)
O7 O 0.3277(5) 0.0879(6) 0.2852(5)
O8 O 0.1646(5) 0.1330(6) 0.3250(4)
P3 P 0.22164(17) 0.10979(17) 0.46917(14)
O9 O 0.2672(4) 0.1521(5) 0.4127(4)
O10 O 0.1683(5) 0.0818(5) 0.4413(4)
O11 O 0.1596(5) 0.1630(5) 0.5362(4)
O12 O 0.2922(5) 0.0256(4) 0.4839(4)
P4 P 0.28078(18) 0.0809(2) 0.65273(15)
O13 O 0.1899(4) 0.1511(5) 0.6514(4)
O14 O 0.3465(5) 0.0410(5) 0.5787(4)
O15 O 0.2603(5) 0.0097(5) 0.6966(5)
O16 O 0.3166(5) 0.1174(6) 0.6906(4)
P5 P 0.21352(17) 0.08371(18) 0.86739(14)
O17 O 0.2413(5) 0.1519(5) 0.8240(4)
O18 O 0.1767(5) 0.0500(5) 0.8284(4)
O19 O 0.1394(4) 0.1293(5) 0.9385(4)
O20 O 0.2958(4) 0.0147(4) 0.8775(4)
N1 N 0.0385(6) 0.3083(6) 0.3797(5)
H1 H 0.0770 0.2584 0.3613
N2 N -0.1152(6) 0.5994(7) 0.4240(6)
N3 N 0.0072(7) 0.6197(6) 0.2951(5)
N4 N 0.1714(6) 0.3336(6) 0.2339(5)
H2 H 0.1891 0.2805 0.2324
C1 C -0.0327(8) 0.3274(7) 0.4429(7)
C2 C -0.0600(8) 0.2752(8) 0.4902(7)
H13 H -0.0282 0.2174 0.4816
C3 C -0.1352(12) 0.3118(13) 0.5500(9)
H14 H -0.1552 0.2778 0.5817
C4 C -0.1836(9) 0.3999(10) 0.5651(7)
H15 H -0.2331 0.4220 0.6071
C5 C -0.1585(8) 0.4539(9) 0.5182(7)
H16 H -0.1908 0.5116 0.5279
C6 C -0.0841(8) 0.4186(8) 0.4572(6)
C7 C -0.0358(7) 0.4518(7) 0.3969(6)
C8 C -0.0463(7) 0.5323(7) 0.3787(6)
C9 C -0.1231(8) 0.6746(8) 0.4057(6)
C10 C -0.1967(9) 0.7494(8) 0.4513(8)
H17 H -0.2389 0.7444 0.4927
C11 C -0.2027(10) 0.8256(9) 0.4328(8)
H18 H -0.2487 0.8723 0.4628
C12 C -0.1431(8) 0.8369(8) 0.3709(7)
H19 H -0.1485 0.8903 0.3610
C13 C -0.0761(8) 0.7700(8) 0.3242(7)
H20 H -0.0397 0.7783 0.2808
C14 C -0.0627(7) 0.6882(7) 0.3424(7)
C15 C 0.0159(8) 0.5447(7) 0.3135(7)
C16 C 0.0854(7) 0.4746(7) 0.2682(6)
C17 C 0.1605(7) 0.4633(7) 0.2017(6)
C18 C 0.1920(8) 0.5184(9) 0.1607(7)
H21 H 0.1605 0.5758 0.1721
C19 C 0.2725(9) 0.4830(9) 0.1023(7)
H22 H 0.2971 0.5173 0.0761
C20 C 0.3171(9) 0.3974(8) 0.0823(7)
H23 H 0.3663 0.3770 0.0399
C21 C 0.2895(8) 0.3426(8) 0.1241(7)
H24 H 0.3228 0.2852 0.1126
C22 C 0.2112(8) 0.3745(8) 0.1835(7)
C23 C 0.0977(7) 0.3913(7) 0.2879(6)
C24 C 0.0397(7) 0.3780(7) 0.3504(6)
N5 N 0.2795(6) 0.8640(6) 0.9249(6)
H3 H 0.2694 0.9150 0.9180
N6 N 0.4195(7) 0.5707(7) 0.9085(6)
N7 N 0.5701(6) 0.5624(6) 0.7890(5)
N8 N 0.4448(6) 0.8550(6) 0.7904(6)
H4 H 0.4084 0.9074 0.8004
C25 C 0.2257(8) 0.8379(8) 0.9760(6)
C26 C 0.1397(7) 0.8866(8) 1.0269(8)
H25 H 0.1116 0.9444 1.0272
C27 C 0.0994(9) 0.8451(9) 1.0758(8)
H26 H 0.0452 0.8758 1.1123
C28 C 0.1389(8) 0.7546(10) 1.0721(7)
H27 H 0.1082 0.7279 1.1039
C29 C 0.2215(8) 0.7087(8) 1.0214(7)
H28 H 0.2471 0.6507 1.0190
C30 C 0.2669(7) 0.7482(9) 0.9739(7)
C31 C 0.3525(7) 0.7211(7) 0.9130(6)
C32 C 0.4236(7) 0.6407(7) 0.8822(7)
C33 C 0.4901(8) 0.4965(8) 0.8777(7)
C34 C 0.4849(9) 0.4239(8) 0.9034(8)
H29 H 0.4352 0.4263 0.9419
C35 C 0.5571(10) 0.3459(10) 0.8696(9)
H30 H 0.5562 0.2962 0.8866
C36 C 0.6309(13) 0.3446(12) 0.8094(13)
H31 H 0.6783 0.2931 0.7882
C37 C 0.6353(9) 0.4130(8) 0.7823(9)
H32 H 0.6840 0.4087 0.7419
C38 C 0.5645(7) 0.4950(7) 0.8153(7)
C39 C 0.4996(7) 0.6382(6) 0.8232(6)
C40 C 0.5003(7) 0.7145(8) 0.7944(6)
C41 C 0.5662(8) 0.7317(8) 0.7374(7)
C42 C 0.6516(8) 0.6834(8) 0.6893(7)
H33 H 0.6774 0.6255 0.6896
C43 C 0.6977(7) 0.7204(7) 0.6417(7)
H34 H 0.7543 0.6868 0.6090
C44 C 0.6627(9) 0.8092(9) 0.6397(7)
H35 H 0.6965 0.8331 0.6075
C45 C 0.5750(7) 0.8598(7) 0.6884(7)
H36 H 0.5492 0.9177 0.6891
C46 C 0.5299(8) 0.8199(8) 0.7342(7)
C47 C 0.4302(7) 0.7887(7) 0.8271(6)
C48 C 0.3538(7) 0.7945(7) 0.8853(8)
N9 N 0.9953(6) 0.0952(6) 0.8469(5)
H5 H 1.0485 0.0868 0.8414
N10 N 0.7023(6) 0.1225(6) 0.9429(5)
N11 N 0.7010(5) 0.1185(5) 1.0837(5)
N12 N 0.9932(6) 0.0937(6) 1.0026(5)
H6 H 1.0459 0.0887 0.9766
C49 C 0.9649(7) 0.1042(7) 0.7927(6)
C50 C 1.0092(8) 0.1013(8) 0.7222(6)
H37 H 1.0693 0.0907 0.7034
C51 C 0.9600(7) 0.1151(8) 0.6792(6)
H38 H 0.9882 0.1156 0.6308
C52 C 0.8700(7) 0.1283(8) 0.7054(7)
H39 H 0.8385 0.1404 0.6755
C53 C 0.8285(7) 0.1228(8) 0.7783(6)
H40 H 0.7712 0.1257 0.7963
C54 C 0.8755(6) 0.1127(6) 0.8238(6)
C55 C 0.8518(7) 0.1132(6) 0.8998(5)
C56 C 0.7732(6) 0.1163(7) 0.9567(6)
C57 C 0.6300(7) 0.1275(7) 0.9991(6)
C58 C 0.5530(7) 0.1353(8) 0.9901(7)
H41 H 0.5510 0.1399 0.9452
C59 C 0.4800(7) 0.1362(8) 1.0471(7)
H42 H 0.4317 0.1367 1.0398
C60 C 0.4787(8) 0.1364(10) 1.1161(8)
H43 H 0.4285 0.1392 1.1543
C61 C 0.5515(7) 0.1326(7) 1.1277(7)
H44 H 0.5495 0.1338 1.1736
C62 C 0.6295(7) 0.1270(7) 1.0695(6)
C63 C 0.7746(6) 0.1130(6) 1.0260(6)
C64 C 0.8523(7) 0.1039(7) 1.0369(6)
C65 C 0.8717(6) 0.1004(7) 1.1002(5)
C66 C 0.8217(7) 0.1044(7) 1.1725(6)
H45 H 0.7624 0.1129 1.1886
C67 C 0.8642(7) 0.0954(8) 1.2185(6)
H46 H 0.8344 0.0933 1.2663
C68 C 0.9528(7) 0.0891(7) 1.1951(6)
H47 H 0.9787 0.0847 1.2279
C69 C 1.0001(7) 0.0896(8) 1.1248(6)
H48 H 1.0577 0.0856 1.1094
C70 C 0.9584(7) 0.0962(7) 1.0764(6)
C71 C 0.9267(6) 0.1007(7) 0.9791(6)
C72 C 0.9279(7) 0.1016(7) 0.9119(6)
N13 N 0.5027(6) 0.0560(7) 0.5005(5)
H7 H 0.4503 0.0619 0.5282
N14 N 0.7901(7) 0.0406(6) 0.4159(6)
N15 N 0.7780(6) 0.0663(6) 0.5556(6)
N16 N 0.4941(6) 0.0770(6) 0.6545(5)
H8 H 0.4434 0.0784 0.6602
C73 C 0.5359(7) 0.0457(9) 0.4271(6)
C74 C 0.4959(8) 0.0442(9) 0.3790(6)
H49 H 0.4391 0.0464 0.3949
C75 C 0.5437(8) 0.0396(9) 0.3105(8)
H50 H 0.5166 0.0429 0.2788
C76 C 0.6320(8) 0.0301(9) 0.2830(7)
H51 H 0.6642 0.0194 0.2345
C77 C 0.6731(6) 0.0368(7) 0.3280(5)
H52 H 0.7281 0.0385 0.3100
C78 C 0.6261(7) 0.0406(7) 0.4016(6)
C79 C 0.6423(7) 0.0492(7) 0.4614(6)
C80 C 0.7174(6) 0.0508(7) 0.4709(5)
C81 C 0.8605(7) 0.0422(7) 0.4282(6)
C82 C 0.9395(7) 0.0262(7) 0.3701(7)
H53 H 0.9452 0.0134 0.3251
C83 C 1.0103(7) 0.0301(7) 0.3817(7)
H54 H 1.0629 0.0215 0.3435
C84 C 1.0035(8) 0.0462(7) 0.4478(8)
H55 H 1.0506 0.0502 0.4536
C85 C 0.9270(7) 0.0568(7) 0.5071(7)
H56 H 0.9248 0.0640 0.5521
C86 C 0.8515(7) 0.0563(8) 0.4976(7)
C87 C 0.7108(6) 0.0613(7) 0.5428(6)
C88 C 0.6326(7) 0.0703(9) 0.6017(7)
C89 C 0.6082(7) 0.0775(7) 0.6763(7)
C90 C 0.6517(7) 0.0826(8) 0.7203(6)
H57 H 0.7089 0.0799 0.7012
C91 C 0.6040(8) 0.0918(9) 0.7941(7)
H58 H 0.6300 0.0963 0.8242
C92 C 0.5184(8) 0.0944(8) 0.8230(7)
H59 H 0.4894 0.0995 0.8718
C93 C 0.4766(8) 0.0895(7) 0.7811(6)
H60 H 0.4205 0.0900 0.8010
C94 C 0.5191(7) 0.0838(7) 0.7085(6)
C95 C 0.5592(6) 0.0678(7) 0.5922(7)
C96 C 0.5674(7) 0.0553(7) 0.5216(6)
N17 N 0.4588(6) 0.8566(7) -0.0257(7)
H9 H 0.4199 0.9080 -0.0131
N18 N 0.6032(6) 0.5659(6) -0.0437(6)
N19 N 0.4583(6) 0.5596(6) 0.0767(6)
N20 N 0.2981(6) 0.8492(6) 0.1064(6)
H10 H 0.2816 0.9018 0.1022
C97 C 0.5367(9) 0.8306(8) -0.0793(8)
C98 C 0.5768(10) 0.8738(10) -0.1292(9)
H61 H 0.5465 0.9318 -0.1258
C99 C 0.6543(12) 0.8365(11) -0.1802(9)
H62 H 0.6784 0.8679 -0.2120
C100 C 0.7053(10) 0.7430(10) -0.1880(8)
H63 H 0.7617 0.7162 -0.2235
C101 C 0.6667(8) 0.6968(8) -0.1411(7)
H64 H 0.6945 0.6387 -0.1460
C102 C 0.5838(7) 0.7423(7) -0.0861(7)
C103 C 0.5240(7) 0.7150(7) -0.0305(7)
C104 C 0.5305(7) 0.6353(7) -0.0076(6)
C105 C 0.6035(7) 0.4926(7) -0.0180(7)
C106 C 0.6824(8) 0.4149(8) -0.0556(8)
H65 H 0.7295 0.4160 -0.0949
C107 C 0.6838(10) 0.3413(9) -0.0303(10)
H66 H 0.7329 0.2917 -0.0539
C108 C 0.6165(8) 0.3364(8) 0.0283(9)
H67 H 0.6220 0.2845 0.0441
C109 C 0.5398(8) 0.4089(7) 0.0641(8)
H68 H 0.4939 0.4057 0.1033
C110 C 0.5334(7) 0.4863(7) 0.0400(7)
C111 C 0.4569(7) 0.6317(7) 0.0521(7)
C112 C 0.3803(8) 0.7084(7) 0.0884(7)
C113 C 0.2980(8) 0.7249(7) 0.1447(7)
C114 C 0.2562(9) 0.6777(9) 0.1872(7)
H69 H 0.2850 0.6197 0.1797
C115 C 0.1715(8) 0.7175(8) 0.2409(8)
H70 H 0.1455 0.6858 0.2702
C116 C 0.1234(9) 0.8088(8) 0.2510(7)
H71 H 0.0660 0.8350 0.2853
C117 C 0.1627(8) 0.8552(9) 0.2105(8)
H72 H 0.1328 0.9132 0.2170
C118 C 0.2498(8) 0.8141(8) 0.1581(7)
C119 C 0.3766(6) 0.7857(7) 0.0632(7)
C120 C 0.4497(7) 0.7901(7) 0.0062(7)
N21 N 0.2118(6) 0.3270(7) 0.4124(6)
H11 H 0.2211 0.2759 0.4183
N22 N 0.0935(6) 0.6164(6) 0.4379(5)
N23 N -0.0448(7) 0.6241(6) 0.5719(6)
N24 N 0.0629(6) 0.3327(6) 0.5582(6)
H12 H 0.0931 0.2804 0.5447
C121 C 0.2637(7) 0.3539(7) 0.3525(7)
C122 C 0.3388(8) 0.3057(8) 0.2947(7)
H73 H 0.3630 0.2478 0.2902
C123 C 0.3754(9) 0.3497(9) 0.2441(9)
H74 H 0.4256 0.3207 0.2040
C124 C 0.3382(8) 0.4373(9) 0.2521(7)
H75 H 0.3641 0.4647 0.2168
C125 C 0.2641(8) 0.4843(8) 0.3110(7)
H76 H 0.2406 0.5421 0.3156
C126 C 0.2259(7) 0.4414(6) 0.3631(6)
C127 C 0.1512(7) 0.4662(7) 0.4289(6)
C128 C 0.0860(7) 0.5457(7) 0.4667(6)
C129 C 0.0289(8) 0.6895(7) 0.4782(7)
C130 C 0.0326(8) 0.7669(8) 0.4515(7)
H77 H 0.0770 0.7651 0.4086
C131 C -0.0268(9) 0.8392(8) 0.4879(8)
H78 H -0.0233 0.8875 0.4696
C132 C -0.0961(9) 0.8464(8) 0.5544(8)
H79 H -0.1372 0.8984 0.5787
C133 C -0.1012(9) 0.7731(8) 0.5824(8)
H80 H -0.1444 0.7751 0.6261
C134 C -0.0376(8) 0.6960(7) 0.5413(7)
C135 C 0.0150(8) 0.5541(8) 0.5329(7)
C136 C 0.0130(6) 0.4758(6) 0.5604(6)
C137 C -0.0476(8) 0.4584(8) 0.6221(7)
C138 C -0.1257(8) 0.5087(8) 0.6792(7)
H81 H -0.1478 0.5664 0.6826
C139 C -0.1674(9) 0.4699(8) 0.7288(7)
H82 H -0.2196 0.5023 0.7662
C140 C -0.1343(9) 0.3809(9) 0.7260(8)
H83 H -0.1655 0.3568 0.7606
C141 C -0.0556(8) 0.3308(8) 0.6715(7)
H84 H -0.0330 0.2729 0.6694
C142 C -0.0110(8) 0.3697(8) 0.6196(6)
C143 C 0.0787(7) 0.3977(7) 0.5227(6)
C144 C 0.1453(7) 0.3934(6) 0.4590(6)
N25 N 0.7737(8) 0.8427(6) 0.9844(6)
C145 C 0.6872(9) 0.8438(9) 1.0329(8)
H85 H 0.7002 0.8011 1.0654
H86 H 0.6625 0.8280 1.0050
C146 C 0.6146(9) 0.9259(10) 1.0762(10)
H87 H 0.6159 0.9722 1.0479
H88 H 0.6269 0.9314 1.1172
C147 C 0.5202(11) 0.9296(11) 1.1006(12)
H89 H 0.4786 0.9780 1.1341
H90 H 0.5028 0.9397 1.0598
C148 C 0.5054(13) 0.8547(11) 1.1344(12)
H91 H 0.5151 0.8175 1.0985
H92 H 0.4449 0.8742 1.1682
H93 H 0.5468 0.8257 1.1578
C149 C 0.8061(10) 0.8862(9) 1.0196(8)
H94 H 0.7607 0.9438 1.0327
H95 H 0.8601 0.8870 0.9846
C150 C 0.8271(12) 0.8498(9) 1.0852(9)
H96 H 0.7746 0.8476 1.1213
H97 H 0.8757 0.7935 1.0731
C151 C 0.8540(12) 0.9056(11) 1.1127(12)
H98 H 0.8060 0.9622 1.1235
H99 H 0.9074 0.9067 1.0770
C152 C 0.8729(14) 0.8719(12) 1.1795(10)
H100 H 0.8231 0.8634 1.2122
H101 H 0.8810 0.9113 1.2010
H102 H 0.9265 0.8197 1.1673
C153 C 0.8470(9) 0.7531(8) 0.9628(10)
H103 H 0.9038 0.7546 0.9359
H104 H 0.8522 0.7257 1.0053
C154 C 0.8340(12) 0.7012(9) 0.9206(11)
H105 H 0.8379 0.7229 0.8748
H106 H 0.7746 0.7041 0.9442
C155 C 0.9055(12) 0.6095(9) 0.9107(12)
H107 H 0.9641 0.6058 0.8813
H108 H 0.9076 0.5906 0.9563
C156 C 0.8855(16) 0.5519(11) 0.8765(15)
H109 H 0.8247 0.5607 0.9021
H110 H 0.9261 0.4947 0.8775
H111 H 0.8932 0.5644 0.8284
C157 C 0.7550(9) 0.8892(9) 0.9229(7)
H112 H 0.7116 0.9469 0.9387
H113 H 0.7299 0.8644 0.9024
C158 C 0.8434(8) 0.8855(12) 0.8668(7)
H114 H 0.8617 0.9205 0.8837
H115 H 0.8907 0.8286 0.8584
C159 C 0.8283(11) 0.9158(13) 0.7984(9)
H116 H 0.7816 0.9730 0.8077
H117 H 0.8066 0.8821 0.7839
C160 C 0.9123(12) 0.9119(14) 0.7373(9)
H118 H 0.9443 0.9306 0.7548
H119 H 0.8948 0.9472 0.7021
H120 H 0.9506 0.8554 0.7169
N26 N 0.3227(8) 0.7755(7) 0.6592(6)
C161 C 0.2718(14) 0.8187(13) 0.7326(8)
H121 H 0.2586 0.8772 0.7297
H122 H 0.3098 0.7945 0.7600
C162 C 0.1832(11) 0.8123(13) 0.7712(8)
H123 H 0.1422 0.8398 0.7465
H124 H 0.1945 0.7542 0.7739
C163 C 0.1429(12) 0.8554(12) 0.8455(7)
H125 H 0.1785 0.8213 0.8727
H126 H 0.1446 0.9088 0.8422
C164 C 0.0457(13) 0.8690(18) 0.8831(12)
H127 H 0.0060 0.9215 0.8721
H128 H 0.0313 0.8695 0.9332
H129 H 0.0388 0.8246 0.8677
C165 C 0.3517(12) 0.6827(7) 0.6644(10)
H130 H 0.3909 0.6550 0.6175
H131 H 0.2985 0.6739 0.6780
C166 C 0.4002(19) 0.6382(10) 0.7152(14)
H132 H 0.3583 0.6572 0.7635
H133 H 0.4486 0.6529 0.7073
C167 C 0.4393(15) 0.5423(10) 0.7049(15)
H134 H 0.4430 0.5164 0.7482
H135 H 0.4038 0.5265 0.6886
C168 C 0.5333(16) 0.519(3) 0.6480(18)
H136 H 0.5580 0.5518 0.6587
H137 H 0.5281 0.5314 0.6028
H138 H 0.5722 0.4608 0.6470
C169 C 0.2695(13) 0.7998(9) 0.6111(10)
H139 H 0.2213 0.7834 0.6309
H140 H 0.3088 0.7688 0.5654
C170 C 0.2286(13) 0.8943(9) 0.6004(10)
H141 H 0.1858 0.9261 0.6451
H142 H 0.2757 0.9123 0.5820
C171 C 0.1813(15) 0.9092(16) 0.5479(11)
H143 H 0.1628 0.9666 0.5356
H144 H 0.2237 0.8732 0.5050
C172 C 0.0986(12) 0.8921(14) 0.5775(15)
H145 H 0.1178 0.8330 0.5753
H146 H 0.0616 0.9177 0.5500
H147 H 0.0647 0.9150 0.6257
C173 C 0.3996(11) 0.7981(14) 0.6303(9)
H148 H 0.4315 0.7825 0.6624
H149 H 0.3759 0.8581 0.6279
C174 C 0.4659(13) 0.755(2) 0.5565(9)
H150 H 0.4800 0.6959 0.5567
H151 H 0.4370 0.7786 0.5227
C175 C 0.5536(15) 0.7629(11) 0.5321(15)
H152 H 0.5953 0.7293 0.4879
H153 H 0.5812 0.7427 0.5670
C176 C 0.5332(10) 0.8549(8) 0.5223(11)
H154 H 0.4965 0.8773 0.4943
H155 H 0.5885 0.8589 0.4987
H156 H 0.5018 0.8859 0.5676
N27 N 0.4817(7) 0.5668(7) 0.2898(8)
C177 C 0.4040(10) 0.6252(8) 0.2686(9)
H157 H 0.3548 0.6110 0.2930
H158 H 0.4222 0.6124 0.2186
C178 C 0.3656(11) 0.7208(8) 0.2806(11)
H159 H 0.4106 0.7335 0.2852
H160 H 0.3529 0.7466 0.2397
C179 C 0.2795(14) 0.7585(12) 0.3466(13)
H161 H 0.2930 0.7358 0.3880
H162 H 0.2358 0.7425 0.3437
C180 C 0.2378(14) 0.8548(11) 0.3552(10)
H163 H 0.2820 0.8711 0.3552
H164 H 0.1872 0.8753 0.3991
H165 H 0.2185 0.8779 0.3168
C181 C 0.5619(10) 0.5846(13) 0.2536(9)
H166 H 0.6132 0.5401 0.2617
H167 H 0.5495 0.6359 0.2761
C182 C 0.5889(11) 0.5933(12) 0.1731(8)
H168 H 0.5970 0.5447 0.1496
H169 H 0.5419 0.6423 0.1639
C183 C 0.6771(12) 0.6013(17) 0.1449(11)
H170 H 0.7225 0.5543 0.1576
H171 H 0.6675 0.6520 0.1666
C184 C 0.7110(18) 0.604(2) 0.0639(11)
H172 H 0.7438 0.5481 0.0419
H173 H 0.7497 0.6309 0.0497
H174 H 0.6606 0.6348 0.0497
C185 C 0.5049(15) 0.4787(9) 0.2689(15)
H175 H 0.5301 0.4705 0.2177
H176 H 0.4496 0.4730 0.2849
C186 C 0.5714(16) 0.4084(13) 0.2976(13)
H177 H 0.6288 0.4104 0.2784
H178 H 0.5487 0.4180 0.3485
C187 C 0.5860(15) 0.3207(15) 0.2787(14)
H179 H 0.5286 0.3192 0.2936
H180 H 0.6158 0.3072 0.2280
C188 C 0.645(2) 0.257(2) 0.3166(18)
H181 H 0.7054 0.2494 0.2939
H182 H 0.6431 0.2048 0.3146
H183 H 0.6217 0.2776 0.3650
C189 C 0.465(2) 0.568(4) 0.3674(10)
H184 H 0.4571 0.6209 0.3828
H185 H 0.5184 0.5245 0.3741
C190 C 0.3832(14) 0.5537(13) 0.4151(10)
H186 H 0.3972 0.4955 0.4091
H187 H 0.3326 0.5873 0.4009
C191 C 0.357(2) 0.577(3) 0.4936(12)
H188 H 0.3505 0.6334 0.4984
H189 H 0.4053 0.5395 0.5089
C192 C 0.269(3) 0.574(3) 0.542(2)
H190 H 0.2268 0.6278 0.5681
H191 H 0.2810 0.5324 0.5749
H192 H 0.2432 0.5609 0.5143
N28 N 0.1963(9) 0.3768(8) 0.7005(7)
C193 C 0.2311(13) 0.3155(11) 0.6398(8)
H193 H 0.1808 0.3144 0.6333
H194 H 0.2673 0.2602 0.6505
C194 C 0.2883(18) 0.3377(18) 0.5709(9)
H195 H 0.3340 0.3479 0.5771
H196 H 0.2516 0.3855 0.5518
C195 C 0.3294(17) 0.2558(14) 0.5250(15)
H197 H 0.3606 0.2077 0.5471
H198 H 0.2838 0.2485 0.5157
C196 C 0.3954(14) 0.2702(13) 0.4571(13)
H199 H 0.3641 0.3224 0.4403
H200 H 0.4201 0.2256 0.4217
H201 H 0.4431 0.2714 0.4670
C197 C 0.1472(11) 0.3487(11) 0.7690(8)
H202 H 0.1254 0.3904 0.8067
H203 H 0.1912 0.2973 0.7788
C198 C 0.0676(10) 0.3335(10) 0.7736(9)
H204 H 0.0880 0.2872 0.7405
H205 H 0.0229 0.3829 0.7623
C199 C 0.0269(10) 0.3133(10) 0.8498(10)
H206 H 0.0708 0.2614 0.8590
H207 H 0.0131 0.3572 0.8825
C200 C -0.0589(13) 0.3053(15) 0.8623(13)
H208 H -0.1021 0.3564 0.8525
H209 H -0.0836 0.2945 0.9105
H210 H -0.0449 0.2601 0.8316
C201 C 0.1360(16) 0.4574(12) 0.6802(12)
H211 H 0.0872 0.4501 0.6767
H212 H 0.1701 0.4663 0.6332
C202 C 0.094(2) 0.5374(15) 0.7274(18)
H213 H 0.1408 0.5524 0.7250
H214 H 0.0655 0.5286 0.7760
C203 C 0.0247(19) 0.608(2) 0.702(2)
H215 H 0.0206 0.5892 0.6615
H216 H -0.0343 0.6326 0.7395
C204 C 0.068(3) 0.668(3) 0.683(3)
H217 H 0.1314 0.6378 0.6582
H218 H 0.0560 0.6964 0.7255
H219 H 0.0414 0.7079 0.6537
C205 C 0.2692(13) 0.3903(16) 0.7085(12)
H220 H 0.2420 0.4299 0.7491
H221 H 0.2929 0.4163 0.6673
C206 C 0.3485(17) 0.3133(13) 0.718(3)
H222 H 0.3706 0.2708 0.6805
H223 H 0.3260 0.2919 0.7622
C207 C 0.4286(16) 0.326(2) 0.7161(15)
H224 H 0.4201 0.3754 0.6907
H225 H 0.4077 0.3453 0.7649
C208 C 0.5307(18) 0.285(4) 0.697(3)
H226 H 0.5578 0.3124 0.6596
H227 H 0.5561 0.2271 0.6820
H228 H 0.5420 0.2901 0.7380
N29 N 0.0226(6) 0.3714(6) 0.0829(5)
C209 C -0.0643(7) 0.3839(7) 0.0780(8)
H229 H -0.0776 0.4250 0.0443
H230 H -0.1121 0.4075 0.1236
C210 C -0.0673(7) 0.3060(7) 0.0563(8)
H231 H -0.0213 0.2822 0.0100
H232 H -0.0551 0.2642 0.0897
C211 C -0.1599(8) 0.3296(11) 0.0545(9)
H233 H -0.1771 0.3794 0.0292
H234 H -0.1560 0.2848 0.0288
C212 C -0.2330(11) 0.3460(16) 0.1282(11)
H235 H -0.2341 0.2944 0.1443
H236 H -0.2904 0.3843 0.1263
H237 H -0.2203 0.3697 0.1603
C213 C 0.0474(8) 0.3054(8) 0.1326(6)
H238 H 0.0970 0.3051 0.1415
H239 H 0.0689 0.2514 0.1092
C214 C -0.0281(8) 0.3150(9) 0.2041(7)
H240 H -0.0798 0.3193 0.1960
H241 H -0.0462 0.3663 0.2301
C215 C 0.0011(10) 0.2411(8) 0.2488(7)
H242 H 0.0504 0.2386 0.2595
H243 H 0.0223 0.1894 0.2220
C216 C -0.0777(10) 0.2501(11) 0.3182(7)
H244 H -0.0866 0.2907 0.3508
H245 H -0.0641 0.1972 0.3384
H246 H -0.1315 0.2678 0.3086
C217 C 0.0100(10) 0.4504(7) 0.1143(8)
H247 H 0.0626 0.4389 0.1245
H248 H -0.0415 0.4684 0.1585
C218 C -0.0046(11) 0.5213(8) 0.0648(9)
H249 H -0.0612 0.5381 0.0590
H250 H 0.0434 0.5020 0.0187
C219 C -0.0059(12) 0.5962(9) 0.0961(12)
H251 H 0.0503 0.5779 0.1029
H252 H -0.0090 0.6382 0.0621
C220 C -0.0835(18) 0.6365(13) 0.1661(10)
H253 H -0.1351 0.6780 0.1572
H254 H -0.0662 0.6624 0.1928
H255 H -0.0982 0.5945 0.1925
C221 C 0.0972(6) 0.3408(8) 0.0110(7)
H256 H 0.0782 0.3795 -0.0226
H257 H 0.1047 0.2872 -0.0029
C222 C 0.1886(7) 0.3310(9) 0.0051(7)
H258 H 0.2080 0.2937 0.0393
H259 H 0.1832 0.3849 0.0159
C223 C 0.2592(8) 0.2959(9) -0.0695(7)
H260 H 0.2689 0.2397 -0.0781
H261 H 0.2364 0.3299 -0.1038
C224 C 0.3493(8) 0.2942(11) -0.0799(10)
H262 H 0.3408 0.3503 -0.0753
H263 H 0.3919 0.2689 -0.1262
H264 H 0.3715 0.2625 -0.0450
N30 N 0.6774(10) 0.7869(11) 0.2099(8)
C225 C 0.6836(11) 0.7961(11) 0.2647(11)
C226 C 0.6906(11) 0.8046(12) 0.3287(9)
H265 H 0.7484 0.7638 0.3282
H266 H 0.6442 0.7962 0.3664
H267 H 0.6840 0.8596 0.3356
N31 N 0.5054(18) 0.7526(14) 0.3734(11)
C227 C 0.4658(16) 0.8223(18) 0.3563(9)
C228 C 0.4239(12) 0.9027(12) 0.3350(12)
H268 H 0.3979 0.9435 0.3738
H269 H 0.3775 0.9058 0.3207
H270 H 0.4675 0.9136 0.2962
N32 N 0.7728(17) 0.5032(17) 0.2679(12)
C229 C 0.7541(14) 0.5252(17) 0.3230(15)
C230 C 0.719(3) 0.553(3) 0.4029(19)
H271 H 0.7204 0.6041 0.4085
H272 H 0.7559 0.5099 0.4245
H273 H 0.6580 0.5600 0.4250
N33 N 0.6034(18) 0.4213(18) 0.4590(15)
C231 C 0.652(3) 0.3620(18) 0.466(3)
C232 C 0.7207(18) 0.2705(15) 0.4788(16)
H274 H 0.6982 0.2606 0.5276
H275 H 0.7791 0.2677 0.4667
H276 H 0.7249 0.2289 0.4499
N34 N 0.237(3) 0.554(3) 0.923(2)
C233 C 0.192(2) 0.542(2) 0.891(2)
C234 C 0.150(2) 0.509(3) 0.877(2)
H277 H 0.1886 0.4751 0.8328
H278 H 0.0964 0.5516 0.8725
H279 H 0.1355 0.4741 0.9133
loop_
_geom_bond_atom_site_label_1
_geom_bond_atom_site_label_2
_geom_bond_site_symmetry_1
_geom_bond_site_symmetry_2
P1 O1 1_555 1_555
P2 O5 1_555 1_555
P3 O9 1_555 1_555
P4 O13 1_555 1_555
P5 O17 1_555 1_555
O2 P1 1_555 1_555
O3 P1 1_555 1_555
O4 P1 1_555 1_555
O6 P2 1_555 1_555
O7 P2 1_555 1_555
O8 P2 1_555 1_555
O10 P3 1_555 1_555
O11 P3 1_555 1_555
O12 P3 1_555 1_555
O14 P4 1_555 1_555
O15 P4 1_555 1_555
O16 P4 1_555 1_555
O18 P5 1_555 1_555
O19 P5 1_555 1_555
O20 P5 1_555 1_555
N1 H1 1_555 1_555
N2 C8 1_555 1_555
N3 C14 1_555 1_555
N4 H2 1_555 1_555
N5 H3 1_555 1_555
N6 C32 1_555 1_555
N7 C38 1_555 1_555
N8 H4 1_555 1_555
N9 H5 1_555 1_555
N10 C56 1_555 1_555
N11 C62 1_555 1_555
N12 H6 1_555 1_555
N13 H7 1_555 1_555
N14 C80 1_555 1_555
N15 C86 1_555 1_555
N16 H8 1_555 1_555
N17 H9 1_555 1_555
N18 C104 1_555 1_555
N19 C110 1_555 1_555
N20 H10 1_555 1_555
N21 H11 1_555 1_555
N22 C128 1_555 1_555
N23 C134 1_555 1_555
N24 H12 1_555 1_555
C1 N1 1_555 1_555
C2 C1 1_555 1_555
H13 C2 1_555 1_555
C3 C2 1_555 1_555
H14 C3 1_555 1_555
C4 C3 1_555 1_555
H15 C4 1_555 1_555
C5 C4 1_555 1_555
H16 C5 1_555 1_555
C6 C1 1_555 1_555
C7 C6 1_555 1_555
C8 C7 1_555 1_555
C9 N2 1_555 1_555
C10 C9 1_555 1_555
H17 C10 1_555 1_555
C11 C10 1_555 1_555
H18 C11 1_555 1_555
C12 C11 1_555 1_555
H19 C12 1_555 1_555
C13 C12 1_555 1_555
H20 C13 1_555 1_555
C14 C9 1_555 1_555
C15 N3 1_555 1_555
C16 C15 1_555 1_555
C17 C16 1_555 1_555
C18 C17 1_555 1_555
H21 C18 1_555 1_555
C19 C18 1_555 1_555
H22 C19 1_555 1_555
C20 C19 1_555 1_555
H23 C20 1_555 1_555
C21 C20 1_555 1_555
H24 C21 1_555 1_555
C22 N4 1_555 1_555
C23 N4 1_555 1_555
C24 N1 1_555 1_555
C25 N5 1_555 1_555
C26 C25 1_555 1_555
H25 C26 1_555 1_555
C27 C26 1_555 1_555
H26 C27 1_555 1_555
C28 C27 1_555 1_555
H27 C28 1_555 1_555
C29 C28 1_555 1_555
H28 C29 1_555 1_555
C30 C25 1_555 1_555
C31 C30 1_555 1_555
C32 C31 1_555 1_555
C33 N6 1_555 1_555
C34 C33 1_555 1_555
H29 C34 1_555 1_555
C35 C34 1_555 1_555
H30 C35 1_555 1_555
C36 C35 1_555 1_555
H31 C36 1_555 1_555
C37 C36 1_555 1_555
H32 C37 1_555 1_555
C38 C33 1_555 1_555
C39 N7 1_555 1_555
C40 C39 1_555 1_555
C41 C40 1_555 1_555
C42 C41 1_555 1_555
H33 C42 1_555 1_555
C43 C42 1_555 1_555
H34 C43 1_555 1_555
C44 C43 1_555 1_555
H35 C44 1_555 1_555
C45 C44 1_555 1_555
H36 C45 1_555 1_555
C46 N8 1_555 1_555
C47 N8 1_555 1_555
C48 N5 1_555 1_555
C49 N9 1_555 1_555
C50 C49 1_555 1_555
H37 C50 1_555 1_555
C51 C50 1_555 1_555
H38 C51 1_555 1_555
C52 C51 1_555 1_555
H39 C52 1_555 1_555
C53 C52 1_555 1_555
H40 C53 1_555 1_555
C54 C49 1_555 1_555
C55 C54 1_555 1_555
C56 C55 1_555 1_555
C57 N10 1_555 1_555
C58 C57 1_555 1_555
H41 C58 1_555 1_555
C59 C58 1_555 1_555
H42 C59 1_555 1_555
C60 C59 1_555 1_555
H43 C60 1_555 1_555
C61 C60 1_555 1_555
H44 C61 1_555 1_555
C62 C57 1_555 1_555
C63 N11 1_555 1_555
C64 C63 1_555 1_555
C65 C64 1_555 1_555
C66 C65 1_555 1_555
H45 C66 1_555 1_555
C67 C66 1_555 1_555
H46 C67 1_555 1_555
C68 C67 1_555 1_555
H47 C68 1_555 1_555
C69 C68 1_555 1_555
H48 C69 1_555 1_555
C70 N12 1_555 1_555
C71 N12 1_555 1_555
C72 N9 1_555 1_555
C73 N13 1_555 1_555
C74 C73 1_555 1_555
H49 C74 1_555 1_555
C75 C74 1_555 1_555
H50 C75 1_555 1_555
C76 C75 1_555 1_555
H51 C76 1_555 1_555
C77 C76 1_555 1_555
H52 C77 1_555 1_555
C78 C73 1_555 1_555
C79 C78 1_555 1_555
C80 C79 1_555 1_555
C81 N14 1_555 1_555
C82 C81 1_555 1_555
H53 C82 1_555 1_555
C83 C82 1_555 1_555
H54 C83 1_555 1_555
C84 C83 1_555 1_555
H55 C84 1_555 1_555
C85 C84 1_555 1_555
H56 C85 1_555 1_555
C86 C81 1_555 1_555
C87 N15 1_555 1_555
C88 C87 1_555 1_555
C89 C88 1_555 1_555
C90 C89 1_555 1_555
H57 C90 1_555 1_555
C91 C90 1_555 1_555
H58 C91 1_555 1_555
C92 C91 1_555 1_555
H59 C92 1_555 1_555
C93 C92 1_555 1_555
H60 C93 1_555 1_555
C94 N16 1_555 1_555
C95 N16 1_555 1_555
C96 N13 1_555 1_555
C97 N17 1_555 1_555
C98 C97 1_555 1_555
H61 C98 1_555 1_555
C99 C98 1_555 1_555
H62 C99 1_555 1_555
C100 C99 1_555 1_555
H63 C100 1_555 1_555
C101 C100 1_555 1_555
H64 C101 1_555 1_555
C102 C97 1_555 1_555
C103 C102 1_555 1_555
C104 C103 1_555 1_555
C105 N18 1_555 1_555
C106 C105 1_555 1_555
H65 C106 1_555 1_555
C107 C106 1_555 1_555
H66 C107 1_555 1_555
C108 C107 1_555 1_555
H67 C108 1_555 1_555
C109 C108 1_555 1_555
H68 C109 1_555 1_555
C110 C105 1_555 1_555
C111 N19 1_555 1_555
C112 C111 1_555 1_555
C113 C112 1_555 1_555
C114 C113 1_555 1_555
H69 C114 1_555 1_555
C115 C114 1_555 1_555
H70 C115 1_555 1_555
C116 C115 1_555 1_555
H71 C116 1_555 1_555
C117 C116 1_555 1_555
H72 C117 1_555 1_555
C118 N20 1_555 1_555
C119 N20 1_555 1_555
C120 N17 1_555 1_555
C121 N21 1_555 1_555
C122 C121 1_555 1_555
H73 C122 1_555 1_555
C123 C122 1_555 1_555
H74 C123 1_555 1_555
C124 C123 1_555 1_555
H75 C124 1_555 1_555
C125 C124 1_555 1_555
H76 C125 1_555 1_555
C126 C121 1_555 1_555
C127 C126 1_555 1_555
C128 C127 1_555 1_555
C129 N22 1_555 1_555
C130 C129 1_555 1_555
H77 C130 1_555 1_555
C131 C130 1_555 1_555
H78 C131 1_555 1_555
C132 C131 1_555 1_555
H79 C132 1_555 1_555
C133 C132 1_555 1_555
H80 C133 1_555 1_555
C134 C129 1_555 1_555
C135 N23 1_555 1_555
C136 C135 1_555 1_555
C137 C136 1_555 1_555
C138 C137 1_555 1_555
H81 C138 1_555 1_555
C139 C138 1_555 1_555
H82 C139 1_555 1_555
C140 C139 1_555 1_555
H83 C140 1_555 1_555
C141 C140 1_555 1_555
H84 C141 1_555 1_555
C142 N24 1_555 1_555
C143 N24 1_555 1_555
C144 N21 1_555 1_555
N25 C145 1_555 1_555
N26 C161 1_555 1_555
N27 C177 1_555 1_555
N28 C193 1_555 1_555
N29 C209 1_555 1_555
N30 C225 1_555 1_555
N31 C227 1_555 1_555
N32 C229 1_555 1_555
N33 C231 1_555 1_555
N34 C233 1_555 1_555
C145 H85 1_555 1_555
H86 C145 1_555 1_555
C146 C145 1_555 1_555
H87 C146 1_555 1_555
H88 C146 1_555 1_555
C147 C146 1_555 1_555
H89 C147 1_555 1_555
H90 C147 1_555 1_555
C148 C147 1_555 1_555
H91 C148 1_555 1_555
H92 C148 1_555 1_555
H93 C148 1_555 1_555
C149 N25 1_555 1_555
H94 C149 1_555 1_555
H95 C149 1_555 1_555
C150 C149 1_555 1_555
H96 C150 1_555 1_555
H97 C150 1_555 1_555
C151 C150 1_555 1_555
H98 C151 1_555 1_555
H99 C151 1_555 1_555
C152 C151 1_555 1_555
H100 C152 1_555 1_555
H101 C152 1_555 1_555
H102 C152 1_555 1_555
C153 N25 1_555 1_555
H103 C153 1_555 1_555
H104 C153 1_555 1_555
C154 C153 1_555 1_555
H105 C154 1_555 1_555
H106 C154 1_555 1_555
C155 C154 1_555 1_555
H107 C155 1_555 1_555
H108 C155 1_555 1_555
C156 C155 1_555 1_555
H109 C156 1_555 1_555
H110 C156 1_555 1_555
H111 C156 1_555 1_555
C157 N25 1_555 1_555
H112 C157 1_555 1_555
H113 C157 1_555 1_555
C158 C157 1_555 1_555
H114 C158 1_555 1_555
H115 C158 1_555 1_555
C159 C158 1_555 1_555
H116 C159 1_555 1_555
H117 C159 1_555 1_555
C160 C159 1_555 1_555
H118 C160 1_555 1_555
H119 C160 1_555 1_555
H120 C160 1_555 1_555
C161 H121 1_555 1_555
H122 C161 1_555 1_555
C162 C161 1_555 1_555
H123 C162 1_555 1_555
H124 C162 1_555 1_555
C163 C162 1_555 1_555
H125 C163 1_555 1_555
H126 C163 1_555 1_555
C164 C163 1_555 1_555
H127 C164 1_555 1_555
H128 C164 1_555 1_555
H129 C164 1_555 1_555
C165 N26 1_555 1_555
H130 C165 1_555 1_555
H131 C165 1_555 1_555
C166 C165 1_555 1_555
H132 C166 1_555 1_555
H133 C166 1_555 1_555
C167 C166 1_555 1_555
H134 C167 1_555 1_555
H135 C167 1_555 1_555
C168 C167 1_555 1_555
H136 C168 1_555 1_555
H137 C168 1_555 1_555
H138 C168 1_555 1_555
C169 N26 1_555 1_555
H139 C169 1_555 1_555
H140 C169 1_555 1_555
C170 C169 1_555 1_555
H141 C170 1_555 1_555
H142 C170 1_555 1_555
C171 C170 1_555 1_555
H143 C171 1_555 1_555
H144 C171 1_555 1_555
C172 C171 1_555 1_555
H145 C172 1_555 1_555
H146 C172 1_555 1_555
H147 C172 1_555 1_555
C173 N26 1_555 1_555
H148 C173 1_555 1_555
H149 C173 1_555 1_555
C174 C173 1_555 1_555
H150 C174 1_555 1_555
H151 C174 1_555 1_555
C175 C174 1_555 1_555
H152 C175 1_555 1_555
H153 C175 1_555 1_555
C176 C175 1_555 1_555
H154 C176 1_555 1_555
H155 C176 1_555 1_555
H156 C176 1_555 1_555
C177 H157 1_555 1_555
H158 C177 1_555 1_555
C178 C177 1_555 1_555
H159 C178 1_555 1_555
H160 C178 1_555 1_555
C179 C178 1_555 1_555
H161 C179 1_555 1_555
H162 C179 1_555 1_555
C180 C179 1_555 1_555
H163 C180 1_555 1_555
H164 C180 1_555 1_555
H165 C180 1_555 1_555
C181 N27 1_555 1_555
H166 C181 1_555 1_555
H167 C181 1_555 1_555
C182 C181 1_555 1_555
H168 C182 1_555 1_555
H169 C182 1_555 1_555
C183 C182 1_555 1_555
H170 C183 1_555 1_555
H171 C183 1_555 1_555
C184 C183 1_555 1_555
H172 C184 1_555 1_555
H173 C184 1_555 1_555
H174 C184 1_555 1_555
C185 N27 1_555 1_555
H175 C185 1_555 1_555
H176 C185 1_555 1_555
C186 C185 1_555 1_555
H177 C186 1_555 1_555
H178 C186 1_555 1_555
C187 C186 1_555 1_555
H179 C187 1_555 1_555
H180 C187 1_555 1_555
C188 C187 1_555 1_555
H181 C188 1_555 1_555
H182 C188 1_555 1_555
H183 C188 1_555 1_555
C189 N27 1_555 1_555
H184 C189 1_555 1_555
H185 C189 1_555 1_555
C190 C189 1_555 1_555
H186 C190 1_555 1_555
H187 C190 1_555 1_555
C191 C190 1_555 1_555
H188 C191 1_555 1_555
H189 C191 1_555 1_555
C192 C191 1_555 1_555
H190 C192 1_555 1_555
H191 C192 1_555 1_555
H192 C192 1_555 1_555
C193 H193 1_555 1_555
H194 C193 1_555 1_555
C194 C193 1_555 1_555
H195 C194 1_555 1_555
H196 C194 1_555 1_555
C195 C194 1_555 1_555
H197 C195 1_555 1_555
H198 C195 1_555 1_555
C196 C195 1_555 1_555
H199 C196 1_555 1_555
H200 C196 1_555 1_555
H201 C196 1_555 1_555
C197 N28 1_555 1_555
H202 C197 1_555 1_555
H203 C197 1_555 1_555
C198 C197 1_555 1_555
H204 C198 1_555 1_555
H205 C198 1_555 1_555
C199 C198 1_555 1_555
H206 C199 1_555 1_555
H207 C199 1_555 1_555
C200 C199 1_555 1_555
H208 C200 1_555 1_555
H209 C200 1_555 1_555
H210 C200 1_555 1_555
C201 N28 1_555 1_555
H211 C201 1_555 1_555
H212 C201 1_555 1_555
C202 C201 1_555 1_555
H213 C202 1_555 1_555
H214 C202 1_555 1_555
C203 C202 1_555 1_555
H215 C203 1_555 1_555
H216 C203 1_555 1_555
C204 C203 1_555 1_555
H217 C204 1_555 1_555
H218 C204 1_555 1_555
H219 C204 1_555 1_555
C205 N28 1_555 1_555
H220 C205 1_555 1_555
H221 C205 1_555 1_555
C206 C205 1_555 1_555
H222 C206 1_555 1_555
H223 C206 1_555 1_555
C207 C206 1_555 1_555
H224 C207 1_555 1_555
H225 C207 1_555 1_555
C208 C207 1_555 1_555
H226 C208 1_555 1_555
H227 C208 1_555 1_555
H228 C208 1_555 1_555
C209 H229 1_555 1_555
H230 C209 1_555 1_555
C210 C209 1_555 1_555
H231 C210 1_555 1_555
H232 C210 1_555 1_555
C211 C210 1_555 1_555
H233 C211 1_555 1_555
H234 C211 1_555 1_555
C212 C211 1_555 1_555
H235 C212 1_555 1_555
H236 C212 1_555 1_555
H237 C212 1_555 1_555
C213 N29 1_555 1_555
H238 C213 1_555 1_555
H239 C213 1_555 1_555
C214 C213 1_555 1_555
H240 C214 1_555 1_555
H241 C214 1_555 1_555
C215 C214 1_555 1_555
H242 C215 1_555 1_555
H243 C215 1_555 1_555
C216 C215 1_555 1_555
H244 C216 1_555 1_555
H245 C216 1_555 1_555
H246 C216 1_555 1_555
C217 N29 1_555 1_555
H247 C217 1_555 1_555
H248 C217 1_555 1_555
C218 C217 1_555 1_555
H249 C218 1_555 1_555
H250 C218 1_555 1_555
C219 C218 1_555 1_555
H251 C219 1_555 1_555
H252 C219 1_555 1_555
C220 C219 1_555 1_555
H253 C220 1_555 1_555
H254 C220 1_555 1_555
H255 C220 1_555 1_555
C221 N29 1_555 1_555
H256 C221 1_555 1_555
H257 C221 1_555 1_555
C222 C221 1_555 1_555
H258 C222 1_555 1_555
H259 C222 1_555 1_555
C223 C222 1_555 1_555
H260 C223 1_555 1_555
H261 C223 1_555 1_555
C224 C223 1_555 1_555
H262 C224 1_555 1_555
H263 C224 1_555 1_555
H264 C224 1_555 1_555
C225 C226 1_555 1_555
C226 H265 1_555 1_555
H266 C226 1_555 1_555
H267 C226 1_555 1_555
C227 C228 1_555 1_555
C228 H268 1_555 1_555
H269 C228 1_555 1_555
H270 C228 1_555 1_555
C229 C230 1_555 1_555
C230 H271 1_555 1_555
H272 C230 1_555 1_555
H273 C230 1_555 1_555
C231 C232 1_555 1_555
C232 H274 1_555 1_555
H275 C232 1_555 1_555
H276 C232 1_555 1_555
C233 C234 1_555 1_555
C234 H277 1_555 1_555
H278 C234 1_555 1_555
H279 C234 1_555 1_555
C5 C6 1_555 1_555
C7 C24 1_555 1_555
C8 C15 1_555 1_555
C13 C14 1_555 1_555
C16 C23 1_555 1_555
C17 C22 1_555 1_555
C21 C22 1_555 1_555
C23 C24 1_555 1_555
C29 C30 1_555 1_555
C31 C48 1_555 1_555
C32 C39 1_555 1_555
C37 C38 1_555 1_555
C40 C47 1_555 1_555
C41 C46 1_555 1_555
C45 C46 1_555 1_555
C47 C48 1_555 1_555
C53 C54 1_555 1_555
C55 C72 1_555 1_555
C56 C63 1_555 1_555
C61 C62 1_555 1_555
C64 C71 1_555 1_555
C65 C70 1_555 1_555
C69 C70 1_555 1_555
C71 C72 1_555 1_555
C77 C78 1_555 1_555
C79 C96 1_555 1_555
C80 C87 1_555 1_555
C85 C86 1_555 1_555
C88 C95 1_555 1_555
C89 C94 1_555 1_555
C93 C94 1_555 1_555
C95 C96 1_555 1_555
C101 C102 1_555 1_555
C103 C120 1_555 1_555
C104 C111 1_555 1_555
C109 C110 1_555 1_555
C112 C119 1_555 1_555
C113 C118 1_555 1_555
C117 C118 1_555 1_555
C119 C120 1_555 1_555
C125 C126 1_555 1_555
C127 C144 1_555 1_555
C128 C135 1_555 1_555
C133 C134 1_555 1_555
C136 C143 1_555 1_555
C137 C142 1_555 1_555
C141 C142 1_555 1_555
C143 C144 1_555 1_555

#END
