
#######################################################################
#
#                 Cambridge Crystallographic Data Centre
#                                CCDC 
#
#######################################################################
#
# If this CIF has been generated from an entry in the Cambridge 
# Structural Database, then it will include bibliographic, chemical, 
# crystal, experimental, refinement or atomic coordinate data resulting 
# from the CCDC's data processing and validation procedures.
#
#######################################################################

data_FAGXOC
_chemical_formula_moiety         'C24 H14 N4,C4 H8 O2'
_chemical_name_systematic        
"5,6-dihydrodiindolo[3,2-a:2',3'-c]phenazine ethyl acetate solvate"
_symmetry_cell_setting           triclinic
_symmetry_space_group_name_H-M   'P -1'
_symmetry_Int_Tables_number      2
_space_group_name_Hall           '-P 1'
loop_
_symmetry_equiv_pos_site_id
_symmetry_equiv_pos_as_xyz
1 x,y,z
2 -x,-y,-z
_cell_length_a                   7.9968(16)
_cell_length_b                   11.764(2)
_cell_length_c                   11.929(2)
_cell_angle_alpha                74.18(3)
_cell_angle_beta                 88.87(3)
_cell_angle_gamma                89.89(3)
_cell_volume                     1079.49
_cell_formula_units_Z            2
_exptl_crystal_recrystallization_method 'ethyl acetate'
loop_
_atom_site_label
_atom_site_type_symbol
_atom_site_fract_x
_atom_site_fract_y
_atom_site_fract_z
N1 N 0.7296(2) 0.94825(16) -0.09867(17)
N2 N 0.4177(2) 0.67134(16) 0.17950(17)
N3 N 0.5001(2) 0.78070(15) 0.35834(17)
N4 N 0.8084(2) 1.07505(16) 0.09584(18)
C1 C 0.6651(3) 0.86505(19) -0.1498(2)
C2 C 0.6871(3) 0.8566(2) -0.2632(2)
H1 H 0.7506 0.9119 -0.3181
C3 C 0.6115(3) 0.7631(2) -0.2912(2)
H2 H 0.6233 0.7554 -0.3665
C4 C 0.5170(3) 0.6796(2) -0.2081(2)
H3 H 0.4682 0.6169 -0.2292
C5 C 0.4946(3) 0.6879(2) -0.0958(2)
H4 H 0.4311 0.6319 -0.0417
C6 C 0.5689(3) 0.78208(19) -0.0646(2)
C7 C 0.5767(3) 0.81935(19) 0.0410(2)
C8 C 0.5105(3) 0.76981(19) 0.1566(2)
C9 C 0.3643(3) 0.6262(2) 0.2926(2)
C10 C 0.2641(3) 0.5227(2) 0.3215(2)
H5 H 0.2339 0.4877 0.2637
C11 C 0.2118(3) 0.4742(2) 0.4340(2)
H6 H 0.1453 0.4066 0.4520
C12 C 0.2572(3) 0.5251(2) 0.5235(2)
H7 H 0.2224 0.4902 0.6000
C13 C 0.3520(3) 0.6256(2) 0.4978(2)
H8 H 0.3804 0.6592 0.5570
C14 C 0.4080(3) 0.67939(19) 0.3815(2)
C15 C 0.5494(3) 0.82679(19) 0.2473(2)
C16 C 0.6488(3) 0.93223(19) 0.2164(2)
C17 C 0.7111(3) 1.00831(19) 0.2833(2)
C18 C 0.6941(3) 1.0114(2) 0.3992(2)
H9 H 0.6290 0.9552 0.4519
C19 C 0.7750(3) 1.0988(2) 0.4345(2)
H10 H 0.7638 1.1014 0.5115
C20 C 0.8740(3) 1.1837(2) 0.3559(2)
H11 H 0.9283 1.2413 0.3820
C21 C 0.8927(3) 1.1836(2) 0.2409(2)
H12 H 0.9580 1.2403 0.1890
C22 C 0.8104(3) 1.09570(19) 0.2050(2)
C23 C 0.7111(3) 0.97788(19) 0.1027(2)
C24 C 0.6753(3) 0.92095(19) 0.0152(2)
H21 H 0.791(3) 1.0119(15) -0.134(2)
H22 H 0.854(3) 1.1202(19) 0.0286(14)
O1 O -0.0772(2) 0.16071(14) 0.85510(14)
O2 O 0.0811(2) 0.32314(13) 0.79192(14)
C25 C 0.0194(3) 0.2190(2) 0.6556(2)
H13 H -0.0147 0.1415 0.6532
H14 H 0.1340 0.2321 0.6299
H15 H -0.0498 0.2772 0.6054
C26 C 0.0019(3) 0.2287(2) 0.7771(2)
C27 C 0.0607(3) 0.3452(2) 0.9057(2)
H16 H 0.1001 0.2783 0.9664
H17 H -0.0562 0.3584 0.9215
C28 C 0.1630(3) 0.4539(2) 0.9015(3)
H18 H 0.2778 0.4401 0.8843
H19 H 0.1549 0.4712 0.9755
H20 H 0.1214 0.5196 0.8419
loop_
_geom_bond_atom_site_label_1
_geom_bond_atom_site_label_2
_geom_bond_site_symmetry_1
_geom_bond_site_symmetry_2
N1 C1 1_555 1_555
N2 C8 1_555 1_555
N3 C14 1_555 1_555
N4 C22 1_555 1_555
C1 C2 1_555 1_555
C2 H1 1_555 1_555
C3 C2 1_555 1_555
H2 C3 1_555 1_555
C4 C3 1_555 1_555
H3 C4 1_555 1_555
C5 C4 1_555 1_555
H4 C5 1_555 1_555
C6 C1 1_555 1_555
C7 C6 1_555 1_555
C8 C7 1_555 1_555
C9 N2 1_555 1_555
C10 C9 1_555 1_555
H5 C10 1_555 1_555
C11 C10 1_555 1_555
H6 C11 1_555 1_555
C12 C11 1_555 1_555
H7 C12 1_555 1_555
C13 C12 1_555 1_555
H8 C13 1_555 1_555
C14 C9 1_555 1_555
C15 N3 1_555 1_555
C16 C15 1_555 1_555
C17 C16 1_555 1_555
C18 C17 1_555 1_555
H9 C18 1_555 1_555
C19 C18 1_555 1_555
H10 C19 1_555 1_555
C20 C19 1_555 1_555
H11 C20 1_555 1_555
C21 C20 1_555 1_555
H12 C21 1_555 1_555
C22 C17 1_555 1_555
C23 N4 1_555 1_555
C24 N1 1_555 1_555
O1 C26 1_555 1_555
O2 C26 1_555 1_555
C25 H13 1_555 1_555
H14 C25 1_555 1_555
H15 C25 1_555 1_555
C26 C25 1_555 1_555
C27 O2 1_555 1_555
H16 C27 1_555 1_555
H17 C27 1_555 1_555
C28 C27 1_555 1_555
H18 C28 1_555 1_555
H19 C28 1_555 1_555
H20 C28 1_555 1_555
H21 N1 1_555 1_555
H22 N4 1_555 1_555
C5 C6 1_555 1_555
C7 C24 1_555 1_555
C8 C15 1_555 1_555
C13 C14 1_555 1_555
C16 C23 1_555 1_555
C21 C22 1_555 1_555
C23 C24 1_555 1_555

#END
