
#######################################################################
#
#                 Cambridge Crystallographic Data Centre
#                                CCDC 
#
#######################################################################
#
# If this CIF has been generated from an entry in the Cambridge 
# Structural Database, then it will include bibliographic, chemical, 
# crystal, experimental, refinement or atomic coordinate data resulting 
# from the CCDC's data processing and validation procedures.
#
#######################################################################

data_FAGYUJ
_chemical_formula_moiety         'C24 H14 N4,N1 O3 1-,C16 H36 N1 1+'
_chemical_name_systematic        
"Tetrabutylammonium nitrate 5,6-dihydrodiindolo[3,2-a:2',3'-c]phenazine"
_symmetry_cell_setting           tetragonal
_symmetry_space_group_name_H-M   'P 41'
_symmetry_Int_Tables_number      76
_space_group_name_Hall           'P 4w'
loop_
_symmetry_equiv_pos_site_id
_symmetry_equiv_pos_as_xyz
1 x,y,z
2 -x,-y,1/2+z
3 -y,x,1/4+z
4 y,-x,3/4+z
_cell_length_a                   11.2848(16)
_cell_length_b                   11.2848(16)
_cell_length_c                   27.542(6)
_cell_angle_alpha                90
_cell_angle_beta                 90
_cell_angle_gamma                90
_cell_volume                     3507.38
_cell_formula_units_Z            4
loop_
_atom_site_label
_atom_site_type_symbol
_atom_site_fract_x
_atom_site_fract_y
_atom_site_fract_z
O1 O 0.1242(3) 0.1239(3) 0.92383(14)
N5 N 0.0520(2) 0.0499(2) 0.92285(13)
O2 O -0.0217(2) 0.0412(2) 0.95971(11)
O3 O 0.0416(2) -0.0206(2) 0.88888(11)
C1 C 0.2312(3) 0.7765(3) 0.19837(12)
C2 C 0.1998(3) 0.8082(3) 0.27712(13)
C3 C 0.1540(3) 0.8543(4) 0.32270(14)
H1 H 0.0932 0.9098 0.3243
C4 C 0.2082(4) 0.8087(4) 0.36316(16)
H2 H 0.1846 0.8354 0.3936
C5 C 0.2988(4) 0.7226(4) 0.36024(15)
H3 H 0.3284 0.6892 0.3886
C6 C 0.3438(3) 0.6873(4) 0.31627(13)
H4 H 0.4086 0.6364 0.3150
C7 C 0.2933(3) 0.7270(3) 0.27500(12)
C8 C 0.3093(3) 0.7023(3) 0.22351(11)
C9 C 0.3899(2) 0.6231(3) 0.19892(12)
C10 C 0.5405(3) 0.4835(3) 0.19820(12)
C11 C 0.6250(3) 0.4226(3) 0.22176(13)
H5 H 0.6398 0.4384 0.2544
C12 C 0.6894(3) 0.3380(3) 0.19837(14)
H6 H 0.7477 0.2963 0.2150
C13 C 0.6672(3) 0.3135(3) 0.14821(13)
H7 H 0.7123 0.2577 0.1316
C14 C 0.5802(3) 0.3724(3) 0.12578(13)
H8 H 0.5618 0.3514 0.0940
C15 C 0.5143(2) 0.4655(2) 0.14780(12)
C16 C 0.3737(3) 0.6153(3) 0.14718(12)
C17 C 0.2955(3) 0.6892(3) 0.12194(11)
C18 C 0.2620(3) 0.7033(3) 0.07119(13)
C19 C 0.3126(4) 0.6563(3) 0.02795(14)
H9 H 0.3768 0.6047 0.0292
C20 C 0.2643(4) 0.6891(4) -0.01498(19)
H10 H 0.2871 0.6509 -0.0434
C21 C 0.1749(4) 0.7859(4) -0.01685(19)
H11 H 0.1393 0.8068 -0.0461
C22 C 0.1471(4) 0.8414(4) 0.02372(17)
H12 H 0.0992 0.9083 0.0220
C23 C 0.1866(3) 0.8038(3) 0.06918(13)
C24 C 0.2303(2) 0.7651(2) 0.14808(11)
N1 N 0.1638(2) 0.8429(3) 0.23277(10)
H85 H 0.1105 0.8951 0.2264
N2 N 0.4693(2) 0.5669(2) 0.22476(11)
N3 N 0.4382(2) 0.5297(2) 0.12279(10)
N4 N 0.1617(2) 0.8367(2) 0.11642(10)
H86 H 0.1130 0.8913 0.1251
C25 C 1.0631(5) 0.4339(3) 0.00130(13)
H13 H 1.0437 0.3761 -0.0235
H14 H 1.1487 0.4383 0.0037
C26 C 1.0138(6) 0.5560(4) -0.01365(11)
H15 H 1.0499 0.6178 0.0059
H16 H 0.9288 0.5585 -0.0086
C27 C 1.0429(5) 0.5756(4) -0.06778(11)
H17 H 1.0353 0.6590 -0.0758
H18 H 1.1238 0.5514 -0.0743
C28 C 0.9575(5) 0.5029(6) -0.09882(15)
H19 H 0.9739 0.5167 -0.1326
H20 H 0.8775 0.5260 -0.0917
H21 H 0.9676 0.4202 -0.0917
C29 C 0.9349(5) 0.4264(3) 0.09138(14)
H22 H 0.9437 0.3701 0.1178
H23 H 0.8522 0.4293 0.0818
C30 C 0.9795(6) 0.5491(4) 0.10623(11)
H24 H 1.0650 0.5524 0.1028
H25 H 0.9452 0.6087 0.0851
C31 C 0.9456(5) 0.5753(4) 0.15874(11)
H26 H 0.8645 0.5502 0.1644
H27 H 0.9501 0.6599 0.1645
C32 C 1.0283(5) 0.5106(6) 0.19383(14)
H28 H 1.0059 0.5285 0.2266
H29 H 1.1084 0.5360 0.1884
H30 H 1.0226 0.4267 0.1885
C33 C 0.8985(3) 0.3308(5) 0.04216(17)
H31 H 0.8412 0.3786 0.0597
H32 H 0.9069 0.2585 0.0609
C34 C 0.8332(3) 0.2924(5) -0.00384(12)
H33 H 0.8242 0.3597 -0.0255
H34 H 0.8788 0.2322 -0.0206
C35 C 0.7112(3) 0.2432(6) 0.00933(14)
H35 H 0.6914 0.1780 -0.0122
H36 H 0.6517 0.3045 0.0054
C36 C 0.7121(5) 0.1998(6) 0.06218(13)
H37 H 0.6353 0.1693 0.0704
H38 H 0.7313 0.2646 0.0833
H39 H 0.7702 0.1383 0.0658
C37 C 1.0623(3) 0.2707(4) 0.05459(16)
H40 H 1.1122 0.2473 0.0276
H41 H 1.0015 0.2116 0.0603
C38 C 1.1338(3) 0.3014(5) 0.10086(17)
H42 H 1.1198 0.3830 0.1103
H43 H 1.1104 0.2502 0.1275
C39 C 1.2655(3) 0.2824(4) 0.0884(3)
H44 H 1.3152 0.3163 0.1136
H45 H 1.2845 0.3207 0.0579
C40 C 1.2878(5) 0.1476(3) 0.0845(3)
H46 H 1.3693 0.1337 0.0764
H47 H 1.2378 0.1148 0.0598
H48 H 1.2701 0.1107 0.1151
N6 N 1.0129(2) 0.3938(2) 0.04907(9)
C41? C 0.9667(6) 0.4686(5) 0.00684(10)
H49? H 1.0002 0.5474 0.0097
H50? H 0.8815 0.4761 0.0103
C42? C 0.9929(6) 0.4225(5) -0.04480(10)
H51? H 1.0778 0.4195 -0.0500
H52? H 0.9616 0.3429 -0.0484
C43? C 0.9359(6) 0.5042(5) -0.08234(10)
H53? H 0.9697 0.5830 -0.0798
H54? H 0.8514 0.5100 -0.0763
C44? C 0.9578(9) 0.4544(7) -0.13373(11)
H55? H 0.9351 0.5124 -0.1575
H56? H 0.9115 0.3838 -0.1382
H57? H 1.0403 0.4359 -0.1375
C45? C 1.0481(6) 0.4751(5) 0.09037(10)
H58? H 1.0218 0.5549 0.0829
H59? H 1.1339 0.4767 0.0927
C46? C 0.9970(5) 0.4387(6) 0.13959(13)
H60? H 0.9974 0.3531 0.1424
H61? H 0.9157 0.4659 0.1422
C47? C 1.0718(6) 0.4934(6) 0.18069(10)
H62? H 1.0595 0.5785 0.1812
H63? H 1.1551 0.4790 0.1742
C48? C 1.0396(8) 0.4415(7) 0.23106(17)
H64? H 1.0911 0.4746 0.2553
H65? H 1.0489 0.3570 0.2304
H66? H 0.9589 0.4608 0.2387
C49? C 0.8840(3) 0.3710(3) 0.0478(2)
H67? H 0.8429 0.4288 0.0279
H68? H 0.8500 0.3705 0.0801
C50? C 0.8812(3) 0.2458(4) 0.0244(3)
H69? H 0.9089 0.1866 0.0472
H70? H 0.9313 0.2434 -0.0042
C51? C 0.7493(3) 0.2223(3) 0.0104(3)
H71? H 0.7429 0.2024 -0.0237
H72? H 0.7175 0.1572 0.0294
C52? C 0.6810(4) 0.3378(4) 0.0214(5)
H73? H 0.6000 0.3293 0.0113
H74? H 0.7169 0.4024 0.0042
H75? H 0.6835 0.3534 0.0557
C53? C 1.1379(3) 0.3598(4) 0.03988(16)
H76? H 1.1931 0.4245 0.0451
H77? H 1.1498 0.3251 0.0080
C54? C 1.1401(3) 0.2684(4) 0.08070(19)
H78? H 1.0879 0.2029 0.0727
H79? H 1.1121 0.3042 0.1106
C55? C 1.2671(3) 0.2225(4) 0.08771(18)
H80? H 1.3233 0.2853 0.0808
H81? H 1.2783 0.1972 0.1211
C56? C 1.2880(5) 0.1179(4) 0.0532(2)
H82? H 1.3678 0.0900 0.0568
H83? H 1.2754 0.1431 0.0203
H84? H 1.2338 0.0551 0.0609
loop_
_geom_bond_atom_site_label_1
_geom_bond_atom_site_label_2
_geom_bond_site_symmetry_1
_geom_bond_site_symmetry_2
O1 N5 1_555 1_555
C1 C8 1_555 1_555
C2 C3 1_555 1_555
C3 H1 1_555 1_555
C4 C3 1_555 1_555
H2 C4 1_555 1_555
C5 C4 1_555 1_555
H3 C5 1_555 1_555
C6 C5 1_555 1_555
H4 C6 1_555 1_555
C7 C2 1_555 1_555
C8 C7 1_555 1_555
C9 C8 1_555 1_555
C10 C11 1_555 1_555
C11 H5 1_555 1_555
C12 C11 1_555 1_555
H6 C12 1_555 1_555
C13 C12 1_555 1_555
H7 C13 1_555 1_555
C14 C13 1_555 1_555
H8 C14 1_555 1_555
C15 C10 1_555 1_555
C16 C9 1_555 1_555
C17 C16 1_555 1_555
C18 C17 1_555 1_555
C19 C18 1_555 1_555
H9 C19 1_555 1_555
C20 C19 1_555 1_555
H10 C20 1_555 1_555
C21 C20 1_555 1_555
H11 C21 1_555 1_555
C22 C21 1_555 1_555
H12 C22 1_555 1_555
C23 C18 1_555 1_555
C24 C1 1_555 1_555
C25 H13 1_555 1_555
H14 C25 1_555 1_555
C26 C25 1_555 1_555
H15 C26 1_555 1_555
H16 C26 1_555 1_555
C27 C26 1_555 1_555
H17 C27 1_555 1_555
H18 C27 1_555 1_555
C28 C27 1_555 1_555
H19 C28 1_555 1_555
H20 C28 1_555 1_555
H21 C28 1_555 1_555
C29 H22 1_555 1_555
H23 C29 1_555 1_555
C30 C29 1_555 1_555
H24 C30 1_555 1_555
H25 C30 1_555 1_555
C31 C30 1_555 1_555
H26 C31 1_555 1_555
H27 C31 1_555 1_555
C32 C31 1_555 1_555
H28 C32 1_555 1_555
H29 C32 1_555 1_555
H30 C32 1_555 1_555
C33 H31 1_555 1_555
H32 C33 1_555 1_555
C34 C33 1_555 1_555
H33 C34 1_555 1_555
H34 C34 1_555 1_555
C35 C34 1_555 1_555
H35 C35 1_555 1_555
H36 C35 1_555 1_555
C36 C35 1_555 1_555
H37 C36 1_555 1_555
H38 C36 1_555 1_555
H39 C36 1_555 1_555
C37 H40 1_555 1_555
H41 C37 1_555 1_555
C38 C37 1_555 1_555
H42 C38 1_555 1_555
H43 C38 1_555 1_555
C39 C38 1_555 1_555
H44 C39 1_555 1_555
H45 C39 1_555 1_555
C40 C39 1_555 1_555
H46 C40 1_555 1_555
H47 C40 1_555 1_555
H48 C40 1_555 1_555
N1 C1 1_555 1_555
H85 N1 1_555 1_555
N2 C9 1_555 1_555
N3 C15 1_555 1_555
N4 C23 1_555 1_555
H86 N4 1_555 1_555
N5 O2 1_555 1_555
N6 C25 1_555 1_555
O3 N5 1_555 1_555
C2 N1 1_555 1_555
C6 C7 1_555 1_555
C10 N2 1_555 1_555
C14 C15 1_555 1_555
C16 N3 1_555 1_555
C17 C24 1_555 1_555
C22 C23 1_555 1_555
C24 N4 1_555 1_555
C29 N6 1_555 1_555
C33 N6 1_555 1_555
C37 N6 1_555 1_555

#END
