
#######################################################################
#
#                 Cambridge Crystallographic Data Centre
#                                CCDC 
#
#######################################################################
#
# If this CIF has been generated from an entry in the Cambridge 
# Structural Database, then it will include bibliographic, chemical, 
# crystal, experimental, refinement or atomic coordinate data resulting 
# from the CCDC's data processing and validation procedures.
#
#######################################################################

data_FAGYAP
_chemical_formula_moiety         'C24 H14 N4,H1 O4 S1 1-,C16 H36 N1 1+'
_chemical_name_systematic        
"Tetrabutylammonium hydrogen sulfate 5,6-dihydrodiindolo[3,2-a:2',3'-c]phenazine"
_symmetry_cell_setting           monoclinic
_symmetry_space_group_name_H-M   'C 2/c'
_symmetry_Int_Tables_number      15
_space_group_name_Hall           '-C 2yn'
loop_
_symmetry_equiv_pos_site_id
_symmetry_equiv_pos_as_xyz
1 x,y,z
2 -x,y,1/2-z
3 1/2+x,1/2+y,z
4 1/2-x,1/2+y,1/2-z
5 -x,-y,-z
6 x,-y,1/2+z
7 1/2-x,1/2-y,-z
8 1/2+x,1/2-y,1/2+z
_cell_length_a                   41.692(8)
_cell_length_b                   8.3351(17)
_cell_length_c                   22.227(4)
_cell_angle_alpha                90
_cell_angle_beta                 95.70(3)
_cell_angle_gamma                90
_cell_volume                     7685.85
_cell_formula_units_Z            8
loop_
_atom_site_label
_atom_site_type_symbol
_atom_site_fract_x
_atom_site_fract_y
_atom_site_fract_z
C1 C 0.13674(7) 0.0372(4) 0.88686(13)
C2 C 0.15569(7) 0.0343(4) 0.98349(13)
C3 C 0.15928(9) 0.0184(4) 1.04600(14)
C4 C 0.18854(9) 0.0562(4) 1.07615(15)
C5 C 0.21397(10) 0.1076(5) 1.04507(15)
C6 C 0.21056(8) 0.1244(4) 0.98292(14)
C7 C 0.18089(7) 0.0889(4) 0.95122(12)
C8 C 0.16824(7) 0.0924(3) 0.88872(12)
C9 C 0.18137(7) 0.1415(4) 0.83450(12)
C10 C 0.22229(7) 0.2395(4) 0.78424(13)
C11 C 0.25448(8) 0.2947(5) 0.78437(16)
C12 C 0.26594(9) 0.3406(5) 0.73221(17)
C13 C 0.24641(10) 0.3347(5) 0.67784(17)
C14 C 0.21562(9) 0.2821(5) 0.67544(16)
C15 C 0.20263(7) 0.2307(4) 0.72906(13)
C16 C 0.16112(7) 0.1315(3) 0.77756(12)
C17 C 0.12893(7) 0.0730(4) 0.77774(12)
C18 C 0.10340(7) 0.0468(4) 0.73064(13)
C19 C 0.09991(9) 0.0670(4) 0.66802(14)
C20 C 0.07132(10) 0.0251(5) 0.63579(18)
C21 C 0.04595(11) -0.0351(6) 0.6652(2)
C22 C 0.04834(9) -0.0549(6) 0.72636(19)
C23 C 0.07721(7) -0.0146(4) 0.75872(14)
C24 C 0.11711(7) 0.0259(4) 0.83094(13)
H37 H 0.1102(5) -0.032(4) 0.9543(17)
H38 H 0.0731(7) -0.059(4) 0.8470(12)
H39 H 0.1408(8) -0.019(3) 1.0648(13)
H40 H 0.1914(8) 0.044(4) 1.1178(17)
H41 H 0.2353(9) 0.124(4) 1.0668(17)
H42 H 0.2281(8) 0.158(4) 0.9572(14)
H43 H 0.2674(8) 0.291(4) 0.8218(15)
H44 H 0.2896(11) 0.384(5) 0.7324(18)
H45 H 0.2540(9) 0.362(5) 0.6439(18)
H46 H 0.2030(8) 0.270(4) 0.6384(15)
H47 H 0.1174(8) 0.108(4) 0.6501(14)
H48 H 0.0708(8) 0.044(4) 0.5913(17)
H49 H 0.0291(11) -0.059(5) 0.6420(19)
H50 H 0.0338(9) -0.098(4) 0.7466(15)
N1 N 0.12926(6) 0.0020(3) 0.94357(11)
N2 N 0.08618(6) -0.0269(4) 0.81991(12)
N3 N 0.17200(6) 0.1769(3) 0.72572(10)
N4 N 0.21145(6) 0.1952(3) 0.83723(10)
C25 C 0.11955(10) 0.3588(5) 0.10733(19)
H1 H 0.1032 0.2798 0.1140
H2 H 0.1378 0.3016 0.0940
C26 C 0.13017(12) 0.4384(5) 0.1669(2)
H3 H 0.1452 0.5236 0.1601
H4 H 0.1115 0.4870 0.1825
C27 C 0.14544(15) 0.3288(6) 0.2125(3)
H5 H 0.1644 0.2841 0.1968
H6 H 0.1307 0.2407 0.2169
C28 C 0.15531(15) 0.3930(7) 0.2731(2)
H7 H 0.1743 0.4573 0.2718
H8 H 0.1598 0.3058 0.3009
H9 H 0.1383 0.4578 0.2861
C29 C 0.07672(10) 0.5610(5) 0.0749(2)
H10 H 0.0831 0.6193 0.1119
H11 H 0.0703 0.6395 0.0437
C30 C 0.04817(12) 0.4590(6) 0.0845(3)
H12 H 0.0551 0.3697 0.1106
H13 H 0.0392 0.4155 0.0460
C31 C 0.02220(15) 0.5518(9) 0.1127(3)
H14 H 0.0197 0.6562 0.0935
H15 H 0.0019 0.4951 0.1051
C32 C 0.0293(2) 0.5730(11) 0.1756(3)
H16 H 0.0262 0.4734 0.1959
H17 H 0.0152 0.6529 0.1896
H18 H 0.0512 0.6071 0.1841
C33 C 0.09609(11) 0.3672(5) 0.0011(2)
H19 H 0.1148 0.3086 -0.0095
H20 H 0.0804 0.2890 0.0118
C34 C 0.08185(14) 0.4587(7) -0.0540(2)
H21 H 0.0600 0.4903 -0.0478
H22 H 0.0943 0.5559 -0.0578
C35 C 0.08111(18) 0.3709(8) -0.1091(3)
H23 H 0.0676 0.2774 -0.1056
H24 H 0.1028 0.3324 -0.1130
C36 C 0.06955(18) 0.4553(10) -0.1659(3)
H25 H 0.0498 0.5105 -0.1606
H26 H 0.0658 0.3787 -0.1981
H27 H 0.0855 0.5313 -0.1757
C37 C 0.13103(10) 0.5907(5) 0.0425(2)
H28 H 0.1361 0.6572 0.0780
H29 H 0.1217 0.6598 0.0103
C38 C 0.16185(13) 0.5215(7) 0.0241(3)
H30 H 0.1754 0.4909 0.0603
H31 H 0.1568 0.4247 0.0008
C39 C 0.1799(2) 0.6271(8) -0.0110(5)
H32 H 0.1640 0.6802 -0.0392
H33 H 0.1886 0.7093 0.0168
C40 C 0.2052(3) 0.5827(10) -0.0450(5)
H34 H 0.2188 0.5061 -0.0227
H35 H 0.2176 0.6760 -0.0531
H36 H 0.1965 0.5358 -0.0826
N5 N 0.10611(7) 0.4698(3) 0.05646(14)
H51 H -0.0043(17) 0.138(8) 0.500(3)
O1 O 0.07241(6) 0.1134(4) 0.47943(13)
O2 O 0.03611(7) 0.0826(6) 0.39390(12)
O3 O 0.01803(6) 0.1876(3) 0.48411(12)
O4 O 0.03417(8) -0.0864(4) 0.4810(2)
S1 S 0.040398(18) 0.07526(11) 0.45677(4)
loop_
_geom_bond_atom_site_label_1
_geom_bond_atom_site_label_2
_geom_bond_site_symmetry_1
_geom_bond_site_symmetry_2
C1 C8 1_555 1_555
C2 C3 1_555 1_555
C3 C4 1_555 1_555
C4 C5 1_555 1_555
C5 C6 1_555 1_555
C6 C7 1_555 1_555
C7 C2 1_555 1_555
C8 C7 1_555 1_555
C9 C8 1_555 1_555
C10 C11 1_555 1_555
C11 C12 1_555 1_555
C12 C13 1_555 1_555
C13 C14 1_555 1_555
C14 C15 1_555 1_555
C15 C10 1_555 1_555
C16 C9 1_555 1_555
C17 C16 1_555 1_555
C18 C17 1_555 1_555
C19 C18 1_555 1_555
C20 C19 1_555 1_555
C21 C20 1_555 1_555
C22 C21 1_555 1_555
C23 C18 1_555 1_555
C24 C1 1_555 1_555
C25 H1 1_555 1_555
H2 C25 1_555 1_555
C26 C25 1_555 1_555
H3 C26 1_555 1_555
H4 C26 1_555 1_555
C27 C26 1_555 1_555
H5 C27 1_555 1_555
H6 C27 1_555 1_555
C28 C27 1_555 1_555
H7 C28 1_555 1_555
H8 C28 1_555 1_555
H9 C28 1_555 1_555
C29 H10 1_555 1_555
H11 C29 1_555 1_555
C30 C29 1_555 1_555
H12 C30 1_555 1_555
H13 C30 1_555 1_555
C31 C30 1_555 1_555
H14 C31 1_555 1_555
H15 C31 1_555 1_555
C32 C31 1_555 1_555
H16 C32 1_555 1_555
H17 C32 1_555 1_555
H18 C32 1_555 1_555
C33 H19 1_555 1_555
H20 C33 1_555 1_555
C34 C33 1_555 1_555
H21 C34 1_555 1_555
H22 C34 1_555 1_555
C35 C34 1_555 1_555
H23 C35 1_555 1_555
H24 C35 1_555 1_555
C36 C35 1_555 1_555
H25 C36 1_555 1_555
H26 C36 1_555 1_555
H27 C36 1_555 1_555
C37 H28 1_555 1_555
H29 C37 1_555 1_555
C38 C37 1_555 1_555
H30 C38 1_555 1_555
H31 C38 1_555 1_555
C39 C38 1_555 1_555
H32 C39 1_555 1_555
H33 C39 1_555 1_555
C40 C39 1_555 1_555
H34 C40 1_555 1_555
H35 C40 1_555 1_555
H36 C40 1_555 1_555
H37 N1 1_555 1_555
H38 N2 1_555 1_555
H39 C3 1_555 1_555
H40 C4 1_555 1_555
H41 C5 1_555 1_555
H42 C6 1_555 1_555
H43 C11 1_555 1_555
H44 C12 1_555 1_555
H45 C13 1_555 1_555
H46 C14 1_555 1_555
H47 C19 1_555 1_555
H48 C20 1_555 1_555
H49 C21 1_555 1_555
H50 C22 1_555 1_555
H51 O3 1_555 1_555
N1 C1 1_555 1_555
N2 C23 1_555 1_555
N3 C15 1_555 1_555
N4 C9 1_555 1_555
N5 C25 1_555 1_555
O1 S1 1_555 1_555
O2 S1 1_555 1_555
O3 S1 1_555 1_555
O4 S1 1_555 1_555
C2 N1 1_555 1_555
C10 N4 1_555 1_555
C16 N3 1_555 1_555
C17 C24 1_555 1_555
C22 C23 1_555 1_555
C24 N2 1_555 1_555
C29 N5 1_555 1_555
C33 N5 1_555 1_555
C37 N5 1_555 1_555

#END
