
#######################################################################
#
#                 Cambridge Crystallographic Data Centre
#                                CCDC 
#
#######################################################################
#
# If this CIF has been generated from an entry in the Cambridge 
# Structural Database, then it will include bibliographic, chemical, 
# crystal, experimental, refinement or atomic coordinate data resulting 
# from the CCDC's data processing and validation procedures.
#
#######################################################################

data_FAGYIX
_chemical_formula_moiety         'C24 H14 N4,C7 H5 O2 1-,C4 H8 O2,C16 H36 N1 1+'
_chemical_name_systematic        
"Tetrabutylammonium benzoate 5,6-dihydrodiindolo[3,2-a:2',3'-c]phenazine ethyl acetate solvate"
_symmetry_cell_setting           monoclinic
_symmetry_space_group_name_H-M   'P 21/c'
_symmetry_Int_Tables_number      14
_space_group_name_Hall           '-P 2ybc'
loop_
_symmetry_equiv_pos_site_id
_symmetry_equiv_pos_as_xyz
1 x,y,z
2 -x,1/2+y,1/2-z
3 -x,-y,-z
4 x,1/2-y,1/2+z
_cell_length_a                   13.965(3)
_cell_length_b                   20.364(4)
_cell_length_c                   15.881(3)
_cell_angle_alpha                90
_cell_angle_beta                 94.42(3)
_cell_angle_gamma                90
_cell_volume                     4502.86
_cell_formula_units_Z            4
loop_
_atom_site_label
_atom_site_type_symbol
_atom_site_fract_x
_atom_site_fract_y
_atom_site_fract_z
N1 N 0.3477(2) 0.08411(16) 0.2054(2)
H1 H 0.2993 0.0940 0.1710
N2 N 0.6578(2) 0.06702(17) 0.3343(2)
N3 N 0.7318(2) 0.14999(17) 0.2124(2)
N4 N 0.4255(2) 0.18771(17) 0.0806(2)
H2 H 0.3650 0.1855 0.0659
C1 C 0.3460(3) 0.0427(2) 0.2745(3)
C2 C 0.2687(3) 0.0089(2) 0.3049(3)
H3 H 0.2072 0.0118 0.2783
C3 C 0.2877(3) -0.0287(2) 0.3758(3)
H4 H 0.2376 -0.0517 0.3975
C4 C 0.3806(3) -0.0337(2) 0.4169(3)
H5 H 0.3907 -0.0599 0.4647
C5 C 0.4564(3) -0.0001(2) 0.3869(3)
H6 H 0.5175 -0.0031 0.4144
C6 C 0.4404(3) 0.03837(19) 0.3152(3)
C7 C 0.4991(3) 0.07917(19) 0.2656(3)
C8 C 0.6012(3) 0.0936(2) 0.2727(3)
C9 C 0.7536(3) 0.0813(2) 0.3362(3)
C10 C 0.8173(3) 0.0555(2) 0.4016(3)
H7 H 0.7928 0.0307 0.4442
C11 C 0.9135(3) 0.0662(2) 0.4035(4)
H8 H 0.9543 0.0486 0.4467
C12 C 0.9515(3) 0.1044(3) 0.3392(4)
H9 H 1.0174 0.1112 0.3401
C13 C 0.8919(3) 0.1314(3) 0.2758(4)
H10 H 0.9178 0.1562 0.2339
C14 C 0.7906(3) 0.1217(2) 0.2736(3)
C15 C 0.6389(3) 0.1381(2) 0.2116(3)
C16 C 0.5709(3) 0.16815(19) 0.1486(3)
C17 C 0.5834(3) 0.2171(2) 0.0855(3)
C18 C 0.6613(3) 0.2534(2) 0.0586(3)
H11 H 0.7231 0.2470 0.0834
C19 C 0.6437(3) 0.2985(2) -0.0053(3)
H12 H 0.6949 0.3225 -0.0236
C20 C 0.5522(3) 0.3094(2) -0.0435(3)
H13 H 0.5434 0.3407 -0.0860
C21 C 0.4737(3) 0.2743(2) -0.0189(3)
H14 H 0.4122 0.2816 -0.0438
C22 C 0.4912(3) 0.2277(2) 0.0449(3)
C23 C 0.4743(3) 0.15199(19) 0.1441(3)
C24 C 0.4389(3) 0.1065(2) 0.2014(3)
N5 N 0.3810(3) 0.1388(2) 0.7769(3)
C25 C 0.3729(3) 0.1326(3) 0.6815(4)
H15 H 0.4139 0.0968 0.6661
H16 H 0.3975 0.1726 0.6580
C26 C 0.2726(3) 0.1205(3) 0.6408(3)
H17 H 0.2311 0.1568 0.6539
H18 H 0.2468 0.0807 0.6639
C27 C 0.2735(4) 0.1138(3) 0.5444(4)
H19 H 0.3072 0.1511 0.5229
H20 H 0.3092 0.0746 0.5319
C28 C 0.1760(4) 0.1099(3) 0.4990(4)
H21 H 0.1821 0.1049 0.4396
H22 H 0.1411 0.1495 0.5088
H23 H 0.1421 0.0729 0.5195
C29 C 0.3050(3) 0.1836(2) 0.8080(4)
H24 H 0.3149 0.1867 0.8690
H25 H 0.2427 0.1634 0.7949
C30 C 0.3022(3) 0.2528(3) 0.7718(4)
H26 H 0.2994 0.2508 0.7106
H27 H 0.3601 0.2763 0.7915
C31 C 0.2144(4) 0.2890(2) 0.7994(4)
H28 H 0.2127 0.2850 0.8602
H29 H 0.2199 0.3353 0.7862
C32 C 0.1216(4) 0.2626(3) 0.7569(4)
H30 H 0.0683 0.2859 0.7772
H31 H 0.1159 0.2167 0.7695
H32 H 0.1216 0.2684 0.6969
C33 C 0.3544(9) 0.0622(6) 0.8256(6)
H33 H 0.2932 0.0478 0.7989
H34 H 0.4020 0.0311 0.8090
C34 C 0.3482(7) 0.0529(4) 0.9221(6)
H35 H 0.4109 0.0603 0.9514
H36 H 0.3038 0.0846 0.9427
C35 C 0.3142(7) -0.0166(4) 0.9401(5)
H37 H 0.3581 -0.0482 0.9184
H38 H 0.2512 -0.0237 0.9114
C36 C 0.3091(9) -0.0275(6) 1.0365(6)
H39 H 0.2880 -0.0715 1.0465
H40 H 0.2646 0.0032 1.0577
H41 H 0.3716 -0.0208 1.0649
C37 C 0.4789(5) 0.1508(5) 0.8258(8)
H42 H 0.4994 0.1949 0.8127
H43 H 0.4692 0.1498 0.8856
C38 C 0.5607(5) 0.1042(4) 0.8105(7)
H44 H 0.5618 0.0957 0.7505
H45 H 0.5510 0.0627 0.8387
C39 C 0.6573(5) 0.1346(5) 0.8447(6)
H46 H 0.6519 0.1518 0.9011
H47 H 0.7072 0.1014 0.8474
C40 C 0.6829(9) 0.1904(6) 0.7848(9)
H48 H 0.7405 0.2119 0.8074
H49 H 0.6312 0.2216 0.7796
H50 H 0.6929 0.1725 0.7303
O1 O 0.1891(2) 0.11259(18) 0.1108(2)
O2 O 0.2381(2) 0.19126(16) 0.0243(2)
C41 C 0.1741(3) 0.1575(3) 0.0552(3)
C42 C 0.0707(3) 0.1705(2) 0.0261(3)
C43 C 0.0470(3) 0.2119(2) -0.0400(3)
H51 H 0.0954 0.2323 -0.0674
C44 C -0.0480(3) 0.2239(3) -0.0668(4)
H52 H -0.0622 0.2514 -0.1128
C45 C -0.1204(3) 0.1964(3) -0.0275(4)
H53 H -0.1841 0.2040 -0.0465
C46 C -0.0973(3) 0.1568(3) 0.0414(4)
H54 H -0.1465 0.1393 0.0707
C47 C -0.0027(3) 0.1423(3) 0.0683(3)
H55 H 0.0114 0.1142 0.1137
O3 O 0.1123(3) 0.0709(3) 0.7869(4)
O4 O -0.0398(3) 0.0798(3) 0.7380(4)
C48 C -0.0085(5) 0.0384(4) 0.8715(5)
H56 H 0.0444 0.0266 0.9108
H57 H -0.0480 0.0005 0.8591
H58 H -0.0460 0.0720 0.8957
C49 C 0.0271(5) 0.0622(3) 0.7958(5)
C50 C -0.0257(5) 0.0946(6) 0.6539(5)
H59 H -0.0568 0.0619 0.6168
H60 H 0.0424 0.0946 0.6455
C51 C -0.0681(5) 0.1619(4) 0.6337(5)
H61 H -0.0580 0.1732 0.5763
H62 H -0.0374 0.1939 0.6711
H63 H -0.1357 0.1613 0.6408
C52? C 0.3793(9) 0.0801(6) 0.8034(6)
C53? C 0.3972(8) 0.0750(4) 0.9013(6)
C54? C 0.3873(9) 0.0024(5) 0.9245(7)
C55? C 0.3506(10) -0.0122(6) 1.0045(8)
C56? C 0.4790(5) 0.1806(5) 0.7888(6)
C57? C 0.5690(4) 0.1449(4) 0.7646(6)
C58? C 0.6568(5) 0.1853(6) 0.8022(9)
C59? C 0.7488(5) 0.1557(5) 0.7737(7)
H64? H 0.4280 0.0549 0.7773
H65? H 0.3173 0.0609 0.7861
H66? H 0.4610 0.0909 0.9195
H67? H 0.3505 0.1012 0.9286
H68? H 0.3456 -0.0184 0.8806
H69? H 0.4501 -0.0178 0.9236
H70? H 0.3492 -0.0589 1.0124
H71? H 0.2867 0.0051 1.0054
H72? H 0.3913 0.0075 1.0490
H73? H 0.4712 0.2202 0.7551
H74? H 0.4889 0.1939 0.8475
H75? H 0.5695 0.1422 0.7036
H76? H 0.5710 0.1007 0.7874
H77? H 0.6509 0.2305 0.7834
H78? H 0.6586 0.1849 0.8634
H79? H 0.8026 0.1820 0.7944
H80? H 0.7456 0.1545 0.7131
H81? H 0.7564 0.1119 0.7955
loop_
_geom_bond_atom_site_label_1
_geom_bond_atom_site_label_2
_geom_bond_site_symmetry_1
_geom_bond_site_symmetry_2
N1 H1 1_555 1_555
N2 C8 1_555 1_555
N3 C14 1_555 1_555
N4 H2 1_555 1_555
C1 N1 1_555 1_555
C2 C1 1_555 1_555
H3 C2 1_555 1_555
C3 C2 1_555 1_555
H4 C3 1_555 1_555
C4 C3 1_555 1_555
H5 C4 1_555 1_555
C5 C4 1_555 1_555
H6 C5 1_555 1_555
C6 C1 1_555 1_555
C7 C6 1_555 1_555
C8 C7 1_555 1_555
C9 N2 1_555 1_555
C10 C9 1_555 1_555
H7 C10 1_555 1_555
C11 C10 1_555 1_555
H8 C11 1_555 1_555
C12 C11 1_555 1_555
H9 C12 1_555 1_555
C13 C12 1_555 1_555
H10 C13 1_555 1_555
C14 C9 1_555 1_555
C15 N3 1_555 1_555
C16 C15 1_555 1_555
C17 C16 1_555 1_555
C18 C17 1_555 1_555
H11 C18 1_555 1_555
C19 C18 1_555 1_555
H12 C19 1_555 1_555
C20 C19 1_555 1_555
H13 C20 1_555 1_555
C21 C20 1_555 1_555
H14 C21 1_555 1_555
C22 N4 1_555 1_555
C23 N4 1_555 1_555
C24 N1 1_555 1_555
N5 C25 1_555 1_555
C25 H15 1_555 1_555
H16 C25 1_555 1_555
C26 C25 1_555 1_555
H17 C26 1_555 1_555
H18 C26 1_555 1_555
C27 C26 1_555 1_555
H19 C27 1_555 1_555
H20 C27 1_555 1_555
C28 C27 1_555 1_555
H21 C28 1_555 1_555
H22 C28 1_555 1_555
H23 C28 1_555 1_555
C29 N5 1_555 1_555
H24 C29 1_555 1_555
H25 C29 1_555 1_555
C30 C29 1_555 1_555
H26 C30 1_555 1_555
H27 C30 1_555 1_555
C31 C30 1_555 1_555
H28 C31 1_555 1_555
H29 C31 1_555 1_555
C32 C31 1_555 1_555
H30 C32 1_555 1_555
H31 C32 1_555 1_555
H32 C32 1_555 1_555
C33 N5 1_555 1_555
H33 C33 1_555 1_555
H34 C33 1_555 1_555
C34 C33 1_555 1_555
H35 C34 1_555 1_555
H36 C34 1_555 1_555
C35 C34 1_555 1_555
H37 C35 1_555 1_555
H38 C35 1_555 1_555
C36 C35 1_555 1_555
H39 C36 1_555 1_555
H40 C36 1_555 1_555
H41 C36 1_555 1_555
C37 N5 1_555 1_555
H42 C37 1_555 1_555
H43 C37 1_555 1_555
C38 C37 1_555 1_555
H44 C38 1_555 1_555
H45 C38 1_555 1_555
C39 C38 1_555 1_555
H46 C39 1_555 1_555
H47 C39 1_555 1_555
C40 C39 1_555 1_555
H48 C40 1_555 1_555
H49 C40 1_555 1_555
H50 C40 1_555 1_555
O1 C41 1_555 1_555
O2 C41 1_555 1_555
C41 C42 1_555 1_555
C42 C43 1_555 1_555
C43 H51 1_555 1_555
C44 C43 1_555 1_555
H52 C44 1_555 1_555
C45 C44 1_555 1_555
H53 C45 1_555 1_555
C46 C45 1_555 1_555
H54 C46 1_555 1_555
C47 C42 1_555 1_555
H55 C47 1_555 1_555
O3 C49 1_555 1_555
O4 C49 1_555 1_555
C48 H56 1_555 1_555
H57 C48 1_555 1_555
H58 C48 1_555 1_555
C49 C48 1_555 1_555
C50 O4 1_555 1_555
H59 C50 1_555 1_555
H60 C50 1_555 1_555
C51 C50 1_555 1_555
H61 C51 1_555 1_555
H62 C51 1_555 1_555
H63 C51 1_555 1_555
C5 C6 1_555 1_555
C7 C24 1_555 1_555
C8 C15 1_555 1_555
C13 C14 1_555 1_555
C16 C23 1_555 1_555
C17 C22 1_555 1_555
C21 C22 1_555 1_555
C23 C24 1_555 1_555
C46 C47 1_555 1_555

#END
