
#######################################################################
#
#                 Cambridge Crystallographic Data Centre
#                                CCDC 
#
#######################################################################
#
# If this CIF has been generated from an entry in the Cambridge 
# Structural Database, then it will include bibliographic, chemical, 
# crystal, experimental, refinement or atomic coordinate data resulting 
# from the CCDC's data processing and validation procedures.
#
#######################################################################

data_FAGZOE
_chemical_formula_moiety         'C3 H10 N1 O6 P2 1-,H3 O1 1+'
_chemical_name_systematic        
'Oxonium (1-ammoniopropane-1,1-diyl)bis(hydrogen phosphonate)'
_symmetry_cell_setting           monoclinic
_symmetry_space_group_name_H-M   'P 21/n'
_symmetry_Int_Tables_number      14
_space_group_name_Hall           '-P 2yn'
loop_
_symmetry_equiv_pos_site_id
_symmetry_equiv_pos_as_xyz
1 x,y,z
2 1/2-x,1/2+y,1/2-z
3 -x,-y,-z
4 1/2+x,1/2-y,1/2+z
_cell_length_a                   10.9976(9)
_cell_length_b                   6.9889(6)
_cell_length_c                   12.5997(10)
_cell_angle_alpha                90
_cell_angle_beta                 113.5640(10)
_cell_angle_gamma                90
_cell_volume                     887.674
_exptl_crystal_colour            colorless
_exptl_crystal_description       block
_cell_formula_units_Z            4
loop_
_atom_site_label
_atom_site_type_symbol
_atom_site_fract_x
_atom_site_fract_y
_atom_site_fract_z
C1 C 0.38949(14) 0.7210(2) 0.17252(12)
C2 C 0.44517(18) 0.8823(2) 0.12104(14)
H1 H 0.4165 0.8594 0.0387
H2 H 0.4064 1.0025 0.1302
C3 C 0.5959(2) 0.9037(3) 0.17398(19)
H3 H 0.6279 0.8987 0.2569
H4 H 0.6197 1.0242 0.1511
H5 H 0.6349 0.8016 0.1473
H6 H 0.281(2) 0.698(4) 0.354(2)
H7 H 0.592(2) 0.474(3) 0.111(2)
N1 N 0.23959(13) 0.74451(19) 0.12109(11)
H11 H 0.2184 0.8512 0.1482
H12 H 0.2027 0.6446 0.1406
H13 H 0.2099 0.7515 0.0443
O1 O 0.43101(12) 0.96082(17) 0.35107(10)
O2 O 0.57555(11) 0.65745(18) 0.39366(10)
O3 O 0.33604(12) 0.63802(17) 0.36012(10)
O4 O 0.37018(12) 0.33922(17) 0.19055(11)
O5 O 0.56852(11) 0.45308(19) 0.16182(10)
O6 O 0.34347(11) 0.47787(18) -0.00509(10)
P1 P 0.44452(4) 0.75146(5) 0.33203(3)
P2 P 0.41591(4) 0.48090(6) 0.12530(3)
H8 H 0.617(3) 0.286(5) 0.304(3)
H9 H 0.598(4) 0.382(6) 0.417(3)
H10 H 0.708(4) 0.187(5) 0.434(3)
O7 O 0.61750(16) 0.2514(2) 0.38661(15)
H14? H 0.540(4) 0.152(6) 0.375(3)
loop_
_geom_bond_atom_site_label_1
_geom_bond_atom_site_label_2
_geom_bond_site_symmetry_1
_geom_bond_site_symmetry_2
C1 C2 1_555 1_555
C2 H1 1_555 1_555
H2 C2 1_555 1_555
C3 C2 1_555 1_555
H3 C3 1_555 1_555
H4 C3 1_555 1_555
H5 C3 1_555 1_555
H6 O3 1_555 1_555
H7 O5 1_555 1_555
H8 O7 1_555 1_555
H9 O7 1_555 1_555
H10 O7 1_555 1_555
N1 C1 1_555 1_555
H11 N1 1_555 1_555
H12 N1 1_555 1_555
H13 N1 1_555 1_555
O1 P1 1_555 1_555
O2 P1 1_555 1_555
O3 P1 1_555 1_555
O4 P2 1_555 1_555
O5 P2 1_555 1_555
O6 P2 1_555 1_555
P1 C1 1_555 1_555
P2 C1 1_555 1_555

#END
