
#######################################################################
#
#                 Cambridge Crystallographic Data Centre
#                                CCDC 
#
#######################################################################
#
# If this CIF has been generated from an entry in the Cambridge 
# Structural Database, then it will include bibliographic, chemical, 
# crystal, experimental, refinement or atomic coordinate data resulting 
# from the CCDC's data processing and validation procedures.
#
#######################################################################

data_FAGZUK
_chemical_formula_moiety         'C3 H10 N1 O6 P2 1-,0.5(C2 H10 N2 2+)'
_chemical_name_systematic        
'hemikis(Ethylenediammonium) (1-ammoniopropane-1,1-diyl)bis(hydrogen phosphonate)'
_symmetry_cell_setting           triclinic
_symmetry_space_group_name_H-M   'P -1'
_symmetry_Int_Tables_number      2
_space_group_name_Hall           '-P 1'
loop_
_symmetry_equiv_pos_site_id
_symmetry_equiv_pos_as_xyz
1 x,y,z
2 -x,-y,-z
_cell_length_a                   5.6936(7)
_cell_length_b                   8.1718(10)
_cell_length_c                   10.6221(12)
_cell_angle_alpha                72.749(2)
_cell_angle_beta                 79.075(2)
_cell_angle_gamma                84.784(2)
_cell_volume                     463.11
_exptl_crystal_colour            colorless
_exptl_crystal_description       block
_cell_formula_units_Z            2
loop_
_atom_site_label
_atom_site_type_symbol
_atom_site_fract_x
_atom_site_fract_y
_atom_site_fract_z
C1 C 0.6284(3) 0.6251(2) 0.22676(15)
C2 C 0.6846(3) 0.7634(2) 0.09142(17)
H1 H 0.8268 0.7258 0.0394
H2 H 0.5533 0.7718 0.0432
C3 C 0.7245(3) 0.9416(2) 0.09985(19)
H3 H 0.5846 0.9811 0.1505
H4 H 0.7545 1.0193 0.0113
H5 H 0.8596 0.9367 0.1431
H8 H 0.481(5) 0.755(3) 0.4954(10)
H9 H 0.730(5) 0.455(4) 0.009(3)
N1 N 0.8491(2) 0.58805(18) 0.29180(14)
H10 H 0.9531 0.5224 0.2527
H11 H 0.8082 0.5338 0.3784
H12 H 0.9158 0.6862 0.2826
O1 O 0.2635(2) 0.53898(16) 0.44053(12)
O2 O 0.2152(2) 0.81655(15) 0.25823(12)
O3 O 0.5091(2) 0.79652(16) 0.41196(12)
O4 O 0.3107(2) 0.43997(16) 0.16427(12)
O5 O 0.5980(2) 0.27635(15) 0.32293(12)
O6 O 0.7572(2) 0.39668(17) 0.08395(13)
P1 P 0.37761(7) 0.69373(5) 0.34202(4)
P2 P 0.55599(7) 0.42109(5) 0.20264(4)
C4 C 0.0801(3) 0.0740(2) 0.45984(18)
H6 H 0.0329 0.1732 0.4924
H7 H 0.2450 0.0419 0.4705
N2 N 0.0593(3) 0.1170(2) 0.31646(16)
H13 H 0.1038 0.0259 0.2869
H14 H 0.1534 0.2033 0.2695
H15 H -0.0918 0.1477 0.3070
C4A C -0.0801(3) -0.0740(2) 0.54016(18)
H6A H -0.0329 -0.1732 0.5076
H7A H -0.2450 -0.0419 0.5295
N2A N -0.0593(3) -0.1170(2) 0.68354(16)
H13A H -0.1038 -0.0259 0.7131
H14A H -0.1534 -0.2033 0.7305
H15A H 0.0918 -0.1477 0.6930
loop_
_geom_bond_atom_site_label_1
_geom_bond_atom_site_label_2
_geom_bond_site_symmetry_1
_geom_bond_site_symmetry_2
C1 C2 1_555 1_555
C2 H1 1_555 1_555
H2 C2 1_555 1_555
C3 C2 1_555 1_555
H3 C3 1_555 1_555
H4 C3 1_555 1_555
H5 C3 1_555 1_555
C4 H6 1_555 1_555
H7 C4 1_555 1_555
H8 O3 1_555 1_555
H9 O6 1_555 1_555
N1 C1 1_555 1_555
H10 N1 1_555 1_555
H11 N1 1_555 1_555
H12 N1 1_555 1_555
N2 C4 1_555 1_555
H13 N2 1_555 1_555
H14 N2 1_555 1_555
H15 N2 1_555 1_555
O1 P1 1_555 1_555
O2 P1 1_555 1_555
O3 P1 1_555 1_555
O4 P2 1_555 1_555
O5 P2 1_555 1_555
O6 P2 1_555 1_555
P1 C1 1_555 1_555
P2 C1 1_555 1_555
C4A C4 1_555 1_555
H6A C4A 1_555 1_555
H7A C4A 1_555 1_555
N2A C4A 1_555 1_555
H13A N2A 1_555 1_555
H14A N2A 1_555 1_555
H15A N2A 1_555 1_555

#END
