
#######################################################################
#
#                 Cambridge Crystallographic Data Centre
#                                CCDC 
#
#######################################################################
#
# If this CIF has been generated from an entry in the Cambridge 
# Structural Database, then it will include bibliographic, chemical, 
# crystal, experimental, refinement or atomic coordinate data resulting 
# from the CCDC's data processing and validation procedures.
#
#######################################################################

data_FAHBUN
_chemical_formula_moiety         'C2 H8 N1 O6 P2 1-,0.5(C4 H12 N2 2+),3(H2 O1)'
_chemical_name_systematic        
'hemikis(Piperazine-1,4-diium) (1-ammonioethane-1,1-diyl)bis(hydrogen phosphonate) trihydrate'
_symmetry_cell_setting           monoclinic
_symmetry_space_group_name_H-M   'C 2/c'
_symmetry_Int_Tables_number      15
_space_group_name_Hall           '-C 2yn'
loop_
_symmetry_equiv_pos_site_id
_symmetry_equiv_pos_as_xyz
1 x,y,z
2 -x,y,1/2-z
3 1/2+x,1/2+y,z
4 1/2-x,1/2+y,1/2-z
5 -x,-y,-z
6 x,-y,1/2+z
7 1/2-x,1/2-y,-z
8 1/2+x,1/2-y,1/2+z
_cell_length_a                   19.629(8)
_cell_length_b                   6.963(3)
_cell_length_c                   20.786(11)
_cell_angle_alpha                90
_cell_angle_beta                 117.990(5)
_cell_angle_gamma                90
_cell_volume                     2508.65
_exptl_crystal_colour            colorless
_exptl_crystal_description       block
_cell_formula_units_Z            8
loop_
_atom_site_label
_atom_site_type_symbol
_atom_site_fract_x
_atom_site_fract_y
_atom_site_fract_z
C1 C 0.34775(9) 0.2254(2) 0.23617(8)
C2 C 0.40328(10) 0.3802(2) 0.23720(10)
H1 H 0.3832 0.5045 0.2392
H2 H 0.4089 0.3706 0.1938
H3 H 0.4526 0.3628 0.2792
H8 H 0.1848(19) 0.202(4) 0.2031(15)
H9 H 0.4978(10) -0.024(5) 0.3126(18)
N1 N 0.33998(8) 0.24482(19) 0.30484(7)
H16 H 0.3866 0.2445 0.3434
H17 H 0.3126 0.1468 0.3080
H18 H 0.3161 0.3546 0.3035
O1 O 0.19504(7) 0.14755(16) 0.17743(7)
O2 O 0.23476(7) 0.47172(16) 0.15246(6)
O3 O 0.25235(7) 0.16763(17) 0.09252(6)
O4 O 0.32698(7) -0.15809(16) 0.23063(6)
O5 O 0.45924(7) -0.03006(19) 0.31255(6)
O6 O 0.40737(7) -0.02281(18) 0.17578(6)
P1 P 0.38714(2) -0.01551(6) 0.23805(2)
P2 P 0.25168(2) 0.26064(5) 0.15688(2)
C3 C 0.31611(11) 0.6497(3) 0.05309(10)
H4 H 0.3002 0.5163 0.0435
H5 H 0.3682 0.6532 0.0932
C4 C 0.18440(11) 0.7643(3) 0.01346(10)
H6 H 0.1529 0.8419 0.0280
H7 H 0.1625 0.6362 0.0022
N2 N 0.26388(9) 0.7544(2) 0.07400(8)
H19 H 0.2634 0.6951 0.1123
H20 H 0.2819 0.8743 0.0879
C3F C 0.18389(11) 0.8503(3) -0.05309(10)
H4F H 0.1998 0.9837 -0.0435
H5F H 0.1318 0.8468 -0.0932
C4F C 0.31560(11) 0.7357(3) -0.01346(10)
H6F H 0.3471 0.6581 -0.0280
H7F H 0.3375 0.8638 -0.0022
N2F N 0.23612(9) 0.7456(2) -0.07400(8)
H19F H 0.2366 0.8049 -0.1123
H20F H 0.2181 0.6257 -0.0879
H10 H 0.4775(19) 0.773(4) 0.3962(16)
H11 H 0.483(2) 0.593(3) 0.422(2)
O7 O 0.50574(11) 0.6995(3) 0.43051(10)
H12 H 0.5263(12) 0.281(8) 0.437(2)
H13 H 0.483(2) 0.282(8) 0.4709(13)
O8 O 0.48059(9) 0.3003(3) 0.42934(9)
H14 H 0.1504(13) 0.324(4) 0.9338(12)
H15 H 0.1630(11) 0.255(4) 0.9988(8)
O9 O 0.12829(9) 0.3006(3) 0.95900(8)
loop_
_geom_bond_atom_site_label_1
_geom_bond_atom_site_label_2
_geom_bond_site_symmetry_1
_geom_bond_site_symmetry_2
C1 C2 1_555 1_555
C2 H1 1_555 1_555
H2 C2 1_555 1_555
H3 C2 1_555 1_555
C3 H4 1_555 1_555
H5 C3 1_555 1_555
C4 H6 1_555 1_555
H7 C4 1_555 1_555
H8 O1 1_555 1_555
H9 O5 1_555 1_555
H10 O7 1_555 1_555
H11 O7 1_555 1_555
H12 O8 1_555 1_555
H13 O8 1_555 1_555
H14 O9 1_555 1_555
H15 O9 1_555 1_555
N1 C1 1_555 1_555
H16 N1 1_555 1_555
H17 N1 1_555 1_555
H18 N1 1_555 1_555
N2 C3 1_555 1_555
H19 N2 1_555 1_555
H20 N2 1_555 1_555
O1 P2 1_555 1_555
O2 P2 1_555 1_555
O3 P2 1_555 1_555
O4 P1 1_555 1_555
O5 P1 1_555 1_555
O6 P1 1_555 1_555
P1 C1 1_555 1_555
P2 C1 1_555 1_555
C3F C4 1_555 1_555
H4F C3F 1_555 1_555
H5F C3F 1_555 1_555
C4F C3 1_555 1_555
H6F C4F 1_555 1_555
H7F C4F 1_555 1_555
N2F C3F 1_555 1_555
H19F N2F 1_555 1_555
H20F N2F 1_555 1_555
C4 N2 1_555 1_555
C4F N2F 1_555 1_555

#END
