
#######################################################################
#
#                 Cambridge Crystallographic Data Centre
#                                CCDC 
#
#######################################################################
#
# If this CIF has been generated from an entry in the Cambridge 
# Structural Database, then it will include bibliographic, chemical, 
# crystal, experimental, refinement or atomic coordinate data resulting 
# from the CCDC's data processing and validation procedures.
#
#######################################################################

data_FAHBEX
_chemical_formula_moiety         'C2 H7 N1 O6 P2 2-,C3 H12 N2 2+,H2 O1'
_chemical_name_systematic        
'Propane-1,3-diammonium (1-ammonio-1-(hydroxyphosphinato)ethyl)phosphonate monohydrate'
_symmetry_cell_setting           orthorhombic
_symmetry_space_group_name_H-M   'P n a 21'
_symmetry_Int_Tables_number      33
_space_group_name_Hall           'P 2c -2n'
loop_
_symmetry_equiv_pos_site_id
_symmetry_equiv_pos_as_xyz
1 x,y,z
2 -x,-y,1/2+z
3 1/2+x,1/2-y,z
4 1/2-x,1/2+y,1/2+z
_cell_length_a                   8.7719(6)
_cell_length_b                   11.5346(8)
_cell_length_c                   12.2848(9)
_cell_angle_alpha                90
_cell_angle_beta                 90
_cell_angle_gamma                90
_cell_volume                     1242.98
_exptl_crystal_colour            colorless
_exptl_crystal_description       block
_cell_formula_units_Z            4
loop_
_atom_site_label
_atom_site_type_symbol
_atom_site_fract_x
_atom_site_fract_y
_atom_site_fract_z
P1 P 0.14404(4) 0.54924(3) 0.23867(4)
P2 P 0.42154(4) 0.58515(3) 0.08984(3)
N1 N 0.30038(13) 0.75182(10) 0.22065(11)
H1 H 0.2776 0.7758 0.2876
H2 H 0.2229 0.7672 0.1762
H3 H 0.3835 0.7885 0.1973
O1 O 0.03614(12) 0.60307(9) 0.15738(10)
O2 O 0.09124(13) 0.55516(11) 0.35532(11)
O3 O 0.18140(14) 0.42107(9) 0.20924(13)
O4 O 0.58943(11) 0.61028(10) 0.10186(12)
C1 C 0.32951(15) 0.62294(12) 0.22211(13)
C2 C 0.43448(18) 0.59429(14) 0.31842(16)
H4 H 0.5319 0.6304 0.3076
H5 H 0.4475 0.5118 0.3234
H6 H 0.3897 0.6227 0.3845
O5 O 0.34680(13) 0.66082(11) 0.00537(11)
O6 O 0.38861(15) 0.45520(10) 0.07583(13)
H20 H 0.254(3) 0.426(2) 0.161(2)
N2 N 0.05754(16) 0.67801(13) 0.92211(13)
H7 H 0.0132 0.6091 0.9143
H8 H -0.0077 0.7271 0.9530
H9 H 0.1398 0.6708 0.9640
C3 C 0.19647(18) 0.63430(14) 0.75245(15)
H10 H 0.1553 0.5575 0.7658
H11 H 0.3005 0.6356 0.7793
C4 C 0.1028(2) 0.72279(14) 0.81438(16)
H12 H 0.1620 0.7931 0.8236
H13 H 0.0123 0.7419 0.7727
N3 N 0.18977(15) 0.54746(11) 0.56906(12)
H14 H 0.2763 0.5084 0.5784
H15 H 0.1767 0.5623 0.4986
H16 H 0.1120 0.5052 0.5934
C5 C 0.1970(2) 0.65765(15) 0.63011(16)
H17 H 0.1103 0.7057 0.6111
H18 H 0.2891 0.6993 0.6104
O7 O 0.30796(18) 0.84999(14) 0.42592(14)
H19 H 0.252(2) 0.8923(18) 0.4651(19)
H21 H 0.3888(19) 0.888(2) 0.417(3)
loop_
_geom_bond_atom_site_label_1
_geom_bond_atom_site_label_2
_geom_bond_site_symmetry_1
_geom_bond_site_symmetry_2
P1 O1 1_555 1_555
P2 O4 1_555 1_555
N1 H1 1_555 1_555
H2 N1 1_555 1_555
H3 N1 1_555 1_555
O2 P1 1_555 1_555
O3 P1 1_555 1_555
C1 P1 1_555 1_555
C2 C1 1_555 1_555
H4 C2 1_555 1_555
H5 C2 1_555 1_555
H6 C2 1_555 1_555
O5 P2 1_555 1_555
O6 P2 1_555 1_555
N2 H7 1_555 1_555
H8 N2 1_555 1_555
H9 N2 1_555 1_555
C3 H10 1_555 1_555
H11 C3 1_555 1_555
C4 N2 1_555 1_555
H12 C4 1_555 1_555
H13 C4 1_555 1_555
N3 H14 1_555 1_555
H15 N3 1_555 1_555
H16 N3 1_555 1_555
O7 H19 1_555 1_555
C5 C3 1_555 1_555
H17 C5 1_555 1_555
H18 C5 1_555 1_555
H20 O3 1_555 1_555
H21 O7 1_555 1_555
P2 C1 1_555 1_555
N1 C1 1_555 1_555
C3 C4 1_555 1_555
N3 C5 1_555 1_555

#END
