
#######################################################################
#
#                 Cambridge Crystallographic Data Centre
#                                CCDC 
#
#######################################################################
#
# If this CIF has been generated from an entry in the Cambridge 
# Structural Database, then it will include bibliographic, chemical, 
# crystal, experimental, refinement or atomic coordinate data resulting 
# from the CCDC's data processing and validation procedures.
#
#######################################################################

data_FAHGIE
_chemical_formula_moiety         'C28 H40 O8'
_chemical_name_systematic        
2,2,7,7,12,12,17,17-Octamethylcycloeicosane-1,3,6,8,11,13,16,18-octanone
_symmetry_cell_setting           tetragonal
_symmetry_space_group_name_H-M   'P 42/n'
_symmetry_Int_Tables_number      86
_space_group_name_Hall           '-P 4bc'
loop_
_symmetry_equiv_pos_site_id
_symmetry_equiv_pos_as_xyz
1 x,y,z
2 -y,1/2+x,1/2+z
3 1/2-x,1/2-y,z
4 1/2+y,-x,1/2+z
5 -x,-y,-z
6 y,1/2-x,1/2-z
7 1/2+x,1/2+y,-z
8 1/2-y,x,1/2-z
_cell_length_a                   12.759(3)
_cell_length_b                   12.759(3)
_cell_length_c                   8.441(1)
_cell_angle_alpha                90
_cell_angle_beta                 90
_cell_angle_gamma                90
_cell_volume                     1374.13
_chemical_melting_point          187-188deg.C
_cell_formula_units_Z            2
loop_
_atom_site_label
_atom_site_type_symbol
_atom_site_fract_x
_atom_site_fract_y
_atom_site_fract_z
O1 O 0.6236(4) -0.1544(3) 0.1232(6)
O2 O 0.8741(4) 0.0731(4) 0.1428(6)
C1 C 0.6509(5) -0.0685(5) 0.1597(8)
C2 C 0.7119(5) 0.0033(5) 0.0410(9)
C3 C 0.6984(7) -0.0395(6) -0.1247(8)
C4 C 0.6717(6) 0.1165(6) 0.0507(11)
C5 C 0.8293(5) -0.0031(5) 0.0914(7)
C6 C 0.8856(5) -0.1053(5) 0.0604(8)
C7 C 0.6263(6) -0.0265(5) 0.3253(9)
C7E C 0.9735(5) -0.1263(6) 0.1747(9)
C6G C 0.6053(5) -0.1144(5) 0.4396(8)
C1E C 0.9315(5) -0.1509(5) 0.3403(8)
C5G C 0.5031(5) -0.1707(5) 0.4086(7)
O1E O 0.8456(3) -0.1236(4) 0.3768(6)
C2E C 1.0033(5) -0.2119(5) 0.4590(9)
O2G O 0.4269(4) -0.1259(4) 0.3572(6)
C2G C 0.4967(5) -0.2881(5) 0.4590(9)
C3E C 0.9605(6) -0.1984(7) 0.6247(8)
C4E C 1.1165(6) -0.1717(6) 0.4493(11)
C5E C 0.9969(5) -0.3293(5) 0.4086(7)
C1G C 0.5685(5) -0.3491(5) 0.3403(8)
C3G C 0.5395(6) -0.3016(7) 0.6247(8)
C4G C 0.3835(6) -0.3283(6) 0.4493(11)
O2E O 1.0731(4) -0.3741(4) 0.3572(6)
C6E C 0.8947(5) -0.3856(5) 0.4396(8)
O1G O 0.6544(3) -0.3764(4) 0.3768(6)
C7G C 0.5265(5) -0.3737(6) 0.1747(9)
C7B C 0.8737(6) -0.4735(5) 0.3253(9)
C6B C 0.6144(5) -0.3947(5) 0.0604(8)
C1B C 0.8491(5) -0.4315(5) 0.1597(8)
C5B C 0.6707(5) -0.4969(5) 0.0914(7)
O1B O 0.8764(4) -0.3456(3) 0.1232(6)
C2B C 0.7881(5) -0.5033(5) 0.0410(9)
O2B O 0.6259(4) -0.5731(4) 0.1428(6)
C3B C 0.8016(7) -0.4605(6) -0.1247(8)
C4B C 0.8283(6) -0.6165(6) 0.0507(11)
loop_
_geom_bond_atom_site_label_1
_geom_bond_atom_site_label_2
_geom_bond_site_symmetry_1
_geom_bond_site_symmetry_2
O1 C1 1_555 1_555
O2 C5 1_555 1_555
C1 C2 1_555 1_555
C2 C3 1_555 1_555
C4 C2 1_555 1_555
C5 C2 1_555 1_555
C6 C5 1_555 1_555
C7 C1 1_555 1_555
C7E C6 1_555 1_555
C6G C7 1_555 1_555
C1E C7E 1_555 1_555
C5G C6G 1_555 1_555
O1E C1E 1_555 1_555
C2E C1E 1_555 1_555
O2G C5G 1_555 1_555
C2G C5G 1_555 1_555
C3E C2E 1_555 1_555
C4E C2E 1_555 1_555
C5E C2E 1_555 1_555
C1G C2G 1_555 1_555
C3G C2G 1_555 1_555
C4G C2G 1_555 1_555
O2E C5E 1_555 1_555
C6E C5E 1_555 1_555
O1G C1G 1_555 1_555
C7G C1G 1_555 1_555
C7B C6E 1_555 1_555
C6B C7G 1_555 1_555
C1B C7B 1_555 1_555
C5B C6B 1_555 1_555
O1B C1B 1_555 1_555
C2B C1B 1_555 1_555
O2B C5B 1_555 1_555
C3B C2B 1_555 1_555
C4B C2B 1_555 1_555
C5B C2B 1_555 1_555

#END
