
#######################################################################
#
#                 Cambridge Crystallographic Data Centre
#                                CCDC 
#
#######################################################################
#
# If this CIF has been generated from an entry in the Cambridge 
# Structural Database, then it will include bibliographic, chemical, 
# crystal, experimental, refinement or atomic coordinate data resulting 
# from the CCDC's data processing and validation procedures.
#
#######################################################################

data_FAHHUR
_chemical_formula_moiety         'C17 H26 O6'
_chemical_name_systematic        Benzo-19-crown-6
_symmetry_cell_setting           monoclinic
_symmetry_space_group_name_H-M   'P 21'
_symmetry_Int_Tables_number      4
_space_group_name_Hall           'P 2yb'
loop_
_symmetry_equiv_pos_site_id
_symmetry_equiv_pos_as_xyz
1 x,y,z
2 -x,1/2+y,-z
_cell_length_a                   8.710(2)
_cell_length_b                   17.770(3)
_cell_length_c                   11.250(2)
_cell_angle_alpha                90
_cell_angle_beta                 99.16(2)
_cell_angle_gamma                90
_cell_volume                     1719.03
_exptl_crystal_colour            white
_cell_formula_units_Z            4
loop_
_atom_site_label
_atom_site_type_symbol
_atom_site_fract_x
_atom_site_fract_y
_atom_site_fract_z
O1 O -0.3349(7) 0.1689(5) 0.2896(6)
O2 O -0.2573(8) 0.1621(4) 0.5483(6)
O3 O -0.0002(7) 0.2351(4) 0.6901(6)
O4 O 0.0604(7) 0.4113(4) 0.5680(6)
O5 O 0.0443(9) 0.3685(5) 0.2539(6)
O6 O -0.1714(6) 0.2446(4) 0.1671(5)
C1 C -0.3228(10) 0.2363(7) 0.1041(9)
C2 C -0.3919(10) 0.2518(7) -0.0137(8)
C3 C -0.5401(10) 0.2308(7) -0.0604(8)
C4 C -0.6367(11) 0.1973(7) 0.0198(9)
C5 C -0.5859(9) 0.1725(6) 0.1391(9)
C6 C -0.4179(10) 0.1895(7) 0.1799(8)
C7 C -0.4320(10) 0.1364(7) 0.3788(8)
C8 C -0.3396(10) 0.1028(6) 0.4801(8)
C9 C -0.1767(10) 0.1351(5) 0.6587(7)
C10 C -0.1181(9) 0.2023(6) 0.7367(8)
C11 C 0.0798(9) 0.2940(6) 0.7587(7)
C12 C -0.0257(8) 0.3658(5) 0.7469(7)
C13 C -0.0715(11) 0.3923(9) 0.6215(10)
C14 C 0.0388(10) 0.4251(6) 0.4446(8)
C15 C 0.0443(9) 0.3526(6) 0.3705(8)
C16 C 0.0671(10) 0.3062(7) 0.1808(9)
C17 C -0.075(9) 0.2883(5) 0.0934(7)
O7 O 0.1579(7) 0.0786 0.2901(5)
O8 O 0.2277(8) 0.0827(4) 0.5556(6)
O9 O 0.5037(8) 0.0117(4) 0.6973(7)
O10 O 0.5595(9) -0.1649(6) 0.5749(7)
O11 O 0.5278(8) -0.1234(5) 0.2552(7)
O12 O 0.3299(9) -0.0042(5) 0.1620(7)
C18 C 0.1857(8) 0.0212(4) 0.1121(6)
C19 C 0.1308(9) -0.0010(5) -0.0040(8)
C20 C -0.0256(10) 0.0120(7) -0.0487(8)
C21 C -0.1145(10) 0.0523(6) 0.0096(9)
C22 C -0.0500(9) 0.0707(5) 0.1279(7)
C23 C 0.0962(8) 0.0573(6) 0.1749(8)
C24 C 0.0654(8) 0.1121(5) 0.3650(7)
C25 C 0.1745(8) 0.1433(5) 0.4720(7)
C26 C 0.3115(9) 0.1109(6) 0.6654(8)
C27 C 0.3747(10) 0.0501(6) 0.7428(8)
C28 C 0.5587(10) -0.0536(6) 0.7663(8)
C29 C 0.4655(11) -0.1230(9) 0.7474(10)
C30 C 0.4254(8) -0.1439(5) 0.6163(7)
C31 C 0.5357(10) -0.1729(6) 0.4442(8)
C32 C 0.5390(10) -0.1026(6) 0.3836(8)
C33 C 0.5757(9) -0.0677(6) 0.1777(8)
C34 C 0.4368(11) -0.0317(8) 0.0972(10)
loop_
_geom_bond_atom_site_label_1
_geom_bond_atom_site_label_2
_geom_bond_site_symmetry_1
_geom_bond_site_symmetry_2
O1 C6 1_555 1_555
O2 C8 1_555 1_555
O3 C10 1_555 1_555
O4 C13 1_555 1_555
O5 C15 1_555 1_555
O6 C1 1_555 1_555
C1 C2 1_555 1_555
C2 C3 1_555 1_555
C3 C4 1_555 1_555
C4 C5 1_555 1_555
C5 C6 1_555 1_555
C6 C1 1_555 1_555
C7 O1 1_555 1_555
C8 C7 1_555 1_555
C9 O2 1_555 1_555
C10 C9 1_555 1_555
C11 O3 1_555 1_555
C12 C11 1_555 1_555
C13 C12 1_555 1_555
C14 O4 1_555 1_555
C15 C14 1_555 1_555
C16 O5 1_555 1_555
C17 O6 1_555 1_555
O7 C23 1_555 1_555
O8 C25 1_555 1_555
O9 C27 1_555 1_555
O10 C30 1_555 1_555
O11 C32 1_555 1_555
O12 C18 1_555 1_555
C18 C19 1_555 1_555
C19 C20 1_555 1_555
C20 C21 1_555 1_555
C21 C22 1_555 1_555
C22 C23 1_555 1_555
C23 C18 1_555 1_555
C24 O7 1_555 1_555
C25 C24 1_555 1_555
C26 O8 1_555 1_555
C27 C26 1_555 1_555
C28 O9 1_555 1_555
C29 C28 1_555 1_555
C30 C29 1_555 1_555
C31 O10 1_555 1_555
C32 C31 1_555 1_555
C33 O11 1_555 1_555
C34 O12 1_555 1_555
C16 C17 1_555 1_555
C33 C34 1_555 1_555

#END
