
#######################################################################
#
#                 Cambridge Crystallographic Data Centre
#                                CCDC 
#
#######################################################################
#
# If this CIF has been generated from an entry in the Cambridge 
# Structural Database, then it will include bibliographic, chemical, 
# crystal, experimental, refinement or atomic coordinate data resulting 
# from the CCDC's data processing and validation procedures.
#
#######################################################################

data_FAHNIO
_chemical_name_common            
"bis(Tetra-n-butylammonium) tetrakis(pentafluorophenyl)-bis(2,2'-bithiophen-5-yl)[1.1.1.1.1.1]hexaphyrinate diethyl ether solvate hydrate"
_chemical_formula_moiety         
'C70 H22 F20 N6 S4 2-,2(C16 H36 N1 1+),0.55(C4 H10 O1),0.9(H2 O1)'
_chemical_name_systematic        
"bis(Tetra-n-butylamonium) 7,22-bis(2,2'-bithiophen-5-yl)-2,12,17,27-tetrakis(pentafluorophenyl)-31,32,33,34,35,36-hexa-azaheptacyclo[26.2.1.1^3,6^.1^8,11^.1^13,16^.1^18,21^.1^23,26^]hexatriaconta-1,3(36),4,6,8(35),9,11,13,15,17,19,21(33),22,24,26(32),27,29-heptadecaene-31,34-di-ide diethyl ether solvate hydrate"
_symmetry_cell_setting           monoclinic
_symmetry_space_group_name_H-M   'C 2/c'
_symmetry_Int_Tables_number      15
_space_group_name_Hall           '-C 2yn'
loop_
_symmetry_equiv_pos_site_id
_symmetry_equiv_pos_as_xyz
1 x,y,z
2 -x,y,1/2-z
3 1/2+x,1/2+y,z
4 1/2-x,1/2+y,1/2-z
5 -x,-y,-z
6 x,-y,1/2+z
7 1/2-x,1/2-y,-z
8 1/2+x,1/2-y,1/2+z
_cell_length_a                   56.36(2)
_cell_length_b                   9.525(3)
_cell_length_c                   42.145(18)
_cell_angle_alpha                90
_cell_angle_beta                 119.716(8)
_cell_angle_gamma                90
_cell_volume                     19649.4
_exptl_crystal_colour            green
_exptl_crystal_description       Prism
_cell_formula_units_Z            8
_exptl_crystal_recrystallization_method 
'Re-crystallisation from solvent: dichloromethane, diethylether'
loop_
_atom_site_label
_atom_site_type_symbol
_atom_site_fract_x
_atom_site_fract_y
_atom_site_fract_z
N7 N 0.77241(11) 0.4887(5) 0.89599(14)
C71 C 0.78658(15) 0.5965(7) 0.88374(18)
C72 C 0.78792(17) 0.5476(8) 0.8503(2)
C73 C 0.8032(2) 0.6548(8) 0.8400(2)
C74 C 0.8344(2) 0.6607(10) 0.8687(2)
C75 C 0.77067(16) 0.5556(7) 0.92752(19)
C76 C 0.75662(17) 0.4641(9) 0.9435(2)
C77 C 0.7714(3) 0.4685(9) 0.9853(3)
C78 C 0.74428(15) 0.4461(8) 0.8657(2)
C79 C 0.72433(14) 0.5677(9) 0.84831(19)
C80 C 0.78851(16) 0.3512(7) 0.9075(2)
C81 C 0.81846(16) 0.3702(7) 0.9374(2)
C82 C 0.82988(17) 0.2283(8) 0.9557(2)
C83 C 0.6980(3) 0.5564(18) 0.8111(4)
C84 C 0.6816(5) 0.4346(19) 0.8144(7)
C85 C 0.7652(4) 0.3415(14) 1.0017(4)
C86 C 0.8572(3) 0.2427(15) 0.9900(3)
N8 N 0.44749(15) 0.1477(6) 0.56432(18)
C91 C 0.46604(19) 0.2209(8) 0.5535(2)
H23 H 0.4755 0.2978 0.5712
H24 H 0.4546 0.2643 0.5292
C92 C 0.48745(19) 0.1296(9) 0.5518(3)
H25 H 0.4788 0.0418 0.5385
H26 H 0.5017 0.1043 0.5769
C93 C 0.50056(17) 0.2063(8) 0.5325(2)
H27 H 0.4867 0.2194 0.5065
H28 H 0.5066 0.3006 0.5436
C94 C 0.52468(18) 0.1291(8) 0.5349(2)
H29 H 0.5323 0.1827 0.5222
H30 H 0.5188 0.0365 0.5235
H31 H 0.5387 0.1177 0.5606
C95 C 0.4301(3) 0.0346(9) 0.5366(3)
H32 H 0.4418 -0.0477 0.5397
H33 H 0.4156 0.0039 0.5418
C96 C 0.4168(4) 0.0840(13) 0.4969(3)
H34 H 0.4310 0.1087 0.4908
H35 H 0.4056 0.1687 0.4937
C97 C 0.3984(4) -0.0344(15) 0.4712(4)
H36 H 0.3985 -0.1131 0.4867
H37 H 0.3794 0.0015 0.4577
C98 C 0.4043(3) -0.0829(14) 0.4485(4)
H38 H 0.3911 -0.1565 0.4341
H39 H 0.4227 -0.1227 0.4612
H40 H 0.4035 -0.0077 0.4321
C99 C 0.42903(17) 0.2587(8) 0.5662(2)
H41 H 0.4407 0.3349 0.5824
H42 H 0.4180 0.2992 0.5414
C100 C 0.4099(2) 0.2135(8) 0.5794(2)
H43 H 0.4201 0.1613 0.6026
H44 H 0.3957 0.1507 0.5612
C101 C 0.3966(2) 0.3433(9) 0.5851(3)
H45 H 0.4110 0.4028 0.6043
H46 H 0.3877 0.3986 0.5622
C102 C 0.37549(19) 0.3064(10) 0.5962(3)
H47 H 0.3676 0.3928 0.5996
H48 H 0.3843 0.2533 0.6191
H49 H 0.3610 0.2492 0.5770
C103 C 0.4638(2) 0.0720(11) 0.6003(3)
H50 H 0.4756 0.0015 0.5977
H51 H 0.4510 0.0209 0.6058
C104 C 0.4814(2) 0.1667(12) 0.6321(3)
H52 H 0.4696 0.2357 0.6353
H53 H 0.4941 0.2194 0.6266
C105 C 0.4982(3) 0.0844(15) 0.6683(3)
H54 H 0.4857 0.0402 0.6755
H55 H 0.5087 0.0090 0.6646
C106 C 0.5174(3) 0.1806(19) 0.6979(4)
H56 H 0.5279 0.1272 0.7206
H57 H 0.5070 0.2545 0.7017
H58 H 0.5300 0.2232 0.6909
C107 C 0.1003(10) 0.007(9) 0.3143(18)
C108 C 0.0744(4) 0.092(2) 0.3054(6)
O1 O 0.0584(5) 0.077(3) 0.2675(6)
C109 C 0.0729(10) -0.005(5) 0.2542(12)
C110 C 0.0974(11) 0.086(7) 0.2626(19)
F1 F 0.65771(8) 0.0857(4) 0.46474(10)
F2 F 0.64852(9) 0.0261(4) 0.39769(11)
F3 F 0.66275(10) 0.2109(5) 0.36082(11)
F4 F 0.68616(9) 0.4590(4) 0.39255(10)
F5 F 0.69519(8) 0.5223(4) 0.45938(9)
F6 F 0.77907(8) 0.6806(3) 0.58682(10)
F7 F 0.83235(9) 0.7408(4) 0.61993(13)
F8 F 0.86688(9) 0.6335(5) 0.68723(13)
F9 F 0.84725(8) 0.4620(5) 0.72057(11)
F10 F 0.79432(8) 0.3995(4) 0.68764(9)
F11 F 0.60002(10) 1.0112(5) 0.63064(13)
F12 F 0.56153(12) 1.0634(6) 0.64912(17)
F13 F 0.56413(12) 0.9368(7) 0.70812(18)
F14 F 0.60463(12) 0.7532(7) 0.74719(16)
F15 F 0.64177(10) 0.6920(5) 0.72785(12)
F16 F 0.54394(11) 0.8305(5) 0.56542(13)
F17 F 0.51793(11) 0.8194(7) 0.60435(16)
F18 F 0.51492(11) 0.5776(8) 0.63469(15)
F19 F 0.53627(11) 0.3404(6) 0.62347(13)
F20 F 0.56259(9) 0.3510(4) 0.58529(11)
S1 S 0.58981(4) 0.24376(18) 0.40874(4)
S2 S 0.53327(7) 0.2012(4) 0.29237(9)
S3 S 0.79345(4) 0.71881(15) 0.74032(4)
S4 S 0.86097(5) 0.7411(3) 0.77861(11)
N1 N 0.58259(11) 0.5115(5) 0.51106(13)
N2 N 0.63265(11) 0.3464(5) 0.47604(14)
N3 N 0.71425(11) 0.4222(5) 0.56360(13)
N4 N 0.75299(11) 0.6267(5) 0.66685(13)
N5 N 0.68813(13) 0.7755(5) 0.67732(15)
N6 N 0.60267(13) 0.7142(5) 0.61267(15)
C1 C 0.65837(14) 0.3464(6) 0.50572(17)
C2 C 0.73348(13) 0.3533(6) 0.52885(16)
H1 H 0.7350 0.3185 0.5088
C3 C 0.70860(13) 0.3709(6) 0.53038(16)
C4 C 0.74185(14) 0.4410(6) 0.58299(16)
C5 C 0.75495(13) 0.5008(6) 0.61839(15)
C6 C 0.74149(14) 0.5357(6) 0.63779(16)
C7 C 0.75431(14) 0.3963(6) 0.56176(16)
H2 H 0.7732 0.3968 0.5693
C8 C 0.71505(13) 0.4903(6) 0.63122(16)
H3 H 0.7032 0.4257 0.6131
C9 C 0.56456(15) 0.5257(6) 0.52378(18)
C10 C 0.71034(13) 0.5567(6) 0.65564(16)
H4 H 0.6947 0.5467 0.6584
C11 C 0.63050(15) 0.3634(6) 0.52907(17)
H5 H 0.6230 0.3702 0.5448
C12 C 0.73359(13) 0.6460(6) 0.67695(15)
C13 C 0.54358(14) 0.3871(7) 0.47476(19)
H6 H 0.5309 0.3291 0.4554
C14 C 0.73689(14) 0.7443(6) 0.70411(16)
C15 C 0.53982(15) 0.4499(7) 0.50062(18)
H7 H 0.5240 0.4450 0.5031
C16 C 0.57101(14) 0.4259(7) 0.48239(17)
C17 C 0.58644(14) 0.3745(6) 0.46614(17)
C18 C 0.61527(15) 0.3624(6) 0.48894(17)
C19 C 0.65698(15) 0.3530(6) 0.53914(17)
H8 H 0.6719 0.3503 0.5634
C20 C 0.68177(14) 0.3395(6) 0.50200(16)
C21 C 0.71322(16) 0.7887(6) 0.70629(18)
C22 C 0.71186(17) 0.8491(6) 0.73707(18)
H9 H 0.7268 0.8709 0.7605
C23 C 0.68466(16) 0.8686(6) 0.72565(18)
H10 H 0.6770 0.9063 0.7394
C24 C 0.67013(16) 0.8197(6) 0.68811(18)
C25 C 0.64197(16) 0.8096(6) 0.66550(19)
C26 C 0.62924(16) 0.7519(6) 0.62943(18)
C27 C 0.64162(15) 0.7183(6) 0.60720(18)
H11 H 0.6600 0.7345 0.6132
C28 C 0.62179(16) 0.6598(7) 0.57645(19)
H12 H 0.6234 0.6275 0.5563
C29 C 0.59746(16) 0.6551(7) 0.57986(18)
C30 C 0.57182(15) 0.5948(7) 0.55688(17)
C31 C 0.57355(15) 0.3366(6) 0.42810(17)
C32 C 0.54695(15) 0.3667(7) 0.40149(18)
H13 H 0.5347 0.4195 0.4062
C33 C 0.53974(15) 0.3119(7) 0.36693(18)
H14 H 0.5221 0.3216 0.3461
C34 C 0.56065(15) 0.2437(7) 0.36648(18)
C35 C 0.5607(2) 0.1769(12) 0.3355(3)
C36 C 0.5839(2) 0.0734(11) 0.3379(3)
H15 H 0.6001 0.0386 0.3582
C37 C 0.5712(2) 0.0483(12) 0.2959(3)
H16 H 0.5800 -0.0114 0.2869
C38 C 0.5480(2) 0.1111(12) 0.2731(3)
H17 H 0.5402 0.1051 0.2473
C39 C 0.67737(13) 0.3069(7) 0.46526(16)
C40 C 0.68391(14) 0.3969(6) 0.44537(16)
C41 C 0.67960(15) 0.3662(8) 0.41079(17)
C42 C 0.66738(16) 0.2419(8) 0.39504(18)
C43 C 0.66011(15) 0.1513(7) 0.41298(19)
C44 C 0.66464(14) 0.1818(7) 0.44732(18)
C45 C 0.78474(13) 0.5357(6) 0.63581(16)
C46 C 0.79562(14) 0.6222(6) 0.61974(17)
C47 C 0.82271(16) 0.6541(7) 0.6366(2)
C48 C 0.83997(15) 0.6020(8) 0.6707(2)
C49 C 0.83005(16) 0.5170(7) 0.6873(2)
C50 C 0.80264(15) 0.4847(7) 0.66998(17)
C51 C 0.76297(14) 0.8039(6) 0.72807(15)
C52 C 0.76877(17) 0.9329(7) 0.74621(19)
H18 H 0.7549 0.9965 0.7437
C53 C 0.79616(17) 0.9597(7) 0.76806(18)
H19 H 0.8031 1.0448 0.7813
C54 C 0.81275(16) 0.8504(6) 0.76897(17)
C55 C 0.84222(17) 0.8504(7) 0.7894(2)
C56 C 0.8588(2) 0.9350(8) 0.8177(2)
H20 H 0.8521 1.0013 0.8282
C57 C 0.8859(3) 0.9157(10) 0.8295(3)
H21 H 0.8998 0.9712 0.8482
C58 C 0.8909(2) 0.8141(13) 0.8130(4)
H22 H 0.9087 0.7839 0.8190
C59 C 0.62280(16) 0.8488(8) 0.6786(2)
C60 C 0.60136(18) 0.9423(9) 0.6593(2)
C61 C 0.58209(19) 0.9701(11) 0.6697(3)
C62 C 0.5832(2) 0.9081(13) 0.6988(3)
C63 C 0.6039(2) 0.8156(11) 0.7184(2)
C64 C 0.62259(18) 0.7890(8) 0.7081(2)
C65 C 0.55330(14) 0.5885(8) 0.57280(18)
C66 C 0.54173(16) 0.7061(9) 0.5785(2)
C67 C 0.52862(17) 0.7033(11) 0.5986(2)
C68 C 0.52694(18) 0.5789(14) 0.6138(2)
C69 C 0.53808(17) 0.4634(11) 0.6084(2)
C70 C 0.55084(14) 0.4680(8) 0.58835(18)
C87? C 0.6961(3) 0.4758(17) 0.8224(4)
C88? C 0.6755(3) 0.5851(17) 0.7990(4)
C89? C 0.7940(5) 0.371(3) 1.0081(7)
C90? C 0.8253(5) 0.2033(16) 0.9870(6)
O2? O 0.0491(5) 0.174(4) 0.3099(5)
O3? O 0.0564(11) -0.038(4) 0.2131(7)
loop_
_geom_bond_atom_site_label_1
_geom_bond_atom_site_label_2
_geom_bond_site_symmetry_1
_geom_bond_site_symmetry_2
F1 C44 1_555 1_555
F2 C43 1_555 1_555
F3 C42 1_555 1_555
F4 C41 1_555 1_555
F5 C40 1_555 1_555
F6 C46 1_555 1_555
F7 C47 1_555 1_555
F8 C48 1_555 1_555
F9 C49 1_555 1_555
F10 C50 1_555 1_555
F11 C60 1_555 1_555
F12 C61 1_555 1_555
F13 C62 1_555 1_555
F14 C63 1_555 1_555
F15 C64 1_555 1_555
F16 C66 1_555 1_555
F17 C67 1_555 1_555
F18 C68 1_555 1_555
F19 C69 1_555 1_555
F20 C70 1_555 1_555
S1 C31 1_555 1_555
S2 C35 1_555 1_555
S3 C51 1_555 1_555
S4 C55 1_555 1_555
N1 C9 1_555 1_555
N2 C1 1_555 1_555
N3 C3 1_555 1_555
N4 C6 1_555 1_555
N5 C21 1_555 1_555
N6 C26 1_555 1_555
C1 C19 1_555 1_555
C2 H1 1_555 1_555
C3 C2 1_555 1_555
C4 N3 1_555 1_555
C5 C4 1_555 1_555
C6 C5 1_555 1_555
C7 C2 1_555 1_555
H2 C7 1_555 1_555
C8 C6 1_555 1_555
H3 C8 1_555 1_555
C9 C15 1_555 1_555
C10 C8 1_555 1_555
H4 C10 1_555 1_555
C11 H5 1_555 1_555
C12 N4 1_555 1_555
C13 H6 1_555 1_555
C14 C12 1_555 1_555
C15 C13 1_555 1_555
H7 C15 1_555 1_555
C16 N1 1_555 1_555
C17 C16 1_555 1_555
C18 N2 1_555 1_555
C19 C11 1_555 1_555
H8 C19 1_555 1_555
C20 C1 1_555 1_555
C21 C14 1_555 1_555
C22 C21 1_555 1_555
H9 C22 1_555 1_555
C23 C22 1_555 1_555
H10 C23 1_555 1_555
C24 N5 1_555 1_555
C25 C24 1_555 1_555
C26 C25 1_555 1_555
C27 C26 1_555 1_555
H11 C27 1_555 1_555
C28 C27 1_555 1_555
H12 C28 1_555 1_555
C29 N6 1_555 1_555
C30 C9 1_555 1_555
C31 C17 1_555 1_555
C32 C31 1_555 1_555
H13 C32 1_555 1_555
C33 C32 1_555 1_555
H14 C33 1_555 1_555
C34 S1 1_555 1_555
C35 C34 1_555 1_555
C36 C35 1_555 1_555
H15 C36 1_555 1_555
C37 C36 1_555 1_555
H16 C37 1_555 1_555
C38 S2 1_555 1_555
H17 C38 1_555 1_555
C39 C20 1_555 1_555
C40 C39 1_555 1_555
C41 C40 1_555 1_555
C42 C41 1_555 1_555
C43 C42 1_555 1_555
C44 C39 1_555 1_555
C45 C5 1_555 1_555
C46 C45 1_555 1_555
C47 C46 1_555 1_555
C48 C47 1_555 1_555
C49 C48 1_555 1_555
C50 C45 1_555 1_555
C51 C14 1_555 1_555
C52 C51 1_555 1_555
H18 C52 1_555 1_555
C53 C52 1_555 1_555
H19 C53 1_555 1_555
C54 S3 1_555 1_555
C55 C54 1_555 1_555
C56 C55 1_555 1_555
H20 C56 1_555 1_555
C57 C56 1_555 1_555
H21 C57 1_555 1_555
C58 S4 1_555 1_555
H22 C58 1_555 1_555
C59 C25 1_555 1_555
C60 C59 1_555 1_555
C61 C60 1_555 1_555
C62 C61 1_555 1_555
C63 C62 1_555 1_555
C64 C59 1_555 1_555
C65 C30 1_555 1_555
C66 C65 1_555 1_555
C67 C66 1_555 1_555
C68 C67 1_555 1_555
C69 C68 1_555 1_555
C70 C65 1_555 1_555
N7 C71 1_555 1_555
C71 C72 1_555 1_555
C72 C73 1_555 1_555
C73 C74 1_555 1_555
C75 N7 1_555 1_555
C76 C75 1_555 1_555
C77 C76 1_555 1_555
C78 N7 1_555 1_555
C79 C78 1_555 1_555
C80 N7 1_555 1_555
C81 C80 1_555 1_555
C82 C81 1_555 1_555
C83 C79 1_555 1_555
C84 C83 1_555 1_555
C85 C77 1_555 1_555
C86 C82 1_555 1_555
N8 C91 1_555 1_555
C91 H23 1_555 1_555
H24 C91 1_555 1_555
C92 C91 1_555 1_555
H25 C92 1_555 1_555
H26 C92 1_555 1_555
C93 C92 1_555 1_555
H27 C93 1_555 1_555
H28 C93 1_555 1_555
C94 C93 1_555 1_555
H29 C94 1_555 1_555
H30 C94 1_555 1_555
H31 C94 1_555 1_555
C95 N8 1_555 1_555
H32 C95 1_555 1_555
H33 C95 1_555 1_555
C96 C95 1_555 1_555
H34 C96 1_555 1_555
H35 C96 1_555 1_555
C97 C96 1_555 1_555
H36 C97 1_555 1_555
H37 C97 1_555 1_555
C98 C97 1_555 1_555
H38 C98 1_555 1_555
H39 C98 1_555 1_555
H40 C98 1_555 1_555
C99 N8 1_555 1_555
H41 C99 1_555 1_555
H42 C99 1_555 1_555
C100 C99 1_555 1_555
H43 C100 1_555 1_555
H44 C100 1_555 1_555
C101 C100 1_555 1_555
H45 C101 1_555 1_555
H46 C101 1_555 1_555
C102 C101 1_555 1_555
H47 C102 1_555 1_555
H48 C102 1_555 1_555
H49 C102 1_555 1_555
C103 N8 1_555 1_555
H50 C103 1_555 1_555
H51 C103 1_555 1_555
C104 C103 1_555 1_555
H52 C104 1_555 1_555
H53 C104 1_555 1_555
C105 C104 1_555 1_555
H54 C105 1_555 1_555
H55 C105 1_555 1_555
C106 C105 1_555 1_555
H56 C106 1_555 1_555
H57 C106 1_555 1_555
H58 C106 1_555 1_555
C107 C108 1_555 1_555
C108 O1 1_555 1_555
O1 C109 1_555 1_555
C109 C110 1_555 1_555
C3 C20 1_555 1_555
C4 C7 1_555 1_555
C10 C12 1_555 1_555
C11 C18 1_555 1_555
C13 C16 1_555 1_555
C17 C18 1_555 1_555
C23 C24 1_555 1_555
C28 C29 1_555 1_555
C29 C30 1_555 1_555
C33 C34 1_555 1_555
C37 C38 1_555 1_555
C43 C44 1_555 1_555
C49 C50 1_555 1_555
C53 C54 1_555 1_555
C57 C58 1_555 1_555
C63 C64 1_555 1_555
C69 C70 1_555 1_555

#END
