
#######################################################################
#
#                 Cambridge Crystallographic Data Centre
#                                CCDC 
#
#######################################################################
#
# If this CIF has been generated from an entry in the Cambridge 
# Structural Database, then it will include bibliographic, chemical, 
# crystal, experimental, refinement or atomic coordinate data resulting 
# from the CCDC's data processing and validation procedures.
#
#######################################################################

data_FAHTIR
_chemical_formula_moiety         'C17 H18 Cl3 N1 O5 S1'
_chemical_name_systematic        
'(2S,5S)-2,2,2-Trichloroethyl 4-formyl-tetrahydro-2-(4-methoxyphenyl)-6,6-dimethyl-3-oxo-1,4-thiazine-5-carboxylate'
_symmetry_cell_setting           orthorhombic
_symmetry_space_group_name_H-M   'P 21 21 21'
_symmetry_Int_Tables_number      19
_space_group_name_Hall           'P 2ac 2ab'
loop_
_symmetry_equiv_pos_site_id
_symmetry_equiv_pos_as_xyz
1 x,y,z
2 1/2+x,1/2-y,-z
3 -x,1/2+y,1/2-z
4 1/2-x,-y,1/2+z
_cell_length_a                   7.382(2)
_cell_length_b                   10.002(3)
_cell_length_c                   27.215(7)
_cell_angle_alpha                90
_cell_angle_beta                 90
_cell_angle_gamma                90
_cell_volume                     2009.41
_chemical_melting_point          160-162deg.C
_cell_formula_units_Z            4
loop_
_atom_site_label
_atom_site_type_symbol
_atom_site_fract_x
_atom_site_fract_y
_atom_site_fract_z
S1 S 0.8768(2) 0.6554(1) 0.8757(1)
C1 C 0.9818(6) 0.4983(4) 0.8940(1)
C2 C 0.8296(6) 0.4073(4) 0.9135(1)
N1 N 0.7496(5) 0.4598(4) 0.9587(1)
C3 C 0.6960(7) 0.5926(4) 0.9651(2)
O1 O 0.5933(5) 0.6198(4) 0.9990(1)
C4 C 0.7702(6) 0.7037(4) 0.9335(2)
C5 C 0.7032(7) 0.3659(5) 0.9942(2)
O2 O 0.7329(6) 0.2498(4) 0.9898(1)
C6 C 1.1228(7) 0.5171(6) 0.9338(2)
C7 C 1.0713(7) 0.4414(5) 0.8477(2)
C8 C 0.6745(5) 0.3808(4) 0.8783(1)
O3 O 0.5297(4) 0.4317(3) 0.8806(1)
O4 O 0.7140(4) 0.2879(3) 0.8445(1)
C9 C 0.5702(7) 0.2607(5) 0.8102(2)
C10 C 0.6374(8) 0.1668(5) 0.7713(2)
Cl1 Cl 0.6903(2) 0.0084(1) 0.7961(1)
Cl2 Cl 0.4610(3) 0.1480(2) 0.7285(1)
Cl3 Cl 0.8309(3) 0.2315(2) 0.7418(1)
C11 C 0.6295(6) 0.8077(4) 0.9213(1)
C12 C 0.4773(6) 0.7700(4) 0.8948(2)
C13 C 0.3429(6) 0.8601(5) 0.8830(2)
C14 C 0.3627(7) 0.9908(4) 0.8972(2)
C15 C 0.5119(7) 1.0312(4) 0.9227(2)
C16 C 0.6455(6) 0.9385(4) 0.9352(1)
O5 O 0.2399(5) 1.0899(3) 0.8860(1)
C17 C 0.0811(8) 1.0504(7) 0.8595(3)
H1 H 0.8918 0.3243 0.9189
H2 H 0.8636 0.7383 0.9545
H3 H 0.6446 0.3963 1.0237
H4 H 1.2232 0.5683 0.9217
H5 H 1.1644 0.4303 0.9438
H6 H 1.0698 0.5621 0.9614
H7 H 0.9799 0.4355 0.8227
H8 H 1.1192 0.3539 0.8542
H9 H 1.1670 0.4991 0.8368
H10 H 0.4701 0.2206 0.8272
H11 H 0.5315 0.3427 0.7952
H12 H 0.4653 0.6787 0.8844
H13 H 0.2373 0.8318 0.8652
H14 H 0.5250 1.1232 0.9320
H15 H 0.7495 0.9668 0.9537
H16 H 0.0142 1.1304 0.8525
H17 H 0.0090 0.9919 0.8795
H18 H 0.1108 1.0062 0.8292
loop_
_geom_bond_atom_site_label_1
_geom_bond_atom_site_label_2
_geom_bond_site_symmetry_1
_geom_bond_site_symmetry_2
S1 C1 1_555 1_555
C1 C2 1_555 1_555
C2 N1 1_555 1_555
N1 C3 1_555 1_555
C3 O1 1_555 1_555
C4 S1 1_555 1_555
C5 N1 1_555 1_555
O2 C5 1_555 1_555
C6 C1 1_555 1_555
C7 C1 1_555 1_555
C8 C2 1_555 1_555
O3 C8 1_555 1_555
O4 C8 1_555 1_555
C9 O4 1_555 1_555
C10 C9 1_555 1_555
Cl1 C10 1_555 1_555
Cl2 C10 1_555 1_555
Cl3 C10 1_555 1_555
C11 C4 1_555 1_555
C12 C11 1_555 1_555
C13 C12 1_555 1_555
C14 C13 1_555 1_555
C15 C14 1_555 1_555
C16 C11 1_555 1_555
O5 C14 1_555 1_555
C17 O5 1_555 1_555
H1 C2 1_555 1_555
H2 C4 1_555 1_555
H3 C5 1_555 1_555
H4 C6 1_555 1_555
H5 C6 1_555 1_555
H6 C6 1_555 1_555
H7 C7 1_555 1_555
H8 C7 1_555 1_555
H9 C7 1_555 1_555
H10 C9 1_555 1_555
H11 C9 1_555 1_555
H12 C12 1_555 1_555
H13 C13 1_555 1_555
H14 C15 1_555 1_555
H15 C16 1_555 1_555
H16 C17 1_555 1_555
H17 C17 1_555 1_555
H18 C17 1_555 1_555
C3 C4 1_555 1_555
C15 C16 1_555 1_555

#END
