
#######################################################################
#
#                 Cambridge Crystallographic Data Centre
#                                CCDC 
#
#######################################################################
#
# If this CIF has been generated from an entry in the Cambridge 
# Structural Database, then it will include bibliographic, chemical, 
# crystal, experimental, refinement or atomic coordinate data resulting 
# from the CCDC's data processing and validation procedures.
#
#######################################################################

data_FAHVES
_chemical_formula_moiety         'C28 H21 N3 O5'
_chemical_name_systematic        
'methyl 3-(1,3-dioxo-1,3-dihydro-2H-isoindol-2-yl)-4-oxo-2-phenyl-4-(quinolin-8-ylamino)butanoate'
_symmetry_cell_setting           orthorhombic
_symmetry_space_group_name_H-M   'P 21 21 21'
_symmetry_Int_Tables_number      19
_space_group_name_Hall           'P 2ac 2ab'
loop_
_symmetry_equiv_pos_site_id
_symmetry_equiv_pos_as_xyz
1 x,y,z
2 1/2-x,-y,1/2+z
3 1/2+x,1/2-y,-z
4 -x,1/2+y,1/2-z
_cell_length_a                   7.6735(5)
_cell_length_b                   14.4087(11)
_cell_length_c                   21.653(2)
_cell_angle_alpha                90
_cell_angle_beta                 90
_cell_angle_gamma                90
_cell_volume                     2394.07
_exptl_crystal_colour            colorless
_exptl_crystal_description       block
_cell_formula_units_Z            4
loop_
_atom_site_label
_atom_site_type_symbol
_atom_site_fract_x
_atom_site_fract_y
_atom_site_fract_z
O1 O 1.1392(3) 0.06416(15) 0.77617(11)
O2 O 0.6215(3) -0.02924(17) 0.85859(10)
O3 O 1.2222(3) -0.12864(14) 0.95987(11)
O4 O 1.0224(2) -0.24195(14) 0.96055(10)
O5 O 0.8851(3) -0.03277(14) 0.98955(10)
N1 N 0.8998(3) 0.01772(14) 0.83267(10)
N2 N 0.9169(4) 0.11226(15) 0.95085(11)
H1 H 0.9268 0.1414 0.9164
N3 N 0.9136(4) 0.29503(17) 0.93369(13)
C1 C 0.8477(4) 0.06027(18) 0.73210(13)
C2 C 0.8591(5) 0.0913(2) 0.67165(16)
H2 H 0.9650 0.1089 0.6543
C3 C 0.7059(6) 0.0951(2) 0.63844(17)
H3 H 0.7096 0.1148 0.5976
C4 C 0.5491(5) 0.0707(2) 0.66338(18)
H4 H 0.4486 0.0753 0.6396
C5 C 0.5374(4) 0.0388(2) 0.72456(17)
H5 H 0.4316 0.0213 0.7419
C6 C 0.6904(4) 0.03477(19) 0.75738(14)
C7 C 0.7216(4) 0.00325(18) 0.82169(14)
C8 C 0.9853(4) 0.04963(18) 0.77914(14)
C9 C 0.9909(4) -0.01957(18) 0.88625(13)
H6 H 1.1126 0.0003 0.8829
C10 C 0.9912(4) -0.12624(17) 0.88529(14)
H7 H 0.8705 -0.1482 0.8880
C11 C 1.0914(4) -0.16325(19) 0.93977(14)
C12 C 1.1035(5) -0.2817(2) 1.01473(17)
H8 H 1.2207 -0.2998 1.0050
H9 H 1.0385 -0.3352 1.0278
H10 H 1.1049 -0.2366 1.0473
C13 C 1.0702(4) -0.16170(18) 0.82550(14)
C14 C 1.2485(4) -0.1601(2) 0.81601(16)
H11 H 1.3220 -0.1393 0.8472
C15 C 1.3180(5) -0.1895(2) 0.76032(18)
H12 H 1.4381 -0.1892 0.7546
C16 C 1.2118(5) -0.2189(2) 0.71371(18)
H13 H 1.2596 -0.2384 0.6764
C17 C 1.0344(5) -0.2197(2) 0.72189(17)
H14 H 0.9616 -0.2388 0.6900
C18 C 0.9639(5) -0.19192(19) 0.77802(17)
H15 H 0.8438 -0.1936 0.7837
C19 C 0.9218(4) 0.01877(19) 0.94743(14)
C20 C 0.8978(4) 0.16785(19) 1.00360(14)
C21 C 0.8831(6) 0.1351(2) 1.06215(16)
H16 H 0.8792 0.0716 1.0695
C22 C 0.8736(6) 0.1983(3) 1.11182(17)
H17 H 0.8621 0.1753 1.1517
C23 C 0.8807(5) 0.2901(3) 1.10359(17)
H18 H 0.8765 0.3297 1.1375
C24 C 0.8947(4) 0.3269(2) 1.04346(16)
C25 C 0.9014(4) 0.2647(2) 0.99312(15)
C26 C 0.9161(7) 0.3847(2) 0.9246(2)
H19 H 0.9238 0.4057 0.8841
C27 C 0.9081(6) 0.4511(2) 0.9712(2)
H20 H 0.9088 0.5141 0.9618
C28 C 0.8993(5) 0.4221(2) 1.03002(19)
H21 H 0.8962 0.4652 1.0619
loop_
_geom_bond_atom_site_label_1
_geom_bond_atom_site_label_2
_geom_bond_site_symmetry_1
_geom_bond_site_symmetry_2
O1 C8 1_555 1_555
O2 C7 1_555 1_555
O3 C11 1_555 1_555
O4 C11 1_555 1_555
O5 C19 1_555 1_555
N1 C7 1_555 1_555
N2 H1 1_555 1_555
N3 C25 1_555 1_555
C1 C2 1_555 1_555
C2 H2 1_555 1_555
C3 C2 1_555 1_555
H3 C3 1_555 1_555
C4 C3 1_555 1_555
H4 C4 1_555 1_555
C5 C4 1_555 1_555
H5 C5 1_555 1_555
C6 C1 1_555 1_555
C7 C6 1_555 1_555
C8 N1 1_555 1_555
C9 N1 1_555 1_555
H6 C9 1_555 1_555
C10 C9 1_555 1_555
H7 C10 1_555 1_555
C11 C10 1_555 1_555
C12 O4 1_555 1_555
H8 C12 1_555 1_555
H9 C12 1_555 1_555
H10 C12 1_555 1_555
C13 C10 1_555 1_555
C14 C13 1_555 1_555
H11 C14 1_555 1_555
C15 C14 1_555 1_555
H12 C15 1_555 1_555
C16 C15 1_555 1_555
H13 C16 1_555 1_555
C17 C16 1_555 1_555
H14 C17 1_555 1_555
C18 C13 1_555 1_555
H15 C18 1_555 1_555
C19 N2 1_555 1_555
C20 N2 1_555 1_555
C21 C20 1_555 1_555
H16 C21 1_555 1_555
C22 C21 1_555 1_555
H17 C22 1_555 1_555
C23 C22 1_555 1_555
H18 C23 1_555 1_555
C24 C23 1_555 1_555
C25 C20 1_555 1_555
C26 N3 1_555 1_555
H19 C26 1_555 1_555
C27 C26 1_555 1_555
H20 C27 1_555 1_555
C28 C24 1_555 1_555
H21 C28 1_555 1_555
C1 C8 1_555 1_555
C5 C6 1_555 1_555
C9 C19 1_555 1_555
C17 C18 1_555 1_555
C24 C25 1_555 1_555
C27 C28 1_555 1_555

#END
