
#######################################################################
#
#                 Cambridge Crystallographic Data Centre
#                                CCDC 
#
#######################################################################
#
# If this CIF has been generated from an entry in the Cambridge 
# Structural Database, then it will include bibliographic, chemical, 
# crystal, experimental, refinement or atomic coordinate data resulting 
# from the CCDC's data processing and validation procedures.
#
#######################################################################

data_FAHXOC
_chemical_formula_moiety         'C17 H23 N1 O2,H1 Cl1'
_chemical_name_systematic        
'8a-(2-Hydroxy-3-methoxyphenyl)-1,2,3,4,6,7,8,8a-octahydroisoquinoline hydrochloride'
_symmetry_cell_setting           monoclinic
_symmetry_space_group_name_H-M   'P 21/c'
_symmetry_Int_Tables_number      14
_space_group_name_Hall           '-P 2ybc'
loop_
_symmetry_equiv_pos_site_id
_symmetry_equiv_pos_as_xyz
1 x,y,z
2 -x,1/2+y,1/2-z
3 -x,-y,-z
4 x,1/2-y,1/2+z
_cell_length_a                   14.028(3)
_cell_length_b                   10.183(2)
_cell_length_c                   12.740(3)
_cell_angle_alpha                90
_cell_angle_beta                 109.08(3)
_cell_angle_gamma                90
_cell_volume                     1719.89
_exptl_crystal_colour            'pale yellow'
_chemical_melting_point          126-128deg.C
_cell_formula_units_Z            4
loop_
_atom_site_label
_atom_site_type_symbol
_atom_site_fract_x
_atom_site_fract_y
_atom_site_fract_z
Cl1 Cl 0.56717(7) 0.00134(9) -0.19419(9)
O1 O 0.7382(2) -0.0220(2) 0.2128(2)
O2 O 0.7501(2) -0.2658(2) 0.1620(2)
N1 N 0.6028(2) 0.2182(2) -0.0111(2)
C1 C 0.6813(2) 0.2254(3) 0.1018(2)
H1 H 0.6653(2) 0.1614(3) 0.1500(2)
H2 H 0.6790(2) 0.3118(3) 0.1330(2)
C2 C 0.6214(3) 0.3227(3) -0.0835(2)
H3 H 0.6177(3) 0.4082(3) -0.0515(2)
H4 H 0.5700(3) 0.3190(3) -0.1562(2)
C3 C 0.7237(3) 0.3041(3) -0.0950(2)
H5 H 0.7375(3) 0.3775(3) -0.1364(2)
H6 H 0.7229(3) 0.2249(3) -0.1376(2)
C4 C 0.8080(2) 0.2937(3) 0.0153(2)
C5 C 0.8922(3) 0.3639(3) 0.0368(3)
H7 H 0.8966(3) 0.4218(3) -0.0179(3)
C6 C 0.9799(3) 0.3573(4) 0.1412(4)
H8 H 0.9840(3) 0.4383(4) 0.1824(4)
H9 H 1.0415(3) 0.3486(4) 0.1229(4)
C7 C 0.9709(2) 0.2416(4) 0.2136(3)
H10 H 0.9893(2) 0.1610(4) 0.1844(3)
H11 H 1.0169(2) 0.2539(4) 0.2886(3)
C8 C 0.8635(2) 0.2309(3) 0.2157(2)
H12 H 0.8442(2) 0.3131(3) 0.2417(2)
H13 H 0.8600(2) 0.1624(3) 0.2672(2)
C9 C 0.7893(2) 0.1994(3) 0.0998(2)
C10 C 0.8012(2) 0.0550(3) 0.0701(2)
C11 C 0.7727(2) -0.0479(3) 0.1272(2)
C12 C 0.7816(2) -0.1787(3) 0.0983(2)
C13 C 0.8199(3) -0.2101(3) 0.0150(3)
H14 H 0.8241(3) -0.2972(3) -0.0051(3)
C14 C 0.8523(3) -0.1093(4) -0.0388(3)
H15 H 0.8805(3) -0.1291(4) -0.0936(3)
C15 C 0.8427(2) 0.0208(3) -0.0112(3)
H16 H 0.8647(2) 0.0869(3) -0.0482(3)
C16 C 0.7497(3) -0.4000(3) 0.1362(4)
H17 H 0.7262(3) -0.4499(3) 0.1867(4)
H18 H 0.8169(3) -0.4273(3) 0.1426(4)
H19 H 0.7059(3) -0.4145(3) 0.0615(4)
C17 C 0.4999(2) 0.2269(5) -0.0024(3)
H20 H 0.4909(2) 0.1580(5) 0.0449(3)
H21 H 0.4506(2) 0.2179(5) -0.0749(3)
H22 H 0.4916(2) 0.3105(5) 0.0284(3)
H23 H 0.7250(36) -0.1264(50) 0.2342(38)
Cl2? Cl 0.3702(2) 0.3334(3) 0.1836(3)
loop_
_geom_bond_atom_site_label_1
_geom_bond_atom_site_label_2
_geom_bond_site_symmetry_1
_geom_bond_site_symmetry_2
O1 C11 1_555 1_555
O2 C12 1_555 1_555
N1 C1 1_555 1_555
C1 H1 1_555 1_555
H2 C1 1_555 1_555
C2 N1 1_555 1_555
H3 C2 1_555 1_555
H4 C2 1_555 1_555
C3 C2 1_555 1_555
H5 C3 1_555 1_555
H6 C3 1_555 1_555
C4 C3 1_555 1_555
C5 C4 1_555 1_555
H7 C5 1_555 1_555
C6 C5 1_555 1_555
H8 C6 1_555 1_555
H9 C6 1_555 1_555
C7 C6 1_555 1_555
H10 C7 1_555 1_555
H11 C7 1_555 1_555
C8 C7 1_555 1_555
H12 C8 1_555 1_555
H13 C8 1_555 1_555
C9 C1 1_555 1_555
C10 C9 1_555 1_555
C11 C10 1_555 1_555
C12 C11 1_555 1_555
C13 C12 1_555 1_555
H14 C13 1_555 1_555
C14 C13 1_555 1_555
H15 C14 1_555 1_555
C15 C10 1_555 1_555
H16 C15 1_555 1_555
C16 O2 1_555 1_555
H17 C16 1_555 1_555
H18 C16 1_555 1_555
H19 C16 1_555 1_555
C17 N1 1_555 1_555
H20 C17 1_555 1_555
H21 C17 1_555 1_555
H22 C17 1_555 1_555
H23 O1 1_555 1_555
C4 C9 1_555 1_555
C8 C9 1_555 1_555
C14 C15 1_555 1_555

#END
