
#######################################################################
#
#                 Cambridge Crystallographic Data Centre
#                                CCDC 
#
#######################################################################
#
# If this CIF has been generated from an entry in the Cambridge 
# Structural Database, then it will include bibliographic, chemical, 
# crystal, experimental, refinement or atomic coordinate data resulting 
# from the CCDC's data processing and validation procedures.
#
#######################################################################

data_FAHZAP
_chemical_compound_source        'marine hydroid Garveia annulata'
_chemical_formula_moiety         'C19 H20 O7'
_chemical_name_systematic        'Annulin A'
_chemical_properties_biological  'antibacterial activity'
_symmetry_cell_setting           triclinic
_symmetry_space_group_name_H-M   'P -1'
_symmetry_Int_Tables_number      2
_space_group_name_Hall           '-P 1'
loop_
_symmetry_equiv_pos_site_id
_symmetry_equiv_pos_as_xyz
1 x,y,z
2 -x,-y,-z
_cell_length_a                   5.635(2)
_cell_length_b                   10.530(2)
_cell_length_c                   15.448(5)
_cell_angle_alpha                74.78(2)
_cell_angle_beta                 82.51(3)
_cell_angle_gamma                89.59(2)
_cell_volume                     876.582
_exptl_crystal_colour            orange
_chemical_melting_point          174-176deg.C
_cell_formula_units_Z            2
loop_
_atom_site_label
_atom_site_type_symbol
_atom_site_fract_x
_atom_site_fract_y
_atom_site_fract_z
C1 C 0.1080(6) 0.6451(4) 0.2719(2)
C2 C 0.1116(6) 0.6547(3) 0.3692(2)
C3 C 0.3504(7) 0.6767(5) 0.4803(5)
C4 C 0.3592(6) 0.7568(4) 0.1365(2)
C5 C 0.4235(5) 0.6142(3) 0.1671(2)
C6 C 0.8404(6) 0.3383(3) 0.1409(2)
C7 C 0.8817(6) 0.2077(4) 0.1870(2)
C8 C 0.7305(6) 0.1413(4) 0.2648(2)
C9 C 0.5430(6) 0.2122(4) 0.2973(2)
C10 C 0.5003(6) 0.3425(3) 0.2539(2)
C11 C 0.3076(6) 0.4136(3) 0.2907(2)
C12 C 0.2855(6) 0.5516(3) 0.2429(2)
C13 C 0.6091(6) 0.5440(3) 0.1227(2)
C14 C 0.6513(6) 0.4053(3) 0.1728(2)
C15 C 0.5651(7) 0.8538(4) 0.1288(3)
C16 C 0.2408(6) 0.7867(4) 0.0501(3)
C17 C 1.0926(7) 0.1392(4) 0.1497(3)
C18 C 0.7565(7) -0.0018(4) 0.3157(3)
C19 C 0.8650(9) -0.0155(4) 0.4035(3)
O1 O -0.1262(4) 0.6105(3) 0.2645(2)
O2 O 0.3304(4) 0.6626(3) 0.3894(2)
O3 O -0.0686(4) 0.6561(3) 0.4195(2)
O4 O 0.1692(4) 0.3627(2) 0.3612(2)
O5 O 0.4015(5) 0.1480(2) 0.3747(2)
O6 O 0.7206(4) 0.5978(2) 0.0485(2)
O7 O 0.1824(4) 0.7697(2) 0.2120(1)
H1 H 0.9587(61) 0.3895(34) 0.0815(24)
H2 H 0.6469(63) 0.8321(36) 0.1867(24)
H3 H 0.4980(63) 0.9464(35) 0.1227(24)
H4 H 0.6762(63) 0.8455(35) 0.0799(25)
H5 H 0.3663(62) 0.7793(34) -0.0026(24)
H6 H 0.1800(62) 0.8822(35) 0.0403(24)
H7 H 0.0998(62) 0.7227(35) 0.0617(24)
H8 H 1.1679(64) 0.1956(36) 0.1011(25)
H9 H 1.0492(66) 0.0557(37) 0.1311(26)
H10 H 1.1928(66) 0.1002(36) 0.1920(25)
H11 H 0.5924(60) -0.0543(34) 0.3340(23)
H12 H 0.8454(62) -0.0536(34) 0.2754(24)
H13 H 0.8518(68) -0.1218(38) 0.4415(26)
H14 H 0.7804(65) 0.0347(36) 0.4358(25)
H15 H 1.0376(66) 0.0218(38) 0.3794(26)
H16 H 0.2870(67) 0.7700(37) 0.4773(26)
H17 H 0.5288(67) 0.6869(37) 0.4857(26)
H18 H 0.2581(61) 0.6188(35) 0.5176(24)
H19 H -0.2164(69) 0.6121(38) 0.3249(26)
H20 H 0.2705(63) 0.2245(36) 0.3892(25)
loop_
_geom_bond_atom_site_label_1
_geom_bond_atom_site_label_2
_geom_bond_site_symmetry_1
_geom_bond_site_symmetry_2
C1 C2 1_555 1_555
C2 O2 1_555 1_555
C3 O2 1_555 1_555
C4 C5 1_555 1_555
C5 C12 1_555 1_555
C6 C7 1_555 1_555
C7 C8 1_555 1_555
C8 C9 1_555 1_555
C9 C10 1_555 1_555
C10 C11 1_555 1_555
C11 C12 1_555 1_555
C12 C1 1_555 1_555
C13 C5 1_555 1_555
C14 C6 1_555 1_555
C15 C4 1_555 1_555
C16 C4 1_555 1_555
C17 C7 1_555 1_555
C18 C8 1_555 1_555
C19 C18 1_555 1_555
O1 C1 1_555 1_555
O3 C2 1_555 1_555
O4 C11 1_555 1_555
O5 C9 1_555 1_555
O6 C13 1_555 1_555
O7 C1 1_555 1_555
H1 C6 1_555 1_555
H2 C15 1_555 1_555
H3 C15 1_555 1_555
H4 C15 1_555 1_555
H5 C16 1_555 1_555
H6 C16 1_555 1_555
H7 C16 1_555 1_555
H8 C17 1_555 1_555
H9 C17 1_555 1_555
H10 C17 1_555 1_555
H11 C18 1_555 1_555
H12 C18 1_555 1_555
H13 C19 1_555 1_555
H14 C19 1_555 1_555
H15 C19 1_555 1_555
H16 C3 1_555 1_555
H17 C3 1_555 1_555
H18 C3 1_555 1_555
H19 O1 1_555 1_555
H20 O5 1_555 1_555
C4 O7 1_555 1_555
C10 C14 1_555 1_555
C13 C14 1_555 1_555

#END
