
#######################################################################
#
#                 Cambridge Crystallographic Data Centre
#                                CCDC 
#
#######################################################################
#
# If this CIF has been generated from an entry in the Cambridge 
# Structural Database, then it will include bibliographic, chemical, 
# crystal, experimental, refinement or atomic coordinate data resulting 
# from the CCDC's data processing and validation procedures.
#
#######################################################################

data_FAJHUT
_chemical_formula_moiety         'C4 H8 N1 O1 1+,2(C4 H7 N1 O1),Br3 1-'
_chemical_name_systematic        'tris(2-Pyrrolidinone) hydrogen tribromide'
_symmetry_cell_setting           monoclinic
_symmetry_space_group_name_H-M   'P 21/c'
_symmetry_Int_Tables_number      14
_space_group_name_Hall           '-P 2ybc'
loop_
_symmetry_equiv_pos_site_id
_symmetry_equiv_pos_as_xyz
1 x,y,z
2 -x,1/2+y,1/2-z
3 -x,-y,-z
4 x,1/2-y,1/2+z
_cell_length_a                   15.496(11)
_cell_length_b                   10.079(6)
_cell_length_c                   11.880(6)
_cell_angle_alpha                90
_cell_angle_beta                 105.08(4)
_cell_angle_gamma                90
_cell_volume                     1791.57
_exptl_crystal_colour            'dark red'
_chemical_melting_point          88-90.5deg.C
_cell_formula_units_Z            4
_chemical_properties_physical    Hygroscopic
loop_
_atom_site_label
_atom_site_type_symbol
_atom_site_fract_x
_atom_site_fract_y
_atom_site_fract_z
Br1 Br 0.0887(1) 0.4969(1) 0.1250(2)
Br2 Br 0.2403(1) 0.4868(2) 0.2693(2)
Br3 Br 0.3909(1) 0.4815(3) 0.4200(2)
O1 O 0.0106(6) 0.1014(9) 0.1204(8)
N1 N -0.1088(8) 0.1076(13) -0.0291(12)
C1 C -0.0609(8) 0.1484(16) 0.0749(14)
C2 C -0.1086(9) 0.2486(18) 0.1186(14)
C3 C -0.2027(9) 0.2578(18) 0.0276(14)
C4 C -0.1939(10) 0.1736(16) -0.0728(16)
H1 H -0.084(1) 0.035(1) -0.079(1)
H2 H -0.118(1) 0.221(2) 0.202(1)
H3 H -0.072(1) 0.341(2) 0.127(1)
H4 H -0.213(1) 0.359(2) -0.004(1)
H5 H -0.256(1) 0.229(2) 0.065(1)
H6 H -0.198(1) 0.228(2) -0.153(2)
H7 H -0.246(1) 0.100(2) -0.087(2)
O2 O 0.2301(6) 0.0475(10) 0.3049(9)
N2 N 0.1211(8) 0.1793(12) 0.3313(11)
C5 C 0.1973(9) 0.1323(15) 0.3635(14)
C6 C 0.2483(9) 0.1838(15) 0.4791(14)
C7 C 0.1862(8) 0.2835(16) 0.5064(14)
C8 C 0.0988(9) 0.2642(18) 0.4138(15)
H8 H 0.075(1) 0.155(1) 0.249(1)
H9 H 0.311(1) 0.228(1) 0.475(1)
H10 H 0.261(1) 0.105(1) 0.543(1)
H11 H 0.177(1) 0.267(2) 0.592(1)
H12 H 0.213(1) 0.382(2) 0.502(1)
H13 H 0.076(1) 0.358(2) 0.373(1)
O3 O 0.6087(6) 0.5177(13) 0.1159(8)
N3 N 0.4776(7) 0.6254(13) 0.1077(12)
C9 C 0.5601(10) 0.5945(17) 0.1565(15)
C10 C 0.5918(10) 0.6676(17) 0.2660(16)
C11 C 0.5123(10) 0.7459(22) 0.2808(16)
C12 C 0.4388(8) 0.7199(18) 0.1751(14)
H14 H 0.441(1) 0.584(1) 0.025(1)
H15 H 0.617(1) 0.601(2) 0.338(2)
H16 H 0.644(1) 0.735(2) 0.259(2)
H17 H 0.527(1) 0.851(2) 0.290(2)
H18 H 0.494(1) 0.711(2) 0.357(2)
H19 H 0.420(1) 0.811(2) 0.127(1)
H20 H 0.381(1) 0.678(2) 0.198(1)
loop_
_geom_bond_atom_site_label_1
_geom_bond_atom_site_label_2
_geom_bond_site_symmetry_1
_geom_bond_site_symmetry_2
Br1 Br2 1_555 1_555
Br2 Br3 1_555 1_555
O1 C1 1_555 1_555
N1 C1 1_555 1_555
C1 C2 1_555 1_555
C2 C3 1_555 1_555
C3 C4 1_555 1_555
C4 N1 1_555 1_555
H1 N1 1_555 1_555
H2 C2 1_555 1_555
H3 C2 1_555 1_555
H4 C3 1_555 1_555
H5 C3 1_555 1_555
H6 C4 1_555 1_555
H7 C4 1_555 1_555
O2 C5 1_555 1_555
N2 C5 1_555 1_555
C5 C6 1_555 1_555
C6 C7 1_555 1_555
C7 C8 1_555 1_555
C8 N2 1_555 1_555
H8 N2 1_555 1_555
H9 C6 1_555 1_555
H10 C6 1_555 1_555
H11 C7 1_555 1_555
H12 C7 1_555 1_555
H13 C8 1_555 1_555
O3 C9 1_555 1_555
N3 C9 1_555 1_555
C9 C10 1_555 1_555
C10 C11 1_555 1_555
C11 C12 1_555 1_555
C12 N3 1_555 1_555
H14 N3 1_555 1_555
H15 C10 1_555 1_555
H16 C10 1_555 1_555
H17 C11 1_555 1_555
H18 C11 1_555 1_555
H19 C12 1_555 1_555
H20 C12 1_555 1_555

#END
