
#######################################################################
#
#                 Cambridge Crystallographic Data Centre
#                                CCDC 
#
#######################################################################
#
# If this CIF has been generated from an entry in the Cambridge 
# Structural Database, then it will include bibliographic, chemical, 
# crystal, experimental, refinement or atomic coordinate data resulting 
# from the CCDC's data processing and validation procedures.
#
#######################################################################

data_FAJHAZ
_chemical_compound_source        'Aristalochia versicolar S.M.Hwang'
_chemical_name_common            'Versicolactone C monohydrate'
_chemical_formula_moiety         'C15 H22 O4,H2 O1'
_chemical_name_systematic        
'2,8-Dihydroxy-4-isopropenyl-7-methyl-bicyclo(5.3.0)decane-1,3-carbolactone monohydrate'
_symmetry_cell_setting           monoclinic
_symmetry_space_group_name_H-M   'P 21'
_symmetry_Int_Tables_number      4
_space_group_name_Hall           'P 2yb'
loop_
_symmetry_equiv_pos_site_id
_symmetry_equiv_pos_as_xyz
1 x,y,z
2 -x,1/2+y,-z
_cell_length_a                   7.109(2)
_cell_length_b                   6.501(4)
_cell_length_c                   15.730(7)
_cell_angle_alpha                90
_cell_angle_beta                 94.92(3)
_cell_angle_gamma                90
_cell_volume                     724.293
_exptl_crystal_colour            colorless
_chemical_melting_point          181-182deg.C
_cell_formula_units_Z            2
loop_
_atom_site_label
_atom_site_type_symbol
_atom_site_fract_x
_atom_site_fract_y
_atom_site_fract_z
O1 O 0.1175(2) 0.4763(4) 0.5979(1)
O2 O 0.8625(3) 0.7385(4) 0.6563(1)
O3 O 0.8216(2) 0.4962(3) 0.8143(1)
O4 O 0.7826(3) 0.1924(4) 0.7493(1)
C1 C 0.3123(4) 0.5324(5) 0.6121(2)
C2 C 0.4257(4) 0.4103(5) 0.5521(2)
C3 C 0.6284(4) 0.4152(6) 0.5945(2)
C4 C 0.6185(4) 0.4986(5) 0.6867(2)
C5 C 0.7008(3) 0.7160(4) 0.7036(2)
C6 C 0.7653(3) 0.7107(5) 0.7990(2)
C7 C 0.6223(3) 0.7785(5) 0.8610(2)
C8 C 0.4433(4) 0.6457(4) 0.8558(2)
C9 C 0.3343(4) 0.6406(6) 0.7673(2)
C10 C 0.4025(3) 0.4842(4) 0.7032(1)
C11 C 0.7191(4) 0.7935(5) 0.9510(2)
C12 C 0.8570(6) 0.9620(9) 0.9660(2)
C13 C 0.6831(4) 0.6655(7) 1.0140(2)
C14 C 0.3508(4) 0.2650(5) 0.7297(2)
C15 C 0.7463(3) 0.3732(4) 0.7514(1)
H1 H 0.3291(32) 0.6874(47) 0.6030(15)
H2 H 0.3749(38) 0.2765(56) 0.5470(18)
H3 H 0.4296(52) 0.4829(90) 0.4955(28)
H4 H 0.7191(42) 0.4952(64) 0.5651(18)
H5 H 0.5795(45) 0.2832(65) 0.5975(22)
H6 H 0.6116(31) 0.8287(42) 0.6907(14)
H7 H 0.8874(46) 0.7943(67) 0.8093(21)
H8 H 0.5881(49) 0.9120(62) 0.8472(21)
H9 H 0.4770(30) 0.5114(43) 0.8754(14)
H10 H 0.3567(43) 0.6940(66) 0.8974(21)
H11 H 0.3177(49) 0.7955(65) 0.7379(22)
H12 H 0.1985(41) 0.6149(57) 0.7823(19)
H13 H 0.9228(41) 0.9877(61) 1.0222(20)
H14 H 0.9729(43) 0.9557(63) 0.9331(19)
H15 H 0.7898(42) 1.1019(58) 0.9541(20)
H16 H 0.7554(43) 0.6747(64) 1.0729(20)
H17 H 0.6030(43) 0.5540(59) 1.0004(19)
H18 H 0.2144(41) 0.2610(65) 0.7324(19)
H19 H 0.3869(43) 0.1557(62) 0.6899(20)
H20 H 0.4005(41) 0.2340(60) 0.7867(18)
H21 H 0.0593(46) 0.5501(59) 0.6231(19)
H22 H 0.8883(42) 0.8527(63) 0.6448(21)
O5 O 0.0250(4) 0.0446(4) 0.5776(1)
H23 H 0.0554(43) 0.1728(63) 0.5899(20)
H24 H -0.0015(43) 0.0423(64) 0.5406(19)
loop_
_geom_bond_atom_site_label_1
_geom_bond_atom_site_label_2
_geom_bond_site_symmetry_1
_geom_bond_site_symmetry_2
O1 C1 1_555 1_555
O2 C5 1_555 1_555
O3 C6 1_555 1_555
O4 C15 1_555 1_555
O5 H23 1_555 1_555
C1 C2 1_555 1_555
C2 C3 1_555 1_555
C3 C4 1_555 1_555
C4 C5 1_555 1_555
C5 C6 1_555 1_555
C6 C7 1_555 1_555
C7 C8 1_555 1_555
C8 C9 1_555 1_555
C9 C10 1_555 1_555
C10 C1 1_555 1_555
C11 C7 1_555 1_555
C12 C11 1_555 1_555
C13 C11 1_555 1_555
C14 C10 1_555 1_555
C15 O3 1_555 1_555
H1 C1 1_555 1_555
H2 C2 1_555 1_555
H3 C2 1_555 1_555
H4 C3 1_555 1_555
H5 C3 1_555 1_555
H6 C5 1_555 1_555
H7 C6 1_555 1_555
H8 C7 1_555 1_555
H9 C8 1_555 1_555
H10 C8 1_555 1_555
H11 C9 1_555 1_555
H12 C9 1_555 1_555
H13 C12 1_555 1_555
H14 C12 1_555 1_555
H15 C12 1_555 1_555
H16 C13 1_555 1_555
H17 C13 1_555 1_555
H18 C14 1_555 1_555
H19 C14 1_555 1_555
H20 C14 1_555 1_555
H21 O1 1_555 1_555
H22 O2 1_555 1_555
H24 O5 1_555 1_555
C4 C10 1_555 1_555
C4 C15 1_555 1_555

#END
