
#######################################################################
#
#                 Cambridge Crystallographic Data Centre
#                                CCDC 
#
#######################################################################
#
# If this CIF has been generated from an entry in the Cambridge 
# Structural Database, then it will include bibliographic, chemical, 
# crystal, experimental, refinement or atomic coordinate data resulting 
# from the CCDC's data processing and validation procedures.
#
#######################################################################

data_FAJPOW
_chemical_formula_moiety         'C25 H25 F1 N2 O1'
_chemical_name_systematic        
(R)-((4aR,5S)-1-(4-Fluorophenyl)-4a-methyl-4,4a,5,6,7,8-hexahydro-1H-benzo(f)indazol-5-yl)(phenyl)methanol
_chemical_properties_biological  
'examined for human glucocorticoid receptor binding activity'
_symmetry_cell_setting           monoclinic
_symmetry_space_group_name_H-M   'P 21'
_symmetry_Int_Tables_number      4
_space_group_name_Hall           'P 2yb'
loop_
_symmetry_equiv_pos_site_id
_symmetry_equiv_pos_as_xyz
1 x,y,z
2 -x,1/2+y,-z
_cell_length_a                   11.085(2)
_cell_length_b                   6.9839(9)
_cell_length_c                   12.643(2)
_cell_angle_alpha                90
_cell_angle_beta                 96.852(6)
_cell_angle_gamma                90
_cell_volume                     971.786
_exptl_crystal_colour            colorless
_exptl_crystal_description       'thin plate'
_cell_formula_units_Z            2
loop_
_atom_site_label
_atom_site_type_symbol
_atom_site_fract_x
_atom_site_fract_y
_atom_site_fract_z
F1 F -0.01920(12) -0.0546(2) -0.53888(11)
O1 O 0.94486(15) -0.6441(3) -0.78686(13)
H1 H 0.9984 -0.6282 -0.8255
N1 N 0.37271(17) -0.1388(3) -0.76643(15)
N2 N 0.39601(17) -0.0068(3) -0.84274(15)
C1 C 0.4941(2) -0.0774(3) -0.88165(18)
H2 H 0.5316 -0.0186 -0.9351
C2 C 0.5341(2) -0.2503(3) -0.83265(18)
C3 C 0.6316(2) -0.3937(3) -0.84836(18)
H3 H 0.6993 -0.3277 -0.8743
H4 H 0.5999 -0.4851 -0.9024
C4 C 0.6789(2) -0.5043(3) -0.74440(17)
C5 C 0.7305(2) -0.7011(3) -0.77685(18)
H5 H 0.6623 -0.7656 -0.8188
C6 C 0.7665(2) -0.8323(3) -0.6814(2)
H6 H 0.7975 -0.9521 -0.7059
H7 H 0.8306 -0.7723 -0.6338
C7 C 0.6578(2) -0.8725(3) -0.62083(19)
H8 H 0.5960 -0.9413 -0.6666
H9 H 0.6833 -0.9524 -0.5594
C8 C 0.6050(2) -0.6858(3) -0.58427(18)
H10 H 0.5310 -0.7138 -0.5533
H11 H 0.6623 -0.6292 -0.5291
C9 C 0.5768(2) -0.5418(3) -0.67340(17)
C10 C 0.4740(2) -0.4409(3) -0.68121(18)
H12 H 0.4144 -0.4691 -0.6377
C11 C 0.4560(2) -0.2854(3) -0.75881(18)
C12 C 0.2701(2) -0.1149(3) -0.71071(17)
C13 C 0.2411(2) 0.0664(4) -0.67372(19)
H13 H 0.2881 0.1721 -0.6871
C14 C 0.1422(2) 0.0878(4) -0.61716(19)
H14 H 0.1210 0.2074 -0.5928
C15 C 0.0760(2) -0.0740(4) -0.59796(19)
C16 C 0.1000(2) -0.2526(4) -0.63532(19)
H15 H 0.0524 -0.3574 -0.6220
C17 C 0.1978(2) -0.2721(4) -0.69374(19)
H16 H 0.2150 -0.3908 -0.7217
C18 C 0.8320(2) -0.6899(3) -0.85127(18)
H17 H 0.8123 -0.5852 -0.9020
C19 C 0.8402(2) -0.8742(3) -0.91366(18)
C20 C 0.7561(2) -0.9052(4) -1.00387(19)
H18 H 0.6989 -0.8112 -1.0254
C21 C 0.7569(2) -1.0752(4) -1.06193(19)
H19 H 0.6985 -1.0954 -1.1200
C22 C 0.8441(2) -1.2137(4) -1.0335(2)
H20 H 0.8456 -1.3260 -1.0729
C23 C 0.9303(2) -1.1825(4) -0.94467(19)
H21 H 0.9899 -1.2738 -0.9255
C24 C 0.9271(2) -1.0155(3) -0.88487(18)
H22 H 0.9834 -0.9978 -0.8251
C25 C 0.7753(2) -0.3791(4) -0.67859(19)
H23 H 0.7375 -0.2651 -0.6557
H24 H 0.8375 -0.3448 -0.7217
H25 H 0.8107 -0.4496 -0.6175
loop_
_geom_bond_atom_site_label_1
_geom_bond_atom_site_label_2
_geom_bond_site_symmetry_1
_geom_bond_site_symmetry_2
F1 C15 1_555 1_555
O1 H1 1_555 1_555
N1 N2 1_555 1_555
N2 C1 1_555 1_555
C1 H2 1_555 1_555
C2 C1 1_555 1_555
C3 C2 1_555 1_555
H3 C3 1_555 1_555
H4 C3 1_555 1_555
C4 C3 1_555 1_555
C5 C4 1_555 1_555
H5 C5 1_555 1_555
C6 C5 1_555 1_555
H6 C6 1_555 1_555
H7 C6 1_555 1_555
C7 C6 1_555 1_555
H8 C7 1_555 1_555
H9 C7 1_555 1_555
C8 C7 1_555 1_555
H10 C8 1_555 1_555
H11 C8 1_555 1_555
C9 C4 1_555 1_555
C10 C9 1_555 1_555
H12 C10 1_555 1_555
C11 N1 1_555 1_555
C12 N1 1_555 1_555
C13 C12 1_555 1_555
H13 C13 1_555 1_555
C14 C13 1_555 1_555
H14 C14 1_555 1_555
C15 C14 1_555 1_555
C16 C15 1_555 1_555
H15 C16 1_555 1_555
C17 C12 1_555 1_555
H16 C17 1_555 1_555
C18 O1 1_555 1_555
H17 C18 1_555 1_555
C19 C18 1_555 1_555
C20 C19 1_555 1_555
H18 C20 1_555 1_555
C21 C20 1_555 1_555
H19 C21 1_555 1_555
C22 C21 1_555 1_555
H20 C22 1_555 1_555
C23 C22 1_555 1_555
H21 C23 1_555 1_555
C24 C19 1_555 1_555
H22 C24 1_555 1_555
C25 C4 1_555 1_555
H23 C25 1_555 1_555
H24 C25 1_555 1_555
H25 C25 1_555 1_555
C2 C11 1_555 1_555
C5 C18 1_555 1_555
C8 C9 1_555 1_555
C10 C11 1_555 1_555
C16 C17 1_555 1_555
C23 C24 1_555 1_555

#END
