
#######################################################################
#
#                 Cambridge Crystallographic Data Centre
#                                CCDC 
#
#######################################################################
#
# If this CIF has been generated from an entry in the Cambridge 
# Structural Database, then it will include bibliographic, chemical, 
# crystal, experimental, refinement or atomic coordinate data resulting 
# from the CCDC's data processing and validation procedures.
#
#######################################################################

data_FAJQAJ
_chemical_formula_moiety         'C33 H37 N2 O8 1+,Br1 1-,2(H2 O1)'
_chemical_name_systematic        
'1,4-bis(3,4,5-Trimethoxybenzyl)-8,9-dimethoxy-4H-benzo(de)(1,6)naphthyridin-1-ium bromide dihydrate'
_chemical_properties_biological  'inactive against human cancer cell lines'
_symmetry_cell_setting           monoclinic
_symmetry_space_group_name_H-M   'C 2/c'
_symmetry_Int_Tables_number      15
_space_group_name_Hall           '-C 2yn'
loop_
_symmetry_equiv_pos_site_id
_symmetry_equiv_pos_as_xyz
1 x,y,z
2 1/2+x,1/2+y,z
3 -x,y,1/2-z
4 1/2-x,1/2+y,1/2-z
5 -x,-y,-z
6 1/2-x,1/2-y,-z
7 x,-y,1/2+z
8 1/2+x,1/2-y,1/2+z
_cell_length_a                   24.9554(6)
_cell_length_b                   12.9354(3)
_cell_length_c                   22.1264(5)
_cell_angle_alpha                90
_cell_angle_beta                 116.0810(10)
_cell_angle_gamma                90
_cell_volume                     6415.28
_exptl_crystal_colour            'pale yellow'
_exptl_crystal_description       'flat plates'
_chemical_melting_point          '116-118 deg.C'
_cell_formula_units_Z            8
_exptl_crystal_recrystallization_method methanol/water
loop_
_atom_site_label
_atom_site_type_symbol
_atom_site_fract_x
_atom_site_fract_y
_atom_site_fract_z
Br1 Br 0.25331(3) 0.73341(5) 0.38266(3)
O1 O 0.37024(14) 0.4185(2) 0.64077(15)
O2 O 0.32068(15) 0.3023(2) 0.69911(16)
O3 O 0.61172(14) 0.6193(3) 0.67154(15)
O4 O 0.52009(16) 0.7303(2) 0.66941(17)
N1 N 0.36345(16) 0.3607(3) 0.51140(17)
N2 N 0.30128(16) 0.0649(3) 0.43891(18)
C1 C 0.34636(19) 0.2266(3) 0.4297(2)
H1 H 0.3493 0.2040 0.3903
O5 O 0.59567(15) 0.4353(3) 0.61617(18)
C2 C 0.4483(2) 0.5989(3) 0.6015(2)
H2 H 0.4153 0.6379 0.5994
C3 C 0.30025(18) 0.1302(3) 0.5593(2)
C4 C 0.34596(18) 0.3261(3) 0.6111(2)
C5 C 0.32269(17) 0.1952(3) 0.5238(2)
C6 C 0.3208(2) 0.2612(3) 0.6429(2)
C7 C 0.34477(17) 0.2965(3) 0.5495(2)
C8 C 0.29833(18) 0.1649(3) 0.6175(2)
H3 H 0.2816 0.1225 0.6398
C9 C 0.5061(2) 0.6366(3) 0.6370(2)
C10 C 0.32362(17) 0.1602(3) 0.4639(2)
C11 C 0.5454(2) 0.4834(3) 0.6095(2)
C12 C 0.2960(2) 0.0291(4) 0.3736(2)
H4 H 0.2768 0.0843 0.3399
H5 H 0.2693 -0.0318 0.3594
C13 C 0.3749(2) 0.4732(3) 0.5239(2)
H6 H 0.3495 0.4997 0.5444
H7 H 0.3623 0.5083 0.4800
C14 C 0.36381(18) 0.3228(3) 0.4543(2)
H8 H 0.3774 0.3674 0.4298
C15 C 0.2808(2) 0.0001(3) 0.4746(2)
H9 H 0.2670 -0.0670 0.4574
C16 C 0.4390(2) 0.5033(3) 0.5689(2)
O6 O 0.49592(16) -0.1339(3) 0.46920(18)
C17 C 0.3605(2) 0.0238(3) 0.3148(2)
H10 H 0.3306 0.0623 0.2795
C18 C 0.28002(19) 0.0292(3) 0.5319(2)
H11 H 0.2659 -0.0173 0.5549
C19 C 0.3540(2) 0.0004(3) 0.3725(2)
C20 C 0.5548(2) 0.5798(3) 0.6412(2)
C21 C 0.4872(2) 0.4453(3) 0.5730(2)
H12 H 0.4808 0.3801 0.5512
C22 C 0.4712(2) 0.7897(4) 0.6669(3)
H13 H 0.4860 0.8547 0.6913
H14 H 0.4500 0.7506 0.6878
H15 H 0.4438 0.8046 0.6199
C23 C 0.2992(3) 0.2380(4) 0.7370(3)
H16 H 0.3013 0.2763 0.7763
H17 H 0.3238 0.1756 0.7521
H18 H 0.2577 0.2183 0.7085
C24 C 0.4487(2) -0.0831(4) 0.4198(2)
C25 C 0.5886(2) 0.3365(4) 0.5847(3)
H19 H 0.6278 0.3093 0.5927
H20 H 0.5636 0.3436 0.5362
H21 H 0.5694 0.2889 0.6037
C26 C 0.3982(2) -0.0527(3) 0.4252(2)
H22 H 0.3937 -0.0680 0.4647
C27 C 0.4270(2) 0.4065(4) 0.6995(2)
H23 H 0.4421 0.4746 0.7190
H24 H 0.4556 0.3733 0.6864
H25 H 0.4216 0.3635 0.7329
O7 O 0.42042(19) 0.0080(5) 0.2533(2)
C28 C 0.3774(3) 0.0659(6) 0.2010(3)
H26 H 0.3892 0.0727 0.1643
H27 H 0.3743 0.1347 0.2177
H28 H 0.3388 0.0309 0.1844
C29 C 0.4109(2) -0.0096(5) 0.3090(2)
C30 C 0.4919(3) -0.1537(4) 0.5309(3)
H29 H 0.5279 -0.1900 0.5622
H30 H 0.4568 -0.1965 0.5217
H31 H 0.4883 -0.0880 0.5509
C31 C 0.4545(2) -0.0626(6) 0.3617(3)
O8 O 0.5147(3) -0.0646(4) 0.3602(3)
C32 C 0.6410(2) 0.6095(4) 0.7434(2)
H32 H 0.6809 0.6401 0.7608
H33 H 0.6443 0.5362 0.7557
H34 H 0.6176 0.6455 0.7629
C33 C 0.5047(4) -0.1512(5) 0.3446(4)
H35 H 0.5381 -0.1808 0.3383
H36 H 0.4681 -0.1562 0.3025
H37 H 0.4997 -0.1893 0.3800
O9 O 0.22198(17) 0.0038(3) 0.1680(2)
O10 O 0.3377(2) 0.7589(5) 0.5444(3)
loop_
_geom_bond_atom_site_label_1
_geom_bond_atom_site_label_2
_geom_bond_site_symmetry_1
_geom_bond_site_symmetry_2
O1 C4 1_555 1_555
O2 C6 1_555 1_555
O3 C20 1_555 1_555
O4 C9 1_555 1_555
N1 C7 1_555 1_555
N2 C10 1_555 1_555
C1 H1 1_555 1_555
O5 C11 1_555 1_555
C2 H2 1_555 1_555
C3 C5 1_555 1_555
C4 C6 1_555 1_555
C5 C7 1_555 1_555
C6 C8 1_555 1_555
C7 C4 1_555 1_555
C8 C3 1_555 1_555
H3 C8 1_555 1_555
C9 C2 1_555 1_555
C10 C1 1_555 1_555
C11 C20 1_555 1_555
C12 N2 1_555 1_555
H4 C12 1_555 1_555
H5 C12 1_555 1_555
C13 N1 1_555 1_555
H6 C13 1_555 1_555
H7 C13 1_555 1_555
C14 N1 1_555 1_555
H8 C14 1_555 1_555
C15 N2 1_555 1_555
H9 C15 1_555 1_555
C16 C2 1_555 1_555
O6 C24 1_555 1_555
C17 H10 1_555 1_555
C18 C3 1_555 1_555
H11 C18 1_555 1_555
C19 C12 1_555 1_555
C20 C9 1_555 1_555
C21 C11 1_555 1_555
H12 C21 1_555 1_555
C22 O4 1_555 1_555
H13 C22 1_555 1_555
H14 C22 1_555 1_555
H15 C22 1_555 1_555
C23 O2 1_555 1_555
H16 C23 1_555 1_555
H17 C23 1_555 1_555
H18 C23 1_555 1_555
C24 C26 1_555 1_555
C25 O5 1_555 1_555
H19 C25 1_555 1_555
H20 C25 1_555 1_555
H21 C25 1_555 1_555
C26 C19 1_555 1_555
H22 C26 1_555 1_555
C27 O1 1_555 1_555
H23 C27 1_555 1_555
H24 C27 1_555 1_555
H25 C27 1_555 1_555
O7 C28 1_555 1_555
C28 H26 1_555 1_555
H27 C28 1_555 1_555
H28 C28 1_555 1_555
C29 C17 1_555 1_555
C30 O6 1_555 1_555
H29 C30 1_555 1_555
H30 C30 1_555 1_555
H31 C30 1_555 1_555
C31 C24 1_555 1_555
O8 C31 1_555 1_555
C32 O3 1_555 1_555
H32 C32 1_555 1_555
H33 C32 1_555 1_555
H34 C32 1_555 1_555
C33 O8 1_555 1_555
H35 C33 1_555 1_555
H36 C33 1_555 1_555
H37 C33 1_555 1_555
C1 C14 1_555 1_555
C5 C10 1_555 1_555
C13 C16 1_555 1_555
C15 C18 1_555 1_555
C16 C21 1_555 1_555
C17 C19 1_555 1_555
O7 C29 1_555 1_555
C29 C31 1_555 1_555

#END
