
#######################################################################
#
#                 Cambridge Crystallographic Data Centre
#                                CCDC 
#
#######################################################################
#
# If this CIF has been generated from an entry in the Cambridge 
# Structural Database, then it will include bibliographic, chemical, 
# crystal, experimental, refinement or atomic coordinate data resulting 
# from the CCDC's data processing and validation procedures.
#
#######################################################################

data_FAJQEN
_chemical_formula_moiety         'C23 H25 N2 O5 1+,Cl1 1-,2(H2 O1)'
_chemical_name_systematic        
'8,9-Dimethoxy-4-(3,4,5-trimethoxybenzyl)-4H-benzo(de)(1,6)naphthyridin-4-ium chloride dihydrate'
_chemical_properties_biological  
'marginal activity against human cancer cell lines'
_symmetry_cell_setting           monoclinic
_symmetry_space_group_name_H-M   'P 21/n'
_symmetry_Int_Tables_number      14
_space_group_name_Hall           '-P 2yn'
loop_
_symmetry_equiv_pos_site_id
_symmetry_equiv_pos_as_xyz
1 x,y,z
2 1/2-x,1/2+y,1/2-z
3 -x,-y,-z
4 1/2+x,1/2-y,1/2+z
_cell_length_a                   8.3429(5)
_cell_length_b                   21.4198(13)
_cell_length_c                   28.6694(17)
_cell_angle_alpha                90
_cell_angle_beta                 92.436(2)
_cell_angle_gamma                90
_cell_volume                     5118.69
_exptl_crystal_colour            yellow
_exptl_crystal_description       'thin plate'
_chemical_melting_point          '198-200 deg.C(dec.)'
_cell_formula_units_Z            8
_exptl_crystal_recrystallization_method chloroform/methanol/water
loop_
_atom_site_label
_atom_site_type_symbol
_atom_site_fract_x
_atom_site_fract_y
_atom_site_fract_z
Cl1 Cl 0.3947(5) 0.98961(13) 0.67098(10)
N1 N 0.5235(11) 0.6410(6) 0.3168(4)
H1 H 0.5050 0.6195 0.3413
C1 C 0.5761(14) 0.6097(6) 0.2767(5)
H2 H 0.5851 0.5665 0.2775
C2 C 0.6133(12) 0.6398(6) 0.2377(4)
H3 H 0.6473 0.6179 0.2120
C3 C 0.5999(12) 0.7061(6) 0.2364(4)
N2 N 0.6410(11) 0.7405(6) 0.1992(3)
C4 C 0.6223(16) 0.8069(6) 0.1991(5)
H4 H 0.6531 0.8298 0.1734
C5 C 0.5635(18) 0.8355(7) 0.2339(5)
H5 H 0.5503 0.8785 0.2321
C6 C 0.5169(16) 0.8037(7) 0.2759(5)
C7 C 0.5391(12) 0.7381(5) 0.2769(4)
C8 C 0.4656(18) 0.8308(7) 0.3128(5)
H6 H 0.4531 0.8739 0.3126
C9 C 0.4279(15) 0.7972(7) 0.3533(5)
O1 O 0.3734(14) 0.8241(5) 0.3943(3)
C10 C 0.4477(14) 0.7324(7) 0.3564(4)
C11 C 0.5019(13) 0.7021(6) 0.3176(5)
O2 O 0.4285(9) 0.6999(4) 0.3956(3)
C12 C 0.7029(13) 0.7093(6) 0.1584(4)
H7 H 0.7806 0.6780 0.1688
H8 H 0.7579 0.7397 0.1397
C13 C 0.5707(13) 0.6780(5) 0.1281(4)
C14 C 0.4206(12) 0.7048(5) 0.1244(3)
H9 H 0.3954 0.7387 0.1429
C15 C 0.3075(13) 0.6803(5) 0.0923(4)
O3 O 0.1558(9) 0.7026(4) 0.0847(3)
C16 C 0.3381(14) 0.6277(6) 0.0675(4)
O4 O 0.2302(11) 0.6074(4) 0.0336(3)
C17 C 0.4872(15) 0.5999(6) 0.0718(4)
O5 O 0.5118(11) 0.5489(5) 0.0458(3)
C18 C 0.6019(14) 0.6254(5) 0.1033(4)
H10 H 0.7014 0.6061 0.1074
C19 C 0.656(2) 0.5123(7) 0.0532(6)
H11 H 0.6539 0.4776 0.0320
H12 H 0.6622 0.4971 0.0848
H13 H 0.7480 0.5379 0.0479
C20 C 0.1282(19) 0.5620(8) 0.0525(6)
H14 H 0.0536 0.5473 0.0285
H15 H 0.0704 0.5802 0.0773
H16 H 0.1913 0.5276 0.0644
C21 C 0.1108(14) 0.7496(7) 0.1119(5)
H17 H 0.0020 0.7610 0.1036
H18 H 0.1797 0.7849 0.1077
H19 H 0.1183 0.7367 0.1440
C22 C 0.2741(14) 0.6809(7) 0.4056(5)
H20 H 0.2772 0.6584 0.4346
H21 H 0.2322 0.6544 0.3811
H22 H 0.2064 0.7169 0.4081
C23 C 0.339(3) 0.8915(8) 0.3937(5)
H23 H 0.3043 0.9042 0.4238
H24 H 0.2556 0.9002 0.3705
H25 H 0.4340 0.9141 0.3865
Cl2 Cl 0.5507(9) 0.5517(3) 0.4696(2)
N3 N 0.4198(11) 0.8646(5) 0.8295(4)
H26 H 0.4455 0.8912 0.8087
C24 C 0.3712(15) 0.8841(6) 0.8717(5)
H27 H 0.3699 0.9269 0.8771
C25 C 0.3270(14) 0.8486(6) 0.9048(4)
H28 H 0.2938 0.8650 0.9328
C26 C 0.3307(12) 0.7840(7) 0.8971(4)
N4 N 0.2823(11) 0.7429(6) 0.9304(4)
C27 C 0.2926(17) 0.6799(7) 0.9230(5)
H29 H 0.2665 0.6530 0.9470
C28 C 0.3389(16) 0.6549(7) 0.8824(5)
H30 H 0.3387 0.6119 0.8779
C29 C 0.3924(14) 0.6994(6) 0.8433(5)
C30 C 0.3852(13) 0.7612(6) 0.8553(4)
C31 C 0.4444(16) 0.6790(7) 0.8019(5)
H31 H 0.4521 0.6366 0.7955
C32 C 0.4841(15) 0.7215(7) 0.7707(4)
O6 O 0.5335(11) 0.7040(5) 0.7272(3)
C33 C 0.4763(14) 0.7823(6) 0.7787(4)
C34 C 0.4272(13) 0.8041(6) 0.8209(4)
O7 O 0.5048(9) 0.8259(4) 0.7438(3)
C35 C 0.2377(13) 0.7658(6) 0.9763(4)
H32 H 0.1847 0.7325 0.9926
H33 H 0.1614 0.7997 0.9718
C36 C 0.3779(13) 0.7886(6) 1.0062(4)
C37 C 0.5236(13) 0.7552(5) 1.0062(4)
H34 H 0.5345 0.7201 0.9874
C38 C 0.6495(14) 0.7762(6) 1.0349(4)
O8 O 0.7960(9) 0.7480(4) 1.0395(3)
C39 C 0.6360(16) 0.8267(7) 1.0621(5)
O9 O 0.7615(9) 0.8497(4) 1.0914(3)
C40 C 0.4922(17) 0.8616(8) 1.0598(5)
O10 O 0.4940(10) 0.9136(5) 1.0879(4)
C41 C 0.3632(13) 0.8384(7) 1.0309(4)
H35 H 0.2659 0.8596 1.0298
C42 C 0.349(2) 0.9461(11) 1.0918(9)
H36 H 0.3658 0.9812 1.1122
H37 H 0.2705 0.9187 1.1043
H38 H 0.3121 0.9604 1.0615
C43 C 0.8747(16) 0.8876(7) 1.0659(5)
H39 H 0.9590 0.9020 1.0871
H40 H 0.8196 0.9228 1.0521
H41 H 0.9199 0.8628 1.0419
C44 C 0.8175(15) 0.6938(6) 1.0094(5)
H42 H 0.9235 0.6772 1.0149
H43 H 0.8032 0.7061 0.9773
H44 H 0.7397 0.6624 1.0163
C45 C 0.6698(14) 0.8438(7) 0.7376(5)
H45 H 0.6740 0.8735 0.7125
H46 H 0.7314 0.8076 0.7302
H47 H 0.7133 0.8624 0.7658
C46 C 0.570(2) 0.6390(8) 0.7185(6)
H48 H 0.6032 0.6343 0.6871
H49 H 0.4759 0.6141 0.7228
H50 H 0.6545 0.6254 0.7399
O11 O 0.283(2) 0.4972(8) 0.2944(8)
O12 O 0.4753(10) 0.5256(4) 0.3705(3)
O13 O 0.4615(15) 0.9771(5) 0.7806(4)
O14 O 0.2592(12) 0.0408(5) 0.8402(4)
loop_
_geom_bond_atom_site_label_1
_geom_bond_atom_site_label_2
_geom_bond_site_symmetry_1
_geom_bond_site_symmetry_2
N1 H1 1_555 1_555
C1 N1 1_555 1_555
H2 C1 1_555 1_555
C2 C1 1_555 1_555
H3 C2 1_555 1_555
C3 C2 1_555 1_555
N2 C3 1_555 1_555
C4 N2 1_555 1_555
H4 C4 1_555 1_555
C5 C4 1_555 1_555
H5 C5 1_555 1_555
C6 C5 1_555 1_555
C7 C3 1_555 1_555
C8 C6 1_555 1_555
H6 C8 1_555 1_555
C9 C8 1_555 1_555
O1 C9 1_555 1_555
C10 C9 1_555 1_555
C11 N1 1_555 1_555
O2 C10 1_555 1_555
C12 N2 1_555 1_555
H7 C12 1_555 1_555
H8 C12 1_555 1_555
C13 C12 1_555 1_555
C14 C13 1_555 1_555
H9 C14 1_555 1_555
C15 C14 1_555 1_555
O3 C15 1_555 1_555
C16 C15 1_555 1_555
O4 C16 1_555 1_555
C17 C16 1_555 1_555
O5 C17 1_555 1_555
C18 C13 1_555 1_555
H10 C18 1_555 1_555
C19 O5 1_555 1_555
H11 C19 1_555 1_555
H12 C19 1_555 1_555
H13 C19 1_555 1_555
C20 O4 1_555 1_555
H14 C20 1_555 1_555
H15 C20 1_555 1_555
H16 C20 1_555 1_555
C21 O3 1_555 1_555
H17 C21 1_555 1_555
H18 C21 1_555 1_555
H19 C21 1_555 1_555
C22 O2 1_555 1_555
H20 C22 1_555 1_555
H21 C22 1_555 1_555
H22 C22 1_555 1_555
C23 O1 1_555 1_555
H23 C23 1_555 1_555
H24 C23 1_555 1_555
H25 C23 1_555 1_555
N3 H26 1_555 1_555
C24 N3 1_555 1_555
H27 C24 1_555 1_555
C25 C24 1_555 1_555
H28 C25 1_555 1_555
C26 C25 1_555 1_555
N4 C26 1_555 1_555
C27 N4 1_555 1_555
H29 C27 1_555 1_555
C28 C27 1_555 1_555
H30 C28 1_555 1_555
C29 C28 1_555 1_555
C30 C26 1_555 1_555
C31 C29 1_555 1_555
H31 C31 1_555 1_555
C32 C31 1_555 1_555
O6 C32 1_555 1_555
C33 C32 1_555 1_555
C34 N3 1_555 1_555
O7 C33 1_555 1_555
C35 N4 1_555 1_555
H32 C35 1_555 1_555
H33 C35 1_555 1_555
C36 C35 1_555 1_555
C37 C36 1_555 1_555
H34 C37 1_555 1_555
C38 C37 1_555 1_555
O8 C38 1_555 1_555
C39 C38 1_555 1_555
O9 C39 1_555 1_555
C40 C39 1_555 1_555
O10 C40 1_555 1_555
C41 C36 1_555 1_555
H35 C41 1_555 1_555
C42 O10 1_555 1_555
H36 C42 1_555 1_555
H37 C42 1_555 1_555
H38 C42 1_555 1_555
C43 O9 1_555 1_555
H39 C43 1_555 1_555
H40 C43 1_555 1_555
H41 C43 1_555 1_555
C44 O8 1_555 1_555
H42 C44 1_555 1_555
H43 C44 1_555 1_555
H44 C44 1_555 1_555
C45 O7 1_555 1_555
H45 C45 1_555 1_555
H46 C45 1_555 1_555
H47 C45 1_555 1_555
C46 O6 1_555 1_555
H48 C46 1_555 1_555
H49 C46 1_555 1_555
H50 C46 1_555 1_555
C6 C7 1_555 1_555
C7 C11 1_555 1_555
C10 C11 1_555 1_555
C17 C18 1_555 1_555
C29 C30 1_555 1_555
C30 C34 1_555 1_555
C33 C34 1_555 1_555
C40 C41 1_555 1_555

#END
