
#######################################################################
#
#                 Cambridge Crystallographic Data Centre
#                                CCDC 
#
#######################################################################
#
# If this CIF has been generated from an entry in the Cambridge 
# Structural Database, then it will include bibliographic, chemical, 
# crystal, experimental, refinement or atomic coordinate data resulting 
# from the CCDC's data processing and validation procedures.
#
#######################################################################

data_FAKDUS
_chemical_formula_moiety         'C21 H24 N4 O1'
_chemical_name_systematic        
1,3-Dimesityl-N-nitroso-1,3-dihydro-2H-imidazol-2-imine
_symmetry_cell_setting           monoclinic
_symmetry_space_group_name_H-M   'C 2/c'
_symmetry_Int_Tables_number      15
_space_group_name_Hall           '-C 2yn'
loop_
_symmetry_equiv_pos_site_id
_symmetry_equiv_pos_as_xyz
1 x,y,z
2 -x,y,1/2-z
3 1/2+x,1/2+y,z
4 1/2-x,1/2+y,1/2-z
5 -x,-y,-z
6 x,-y,1/2+z
7 1/2-x,1/2-y,-z
8 1/2+x,1/2-y,1/2+z
_cell_length_a                   31.792(6)
_cell_length_b                   8.5019(17)
_cell_length_c                   15.557(3)
_cell_angle_alpha                90
_cell_angle_beta                 113.10(3)
_cell_angle_gamma                90
_cell_volume                     3867.79
_exptl_crystal_colour            yellow
_exptl_crystal_description       prismatic
_cell_formula_units_Z            8
loop_
_atom_site_label
_atom_site_type_symbol
_atom_site_fract_x
_atom_site_fract_y
_atom_site_fract_z
O1 O 0.12588(4) 0.14352(14) 0.29556(7)
N1 N 0.11055(4) 0.05597(15) 0.53209(9)
N2 N 0.18220(4) -0.01833(15) 0.59583(9)
N3 N 0.15917(4) 0.08970(15) 0.44240(8)
N4 N 0.12054(4) 0.09229(16) 0.36594(9)
C1 C 0.14997(5) 0.04426(17) 0.51706(10)
C2 C 0.16268(5) -0.0481(2) 0.66047(11)
H1 H 0.1777 -0.0925 0.7209
C3 C 0.11868(6) -0.0021(2) 0.62134(11)
H2 H 0.0970 -0.0080 0.6493
C4 C 0.07044(5) 0.14736(18) 0.47719(10)
C5 C 0.03120(5) 0.07172(19) 0.41446(11)
C6 C -0.00615(5) 0.1667(2) 0.36243(11)
H3 H -0.0330 0.1188 0.3188
C7 C -0.00488(5) 0.3305(2) 0.37302(11)
C8 C 0.03458(6) 0.3997(2) 0.43782(12)
H4 H 0.0353 0.5105 0.4463
C9 C 0.07306(5) 0.31086(19) 0.49066(11)
C10 C 0.02977(6) -0.1045(2) 0.40172(13)
H5 H 0.0539 -0.1367 0.3811
H6 H -0.0001 -0.1352 0.3546
H7 H 0.0345 -0.1559 0.4612
C11 C -0.04511(6) 0.4308(2) 0.31294(14)
H8 H -0.0452 0.5292 0.3457
H9 H -0.0736 0.3737 0.3007
H10 H -0.0425 0.4545 0.2536
C12 C 0.11656(6) 0.3884(2) 0.55709(13)
H11 H 0.1398 0.3842 0.5304
H12 H 0.1278 0.3329 0.6171
H13 H 0.1103 0.4984 0.5667
C13 C 0.22903(5) -0.05690(18) 0.61048(10)
C14 C 0.26041(5) 0.06557(17) 0.62236(10)
C15 C 0.30546(5) 0.02419(18) 0.63826(11)
H14 H 0.3273 0.1049 0.6463
C16 C 0.31909(5) -0.13360(19) 0.64265(11)
C17 C 0.28680(5) -0.25170(18) 0.63094(11)
H15 H 0.2959 -0.3587 0.6340
C18 C 0.24136(5) -0.21612(17) 0.61482(10)
C19 C 0.24664(5) 0.23686(17) 0.61811(11)
H16 H 0.2732 0.3037 0.6275
H17 H 0.2354 0.2584 0.6672
H18 H 0.2225 0.2594 0.5569
C20 C 0.36802(5) -0.1757(2) 0.65897(13)
H19 H 0.3824 -0.0867 0.6411
H20 H 0.3681 -0.2677 0.6211
H21 H 0.3851 -0.1999 0.7252
C21 C 0.20719(6) -0.34773(19) 0.60186(12)
H22 H 0.2061 -0.3739 0.6623
H23 H 0.2166 -0.4407 0.5766
H24 H 0.1768 -0.3137 0.5584
loop_
_geom_bond_atom_site_label_1
_geom_bond_atom_site_label_2
_geom_bond_site_symmetry_1
_geom_bond_site_symmetry_2
O1 N4 1_555 1_555
N1 C1 1_555 1_555
N2 C1 1_555 1_555
N3 N4 1_555 1_555
C1 N3 1_555 1_555
C2 N2 1_555 1_555
H1 C2 1_555 1_555
C3 N1 1_555 1_555
H2 C3 1_555 1_555
C4 N1 1_555 1_555
C5 C4 1_555 1_555
C6 C5 1_555 1_555
H3 C6 1_555 1_555
C7 C6 1_555 1_555
C8 C7 1_555 1_555
H4 C8 1_555 1_555
C9 C4 1_555 1_555
C10 C5 1_555 1_555
H5 C10 1_555 1_555
H6 C10 1_555 1_555
H7 C10 1_555 1_555
C11 C7 1_555 1_555
H8 C11 1_555 1_555
H9 C11 1_555 1_555
H10 C11 1_555 1_555
C12 C9 1_555 1_555
H11 C12 1_555 1_555
H12 C12 1_555 1_555
H13 C12 1_555 1_555
C13 N2 1_555 1_555
C14 C13 1_555 1_555
C15 C14 1_555 1_555
H14 C15 1_555 1_555
C16 C15 1_555 1_555
C17 C16 1_555 1_555
H15 C17 1_555 1_555
C18 C13 1_555 1_555
C19 C14 1_555 1_555
H16 C19 1_555 1_555
H17 C19 1_555 1_555
H18 C19 1_555 1_555
C20 C16 1_555 1_555
H19 C20 1_555 1_555
H20 C20 1_555 1_555
H21 C20 1_555 1_555
C21 C18 1_555 1_555
H22 C21 1_555 1_555
H23 C21 1_555 1_555
H24 C21 1_555 1_555
C2 C3 1_555 1_555
C8 C9 1_555 1_555
C17 C18 1_555 1_555

#END
