
#######################################################################
#
#                 Cambridge Crystallographic Data Centre
#                                CCDC 
#
#######################################################################
#
# If this CIF has been generated from an entry in the Cambridge 
# Structural Database, then it will include bibliographic, chemical, 
# crystal, experimental, refinement or atomic coordinate data resulting 
# from the CCDC's data processing and validation procedures.
#
#######################################################################

data_FAKFEE
_chemical_formula_moiety         'C23 H30 N3 1+,I3 1-'
_chemical_name_systematic        
'N-(1,3-Dimesityl-1,3-dihydro-2H-imidazol-2-ylidene)-N-methylmethanaminium tri-iodide'
_symmetry_cell_setting           triclinic
_symmetry_space_group_name_H-M   'P -1'
_symmetry_Int_Tables_number      2
_space_group_name_Hall           '-P 1'
loop_
_symmetry_equiv_pos_site_id
_symmetry_equiv_pos_as_xyz
1 x,y,z
2 -x,-y,-z
_cell_length_a                   10.4518(14)
_cell_length_b                   22.336(3)
_cell_length_c                   22.5486(18)
_cell_angle_alpha                94.873(11)
_cell_angle_beta                 98.799(11)
_cell_angle_gamma                98.834(13)
_cell_volume                     5108.55
_exptl_crystal_colour            red
_exptl_crystal_description       prismatic
_cell_formula_units_Z            8
loop_
_atom_site_label
_atom_site_type_symbol
_atom_site_fract_x
_atom_site_fract_y
_atom_site_fract_z
I1 I 0.26289(4) 0.57832(3) 0.17617(2)
I2 I 0.22795(4) 0.67235(3) 0.09783(2)
I3 I 0.21145(6) 0.77314(3) 0.01485(4)
I7 I 0.32864(8) -0.14235(4) 0.87028(5)
I8 I 0.32638(6) -0.05323(6) 0.78502(4)
I9 I 0.30841(8) 0.04451(6) 0.70354(4)
I11 I 0.14421(3) 0.195246(17) 0.581361(14)
I12 I 0.26050(3) 0.360619(16) 0.386487(17)
I13 I 0.20676(3) 0.286596(16) 0.479322(16)
N1 N 0.8053(3) -0.11701(15) 1.01164(15)
N2 N 0.8004(3) -0.17253(15) 1.08689(15)
N3 N 0.6251(3) -0.11454(16) 1.06659(16)
C1 C 0.7358(4) -0.13351(18) 1.05583(18)
C2 C 0.9124(4) -0.18030(19) 1.06129(19)
H1 H 0.9754 -0.2048 1.0746
C3 C 0.9138(4) -0.14711(18) 1.01521(19)
H2 H 0.9773 -0.1443 0.9892
C4 C 0.5336(5) -0.0945(2) 1.0199(2)
H3 H 0.5501 -0.1091 0.9800
H4 H 0.5458 -0.0498 1.0243
H5 H 0.4433 -0.1110 1.0239
C5 C 0.5855(5) -0.1135(2) 1.1264(2)
H6 H 0.6617 -0.1151 1.1571
H7 H 0.5172 -0.1488 1.1268
H8 H 0.5510 -0.0759 1.1351
C6 C 0.7862(4) -0.06999(18) 0.97191(18)
C7 C 0.7430(4) -0.08888(18) 0.91049(18)
C8 C 0.7276(4) -0.04367(19) 0.87216(18)
H9 H 0.6998 -0.0552 0.8301
C9 C 0.7521(4) 0.01854(19) 0.89420(19)
C10 C 0.7927(4) 0.03460(19) 0.95643(19)
H10 H 0.8068 0.0764 0.9720
C11 C 0.8131(4) -0.00882(19) 0.99629(18)
C12 C 0.7094(5) -0.15578(19) 0.8864(2)
H11 H 0.7886 -0.1744 0.8931
H12 H 0.6751 -0.1598 0.8430
H13 H 0.6428 -0.1763 0.9074
C13 C 0.7350(5) 0.0664(2) 0.8518(2)
H14 H 0.7266 0.1045 0.8746
H15 H 0.6557 0.0524 0.8215
H16 H 0.8116 0.0733 0.8315
C14 C 0.8626(4) 0.0100(2) 1.06309(19)
H17 H 0.9395 -0.0088 1.0760
H18 H 0.7931 -0.0036 1.0860
H19 H 0.8870 0.0544 1.0704
C15 C 0.7548(4) -0.21047(19) 1.13098(18)
C16 C 0.8180(4) -0.1976(2) 1.19098(19)
C17 C 0.7719(4) -0.2338(2) 1.2331(2)
H20 H 0.8128 -0.2256 1.2742
C18 C 0.6668(4) -0.2819(2) 1.2160(2)
C19 C 0.6076(4) -0.29385(19) 1.15550(19)
H21 H 0.5365 -0.3268 1.1438
C20 C 0.6499(4) -0.25874(19) 1.11156(19)
C21 C 0.9323(5) -0.1452(2) 1.2108(2)
H22 H 0.9128 -0.1093 1.1914
H23 H 1.0121 -0.1570 1.1989
H24 H 0.9457 -0.1357 1.2547
C22 C 0.6173(5) -0.3202(2) 1.2627(2)
H25 H 0.6582 -0.3009 1.3032
H26 H 0.6401 -0.3610 1.2567
H27 H 0.5217 -0.3235 1.2584
C23 C 0.5842(4) -0.2725(2) 1.04632(18)
H28 H 0.6509 -0.2670 1.0201
H29 H 0.5216 -0.2446 1.0374
H30 H 0.5376 -0.3146 1.0391
N4 N -0.2904(3) -0.01139(15) 0.61675(15)
N5 N -0.2740(3) -0.08444(15) 0.67504(15)
N6 N -0.1159(3) -0.06899(16) 0.60791(16)
C24 C -0.2201(4) -0.05597(18) 0.63148(18)
C25 C -0.3801(4) -0.0564(2) 0.68773(19)
H31 H -0.4356 -0.0676 0.7160
C26 C -0.3885(4) -0.0115(2) 0.65285(19)
H32 H -0.4500 0.0158 0.6525
C27 C -0.0316(5) -0.0245(2) 0.5808(2)
H33 H -0.0391 0.0168 0.5968
H34 H -0.0590 -0.0299 0.5369
H35 H 0.0598 -0.0305 0.5907
C28 C -0.0819(5) -0.1304(2) 0.6053(2)
H36 H -0.1587 -0.1600 0.6094
H37 H -0.0098 -0.1318 0.6382
H38 H -0.0545 -0.1404 0.5665
C29 C -0.2834(4) 0.02550(19) 0.56696(19)
C30 C -0.2360(4) 0.08791(19) 0.58119(19)
C31 C -0.2336(4) 0.12326(19) 0.5335(2)
H39 H -0.2033 0.1659 0.5419
C32 C -0.2744(4) 0.0979(2) 0.4734(2)
C33 C -0.3179(4) 0.0353(2) 0.46179(19)
H40 H -0.3434 0.0176 0.4210
C34 C -0.3252(4) -0.00241(19) 0.50798(18)
C35 C -0.1830(5) 0.1155(2) 0.6452(2)
H41 H -0.1126 0.0946 0.6624
H42 H -0.2538 0.1110 0.6692
H43 H -0.1484 0.1589 0.6455
C36 C -0.2720(5) 0.1380(2) 0.4224(2)
H44 H -0.2688 0.1132 0.3848
H45 H -0.1942 0.1701 0.4319
H46 H -0.3513 0.1567 0.4175
C37 C -0.3748(4) -0.07025(19) 0.4933(2)
H47 H -0.4229 -0.0850 0.5247
H48 H -0.3001 -0.0917 0.4916
H49 H -0.4333 -0.0780 0.4541
C38 C -0.2155(4) -0.12590(18) 0.71318(18)
C39 C -0.2774(4) -0.1865(2) 0.7076(2)
C40 C -0.2160(5) -0.2251(2) 0.7438(2)
H50 H -0.2556 -0.2667 0.7411
C41 C -0.0994(5) -0.2050(2) 0.7835(2)
C42 C -0.0438(5) -0.1431(2) 0.78868(19)
H51 H 0.0351 -0.1287 0.8165
C43 C -0.1009(4) -0.10216(19) 0.75431(18)
C44 C -0.4038(5) -0.2100(2) 0.6642(2)
H52 H -0.3924 -0.2008 0.6234
H53 H -0.4743 -0.1902 0.6767
H54 H -0.4268 -0.2542 0.6644
C45 C -0.0335(6) -0.2483(3) 0.8214(2)
H55 H -0.0784 -0.2902 0.8083
H56 H -0.0381 -0.2378 0.8640
H57 H 0.0588 -0.2447 0.8163
C46 C -0.0416(4) -0.03529(19) 0.7612(2)
H58 H -0.1117 -0.0107 0.7599
H59 H 0.0076 -0.0270 0.7283
H60 H 0.0180 -0.0249 0.8000
N7 N -0.2789(3) 0.51083(15) 0.11709(15)
N8 N -0.2990(3) 0.43704(16) 0.17487(15)
N9 N -0.1421(3) 0.43405(16) 0.10681(16)
C47 C -0.2334(4) 0.45923(18) 0.13136(18)
C48 C -0.3881(4) 0.4754(2) 0.18732(19)
H61 H -0.4469 0.4701 0.2154
C49 C -0.3755(4) 0.5206(2) 0.15255(18)
H62 H -0.4231 0.5536 0.1518
C50 C -0.0369(5) 0.4698(2) 0.0827(2)
H63 H -0.0309 0.5131 0.0965
H64 H -0.0558 0.4636 0.0385
H65 H 0.0466 0.4566 0.0969
C51 C -0.1434(5) 0.3680(2) 0.1011(2)
H66 H -0.2291 0.3469 0.1072
H67 H -0.0743 0.3584 0.1316
H68 H -0.1277 0.3545 0.0608
C52 C -0.2538(4) 0.54597(19) 0.06766(18)
C53 C -0.1811(4) 0.60503(19) 0.08161(18)
C54 C -0.1630(4) 0.6392(2) 0.03382(19)
H69 H -0.1142 0.6794 0.0422
C55 C -0.2143(4) 0.6161(2) -0.02606(19)
C56 C -0.2823(4) 0.5563(2) -0.03811(19)
H70 H -0.3150 0.5398 -0.0788
C57 C -0.3035(4) 0.52001(19) 0.00812(19)
C58 C -0.1213(4) 0.6305(2) 0.14614(18)
H71 H -0.0883 0.6742 0.1477
H72 H -0.0487 0.6095 0.1603
H73 H -0.1884 0.6242 0.1720
C59 C -0.1966(5) 0.6559(2) -0.0762(2)
H74 H -0.1085 0.6806 -0.0678
H75 H -0.2626 0.6828 -0.0788
H76 H -0.2073 0.6302 -0.1147
C60 C -0.3766(4) 0.4551(2) -0.0056(2)
H77 H -0.4366 0.4472 0.0233
H78 H -0.3136 0.4268 -0.0024
H79 H -0.4270 0.4493 -0.0466
C61 C -0.2612(4) 0.39067(19) 0.21245(18)
C62 C -0.3429(4) 0.3337(2) 0.20618(19)
C63 C -0.2985(5) 0.2901(2) 0.2409(2)
H80 H -0.3515 0.2510 0.2376
C64 C -0.1788(5) 0.3018(2) 0.2805(2)
C65 C -0.1037(5) 0.3597(2) 0.2868(2)
H81 H -0.0235 0.3684 0.3146
C66 C -0.1428(4) 0.4056(2) 0.25323(19)
C67 C -0.4722(5) 0.3203(2) 0.1633(2)
H82 H -0.5075 0.2766 0.1599
H83 H -0.4586 0.3318 0.1235
H84 H -0.5345 0.3437 0.1787
C68 C -0.1330(6) 0.2520(2) 0.3164(2)
H85 H -0.0373 0.2612 0.3287
H86 H -0.1572 0.2127 0.2913
H87 H -0.1748 0.2501 0.3524
C69 C -0.0593(5) 0.4683(2) 0.2614(2)
H88 H -0.1162 0.4994 0.2613
H89 H -0.0089 0.4724 0.2283
H90 H 0.0012 0.4739 0.3000
N10 N -0.2180(3) 0.37784(15) 0.50683(15)
N11 N -0.2129(3) 0.31981(14) 0.58014(15)
N12 N -0.3606(3) 0.39327(15) 0.57914(15)
C70 C -0.2705(4) 0.36528(17) 0.55667(18)
C71 C -0.1214(4) 0.30432(19) 0.54433(19)
H91 H -0.0663 0.2746 0.5511
C72 C -0.1266(4) 0.33926(18) 0.49890(19)
H92 H -0.0771 0.3381 0.4670
C73 C -0.4586(4) 0.4199(2) 0.5411(2)
H93 H -0.4659 0.4030 0.4989
H94 H -0.4317 0.4642 0.5448
H95 H -0.5439 0.4102 0.5542
C74 C -0.3646(5) 0.4008(2) 0.64432(19)
H96 H -0.2813 0.3939 0.6669
H97 H -0.4369 0.3714 0.6532
H98 H -0.3783 0.4423 0.6562
C75 C -0.2314(4) 0.42961(18) 0.47293(18)
C76 C -0.2972(4) 0.41860(19) 0.41299(18)
C77 C -0.3039(4) 0.4685(2) 0.38064(19)
H99 H -0.3474 0.4622 0.3399
C78 C -0.2484(4) 0.5277(2) 0.4064(2)
C79 C -0.1871(4) 0.53679(19) 0.46651(19)
H100 H -0.1520 0.5772 0.4845
C80 C -0.1755(4) 0.48826(18) 0.50126(18)
C81 C -0.3620(4) 0.3550(2) 0.3859(2)
H101 H -0.4140 0.3568 0.3463
H102 H -0.4197 0.3371 0.4126
H103 H -0.2945 0.3298 0.3814
C82 C -0.2542(5) 0.5807(2) 0.3689(2)
H104 H -0.2356 0.6191 0.3957
H105 H -0.3421 0.5765 0.3447
H106 H -0.1888 0.5809 0.3420
C83 C -0.1083(4) 0.49907(19) 0.56644(18)
H107 H -0.0632 0.4649 0.5761
H108 H -0.1739 0.5024 0.5927
H109 H -0.0442 0.5369 0.5728
C84 C -0.2550(4) 0.28480(18) 0.62714(18)
C85 C -0.1724(4) 0.29097(18) 0.68312(18)
C86 C -0.2183(5) 0.25896(19) 0.72827(19)
H110 H -0.1638 0.2621 0.7666
C87 C -0.3415(5) 0.22269(19) 0.7188(2)
C88 C -0.4194(4) 0.21676(19) 0.6619(2)
H111 H -0.5032 0.1914 0.6552
C89 C -0.3785(4) 0.24671(18) 0.61481(19)
C90 C -0.0384(5) 0.3312(2) 0.6945(2)
H112 H -0.0479 0.3724 0.6847
H113 H 0.0182 0.3143 0.6689
H114 H 0.0010 0.3328 0.7370
C91 C -0.3907(5) 0.1893(2) 0.7691(2)
H115 H -0.3257 0.2000 0.8062
H116 H -0.4040 0.1452 0.7575
H117 H -0.4741 0.2012 0.7760
C92 C -0.4635(4) 0.2394(2) 0.5532(2)
H118 H -0.5361 0.2053 0.5507
H119 H -0.4105 0.2312 0.5220
H120 H -0.4988 0.2770 0.5468
I4? I 0.2717(3) 0.5386(3) 0.19459(19)
I5? I 0.2286(3) 0.6339(3) 0.1213(2)
I6? I 0.2181(5) 0.7568(3) 0.0409(3)
I10? I 0.30855(3) 0.431822(16) 0.262754(16)
I14? I 0.37215(12) -0.11498(7) 0.82643(10)
I15? I 0.31877(12) -0.01723(9) 0.74652(11)
I16? I 0.26245(19) 0.08002(9) 0.67486(11)
loop_
_geom_bond_atom_site_label_1
_geom_bond_atom_site_label_2
_geom_bond_site_symmetry_1
_geom_bond_site_symmetry_2
I1 I2 1_555 1_555
I2 I3 1_555 1_555
I7 I8 1_555 1_555
I8 I9 1_555 1_555
I11 I13 1_555 1_555
I12 I13 1_555 1_555
N1 C1 1_555 1_555
N2 C1 1_555 1_555
N3 C1 1_555 1_555
N4 C24 1_555 1_555
N5 C24 1_555 1_555
N6 C24 1_555 1_555
N7 C47 1_555 1_555
N8 C47 1_555 1_555
N9 C47 1_555 1_555
N10 C70 1_555 1_555
N11 C70 1_555 1_555
N12 C70 1_555 1_555
C2 N2 1_555 1_555
H1 C2 1_555 1_555
C3 N1 1_555 1_555
H2 C3 1_555 1_555
C4 N3 1_555 1_555
H3 C4 1_555 1_555
H4 C4 1_555 1_555
H5 C4 1_555 1_555
C5 N3 1_555 1_555
H6 C5 1_555 1_555
H7 C5 1_555 1_555
H8 C5 1_555 1_555
C6 N1 1_555 1_555
C7 C6 1_555 1_555
C8 C7 1_555 1_555
H9 C8 1_555 1_555
C9 C8 1_555 1_555
C10 C9 1_555 1_555
H10 C10 1_555 1_555
C11 C6 1_555 1_555
C12 C7 1_555 1_555
H11 C12 1_555 1_555
H12 C12 1_555 1_555
H13 C12 1_555 1_555
C13 C9 1_555 1_555
H14 C13 1_555 1_555
H15 C13 1_555 1_555
H16 C13 1_555 1_555
C14 C11 1_555 1_555
H17 C14 1_555 1_555
H18 C14 1_555 1_555
H19 C14 1_555 1_555
C15 N2 1_555 1_555
C16 C15 1_555 1_555
C17 C16 1_555 1_555
H20 C17 1_555 1_555
C18 C17 1_555 1_555
C19 C18 1_555 1_555
H21 C19 1_555 1_555
C20 C15 1_555 1_555
C21 C16 1_555 1_555
H22 C21 1_555 1_555
H23 C21 1_555 1_555
H24 C21 1_555 1_555
C22 C18 1_555 1_555
H25 C22 1_555 1_555
H26 C22 1_555 1_555
H27 C22 1_555 1_555
C23 C20 1_555 1_555
H28 C23 1_555 1_555
H29 C23 1_555 1_555
H30 C23 1_555 1_555
C25 N5 1_555 1_555
H31 C25 1_555 1_555
C26 N4 1_555 1_555
H32 C26 1_555 1_555
C27 N6 1_555 1_555
H33 C27 1_555 1_555
H34 C27 1_555 1_555
H35 C27 1_555 1_555
C28 N6 1_555 1_555
H36 C28 1_555 1_555
H37 C28 1_555 1_555
H38 C28 1_555 1_555
C29 N4 1_555 1_555
C30 C29 1_555 1_555
C31 C30 1_555 1_555
H39 C31 1_555 1_555
C32 C31 1_555 1_555
C33 C32 1_555 1_555
H40 C33 1_555 1_555
C34 C29 1_555 1_555
C35 C30 1_555 1_555
H41 C35 1_555 1_555
H42 C35 1_555 1_555
H43 C35 1_555 1_555
C36 C32 1_555 1_555
H44 C36 1_555 1_555
H45 C36 1_555 1_555
H46 C36 1_555 1_555
C37 C34 1_555 1_555
H47 C37 1_555 1_555
H48 C37 1_555 1_555
H49 C37 1_555 1_555
C38 N5 1_555 1_555
C39 C38 1_555 1_555
C40 C39 1_555 1_555
H50 C40 1_555 1_555
C41 C40 1_555 1_555
C42 C41 1_555 1_555
H51 C42 1_555 1_555
C43 C38 1_555 1_555
C44 C39 1_555 1_555
H52 C44 1_555 1_555
H53 C44 1_555 1_555
H54 C44 1_555 1_555
C45 C41 1_555 1_555
H55 C45 1_555 1_555
H56 C45 1_555 1_555
H57 C45 1_555 1_555
C46 C43 1_555 1_555
H58 C46 1_555 1_555
H59 C46 1_555 1_555
H60 C46 1_555 1_555
C48 N8 1_555 1_555
H61 C48 1_555 1_555
C49 N7 1_555 1_555
H62 C49 1_555 1_555
C50 N9 1_555 1_555
H63 C50 1_555 1_555
H64 C50 1_555 1_555
H65 C50 1_555 1_555
C51 N9 1_555 1_555
H66 C51 1_555 1_555
H67 C51 1_555 1_555
H68 C51 1_555 1_555
C52 N7 1_555 1_555
C53 C52 1_555 1_555
C54 C53 1_555 1_555
H69 C54 1_555 1_555
C55 C54 1_555 1_555
C56 C55 1_555 1_555
H70 C56 1_555 1_555
C57 C52 1_555 1_555
C58 C53 1_555 1_555
H71 C58 1_555 1_555
H72 C58 1_555 1_555
H73 C58 1_555 1_555
C59 C55 1_555 1_555
H74 C59 1_555 1_555
H75 C59 1_555 1_555
H76 C59 1_555 1_555
C60 C57 1_555 1_555
H77 C60 1_555 1_555
H78 C60 1_555 1_555
H79 C60 1_555 1_555
C61 N8 1_555 1_555
C62 C61 1_555 1_555
C63 C62 1_555 1_555
H80 C63 1_555 1_555
C64 C63 1_555 1_555
C65 C64 1_555 1_555
H81 C65 1_555 1_555
C66 C61 1_555 1_555
C67 C62 1_555 1_555
H82 C67 1_555 1_555
H83 C67 1_555 1_555
H84 C67 1_555 1_555
C68 C64 1_555 1_555
H85 C68 1_555 1_555
H86 C68 1_555 1_555
H87 C68 1_555 1_555
C69 C66 1_555 1_555
H88 C69 1_555 1_555
H89 C69 1_555 1_555
H90 C69 1_555 1_555
C71 N11 1_555 1_555
H91 C71 1_555 1_555
C72 N10 1_555 1_555
H92 C72 1_555 1_555
C73 N12 1_555 1_555
H93 C73 1_555 1_555
H94 C73 1_555 1_555
H95 C73 1_555 1_555
C74 N12 1_555 1_555
H96 C74 1_555 1_555
H97 C74 1_555 1_555
H98 C74 1_555 1_555
C75 N10 1_555 1_555
C76 C75 1_555 1_555
C77 C76 1_555 1_555
H99 C77 1_555 1_555
C78 C77 1_555 1_555
C79 C78 1_555 1_555
H100 C79 1_555 1_555
C80 C75 1_555 1_555
C81 C76 1_555 1_555
H101 C81 1_555 1_555
H102 C81 1_555 1_555
H103 C81 1_555 1_555
C82 C78 1_555 1_555
H104 C82 1_555 1_555
H105 C82 1_555 1_555
H106 C82 1_555 1_555
C83 C80 1_555 1_555
H107 C83 1_555 1_555
H108 C83 1_555 1_555
H109 C83 1_555 1_555
C84 N11 1_555 1_555
C85 C84 1_555 1_555
C86 C85 1_555 1_555
H110 C86 1_555 1_555
C87 C86 1_555 1_555
C88 C87 1_555 1_555
H111 C88 1_555 1_555
C89 C84 1_555 1_555
C90 C85 1_555 1_555
H112 C90 1_555 1_555
H113 C90 1_555 1_555
H114 C90 1_555 1_555
C91 C87 1_555 1_555
H115 C91 1_555 1_555
H116 C91 1_555 1_555
H117 C91 1_555 1_555
C92 C89 1_555 1_555
H118 C92 1_555 1_555
H119 C92 1_555 1_555
H120 C92 1_555 1_555
C2 C3 1_555 1_555
C10 C11 1_555 1_555
C19 C20 1_555 1_555
C25 C26 1_555 1_555
C33 C34 1_555 1_555
C42 C43 1_555 1_555
C48 C49 1_555 1_555
C56 C57 1_555 1_555
C65 C66 1_555 1_555
C71 C72 1_555 1_555
C79 C80 1_555 1_555
C88 C89 1_555 1_555

#END
