
#######################################################################
#
#                 Cambridge Crystallographic Data Centre
#                                CCDC 
#
#######################################################################
#
# If this CIF has been generated from an entry in the Cambridge 
# Structural Database, then it will include bibliographic, chemical, 
# crystal, experimental, refinement or atomic coordinate data resulting 
# from the CCDC's data processing and validation procedures.
#
#######################################################################

data_FAKKEI
_chemical_formula_moiety         'C21 H21 Br3 N3 P3,0.5(C1 H2 Cl2)'
_chemical_name_systematic        
'cis-1,3,5-tris(Bromomethyl)-1,3,5-triphenylcyclotriphosphazene dichloromethane solvate'
_symmetry_cell_setting           monoclinic
_symmetry_space_group_name_H-M   'C 2/c'
_symmetry_Int_Tables_number      15
_space_group_name_Hall           '-C 2yn'
loop_
_symmetry_equiv_pos_site_id
_symmetry_equiv_pos_as_xyz
1 x,y,z
2 1/2+x,1/2+y,z
3 -x,y,1/2-z
4 1/2-x,1/2+y,1/2-z
5 -x,-y,-z
6 1/2-x,1/2-y,-z
7 x,-y,1/2+z
8 1/2+x,1/2-y,1/2+z
_cell_length_a                   16.4817(9)
_cell_length_b                   15.4102(9)
_cell_length_c                   20.9980(13)
_cell_angle_alpha                90
_cell_angle_beta                 96.699(5)
_cell_angle_gamma                90
_cell_volume                     5296.79
_exptl_crystal_colour            colorless
_exptl_crystal_description       plates
_cell_formula_units_Z            8
_exptl_crystal_recrystallization_method dichloromethane
loop_
_atom_site_label
_atom_site_type_symbol
_atom_site_fract_x
_atom_site_fract_y
_atom_site_fract_z
P1 P 0.81136(11) -0.06384(12) 0.07405(8)
P2 P 0.90883(11) 0.08492(12) 0.08181(8)
P3 P 0.83048(11) 0.03409(12) 0.18625(8)
N1 N 0.7916(3) -0.0451(4) 0.1449(3)
N2 N 0.8661(3) 0.0050(4) 0.0421(2)
N3 N 0.8981(4) 0.0916(4) 0.1554(2)
Br1 Br 0.96615(5) -0.16547(6) 0.12447(5)
Br2 Br 1.08104(5) 0.17166(6) 0.10830(4)
Br3 Br 0.81416(6) -0.05616(6) 0.31731(4)
C1 C 0.8597(4) -0.1691(5) 0.0741(3)
H1 H 0.8658 -0.1861 0.0305
H2 H 0.8256 -0.2119 0.0921
C2 C 1.0168(4) 0.0748(4) 0.0739(3)
H3 H 1.0235 0.0686 0.0288
H4 H 1.0374 0.0224 0.0957
C3 C 0.8847(4) -0.0057(5) 0.2596(3)
H5 H 0.9151 0.0418 0.2813
H6 H 0.9238 -0.0491 0.2494
C4 C 0.7183(4) -0.0816(4) 0.0218(3)
C5 C 0.6466(5) -0.1043(6) 0.0468(4)
H7 H 0.6472 -0.1122 0.0908
C6 C 0.5760(6) -0.1149(7) 0.0077(6)
H8 H 0.5283 -0.1295 0.0247
C7 C 0.5753(6) -0.1038(7) -0.0582(6)
H9 H 0.5267 -0.1098 -0.0851
C8 C 0.6454(6) -0.0842(6) -0.0836(4)
H10 H 0.6452 -0.0791 -0.1278
C9 C 0.7164(5) -0.0719(5) -0.0435(4)
H11 H 0.7640 -0.0568 -0.0607
C10 C 0.8802(4) 0.1858(5) 0.0423(3)
C11 C 0.8686(5) 0.2600(5) 0.0759(4)
H12 H 0.8732 0.2581 0.1205
C12 C 0.8504(6) 0.3370(6) 0.0447(6)
H13 H 0.8450 0.3872 0.0684
C13 C 0.8400(6) 0.3409(7) -0.0212(6)
H14 H 0.8257 0.3926 -0.0425
C14 C 0.8513(6) 0.2675(7) -0.0540(5)
H15 H 0.8463 0.2698 -0.0985
C15 C 0.8701(5) 0.1890(6) -0.0240(4)
H16 H 0.8758 0.1391 -0.0480
C16 C 0.7505(5) 0.1021(5) 0.2102(3)
C17 C 0.7698(6) 0.1798(5) 0.2420(4)
H17 H 0.8238 0.1982 0.2503
C18 C 0.7064(7) 0.2293(6) 0.2611(4)
H18 H 0.7186 0.2811 0.2828
C19 C 0.6276(8) 0.2043(9) 0.2489(5)
H19 H 0.5865 0.2389 0.2622
C20 C 0.6082(6) 0.1293(8) 0.2175(4)
H20 H 0.5538 0.1126 0.2091
C21 C 0.6686(5) 0.0775(6) 0.1978(4)
H21 H 0.6548 0.0260 0.1762
Cl1 Cl 0.9154(3) 0.3686(4) 0.2546(3)
C22 C 1.0000 0.310(2) 0.2500
H22 H 0.9909 0.2680 0.2128
Cl1B Cl 1.0846(3) 0.3686(4) 0.2454(3)
H22B H 1.0091 0.2680 0.2872
loop_
_geom_bond_atom_site_label_1
_geom_bond_atom_site_label_2
_geom_bond_site_symmetry_1
_geom_bond_site_symmetry_2
P1 N1 1_555 1_555
P2 N2 1_555 1_555
P3 N1 1_555 1_555
N2 P1 1_555 1_555
N3 P2 1_555 1_555
Br1 C1 1_555 1_555
Br2 C2 1_555 1_555
Br3 C3 1_555 1_555
C1 P1 1_555 1_555
H1 C1 1_555 1_555
H2 C1 1_555 1_555
C2 P2 1_555 1_555
H3 C2 1_555 1_555
H4 C2 1_555 1_555
C3 P3 1_555 1_555
H5 C3 1_555 1_555
H6 C3 1_555 1_555
C4 P1 1_555 1_555
C5 C4 1_555 1_555
H7 C5 1_555 1_555
C6 C5 1_555 1_555
H8 C6 1_555 1_555
C7 C6 1_555 1_555
H9 C7 1_555 1_555
C8 C7 1_555 1_555
H10 C8 1_555 1_555
C9 C4 1_555 1_555
H11 C9 1_555 1_555
C10 P2 1_555 1_555
C11 C10 1_555 1_555
H12 C11 1_555 1_555
C12 C11 1_555 1_555
H13 C12 1_555 1_555
C13 C12 1_555 1_555
H14 C13 1_555 1_555
C14 C13 1_555 1_555
H15 C14 1_555 1_555
C15 C10 1_555 1_555
H16 C15 1_555 1_555
C16 P3 1_555 1_555
C17 C16 1_555 1_555
H17 C17 1_555 1_555
C18 C17 1_555 1_555
H18 C18 1_555 1_555
C19 C18 1_555 1_555
H19 C19 1_555 1_555
C20 C19 1_555 1_555
H20 C20 1_555 1_555
C21 C16 1_555 1_555
H21 C21 1_555 1_555
Cl1 C22 1_555 1_555
C22 H22 1_555 1_555
Cl1B C22 1_555 1_555
H22B C22 1_555 1_555
P3 N3 1_555 1_555
C8 C9 1_555 1_555
C14 C15 1_555 1_555
C20 C21 1_555 1_555

#END
