
#######################################################################
#
#                 Cambridge Crystallographic Data Centre
#                                CCDC 
#
#######################################################################
#
# If this CIF has been generated from an entry in the Cambridge 
# Structural Database, then it will include bibliographic, chemical, 
# crystal, experimental, refinement or atomic coordinate data resulting 
# from the CCDC's data processing and validation procedures.
#
#######################################################################

data_FAKMOW
_chemical_formula_moiety         'C16 H11 F3 N2'
_chemical_name_systematic        
'3,5-diphenyl-4-(trifluoromethyl)-1H-pyrazole unknown solvate'
_symmetry_cell_setting           monoclinic
_symmetry_space_group_name_H-M   'C 2/m'
_symmetry_Int_Tables_number      12
_space_group_name_Hall           '-C 2y'
loop_
_symmetry_equiv_pos_site_id
_symmetry_equiv_pos_as_xyz
1 x,y,z
2 -x,y,-z
3 1/2+x,1/2+y,z
4 1/2-x,1/2+y,-z
5 -x,-y,-z
6 x,-y,z
7 1/2-x,1/2-y,-z
8 1/2+x,1/2-y,z
_cell_length_a                   19.7139(8)
_cell_length_b                   16.5332(7)
_cell_length_c                   9.8301(4)
_cell_angle_alpha                90
_cell_angle_beta                 106.092(3)
_cell_angle_gamma                90
_cell_volume                     3078.42
_exptl_crystal_colour            colorless
_exptl_crystal_description       block
_cell_formula_units_Z            8
loop_
_atom_site_label
_atom_site_type_symbol
_atom_site_fract_x
_atom_site_fract_y
_atom_site_fract_z
N1 N 0.44572(10) 0.04088(13) 0.8693(2)
F1 F 0.24409(7) 0.06390(10) 0.60866(18)
F2 F 0.28457(12) 0.0000 0.4613(2)
C1 C 0.39004(11) 0.06764(16) 0.7664(2)
C2 C 0.35289(16) 0.0000 0.6995(3)
C3 C 0.28238(18) 0.0000 0.5951(4)
C4 C 0.37909(11) 0.15511(16) 0.7465(2)
C5 C 0.35650(13) 0.18906(18) 0.6118(2)
H1 H 0.3466 0.1558 0.5324
C6 C 0.34881(16) 0.2710(2) 0.5956(3)
H2 H 0.3343 0.2929 0.5050
C7 C 0.36208(17) 0.3214(2) 0.7105(3)
H3 H 0.3558 0.3769 0.6989
C8 C 0.38489(17) 0.2880(2) 0.8436(3)
H4 H 0.3947 0.3217 0.9225
C9 C 0.39328(14) 0.20713(18) 0.8621(3)
H5 H 0.4087 0.1861 0.9533
N1E N 0.44572(10) -0.04088(13) 0.8693(2)
F1E F 0.24409(7) -0.06390(10) 0.60866(18)
C1E C 0.39004(11) -0.06764(16) 0.7664(2)
C4E C 0.37909(11) -0.15511(16) 0.7465(2)
C5E C 0.35650(13) -0.18906(18) 0.6118(2)
H1E H 0.3466 -0.1558 0.5324
C6E C 0.34881(16) -0.2710(2) 0.5956(3)
H2E H 0.3343 -0.2929 0.5050
C7E C 0.36208(17) -0.3214(2) 0.7105(3)
H3E H 0.3558 -0.3769 0.6989
C8E C 0.38489(17) -0.2880(2) 0.8436(3)
H4E H 0.3947 -0.3217 0.9225
C9E C 0.39328(14) -0.20713(18) 0.8621(3)
H5E H 0.4087 -0.1861 0.9533
F3 F 0.29604(8) 0.06438(10) -0.01754(14)
F4 F 0.23298(10) 0.0000 0.0911(2)
N2 N 0.44331(10) 0.04073(12) 0.37445(19)
C10 C 0.39055(10) 0.06751(14) 0.2664(2)
C11 C 0.35551(15) 0.0000 0.1943(3)
C12 C 0.29528(17) 0.0000 0.0623(3)
C13 C 0.38012(11) 0.15599(15) 0.2460(2)
C14 C 0.31337(13) 0.18997(16) 0.2063(2)
H6 H 0.2738 0.1568 0.1899
C15 C 0.30490(16) 0.27264(18) 0.1908(3)
H7 H 0.2598 0.2949 0.1635
C16 C 0.36252(17) 0.32170(18) 0.2154(3)
H8 H 0.3567 0.3774 0.2053
C17 C 0.42890(17) 0.28939(18) 0.2549(3)
H9 H 0.4681 0.3230 0.2713
C18 C 0.43772(14) 0.20635(16) 0.2706(3)
H10 H 0.4830 0.1846 0.2980
F3E F 0.29604(8) -0.06438(10) -0.01754(14)
N2E N 0.44331(10) -0.04073(12) 0.37445(19)
C10E C 0.39055(10) -0.06751(14) 0.2664(2)
C13E C 0.38012(11) -0.15599(15) 0.2460(2)
C14E C 0.31337(13) -0.18997(16) 0.2063(2)
H6E H 0.2738 -0.1568 0.1899
C15E C 0.30490(16) -0.27264(18) 0.1908(3)
H7E H 0.2598 -0.2949 0.1635
C16E C 0.36252(17) -0.32170(18) 0.2154(3)
H8E H 0.3567 -0.3774 0.2053
C17E C 0.42890(17) -0.28939(18) 0.2549(3)
H9E H 0.4681 -0.3230 0.2713
C18E C 0.43772(14) -0.20635(16) 0.2706(3)
H10E H 0.4830 -0.1846 0.2980
loop_
_geom_bond_atom_site_label_1
_geom_bond_atom_site_label_2
_geom_bond_site_symmetry_1
_geom_bond_site_symmetry_2
N1 C1 1_555 1_555
F1 C3 1_555 1_555
F2 C3 1_555 1_555
C1 C2 1_555 1_555
C2 C3 1_555 1_555
C3 F1E 1_555 1_555
C4 C1 1_555 1_555
C5 C4 1_555 1_555
H1 C5 1_555 1_555
C6 C5 1_555 1_555
H2 C6 1_555 1_555
C7 C6 1_555 1_555
H3 C7 1_555 1_555
C8 C7 1_555 1_555
H4 C8 1_555 1_555
C9 C4 1_555 1_555
H5 C9 1_555 1_555
F3 C12 1_555 1_555
F4 C12 1_555 1_555
N2 C10 1_555 1_555
C10 C11 1_555 1_555
C11 C12 1_555 1_555
C12 F3E 1_555 1_555
C13 C10 1_555 1_555
C14 C13 1_555 1_555
H6 C14 1_555 1_555
C15 C14 1_555 1_555
H7 C15 1_555 1_555
C16 C15 1_555 1_555
H8 C16 1_555 1_555
C17 C16 1_555 1_555
H9 C17 1_555 1_555
C18 C13 1_555 1_555
H10 C18 1_555 1_555
N1E N1 1_555 1_555
C1E C2 1_555 1_555
C4E C1E 1_555 1_555
C5E C4E 1_555 1_555
H1E C5E 1_555 1_555
C6E C5E 1_555 1_555
H2E C6E 1_555 1_555
C7E C6E 1_555 1_555
H3E C7E 1_555 1_555
C8E C7E 1_555 1_555
H4E C8E 1_555 1_555
C9E C4E 1_555 1_555
H5E C9E 1_555 1_555
N2E N2 1_555 1_555
C10E C11 1_555 1_555
C13E C10E 1_555 1_555
C14E C13E 1_555 1_555
H6E C14E 1_555 1_555
C15E C14E 1_555 1_555
H7E C15E 1_555 1_555
C16E C15E 1_555 1_555
H8E C16E 1_555 1_555
C17E C16E 1_555 1_555
H9E C17E 1_555 1_555
C18E C13E 1_555 1_555
H10E C18E 1_555 1_555
C8 C9 1_555 1_555
C17 C18 1_555 1_555
N1E C1E 1_555 1_555
C8E C9E 1_555 1_555
N2E C10E 1_555 1_555
C17E C18E 1_555 1_555

#END
