
#######################################################################
#
#                 Cambridge Crystallographic Data Centre
#                                CCDC 
#
#######################################################################
#
# If this CIF has been generated from an entry in the Cambridge 
# Structural Database, then it will include bibliographic, chemical, 
# crystal, experimental, refinement or atomic coordinate data resulting 
# from the CCDC's data processing and validation procedures.
#
#######################################################################

data_FAKTIV
_chemical_formula_moiety         'C52 H56 B2 N2 O8,C1 H4 O1'
_chemical_name_systematic        
'(S,S)-9,10-bis(N-((2-(hydroxy(methoxy)boryl)phenyl)methyl)-N-(1-phenylethyl)aminomethyl)anthracene L-tartrate methanol solvate'
_symmetry_cell_setting           trigonal
_symmetry_space_group_name_H-M   'P 32 2 1'
_symmetry_Int_Tables_number      154
_space_group_name_Hall           'P 32 2"'
loop_
_symmetry_equiv_pos_site_id
_symmetry_equiv_pos_as_xyz
1 x,y,z
2 -y,x-y,2/3+z
3 -x+y,-x,1/3+z
4 x-y,-y,1/3-z
5 -x,-x+y,2/3-z
6 y,x,-z
_cell_length_a                   19.4347(3)
_cell_length_b                   19.4347(3)
_cell_length_c                   30.1815(5)
_cell_angle_alpha                90
_cell_angle_beta                 90
_cell_angle_gamma                120
_cell_volume                     9872.5
_exptl_crystal_colour            colorless
_exptl_crystal_description       parallelepiped
_cell_formula_units_Z            6
loop_
_atom_site_label
_atom_site_type_symbol
_atom_site_fract_x
_atom_site_fract_y
_atom_site_fract_z
O1 O 0.83332(17) 0.28502(19) 0.19014(9)
N1 N 0.99100(19) 0.3636(2) 0.18823(11)
H1 H 0.9396 0.3274 0.1973
C1 C 1.0332(2) 0.4143(3) 0.22839(12)
H2 H 1.0541 0.3864 0.2465
H3 H 1.0791 0.4649 0.2182
B1 B 0.8018(3) 0.2837(3) 0.14678(16)
O2 O 0.74492(15) 0.47221(17) 0.23522(8)
N2 N 0.76194(18) 0.4800(2) 0.32386(10)
H4 H 0.7745 0.4981 0.2948
C2 C 0.9832(3) 0.4133(3) 0.15182(13)
H5 H 0.9495 0.4347 0.1626
H6 H 1.0364 0.4589 0.1451
B2 B 0.6663(3) 0.4092(3) 0.22212(14)
O3 O 0.72906(18) 0.20404(17) 0.13954(10)
C3 C 1.0284(3) 0.3145(3) 0.17258(14)
H7 H 1.0024 0.2891 0.1439
O4 O 0.5985(2) 0.1557(2) 0.13243(13)
C4 C 1.1163(3) 0.3679(3) 0.16337(15)
H8 H 1.1433 0.3957 0.1906
H9 H 1.1235 0.4069 0.1406
H10 H 1.1389 0.3356 0.1529
O5 O 0.76980(16) 0.33936(16) 0.14232(8)
C5 C 0.7776(3) 0.2574(3) 0.22559(17)
H11 H 0.7506 0.2886 0.2266
H12 H 0.8054 0.2634 0.2536
H13 H 0.7383 0.2013 0.2209
O6 O 0.64159(15) 0.43564(16) 0.18016(8)
C6 C 0.8380(2) 0.4913(2) 0.34481(12)
H14 H 0.8243 0.4584 0.3719
H15 H 0.8712 0.5476 0.3538
O7 O 0.66489(15) 0.33587(16) 0.20754(8)
C7 C 0.6977(2) 0.3939(2) 0.32122(13)
H16 H 0.7151 0.3662 0.3004
H17 H 0.6916 0.3694 0.3508
O8 O 0.61805(19) 0.3971(2) 0.10914(9)
C8 C 0.7343(2) 0.5331(2) 0.34693(12)
H18 H 0.6819 0.5194 0.3336
C9 C 0.7198(3) 0.5145(3) 0.39602(14)
H19 H 0.7669 0.5168 0.4094
H20 H 0.6739 0.4612 0.4000
H21 H 0.7093 0.5536 0.4104
C10 C 0.8092(3) 0.4936(3) 0.20319(14)
H22 H 0.8211 0.4503 0.2010
H23 H 0.8568 0.5422 0.2130
H24 H 0.7928 0.5028 0.1741
C11 C 0.9810(2) 0.4329(3) 0.25723(12)
C12 C 0.9875(2) 0.5092(2) 0.25475(11)
C13 C 1.0391(2) 0.5701(3) 0.22506(13)
H25 H 1.0707 0.5593 0.2054
C14 C 1.0454(2) 0.6423(3) 0.22341(13)
H26 H 1.0797 0.6807 0.2025
C15 C 1.0019(2) 0.6597(2) 0.25232(14)
H27 H 1.0074 0.7111 0.2514
C16 C 0.9513(3) 0.6064(3) 0.28226(14)
H28 H 0.9226 0.6211 0.3019
C17 C 0.9407(2) 0.5275(2) 0.28456(12)
C18 C 0.8866(2) 0.4692(2) 0.31420(12)
C19 C 0.8831(2) 0.3955(2) 0.31725(11)
C20 C 0.8339(2) 0.3369(3) 0.34891(13)
H29 H 0.8010 0.3474 0.3677
C21 C 0.8324(3) 0.2672(3) 0.35315(14)
H30 H 0.7985 0.2293 0.3744
C22 C 0.8817(3) 0.2507(3) 0.32581(15)
H31 H 0.8819 0.2022 0.3293
C23 C 0.9281(3) 0.3032(3) 0.29505(14)
H32 H 0.9598 0.2905 0.2766
C24 C 0.9315(2) 0.3775(2) 0.28910(12)
C25 C 0.6659(3) 0.2099(3) 0.13596(15)
C26 C 0.6872(2) 0.2956(2) 0.13372(13)
H33 H 0.6787 0.3070 0.1025
C27 C 0.6375(2) 0.3169(3) 0.16390(12)
H34 H 0.5824 0.2702 0.1649
C28 C 0.6320(2) 0.3874(2) 0.14711(14)
C29 C 0.8680(3) 0.3046(3) 0.10775(14)
C30 C 0.9476(3) 0.3666(3) 0.10997(12)
C31 C 0.9961(3) 0.3864(4) 0.07328(15)
H35 H 1.0489 0.4301 0.0747
C32 C 0.9684(4) 0.3429(5) 0.03384(17)
H36 H 1.0022 0.3560 0.0088
C33 C 0.8937(4) 0.2827(5) 0.03223(18)
H37 H 0.8752 0.2521 0.0059
C34 C 0.8428(3) 0.2639(4) 0.06759(16)
H38 H 0.7893 0.2222 0.0646
C35 C 0.6056(2) 0.3929(3) 0.26141(13)
C36 C 0.6181(2) 0.3805(2) 0.30645(14)
C37 C 0.5599(3) 0.3569(3) 0.33788(15)
H39 H 0.5709 0.3491 0.3676
C38 C 0.4831(3) 0.3437(4) 0.32653(18)
H40 H 0.4411 0.3230 0.3476
C39 C 0.4716(3) 0.3621(4) 0.28355(16)
H41 H 0.4236 0.3609 0.2759
C40 C 0.5297(3) 0.3820(3) 0.25252(14)
H42 H 0.5180 0.3889 0.2228
C41 C 1.0085(3) 0.2492(3) 0.20497(15)
C42 C 1.0608(3) 0.2463(3) 0.23458(16)
H43 H 1.1144 0.2882 0.2349
C43 C 1.0371(4) 0.1842(4) 0.2636(2)
H44 H 1.0755 0.1836 0.2829
C44 C 0.9626(5) 0.1248(4) 0.2657(3)
H45 H 0.9478 0.0845 0.2875
C45 C 0.9056(4) 0.1215(4) 0.2358(3)
H46 H 0.8525 0.0783 0.2366
C46 C 0.9278(3) 0.1820(3) 0.2053(2)
H47 H 0.8902 0.1797 0.1844
C47 C 0.7903(3) 0.6181(3) 0.33590(15)
C48 C 0.8354(4) 0.6728(3) 0.36853(16)
H48 H 0.8326 0.6570 0.3986
C49 C 0.8864(4) 0.7544(3) 0.3553(3)
H49 H 0.9153 0.7927 0.3775
C50 C 0.8947(4) 0.7780(3) 0.3136(2)
H50 H 0.9306 0.8318 0.3059
C51 C 0.8503(3) 0.7233(3) 0.2812(2)
H51 H 0.8556 0.7397 0.2511
C52 C 0.7983(3) 0.6447(3) 0.29215(15)
H52 H 0.7674 0.6083 0.2695
O9 O 1.2715(3) 0.3731(3) 0.23883(14)
H53 H 1.2766 0.4160 0.2293
C53 C 1.2924(6) 0.3383(7) 0.2066(3)
H54 H 1.3503 0.3616 0.2064
H55 H 1.2748 0.3470 0.1778
H56 H 1.2672 0.2811 0.2123
C54 C 1.3936(4) 0.5544(4) 0.2893(2)
H57 H 1.4471 0.5623 0.2929
H58 H 1.3573 0.5136 0.3101
H59 H 1.3945 0.6045 0.2953
O10 O 1.3665(4) 0.5291(3) 0.24423(18)
H60 H 1.3977 0.5175 0.2315
loop_
_geom_bond_atom_site_label_1
_geom_bond_atom_site_label_2
_geom_bond_site_symmetry_1
_geom_bond_site_symmetry_2
O1 B1 1_555 1_555
N1 H1 1_555 1_555
C1 N1 1_555 1_555
H2 C1 1_555 1_555
H3 C1 1_555 1_555
B1 O3 1_555 1_555
O2 B2 1_555 1_555
N2 H4 1_555 1_555
C2 N1 1_555 1_555
H5 C2 1_555 1_555
H6 C2 1_555 1_555
B2 O6 1_555 1_555
O3 C25 1_555 1_555
C3 N1 1_555 1_555
H7 C3 1_555 1_555
O4 C25 1_555 1_555
C4 C3 1_555 1_555
H8 C4 1_555 1_555
H9 C4 1_555 1_555
H10 C4 1_555 1_555
O5 B1 1_555 1_555
C5 O1 1_555 1_555
H11 C5 1_555 1_555
H12 C5 1_555 1_555
H13 C5 1_555 1_555
O6 C28 1_555 1_555
C6 N2 1_555 1_555
H14 C6 1_555 1_555
H15 C6 1_555 1_555
O7 B2 1_555 1_555
C7 N2 1_555 1_555
H16 C7 1_555 1_555
H17 C7 1_555 1_555
O8 C28 1_555 1_555
C8 N2 1_555 1_555
H18 C8 1_555 1_555
C9 C8 1_555 1_555
H19 C9 1_555 1_555
H20 C9 1_555 1_555
H21 C9 1_555 1_555
C10 O2 1_555 1_555
H22 C10 1_555 1_555
H23 C10 1_555 1_555
H24 C10 1_555 1_555
C11 C1 1_555 1_555
C12 C11 1_555 1_555
C13 C12 1_555 1_555
H25 C13 1_555 1_555
C14 C13 1_555 1_555
H26 C14 1_555 1_555
C15 C14 1_555 1_555
H27 C15 1_555 1_555
C16 C15 1_555 1_555
H28 C16 1_555 1_555
C17 C12 1_555 1_555
C18 C6 1_555 1_555
C19 C18 1_555 1_555
C20 C19 1_555 1_555
H29 C20 1_555 1_555
C21 C20 1_555 1_555
H30 C21 1_555 1_555
C22 C21 1_555 1_555
H31 C22 1_555 1_555
C23 C22 1_555 1_555
H32 C23 1_555 1_555
C24 C11 1_555 1_555
C25 C26 1_555 1_555
C26 O5 1_555 1_555
H33 C26 1_555 1_555
C27 O7 1_555 1_555
H34 C27 1_555 1_555
C28 C27 1_555 1_555
C29 B1 1_555 1_555
C30 C2 1_555 1_555
C31 C30 1_555 1_555
H35 C31 1_555 1_555
C32 C31 1_555 1_555
H36 C32 1_555 1_555
C33 C32 1_555 1_555
H37 C33 1_555 1_555
C34 C29 1_555 1_555
H38 C34 1_555 1_555
C35 B2 1_555 1_555
C36 C7 1_555 1_555
C37 C36 1_555 1_555
H39 C37 1_555 1_555
C38 C37 1_555 1_555
H40 C38 1_555 1_555
C39 C38 1_555 1_555
H41 C39 1_555 1_555
C40 C35 1_555 1_555
H42 C40 1_555 1_555
C41 C3 1_555 1_555
C42 C41 1_555 1_555
H43 C42 1_555 1_555
C43 C42 1_555 1_555
H44 C43 1_555 1_555
C44 C43 1_555 1_555
H45 C44 1_555 1_555
C45 C44 1_555 1_555
H46 C45 1_555 1_555
C46 C41 1_555 1_555
H47 C46 1_555 1_555
C47 C8 1_555 1_555
C48 C47 1_555 1_555
H48 C48 1_555 1_555
C49 C48 1_555 1_555
H49 C49 1_555 1_555
C50 C49 1_555 1_555
H50 C50 1_555 1_555
C51 C50 1_555 1_555
H51 C51 1_555 1_555
C52 C47 1_555 1_555
H52 C52 1_555 1_555
O9 H53 1_555 1_555
C53 O9 1_555 1_555
H54 C53 1_555 1_555
H55 C53 1_555 1_555
H56 C53 1_555 1_555
C54 H57 1_555 1_555
H58 C54 1_555 1_555
H59 C54 1_555 1_555
O10 C54 1_555 1_555
H60 O10 1_555 1_555
C16 C17 1_555 1_555
C17 C18 1_555 1_555
C19 C24 1_555 1_555
C23 C24 1_555 1_555
C26 C27 1_555 1_555
C29 C30 1_555 1_555
C33 C34 1_555 1_555
C35 C36 1_555 1_555
C39 C40 1_555 1_555
C45 C46 1_555 1_555
C51 C52 1_555 1_555

#END
