
#######################################################################
#
#                 Cambridge Crystallographic Data Centre
#                                CCDC 
#
#######################################################################
#
# If this CIF has been generated from an entry in the Cambridge 
# Structural Database, then it will include bibliographic, chemical, 
# crystal, experimental, refinement or atomic coordinate data resulting 
# from the CCDC's data processing and validation procedures.
#
#######################################################################

data_FAKYAU
_chemical_formula_moiety         'C24 H20 P1 1+,C20 H29 B11 N1 O1 1-'
_chemical_name_systematic        
'Tetraphenylphosphonium 1-N-(pyrrolidine-1-carbonyl)-2-(1,2-diphenylethenyl)-1-carba-closo-dodecaborate'
_symmetry_cell_setting           monoclinic
_symmetry_space_group_name_H-M   'C c'
_symmetry_Int_Tables_number      9
_space_group_name_Hall           'C -2yc'
loop_
_symmetry_equiv_pos_site_id
_symmetry_equiv_pos_as_xyz
1 x,y,z
2 x,-y,1/2+z
3 1/2+x,1/2+y,z
4 1/2+x,1/2-y,1/2+z
_cell_length_a                   9.3495(6)
_cell_length_b                   18.1075(9)
_cell_length_c                   25.4205(11)
_cell_angle_alpha                90
_cell_angle_beta                 94.671(5)
_cell_angle_gamma                90
_cell_volume                     4289.3
_exptl_crystal_colour            colorless
_exptl_crystal_description       block
_cell_formula_units_Z            4
loop_
_atom_site_label
_atom_site_type_symbol
_atom_site_fract_x
_atom_site_fract_y
_atom_site_fract_z
O1 O 0.5834(3) 0.83977(13) 0.51536(9)
N1 N 0.6881(3) 0.80162(14) 0.44471(11)
C1 C 0.6760(3) 0.93700(16) 0.46603(11)
C2 C 0.6472(3) 0.85575(17) 0.47663(12)
C3 C 0.7785(7) 0.8022(2) 0.40107(19)
H1 H 0.8691 0.8264 0.4112
H2 H 0.7315 0.8280 0.3710
C4 C 0.8014(8) 0.7243(2) 0.3882(2)
H3 H 0.7973 0.7177 0.3503
H4 H 0.8950 0.7083 0.4033
C5 C 0.6888(6) 0.6810(2) 0.41025(19)
H5 H 0.7246 0.6327 0.4216
H6 H 0.6076 0.6744 0.3844
C6 C 0.6471(5) 0.72545(18) 0.45651(16)
H7 H 0.5447 0.7220 0.4599
H8 H 0.6980 0.7084 0.4890
C7 C 0.8768(3) 0.94395(16) 0.55960(11)
C8 C 0.8416(3) 0.95703(17) 0.60904(12)
H9 H 0.7612 0.9868 0.6110
C9 C 0.9083(3) 0.93232(17) 0.66078(12)
C10 C 0.8460(5) 0.9579(3) 0.70488(14)
H10 H 0.7654 0.9880 0.7002
C11 C 0.8991(6) 0.9404(3) 0.75526(17)
H11 H 0.8558 0.9594 0.7840
C12 C 1.0164(6) 0.8947(3) 0.76303(15)
H12 H 1.0519 0.8816 0.7970
C13 C 1.0793(5) 0.8693(2) 0.72083(16)
H13 H 1.1592 0.8387 0.7259
C14 C 1.0271(4) 0.8878(2) 0.67000(15)
H14 H 1.0732 0.8698 0.6416
C15 C 0.9976(3) 0.89533(16) 0.54748(11)
C16 C 1.1305(4) 0.9236(2) 0.53861(15)
H15 H 1.1451 0.9743 0.5402
C17 C 1.2423(4) 0.8778(3) 0.52744(16)
H16 H 1.3319 0.8977 0.5225
C18 C 1.2216(4) 0.8035(3) 0.52369(15)
H17 H 1.2966 0.7727 0.5159
C19 C 1.0893(4) 0.7742(2) 0.53143(15)
H18 H 1.0749 0.7235 0.5286
C20 C 0.9779(4) 0.81932(18) 0.54328(14)
H19 H 0.8889 0.7989 0.5485
B1 B 0.7904(4) 0.98439(19) 0.51194(13)
B2 B 0.6009(4) 0.9965(2) 0.51044(14)
H20 H 0.5417 0.9783 0.5438
B3 B 0.5268(5) 0.9879(2) 0.44395(16)
H21 H 0.4199 0.9638 0.4343
B4 B 0.6688(5) 0.9730(2) 0.40360(15)
H22 H 0.6538 0.9393 0.3675
B5 B 0.8324(5) 0.9714(2) 0.44480(14)
H23 H 0.9239 0.9370 0.4355
B6 B 0.8581(5) 1.0588(2) 0.47442(15)
H24 H 0.9659 1.0818 0.4843
B7 B 0.7130(5) 1.0746(2) 0.51472(14)
H25 H 0.7271 1.1083 0.5508
B8 B 0.5503(5) 1.0763(2) 0.47382(16)
H26 H 0.4587 1.1105 0.4833
B9 B 0.5936(7) 1.0617(3) 0.40774(17)
H27 H 0.5296 1.0868 0.3742
B10 B 0.7807(6) 1.0512(2) 0.40791(16)
H28 H 0.8389 1.0694 0.3743
B11 B 0.7088(7) 1.1145(2) 0.45088(17)
H29 H 0.7207 1.1743 0.4454
P1 P 0.39294(8) 1.10314(4) 0.71951(3)
C21 C 0.5674(3) 1.14207(17) 0.71583(12)
C22 C 0.6652(4) 1.1365(2) 0.75952(14)
H30 H 0.6353 1.1200 0.7915
C23 C 0.8073(4) 1.1555(3) 0.75575(17)
H31 H 0.8726 1.1519 0.7853
C24 C 0.8521(4) 1.1794(2) 0.70894(18)
H32 H 0.9479 1.1918 0.7065
C25 C 0.7565(4) 1.1850(3) 0.66569(18)
H33 H 0.7876 1.2015 0.6339
C26 C 0.6143(4) 1.1666(2) 0.66857(14)
H34 H 0.5500 1.1705 0.6388
C27 C 0.3236(4) 1.1257(2) 0.78131(13)
C28 C 0.2264(5) 1.0803(3) 0.80278(17)
H35 H 0.2017 1.0352 0.7870
C29 C 0.1654(5) 1.1019(3) 0.84813(19)
H36 H 0.0993 1.0711 0.8625
C30 C 0.1999(6) 1.1665(4) 0.87172(19)
H37 H 0.1606 1.1793 0.9029
C31 C 0.2935(6) 1.2139(4) 0.8497(2)
H38 H 0.3148 1.2594 0.8653
C32 C 0.3559(5) 1.1935(3) 0.80441(18)
H39 H 0.4193 1.2254 0.7895
C33 C 0.2702(3) 1.13823(18) 0.66763(12)
C34 C 0.1641(4) 1.09359(19) 0.64354(14)
H40 H 0.1584 1.0440 0.6525
C35 C 0.0665(4) 1.1241(2) 0.60577(15)
H41 H -0.0053 1.0948 0.5892
C36 C 0.0749(4) 1.1973(2) 0.59258(14)
H42 H 0.0095 1.2170 0.5669
C37 C 0.1781(4) 1.2413(2) 0.61677(14)
H43 H 0.1825 1.2908 0.6075
C38 C 0.2766(4) 1.21308(18) 0.65503(14)
H44 H 0.3459 1.2435 0.6721
C39 C 0.4189(4) 1.00591(18) 0.71270(12)
C40 C 0.4566(4) 0.9636(2) 0.75750(15)
H45 H 0.4519 0.9839 0.7909
C41 C 0.5003(6) 0.8920(2) 0.75225(18)
H46 H 0.5269 0.8637 0.7820
C42 C 0.5045(6) 0.8621(2) 0.70219(19)
H47 H 0.5327 0.8133 0.6986
C43 C 0.4680(5) 0.9032(2) 0.65791(18)
H48 H 0.4717 0.8825 0.6246
C44 C 0.4257(4) 0.9751(2) 0.66330(15)
H49 H 0.4013 1.0033 0.6334
loop_
_geom_bond_atom_site_label_1
_geom_bond_atom_site_label_2
_geom_bond_site_symmetry_1
_geom_bond_site_symmetry_2
O1 C2 1_555 1_555
N1 C2 1_555 1_555
C1 C2 1_555 1_555
C3 N1 1_555 1_555
H1 C3 1_555 1_555
H2 C3 1_555 1_555
C4 C3 1_555 1_555
H3 C4 1_555 1_555
H4 C4 1_555 1_555
C5 C4 1_555 1_555
H5 C5 1_555 1_555
H6 C5 1_555 1_555
C6 N1 1_555 1_555
H7 C6 1_555 1_555
H8 C6 1_555 1_555
C7 C8 1_555 1_555
C8 H9 1_555 1_555
C9 C8 1_555 1_555
C10 C9 1_555 1_555
H10 C10 1_555 1_555
C11 C10 1_555 1_555
H11 C11 1_555 1_555
C12 C11 1_555 1_555
H12 C12 1_555 1_555
C13 C12 1_555 1_555
H13 C13 1_555 1_555
C14 C9 1_555 1_555
H14 C14 1_555 1_555
C15 C7 1_555 1_555
C16 C15 1_555 1_555
H15 C16 1_555 1_555
C17 C16 1_555 1_555
H16 C17 1_555 1_555
C18 C17 1_555 1_555
H17 C18 1_555 1_555
C19 C18 1_555 1_555
H18 C19 1_555 1_555
C20 C15 1_555 1_555
H19 C20 1_555 1_555
B1 C1 1_555 1_555
B2 C1 1_555 1_555
H20 B2 1_555 1_555
B3 C1 1_555 1_555
H21 B3 1_555 1_555
B4 C1 1_555 1_555
H22 B4 1_555 1_555
B5 C1 1_555 1_555
H23 B5 1_555 1_555
B6 B1 1_555 1_555
H24 B6 1_555 1_555
B7 B1 1_555 1_555
H25 B7 1_555 1_555
B8 B2 1_555 1_555
H26 B8 1_555 1_555
B9 B3 1_555 1_555
H27 B9 1_555 1_555
B10 B4 1_555 1_555
H28 B10 1_555 1_555
B11 B6 1_555 1_555
H29 B11 1_555 1_555
P1 C21 1_555 1_555
C21 C22 1_555 1_555
C22 H30 1_555 1_555
C23 C22 1_555 1_555
H31 C23 1_555 1_555
C24 C23 1_555 1_555
H32 C24 1_555 1_555
C25 C24 1_555 1_555
H33 C25 1_555 1_555
C26 C21 1_555 1_555
H34 C26 1_555 1_555
C27 P1 1_555 1_555
C28 C27 1_555 1_555
H35 C28 1_555 1_555
C29 C28 1_555 1_555
H36 C29 1_555 1_555
C30 C29 1_555 1_555
H37 C30 1_555 1_555
C31 C30 1_555 1_555
H38 C31 1_555 1_555
C32 C27 1_555 1_555
H39 C32 1_555 1_555
C33 P1 1_555 1_555
C34 C33 1_555 1_555
H40 C34 1_555 1_555
C35 C34 1_555 1_555
H41 C35 1_555 1_555
C36 C35 1_555 1_555
H42 C36 1_555 1_555
C37 C36 1_555 1_555
H43 C37 1_555 1_555
C38 C33 1_555 1_555
H44 C38 1_555 1_555
C39 P1 1_555 1_555
C40 C39 1_555 1_555
H45 C40 1_555 1_555
C41 C40 1_555 1_555
H46 C41 1_555 1_555
C42 C41 1_555 1_555
H47 C42 1_555 1_555
C43 C42 1_555 1_555
H48 C43 1_555 1_555
C44 C39 1_555 1_555
H49 C44 1_555 1_555
C5 C6 1_555 1_555
C7 B1 1_555 1_555
C13 C14 1_555 1_555
C19 C20 1_555 1_555
B1 B2 1_555 1_555
B1 B5 1_555 1_555
B2 B3 1_555 1_555
B2 B7 1_555 1_555
B3 B4 1_555 1_555
B3 B8 1_555 1_555
B4 B5 1_555 1_555
B4 B9 1_555 1_555
B5 B6 1_555 1_555
B5 B10 1_555 1_555
B6 B7 1_555 1_555
B6 B10 1_555 1_555
B7 B8 1_555 1_555
B7 B11 1_555 1_555
B8 B9 1_555 1_555
B8 B11 1_555 1_555
B9 B10 1_555 1_555
B9 B11 1_555 1_555
B10 B11 1_555 1_555
C25 C26 1_555 1_555
C31 C32 1_555 1_555
C37 C38 1_555 1_555
C43 C44 1_555 1_555

#END
