
#######################################################################
#
#                 Cambridge Crystallographic Data Centre
#                                CCDC 
#
#######################################################################
#
# If this CIF has been generated from an entry in the Cambridge 
# Structural Database, then it will include bibliographic, chemical, 
# crystal, experimental, refinement or atomic coordinate data resulting 
# from the CCDC's data processing and validation procedures.
#
#######################################################################

data_FALCOM
_chemical_formula_moiety         'C27 H39 N1 O4 S1 Si1'
_chemical_name_systematic        
9-((t-Butyl(dimethyl)silyl)oxy)-8-methyl-2-((4-methylphenyl)sulfonyl)-7-(prop-1-yn-1-yl)-2-azaspiro[5.5]undec-8-en-1-one
_symmetry_cell_setting           monoclinic
_symmetry_space_group_name_H-M   'P 21'
_symmetry_Int_Tables_number      4
_space_group_name_Hall           'P 2yb'
loop_
_symmetry_equiv_pos_site_id
_symmetry_equiv_pos_as_xyz
1 x,y,z
2 -x,1/2+y,-z
_cell_length_a                   14.3818(6)
_cell_length_b                   6.4515(3)
_cell_length_c                   15.0178(6)
_cell_angle_alpha                90
_cell_angle_beta                 103.037(2)
_cell_angle_gamma                90
_cell_volume                     1357.5
_exptl_crystal_colour            colorless
_exptl_crystal_description       needle
_cell_formula_units_Z            2
loop_
_atom_site_label
_atom_site_type_symbol
_atom_site_fract_x
_atom_site_fract_y
_atom_site_fract_z
S1 S 0.65042(8) 0.23066(18) -0.04572(7)
Si1 Si 0.73612(9) -0.30214(19) 0.55875(8)
C1 C 0.7032(3) 0.1221(8) 0.2267(3)
C2 C 0.8034(3) 0.1163(8) 0.2905(3)
H1 H 0.839(4) 0.010(10) 0.264(4)
C3 C 0.8028(3) 0.0528(8) 0.3868(3)
C4 C 0.7281(3) -0.0537(8) 0.4046(3)
C5 C 0.6436(4) -0.1223(8) 0.3338(3)
H2 H 0.5868 -0.0435 0.3413
H3 H 0.6316 -0.2709 0.3431
C6 C 0.6573(3) -0.0909(7) 0.2373(3)
H4 H 0.5946 -0.1001 0.1936
H5 H 0.6985 -0.2026 0.2224
C7 C 0.7136(3) 0.1322(8) 0.1277(3)
C8 C 0.5717(4) 0.3814(9) 0.0882(3)
H6 H 0.5121 0.3744 0.0401
H7 H 0.5959 0.5254 0.0908
C9 C 0.5510(3) 0.3246(9) 0.1788(3)
H8 H 0.5145 0.1932 0.1729
H9 H 0.5116 0.4342 0.1982
C10 C 0.6438(4) 0.2998(7) 0.2503(3)
H10 H 0.6810 0.4300 0.2546
H11 H 0.6293 0.2736 0.3107
C11 C 0.8547(4) 0.3126(8) 0.2871(3)
C12 C 0.8993(4) 0.4673(9) 0.2828(4)
C13 C 0.9560(4) 0.6528(10) 0.2790(5)
H12 H 1.0209 0.6127 0.2758
H13 H 0.9585 0.7364 0.3340
H14 H 0.9269 0.7339 0.2247
C14 C 0.8862(4) 0.1119(10) 0.4623(4)
H15 H 0.8720 0.0780 0.5214
H16 H 0.8981 0.2610 0.4594
H17 H 0.9429 0.0352 0.4553
C15 C 0.7552(3) 0.3617(8) -0.0525(3)
C16 C 0.8191(4) 0.2662(8) -0.0963(3)
H18 H 0.8114 0.1248 -0.1140
C17 C 0.8938(4) 0.3813(9) -0.1134(4)
H19 H 0.9370 0.3179 -0.1445
C18 C 0.9080(4) 0.5882(8) -0.0865(3)
C19 C 0.8455(4) 0.6758(9) -0.0399(4)
H20 H 0.8558 0.8143 -0.0185
C20 C 0.7677(4) 0.5664(8) -0.0235(4)
H21 H 0.7240 0.6303 0.0069
C21 C 0.9877(4) 0.7128(12) -0.1107(4)
H22 H 0.9777 0.7220 -0.1774
H23 H 1.0490 0.6448 -0.0856
H24 H 0.9883 0.8525 -0.0850
C22 C 0.6719(4) -0.2324(9) 0.6490(3)
C23 C 0.5700(5) -0.1619(13) 0.6046(5)
H25 H 0.5346 -0.1375 0.6522
H26 H 0.5379 -0.2699 0.5629
H27 H 0.5725 -0.0335 0.5704
C24 C 0.7234(5) -0.0597(12) 0.7089(4)
H28 H 0.7355 0.0554 0.6704
H29 H 0.7842 -0.1118 0.7452
H30 H 0.6838 -0.0110 0.7499
C25 C 0.6677(5) -0.4218(13) 0.7098(5)
H31 H 0.7326 -0.4607 0.7416
H32 H 0.6378 -0.5379 0.6718
H33 H 0.6301 -0.3878 0.7547
C26 C 0.8639(4) -0.3497(11) 0.6079(4)
H34 H 0.8966 -0.3777 0.5586
H35 H 0.8708 -0.4695 0.6490
H36 H 0.8921 -0.2272 0.6422
C27 C 0.6872(5) -0.5340(9) 0.4935(4)
H37 H 0.6194 -0.5121 0.4658
H38 H 0.6942 -0.6538 0.5346
H39 H 0.7218 -0.5598 0.4454
N1 N 0.6435(3) 0.2391(7) 0.0648(2)
O1 O 0.5715(2) 0.3525(6) -0.0920(2)
O2 O 0.6568(3) 0.0199(6) -0.0726(2)
O3 O 0.7770(2) 0.0435(6) 0.1023(2)
O4 O 0.7225(2) -0.0934(5) 0.4931(2)
loop_
_geom_bond_atom_site_label_1
_geom_bond_atom_site_label_2
_geom_bond_site_symmetry_1
_geom_bond_site_symmetry_2
S1 C15 1_555 1_555
Si1 C22 1_555 1_555
C1 C2 1_555 1_555
C2 H1 1_555 1_555
C3 C2 1_555 1_555
C4 C3 1_555 1_555
C5 C4 1_555 1_555
H2 C5 1_555 1_555
H3 C5 1_555 1_555
C6 C1 1_555 1_555
H4 C6 1_555 1_555
H5 C6 1_555 1_555
C7 C1 1_555 1_555
C8 H6 1_555 1_555
H7 C8 1_555 1_555
C9 C8 1_555 1_555
H8 C9 1_555 1_555
H9 C9 1_555 1_555
C10 C1 1_555 1_555
H10 C10 1_555 1_555
H11 C10 1_555 1_555
C11 C2 1_555 1_555
C12 C11 1_555 1_555
C13 C12 1_555 1_555
H12 C13 1_555 1_555
H13 C13 1_555 1_555
H14 C13 1_555 1_555
C14 C3 1_555 1_555
H15 C14 1_555 1_555
H16 C14 1_555 1_555
H17 C14 1_555 1_555
C15 C16 1_555 1_555
C16 H18 1_555 1_555
C17 C16 1_555 1_555
H19 C17 1_555 1_555
C18 C17 1_555 1_555
C19 C18 1_555 1_555
H20 C19 1_555 1_555
C20 C15 1_555 1_555
H21 C20 1_555 1_555
C21 C18 1_555 1_555
H22 C21 1_555 1_555
H23 C21 1_555 1_555
H24 C21 1_555 1_555
C22 C23 1_555 1_555
C23 H25 1_555 1_555
H26 C23 1_555 1_555
H27 C23 1_555 1_555
C24 C22 1_555 1_555
H28 C24 1_555 1_555
H29 C24 1_555 1_555
H30 C24 1_555 1_555
C25 C22 1_555 1_555
H31 C25 1_555 1_555
H32 C25 1_555 1_555
H33 C25 1_555 1_555
C26 Si1 1_555 1_555
H34 C26 1_555 1_555
H35 C26 1_555 1_555
H36 C26 1_555 1_555
C27 Si1 1_555 1_555
H37 C27 1_555 1_555
H38 C27 1_555 1_555
H39 C27 1_555 1_555
N1 S1 1_555 1_555
O1 S1 1_555 1_555
O2 S1 1_555 1_555
O3 C7 1_555 1_555
O4 Si1 1_555 1_555
C4 O4 1_555 1_555
C5 C6 1_555 1_555
C7 N1 1_555 1_555
C8 N1 1_555 1_555
C9 C10 1_555 1_555
C19 C20 1_555 1_555

#END
