
#######################################################################
#
#                 Cambridge Crystallographic Data Centre
#                                CCDC 
#
#######################################################################
#
# If this CIF has been generated from an entry in the Cambridge 
# Structural Database, then it will include bibliographic, chemical, 
# crystal, experimental, refinement or atomic coordinate data resulting 
# from the CCDC's data processing and validation procedures.
#
#######################################################################

data_FALCUQ
_chemical_formula_moiety         'C22 H18 Cl1 F2 N3 O2'
_chemical_name_systematic        
1-(2-Benzylaminophenyl)-2-cyano-4-ethoxycarbonyl-3-((chloro-difluoro)methyl)pyrrole
_symmetry_cell_setting           monoclinic
_symmetry_space_group_name_H-M   'P 21/c'
_symmetry_Int_Tables_number      14
_space_group_name_Hall           '-P 2ybc'
loop_
_symmetry_equiv_pos_site_id
_symmetry_equiv_pos_as_xyz
1 x,y,z
2 -x,1/2+y,1/2-z
3 -x,-y,-z
4 x,1/2-y,1/2+z
_cell_length_a                   11.252(3)
_cell_length_b                   9.155(3)
_cell_length_c                   20.561(3)
_cell_angle_alpha                90
_cell_angle_beta                 97.37(1)
_cell_angle_gamma                90
_cell_volume                     2100.53
_exptl_crystal_colour            colorless
_exptl_crystal_description       prismatic
_cell_formula_units_Z            4
loop_
_atom_site_label
_atom_site_type_symbol
_atom_site_fract_x
_atom_site_fract_y
_atom_site_fract_z
Cl1 Cl 0.2337(1) 0.1756(2) 0.84440(9)
F1 F 0.2703(2) -0.0418(3) 0.9211(1)
F2 F 0.2921(2) -0.0772(3) 0.8215(2)
O1 O 0.3637(3) 0.1991(3) 1.0025(1)
O2 O 0.5455(2) 0.2991(3) 1.0199(1)
N1 N 0.6393(2) 0.0697(3) 0.8664(1)
N2 N 0.8399(4) -0.0773(4) 0.9329(2)
N3 N 0.5049(4) -0.1523(5) 0.7403(2)
C1 C 0.4624(4) 0.2135(4) 0.9880(2)
C2 C 0.5085(3) 0.1424(4) 0.9321(2)
C3 C 0.4465(3) 0.0557(4) 0.8822(2)
C4 C 0.5289(3) 0.0113(4) 0.8419(2)
C5 C 0.6255(4) 0.1478(4) 0.9204(2)
C6 C 0.7486(3) 0.0531(4) 0.8369(2)
C7 C 0.7541(4) 0.1140(5) 0.7767(2)
C8 C 0.8557(4) 0.0987(6) 0.7462(2)
C9 C 0.9498(4) 0.0213(6) 0.7782(2)
C10 C 0.9461(4) -0.0388(5) 0.8388(2)
C11 C 0.8441(3) -0.0237(4) 0.8708(2)
C12 C 0.9280(4) -0.1780(5) 0.9638(2)
C13 C 0.9339(4) -0.3251(4) 0.9315(2)
C14 C 0.8338(5) -0.3900(6) 0.8993(3)
C15 C 0.8403(6) -0.5285(6) 0.8719(3)
C16 C 0.9461(6) -0.6013(6) 0.8771(3)
C17 C 1.0466(6) -0.5371(6) 0.9081(3)
C18 C 1.0410(4) -0.3992(5) 0.9353(2)
C19 C 0.5160(4) -0.0779(5) 0.7853(2)
C20 C 0.3161(4) 0.0242(5) 0.8696(2)
C21 C 0.5121(5) 0.3784(6) 1.0762(3)
C22 C 0.6189(6) 0.4643(7) 1.1030(3)
H1 H 0.688(3) 0.196(3) 0.943(1)
H2 H 0.689(3) 0.166(4) 0.756(2)
H3 H 0.858(3) 0.144(5) 0.703(2)
H4 H 1.014(4) 0.014(4) 0.761(2)
H5 H 1.012(3) -0.093(4) 0.861(2)
H6 H 0.776(4) -0.094(5) 0.939(2)
H7 H 0.915(3) -0.190(4) 1.007(2)
H8 H 1.009(4) -0.129(5) 0.969(2)
H9 H 0.765(4) -0.338(5) 0.890(2)
H10 H 0.773(4) -0.562(5) 0.848(2)
H11 H 0.953(4) -0.696(5) 0.856(2)
H12 H 1.121(4) -0.575(5) 0.917(2)
H13 H 1.111(4) -0.363(4) 0.961(2)
H14 H 0.499(4) 0.303(5) 1.108(2)
H15 H 0.444(4) 0.448(5) 1.060(2)
H16 H 0.602(4) 0.506(6) 1.139(3)
H17 H 0.652(4) 0.528(5) 1.061(3)
H18 H 0.687(5) 0.390(6) 1.119(3)
loop_
_geom_bond_atom_site_label_1
_geom_bond_atom_site_label_2
_geom_bond_site_symmetry_1
_geom_bond_site_symmetry_2
Cl1 C20 1_555 1_555
F1 C20 1_555 1_555
F2 C20 1_555 1_555
O1 C1 1_555 1_555
O2 C1 1_555 1_555
N1 C4 1_555 1_555
N2 C11 1_555 1_555
N3 C19 1_555 1_555
C1 C2 1_555 1_555
C2 C3 1_555 1_555
C3 C4 1_555 1_555
C4 C19 1_555 1_555
C5 N1 1_555 1_555
C6 N1 1_555 1_555
C7 C6 1_555 1_555
C8 C7 1_555 1_555
C9 C8 1_555 1_555
C10 C9 1_555 1_555
C11 C6 1_555 1_555
C12 N2 1_555 1_555
C13 C12 1_555 1_555
C14 C13 1_555 1_555
C15 C14 1_555 1_555
C16 C15 1_555 1_555
C17 C16 1_555 1_555
C18 C13 1_555 1_555
C20 C3 1_555 1_555
C21 O2 1_555 1_555
C22 C21 1_555 1_555
H1 C5 1_555 1_555
H2 C7 1_555 1_555
H3 C8 1_555 1_555
H4 C9 1_555 1_555
H5 C10 1_555 1_555
H6 N2 1_555 1_555
H7 C12 1_555 1_555
H8 C12 1_555 1_555
H9 C14 1_555 1_555
H10 C15 1_555 1_555
H11 C16 1_555 1_555
H12 C17 1_555 1_555
H13 C18 1_555 1_555
H14 C21 1_555 1_555
H15 C21 1_555 1_555
H16 C22 1_555 1_555
H17 C22 1_555 1_555
H18 C22 1_555 1_555
C2 C5 1_555 1_555
C10 C11 1_555 1_555
C17 C18 1_555 1_555

#END
