
#######################################################################
#
#                 Cambridge Crystallographic Data Centre
#                                CCDC 
#
#######################################################################
#
# If this CIF has been generated from an entry in the Cambridge 
# Structural Database, then it will include bibliographic, chemical, 
# crystal, experimental, refinement or atomic coordinate data resulting 
# from the CCDC's data processing and validation procedures.
#
#######################################################################

data_FALGIJ
_chemical_formula_moiety         'C28 H32 O7,C1 H2 Cl2'
_chemical_name_systematic        
"(+-)-4a\b-hydroxy-9-(3,4-dimethoxyphenyl)-4,4,6a\a,12b\a-tetramethyl-3,4,6,6a-tetrahydro-2H,5H-naphtho(1',2'-e)pyrano(4,3-b)pyran-1,11-dione dichloromethane solvate"
_symmetry_cell_setting           orthorhombic
_symmetry_space_group_name_H-M   'P b c a'
_symmetry_Int_Tables_number      61
_space_group_name_Hall           '-P 2ac 2ab'
loop_
_symmetry_equiv_pos_site_id
_symmetry_equiv_pos_as_xyz
1 x,y,z
2 1/2-x,-y,1/2+z
3 -x,1/2+y,1/2-z
4 1/2+x,1/2-y,-z
5 -x,-y,-z
6 1/2+x,y,1/2-z
7 x,1/2-y,1/2+z
8 1/2-x,1/2+y,z
_cell_length_a                   10.5792(11)
_cell_length_b                   17.197(2)
_cell_length_c                   29.612(3)
_cell_angle_alpha                90
_cell_angle_beta                 90
_cell_angle_gamma                90
_cell_volume                     5387.33
_exptl_crystal_colour            red
_exptl_crystal_description       block
_cell_formula_units_Z            8
loop_
_atom_site_label
_atom_site_type_symbol
_atom_site_fract_x
_atom_site_fract_y
_atom_site_fract_z
C1 C 0.9792(8) 0.0889(4) 0.0444(2)
H1 H 0.9527 0.0760 0.0133
H2 H 1.0521 0.1248 0.0425
Cl1 Cl 0.8538(2) 0.13551(12) 0.07252(9)
Cl2 Cl 1.02630(19) 0.00344(11) 0.07213(6)
O1 O 0.6479(5) 0.3377(2) 0.23140(15)
C2 C 0.6270(6) 0.3301(3) 0.2708(2)
O2 O 0.4937(4) 0.1543(2) 0.12560(13)
C3 C 0.6279(8) 0.3994(4) 0.3019(2)
H3 H 0.6603 0.4449 0.2850
H4 H 0.5397 0.4111 0.3108
O3 O 0.8089(4) 0.2455(2) 0.31363(13)
C4 C 0.7044(8) 0.3899(4) 0.3434(2)
H5 H 0.6861 0.4340 0.3638
H6 H 0.7948 0.3931 0.3350
O4 O 0.6996(4) 0.0499(2) 0.25348(12)
C5 C 0.6837(6) 0.3143(3) 0.36960(18)
O5 O 0.6005(4) 0.0435(2) 0.12034(12)
C6 C 0.6865(6) 0.2452(3) 0.33531(18)
O6 O 0.7207(4) -0.1094(2) -0.01880(12)
C7 C 0.6690(6) 0.1667(3) 0.35849(18)
H7 H 0.5799 0.1610 0.3681
H8 H 0.7229 0.1644 0.3858
O7 O 0.8575(4) -0.2240(2) 0.00802(12)
C8 C 0.7039(6) 0.1000(3) 0.32682(17)
H9 H 0.7943 0.1044 0.3185
H10 H 0.6921 0.0500 0.3428
C9 C 0.6251(5) 0.0999(3) 0.28450(18)
C10 C 0.6082(5) 0.1805(3) 0.26287(18)
C11 C 0.5933(5) 0.2520(3) 0.29373(18)
C12 C 0.5842(5) 0.1818(3) 0.21850(18)
H11 H 0.5568 0.2286 0.2045
C13 C 0.6002(6) 0.1113(3) 0.19152(19)
C14 C 0.6652(6) 0.0497(3) 0.20969(19)
C15 C 0.7077(6) -0.0127(3) 0.18263(19)
H12 H 0.7571 -0.0534 0.1953
C16 C 0.6766(6) -0.0132(3) 0.13832(19)
C17 C 0.5601(6) 0.1079(3) 0.14566(19)
C18 C 0.7194(6) -0.0708(3) 0.10449(18)
C19 C 0.6939(6) -0.0613(3) 0.05832(19)
H13 H 0.6449 -0.0182 0.0485
C20 C 0.7391(6) -0.1136(4) 0.02710(19)
C21 C 0.8131(6) -0.1772(3) 0.04105(18)
C22 C 0.8357(6) -0.1874(3) 0.0867(2)
H14 H 0.8827 -0.2312 0.0967
C23 C 0.7906(6) -0.1343(3) 0.11826(19)
H15 H 0.8085 -0.1415 0.1494
C24 C 0.4491(6) 0.2572(4) 0.3057(2)
H16 H 0.3997 0.2614 0.2778
H17 H 0.4340 0.3032 0.3245
H18 H 0.4236 0.2104 0.3222
C25 C 0.4981(6) 0.0596(3) 0.2918(2)
H19 H 0.5121 0.0085 0.3056
H20 H 0.4554 0.0531 0.2627
H21 H 0.4454 0.0913 0.3118
C26 C 0.5645(7) 0.3181(4) 0.3981(2)
H22 H 0.4906 0.3222 0.3784
H23 H 0.5684 0.3637 0.4179
H24 H 0.5578 0.2709 0.4165
C27 C 0.7959(7) 0.3086(4) 0.4028(2)
H25 H 0.7928 0.3524 0.4240
H26 H 0.8755 0.3103 0.3859
H27 H 0.7905 0.2597 0.4196
C28 C 0.9471(7) -0.2837(4) 0.0203(2)
H28 H 0.9711 -0.3134 -0.0066
H29 H 0.9086 -0.3188 0.0425
H30 H 1.0226 -0.2596 0.0335
C29 C 0.6452(6) -0.0466(4) -0.0351(2)
H31 H 0.6397 -0.0494 -0.0681
H32 H 0.6838 0.0029 -0.0263
H33 H 0.5602 -0.0502 -0.0222
loop_
_geom_bond_atom_site_label_1
_geom_bond_atom_site_label_2
_geom_bond_site_symmetry_1
_geom_bond_site_symmetry_2
C1 H1 1_555 1_555
H2 C1 1_555 1_555
Cl1 C1 1_555 1_555
Cl2 C1 1_555 1_555
O1 C2 1_555 1_555
C2 C3 1_555 1_555
O2 C17 1_555 1_555
C3 H3 1_555 1_555
H4 C3 1_555 1_555
O3 C6 1_555 1_555
C4 C3 1_555 1_555
H5 C4 1_555 1_555
H6 C4 1_555 1_555
O4 C9 1_555 1_555
C5 C4 1_555 1_555
O5 C16 1_555 1_555
C6 C5 1_555 1_555
O6 C20 1_555 1_555
C7 C6 1_555 1_555
H7 C7 1_555 1_555
H8 C7 1_555 1_555
O7 C21 1_555 1_555
C8 C7 1_555 1_555
H9 C8 1_555 1_555
H10 C8 1_555 1_555
C9 C8 1_555 1_555
C10 C9 1_555 1_555
C11 C2 1_555 1_555
C12 C10 1_555 1_555
H11 C12 1_555 1_555
C13 C12 1_555 1_555
C14 O4 1_555 1_555
C15 C14 1_555 1_555
H12 C15 1_555 1_555
C16 C15 1_555 1_555
C17 O5 1_555 1_555
C18 C16 1_555 1_555
C19 C18 1_555 1_555
H13 C19 1_555 1_555
C20 C19 1_555 1_555
C21 C20 1_555 1_555
C22 C21 1_555 1_555
H14 C22 1_555 1_555
C23 C18 1_555 1_555
H15 C23 1_555 1_555
C24 C11 1_555 1_555
H16 C24 1_555 1_555
H17 C24 1_555 1_555
H18 C24 1_555 1_555
C25 C9 1_555 1_555
H19 C25 1_555 1_555
H20 C25 1_555 1_555
H21 C25 1_555 1_555
C26 C5 1_555 1_555
H22 C26 1_555 1_555
H23 C26 1_555 1_555
H24 C26 1_555 1_555
C27 C5 1_555 1_555
H25 C27 1_555 1_555
H26 C27 1_555 1_555
H27 C27 1_555 1_555
C28 O7 1_555 1_555
H28 C28 1_555 1_555
H29 C28 1_555 1_555
H30 C28 1_555 1_555
C29 O6 1_555 1_555
H31 C29 1_555 1_555
H32 C29 1_555 1_555
H33 C29 1_555 1_555
C6 C11 1_555 1_555
C10 C11 1_555 1_555
C13 C14 1_555 1_555
C13 C17 1_555 1_555
C22 C23 1_555 1_555

#END
