
#######################################################################
#
#                 Cambridge Crystallographic Data Centre
#                                CCDC 
#
#######################################################################
#
# If this CIF has been generated from an entry in the Cambridge 
# Structural Database, then it will include bibliographic, chemical, 
# crystal, experimental, refinement or atomic coordinate data resulting 
# from the CCDC's data processing and validation procedures.
#
#######################################################################

data_FALHEF
_chemical_formula_moiety         'C16 H26 O5 S1'
_chemical_name_systematic        
3-Ethylsulfonyl-12-methyl-2,7,13-trioxatricyclo(10.4.0.0^3,8^)hexadec-9-ene
_symmetry_cell_setting           monoclinic
_symmetry_space_group_name_H-M   'P 21'
_symmetry_Int_Tables_number      4
_space_group_name_Hall           'P 2yb'
loop_
_symmetry_equiv_pos_site_id
_symmetry_equiv_pos_as_xyz
1 x,y,z
2 -x,1/2+y,-z
_cell_length_a                   10.749(2)
_cell_length_b                   12.653(4)
_cell_length_c                   12.623(1)
_cell_angle_alpha                90
_cell_angle_beta                 100.46(1)
_cell_angle_gamma                90
_cell_volume                     1688.29
_exptl_crystal_colour            colorless
_chemical_melting_point          97-98.5deg.C
_cell_formula_units_Z            4
loop_
_atom_site_label
_atom_site_type_symbol
_atom_site_fract_x
_atom_site_fract_y
_atom_site_fract_z
S1 S 0.78292 0.90180 0.27544
C1 C 1.11745 0.62372 0.08012
C2 C 0.98056 0.61735 0.08767
C3 C 0.95849 0.65683 0.19709
C4 C 1.01757 0.76314 0.22122
C5 C 1.16035 0.76142 0.21598
C6 C 1.21769 0.87242 0.22348
C7 C 1.13408 0.95525 0.16528
C8 C 1.04738 1.00477 0.20653
C9 C 1.02914 0.99041 0.32090
C10 C 0.94922 0.89558 0.34827
C11 C 0.95400 0.89725 0.47088
C12 C 0.92143 1.00254 0.51248
C13 C 0.99475 1.09032 0.47079
C14 C 0.70886 0.79063 0.32844
C15 C 0.58142 0.76872 0.26122
C16 C 1.23621 0.69060 0.30149
O1 O 1.16806 0.72594 0.10831
O2 O 0.99998 0.79544 0.32791
O3 O 0.98164 1.08616 0.35539
O4 O 0.78241 0.88272 0.16362
O5 O 0.72228 0.99467 0.30410
S2 S 0.69515 0.81299 0.69164
C17 C 0.41080 1.05309 0.97490
C18 C 0.54805 1.03904 0.97606
C19 C 0.57872 0.92755 0.94327
C20 C 0.49464 0.89769 0.83923
C21 C 0.35245 0.91216 0.84469
C22 C 0.26685 0.90102 0.73272
C23 C 0.32152 0.94428 0.64080
C24 C 0.39799 0.88817 0.59369
C25 C 0.43421 0.77747 0.61866
C26 C 0.54411 0.75330 0.71509
C27 C 0.55600 0.63415 0.72527
C28 C 0.56164 0.57732 0.62093
C29 C 0.46042 0.61685 0.53059
C30 C 0.80686 0.76960 0.80560
C31 C 0.93483 0.81943 0.80477
C32 C 0.30753 0.83703 0.92271
O6 O 0.33680 1.02069 0.87364
O7 O 0.52101 0.78863 0.81595
O8 O 0.45979 0.72896 0.52350
O9 O 0.73168 0.76634 0.59787
O10 O 0.68606 0.92509 0.69552
loop_
_geom_bond_atom_site_label_1
_geom_bond_atom_site_label_2
_geom_bond_site_symmetry_1
_geom_bond_site_symmetry_2
S1 C10 1_555 1_555
C1 C2 1_555 1_555
C2 C3 1_555 1_555
C3 C4 1_555 1_555
C4 C5 1_555 1_555
C5 C6 1_555 1_555
C6 C7 1_555 1_555
C7 C8 1_555 1_555
C8 C9 1_555 1_555
C9 C10 1_555 1_555
C10 C11 1_555 1_555
C11 C12 1_555 1_555
C12 C13 1_555 1_555
C13 O3 1_555 1_555
C14 S1 1_555 1_555
C15 C14 1_555 1_555
C16 C5 1_555 1_555
O1 C1 1_555 1_555
O2 C4 1_555 1_555
O3 C9 1_555 1_555
O4 S1 1_555 1_555
O5 S1 1_555 1_555
S2 C26 1_555 1_555
C17 C18 1_555 1_555
C18 C19 1_555 1_555
C19 C20 1_555 1_555
C20 C21 1_555 1_555
C21 C22 1_555 1_555
C22 C23 1_555 1_555
C23 C24 1_555 1_555
C24 C25 1_555 1_555
C25 C26 1_555 1_555
C26 C27 1_555 1_555
C27 C28 1_555 1_555
C28 C29 1_555 1_555
C29 O8 1_555 1_555
C30 S2 1_555 1_555
C31 C30 1_555 1_555
C32 C21 1_555 1_555
O6 C17 1_555 1_555
O7 C20 1_555 1_555
O8 C25 1_555 1_555
O9 S2 1_555 1_555
O10 S2 1_555 1_555
C5 O1 1_555 1_555
C10 O2 1_555 1_555
C21 O6 1_555 1_555
C26 O7 1_555 1_555

#END
