
#######################################################################
#
#                 Cambridge Crystallographic Data Centre
#                                CCDC 
#
#######################################################################
#
# If this CIF has been generated from an entry in the Cambridge 
# Structural Database, then it will include bibliographic, chemical, 
# crystal, experimental, refinement or atomic coordinate data resulting 
# from the CCDC's data processing and validation procedures.
#
#######################################################################

data_FALMIP
_chemical_formula_moiety         'C23 H22'
_chemical_name_systematic        
2-Phenyl-3-(2-phenylcyclopropyl)tricyclo[3.2.1.0^2,4^]oct-6-ene
_symmetry_cell_setting           triclinic
_symmetry_space_group_name_H-M   'P -1'
_symmetry_Int_Tables_number      2
_space_group_name_Hall           '-P 1'
loop_
_symmetry_equiv_pos_site_id
_symmetry_equiv_pos_as_xyz
1 x,y,z
2 -x,-y,-z
_cell_length_a                   9.8109(10)
_cell_length_b                   10.142(2)
_cell_length_c                   17.835(2)
_cell_angle_alpha                79.941(11)
_cell_angle_beta                 79.903(7)
_cell_angle_gamma                89.979(11)
_cell_volume                     1719.44
_exptl_crystal_colour            colorless
_exptl_crystal_description       cubic
_chemical_melting_point          38-39deg.C
_cell_formula_units_Z            4
loop_
_atom_site_label
_atom_site_type_symbol
_atom_site_fract_x
_atom_site_fract_y
_atom_site_fract_z
C1 C 0.7660(3) -0.0016(3) 0.18069(17)
C2 C 0.7331(3) -0.0162(3) 0.26589(18)
C3 C 0.9101(3) 0.0063(3) 0.13237(19)
C4 C 0.8218(3) -0.1189(3) 0.14303(19)
C5 C 0.5958(4) -0.0432(3) 0.3042(2)
C6 C 0.7295(3) -0.4553(3) 0.2830(2)
C7 C 0.8567(3) -0.2427(3) 0.1932(2)
C8 C 0.7645(4) -0.3664(3) 0.2065(2)
C9 C 0.8313(4) -0.0068(3) 0.3120(2)
C10 C 0.6814(4) 0.0790(3) 0.0549(2)
C11 C 0.6917(4) 0.1121(3) 0.1331(2)
C12 C 0.6607(5) -0.0531(4) 0.4279(3)
C13 C 0.9053(4) 0.1247(3) 0.0644(2)
C14 C 0.5620(5) -0.0620(4) 0.3834(3)
C15 C 0.8128(4) 0.2182(4) 0.1089(2)
C16 C 0.6730(4) -0.6765(4) 0.3577(3)
C17 C 0.7097(4) -0.5918(3) 0.2881(3)
C18 C 0.7968(5) -0.0260(4) 0.3916(2)
C19 C 0.8083(4) 0.0870(3) 0.0143(2)
C20 C 0.9069(4) -0.3624(4) 0.1579(3)
C21 C 0.7124(5) -0.4081(4) 0.3516(2)
C22 C 0.6557(4) -0.6269(5) 0.4247(3)
C23 C 0.6749(5) -0.4936(5) 0.4225(3)
H1 H 0.855(3) 0.239(3) 0.1558(19)
H2 H 0.461(4) -0.080(3) 0.408(2)
H3 H 0.926(4) 0.013(3) 0.2864(19)
H4 H 0.908(3) -0.357(3) 0.1036(19)
H5 H 0.904(3) -0.232(3) 0.2371(17)
H6 H 0.525(4) -0.049(3) 0.271(2)
H14 H 0.991(3) -0.001(3) 0.1585(15)
H20 H 0.722(3) -0.628(3) 0.2380(18)
H22 H 0.606(3) 0.137(3) 0.1644(17)
H23 H 0.782(3) -0.138(3) 0.0992(17)
H24 H 0.592(4) 0.045(3) 0.0434(18)
H25 H 0.980(3) -0.412(3) 0.1811(17)
H28 H 0.837(3) 0.063(3) -0.0359(19)
H31 H 0.788(3) 0.299(3) 0.0746(18)
H32 H 0.689(3) -0.357(3) 0.1775(19)
H33 H 0.997(3) 0.162(3) 0.0390(18)
H35 H 0.876(4) -0.018(3) 0.422(2)
H39 H 0.634(3) -0.064(3) 0.484(2)
H40 H 0.726(4) -0.312(4) 0.350(2)
H41 H 0.662(4) -0.775(5) 0.359(2)
H43 H 0.670(4) -0.453(4) 0.467(3)
H44 H 0.629(4) -0.684(4) 0.474(2)
C24 C 0.2638(3) 0.3902(3) 0.17342(16)
C25 C 0.2297(3) 0.3519(3) 0.25926(17)
C26 C 0.4082(3) 0.4137(3) 0.12541(18)
C27 C 0.2235(3) 0.7831(3) 0.27365(18)
C28 C 0.0922(4) 0.3459(3) 0.2960(2)
C29 C 0.2611(4) 0.7424(3) 0.1963(2)
C30 C 0.3185(3) 0.5314(3) 0.13541(19)
C31 C 0.0558(4) 0.3175(3) 0.3759(2)
C32 C 0.3288(4) 0.3279(3) 0.3058(2)
C33 C 0.2933(4) 0.3005(3) 0.3855(2)
C34 C 0.1926(4) 0.3028(3) 0.12536(19)
C35 C 0.3518(3) 0.6272(3) 0.1846(2)
C36 C 0.4041(4) 0.7666(3) 0.1490(2)
C37 C 0.1832(4) 0.3830(4) 0.0471(2)
C38 C 0.3106(4) 0.4017(4) 0.0063(2)
C39 C 0.2222(4) 0.9157(3) 0.2816(2)
C40 C 0.4067(4) 0.3362(3) 0.0577(2)
C41 C 0.3134(4) 0.2143(4) 0.1025(3)
C42 C 0.1570(4) 0.2959(3) 0.4205(2)
C43 C 0.1866(4) 0.6898(4) 0.3395(2)
C44 C 0.1875(4) 0.9532(5) 0.3528(3)
C45 C 0.1522(4) 0.8588(5) 0.4175(3)
C46 C 0.1510(5) 0.7275(5) 0.4110(3)
H7 H 0.423(3) 0.329(3) 0.2815(17)
H8 H 0.413(3) 0.790(3) 0.092(2)
H9 H -0.048(3) 0.317(3) 0.3972(17)
H10 H 0.184(3) 1.046(4) 0.3535(18)
H11 H 0.355(3) 0.163(3) 0.1474(19)
H12 H 0.282(3) 0.574(3) 0.0915(16)
H13 H 0.489(3) 0.405(3) 0.1511(16)
H15 H 0.098(3) 0.423(3) 0.0342(17)
H16 H 0.191(3) 0.753(3) 0.1664(17)
H17 H 0.017(3) 0.356(2) 0.2641(16)
H18 H 0.500(3) 0.314(3) 0.0342(16)
H19 H 0.386(3) 0.585(2) 0.2292(15)
H21 H 0.107(3) 0.267(3) 0.1560(16)
H26 H 0.480(3) 0.808(3) 0.1752(17)
H27 H 0.294(3) 0.150(3) 0.0694(18)
H29 H 0.250(3) 0.980(3) 0.2347(18)
H30 H 0.182(4) 0.591(4) 0.3358(19)
H34 H 0.333(3) 0.456(3) -0.0459(19)
H36 H 0.128(3) 0.882(3) 0.471(2)
H37 H 0.371(3) 0.285(3) 0.4193(19)
H38 H 0.134(3) 0.278(3) 0.476(2)
H42 H 0.131(4) 0.655(4) 0.461(2)
loop_
_geom_bond_atom_site_label_1
_geom_bond_atom_site_label_2
_geom_bond_site_symmetry_1
_geom_bond_site_symmetry_2
C1 C2 1_555 1_555
C2 C5 1_555 1_555
C3 C1 1_555 1_555
C4 C1 1_555 1_555
C5 C14 1_555 1_555
C6 C8 1_555 1_555
C7 C4 1_555 1_555
C8 C7 1_555 1_555
C9 C2 1_555 1_555
C10 C11 1_555 1_555
C11 C1 1_555 1_555
C12 C14 1_555 1_555
C13 C3 1_555 1_555
C14 H2 1_555 1_555
C15 C11 1_555 1_555
C16 C17 1_555 1_555
C17 C6 1_555 1_555
C18 C9 1_555 1_555
C19 C10 1_555 1_555
C20 C7 1_555 1_555
C21 C6 1_555 1_555
C22 C16 1_555 1_555
C23 C21 1_555 1_555
H1 C15 1_555 1_555
H3 C9 1_555 1_555
H4 C20 1_555 1_555
H5 C7 1_555 1_555
H6 C5 1_555 1_555
C24 C25 1_555 1_555
C25 C28 1_555 1_555
C26 C24 1_555 1_555
C27 C29 1_555 1_555
C28 C31 1_555 1_555
C29 C35 1_555 1_555
C30 C24 1_555 1_555
C31 C42 1_555 1_555
C32 C25 1_555 1_555
C33 C32 1_555 1_555
C34 C24 1_555 1_555
C35 C30 1_555 1_555
C36 C29 1_555 1_555
C37 C34 1_555 1_555
C38 C37 1_555 1_555
C39 C27 1_555 1_555
C40 C26 1_555 1_555
C41 C34 1_555 1_555
C42 C33 1_555 1_555
C43 C27 1_555 1_555
C44 C39 1_555 1_555
C45 C44 1_555 1_555
C46 C43 1_555 1_555
H7 C32 1_555 1_555
H8 C36 1_555 1_555
H9 C31 1_555 1_555
H10 C44 1_555 1_555
H11 C41 1_555 1_555
H12 C30 1_555 1_555
H13 C26 1_555 1_555
H14 C3 1_555 1_555
H15 C37 1_555 1_555
H16 C29 1_555 1_555
H17 C28 1_555 1_555
H18 C40 1_555 1_555
H19 C35 1_555 1_555
H20 C17 1_555 1_555
H21 C34 1_555 1_555
H22 C11 1_555 1_555
H23 C4 1_555 1_555
H24 C10 1_555 1_555
H25 C20 1_555 1_555
H26 C36 1_555 1_555
H27 C41 1_555 1_555
H28 C19 1_555 1_555
H29 C39 1_555 1_555
H30 C43 1_555 1_555
H31 C15 1_555 1_555
H32 C8 1_555 1_555
H33 C13 1_555 1_555
H34 C38 1_555 1_555
H35 C18 1_555 1_555
H36 C45 1_555 1_555
H37 C33 1_555 1_555
H38 C42 1_555 1_555
H39 C12 1_555 1_555
H40 C21 1_555 1_555
H41 C16 1_555 1_555
H42 C46 1_555 1_555
H43 C23 1_555 1_555
H44 C22 1_555 1_555
C3 C4 1_555 1_555
C8 C20 1_555 1_555
C12 C18 1_555 1_555
C13 C15 1_555 1_555
C13 C19 1_555 1_555
C22 C23 1_555 1_555
C26 C30 1_555 1_555
C35 C36 1_555 1_555
C38 C40 1_555 1_555
C40 C41 1_555 1_555
C45 C46 1_555 1_555

#END
