
#######################################################################
#
#                 Cambridge Crystallographic Data Centre
#                                CCDC 
#
#######################################################################
#
# If this CIF has been generated from an entry in the Cambridge 
# Structural Database, then it will include bibliographic, chemical, 
# crystal, experimental, refinement or atomic coordinate data resulting 
# from the CCDC's data processing and validation procedures.
#
#######################################################################

data_FALSIV
_chemical_compound_source        'Euphorbia prolifera'
_chemical_name_common            
14-Desoxo-2alpha,5alpha,7beta,10,15beta-O-penta-acetyl-3beta-O-propionyl-14alpha-O-(2-methylbutyryl)-10,10-dihydromyrsinol
_chemical_formula_moiety         'C38 H54 O15'
_chemical_name_systematic        'Euphorprolitherin A'
_chemical_properties_biological  'potential antitumour activity'
_symmetry_cell_setting           orthorhombic
_symmetry_space_group_name_H-M   'P 21 21 21'
_symmetry_Int_Tables_number      19
_space_group_name_Hall           'P 2ac 2ab'
loop_
_symmetry_equiv_pos_site_id
_symmetry_equiv_pos_as_xyz
1 x,y,z
2 1/2-x,-y,1/2+z
3 -x,1/2+y,1/2-z
4 1/2+x,1/2-y,-z
_cell_length_a                   8.449(4)
_cell_length_b                   10.685(4)
_cell_length_c                   42.568(9)
_cell_angle_alpha                90
_cell_angle_beta                 90
_cell_angle_gamma                90
_cell_volume                     3842.94
_exptl_crystal_colour            colorless
_exptl_crystal_description       prismatic
_chemical_melting_point          '192-195 deg.C'
_cell_formula_units_Z            4
_exptl_crystal_recrystallization_method ethanol
loop_
_atom_site_label
_atom_site_type_symbol
_atom_site_fract_x
_atom_site_fract_y
_atom_site_fract_z
O1 O 0.4868(4) 0.2582(3) 0.10495(7)
O2 O 0.4853(4) -0.0505(3) 0.18508(8)
O3 O 0.4743(6) -0.2534(4) 0.17180(11)
O4 O 0.8395(4) 0.1203(3) 0.20030(7)
O5 O 0.7480(6) 0.1464(5) 0.24924(9)
O6 O 0.6166(4) 0.3589(3) 0.18048(7)
O7 O 0.8274(6) 0.4161(4) 0.20994(10)
O8 O 0.9258(4) 0.4812(3) 0.14220(8)
O9 O 0.9423(5) 0.6645(4) 0.16630(12)
O10 O 0.9537(4) 0.2391(4) 0.04790(8)
O11 O 1.1903(5) 0.2152(6) 0.02460(11)
O12 O 0.5369(4) 0.0035(3) 0.09498(7)
O13 O 0.6659(6) -0.1123(5) 0.05944(12)
O14 O 0.9047(4) 0.1058(3) 0.13409(7)
O15 O 0.9895(5) -0.0563(4) 0.10462(9)
C1 C 0.7140(7) -0.0583(4) 0.14819(11)
H1 H 0.8133 -0.1039 0.1477
H2 H 0.6357 -0.1061 0.1366
C2 C 0.6598(6) -0.0406(5) 0.18216(11)
C3 C 0.6806(6) 0.0984(4) 0.18920(11)
H3 H 0.6018 0.1278 0.2044
C4 C 0.6572(6) 0.1606(4) 0.15690(10)
H4 H 0.5434 0.1609 0.1525
C5 C 0.7134(5) 0.2977(4) 0.15638(10)
H5 H 0.8247 0.3009 0.1628
C6 C 0.6924(5) 0.3767(4) 0.12627(10)
C7 C 0.7621(6) 0.5052(5) 0.13218(11)
H6 H 0.7039 0.5468 0.1491
C8 C 0.7664(7) 0.5875(5) 0.10405(14)
H7 H 0.7538 0.6735 0.1064
C9 C 0.7876(7) 0.5405(5) 0.07622(14)
H8 H 0.7946 0.5965 0.0596
C10 C 0.9687(7) 0.3738(5) 0.05460(11)
C11 C 0.8019(6) 0.4048(5) 0.06863(11)
H9 H 0.7252 0.3884 0.0518
C12 C 0.7591(6) 0.3132(4) 0.09600(10)
H10 H 0.8546 0.2664 0.1017
C13 C 0.6254(6) 0.2172(4) 0.08797(10)
C14 C 0.6736(6) 0.0836(4) 0.09922(11)
H11 H 0.7570 0.0533 0.0851
C15 C 0.7351(5) 0.0703(4) 0.13326(11)
C16 C 0.7380(7) -0.1257(5) 0.20599(12)
H12 H 0.7174 -0.2114 0.2006
H13 H 0.6960 -0.1085 0.2265
H14 H 0.8501 -0.1112 0.2060
C17 C 0.5156(6) 0.3781(5) 0.11761(12)
H15 H 0.4508 0.3926 0.1361
H16 H 0.4935 0.4428 0.1022
C18 C 0.9897(9) 0.4426(7) 0.02312(13)
H17 H 0.9101 0.4149 0.0086
H18 H 1.0927 0.4248 0.0147
H19 H 0.9793 0.5311 0.0264
C19 C 1.1043(7) 0.3997(6) 0.07643(12)
H20 H 1.2021 0.3793 0.0662
H21 H 1.0932 0.3496 0.0950
H22 H 1.1043 0.4867 0.0821
C20 C 0.5737(7) 0.2087(5) 0.05385(11)
H23 H 0.5351 0.2887 0.0470
H24 H 0.4912 0.1475 0.0519
H25 H 0.6623 0.1846 0.0411
C21 C 0.4114(7) -0.1592(6) 0.18047(14)
C22 C 0.2382(8) -0.1475(6) 0.18821(19)
H26 H 0.2150 -0.1955 0.2067
H27 H 0.1763 -0.1783 0.1709
H28 H 0.2127 -0.0612 0.1919
C23 C 0.8554(8) 0.1429(6) 0.23132(13)
C24 C 1.0272(8) 0.1549(8) 0.24072(14)
H29 H 1.0318 0.2049 0.2597
H30 H 1.0655 0.0720 0.2461
C25 C 1.1390(8) 0.2101(8) 0.21781(17)
H31 H 1.1085 0.2948 0.2134
H32 H 1.1372 0.1620 0.1988
H33 H 1.2440 0.2092 0.2264
C26 C 0.6842(8) 0.4159(5) 0.20506(12)
C27 C 0.5690(9) 0.4778(6) 0.22533(14)
H34 H 0.5085 0.5365 0.2132
H35 H 0.6234 0.5213 0.2418
H36 H 0.4995 0.4164 0.2343
C28 C 0.9986(7) 0.5673(5) 0.15939(14)
C29 C 1.1610(7) 0.5263(6) 0.16853(17)
H37 H 1.1746 0.5366 0.1908
H38 H 1.2379 0.5762 0.1576
H39 H 1.1751 0.4399 0.1631
C30 C 1.0611(8) 0.1762(7) 0.03162(13)
C31 C 1.0004(11) 0.0495(7) 0.02375(18)
H40 H 0.9831 0.0031 0.0428
H41 H 1.0764 0.0064 0.0109
H42 H 0.9024 0.0571 0.0125
C32 C 0.5476(8) -0.0907(5) 0.07361(14)
C33 C 0.3912(9) -0.1542(6) 0.06894(17)
H43 H 0.3080 -0.0903 0.0689
C34 C 0.3619(11) -0.2399(9) 0.0950(2)
H44 H 0.3972 -0.2023 0.1142
H45 H 0.4186 -0.3165 0.0915
H46 H 0.2506 -0.2572 0.0964
C35 C 0.3895(15) -0.2206(13) 0.0376(2)
H47 H 0.4272 -0.1613 0.0220
H48 H 0.4674 -0.2872 0.0387
C36 C 0.256(2) -0.2709(15) 0.0263(3)
H49 H 0.1840 -0.2054 0.0204
H50 H 0.2080 -0.3223 0.0422
H51 H 0.2799 -0.3212 0.0082
C37 C 1.0154(6) 0.0375(5) 0.11932(13)
C38 C 1.1738(6) 0.0971(6) 0.12365(15)
H52 H 1.2080 0.1331 0.1041
H53 H 1.2488 0.0350 0.1303
H54 H 1.1665 0.1615 0.1393
loop_
_geom_bond_atom_site_label_1
_geom_bond_atom_site_label_2
_geom_bond_site_symmetry_1
_geom_bond_site_symmetry_2
O1 C13 1_555 1_555
O2 C2 1_555 1_555
O3 C21 1_555 1_555
O4 C3 1_555 1_555
O5 C23 1_555 1_555
O6 C5 1_555 1_555
O7 C26 1_555 1_555
O8 C7 1_555 1_555
O9 C28 1_555 1_555
O10 C10 1_555 1_555
O11 C30 1_555 1_555
O12 C14 1_555 1_555
O13 C32 1_555 1_555
O14 C15 1_555 1_555
O15 C37 1_555 1_555
C1 H1 1_555 1_555
H2 C1 1_555 1_555
C2 C1 1_555 1_555
C3 C2 1_555 1_555
H3 C3 1_555 1_555
C4 C3 1_555 1_555
H4 C4 1_555 1_555
C5 C4 1_555 1_555
H5 C5 1_555 1_555
C6 C5 1_555 1_555
C7 C6 1_555 1_555
H6 C7 1_555 1_555
C8 C7 1_555 1_555
H7 C8 1_555 1_555
C9 C8 1_555 1_555
H8 C9 1_555 1_555
C10 C11 1_555 1_555
C11 C9 1_555 1_555
H9 C11 1_555 1_555
C12 C6 1_555 1_555
H10 C12 1_555 1_555
C13 C12 1_555 1_555
C14 C13 1_555 1_555
H11 C14 1_555 1_555
C15 C1 1_555 1_555
C16 C2 1_555 1_555
H12 C16 1_555 1_555
H13 C16 1_555 1_555
H14 C16 1_555 1_555
C17 O1 1_555 1_555
H15 C17 1_555 1_555
H16 C17 1_555 1_555
C18 C10 1_555 1_555
H17 C18 1_555 1_555
H18 C18 1_555 1_555
H19 C18 1_555 1_555
C19 C10 1_555 1_555
H20 C19 1_555 1_555
H21 C19 1_555 1_555
H22 C19 1_555 1_555
C20 C13 1_555 1_555
H23 C20 1_555 1_555
H24 C20 1_555 1_555
H25 C20 1_555 1_555
C21 O2 1_555 1_555
C22 C21 1_555 1_555
H26 C22 1_555 1_555
H27 C22 1_555 1_555
H28 C22 1_555 1_555
C23 O4 1_555 1_555
C24 C23 1_555 1_555
H29 C24 1_555 1_555
H30 C24 1_555 1_555
C25 C24 1_555 1_555
H31 C25 1_555 1_555
H32 C25 1_555 1_555
H33 C25 1_555 1_555
C26 O6 1_555 1_555
C27 C26 1_555 1_555
H34 C27 1_555 1_555
H35 C27 1_555 1_555
H36 C27 1_555 1_555
C28 O8 1_555 1_555
C29 C28 1_555 1_555
H37 C29 1_555 1_555
H38 C29 1_555 1_555
H39 C29 1_555 1_555
C30 O10 1_555 1_555
C31 C30 1_555 1_555
H40 C31 1_555 1_555
H41 C31 1_555 1_555
H42 C31 1_555 1_555
C32 O12 1_555 1_555
C33 C32 1_555 1_555
H43 C33 1_555 1_555
C34 C33 1_555 1_555
H44 C34 1_555 1_555
H45 C34 1_555 1_555
H46 C34 1_555 1_555
C35 C33 1_555 1_555
H47 C35 1_555 1_555
H48 C35 1_555 1_555
C36 C35 1_555 1_555
H49 C36 1_555 1_555
H50 C36 1_555 1_555
H51 C36 1_555 1_555
C37 O14 1_555 1_555
C38 C37 1_555 1_555
H52 C38 1_555 1_555
H53 C38 1_555 1_555
H54 C38 1_555 1_555
C4 C15 1_555 1_555
C6 C17 1_555 1_555
C11 C12 1_555 1_555
C14 C15 1_555 1_555

#END
