
#######################################################################
#
#                 Cambridge Crystallographic Data Centre
#                                CCDC 
#
#######################################################################
#
# If this CIF has been generated from an entry in the Cambridge 
# Structural Database, then it will include bibliographic, chemical, 
# crystal, experimental, refinement or atomic coordinate data resulting 
# from the CCDC's data processing and validation procedures.
#
#######################################################################

data_FAMDIG
_chemical_formula_moiety         'C9 H6 Cl1 N1 O1'
_chemical_name_systematic        5-Chloro-8-hydroxy-quinoline
_chemical_properties_biological  'bactericide, topical antifungal agent'
_symmetry_cell_setting           orthorhombic
_symmetry_space_group_name_H-M   'F d d 2'
_symmetry_Int_Tables_number      43
_space_group_name_Hall           'F 2 -2d'
loop_
_symmetry_equiv_pos_site_id
_symmetry_equiv_pos_as_xyz
1 x,y,z
2 x,1/2+y,1/2+z
3 1/2+x,y,1/2+z
4 1/2+x,1/2+y,z
5 1/4-x,1/4+y,1/4+z
6 1/4-x,3/4+y,3/4+z
7 3/4-x,1/4+y,3/4+z
8 3/4-x,3/4+y,1/4+z
9 1/4+x,1/4-y,1/4+z
10 1/4+x,3/4-y,3/4+z
11 3/4+x,1/4-y,3/4+z
12 3/4+x,3/4-y,1/4+z
13 1/2-x,-y,1/2+z
14 1/2-x,1/2-y,z
15 -x,-y,z
16 -x,1/2-y,1/2+z
_cell_length_a                   29.807(9)
_cell_length_b                   27.495(4)
_cell_length_c                   3.814(4)
_cell_angle_alpha                90
_cell_angle_beta                 90
_cell_angle_gamma                90
_cell_volume                     3125.74
_exptl_crystal_colour            colorless
_cell_formula_units_Z            16
loop_
_atom_site_label
_atom_site_type_symbol
_atom_site_fract_x
_atom_site_fract_y
_atom_site_fract_z
Cl1 Cl 0.42060(6) 0.27705(6) 0.250
O1 O 0.5395(1) 0.4439(2) 0.015(2)
N1 N 0.4567(2) 0.4605(2) 0.308(2)
C1 C 0.4172(2) 0.4678(2) 0.458(3)
C2 C 0.3871(2) 0.4304(3) 0.534(3)
C3 C 0.3982(2) 0.3839(2) 0.450(3)
C4 C 0.4544(2) 0.3272(2) 0.193(3)
C5 C 0.4957(2) 0.3207(2) 0.036(3)
C6 C 0.5238(2) 0.3607(3) -0.027(3)
C7 C 0.5113(2) 0.4065(2) 0.073(2)
C8 C 0.4682(2) 0.4141(2) 0.225(3)
C9 C 0.4395(2) 0.3737(2) 0.292(2)
H1 H 0.409(2) 0.507(2) 0.51(2)
H2 H 0.356(2) 0.436(2) 0.65(2)
H3 H 0.382(2) 0.359(2) 0.54(2)
H4 H 0.507(2) 0.286(2) 0.09(2)
H5 H 0.554(2) 0.353(2) -0.15(2)
H6 H 0.531(2) 0.467(2) 0.11(2)
loop_
_geom_bond_atom_site_label_1
_geom_bond_atom_site_label_2
_geom_bond_site_symmetry_1
_geom_bond_site_symmetry_2
Cl1 C4 1_555 1_555
O1 C7 1_555 1_555
N1 C1 1_555 1_555
C1 C2 1_555 1_555
C2 C3 1_555 1_555
C3 C9 1_555 1_555
C4 C5 1_555 1_555
C5 C6 1_555 1_555
C6 C7 1_555 1_555
C7 C8 1_555 1_555
C8 N1 1_555 1_555
C9 C4 1_555 1_555
H1 C1 1_555 1_555
H2 C2 1_555 1_555
H3 C3 1_555 1_555
H4 C5 1_555 1_555
H5 C6 1_555 1_555
H6 O1 1_555 1_555
C8 C9 1_555 1_555

#END
