
#######################################################################
#
#                 Cambridge Crystallographic Data Centre
#                                CCDC 
#
#######################################################################
#
# If this CIF has been generated from an entry in the Cambridge 
# Structural Database, then it will include bibliographic, chemical, 
# crystal, experimental, refinement or atomic coordinate data resulting 
# from the CCDC's data processing and validation procedures.
#
#######################################################################

data_FAMFEH
_chemical_name_common            Azilsartan
_chemical_formula_moiety         'C25 H20 N4 O5'
_chemical_name_systematic        
"2-ethoxy-1-((2'-(5-oxo-4,5-dihydro-1,2,4-oxadiazol-3-yl)biphenyl-4-yl)methyl)-1H-benzimidazole-7-carboxylic acid"
_chemical_properties_biological  'antihypertensive drug'
_symmetry_cell_setting           monoclinic
_symmetry_space_group_name_H-M   'P 21/c'
_symmetry_Int_Tables_number      14
_space_group_name_Hall           '-P 2ybc'
loop_
_symmetry_equiv_pos_site_id
_symmetry_equiv_pos_as_xyz
1 x,y,z
2 -x,1/2+y,1/2-z
3 -x,-y,-z
4 x,1/2-y,1/2+z
_cell_length_a                   9.6485(17)
_cell_length_b                   11.312(2)
_cell_length_c                   19.984(4)
_cell_angle_alpha                90
_cell_angle_beta                 90.337(3)
_cell_angle_gamma                90
_cell_volume                     2181.09
_exptl_crystal_colour            colorless
_exptl_crystal_description       block
_cell_formula_units_Z            4
loop_
_atom_site_label
_atom_site_type_symbol
_atom_site_fract_x
_atom_site_fract_y
_atom_site_fract_z
C1 C 0.65842(15) 0.31625(13) 0.16222(8)
C2 C 0.45784(14) 0.33216(11) 0.21409(7)
C3 C 0.31382(14) 0.30492(11) 0.23301(7)
C4 C 0.29055(17) 0.19911(13) 0.26678(8)
H1 H 0.3652 0.1515 0.2788
C5 C 0.15834(19) 0.16455(14) 0.28247(9)
H2 H 0.1435 0.0937 0.3050
C6 C 0.04820(18) 0.23480(16) 0.26490(10)
H3 H -0.0414 0.2119 0.2758
C7 C 0.06995(16) 0.33977(14) 0.23090(9)
H4 H -0.0058 0.3862 0.2190
C8 C 0.20246(15) 0.37733(12) 0.21410(7)
C9 C 0.21987(14) 0.48668(12) 0.17320(8)
C10 C 0.29682(15) 0.58324(12) 0.19434(7)
H5 H 0.3399 0.5815 0.2361
C11 C 0.31062(14) 0.68244(12) 0.15416(7)
H6 H 0.3616 0.7467 0.1697
C12 C 0.25005(15) 0.68740(11) 0.09168(8)
C13 C 0.1710(2) 0.59163(14) 0.07082(9)
H7 H 0.1279 0.5934 0.0291
C14 C 0.15554(19) 0.49369(14) 0.11133(10)
H8 H 0.1007 0.4311 0.0967
C15 C 0.26382(16) 0.79146(12) 0.04451(8)
H9 H 0.2834 0.7619 0.0000
H10 H 0.1758 0.8328 0.0425
C16 C 0.03527(18) 1.16247(17) 0.07572(13)
H11 H 0.0200 1.1382 0.0302
H12 H 0.0120 1.2446 0.0804
H13 H -0.0218 1.1162 0.1049
C17 C 0.18302(15) 1.14470(12) 0.09373(8)
H14 H 0.2416 1.1968 0.0677
H15 H 0.1982 1.1611 0.1409
C18 C 0.34529(15) 0.99001(11) 0.08137(7)
C19 C 0.51424(15) 0.86221(11) 0.06880(6)
C20 C 0.56308(14) 0.97293(11) 0.09110(7)
C21 C 0.70215(15) 0.99095(13) 0.10390(8)
H16 H 0.7348 1.0646 0.1175
C22 C 0.79162(17) 0.89671(14) 0.09602(9)
H17 H 0.8857 0.9071 0.1047
C23 C 0.74380(17) 0.78722(14) 0.07548(8)
H18 H 0.8064 0.7251 0.0718
C24 C 0.60505(16) 0.76712(12) 0.06024(7)
C25 C 0.56270(18) 0.65100(13) 0.03305(8)
H19 H 0.4972(19) 0.2089(17) 0.1435(9)
H20 H 0.594(2) 0.489(2) 0.0402(11)
N1 N 0.52907(12) 0.27020(11) 0.16684(6)
N2 N 0.53284(13) 0.41324(11) 0.24142(7)
N3 N 0.37172(12) 0.87546(9) 0.06344(6)
N4 N 0.45336(12) 1.05247(9) 0.09790(6)
O1 O 0.75441(11) 0.29021(12) 0.12724(7)
O2 O 0.66414(10) 0.40453(9) 0.20830(6)
O3 O 0.21396(11) 1.02328(8) 0.07915(6)
O4 O 0.47710(14) 0.64036(9) -0.01175(6)
O5 O 0.62824(16) 0.56109(10) 0.05970(7)
loop_
_geom_bond_atom_site_label_1
_geom_bond_atom_site_label_2
_geom_bond_site_symmetry_1
_geom_bond_site_symmetry_2
C1 N1 1_555 1_555
C2 C3 1_555 1_555
C3 C4 1_555 1_555
C4 H1 1_555 1_555
C5 C4 1_555 1_555
H2 C5 1_555 1_555
C6 C5 1_555 1_555
H3 C6 1_555 1_555
C7 C6 1_555 1_555
H4 C7 1_555 1_555
C8 C3 1_555 1_555
C9 C8 1_555 1_555
C10 C9 1_555 1_555
H5 C10 1_555 1_555
C11 C10 1_555 1_555
H6 C11 1_555 1_555
C12 C11 1_555 1_555
C13 C12 1_555 1_555
H7 C13 1_555 1_555
C14 C9 1_555 1_555
H8 C14 1_555 1_555
C15 C12 1_555 1_555
H9 C15 1_555 1_555
H10 C15 1_555 1_555
C16 H11 1_555 1_555
H12 C16 1_555 1_555
H13 C16 1_555 1_555
C17 C16 1_555 1_555
H14 C17 1_555 1_555
H15 C17 1_555 1_555
C18 N3 1_555 1_555
C19 C20 1_555 1_555
C20 C21 1_555 1_555
C21 H16 1_555 1_555
C22 C21 1_555 1_555
H17 C22 1_555 1_555
C23 C22 1_555 1_555
H18 C23 1_555 1_555
C24 C19 1_555 1_555
C25 C24 1_555 1_555
H19 N1 1_555 1_555
H20 O5 1_555 1_555
N1 C2 1_555 1_555
N2 C2 1_555 1_555
N3 C15 1_555 1_555
N4 C18 1_555 1_555
O1 C1 1_555 1_555
O2 C1 1_555 1_555
O3 C17 1_555 1_555
O4 C25 1_555 1_555
O5 C25 1_555 1_555
C7 C8 1_555 1_555
C13 C14 1_555 1_555
C18 O3 1_555 1_555
C19 N3 1_555 1_555
C20 N4 1_555 1_555
C23 C24 1_555 1_555
N2 O2 1_555 1_555

#END
