
#######################################################################
#
#                 Cambridge Crystallographic Data Centre
#                                CCDC 
#
#######################################################################
#
# If this CIF has been generated from an entry in the Cambridge 
# Structural Database, then it will include bibliographic, chemical, 
# crystal, experimental, refinement or atomic coordinate data resulting 
# from the CCDC's data processing and validation procedures.
#
#######################################################################

data_FAMFIL
_chemical_name_common            
'azilsartan azilsartanate 2-methyl-1H-imidazol-3-ium dihydrate'
_chemical_formula_moiety         
'C25 H19 N4 O5 1-,C4 H7 N2 1+,2(H2 O1),C25 H20 N4 O5'
_chemical_name_systematic        
"2-ethoxy-1-((2'-(5-oxo-4,5-dihydro-1,2,4-oxadiazol-3-yl)(1,1'-biphenyl)-4-yl)methyl)-1H-benzimidazole-7-carboxylate 2-ethoxy-1-((2'-(5-oxo-4,5-dihydro-1,2,4-oxadiazol-3-yl)(1,1'-biphenyl)-4-yl)methyl)-1H-benzimidazole-7-carboxylic acid 2-methyl-1H-imidazol-3-ium dihydrate"
_chemical_properties_biological  'Azilsartan is an antihypertensive drug.'
_symmetry_cell_setting           triclinic
_symmetry_space_group_name_H-M   'P -1'
_symmetry_Int_Tables_number      2
_space_group_name_Hall           '-P 1'
loop_
_symmetry_equiv_pos_site_id
_symmetry_equiv_pos_as_xyz
1 x,y,z
2 -x,-y,-z
_cell_length_a                   9.9221(7)
_cell_length_b                   11.0641(8)
_cell_length_c                   13.0650(9)
_cell_angle_alpha                65.961(2)
_cell_angle_beta                 68.288(2)
_cell_angle_gamma                83.972(2)
_cell_volume                     1215.17
_exptl_crystal_colour            colorless
_exptl_crystal_description       block
_cell_formula_units_Z            1
loop_
_atom_site_label
_atom_site_type_symbol
_atom_site_fract_x
_atom_site_fract_y
_atom_site_fract_z
O6 O 0.1494(2) 0.3002(2) 0.2667(2)
N5 N 0.0275(5) 0.8873(4) 0.0166(4)
H20 H -0.0095 0.8269 0.0029
N6 N 0.0423(6) 1.0744(4) 0.0287(4)
H21 H 0.0163 1.1563 0.0240
C26 C -0.1406(9) 1.0526(11) -0.0487(8)
H22 H -0.1569 0.9954 -0.0824
H23 H -0.2266 1.0507 0.0177
H24 H -0.1182 1.1415 -0.1088
C27 C 0.0000 1.0000 0.0000
C28 C 0.1357(9) 0.8782(7) 0.0619(8)
H25 H 0.1927 0.8031 0.0843
C29 C 0.1443(9) 0.9939(8) 0.0716(7)
H26 H 0.2086 1.0172 0.1012
N5A N -0.0275(5) 1.1127(4) -0.0166(4)
H20A H 0.0095 1.1731 -0.0029
N6A N -0.0423(6) 0.9256(4) -0.0287(4)
H21A H -0.0163 0.8437 -0.0240
C26A C 0.1406(9) 0.9474(11) 0.0487(8)
H22A H 0.1569 1.0046 0.0824
H23A H 0.2266 0.9493 -0.0177
H24A H 0.1182 0.8585 0.1088
C28A C -0.1357(9) 1.1218(7) -0.0619(8)
H25A H -0.1927 1.1969 -0.0843
C29A C -0.1443(9) 1.0061(8) -0.0716(7)
H26A H -0.2086 0.9828 -0.1012
O1 O 0.1482(3) 1.3014(2) -0.0076(2)
O2 O 0.3873(3) 1.3140(3) -0.1215(2)
O3 O 0.31519(19) 0.51240(18) 0.40541(17)
O4 O -0.0476(3) 1.0425(2) 0.3162(2)
O5 O -0.0314(2) 0.9001(2) 0.48978(17)
N1 N 0.3353(3) 1.2858(2) 0.0643(2)
H1 H 0.2892 1.2735 0.1383
N2 N 0.5215(3) 1.3105(3) -0.1030(2)
N3 N 0.1477(2) 0.6704(2) 0.40460(19)
N4 N 0.1232(2) 0.5190(2) 0.3366(2)
C1 C 0.2746(4) 1.2998(3) -0.0168(3)
C2 C 0.4827(3) 1.2946(2) 0.0081(3)
C3 C 0.5927(3) 1.2927(2) 0.0596(3)
C4 C 0.7047(3) 1.3916(3) -0.0096(3)
H2 H 0.7051 1.4553 -0.0831
C5 C 0.8148(3) 1.3957(3) 0.0300(3)
H3 H 0.8893 1.4613 -0.0172
C6 C 0.8139(3) 1.3021(3) 0.1398(3)
H4 H 0.8865 1.3058 0.1677
C7 C 0.7041(3) 1.2027(3) 0.2080(3)
H5 H 0.7049 1.1394 0.2813
C8 C 0.5922(3) 1.1952(2) 0.1695(2)
C9 C 0.4861(3) 1.0790(2) 0.2422(2)
C10 C 0.4150(3) 1.0430(3) 0.3655(2)
H6 H 0.4299 1.0950 0.4015
C11 C 0.3226(3) 0.9307(3) 0.4347(2)
H7 H 0.2742 0.9094 0.5164
C12 C 0.3010(2) 0.8494(2) 0.3844(2)
C13 C 0.3707(3) 0.8850(3) 0.2616(2)
H8 H 0.3562 0.8323 0.2260
C14 C 0.4613(3) 0.9983(2) 0.1919(2)
H9 H 0.5067 1.0210 0.1097
C15 C 0.2077(3) 0.7232(3) 0.4652(2)
H10 H 0.2653 0.6566 0.5033
H11 H 0.1281 0.7394 0.5281
C16 C 0.5092(3) 0.3722(3) 0.4089(3)
H12 H 0.4804 0.3485 0.4936
H13 H 0.5751 0.4490 0.3656
H14 H 0.5563 0.2998 0.3896
C17 C 0.3774(3) 0.4023(3) 0.3740(3)
H15 H 0.4043 0.4264 0.2885
H16 H 0.3087 0.3262 0.4177
C18 C 0.1974(3) 0.5610(3) 0.3811(2)
C19 C 0.0274(3) 0.7052(3) 0.3697(2)
C20 C 0.0136(3) 0.6096(3) 0.3283(2)
C21 C -0.0957(3) 0.6137(4) 0.2847(3)
H17 H -0.1061 0.5494 0.2590
C22 C -0.1886(3) 0.7168(4) 0.2808(3)
H18 H -0.2651 0.7200 0.2550
C23 C -0.1693(3) 0.8156(4) 0.3149(3)
H19 H -0.2304 0.8859 0.3069
C24 C -0.0619(3) 0.8133(3) 0.3606(2)
C25 C -0.0453(3) 0.9295(3) 0.3883(3)
H27? H -0.0230 0.9684 0.4977
H28? H 0.1331 0.3697 0.2784
H29? H 0.1087 0.2327 0.3268
loop_
_geom_bond_atom_site_label_1
_geom_bond_atom_site_label_2
_geom_bond_site_symmetry_1
_geom_bond_site_symmetry_2
O1 C1 1_555 1_555
O2 N2 1_555 1_555
O3 C17 1_555 1_555
O4 C25 1_555 1_555
O5 C25 1_555 1_555
N1 H1 1_555 1_555
N2 C2 1_555 1_555
N3 C15 1_555 1_555
N4 C18 1_555 1_555
C1 O2 1_555 1_555
C2 N1 1_555 1_555
C3 C2 1_555 1_555
C4 C3 1_555 1_555
H2 C4 1_555 1_555
C5 C4 1_555 1_555
H3 C5 1_555 1_555
C6 C5 1_555 1_555
H4 C6 1_555 1_555
C7 C6 1_555 1_555
H5 C7 1_555 1_555
C8 C3 1_555 1_555
C9 C8 1_555 1_555
C10 C9 1_555 1_555
H6 C10 1_555 1_555
C11 C10 1_555 1_555
H7 C11 1_555 1_555
C12 C11 1_555 1_555
C13 C12 1_555 1_555
H8 C13 1_555 1_555
C14 C9 1_555 1_555
H9 C14 1_555 1_555
C15 C12 1_555 1_555
H10 C15 1_555 1_555
H11 C15 1_555 1_555
C16 H12 1_555 1_555
H13 C16 1_555 1_555
H14 C16 1_555 1_555
C17 C16 1_555 1_555
H15 C17 1_555 1_555
H16 C17 1_555 1_555
C18 O3 1_555 1_555
C19 N3 1_555 1_555
C20 N4 1_555 1_555
C21 C20 1_555 1_555
H17 C21 1_555 1_555
C22 C21 1_555 1_555
H18 C22 1_555 1_555
C23 C22 1_555 1_555
H19 C23 1_555 1_555
C24 C19 1_555 1_555
C25 C24 1_555 1_555
N5 H20 1_555 1_555
H20 N6A 1_555 1_555
N6 H21 1_555 1_555
H21 N5A 1_555 1_555
C26 H22 1_555 1_555
H22 H26A 1_555 1_555
H23 C26 1_555 1_555
H24 C26 1_555 1_555
C27 N5 1_555 1_555
C28 N5 1_555 1_555
H25 C28 1_555 1_555
C29 N6 1_555 1_555
H26 C29 1_555 1_555
N5A N6 1_555 1_555
H20A N6 1_555 1_555
N6A N5 1_555 1_555
H21A N5 1_555 1_555
C26A N5 1_555 1_555
H22A H26 1_555 1_555
H23A C28 1_555 1_555
H24A H25 1_555 1_555
C28A C26 1_555 1_555
H25A H24 1_555 1_555
C29A C26 1_555 1_555
H26A C29A 1_555 1_555
N1 C1 1_555 1_555
N3 C18 1_555 1_555
C7 C8 1_555 1_555
C13 C14 1_555 1_555
C19 C20 1_555 1_555
C23 C24 1_555 1_555
N6 C27 1_555 1_555
N6 C26A 1_555 1_555
C26 C27 1_555 1_555
C26 N5A 1_555 1_555
C26 N6A 1_555 1_555
H23 C28A 1_555 1_555
C27 N5A 1_555 1_555
C27 N6A 1_555 1_555
C27 C26A 1_555 1_555
C28 C29 1_555 1_555
C28 C26A 1_555 1_555
C29 C26A 1_555 1_555
N5A H20A 1_555 1_555
N5A C28A 1_555 1_555
N6A H21A 1_555 1_555
N6A C29A 1_555 1_555
C26A H22A 1_555 1_555
C26A H23A 1_555 1_555
C26A H24A 1_555 1_555
C28A H25A 1_555 1_555
C28A C29A 1_555 1_555

#END
