
#######################################################################
#
#                 Cambridge Crystallographic Data Centre
#                                CCDC 
#
#######################################################################
#
# If this CIF has been generated from an entry in the Cambridge 
# Structural Database, then it will include bibliographic, chemical, 
# crystal, experimental, refinement or atomic coordinate data resulting 
# from the CCDC's data processing and validation procedures.
#
#######################################################################

data_FAMHIN
_chemical_formula_moiety         'C24 H17 N1 O3'
_chemical_name_systematic        
'methyl 5-phenyl-10H-indeno[1,2-g]quinolin-10-yl carbonate'
_symmetry_cell_setting           orthorhombic
_symmetry_space_group_name_H-M   'P b c n'
_symmetry_Int_Tables_number      60
_space_group_name_Hall           '-P 2n 2ab'
loop_
_symmetry_equiv_pos_site_id
_symmetry_equiv_pos_as_xyz
1 x,y,z
2 1/2-x,1/2-y,1/2+z
3 1/2+x,1/2-y,-z
4 -x,y,1/2-z
5 -x,-y,-z
6 1/2+x,1/2+y,1/2-z
7 1/2-x,1/2+y,z
8 x,-y,1/2+z
_cell_length_a                   30.066(2)
_cell_length_b                   7.9166(6)
_cell_length_c                   15.1684(12)
_cell_angle_alpha                90
_cell_angle_beta                 90
_cell_angle_gamma                90
_cell_volume                     3610.39
_exptl_crystal_colour            colorless
_exptl_crystal_description       block
_cell_formula_units_Z            8
loop_
_atom_site_label
_atom_site_type_symbol
_atom_site_fract_x
_atom_site_fract_y
_atom_site_fract_z
O1 O 0.15481(5) -0.32119(16) -0.03112(9)
O2 O 0.21216(5) -0.37303(19) -0.12317(12)
O3 O 0.16536(5) -0.57309(17) -0.07587(9)
N1 N 0.02161(6) 0.0570(2) -0.14397(10)
C1 C 0.05377(6) 0.0634(2) -0.08047(11)
C2 C 0.09088(6) -0.0436(2) -0.09083(12)
H1 H 0.0933 -0.1152 -0.1409
C3 C 0.12306(6) -0.0426(2) -0.02820(12)
C4 C 0.16566(6) -0.1431(2) -0.02713(12)
H2 H 0.1855 -0.1098 -0.0770
C5 C 0.18596(6) -0.0961(2) 0.06050(12)
C6 C 0.22481(7) -0.1559(3) 0.09779(14)
H3 H 0.2424 -0.2374 0.0679
C7 C 0.23759(7) -0.0945(3) 0.17975(14)
H4 H 0.2642 -0.1340 0.2063
C8 C 0.21158(6) 0.0241(2) 0.22300(13)
H5 H 0.2206 0.0641 0.2793
C9 C 0.17264(6) 0.0856(2) 0.18562(12)
H6 H 0.1551 0.1670 0.2158
C10 C 0.15974(6) 0.0259(2) 0.10325(12)
C11 C 0.12070(6) 0.0631(2) 0.04774(11)
C12 C 0.08597(6) 0.1747(2) 0.05829(10)
C13 C 0.05134(6) 0.1738(2) -0.00640(11)
C14 C 0.01365(6) 0.2799(2) -0.00112(12)
H7 H 0.0106 0.3565 0.0467
C15 C -0.01839(7) 0.2720(2) -0.06500(13)
H8 H -0.0440 0.3422 -0.0619
C16 C -0.01278(7) 0.1581(2) -0.13536(13)
H9 H -0.0352 0.1541 -0.1794
C17 C 0.08535(5) 0.3000(2) 0.13175(10)
C18 C 0.11416(7) 0.4373(2) 0.12775(12)
H10 H 0.1338 0.4485 0.0791
C19 C 0.11443(7) 0.5581(2) 0.19413(13)
H11 H 0.1340 0.6521 0.1903
C20 C 0.08630(6) 0.5417(2) 0.26576(12)
H12 H 0.0865 0.6239 0.3114
C21 C 0.05799(6) 0.4047(3) 0.27032(12)
H13 H 0.0388 0.3926 0.3197
C22 C 0.05716(6) 0.2843(2) 0.20369(11)
H14 H 0.0373 0.1912 0.2074
C23 C 0.18092(6) -0.4181(2) -0.08121(12)
C24 C 0.18875(7) -0.6969(3) -0.12693(16)
H15 H 0.1937 -0.6533 -0.1866
H16 H 0.1711 -0.8007 -0.1301
H17 H 0.2174 -0.7213 -0.0990
loop_
_geom_bond_atom_site_label_1
_geom_bond_atom_site_label_2
_geom_bond_site_symmetry_1
_geom_bond_site_symmetry_2
O1 C4 1_555 1_555
O2 C23 1_555 1_555
O3 C23 1_555 1_555
N1 C1 1_555 1_555
C1 C2 1_555 1_555
C2 H1 1_555 1_555
C3 C2 1_555 1_555
C4 C3 1_555 1_555
H2 C4 1_555 1_555
C5 C4 1_555 1_555
C6 C5 1_555 1_555
H3 C6 1_555 1_555
C7 C6 1_555 1_555
H4 C7 1_555 1_555
C8 C7 1_555 1_555
H5 C8 1_555 1_555
C9 C8 1_555 1_555
H6 C9 1_555 1_555
C10 C5 1_555 1_555
C11 C3 1_555 1_555
C12 C11 1_555 1_555
C13 C1 1_555 1_555
C14 C13 1_555 1_555
H7 C14 1_555 1_555
C15 C14 1_555 1_555
H8 C15 1_555 1_555
C16 N1 1_555 1_555
H9 C16 1_555 1_555
C17 C12 1_555 1_555
C18 C17 1_555 1_555
H10 C18 1_555 1_555
C19 C18 1_555 1_555
H11 C19 1_555 1_555
C20 C19 1_555 1_555
H12 C20 1_555 1_555
C21 C20 1_555 1_555
H13 C21 1_555 1_555
C22 C17 1_555 1_555
H14 C22 1_555 1_555
C23 O1 1_555 1_555
C24 O3 1_555 1_555
H15 C24 1_555 1_555
H16 C24 1_555 1_555
H17 C24 1_555 1_555
C9 C10 1_555 1_555
C10 C11 1_555 1_555
C12 C13 1_555 1_555
C15 C16 1_555 1_555
C21 C22 1_555 1_555

#END
