
#######################################################################
#
#                 Cambridge Crystallographic Data Centre
#                                CCDC 
#
#######################################################################
#
# If this CIF has been generated from an entry in the Cambridge 
# Structural Database, then it will include bibliographic, chemical, 
# crystal, experimental, refinement or atomic coordinate data resulting 
# from the CCDC's data processing and validation procedures.
#
#######################################################################

data_FAMMUB
_chemical_name_common            
9-Methoxy-4-phenyl-3,5,8-trioxatricyclo(8.6.0.0$2,7!)hexadec-14-en-10-ol
_chemical_formula_moiety         'C20 H26 O5'
_chemical_name_systematic        
'Methyl (R)-4,6-O-benzylidene-2,3-C-(hex-4-ene-1,6-diyl)-3-deoxy-\a-D-glucopyranoside'
_symmetry_cell_setting           monoclinic
_symmetry_space_group_name_H-M   'P 21'
_symmetry_Int_Tables_number      4
_space_group_name_Hall           'P 2yb'
loop_
_symmetry_equiv_pos_site_id
_symmetry_equiv_pos_as_xyz
1 x,y,z
2 -x,1/2+y,-z
_cell_length_a                   11.796(5)
_cell_length_b                   5.592(3)
_cell_length_c                   13.675(9)
_cell_angle_alpha                90
_cell_angle_beta                 93.92(4)
_cell_angle_gamma                90
_cell_volume                     899.937
_exptl_crystal_colour            colorless
_exptl_crystal_description       plate
_chemical_melting_point          109-110deg.C
_cell_formula_units_Z            2
loop_
_atom_site_label
_atom_site_type_symbol
_atom_site_fract_x
_atom_site_fract_y
_atom_site_fract_z
O1 O 0.7465(13) 0.6733(25) 0.3716(9)
O2 O 0.8554(14) 0.4288(29) 0.4817(10)
O3 O 0.9979(14) 0.4647(29) 0.2535(10)
O4 O 1.0546(17) 0.8539(36) 0.2189(13)
O5 O 0.9086(13) 0.8939(27) 0.0650(9)
H1 H 0.9384(13) 1.0071(27) 0.0949(9)
C1 C 1.0039(23) 0.6413(44) 0.1763(17)
H2 H 1.0505(23) 0.5802(44) 0.1252(17)
C2 C 0.8888(19) 0.7062(36) 0.1328(14)
C3 C 0.8399(22) 0.4942(46) 0.0660(16)
H3 H 0.9031(22) 0.3881(46) 0.0559(16)
H4 H 0.7880(22) 0.4058(46) 0.1044(16)
C4 C 0.7880(25) 0.5294(53) -0.0190(19)
H5 H 0.7693(25) 0.3743(53) -0.0475(19)
H6 H 0.8411(25) 0.6052(53) -0.0604(19)
C5 C 0.6715(28) 0.6906(65) -0.0243(22)
H7 H 0.6902(28) 0.8588(65) -0.0167(22)
H8 H 0.6296(28) 0.6686(65) -0.0872(22)
C6 C 0.6000(28) 0.6086(59) 0.0583(21)
H9 H 0.5447(28) 0.4925(59) 0.0449(21)
C7 C 0.6141(28) 0.6991(61) 0.1515(22)
H10 H 0.5689(28) 0.6387(61) 0.1989(22)
C8 C 0.6948(20) 0.8819(44) 0.1795(16)
H11 H 0.6660(20) 0.9725(44) 0.2330(16)
H12 H 0.6998(20) 0.9905(44) 0.1247(16)
C9 C 0.8160(19) 0.7939(40) 0.2118(15)
H13 H 0.8559(19) 0.9315(40) 0.2422(15)
C10 C 0.8126(19) 0.6030(38) 0.2919(15)
H14 H 0.7791(19) 0.4572(38) 0.2625(15)
C11 C 0.7486(19) 0.4936(39) 0.4418(14)
H15 H 0.7155(19) 0.3511(39) 0.4094(14)
C12 C 0.9257(20) 0.3537(43) 0.4069(15)
H16 H 0.8946(20) 0.2102(43) 0.3755(15)
H17 H 1.0014(20) 0.3175(43) 0.4352(15)
C13 C 0.9313(19) 0.5443(41) 0.3350(15)
H18 H 0.9662(19) 0.6869(41) 0.3659(15)
C14 C 1.1633(27) 0.8096(68) 0.2580(22)
H19 H 1.1953(27) 0.9541(68) 0.2860(22)
H20 H 1.2092(27) 0.7543(68) 0.2073(22)
H21 H 1.1612(27) 0.6896(68) 0.3081(22)
C15 C 0.6696(22) 0.5675(44) 0.5173(17)
C16 C 0.5887(20) 0.4088(46) 0.5477(15)
H22 H 0.5724(20) 0.2671(46) 0.5140(15)
C17 C 0.5305(22) 0.4722(46) 0.6340(16)
H23 H 0.4794(22) 0.3633(46) 0.6575(16)
C18 C 0.5471(24) 0.6826(48) 0.6821(18)
H24 H 0.5014(24) 0.7244(48) 0.7322(18)
C19 C 0.6363(23) 0.8419(54) 0.6548(18)
H25 H 0.6556(23) 0.9785(54) 0.6910(18)
C20 C 0.6931(22) 0.7801(43) 0.5702(15)
H26 H 0.7479(22) 0.8838(43) 0.5488(15)
loop_
_geom_bond_atom_site_label_1
_geom_bond_atom_site_label_2
_geom_bond_site_symmetry_1
_geom_bond_site_symmetry_2
O1 C10 1_555 1_555
O2 C11 1_555 1_555
O3 C1 1_555 1_555
O4 C1 1_555 1_555
O5 H1 1_555 1_555
C1 H2 1_555 1_555
C2 O5 1_555 1_555
C3 C2 1_555 1_555
H3 C3 1_555 1_555
H4 C3 1_555 1_555
C4 C3 1_555 1_555
H5 C4 1_555 1_555
H6 C4 1_555 1_555
C5 C4 1_555 1_555
H7 C5 1_555 1_555
H8 C5 1_555 1_555
C6 C5 1_555 1_555
H9 C6 1_555 1_555
C7 C6 1_555 1_555
H10 C7 1_555 1_555
C8 C7 1_555 1_555
H11 C8 1_555 1_555
H12 C8 1_555 1_555
C9 C2 1_555 1_555
H13 C9 1_555 1_555
C10 C9 1_555 1_555
H14 C10 1_555 1_555
C11 O1 1_555 1_555
H15 C11 1_555 1_555
C12 O2 1_555 1_555
H16 C12 1_555 1_555
H17 C12 1_555 1_555
C13 O3 1_555 1_555
H18 C13 1_555 1_555
C14 O4 1_555 1_555
H19 C14 1_555 1_555
H20 C14 1_555 1_555
H21 C14 1_555 1_555
C15 C11 1_555 1_555
C16 C15 1_555 1_555
H22 C16 1_555 1_555
C17 C16 1_555 1_555
H23 C17 1_555 1_555
C18 C17 1_555 1_555
H24 C18 1_555 1_555
C19 C18 1_555 1_555
H25 C19 1_555 1_555
C20 C15 1_555 1_555
H26 C20 1_555 1_555
C1 C2 1_555 1_555
C8 C9 1_555 1_555
C10 C13 1_555 1_555
C12 C13 1_555 1_555
C19 C20 1_555 1_555

#END
