
#######################################################################
#
#                 Cambridge Crystallographic Data Centre
#                                CCDC 
#
#######################################################################
#
# If this CIF has been generated from an entry in the Cambridge 
# Structural Database, then it will include bibliographic, chemical, 
# crystal, experimental, refinement or atomic coordinate data resulting 
# from the CCDC's data processing and validation procedures.
#
#######################################################################

data_FAMMUD
_chemical_formula_moiety         'C14 H14 O3'
_chemical_name_systematic        (Oxydi-2,1-phenylene)dimethanol
_symmetry_cell_setting           orthorhombic
_symmetry_space_group_name_H-M   'P b c n'
_symmetry_Int_Tables_number      60
_space_group_name_Hall           '-P 2n 2ab'
loop_
_symmetry_equiv_pos_site_id
_symmetry_equiv_pos_as_xyz
1 x,y,z
2 1/2-x,1/2-y,1/2+z
3 -x,y,1/2-z
4 1/2+x,1/2-y,-z
5 -x,-y,-z
6 1/2+x,1/2+y,1/2-z
7 x,-y,1/2+z
8 1/2-x,1/2+y,z
_cell_length_a                   16.300(5)
_cell_length_b                   7.533(2)
_cell_length_c                   19.603(6)
_cell_angle_alpha                90
_cell_angle_beta                 90
_cell_angle_gamma                90
_cell_volume                     2407.01
_exptl_crystal_colour            colorless
_exptl_crystal_description       prismatic
_chemical_melting_point          '363 K'
_cell_formula_units_Z            8
loop_
_atom_site_label
_atom_site_type_symbol
_atom_site_fract_x
_atom_site_fract_y
_atom_site_fract_z
O1 O 0.93658(15) 0.0764(4) 0.57812(12)
O2 O 1.17465(17) 0.2650(4) 0.59037(17)
H1 H 1.1831 0.3617 0.5725
O3 O 0.7929(2) 0.4295(4) 0.47315(16)
C1 C 1.0919(3) 0.2193(5) 0.5826(2)
H2 H 1.0784 0.2141 0.5344
H3 H 1.0578 0.3097 0.6035
C2 C 1.0745(2) 0.0417(5) 0.61529(18)
C3 C 1.1328(3) -0.0599(6) 0.64699(19)
H4 H 1.1859 -0.0165 0.6516
C4 C 1.1140(4) -0.2245(7) 0.6720(2)
H5 H 1.1544 -0.2913 0.6935
C5 C 1.0368(4) -0.2917(6) 0.6659(2)
H6 H 1.0249 -0.4044 0.6826
C6 C 0.9761(3) -0.1918(6) 0.6348(2)
H7 H 0.9231 -0.2358 0.6300
C7 C 0.9965(2) -0.0253(5) 0.61106(17)
C8 C 0.8942(2) 0.2013(5) 0.61774(19)
C9 C 0.8968(2) 0.2049(5) 0.68755(19)
H8 H 0.9299 0.1259 0.7115
C10 C 0.8497(3) 0.3275(6) 0.7217(2)
H9 H 0.8499 0.3300 0.7691
C11 C 0.8027(3) 0.4451(6) 0.6864(2)
H10 H 0.7715 0.5287 0.7098
C12 C 0.8012(2) 0.4411(5) 0.6165(2)
H11 H 0.7684 0.5216 0.5930
C13 C 0.8475(2) 0.3196(5) 0.5803(2)
C14 C 0.8495(3) 0.3103(6) 0.5044(2)
H12 H 0.9045 0.3381 0.4887
H13 H 0.8369 0.1901 0.4901
H14 H 0.750(4) 0.371(8) 0.455(3)
loop_
_geom_bond_atom_site_label_1
_geom_bond_atom_site_label_2
_geom_bond_site_symmetry_1
_geom_bond_site_symmetry_2
O1 C7 1_555 1_555
O2 H1 1_555 1_555
O3 C14 1_555 1_555
C1 O2 1_555 1_555
H2 C1 1_555 1_555
H3 C1 1_555 1_555
C2 C1 1_555 1_555
C3 C2 1_555 1_555
H4 C3 1_555 1_555
C4 C3 1_555 1_555
H5 C4 1_555 1_555
C5 C4 1_555 1_555
H6 C5 1_555 1_555
C6 C5 1_555 1_555
H7 C6 1_555 1_555
C7 C2 1_555 1_555
C8 O1 1_555 1_555
C9 C8 1_555 1_555
H8 C9 1_555 1_555
C10 C9 1_555 1_555
H9 C10 1_555 1_555
C11 C10 1_555 1_555
H10 C11 1_555 1_555
C12 C11 1_555 1_555
H11 C12 1_555 1_555
C13 C8 1_555 1_555
C14 C13 1_555 1_555
H12 C14 1_555 1_555
H13 C14 1_555 1_555
H14 O3 1_555 1_555
C6 C7 1_555 1_555
C12 C13 1_555 1_555

#END
