
#######################################################################
#
#                 Cambridge Crystallographic Data Centre
#                                CCDC 
#
#######################################################################
#
# If this CIF has been generated from an entry in the Cambridge 
# Structural Database, then it will include bibliographic, chemical, 
# crystal, experimental, refinement or atomic coordinate data resulting 
# from the CCDC's data processing and validation procedures.
#
#######################################################################

data_FAMMOY
_chemical_formula_moiety         'C20 H22 O6 S1,H2 O1'
_chemical_name_systematic        
'p-tolyl-1-thio-6-O-benzoyl-\b-D-galactopyranoside monohydrate'
_symmetry_cell_setting           monoclinic
_symmetry_space_group_name_H-M   'C 2'
_symmetry_Int_Tables_number      5
_space_group_name_Hall           'C 2y'
loop_
_symmetry_equiv_pos_site_id
_symmetry_equiv_pos_as_xyz
1 x,y,z
2 -x,y,-z
3 1/2+x,1/2+y,z
4 1/2-x,1/2+y,-z
_cell_length_a                   37.029(19)
_cell_length_b                   9.429(5)
_cell_length_c                   26.303(14)
_cell_angle_alpha                90
_cell_angle_beta                 119.697(7)
_cell_angle_gamma                90
_cell_volume                     7977.4
_exptl_crystal_colour            colorless
_exptl_crystal_description       needle
_cell_formula_units_Z            16
loop_
_atom_site_label
_atom_site_type_symbol
_atom_site_fract_x
_atom_site_fract_y
_atom_site_fract_z
S1 S 0.61194(5) 0.9451(2) 0.37387(8)
O1 O 0.53265(12) 0.8925(5) 0.32535(17)
O2 O 0.48357(14) 0.9464(5) 0.3787(2)
H1 H 0.4764 0.9464 0.4036
O3 O 0.60857(13) 0.7807(5) 0.4737(2)
H2 H 0.6258 0.8435 0.4903
O4 O 0.53181(17) 0.7772(5) 0.4756(2)
H3 H 0.5292 0.6989 0.4870
O5 O 0.46638(13) 0.8233(6) 0.21396(19)
O6 O 0.40088(16) 0.8820(7) 0.1526(2)
C1 C 0.57111(18) 0.8414(6) 0.4287(3)
H4 H 0.5694 0.9403 0.4388
C2 C 0.57085(17) 0.8376(7) 0.3699(3)
H5 H 0.5742 0.7397 0.3605
C3 C 0.4936(2) 0.8054(7) 0.3704(3)
H6 H 0.4714 0.7402 0.3652
C4 C 0.53489(19) 0.7617(6) 0.4246(3)
H7 H 0.5394 0.6609 0.4205
C5 C 0.6036(2) 0.9290(7) 0.3018(3)
C6 C 0.4429(2) 0.8089(8) 0.1137(3)
C7 C 0.49856(18) 0.8031(7) 0.3176(3)
H8 H 0.5041 0.7056 0.3105
C8 C 0.4345(2) 0.8420(8) 0.1618(3)
C9 C 0.46083(19) 0.8580(8) 0.2632(3)
H9 H 0.4358 0.8136 0.2588
H10 H 0.4584 0.9598 0.2659
C10 C 0.5804(2) 1.0320(8) 0.2606(3)
H11 H 0.5679 1.1048 0.2701
C11 C 0.5929(2) 0.9189(10) 0.1887(3)
C12 C 0.6206(2) 0.8189(8) 0.2851(4)
H12 H 0.6363 0.7488 0.3119
C13 C 0.4109(2) 0.8201(10) 0.0560(3)
H13 H 0.3844 0.8467 0.0480
C14 C 0.4811(2) 0.7625(8) 0.1244(3)
H14 H 0.5025 0.7495 0.1626
C15 C 0.6142(2) 0.8140(10) 0.2292(4)
H15 H 0.6245 0.7373 0.2181
C16 C 0.4186(3) 0.7913(11) 0.0102(3)
H16 H 0.3977 0.8021 -0.0285
C17 C 0.5761(3) 1.0256(9) 0.2052(3)
H17 H 0.5612 1.0965 0.1783
C18 C 0.4567(3) 0.7478(10) 0.0230(4)
H18 H 0.4617 0.7255 -0.0074
C19 C 0.4876(3) 0.7354(10) 0.0783(4)
H19 H 0.5139 0.7082 0.0856
C20 C 0.5898(3) 0.9186(11) 0.1289(4)
H20 H 0.6115 0.9767 0.1300
H21 H 0.5632 0.9555 0.1003
H22 H 0.5927 0.8233 0.1186
S2 S 0.63902(6) 0.1958(2) 0.62999(8)
O7 O 0.71851(12) 0.1382(5) 0.67985(18)
O8 O 0.76861(14) 0.1935(5) 0.6279(2)
H23 H 0.7771 0.1918 0.6044
O9 O 0.72019(17) 0.0239(5) 0.5307(2)
H24 H 0.7123 -0.0478 0.5104
O10 O 0.64207(14) 0.0330(5) 0.53128(19)
H25 H 0.6299 0.0957 0.5071
O11 O 0.78208(15) 0.0709(7) 0.7911(2)
C21 C 0.68045(18) 0.0871(7) 0.5773(3)
H26 H 0.6833 0.1857 0.5682
O12 O 0.84759(16) 0.1215(7) 0.8558(2)
C22 C 0.68040(18) 0.0845(7) 0.6347(3)
H27 H 0.6765 -0.0130 0.6439
C23 C 0.7176(2) 0.0024(8) 0.5829(3)
H28 H 0.7137 -0.0986 0.5874
C24 C 0.7570(2) 0.0535(8) 0.6350(3)
H29 H 0.7794 -0.0114 0.6411
C25 C 0.6475(2) 0.1839(9) 0.7030(3)
C26 C 0.75257(19) 0.0497(8) 0.6893(3)
H30 H 0.7466 -0.0478 0.6957
C27 C 0.8141(2) 0.0844(8) 0.8448(3)
C28 C 0.7897(2) 0.1021(8) 0.7438(3)
H31 H 0.8147 0.0544 0.7496
H32 H 0.7932 0.2034 0.7413
C29 C 0.6310(2) 0.0772(9) 0.7197(3)
H33 H 0.6166 0.0041 0.6938
C30 C 0.6572(2) 0.1805(10) 0.8149(3)
C31 C 0.6705(2) 0.2876(8) 0.7423(3)
H34 H 0.6828 0.3587 0.7317
C32 C 0.8017(2) 0.0423(9) 0.8891(3)
C33 C 0.7617(2) 0.0100(9) 0.8741(3)
H35 H 0.7410 0.0110 0.8350
C34 C 0.8319(2) 0.0423(10) 0.9465(3)
H36 H 0.8590 0.0671 0.9564
C35 C 0.6753(3) 0.2866(9) 0.7983(4)
H37 H 0.6907 0.3575 0.8247
C36 C 0.6355(2) 0.0770(9) 0.7753(4)
H38 H 0.6234 0.0045 0.7858
C37 C 0.6606(3) 0.1856(12) 0.8751(3)
H39 H 0.6885 0.2102 0.9040
H40 H 0.6538 0.0944 0.8842
H41 H 0.6417 0.2555 0.8750
C38 C 0.7521(3) -0.0243(10) 0.9170(4)
H42 H 0.7248 -0.0461 0.9069
C39 C 0.8232(3) 0.0067(12) 0.9893(4)
H43 H 0.8443 0.0043 1.0282
C40 C 0.7828(3) -0.0259(11) 0.9746(4)
H44 H 0.7764 -0.0489 1.0037
S3 S 0.60434(6) 0.4465(2) 0.36986(8)
O13 O 0.60771(13) 0.2777(5) 0.4729(2)
H45 H 0.6250 0.3409 0.4883
O14 O 0.52598(13) 0.3775(5) 0.32630(19)
O15 O 0.53507(17) 0.2765(5) 0.4845(2)
H46 H 0.5332 0.1992 0.4973
O16 O 0.48352(14) 0.4449(5) 0.3860(2)
H47 H 0.4756 0.4503 0.4100
O17 O 0.45622(14) 0.2881(6) 0.2191(2)
C41 C 0.56938(18) 0.3374(6) 0.4302(3)
H48 H 0.5682 0.4368 0.4401
C42 C 0.53434(19) 0.2569(6) 0.4304(3)
H49 H 0.5385 0.1557 0.4264
C43 C 0.56579(18) 0.3300(7) 0.3694(3)
H50 H 0.5704 0.2326 0.3609
C44 C 0.4916(2) 0.3001(7) 0.3792(3)
H51 H 0.4698 0.2388 0.3777
C45 C 0.5953(2) 0.4301(7) 0.2972(3)
C46 C 0.49358(19) 0.2867(7) 0.3236(3)
H52 H 0.4992 0.1879 0.3180
C47 C 0.4473(2) 0.3180(9) 0.1258(3)
C48 C 0.6252(2) 0.3727(8) 0.2868(3)
H53 H 0.6498 0.3382 0.3178
C49 C 0.4428(2) 0.3759(10) 0.1745(4)
O18 O 0.4279(2) 0.4897(8) 0.1733(3)
C50 C 0.5582(2) 0.4760(8) 0.2498(3)
H54 H 0.5374 0.5148 0.2557
C51 C 0.4543(2) 0.3371(9) 0.2706(3)
H55 H 0.4301 0.2979 0.2706
H56 H 0.4526 0.4397 0.2706
C52 C 0.6189(3) 0.3662(9) 0.2308(4)
H57 H 0.6400 0.3316 0.2250
C53 C 0.5822(3) 0.4093(9) 0.1830(4)
C54 C 0.5523(2) 0.4635(9) 0.1937(3)
H58 H 0.5272 0.4930 0.1623
C55 C 0.4339(3) 0.4015(10) 0.0763(4)
H59 H 0.4224 0.4904 0.0742
C56 C 0.4655(3) 0.1880(9) 0.1282(4)
H60 H 0.4757 0.1322 0.1617
C57 C 0.4381(3) 0.3494(11) 0.0296(4)
H61 H 0.4288 0.4044 -0.0039
C58 C 0.5753(3) 0.3916(10) 0.1217(3)
H62 H 0.5982 0.4332 0.1194
H63 H 0.5500 0.4380 0.0943
H64 H 0.5735 0.2925 0.1124
C59 C 0.4548(3) 0.2236(11) 0.0320(4)
H65 H 0.4573 0.1908 0.0005
C60 C 0.4684(3) 0.1426(10) 0.0811(4)
H66 H 0.4800 0.0541 0.0825
S4 S 0.64644(6) 0.6958(2) 0.62814(8)
O19 O 0.72487(12) 0.6220(5) 0.67202(18)
O20 O 0.64290(13) 0.5317(5) 0.5249(2)
H67 H 0.6286 0.5988 0.5056
O21 O 0.71719(16) 0.5216(5) 0.5146(2)
H68 H 0.7042 0.4571 0.4920
O22 O 0.76850(14) 0.6906(5) 0.6137(2)
H69 H 0.7805 0.6943 0.5946
O23 O 0.79584(15) 0.5363(6) 0.7793(2)
C61 C 0.68247(17) 0.5820(7) 0.5685(3)
H70 H 0.6850 0.6812 0.5595
C62 C 0.68568(18) 0.5778(7) 0.6282(3)
H71 H 0.6806 0.4807 0.6365
C63 C 0.71787(19) 0.4996(7) 0.5690(3)
H72 H 0.7142 0.3983 0.5736
C64 C 0.6552(2) 0.6798(8) 0.7003(3)
C65 C 0.75739(18) 0.5336(8) 0.6749(3)
H73 H 0.7516 0.4347 0.6799
C66 C 0.7585(2) 0.5471(8) 0.6182(3)
H74 H 0.7805 0.4855 0.6203
C67 C 0.6245(2) 0.6314(8) 0.7098(3)
H75 H 0.5993 0.6036 0.6781
C68 C 0.7967(2) 0.5793(9) 0.7279(3)
H76 H 0.8204 0.5367 0.7274
H77 H 0.7994 0.6815 0.7277
C69 C 0.6921(2) 0.7217(8) 0.7478(3)
H78 H 0.7129 0.7601 0.7420
O24 O 0.8214(3) 0.7390(8) 0.8224(3)
C70 C 0.6985(2) 0.7074(9) 0.8041(3)
H79 H 0.7243 0.7310 0.8359
C71 C 0.8095(3) 0.6243(11) 0.8248(4)
C72 C 0.8072(2) 0.5674(10) 0.8744(3)
C73 C 0.6299(2) 0.6228(8) 0.7658(3)
H80 H 0.6081 0.5924 0.7712
C74 C 0.6677(3) 0.6592(9) 0.8137(3)
C75 C 0.7871(3) 0.4460(10) 0.8731(4)
H81 H 0.7744 0.3929 0.8388
C76 C 0.7848(3) 0.3999(10) 0.9205(4)
H82 H 0.7700 0.3180 0.9179
C77 C 0.8258(3) 0.6420(10) 0.9259(4)
H83 H 0.8399 0.7253 0.9278
C78 C 0.6751(3) 0.6471(10) 0.8758(3)
H84 H 0.7031 0.6166 0.9014
H85 H 0.6561 0.5793 0.8767
H86 H 0.6707 0.7378 0.8884
C79 C 0.8245(3) 0.5995(13) 0.9743(4)
H87 H 0.8369 0.6536 1.0083
C80 C 0.8043(3) 0.4735(12) 0.9719(4)
H88 H 0.8040 0.4398 1.0049
O25 O 0.54981(16) 1.0172(5) 0.5450(2)
H89 H 0.5462(13) 0.939(3) 0.5197(12)
H90 H 0.5761(12) 1.000(6) 0.5793(16)
O26 O 0.55316(17) 0.5301(5) 0.5429(2)
H91 H 0.5511(13) 0.452(3) 0.5182(14)
H92 H 0.5819(5) 0.557(6) 0.562(3)
O27 O 0.69462(16) 0.2537(5) 0.4569(2)
H93 H 0.698(2) 0.163(3) 0.475(3)
H94 H 0.6658(4) 0.279(5) 0.4367(19)
O28 O 0.70392(15) 0.7751(6) 0.4584(2)
H95 H 0.6747(3) 0.794(4) 0.439(2)
H96 H 0.7062(12) 0.675(2) 0.467(4)
loop_
_geom_bond_atom_site_label_1
_geom_bond_atom_site_label_2
_geom_bond_site_symmetry_1
_geom_bond_site_symmetry_2
S1 C2 1_555 1_555
O1 C2 1_555 1_555
O2 H1 1_555 1_555
O3 H2 1_555 1_555
O4 H3 1_555 1_555
O5 C8 1_555 1_555
O6 C8 1_555 1_555
C1 O3 1_555 1_555
H4 C1 1_555 1_555
C2 C1 1_555 1_555
H5 C2 1_555 1_555
C3 O2 1_555 1_555
H6 C3 1_555 1_555
C4 O4 1_555 1_555
H7 C4 1_555 1_555
C5 S1 1_555 1_555
C6 C8 1_555 1_555
C7 O1 1_555 1_555
H8 C7 1_555 1_555
C9 O5 1_555 1_555
H9 C9 1_555 1_555
H10 C9 1_555 1_555
C10 C5 1_555 1_555
H11 C10 1_555 1_555
C11 C15 1_555 1_555
C12 C5 1_555 1_555
H12 C12 1_555 1_555
C13 C6 1_555 1_555
H13 C13 1_555 1_555
C14 C6 1_555 1_555
H14 C14 1_555 1_555
C15 C12 1_555 1_555
H15 C15 1_555 1_555
C16 C13 1_555 1_555
H16 C16 1_555 1_555
C17 C10 1_555 1_555
H17 C17 1_555 1_555
C18 C16 1_555 1_555
H18 C18 1_555 1_555
C19 C14 1_555 1_555
H19 C19 1_555 1_555
C20 C11 1_555 1_555
H20 C20 1_555 1_555
H21 C20 1_555 1_555
H22 C20 1_555 1_555
S2 C22 1_555 1_555
O7 C22 1_555 1_555
O8 H23 1_555 1_555
O9 H24 1_555 1_555
O10 H25 1_555 1_555
O11 C27 1_555 1_555
C21 O10 1_555 1_555
H26 C21 1_555 1_555
O12 C27 1_555 1_555
C22 C21 1_555 1_555
H27 C22 1_555 1_555
C23 O9 1_555 1_555
H28 C23 1_555 1_555
C24 O8 1_555 1_555
H29 C24 1_555 1_555
C25 S2 1_555 1_555
C26 O7 1_555 1_555
H30 C26 1_555 1_555
C27 C32 1_555 1_555
C28 O11 1_555 1_555
H31 C28 1_555 1_555
H32 C28 1_555 1_555
C29 C25 1_555 1_555
H33 C29 1_555 1_555
C30 C35 1_555 1_555
C31 C25 1_555 1_555
H34 C31 1_555 1_555
C32 C33 1_555 1_555
C33 H35 1_555 1_555
C34 C32 1_555 1_555
H36 C34 1_555 1_555
C35 C31 1_555 1_555
H37 C35 1_555 1_555
C36 C29 1_555 1_555
H38 C36 1_555 1_555
C37 C30 1_555 1_555
H39 C37 1_555 1_555
H40 C37 1_555 1_555
H41 C37 1_555 1_555
C38 C33 1_555 1_555
H42 C38 1_555 1_555
C39 C34 1_555 1_555
H43 C39 1_555 1_555
C40 C38 1_555 1_555
H44 C40 1_555 1_555
S3 C43 1_555 1_555
O13 H45 1_555 1_555
O14 C43 1_555 1_555
O15 H46 1_555 1_555
O16 H47 1_555 1_555
O17 C49 1_555 1_555
C41 O13 1_555 1_555
H48 C41 1_555 1_555
C42 O15 1_555 1_555
H49 C42 1_555 1_555
C43 C41 1_555 1_555
H50 C43 1_555 1_555
C44 O16 1_555 1_555
H51 C44 1_555 1_555
C45 S3 1_555 1_555
C46 O14 1_555 1_555
H52 C46 1_555 1_555
C47 C49 1_555 1_555
C48 C45 1_555 1_555
H53 C48 1_555 1_555
C49 O18 1_555 1_555
C50 C45 1_555 1_555
H54 C50 1_555 1_555
C51 O17 1_555 1_555
H55 C51 1_555 1_555
H56 C51 1_555 1_555
C52 C48 1_555 1_555
H57 C52 1_555 1_555
C53 C52 1_555 1_555
C54 C50 1_555 1_555
H58 C54 1_555 1_555
C55 C47 1_555 1_555
H59 C55 1_555 1_555
C56 C47 1_555 1_555
H60 C56 1_555 1_555
C57 C55 1_555 1_555
H61 C57 1_555 1_555
C58 C53 1_555 1_555
H62 C58 1_555 1_555
H63 C58 1_555 1_555
H64 C58 1_555 1_555
C59 C57 1_555 1_555
H65 C59 1_555 1_555
C60 C56 1_555 1_555
H66 C60 1_555 1_555
S4 C62 1_555 1_555
O19 C62 1_555 1_555
O20 H67 1_555 1_555
O21 H68 1_555 1_555
O22 H69 1_555 1_555
O23 C68 1_555 1_555
C61 O20 1_555 1_555
H70 C61 1_555 1_555
C62 C61 1_555 1_555
H71 C62 1_555 1_555
C63 O21 1_555 1_555
H72 C63 1_555 1_555
C64 S4 1_555 1_555
C65 O19 1_555 1_555
H73 C65 1_555 1_555
C66 O22 1_555 1_555
H74 C66 1_555 1_555
C67 C64 1_555 1_555
H75 C67 1_555 1_555
C68 C65 1_555 1_555
H76 C68 1_555 1_555
H77 C68 1_555 1_555
C69 C64 1_555 1_555
H78 C69 1_555 1_555
O24 C71 1_555 1_555
C70 C69 1_555 1_555
H79 C70 1_555 1_555
C71 O23 1_555 1_555
C72 C71 1_555 1_555
C73 C67 1_555 1_555
H80 C73 1_555 1_555
C74 C70 1_555 1_555
C75 C72 1_555 1_555
H81 C75 1_555 1_555
C76 C75 1_555 1_555
H82 C76 1_555 1_555
C77 C72 1_555 1_555
H83 C77 1_555 1_555
C78 C74 1_555 1_555
H84 C78 1_555 1_555
H85 C78 1_555 1_555
H86 C78 1_555 1_555
C79 C77 1_555 1_555
H87 C79 1_555 1_555
C80 C76 1_555 1_555
H88 C80 1_555 1_555
O25 H89 1_555 1_555
H90 O25 1_555 1_555
O26 H91 1_555 1_555
H92 O26 1_555 1_555
O27 H93 1_555 1_555
H94 O27 1_555 1_555
O28 H95 1_555 1_555
H96 O28 1_555 1_555
C1 C4 1_555 1_555
C3 C4 1_555 1_555
C3 C7 1_555 1_555
C7 C9 1_555 1_555
C11 C17 1_555 1_555
C18 C19 1_555 1_555
C21 C23 1_555 1_555
C23 C24 1_555 1_555
C24 C26 1_555 1_555
C26 C28 1_555 1_555
C30 C36 1_555 1_555
C39 C40 1_555 1_555
C41 C42 1_555 1_555
C42 C44 1_555 1_555
C44 C46 1_555 1_555
C46 C51 1_555 1_555
C53 C54 1_555 1_555
C59 C60 1_555 1_555
C61 C63 1_555 1_555
C63 C66 1_555 1_555
C65 C66 1_555 1_555
C73 C74 1_555 1_555
C79 C80 1_555 1_555

#END
