
#######################################################################
#
#                 Cambridge Crystallographic Data Centre
#                                CCDC 
#
#######################################################################
#
# If this CIF has been generated from an entry in the Cambridge 
# Structural Database, then it will include bibliographic, chemical, 
# crystal, experimental, refinement or atomic coordinate data resulting 
# from the CCDC's data processing and validation procedures.
#
#######################################################################

data_FAMNOW
_chemical_name_common            
Spiro(8-methoxy-3-phenyl-2,4,7-trioxabicyclo(4.4.0)decane-9,2'-(2',5'-dihydrofuran))
_chemical_formula_moiety         'C17 H20 O5'
_chemical_name_systematic        
"Methyl (R)-4,6-O-benzylidene-2(S)-spiro(2,5'-2',5'-dihydrofuran)-2,3-dideoxy-\a-D-glucopyranoside"
_symmetry_cell_setting           monoclinic
_symmetry_space_group_name_H-M   'P 21'
_symmetry_Int_Tables_number      4
_space_group_name_Hall           'P 2yb'
loop_
_symmetry_equiv_pos_site_id
_symmetry_equiv_pos_as_xyz
1 x,y,z
2 -x,1/2+y,-z
_cell_length_a                   9.505(4)
_cell_length_b                   7.907(2)
_cell_length_c                   10.319(2)
_cell_angle_alpha                90
_cell_angle_beta                 98.05(2)
_cell_angle_gamma                90
_cell_volume                     767.893
_exptl_crystal_colour            colorless
_exptl_crystal_description       block
_chemical_melting_point          86-87deg.C
_cell_formula_units_Z            2
loop_
_atom_site_label
_atom_site_type_symbol
_atom_site_fract_x
_atom_site_fract_y
_atom_site_fract_z
O1 O 0.6242(3) 0.4503(4) 0.6585(3)
O2 O 0.7073(3) 0.7395(4) 0.2586(3)
O3 O 0.8613(3) 0.6171(5) 0.1270(3)
O4 O 0.8870(3) 0.3813(4) 0.4345(3)
O5 O 0.6794(3) 0.2391(5) 0.4667(3)
C1 C 0.6416(6) 0.5554(8) 0.7745(5)
H1 H 0.6378(6) 0.4865(8) 0.8541(5)
H2 H 0.5667(6) 0.6431(8) 0.7690(5)
C2 C 0.7843(6) 0.6337(8) 0.7764(5)
H3 H 0.8327(6) 0.6973(8) 0.8471(5)
C3 C 0.8337(5) 0.6019(7) 0.6654(4)
H4 H 0.9238(5) 0.6368(7) 0.6453(4)
C4 C 0.7255(5) 0.5015(6) 0.5754(4)
C5 C 0.6546(5) 0.6086(6) 0.4599(4)
H5 H 0.5720(5) 0.5477(6) 0.4126(4)
H6 H 0.6211(5) 0.7173(6) 0.4920(4)
C6 C 0.7642(5) 0.6399(6) 0.3703(4)
H7 H 0.8457(5) 0.7026(6) 0.4201(4)
C7 C 0.8142(5) 0.7716(6) 0.1805(4)
H8 H 0.8966(5) 0.8265(6) 0.2354(4)
C8 C 0.9239(5) 0.5058(7) 0.2294(5)
H9 H 1.0111(5) 0.5579(7) 0.2765(5)
H10 H 0.9504(5) 0.3975(7) 0.1912(5)
C9 C 0.8189(5) 0.4738(6) 0.3233(4)
H11 H 0.7373(5) 0.4063(6) 0.2784(4)
C10 C 0.7893(5) 0.3401(6) 0.5247(4)
H12 H 0.8421(5) 0.2778(6) 0.6008(4)
C11 C 0.7236(6) 0.0736(8) 0.4351(7)
H13 H 0.6411(6) 0.0088(8) 0.3945(7)
H14 H 0.7667(6) 0.0162(8) 0.5151(7)
H15 H 0.7934(6) 0.0819(8) 0.3739(7)
C12 C 0.7597(5) 0.8877(6) 0.0694(4)
C13 C 0.6203(5) 0.8681(7) 0.0052(4)
H16 H 0.5599(5) 0.7834(7) 0.0323(4)
C14 C 0.5723(5) 0.9746(7) -0.0986(5)
H17 H 0.4785(5) 0.9608(7) -0.1431(5)
C15 C 0.6568(6) 1.0988(7) -0.1385(5)
H18 H 0.6215(6) 1.1704(7) -0.2096(5)
C16 C 0.7952(6) 1.1200(8) -0.0743(5)
H19 H 0.8552(6) 1.2055(8) -0.1011(5)
C17 C 0.8435(5) 1.0123(7) 0.0303(5)
H20 H 0.9371(5) 1.0266(7) 0.0752(5)
loop_
_geom_bond_atom_site_label_1
_geom_bond_atom_site_label_2
_geom_bond_site_symmetry_1
_geom_bond_site_symmetry_2
O1 C1 1_555 1_555
O2 C6 1_555 1_555
O3 C7 1_555 1_555
O4 C9 1_555 1_555
O5 C10 1_555 1_555
C1 H1 1_555 1_555
H2 C1 1_555 1_555
C2 C1 1_555 1_555
H3 C2 1_555 1_555
C3 C2 1_555 1_555
H4 C3 1_555 1_555
C4 O1 1_555 1_555
C5 C4 1_555 1_555
H5 C5 1_555 1_555
H6 C5 1_555 1_555
C6 C5 1_555 1_555
H7 C6 1_555 1_555
C7 O2 1_555 1_555
H8 C7 1_555 1_555
C8 O3 1_555 1_555
H9 C8 1_555 1_555
H10 C8 1_555 1_555
C9 C6 1_555 1_555
H11 C9 1_555 1_555
C10 O4 1_555 1_555
H12 C10 1_555 1_555
C11 O5 1_555 1_555
H13 C11 1_555 1_555
H14 C11 1_555 1_555
H15 C11 1_555 1_555
C12 C7 1_555 1_555
C13 C12 1_555 1_555
H16 C13 1_555 1_555
C14 C13 1_555 1_555
H17 C14 1_555 1_555
C15 C14 1_555 1_555
H18 C15 1_555 1_555
C16 C15 1_555 1_555
H19 C16 1_555 1_555
C17 C12 1_555 1_555
H20 C17 1_555 1_555
C3 C4 1_555 1_555
C4 C10 1_555 1_555
C8 C9 1_555 1_555
C16 C17 1_555 1_555

#END
