
#######################################################################
#
#                 Cambridge Crystallographic Data Centre
#                                CCDC 
#
#######################################################################
#
# If this CIF has been generated from an entry in the Cambridge 
# Structural Database, then it will include bibliographic, chemical, 
# crystal, experimental, refinement or atomic coordinate data resulting 
# from the CCDC's data processing and validation procedures.
#
#######################################################################

data_FAMPEO
_chemical_name_common            
Spiro(8-methoxy-3-phenyl-2,4,7-trioxabicyclo(4.4.0)decane-9,6'-((2H)-5,6-tetrahydropyran))
_chemical_formula_moiety         'C18 H22 O5'
_chemical_name_systematic        
"Methyl (R)-4,6-O-benzylidene-2(R)-spiro(2,6'-5',6'-dihydro-2'H-pyran)-2,3-dideoxy-\a-D-glucopyranoside"
_symmetry_cell_setting           monoclinic
_symmetry_space_group_name_H-M   'P 21'
_symmetry_Int_Tables_number      4
_space_group_name_Hall           'P 2yb'
loop_
_symmetry_equiv_pos_site_id
_symmetry_equiv_pos_as_xyz
1 x,y,z
2 -x,1/2+y,-z
_cell_length_a                   7.178(2)
_cell_length_b                   7.844(2)
_cell_length_c                   14.863(3)
_cell_angle_alpha                90
_cell_angle_beta                 101.37(2)
_cell_angle_gamma                90
_cell_volume                     820.426
_exptl_crystal_colour            colorless
_exptl_crystal_description       block
_chemical_melting_point          69-70deg.C
_cell_formula_units_Z            2
loop_
_atom_site_label
_atom_site_type_symbol
_atom_site_fract_x
_atom_site_fract_y
_atom_site_fract_z
O1 O 0.4515(2) 0.3959(3) 0.09429(11)
C1 C 0.5146(4) 0.2847(4) 0.0303(2)
H1 H 0.5412(4) 0.1709(4) 0.0587(2)
H2 H 0.6348(4) 0.3294(4) 0.0164(2)
C2 C 0.3734(4) 0.2662(4) -0.0569(2)
H3 H 0.4115(4) 0.2137(4) -0.1080(2)
C3 C 0.1964(4) 0.3207(4) -0.0656(2)
H4 H 0.1129(4) 0.3112(4) -0.1235(2)
C4 C 0.1237(3) 0.3969(4) 0.0133(2)
H5 H -0.0011(3) 0.3457(4) 0.0160(2)
H6 H 0.1046(3) 0.5209(4) 0.0028(2)
C5 C 0.2599(3) 0.3686(3) 0.1056(2)
C6 C 0.2291(3) 0.4978(3) 0.1779(2)
H7 H 0.3319(3) 0.4873(3) 0.2328(2)
H8 H 0.2325(3) 0.6148(3) 0.1533(2)
C7 C 0.0386(3) 0.4656(3) 0.2041(2)
H9 H -0.0646(3) 0.4821(3) 0.1489(2)
O2 O 0.0099(2) 0.5809(2) 0.27432(12)
C8 C -0.1686(4) 0.5479(4) 0.2980(2)
H10 H -0.2710(4) 0.5628(4) 0.2423(2)
O3 O -0.1792(2) 0.3809(3) 0.33266(11)
C9 C -0.1582(4) 0.2545(4) 0.2649(2)
H11 H -0.2619(4) 0.2656(4) 0.2104(2)
H12 H -0.1633(4) 0.1385(4) 0.2905(2)
C10 C 0.0310(3) 0.2839(4) 0.2386(2)
H13 H 0.1352(3) 0.2658(4) 0.2932(2)
O4 O 0.0541(2) 0.1673(2) 0.16654(11)
C11 C 0.2349(3) 0.1859(3) 0.1416(2)
H14 H 0.2436(3) 0.1026(3) 0.0916(2)
O5 O 0.3846(2) 0.1558(3) 0.21501(12)
C12 C 0.3903(4) -0.0155(4) 0.2497(2)
H15 H 0.4985(4) -0.0278(4) 0.3010(2)
H16 H 0.4042(4) -0.0955(4) 0.2008(2)
H17 H 0.2722(4) -0.0400(4) 0.2709(2)
C13 C -0.1999(4) 0.6735(4) 0.3706(2)
C14 C -0.0923(4) 0.8200(4) 0.3873(2)
H18 H 0.0028(4) 0.8432(4) 0.3526(2)
C15 C -0.1224(4) 0.9335(4) 0.4545(2)
H19 H -0.0478(4) 1.0342(4) 0.4657(2)
C16 C -0.2599(4) 0.9010(5) 0.5051(2)
H20 H -0.2789(4) 0.9779(5) 0.5519(2)
C17 C -0.3691(5) 0.7571(5) 0.4877(2)
H21 H -0.4654(5) 0.7352(5) 0.5218(2)
C18 C -0.3397(4) 0.6428(5) 0.4202(2)
H22 H -0.4162(4) 0.5433(5) 0.4084(2)
loop_
_geom_bond_atom_site_label_1
_geom_bond_atom_site_label_2
_geom_bond_site_symmetry_1
_geom_bond_site_symmetry_2
O1 C1 1_555 1_555
C1 H1 1_555 1_555
H2 C1 1_555 1_555
C2 C1 1_555 1_555
H3 C2 1_555 1_555
C3 C2 1_555 1_555
H4 C3 1_555 1_555
C4 C3 1_555 1_555
H5 C4 1_555 1_555
H6 C4 1_555 1_555
C5 O1 1_555 1_555
C6 C5 1_555 1_555
H7 C6 1_555 1_555
H8 C6 1_555 1_555
C7 C6 1_555 1_555
H9 C7 1_555 1_555
O2 C7 1_555 1_555
C8 O2 1_555 1_555
H10 C8 1_555 1_555
O3 C8 1_555 1_555
C9 O3 1_555 1_555
H11 C9 1_555 1_555
H12 C9 1_555 1_555
C10 C7 1_555 1_555
H13 C10 1_555 1_555
O4 C10 1_555 1_555
C11 C5 1_555 1_555
H14 C11 1_555 1_555
O5 C11 1_555 1_555
C12 O5 1_555 1_555
H15 C12 1_555 1_555
H16 C12 1_555 1_555
H17 C12 1_555 1_555
C13 C8 1_555 1_555
C14 C13 1_555 1_555
H18 C14 1_555 1_555
C15 C14 1_555 1_555
H19 C15 1_555 1_555
C16 C15 1_555 1_555
H20 C16 1_555 1_555
C17 C16 1_555 1_555
H21 C17 1_555 1_555
C18 C13 1_555 1_555
H22 C18 1_555 1_555
C4 C5 1_555 1_555
C9 C10 1_555 1_555
O4 C11 1_555 1_555
C17 C18 1_555 1_555

#END
