
#######################################################################
#
#                 Cambridge Crystallographic Data Centre
#                                CCDC 
#
#######################################################################
#
# If this CIF has been generated from an entry in the Cambridge 
# Structural Database, then it will include bibliographic, chemical, 
# crystal, experimental, refinement or atomic coordinate data resulting 
# from the CCDC's data processing and validation procedures.
#
#######################################################################

data_FAMQIW
_chemical_formula_moiety         'C16 H16 N2 O3 S1,0.5(C4 H6 N2)'
_chemical_name_systematic        
'2-[3-cyano-4-(2-methylpropoxy)phenyl]-4-methyl-1,3-thiazole-5-carboxylic acid 2-methyl-1H-imidazole'
_symmetry_cell_setting           triclinic
_symmetry_space_group_name_H-M   'P -1'
_symmetry_Int_Tables_number      2
_space_group_name_Hall           '-P 1'
loop_
_symmetry_equiv_pos_site_id
_symmetry_equiv_pos_as_xyz
1 x,y,z
2 -x,-y,-z
_cell_length_a                   8.8764(18)
_cell_length_b                   10.137(2)
_cell_length_c                   10.849(2)
_cell_angle_alpha                104.40(3)
_cell_angle_beta                 106.74(3)
_cell_angle_gamma                94.68(3)
_cell_volume                     893.016
_exptl_crystal_colour            colorless
_exptl_crystal_description       block
_cell_formula_units_Z            2
_exptl_crystal_recrystallization_method acetonitrile
loop_
_atom_site_label
_atom_site_type_symbol
_atom_site_fract_x
_atom_site_fract_y
_atom_site_fract_z
C1A C -0.0439(2) 0.10703(16) 1.17600(19)
C2A C -0.1007(2) 0.09190(15) 1.28787(18)
C3A C 0.0295(3) 0.32112(19) 1.4674(2)
H1A H 0.1018 0.3306 1.5552
H2A H 0.0891 0.3330 1.4087
H3A H -0.0383 0.3900 1.4729
C4A C -0.0698(2) 0.18138(16) 1.41373(19)
C5A C -0.2213(2) 0.00983(16) 1.43521(18)
C6A C -0.3088(2) -0.06499(16) 1.49974(18)
C7A C -0.4212(2) -0.18328(17) 1.42801(19)
H4A H -0.4434 -0.2172 1.3356
C8A C -0.2781(2) -0.01706(18) 1.63775(19)
H5A H -0.2034 0.0623 1.6864
C9A C -0.5006(2) -0.25132(17) 1.49411(19)
C10A C -0.6173(3) -0.3732(2) 1.4195(2)
C11A C -0.4691(2) -0.20158(17) 1.6326(2)
C12A C -0.3553(2) -0.08397(19) 1.7049(2)
H6A H -0.3314 -0.0506 1.7975
C13A C -0.5260(3) -0.2293(2) 1.8275(2)
H7A H -0.4157 -0.2312 1.8748
H8A H -0.5466 -0.1357 1.8545
C14A C -0.6363(3) -0.3271(2) 1.8603(2)
H9A H -0.7463 -0.3247 1.8091
C15A C -0.6178(4) -0.2759(3) 2.0086(3)
H10A H -0.5087 -0.2709 2.0607
H11A H -0.6473 -0.1858 2.0278
H12A H -0.6855 -0.3385 2.0309
C16A C -0.6057(4) -0.4734(2) 1.8201(3)
H13A H -0.4976 -0.4777 1.8677
H14A H -0.6774 -0.5332 1.8417
H15A H -0.6226 -0.5024 1.7252
N1A N -0.13874(18) 0.13360(14) 1.49570(16)
N2A N -0.7082(3) -0.4696(2) 1.3578(3)
O1A O 0.01944(19) 0.21894(13) 1.17542(15)
O2A O -0.0680(2) -0.00734(13) 1.08220(16)
H16A H -0.0346 0.0069 1.0228
O3A O -0.55526(18) -0.27355(14) 1.68541(15)
S1A S -0.21853(5) -0.05843(4) 1.27385(5)
C1 C 0.0439(2) -0.10703(16) 0.82400(19)
C2 C 0.1007(2) -0.09190(15) 0.71213(18)
C3 C -0.0295(3) -0.32112(19) 0.5326(2)
H1 H -0.1018 -0.3306 0.4448
H2 H -0.0891 -0.3330 0.5913
H3 H 0.0383 -0.3900 0.5271
C4 C 0.0698(2) -0.18138(16) 0.58627(19)
C5 C 0.2213(2) -0.00983(16) 0.56479(18)
C6 C 0.3088(2) 0.06499(16) 0.50026(18)
C7 C 0.4212(2) 0.18328(17) 0.57199(19)
H4 H 0.4434 0.2172 0.6644
C8 C 0.2781(2) 0.01706(18) 0.36225(19)
H5 H 0.2034 -0.0623 0.3136
C9 C 0.5006(2) 0.25132(17) 0.50589(19)
C10 C 0.6173(3) 0.3732(2) 0.5805(2)
C11 C 0.4691(2) 0.20158(17) 0.3674(2)
C12 C 0.3553(2) 0.08397(19) 0.2951(2)
H6 H 0.3314 0.0506 0.2025
C13 C 0.5260(3) 0.2293(2) 0.1725(2)
H7 H 0.4157 0.2312 0.1252
H8 H 0.5466 0.1357 0.1455
C14 C 0.6363(3) 0.3271(2) 0.1397(2)
H9 H 0.7463 0.3247 0.1909
C15 C 0.6178(4) 0.2759(3) -0.0086(3)
H10 H 0.5087 0.2709 -0.0607
H11 H 0.6473 0.1858 -0.0278
H12 H 0.6855 0.3385 -0.0309
C16 C 0.6057(4) 0.4734(2) 0.1799(3)
H13 H 0.4976 0.4777 0.1323
H14 H 0.6774 0.5332 0.1583
H15 H 0.6226 0.5024 0.2748
N1 N 0.13874(18) -0.13360(14) 0.50430(16)
N2 N 0.7082(3) 0.4696(2) 0.6422(3)
O1 O -0.01944(19) -0.21894(13) 0.82458(15)
O2 O 0.0680(2) 0.00734(13) 0.91780(16)
H16 H 0.0346 -0.0069 0.9772
O3 O 0.55526(18) 0.27355(14) 0.31459(15)
S1 S 0.21853(5) 0.05843(4) 0.72615(5)
C17? C -0.0118(12) 0.3281(9) -0.1260(8)
H17? H 0.0188 0.2595 -0.0808
H18? H -0.1174 0.2965 -0.1891
H19? H 0.0617 0.3436 -0.1728
C18? C -0.0096(5) 0.4555(3) -0.0266(5)
C19? C 0.0176(6) 0.6102(5) 0.1641(5)
H20? H 0.0384 0.6528 0.2581
C20? C -0.0298(9) 0.6707(6) 0.0667(6)
H21? H -0.0469 0.7646 0.0772
N3? N 0.0260(5) 0.4764(5) 0.1032(5)
H22? H 0.0536 0.4124 0.1463
N4? N -0.0454(5) 0.5719(4) -0.0528(4)
H23? H -0.0754 0.5851 -0.1349
loop_
_geom_bond_atom_site_label_1
_geom_bond_atom_site_label_2
_geom_bond_site_symmetry_1
_geom_bond_site_symmetry_2
C1 C2 1_555 1_555
C2 C4 1_555 1_555
C3 H1 1_555 1_555
H2 C3 1_555 1_555
H3 C3 1_555 1_555
C4 C3 1_555 1_555
C5 C6 1_555 1_555
C6 C7 1_555 1_555
C7 H4 1_555 1_555
C8 C6 1_555 1_555
H5 C8 1_555 1_555
C9 C7 1_555 1_555
C10 C9 1_555 1_555
C11 C9 1_555 1_555
C12 C8 1_555 1_555
H6 C12 1_555 1_555
C13 H7 1_555 1_555
H8 C13 1_555 1_555
C14 C13 1_555 1_555
H9 C14 1_555 1_555
C15 C14 1_555 1_555
H10 C15 1_555 1_555
H11 C15 1_555 1_555
H12 C15 1_555 1_555
C16 C14 1_555 1_555
H13 C16 1_555 1_555
H14 C16 1_555 1_555
H15 C16 1_555 1_555
N1 C4 1_555 1_555
N2 C10 1_555 1_555
O1 C1 1_555 1_555
O2 C1 1_555 1_555
H16 O2 1_555 1_555
O3 C11 1_555 1_555
S1 C2 1_555 1_555
C1A C2A 1_555 1_555
C2A C4A 1_555 1_555
C3A H1A 1_555 1_555
H2A C3A 1_555 1_555
H3A C3A 1_555 1_555
C4A C3A 1_555 1_555
C5A C6A 1_555 1_555
C6A C7A 1_555 1_555
C7A H4A 1_555 1_555
C8A C6A 1_555 1_555
H5A C8A 1_555 1_555
C9A C7A 1_555 1_555
C10A C9A 1_555 1_555
C11A C9A 1_555 1_555
C12A C8A 1_555 1_555
H6A C12A 1_555 1_555
C13A H7A 1_555 1_555
H8A C13A 1_555 1_555
C14A C13A 1_555 1_555
H9A C14A 1_555 1_555
C15A C14A 1_555 1_555
H10A C15A 1_555 1_555
H11A C15A 1_555 1_555
H12A C15A 1_555 1_555
C16A C14A 1_555 1_555
H13A C16A 1_555 1_555
H14A C16A 1_555 1_555
H15A C16A 1_555 1_555
N1A C4A 1_555 1_555
N2A C10A 1_555 1_555
O1A C1A 1_555 1_555
O2A C1A 1_555 1_555
H16A O2A 1_555 1_555
O3A C11A 1_555 1_555
S1A C2A 1_555 1_555
C5 N1 1_555 1_555
C5 S1 1_555 1_555
C11 C12 1_555 1_555
C13 O3 1_555 1_555
C5A N1A 1_555 1_555
C5A S1A 1_555 1_555
C11A C12A 1_555 1_555
C13A O3A 1_555 1_555

#END
