
#######################################################################
#
#                 Cambridge Crystallographic Data Centre
#                                CCDC 
#
#######################################################################
#
# If this CIF has been generated from an entry in the Cambridge 
# Structural Database, then it will include bibliographic, chemical, 
# crystal, experimental, refinement or atomic coordinate data resulting 
# from the CCDC's data processing and validation procedures.
#
#######################################################################

data_FAMVOF
_chemical_formula_moiety         'C38 H25 N3'
_chemical_name_systematic        
(4'-(1-Pyrenyl)-1,1'-biphenyl-4-yl)bis(2-pyridyl)amine
_symmetry_cell_setting           monoclinic
_symmetry_space_group_name_H-M   'P 21/c'
_symmetry_Int_Tables_number      14
_space_group_name_Hall           '-P 2ybc'
loop_
_symmetry_equiv_pos_site_id
_symmetry_equiv_pos_as_xyz
1 x,y,z
2 -x,1/2+y,1/2-z
3 -x,-y,-z
4 x,1/2-y,1/2+z
_cell_length_a                   22.742(7)
_cell_length_b                   10.668(3)
_cell_length_c                   10.704(3)
_cell_angle_alpha                90
_cell_angle_beta                 94.893(6)
_cell_angle_gamma                90
_cell_volume                     2587.45
_exptl_crystal_colour            colorless
_exptl_crystal_description       plate
_cell_formula_units_Z            4
_exptl_crystal_preparation       luminescent
loop_
_atom_site_label
_atom_site_type_symbol
_atom_site_fract_x
_atom_site_fract_y
_atom_site_fract_z
C1 C 0.55950(16) 0.4122(3) 0.1597(3)
C2 C 0.49894(17) 0.3874(3) 0.1214(3)
C3 C 0.39496(17) 0.3965(3) 0.1599(3)
C4 C 0.38263(18) 0.3312(4) 0.0481(4)
H1 H 0.3408(13) 0.316(3) 0.031(3)
C5 C 0.42618(19) 0.2977(3) -0.0270(4)
H2 H 0.4168(12) 0.256(2) -0.108(3)
C6 C 0.48445(16) 0.3229(3) 0.0084(3)
C7 C 0.53067(19) 0.2826(4) -0.0632(4)
H3 H 0.5182(12) 0.238(2) -0.137(3)
C8 C 0.58687(19) 0.3020(4) -0.0265(4)
H4 H 0.6153(13) 0.276(3) -0.075(3)
C9 C 0.60374(17) 0.3683(3) 0.0853(4)
C10 C 0.66237(18) 0.3945(4) 0.1246(4)
H5 H 0.6943(14) 0.359(3) 0.070(3)
C11 C 0.6769(2) 0.4579(4) 0.2344(4)
H6 H 0.7198(15) 0.470(3) 0.255(3)
C12 C 0.6342(2) 0.5005(4) 0.3048(4)
H7 H 0.6428(11) 0.551(2) 0.383(3)
C13 C 0.57490(17) 0.4800(3) 0.2693(4)
C14 C 0.5295(2) 0.5212(4) 0.3406(4)
H8 H 0.5390(14) 0.573(3) 0.413(3)
C15 C 0.47212(18) 0.4978(3) 0.3083(4)
H9 H 0.4394(12) 0.528(3) 0.360(3)
C16 C 0.45412(17) 0.4285(3) 0.1957(3)
C17 C 0.34653(16) 0.4258(4) 0.2372(3)
C18 C 0.30946(17) 0.3307(4) 0.2716(3)
H10 H 0.3145(12) 0.247(3) 0.238(3)
C19 C 0.26520(17) 0.3518(4) 0.3498(4)
H11 H 0.2417(12) 0.284(3) 0.367(2)
C20 C 0.25712(16) 0.4700(4) 0.3983(3)
C21 C 0.29238(17) 0.5651(4) 0.3599(4)
H12 H 0.2884(12) 0.653(3) 0.393(3)
C22 C 0.33636(18) 0.5442(4) 0.2828(4)
H13 H 0.3613(14) 0.610(3) 0.255(3)
C23 C 0.21346(16) 0.4950(4) 0.4892(3)
C24 C 0.18730(18) 0.6117(4) 0.4972(4)
H14 H 0.1965(13) 0.677(3) 0.441(3)
C25 C 0.15140(18) 0.6395(4) 0.5907(4)
H15 H 0.1346(14) 0.719(3) 0.593(3)
C26 C 0.14007(15) 0.5505(4) 0.6778(3)
C27 C 0.16305(16) 0.4311(4) 0.6697(4)
H16 H 0.1537(13) 0.365(3) 0.732(3)
C28 C 0.19980(16) 0.4048(4) 0.5758(4)
H17 H 0.2182(13) 0.316(3) 0.577(3)
C29 C 0.04688(16) 0.6373(4) 0.7343(3)
C30 C 0.02562(18) 0.7395(4) 0.7927(4)
H18 H 0.0482(12) 0.776(2) 0.871(3)
C31 C -0.02784(18) 0.7884(4) 0.7472(4)
H19 H -0.0441(14) 0.876(3) 0.780(3)
C32 C -0.05832(19) 0.7309(4) 0.6458(4)
H20 H -0.0966(15) 0.769(3) 0.603(3)
C33 C -0.03345(17) 0.6302(4) 0.5931(4)
H21 H -0.0517(14) 0.584(3) 0.510(3)
C34 C 0.11769(18) 0.5520(3) 0.8991(3)
C35 C 0.1745(2) 0.5352(5) 0.9384(5)
H22 H 0.1925(14) 0.545(4) 0.907(3)
C36 C 0.1880(2) 0.5015(5) 1.0589(5)
H23 H 0.2299(14) 0.493(3) 1.082(3)
C37 C 0.1465(2) 0.4888(5) 1.1409(5)
H24 H 0.1549(19) 0.455(4) 1.215(4)
C38 C 0.0893(2) 0.5091(4) 1.0992(4)
H25 H 0.0534(15) 0.499(3) 1.152(3)
N1 N 0.01850(13) 0.5795(3) 0.6361(3)
N2 N 0.07267(15) 0.5405(3) 0.9754(3)
N3 N 0.10225(13) 0.5816(3) 0.7729(3)
loop_
_geom_bond_atom_site_label_1
_geom_bond_atom_site_label_2
_geom_bond_site_symmetry_1
_geom_bond_site_symmetry_2
C1 C2 1_555 1_555
C2 C6 1_555 1_555
C3 C4 1_555 1_555
C4 H1 1_555 1_555
C5 C4 1_555 1_555
H2 C5 1_555 1_555
C6 C5 1_555 1_555
C7 C6 1_555 1_555
H3 C7 1_555 1_555
C8 C7 1_555 1_555
H4 C8 1_555 1_555
C9 C1 1_555 1_555
C10 C9 1_555 1_555
H5 C10 1_555 1_555
C11 C10 1_555 1_555
H6 C11 1_555 1_555
C12 C11 1_555 1_555
H7 C12 1_555 1_555
C13 C1 1_555 1_555
C14 C13 1_555 1_555
H8 C14 1_555 1_555
C15 C14 1_555 1_555
H9 C15 1_555 1_555
C16 C2 1_555 1_555
C17 C3 1_555 1_555
C18 C17 1_555 1_555
H10 C18 1_555 1_555
C19 C18 1_555 1_555
H11 C19 1_555 1_555
C20 C19 1_555 1_555
C21 C20 1_555 1_555
H12 C21 1_555 1_555
C22 C17 1_555 1_555
H13 C22 1_555 1_555
C23 C20 1_555 1_555
C24 C23 1_555 1_555
H14 C24 1_555 1_555
C25 C24 1_555 1_555
H15 C25 1_555 1_555
C26 C25 1_555 1_555
C27 C26 1_555 1_555
H16 C27 1_555 1_555
C28 C23 1_555 1_555
H17 C28 1_555 1_555
C29 C30 1_555 1_555
C30 H18 1_555 1_555
C31 C30 1_555 1_555
H19 C31 1_555 1_555
C32 C31 1_555 1_555
H20 C32 1_555 1_555
C33 C32 1_555 1_555
H21 C33 1_555 1_555
C34 C35 1_555 1_555
C35 H22 1_555 1_555
C36 C35 1_555 1_555
H23 C36 1_555 1_555
C37 C36 1_555 1_555
H24 C37 1_555 1_555
C38 C37 1_555 1_555
H25 C38 1_555 1_555
N1 C29 1_555 1_555
N2 C34 1_555 1_555
N3 C26 1_555 1_555
C3 C16 1_555 1_555
C8 C9 1_555 1_555
C12 C13 1_555 1_555
C15 C16 1_555 1_555
C21 C22 1_555 1_555
C27 C28 1_555 1_555
C29 N3 1_555 1_555
C33 N1 1_555 1_555
C34 N3 1_555 1_555
C38 N2 1_555 1_555

#END
