
#######################################################################
#
#                 Cambridge Crystallographic Data Centre
#                                CCDC 
#
#######################################################################
#
# If this CIF has been generated from an entry in the Cambridge 
# Structural Database, then it will include bibliographic, chemical, 
# crystal, experimental, refinement or atomic coordinate data resulting 
# from the CCDC's data processing and validation procedures.
#
#######################################################################

data_FAMWUN
_chemical_formula_moiety         'C26 H28 P2 S2,0.5(C1 H2 Cl2)'
_chemical_name_systematic        
"1,1',3,3',4,4'-Hexamethyl-5,5'-diphenyl-1H,1'H-2,2'-biphosphole 1,1'-disulfide dichloromethane solvate"
_symmetry_cell_setting           monoclinic
_symmetry_space_group_name_H-M   'C 2/c'
_symmetry_Int_Tables_number      15
_space_group_name_Hall           '-C 2yn'
loop_
_symmetry_equiv_pos_site_id
_symmetry_equiv_pos_as_xyz
1 x,y,z
2 -x,y,1/2-z
3 1/2+x,1/2+y,z
4 1/2-x,1/2+y,1/2-z
5 -x,-y,-z
6 x,-y,1/2+z
7 1/2-x,1/2-y,-z
8 1/2+x,1/2-y,1/2+z
_cell_length_a                   29.730(3)
_cell_length_b                   7.941(1)
_cell_length_c                   22.377(2)
_cell_angle_alpha                90
_cell_angle_beta                 90.142(5)
_cell_angle_gamma                90
_cell_volume                     5282.88
_exptl_crystal_colour            red
_exptl_crystal_description       plate
_cell_formula_units_Z            8
loop_
_atom_site_label
_atom_site_type_symbol
_atom_site_fract_x
_atom_site_fract_y
_atom_site_fract_z
C1 C 0.59131(11) 0.9794(5) 0.51885(15)
C2 C 0.58635(12) 1.1270(4) 0.55814(15)
C3 C 0.62411(13) 1.2164(5) 0.57792(16)
H1 H 0.6526 1.1831 0.5654
C4 C 0.61995(15) 1.3543(5) 0.61594(17)
H2 H 0.6454 1.4132 0.6281
C5 C 0.57814(16) 1.4032(5) 0.63548(17)
H3 H 0.5754 1.4939 0.6615
C6 C 0.54032(15) 1.3181(5) 0.61666(17)
H4 H 0.5121 1.3519 0.6299
C7 C 0.54418(13) 1.1815(5) 0.57793(16)
H5 H 0.5184 1.1258 0.5651
C8 C 0.56764(11) 0.8340(5) 0.51886(15)
C9 C 0.58157(11) 0.7078(4) 0.47255(14)
C10 C 0.61530(11) 0.7593(4) 0.43639(14)
C11 C 0.64062(11) 0.6541(4) 0.39394(14)
C12 C 0.67546(11) 0.5515(5) 0.40883(15)
C13 C 0.69509(12) 0.4564(4) 0.35766(15)
C14 C 0.67307(12) 0.4766(5) 0.30542(15)
C15 C 0.68318(13) 0.3996(5) 0.24646(15)
C16 C 0.65321(15) 0.2878(5) 0.21993(17)
H6 H 0.6267 0.2591 0.2395
C17 C 0.66266(19) 0.2183(6) 0.16386(19)
H7 H 0.6426 0.1431 0.1464
C18 C 0.70177(19) 0.2613(7) 0.13458(19)
H8 H 0.7079 0.2159 0.0972
C19 C 0.73167(17) 0.3709(7) 0.1604(2)
H9 H 0.7580 0.3988 0.1405
C20 C 0.72292(14) 0.4406(6) 0.21623(18)
H10 H 0.7435 0.5145 0.2335
C21 C 0.53146(13) 0.7853(5) 0.56263(17)
H11 H 0.5369 0.6730 0.5768
H12 H 0.5027 0.7896 0.5432
H13 H 0.5317 0.8621 0.5957
C22 C 0.56114(13) 0.5367(5) 0.47015(17)
H14 H 0.5290 0.5464 0.4705
H15 H 0.5708 0.4727 0.5042
H16 H 0.5705 0.4808 0.4342
C23 C 0.69317(13) 0.5262(5) 0.47099(16)
H17 H 0.6928 0.4084 0.4806
H18 H 0.6746 0.5864 0.4988
H19 H 0.7235 0.5677 0.4734
C24 C 0.73532(12) 0.3449(5) 0.36699(18)
H20 H 0.7595 0.4097 0.3839
H21 H 0.7446 0.2989 0.3293
H22 H 0.7276 0.2549 0.3937
P1 P 0.63190(3) 0.96944(12) 0.45829(4)
P2 P 0.62805(3) 0.62615(13) 0.31583(4)
S1 S 0.56684(3) 0.54333(15) 0.29960(4)
S2 S 0.69582(3) 0.99448(13) 0.47655(4)
C25 C 0.64412(11) 0.8291(5) 0.27274(13)
H23 H 0.6207 0.9113 0.2772
H24 H 0.6479 0.8032 0.2311
H25 H 0.6718 0.8733 0.2885
C26 C 0.61221(14) 1.1197(5) 0.40282(17)
H26 H 0.6211 1.2312 0.4144
H27 H 0.5800 1.1143 0.4001
H28 H 0.6251 1.0929 0.3647
Cl1 Cl 0.54542(13) 0.9358(7) 0.72346(19)
C27 C 0.5000 1.0718(15) 0.7500
Cl1A Cl 0.45458(13) 0.9358(7) 0.77654(19)
Cl2? Cl 0.46923(10) 0.9547(5) 0.70060(16)
loop_
_geom_bond_atom_site_label_1
_geom_bond_atom_site_label_2
_geom_bond_site_symmetry_1
_geom_bond_site_symmetry_2
C1 C2 1_555 1_555
C2 C3 1_555 1_555
C3 H1 1_555 1_555
C4 C3 1_555 1_555
H2 C4 1_555 1_555
C5 C4 1_555 1_555
H3 C5 1_555 1_555
C6 C5 1_555 1_555
H4 C6 1_555 1_555
C7 C2 1_555 1_555
H5 C7 1_555 1_555
C8 C1 1_555 1_555
C9 C8 1_555 1_555
C10 C9 1_555 1_555
C11 C10 1_555 1_555
C12 C11 1_555 1_555
C13 C12 1_555 1_555
C14 C13 1_555 1_555
C15 C14 1_555 1_555
C16 C15 1_555 1_555
H6 C16 1_555 1_555
C17 C16 1_555 1_555
H7 C17 1_555 1_555
C18 C17 1_555 1_555
H8 C18 1_555 1_555
C19 C18 1_555 1_555
H9 C19 1_555 1_555
C20 C15 1_555 1_555
H10 C20 1_555 1_555
C21 C8 1_555 1_555
H11 C21 1_555 1_555
H12 C21 1_555 1_555
H13 C21 1_555 1_555
C22 C9 1_555 1_555
H14 C22 1_555 1_555
H15 C22 1_555 1_555
H16 C22 1_555 1_555
C23 C12 1_555 1_555
H17 C23 1_555 1_555
H18 C23 1_555 1_555
H19 C23 1_555 1_555
C24 C13 1_555 1_555
H20 C24 1_555 1_555
H21 C24 1_555 1_555
H22 C24 1_555 1_555
P1 C1 1_555 1_555
P2 C11 1_555 1_555
S1 P2 1_555 1_555
S2 P1 1_555 1_555
C25 P2 1_555 1_555
H23 C25 1_555 1_555
H24 C25 1_555 1_555
H25 C25 1_555 1_555
C26 P1 1_555 1_555
H26 C26 1_555 1_555
H27 C26 1_555 1_555
H28 C26 1_555 1_555
Cl1 C27 1_555 1_555
C27 Cl1A 1_555 1_555
C6 C7 1_555 1_555
C10 P1 1_555 1_555
C14 P2 1_555 1_555
C19 C20 1_555 1_555

#END
