
#######################################################################
#
#                 Cambridge Crystallographic Data Centre
#                                CCDC 
#
#######################################################################
#
# If this CIF has been generated from an entry in the Cambridge 
# Structural Database, then it will include bibliographic, chemical, 
# crystal, experimental, refinement or atomic coordinate data resulting 
# from the CCDC's data processing and validation procedures.
#
#######################################################################

data_FAMXAU
_chemical_formula_moiety         'C22 H24 P2 S4'
_chemical_name_systematic        
2,2'-(1,1',3,3',4,4'-Hexamethyl-1,1'-disulfido-1H,1'H-2,2'-biphosphole-5,5'-diyl)dithiophene
_symmetry_cell_setting           monoclinic
_symmetry_space_group_name_H-M   'C 2/c'
_symmetry_Int_Tables_number      15
_space_group_name_Hall           '-C 2yn'
loop_
_symmetry_equiv_pos_site_id
_symmetry_equiv_pos_as_xyz
1 x,y,z
2 -x,y,1/2-z
3 1/2+x,1/2+y,z
4 1/2-x,1/2+y,1/2-z
5 -x,-y,-z
6 x,-y,1/2+z
7 1/2-x,1/2-y,-z
8 1/2+x,1/2-y,1/2+z
_cell_length_a                   11.7720(4)
_cell_length_b                   11.6359(4)
_cell_length_c                   17.1416(5)
_cell_angle_alpha                90
_cell_angle_beta                 96.730(2)
_cell_angle_gamma                90
_cell_volume                     2331.84
_exptl_crystal_colour            red
_exptl_crystal_description       block
_cell_formula_units_Z            4
loop_
_atom_site_label
_atom_site_type_symbol
_atom_site_fract_x
_atom_site_fract_y
_atom_site_fract_z
P1 P 0.95990(5) 0.22317(5) 0.36548(3)
S1 S 0.79510(5) 0.20396(6) 0.36700(4)
S2 S 1.17212(6) 0.19230(7) 0.59671(4)
C1 C 1.02103(17) 0.1401(2) 0.29216(12)
C2 C 1.1018(2) 0.0696(2) 0.32925(13)
C3 C 1.12244(19) 0.0837(2) 0.41609(13)
C4 C 1.05511(18) 0.1623(2) 0.44584(12)
C5 C 1.05639(19) 0.2074(2) 0.52523(13)
C6 C 0.9728(2) 0.2739(2) 0.55422(14)
H1 H 0.9034 0.2924 0.5253
C7 C 1.0046(2) 0.3105(2) 0.63272(15)
H2 H 0.9582 0.3557 0.6606
C8 C 1.1085(2) 0.2733(2) 0.66253(15)
H3 H 1.1421 0.2897 0.7132
C9 C 1.00242(19) 0.3738(2) 0.35905(14)
H4 H 0.9697 0.4178 0.3982
H5 H 0.9756 0.4032 0.3079
H6 H 1.0843 0.3795 0.3677
C10 C 1.1655(3) -0.0192(3) 0.28793(16)
H7 H 1.1499 -0.0941 0.3075
H8 H 1.2461 -0.0041 0.2973
H9 H 1.1411 -0.0161 0.2325
C11 C 1.2149(2) 0.0138(2) 0.46276(15)
H10 H 1.2235 -0.0583 0.4368
H11 H 1.1942 0.0000 0.5145
H12 H 1.2859 0.0553 0.4666
P1A P 1.04010(5) 0.22317(5) 0.13452(3)
S1A S 1.20490(5) 0.20396(6) 0.13300(4)
S2A S 0.82788(6) 0.19230(7) -0.09671(4)
C1A C 0.97897(17) 0.1401(2) 0.20784(12)
C2A C 0.8982(2) 0.0696(2) 0.17075(13)
C3A C 0.87756(19) 0.0837(2) 0.08391(13)
C4A C 0.94489(18) 0.1623(2) 0.05416(12)
C5A C 0.94361(19) 0.2074(2) -0.02523(13)
C6A C 1.0272(2) 0.2739(2) -0.05422(14)
H1A H 1.0966 0.2924 -0.0253
C7A C 0.9954(2) 0.3105(2) -0.13272(15)
H2A H 1.0418 0.3557 -0.1606
C8A C 0.8915(2) 0.2733(2) -0.16253(15)
H3A H 0.8579 0.2897 -0.2132
C9A C 0.99758(19) 0.3738(2) 0.14095(14)
H4A H 1.0303 0.4178 0.1018
H5A H 1.0244 0.4032 0.1921
H6A H 0.9157 0.3795 0.1323
C10A C 0.8345(3) -0.0192(3) 0.21207(16)
H7A H 0.8501 -0.0941 0.1925
H8A H 0.7539 -0.0041 0.2027
H9A H 0.8589 -0.0161 0.2675
C11A C 0.7851(2) 0.0138(2) 0.03724(15)
H10A H 0.7765 -0.0583 0.0632
H11A H 0.8058 0.0000 -0.0145
H12A H 0.7141 0.0553 0.0334
loop_
_geom_bond_atom_site_label_1
_geom_bond_atom_site_label_2
_geom_bond_site_symmetry_1
_geom_bond_site_symmetry_2
P1 S1 1_555 1_555
S2 C5 1_555 1_555
C1 P1 1_555 1_555
C2 C1 1_555 1_555
C3 C2 1_555 1_555
C4 P1 1_555 1_555
C5 C4 1_555 1_555
C6 C5 1_555 1_555
H1 C6 1_555 1_555
C7 C6 1_555 1_555
H2 C7 1_555 1_555
C8 S2 1_555 1_555
H3 C8 1_555 1_555
C9 P1 1_555 1_555
H4 C9 1_555 1_555
H5 C9 1_555 1_555
H6 C9 1_555 1_555
C10 C2 1_555 1_555
H7 C10 1_555 1_555
H8 C10 1_555 1_555
H9 C10 1_555 1_555
C11 C3 1_555 1_555
H10 C11 1_555 1_555
H11 C11 1_555 1_555
H12 C11 1_555 1_555
P1A S1A 1_555 1_555
S2A C5A 1_555 1_555
C1A C1 1_555 1_555
C2A C1A 1_555 1_555
C3A C2A 1_555 1_555
C4A P1A 1_555 1_555
C5A C4A 1_555 1_555
C6A C5A 1_555 1_555
H1A C6A 1_555 1_555
C7A C6A 1_555 1_555
H2A C7A 1_555 1_555
C8A S2A 1_555 1_555
H3A C8A 1_555 1_555
C9A P1A 1_555 1_555
H4A C9A 1_555 1_555
H5A C9A 1_555 1_555
H6A C9A 1_555 1_555
C10A C2A 1_555 1_555
H7A C10A 1_555 1_555
H8A C10A 1_555 1_555
H9A C10A 1_555 1_555
C11A C3A 1_555 1_555
H10A C11A 1_555 1_555
H11A C11A 1_555 1_555
H12A C11A 1_555 1_555
C3 C4 1_555 1_555
C7 C8 1_555 1_555
P1A C1A 1_555 1_555
C3A C4A 1_555 1_555
C7A C8A 1_555 1_555

#END
