
#######################################################################
#
#                 Cambridge Crystallographic Data Centre
#                                CCDC 
#
#######################################################################
#
# If this CIF has been generated from an entry in the Cambridge 
# Structural Database, then it will include bibliographic, chemical, 
# crystal, experimental, refinement or atomic coordinate data resulting 
# from the CCDC's data processing and validation procedures.
#
#######################################################################

data_FAMYOK
_chemical_formula_moiety         'C48 H30 O4,2(C4 H8 O1)'
_chemical_name_systematic        
"2',5'-bis(3-(3-ethynylphenyl)phenyl)-1,1':4',1''-terphenyl-4,4''-dicarboxylic acid tetrahydrofuran solvate"
_symmetry_cell_setting           triclinic
_symmetry_space_group_name_H-M   'P -1'
_symmetry_Int_Tables_number      2
_space_group_name_Hall           '-P 1'
loop_
_symmetry_equiv_pos_site_id
_symmetry_equiv_pos_as_xyz
1 x,y,z
2 -x,-y,-z
_cell_length_a                   9.8382(8)
_cell_length_b                   12.5329(11)
_cell_length_c                   18.1034(15)
_cell_angle_alpha                83.594(7)
_cell_angle_beta                 86.290(6)
_cell_angle_gamma                82.449(7)
_cell_volume                     2196.16
_exptl_crystal_colour            colorless
_exptl_crystal_description       block
_cell_formula_units_Z            2
loop_
_atom_site_label
_atom_site_type_symbol
_atom_site_fract_x
_atom_site_fract_y
_atom_site_fract_z
O1 O -0.2118(2) 0.22869(18) 0.99096(9)
O2 O -0.0885(3) 0.3655(2) 0.97502(10)
H1 H -0.083(6) 0.355(5) 1.0286(12)
O3 O -0.0970(2) 0.37311(18) 0.11767(9)
O4 O -0.2260(2) 0.23798(16) 0.13472(9)
H2 H -0.216(7) 0.235(6) 0.0821(13)
C1 C -0.1525(3) 0.2977(2) 0.95017(12)
C2 C -0.1581(3) 0.3022(2) 0.86849(11)
C3 C -0.0983(3) 0.3804(3) 0.82274(13)
H3 H -0.0506 0.4299 0.8438
C4 C -0.1072(3) 0.3873(3) 0.74645(12)
H4 H -0.0664 0.4422 0.7157
C5 C -0.1743(2) 0.31606(18) 0.71414(11)
C6 C -0.2327(2) 0.23637(18) 0.76057(11)
H5 H -0.2792 0.1862 0.7394
C7 C -0.2244(3) 0.2291(2) 0.83664(11)
H6 H -0.2643 0.1737 0.8674
C8 C -0.1780(2) 0.32297(16) 0.63185(10)
C9 C -0.2995(2) 0.32469(16) 0.59472(10)
C10 C -0.2905(2) 0.32442(16) 0.51762(10)
H7 H -0.3726 0.3251 0.4926
C11 C -0.1672(2) 0.32323(16) 0.47566(10)
C12 C -0.0448(2) 0.32353(16) 0.51232(10)
C13 C -0.0541(2) 0.32367(16) 0.58964(10)
H8 H 0.0277 0.3243 0.6147
C14 C -0.1699(2) 0.32320(16) 0.39351(10)
C15 C -0.2433(2) 0.25158(18) 0.36439(11)
H9 H -0.2946 0.2053 0.3971
C16 C -0.2426(2) 0.24689(19) 0.28812(11)
H10 H -0.2924 0.1970 0.2689
C17 C -0.1696(2) 0.31473(18) 0.24014(10)
C18 C -0.0984(2) 0.38846(18) 0.26865(11)
H11 H -0.0490 0.4359 0.2358
C19 C -0.0994(2) 0.39274(17) 0.34432(11)
H12 H -0.0513 0.4439 0.3633
C20 C -0.1639(2) 0.3084(2) 0.15842(11)
C21 C -0.4368(2) 0.33044(17) 0.63469(10)
C22 C -0.5225(2) 0.25332(17) 0.62764(10)
H13 H -0.4922 0.1967 0.5974
C23 C -0.6524(2) 0.25665(18) 0.66386(11)
C24 C -0.6946(2) 0.3406(2) 0.70777(13)
H14 H -0.7827 0.3447 0.7329
C25 C -0.6102(2) 0.4177(2) 0.71517(14)
H15 H -0.6406 0.4745 0.7453
C26 C -0.4816(2) 0.41317(19) 0.67914(12)
H16 H -0.4239 0.4665 0.6847
C27 C -0.7414(2) 0.17241(18) 0.65601(12)
C28 C -0.7352(2) 0.12279(18) 0.59100(12)
H17 H -0.6736 0.1436 0.5510
C29 C -0.8175(2) 0.04319(19) 0.58316(14)
C30 C -0.9087(3) 0.0135(2) 0.64193(16)
H18 H -0.9663 -0.0403 0.6371
C31 C -0.9150(3) 0.0623(2) 0.70696(16)
H19 H -0.9767 0.0414 0.7469
C32 C -0.8331(2) 0.1407(2) 0.71445(14)
H20 H -0.8385 0.1736 0.7595
C33 C -0.8069(3) -0.0079(2) 0.51560(15)
C34 C -0.7980(3) -0.0517(2) 0.46068(17)
H21 H -0.7908 -0.0870 0.4165
C35 C 0.0932(2) 0.31985(16) 0.47391(10)
C36 C 0.1360(2) 0.24604(17) 0.42228(10)
H22 H 0.0747 0.1982 0.4110
C37 C 0.2664(2) 0.24081(17) 0.38688(11)
C38 C 0.3561(2) 0.30972(19) 0.40483(12)
H23 H 0.4455 0.3070 0.3814
C39 C 0.3158(2) 0.38228(19) 0.45673(12)
H24 H 0.3781 0.4287 0.4689
C40 C 0.1852(2) 0.38766(17) 0.49108(11)
H25 H 0.1585 0.4379 0.5265
C41 C 0.3066(2) 0.16485(18) 0.32961(12)
C42 C 0.2164(2) 0.15540(19) 0.27581(12)
H26 H 0.1275 0.1955 0.2772
C43 C 0.2539(3) 0.0877(2) 0.21940(13)
C44 C 0.3853(3) 0.0286(2) 0.21803(15)
H27 H 0.4127 -0.0171 0.1798
C45 C 0.4743(3) 0.0368(2) 0.27183(17)
H28 H 0.5627 -0.0041 0.2709
C46 C 0.4365(3) 0.1041(2) 0.32757(14)
H29 H 0.4992 0.1090 0.3645
C47 C 0.1615(3) 0.0821(3) 0.16284(16)
C48 C 0.0862(5) 0.0753(4) 0.1168(2)
H30 H 0.0250 0.0698 0.0793
O5 O 0.3440(12) 0.4095(9) 0.0474(6)
C49 C 0.385(2) 0.3183(13) 0.1051(8)
H31 H 0.4594 0.2674 0.0842
H32 H 0.3058 0.2785 0.1205
C50 C 0.4342(19) 0.3615(13) 0.1717(9)
H33 H 0.5212 0.3202 0.1889
H34 H 0.3641 0.3635 0.2134
C51 C 0.4547(18) 0.4777(13) 0.1342(9)
H35 H 0.4233 0.5304 0.1704
H36 H 0.5541 0.4805 0.1230
C52 C 0.3807(17) 0.5123(12) 0.0638(8)
H37 H 0.2985 0.5650 0.0721
H38 H 0.4416 0.5436 0.0238
O7 O 0.6234(11) -0.1146(10) 0.1268(6)
C57 C 0.7236(17) -0.0473(13) 0.0906(11)
H47 H 0.7445 0.0056 0.1237
H48 H 0.6898 -0.0078 0.0436
C58 C 0.8502(13) -0.1286(14) 0.0757(11)
H49 H 0.9105 -0.1445 0.1183
H50 H 0.9039 -0.1071 0.0296
C59 C 0.7655(15) -0.2205(12) 0.0674(11)
H51 H 0.7989 -0.2838 0.1021
H52 H 0.7831 -0.2418 0.0163
C60 C 0.6093(14) -0.1951(15) 0.0818(11)
H53 H 0.5604 -0.1674 0.0362
H54 H 0.5670 -0.2566 0.1088
O6? O 0.5255(17) 0.4147(15) 0.1678(10)
C53? C 0.385(2) 0.384(2) 0.1846(11)
H39? H 0.3311 0.4381 0.2142
H40? H 0.3915 0.3130 0.2150
C54? C 0.311(2) 0.377(2) 0.1132(12)
H41? H 0.2327 0.4350 0.1056
H42? H 0.2796 0.3054 0.1117
C55? C 0.440(3) 0.396(2) 0.0559(11)
H43? H 0.5064 0.3297 0.0535
H44? H 0.4115 0.4246 0.0053
C56? C 0.495(3) 0.4814(19) 0.0964(12)
H45? H 0.5788 0.5065 0.0705
H46? H 0.4250 0.5443 0.1033
O8? O 0.6483(17) -0.0204(13) 0.0488(9)
C61? C 0.793(2) -0.0562(17) 0.0715(15)
H55? H 0.8099 -0.0252 0.1175
H56? H 0.8597 -0.0326 0.0316
C62? C 0.8075(18) -0.1804(16) 0.0847(15)
H57? H 0.8575 -0.2085 0.1300
H58? H 0.8528 -0.2148 0.0414
C63? C 0.654(2) -0.1950(18) 0.0947(15)
H59? H 0.6371 -0.2616 0.0738
H60? H 0.6245 -0.2015 0.1482
C64? C 0.571(2) -0.0951(19) 0.0536(14)
H61? H 0.5500 -0.1105 0.0035
H62? H 0.4843 -0.0741 0.0819
loop_
_geom_bond_atom_site_label_1
_geom_bond_atom_site_label_2
_geom_bond_site_symmetry_1
_geom_bond_site_symmetry_2
O1 C1 1_555 1_555
O2 H1 1_555 1_555
O3 C20 1_555 1_555
O4 H2 1_555 1_555
C1 O2 1_555 1_555
C2 C1 1_555 1_555
C3 C2 1_555 1_555
H3 C3 1_555 1_555
C4 C3 1_555 1_555
H4 C4 1_555 1_555
C5 C4 1_555 1_555
C6 C5 1_555 1_555
H5 C6 1_555 1_555
C7 C2 1_555 1_555
H6 C7 1_555 1_555
C8 C5 1_555 1_555
C9 C8 1_555 1_555
C10 C9 1_555 1_555
H7 C10 1_555 1_555
C11 C10 1_555 1_555
C12 C11 1_555 1_555
C13 C8 1_555 1_555
H8 C13 1_555 1_555
C14 C11 1_555 1_555
C15 C14 1_555 1_555
H9 C15 1_555 1_555
C16 C15 1_555 1_555
H10 C16 1_555 1_555
C17 C16 1_555 1_555
C18 C17 1_555 1_555
H11 C18 1_555 1_555
C19 C14 1_555 1_555
H12 C19 1_555 1_555
C20 O4 1_555 1_555
C21 C9 1_555 1_555
C22 C21 1_555 1_555
H13 C22 1_555 1_555
C23 C22 1_555 1_555
C24 C23 1_555 1_555
H14 C24 1_555 1_555
C25 C24 1_555 1_555
H15 C25 1_555 1_555
C26 C21 1_555 1_555
H16 C26 1_555 1_555
C27 C23 1_555 1_555
C28 C27 1_555 1_555
H17 C28 1_555 1_555
C29 C28 1_555 1_555
C30 C29 1_555 1_555
H18 C30 1_555 1_555
C31 C30 1_555 1_555
H19 C31 1_555 1_555
C32 C27 1_555 1_555
H20 C32 1_555 1_555
C33 C29 1_555 1_555
C34 C33 1_555 1_555
H21 C34 1_555 1_555
C35 C12 1_555 1_555
C36 C35 1_555 1_555
H22 C36 1_555 1_555
C37 C36 1_555 1_555
C38 C37 1_555 1_555
H23 C38 1_555 1_555
C39 C38 1_555 1_555
H24 C39 1_555 1_555
C40 C35 1_555 1_555
H25 C40 1_555 1_555
C41 C37 1_555 1_555
C42 C41 1_555 1_555
H26 C42 1_555 1_555
C43 C42 1_555 1_555
C44 C43 1_555 1_555
H27 C44 1_555 1_555
C45 C44 1_555 1_555
H28 C45 1_555 1_555
C46 C41 1_555 1_555
H29 C46 1_555 1_555
C47 C43 1_555 1_555
C48 C47 1_555 1_555
H30 C48 1_555 1_555
O5 C49 1_555 1_555
C49 H31 1_555 1_555
H32 C49 1_555 1_555
C50 C49 1_555 1_555
H33 C50 1_555 1_555
H34 C50 1_555 1_555
C51 C50 1_555 1_555
H35 C51 1_555 1_555
H36 C51 1_555 1_555
C52 O5 1_555 1_555
H37 C52 1_555 1_555
H38 C52 1_555 1_555
O7 C57 1_555 1_555
C57 H47 1_555 1_555
H48 C57 1_555 1_555
C58 C57 1_555 1_555
H49 C58 1_555 1_555
H50 C58 1_555 1_555
C59 C58 1_555 1_555
H51 C59 1_555 1_555
H52 C59 1_555 1_555
C60 O7 1_555 1_555
H53 C60 1_555 1_555
H54 C60 1_555 1_555
C6 C7 1_555 1_555
C12 C13 1_555 1_555
C17 C20 1_555 1_555
C18 C19 1_555 1_555
C25 C26 1_555 1_555
C31 C32 1_555 1_555
C39 C40 1_555 1_555
C45 C46 1_555 1_555
C51 C52 1_555 1_555
C59 C60 1_555 1_555

#END
