
#######################################################################
#
#                 Cambridge Crystallographic Data Centre
#                                CCDC 
#
#######################################################################
#
# If this CIF has been generated from an entry in the Cambridge 
# Structural Database, then it will include bibliographic, chemical, 
# crystal, experimental, refinement or atomic coordinate data resulting 
# from the CCDC's data processing and validation procedures.
#
#######################################################################

data_FANCEE
_chemical_formula_moiety         'C58 H82 N4,0.5(C6 H14)'
_chemical_name_systematic        
'N-(3,4-bis(N-(2,6-Di-isopropylphenyl)ethanimidoyl)-5-((2,6-di-isopropylphenyl)imino)hexan-2-ylidene)-2,6-di-isopropylaniline hexane solvate'
_symmetry_cell_setting           triclinic
_symmetry_space_group_name_H-M   'P -1'
_symmetry_Int_Tables_number      2
_space_group_name_Hall           '-P 1'
loop_
_symmetry_equiv_pos_site_id
_symmetry_equiv_pos_as_xyz
1 x,y,z
2 -x,-y,-z
_cell_length_a                   12.937(4)
_cell_length_b                   13.424(4)
_cell_length_c                   17.464(6)
_cell_angle_alpha                86.122(5)
_cell_angle_beta                 75.906(5)
_cell_angle_gamma                71.960(5)
_cell_volume                     2796.9
_exptl_crystal_colour            colorless
_exptl_crystal_description       prism
_cell_formula_units_Z            2
loop_
_atom_site_label
_atom_site_type_symbol
_atom_site_fract_x
_atom_site_fract_y
_atom_site_fract_z
N1 N 0.58861(17) 0.35987(16) 0.32575(12)
N2 N 0.59212(18) 0.18431(15) 0.16028(12)
N3 N 0.22901(18) 0.41094(15) 0.26868(11)
N4 N 0.33037(17) 0.18984(16) 0.40822(11)
C1 C 0.7101(2) 0.1824(2) 0.28413(16)
H1 H 0.7690 0.2083 0.2900
H2 H 0.7256 0.1574 0.2311
H3 H 0.7051 0.1260 0.3203
C2 C 0.6003(2) 0.2697(2) 0.30142(14)
C3 C 0.49715(19) 0.24193(18) 0.29446(14)
H4 H 0.4955 0.1842 0.3317
C4 C 0.5054(2) 0.19338(17) 0.21642(15)
C5 C 0.4099(2) 0.1525(2) 0.21477(16)
H5 H 0.4214 0.1235 0.1635
H6 H 0.3410 0.2089 0.2258
H7 H 0.4064 0.0992 0.2539
C6 C 0.6829(2) 0.3878(2) 0.33832(17)
C7 C 0.7446(2) 0.4316(2) 0.27557(19)
C8 C 0.8313(3) 0.4624(2) 0.2904(2)
H8 H 0.8739 0.4916 0.2498
C9 C 0.8553(3) 0.4507(3) 0.3634(3)
H9 H 0.9145 0.4703 0.3718
C10 C 0.7917(3) 0.4102(3) 0.4233(2)
H10 H 0.8085 0.4029 0.4726
C11 C 0.7025(2) 0.3791(2) 0.41368(18)
C12 C 0.7163(3) 0.4512(3) 0.1960(2)
H11 H 0.6631 0.4134 0.1944
C13 C 0.8182(4) 0.4101(4) 0.1269(2)
H12 H 0.8521 0.3366 0.1334
H13 H 0.8714 0.4469 0.1259
H14 H 0.7945 0.4214 0.0781
C14 C 0.6581(4) 0.5669(4) 0.1865(3)
H15 H 0.5941 0.5903 0.2298
H16 H 0.6344 0.5773 0.1378
H17 H 0.7089 0.6061 0.1860
C15 C 0.6337(3) 0.3361(3) 0.48261(18)
H18 H 0.5652 0.3360 0.4680
C16 C 0.6957(3) 0.2226(3) 0.4998(2)
H19 H 0.7172 0.1809 0.4527
H20 H 0.6474 0.1950 0.5404
H21 H 0.7612 0.2208 0.5171
C17 C 0.5989(3) 0.4027(3) 0.5579(2)
H22 H 0.5597 0.4736 0.5472
H23 H 0.6644 0.4014 0.5752
H24 H 0.5510 0.3749 0.5985
C18 C 0.6102(2) 0.1261(2) 0.08973(16)
C19 C 0.6173(2) 0.1806(2) 0.01815(17)
C20 C 0.6407(3) 0.1261(3) -0.05084(18)
H25 H 0.6442 0.1620 -0.0984
C21 C 0.6592(3) 0.0195(3) -0.0513(2)
H26 H 0.6739 -0.0161 -0.0985
C22 C 0.6556(3) -0.0334(3) 0.0184(2)
H27 H 0.6685 -0.1055 0.0177
C23 C 0.6333(2) 0.0170(2) 0.09031(17)
C24 C 0.5983(3) 0.2982(3) 0.01600(17)
H28 H 0.5882 0.3225 0.0698
C25 C 0.6972(5) 0.3265(4) -0.0365(3)
H29 H 0.7634 0.2915 -0.0182
H30 H 0.6834 0.4009 -0.0347
H31 H 0.7072 0.3049 -0.0898
C26 C 0.4965(5) 0.3532(3) -0.0116(4)
H32 H 0.4336 0.3365 0.0222
H33 H 0.5055 0.3316 -0.0647
H34 H 0.4842 0.4274 -0.0101
C27 C 0.6404(3) -0.0497(2) 0.16356(17)
H35 H 0.6129 -0.0024 0.2094
C28 C 0.7618(3) -0.1118(3) 0.1612(2)
H36 H 0.8060 -0.0647 0.1540
H37 H 0.7896 -0.1612 0.1182
H38 H 0.7660 -0.1485 0.2100
C29 C 0.5682(3) -0.1241(3) 0.1751(2)
H39 H 0.4921 -0.0843 0.1765
H40 H 0.5721 -0.1610 0.2239
H41 H 0.5956 -0.1735 0.1321
C30 C 0.4016(2) 0.4583(2) 0.21608(16)
H42 H 0.3609 0.5011 0.1803
H43 H 0.4681 0.4089 0.1865
H44 H 0.4219 0.5019 0.2476
C31 C 0.3298(2) 0.40031(17) 0.26893(13)
C32 C 0.38454(19) 0.32820(18) 0.32876(13)
H45 H 0.4068 0.3750 0.3578
C33 C 0.3036(2) 0.2874(2) 0.39305(14)
C34 C 0.2020(2) 0.3675(2) 0.43896(15)
H46 H 0.1579 0.3329 0.4770
H47 H 0.1584 0.4067 0.4035
H48 H 0.2249 0.4143 0.4657
C35 C 0.1675(2) 0.4888(2) 0.22216(15)
C36 C 0.1432(2) 0.4556(2) 0.15528(16)
C37 C 0.0743(2) 0.5308(2) 0.11531(17)
H49 H 0.0592 0.5112 0.0701
C38 C 0.0285(3) 0.6325(3) 0.1411(2)
H50 H -0.0186 0.6808 0.1143
C39 C 0.0520(3) 0.6632(2) 0.20656(19)
H51 H 0.0201 0.7325 0.2236
C40 C 0.1224(2) 0.5933(2) 0.24804(16)
C41 C 0.1900(3) 0.3432(2) 0.12866(18)
H52 H 0.2680 0.3174 0.1329
C42 C 0.1870(4) 0.3272(3) 0.0432(2)
H53 H 0.2282 0.3676 0.0085
H54 H 0.1109 0.3496 0.0384
H55 H 0.2201 0.2543 0.0292
C43 C 0.1255(3) 0.2770(3) 0.1817(2)
H56 H 0.1279 0.2844 0.2355
H57 H 0.1587 0.2048 0.1658
H58 H 0.0491 0.3000 0.1773
C44 C 0.1433(2) 0.6321(2) 0.32069(17)
H59 H 0.2045 0.5771 0.3361
C45 C 0.1806(3) 0.7310(3) 0.3038(2)
H60 H 0.2450 0.7177 0.2603
H61 H 0.1990 0.7497 0.3498
H62 H 0.1210 0.7875 0.2907
C46 C 0.0410(3) 0.6497(3) 0.38987(18)
H63 H 0.0196 0.5868 0.3992
H64 H -0.0197 0.7057 0.3776
H65 H 0.0588 0.6678 0.4363
C47 C 0.2631(2) 0.14931(19) 0.47229(16)
C48 C 0.2917(3) 0.1340(2) 0.54521(17)
C49 C 0.2283(3) 0.0901(2) 0.60551(18)
H66 H 0.2450 0.0812 0.6549
C50 C 0.1416(3) 0.0596(3) 0.5939(2)
H67 H 0.0995 0.0312 0.6353
C51 C 0.1169(3) 0.0709(2) 0.5215(2)
H68 H 0.0592 0.0481 0.5138
C52 C 0.1763(2) 0.1157(2) 0.45901(17)
C53 C 0.3881(3) 0.1651(3) 0.56026(18)
H69 H 0.4328 0.1784 0.5089
C54 C 0.3475(4) 0.2648(3) 0.6084(2)
H70 H 0.3005 0.3193 0.5826
H71 H 0.4104 0.2851 0.6134
H72 H 0.3055 0.2533 0.6599
C55 C 0.4654(3) 0.0773(3) 0.6002(2)
H73 H 0.5256 0.0999 0.6079
H74 H 0.4952 0.0158 0.5672
H75 H 0.4235 0.0614 0.6503
C56 C 0.1503(3) 0.1227(2) 0.37828(18)
H76 H 0.1859 0.1715 0.3467
C57 C 0.2026(3) 0.0154(3) 0.3372(2)
H77 H 0.2810 -0.0090 0.3358
H78 H 0.1924 0.0214 0.2842
H79 H 0.1671 -0.0335 0.3657
C58 C 0.0256(3) 0.1637(3) 0.3809(2)
H80 H -0.0058 0.2307 0.4071
H81 H -0.0109 0.1153 0.4092
H82 H 0.0150 0.1709 0.3280
C59 C 0.0179(5) 0.0171(5) 0.1728(3)
H83 H -0.0083 0.0720 0.2118
H84 H 0.0978 -0.0108 0.1631
H85 H -0.0151 -0.0375 0.1916
C60 C -0.0145(6) 0.0605(6) 0.0976(4)
H86 H -0.0952 0.0903 0.1085
H87 H 0.0177 0.1168 0.0799
C61 C 0.0199(5) -0.0140(6) 0.0358(3)
H88 H -0.0017 -0.0750 0.0574
H89 H 0.1009 -0.0356 0.0208
C59A C -0.0179(5) -0.0171(5) -0.1728(3)
H83A H 0.0083 -0.0720 -0.2118
H84A H -0.0978 0.0108 -0.1631
H85A H 0.0151 0.0375 -0.1916
C60A C 0.0145(6) -0.0605(6) -0.0976(4)
H86A H 0.0952 -0.0903 -0.1085
H87A H -0.0177 -0.1168 -0.0799
C61A C -0.0199(5) 0.0140(6) -0.0358(3)
H88A H 0.0017 0.0750 -0.0574
H89A H -0.1009 0.0356 -0.0208
loop_
_geom_bond_atom_site_label_1
_geom_bond_atom_site_label_2
_geom_bond_site_symmetry_1
_geom_bond_site_symmetry_2
N1 C2 1_555 1_555
N2 C4 1_555 1_555
N3 C31 1_555 1_555
N4 C33 1_555 1_555
C1 H1 1_555 1_555
H2 C1 1_555 1_555
H3 C1 1_555 1_555
C2 C1 1_555 1_555
C3 C2 1_555 1_555
H4 C3 1_555 1_555
C4 C3 1_555 1_555
C5 C4 1_555 1_555
H5 C5 1_555 1_555
H6 C5 1_555 1_555
H7 C5 1_555 1_555
C6 N1 1_555 1_555
C7 C6 1_555 1_555
C8 C7 1_555 1_555
H8 C8 1_555 1_555
C9 C8 1_555 1_555
H9 C9 1_555 1_555
C10 C9 1_555 1_555
H10 C10 1_555 1_555
C11 C6 1_555 1_555
C12 C7 1_555 1_555
H11 C12 1_555 1_555
C13 C12 1_555 1_555
H12 C13 1_555 1_555
H13 C13 1_555 1_555
H14 C13 1_555 1_555
C14 C12 1_555 1_555
H15 C14 1_555 1_555
H16 C14 1_555 1_555
H17 C14 1_555 1_555
C15 C11 1_555 1_555
H18 C15 1_555 1_555
C16 C15 1_555 1_555
H19 C16 1_555 1_555
H20 C16 1_555 1_555
H21 C16 1_555 1_555
C17 C15 1_555 1_555
H22 C17 1_555 1_555
H23 C17 1_555 1_555
H24 C17 1_555 1_555
C18 N2 1_555 1_555
C19 C18 1_555 1_555
C20 C19 1_555 1_555
H25 C20 1_555 1_555
C21 C20 1_555 1_555
H26 C21 1_555 1_555
C22 C21 1_555 1_555
H27 C22 1_555 1_555
C23 C18 1_555 1_555
C24 C19 1_555 1_555
H28 C24 1_555 1_555
C25 C24 1_555 1_555
H29 C25 1_555 1_555
H30 C25 1_555 1_555
H31 C25 1_555 1_555
C26 C24 1_555 1_555
H32 C26 1_555 1_555
H33 C26 1_555 1_555
H34 C26 1_555 1_555
C27 C23 1_555 1_555
H35 C27 1_555 1_555
C28 C27 1_555 1_555
H36 C28 1_555 1_555
H37 C28 1_555 1_555
H38 C28 1_555 1_555
C29 C27 1_555 1_555
H39 C29 1_555 1_555
H40 C29 1_555 1_555
H41 C29 1_555 1_555
C30 H42 1_555 1_555
H43 C30 1_555 1_555
H44 C30 1_555 1_555
C31 C30 1_555 1_555
C32 C3 1_555 1_555
H45 C32 1_555 1_555
C33 C32 1_555 1_555
C34 C33 1_555 1_555
H46 C34 1_555 1_555
H47 C34 1_555 1_555
H48 C34 1_555 1_555
C35 N3 1_555 1_555
C36 C35 1_555 1_555
C37 C36 1_555 1_555
H49 C37 1_555 1_555
C38 C37 1_555 1_555
H50 C38 1_555 1_555
C39 C38 1_555 1_555
H51 C39 1_555 1_555
C40 C35 1_555 1_555
C41 C36 1_555 1_555
H52 C41 1_555 1_555
C42 C41 1_555 1_555
H53 C42 1_555 1_555
H54 C42 1_555 1_555
H55 C42 1_555 1_555
C43 C41 1_555 1_555
H56 C43 1_555 1_555
H57 C43 1_555 1_555
H58 C43 1_555 1_555
C44 C40 1_555 1_555
H59 C44 1_555 1_555
C45 C44 1_555 1_555
H60 C45 1_555 1_555
H61 C45 1_555 1_555
H62 C45 1_555 1_555
C46 C44 1_555 1_555
H63 C46 1_555 1_555
H64 C46 1_555 1_555
H65 C46 1_555 1_555
C47 N4 1_555 1_555
C48 C47 1_555 1_555
C49 C48 1_555 1_555
H66 C49 1_555 1_555
C50 C49 1_555 1_555
H67 C50 1_555 1_555
C51 C50 1_555 1_555
H68 C51 1_555 1_555
C52 C47 1_555 1_555
C53 C48 1_555 1_555
H69 C53 1_555 1_555
C54 C53 1_555 1_555
H70 C54 1_555 1_555
H71 C54 1_555 1_555
H72 C54 1_555 1_555
C55 C53 1_555 1_555
H73 C55 1_555 1_555
H74 C55 1_555 1_555
H75 C55 1_555 1_555
C56 C52 1_555 1_555
H76 C56 1_555 1_555
C57 C56 1_555 1_555
H77 C57 1_555 1_555
H78 C57 1_555 1_555
H79 C57 1_555 1_555
C58 C56 1_555 1_555
H80 C58 1_555 1_555
H81 C58 1_555 1_555
H82 C58 1_555 1_555
C59 H83 1_555 1_555
H84 C59 1_555 1_555
H85 C59 1_555 1_555
C60 C59 1_555 1_555
H86 C60 1_555 1_555
H87 C60 1_555 1_555
C61 C60 1_555 1_555
H88 C61 1_555 1_555
H89 C61 1_555 1_555
C59A H83A 1_555 1_555
H84A C59A 1_555 1_555
H85A C59A 1_555 1_555
C60A C59A 1_555 1_555
H86A C60A 1_555 1_555
H87A C60A 1_555 1_555
C61A C61 1_555 1_555
H88A C61A 1_555 1_555
H89A C61A 1_555 1_555
C10 C11 1_555 1_555
C22 C23 1_555 1_555
C31 C32 1_555 1_555
C39 C40 1_555 1_555
C51 C52 1_555 1_555
C60A C61A 1_555 1_555

#END
