
#######################################################################
#
#                 Cambridge Crystallographic Data Centre
#                                CCDC 
#
#######################################################################
#
# If this CIF has been generated from an entry in the Cambridge 
# Structural Database, then it will include bibliographic, chemical, 
# crystal, experimental, refinement or atomic coordinate data resulting 
# from the CCDC's data processing and validation procedures.
#
#######################################################################

data_FANDUW
_chemical_formula_moiety         'C23 H17 N3 O4'
_chemical_name_systematic        
4'-(4-nitrophenyl)-2-phenyl-4',5'-dihydro-4H-spiro[chromene-3,3'-pyrazol]-4-one
_symmetry_cell_setting           monoclinic
_symmetry_space_group_name_H-M   'P 21/n'
_symmetry_Int_Tables_number      14
_space_group_name_Hall           '-P 2yn'
loop_
_symmetry_equiv_pos_site_id
_symmetry_equiv_pos_as_xyz
1 x,y,z
2 1/2-x,1/2+y,1/2-z
3 -x,-y,-z
4 1/2+x,1/2-y,1/2+z
_cell_length_a                   9.2308(15)
_cell_length_b                   10.6659(17)
_cell_length_c                   20.026(4)
_cell_angle_alpha                90
_cell_angle_beta                 99.029(17)
_cell_angle_gamma                90
_cell_volume                     1947.22
_exptl_crystal_colour            colorless
_exptl_crystal_description       block
_cell_formula_units_Z            4
loop_
_atom_site_label
_atom_site_type_symbol
_atom_site_fract_x
_atom_site_fract_y
_atom_site_fract_z
O1 O 0.0852(4) 0.3589(3) 0.16055(17)
C1 C 0.1447(6) 0.4109(5) 0.1090(3)
C2 C 0.1209(7) 0.3497(6) 0.0478(3)
H1 H 0.0653 0.2767 0.0425
C3 C 0.1806(9) 0.3982(8) -0.0051(3)
H2 H 0.1668 0.3565 -0.0464
C4 C 0.2604(9) 0.5072(8) 0.0016(4)
H3 H 0.2980 0.5396 -0.0353
C5 C 0.2848(7) 0.5681(7) 0.0620(3)
H4 H 0.3398 0.6415 0.0662
C6 C 0.2285(5) 0.5219(5) 0.1177(3)
C7 C 0.2623(5) 0.5808(5) 0.1838(3)
O2 O 0.3308(4) 0.6784(3) 0.19393(19)
C8 C 0.2152(5) 0.5072(4) 0.2433(2)
N1 N 0.3365(5) 0.4102(4) 0.2581(2)
N2 N 0.4161(5) 0.4331(5) 0.3126(3)
C9 C 0.3744(6) 0.5444(6) 0.3470(3)
H5 H 0.4462 0.6104 0.3459
H6 H 0.3673 0.5256 0.3937
C10 C 0.2248(5) 0.5846(5) 0.3085(2)
H7 H 0.2308 0.6734 0.2967
C11 C 0.1004(5) 0.5691(5) 0.3492(2)
C12 C 0.0739(5) 0.4562(5) 0.3785(2)
H8 H 0.1355 0.3885 0.3747
C13 C -0.0436(6) 0.4420(5) 0.4137(3)
H9 H -0.0637 0.3651 0.4321
C14 C -0.1280(5) 0.5445(6) 0.4203(3)
C15 C -0.1028(6) 0.6587(6) 0.3943(3)
H10 H -0.1614 0.7273 0.4006
C16 C 0.0131(6) 0.6704(5) 0.3578(3)
H11 H 0.0316 0.7474 0.3391
C17 C 0.0724(5) 0.4373(5) 0.2189(2)
H12 H 0.0573 0.3801 0.2555
C18 C -0.0639(5) 0.5158(4) 0.2042(2)
C19 C -0.1986(5) 0.4564(5) 0.2039(3)
H13 H -0.2013 0.3707 0.2122
C20 C -0.3273(6) 0.5230(6) 0.1914(3)
H14 H -0.4163 0.4821 0.1911
C21 C -0.3253(6) 0.6511(6) 0.1794(3)
H15 H -0.4121 0.6968 0.1716
C22 C -0.1945(5) 0.7080(5) 0.1792(2)
H16 H -0.1924 0.7936 0.1708
C23 C -0.0652(5) 0.6432(5) 0.1911(2)
H17 H 0.0228 0.6853 0.1903
N3 N -0.2542(6) 0.5313(7) 0.4578(3)
O3 O -0.3151(5) 0.6253(6) 0.4725(3)
O4 O -0.2843(6) 0.4266(6) 0.4747(3)
loop_
_geom_bond_atom_site_label_1
_geom_bond_atom_site_label_2
_geom_bond_site_symmetry_1
_geom_bond_site_symmetry_2
O1 C1 1_555 1_555
C1 C2 1_555 1_555
C2 H1 1_555 1_555
C3 C2 1_555 1_555
H2 C3 1_555 1_555
C4 C3 1_555 1_555
H3 C4 1_555 1_555
C5 C4 1_555 1_555
H4 C5 1_555 1_555
C6 C1 1_555 1_555
C7 C6 1_555 1_555
O2 C7 1_555 1_555
C8 C7 1_555 1_555
N1 C8 1_555 1_555
N2 N1 1_555 1_555
C9 N2 1_555 1_555
H5 C9 1_555 1_555
H6 C9 1_555 1_555
C10 C8 1_555 1_555
H7 C10 1_555 1_555
C11 C10 1_555 1_555
C12 C11 1_555 1_555
H8 C12 1_555 1_555
C13 C12 1_555 1_555
H9 C13 1_555 1_555
C14 C13 1_555 1_555
C15 C14 1_555 1_555
H10 C15 1_555 1_555
C16 C11 1_555 1_555
H11 C16 1_555 1_555
C17 O1 1_555 1_555
H12 C17 1_555 1_555
C18 C17 1_555 1_555
C19 C18 1_555 1_555
H13 C19 1_555 1_555
C20 C19 1_555 1_555
H14 C20 1_555 1_555
C21 C20 1_555 1_555
H15 C21 1_555 1_555
C22 C21 1_555 1_555
H16 C22 1_555 1_555
C23 C18 1_555 1_555
H17 C23 1_555 1_555
N3 C14 1_555 1_555
O3 N3 1_555 1_555
O4 N3 1_555 1_555
C5 C6 1_555 1_555
C8 C17 1_555 1_555
C9 C10 1_555 1_555
C15 C16 1_555 1_555
C22 C23 1_555 1_555

#END
