
#######################################################################
#
#                 Cambridge Crystallographic Data Centre
#                                CCDC 
#
#######################################################################
#
# If this CIF has been generated from an entry in the Cambridge 
# Structural Database, then it will include bibliographic, chemical, 
# crystal, experimental, refinement or atomic coordinate data resulting 
# from the CCDC's data processing and validation procedures.
#
#######################################################################

data_FANNEO
_chemical_formula_moiety         'C14 H46 O4 Si8,0.6(H2 O1)'
_chemical_name_systematic        
'rac-1,1,1,3,4,6,6,6-Octamethyl-2,3,4,5-tetrahydroxy-2,5-bis(trimethylsilyl)hexasilane hydrate'
_symmetry_cell_setting           rhombohedral
_symmetry_space_group_name_H-M   'R -3'
_symmetry_Int_Tables_number      148
_space_group_name_Hall           '-R 3'
loop_
_symmetry_equiv_pos_site_id
_symmetry_equiv_pos_as_xyz
1 x,y,z
2 -y,x-y,z
3 -x+y,-x,z
4 2/3+x,1/3+y,1/3+z
5 2/3-y,1/3+x-y,1/3+z
6 2/3-x+y,1/3-x,1/3+z
7 1/3+x,2/3+y,2/3+z
8 1/3-y,2/3+x-y,2/3+z
9 1/3-x+y,2/3-x,2/3+z
10 -x,-y,-z
11 y,-x+y,-z
12 x-y,x,-z
13 1/3-x,2/3-y,2/3-z
14 1/3+y,2/3-x+y,2/3-z
15 1/3+x-y,2/3+x,2/3-z
16 2/3-x,1/3-y,1/3-z
17 2/3+y,1/3-x+y,1/3-z
18 2/3+x-y,1/3+x,1/3-z
_cell_length_a                   22.4017(4)
_cell_length_b                   22.4017(4)
_cell_length_c                   34.8111(10)
_cell_angle_alpha                90
_cell_angle_beta                 90
_cell_angle_gamma                120.00
_cell_volume                     15129
_exptl_crystal_colour            colorless
_exptl_crystal_description       blocks
_chemical_melting_point          99deg.C(dec)
_cell_formula_units_Z            18
_exptl_crystal_recrystallization_method pentane
loop_
_atom_site_label
_atom_site_type_symbol
_atom_site_fract_x
_atom_site_fract_y
_atom_site_fract_z
Si1 Si -0.21305(3) -0.11841(3) 0.695387(13)
Si2 Si -0.16812(3) -0.00265(3) 0.716021(15)
Si3 Si -0.15907(3) 0.01496(3) 0.783469(14)
Si4 Si -0.08385(3) 0.12873(3) 0.806031(13)
Si5 Si -0.20189(3) -0.11641(3) 0.628118(15)
Si6 Si -0.32806(3) -0.19306(3) 0.713464(18)
Si7 Si -0.07255(3) 0.12423(3) 0.873221(14)
Si8 Si -0.12307(3) 0.20506(3) 0.789288(16)
O1 O -0.16908(8) -0.15487(8) 0.71330(4)
H1 H -0.1304 -0.1378 0.7025
O2 O -0.09118(8) 0.04307(8) 0.69511(4)
H2 H -0.0682 0.0232 0.6984
O3 O -0.13192(8) -0.03441(7) 0.80383(4)
H3 H -0.0913 -0.0211 0.7968
O4 O -0.00353(7) 0.16213(8) 0.78831(4)
H4 H -0.0042 0.1679 0.7645
C1 C -0.22594(16) 0.02711(14) 0.69531(8)
H5 H -0.2005 0.0775 0.6930
H6 H -0.2658 0.0129 0.7122
H7 H -0.2418 0.0066 0.6698
C2 C -0.24718(12) -0.01303(14) 0.80214(7)
H8 H -0.2745 -0.0635 0.8020
H9 H -0.2695 0.0057 0.7858
H10 H -0.2439 0.0040 0.8284
C3 C -0.2125(2) -0.20015(18) 0.61215(8)
H11 H -0.2595 -0.2370 0.6178
H12 H -0.1795 -0.2091 0.6257
H13 H -0.2042 -0.1986 0.5844
C4 C -0.2706(2) -0.1042(2) 0.60518(8)
H14 H -0.2755 -0.0690 0.6193
H15 H -0.3145 -0.1478 0.6057
H16 H -0.2579 -0.0894 0.5785
C5 C -0.11639(19) -0.0428(2) 0.61239(8)
H17 H -0.1137 -0.0420 0.5843
H18 H -0.0792 -0.0486 0.6231
H19 H -0.1117 0.0007 0.6216
C6 C -0.35604(17) -0.27928(16) 0.69241(10)
H20 H -0.3193 -0.2905 0.6955
H21 H -0.3659 -0.2788 0.6650
H22 H -0.3977 -0.3140 0.7056
C7 C -0.38699(19) -0.1625(3) 0.69584(17)
H23 H -0.3603 -0.1128 0.6908
H24 H -0.4221 -0.1717 0.7154
H25 H -0.4095 -0.1869 0.6721
C8 C -0.33682(17) -0.20333(16) 0.76681(8)
H26 H -0.3802 -0.2452 0.7731
H27 H -0.3367 -0.1632 0.7781
H28 H -0.2981 -0.2070 0.7772
C9 C -0.04704(15) 0.20966(14) 0.89563(7)
H29 H -0.0414 0.2071 0.9234
H30 H -0.0829 0.2215 0.8908
H31 H -0.0034 0.2451 0.8845
C10 C -0.00430(14) 0.10226(16) 0.88354(6)
H32 H 0.0391 0.1367 0.8717
H33 H -0.0180 0.0567 0.8730
H34 H 0.0019 0.1018 0.9114
C11 C -0.15498(13) 0.05665(14) 0.89551(7)
H35 H -0.1502 0.0587 0.9235
H36 H -0.1653 0.0110 0.8864
H37 H -0.1925 0.0648 0.8882
C12 C -0.0605(2) 0.29423(15) 0.80548(10)
H38 H -0.0135 0.3024 0.8028
H39 H -0.0694 0.2997 0.8325
H40 H -0.0659 0.3275 0.7897
C13 C -0.2071(2) 0.1778(3) 0.81319(13)
H41 H -0.2108 0.1514 0.8364
H42 H -0.2448 0.1490 0.7956
H43 H -0.2099 0.2187 0.8202
C14 C -0.1330(2) 0.20983(16) 0.73657(7)
H44 H -0.1369 0.2505 0.7306
H45 H -0.1747 0.1682 0.7279
H46 H -0.0928 0.2133 0.7234
O5 O 0.0000 0.0000 0.70911(11)
O6 O 0.0000 0.0000 0.78800(10)
loop_
_geom_bond_atom_site_label_1
_geom_bond_atom_site_label_2
_geom_bond_site_symmetry_1
_geom_bond_site_symmetry_2
Si1 Si2 1_555 1_555
Si2 Si3 1_555 1_555
Si3 Si4 1_555 1_555
Si4 Si7 1_555 1_555
Si5 Si1 1_555 1_555
Si6 Si1 1_555 1_555
Si7 C9 1_555 1_555
Si8 Si4 1_555 1_555
O1 Si1 1_555 1_555
H1 O1 1_555 1_555
O2 Si2 1_555 1_555
H2 O2 1_555 1_555
O3 Si3 1_555 1_555
H3 O3 1_555 1_555
O4 Si4 1_555 1_555
H4 O4 1_555 1_555
C1 Si2 1_555 1_555
H5 C1 1_555 1_555
H6 C1 1_555 1_555
H7 C1 1_555 1_555
C2 Si3 1_555 1_555
H8 C2 1_555 1_555
H9 C2 1_555 1_555
H10 C2 1_555 1_555
C3 Si5 1_555 1_555
H11 C3 1_555 1_555
H12 C3 1_555 1_555
H13 C3 1_555 1_555
C4 Si5 1_555 1_555
H14 C4 1_555 1_555
H15 C4 1_555 1_555
H16 C4 1_555 1_555
C5 Si5 1_555 1_555
H17 C5 1_555 1_555
H18 C5 1_555 1_555
H19 C5 1_555 1_555
C6 Si6 1_555 1_555
H20 C6 1_555 1_555
H21 C6 1_555 1_555
H22 C6 1_555 1_555
C7 Si6 1_555 1_555
H23 C7 1_555 1_555
H24 C7 1_555 1_555
H25 C7 1_555 1_555
C8 Si6 1_555 1_555
H26 C8 1_555 1_555
H27 C8 1_555 1_555
H28 C8 1_555 1_555
C9 H29 1_555 1_555
H30 C9 1_555 1_555
H31 C9 1_555 1_555
C10 Si7 1_555 1_555
H32 C10 1_555 1_555
H33 C10 1_555 1_555
H34 C10 1_555 1_555
C11 Si7 1_555 1_555
H35 C11 1_555 1_555
H36 C11 1_555 1_555
H37 C11 1_555 1_555
C12 Si8 1_555 1_555
H38 C12 1_555 1_555
H39 C12 1_555 1_555
H40 C12 1_555 1_555
C13 Si8 1_555 1_555
H41 C13 1_555 1_555
H42 C13 1_555 1_555
H43 C13 1_555 1_555
C14 Si8 1_555 1_555
H44 C14 1_555 1_555
H45 C14 1_555 1_555
H46 C14 1_555 1_555

#END
