
#######################################################################
#
#                 Cambridge Crystallographic Data Centre
#                                CCDC 
#
#######################################################################
#
# If this CIF has been generated from an entry in the Cambridge 
# Structural Database, then it will include bibliographic, chemical, 
# crystal, experimental, refinement or atomic coordinate data resulting 
# from the CCDC's data processing and validation procedures.
#
#######################################################################

data_FANPUI
_chemical_formula_moiety         'C28 H21 B1 N6 O1,0.32(H2 O1)'
_chemical_name_systematic        
'14d-butoxy-14dH-5,9c,10,14c,14e,15-hexaaza-14d-boradibenzo[2,3:5,6]-s-indaceno[1,8,7-bcde]fluoranthene hydrate'
_symmetry_cell_setting           orthorhombic
_symmetry_space_group_name_H-M   'P b c a'
_symmetry_Int_Tables_number      61
_space_group_name_Hall           '-P 2ac 2ab'
loop_
_symmetry_equiv_pos_site_id
_symmetry_equiv_pos_as_xyz
1 x,y,z
2 1/2-x,-y,1/2+z
3 -x,1/2+y,1/2-z
4 1/2+x,1/2-y,-z
5 -x,-y,-z
6 1/2+x,y,1/2-z
7 x,1/2-y,1/2+z
8 1/2-x,1/2+y,z
_cell_length_a                   14.187(2)
_cell_length_b                   17.603(3)
_cell_length_c                   18.327(3)
_cell_angle_alpha                90
_cell_angle_beta                 90
_cell_angle_gamma                90
_cell_volume                     4576.87
_exptl_crystal_colour            red
_exptl_crystal_description       block
_cell_formula_units_Z            8
loop_
_atom_site_label
_atom_site_type_symbol
_atom_site_fract_x
_atom_site_fract_y
_atom_site_fract_z
O1 O 0.65367(9) 0.40255(8) 0.57499(7)
N1 N 0.81529(10) 0.45378(8) 0.55025(8)
N2 N 0.78688(10) 0.51238(8) 0.43567(8)
N3 N 0.73216(10) 0.38721(8) 0.45930(8)
N4 N 0.74872(10) 0.25302(8) 0.45499(8)
N5 N 0.79678(10) 0.32206(8) 0.56016(8)
N6 N 0.91140(10) 0.38485(8) 0.63331(8)
C1 C 0.88672(12) 0.45001(10) 0.60018(9)
C2 C 0.93623(12) 0.52256(10) 0.59502(10)
C3 C 1.00737(12) 0.55537(11) 0.63667(11)
H1 H 1.0342 0.5296 0.6758
C4 C 1.03689(13) 0.62772(11) 0.61796(13)
H2 H 1.0823 0.6517 0.6464
C5 C 1.00016(14) 0.66555(11) 0.55748(13)
H3 H 1.0226 0.7137 0.5460
C6 C 0.93122(13) 0.63324(11) 0.51409(12)
H4 H 0.9080 0.6583 0.4732
C7 C 0.89775(12) 0.56171(10) 0.53394(10)
C8 C 0.82520(12) 0.51287(10) 0.50274(10)
C9 C 0.74649(12) 0.44699(10) 0.41364(9)
C10 C 0.73230(12) 0.41776(11) 0.34005(9)
C11 C 0.73838(13) 0.45197(12) 0.27159(10)
H5 H 0.7488 0.5039 0.2670
C12 C 0.72843(14) 0.40624(13) 0.21067(10)
H6 H 0.7322 0.4280 0.1645
C13 C 0.71291(13) 0.32814(12) 0.21691(10)
H7 H 0.7047 0.2993 0.1749
C14 C 0.70948(12) 0.29293(12) 0.28420(10)
H8 H 0.7009 0.2407 0.2880
C15 C 0.71922(12) 0.33810(11) 0.34633(9)
C16 C 0.72670(11) 0.31922(10) 0.42352(9)
C17 C 0.78932(11) 0.25627(10) 0.52118(9)
C18 C 0.85184(12) 0.20224(10) 0.55670(10)
C19 C 0.87198(13) 0.12631(10) 0.54203(11)
H9 H 0.8420 0.1007 0.5042
C20 C 0.93814(14) 0.09024(11) 0.58549(12)
H10 H 0.9518 0.0393 0.5774
C21 C 0.98487(14) 0.12918(11) 0.64141(12)
H11 H 1.0278 0.1031 0.6704
C22 C 0.96886(13) 0.20558(11) 0.65464(11)
H12 H 1.0021 0.2315 0.6906
C23 C 0.90127(12) 0.24223(10) 0.61218(10)
C24 C 0.86977(12) 0.32088(10) 0.60896(9)
C25 C 0.64673(14) 0.40040(13) 0.65211(10)
H13 H 0.6462 0.4518 0.6711
H14 H 0.7013 0.3745 0.6721
C26 C 0.55814(16) 0.35973(14) 0.67572(13)
H15 H 0.5582 0.3557 0.7285
H16 H 0.5593 0.3086 0.6561
C27 C 0.46781(15) 0.39783(13) 0.65208(12)
H17 H 0.4694 0.4052 0.5996
H18 H 0.4641 0.4475 0.6747
C28 C 0.38031(16) 0.35302(14) 0.67171(13)
H19 H 0.3842 0.3032 0.6506
H20 H 0.3256 0.3787 0.6531
H21 H 0.3757 0.3488 0.7238
B1 B 0.74226(14) 0.39240(11) 0.54044(10)
O2 O 0.6210(3) 0.3842(3) 0.8303(3)
H22 H 0.6490 0.3684 0.8664
H23 H 0.5648 0.3912 0.8386
loop_
_geom_bond_atom_site_label_1
_geom_bond_atom_site_label_2
_geom_bond_site_symmetry_1
_geom_bond_site_symmetry_2
O1 C25 1_555 1_555
N1 C1 1_555 1_555
N2 C8 1_555 1_555
N3 C9 1_555 1_555
N4 C16 1_555 1_555
N5 C17 1_555 1_555
N6 C1 1_555 1_555
C1 C2 1_555 1_555
C2 C3 1_555 1_555
C3 H1 1_555 1_555
C4 C3 1_555 1_555
H2 C4 1_555 1_555
C5 C4 1_555 1_555
H3 C5 1_555 1_555
C6 C5 1_555 1_555
H4 C6 1_555 1_555
C7 C2 1_555 1_555
C8 N1 1_555 1_555
C9 N2 1_555 1_555
C10 C9 1_555 1_555
C11 C10 1_555 1_555
H5 C11 1_555 1_555
C12 C11 1_555 1_555
H6 C12 1_555 1_555
C13 C12 1_555 1_555
H7 C13 1_555 1_555
C14 C13 1_555 1_555
H8 C14 1_555 1_555
C15 C10 1_555 1_555
C16 N3 1_555 1_555
C17 N4 1_555 1_555
C18 C17 1_555 1_555
C19 C18 1_555 1_555
H9 C19 1_555 1_555
C20 C19 1_555 1_555
H10 C20 1_555 1_555
C21 C20 1_555 1_555
H11 C21 1_555 1_555
C22 C21 1_555 1_555
H12 C22 1_555 1_555
C23 C18 1_555 1_555
C24 N5 1_555 1_555
C25 H13 1_555 1_555
H14 C25 1_555 1_555
C26 C25 1_555 1_555
H15 C26 1_555 1_555
H16 C26 1_555 1_555
C27 C26 1_555 1_555
H17 C27 1_555 1_555
H18 C27 1_555 1_555
C28 C27 1_555 1_555
H19 C28 1_555 1_555
H20 C28 1_555 1_555
H21 C28 1_555 1_555
B1 O1 1_555 1_555
O2 H22 1_555 1_555
H23 O2 1_555 1_555
N1 B1 1_555 1_555
N3 B1 1_555 1_555
N5 B1 1_555 1_555
N6 C24 1_555 1_555
C6 C7 1_555 1_555
C7 C8 1_555 1_555
C14 C15 1_555 1_555
C15 C16 1_555 1_555
C22 C23 1_555 1_555
C23 C24 1_555 1_555

#END
