
#######################################################################
#
#                 Cambridge Crystallographic Data Centre
#                                CCDC 
#
#######################################################################
#
# If this CIF has been generated from an entry in the Cambridge 
# Structural Database, then it will include bibliographic, chemical, 
# crystal, experimental, refinement or atomic coordinate data resulting 
# from the CCDC's data processing and validation procedures.
#
#######################################################################

data_FANPIW
_chemical_formula_moiety         'C48 H24 B2 N12 O1,0.56(H2 O1)'
_chemical_name_systematic        
"14d,14d'-oxybis(14dH-5,9c,10,14c,14e,15-hexaaza-14d-boradibenzo[2,3:5,6]-s-indaceno[1,8,7-bcde]fluoranthene) hydrate"
_symmetry_cell_setting           monoclinic
_symmetry_space_group_name_H-M   'C 2/c'
_symmetry_Int_Tables_number      15
_space_group_name_Hall           '-C 2yn'
loop_
_symmetry_equiv_pos_site_id
_symmetry_equiv_pos_as_xyz
1 x,y,z
2 -x,y,1/2-z
3 1/2+x,1/2+y,z
4 1/2-x,1/2+y,1/2-z
5 -x,-y,-z
6 x,-y,1/2+z
7 1/2-x,1/2-y,-z
8 1/2+x,1/2-y,1/2+z
_cell_length_a                   25.711(6)
_cell_length_b                   8.4523(16)
_cell_length_c                   20.757(5)
_cell_angle_alpha                90
_cell_angle_beta                 124.615(2)
_cell_angle_gamma                90
_cell_volume                     3712.37
_exptl_crystal_colour            black
_exptl_crystal_description       plate
_cell_formula_units_Z            4
loop_
_atom_site_label
_atom_site_type_symbol
_atom_site_fract_x
_atom_site_fract_y
_atom_site_fract_z
O1 O 0.5000 0.16213(18) 0.2500
N1 N 0.55666(6) -0.00283(16) 0.37179(7)
N2 N 0.59894(6) 0.20193(17) 0.46749(8)
N3 N 0.60797(6) 0.21476(15) 0.35974(7)
N4 N 0.66262(6) 0.17402(16) 0.29924(8)
N5 N 0.58958(6) -0.01697(15) 0.28680(7)
N6 N 0.56565(6) -0.25377(16) 0.32641(8)
C1 C 0.55529(7) -0.16497(19) 0.37167(9)
C2 C 0.55633(7) -0.2099(2) 0.44022(9)
C3 C 0.55414(8) -0.3569(2) 0.46894(10)
H1 H 0.5482 -0.4515 0.4408
C4 C 0.56098(9) -0.3599(3) 0.54007(11)
H2 H 0.5592 -0.4586 0.5606
C5 C 0.57037(10) -0.2227(3) 0.58219(11)
H3 H 0.5745 -0.2296 0.6306
C6 C 0.57390(8) -0.0760(2) 0.55511(10)
H4 H 0.5814 0.0173 0.5847
C7 C 0.56614(7) -0.0697(2) 0.48317(10)
C8 C 0.57100(7) 0.0606(2) 0.44091(9)
C9 C 0.62101(7) 0.27044(18) 0.42910(9)
C10 C 0.67272(7) 0.38232(19) 0.45772(9)
C11 C 0.70512(8) 0.47706(19) 0.52446(9)
H5 H 0.6925 0.4823 0.5594
C12 C 0.75625(8) 0.5632(2) 0.53826(10)
H6 H 0.7782 0.6309 0.5826
C13 C 0.77633(8) 0.5529(2) 0.48860(11)
H7 H 0.8118 0.6131 0.5001
C14 C 0.74570(8) 0.4569(2) 0.42295(10)
H8 H 0.7602 0.4486 0.3899
C15 C 0.69292(7) 0.37265(19) 0.40680(9)
C16 C 0.65280(7) 0.25621(18) 0.34693(9)
C17 C 0.63324(7) 0.03351(19) 0.27362(9)
C18 C 0.64977(8) -0.1057(2) 0.24749(9)
C19 C 0.68976(9) -0.1280(2) 0.22308(10)
H9 H 0.7111 -0.0409 0.2191
C20 C 0.69771(9) -0.2787(2) 0.20483(11)
H10 H 0.7245 -0.2953 0.1876
C21 C 0.66685(9) -0.4078(2) 0.21137(11)
H11 H 0.6728 -0.5104 0.1978
C22 C 0.62796(8) -0.3897(2) 0.23706(10)
H12 H 0.6077 -0.4781 0.2421
C23 C 0.61947(8) -0.2372(2) 0.25526(9)
C24 C 0.58548(7) -0.17799(19) 0.28735(9)
B1 B 0.55770(8) 0.0932(2) 0.31114(10)
N1A N 0.44334(6) -0.00283(16) 0.12821(7)
N2A N 0.40106(6) 0.20193(17) 0.03251(8)
N3A N 0.39203(6) 0.21476(15) 0.14026(7)
N4A N 0.33738(6) 0.17402(16) 0.20076(8)
N5A N 0.41042(6) -0.01697(15) 0.21320(7)
N6A N 0.43435(6) -0.25377(16) 0.17359(8)
C1A C 0.44471(7) -0.16497(19) 0.12833(9)
C2A C 0.44367(7) -0.2099(2) 0.05978(9)
C3A C 0.44586(8) -0.3569(2) 0.03106(10)
H1A H 0.4518 -0.4515 0.0592
C4A C 0.43902(9) -0.3599(3) -0.04007(11)
H2A H 0.4408 -0.4586 -0.0606
C5A C 0.42963(10) -0.2227(3) -0.08219(11)
H3A H 0.4255 -0.2296 -0.1306
C6A C 0.42610(8) -0.0760(2) -0.05511(10)
H4A H 0.4186 0.0173 -0.0847
C7A C 0.43386(7) -0.0697(2) 0.01683(10)
C8A C 0.42900(7) 0.0606(2) 0.05909(9)
C9A C 0.37899(7) 0.27044(18) 0.07090(9)
C10A C 0.32728(7) 0.38232(19) 0.04228(9)
C11A C 0.29488(8) 0.47706(19) -0.02446(9)
H5A H 0.3075 0.4823 -0.0594
C12A C 0.24375(8) 0.5632(2) -0.03826(10)
H6A H 0.2218 0.6309 -0.0826
C13A C 0.22367(8) 0.5529(2) 0.01140(11)
H7A H 0.1882 0.6131 -0.0001
C14A C 0.25430(8) 0.4569(2) 0.07705(10)
H8A H 0.2398 0.4486 0.1101
C15A C 0.30708(7) 0.37265(19) 0.09320(9)
C16A C 0.34720(7) 0.25621(18) 0.15307(9)
C17A C 0.36676(7) 0.03351(19) 0.22638(9)
C18A C 0.35023(8) -0.1057(2) 0.25251(9)
C19A C 0.31024(9) -0.1280(2) 0.27692(10)
H9A H 0.2889 -0.0409 0.2809
C20A C 0.30229(9) -0.2787(2) 0.29517(11)
H10A H 0.2755 -0.2953 0.3124
C21A C 0.33315(9) -0.4078(2) 0.28863(11)
H11A H 0.3272 -0.5104 0.3022
C22A C 0.37204(8) -0.3897(2) 0.26294(10)
H12A H 0.3923 -0.4781 0.2579
C23A C 0.38053(8) -0.2372(2) 0.24474(9)
C24A C 0.41452(7) -0.17799(19) 0.21265(9)
B1A B 0.44230(8) 0.0932(2) 0.18886(10)
O2 O 0.4928(2) 0.4435(5) 0.3102(3)
H13 H 0.5035 0.3596 0.2988
H14 H 0.5127 0.5262 0.3145
loop_
_geom_bond_atom_site_label_1
_geom_bond_atom_site_label_2
_geom_bond_site_symmetry_1
_geom_bond_site_symmetry_2
O1 B1 1_555 1_555
N1 C1 1_555 1_555
N2 C8 1_555 1_555
N3 C9 1_555 1_555
N4 C16 1_555 1_555
N5 C17 1_555 1_555
N6 C1 1_555 1_555
C1 C2 1_555 1_555
C2 C3 1_555 1_555
C3 H1 1_555 1_555
C4 C3 1_555 1_555
H2 C4 1_555 1_555
C5 C4 1_555 1_555
H3 C5 1_555 1_555
C6 C5 1_555 1_555
H4 C6 1_555 1_555
C7 C2 1_555 1_555
C8 N1 1_555 1_555
C9 N2 1_555 1_555
C10 C9 1_555 1_555
C11 C10 1_555 1_555
H5 C11 1_555 1_555
C12 C11 1_555 1_555
H6 C12 1_555 1_555
C13 C12 1_555 1_555
H7 C13 1_555 1_555
C14 C13 1_555 1_555
H8 C14 1_555 1_555
C15 C10 1_555 1_555
C16 N3 1_555 1_555
C17 N4 1_555 1_555
C18 C17 1_555 1_555
C19 C18 1_555 1_555
H9 C19 1_555 1_555
C20 C19 1_555 1_555
H10 C20 1_555 1_555
C21 C20 1_555 1_555
H11 C21 1_555 1_555
C22 C21 1_555 1_555
H12 C22 1_555 1_555
C23 C18 1_555 1_555
C24 N5 1_555 1_555
B1 N1 1_555 1_555
O2 H13 1_555 1_555
H14 O2 1_555 1_555
N1A C1A 1_555 1_555
N2A C8A 1_555 1_555
N3A C9A 1_555 1_555
N4A C16A 1_555 1_555
N5A C17A 1_555 1_555
N6A C1A 1_555 1_555
C1A C2A 1_555 1_555
C2A C3A 1_555 1_555
C3A H1A 1_555 1_555
C4A C3A 1_555 1_555
H2A C4A 1_555 1_555
C5A C4A 1_555 1_555
H3A C5A 1_555 1_555
C6A C5A 1_555 1_555
H4A C6A 1_555 1_555
C7A C2A 1_555 1_555
C8A N1A 1_555 1_555
C9A N2A 1_555 1_555
C10A C9A 1_555 1_555
C11A C10A 1_555 1_555
H5A C11A 1_555 1_555
C12A C11A 1_555 1_555
H6A C12A 1_555 1_555
C13A C12A 1_555 1_555
H7A C13A 1_555 1_555
C14A C13A 1_555 1_555
H8A C14A 1_555 1_555
C15A C10A 1_555 1_555
C16A N3A 1_555 1_555
C17A N4A 1_555 1_555
C18A C17A 1_555 1_555
C19A C18A 1_555 1_555
H9A C19A 1_555 1_555
C20A C19A 1_555 1_555
H10A C20A 1_555 1_555
C21A C20A 1_555 1_555
H11A C21A 1_555 1_555
C22A C21A 1_555 1_555
H12A C22A 1_555 1_555
C23A C18A 1_555 1_555
C24A N5A 1_555 1_555
B1A O1 1_555 1_555
N3 B1 1_555 1_555
N5 B1 1_555 1_555
N6 C24 1_555 1_555
C6 C7 1_555 1_555
C7 C8 1_555 1_555
C14 C15 1_555 1_555
C15 C16 1_555 1_555
C22 C23 1_555 1_555
C23 C24 1_555 1_555
N1A B1A 1_555 1_555
N3A B1A 1_555 1_555
N5A B1A 1_555 1_555
N6A C24A 1_555 1_555
C6A C7A 1_555 1_555
C7A C8A 1_555 1_555
C14A C15A 1_555 1_555
C15A C16A 1_555 1_555
C22A C23A 1_555 1_555
C23A C24A 1_555 1_555

#END
