
#######################################################################
#
#                 Cambridge Crystallographic Data Centre
#                                CCDC 
#
#######################################################################
#
# If this CIF has been generated from an entry in the Cambridge 
# Structural Database, then it will include bibliographic, chemical, 
# crystal, experimental, refinement or atomic coordinate data resulting 
# from the CCDC's data processing and validation procedures.
#
#######################################################################

data_FANPOC
_chemical_formula_moiety         'C25 H15 B1 N6'
_chemical_name_systematic        
14d-methyl-14dH-5,9c,10,14c,14e,15-hexaaza-14d-boradibenzo[2,3:5,6]-s-indaceno[1,8,7-bcde]fluoranthene
_symmetry_cell_setting           orthorhombic
_symmetry_space_group_name_H-M   'P n m a'
_symmetry_Int_Tables_number      62
_space_group_name_Hall           '-P 2ac 2n'
loop_
_symmetry_equiv_pos_site_id
_symmetry_equiv_pos_as_xyz
1 x,y,z
2 1/2-x,-y,1/2+z
3 -x,1/2+y,-z
4 1/2+x,1/2-y,1/2-z
5 -x,-y,-z
6 1/2+x,y,1/2-z
7 x,1/2-y,z
8 1/2-x,1/2+y,1/2+z
_cell_length_a                   10.537(2)
_cell_length_b                   15.918(3)
_cell_length_c                   11.484(2)
_cell_angle_alpha                90
_cell_angle_beta                 90
_cell_angle_gamma                90
_cell_volume                     1926.19
_exptl_crystal_colour            black
_exptl_crystal_description       block
_cell_formula_units_Z            4
loop_
_atom_site_label
_atom_site_type_symbol
_atom_site_fract_x
_atom_site_fract_y
_atom_site_fract_z
N1 N 0.5833(2) 0.2500 -0.01102(18)
N2 N 0.47858(13) 0.32394(9) 0.14135(12)
N3 N 0.47593(14) 0.39523(9) 0.32353(13)
N4 N 0.42167(19) 0.2500 0.31162(18)
C1 C 0.55314(16) 0.32181(11) 0.04403(14)
C2 C 0.61241(16) 0.40396(11) 0.03591(15)
C3 C 0.69538(17) 0.43898(12) -0.04573(16)
H1 H 0.7184 0.4092 -0.1121
C4 C 0.74220(17) 0.51837(12) -0.02587(17)
H2 H 0.7956 0.5432 -0.0805
C5 C 0.70996(18) 0.56267(12) 0.07679(18)
H3 H 0.7423 0.6164 0.0883
C6 C 0.63104(17) 0.52772(11) 0.16073(16)
H4 H 0.6128 0.5563 0.2293
C7 C 0.58017(16) 0.44870(11) 0.13909(15)
C8 C 0.50041(16) 0.39308(10) 0.20862(15)
C9 C 0.44484(16) 0.32158(11) 0.37365(15)
C10 C 0.46391(16) 0.29485(11) 0.49389(15)
C11 C 0.49405(17) 0.33942(12) 0.59394(15)
H5 H 0.4964 0.3978 0.5938
C12 C 0.52065(19) 0.29392(13) 0.69439(16)
H6 H 0.5388 0.3225 0.7630
C13 C 0.2548(2) 0.2500 0.1434(2)
B1 B 0.3996(3) 0.2500 0.1819(2)
N2F N 0.47858(13) 0.17606(9) 0.14135(12)
N3F N 0.47593(14) 0.10477(9) 0.32353(13)
C1F C 0.55314(16) 0.17819(11) 0.04403(14)
C2F C 0.61241(16) 0.09604(11) 0.03591(15)
C3F C 0.69538(17) 0.06102(12) -0.04573(16)
H1F H 0.7184 0.0908 -0.1121
C4F C 0.74220(17) -0.01837(12) -0.02587(17)
H2F H 0.7956 -0.0432 -0.0805
C5F C 0.70996(18) -0.06267(12) 0.07679(18)
H3F H 0.7423 -0.1164 0.0883
C6F C 0.63104(17) -0.02772(11) 0.16073(16)
H4F H 0.6128 -0.0563 0.2293
C7F C 0.58017(16) 0.05130(11) 0.13909(15)
C8F C 0.50041(16) 0.10692(10) 0.20862(15)
C9F C 0.44484(16) 0.17842(11) 0.37365(15)
C10F C 0.46391(16) 0.20515(11) 0.49389(15)
C11F C 0.49405(17) 0.16058(12) 0.59394(15)
H5F H 0.4964 0.1022 0.5938
C12F C 0.52065(19) 0.20608(13) 0.69439(16)
H6F H 0.5388 0.1775 0.7630
H7? H 0.2160 0.1980 0.1662
H8? H 0.2495 0.2561 0.0604
H9? H 0.2116 0.2959 0.1803
loop_
_geom_bond_atom_site_label_1
_geom_bond_atom_site_label_2
_geom_bond_site_symmetry_1
_geom_bond_site_symmetry_2
N1 C1 1_555 1_555
N2 C1 1_555 1_555
N3 C8 1_555 1_555
N4 C9 1_555 1_555
C1 C2 1_555 1_555
C2 C3 1_555 1_555
C3 H1 1_555 1_555
C4 C3 1_555 1_555
H2 C4 1_555 1_555
C5 C4 1_555 1_555
H3 C5 1_555 1_555
C6 C5 1_555 1_555
H4 C6 1_555 1_555
C7 C2 1_555 1_555
C8 N2 1_555 1_555
C9 N3 1_555 1_555
C10 C9 1_555 1_555
C11 C10 1_555 1_555
H5 C11 1_555 1_555
C12 C11 1_555 1_555
H6 C12 1_555 1_555
C13 B1 1_555 1_555
B1 N2 1_555 1_555
N2F B1 1_555 1_555
N3F C8F 1_555 1_555
C1F N1 1_555 1_555
C2F C1F 1_555 1_555
C3F C2F 1_555 1_555
H1F C3F 1_555 1_555
C4F C3F 1_555 1_555
H2F C4F 1_555 1_555
C5F C4F 1_555 1_555
H3F C5F 1_555 1_555
C6F C5F 1_555 1_555
H4F C6F 1_555 1_555
C7F C2F 1_555 1_555
C8F N2F 1_555 1_555
C9F N4 1_555 1_555
C10F C10 1_555 1_555
C11F C10F 1_555 1_555
H5F C11F 1_555 1_555
C12F C12 1_555 1_555
H6F C12F 1_555 1_555
N4 B1 1_555 1_555
C6 C7 1_555 1_555
C7 C8 1_555 1_555
N2F C1F 1_555 1_555
N3F C9F 1_555 1_555
C6F C7F 1_555 1_555
C7F C8F 1_555 1_555
C9F C10F 1_555 1_555
C11F C12F 1_555 1_555

#END
