
#######################################################################
#
#                 Cambridge Crystallographic Data Centre
#                                CCDC 
#
#######################################################################
#
# If this CIF has been generated from an entry in the Cambridge 
# Structural Database, then it will include bibliographic, chemical, 
# crystal, experimental, refinement or atomic coordinate data resulting 
# from the CCDC's data processing and validation procedures.
#
#######################################################################

data_FANQET
_chemical_formula_moiety         'C27 H21 B1 N6 O1 Si1,0.5(C2 H6 O1),0.5(H2 O1)'
_chemical_name_systematic        
'14d-[(trimethylsilyl)oxy]-14dH-5,9c,10,14c,14e,15-hexaaza-14d-boradibenzo[2,3:5,6]-s-indaceno[1,8,7-bcde]fluoranthene ethanol solvate  hemihydrate'
_symmetry_cell_setting           triclinic
_symmetry_space_group_name_H-M   'P -1'
_symmetry_Int_Tables_number      2
_space_group_name_Hall           '-P 1'
loop_
_symmetry_equiv_pos_site_id
_symmetry_equiv_pos_as_xyz
1 x,y,z
2 -x,-y,-z
_cell_length_a                   11.329(3)
_cell_length_b                   12.492(3)
_cell_length_c                   19.268(5)
_cell_angle_alpha                80.125(8)
_cell_angle_beta                 73.867(6)
_cell_angle_gamma                88.177(10)
_cell_volume                     2580.29
_exptl_crystal_colour            red
_exptl_crystal_description       plate
_cell_formula_units_Z            4
loop_
_atom_site_label
_atom_site_type_symbol
_atom_site_fract_x
_atom_site_fract_y
_atom_site_fract_z
Si1 Si 0.80174(6) 0.95651(5) -0.03351(4)
O1 O 0.83956(14) 0.84514(13) 0.01376(9)
N1 N 0.82763(16) 0.65852(15) 0.08183(10)
N2 N 0.66779(17) 0.58398(16) 0.04566(10)
N3 N 0.64349(16) 0.75281(15) 0.08889(10)
N4 N 0.57812(17) 0.86465(15) 0.18044(11)
N5 N 0.78232(16) 0.80207(15) 0.14914(10)
N6 N 0.93686(16) 0.67694(15) 0.16839(11)
C1 C 0.7602(5) 1.0643(3) 0.0234(2)
H1 H 0.6891 1.0416 0.0635
H2 H 0.7425 1.1298 -0.0059
H3 H 0.8276 1.0777 0.0421
C2 C 0.90923(19) 0.62191(18) 0.12062(12)
C3 C 0.6697(4) 0.9289(3) -0.0663(2)
H4 H 0.6895 0.8715 -0.0948
H5 H 0.6510 0.9934 -0.0962
H6 H 0.5997 0.9074 -0.0251
C4 C 0.9329(2) 0.50932(18) 0.11068(12)
C5 C 1.0112(2) 0.43201(19) 0.13461(14)
H7 H 1.0608 0.4484 0.1627
C6 C 1.0125(2) 0.3308(2) 0.11518(15)
H8 H 1.0669 0.2793 0.1285
C7 C 0.9338(2) 0.3030(2) 0.07572(14)
H9 H 0.9377 0.2342 0.0630
C8 C 0.8508(2) 0.3769(2) 0.05556(13)
H10 H 0.7955 0.3573 0.0320
C9 C 0.8520(2) 0.48158(18) 0.07149(12)
C10 C 0.7781(2) 0.57667(18) 0.05911(12)
C11 C 0.5993(2) 0.66920(19) 0.06580(12)
C12 C 0.4661(2) 0.68029(19) 0.08648(12)
C13 C 0.3721(2) 0.6192(2) 0.07756(14)
H11 H 0.3890 0.5641 0.0495
C14 C 0.2524(2) 0.6440(2) 0.11218(14)
H12 H 0.1880 0.6056 0.1061
C15 C 0.2255(2) 0.7249(2) 0.15591(14)
H13 H 0.1440 0.7380 0.1791
C16 C 0.3178(2) 0.7856(2) 0.16528(13)
H14 H 0.2997 0.8391 0.1946
C17 C 0.4386(2) 0.76442(19) 0.12955(12)
C18 C 0.5552(2) 0.80578(18) 0.13330(12)
C19 C 0.6913(2) 0.85728(18) 0.19037(13)
C20 C 0.7354(2) 0.87768(18) 0.25127(13)
C21 C 0.6884(2) 0.9358(2) 0.30784(15)
H15 H 0.6160 0.9741 0.3108
C22 C 0.7514(3) 0.9356(2) 0.35965(17)
H16 H 0.7215 0.9752 0.3974
C23 C 0.8596(3) 0.8768(2) 0.35647(15)
H17 H 0.8999 0.8776 0.3924
C24 C 0.9074(2) 0.8178(2) 0.30105(14)
H18 H 0.9789 0.7785 0.2993
C25 C 0.8457(2) 0.81866(18) 0.24769(13)
C26 C 0.86818(19) 0.76341(18) 0.18448(12)
C27 C 0.9377(3) 0.9984(3) -0.1115(2)
H19 H 1.0042 1.0168 -0.0935
H20 H 0.9182 1.0605 -0.1430
H21 H 0.9616 0.9397 -0.1385
B1 B 0.7784(2) 0.7720(2) 0.07702(14)
Si2 Si 0.20393(6) 1.00930(6) 0.36450(4)
O2 O 0.15439(16) 0.88365(14) 0.38496(10)
N7 N 0.08040(18) 0.70135(16) 0.44064(11)
N8 N 0.01581(18) 0.71847(16) 0.56578(11)
N9 N 0.21515(18) 0.77874(16) 0.49176(11)
N10 N 0.42905(18) 0.75479(17) 0.44251(12)
N11 N 0.28815(18) 0.72306(16) 0.37674(11)
N12 N 0.15922(18) 0.60997(16) 0.34021(11)
C28 C 0.0652(2) 0.63445(19) 0.39541(13)
C29 C -0.0588(2) 0.58792(19) 0.42860(13)
C30 C -0.1318(2) 0.5244(2) 0.40346(14)
H22 H -0.1022 0.5001 0.3589
C31 C -0.2507(2) 0.4988(2) 0.44749(15)
H23 H -0.3021 0.4581 0.4315
C32 C -0.2942(2) 0.5330(2) 0.51504(15)
H24 H -0.3743 0.5148 0.5430
C33 C -0.2217(2) 0.5932(2) 0.54169(14)
H25 H -0.2511 0.6139 0.5875
C34 C -0.1034(2) 0.62197(19) 0.49799(13)
C35 C -0.0061(2) 0.68832(19) 0.50662(13)
C36 C 0.1297(2) 0.75619(19) 0.55844(13)
C37 C 0.1973(2) 0.7576(2) 0.61282(14)
C38 C 0.1613(3) 0.7408(2) 0.68929(15)
H26 H 0.0790 0.7300 0.7154
C39 C 0.2516(3) 0.7407(2) 0.72535(16)
H27 H 0.2289 0.7310 0.7763
C40 C 0.3761(3) 0.7547(2) 0.68680(16)
H28 H 0.4344 0.7542 0.7126
C41 C 0.4139(2) 0.7692(2) 0.61149(15)
H29 H 0.4968 0.7774 0.5861
C42 C 0.3238(2) 0.7714(2) 0.57424(14)
C43 C 0.3329(2) 0.77583(19) 0.49730(14)
C44 C 0.4047(2) 0.72182(19) 0.38523(13)
C45 C 0.4760(2) 0.6558(2) 0.33440(13)
C46 C 0.5993(2) 0.6275(2) 0.31816(14)
H30 H 0.6531 0.6560 0.3393
C47 C 0.6392(2) 0.5559(2) 0.26982(15)
H31 H 0.7215 0.5367 0.2577
C48 C 0.5585(3) 0.5114(2) 0.23853(15)
H32 H 0.5883 0.4635 0.2059
C49 C 0.4350(2) 0.5375(2) 0.25521(14)
H33 H 0.3816 0.5070 0.2347
C50 C 0.3936(2) 0.6098(2) 0.30310(13)
C51 C 0.2712(2) 0.6493(2) 0.33561(13)
C52 C 0.3681(3) 1.0139(3) 0.3175(3)
H34 H 0.4115 0.9718 0.3488
H35 H 0.3974 1.0879 0.3060
H36 H 0.3816 0.9846 0.2731
C53 C 0.1823(5) 1.0657(4) 0.4503(3)
H37 H 0.0973 1.0589 0.4779
H38 H 0.2067 1.1411 0.4383
H39 H 0.2316 1.0264 0.4790
C54 C 0.1128(3) 1.0848(2) 0.30710(19)
H40 H 0.1244 1.0540 0.2633
H41 H 0.1390 1.1596 0.2942
H42 H 0.0274 1.0800 0.3339
B2 B 0.1843(2) 0.7829(2) 0.42021(16)
O3 O 0.6347(3) 0.7056(2) 0.76223(15)
H43 H 0.7030 0.6817 0.7454
C55 C 0.4895(4) 0.7408(5) 0.8696(2)
H44 H 0.4290 0.7057 0.8545
H45 H 0.4887 0.8178 0.8532
H46 H 0.4710 0.7262 0.9221
C56 C 0.6119(6) 0.6990(4) 0.8375(3)
H47 H 0.6666 0.6717 0.8640
O4 O 0.86213(19) 0.60213(18) 0.70891(11)
H48 H 0.9032 0.6397 0.6713
H49 H 0.8642 0.5406 0.6991
loop_
_geom_bond_atom_site_label_1
_geom_bond_atom_site_label_2
_geom_bond_site_symmetry_1
_geom_bond_site_symmetry_2
Si1 O1 1_555 1_555
O1 B1 1_555 1_555
N1 C2 1_555 1_555
N2 C10 1_555 1_555
N3 C11 1_555 1_555
N4 C18 1_555 1_555
N5 C19 1_555 1_555
N6 C2 1_555 1_555
C1 Si1 1_555 1_555
H1 C1 1_555 1_555
H2 C1 1_555 1_555
H3 C1 1_555 1_555
C2 C4 1_555 1_555
C3 Si1 1_555 1_555
H4 C3 1_555 1_555
H5 C3 1_555 1_555
H6 C3 1_555 1_555
C4 C5 1_555 1_555
C5 H7 1_555 1_555
C6 C5 1_555 1_555
H8 C6 1_555 1_555
C7 C6 1_555 1_555
H9 C7 1_555 1_555
C8 C7 1_555 1_555
H10 C8 1_555 1_555
C9 C4 1_555 1_555
C10 N1 1_555 1_555
C11 N2 1_555 1_555
C12 C11 1_555 1_555
C13 C12 1_555 1_555
H11 C13 1_555 1_555
C14 C13 1_555 1_555
H12 C14 1_555 1_555
C15 C14 1_555 1_555
H13 C15 1_555 1_555
C16 C15 1_555 1_555
H14 C16 1_555 1_555
C17 C12 1_555 1_555
C18 N3 1_555 1_555
C19 N4 1_555 1_555
C20 C19 1_555 1_555
C21 C20 1_555 1_555
H15 C21 1_555 1_555
C22 C21 1_555 1_555
H16 C22 1_555 1_555
C23 C22 1_555 1_555
H17 C23 1_555 1_555
C24 C23 1_555 1_555
H18 C24 1_555 1_555
C25 C20 1_555 1_555
C26 N5 1_555 1_555
C27 Si1 1_555 1_555
H19 C27 1_555 1_555
H20 C27 1_555 1_555
H21 C27 1_555 1_555
B1 N1 1_555 1_555
Si2 O2 1_555 1_555
O2 B2 1_555 1_555
N7 C28 1_555 1_555
N8 C35 1_555 1_555
N9 C36 1_555 1_555
N10 C43 1_555 1_555
N11 C44 1_555 1_555
N12 C28 1_555 1_555
C28 C29 1_555 1_555
C29 C30 1_555 1_555
C30 H22 1_555 1_555
C31 C30 1_555 1_555
H23 C31 1_555 1_555
C32 C31 1_555 1_555
H24 C32 1_555 1_555
C33 C32 1_555 1_555
H25 C33 1_555 1_555
C34 C29 1_555 1_555
C35 N7 1_555 1_555
C36 N8 1_555 1_555
C37 C36 1_555 1_555
C38 C37 1_555 1_555
H26 C38 1_555 1_555
C39 C38 1_555 1_555
H27 C39 1_555 1_555
C40 C39 1_555 1_555
H28 C40 1_555 1_555
C41 C40 1_555 1_555
H29 C41 1_555 1_555
C42 C37 1_555 1_555
C43 N9 1_555 1_555
C44 N10 1_555 1_555
C45 C44 1_555 1_555
C46 C45 1_555 1_555
H30 C46 1_555 1_555
C47 C46 1_555 1_555
H31 C47 1_555 1_555
C48 C47 1_555 1_555
H32 C48 1_555 1_555
C49 C48 1_555 1_555
H33 C49 1_555 1_555
C50 C45 1_555 1_555
C51 N11 1_555 1_555
C52 Si2 1_555 1_555
H34 C52 1_555 1_555
H35 C52 1_555 1_555
H36 C52 1_555 1_555
C53 Si2 1_555 1_555
H37 C53 1_555 1_555
H38 C53 1_555 1_555
H39 C53 1_555 1_555
C54 Si2 1_555 1_555
H40 C54 1_555 1_555
H41 C54 1_555 1_555
H42 C54 1_555 1_555
B2 N7 1_555 1_555
O3 H43 1_555 1_555
C55 H44 1_555 1_555
H45 C55 1_555 1_555
H46 C55 1_555 1_555
C56 O3 1_555 1_555
H47 C56 1_555 1_555
O4 H48 1_555 1_555
H49 O4 1_555 1_555
N3 B1 1_555 1_555
N5 B1 1_555 1_555
N6 C26 1_555 1_555
C8 C9 1_555 1_555
C9 C10 1_555 1_555
C16 C17 1_555 1_555
C17 C18 1_555 1_555
C24 C25 1_555 1_555
C25 C26 1_555 1_555
N9 B2 1_555 1_555
N11 B2 1_555 1_555
N12 C51 1_555 1_555
C33 C34 1_555 1_555
C34 C35 1_555 1_555
C41 C42 1_555 1_555
C42 C43 1_555 1_555
C49 C50 1_555 1_555
C50 C51 1_555 1_555
C55 C56 1_555 1_555

#END
