
#######################################################################
#
#                 Cambridge Crystallographic Data Centre
#                                CCDC 
#
#######################################################################
#
# If this CIF has been generated from an entry in the Cambridge 
# Structural Database, then it will include bibliographic, chemical, 
# crystal, experimental, refinement or atomic coordinate data resulting 
# from the CCDC's data processing and validation procedures.
#
#######################################################################

data_FANZOM
_chemical_name_common            
'tetraethylammonium 5,17-dimethoxy-11-sulfato-2,8,14,20-tetraoxacalix[2]arene[2]triazine'
_chemical_formula_moiety         'C8 H20 N1 1+,C20 H13 N6 O10 S1 1-'
_chemical_name_systematic        
'tetraethylammonium 5,17-dimethoxy-2,8,14,20-tetraoxa-4,6,16,18,26,28-hexaazapentacyclo[19.3.1.1^3,7^.1^9,13^.1^15,19^]octacosa-1(25),3(28),4,6,9(27),10,12,15(26),16,18,21,23-dodecaen-11-yl sulfate'
_symmetry_cell_setting           monoclinic
_symmetry_space_group_name_H-M   'P 21/n'
_symmetry_Int_Tables_number      14
_space_group_name_Hall           '-P 2yn'
loop_
_symmetry_equiv_pos_site_id
_symmetry_equiv_pos_as_xyz
1 x,y,z
2 1/2-x,1/2+y,1/2-z
3 -x,-y,-z
4 1/2+x,1/2-y,1/2+z
_cell_length_a                   11.585(2)
_cell_length_b                   18.121(3)
_cell_length_c                   14.653(3)
_cell_angle_alpha                90
_cell_angle_beta                 99.339(3)
_cell_angle_gamma                90
_cell_volume                     3035.36
_exptl_crystal_colour            colorless
_exptl_crystal_description       Plate
_cell_formula_units_Z            4
loop_
_atom_site_label
_atom_site_type_symbol
_atom_site_fract_x
_atom_site_fract_y
_atom_site_fract_z
S1 S 0.10909(7) 0.84453(4) 0.31548(5)
O1 O 0.2877(2) 0.61057(11) 0.51028(14)
O2 O 0.4133(2) 0.37657(12) 0.55985(17)
O3 O 0.27375(19) 0.49310(11) 0.78647(14)
O4 O 0.2287(2) 0.72453(12) 0.93694(14)
O5 O 0.47975(18) 0.91639(11) 0.97710(14)
O6 O 0.35880(18) 0.83553(11) 0.69077(13)
O7 O 0.07447(18) 0.82873(12) 0.41875(14)
O8 O 0.1110(3) 0.77317(16) 0.27337(18)
O9 O 0.0131(2) 0.88969(13) 0.27524(16)
O10 O 0.2191(2) 0.8818(2) 0.3344(2)
N1 N 0.3475(2) 0.49507(14) 0.53023(18)
N2 N 0.3484(2) 0.43546(13) 0.67541(19)
N3 N 0.2717(2) 0.55751(13) 0.65078(16)
N4 N 0.2899(2) 0.77327(12) 0.80798(16)
N5 N 0.3533(2) 0.81836(13) 0.96113(16)
N6 N 0.4237(2) 0.87460(13) 0.83367(16)
C1 C 0.3024(2) 0.55290(15) 0.56802(19)
C2 C 0.3679(2) 0.43802(16) 0.5881(2)
C3 C 0.2987(2) 0.49641(15) 0.7003(2)
C4 C 0.4160(3) 0.3693(2) 0.4616(3)
H1 H 0.3377 0.3709 0.4281
H2 H 0.4516 0.3231 0.4500
H3 H 0.4607 0.4090 0.4416
C5 C 0.2020(3) 0.54936(15) 0.81403(19)
C6 C 0.0840(3) 0.53580(17) 0.8053(2)
H4 H 0.0523 0.4922 0.7786
C7 C 0.0133(3) 0.58834(19) 0.8371(2)
H5 H -0.0670 0.5805 0.8309
C8 C 0.0622(3) 0.65289(17) 0.8782(2)
H6 H 0.0153 0.6882 0.9002
C9 C 0.1810(3) 0.66337(15) 0.88570(19)
C10 C 0.2543(3) 0.61247(16) 0.85374(19)
H7 H 0.3344 0.6205 0.8588
C11 C 0.2937(2) 0.77343(15) 0.89895(19)
C12 C 0.4167(2) 0.86745(14) 0.92323(19)
C13 C 0.3570(2) 0.82605(14) 0.78094(19)
C14 C 0.4787(3) 0.91157(19) 1.0757(2)
H8 H 0.3994 0.9117 1.0869
H9 H 0.5197 0.9531 1.1062
H10 H 0.5165 0.8667 1.0993
C15 C 0.2925(2) 0.79148(15) 0.62257(18)
C16 C 0.2138(2) 0.82965(15) 0.55827(19)
H11 H 0.2002 0.8797 0.5657
C17 C 0.1559(2) 0.79139(16) 0.48276(19)
C18 C 0.1775(2) 0.71693(16) 0.47092(19)
H12 H 0.1385 0.6912 0.4202
C19 C 0.2587(3) 0.68193(15) 0.53647(19)
C20 C 0.3181(2) 0.71738(15) 0.61383(18)
H13 H 0.3721 0.6929 0.6573
N7 N 0.8022(2) 0.88866(14) 0.68112(17)
C21 C 0.8316(4) 0.8094(2) 0.6612(3)
H14 H 0.8372 0.8051 0.5961
H15 H 0.7677 0.7781 0.6729
C22 C 0.9443(7) 0.7810(3) 0.7176(4)
H16 H 1.0091 0.8092 0.7031
H17 H 0.9546 0.7300 0.7030
H18 H 0.9405 0.7857 0.7822
C23 C 0.6988(3) 0.91341(19) 0.6117(2)
H19 H 0.6858 0.9655 0.6211
H20 H 0.7180 0.9076 0.5501
C24 C 0.5866(4) 0.8724(3) 0.6164(3)
H21 H 0.5246 0.8932 0.5725
H22 H 0.5676 0.8766 0.6775
H23 H 0.5963 0.8213 0.6021
C25 C 0.7750(4) 0.8933(2) 0.7790(2)
H24 H 0.7208 0.8541 0.7875
H25 H 0.8467 0.8846 0.8220
C26 C 0.7235(4) 0.9657(2) 0.8038(2)
H26 H 0.6513 0.9745 0.7629
H27 H 0.7774 1.0049 0.7978
H28 H 0.7091 0.9636 0.8664
C27 C 0.9037(3) 0.9393(2) 0.6740(3)
H29 H 0.9702 0.9234 0.7185
H30 H 0.8831 0.9887 0.6915
C28 C 0.9408(4) 0.9434(3) 0.5796(4)
H31 H 0.8772 0.9619 0.5353
H32 H 0.9619 0.8950 0.5614
H33 H 1.0068 0.9758 0.5824
loop_
_geom_bond_atom_site_label_1
_geom_bond_atom_site_label_2
_geom_bond_site_symmetry_1
_geom_bond_site_symmetry_2
S1 O7 1_555 1_555
O1 C1 1_555 1_555
O2 C2 1_555 1_555
O3 C3 1_555 1_555
O4 C9 1_555 1_555
O5 C12 1_555 1_555
O6 C13 1_555 1_555
O7 C17 1_555 1_555
O8 S1 1_555 1_555
O9 S1 1_555 1_555
O10 S1 1_555 1_555
N1 C1 1_555 1_555
N2 C2 1_555 1_555
N3 C1 1_555 1_555
N4 C11 1_555 1_555
N5 C11 1_555 1_555
N6 C12 1_555 1_555
C2 N1 1_555 1_555
C3 N2 1_555 1_555
C4 O2 1_555 1_555
H1 C4 1_555 1_555
H2 C4 1_555 1_555
H3 C4 1_555 1_555
C5 O3 1_555 1_555
C6 C5 1_555 1_555
H4 C6 1_555 1_555
C7 C6 1_555 1_555
H5 C7 1_555 1_555
C8 C7 1_555 1_555
H6 C8 1_555 1_555
C9 C8 1_555 1_555
C10 C5 1_555 1_555
H7 C10 1_555 1_555
C11 O4 1_555 1_555
C12 N5 1_555 1_555
C13 N4 1_555 1_555
C14 O5 1_555 1_555
H8 C14 1_555 1_555
H9 C14 1_555 1_555
H10 C14 1_555 1_555
C15 O6 1_555 1_555
C16 C15 1_555 1_555
H11 C16 1_555 1_555
C17 C16 1_555 1_555
C18 C17 1_555 1_555
H12 C18 1_555 1_555
C19 O1 1_555 1_555
C20 C15 1_555 1_555
H13 C20 1_555 1_555
N7 C21 1_555 1_555
C21 H14 1_555 1_555
H15 C21 1_555 1_555
C22 C21 1_555 1_555
H16 C22 1_555 1_555
H17 C22 1_555 1_555
H18 C22 1_555 1_555
C23 N7 1_555 1_555
H19 C23 1_555 1_555
H20 C23 1_555 1_555
C24 C23 1_555 1_555
H21 C24 1_555 1_555
H22 C24 1_555 1_555
H23 C24 1_555 1_555
C25 N7 1_555 1_555
H24 C25 1_555 1_555
H25 C25 1_555 1_555
C26 C25 1_555 1_555
H26 C26 1_555 1_555
H27 C26 1_555 1_555
H28 C26 1_555 1_555
C27 N7 1_555 1_555
H29 C27 1_555 1_555
H30 C27 1_555 1_555
C28 C27 1_555 1_555
H31 C28 1_555 1_555
H32 C28 1_555 1_555
H33 C28 1_555 1_555
N3 C3 1_555 1_555
N6 C13 1_555 1_555
C9 C10 1_555 1_555
C18 C19 1_555 1_555
C19 C20 1_555 1_555

#END
