
#######################################################################
#
#                 Cambridge Crystallographic Data Centre
#                                CCDC 
#
#######################################################################
#
# If this CIF has been generated from an entry in the Cambridge 
# Structural Database, then it will include bibliographic, chemical, 
# crystal, experimental, refinement or atomic coordinate data resulting 
# from the CCDC's data processing and validation procedures.
#
#######################################################################

data_FAPDEH
_chemical_formula_moiety         'C52 H76 Mg1 N10 O2'
_chemical_name_systematic        
bis(2-(2H-Benzotriazol-2-yl)-6-(((2-(dimethylamino)ethyl)(methyl)amino)methyl)-4-(2,4,4-trimethylpentan-2-yl)phenolato-N,N',O)-magnesium(ii)
_symmetry_cell_setting           monoclinic
_symmetry_space_group_name_H-M   'C 2/c'
_symmetry_Int_Tables_number      15
_space_group_name_Hall           '-C 2yn'
loop_
_symmetry_equiv_pos_site_id
_symmetry_equiv_pos_as_xyz
1 x,y,z
2 -x,y,1/2-z
3 1/2+x,1/2+y,z
4 1/2-x,1/2+y,1/2-z
5 -x,-y,-z
6 x,-y,1/2+z
7 1/2-x,1/2-y,-z
8 1/2+x,1/2-y,1/2+z
_cell_length_a                   23.2246(16)
_cell_length_b                   8.3575(5)
_cell_length_c                   27.7372(16)
_cell_angle_alpha                90
_cell_angle_beta                 105.400(4)
_cell_angle_gamma                90
_cell_volume                     5190.48
_exptl_crystal_colour            yellow
_exptl_crystal_description       block
_cell_formula_units_Z            4
loop_
_atom_site_label
_atom_site_type_symbol
_atom_site_fract_x
_atom_site_fract_y
_atom_site_fract_z
Mg1 Mg 1.0000 0.25305(19) 0.2500
O1 O 0.92500(12) 0.2359(3) 0.19950(8)
N1 N 0.83990(16) 0.5194(4) 0.12002(11)
N2 N 0.82824(15) 0.3727(4) 0.13395(11)
N3 N 0.79288(16) 0.3607(4) 0.16467(12)
N4 N 1.03852(15) 0.0830(3) 0.19890(11)
N5 N 1.04230(16) 0.4359(4) 0.20685(11)
C1 C 0.90729(17) 0.1749(4) 0.15424(12)
C2 C 0.85767(17) 0.2350(4) 0.11927(13)
C3 C 0.83809(18) 0.1821(5) 0.07006(13)
H1 H 0.8034 0.2277 0.0482
C4 C 0.86901(19) 0.0634(5) 0.05287(13)
C5 C 0.91865(19) -0.0016(4) 0.08746(13)
H2 H 0.9402 -0.0847 0.0766
C6 C 0.93823(17) 0.0489(4) 0.13702(13)
C7 C 0.80887(17) 0.6140(5) 0.14372(14)
C8 C 0.8049(2) 0.7835(5) 0.14459(15)
H3 H 0.8241 0.8493 0.1256
C9 C 0.7719(2) 0.8469(6) 0.17413(17)
H4 H 0.7687 0.9599 0.1762
C10 C 0.7423(2) 0.7474(7) 0.20185(18)
H5 H 0.7195 0.7966 0.2216
C11 C 0.7455(2) 0.5851(6) 0.20109(18)
H6 H 0.7253 0.5208 0.2197
C12 C 0.78016(19) 0.5156(5) 0.17129(15)
C13 C 0.8499(2) 0.0059(6) -0.00177(14)
C14 C 0.8942(3) -0.1122(6) -0.01427(17)
H7 H 0.8944 -0.2115 0.0045
H8 H 0.9343 -0.0652 -0.0051
H9 H 0.8824 -0.1354 -0.0502
C15 C 0.7899(3) -0.0807(8) -0.0085(2)
H10 H 0.7950 -0.1702 0.0150
H11 H 0.7761 -0.1214 -0.0428
H12 H 0.7603 -0.0058 -0.0022
C16 C 0.8357(2) 0.1514(6) -0.03828(15)
H13 H 0.8163 0.1075 -0.0718
H14 H 0.8051 0.2160 -0.0282
C17 C 0.8836(3) 0.2690(6) -0.04523(18)
C18 C 0.8516(4) 0.4116(8) -0.0752(2)
H15 H 0.8323 0.4751 -0.0543
H16 H 0.8214 0.3728 -0.1047
H17 H 0.8807 0.4782 -0.0859
C19 C 0.9238(3) 0.3317(9) 0.0029(2)
H18 H 0.8997 0.3845 0.0223
H19 H 0.9521 0.4088 -0.0046
H20 H 0.9459 0.2426 0.0223
C20 C 0.9224(4) 0.1954(9) -0.0766(3)
H21 H 0.9539 0.1299 -0.0550
H22 H 0.9405 0.2810 -0.0917
H23 H 0.8975 0.1282 -0.1029
C21 C 0.99187(19) -0.0290(4) 0.17130(13)
H24 H 0.9784 -0.0950 0.1959
H25 H 1.0100 -0.1020 0.1513
C22 C 1.09001(19) -0.0117(4) 0.22810(15)
H26 H 1.1059 -0.0773 0.2053
H27 H 1.0770 -0.0814 0.2516
H28 H 1.1212 0.0608 0.2467
C23 C 1.05931(19) 0.1873(4) 0.16363(13)
H29 H 1.0252 0.2152 0.1349
H30 H 1.0894 0.1299 0.1507
C24 C 1.08654(19) 0.3382(4) 0.19035(15)
H31 H 1.1194 0.3088 0.2198
H32 H 1.1038 0.4026 0.1676
C25 C 1.0757(2) 0.5623(5) 0.23942(17)
H33 H 1.1024 0.6161 0.2225
H34 H 1.0993 0.5148 0.2707
H35 H 1.0476 0.6403 0.2467
C26 C 0.9998(2) 0.5096(5) 0.16310(16)
H36 H 1.0218 0.5763 0.1450
H37 H 0.9712 0.5760 0.1745
H38 H 0.9784 0.4254 0.1409
O1A O 1.07500(12) 0.2359(3) 0.30050(8)
N1A N 1.16010(16) 0.5194(4) 0.37998(11)
N2A N 1.17176(15) 0.3727(4) 0.36605(11)
N3A N 1.20712(16) 0.3607(4) 0.33533(12)
N4A N 0.96148(15) 0.0830(3) 0.30110(11)
N5A N 0.95770(16) 0.4359(4) 0.29315(11)
C1A C 1.09271(17) 0.1749(4) 0.34576(12)
C2A C 1.14233(17) 0.2350(4) 0.38073(13)
C3A C 1.16191(18) 0.1821(5) 0.42994(13)
H1A H 1.1966 0.2277 0.4518
C4A C 1.13099(19) 0.0634(5) 0.44713(13)
C5A C 1.08135(19) -0.0016(4) 0.41254(13)
H2A H 1.0598 -0.0847 0.4234
C6A C 1.06177(17) 0.0489(4) 0.36298(13)
C7A C 1.19113(17) 0.6140(5) 0.35628(14)
C8A C 1.1951(2) 0.7835(5) 0.35541(15)
H3A H 1.1759 0.8493 0.3744
C9A C 1.2281(2) 0.8469(6) 0.32587(17)
H4A H 1.2313 0.9599 0.3238
C10A C 1.2577(2) 0.7474(7) 0.29815(18)
H5A H 1.2805 0.7966 0.2784
C11A C 1.2545(2) 0.5851(6) 0.29891(18)
H6A H 1.2747 0.5208 0.2803
C12A C 1.21984(19) 0.5156(5) 0.32871(15)
C13A C 1.1501(2) 0.0059(6) 0.50177(14)
C14A C 1.1058(3) -0.1122(6) 0.51427(17)
H7A H 1.1056 -0.2115 0.4955
H8A H 1.0657 -0.0652 0.5051
H9A H 1.1176 -0.1354 0.5502
C15A C 1.2101(3) -0.0807(8) 0.5085(2)
H10A H 1.2050 -0.1702 0.4850
H11A H 1.2239 -0.1214 0.5428
H12A H 1.2397 -0.0058 0.5022
C16A C 1.1643(2) 0.1514(6) 0.53828(15)
H13A H 1.1837 0.1075 0.5718
H14A H 1.1949 0.2160 0.5282
C17A C 1.1164(3) 0.2690(6) 0.54523(18)
C18A C 1.1484(4) 0.4116(8) 0.5752(2)
H15A H 1.1677 0.4751 0.5543
H16A H 1.1786 0.3728 0.6047
H17A H 1.1193 0.4782 0.5859
C19A C 1.0762(3) 0.3317(9) 0.4971(2)
H18A H 1.1003 0.3845 0.4777
H19A H 1.0479 0.4088 0.5046
H20A H 1.0541 0.2426 0.4777
C20A C 1.0776(4) 0.1954(9) 0.5766(3)
H21A H 1.0461 0.1299 0.5550
H22A H 1.0595 0.2810 0.5917
H23A H 1.1025 0.1282 0.6029
C21A C 1.00813(19) -0.0290(4) 0.32870(13)
H24A H 1.0216 -0.0950 0.3041
H25A H 0.9900 -0.1020 0.3487
C22A C 0.90999(19) -0.0117(4) 0.27190(15)
H26A H 0.8941 -0.0773 0.2947
H27A H 0.9230 -0.0814 0.2484
H28A H 0.8788 0.0608 0.2533
C23A C 0.94069(19) 0.1873(4) 0.33637(13)
H29A H 0.9748 0.2152 0.3651
H30A H 0.9106 0.1299 0.3493
C24A C 0.91346(19) 0.3382(4) 0.30965(15)
H31A H 0.8806 0.3088 0.2802
H32A H 0.8962 0.4026 0.3324
C25A C 0.9243(2) 0.5623(5) 0.26058(17)
H33A H 0.8976 0.6161 0.2775
H34A H 0.9007 0.5148 0.2293
H35A H 0.9524 0.6403 0.2533
C26A C 1.0002(2) 0.5096(5) 0.33690(16)
H36A H 0.9782 0.5763 0.3550
H37A H 1.0288 0.5760 0.3255
H38A H 1.0216 0.4254 0.3591
loop_
_geom_bond_atom_site_label_1
_geom_bond_atom_site_label_2
_geom_bond_site_symmetry_1
_geom_bond_site_symmetry_2
Mg1 O1 1_555 1_555
O1 C1 1_555 1_555
N1 N2 1_555 1_555
N2 N3 1_555 1_555
N3 C12 1_555 1_555
N4 Mg1 1_555 1_555
N5 Mg1 1_555 1_555
C1 C2 1_555 1_555
C2 N2 1_555 1_555
C3 C2 1_555 1_555
H1 C3 1_555 1_555
C4 C3 1_555 1_555
C5 C4 1_555 1_555
H2 C5 1_555 1_555
C6 C1 1_555 1_555
C7 N1 1_555 1_555
C8 C7 1_555 1_555
H3 C8 1_555 1_555
C9 C8 1_555 1_555
H4 C9 1_555 1_555
C10 C9 1_555 1_555
H5 C10 1_555 1_555
C11 C10 1_555 1_555
H6 C11 1_555 1_555
C12 C7 1_555 1_555
C13 C4 1_555 1_555
C14 C13 1_555 1_555
H7 C14 1_555 1_555
H8 C14 1_555 1_555
H9 C14 1_555 1_555
C15 C13 1_555 1_555
H10 C15 1_555 1_555
H11 C15 1_555 1_555
H12 C15 1_555 1_555
C16 C13 1_555 1_555
H13 C16 1_555 1_555
H14 C16 1_555 1_555
C17 C16 1_555 1_555
C18 C17 1_555 1_555
H15 C18 1_555 1_555
H16 C18 1_555 1_555
H17 C18 1_555 1_555
C19 C17 1_555 1_555
H18 C19 1_555 1_555
H19 C19 1_555 1_555
H20 C19 1_555 1_555
C20 C17 1_555 1_555
H21 C20 1_555 1_555
H22 C20 1_555 1_555
H23 C20 1_555 1_555
C21 N4 1_555 1_555
H24 C21 1_555 1_555
H25 C21 1_555 1_555
C22 N4 1_555 1_555
H26 C22 1_555 1_555
H27 C22 1_555 1_555
H28 C22 1_555 1_555
C23 N4 1_555 1_555
H29 C23 1_555 1_555
H30 C23 1_555 1_555
C24 N5 1_555 1_555
H31 C24 1_555 1_555
H32 C24 1_555 1_555
C25 N5 1_555 1_555
H33 C25 1_555 1_555
H34 C25 1_555 1_555
H35 C25 1_555 1_555
C26 N5 1_555 1_555
H36 C26 1_555 1_555
H37 C26 1_555 1_555
H38 C26 1_555 1_555
O1A Mg1 1_555 1_555
N1A N2A 1_555 1_555
N2A N3A 1_555 1_555
N3A C12A 1_555 1_555
N4A Mg1 1_555 1_555
N5A Mg1 1_555 1_555
C1A O1A 1_555 1_555
C2A N2A 1_555 1_555
C3A C2A 1_555 1_555
H1A C3A 1_555 1_555
C4A C3A 1_555 1_555
C5A C4A 1_555 1_555
H2A C5A 1_555 1_555
C6A C1A 1_555 1_555
C7A N1A 1_555 1_555
C8A C7A 1_555 1_555
H3A C8A 1_555 1_555
C9A C8A 1_555 1_555
H4A C9A 1_555 1_555
C10A C9A 1_555 1_555
H5A C10A 1_555 1_555
C11A C10A 1_555 1_555
H6A C11A 1_555 1_555
C12A C7A 1_555 1_555
C13A C4A 1_555 1_555
C14A C13A 1_555 1_555
H7A C14A 1_555 1_555
H8A C14A 1_555 1_555
H9A C14A 1_555 1_555
C15A C13A 1_555 1_555
H10A C15A 1_555 1_555
H11A C15A 1_555 1_555
H12A C15A 1_555 1_555
C16A C13A 1_555 1_555
H13A C16A 1_555 1_555
H14A C16A 1_555 1_555
C17A C16A 1_555 1_555
C18A C17A 1_555 1_555
H15A C18A 1_555 1_555
H16A C18A 1_555 1_555
H17A C18A 1_555 1_555
C19A C17A 1_555 1_555
H18A C19A 1_555 1_555
H19A C19A 1_555 1_555
H20A C19A 1_555 1_555
C20A C17A 1_555 1_555
H21A C20A 1_555 1_555
H22A C20A 1_555 1_555
H23A C20A 1_555 1_555
C21A N4A 1_555 1_555
H24A C21A 1_555 1_555
H25A C21A 1_555 1_555
C22A N4A 1_555 1_555
H26A C22A 1_555 1_555
H27A C22A 1_555 1_555
H28A C22A 1_555 1_555
C23A N4A 1_555 1_555
H29A C23A 1_555 1_555
H30A C23A 1_555 1_555
C24A N5A 1_555 1_555
H31A C24A 1_555 1_555
H32A C24A 1_555 1_555
C25A N5A 1_555 1_555
H33A C25A 1_555 1_555
H34A C25A 1_555 1_555
H35A C25A 1_555 1_555
C26A N5A 1_555 1_555
H36A C26A 1_555 1_555
H37A C26A 1_555 1_555
H38A C26A 1_555 1_555
C5 C6 1_555 1_555
C6 C21 1_555 1_555
C11 C12 1_555 1_555
C23 C24 1_555 1_555
C1A C2A 1_555 1_555
C5A C6A 1_555 1_555
C6A C21A 1_555 1_555
C11A C12A 1_555 1_555
C23A C24A 1_555 1_555

#END
