
#######################################################################
#
#                 Cambridge Crystallographic Data Centre
#                                CCDC 
#
#######################################################################
#
# If this CIF has been generated from an entry in the Cambridge 
# Structural Database, then it will include bibliographic, chemical, 
# crystal, experimental, refinement or atomic coordinate data resulting 
# from the CCDC's data processing and validation procedures.
#
#######################################################################

data_FAPDOP
_chemical_formula_moiety         'C14 H12 N2 O5 S1'
_chemical_name_systematic        
'Dimethyl 2,3-dihydro-5-oxo-5H-thiazolo(2,3-b)quinazoline-2,3-dicarboxylate'
_symmetry_cell_setting           monoclinic
_symmetry_space_group_name_H-M   'P 21/c'
_symmetry_Int_Tables_number      14
_space_group_name_Hall           '-P 2ybc'
loop_
_symmetry_equiv_pos_site_id
_symmetry_equiv_pos_as_xyz
1 x,y,z
2 -x,1/2+y,1/2-z
3 -x,-y,-z
4 x,1/2-y,1/2+z
_cell_length_a                   16.019(3)
_cell_length_b                   11.583(2)
_cell_length_c                   15.420(5)
_cell_angle_alpha                90
_cell_angle_beta                 98.33(2)
_cell_angle_gamma                90
_cell_volume                     2830.97
_chemical_melting_point          '178-179 deg.C'
_cell_formula_units_Z            8
loop_
_atom_site_label
_atom_site_type_symbol
_atom_site_fract_x
_atom_site_fract_y
_atom_site_fract_z
S1 S 0.1619(2) 0.4063(2) 0.1106(2)
N1 N 0.2098(5) 0.3556(6) 0.2807(5)
C1 C 0.2551(6) 0.3043(8) 0.4301(6)
C2 C 0.3096(6) 0.3177(9) 0.5082(7)
C3 C 0.3735(6) 0.4033(9) 0.5180(6)
C4 C 0.3804(6) 0.4705(9) 0.4472(6)
C5 C 0.3371(5) 0.5306(8) 0.2935(6)
C6 C 0.2842(6) 0.5616(7) 0.1341(6)
C7 C 0.1964(5) 0.5491(7) 0.0798(6)
C8 C 0.2217(5) 0.4168(8) 0.2153(6)
N2 N 0.2808(4) 0.5059(6) 0.2180(4)
C9 C 0.2645(5) 0.3719(7) 0.3583(6)
C10 C 0.3280(5) 0.4574(8) 0.3666(6)
C11 C 0.1342(6) 0.6372(8) 0.1022(7)
O1 O 0.1426(5) 0.6924(7) 0.1687(5)
O2 O 0.0690(4) 0.6473(6) 0.0379(5)
C12 C 0.0052(7) 0.7296(10) 0.0522(8)
C13 C 0.3506(6) 0.5142(7) 0.0823(6)
O3 O 0.3574(4) 0.5465(6) 0.0101(4)
O4 O 0.3997(4) 0.4350(5) 0.1283(4)
C14 C 0.4633(6) 0.3834(9) 0.0832(6)
O5 O 0.3890(4) 0.6090(6) 0.2922(4)
S2 S 0.3444(2) 0.5901(2) 0.7719(2)
N3 N 0.2933(4) 0.6481(6) 0.6053(5)
C15 C 0.2430(6) 0.7043(9) 0.4549(7)
C16 C 0.1867(7) 0.6945(9) 0.3788(7)
C17 C 0.1231(7) 0.6175(9) 0.3714(7)
C18 C 0.1122(7) 0.5438(10) 0.4412(7)
C19 C 0.1608(6) 0.4757(8) 0.5926(6)
C20 C 0.2180(5) 0.4361(7) 0.7490(5)
C21 C 0.3052(5) 0.4513(8) 0.8050(6)
C22 C 0.2823(6) 0.5809(7) 0.6672(5)
N4 N 0.2206(4) 0.4963(4) 0.6675(4)
C23 C 0.2349(6) 0.6348(8) 0.5277(6)
C24 C 0.1701(6) 0.5506(8) 0.5192(6)
C25 C 0.3667(6) 0.3569(8) 0.7850(7)
O6 O 0.3602(4) 0.3030(6) 0.7185(5)
O7 O 0.4306(4) 0.3450(6) 0.8519(4)
C26 C 0.4955(6) 0.2596(8) 0.8395(7)
C27 C 0.1502(6) 0.4832(8) 0.8012(6)
O8 O 0.1481(5) 0.4538(7) 0.8738(5)
O9 O 0.0969(4) 0.5533(6) 0.7537(4)
C28 C 0.0272(7) 0.5930(12) 0.7944(8)
O10 O 0.1085(4) 0.3984(6) 0.5938(4)
loop_
_geom_bond_atom_site_label_1
_geom_bond_atom_site_label_2
_geom_bond_site_symmetry_1
_geom_bond_site_symmetry_2
S1 C7 1_555 1_555
N1 C8 1_555 1_555
C1 C2 1_555 1_555
C2 C3 1_555 1_555
C3 C4 1_555 1_555
C4 C10 1_555 1_555
C5 N2 1_555 1_555
C6 C7 1_555 1_555
C7 C11 1_555 1_555
C8 S1 1_555 1_555
N2 C6 1_555 1_555
C9 N1 1_555 1_555
C10 C5 1_555 1_555
C11 O1 1_555 1_555
O2 C11 1_555 1_555
C12 O2 1_555 1_555
C13 C6 1_555 1_555
O3 C13 1_555 1_555
O4 C13 1_555 1_555
C14 O4 1_555 1_555
O5 C5 1_555 1_555
S2 C21 1_555 1_555
N3 C22 1_555 1_555
C15 C16 1_555 1_555
C16 C17 1_555 1_555
C17 C18 1_555 1_555
C18 C24 1_555 1_555
C19 N4 1_555 1_555
C20 C21 1_555 1_555
C21 C25 1_555 1_555
C22 S2 1_555 1_555
N4 C20 1_555 1_555
C23 N3 1_555 1_555
C24 C19 1_555 1_555
C25 O6 1_555 1_555
O7 C25 1_555 1_555
C26 O7 1_555 1_555
C27 C20 1_555 1_555
O8 C27 1_555 1_555
O9 C27 1_555 1_555
C28 O9 1_555 1_555
O10 C19 1_555 1_555
C1 C9 1_555 1_555
C8 N2 1_555 1_555
C9 C10 1_555 1_555
C15 C23 1_555 1_555
C22 N4 1_555 1_555
C23 C24 1_555 1_555

#END
