
#######################################################################
#
#                 Cambridge Crystallographic Data Centre
#                                CCDC 
#
#######################################################################
#
# If this CIF has been generated from an entry in the Cambridge 
# Structural Database, then it will include bibliographic, chemical, 
# crystal, experimental, refinement or atomic coordinate data resulting 
# from the CCDC's data processing and validation procedures.
#
#######################################################################

data_FAPFEI
_chemical_formula_moiety         'C72 H50 N4 Si1,3(C4 H8 O1)'
_chemical_name_systematic        
'1,1-Diphenyl-2,3,4,5-tetrakis(4-(N-indolyl)phenyl)silole tetrahydrofuran solvate'
_symmetry_cell_setting           triclinic
_symmetry_space_group_name_H-M   'P -1'
_symmetry_Int_Tables_number      2
_space_group_name_Hall           '-P 1'
loop_
_symmetry_equiv_pos_site_id
_symmetry_equiv_pos_as_xyz
1 x,y,z
2 -x,-y,-z
_cell_length_a                   13.004(11)
_cell_length_b                   14.475(12)
_cell_length_c                   18.847(16)
_cell_angle_alpha                99.195(17)
_cell_angle_beta                 91.799(16)
_cell_angle_gamma                100.804(18)
_cell_volume                     3433.07
_exptl_crystal_colour            yellow
_exptl_crystal_description       plate
_chemical_melting_point          '262-264 deg.C'
_cell_formula_units_Z            2
_exptl_crystal_recrystallization_method tetrahydrofuran/toluene/hexane
_exptl_crystal_preparation       luminescent
loop_
_atom_site_label
_atom_site_type_symbol
_atom_site_fract_x
_atom_site_fract_y
_atom_site_fract_z
Si1 Si 1.24395(13) 0.22693(10) 1.24864(9)
N1 N 0.9270(5) 0.2899(4) 0.9652(3)
N2 N 0.9215(4) 0.6712(4) 1.3149(3)
N3 N 1.2774(4) 0.6105(4) 1.6257(3)
N4 N 1.5549(5) 0.1637(4) 1.5325(3)
C1 C 1.1561(4) 0.3105(3) 1.2323(3)
C2 C 1.1610(4) 0.3765(4) 1.2922(3)
C3 C 1.2350(4) 0.3671(4) 1.3531(3)
C4 C 1.2874(4) 0.2953(4) 1.3402(3)
C5 C 1.0973(4) 0.3083(4) 1.1637(3)
C6 C 1.0410(4) 0.2209(4) 1.1268(3)
H1 H 1.0405 0.1659 1.1464
C7 C 0.9868(5) 0.2151(4) 1.0624(4)
H2 H 0.9516 0.1560 1.0382
C8 C 1.0957(4) 0.3867(4) 1.1311(3)
H3 H 1.1340 0.4455 1.1536
C9 C 1.0409(5) 0.3825(4) 1.0676(4)
H4 H 1.0422 0.4376 1.0479
C10 C 0.9837(5) 0.2969(4) 1.0327(4)
C11 C 0.9604(6) 0.3415(4) 0.9117(4)
H5 H 1.0249 0.3829 0.9136
C12 C 0.8882(9) 0.3242(6) 0.8571(4)
H6 H 0.8924 0.3513 0.8155
C13 C 0.8035(8) 0.2567(7) 0.8749(5)
C14 C 0.7077(10) 0.2091(8) 0.8392(6)
H7 H 0.6894 0.2194 0.7934
C15 C 0.6428(9) 0.1486(9) 0.8719(7)
H8 H 0.5782 0.1193 0.8483
C16 C 0.6671(7) 0.1264(6) 0.9412(6)
H9 H 0.6211 0.0820 0.9614
C17 C 0.8273(7) 0.2354(5) 0.9428(4)
C18 C 1.1024(4) 0.4553(4) 1.3004(3)
C19 C 0.9956(5) 0.4349(4) 1.2821(3)
H10 H 0.9632 0.3717 1.2658
C20 C 0.9345(4) 0.5051(4) 1.2870(3)
H11 H 0.8630 0.4891 1.2740
C21 C 0.9823(5) 0.5985(4) 1.3115(3)
C22 C 1.0893(5) 0.6216(4) 1.3306(3)
H12 H 1.1221 0.6846 1.3470
C23 C 1.1451(4) 0.5503(4) 1.3249(3)
H13 H 1.2165 0.5666 1.3384
C24 C 0.8514(6) 0.6780(6) 1.2597(5)
H14 H 0.8358 0.6346 1.2170
C25 C 0.8103(6) 0.7544(7) 1.2764(6)
H15 H 0.7635 0.7756 1.2474
C26 C 0.8510(7) 0.7984(6) 1.3473(6)
C27 C 0.8368(8) 0.8808(9) 1.3900(8)
H16 H 0.7957 0.9204 1.3740
C28 C 0.8844(10) 0.9007(8) 1.4549(8)
H17 H 0.8706 0.9531 1.4858
C29 C 0.9541(8) 0.8493(6) 1.4809(5)
H18 H 0.9865 0.8679 1.5270
C30 C 0.9206(5) 0.7460(5) 1.3709(5)
C31 C 1.2435(5) 0.4326(4) 1.4231(3)
C32 C 1.1580(5) 0.4415(4) 1.4628(3)
H19 H 1.0923 0.4071 1.4444
C33 C 1.1663(5) 0.5001(4) 1.5295(3)
H20 H 1.1077 0.5049 1.5558
C34 C 1.2662(5) 0.5521(4) 1.5559(3)
C35 C 1.3527(5) 0.5448(4) 1.5171(3)
H21 H 1.4185 0.5794 1.5352
C36 C 1.3411(4) 0.4859(4) 1.4513(3)
H22 H 1.3997 0.4815 1.4249
C37 C 1.3456(5) 0.6015(6) 1.6803(5)
H23 H 1.3895 0.5574 1.6776
C38 C 1.3386(7) 0.6662(8) 1.7373(5)
H24 H 1.3764 0.6747 1.7814
C39 C 1.2650(8) 0.7194(7) 1.7203(5)
C40 C 1.2224(8) 0.7961(8) 1.7563(6)
H25 H 1.2470 0.8224 1.8034
C41 C 1.1469(10) 0.8330(7) 1.7247(7)
H26 H 1.1189 0.8822 1.7498
C42 C 1.1140(7) 0.7949(6) 1.6550(6)
H27 H 1.0626 0.8200 1.6333
C43 C 1.2273(6) 0.6839(5) 1.6499(5)
C44 C 1.3573(5) 0.2650(4) 1.3923(3)
C45 C 1.3318(5) 0.2599(4) 1.4633(3)
H28 H 1.2710 0.2788 1.4797
C46 C 1.3956(6) 0.2275(4) 1.5090(4)
H29 H 1.3771 0.2249 1.5560
C47 C 1.4863(6) 0.1986(4) 1.4873(4)
C48 C 1.5144(5) 0.2040(4) 1.4176(4)
H30 H 1.5758 0.1858 1.4017
C49 C 1.4490(5) 0.2370(4) 1.3715(3)
H31 H 1.4682 0.2404 1.3247
C50 C 1.6619(6) 0.1849(5) 1.5377(5)
H32 H 1.7022 0.2230 1.5095
C51 C 1.7019(7) 0.1440(6) 1.5887(6)
H33 H 1.7724 0.1474 1.6011
C52 C 1.6126(7) 0.0937(5) 1.6203(5)
C53 C 1.6016(8) 0.0414(6) 1.6765(5)
H34 H 1.6600 0.0337 1.7030
C54 C 1.5022(9) 0.0016(5) 1.6916(5)
H35 H 1.4943 -0.0328 1.7294
C55 C 1.4137(7) 0.0102(5) 1.6534(5)
H36 H 1.3478 -0.0183 1.6653
C56 C 1.5211(7) 0.1057(5) 1.5849(4)
C57 C 1.3433(4) 0.2244(4) 1.1800(3)
C58 C 1.3670(5) 0.2955(5) 1.1403(4)
H37 H 1.3304 0.3453 1.1465
C59 C 1.4438(6) 0.2962(6) 1.0907(4)
H38 H 1.4589 0.3462 1.0649
C60 C 1.4974(6) 0.2225(7) 1.0802(4)
H39 H 1.5484 0.2226 1.0467
C61 C 1.4768(6) 0.1494(5) 1.1181(4)
H40 H 1.5124 0.0990 1.1107
C62 C 1.4001(5) 0.1525(4) 1.1687(4)
H41 H 1.3870 0.1039 1.1959
C63 C 1.1757(4) 0.1029(4) 1.2525(4)
C64 C 1.0983(5) -0.0580(4) 1.1953(4)
H42 H 1.0843 -0.1033 1.1535
C65 C 1.1533(4) 0.0326(5) 1.1932(4)
H43 H 1.1764 0.0467 1.1493
C66 C 1.0645(6) -0.0806(5) 1.2589(5)
H44 H 1.0278 -0.1417 1.2609
C67 C 1.0844(6) -0.0141(6) 1.3194(5)
H45 H 1.0617 -0.0292 1.3631
C68 C 1.1396(5) 0.0778(4) 1.3155(4)
H46 H 1.1520 0.1233 1.3572
C69 C 0.7610(7) 0.1732(5) 0.9766(4)
H47 H 0.7792 0.1630 1.0224
C70 C 0.9739(6) 0.7678(5) 1.4345(5)
H48 H 1.0213 0.7320 1.4479
C71 C 1.1520(7) 0.7209(5) 1.6138(4)
H49 H 1.1291 0.6976 1.5660
C72 C 1.4229(6) 0.0617(5) 1.5968(4)
H50 H 1.3647 0.0657 1.5684
C73 C 1.3343(9) 0.4810(8) 0.9980(7)
H51 H 1.3218 0.4630 1.0448
H52 H 1.4084 0.4868 0.9900
C74 C 1.2401(8) 0.5582(8) 0.9214(7)
C75 C 1.2999(9) 0.5682(8) 0.9927(7)
H53 H 1.3601 0.6202 0.9969
H54 H 1.2553 0.5827 1.0316
C76 C 1.2703(9) 0.4117(8) 0.9409(7)
O1 O 1.1996(10) 0.4593(8) 0.9105(7)
C77 C 1.5052(11) 0.6998(10) 1.2689(9)
C78 C 1.5068(15) 0.6368(14) 1.1973(11)
H55 H 1.4794 0.6629 1.1581
H56 H 1.5767 0.6257 1.1877
C79 C 1.4510(12) 0.5355(11) 1.2819(10)
C80 C 1.4382(12) 0.5522(11) 1.2098(10)
H57 H 1.3662 0.5578 1.2001
H58 H 1.4519 0.4980 1.1767
O2 O 1.4458(16) 0.6465(15) 1.3124(11)
C81 C 0.7965(12) 0.0023(9) 1.0924(7)
C82 C 0.6970(15) -0.0423(13) 1.0994(10)
H59 H 0.6530 -0.0464 1.0560
H60 H 0.6667 -0.0093 1.1399
C83 C 0.7936(13) -0.1617(12) 1.0645(9)
C84 C 0.7089(14) -0.1344(14) 1.1112(11)
H61 H 0.6436 -0.1801 1.0982
H62 H 0.7286 -0.1329 1.1615
O3 O 0.8700(18) -0.0573(18) 1.0771(13)
O4? O 1.534(2) 0.606(2) 1.3203(15)
O5? O 0.786(2) -0.0687(17) 1.0158(15)
O6? O 1.261(2) 0.4670(19) 0.8864(15)
loop_
_geom_bond_atom_site_label_1
_geom_bond_atom_site_label_2
_geom_bond_site_symmetry_1
_geom_bond_site_symmetry_2
Si1 C1 1_555 1_555
N1 C10 1_555 1_555
N2 C21 1_555 1_555
N3 C34 1_555 1_555
N4 C47 1_555 1_555
C1 C2 1_555 1_555
C2 C3 1_555 1_555
C3 C4 1_555 1_555
C4 Si1 1_555 1_555
C5 C1 1_555 1_555
C6 C5 1_555 1_555
H1 C6 1_555 1_555
C7 C6 1_555 1_555
H2 C7 1_555 1_555
C8 C5 1_555 1_555
H3 C8 1_555 1_555
C9 C8 1_555 1_555
H4 C9 1_555 1_555
C10 C7 1_555 1_555
C11 N1 1_555 1_555
H5 C11 1_555 1_555
C12 C11 1_555 1_555
H6 C12 1_555 1_555
C13 C12 1_555 1_555
C14 C13 1_555 1_555
H7 C14 1_555 1_555
C15 C14 1_555 1_555
H8 C15 1_555 1_555
C16 C15 1_555 1_555
H9 C16 1_555 1_555
C17 N1 1_555 1_555
C18 C2 1_555 1_555
C19 C18 1_555 1_555
H10 C19 1_555 1_555
C20 C19 1_555 1_555
H11 C20 1_555 1_555
C21 C20 1_555 1_555
C22 C21 1_555 1_555
H12 C22 1_555 1_555
C23 C18 1_555 1_555
H13 C23 1_555 1_555
C24 N2 1_555 1_555
H14 C24 1_555 1_555
C25 C24 1_555 1_555
H15 C25 1_555 1_555
C26 C25 1_555 1_555
C27 C26 1_555 1_555
H16 C27 1_555 1_555
C28 C27 1_555 1_555
H17 C28 1_555 1_555
C29 C28 1_555 1_555
H18 C29 1_555 1_555
C30 N2 1_555 1_555
C31 C3 1_555 1_555
C32 C31 1_555 1_555
H19 C32 1_555 1_555
C33 C32 1_555 1_555
H20 C33 1_555 1_555
C34 C33 1_555 1_555
C35 C34 1_555 1_555
H21 C35 1_555 1_555
C36 C31 1_555 1_555
H22 C36 1_555 1_555
C37 N3 1_555 1_555
H23 C37 1_555 1_555
C38 C37 1_555 1_555
H24 C38 1_555 1_555
C39 C38 1_555 1_555
C40 C39 1_555 1_555
H25 C40 1_555 1_555
C41 C40 1_555 1_555
H26 C41 1_555 1_555
C42 C41 1_555 1_555
H27 C42 1_555 1_555
C43 N3 1_555 1_555
C44 C4 1_555 1_555
C45 C44 1_555 1_555
H28 C45 1_555 1_555
C46 C45 1_555 1_555
H29 C46 1_555 1_555
C47 C46 1_555 1_555
C48 C47 1_555 1_555
H30 C48 1_555 1_555
C49 C44 1_555 1_555
H31 C49 1_555 1_555
C50 N4 1_555 1_555
H32 C50 1_555 1_555
C51 C50 1_555 1_555
H33 C51 1_555 1_555
C52 C51 1_555 1_555
C53 C52 1_555 1_555
H34 C53 1_555 1_555
C54 C53 1_555 1_555
H35 C54 1_555 1_555
C55 C54 1_555 1_555
H36 C55 1_555 1_555
C56 N4 1_555 1_555
C57 Si1 1_555 1_555
C58 C57 1_555 1_555
H37 C58 1_555 1_555
C59 C58 1_555 1_555
H38 C59 1_555 1_555
C60 C59 1_555 1_555
H39 C60 1_555 1_555
C61 C60 1_555 1_555
H40 C61 1_555 1_555
C62 C57 1_555 1_555
H41 C62 1_555 1_555
C63 Si1 1_555 1_555
C64 H42 1_555 1_555
C65 C63 1_555 1_555
H43 C65 1_555 1_555
C66 C64 1_555 1_555
H44 C66 1_555 1_555
C67 C66 1_555 1_555
H45 C67 1_555 1_555
C68 C63 1_555 1_555
H46 C68 1_555 1_555
C69 C16 1_555 1_555
H47 C69 1_555 1_555
C70 C29 1_555 1_555
H48 C70 1_555 1_555
C71 C42 1_555 1_555
H49 C71 1_555 1_555
C72 C55 1_555 1_555
H50 C72 1_555 1_555
C73 H51 1_555 1_555
H52 C73 1_555 1_555
C74 C75 1_555 1_555
C75 C73 1_555 1_555
H53 C75 1_555 1_555
H54 C75 1_555 1_555
C76 C73 1_555 1_555
O1 C74 1_555 1_555
C77 C78 1_555 1_555
C78 H55 1_555 1_555
H56 C78 1_555 1_555
C79 C80 1_555 1_555
C80 C78 1_555 1_555
H57 C80 1_555 1_555
H58 C80 1_555 1_555
O2 C77 1_555 1_555
C81 C82 1_555 1_555
C82 H59 1_555 1_555
H60 C82 1_555 1_555
C83 C84 1_555 1_555
C84 C82 1_555 1_555
H61 C84 1_555 1_555
H62 C84 1_555 1_555
O3 C81 1_555 1_555
C9 C10 1_555 1_555
C13 C17 1_555 1_555
C17 C69 1_555 1_555
C22 C23 1_555 1_555
C26 C30 1_555 1_555
C30 C70 1_555 1_555
C35 C36 1_555 1_555
C39 C43 1_555 1_555
C43 C71 1_555 1_555
C48 C49 1_555 1_555
C52 C56 1_555 1_555
C56 C72 1_555 1_555
C61 C62 1_555 1_555
C64 C65 1_555 1_555
C67 C68 1_555 1_555
C76 O1 1_555 1_555
C79 O2 1_555 1_555
C83 O3 1_555 1_555

#END
