
#######################################################################
#
#                 Cambridge Crystallographic Data Centre
#                                CCDC 
#
#######################################################################
#
# If this CIF has been generated from an entry in the Cambridge 
# Structural Database, then it will include bibliographic, chemical, 
# crystal, experimental, refinement or atomic coordinate data resulting 
# from the CCDC's data processing and validation procedures.
#
#######################################################################

data_FAPFAE
_chemical_formula_moiety         'C38 H30 N6 Si1'
_chemical_name_systematic        
bis(4-(bis(2-pyridyl)amino)phenylethynyl)dimethylsilane
_symmetry_cell_setting           orthorhombic
_symmetry_space_group_name_H-M   'C 2 2 21'
_symmetry_Int_Tables_number      20
_space_group_name_Hall           'C 2n 2'
loop_
_symmetry_equiv_pos_site_id
_symmetry_equiv_pos_as_xyz
1 x,y,z
2 -x,-y,1/2+z
3 -x,y,1/2-z
4 x,-y,-z
5 1/2+x,1/2+y,z
6 1/2-x,1/2-y,1/2+z
7 1/2-x,1/2+y,1/2-z
8 1/2+x,1/2-y,-z
_cell_length_a                   15.192(6)
_cell_length_b                   22.410(10)
_cell_length_c                   11.173(5)
_cell_angle_alpha                90
_cell_angle_beta                 90
_cell_angle_gamma                90
_cell_volume                     3803.88
_exptl_crystal_colour            colorless
_exptl_crystal_description       prism
_chemical_melting_point          '108-110 deg.C'
_cell_formula_units_Z            4
_exptl_crystal_recrystallization_method dichloromethane/hexane
_exptl_crystal_preparation       luminescent
loop_
_atom_site_label
_atom_site_type_symbol
_atom_site_fract_x
_atom_site_fract_y
_atom_site_fract_z
Si1 Si 0.96551(11) 1.0000 1.0000
N1 N 0.5744(3) 0.7439(2) 0.4025(4)
N2 N 0.7789(3) 0.8436(3) 0.3245(5)
N3 N 0.6599(3) 0.8271(2) 0.4486(4)
C1 C 0.8950(3) 0.9625(2) 0.8958(5)
C2 C 0.8499(3) 0.9364(2) 0.8221(5)
C3 C 0.7977(3) 0.9081(3) 0.7291(4)
C4 C 0.7866(3) 0.8475(3) 0.7266(5)
H1 H 0.8114 0.8241 0.7864
C5 C 0.7389(3) 0.8209(2) 0.6363(5)
H2 H 0.7300 0.7799 0.6377
C6 C 0.7045(3) 0.8539(3) 0.5445(4)
C7 C 0.7166(4) 0.9141(3) 0.5469(5)
H3 H 0.6930 0.9369 0.4852
C8 C 0.7622(3) 0.9428(2) 0.6368(5)
H4 H 0.7693 0.9840 0.6361
C9 C 0.5871(3) 0.7897(3) 0.4722(5)
C10 C 0.5342(3) 0.8006(3) 0.5692(5)
H5 H 0.5472 0.8323 0.6199
C11 C 0.4625(4) 0.7655(3) 0.5923(6)
H6 H 0.4240 0.7739 0.6549
C12 C 0.4503(3) 0.7173(3) 0.5184(7)
H7 H 0.4045 0.6908 0.5331
C13 C 0.5042(4) 0.7081(3) 0.4249(6)
H8 H 0.4931 0.6763 0.3739
C14 C 0.6936(4) 0.8344(2) 0.3308(5)
C15 C 0.6412(4) 0.8345(3) 0.2319(6)
H9 H 0.5810 0.8280 0.2393
C16 C 0.6776(6) 0.8441(3) 0.1219(6)
H10 H 0.6434 0.8436 0.0529
C17 C 0.7649(7) 0.8543(3) 0.1166(6)
H11 H 0.7911 0.8620 0.0430
C18 C 0.8142(4) 0.8536(4) 0.2151(7)
H12 H 0.8745 0.8602 0.2085
C19 C 1.0326(3) 1.0543(2) 0.9180(5)
H13 H 0.9948 1.0819 0.8770
H14 H 1.0688 1.0338 0.8608
H15 H 1.0694 1.0757 0.9732
N1C N 0.5744(3) 1.2561(2) 1.5975(4)
N2C N 0.7789(3) 1.1564(3) 1.6755(5)
N3C N 0.6599(3) 1.1729(2) 1.5514(4)
C1C C 0.8950(3) 1.0375(2) 1.1042(5)
C2C C 0.8499(3) 1.0636(2) 1.1779(5)
C3C C 0.7977(3) 1.0919(3) 1.2709(4)
C4C C 0.7866(3) 1.1525(3) 1.2734(5)
H1C H 0.8114 1.1759 1.2136
C5C C 0.7389(3) 1.1791(2) 1.3637(5)
H2C H 0.7300 1.2201 1.3623
C6C C 0.7045(3) 1.1461(3) 1.4555(4)
C7C C 0.7166(4) 1.0859(3) 1.4531(5)
H3C H 0.6930 1.0631 1.5148
C8C C 0.7622(3) 1.0572(2) 1.3632(5)
H4C H 0.7693 1.0160 1.3639
C9C C 0.5871(3) 1.2103(3) 1.5278(5)
C10C C 0.5342(3) 1.1994(3) 1.4308(5)
H5C H 0.5472 1.1677 1.3801
C11C C 0.4625(4) 1.2345(3) 1.4077(6)
H6C H 0.4240 1.2261 1.3451
C12C C 0.4503(3) 1.2827(3) 1.4816(7)
H7C H 0.4045 1.3092 1.4669
C13C C 0.5042(4) 1.2919(3) 1.5751(6)
H8C H 0.4931 1.3237 1.6261
C14C C 0.6936(4) 1.1656(2) 1.6692(5)
C15C C 0.6412(4) 1.1655(3) 1.7681(6)
H9C H 0.5810 1.1720 1.7607
C16C C 0.6776(6) 1.1559(3) 1.8781(6)
H10C H 0.6434 1.1564 1.9471
C17C C 0.7649(7) 1.1457(3) 1.8834(6)
H11C H 0.7911 1.1380 1.9570
C18C C 0.8142(4) 1.1464(4) 1.7849(7)
H12C H 0.8745 1.1398 1.7915
C19C C 1.0326(3) 0.9457(2) 1.0820(5)
H13C H 0.9948 0.9181 1.1230
H14C H 1.0688 0.9662 1.1392
H15C H 1.0694 0.9243 1.0268
loop_
_geom_bond_atom_site_label_1
_geom_bond_atom_site_label_2
_geom_bond_site_symmetry_1
_geom_bond_site_symmetry_2
Si1 C1 1_555 1_555
N1 C9 1_555 1_555
N2 C14 1_555 1_555
N3 C6 1_555 1_555
C1 C2 1_555 1_555
C2 C3 1_555 1_555
C3 C4 1_555 1_555
C4 H1 1_555 1_555
C5 C4 1_555 1_555
H2 C5 1_555 1_555
C6 C5 1_555 1_555
C7 C6 1_555 1_555
H3 C7 1_555 1_555
C8 C3 1_555 1_555
H4 C8 1_555 1_555
C9 N3 1_555 1_555
C10 C9 1_555 1_555
H5 C10 1_555 1_555
C11 C10 1_555 1_555
H6 C11 1_555 1_555
C12 C11 1_555 1_555
H7 C12 1_555 1_555
C13 N1 1_555 1_555
H8 C13 1_555 1_555
C14 N3 1_555 1_555
C15 C14 1_555 1_555
H9 C15 1_555 1_555
C16 C15 1_555 1_555
H10 C16 1_555 1_555
C17 C16 1_555 1_555
H11 C17 1_555 1_555
C18 N2 1_555 1_555
H12 C18 1_555 1_555
C19 Si1 1_555 1_555
H13 C19 1_555 1_555
H14 C19 1_555 1_555
H15 C19 1_555 1_555
N1C C9C 1_555 1_555
N2C C14C 1_555 1_555
N3C C6C 1_555 1_555
C1C Si1 1_555 1_555
C2C C1C 1_555 1_555
C3C C2C 1_555 1_555
C4C C3C 1_555 1_555
H1C C4C 1_555 1_555
C5C C4C 1_555 1_555
H2C C5C 1_555 1_555
C6C C5C 1_555 1_555
C7C C6C 1_555 1_555
H3C C7C 1_555 1_555
C8C C3C 1_555 1_555
H4C C8C 1_555 1_555
C9C N3C 1_555 1_555
C10C C9C 1_555 1_555
H5C C10C 1_555 1_555
C11C C10C 1_555 1_555
H6C C11C 1_555 1_555
C12C C11C 1_555 1_555
H7C C12C 1_555 1_555
C13C N1C 1_555 1_555
H8C C13C 1_555 1_555
C14C N3C 1_555 1_555
C15C C14C 1_555 1_555
H9C C15C 1_555 1_555
C16C C15C 1_555 1_555
H10C C16C 1_555 1_555
C17C C16C 1_555 1_555
H11C C17C 1_555 1_555
C18C N2C 1_555 1_555
H12C C18C 1_555 1_555
C19C Si1 1_555 1_555
H13C C19C 1_555 1_555
H14C C19C 1_555 1_555
H15C C19C 1_555 1_555
C7 C8 1_555 1_555
C12 C13 1_555 1_555
C17 C18 1_555 1_555
C7C C8C 1_555 1_555
C12C C13C 1_555 1_555
C17C C18C 1_555 1_555

#END
