
#######################################################################
#
#                 Cambridge Crystallographic Data Centre
#                                CCDC 
#
#######################################################################
#
# If this CIF has been generated from an entry in the Cambridge 
# Structural Database, then it will include bibliographic, chemical, 
# crystal, experimental, refinement or atomic coordinate data resulting 
# from the CCDC's data processing and validation procedures.
#
#######################################################################

data_FAPGUB
_chemical_formula_moiety         'C15 H15 F3 O5 S1'
_chemical_name_systematic        
'methyl (R)-6,7-dimethoxy-1-oxo-2-((trifluoromethyl)sulfanyl)-1,2,3,4-tetrahydronaphthalene-2-carboxylate'
_symmetry_cell_setting           orthorhombic
_symmetry_space_group_name_H-M   'P 21 21 21'
_symmetry_Int_Tables_number      19
_space_group_name_Hall           'P 2ac 2ab'
loop_
_symmetry_equiv_pos_site_id
_symmetry_equiv_pos_as_xyz
1 x,y,z
2 1/2-x,-y,1/2+z
3 -x,1/2+y,1/2-z
4 1/2+x,1/2-y,-z
_cell_length_a                   7.5426(6)
_cell_length_b                   13.2312(10)
_cell_length_c                   15.9887(13)
_cell_angle_alpha                90
_cell_angle_beta                 90
_cell_angle_gamma                90
_cell_volume                     1595.63
_cell_formula_units_Z            4
loop_
_atom_site_label
_atom_site_type_symbol
_atom_site_fract_x
_atom_site_fract_y
_atom_site_fract_z
S1 S 0.03845(5) 0.71746(3) 0.84596(2)
F1 F -0.04656(17) 0.89832(8) 0.90547(7)
F2 F 0.21335(16) 0.85105(10) 0.93741(7)
F3 F -0.0119(2) 0.77866(9) 0.99445(7)
O1 O 0.12548(19) 0.60268(8) 0.71092(8)
O2 O 0.44352(16) 0.70371(9) 0.80342(8)
O3 O 0.42266(15) 0.87171(8) 0.78623(8)
O4 O 0.21204(18) 0.79393(8) 0.35147(7)
O5 O 0.19749(19) 0.60678(8) 0.39224(7)
C1 C 0.16344(19) 0.77355(11) 0.75857(9)
C2 C 0.0828(2) 0.87289(11) 0.72653(10)
H1 H -0.0457 0.8632 0.7169
H2 H 0.0973 0.9258 0.7697
C3 C 0.1705(2) 0.90817(10) 0.64517(9)
H3 H 0.1028 0.9659 0.6221
H4 H 0.2922 0.9318 0.6574
C4 C 0.1784(2) 0.82504(11) 0.58066(9)
C5 C 0.1925(2) 0.85045(11) 0.49597(10)
H5 H 0.1974 0.9196 0.4802
C6 C 0.1994(2) 0.77658(11) 0.43486(9)
C7 C 0.1915(2) 0.67259(11) 0.45787(9)
C8 C 0.1766(2) 0.64704(11) 0.54081(9)
H6 H 0.1702 0.5779 0.5566
C9 C 0.17061(19) 0.72314(11) 0.60293(9)
C10 C 0.1504(2) 0.69035(11) 0.69051(9)
C11 C 0.36003(19) 0.77745(12) 0.78521(9)
C12 C 0.6059(2) 0.87979(15) 0.81359(13)
H7 H 0.6796 0.8333 0.7809
H8 H 0.6139 0.8623 0.8730
H9 H 0.6476 0.9492 0.8053
C13 C 0.0501(2) 0.81587(13) 0.92288(10)
C14 C 0.2012(3) 0.89736(12) 0.32504(11)
H10 H 0.2103 0.9008 0.2640
H11 H 0.2984 0.9359 0.3502
H12 H 0.0876 0.9260 0.3429
C15 C 0.1769(3) 0.50178(12) 0.41149(11)
H13 H 0.1848 0.4620 0.3599
H14 H 0.0609 0.4907 0.4376
H15 H 0.2707 0.4807 0.4501
loop_
_geom_bond_atom_site_label_1
_geom_bond_atom_site_label_2
_geom_bond_site_symmetry_1
_geom_bond_site_symmetry_2
S1 C1 1_555 1_555
F1 C13 1_555 1_555
F2 C13 1_555 1_555
F3 C13 1_555 1_555
O1 C10 1_555 1_555
O2 C11 1_555 1_555
O3 C11 1_555 1_555
O4 C6 1_555 1_555
O5 C7 1_555 1_555
C1 C2 1_555 1_555
C2 H1 1_555 1_555
H2 C2 1_555 1_555
C3 C2 1_555 1_555
H3 C3 1_555 1_555
H4 C3 1_555 1_555
C4 C3 1_555 1_555
C5 C4 1_555 1_555
H5 C5 1_555 1_555
C6 C5 1_555 1_555
C7 C6 1_555 1_555
C8 C7 1_555 1_555
H6 C8 1_555 1_555
C9 C4 1_555 1_555
C10 C1 1_555 1_555
C11 C1 1_555 1_555
C12 O3 1_555 1_555
H7 C12 1_555 1_555
H8 C12 1_555 1_555
H9 C12 1_555 1_555
C13 S1 1_555 1_555
C14 O4 1_555 1_555
H10 C14 1_555 1_555
H11 C14 1_555 1_555
H12 C14 1_555 1_555
C15 O5 1_555 1_555
H13 C15 1_555 1_555
H14 C15 1_555 1_555
H15 C15 1_555 1_555
C8 C9 1_555 1_555
C9 C10 1_555 1_555

#END
