
#######################################################################
#
#                 Cambridge Crystallographic Data Centre
#                                CCDC 
#
#######################################################################
#
# If this CIF has been generated from an entry in the Cambridge 
# Structural Database, then it will include bibliographic, chemical, 
# crystal, experimental, refinement or atomic coordinate data resulting 
# from the CCDC's data processing and validation procedures.
#
#######################################################################

data_FAPGOV
_chemical_name_common            
(1S)-(-)-N-trifluoromethylthio-2,10-camphorsultam
_chemical_formula_moiety         'C11 H16 F3 N1 O2 S2'
_chemical_name_systematic        
'10,10-dimethyl-4-((trifluoromethyl)sulfanyl)-3-thia-4-azatricyclo[5.2.1.0^1,5^]decane 3,3-dioxide'
_symmetry_cell_setting           monoclinic
_symmetry_space_group_name_H-M   'C 2'
_symmetry_Int_Tables_number      5
_space_group_name_Hall           'C 2y'
loop_
_symmetry_equiv_pos_site_id
_symmetry_equiv_pos_as_xyz
1 x,y,z
2 -x,y,-z
3 1/2+x,1/2+y,z
4 1/2-x,1/2+y,-z
_cell_length_a                   11.500(4)
_cell_length_b                   10.460(4)
_cell_length_c                   11.413(5)
_cell_angle_alpha                90
_cell_angle_beta                 95.060(8)
_cell_angle_gamma                90
_cell_volume                     1367.52
_exptl_crystal_colour            colorless
_exptl_crystal_description       block
_cell_formula_units_Z            4
loop_
_atom_site_label
_atom_site_type_symbol
_atom_site_fract_x
_atom_site_fract_y
_atom_site_fract_z
S1 S -0.07841(9) -0.50966(10) -0.65191(8)
S2 S -0.22285(8) -0.69682(11) -0.55800(7)
F1 F -0.1196(3) -0.2970(3) -0.7524(3)
F2 F -0.2780(3) -0.3976(4) -0.7225(3)
F3 F -0.1787(4) -0.4546(4) -0.8619(2)
O1 O -0.1511(3) -0.6782(4) -0.4499(2)
O2 O -0.3346(3) -0.6355(4) -0.5684(3)
N1 N -0.1488(3) -0.6509(4) -0.6734(3)
C1 C -0.1703(4) -0.4126(5) -0.7519(4)
C2 C -0.2293(4) -0.8629(5) -0.5955(3)
H1 H -0.1917 -0.9150 -0.5304
H2 H -0.3115 -0.8909 -0.6111
C3 C -0.0843(3) -0.7616(4) -0.7188(3)
H3 H -0.0077 -0.7738 -0.6715
C4 C -0.0675(4) -0.7576(5) -0.8521(4)
H4 H -0.1069 -0.6826 -0.8907
H5 H 0.0163 -0.7560 -0.8661
C5 C -0.1260(4) -0.8839(5) -0.8957(3)
H6 H -0.1419 -0.8894 -0.9832
C6 C -0.0544(4) -0.9953(5) -0.8412(4)
H7 H 0.0301 -0.9817 -0.8473
H8 H -0.0781 -1.0770 -0.8801
C7 C -0.0833(4) -0.9948(5) -0.7093(4)
H9 H -0.1236 -1.0744 -0.6890
H10 H -0.0120 -0.9839 -0.6551
C8 C -0.1640(3) -0.8785(4) -0.7065(3)
C9 C -0.2372(4) -0.8872(4) -0.8284(3)
C10 C -0.3065(4) -1.0136(6) -0.8436(4)
H11 H -0.3496 -1.0154 -0.9216
H12 H -0.3615 -1.0196 -0.7830
H13 H -0.2522 -1.0860 -0.8360
C11 C -0.3227(4) -0.7776(6) -0.8579(4)
H14 H -0.3835 -0.7785 -0.8029
H15 H -0.3587 -0.7880 -0.9384
H16 H -0.2807 -0.6960 -0.8512
loop_
_geom_bond_atom_site_label_1
_geom_bond_atom_site_label_2
_geom_bond_site_symmetry_1
_geom_bond_site_symmetry_2
S1 N1 1_555 1_555
S2 O1 1_555 1_555
F1 C1 1_555 1_555
F2 C1 1_555 1_555
F3 C1 1_555 1_555
O2 S2 1_555 1_555
N1 S2 1_555 1_555
C1 S1 1_555 1_555
C2 S2 1_555 1_555
H1 C2 1_555 1_555
H2 C2 1_555 1_555
C3 N1 1_555 1_555
H3 C3 1_555 1_555
C4 C3 1_555 1_555
H4 C4 1_555 1_555
H5 C4 1_555 1_555
C5 C4 1_555 1_555
H6 C5 1_555 1_555
C6 C5 1_555 1_555
H7 C6 1_555 1_555
H8 C6 1_555 1_555
C7 C6 1_555 1_555
H9 C7 1_555 1_555
H10 C7 1_555 1_555
C8 C2 1_555 1_555
C9 C5 1_555 1_555
C10 C9 1_555 1_555
H11 C10 1_555 1_555
H12 C10 1_555 1_555
H13 C10 1_555 1_555
C11 C9 1_555 1_555
H14 C11 1_555 1_555
H15 C11 1_555 1_555
H16 C11 1_555 1_555
C3 C8 1_555 1_555
C7 C8 1_555 1_555
C8 C9 1_555 1_555

#END
