
#######################################################################
#
#                 Cambridge Crystallographic Data Centre
#                                CCDC 
#
#######################################################################
#
# If this CIF has been generated from an entry in the Cambridge 
# Structural Database, then it will include bibliographic, chemical, 
# crystal, experimental, refinement or atomic coordinate data resulting 
# from the CCDC's data processing and validation procedures.
#
#######################################################################

data_FAPGIP
_chemical_formula_moiety         'C19 H10 F4 O2 S1'
_chemical_name_systematic        
(S)-3-(6-fluoro-2-naphthyl)-3-((trifluoromethyl)sulfanyl)-1-benzofuran-2(3H)-one
_symmetry_cell_setting           orthorhombic
_symmetry_space_group_name_H-M   'P 21 21 21'
_symmetry_Int_Tables_number      19
_space_group_name_Hall           'P 2ac 2ab'
loop_
_symmetry_equiv_pos_site_id
_symmetry_equiv_pos_as_xyz
1 x,y,z
2 1/2-x,-y,1/2+z
3 -x,1/2+y,1/2-z
4 1/2+x,1/2-y,-z
_cell_length_a                   6.6977(5)
_cell_length_b                   8.1914(6)
_cell_length_c                   30.513(2)
_cell_angle_alpha                90
_cell_angle_beta                 90
_cell_angle_gamma                90
_cell_volume                     1674.05
_exptl_crystal_colour            colorless
_exptl_crystal_description       block
_cell_formula_units_Z            4
loop_
_atom_site_label
_atom_site_type_symbol
_atom_site_fract_x
_atom_site_fract_y
_atom_site_fract_z
S1 S 0.08576(7) 0.24905(6) 0.61490(2)
F1 F 0.0320(3) 0.2658(2) 0.70075(4)
F2 F 0.2669(2) 0.1052(2) 0.68098(5)
F3 F -0.0411(2) 0.0384(2) 0.66985(5)
F4 F 0.2887(2) 0.89826(15) 0.39813(4)
O1 O 0.5596(3) 0.16263(19) 0.59978(5)
O2 O 0.6126(2) 0.33579(17) 0.65540(4)
C1 C 0.3097(2) 0.37889(18) 0.61536(5)
C2 C 0.5037(3) 0.2758(2) 0.62103(5)
C3 C 0.3252(3) 0.4927(2) 0.65379(5)
C4 C 0.5050(3) 0.4630(2) 0.67459(6)
C5 C 0.5706(5) 0.5475(3) 0.71092(8)
H1 H 0.6960 0.5254 0.7242
C6 C 0.4435(6) 0.6660(3) 0.72690(8)
H2 H 0.4825 0.7280 0.7518
C7 C 0.2582(5) 0.6969(3) 0.70724(7)
H3 H 0.1728 0.7778 0.7194
C8 C 0.1974(4) 0.6113(2) 0.67033(6)
H4 H 0.0725 0.6330 0.6568
C9 C 0.0875(4) 0.1620(3) 0.66926(7)
C10 C 0.3102(3) 0.45798(19) 0.56976(5)
C11 C 0.3113(2) 0.62502(19) 0.56455(5)
H5 H 0.3133 0.6936 0.5896
C12 C 0.3094(2) 0.69604(19) 0.52190(5)
C13 C 0.3097(3) 0.8679(2) 0.51598(6)
H6 H 0.3137 0.9378 0.5408
C14 C 0.3042(3) 0.9339(2) 0.47464(6)
H7 H 0.3042 1.0488 0.4706
C15 C 0.2985(3) 0.8283(2) 0.43859(6)
C16 C 0.2997(3) 0.6621(2) 0.44169(6)
H8 H 0.2969 0.5952 0.4163
C17 C 0.3052(3) 0.5926(2) 0.48453(5)
C18 C 0.3064(3) 0.4204(2) 0.49078(5)
H9 H 0.3054 0.3501 0.4660
C19 C 0.3091(3) 0.3549(2) 0.53207(5)
H10 H 0.3102 0.2397 0.5356
loop_
_geom_bond_atom_site_label_1
_geom_bond_atom_site_label_2
_geom_bond_site_symmetry_1
_geom_bond_site_symmetry_2
S1 C1 1_555 1_555
F1 C9 1_555 1_555
F2 C9 1_555 1_555
F3 C9 1_555 1_555
F4 C15 1_555 1_555
O1 C2 1_555 1_555
O2 C2 1_555 1_555
C1 C2 1_555 1_555
C3 C1 1_555 1_555
C4 O2 1_555 1_555
C5 C4 1_555 1_555
H1 C5 1_555 1_555
C6 C5 1_555 1_555
H2 C6 1_555 1_555
C7 C6 1_555 1_555
H3 C7 1_555 1_555
C8 C3 1_555 1_555
H4 C8 1_555 1_555
C9 S1 1_555 1_555
C10 C1 1_555 1_555
C11 C10 1_555 1_555
H5 C11 1_555 1_555
C12 C11 1_555 1_555
C13 C12 1_555 1_555
H6 C13 1_555 1_555
C14 C13 1_555 1_555
H7 C14 1_555 1_555
C15 C14 1_555 1_555
C16 C15 1_555 1_555
H8 C16 1_555 1_555
C17 C12 1_555 1_555
C18 C17 1_555 1_555
H9 C18 1_555 1_555
C19 C10 1_555 1_555
H10 C19 1_555 1_555
C3 C4 1_555 1_555
C7 C8 1_555 1_555
C16 C17 1_555 1_555
C18 C19 1_555 1_555

#END
