
#######################################################################
#
#                 Cambridge Crystallographic Data Centre
#                                CCDC 
#
#######################################################################
#
# If this CIF has been generated from an entry in the Cambridge 
# Structural Database, then it will include bibliographic, chemical, 
# crystal, experimental, refinement or atomic coordinate data resulting 
# from the CCDC's data processing and validation procedures.
#
#######################################################################

data_FAPHUA
_chemical_formula_moiety         'C30 H39 N1 O7'
_chemical_name_systematic        
'(2-O-Butyloxime-3-phenyl)-propionyl-1-O-acetylbritannilactone ester'
_symmetry_cell_setting           triclinic
_symmetry_space_group_name_H-M   'P 1'
_symmetry_Int_Tables_number      1
_space_group_name_Hall           'P 1'
loop_
_symmetry_equiv_pos_site_id
_symmetry_equiv_pos_as_xyz
1 x,y,z
_cell_length_a                   9.186(4)
_cell_length_b                   9.470(4)
_cell_length_c                   9.840(4)
_cell_angle_alpha                108.840(8)
_cell_angle_beta                 107.325(8)
_cell_angle_gamma                94.303(8)
_cell_volume                     759.369
_exptl_crystal_colour            yellow
_exptl_crystal_description       needle
_chemical_melting_point          '53-55 deg.C'
_cell_formula_units_Z            1
_exptl_crystal_recrystallization_method dichloromethane
loop_
_atom_site_label
_atom_site_type_symbol
_atom_site_fract_x
_atom_site_fract_y
_atom_site_fract_z
C1 C 0.5630(11) -0.4003(9) -0.5041(8)
H1 H 0.5409 -0.4708 -0.6062
H2 H 0.6075 -0.4475 -0.4325
H3 H 0.6351 -0.3119 -0.4860
C2 C 0.4163(9) -0.3549(7) -0.4846(8)
C3 C 0.3033(7) -0.2133(7) -0.3077(7)
H4 H 0.2652 -0.2810 -0.2648
H5 H 0.2208 -0.2182 -0.3987
C4 C 0.3516(6) -0.0527(6) -0.1927(6)
H6 H 0.2619 -0.0212 -0.1674
H7 H 0.3843 0.0137 -0.2396
C5 C 0.4824(6) -0.0317(6) -0.0454(6)
H8 H 0.5783 -0.0423 -0.0667
H9 H 0.4593 -0.1108 -0.0081
C6 C 0.5049(5) 0.1251(5) 0.0797(6)
H10 H 0.5078 0.2024 0.0336
C7 C 0.6626(6) 0.1592(8) 0.2120(7)
H11 H 0.6740 0.2565 0.2889
H12 H 0.7464 0.1599 0.1726
H13 H 0.6644 0.0820 0.2559
C8 C 0.3683(4) 0.1358(4) 0.1407(4)
C9 C 0.2648(5) 0.2259(5) 0.1231(5)
C10 C 0.1377(6) 0.2258(6) 0.1937(6)
H14 H 0.1809 0.2863 0.3020
H15 H 0.0564 0.2726 0.1471
C11 C 0.0675(5) 0.0662(6) 0.1723(6)
H16 H 0.0042 0.0715 0.2376
C12 C 0.0044(6) -0.1443(6) -0.0553(6)
C13 C 0.1321(6) -0.1738(5) 0.0572(6)
C14 C 0.1871(5) -0.0365(5) 0.2015(5)
H17 H 0.1819 -0.0663 0.2868
C15 C 0.3560(4) 0.0378(4) 0.2350(4)
H18 H 0.4164 -0.0425 0.2134
C16 C 0.2585(7) 0.3338(6) 0.0400(7)
H19 H 0.3407 0.3280 -0.0020
H20 H 0.2704 0.4354 0.1096
H21 H 0.1602 0.3071 -0.0411
C17 C 0.1844(8) -0.3030(7) 0.0322(9)
H22 H 0.1398 -0.3823 -0.0616
H23 H 0.2659 -0.3144 0.1084
C18 C 0.5149(5) 0.0727(5) 0.4900(5)
C19 C 0.5941(5) 0.1804(6) 0.6520(5)
C20 C 0.7435(5) 0.1434(6) 0.7365(6)
H24 H 0.7295 0.0355 0.7180
H25 H 0.7710 0.1980 0.8455
C21 C 0.8737(5) 0.1880(6) 0.6832(5)
C22 C 0.9685(7) 0.0885(8) 0.6400(6)
H26 H 0.9526 -0.0085 0.6429
C23 C 1.0874(10) 0.1311(15) 0.5922(8)
H27 H 1.1505 0.0628 0.5646
C24 C 1.1118(8) 0.2709(15) 0.5857(8)
H28 H 1.1893 0.2977 0.5507
C25 C 1.0205(8) 0.3743(9) 0.6315(8)
H29 H 1.0403 0.4722 0.6319
C26 C 0.9003(6) 0.3325(7) 0.6765(7)
H30 H 0.8368 0.4010 0.7025
C27 C 0.5570(9) 0.5203(8) 0.9007(7)
H31 H 0.4449 0.4970 0.8716
H32 H 0.5832 0.5886 0.8526
C28 C 0.6311(13) 0.5935(11) 1.0734(11)
H33 H 0.5851 0.6806 1.1103
H34 H 0.6102 0.5213 1.1193
C29 C 0.7865(19) 0.6388(15) 1.1162(18)
H35 H 0.8067 0.7156 1.0751
H36 H 0.8310 0.5529 1.0728
C30 C 0.8695(16) 0.7063(18) 1.2969(13)
H37 H 0.9798 0.7307 1.3211
H38 H 0.8465 0.6323 1.3388
H39 H 0.8323 0.7965 1.3397
N1 N 0.5317(4) 0.2940(5) 0.6998(4)
O1 O 0.4383(5) -0.2591(5) -0.3465(4)
O2 O 0.2929(9) -0.3943(12) -0.5816(9)
O3 O 0.4252(3) 0.1361(3) 0.3974(3)
O4 O 0.5336(6) -0.0566(5) 0.4470(5)
O5 O -0.0318(4) -0.0090(4) 0.0096(4)
O6 O -0.0640(6) -0.2233(6) -0.1890(5)
O7 O 0.6167(5) 0.3833(5) 0.8539(4)
loop_
_geom_bond_atom_site_label_1
_geom_bond_atom_site_label_2
_geom_bond_site_symmetry_1
_geom_bond_site_symmetry_2
C1 H1 1_555 1_555
H2 C1 1_555 1_555
H3 C1 1_555 1_555
C2 C1 1_555 1_555
C3 H4 1_555 1_555
H5 C3 1_555 1_555
C4 C3 1_555 1_555
H6 C4 1_555 1_555
H7 C4 1_555 1_555
C5 C4 1_555 1_555
H8 C5 1_555 1_555
H9 C5 1_555 1_555
C6 C5 1_555 1_555
H10 C6 1_555 1_555
C7 C6 1_555 1_555
H11 C7 1_555 1_555
H12 C7 1_555 1_555
H13 C7 1_555 1_555
C8 C6 1_555 1_555
C9 C8 1_555 1_555
C10 C9 1_555 1_555
H14 C10 1_555 1_555
H15 C10 1_555 1_555
C11 C10 1_555 1_555
H16 C11 1_555 1_555
C12 C13 1_555 1_555
C13 C14 1_555 1_555
C14 C11 1_555 1_555
H17 C14 1_555 1_555
C15 C8 1_555 1_555
H18 C15 1_555 1_555
C16 C9 1_555 1_555
H19 C16 1_555 1_555
H20 C16 1_555 1_555
H21 C16 1_555 1_555
C17 C13 1_555 1_555
H22 C17 1_555 1_555
H23 C17 1_555 1_555
C18 C19 1_555 1_555
C19 C20 1_555 1_555
C20 H24 1_555 1_555
H25 C20 1_555 1_555
C21 C20 1_555 1_555
C22 C21 1_555 1_555
H26 C22 1_555 1_555
C23 C22 1_555 1_555
H27 C23 1_555 1_555
C24 C23 1_555 1_555
H28 C24 1_555 1_555
C25 C24 1_555 1_555
H29 C25 1_555 1_555
C26 C21 1_555 1_555
H30 C26 1_555 1_555
C27 H31 1_555 1_555
H32 C27 1_555 1_555
C28 C27 1_555 1_555
H33 C28 1_555 1_555
H34 C28 1_555 1_555
C29 C28 1_555 1_555
H35 C29 1_555 1_555
H36 C29 1_555 1_555
C30 C29 1_555 1_555
H37 C30 1_555 1_555
H38 C30 1_555 1_555
H39 C30 1_555 1_555
N1 C19 1_555 1_555
O1 C2 1_555 1_555
O2 C2 1_555 1_555
O3 C15 1_555 1_555
O4 C18 1_555 1_555
O5 C11 1_555 1_555
O6 C12 1_555 1_555
O7 C27 1_555 1_555
C3 O1 1_555 1_555
C12 O5 1_555 1_555
C14 C15 1_555 1_555
C18 O3 1_555 1_555
C25 C26 1_555 1_555
N1 O7 1_555 1_555

#END
