
#######################################################################
#
#                 Cambridge Crystallographic Data Centre
#                                CCDC 
#
#######################################################################
#
# If this CIF has been generated from an entry in the Cambridge 
# Structural Database, then it will include bibliographic, chemical, 
# crystal, experimental, refinement or atomic coordinate data resulting 
# from the CCDC's data processing and validation procedures.
#
#######################################################################

data_FAPHOU
_chemical_compound_source        'Inula britannica'
_chemical_formula_moiety         'C17 H24 O5'
_chemical_name_systematic        1-O-Acetylbritannilactone
_chemical_properties_biological  
'cytotoxic activity against HL-60 promyelocytic leukemia and Bel-7402 hepatocellular carcinoma'
_symmetry_cell_setting           orthorhombic
_symmetry_space_group_name_H-M   'P 21 21 21'
_symmetry_Int_Tables_number      19
_space_group_name_Hall           'P 2ac 2ab'
loop_
_symmetry_equiv_pos_site_id
_symmetry_equiv_pos_as_xyz
1 x,y,z
2 1/2-x,-y,1/2+z
3 -x,1/2+y,1/2-z
4 1/2+x,1/2-y,-z
_cell_length_a                   8.0017(7)
_cell_length_b                   12.3653(10)
_cell_length_c                   16.8794(14)
_cell_angle_alpha                90
_cell_angle_beta                 90
_cell_angle_gamma                90
_cell_volume                     1670.11
_exptl_crystal_description       'needle prisms'
_cell_formula_units_Z            4
_exptl_crystal_recrystallization_method dichloromethane
loop_
_atom_site_label
_atom_site_type_symbol
_atom_site_fract_x
_atom_site_fract_y
_atom_site_fract_z
O1 O -0.1393(2) 0.11239(13) 0.13235(12)
O2 O 0.11570(18) 0.16501(10) 0.16590(9)
O3 O 0.61474(17) 0.62079(12) 0.01611(8)
H1 H 0.6842 0.6157 0.0516
O4 O 0.14995(18) 0.71034(12) 0.14569(8)
O5 O -0.08983(19) 0.62776(16) 0.11928(10)
C1 C 0.0559(4) -0.01877(18) 0.17951(16)
H2 H -0.0334 -0.0699 0.1728
H3 H 0.0906 -0.0181 0.2339
H4 H 0.1484 -0.0391 0.1465
C2 C -0.0031(3) 0.09072(17) 0.15667(13)
C3 C 0.0674(3) 0.27537(15) 0.14979(15)
H5 H -0.0235 0.2968 0.1844
H6 H 0.0301 0.2824 0.0953
C4 C 0.2169(3) 0.34559(16) 0.16393(13)
H7 H 0.2598 0.3308 0.2166
H8 H 0.1818 0.4206 0.1627
C5 C 0.3578(3) 0.33027(15) 0.10440(13)
H9 H 0.3176 0.3500 0.0521
H10 H 0.3884 0.2544 0.1030
C6 C 0.5128(2) 0.39699(14) 0.12322(12)
H11 H 0.5463 0.3787 0.1774
C7 C 0.4789(2) 0.51804(13) 0.12165(10)
C8 C 0.4724(2) 0.58259(15) 0.18450(11)
C9 C 0.4447(3) 0.70208(16) 0.17246(13)
H12 H 0.5497 0.7354 0.1572
H13 H 0.4101 0.7340 0.2223
C10 C 0.3149(2) 0.72710(15) 0.11018(12)
H14 H 0.3258 0.8028 0.0938
C11 C 0.3221(2) 0.65411(14) 0.03683(11)
H15 H 0.3390 0.6993 -0.0102
C12 C 0.4614(2) 0.56972(15) 0.04070(10)
H16 H 0.4352 0.5125 0.0025
C13 C 0.1500(2) 0.60587(15) 0.03352(11)
C14 C 0.0536(3) 0.64610(17) 0.10163(12)
C15 C 0.0865(3) 0.5369(2) -0.01791(14)
H17 H -0.0225 0.5121 -0.0117
H18 H 0.1507 0.5129 -0.0604
C16 C 0.4941(3) 0.5485(2) 0.26938(12)
H19 H 0.5101 0.4717 0.2718
H20 H 0.3963 0.5679 0.2991
H21 H 0.5899 0.5843 0.2915
C17 C 0.6580(3) 0.36587(18) 0.06909(15)
H22 H 0.7546 0.4080 0.0826
H23 H 0.6278 0.3796 0.0150
H24 H 0.6829 0.2904 0.0757
loop_
_geom_bond_atom_site_label_1
_geom_bond_atom_site_label_2
_geom_bond_site_symmetry_1
_geom_bond_site_symmetry_2
O1 C2 1_555 1_555
O2 C2 1_555 1_555
O3 H1 1_555 1_555
O4 C10 1_555 1_555
O5 C14 1_555 1_555
C1 H2 1_555 1_555
H3 C1 1_555 1_555
H4 C1 1_555 1_555
C2 C1 1_555 1_555
C3 O2 1_555 1_555
H5 C3 1_555 1_555
H6 C3 1_555 1_555
C4 C3 1_555 1_555
H7 C4 1_555 1_555
H8 C4 1_555 1_555
C5 C4 1_555 1_555
H9 C5 1_555 1_555
H10 C5 1_555 1_555
C6 C5 1_555 1_555
H11 C6 1_555 1_555
C7 C6 1_555 1_555
C8 C7 1_555 1_555
C9 C8 1_555 1_555
H12 C9 1_555 1_555
H13 C9 1_555 1_555
C10 C9 1_555 1_555
H14 C10 1_555 1_555
C11 C10 1_555 1_555
H15 C11 1_555 1_555
C12 O3 1_555 1_555
H16 C12 1_555 1_555
C13 C11 1_555 1_555
C14 O4 1_555 1_555
C15 C13 1_555 1_555
H17 C15 1_555 1_555
H18 C15 1_555 1_555
C16 C8 1_555 1_555
H19 C16 1_555 1_555
H20 C16 1_555 1_555
H21 C16 1_555 1_555
C17 C6 1_555 1_555
H22 C17 1_555 1_555
H23 C17 1_555 1_555
H24 C17 1_555 1_555
C7 C12 1_555 1_555
C11 C12 1_555 1_555
C13 C14 1_555 1_555

#END
