
#######################################################################
#
#                 Cambridge Crystallographic Data Centre
#                                CCDC 
#
#######################################################################
#
# If this CIF has been generated from an entry in the Cambridge 
# Structural Database, then it will include bibliographic, chemical, 
# crystal, experimental, refinement or atomic coordinate data resulting 
# from the CCDC's data processing and validation procedures.
#
#######################################################################

data_FAPHUC
_chemical_formula_moiety         'C21 H13 N6 O8 1-,C4 H12 N1 1+,4(C2 H3 N1)'
_chemical_name_systematic        
'tetramethylammonium 5,17-dimethoxy-2,8,14,20-tetraoxa-4,6,16,18,26,28-hexaazapentacyclo[19.3.1.1^3,7^.1^9,13^.1^15,19^]octacosa-1(25),3(28),4,6,9(27),10,12,15(26),16,18,21,23-dodecaene-11-carboxylate acetonitrile solvate'
_symmetry_cell_setting           orthorhombic
_symmetry_space_group_name_H-M   'P b c a'
_symmetry_Int_Tables_number      61
_space_group_name_Hall           '-P 2ac 2ab'
loop_
_symmetry_equiv_pos_site_id
_symmetry_equiv_pos_as_xyz
1 x,y,z
2 1/2-x,-y,1/2+z
3 -x,1/2+y,1/2-z
4 1/2+x,1/2-y,-z
5 -x,-y,-z
6 1/2+x,y,1/2-z
7 x,1/2-y,1/2+z
8 1/2-x,1/2+y,z
_cell_length_a                   13.944(3)
_cell_length_b                   17.897(4)
_cell_length_c                   29.542(6)
_cell_angle_alpha                90
_cell_angle_beta                 90
_cell_angle_gamma                90
_cell_volume                     7372.38
_exptl_crystal_colour            colorless
_exptl_crystal_description       plate
_cell_formula_units_Z            8
loop_
_atom_site_label
_atom_site_type_symbol
_atom_site_fract_x
_atom_site_fract_y
_atom_site_fract_z
O1 O 0.60782(12) 0.74617(10) 0.58787(6)
O2 O 0.55418(12) 0.78508(9) 0.42810(6)
O3 O 0.32482(14) 0.59857(10) 0.42586(6)
O4 O 0.33576(15) 0.59849(12) 0.58908(7)
O5 O 0.89027(12) 0.62638(10) 0.51043(7)
O6 O 0.87284(14) 0.65676(12) 0.43752(7)
O7 O 0.32543(14) 0.78543(11) 0.32306(6)
O8 O 0.40271(15) 0.74705(12) 0.70623(6)
N1 N 0.43736(14) 0.78737(11) 0.37702(7)
N2 N 0.32183(15) 0.68937(12) 0.37462(7)
N3 N 0.44172(14) 0.69013(11) 0.43253(7)
N4 N 0.36780(18) 0.67383(14) 0.64717(8)
N5 N 0.50797(15) 0.75000(11) 0.64643(7)
N6 N 0.47396(15) 0.66991(11) 0.58359(7)
C1 C 0.63127(17) 0.73272(12) 0.54216(8)
C2 C 0.71896(16) 0.69935(12) 0.53343(8)
H1 H 0.7565 0.6816 0.5571
C3 C 0.75054(16) 0.69266(12) 0.48885(8)
C4 C 0.69320(16) 0.72058(12) 0.45401(8)
H2 H 0.7138 0.7177 0.4241
C5 C 0.60574(16) 0.75256(12) 0.46424(8)
C6 C 0.57246(17) 0.75980(12) 0.50820(8)
H3 H 0.5135 0.7818 0.5146
C7 C 0.84561(17) 0.65495(13) 0.47792(8)
C8 C 0.47406(16) 0.75223(13) 0.41267(8)
C9 C 0.36154(17) 0.75181(15) 0.35959(8)
C10 C 0.36578(17) 0.66270(13) 0.41128(8)
C11 C 0.2408(2) 0.7519(2) 0.30290(10)
H4 H 0.2200 0.7818 0.2778
H5 H 0.1905 0.7494 0.3251
H6 H 0.2559 0.7025 0.2926
C12 C 0.35117(18) 0.56591(14) 0.46745(9)
C13 C 0.38021(18) 0.49206(14) 0.46594(10)
H7 H 0.3874 0.4676 0.4384
C14 C 0.3984(2) 0.45512(15) 0.50624(10)
H8 H 0.4189 0.4057 0.5058
C15 C 0.3862(2) 0.49167(15) 0.54711(10)
H9 H 0.3979 0.4670 0.5743
C16 C 0.35622(19) 0.56540(15) 0.54702(9)
C17 C 0.33822(19) 0.60386(14) 0.50756(9)
H10 H 0.3181 0.6534 0.5080
C18 C 0.3958(2) 0.65002(15) 0.60674(9)
C19 C 0.4286(2) 0.72359(15) 0.66487(9)
C20 C 0.52567(17) 0.72032(13) 0.60571(8)
C21 C 0.4667(3) 0.7989(2) 0.72878(10)
H11 H 0.4671 0.8455 0.7128
H12 H 0.5304 0.7785 0.7293
H13 H 0.4451 0.8069 0.7592
N7 N 0.56307(15) 0.98334(11) 0.58819(7)
C22 C 0.4745(2) 1.02870(16) 0.58073(10)
H14 H 0.4868 1.0659 0.5581
H15 H 0.4565 1.0527 0.6085
H16 H 0.4235 0.9967 0.5708
C23 C 0.6430(2) 1.03210(15) 0.60491(10)
H17 H 0.6993 1.0023 0.6098
H18 H 0.6244 1.0553 0.6329
H19 H 0.6566 1.0700 0.5828
C24 C 0.5913(2) 0.94888(15) 0.54405(9)
H20 H 0.5384 0.9207 0.5322
H21 H 0.6451 0.9163 0.5486
H22 H 0.6085 0.9875 0.5230
C25 C 0.5425(2) 0.92309(16) 0.62183(10)
H23 H 0.4928 0.8912 0.6104
H24 H 0.5220 0.9451 0.6498
H25 H 0.5996 0.8943 0.6269
N8 N 0.3481(3) 0.4320(2) 0.76624(13)
C26 C 0.3713(4) 0.5712(2) 0.74725(17)
H26 H 0.3455 0.5816 0.7178
H27 H 0.4385 0.5828 0.7476
H28 H 0.3387 0.6011 0.7694
C27 C 0.3579(3) 0.4924(2) 0.75776(12)
N9 N 0.6251(5) 0.5884(3) 0.65854(19)
C28 C 0.6123(3) 0.4591(2) 0.69312(15)
H29 H 0.5549 0.4348 0.6829
H30 H 0.6115 0.4626 0.7255
H31 H 0.6672 0.4306 0.6837
C29 C 0.6173(3) 0.5317(2) 0.67424(14)
N10 N 0.6033(3) 0.9550(3) 0.29569(14)
C30 C 0.6394(3) 0.8186(3) 0.31790(14)
H32 H 0.6064 0.7855 0.2976
H33 H 0.6177 0.8100 0.3483
H34 H 0.7072 0.8094 0.3162
C31 C 0.6200(3) 0.8948(3) 0.30531(12)
N11 N 0.5822(3) 0.6392(2) 0.34584(12)
C32 C 0.7568(3) 0.5927(3) 0.34783(16)
H35 H 0.7919 0.6127 0.3226
H36 H 0.7575 0.5391 0.3464
H37 H 0.7861 0.6088 0.3756
C33 C 0.6589(3) 0.6190(2) 0.34617(12)
loop_
_geom_bond_atom_site_label_1
_geom_bond_atom_site_label_2
_geom_bond_site_symmetry_1
_geom_bond_site_symmetry_2
O1 C1 1_555 1_555
O2 C5 1_555 1_555
O3 C10 1_555 1_555
O4 C16 1_555 1_555
O5 C7 1_555 1_555
O6 C7 1_555 1_555
O7 C9 1_555 1_555
O8 C19 1_555 1_555
N1 C8 1_555 1_555
N2 C9 1_555 1_555
N3 C8 1_555 1_555
N4 C18 1_555 1_555
N5 C19 1_555 1_555
N6 C18 1_555 1_555
C1 C2 1_555 1_555
C2 H1 1_555 1_555
C3 C2 1_555 1_555
C4 C3 1_555 1_555
H2 C4 1_555 1_555
C5 C4 1_555 1_555
C6 C1 1_555 1_555
H3 C6 1_555 1_555
C7 C3 1_555 1_555
C8 O2 1_555 1_555
C9 N1 1_555 1_555
C10 N2 1_555 1_555
C11 O7 1_555 1_555
H4 C11 1_555 1_555
H5 C11 1_555 1_555
H6 C11 1_555 1_555
C12 O3 1_555 1_555
C13 C12 1_555 1_555
H7 C13 1_555 1_555
C14 C13 1_555 1_555
H8 C14 1_555 1_555
C15 C14 1_555 1_555
H9 C15 1_555 1_555
C16 C15 1_555 1_555
C17 C12 1_555 1_555
H10 C17 1_555 1_555
C18 O4 1_555 1_555
C19 N4 1_555 1_555
C20 O1 1_555 1_555
C21 O8 1_555 1_555
H11 C21 1_555 1_555
H12 C21 1_555 1_555
H13 C21 1_555 1_555
N7 C22 1_555 1_555
C22 H14 1_555 1_555
H15 C22 1_555 1_555
H16 C22 1_555 1_555
C23 N7 1_555 1_555
H17 C23 1_555 1_555
H18 C23 1_555 1_555
H19 C23 1_555 1_555
C24 N7 1_555 1_555
H20 C24 1_555 1_555
H21 C24 1_555 1_555
H22 C24 1_555 1_555
C25 N7 1_555 1_555
H23 C25 1_555 1_555
H24 C25 1_555 1_555
H25 C25 1_555 1_555
N8 C27 1_555 1_555
C26 H26 1_555 1_555
H27 C26 1_555 1_555
H28 C26 1_555 1_555
C27 C26 1_555 1_555
N9 C29 1_555 1_555
C28 H29 1_555 1_555
H30 C28 1_555 1_555
H31 C28 1_555 1_555
C29 C28 1_555 1_555
N10 C31 1_555 1_555
C30 H32 1_555 1_555
H33 C30 1_555 1_555
H34 C30 1_555 1_555
C31 C30 1_555 1_555
N11 C33 1_555 1_555
C32 H35 1_555 1_555
H36 C32 1_555 1_555
H37 C32 1_555 1_555
C33 C32 1_555 1_555
N3 C10 1_555 1_555
N5 C20 1_555 1_555
N6 C20 1_555 1_555
C5 C6 1_555 1_555
C16 C17 1_555 1_555

#END
