
#######################################################################
#
#                 Cambridge Crystallographic Data Centre
#                                CCDC 
#
#######################################################################
#
# If this CIF has been generated from an entry in the Cambridge 
# Structural Database, then it will include bibliographic, chemical, 
# crystal, experimental, refinement or atomic coordinate data resulting 
# from the CCDC's data processing and validation procedures.
#
#######################################################################

data_FAPRUM
_chemical_formula_moiety         'C12 H11 I1 N2 O2'
_chemical_name_systematic        N-(5-iodo-6-methoxyquinolin-8-yl)acetamide
_symmetry_cell_setting           orthorhombic
_symmetry_space_group_name_H-M   'C m c a'
_symmetry_Int_Tables_number      64
_space_group_name_Hall           '-C 2ac 2'
loop_
_symmetry_equiv_pos_site_id
_symmetry_equiv_pos_as_xyz
1 x,y,z
2 -x,1/2-y,1/2+z
3 x,-y,-z
4 -x,1/2+y,1/2-z
5 1/2+x,1/2+y,z
6 1/2-x,-y,1/2+z
7 1/2+x,1/2-y,-z
8 1/2-x,y,1/2-z
9 -x,-y,-z
10 x,1/2+y,1/2-z
11 -x,y,z
12 x,1/2-y,1/2+z
13 1/2-x,1/2-y,-z
14 1/2+x,y,1/2-z
15 1/2-x,1/2+y,z
16 1/2+x,-y,1/2+z
_cell_length_a                   6.9379(19)
_cell_length_b                   19.798(6)
_cell_length_c                   17.773(4)
_cell_angle_alpha                90
_cell_angle_beta                 90
_cell_angle_gamma                90
_cell_volume                     2441.24
_exptl_crystal_description       block
_cell_formula_units_Z            8
loop_
_atom_site_label
_atom_site_type_symbol
_atom_site_fract_x
_atom_site_fract_y
_atom_site_fract_z
I1 I 0.0000 0.306249(17) 0.516246(17)
O1 O 0.0000 0.43877(17) 0.4240(2)
O2 O 0.0000 0.47382(19) 0.1554(2)
N1 N 0.0000 0.35973(19) 0.1654(2)
H1 H 0.0000 0.3204 0.1392
N2 N 0.0000 0.2324(2) 0.2151(2)
C1 C 0.0000 0.1691(2) 0.2377(3)
H2 H 0.0000 0.1351 0.2016
C2 C 0.0000 0.1503(3) 0.3139(3)
H3 H 0.0000 0.1049 0.3273
C3 C 0.0000 0.1985(2) 0.3675(3)
H4 H 0.0000 0.1863 0.4180
C4 C 0.0000 0.2676(2) 0.3470(3)
C5 C 0.0000 0.3224(2) 0.3996(3)
C6 C 0.0000 0.3881(2) 0.3720(3)
C7 C 0.0000 0.4017(2) 0.2944(3)
H5 H 0.0000 0.4462 0.2777
C8 C 0.0000 0.3502(2) 0.2434(2)
C9 C 0.0000 0.2816(2) 0.2689(3)
C10 C 0.0000 0.4182(3) 0.1260(3)
C11 C 0.0000 0.4091(3) 0.0420(3)
C12 C 0.0000 0.5080(2) 0.3971(3)
H6? H 0.0977 0.5132 0.3593
H7? H 0.0259 0.5380 0.4382
H8? H -0.1237 0.5184 0.3758
H9? H -0.1303 0.4090 0.0239
H10? H 0.0698 0.4455 0.0190
H11? H 0.0605 0.3670 0.0296
loop_
_geom_bond_atom_site_label_1
_geom_bond_atom_site_label_2
_geom_bond_site_symmetry_1
_geom_bond_site_symmetry_2
I1 C5 1_555 1_555
O1 C6 1_555 1_555
O2 C10 1_555 1_555
N1 H1 1_555 1_555
N2 C1 1_555 1_555
C1 H2 1_555 1_555
C2 C1 1_555 1_555
H3 C2 1_555 1_555
C3 C2 1_555 1_555
H4 C3 1_555 1_555
C4 C3 1_555 1_555
C5 C4 1_555 1_555
C6 C5 1_555 1_555
C7 C6 1_555 1_555
H5 C7 1_555 1_555
C8 N1 1_555 1_555
C9 N2 1_555 1_555
C10 N1 1_555 1_555
C11 C10 1_555 1_555
C12 O1 1_555 1_555
C4 C9 1_555 1_555
C7 C8 1_555 1_555
C8 C9 1_555 1_555

#END
