
#######################################################################
#
#                 Cambridge Crystallographic Data Centre
#                                CCDC 
#
#######################################################################
#
# If this CIF has been generated from an entry in the Cambridge 
# Structural Database, then it will include bibliographic, chemical, 
# crystal, experimental, refinement or atomic coordinate data resulting 
# from the CCDC's data processing and validation procedures.
#
#######################################################################

data_FAPRAP
_chemical_formula_moiety         'C18 H39 N9 P4 S4,C1 H2 Cl2'
_chemical_name_systematic        
'2,6-bis(bis(Dimethylamino)-thiophosphorane)-3,5-dimethylamino-3,5-dithioxo-2,4,6-triaza-3\l^5^,5\l^5^-diphosphatricyclo(5.3.1.0^4,11^)undeca-1(11),7,9-triene dichloromethane solvate'
_symmetry_cell_setting           orthorhombic
_symmetry_space_group_name_H-M   'P b c a'
_symmetry_Int_Tables_number      61
_space_group_name_Hall           '-P 2ac 2ab'
loop_
_symmetry_equiv_pos_site_id
_symmetry_equiv_pos_as_xyz
1 x,y,z
2 1/2-x,-y,1/2+z
3 1/2+x,1/2-y,-z
4 -x,1/2+y,1/2-z
5 -x,-y,-z
6 1/2+x,y,1/2-z
7 1/2-x,1/2+y,z
8 x,1/2-y,1/2+z
_cell_length_a                   14.706(3)
_cell_length_b                   21.610(5)
_cell_length_c                   22.000(5)
_cell_angle_alpha                90
_cell_angle_beta                 90
_cell_angle_gamma                90
_cell_volume                     6991.53
_exptl_crystal_colour            colorless
_cell_formula_units_Z            8
loop_
_atom_site_label
_atom_site_type_symbol
_atom_site_fract_x
_atom_site_fract_y
_atom_site_fract_z
Cl1 Cl 0.0164(2) 0.2086(1) 0.0492(1)
Cl2 Cl 0.0190(2) 0.3070(1) -0.0350(1)
C1 C 0.0039(6) 0.2866(4) 0.0415(4)
H1 H 0.0581 0.2972 0.0635
H2 H -0.0466 0.3095 0.0576
S1 S 0.3607(1) 0.0687(1) -0.1053(1)
S2 S 0.1425(2) -0.0180(1) 0.0906(1)
S3 S 0.3421(1) 0.0883(1) 0.2368(1)
S4 S 0.1258(1) 0.3061(1) 0.2039(1)
P1 P 0.2488(1) 0.0469(1) -0.0645(1)
P2 P 0.2434(1) 0.0350(1) 0.0739(1)
P3 P 0.2440(1) 0.1220(1) 0.1903(1)
P4 P 0.2367(1) 0.2610(1) 0.2190(1)
N1 N 0.2439(4) 0.0763(2) 0.0070(2)
N2 N 0.2444(3) 0.1013(2) 0.1160(2)
N3 N 0.2477(3) 0.1998(2) 0.1711(2)
N4 N 0.1571(4) 0.0764(3) -0.0946(3)
N5 N 0.2345(4) -0.0278(3) -0.0569(3)
N6 N 0.3418(4) 0.0019(2) 0.0791(3)
N7 N 0.1440(4) 0.1089(3) 0.2187(3)
N8 N 0.3301(4) 0.2984(3) 0.2050(3)
N9 N 0.2422(4) 0.2325(3) 0.2877(2)
C2 C 0.2490(4) 0.1419(3) 0.0175(3)
C3 C 0.2480(4) 0.1527(3) 0.0782(3)
C4 C 0.2492(4) 0.2085(3) 0.1058(3)
C5 C 0.2530(4) 0.2598(3) 0.0697(2)
C6 C 0.2539(4) 0.2511(3) 0.0068(3)
C7 C 0.2519(4) 0.1927(3) -0.0199(3)
C8 C 0.1466(7) 0.0763(5) -0.1609(4)
C9 C 0.0768(5) 0.0961(4) -0.0628(4)
C10 C 0.3112(7) -0.0703(4) -0.0517(4)
C11 C 0.1468(7) -0.0585(4) -0.0644(4)
C12 C 0.3583(6) -0.0556(3) 0.1136(4)
C13 C 0.4241(4) 0.0396(4) 0.0720(4)
C14 C 0.1271(7) 0.0604(4) 0.2626(4)
C15 C 0.0641(4) 0.1290(4) 0.1851(4)
C16 C 0.3380(6) 0.3633(4) 0.2236(4)
C17 C 0.4154(5) 0.2720(4) 0.1838(4)
C18 C 0.3287(5) 0.2290(4) 0.3217(4)
C19 C 0.1614(5) 0.2192(4) 0.3236(3)
H3 H 0.2547 0.3004 0.0874
H4 H 0.2554 0.2866 -0.0194
H5 H 0.2533 0.1875 -0.0632
H6 H 0.2024 0.0619 -0.1786
H7 H 0.1344 0.1176 -0.1747
H8 H 0.0978 0.0495 -0.1730
H9 H 0.0876 0.0946 -0.0198
H10 H 0.0264 0.0698 -0.0727
H11 H 0.0630 0.1379 -0.0745
H12 H 0.3662 -0.0469 -0.0469
H13 H 0.3155 -0.0954 -0.0876
H14 H 0.3026 -0.0964 -0.0169
H15 H 0.1003 -0.0275 -0.0677
H16 H 0.1345 -0.0843 -0.0298
H17 H 0.1475 -0.0833 -0.1005
H18 H 0.3026 -0.0786 0.1167
H19 H 0.3791 -0.0448 0.1536
H20 H 0.4034 -0.0805 0.0937
H21 H 0.4102 0.0759 0.0486
H22 H 0.4701 0.0159 0.0515
H23 H 0.4458 0.0516 0.1114
H24 H 0.1832 0.0498 0.2823
H25 H 0.1032 0.0246 0.2423
H26 H 0.0842 0.0746 0.2923
H27 H 0.0811 0.1610 0.1571
H28 H 0.0198 0.1448 0.2132
H29 H 0.0387 0.0948 0.1631
H30 H 0.2798 0.3777 0.2374
H31 H 0.3574 0.3879 0.1897
H32 H 0.3815 0.3670 0.2560
H33 H 0.4054 0.2296 0.1725
H34 H 0.4604 0.2739 0.2153
H35 H 0.4363 0.2948 0.1490
H36 H 0.3785 0.2379 0.2949
H37 H 0.3355 0.1879 0.3378
H38 H 0.3284 0.2583 0.3545
H39 H 0.1086 0.2231 0.2982
H40 H 0.1575 0.2484 0.3564
H41 H 0.1645 0.1780 0.3397
loop_
_geom_bond_atom_site_label_1
_geom_bond_atom_site_label_2
_geom_bond_site_symmetry_1
_geom_bond_site_symmetry_2
Cl1 C1 1_555 1_555
Cl2 C1 1_555 1_555
C1 H1 1_555 1_555
H2 C1 1_555 1_555
S1 P1 1_555 1_555
S2 P2 1_555 1_555
S3 P3 1_555 1_555
S4 P4 1_555 1_555
P1 N1 1_555 1_555
P2 N1 1_555 1_555
P3 N2 1_555 1_555
P4 N3 1_555 1_555
N1 C2 1_555 1_555
N2 P2 1_555 1_555
N3 P3 1_555 1_555
N4 P1 1_555 1_555
N5 P1 1_555 1_555
N6 P2 1_555 1_555
N7 P3 1_555 1_555
N8 P4 1_555 1_555
N9 P4 1_555 1_555
C2 C3 1_555 1_555
C3 N2 1_555 1_555
C4 N3 1_555 1_555
C5 C4 1_555 1_555
C6 C5 1_555 1_555
C7 C2 1_555 1_555
C8 N4 1_555 1_555
C9 N4 1_555 1_555
C10 N5 1_555 1_555
C11 N5 1_555 1_555
C12 N6 1_555 1_555
C13 N6 1_555 1_555
C14 N7 1_555 1_555
C15 N7 1_555 1_555
C16 N8 1_555 1_555
C17 N8 1_555 1_555
C18 N9 1_555 1_555
C19 N9 1_555 1_555
H3 C5 1_555 1_555
H4 C6 1_555 1_555
H5 C7 1_555 1_555
H6 C8 1_555 1_555
H7 C8 1_555 1_555
H8 C8 1_555 1_555
H9 C9 1_555 1_555
H10 C9 1_555 1_555
H11 C9 1_555 1_555
H12 C10 1_555 1_555
H13 C10 1_555 1_555
H14 C10 1_555 1_555
H15 C11 1_555 1_555
H16 C11 1_555 1_555
H17 C11 1_555 1_555
H18 C12 1_555 1_555
H19 C12 1_555 1_555
H20 C12 1_555 1_555
H21 C13 1_555 1_555
H22 C13 1_555 1_555
H23 C13 1_555 1_555
H24 C14 1_555 1_555
H25 C14 1_555 1_555
H26 C14 1_555 1_555
H27 C15 1_555 1_555
H28 C15 1_555 1_555
H29 C15 1_555 1_555
H30 C16 1_555 1_555
H31 C16 1_555 1_555
H32 C16 1_555 1_555
H33 C17 1_555 1_555
H34 C17 1_555 1_555
H35 C17 1_555 1_555
H36 C18 1_555 1_555
H37 C18 1_555 1_555
H38 C18 1_555 1_555
H39 C19 1_555 1_555
H40 C19 1_555 1_555
H41 C19 1_555 1_555
C3 C4 1_555 1_555
C6 C7 1_555 1_555

#END
