
#######################################################################
#
#                 Cambridge Crystallographic Data Centre
#                                CCDC 
#
#######################################################################
#
# If this CIF has been generated from an entry in the Cambridge 
# Structural Database, then it will include bibliographic, chemical, 
# crystal, experimental, refinement or atomic coordinate data resulting 
# from the CCDC's data processing and validation procedures.
#
#######################################################################

data_FAPZOL01
_chemical_formula_moiety         'C28 H40'
_chemical_name_systematic        Tetra-t-butyl-s-indacene
_symmetry_cell_setting           monoclinic
_symmetry_space_group_name_H-M   'P 21/n'
_symmetry_Int_Tables_number      14
_space_group_name_Hall           '-P 2yn'
loop_
_symmetry_equiv_pos_site_id
_symmetry_equiv_pos_as_xyz
1 x,y,z
2 1/2-x,1/2+y,1/2-z
3 -x,-y,-z
4 1/2+x,1/2-y,1/2+z
_cell_length_a                   9.700(3)
_cell_length_b                   11.746(3)
_cell_length_c                   10.858(2)
_cell_angle_alpha                90
_cell_angle_beta                 107.67
_cell_angle_gamma                90
_cell_volume                     1178.75
_cell_formula_units_Z            2
loop_
_atom_site_label
_atom_site_type_symbol
_atom_site_fract_x
_atom_site_fract_y
_atom_site_fract_z
C1 C 0.3813(1) 0.0718(1) 0.5002(1)
C2 C 0.4386(1) 0.0746(1) 0.3965(1)
C3 C 0.4410(1) -0.0023(1) 0.6035(1)
C4 C 0.4028(1) -0.0274(1) 0.7190(1)
C5 C 0.4994(1) -0.1115(1) 0.7865(1)
C6 C 0.4023(1) 0.1423(1) 0.2803(1)
C7 C 0.2794(1) 0.0241(1) 0.7590(1)
C8 C 0.2825(1) 0.2298(1) 0.2364(1)
C9 C 0.2711(1) -0.0274(1) 0.8863(1)
C10 C 0.3002(1) 0.1535(1) 0.7768(1)
C11 C 0.1352(1) -0.0012(1) 0.6541(1)
C12 C 0.2775(1) 0.2794(1) 0.1042(1)
C13 C 0.3083(1) 0.3285(1) 0.3340(1)
C14 C 0.1351(1) 0.1740(1) 0.2221(1)
H1 H 0.2981(9) 0.1239(7) 0.5014(8)
H2 H 0.4981(9) -0.1452(7) 0.8687(8)
H3 H 0.2521(9) -0.1124(8) 0.8775(8)
H4 H 0.188(1) 0.0080(8) 0.9117(9)
H5 H 0.3621(9) -0.0121(7) 0.9605(8)
H6 H 0.395(1) 0.1712(8) 0.8462(8)
H7 H 0.216(1) 0.1882(8) 0.8001(8)
H8 H 0.305(1) 0.1940(8) 0.6952(9)
H9 H 0.130(1) 0.0374(9) 0.5702(9)
H10 H 0.050(1) 0.0283(8) 0.6804(9)
H11 H 0.122(1) -0.0871(9) 0.6393(9)
H12 H 0.262(1) 0.2180(9) 0.0390(9)
H13 H 0.3704(9) 0.3200(8) 0.1059(8)
H14 H 0.200(1) 0.3389(9) 0.0775(9)
H15 H 0.311(1) 0.3000(8) 0.421(1)
H16 H 0.228(1) 0.3875(8) 0.3034(9)
H17 H 0.407(1) 0.3656(8) 0.3447(9)
H18 H 0.129(1) 0.1444(8) 0.3080(9)
H19 H 0.115(1) 0.1072(9) 0.158(1)
H20 H 0.055(1) 0.2312(8) 0.1896(9)
C3B C 0.5590(1) 0.0023(1) 0.3965(1)
C2B C 0.5614(1) -0.0746(1) 0.6035(1)
C6B C 0.5977(1) -0.1423(1) 0.7197(1)
C5B C 0.5006(1) 0.1115(1) 0.2135(1)
C1B C 0.6187(1) -0.0718(1) 0.4998(1)
C4B C 0.5972(1) 0.0274(1) 0.2810(1)
C8B C 0.7175(1) -0.2298(1) 0.7636(1)
H2B H 0.5019(9) 0.1452(7) 0.1313(8)
H1B H 0.7019(9) -0.1239(7) 0.4986(8)
C7B C 0.7206(1) -0.0241(1) 0.2410(1)
C12B C 0.7225(1) -0.2794(1) 0.8958(1)
C13B C 0.6917(1) -0.3285(1) 0.6660(1)
C14B C 0.8649(1) -0.1740(1) 0.7779(1)
C9B C 0.7289(1) 0.0274(1) 0.1137(1)
C10B C 0.6998(1) -0.1535(1) 0.2232(1)
C11B C 0.8648(1) 0.0012(1) 0.3459(1)
H12B H 0.738(1) -0.2180(9) 0.9610(9)
H13B H 0.6296(9) -0.3200(8) 0.8941(8)
H14B H 0.800(1) -0.3389(9) 0.9225(9)
H15B H 0.689(1) -0.3000(8) 0.579(1)
H16B H 0.772(1) -0.3875(8) 0.6966(9)
H17B H 0.593(1) -0.3656(8) 0.6553(9)
H18B H 0.871(1) -0.1444(8) 0.6920(9)
H19B H 0.885(1) -0.1072(9) 0.842(1)
H20B H 0.945(1) -0.2312(8) 0.8104(9)
H3B H 0.7479(9) 0.1124(8) 0.1225(8)
H4B H 0.812(1) -0.0080(8) 0.0883(9)
H5B H 0.6379(9) 0.0121(7) 0.0395(8)
H6B H 0.605(1) -0.1712(8) 0.1538(8)
H7B H 0.784(1) -0.1882(8) 0.1999(8)
H8B H 0.695(1) -0.1940(8) 0.3048(9)
H9B H 0.870(1) -0.0374(9) 0.4298(9)
H10B H 0.950(1) -0.0283(8) 0.3196(9)
H11B H 0.878(1) 0.0871(9) 0.3607(9)
loop_
_geom_bond_atom_site_label_1
_geom_bond_atom_site_label_2
_geom_bond_site_symmetry_1
_geom_bond_site_symmetry_2
C1 C2 1_555 1_555
C2 C6 1_555 1_555
C3 C1 1_555 1_555
C4 C3 1_555 1_555
C5 C4 1_555 1_555
C6 C8 1_555 1_555
C7 C4 1_555 1_555
C8 C12 1_555 1_555
C9 C7 1_555 1_555
C10 C7 1_555 1_555
C11 C7 1_555 1_555
C12 H12 1_555 1_555
C13 C8 1_555 1_555
C14 C8 1_555 1_555
H1 C1 1_555 1_555
H2 C5 1_555 1_555
H3 C9 1_555 1_555
H4 C9 1_555 1_555
H5 C9 1_555 1_555
H6 C10 1_555 1_555
H7 C10 1_555 1_555
H8 C10 1_555 1_555
H9 C11 1_555 1_555
H10 C11 1_555 1_555
H11 C11 1_555 1_555
H13 C12 1_555 1_555
H14 C12 1_555 1_555
H15 C13 1_555 1_555
H16 C13 1_555 1_555
H17 C13 1_555 1_555
H18 C14 1_555 1_555
H19 C14 1_555 1_555
H20 C14 1_555 1_555
C3B C2 1_555 1_555
C2B C3 1_555 1_555
C6B C5 1_555 1_555
C5B C6 1_555 1_555
C1B C3B 1_555 1_555
C4B C3B 1_555 1_555
C8B C6B 1_555 1_555
H2B C5B 1_555 1_555
H1B C1B 1_555 1_555
C7B C4B 1_555 1_555
C12B C8B 1_555 1_555
C13B C8B 1_555 1_555
C14B C8B 1_555 1_555
C9B C7B 1_555 1_555
C10B C7B 1_555 1_555
C11B C7B 1_555 1_555
H12B C12B 1_555 1_555
H13B C12B 1_555 1_555
H14B C12B 1_555 1_555
H15B C13B 1_555 1_555
H16B C13B 1_555 1_555
H17B C13B 1_555 1_555
H18B C14B 1_555 1_555
H19B C14B 1_555 1_555
H20B C14B 1_555 1_555
H3B C9B 1_555 1_555
H4B C9B 1_555 1_555
H5B C9B 1_555 1_555
H6B C10B 1_555 1_555
H7B C10B 1_555 1_555
H8B C10B 1_555 1_555
H9B C11B 1_555 1_555
H10B C11B 1_555 1_555
H11B C11B 1_555 1_555
C2B C1B 1_555 1_555
C2B C6B 1_555 1_555
C5B C4B 1_555 1_555

#END
