
#######################################################################
#
#                 Cambridge Crystallographic Data Centre
#                                CCDC 
#
#######################################################################
#
# If this CIF has been generated from an entry in the Cambridge 
# Structural Database, then it will include bibliographic, chemical, 
# crystal, experimental, refinement or atomic coordinate data resulting 
# from the CCDC's data processing and validation procedures.
#
#######################################################################

data_FAPZAY
_chemical_formula_moiety         'C24 H22 N4 O6 S1'
_chemical_name_systematic        
(3'R,4S)-4-Benzyl-3-(2'-diazo-3'-N-tosylamino-3'-(2-furyl)propanoyl)-1,3-oxazolidin-2-one
_symmetry_cell_setting           monoclinic
_symmetry_space_group_name_H-M   'P 21'
_symmetry_Int_Tables_number      4
_space_group_name_Hall           'P 2yb'
loop_
_symmetry_equiv_pos_site_id
_symmetry_equiv_pos_as_xyz
1 x,y,z
2 -x,1/2+y,-z
_cell_length_a                   8.459(2)
_cell_length_b                   8.442(2)
_cell_length_c                   16.182(3)
_cell_angle_alpha                90
_cell_angle_beta                 98.17(3)
_cell_angle_gamma                90
_cell_volume                     1143.84
_exptl_crystal_colour            yellow
_exptl_crystal_description       block
_cell_formula_units_Z            2
loop_
_atom_site_label
_atom_site_type_symbol
_atom_site_fract_x
_atom_site_fract_y
_atom_site_fract_z
S1 S 0.05861(6) 0.67439(6) 0.42391(3)
O1 O -0.1304(2) 1.2030(2) 0.03964(10)
O2 O -0.0189(2) 1.2699(2) 0.16839(10)
O3 O 0.0483(2) 0.7930(2) 0.18503(9)
O4 O 0.4059(2) 1.0161(2) 0.42576(11)
O5 O 0.17342(19) 0.5899(2) 0.38392(11)
O6 O 0.0424(2) 0.6392(2) 0.50949(10)
N1 N -0.0962(2) 1.0091(2) 0.13505(11)
N2 N -0.0805(2) 1.0999(3) 0.30244(11)
N3 N -0.1684(3) 1.1879(3) 0.32042(12)
N4 N 0.1060(2) 0.8608(2) 0.42327(11)
H1 H 0.062(4) 0.923(5) 0.467(2)
C1 C -0.4550(3) 0.7690(3) -0.07527(14)
H2 H -0.5098 0.8626 -0.0685
C2 C -0.4888(3) 0.6833(3) -0.14892(14)
H3 H -0.5645 0.7210 -0.1918
C3 C -0.4100(3) 0.5416(3) -0.15894(15)
H4 H -0.4311 0.4855 -0.2087
C4 C -0.3003(3) 0.4847(3) -0.09446(16)
H5 H -0.2504 0.3878 -0.0999
C5 C -0.2644(3) 0.5716(3) -0.02170(15)
H6 H -0.1890 0.5330 0.0210
C6 C -0.3390(3) 0.7150(3) -0.01134(13)
C7 C -0.2915(3) 0.8139(3) 0.06635(14)
H7 H -0.2612 0.7444 0.1137
H8 H -0.3824 0.8763 0.0776
C8 C -0.1523(3) 0.9245(3) 0.05652(13)
H9 H -0.0643 0.8645 0.0382
C9 C -0.1987(3) 1.0636(3) -0.00270(14)
H10 H -0.1567 1.0484 -0.0549
H11 H -0.3140 1.0732 -0.0146
C10 C -0.0751(3) 1.1703(3) 0.12054(13)
C11 C -0.0047(3) 0.9225(3) 0.20007(13)
C12 C 0.0201(3) 0.9898(3) 0.28276(13)
C13 C 0.1537(2) 0.9337(3) 0.34827(13)
H12 H 0.2114 0.8520 0.3216
C14 C 0.2719(3) 1.0636(3) 0.37373(13)
C15 C 0.2813(3) 1.2179(3) 0.35487(16)
H13 H 0.2057 1.2772 0.3207
C16 C 0.4312(3) 1.2731(4) 0.39792(16)
H14 H 0.4720 1.3753 0.3973
C17 C 0.5001(3) 1.1487(4) 0.43907(17)
H15 H 0.5991 1.1513 0.4724
C18 C -0.1307(3) 0.6492(3) 0.36445(13)
C19 C -0.2644(3) 0.7105(3) 0.39525(14)
H16 H -0.2534 0.7627 0.4463
C20 C -0.4131(3) 0.6921(3) 0.34860(14)
H17 H -0.5023 0.7340 0.3683
C21 C -0.4321(3) 0.6118(3) 0.27227(14)
C22 C -0.2963(3) 0.5510(3) 0.24377(14)
H18 H -0.3072 0.4969 0.1932
C23 C -0.1450(3) 0.5692(3) 0.28913(14)
H19 H -0.0554 0.5284 0.2693
C24 C -0.5951(3) 0.5911(4) 0.22253(15)
H20 H -0.5979 0.6412 0.1691
H21 H -0.6739 0.6386 0.2520
H22 H -0.6177 0.4802 0.2148
loop_
_geom_bond_atom_site_label_1
_geom_bond_atom_site_label_2
_geom_bond_site_symmetry_1
_geom_bond_site_symmetry_2
S1 O5 1_555 1_555
O1 C9 1_555 1_555
O2 C10 1_555 1_555
O3 C11 1_555 1_555
O4 C14 1_555 1_555
O6 S1 1_555 1_555
N1 C8 1_555 1_555
N2 N3 1_555 1_555
N4 S1 1_555 1_555
H1 N4 1_555 1_555
C1 H2 1_555 1_555
C2 C1 1_555 1_555
H3 C2 1_555 1_555
C3 C2 1_555 1_555
H4 C3 1_555 1_555
C4 C3 1_555 1_555
H5 C4 1_555 1_555
C5 C4 1_555 1_555
H6 C5 1_555 1_555
C6 C1 1_555 1_555
C7 C6 1_555 1_555
H7 C7 1_555 1_555
H8 C7 1_555 1_555
C8 C7 1_555 1_555
H9 C8 1_555 1_555
C9 C8 1_555 1_555
H10 C9 1_555 1_555
H11 C9 1_555 1_555
C10 O1 1_555 1_555
C11 N1 1_555 1_555
C12 N2 1_555 1_555
C13 N4 1_555 1_555
H12 C13 1_555 1_555
C14 C13 1_555 1_555
C15 C14 1_555 1_555
H13 C15 1_555 1_555
C16 C15 1_555 1_555
H14 C16 1_555 1_555
C17 O4 1_555 1_555
H15 C17 1_555 1_555
C18 S1 1_555 1_555
C19 C18 1_555 1_555
H16 C19 1_555 1_555
C20 C19 1_555 1_555
H17 C20 1_555 1_555
C21 C20 1_555 1_555
C22 C21 1_555 1_555
H18 C22 1_555 1_555
C23 C18 1_555 1_555
H19 C23 1_555 1_555
C24 C21 1_555 1_555
H20 C24 1_555 1_555
H21 C24 1_555 1_555
H22 C24 1_555 1_555
N1 C10 1_555 1_555
C5 C6 1_555 1_555
C11 C12 1_555 1_555
C12 C13 1_555 1_555
C16 C17 1_555 1_555
C22 C23 1_555 1_555

#END
