
#######################################################################
#
#                 Cambridge Crystallographic Data Centre
#                                CCDC 
#
#######################################################################
#
# If this CIF has been generated from an entry in the Cambridge 
# Structural Database, then it will include bibliographic, chemical, 
# crystal, experimental, refinement or atomic coordinate data resulting 
# from the CCDC's data processing and validation procedures.
#
#######################################################################

data_FAQCIJ
_chemical_formula_moiety         'C5 H6 N3 O2 1+,N1 O3 1-'
_chemical_name_systematic        '4-(Nitroamino)pyridinium nitrate'
_symmetry_cell_setting           monoclinic
_symmetry_space_group_name_H-M   'P 21/c'
_symmetry_Int_Tables_number      14
_space_group_name_Hall           '-P 2ybc'
loop_
_symmetry_equiv_pos_site_id
_symmetry_equiv_pos_as_xyz
1 x,y,z
2 -x,1/2+y,1/2-z
3 -x,-y,-z
4 x,1/2-y,1/2+z
_cell_length_a                   7.724(1)
_cell_length_b                   8.6981(10)
_cell_length_c                   11.6205(12)
_cell_angle_alpha                90
_cell_angle_beta                 92.737(13)
_cell_angle_gamma                90
_cell_volume                     779.823
_exptl_crystal_colour            'pale yellow'
_exptl_crystal_description       prism
_cell_formula_units_Z            4
loop_
_atom_site_label
_atom_site_type_symbol
_atom_site_fract_x
_atom_site_fract_y
_atom_site_fract_z
O1 O 0.09606(7) 0.99653(5) 0.63555(5)
O2 O 0.03292(7) 0.77659(6) 0.70826(4)
N1 N 0.28192(7) 0.33407(6) 0.48649(4)
N2 N 0.17068(7) 0.78853(5) 0.54466(5)
N3 N 0.09661(7) 0.85669(6) 0.63594(5)
C1 C 0.21471(8) 0.36981(7) 0.58653(5)
C2 C 0.17376(8) 0.51807(7) 0.61318(5)
C3 C 0.20714(7) 0.63323(6) 0.53377(5)
C4 C 0.28203(8) 0.59260(7) 0.43099(5)
C5 C 0.31730(8) 0.44244(7) 0.40911(5)
H1 H 0.2967(9) 0.2408(9) 0.4706(6)
H2 H 0.1972(9) 0.2889(7) 0.6390(5)
H3 H 0.1355(8) 0.5363(6) 0.6826(6)
H4 H 0.2999(8) 0.6663(7) 0.3768(5)
H5 H 0.3611(8) 0.4116(7) 0.3395(5)
H6 H 0.2130(9) 0.8548(8) 0.4968(5)
O3 O 0.48033(7) 0.61562(5) 0.83270(5)
O4 O 0.30978(6) 0.47148(5) 0.92627(4)
O5 O 0.49910(7) 0.36994(5) 0.81960(4)
N4 N 0.43288(7) 0.48658(5) 0.85795(4)
loop_
_geom_bond_atom_site_label_1
_geom_bond_atom_site_label_2
_geom_bond_site_symmetry_1
_geom_bond_site_symmetry_2
O1 N3 1_555 1_555
O2 N3 1_555 1_555
N1 C1 1_555 1_555
N2 N3 1_555 1_555
C1 C2 1_555 1_555
C2 C3 1_555 1_555
C3 N2 1_555 1_555
C4 C3 1_555 1_555
C5 N1 1_555 1_555
H1 N1 1_555 1_555
H2 C1 1_555 1_555
H3 C2 1_555 1_555
H4 C4 1_555 1_555
H5 C5 1_555 1_555
H6 N2 1_555 1_555
O3 N4 1_555 1_555
O4 N4 1_555 1_555
O5 N4 1_555 1_555
C4 C5 1_555 1_555

#END
