
#######################################################################
#
#                 Cambridge Crystallographic Data Centre
#                                CCDC 
#
#######################################################################
#
# If this CIF has been generated from an entry in the Cambridge 
# Structural Database, then it will include bibliographic, chemical, 
# crystal, experimental, refinement or atomic coordinate data resulting 
# from the CCDC's data processing and validation procedures.
#
#######################################################################

data_FAQNUJ
_chemical_formula_moiety         'C23 H21 B1 N4 O2'
_chemical_name_systematic        
"methyl 4-(5,5-dicyano-1,3,7,9-tetramethyl-5H-6,5-dipyrrolo[1,2-c:2',1'-f][1,3,2]diazaborinin-10-yl)benzoate"
_symmetry_cell_setting           monoclinic
_symmetry_space_group_name_H-M   'P 21/c'
_symmetry_Int_Tables_number      14
_space_group_name_Hall           '-P 2ybc'
loop_
_symmetry_equiv_pos_site_id
_symmetry_equiv_pos_as_xyz
1 x,y,z
2 -x,1/2+y,1/2-z
3 -x,-y,-z
4 x,1/2-y,1/2+z
_cell_length_a                   9.6379(6)
_cell_length_b                   29.7309(19)
_cell_length_c                   7.1824(5)
_cell_angle_alpha                90
_cell_angle_beta                 102.474(3)
_cell_angle_gamma                90
_cell_volume                     2009.49
_exptl_crystal_colour            orange
_exptl_crystal_description       needle
_cell_formula_units_Z            4
loop_
_atom_site_label
_atom_site_type_symbol
_atom_site_fract_x
_atom_site_fract_y
_atom_site_fract_z
O1 O 0.08319(15) 0.28451(4) 0.39570(19)
O2 O -0.04662(15) 0.22611(5) 0.25557(19)
N1 N 0.65194(17) 0.07159(5) 0.8786(2)
N2 N 0.76871(16) 0.09363(5) 0.6147(2)
N3 N 0.71164(19) -0.02424(6) 0.6136(2)
N4 N 1.02704(19) 0.06833(6) 1.0312(2)
C1 C 0.6238(2) 0.05152(7) 1.0362(2)
C2 C 0.4991(2) 0.06993(7) 1.0720(3)
H1 H 0.4572 0.0621 1.1758
C3 C 0.4461(2) 0.10122(7) 0.9339(3)
C4 C 0.5439(2) 0.10266(6) 0.8100(3)
C5 C 0.5465(2) 0.12830(6) 0.6478(2)
C6 C 0.6592(2) 0.12478(6) 0.5528(2)
C7 C 0.6893(2) 0.14786(6) 0.3927(2)
C8 C 0.8144(2) 0.12954(6) 0.3610(2)
H2 H 0.8606 0.1381 0.2622
C9 C 0.8617(2) 0.09640(6) 0.4978(2)
C10 C 0.7155(2) 0.01580(7) 1.1432(3)
H3 H 0.7327 -0.0075 1.0542
H4 H 0.6679 0.0024 1.2373
H5 H 0.8062 0.0289 1.2085
C11 C 0.3124(2) 0.12775(8) 0.9207(3)
H6 H 0.2644 0.1179 1.0209
H7 H 0.2495 0.1229 0.7956
H8 H 0.3356 0.1598 0.9370
C12 C 0.6108(2) 0.18563(7) 0.2792(3)
H9 H 0.6536 0.1922 0.1702
H10 H 0.6161 0.2124 0.3599
H11 H 0.5110 0.1771 0.2332
C13 C 0.9913(2) 0.06806(7) 0.5212(3)
H12 H 1.0632 0.0791 0.6295
H13 H 1.0287 0.0696 0.4049
H14 H 0.9673 0.0368 0.5446
C14 C 0.4248(2) 0.15861(6) 0.5707(2)
C15 C 0.4246(2) 0.20350(6) 0.6245(3)
H15 H 0.5046 0.2156 0.7109
C16 C 0.3092(2) 0.23062(7) 0.5533(3)
H16 H 0.3103 0.2613 0.5909
C17 C 0.1916(2) 0.21339(6) 0.4273(2)
C18 C 0.1916(2) 0.16849(6) 0.3718(3)
H17 H 0.1118 0.1565 0.2848
C19 C 0.3077(2) 0.14118(6) 0.4429(3)
H18 H 0.3073 0.1106 0.4043
C20 C 0.0628(2) 0.24079(7) 0.3496(3)
C21 C -0.0391(2) 0.31310(7) 0.3305(3)
H19 H -0.0666 0.3120 0.1910
H20 H -0.0152 0.3441 0.3716
H21 H -0.1183 0.3025 0.3846
C22 C 0.7418(2) 0.00981(7) 0.6855(2)
C23 C 0.9217(2) 0.06248(6) 0.9245(3)
B1 B 0.7714(2) 0.05931(7) 0.7762(3)
loop_
_geom_bond_atom_site_label_1
_geom_bond_atom_site_label_2
_geom_bond_site_symmetry_1
_geom_bond_site_symmetry_2
O1 C20 1_555 1_555
O2 C20 1_555 1_555
N1 C1 1_555 1_555
N2 C6 1_555 1_555
N3 C22 1_555 1_555
N4 C23 1_555 1_555
C1 C2 1_555 1_555
C2 H1 1_555 1_555
C3 C2 1_555 1_555
C4 N1 1_555 1_555
C5 C4 1_555 1_555
C6 C5 1_555 1_555
C7 C6 1_555 1_555
C8 C7 1_555 1_555
H2 C8 1_555 1_555
C9 N2 1_555 1_555
C10 C1 1_555 1_555
H3 C10 1_555 1_555
H4 C10 1_555 1_555
H5 C10 1_555 1_555
C11 C3 1_555 1_555
H6 C11 1_555 1_555
H7 C11 1_555 1_555
H8 C11 1_555 1_555
C12 C7 1_555 1_555
H9 C12 1_555 1_555
H10 C12 1_555 1_555
H11 C12 1_555 1_555
C13 C9 1_555 1_555
H12 C13 1_555 1_555
H13 C13 1_555 1_555
H14 C13 1_555 1_555
C14 C5 1_555 1_555
C15 C14 1_555 1_555
H15 C15 1_555 1_555
C16 C15 1_555 1_555
H16 C16 1_555 1_555
C17 C16 1_555 1_555
C18 C17 1_555 1_555
H17 C18 1_555 1_555
C19 C14 1_555 1_555
H18 C19 1_555 1_555
C20 C17 1_555 1_555
C21 O1 1_555 1_555
H19 C21 1_555 1_555
H20 C21 1_555 1_555
H21 C21 1_555 1_555
C22 B1 1_555 1_555
C23 B1 1_555 1_555
B1 N1 1_555 1_555
N2 B1 1_555 1_555
C3 C4 1_555 1_555
C8 C9 1_555 1_555
C18 C19 1_555 1_555

#END
