
#######################################################################
#
#                 Cambridge Crystallographic Data Centre
#                                CCDC 
#
#######################################################################
#
# If this CIF has been generated from an entry in the Cambridge 
# Structural Database, then it will include bibliographic, chemical, 
# crystal, experimental, refinement or atomic coordinate data resulting 
# from the CCDC's data processing and validation procedures.
#
#######################################################################

data_FAQNET
_chemical_formula_moiety         'C19 H19 N3 O2 S2'
_chemical_name_systematic        
N,N'-bis(2-(2-thienyl)ethyl)pyridine-2,6-dicarboxamide
_symmetry_cell_setting           monoclinic
_symmetry_space_group_name_H-M   'P 21/c'
_symmetry_Int_Tables_number      14
_space_group_name_Hall           '-P 2ybc'
loop_
_symmetry_equiv_pos_site_id
_symmetry_equiv_pos_as_xyz
1 x,y,z
2 -x,1/2+y,1/2-z
3 -x,-y,-z
4 x,1/2-y,1/2+z
_cell_length_a                   10.3623(3)
_cell_length_b                   20.1923(7)
_cell_length_c                   9.4279(3)
_cell_angle_alpha                90
_cell_angle_beta                 114.1310(10)
_cell_angle_gamma                90
_cell_volume                     1800.29
_exptl_crystal_colour            colorless
_exptl_crystal_description       block
_cell_formula_units_Z            4
_exptl_crystal_recrystallization_method tetrahydrofuran
loop_
_atom_site_label
_atom_site_type_symbol
_atom_site_fract_x
_atom_site_fract_y
_atom_site_fract_z
O1 O 0.57577(12) 0.97766(6) 0.71962(13)
O2 O 0.91574(12) 0.70872(5) 1.20520(12)
N1 N 0.74408(13) 0.91688(6) 0.68528(15)
H1 H 0.7989(19) 0.8827(9) 0.717(2)
N2 N 0.77219(13) 0.83980(6) 0.93362(14)
N3 N 0.97307(13) 0.74773(6) 1.01234(15)
H2 H 0.9473(18) 0.7734(9) 0.936(2)
C1 C 0.83202(16) 0.92930(7) 0.48110(17)
H3 H 0.9298 0.9253 0.5616
H4 H 0.7987 0.8844 0.4401
C2 C 0.83178(15) 0.97270(7) 0.35137(17)
C3 C 0.75650(16) 1.02899(8) 0.29080(18)
H5 H 0.6923 1.0481 0.3278
C4 C 0.78400(17) 1.05627(8) 0.16629(19)
H6 H 0.7400 1.0953 0.1117
C5 C 0.87974(17) 1.02054(8) 0.13421(18)
H7 H 0.9109 1.0314 0.0553
S1 S 0.93720(4) 0.95305(2) 0.25476(4)
C6 C 0.73721(15) 0.95736(7) 0.55423(17)
H8 H 0.7672 1.0031 0.5903
H9 H 0.6384 0.9590 0.4753
C7 C 0.66127(15) 0.93177(7) 0.75906(17)
C8 C 0.67737(15) 0.88878(7) 0.89610(17)
C9 C 0.59402(15) 0.90156(8) 0.97755(17)
H10 H 0.5297 0.9377 0.9494
C10 C 0.60686(15) 0.86060(8) 1.09991(17)
H11 H 0.5503 0.8676 1.1564
C11 C 0.70396(16) 0.80889(8) 1.13916(17)
H12 H 0.7142 0.7796 1.2219
C12 C 0.78562(15) 0.80121(7) 1.05444(16)
C13 C 0.89740(15) 0.74804(7) 1.09733(17)
C14 C 1.08657(16) 0.70139(8) 1.03420(19)
H13 H 1.0526 0.6673 0.9517
H14 H 1.1139 0.6788 1.1356
C15 C 1.21611(17) 0.73599(8) 1.02952(19)
H15 H 1.2794 0.7018 1.0174
H16 H 1.1843 0.7646 0.9362
C16 C 1.3007(4) 0.7777(2) 1.1698(4)
C17 C 1.4261(4) 0.76457(16) 1.2880(4)
H17 H 1.4734 0.7235 1.2957
C18 C 1.4831(5) 0.81496(16) 1.3994(6)
H18 H 1.5695 0.8114 1.4891
C19 C 1.3981(2) 0.86961(13) 1.3621(2)
H19 H 1.4187 0.9094 1.4210
S2 S 1.24775(6) 0.85691(3) 1.19321(7)
H20? H 1.2830 0.7015 1.0269
H21? H 1.1853 0.7611 0.9309
C20? C 1.2920(19) 0.7809(9) 1.1559(17)
C21? C 1.2688(15) 0.8428(7) 1.1835(18)
H22? H 1.1905 0.8678 1.1146
C22? C 1.3677(15) 0.8686(8) 1.3208(15)
H23? H 1.3636 0.9120 1.3576
C23? C 1.470(2) 0.8248(9) 1.396(3)
H24? H 1.5496 0.8339 1.4897
S3? S 1.4388(6) 0.7484(2) 1.2977(6)
loop_
_geom_bond_atom_site_label_1
_geom_bond_atom_site_label_2
_geom_bond_site_symmetry_1
_geom_bond_site_symmetry_2
O1 C7 1_555 1_555
O2 C13 1_555 1_555
N1 H1 1_555 1_555
N2 C8 1_555 1_555
N3 H2 1_555 1_555
C1 H3 1_555 1_555
H4 C1 1_555 1_555
C2 C1 1_555 1_555
C3 C2 1_555 1_555
H5 C3 1_555 1_555
C4 C3 1_555 1_555
H6 C4 1_555 1_555
C5 C4 1_555 1_555
H7 C5 1_555 1_555
S1 C2 1_555 1_555
C6 N1 1_555 1_555
H8 C6 1_555 1_555
H9 C6 1_555 1_555
C7 N1 1_555 1_555
C8 C7 1_555 1_555
C9 C8 1_555 1_555
H10 C9 1_555 1_555
C10 C9 1_555 1_555
H11 C10 1_555 1_555
C11 C10 1_555 1_555
H12 C11 1_555 1_555
C12 N2 1_555 1_555
C13 N3 1_555 1_555
C14 N3 1_555 1_555
H13 C14 1_555 1_555
H14 C14 1_555 1_555
C15 C14 1_555 1_555
H15 C15 1_555 1_555
H16 C15 1_555 1_555
C16 C15 1_555 1_555
C17 C16 1_555 1_555
H17 C17 1_555 1_555
C18 C17 1_555 1_555
H18 C18 1_555 1_555
C19 C18 1_555 1_555
H19 C19 1_555 1_555
S2 C16 1_555 1_555
C1 C6 1_555 1_555
C5 S1 1_555 1_555
C11 C12 1_555 1_555
C12 C13 1_555 1_555
C19 S2 1_555 1_555

#END
