
#######################################################################
#
#                 Cambridge Crystallographic Data Centre
#                                CCDC 
#
#######################################################################
#
# If this CIF has been generated from an entry in the Cambridge 
# Structural Database, then it will include bibliographic, chemical, 
# crystal, experimental, refinement or atomic coordinate data resulting 
# from the CCDC's data processing and validation procedures.
#
#######################################################################

data_FAQPAR
_chemical_formula_moiety         'C25 H27 B1 N4'
_chemical_name_systematic        
2,8-diethyl-1,3,7,9-tetramethyl-10-phenyl-5H-6,5-dipyrrolo[1,2-c:2',1'-f][1,3,2]diazaborinine-5,5-dicarbonitrile
_symmetry_cell_setting           monoclinic
_symmetry_space_group_name_H-M   'C c'
_symmetry_Int_Tables_number      9
_space_group_name_Hall           'C -2yc'
loop_
_symmetry_equiv_pos_site_id
_symmetry_equiv_pos_as_xyz
1 x,y,z
2 x,-y,1/2+z
3 1/2+x,1/2+y,z
4 1/2+x,1/2-y,1/2+z
_cell_length_a                   20.4760(3)
_cell_length_b                   11.3191(2)
_cell_length_c                   11.2060(2)
_cell_angle_alpha                90
_cell_angle_beta                 120.7950(10)
_cell_angle_gamma                90
_cell_volume                     2231.02
_exptl_crystal_colour            orange
_cell_formula_units_Z            4
loop_
_atom_site_label
_atom_site_type_symbol
_atom_site_fract_x
_atom_site_fract_y
_atom_site_fract_z
N1 N 0.51835(7) 0.43950(12) 0.62631(13)
N2 N 0.56650(7) 0.25513(11) 0.57710(13)
N3 N 0.36115(9) 0.27480(16) 0.36996(16)
N4 N 0.50495(9) 0.19242(14) 0.81689(15)
C1 C 0.47795(9) 0.51702(15) 0.65546(16)
C2 C 0.50860(9) 0.63100(14) 0.67187(16)
C3 C 0.57085(9) 0.62269(13) 0.65282(15)
C4 C 0.57636(8) 0.50219(13) 0.62256(15)
C5 C 0.62735(8) 0.44363(13) 0.59477(14)
C6 C 0.62260(8) 0.32200(13) 0.57162(15)
C7 C 0.66760(8) 0.24305(14) 0.54406(15)
C8 C 0.63894(9) 0.12985(14) 0.53651(17)
C9 C 0.57618(9) 0.14052(14) 0.55585(17)
C10 C 0.41127(11) 0.48146(17) 0.6676(2)
H1 H 0.3732 0.4430 0.5813
H2 H 0.3890 0.5517 0.6840
H3 H 0.4280 0.4263 0.7453
C11 C 0.47611(11) 0.74131(15) 0.69481(19)
H4 H 0.5178 0.7978 0.7505
H5 H 0.4511 0.7219 0.7480
C12 C 0.41829(10) 0.79918(16) 0.5570(2)
H6 H 0.4428 0.8176 0.5036
H7 H 0.3992 0.8722 0.5754
H8 H 0.3758 0.7448 0.5036
C13 C 0.61985(10) 0.72496(14) 0.66281(17)
H9 H 0.6039 0.7537 0.5693
H10 H 0.6731 0.6995 0.7089
H11 H 0.6146 0.7885 0.7167
C14 C 0.73350(9) 0.27155(15) 0.52641(17)
H12 H 0.7792 0.2829 0.6178
H13 H 0.7227 0.3441 0.4717
H14 H 0.7418 0.2063 0.4781
C15 C 0.67057(11) 0.01538(16) 0.5209(2)
H15 H 0.6934 0.0280 0.4625
H16 H 0.6288 -0.0426 0.4732
C16 C 0.73074(12) -0.03450(17) 0.6613(2)
H17 H 0.7726 0.0222 0.7082
H18 H 0.7503 -0.1090 0.6472
H19 H 0.7081 -0.0487 0.7186
C17 C 0.52643(11) 0.04378(15) 0.5547(2)
H20 H 0.5427 0.0213 0.6504
H21 H 0.5303 -0.0247 0.5052
H22 H 0.4736 0.0712 0.5077
C18 C 0.42091(9) 0.28652(14) 0.46386(16)
C19 C 0.50490(9) 0.24106(14) 0.72736(16)
C20 C 0.68808(8) 0.51263(13) 0.59090(15)
C21 C 0.67055(9) 0.58006(14) 0.47440(15)
H23 H 0.6199 0.5818 0.3975
C22 C 0.72719(10) 0.64508(15) 0.47036(17)
H24 H 0.7153 0.6909 0.3907
C23 C 0.80080(10) 0.64255(16) 0.58282(19)
H25 H 0.8394 0.6871 0.5803
C24 C 0.81862(10) 0.57557(17) 0.69902(18)
H26 H 0.8693 0.5744 0.7757
C25 C 0.76246(9) 0.50988(15) 0.70377(16)
H27 H 0.7747 0.4636 0.7832
B1 B 0.50425(9) 0.30705(15) 0.59887(17)
loop_
_geom_bond_atom_site_label_1
_geom_bond_atom_site_label_2
_geom_bond_site_symmetry_1
_geom_bond_site_symmetry_2
N1 C1 1_555 1_555
N2 C6 1_555 1_555
N3 C18 1_555 1_555
N4 C19 1_555 1_555
C1 C2 1_555 1_555
C2 C3 1_555 1_555
C3 C4 1_555 1_555
C4 N1 1_555 1_555
C5 C4 1_555 1_555
C6 C5 1_555 1_555
C7 C6 1_555 1_555
C8 C7 1_555 1_555
C9 N2 1_555 1_555
C10 C1 1_555 1_555
H1 C10 1_555 1_555
H2 C10 1_555 1_555
H3 C10 1_555 1_555
C11 C2 1_555 1_555
H4 C11 1_555 1_555
H5 C11 1_555 1_555
C12 C11 1_555 1_555
H6 C12 1_555 1_555
H7 C12 1_555 1_555
H8 C12 1_555 1_555
C13 C3 1_555 1_555
H9 C13 1_555 1_555
H10 C13 1_555 1_555
H11 C13 1_555 1_555
C14 C7 1_555 1_555
H12 C14 1_555 1_555
H13 C14 1_555 1_555
H14 C14 1_555 1_555
C15 C8 1_555 1_555
H15 C15 1_555 1_555
H16 C15 1_555 1_555
C16 C15 1_555 1_555
H17 C16 1_555 1_555
H18 C16 1_555 1_555
H19 C16 1_555 1_555
C17 C9 1_555 1_555
H20 C17 1_555 1_555
H21 C17 1_555 1_555
H22 C17 1_555 1_555
C18 B1 1_555 1_555
C19 B1 1_555 1_555
C20 C5 1_555 1_555
C21 C20 1_555 1_555
H23 C21 1_555 1_555
C22 C21 1_555 1_555
H24 C22 1_555 1_555
C23 C22 1_555 1_555
H25 C23 1_555 1_555
C24 C23 1_555 1_555
H26 C24 1_555 1_555
C25 C20 1_555 1_555
H27 C25 1_555 1_555
B1 N1 1_555 1_555
N2 B1 1_555 1_555
C8 C9 1_555 1_555
C24 C25 1_555 1_555

#END
