
#######################################################################
#
#                 Cambridge Crystallographic Data Centre
#                                CCDC 
#
#######################################################################
#
# If this CIF has been generated from an entry in the Cambridge 
# Structural Database, then it will include bibliographic, chemical, 
# crystal, experimental, refinement or atomic coordinate data resulting 
# from the CCDC's data processing and validation procedures.
#
#######################################################################

data_FAQSAT
_chemical_formula_moiety         'C9 H14 N1 1+,C18 H14 O8,C18 H13 O8 1-,H2 O1'
_chemical_name_systematic        
'(1-n-Butylpyridinium) 2,3-bis(benzoyloxy)succinic acid 2,3-bis(benzoyloxy)-3-carboxypropanoate monohydrate'
_symmetry_cell_setting           monoclinic
_symmetry_space_group_name_H-M   'P 21'
_symmetry_Int_Tables_number      4
_space_group_name_Hall           'P 2yb'
loop_
_symmetry_equiv_pos_site_id
_symmetry_equiv_pos_as_xyz
1 x,y,z
2 -x,1/2+y,-z
_cell_length_a                   7.988(6)
_cell_length_b                   27.482(18)
_cell_length_c                   10.610(8)
_cell_angle_alpha                90
_cell_angle_beta                 101.723(10)
_cell_angle_gamma                90
_cell_volume                     2280.59
_exptl_crystal_colour            colorless
_exptl_crystal_description       prism
_cell_formula_units_Z            2
_exptl_crystal_recrystallization_method ethanol
loop_
_atom_site_label
_atom_site_type_symbol
_atom_site_fract_x
_atom_site_fract_y
_atom_site_fract_z
C1 C -0.6116(6) 0.53052(19) 0.4422(6)
H1 H -0.6115 0.5097 0.5173
C2 C -0.7659(6) 0.5196(2) 0.3433(5)
H2 H -0.7562 0.4864 0.3122
C3 C -0.4464(7) 0.5208(2) 0.3913(6)
C4 C -0.9296(6) 0.5230(2) 0.3994(6)
C5 C -0.8425(9) 0.5346(3) 0.1159(7)
C6 C -0.8593(9) 0.5712(3) 0.0177(7)
C7 C -0.8514(11) 0.6190(4) 0.0454(10)
H3 H -0.8266 0.6283 0.1315
C8 C -0.8796(16) 0.6567(5) -0.0517(12)
H4 H -0.8745 0.6896 -0.0306
C9 C -0.914(2) 0.6409(9) -0.1771(17)
H5 H -0.9454 0.6635 -0.2430
C10 C -0.9047(18) 0.5927(8) -0.2078(12)
H6 H -0.9029 0.5835 -0.2919
C11 C -0.8974(13) 0.5572(4) -0.1118(9)
H7 H -0.9176 0.5247 -0.1339
C12 C -0.5187(8) 0.5935(2) 0.5953(6)
C13 C -0.5257(8) 0.6451(2) 0.6242(6)
C14 C -0.4155(14) 0.6645(3) 0.7304(9)
H8 H -0.3366 0.6440 0.7809
C15 C -0.4180(16) 0.7122(4) 0.7638(9)
H9 H -0.3441 0.7245 0.8360
C16 C -0.5386(12) 0.7424(4) 0.6834(11)
H10 H -0.5444 0.7752 0.7041
C17 C -0.6419(12) 0.7256(3) 0.5812(13)
H11 H -0.7169 0.7468 0.5295
C18 C -0.6420(10) 0.6771(3) 0.5484(10)
H12 H -0.7185 0.6656 0.4766
O1 O -0.4487(6) 0.4791(2) 0.3423(8)
H37 H -0.3517 0.4716 0.3351
O2 O -0.3345(5) 0.55097(17) 0.4039(5)
O3 O -0.9297(6) 0.5020(2) 0.5009(6)
O4 O -1.0525(5) 0.54620(16) 0.3303(5)
H38 H -1.1371 0.5444 0.3627
O5 O -0.7785(4) 0.55234(14) 0.2366(4)
O6 O -0.8771(10) 0.4920(2) 0.0987(6)
O7 O -0.6191(4) 0.58068(13) 0.4803(4)
O8 O -0.4374(9) 0.5631(2) 0.6657(5)
C19 C -0.9989(6) 0.37513(19) 0.3485(6)
H13 H -0.9233 0.3964 0.4089
C20 C -0.9455(7) 0.3758(2) 0.2170(6)
H14 H -0.9558 0.4092 0.1840
C21 C -1.1838(7) 0.3922(2) 0.3337(6)
C22 C -0.7610(7) 0.3592(2) 0.2273(6)
C23 C -1.0891(8) 0.3572(2) 0.0054(6)
C24 C -1.2267(9) 0.3252(3) -0.0757(8)
C25 C -1.2577(13) 0.3318(5) -0.2065(8)
H15 H -1.1919 0.3541 -0.2409
C26 C -1.3816(17) 0.3066(7) -0.2875(12)
H16 H -1.4104 0.3129 -0.3753
C27 C -1.470(2) 0.2672(9) -0.223(2)
H17 H -1.5483 0.2465 -0.2732
C28 C -1.437(2) 0.2625(7) -0.1026(18)
H18 H -1.4991 0.2397 -0.0659
C29 C -1.3087(19) 0.2909(5) -0.0184(14)
H19 H -1.2832 0.2859 0.0701
C30 C -0.9610(8) 0.3200(2) 0.5205(7)
C31 C -0.9272(8) 0.2691(2) 0.5618(7)
C32 C -0.9420(13) 0.2562(3) 0.6871(8)
H20 H -0.9742 0.2791 0.7422
C33 C -0.908(2) 0.2089(4) 0.7268(11)
H21 H -0.9070 0.2008 0.8120
C34 C -0.8764(18) 0.1747(4) 0.6462(12)
H22 H -0.8710 0.1422 0.6716
C35 C -0.8507(14) 0.1874(3) 0.5216(10)
H23 H -0.8119 0.1642 0.4702
C36 C -0.8834(10) 0.2334(3) 0.4785(8)
H24 H -0.8771 0.2415 0.3945
O9 O -1.3016(5) 0.36618(18) 0.3535(6)
O10 O -1.1980(6) 0.43768(16) 0.2945(6)
O11 O -0.6580(5) 0.38340(19) 0.3196(5)
H39 H -0.5586 0.3758 0.3203
O12 O -0.7182(7) 0.3292(2) 0.1592(5)
O13 O -1.0603(5) 0.34619(15) 0.1318(4)
O14 O -1.0166(10) 0.3882(3) -0.0352(5)
O15 O -0.9771(5) 0.32589(13) 0.3913(4)
O16 O -0.9758(9) 0.3532(2) 0.5918(5)
C37 C 0.4701(14) -0.0451(4) 0.2283(8)
H25 H 0.4152 -0.0280 0.2839
C38 C 0.6091(14) -0.0747(4) 0.2775(7)
H26 H 0.6472 -0.0774 0.3661
C39 C 0.6911(12) -0.1002(4) 0.1945(10)
H27 H 0.7841 -0.1200 0.2274
C40 C 0.6340(14) -0.0961(5) 0.0621(9)
H28 H 0.6889 -0.1132 0.0065
C41 C 0.4950(14) -0.0665(5) 0.0128(7)
H29 H 0.4569 -0.0638 -0.0757
N1 N 0.4130(12) -0.0410(4) 0.0959(9)
C42 C 0.4056(16) 0.0418(4) 0.0064(15)
H30 H 0.4808 0.0513 0.0864
H31 H 0.4762 0.0309 -0.0525
C43 C 0.3008(16) 0.0855(4) -0.0509(15)
H32 H 0.2315 0.0766 -0.1337
H33 H 0.2243 0.0949 0.0052
C44 C 0.4129(19) 0.1287(5) -0.0685(14)
H34 H 0.3423 0.1566 -0.0948
H35 H 0.4773 0.1212 -0.1332
H36 H 0.4901 0.1356 0.0114
C45 C 0.290(2) -0.0002(5) 0.0322(16)
H42 H 0.2194 -0.0116 -0.0476
H43 H 0.2166 0.0103 0.0894
O17 O 0.158(3) 0.9597(10) 0.348(2)
H40 H 0.1212 0.9854 0.3973
H41 H 0.1895 0.9297 0.3933
loop_
_geom_bond_atom_site_label_1
_geom_bond_atom_site_label_2
_geom_bond_site_symmetry_1
_geom_bond_site_symmetry_2
C1 H1 1_555 1_555
C2 C1 1_555 1_555
H2 C2 1_555 1_555
C3 C1 1_555 1_555
C4 C2 1_555 1_555
C5 C6 1_555 1_555
C6 C7 1_555 1_555
C7 H3 1_555 1_555
C8 C7 1_555 1_555
H4 C8 1_555 1_555
C9 C8 1_555 1_555
H5 C9 1_555 1_555
C10 C9 1_555 1_555
H6 C10 1_555 1_555
C11 C6 1_555 1_555
H7 C11 1_555 1_555
C12 C13 1_555 1_555
C13 C14 1_555 1_555
C14 H8 1_555 1_555
C15 C14 1_555 1_555
H9 C15 1_555 1_555
C16 C15 1_555 1_555
H10 C16 1_555 1_555
C17 C16 1_555 1_555
H11 C17 1_555 1_555
C18 C13 1_555 1_555
H12 C18 1_555 1_555
C19 H13 1_555 1_555
C20 C19 1_555 1_555
H14 C20 1_555 1_555
C21 C19 1_555 1_555
C22 C20 1_555 1_555
C23 C24 1_555 1_555
C24 C25 1_555 1_555
C25 H15 1_555 1_555
C26 C25 1_555 1_555
H16 C26 1_555 1_555
C27 C26 1_555 1_555
H17 C27 1_555 1_555
C28 C27 1_555 1_555
H18 C28 1_555 1_555
C29 C24 1_555 1_555
H19 C29 1_555 1_555
C30 C31 1_555 1_555
C31 C32 1_555 1_555
C32 H20 1_555 1_555
C33 C32 1_555 1_555
H21 C33 1_555 1_555
C34 C33 1_555 1_555
H22 C34 1_555 1_555
C35 C34 1_555 1_555
H23 C35 1_555 1_555
C36 C31 1_555 1_555
H24 C36 1_555 1_555
C37 H25 1_555 1_555
C38 C37 1_555 1_555
H26 C38 1_555 1_555
C39 C38 1_555 1_555
H27 C39 1_555 1_555
C40 C39 1_555 1_555
H28 C40 1_555 1_555
C41 C40 1_555 1_555
H29 C41 1_555 1_555
N1 C37 1_555 1_555
C42 H30 1_555 1_555
H31 C42 1_555 1_555
C43 C42 1_555 1_555
H32 C43 1_555 1_555
H33 C43 1_555 1_555
C44 C43 1_555 1_555
H34 C44 1_555 1_555
H35 C44 1_555 1_555
H36 C44 1_555 1_555
O1 C3 1_555 1_555
H37 O1 1_555 1_555
O2 C3 1_555 1_555
O3 C4 1_555 1_555
O4 C4 1_555 1_555
H38 O4 1_555 1_555
O5 C2 1_555 1_555
O6 C5 1_555 1_555
O7 C1 1_555 1_555
O8 C12 1_555 1_555
O9 C21 1_555 1_555
O10 C21 1_555 1_555
O11 C22 1_555 1_555
H39 O11 1_555 1_555
O12 C22 1_555 1_555
O13 C20 1_555 1_555
O14 C23 1_555 1_555
O15 C19 1_555 1_555
O16 C30 1_555 1_555
O17 H40 1_555 1_555
H41 O17 1_555 1_555
C45 N1 1_555 1_555
H42 C45 1_555 1_555
H43 C45 1_555 1_555
C5 O5 1_555 1_555
C10 C11 1_555 1_555
C12 O7 1_555 1_555
C17 C18 1_555 1_555
C23 O13 1_555 1_555
C28 C29 1_555 1_555
C30 O15 1_555 1_555
C35 C36 1_555 1_555
C41 N1 1_555 1_555
C42 C45 1_555 1_555

#END
