
#######################################################################
#
#                 Cambridge Crystallographic Data Centre
#                                CCDC 
#
#######################################################################
#
# If this CIF has been generated from an entry in the Cambridge 
# Structural Database, then it will include bibliographic, chemical, 
# crystal, experimental, refinement or atomic coordinate data resulting 
# from the CCDC's data processing and validation procedures.
#
#######################################################################

data_FAQWAW
_chemical_formula_moiety         'C28 H22 Cl1 N2 1+,Cl1 O4 1-'
_chemical_name_systematic        
"6-(3'-Indolyl)-8-(4-chlorophenyl)-10,10-dimethyl-10H-pyrido(1,2-a)indolium perchlorate"
_symmetry_cell_setting           monoclinic
_symmetry_space_group_name_H-M   'P 21/n'
_symmetry_Int_Tables_number      14
_space_group_name_Hall           '-P 2yn'
loop_
_symmetry_equiv_pos_site_id
_symmetry_equiv_pos_as_xyz
1 x,y,z
2 1/2-x,1/2+y,1/2-z
3 -x,-y,-z
4 1/2+x,1/2-y,1/2+z
_cell_length_a                   15.113(5)
_cell_length_b                   8.616(3)
_cell_length_c                   19.556(7)
_cell_angle_alpha                90
_cell_angle_beta                 92.562(7)
_cell_angle_gamma                90
_cell_volume                     2543.91
_exptl_crystal_colour            yellow
_chemical_melting_point          305.0-306.5deg.C
_cell_formula_units_Z            4
_exptl_crystal_recrystallization_method methanol/acetonitrile
loop_
_atom_site_label
_atom_site_type_symbol
_atom_site_fract_x
_atom_site_fract_y
_atom_site_fract_z
Cl1 Cl -0.16932(9) 0.5791(2) 0.41031(7)
N1 N -0.0009(2) 0.1531(5) 0.79963(17)
N2 N 0.1761(3) 0.4968(5) 0.9066(2)
H1 H 0.1837 0.5509 0.9434
C1 C 0.0222(3) 0.0548(6) 0.8577(2)
C2 C 0.0930(3) 0.0589(6) 0.9037(2)
H2 H 0.1351 0.1374 0.9024
C3 C 0.0997(4) -0.0588(7) 0.9527(3)
H3 H 0.1472 -0.0598 0.9846
C4 C 0.0356(5) -0.1746(7) 0.9541(3)
H4 H 0.0403 -0.2517 0.9874
C5 C -0.0339(4) -0.1763(6) 0.9074(3)
H5 H -0.0767 -0.2536 0.9094
C6 C -0.0414(3) -0.0637(6) 0.8568(2)
C7 C -0.1067(3) -0.0488(5) 0.7989(2)
C8 C -0.0716(3) 0.0954(5) 0.7638(2)
C9 C -0.1004(3) 0.1603(5) 0.7037(2)
H6 H -0.1483 0.1173 0.6789
C10 C -0.0582(3) 0.2914(5) 0.6790(2)
C11 C 0.0111(3) 0.3509(5) 0.7199(2)
H7 H 0.0399 0.4389 0.7048
C12 C 0.0393(3) 0.2882(5) 0.7809(2)
C13 C -0.0854(3) 0.3631(6) 0.6128(2)
C14 C -0.1235(3) 0.2748(6) 0.5593(3)
H8 H -0.1327 0.1691 0.5653
C15 C -0.1473(3) 0.3428(8) 0.4983(3)
H9 H -0.1707 0.2820 0.4626
C16 C -0.1373(3) 0.4996(8) 0.4887(3)
C17 C -0.1033(3) 0.5858(6) 0.5392(3)
H10 H -0.0980 0.6923 0.5329
C18 C -0.0752(3) 0.5199(7) 0.6021(3)
H11 H -0.0497 0.5820 0.6366
C19 C 0.2413(3) 0.4539(5) 0.8656(2)
C20 C 0.3318(4) 0.4815(6) 0.8706(3)
H12 H 0.3580 0.5377 0.9067
C21 C 0.3805(4) 0.4211(7) 0.8192(3)
H13 H 0.4411 0.4405 0.8198
C22 C 0.3433(4) 0.3339(7) 0.7675(3)
H14 H 0.3792 0.2937 0.7344
C23 C 0.2549(3) 0.3042(5) 0.7629(2)
H15 H 0.2305 0.2435 0.7275
C24 C 0.2018(3) 0.3665(5) 0.8122(2)
C25 C 0.1088(3) 0.3594(5) 0.8239(2)
C26 C 0.0971(3) 0.4422(6) 0.8815(2)
H16 H 0.0429 0.4593 0.9009
C27 C -0.2018(3) -0.0198(5) 0.8230(2)
H17 H -0.2422 -0.0111 0.7839
H18 H -0.2028 0.0745 0.8491
H19 H -0.2194 -0.1050 0.8510
C28 C -0.1063(3) -0.1912(5) 0.7509(2)
H20 H -0.1495 -0.1768 0.7140
H21 H -0.1204 -0.2828 0.7761
H22 H -0.0487 -0.2025 0.7328
Cl2 Cl 0.18422(10) 0.57060(18) 0.09539(7)
O1 O 0.1446(4) 0.6562(8) 0.1377(3)
O2 O 0.2111(3) 0.4386(7) 0.1235(4)
O3 O 0.1114(3) 0.5186(6) 0.0501(2)
O4 O 0.2448(4) 0.6361(6) 0.0593(3)
loop_
_geom_bond_atom_site_label_1
_geom_bond_atom_site_label_2
_geom_bond_site_symmetry_1
_geom_bond_site_symmetry_2
Cl1 C16 1_555 1_555
Cl2 O1 1_555 1_555
N1 C1 1_555 1_555
N2 H1 1_555 1_555
O2 Cl2 1_555 1_555
O3 Cl2 1_555 1_555
O4 Cl2 1_555 1_555
C1 C2 1_555 1_555
C2 H2 1_555 1_555
C3 C2 1_555 1_555
H3 C3 1_555 1_555
C4 C3 1_555 1_555
H4 C4 1_555 1_555
C5 C4 1_555 1_555
H5 C5 1_555 1_555
C6 C1 1_555 1_555
C7 C6 1_555 1_555
C8 N1 1_555 1_555
C9 C8 1_555 1_555
H6 C9 1_555 1_555
C10 C9 1_555 1_555
C11 C10 1_555 1_555
H7 C11 1_555 1_555
C12 N1 1_555 1_555
C13 C10 1_555 1_555
C14 C13 1_555 1_555
H8 C14 1_555 1_555
C15 C14 1_555 1_555
H9 C15 1_555 1_555
C16 C15 1_555 1_555
C17 C16 1_555 1_555
H10 C17 1_555 1_555
C18 C13 1_555 1_555
H11 C18 1_555 1_555
C19 N2 1_555 1_555
C20 C19 1_555 1_555
H12 C20 1_555 1_555
C21 C20 1_555 1_555
H13 C21 1_555 1_555
C22 C21 1_555 1_555
H14 C22 1_555 1_555
C23 C22 1_555 1_555
H15 C23 1_555 1_555
C24 C19 1_555 1_555
C25 C12 1_555 1_555
C26 N2 1_555 1_555
H16 C26 1_555 1_555
C27 C7 1_555 1_555
H17 C27 1_555 1_555
H18 C27 1_555 1_555
H19 C27 1_555 1_555
C28 C7 1_555 1_555
H20 C28 1_555 1_555
H21 C28 1_555 1_555
H22 C28 1_555 1_555
C5 C6 1_555 1_555
C7 C8 1_555 1_555
C11 C12 1_555 1_555
C17 C18 1_555 1_555
C23 C24 1_555 1_555
C24 C25 1_555 1_555
C25 C26 1_555 1_555

#END
