
#######################################################################
#
#                 Cambridge Crystallographic Data Centre
#                                CCDC 
#
#######################################################################
#
# If this CIF has been generated from an entry in the Cambridge 
# Structural Database, then it will include bibliographic, chemical, 
# crystal, experimental, refinement or atomic coordinate data resulting 
# from the CCDC's data processing and validation procedures.
#
#######################################################################

data_FARCUZ
_chemical_formula_moiety         'C6 H18 B11 Br1 N1 O1 1-,C8 H20 N1 1+'
_chemical_name_systematic        
'tetraethylammonium 12-bromo-1-(pyrrolidin-1-carbonyl)-1-carba-closo-dodecaborate'
_symmetry_cell_setting           orthorhombic
_symmetry_space_group_name_H-M   'P b c a'
_symmetry_Int_Tables_number      61
_space_group_name_Hall           '-P 2ac 2ab'
loop_
_symmetry_equiv_pos_site_id
_symmetry_equiv_pos_as_xyz
1 x,y,z
2 1/2-x,-y,1/2+z
3 1/2+x,1/2-y,-z
4 -x,1/2+y,1/2-z
5 -x,-y,-z
6 1/2+x,y,1/2-z
7 1/2-x,1/2+y,z
8 x,1/2-y,1/2+z
_cell_length_a                   12.7414(7)
_cell_length_b                   18.7111(14)
_cell_length_c                   20.5954(13)
_cell_angle_alpha                90
_cell_angle_beta                 90
_cell_angle_gamma                90
_cell_volume                     4910.06
_exptl_crystal_colour            colorless
_exptl_crystal_description       plate
_cell_formula_units_Z            8
loop_
_atom_site_label
_atom_site_type_symbol
_atom_site_fract_x
_atom_site_fract_y
_atom_site_fract_z
Br1 Br 0.55670(4) 0.41283(3) 0.19078(2)
O1 O 0.3109(2) 0.09264(14) 0.05557(14)
N1 N 0.1560(2) 0.13303(16) 0.08899(16)
C1 C 0.3197(3) 0.20449(18) 0.10836(16)
C2 C 0.2602(3) 0.1402(2) 0.08239(17)
C3 C 0.1083(3) 0.0667(2) 0.0636(3)
H1 H 0.1350 0.0253 0.0866
H2 H 0.1229 0.0612 0.0177
C4 C -0.0085(4) 0.0757(3) 0.0753(3)
H3 H -0.0436 0.0919 0.0362
H4 H -0.0398 0.0309 0.0891
C5 C -0.0163(4) 0.1299(3) 0.1271(3)
H5 H -0.0116 0.1077 0.1696
H6 H -0.0823 0.1556 0.1242
C6 C 0.0745(3) 0.1797(2) 0.1163(3)
H7 H 0.0560 0.2174 0.0862
H8 H 0.0975 0.2009 0.1569
B1 B 0.2687(3) 0.2900(2) 0.1106(2)
H9 H 0.1885 0.3040 0.0955
B2 B 0.2947(3) 0.2411(2) 0.18409(19)
H10 H 0.2315 0.2238 0.2168
B3 B 0.4078(3) 0.1873(2) 0.1696(2)
H11 H 0.4170 0.1347 0.1927
B4 B 0.4522(3) 0.2034(2) 0.0890(2)
H12 H 0.4903 0.1616 0.0598
B5 B 0.3659(3) 0.2657(2) 0.05315(19)
H13 H 0.3479 0.2639 0.0010
B6 B 0.3760(3) 0.3473(2) 0.0964(2)
H14 H 0.3663 0.3996 0.0728
B7 B 0.3319(3) 0.3315(2) 0.1772(2)
H15 H 0.2930 0.3734 0.2058
B8 B 0.4184(3) 0.2677(3) 0.2140(2)
H16 H 0.4359 0.2684 0.2663
B9 B 0.5161(3) 0.2444(3) 0.1556(2)
H17 H 0.5962 0.2297 0.1702
B10 B 0.4896(4) 0.2930(2) 0.0828(2)
H18 H 0.5533 0.3099 0.0502
B11 B 0.4676(3) 0.3333(2) 0.1591(2)
N2 N 0.6197(2) -0.01803(15) 0.12816(13)
C7 C 0.5165(3) -0.0192(3) 0.0904(2)
H19 H 0.5006 0.0291 0.0764
H20 H 0.5262 -0.0480 0.0517
C8 C 0.4226(4) -0.0481(3) 0.1276(3)
H21 H 0.4121 -0.0201 0.1661
H22 H 0.4353 -0.0970 0.1393
H23 H 0.3611 -0.0453 0.1007
C9 C 0.6088(3) 0.0335(2) 0.18430(18)
H24 H 0.5534 0.0163 0.2126
H25 H 0.5866 0.0794 0.1672
C10 C 0.7063(4) 0.0450(3) 0.2248(2)
H26 H 0.6927 0.0808 0.2571
H27 H 0.7627 0.0605 0.1973
H28 H 0.7254 0.0010 0.2456
C11 C 0.7071(3) 0.0048(2) 0.08244(19)
H29 H 0.7736 -0.0005 0.1049
H30 H 0.7078 -0.0275 0.0456
C12 C 0.6995(3) 0.0801(2) 0.0574(2)
H31 H 0.7064 0.1129 0.0929
H32 H 0.6327 0.0869 0.0368
H33 H 0.7546 0.0884 0.0265
C13 C 0.6452(3) -0.0915(2) 0.15532(18)
H34 H 0.7110 -0.0884 0.1788
H35 H 0.5912 -0.1042 0.1865
C14 C 0.6540(5) -0.1511(3) 0.1065(2)
H36 H 0.7069 -0.1394 0.0750
H37 H 0.5878 -0.1574 0.0849
H38 H 0.6729 -0.1946 0.1283
loop_
_geom_bond_atom_site_label_1
_geom_bond_atom_site_label_2
_geom_bond_site_symmetry_1
_geom_bond_site_symmetry_2
Br1 B11 1_555 1_555
O1 C2 1_555 1_555
N1 C2 1_555 1_555
C1 C2 1_555 1_555
C3 N1 1_555 1_555
H1 C3 1_555 1_555
H2 C3 1_555 1_555
C4 C3 1_555 1_555
H3 C4 1_555 1_555
H4 C4 1_555 1_555
C5 C4 1_555 1_555
H5 C5 1_555 1_555
H6 C5 1_555 1_555
C6 N1 1_555 1_555
H7 C6 1_555 1_555
H8 C6 1_555 1_555
B1 C1 1_555 1_555
H9 B1 1_555 1_555
B2 C1 1_555 1_555
H10 B2 1_555 1_555
B3 C1 1_555 1_555
H11 B3 1_555 1_555
B4 C1 1_555 1_555
H12 B4 1_555 1_555
B5 C1 1_555 1_555
H13 B5 1_555 1_555
B6 B1 1_555 1_555
H14 B6 1_555 1_555
B7 B1 1_555 1_555
H15 B7 1_555 1_555
B8 B2 1_555 1_555
H16 B8 1_555 1_555
B9 B3 1_555 1_555
H17 B9 1_555 1_555
B10 B4 1_555 1_555
H18 B10 1_555 1_555
B11 B6 1_555 1_555
N2 C7 1_555 1_555
C7 H19 1_555 1_555
H20 C7 1_555 1_555
C8 C7 1_555 1_555
H21 C8 1_555 1_555
H22 C8 1_555 1_555
H23 C8 1_555 1_555
C9 N2 1_555 1_555
H24 C9 1_555 1_555
H25 C9 1_555 1_555
C10 C9 1_555 1_555
H26 C10 1_555 1_555
H27 C10 1_555 1_555
H28 C10 1_555 1_555
C11 N2 1_555 1_555
H29 C11 1_555 1_555
H30 C11 1_555 1_555
C12 C11 1_555 1_555
H31 C12 1_555 1_555
H32 C12 1_555 1_555
H33 C12 1_555 1_555
C13 N2 1_555 1_555
H34 C13 1_555 1_555
H35 C13 1_555 1_555
C14 C13 1_555 1_555
H36 C14 1_555 1_555
H37 C14 1_555 1_555
H38 C14 1_555 1_555
C5 C6 1_555 1_555
B1 B2 1_555 1_555
B1 B5 1_555 1_555
B2 B3 1_555 1_555
B2 B7 1_555 1_555
B3 B4 1_555 1_555
B3 B8 1_555 1_555
B4 B5 1_555 1_555
B4 B9 1_555 1_555
B5 B6 1_555 1_555
B5 B10 1_555 1_555
B6 B7 1_555 1_555
B6 B10 1_555 1_555
B7 B8 1_555 1_555
B7 B11 1_555 1_555
B8 B9 1_555 1_555
B8 B11 1_555 1_555
B9 B10 1_555 1_555
B9 B11 1_555 1_555
B10 B11 1_555 1_555

#END
