
#######################################################################
#
#                 Cambridge Crystallographic Data Centre
#                                CCDC 
#
#######################################################################
#
# If this CIF has been generated from an entry in the Cambridge 
# Structural Database, then it will include bibliographic, chemical, 
# crystal, experimental, refinement or atomic coordinate data resulting 
# from the CCDC's data processing and validation procedures.
#
#######################################################################

data_FARDIO
_chemical_formula_moiety         'C20 H33 B11 N3 O5 S2 1-,C8 H20 N1 1+,C3 H6 O1'
_chemical_name_systematic        
'tetraethylammonium 2,4-bis(p-tosylamino)-1-(pyrrolidin-1-carbonyl)-1-carba-closo-dodecaborate acetone solvate'
_symmetry_cell_setting           triclinic
_symmetry_space_group_name_H-M   'P -1'
_symmetry_Int_Tables_number      2
_space_group_name_Hall           '-P 1'
loop_
_symmetry_equiv_pos_site_id
_symmetry_equiv_pos_as_xyz
1 x,y,z
2 -x,-y,-z
_cell_length_a                   13.0426(7)
_cell_length_b                   13.4923(7)
_cell_length_c                   13.9657(9)
_cell_angle_alpha                118.275(6)
_cell_angle_beta                 95.886(5)
_cell_angle_gamma                96.271(4)
_cell_volume                     2117.75
_exptl_crystal_colour            colorless
_exptl_crystal_description       block
_cell_formula_units_Z            2
loop_
_atom_site_label
_atom_site_type_symbol
_atom_site_fract_x
_atom_site_fract_y
_atom_site_fract_z
S1 S 0.88464(6) 0.70737(6) 0.23078(6)
S2 S 0.73678(6) 0.06173(6) -0.28946(6)
O1 O 0.98394(16) 0.78469(17) 0.27185(18)
O2 O 0.82359(18) 0.70393(18) 0.30871(17)
O3 O 0.87871(15) 0.41930(18) -0.13807(17)
O4 O 0.79826(18) 0.01783(17) -0.37534(18)
O5 O 0.6904(2) -0.01306(17) -0.2538(2)
N1 N 0.90864(16) 0.58293(17) 0.15253(17)
H1 H 0.9238 0.5817 0.0935
N2 N 0.81165(18) 0.17063(18) -0.18671(18)
H2 H 0.8311 0.2183 -0.2087
N3 N 0.72436(18) 0.47264(19) -0.13173(19)
C1 C 0.78408(19) 0.3826(2) -0.0193(2)
C2 C 0.7974(2) 0.4278(2) -0.0998(2)
C3 C 0.6185(3) 0.4870(3) -0.1081(3)
H3 H 0.6211 0.5500 -0.0344
H4 H 0.5806 0.4179 -0.1140
C4 C 0.5684(3) 0.5114(4) -0.1921(4)
H5 H 0.5231 0.5668 -0.1605
H6 H 0.5266 0.4420 -0.2533
C5 C 0.6535(4) 0.5579(4) -0.2309(4)
H7 H 0.6671 0.6409 -0.1901
H8 H 0.6343 0.5329 -0.3089
C6 C 0.7482(3) 0.5121(3) -0.2105(3)
H9 H 0.7597 0.4492 -0.2786
H10 H 0.8102 0.5715 -0.1791
C7 C 0.8078(2) 0.7505(2) 0.1510(2)
C8 C 0.7050(2) 0.7628(2) 0.1638(3)
H11 H 0.6737 0.7407 0.2092
C9 C 0.6494(3) 0.8080(3) 0.1092(3)
H12 H 0.5807 0.8161 0.1185
C10 C 0.6931(3) 0.8410(3) 0.0414(4)
C11 C 0.7952(3) 0.8266(3) 0.0278(4)
H13 H 0.8258 0.8475 -0.0188
C12 C 0.8525(3) 0.7819(3) 0.0818(3)
H14 H 0.9209 0.7731 0.0716
C13 C 0.6316(4) 0.8921(4) -0.0176(5)
H15 H 0.5579 0.8692 -0.0234
H16 H 0.6483 0.8653 -0.0902
H17 H 0.6498 0.9741 0.0236
C14 C 0.6347(2) 0.1120(2) -0.3357(2)
C15 C 0.5306(3) 0.0735(3) -0.3391(3)
H18 H 0.5139 0.0214 -0.3147
C16 C 0.4521(3) 0.1121(3) -0.3784(3)
H19 H 0.3826 0.0847 -0.3812
C17 C 0.4738(3) 0.1900(3) -0.4136(3)
C18 C 0.5779(3) 0.2271(3) -0.4104(3)
H20 H 0.5945 0.2795 -0.4345
C19 C 0.6576(2) 0.1886(3) -0.3726(3)
H21 H 0.7269 0.2144 -0.3721
C20 C 0.3876(3) 0.2348(4) -0.4538(3)
H22 H 0.3209 0.2005 -0.4497
H23 H 0.3899 0.2160 -0.5289
H24 H 0.3974 0.3164 -0.4082
B1 B 0.8476(2) 0.4694(3) 0.1191(2)
B2 B 0.8979(2) 0.3486(2) 0.0247(2)
H25 H 0.9732 0.3609 -0.0007
B3 B 0.7936(2) 0.2383(2) -0.0709(3)
B4 B 0.6749(3) 0.2907(3) -0.0359(3)
H26 H 0.6053 0.2652 -0.0997
B5 B 0.7079(2) 0.4325(3) 0.0820(3)
H27 H 0.6598 0.4982 0.0946
B6 B 0.8911(3) 0.3713(3) 0.1597(3)
H28 H 0.9613 0.3971 0.2229
B7 B 0.8580(3) 0.2308(3) 0.0432(3)
H29 H 0.9072 0.1661 0.0315
B8 B 0.7186(3) 0.1943(3) 0.0052(3)
H30 H 0.6765 0.1058 -0.0311
B9 B 0.6671(3) 0.3136(3) 0.0991(3)
H31 H 0.5911 0.3021 0.1235
B10 B 0.7728(3) 0.4223(3) 0.1944(3)
H32 H 0.7660 0.4809 0.2803
B11 B 0.7791(3) 0.2755(3) 0.1466(3)
H33 H 0.7761 0.2386 0.2019
N4 N 1.0068(2) 0.1988(2) 0.3853(2)
C21 C 0.9819(3) 0.1109(3) 0.4217(3)
H34 H 1.0230 0.0515 0.3877
H35 H 1.0047 0.1476 0.5010
C22 C 0.8682(4) 0.0548(4) 0.3950(4)
H36 H 0.8447 0.0164 0.3165
H37 H 0.8267 0.1120 0.4308
H38 H 0.8612 0.0003 0.4207
C23 C 0.9431(3) 0.2925(3) 0.4326(3)
H39 H 0.8697 0.2594 0.4019
H40 H 0.9625 0.3476 0.4086
C24 C 0.9557(4) 0.3562(4) 0.5585(3)
H41 H 0.9093 0.4107 0.5809
H42 H 1.0268 0.3954 0.5900
H43 H 0.9389 0.3024 0.5838
C25 C 1.1234(3) 0.2450(3) 0.4257(3)
H44 H 1.1377 0.2773 0.5053
H45 H 1.1608 0.1817 0.3941
C26 C 1.1661(4) 0.3352(4) 0.3978(5)
H46 H 1.1535 0.3040 0.3191
H47 H 1.2401 0.3589 0.4253
H48 H 1.1318 0.3999 0.4312
C27 C 0.9791(3) 0.1456(3) 0.2603(3)
H49 H 0.9052 0.1120 0.2377
H50 H 0.9898 0.2060 0.2415
C28 C 1.0403(3) 0.0553(3) 0.1952(3)
H51 H 1.0166 0.0258 0.1177
H52 H 1.0300 -0.0056 0.2123
H53 H 1.1135 0.0882 0.2139
O6 O 0.7023(4) 0.3198(6) 0.4371(5)
C29 C 0.5607(6) 0.3767(8) 0.3749(6)
H54 H 0.5760 0.4428 0.4472
H55 H 0.4878 0.3432 0.3582
H56 H 0.5762 0.3989 0.3213
C30 C 0.6228(5) 0.2954(10) 0.3719(7)
C31 C 0.5877(6) 0.1766(7) 0.2904(8)
H57 H 0.6036 0.1640 0.2204
H58 H 0.5134 0.1568 0.2841
H59 H 0.6227 0.1298 0.3126
loop_
_geom_bond_atom_site_label_1
_geom_bond_atom_site_label_2
_geom_bond_site_symmetry_1
_geom_bond_site_symmetry_2
S1 O1 1_555 1_555
S2 O4 1_555 1_555
O2 S1 1_555 1_555
O3 C2 1_555 1_555
O5 S2 1_555 1_555
N1 S1 1_555 1_555
H1 N1 1_555 1_555
N2 S2 1_555 1_555
H2 N2 1_555 1_555
N3 C2 1_555 1_555
C1 C2 1_555 1_555
C3 N3 1_555 1_555
H3 C3 1_555 1_555
H4 C3 1_555 1_555
C4 C3 1_555 1_555
H5 C4 1_555 1_555
H6 C4 1_555 1_555
C5 C4 1_555 1_555
H7 C5 1_555 1_555
H8 C5 1_555 1_555
C6 N3 1_555 1_555
H9 C6 1_555 1_555
H10 C6 1_555 1_555
C7 S1 1_555 1_555
C8 C7 1_555 1_555
H11 C8 1_555 1_555
C9 C8 1_555 1_555
H12 C9 1_555 1_555
C10 C9 1_555 1_555
C11 C10 1_555 1_555
H13 C11 1_555 1_555
C12 C7 1_555 1_555
H14 C12 1_555 1_555
C13 C10 1_555 1_555
H15 C13 1_555 1_555
H16 C13 1_555 1_555
H17 C13 1_555 1_555
C14 S2 1_555 1_555
C15 C14 1_555 1_555
H18 C15 1_555 1_555
C16 C15 1_555 1_555
H19 C16 1_555 1_555
C17 C16 1_555 1_555
C18 C17 1_555 1_555
H20 C18 1_555 1_555
C19 C14 1_555 1_555
H21 C19 1_555 1_555
C20 C17 1_555 1_555
H22 C20 1_555 1_555
H23 C20 1_555 1_555
H24 C20 1_555 1_555
B1 N1 1_555 1_555
B2 C1 1_555 1_555
H25 B2 1_555 1_555
B3 N2 1_555 1_555
B4 C1 1_555 1_555
H26 B4 1_555 1_555
B5 C1 1_555 1_555
H27 B5 1_555 1_555
B6 B1 1_555 1_555
H28 B6 1_555 1_555
B7 B2 1_555 1_555
H29 B7 1_555 1_555
B8 B3 1_555 1_555
H30 B8 1_555 1_555
B9 B4 1_555 1_555
H31 B9 1_555 1_555
B10 B1 1_555 1_555
H32 B10 1_555 1_555
B11 B6 1_555 1_555
H33 B11 1_555 1_555
N4 C21 1_555 1_555
C21 H34 1_555 1_555
H35 C21 1_555 1_555
C22 C21 1_555 1_555
H36 C22 1_555 1_555
H37 C22 1_555 1_555
H38 C22 1_555 1_555
C23 N4 1_555 1_555
H39 C23 1_555 1_555
H40 C23 1_555 1_555
C24 C23 1_555 1_555
H41 C24 1_555 1_555
H42 C24 1_555 1_555
H43 C24 1_555 1_555
C25 N4 1_555 1_555
H44 C25 1_555 1_555
H45 C25 1_555 1_555
C26 C25 1_555 1_555
H46 C26 1_555 1_555
H47 C26 1_555 1_555
H48 C26 1_555 1_555
C27 N4 1_555 1_555
H49 C27 1_555 1_555
H50 C27 1_555 1_555
C28 C27 1_555 1_555
H51 C28 1_555 1_555
H52 C28 1_555 1_555
H53 C28 1_555 1_555
O6 C30 1_555 1_555
C29 H54 1_555 1_555
H55 C29 1_555 1_555
H56 C29 1_555 1_555
C30 C29 1_555 1_555
C31 C30 1_555 1_555
H57 C31 1_555 1_555
H58 C31 1_555 1_555
H59 C31 1_555 1_555
C1 B1 1_555 1_555
C1 B3 1_555 1_555
C5 C6 1_555 1_555
C11 C12 1_555 1_555
C18 C19 1_555 1_555
B1 B2 1_555 1_555
B1 B5 1_555 1_555
B2 B3 1_555 1_555
B2 B6 1_555 1_555
B3 B4 1_555 1_555
B3 B7 1_555 1_555
B4 B5 1_555 1_555
B4 B8 1_555 1_555
B5 B9 1_555 1_555
B5 B10 1_555 1_555
B6 B7 1_555 1_555
B6 B10 1_555 1_555
B7 B8 1_555 1_555
B7 B11 1_555 1_555
B8 B9 1_555 1_555
B8 B11 1_555 1_555
B9 B10 1_555 1_555
B9 B11 1_555 1_555
B10 B11 1_555 1_555

#END
