
#######################################################################
#
#                 Cambridge Crystallographic Data Centre
#                                CCDC 
#
#######################################################################
#
# If this CIF has been generated from an entry in the Cambridge 
# Structural Database, then it will include bibliographic, chemical, 
# crystal, experimental, refinement or atomic coordinate data resulting 
# from the CCDC's data processing and validation procedures.
#
#######################################################################

data_FARDAG
_chemical_formula_moiety         'C38 H49 B11 N1 O1 1-,C8 H20 N1 1+'
_chemical_name_systematic        
'tetraethylammonium 2,3,4-tris(2-phenylethyl)-5-(2-phenylethenyl)-1-(pyrrolidin-1-carbonyl)-1-carba-closo-dodecaborate'
_symmetry_cell_setting           orthorhombic
_symmetry_space_group_name_H-M   'P n a 21'
_symmetry_Int_Tables_number      33
_space_group_name_Hall           'P 2c -2n'
loop_
_symmetry_equiv_pos_site_id
_symmetry_equiv_pos_as_xyz
1 x,y,z
2 -x,-y,1/2+z
3 1/2-x,1/2+y,1/2+z
4 1/2+x,1/2-y,z
_cell_length_a                   18.6641(7)
_cell_length_b                   12.5049(5)
_cell_length_c                   20.3898(11)
_cell_angle_alpha                90
_cell_angle_beta                 90
_cell_angle_gamma                90
_cell_volume                     4758.83
_exptl_crystal_colour            colorless
_exptl_crystal_description       block
_cell_formula_units_Z            4
loop_
_atom_site_label
_atom_site_type_symbol
_atom_site_fract_x
_atom_site_fract_y
_atom_site_fract_z
O1 O 0.18552(13) 0.5436(2) 0.35311(16)
N1 N 0.20308(17) 0.6122(3) 0.25454(18)
C1 C 0.2742(2) 0.5604(4) 0.2550(3)
H1 H 0.2694 0.4833 0.2574
H2 H 0.3022 0.5847 0.2922
C2 C 0.3091(2) 0.5936(5) 0.1911(3)
H3 H 0.2995 0.5422 0.1566
H4 H 0.3604 0.6017 0.1961
C3 C 0.2733(3) 0.7000(5) 0.1770(3)
H5 H 0.2944 0.7567 0.2031
H6 H 0.2773 0.7184 0.1309
C4 C 0.1967(2) 0.6810(4) 0.1960(2)
H7 H 0.1727 0.7477 0.2065
H8 H 0.1707 0.6451 0.1613
C5 C 0.16187(19) 0.5985(3) 0.3083(2)
C6 C 0.08686(19) 0.6457(3) 0.3158(2)
C7 C 0.0588(2) 0.4798(3) 0.4168(2)
H9 H 0.0885 0.4350 0.3891
H10 H 0.0883 0.5044 0.4529
C8 C -0.0024(3) 0.4113(4) 0.4447(3)
H11 H -0.0301 0.4538 0.4755
H12 H -0.0341 0.3900 0.4093
C9 C 0.0250(2) 0.3139(4) 0.4786(2)
C10 C 0.0227(3) 0.3003(5) 0.5459(3)
H13 H 0.0022 0.3534 0.5717
C11 C 0.0500(4) 0.2100(5) 0.5760(3)
H14 H 0.0476 0.2029 0.6213
C12 C 0.0806(3) 0.1318(5) 0.5391(3)
H15 H 0.0998 0.0714 0.5590
C13 C 0.0826(4) 0.1426(4) 0.4735(3)
H16 H 0.1024 0.0883 0.4480
C14 C 0.0560(3) 0.2324(4) 0.4437(3)
H17 H 0.0591 0.2383 0.3983
C15 C 0.0288(2) 0.4576(4) 0.2532(3)
H18 H 0.0737 0.4621 0.2294
H19 H 0.0342 0.4027 0.2865
C16 C -0.0301(3) 0.4233(4) 0.2056(3)
H20 H -0.0763 0.4366 0.2257
H21 H -0.0270 0.4670 0.1664
C17 C -0.0258(2) 0.3086(4) 0.1865(3)
C18 C -0.0474(3) 0.2287(4) 0.2290(3)
H22 H -0.0661 0.2476 0.2697
C19 C -0.0421(3) 0.1232(5) 0.2134(4)
H23 H -0.0573 0.0721 0.2435
C20 C -0.0159(4) 0.0917(6) 0.1561(5)
H24 H -0.0124 0.0192 0.1464
C21 C 0.0059(3) 0.1663(8) 0.1116(4)
H25 H 0.0241 0.1442 0.0713
C22 C 0.0014(3) 0.2771(6) 0.1259(3)
H26 H 0.0163 0.3277 0.0954
C23 C 0.1343(2) 0.8655(3) 0.3020(2)
H27 H 0.1815 0.8420 0.3051
C24 C 0.1227(2) 0.9672(3) 0.2901(3)
H28 H 0.0758 0.9848 0.2793
C25 C 0.1730(2) 1.0570(3) 0.2913(2)
C26 C 0.1482(3) 1.1602(4) 0.2812(3)
H29 H 0.1000 1.1708 0.2716
C27 C 0.1933(3) 1.2476(4) 0.2851(3)
H30 H 0.1753 1.3161 0.2786
C28 C 0.2634(3) 1.2331(4) 0.2985(3)
H31 H 0.2939 1.2918 0.3011
C29 C 0.2900(3) 1.1321(4) 0.3084(3)
H32 H 0.3383 1.1229 0.3180
C30 C 0.2458(2) 1.0447(4) 0.3043(3)
H33 H 0.2647 0.9766 0.3102
C31 C 0.1327(2) 0.7337(3) 0.4408(2)
H34 H 0.1296 0.6799 0.4749
H35 H 0.1784 0.7245 0.4189
C32 C 0.1317(3) 0.8435(4) 0.4730(3)
H36 H 0.1315 0.8977 0.4390
H37 H 0.0878 0.8509 0.4980
C33 C 0.1933(2) 0.8631(4) 0.5171(3)
C34 C 0.2513(3) 0.9234(5) 0.4975(4)
H38 H 0.2514 0.9553 0.4563
C35 C 0.3100(4) 0.9370(8) 0.5393(7)
H39 H 0.3491 0.9781 0.5266
C36 C 0.3083(6) 0.8866(11) 0.6013(7)
H40 H 0.3473 0.8939 0.6293
C37 C 0.2515(5) 0.8280(9) 0.6208(4)
H41 H 0.2511 0.7942 0.6614
C38 C 0.1947(3) 0.8200(6) 0.5789(3)
H42 H 0.1544 0.7831 0.5933
B1 B 0.0335(2) 0.5812(4) 0.3753(3)
B2 B 0.0147(2) 0.5690(4) 0.2886(3)
B3 B 0.0368(3) 0.6929(4) 0.2500(3)
H43 H 0.0557 0.6951 0.1989
B4 B 0.0726(3) 0.7815(4) 0.3111(3)
B5 B 0.0705(2) 0.7118(4) 0.3889(3)
B6 B -0.0215(3) 0.6856(4) 0.4071(3)
H44 H -0.0409 0.6844 0.4580
B7 B -0.0551(3) 0.5970(4) 0.3453(3)
H45 H -0.0967 0.5373 0.3562
B8 B -0.0521(3) 0.6646(4) 0.2688(3)
H46 H -0.0916 0.6488 0.2300
B9 B -0.0171(2) 0.7948(4) 0.2827(3)
H47 H -0.0335 0.8643 0.2532
B10 B 0.0016(3) 0.8065(4) 0.3676(3)
H48 H -0.0031 0.8835 0.3932
B11 B -0.0753(3) 0.7357(4) 0.3410(3)
H49 H -0.1299 0.7661 0.3491
N2 N 0.3120(2) 0.4427(3) 0.5025(2)
C39 C 0.3881(3) 0.4240(6) 0.4737(4)
H50 H 0.4194 0.4802 0.4896
H51 H 0.4062 0.3567 0.4905
C40 C 0.3922(4) 0.4216(7) 0.4006(4)
H52 H 0.4415 0.4222 0.3872
H53 H 0.3683 0.4833 0.3830
H54 H 0.3695 0.3580 0.3846
C41 C 0.2866(4) 0.5518(6) 0.4789(4)
H55 H 0.2825 0.5491 0.4315
H56 H 0.2388 0.5638 0.4962
C42 C 0.3308(4) 0.6444(5) 0.4960(4)
H57 H 0.3365 0.6478 0.5427
H58 H 0.3080 0.7086 0.4808
H59 H 0.3770 0.6376 0.4757
C43 C 0.3207(5) 0.4400(7) 0.5763(4)
H60 H 0.3589 0.4882 0.5890
H61 H 0.3341 0.3683 0.5898
C44 C 0.2513(8) 0.4726(9) 0.6117(6)
H62 H 0.2512 0.4431 0.6551
H63 H 0.2108 0.4460 0.5878
H64 H 0.2487 0.5492 0.6143
C45 C 0.2619(5) 0.3612(7) 0.4770(5)
H65 H 0.2559 0.3718 0.4302
H66 H 0.2155 0.3710 0.4976
C46 C 0.2880(7) 0.2437(7) 0.4896(6)
H67 H 0.3141 0.2408 0.5301
H68 H 0.3185 0.2215 0.4542
H69 H 0.2473 0.1970 0.4921
loop_
_geom_bond_atom_site_label_1
_geom_bond_atom_site_label_2
_geom_bond_site_symmetry_1
_geom_bond_site_symmetry_2
O1 C5 1_555 1_555
N1 C1 1_555 1_555
C1 H1 1_555 1_555
H2 C1 1_555 1_555
C2 C1 1_555 1_555
H3 C2 1_555 1_555
H4 C2 1_555 1_555
C3 C2 1_555 1_555
H5 C3 1_555 1_555
H6 C3 1_555 1_555
C4 N1 1_555 1_555
H7 C4 1_555 1_555
H8 C4 1_555 1_555
C5 N1 1_555 1_555
C6 C5 1_555 1_555
C7 H9 1_555 1_555
H10 C7 1_555 1_555
C8 C7 1_555 1_555
H11 C8 1_555 1_555
H12 C8 1_555 1_555
C9 C8 1_555 1_555
C10 C9 1_555 1_555
H13 C10 1_555 1_555
C11 C10 1_555 1_555
H14 C11 1_555 1_555
C12 C11 1_555 1_555
H15 C12 1_555 1_555
C13 C12 1_555 1_555
H16 C13 1_555 1_555
C14 C9 1_555 1_555
H17 C14 1_555 1_555
C15 H18 1_555 1_555
H19 C15 1_555 1_555
C16 C15 1_555 1_555
H20 C16 1_555 1_555
H21 C16 1_555 1_555
C17 C16 1_555 1_555
C18 C17 1_555 1_555
H22 C18 1_555 1_555
C19 C18 1_555 1_555
H23 C19 1_555 1_555
C20 C19 1_555 1_555
H24 C20 1_555 1_555
C21 C20 1_555 1_555
H25 C21 1_555 1_555
C22 C17 1_555 1_555
H26 C22 1_555 1_555
C23 H27 1_555 1_555
C24 C23 1_555 1_555
H28 C24 1_555 1_555
C25 C24 1_555 1_555
C26 C25 1_555 1_555
H29 C26 1_555 1_555
C27 C26 1_555 1_555
H30 C27 1_555 1_555
C28 C27 1_555 1_555
H31 C28 1_555 1_555
C29 C28 1_555 1_555
H32 C29 1_555 1_555
C30 C25 1_555 1_555
H33 C30 1_555 1_555
C31 H34 1_555 1_555
H35 C31 1_555 1_555
C32 C31 1_555 1_555
H36 C32 1_555 1_555
H37 C32 1_555 1_555
C33 C32 1_555 1_555
C34 C33 1_555 1_555
H38 C34 1_555 1_555
C35 C34 1_555 1_555
H39 C35 1_555 1_555
C36 C35 1_555 1_555
H40 C36 1_555 1_555
C37 C36 1_555 1_555
H41 C37 1_555 1_555
C38 C33 1_555 1_555
H42 C38 1_555 1_555
B1 C6 1_555 1_555
B2 C6 1_555 1_555
B3 C6 1_555 1_555
H43 B3 1_555 1_555
B4 C6 1_555 1_555
B5 C6 1_555 1_555
B6 B1 1_555 1_555
H44 B6 1_555 1_555
B7 B1 1_555 1_555
H45 B7 1_555 1_555
B8 B2 1_555 1_555
H46 B8 1_555 1_555
B9 B3 1_555 1_555
H47 B9 1_555 1_555
B10 B4 1_555 1_555
H48 B10 1_555 1_555
B11 B6 1_555 1_555
H49 B11 1_555 1_555
N2 C39 1_555 1_555
C39 H50 1_555 1_555
H51 C39 1_555 1_555
C40 C39 1_555 1_555
H52 C40 1_555 1_555
H53 C40 1_555 1_555
H54 C40 1_555 1_555
C41 N2 1_555 1_555
H55 C41 1_555 1_555
H56 C41 1_555 1_555
C42 C41 1_555 1_555
H57 C42 1_555 1_555
H58 C42 1_555 1_555
H59 C42 1_555 1_555
C43 N2 1_555 1_555
H60 C43 1_555 1_555
H61 C43 1_555 1_555
C44 C43 1_555 1_555
H62 C44 1_555 1_555
H63 C44 1_555 1_555
H64 C44 1_555 1_555
C45 N2 1_555 1_555
H65 C45 1_555 1_555
H66 C45 1_555 1_555
C46 C45 1_555 1_555
H67 C46 1_555 1_555
H68 C46 1_555 1_555
H69 C46 1_555 1_555
C3 C4 1_555 1_555
C7 B1 1_555 1_555
C13 C14 1_555 1_555
C15 B2 1_555 1_555
C21 C22 1_555 1_555
C23 B4 1_555 1_555
C29 C30 1_555 1_555
C31 B5 1_555 1_555
C37 C38 1_555 1_555
B1 B2 1_555 1_555
B1 B5 1_555 1_555
B2 B3 1_555 1_555
B2 B7 1_555 1_555
B3 B4 1_555 1_555
B3 B8 1_555 1_555
B4 B5 1_555 1_555
B4 B9 1_555 1_555
B5 B6 1_555 1_555
B5 B10 1_555 1_555
B6 B7 1_555 1_555
B6 B10 1_555 1_555
B7 B8 1_555 1_555
B7 B11 1_555 1_555
B8 B9 1_555 1_555
B8 B11 1_555 1_555
B9 B10 1_555 1_555
B9 B11 1_555 1_555
B10 B11 1_555 1_555

#END
