
#######################################################################
#
#                 Cambridge Crystallographic Data Centre
#                                CCDC 
#
#######################################################################
#
# If this CIF has been generated from an entry in the Cambridge 
# Structural Database, then it will include bibliographic, chemical, 
# crystal, experimental, refinement or atomic coordinate data resulting 
# from the CCDC's data processing and validation procedures.
#
#######################################################################

data_FARDUA
_chemical_formula_moiety         'C6 H18 B11 Cl1 N1 O1 1-,C8 H20 N1 1+'
_chemical_name_systematic        
'tetraethylammonium 2-chloro-1-(pyrrolidin-1-carbonyl)-1-carba-closo-dodecaborate'
_symmetry_cell_setting           orthorhombic
_symmetry_space_group_name_H-M   'P b c a'
_symmetry_Int_Tables_number      61
_space_group_name_Hall           '-P 2ac 2ab'
loop_
_symmetry_equiv_pos_site_id
_symmetry_equiv_pos_as_xyz
1 x,y,z
2 1/2-x,-y,1/2+z
3 1/2+x,1/2-y,-z
4 -x,1/2+y,1/2-z
5 -x,-y,-z
6 1/2+x,y,1/2-z
7 1/2-x,1/2+y,z
8 x,1/2-y,1/2+z
_cell_length_a                   10.5179(11)
_cell_length_b                   17.071(2)
_cell_length_c                   27.284(3)
_cell_angle_alpha                90
_cell_angle_beta                 90
_cell_angle_gamma                90
_cell_volume                     4898.87
_exptl_crystal_colour            colorless
_exptl_crystal_description       block
_cell_formula_units_Z            8
loop_
_atom_site_label
_atom_site_type_symbol
_atom_site_fract_x
_atom_site_fract_y
_atom_site_fract_z
Cl1 Cl 0.7554(5) 0.17007(19) 0.67118(14)
O1 O 0.5025(3) 0.2368(2) 0.58523(15)
N1 N 0.6682(3) 0.1975(2) 0.54210(13)
C1 C 0.6943(4) 0.3026(3) 0.60632(16)
C2 C 0.6160(4) 0.2434(3) 0.57634(16)
C3 C 0.7968(5) 0.1905(5) 0.5241(3)
H1 H 0.8244 0.2390 0.5090
H2 H 0.8547 0.1775 0.5506
C4 C 0.7921(10) 0.1295(7) 0.4892(5)
H3 H 0.8200 0.1495 0.4578
H4 H 0.8507 0.0884 0.4990
C5 C 0.6710(8) 0.0975(6) 0.4841(3)
H5 H 0.6730 0.0419 0.4912
H6 H 0.6409 0.1047 0.4508
C6 C 0.5859(5) 0.1381(4) 0.5189(2)
H7 H 0.5154 0.1626 0.5019
H8 H 0.5526 0.1019 0.5431
B1 B 0.7569(9) 0.2738(5) 0.6598(3)
B2 B 0.6177(6) 0.3328(6) 0.6579(3)
H9 H 0.5224 0.3128 0.6688
B3 B 0.6439(13) 0.3946(5) 0.6066(5)
H10 H 0.5674 0.4145 0.5821
B4 B 0.7894(11) 0.3753(6) 0.5821(3)
H11 H 0.8106 0.3814 0.5428
B5 B 0.8534(6) 0.3043(6) 0.6144(4)
H12 H 0.9161 0.2620 0.5960
B6 B 0.8844(8) 0.3364(6) 0.6716(4)
H13 H 0.9694 0.3172 0.6918
B7 B 0.7396(8) 0.3511(6) 0.7010(3)
H14 H 0.7273 0.3402 0.7404
B8 B 0.6651(7) 0.4266(6) 0.6698(4)
H15 H 0.6003 0.4668 0.6889
B9 B 0.7629(16) 0.4573(7) 0.6226(4)
H16 H 0.7623 0.5187 0.6103
B10 B 0.8985(11) 0.3986(9) 0.6255(4)
H17 H 0.9921 0.4217 0.6149
B11 B 0.8241(6) 0.4312(5) 0.6788(3)
H18 H 0.8658 0.4751 0.7036
N2 N 0.2506(3) 0.1035(2) 0.65533(13)
C7 C 0.4159(7) 0.1102(5) 0.7248(3)
H20 H 0.4996 0.1312 0.7297
H21 H 0.4106 0.0592 0.7394
H22 H 0.3544 0.1443 0.7397
C8 C 0.3886(4) 0.1039(3) 0.6697(2)
H23 H 0.4297 0.1476 0.6533
H24 H 0.4275 0.0562 0.6575
C9 C 0.2384(6) 0.2501(4) 0.6533(4)
H25 H 0.2183 0.2543 0.6191
H26 H 0.3290 0.2494 0.6575
H27 H 0.2034 0.2941 0.6706
C10 C 0.1840(4) 0.1774(3) 0.6730(2)
H28 H 0.0951 0.1746 0.6638
H29 H 0.1881 0.1791 0.7085
C11 C 0.1173(7) 0.0971(6) 0.5795(3)
H30 H 0.1211 0.0751 0.5471
H31 H 0.0850 0.1496 0.5777
H32 H 0.0621 0.0659 0.5996
C12 C 0.2483(5) 0.0981(4) 0.6014(2)
H33 H 0.2925 0.0508 0.5916
H34 H 0.2947 0.1423 0.5880
C13 C 0.2298(6) -0.0450(4) 0.6685(3)
H35 H 0.2221 -0.0550 0.6340
H36 H 0.1817 -0.0832 0.6864
H37 H 0.3176 -0.0481 0.6779
C14 C 0.1797(5) 0.0359(3) 0.6797(2)
H38 H 0.1823 0.0435 0.7149
H39 H 0.0912 0.0382 0.6698
H19? H 0.7550 0.2124 0.6720
Cl2? Cl 0.5712(10) 0.4311(6) 0.5557(4)
loop_
_geom_bond_atom_site_label_1
_geom_bond_atom_site_label_2
_geom_bond_site_symmetry_1
_geom_bond_site_symmetry_2
Cl1 B1 1_555 1_555
O1 C2 1_555 1_555
N1 C2 1_555 1_555
C1 C2 1_555 1_555
C3 N1 1_555 1_555
H1 C3 1_555 1_555
H2 C3 1_555 1_555
C4 C3 1_555 1_555
H3 C4 1_555 1_555
H4 C4 1_555 1_555
C5 C4 1_555 1_555
H5 C5 1_555 1_555
H6 C5 1_555 1_555
C6 N1 1_555 1_555
H7 C6 1_555 1_555
H8 C6 1_555 1_555
B1 C1 1_555 1_555
B2 C1 1_555 1_555
H9 B2 1_555 1_555
B3 C1 1_555 1_555
H10 B3 1_555 1_555
B4 C1 1_555 1_555
H11 B4 1_555 1_555
B5 C1 1_555 1_555
H12 B5 1_555 1_555
B6 B1 1_555 1_555
H13 B6 1_555 1_555
B7 B1 1_555 1_555
H14 B7 1_555 1_555
B8 B2 1_555 1_555
H15 B8 1_555 1_555
B9 B3 1_555 1_555
H16 B9 1_555 1_555
B10 B4 1_555 1_555
H17 B10 1_555 1_555
B11 B6 1_555 1_555
H18 B11 1_555 1_555
N2 C8 1_555 1_555
C7 H20 1_555 1_555
H21 C7 1_555 1_555
H22 C7 1_555 1_555
C8 C7 1_555 1_555
H23 C8 1_555 1_555
H24 C8 1_555 1_555
C9 H25 1_555 1_555
H26 C9 1_555 1_555
H27 C9 1_555 1_555
C10 N2 1_555 1_555
H28 C10 1_555 1_555
H29 C10 1_555 1_555
C11 H30 1_555 1_555
H31 C11 1_555 1_555
H32 C11 1_555 1_555
C12 N2 1_555 1_555
H33 C12 1_555 1_555
H34 C12 1_555 1_555
C13 H35 1_555 1_555
H36 C13 1_555 1_555
H37 C13 1_555 1_555
C14 N2 1_555 1_555
H38 C14 1_555 1_555
H39 C14 1_555 1_555
C5 C6 1_555 1_555
B1 B2 1_555 1_555
B1 B5 1_555 1_555
B2 B3 1_555 1_555
B2 B7 1_555 1_555
B3 B4 1_555 1_555
B3 B8 1_555 1_555
B4 B5 1_555 1_555
B4 B9 1_555 1_555
B5 B6 1_555 1_555
B5 B10 1_555 1_555
B6 B7 1_555 1_555
B6 B10 1_555 1_555
B7 B8 1_555 1_555
B7 B11 1_555 1_555
B8 B9 1_555 1_555
B8 B11 1_555 1_555
B9 B10 1_555 1_555
B9 B11 1_555 1_555
B10 B11 1_555 1_555
C9 C10 1_555 1_555
C11 C12 1_555 1_555
C13 C14 1_555 1_555

#END
