
#######################################################################
#
#                 Cambridge Crystallographic Data Centre
#                                CCDC 
#
#######################################################################
#
# If this CIF has been generated from an entry in the Cambridge 
# Structural Database, then it will include bibliographic, chemical, 
# crystal, experimental, refinement or atomic coordinate data resulting 
# from the CCDC's data processing and validation procedures.
#
#######################################################################

data_FARDEK
_chemical_formula_moiety         'C38 H45 B11 F4 N1 O1 1-,C8 H20 N1 1+'
_chemical_name_systematic        
'tetraethylammonium 2,3,4-tris(2-(4-fluorophenyl)ethyl)-5-(2-(4-fluorophenyl)ethenyl)-1-(pyrrolidin-1-carbonyl)-1-carba-closo-dodecaborate'
_symmetry_cell_setting           monoclinic
_symmetry_space_group_name_H-M   'P 21/n'
_symmetry_Int_Tables_number      14
_space_group_name_Hall           '-P 2yn'
loop_
_symmetry_equiv_pos_site_id
_symmetry_equiv_pos_as_xyz
1 x,y,z
2 1/2-x,1/2+y,1/2-z
3 -x,-y,-z
4 1/2+x,1/2-y,1/2+z
_cell_length_a                   10.3433(7)
_cell_length_b                   25.3537(15)
_cell_length_c                   18.9697(13)
_cell_angle_alpha                90
_cell_angle_beta                 99.089(6)
_cell_angle_gamma                90
_cell_volume                     4912.17
_exptl_crystal_colour            colorless
_exptl_crystal_description       needle
_cell_formula_units_Z            4
loop_
_atom_site_label
_atom_site_type_symbol
_atom_site_fract_x
_atom_site_fract_y
_atom_site_fract_z
F1 F 1.3804(2) -0.02858(11) 0.31419(17)
F2 F 0.2174(3) 0.10899(12) -0.37038(14)
F3 F 0.3533(3) 0.48554(9) -0.09338(17)
F4 F 1.3544(2) 0.34324(11) 0.25045(19)
O1 O 0.7776(2) 0.20063(9) -0.00191(14)
N1 N 0.8049(3) 0.11473(10) -0.01763(16)
C1 C 0.6553(3) 0.14785(11) 0.06667(18)
C2 C 0.7491(3) 0.15545(13) 0.01309(18)
C3 C 0.9011(4) 0.12838(15) -0.0637(3)
H1 H 0.9760 0.1463 -0.0368
H2 H 0.8624 0.1509 -0.1028
C4 C 0.9397(6) 0.07633(19) -0.0906(3)
H3 H 0.9284 0.0767 -0.1424
H4 H 1.0311 0.0693 -0.0726
C5 C 0.8670(8) 0.0402(2) -0.0692(4)
H5 H 0.9230 0.0115 -0.0489
H6 H 0.8097 0.0263 -0.1105
C6 C 0.7854(5) 0.05728(14) -0.0159(3)
H7 H 0.6942 0.0478 -0.0303
H8 H 0.8169 0.0427 0.0309
C7 C 0.8535(3) 0.09635(13) 0.1667(2)
H9 H 0.9191 0.1142 0.1481
C8 C 0.8879(3) 0.05439(13) 0.2059(2)
H10 H 0.8190 0.0355 0.2197
C9 C 1.0200(3) 0.03271(12) 0.23141(19)
C10 C 1.1350(4) 0.05452(13) 0.2159(2)
H11 H 1.1307 0.0840 0.1864
C11 C 1.2552(4) 0.03378(15) 0.2430(2)
H12 H 1.3314 0.0487 0.2317
C12 C 1.2607(4) -0.00818(15) 0.2859(2)
C13 C 1.1520(4) -0.03151(15) 0.3039(2)
H13 H 1.1585 -0.0606 0.3341
C14 C 1.0328(4) -0.01057(14) 0.2760(2)
H14 H 0.9575 -0.0262 0.2875
C15 C 0.4398(4) 0.13365(15) -0.0467(2)
H15 H 0.4197 0.1689 -0.0651
H16 H 0.5123 0.1207 -0.0685
C16 C 0.3256(4) 0.10002(18) -0.0714(2)
H17 H 0.2515 0.1125 -0.0504
H18 H 0.3447 0.0642 -0.0548
C17 C 0.2891(4) 0.09959(15) -0.1510(2)
C18 C 0.3486(4) 0.06652(15) -0.1929(3)
H19 H 0.4074 0.0415 -0.1710
C19 C 0.3247(4) 0.06875(16) -0.2663(3)
H20 H 0.3656 0.0456 -0.2938
C20 C 0.2401(4) 0.10558(17) -0.2973(2)
C21 C 0.1757(4) 0.13921(16) -0.2597(3)
H21 H 0.1165 0.1637 -0.2826
C22 C 0.2006(4) 0.13595(15) -0.1864(2)
H22 H 0.1572 0.1587 -0.1596
C23 C 0.5398(3) 0.25348(12) 0.02421(19)
H23 H 0.6087 0.2777 0.0438
H24 H 0.5532 0.2441 -0.0237
C24 C 0.4070(4) 0.28083(14) 0.0207(3)
H25 H 0.3407 0.2589 -0.0070
H26 H 0.3862 0.2832 0.0687
C25 C 0.3993(3) 0.33547(14) -0.0115(2)
C26 C 0.3597(4) 0.34360(15) -0.0827(2)
H27 H 0.3417 0.3147 -0.1129
C27 C 0.3459(4) 0.39428(16) -0.1110(2)
H28 H 0.3195 0.3994 -0.1597
C28 C 0.3714(4) 0.43579(15) -0.0668(3)
C29 C 0.4120(5) 0.43001(17) 0.0041(3)
H29 H 0.4296 0.4592 0.0339
C30 C 0.4263(4) 0.37952(18) 0.0307(2)
H30 H 0.4556 0.3749 0.0793
C31 C 0.8124(3) 0.22701(12) 0.15350(18)
H31 H 0.8740 0.2153 0.1232
H32 H 0.7844 0.2623 0.1384
C32 C 0.8836(3) 0.22957(14) 0.23077(19)
H33 H 0.8267 0.2460 0.2604
H34 H 0.9025 0.1940 0.2483
C33 C 1.0099(3) 0.26039(13) 0.23693(19)
C34 C 1.0239(3) 0.30916(15) 0.2689(2)
H35 H 0.9539 0.3235 0.2877
C35 C 1.1389(4) 0.33725(16) 0.2740(3)
H36 H 1.1471 0.3701 0.2959
C36 C 1.2403(4) 0.31577(17) 0.2461(2)
C37 C 1.2315(4) 0.26892(18) 0.2132(3)
H37 H 1.3016 0.2554 0.1937
C38 C 1.1154(3) 0.24102(15) 0.2091(2)
H38 H 1.1086 0.2082 0.1869
B1 B 0.7113(4) 0.11863(14) 0.1488(2)
B2 B 0.5857(4) 0.08803(15) 0.0864(2)
H39 H 0.6031 0.0501 0.0612
B3 B 0.4890(4) 0.13846(15) 0.0369(2)
B4 B 0.5489(3) 0.20170(14) 0.0722(2)
B5 B 0.6881(3) 0.18898(14) 0.1412(2)
B6 B 0.6285(4) 0.15333(14) 0.2103(2)
H40 H 0.6734 0.1581 0.2665
B7 B 0.5674(4) 0.09191(14) 0.1766(2)
H41 H 0.5728 0.0567 0.2109
B8 B 0.4333(4) 0.10352(16) 0.1085(2)
H42 H 0.3509 0.0757 0.0981
B9 B 0.4097(4) 0.17240(15) 0.0998(2)
H43 H 0.3116 0.1894 0.0838
B10 B 0.5314(3) 0.20359(14) 0.1633(2)
H44 H 0.5132 0.2412 0.1890
B11 B 0.4572(4) 0.14395(14) 0.1856(2)
H45 H 0.3905 0.1429 0.2253
N2 N 0.9020(3) 0.35124(12) -0.05022(19)
C39 C 0.9025(6) 0.4104(2) -0.0617(3)
H46 H 0.8746 0.4173 -0.1121
H47 H 0.9918 0.4229 -0.0496
C40 C 0.8157(10) 0.4427(3) -0.0192(5)
H48 H 0.7255 0.4338 -0.0347
H49 H 0.8286 0.4797 -0.0269
H50 H 0.8389 0.4349 0.0307
C41 C 0.9439(7) 0.3378(3) 0.0263(4)
H51 H 0.8795 0.3518 0.0534
H52 H 0.9434 0.2997 0.0311
C42 C 1.0745(10) 0.3575(5) 0.0589(5)
H53 H 1.1403 0.3421 0.0348
H54 H 1.0911 0.3479 0.1084
H55 H 1.0769 0.3952 0.0545
C43 C 0.9877(6) 0.3285(2) -0.0976(3)
H56 H 1.0743 0.3436 -0.0847
H57 H 0.9548 0.3395 -0.1461
C44 C 1.0013(8) 0.2694(2) -0.0972(5)
H58 H 1.0553 0.2590 -0.1316
H59 H 0.9163 0.2536 -0.1092
H60 H 1.0409 0.2579 -0.0505
C45 C 0.7633(6) 0.3309(2) -0.0678(4)
H61 H 0.7653 0.2928 -0.0625
H62 H 0.7134 0.3449 -0.0328
C46 C 0.6912(8) 0.3439(4) -0.1411(5)
H63 H 0.7426 0.3329 -0.1764
H64 H 0.6764 0.3812 -0.1448
H65 H 0.6087 0.3257 -0.1487
loop_
_geom_bond_atom_site_label_1
_geom_bond_atom_site_label_2
_geom_bond_site_symmetry_1
_geom_bond_site_symmetry_2
F1 C12 1_555 1_555
F2 C20 1_555 1_555
F3 C28 1_555 1_555
F4 C36 1_555 1_555
O1 C2 1_555 1_555
N1 C2 1_555 1_555
C1 C2 1_555 1_555
C3 N1 1_555 1_555
H1 C3 1_555 1_555
H2 C3 1_555 1_555
C4 C3 1_555 1_555
H3 C4 1_555 1_555
H4 C4 1_555 1_555
C5 C4 1_555 1_555
H5 C5 1_555 1_555
H6 C5 1_555 1_555
C6 N1 1_555 1_555
H7 C6 1_555 1_555
H8 C6 1_555 1_555
C7 H9 1_555 1_555
C8 C7 1_555 1_555
H10 C8 1_555 1_555
C9 C8 1_555 1_555
C10 C9 1_555 1_555
H11 C10 1_555 1_555
C11 C10 1_555 1_555
H12 C11 1_555 1_555
C12 C11 1_555 1_555
C13 C12 1_555 1_555
H13 C13 1_555 1_555
C14 C9 1_555 1_555
H14 C14 1_555 1_555
C15 H15 1_555 1_555
H16 C15 1_555 1_555
C16 C15 1_555 1_555
H17 C16 1_555 1_555
H18 C16 1_555 1_555
C17 C16 1_555 1_555
C18 C17 1_555 1_555
H19 C18 1_555 1_555
C19 C18 1_555 1_555
H20 C19 1_555 1_555
C20 C19 1_555 1_555
C21 C20 1_555 1_555
H21 C21 1_555 1_555
C22 C17 1_555 1_555
H22 C22 1_555 1_555
C23 H23 1_555 1_555
H24 C23 1_555 1_555
C24 C23 1_555 1_555
H25 C24 1_555 1_555
H26 C24 1_555 1_555
C25 C24 1_555 1_555
C26 C25 1_555 1_555
H27 C26 1_555 1_555
C27 C26 1_555 1_555
H28 C27 1_555 1_555
C28 C27 1_555 1_555
C29 C28 1_555 1_555
H29 C29 1_555 1_555
C30 C25 1_555 1_555
H30 C30 1_555 1_555
C31 H31 1_555 1_555
H32 C31 1_555 1_555
C32 C31 1_555 1_555
H33 C32 1_555 1_555
H34 C32 1_555 1_555
C33 C32 1_555 1_555
C34 C33 1_555 1_555
H35 C34 1_555 1_555
C35 C34 1_555 1_555
H36 C35 1_555 1_555
C36 C35 1_555 1_555
C37 C36 1_555 1_555
H37 C37 1_555 1_555
C38 C33 1_555 1_555
H38 C38 1_555 1_555
B1 C1 1_555 1_555
B2 C1 1_555 1_555
H39 B2 1_555 1_555
B3 C1 1_555 1_555
B4 C1 1_555 1_555
B5 C1 1_555 1_555
B6 B1 1_555 1_555
H40 B6 1_555 1_555
B7 B1 1_555 1_555
H41 B7 1_555 1_555
B8 B2 1_555 1_555
H42 B8 1_555 1_555
B9 B3 1_555 1_555
H43 B9 1_555 1_555
B10 B4 1_555 1_555
H44 B10 1_555 1_555
B11 B6 1_555 1_555
H45 B11 1_555 1_555
N2 C39 1_555 1_555
C39 H46 1_555 1_555
H47 C39 1_555 1_555
C40 C39 1_555 1_555
H48 C40 1_555 1_555
H49 C40 1_555 1_555
H50 C40 1_555 1_555
C41 N2 1_555 1_555
H51 C41 1_555 1_555
H52 C41 1_555 1_555
C42 C41 1_555 1_555
H53 C42 1_555 1_555
H54 C42 1_555 1_555
H55 C42 1_555 1_555
C43 N2 1_555 1_555
H56 C43 1_555 1_555
H57 C43 1_555 1_555
C44 C43 1_555 1_555
H58 C44 1_555 1_555
H59 C44 1_555 1_555
H60 C44 1_555 1_555
C45 N2 1_555 1_555
H61 C45 1_555 1_555
H62 C45 1_555 1_555
C46 C45 1_555 1_555
H63 C46 1_555 1_555
H64 C46 1_555 1_555
H65 C46 1_555 1_555
C5 C6 1_555 1_555
C7 B1 1_555 1_555
C13 C14 1_555 1_555
C15 B3 1_555 1_555
C21 C22 1_555 1_555
C23 B4 1_555 1_555
C29 C30 1_555 1_555
C31 B5 1_555 1_555
C37 C38 1_555 1_555
B1 B2 1_555 1_555
B1 B5 1_555 1_555
B2 B3 1_555 1_555
B2 B7 1_555 1_555
B3 B4 1_555 1_555
B3 B8 1_555 1_555
B4 B5 1_555 1_555
B4 B9 1_555 1_555
B5 B6 1_555 1_555
B5 B10 1_555 1_555
B6 B7 1_555 1_555
B6 B10 1_555 1_555
B7 B8 1_555 1_555
B7 B11 1_555 1_555
B8 B9 1_555 1_555
B8 B11 1_555 1_555
B9 B10 1_555 1_555
B9 B11 1_555 1_555
B10 B11 1_555 1_555

#END
