
#######################################################################
#
#                 Cambridge Crystallographic Data Centre
#                                CCDC 
#
#######################################################################
#
# If this CIF has been generated from an entry in the Cambridge 
# Structural Database, then it will include bibliographic, chemical, 
# crystal, experimental, refinement or atomic coordinate data resulting 
# from the CCDC's data processing and validation procedures.
#
#######################################################################

data_FARGUD
_chemical_formula_moiety         'C36 H22 N4 O2'
_chemical_name_systematic        
10-(9-(10H-phenoxazin-10-yl)-1,10-phenanthrolin-2-yl)-10H-phenoxazine
_symmetry_cell_setting           orthorhombic
_symmetry_space_group_name_H-M   'P n a 21'
_symmetry_Int_Tables_number      33
_space_group_name_Hall           'P 2c -2n'
loop_
_symmetry_equiv_pos_site_id
_symmetry_equiv_pos_as_xyz
1 x,y,z
2 -x,-y,1/2+z
3 1/2+x,1/2-y,z
4 1/2-x,1/2+y,1/2+z
_cell_length_a                   17.435(10)
_cell_length_b                   13.500(7)
_cell_length_c                   11.052(6)
_cell_angle_alpha                90
_cell_angle_beta                 90
_cell_angle_gamma                90
_cell_volume                     2601.34
_exptl_crystal_description       block
_cell_formula_units_Z            4
loop_
_atom_site_label
_atom_site_type_symbol
_atom_site_fract_x
_atom_site_fract_y
_atom_site_fract_z
C1 C 0.06958(15) 0.1148(2) 0.3401(2)
C2 C 0.08846(15) 0.0107(2) 0.3394(2)
N1 N 0.09797(13) -0.03587(16) 0.23278(19)
N2 N 0.05331(13) 0.15948(17) 0.23330(19)
N3 N 0.12678(14) -0.17602(16) 0.1214(2)
C3 C 0.09559(16) -0.0375(2) 0.4511(2)
C4 C 0.06596(16) 0.1653(2) 0.4509(2)
C5 C 0.07495(18) 0.1132(3) 0.5613(2)
H1 H 0.0726 0.1473 0.6344
C6 C 0.12367(18) -0.1858(2) 0.3411(3)
H2 H 0.1357 -0.2528 0.3390
C7 C 0.11519(16) -0.1308(2) 0.2332(2)
C8 C 0.08682(18) 0.0153(3) 0.5609(2)
H3 H 0.0894 -0.0186 0.6341
C9 C 0.11374(19) -0.1381(2) 0.4474(3)
H4 H 0.1191 -0.1730 0.5194
C10 C 0.03619(16) 0.2542(2) 0.2363(2)
C11 C 0.03593(19) 0.3116(2) 0.3412(3)
H5 H 0.0257 0.3792 0.3378
C12 C 0.11038(17) -0.0365(2) -0.0226(3)
H6 H 0.0687 -0.0116 0.0201
C13 C 0.14714(15) -0.1218(2) 0.0160(2)
N4 N 0.01492(15) 0.30038(18) 0.1260(2)
C14 C 0.05078(18) 0.2671(2) 0.4477(3)
H7 H 0.0510 0.3038 0.5189
C15 C 0.13807(17) -0.2795(2) 0.1099(3)
C16 C 0.20770(16) -0.1578(2) -0.0522(3)
C17 C 0.0940(2) 0.3813(3) -0.1653(3)
H8 H 0.0816 0.4265 -0.2257
O1 O -0.01535(13) 0.43428(17) -0.0586(2)
O2 O 0.24539(13) -0.24360(17) -0.0184(2)
C18 C -0.07134(18) 0.4119(2) 0.0250(3)
C19 C 0.23285(19) -0.1101(3) -0.1545(3)
H9 H 0.2734 -0.1357 -0.1993
C20 C -0.05735(17) 0.3465(2) 0.1185(3)
C21 C 0.06328(18) 0.3035(2) 0.0241(3)
C22 C 0.19815(17) -0.3112(2) 0.0384(3)
C23 C 0.04677(18) 0.3709(2) -0.0666(3)
C24 C -0.11704(19) 0.3263(2) 0.1975(3)
H10 H -0.1098 0.2806 0.2594
C25 C 0.2129(2) -0.4107(3) 0.0210(3)
H11 H 0.2535 -0.4310 -0.0275
C26 C 0.1973(2) -0.0243(3) -0.1896(3)
H12 H 0.2146 0.0098 -0.2573
C27 C 0.0899(2) -0.3488(2) 0.1609(3)
H13 H 0.0473 -0.3287 0.2051
C28 C 0.13621(19) 0.0111(2) -0.1250(3)
H14 H 0.1117 0.0685 -0.1507
C29 C -0.1987(2) 0.4384(3) 0.0944(4)
H15 H -0.2457 0.4704 0.0868
C30 C 0.1290(2) 0.2468(3) 0.0117(3)
H16 H 0.1412 0.2001 0.0705
C31 C -0.1409(2) 0.4572(3) 0.0131(4)
H17 H -0.1492 0.5011 -0.0504
C32 C 0.1663(3) -0.4792(3) 0.0768(3)
H18 H 0.1763 -0.5465 0.0678
C33 C 0.1764(2) 0.2589(3) -0.0871(4)
H19 H 0.2207 0.2210 -0.0935
C34 C 0.1055(2) -0.4486(2) 0.1456(3)
H20 H 0.0742 -0.4955 0.1827
C35 C 0.1594(3) 0.3254(3) -0.1750(4)
H21 H 0.1917 0.3329 -0.2413
C36 C -0.1868(2) 0.3729(3) 0.1860(3)
H22 H -0.2260 0.3595 0.2408
loop_
_geom_bond_atom_site_label_1
_geom_bond_atom_site_label_2
_geom_bond_site_symmetry_1
_geom_bond_site_symmetry_2
C1 C2 1_555 1_555
C2 N1 1_555 1_555
N1 C7 1_555 1_555
N2 C1 1_555 1_555
N3 C7 1_555 1_555
C3 C2 1_555 1_555
C4 C1 1_555 1_555
C5 C4 1_555 1_555
H1 C5 1_555 1_555
C6 H2 1_555 1_555
C7 C6 1_555 1_555
C8 C3 1_555 1_555
H3 C8 1_555 1_555
C9 C3 1_555 1_555
H4 C9 1_555 1_555
C10 N2 1_555 1_555
C11 C10 1_555 1_555
H5 C11 1_555 1_555
C12 H6 1_555 1_555
C13 N3 1_555 1_555
N4 C10 1_555 1_555
C14 C4 1_555 1_555
H7 C14 1_555 1_555
C15 N3 1_555 1_555
C16 C13 1_555 1_555
C17 H8 1_555 1_555
O1 C18 1_555 1_555
O2 C16 1_555 1_555
C18 C20 1_555 1_555
C19 C16 1_555 1_555
H9 C19 1_555 1_555
C20 N4 1_555 1_555
C21 N4 1_555 1_555
C22 C15 1_555 1_555
C23 C17 1_555 1_555
C24 C20 1_555 1_555
H10 C24 1_555 1_555
C25 C22 1_555 1_555
H11 C25 1_555 1_555
C26 C19 1_555 1_555
H12 C26 1_555 1_555
C27 C15 1_555 1_555
H13 C27 1_555 1_555
C28 C12 1_555 1_555
H14 C28 1_555 1_555
C29 H15 1_555 1_555
C30 C21 1_555 1_555
H16 C30 1_555 1_555
C31 C18 1_555 1_555
H17 C31 1_555 1_555
C32 C25 1_555 1_555
H18 C32 1_555 1_555
C33 C30 1_555 1_555
H19 C33 1_555 1_555
C34 C27 1_555 1_555
H20 C34 1_555 1_555
C35 C17 1_555 1_555
H21 C35 1_555 1_555
C36 C24 1_555 1_555
H22 C36 1_555 1_555
C5 C8 1_555 1_555
C6 C9 1_555 1_555
C11 C14 1_555 1_555
C12 C13 1_555 1_555
O1 C23 1_555 1_555
O2 C22 1_555 1_555
C21 C23 1_555 1_555
C26 C28 1_555 1_555
C29 C31 1_555 1_555
C29 C36 1_555 1_555
C32 C34 1_555 1_555
C33 C35 1_555 1_555

#END
