
#######################################################################
#
#                 Cambridge Crystallographic Data Centre
#                                CCDC 
#
#######################################################################
#
# If this CIF has been generated from an entry in the Cambridge 
# Structural Database, then it will include bibliographic, chemical, 
# crystal, experimental, refinement or atomic coordinate data resulting 
# from the CCDC's data processing and validation procedures.
#
#######################################################################

data_FARHAK
_chemical_formula_moiety         'C36 H22 N4 O2'
_chemical_name_systematic        
10-(8-(10H-phenoxazin-10-yl)-1,10-phenanthrolin-3-yl)-10H-phenoxazine
_symmetry_cell_setting           orthorhombic
_symmetry_space_group_name_H-M   'P n m a'
_symmetry_Int_Tables_number      62
_space_group_name_Hall           '-P 2ac 2n'
loop_
_symmetry_equiv_pos_site_id
_symmetry_equiv_pos_as_xyz
1 x,y,z
2 1/2-x,-y,1/2+z
3 1/2+x,1/2-y,1/2-z
4 -x,1/2+y,-z
5 -x,-y,-z
6 1/2+x,y,1/2-z
7 1/2-x,1/2+y,1/2+z
8 x,1/2-y,z
_cell_length_a                   13.3393(17)
_cell_length_b                   14.3106(18)
_cell_length_c                   13.8870(18)
_cell_angle_alpha                90
_cell_angle_beta                 90
_cell_angle_gamma                90
_cell_volume                     2650.94
_exptl_crystal_description       block
_cell_formula_units_Z            4
loop_
_atom_site_label
_atom_site_type_symbol
_atom_site_fract_x
_atom_site_fract_y
_atom_site_fract_z
O1 O 0.77816(15) 0.7500 0.19263(11)
O2 O 0.50770(15) 0.7500 -0.87811(12)
N1 N 0.60549(13) 0.7500 -0.22728(12)
N2 N 0.54749(14) 0.7500 -0.41700(13)
N3 N 0.76105(14) 0.7500 -0.00844(12)
N4 N 0.55305(15) 0.7500 -0.68220(13)
C1 C 0.64648(14) 0.7500 -0.39644(14)
C2 C 0.67723(14) 0.7500 -0.29636(14)
C3 C 0.63622(17) 0.7500 -0.13697(16)
H1 H 0.5877 0.7500 -0.0888
C4 C 0.73702(16) 0.7500 -0.10882(15)
C5 C 0.80928(16) 0.7500 -0.17768(15)
H2 H 0.8767 0.7500 -0.1608
C6 C 0.78037(14) 0.7500 -0.27493(14)
C7 C 0.85302(15) 0.7500 -0.35046(15)
H3 H 0.9209 0.7500 -0.3353
C8 C 0.82451(15) 0.7500 -0.44301(15)
H4 H 0.8729 0.7500 -0.4912
C9 C 0.72078(14) 0.7500 -0.46861(14)
C10 C 0.68899(16) 0.7500 -0.56548(14)
H5 H 0.7358 0.7500 -0.6151
C11 C 0.58950(17) 0.7500 -0.58541(15)
C12 C 0.52196(18) 0.7500 -0.50883(17)
H6 H 0.4539 0.7500 -0.5235
C13 C 0.76018(11) 0.66549(10) 0.04288(11)
C14 C 0.75369(15) 0.57988(12) -0.00274(15)
H7 H 0.7483 0.5772 -0.0695
C15 C 0.7551(2) 0.49910(15) 0.04977(19)
H8 H 0.7504 0.4419 0.0184
C16 C 0.76339(18) 0.50150(15) 0.1480(2)
H9 H 0.7641 0.4462 0.1832
C17 C 0.77067(14) 0.58616(14) 0.19449(14)
H10 H 0.7766 0.5883 0.2612
C18 C 0.76919(12) 0.66732(11) 0.14199(12)
C19 C 0.53205(12) 0.66504(12) -0.72879(12)
C20 C 0.53471(14) 0.57920(14) -0.68325(14)
H11 H 0.5503 0.5763 -0.6180
C21 C 0.51460(15) 0.49749(17) -0.73306(16)
H12 H 0.5173 0.4402 -0.7015
C22 C 0.49062(16) 0.50111(18) -0.82897(18)
H13 H 0.4764 0.4464 -0.8624
C23 C 0.48758(15) 0.58610(17) -0.87593(15)
H14 H 0.4717 0.5885 -0.9411
C24 C 0.50799(13) 0.66692(14) -0.82672(13)
C13G C 0.76018(11) 0.83451(10) 0.04288(11)
C14G C 0.75369(15) 0.92012(12) -0.00274(15)
H7G H 0.7483 0.9228 -0.0695
C15G C 0.7551(2) 1.00090(15) 0.04977(19)
H8G H 0.7504 1.0581 0.0184
C16G C 0.76339(18) 0.99850(15) 0.1480(2)
H9G H 0.7641 1.0538 0.1832
C17G C 0.77067(14) 0.91384(14) 0.19449(14)
H10G H 0.7766 0.9117 0.2612
C18G C 0.76919(12) 0.83268(11) 0.14199(12)
C19G C 0.53205(12) 0.83496(12) -0.72879(12)
C20G C 0.53471(14) 0.92080(14) -0.68325(14)
H11G H 0.5503 0.9237 -0.6180
C21G C 0.51460(15) 1.00251(17) -0.73306(16)
H12G H 0.5173 1.0598 -0.7015
C22G C 0.49062(16) 0.99889(18) -0.82897(18)
H13G H 0.4764 1.0536 -0.8624
C23G C 0.48758(15) 0.91390(17) -0.87593(15)
H14G H 0.4717 0.9115 -0.9411
C24G C 0.50799(13) 0.83308(14) -0.82672(13)
loop_
_geom_bond_atom_site_label_1
_geom_bond_atom_site_label_2
_geom_bond_site_symmetry_1
_geom_bond_site_symmetry_2
O1 C18 1_555 1_555
O2 C24 1_555 1_555
N1 C2 1_555 1_555
N2 C1 1_555 1_555
N3 C4 1_555 1_555
N4 C11 1_555 1_555
C1 C2 1_555 1_555
C2 C6 1_555 1_555
C3 N1 1_555 1_555
H1 C3 1_555 1_555
C4 C3 1_555 1_555
C5 C4 1_555 1_555
H2 C5 1_555 1_555
C6 C5 1_555 1_555
C7 C6 1_555 1_555
H3 C7 1_555 1_555
C8 C7 1_555 1_555
H4 C8 1_555 1_555
C9 C1 1_555 1_555
C10 C9 1_555 1_555
H5 C10 1_555 1_555
C11 C10 1_555 1_555
C12 N2 1_555 1_555
H6 C12 1_555 1_555
C13 N3 1_555 1_555
C14 C13 1_555 1_555
H7 C14 1_555 1_555
C15 C14 1_555 1_555
H8 C15 1_555 1_555
C16 C15 1_555 1_555
H9 C16 1_555 1_555
C17 C16 1_555 1_555
H10 C17 1_555 1_555
C18 C13 1_555 1_555
C19 N4 1_555 1_555
C20 C19 1_555 1_555
H11 C20 1_555 1_555
C21 C20 1_555 1_555
H12 C21 1_555 1_555
C22 C21 1_555 1_555
H13 C22 1_555 1_555
C23 C22 1_555 1_555
H14 C23 1_555 1_555
C24 C19 1_555 1_555
C13G N3 1_555 1_555
C14G C13G 1_555 1_555
H7G C14G 1_555 1_555
C15G C14G 1_555 1_555
H8G C15G 1_555 1_555
C16G C15G 1_555 1_555
H9G C16G 1_555 1_555
C17G C16G 1_555 1_555
H10G C17G 1_555 1_555
C18G O1 1_555 1_555
C19G N4 1_555 1_555
C20G C19G 1_555 1_555
H11G C20G 1_555 1_555
C21G C20G 1_555 1_555
H12G C21G 1_555 1_555
C22G C21G 1_555 1_555
H13G C22G 1_555 1_555
C23G C22G 1_555 1_555
H14G C23G 1_555 1_555
C24G O2 1_555 1_555
C8 C9 1_555 1_555
C11 C12 1_555 1_555
C17 C18 1_555 1_555
C23 C24 1_555 1_555
C13G C18G 1_555 1_555
C17G C18G 1_555 1_555
C19G C24G 1_555 1_555
C23G C24G 1_555 1_555

#END
