
#######################################################################
#
#                 Cambridge Crystallographic Data Centre
#                                CCDC 
#
#######################################################################
#
# If this CIF has been generated from an entry in the Cambridge 
# Structural Database, then it will include bibliographic, chemical, 
# crystal, experimental, refinement or atomic coordinate data resulting 
# from the CCDC's data processing and validation procedures.
#
#######################################################################

data_FARVOM
_chemical_formula_moiety         'C15 H26 N4 2+,2(Cl1 1-)'
_chemical_name_systematic        
"1,1'-methylenebis(2,3,4,5-tetramethyl-1H-imidazol-3-ium) dichloride"
_symmetry_cell_setting           triclinic
_symmetry_space_group_name_H-M   'P -1'
_symmetry_Int_Tables_number      2
_space_group_name_Hall           '-P 1'
loop_
_symmetry_equiv_pos_site_id
_symmetry_equiv_pos_as_xyz
1 x,y,z
2 -x,-y,-z
_cell_length_a                   6.9352(14)
_cell_length_b                   10.227(2)
_cell_length_c                   12.049(2)
_cell_angle_alpha                89.68(3)
_cell_angle_beta                 87.52(3)
_cell_angle_gamma                83.28(3)
_cell_volume                     847.925
_exptl_crystal_colour            colorless
_exptl_crystal_description       block
_cell_formula_units_Z            2
loop_
_atom_site_label
_atom_site_type_symbol
_atom_site_fract_x
_atom_site_fract_y
_atom_site_fract_z
N1 N 0.6969(3) 0.7988(2) 0.15719(18)
N2 N 0.5466(3) 0.7916(2) 0.00364(19)
N3 N 0.8016(3) 0.7065(2) 0.33510(18)
N4 N 0.7588(3) 0.6511(2) 0.50754(19)
C1 C 0.7121(4) 0.7491(3) 0.0524(2)
C2 C 0.4254(4) 0.8704(2) 0.0768(2)
C3 C 0.5176(4) 0.8748(3) 0.1728(2)
C4 C 0.8792(5) 0.6695(3) -0.0047(3)
H1 H 0.988(5) 0.644(3) 0.042(3)
H2 H 0.837(4) 0.594(3) -0.031(3)
H3 H 0.927(4) 0.717(3) -0.068(3)
C5 C 0.5005(6) 0.7549(4) -0.1081(3)
H4 H 0.536(5) 0.668(4) -0.122(3)
H5 H 0.595(5) 0.798(3) -0.165(3)
H6 H 0.390(6) 0.792(4) -0.125(3)
C6 C 0.2270(4) 0.9267(3) 0.0485(3)
H7 H 0.149(5) 0.861(3) 0.042(3)
H8 H 0.225(4) 0.974(3) -0.023(3)
H9 H 0.169(5) 0.987(3) 0.106(3)
C7 C 0.4477(5) 0.9384(3) 0.2790(3)
H10 H 0.535(5) 0.997(3) 0.306(3)
H11 H 0.437(5) 0.879(3) 0.340(3)
H12 H 0.324(5) 0.989(3) 0.271(3)
C8 C 0.7912(4) 0.5708(3) 0.3368(2)
C9 C 0.7644(4) 0.5369(3) 0.4446(2)
C10 C 0.7839(4) 0.7539(3) 0.4408(2)
C11 C 0.8075(5) 0.4893(3) 0.2347(3)
H13 H 0.809(4) 0.398(3) 0.253(3)
H14 H 0.931(5) 0.500(3) 0.192(3)
H15 H 0.705(5) 0.513(3) 0.191(3)
C12 C 0.7469(5) 0.4059(3) 0.4957(3)
H16 H 0.832(5) 0.384(3) 0.553(3)
H17 H 0.776(4) 0.337(3) 0.442(3)
H18 H 0.622(5) 0.401(3) 0.534(3)
C13 C 0.7236(5) 0.6626(4) 0.6284(3)
H19 H 0.812(5) 0.710(3) 0.661(3)
H20 H 0.730(5) 0.578(3) 0.663(3)
H21 H 0.596(5) 0.706(3) 0.646(3)
C14 C 0.7922(5) 0.8890(3) 0.4806(3)
H22 H 0.657(5) 0.927(3) 0.513(3)
H23 H 0.878(5) 0.884(3) 0.541(3)
H24 H 0.829(5) 0.942(3) 0.427(3)
C15 C 0.8507(4) 0.7837(3) 0.2373(2)
H25 H 0.974(4) 0.737(3) 0.203(2)
H26 H 0.870(4) 0.870(3) 0.259(2)
Cl1 Cl 0.29229(11) 0.59754(8) 0.18155(7)
Cl2 Cl 0.91631(12) 0.12272(7) 0.26926(7)
loop_
_geom_bond_atom_site_label_1
_geom_bond_atom_site_label_2
_geom_bond_site_symmetry_1
_geom_bond_site_symmetry_2
N1 C1 1_555 1_555
N2 C1 1_555 1_555
N3 C8 1_555 1_555
N4 C9 1_555 1_555
C1 C4 1_555 1_555
C2 N2 1_555 1_555
C3 N1 1_555 1_555
C4 H1 1_555 1_555
H2 C4 1_555 1_555
H3 C4 1_555 1_555
C5 N2 1_555 1_555
H4 C5 1_555 1_555
H5 C5 1_555 1_555
H6 C5 1_555 1_555
C6 C2 1_555 1_555
H7 C6 1_555 1_555
H8 C6 1_555 1_555
H9 C6 1_555 1_555
C7 C3 1_555 1_555
H10 C7 1_555 1_555
H11 C7 1_555 1_555
H12 C7 1_555 1_555
C8 C9 1_555 1_555
C9 C12 1_555 1_555
C10 N3 1_555 1_555
C11 C8 1_555 1_555
H13 C11 1_555 1_555
H14 C11 1_555 1_555
H15 C11 1_555 1_555
C12 H16 1_555 1_555
H17 C12 1_555 1_555
H18 C12 1_555 1_555
C13 N4 1_555 1_555
H19 C13 1_555 1_555
H20 C13 1_555 1_555
H21 C13 1_555 1_555
C14 C10 1_555 1_555
H22 C14 1_555 1_555
H23 C14 1_555 1_555
H24 C14 1_555 1_555
C15 N1 1_555 1_555
H25 C15 1_555 1_555
H26 C15 1_555 1_555
N3 C15 1_555 1_555
N4 C10 1_555 1_555
C2 C3 1_555 1_555

#END
