
#######################################################################
#
#                 Cambridge Crystallographic Data Centre
#                                CCDC 
#
#######################################################################
#
# If this CIF has been generated from an entry in the Cambridge 
# Structural Database, then it will include bibliographic, chemical, 
# crystal, experimental, refinement or atomic coordinate data resulting 
# from the CCDC's data processing and validation procedures.
#
#######################################################################

data_FASCIM
_chemical_formula_moiety         'C30 H33 N1 O6'
_chemical_name_systematic        
'2-(2-Phenylprop-2-yl)-5-methylcyclohexyl 2-((5-oxo-2H,5H-furan-2-yl)-(4-nitrophenyl)methyl)prop-2-enoate'
_symmetry_cell_setting           orthorhombic
_symmetry_space_group_name_H-M   'P 21 21 21'
_symmetry_Int_Tables_number      19
_space_group_name_Hall           'P 2ac 2ab'
loop_
_symmetry_equiv_pos_site_id
_symmetry_equiv_pos_as_xyz
1 x,y,z
2 1/2-x,-y,1/2+z
3 1/2+x,1/2-y,-z
4 -x,1/2+y,1/2-z
_cell_length_a                   6.02730(10)
_cell_length_b                   18.1164(5)
_cell_length_c                   23.7715(7)
_cell_angle_alpha                90
_cell_angle_beta                 90
_cell_angle_gamma                90
_cell_volume                     2595.68
_exptl_crystal_colour            colorless
_exptl_crystal_description       needle
_cell_formula_units_Z            4
_exptl_crystal_recrystallization_method acetone/hexanes
loop_
_atom_site_label
_atom_site_type_symbol
_atom_site_fract_x
_atom_site_fract_y
_atom_site_fract_z
C1 C 0.2697(7) 0.5362(2) 0.0156(2)
C2 C 0.1157(7) 0.4746(2) -0.0046(2)
C3 C 0.0435(8) 0.4940(2) -0.0647(2)
C4 C -0.0661(7) 0.5693(2) -0.0677(2)
C5 C 0.0835(7) 0.6307(2) -0.0462(2)
C6 C 0.1642(7) 0.6119(2) 0.0131(2)
O1 O 0.3296(4) 0.5205(1) 0.0743(1)
C7 C 0.5270(7) 0.5455(2) 0.0920(2)
O2 O 0.6521(5) 0.5811(2) 0.0627(1)
C8 C 0.5796(7) 0.5248(2) 0.1504(2)
C9 C 0.4541(7) 0.4765(2) 0.1775(2)
C10 C 0.7903(6) 0.5606(2) 0.1735(2)
C11 C 0.8603(6) 0.5313(2) 0.2315(2)
O3 O 1.0817(4) 0.5602(2) 0.2431(1)
C12 C 1.0807(8) 0.5973(2) 0.2935(2)
C13 C 0.8555(7) 0.5935(2) 0.3162(2)
C14 C 0.7287(7) 0.5559(2) 0.2812(2)
O4 O 1.2459(5) 0.6261(2) 0.3110(1)
C15 C 0.7741(7) 0.6437(2) 0.1749(2)
C16 C 0.5882(7) 0.6786(2) 0.1964(2)
C17 C 0.5810(9) 0.7549(3) 0.2004(2)
C18 C 0.7609(10) 0.7954(2) 0.1831(2)
C19 C 0.9451(9) 0.7634(2) 0.1615(2)
C20 C 0.9528(7) 0.6873(2) 0.1578(2)
N1 N 0.7521(11) 0.8765(3) 0.1882(2)
O5 O 0.9284(9) 0.9111(2) 0.1790(2)
O6 O 0.5751(9) 0.9049(2) 0.2002(2)
C21 C 0.2131(7) 0.3952(2) 0.0029(2)
C22 C 0.4555(7) 0.3940(2) -0.0181(2)
C23 C 0.0863(7) 0.3397(2) -0.0348(2)
C24 C 0.1913(7) 0.3661(2) 0.0629(2)
C25 C -0.0087(7) 0.3719(2) 0.0918(2)
C26 C -0.0431(8) 0.3387(2) 0.1438(2)
C27 C 0.1240(8) 0.2966(2) 0.1681(2)
C28 C 0.3236(8) 0.2907(2) 0.1404(2)
C29 C 0.3579(8) 0.3254(2) 0.0891(2)
C30 C -0.0298(8) 0.7061(2) -0.0480(2)
H1 H 0.4011 0.5356 -0.0072
H2 H -0.0149 0.4774 0.0184
H3 H -0.0561 0.4568 -0.0786
H4 H 0.1729 0.4945 -0.0883
H5 H -0.1948 0.5681 -0.0439
H6 H -0.1146 0.5796 -0.1053
H7 H 0.2103 0.6327 -0.0706
H8 H 0.2700 0.6483 0.0249
H9 H 0.0404 0.6132 0.0385
H10 H 0.4908 0.4617 0.2151
H11 H 0.3251 0.4565 0.1593
H12 H 0.9068 0.5494 0.1473
H13 H 0.8667 0.4784 0.2301
H14 H 0.8084 0.6157 0.3508
H15 H 0.5740 0.5456 0.2866
H16 H 0.4643 0.6493 0.2084
H17 H 0.4522 0.7796 0.2149
H18 H 1.0672 0.7937 0.1496
H19 H 1.0815 0.6631 0.1428
H20 H 0.5166 0.3453 -0.0146
H21 H 0.4594 0.4090 -0.0568
H22 H 0.5412 0.4279 0.0041
H23 H 0.1490 0.2913 -0.0308
H24 H -0.0660 0.3388 -0.0229
H25 H 0.0944 0.3547 -0.0734
H26 H -0.1258 0.3994 0.0742
H27 H -0.1816 0.3451 0.1631
H28 H 0.1015 0.2717 0.2033
H29 H 0.4411 0.2627 0.1573
H30 H 0.4999 0.3211 0.0711
H31 H -0.0805 0.7179 -0.0852
H32 H -0.1540 0.7049 -0.0227
H33 H 0.0741 0.7428 -0.0357
loop_
_geom_bond_atom_site_label_1
_geom_bond_atom_site_label_2
_geom_bond_site_symmetry_1
_geom_bond_site_symmetry_2
C1 C2 1_555 1_555
C2 C3 1_555 1_555
C3 C4 1_555 1_555
C4 C5 1_555 1_555
C5 C6 1_555 1_555
C6 C1 1_555 1_555
O1 C1 1_555 1_555
C7 O1 1_555 1_555
O2 C7 1_555 1_555
C8 C7 1_555 1_555
C9 C8 1_555 1_555
C10 C8 1_555 1_555
C11 C10 1_555 1_555
O3 C11 1_555 1_555
C12 O3 1_555 1_555
C13 C12 1_555 1_555
C14 C11 1_555 1_555
O4 C12 1_555 1_555
C15 C10 1_555 1_555
C16 C15 1_555 1_555
C17 C16 1_555 1_555
C18 C17 1_555 1_555
C19 C18 1_555 1_555
C20 C15 1_555 1_555
N1 C18 1_555 1_555
O5 N1 1_555 1_555
O6 N1 1_555 1_555
C21 C2 1_555 1_555
C22 C21 1_555 1_555
C23 C21 1_555 1_555
C24 C21 1_555 1_555
C25 C24 1_555 1_555
C26 C25 1_555 1_555
C27 C26 1_555 1_555
C28 C27 1_555 1_555
C29 C24 1_555 1_555
C30 C5 1_555 1_555
H1 C1 1_555 1_555
H2 C2 1_555 1_555
H3 C3 1_555 1_555
H4 C3 1_555 1_555
H5 C4 1_555 1_555
H6 C4 1_555 1_555
H7 C5 1_555 1_555
H8 C6 1_555 1_555
H9 C6 1_555 1_555
H10 C9 1_555 1_555
H11 C9 1_555 1_555
H12 C10 1_555 1_555
H13 C11 1_555 1_555
H14 C13 1_555 1_555
H15 C14 1_555 1_555
H16 C16 1_555 1_555
H17 C17 1_555 1_555
H18 C19 1_555 1_555
H19 C20 1_555 1_555
H20 C22 1_555 1_555
H21 C22 1_555 1_555
H22 C22 1_555 1_555
H23 C23 1_555 1_555
H24 C23 1_555 1_555
H25 C23 1_555 1_555
H26 C25 1_555 1_555
H27 C26 1_555 1_555
H28 C27 1_555 1_555
H29 C28 1_555 1_555
H30 C29 1_555 1_555
H31 C30 1_555 1_555
H32 C30 1_555 1_555
H33 C30 1_555 1_555
C13 C14 1_555 1_555
C19 C20 1_555 1_555
C28 C29 1_555 1_555

#END
