
#######################################################################
#
#                 Cambridge Crystallographic Data Centre
#                                CCDC 
#
#######################################################################
#
# If this CIF has been generated from an entry in the Cambridge 
# Structural Database, then it will include bibliographic, chemical, 
# crystal, experimental, refinement or atomic coordinate data resulting 
# from the CCDC's data processing and validation procedures.
#
#######################################################################

data_FASDAE
_chemical_formula_moiety         'C20 H30 O2'
_chemical_name_systematic        
3a-Hydroxy-trispiro(octahydropentalene-1,1':2,1'':3,1'''-tris(cyclopentane))-2'''-one
_symmetry_cell_setting           monoclinic
_symmetry_space_group_name_H-M   'P 21/c'
_symmetry_Int_Tables_number      14
_space_group_name_Hall           '-P 2ybc'
loop_
_symmetry_equiv_pos_site_id
_symmetry_equiv_pos_as_xyz
1 x,y,z
2 -x,1/2+y,1/2-z
3 -x,-y,-z
4 x,1/2-y,1/2+z
_cell_length_a                   11.626(3)
_cell_length_b                   10.761(2)
_cell_length_c                   12.989(3)
_cell_angle_alpha                90
_cell_angle_beta                 92.10(2)
_cell_angle_gamma                90
_cell_volume                     1623.93
_exptl_crystal_colour            colorless
_cell_formula_units_Z            4
loop_
_atom_site_label
_atom_site_type_symbol
_atom_site_fract_x
_atom_site_fract_y
_atom_site_fract_z
C1 C 0.8869(5) 0.1846(6) 0.5161(4)
C2 C 1.0154(6) 0.1957(7) 0.5029(5)
C3 C 1.0665(6) 0.2028(7) 0.6127(5)
C4 C 0.9727(5) 0.1491(6) 0.6789(4)
C5 C 0.8574(5) 0.1971(5) 0.6300(4)
C6 C 0.7453(5) 0.1301(5) 0.6617(4)
C7 C 0.7236(6) -0.0003(6) 0.6146(4)
C8 C 0.7507(7) -0.0945(6) 0.6964(5)
C9 C 0.7172(7) -0.0328(6) 0.7943(5)
C10 C 0.7550(5) 0.1014(6) 0.7805(4)
C11 C 0.6471(5) 0.2278(6) 0.6394(4)
C12 C 0.5335(6) 0.2028(7) 0.6962(5)
C13 C 0.4397(6) 0.1792(8) 0.6161(6)
C14 C 0.4761(6) 0.2561(7) 0.5261(5)
C15 C 0.6044(5) 0.2322(6) 0.5242(4)
C16 C 0.7051(5) 0.3493(5) 0.6771(4)
C17 C 0.6666(6) 0.4748(6) 0.6329(5)
C18 C 0.7766(6) 0.5429(6) 0.6072(5)
C19 C 0.8565(6) 0.4383(6) 0.5747(5)
C20 C 0.8348(5) 0.3383(5) 0.6565(4)
O1 O 0.8212(4) 0.1617(4) 0.4440(3)
O2 O 0.9053(4) 0.3772(4) 0.7432(3)
H1 H 0.8625 0.3625 0.8070
H2 H 1.0479 0.1156 0.4630
H3 H 1.0352 0.2787 0.4603
H4 H 1.0856 0.2977 0.6347
H5 H 1.1446 0.1481 0.6208
H6 H 0.9755 0.0484 0.6785
H7 H 0.9838 0.1809 0.7581
H8 H 0.7779 -0.0144 0.5501
H9 H 0.6344 -0.0085 0.5889
H10 H 0.8415 -0.1177 0.6992
H11 H 0.7014 -0.1788 0.6834
H12 H 0.6257 -0.0381 0.8036
H13 H 0.7614 -0.0748 0.8604
H14 H 0.7007 0.1634 0.8228
H15 H 0.8437 0.1133 0.8095
H16 H 0.5121 0.2822 0.7428
H17 H 0.5441 0.1221 0.7460
H18 H 0.4347 0.0814 0.5961
H19 H 0.3570 0.2091 0.6425
H20 H 0.4330 0.2256 0.4552
H21 H 0.4582 0.3533 0.5378
H22 H 0.6216 0.1448 0.4862
H23 H 0.6469 0.3062 0.4838
H24 H 0.6972 0.3534 0.7600
H25 H 0.6194 0.5269 0.6893
H26 H 0.6122 0.4623 0.5646
H27 H 0.7610 0.6088 0.5452
H28 H 0.8122 0.5923 0.6739
H29 H 0.8337 0.4051 0.4981
H30 H 0.9456 0.4682 0.5770
loop_
_geom_bond_atom_site_label_1
_geom_bond_atom_site_label_2
_geom_bond_site_symmetry_1
_geom_bond_site_symmetry_2
C1 C2 1_555 1_555
C2 C3 1_555 1_555
C3 C4 1_555 1_555
C4 C5 1_555 1_555
C5 C1 1_555 1_555
C6 C5 1_555 1_555
C7 C6 1_555 1_555
C8 C7 1_555 1_555
C9 C8 1_555 1_555
C10 C6 1_555 1_555
C11 C6 1_555 1_555
C12 C11 1_555 1_555
C13 C12 1_555 1_555
C14 C13 1_555 1_555
C15 C11 1_555 1_555
C16 C11 1_555 1_555
C17 C16 1_555 1_555
C18 C17 1_555 1_555
C19 C18 1_555 1_555
C20 C5 1_555 1_555
O1 C1 1_555 1_555
O2 C20 1_555 1_555
H1 O2 1_555 1_555
H2 C2 1_555 1_555
H3 C2 1_555 1_555
H4 C3 1_555 1_555
H5 C3 1_555 1_555
H6 C4 1_555 1_555
H7 C4 1_555 1_555
H8 C7 1_555 1_555
H9 C7 1_555 1_555
H10 C8 1_555 1_555
H11 C8 1_555 1_555
H12 C9 1_555 1_555
H13 C9 1_555 1_555
H14 C10 1_555 1_555
H15 C10 1_555 1_555
H16 C12 1_555 1_555
H17 C12 1_555 1_555
H18 C13 1_555 1_555
H19 C13 1_555 1_555
H20 C14 1_555 1_555
H21 C14 1_555 1_555
H22 C15 1_555 1_555
H23 C15 1_555 1_555
H24 C16 1_555 1_555
H25 C17 1_555 1_555
H26 C17 1_555 1_555
H27 C18 1_555 1_555
H28 C18 1_555 1_555
H29 C19 1_555 1_555
H30 C19 1_555 1_555
C9 C10 1_555 1_555
C14 C15 1_555 1_555
C16 C20 1_555 1_555
C19 C20 1_555 1_555

#END
