
#######################################################################
#
#                 Cambridge Crystallographic Data Centre
#                                CCDC 
#
#######################################################################
#
# If this CIF has been generated from an entry in the Cambridge 
# Structural Database, then it will include bibliographic, chemical, 
# crystal, experimental, refinement or atomic coordinate data resulting 
# from the CCDC's data processing and validation procedures.
#
#######################################################################

data_FASFEK
_chemical_formula_moiety         'C46 H48 N2 O8 S2,C2 H6 O1'
_chemical_name_systematic        
'(aR)-O-Demethylmurrayafoline bis (+)-camphorsulfonate ethanol solvate'
_symmetry_cell_setting           orthorhombic
_symmetry_space_group_name_H-M   'P 21 21 21'
_symmetry_Int_Tables_number      19
_space_group_name_Hall           'P 2ac 2ab'
loop_
_symmetry_equiv_pos_site_id
_symmetry_equiv_pos_as_xyz
1 x,y,z
2 1/2-x,-y,1/2+z
3 1/2+x,1/2-y,-z
4 -x,1/2+y,1/2-z
_cell_length_a                   16.767(3)
_cell_length_b                   23.657(8)
_cell_length_c                   11.572(2)
_cell_angle_alpha                90
_cell_angle_beta                 90
_cell_angle_gamma                90
_cell_volume                     4590.11
_exptl_crystal_colour            colorless
_exptl_crystal_description       prismatic
_chemical_melting_point          177-179deg.C
_cell_formula_units_Z            4
loop_
_atom_site_label
_atom_site_type_symbol
_atom_site_fract_x
_atom_site_fract_y
_atom_site_fract_z
S1 S -0.5331(1) -0.01307(8) -0.1748(2)
S2 S -0.4966(1) -0.00515(9) 0.3103(2)
O1 O -0.5513(3) 0.0066(2) -0.0446(4)
O2 O -0.6067(3) -0.0269(2) -0.2262(5)
O3 O -0.4833(4) 0.0278(2) -0.2286(5)
O4 O -0.4835(2) -0.0239(2) 0.1784(4)
O5 O -0.5296(4) -0.0541(2) 0.3654(5)
O6 O -0.4261(3) 0.0197(3) 0.3527(5)
O7 O -0.5836(6) -0.1654(5) -0.161(1)
O8 O -0.7091(3) -0.0162(3) 0.3690(7)
N1 N -0.6744(4) 0.0943(2) -0.0586(6)
N2 N -0.3539(3) -0.1080(2) 0.1803(5)
C1 C -0.4656(4) 0.0765(3) 0.0459(6)
C2 C -0.4574(4) 0.1313(3) 0.0943(7)
C3 C -0.5182(5) 0.1703(3) 0.0851(6)
C4 C -0.5895(5) 0.1557(3) 0.0303(6)
C5 C -0.5984(5) 0.1008(3) -0.0158(6)
C6 C -0.5366(5) 0.0625(3) -0.0082(6)
C7 C -0.6661(5) 0.1833(3) 0.0153(6)
C8 C -0.6959(5) 0.2364(3) 0.0497(7)
C9 C -0.7745(7) 0.2476(4) 0.0269(8)
C10 C -0.8256(6) 0.2079(4) -0.0265(9)
C11 C -0.7965(5) 0.1552(4) -0.0600(8)
C12 C -0.7158(5) 0.1444(4) -0.0374(7)
C13 C -0.3835(5) 0.1456(3) 0.1645(8)
C14 C -0.4006(4) 0.0335(3) 0.0524(6)
C15 C -0.3301(4) 0.0393(3) -0.0131(7)
C16 C -0.2717(4) -0.0018(4) -0.0071(7)
C17 C -0.2815(4) -0.0491(3) 0.0618(6)
C18 C -0.3535(4) -0.0561(3) 0.1255(6)
C19 C -0.4103(4) -0.0137(3) 0.1214(6)
C20 C -0.2365(4) -0.1013(3) 0.0785(7)
C21 C -0.1629(5) -0.1198(4) 0.0396(9)
C22 C -0.1396(5) -0.1735(4) 0.070(1)
C23 C -0.1869(5) -0.2089(4) 0.1392(9)
C24 C -0.2587(5) -0.1901(3) 0.1795(8)
C25 C -0.2832(4) -0.1360(3) 0.1504(6)
C26 C -0.3199(5) 0.0875(4) -0.0985(8)
C27 C -0.4789(5) -0.0743(3) -0.1417(7)
C28 C -0.4698(5) -0.1176(3) -0.2367(7)
C29 C -0.4812(8) -0.0997(5) -0.3644(8)
C30 C -0.437(1) -0.1467(7) -0.431(1)
C31 C -0.4179(10) -0.1917(8) -0.338(1)
C32 C -0.495(1) -0.2116(6) -0.295(1)
C33 C -0.5254(8) -0.1664(6) -0.226(1)
C34 C -0.3905(7) -0.1487(6) -0.240(1)
C35 C -0.3210(9) -0.115(1) -0.263(2)
C36 C -0.3773(9) -0.1828(7) -0.125(1)
C37 C -0.5739(4) 0.0457(3) 0.2917(6)
C38 C -0.6176(4) 0.0615(3) 0.4019(7)
C39 C -0.5740(6) 0.0610(4) 0.5186(8)
C40 C -0.6257(7) 0.0981(5) 0.5992(9)
C41 C -0.6973(6) 0.1131(4) 0.5234(8)
C42 C -0.7449(6) 0.0583(4) 0.5040(9)
C43 C -0.6929(5) 0.0267(4) 0.4195(8)
C44 C -0.6571(5) 0.1222(4) 0.4031(8)
C45 C -0.7175(6) 0.1314(4) 0.3029(9)
C46 C -0.6000(7) 0.1712(4) 0.399(1)
H1 H -0.5116 0.2072 0.1163
H2 H -0.6552 0.2662 0.0912
H3 H -0.7951 0.2878 0.0604
H4 H -0.8800 0.2171 -0.0393
H5 H -0.8401 0.1269 -0.1080
H6 H -0.6950 0.0616 -0.0957
H7 H -0.3371 0.1344 0.1234
H8 H -0.3854 0.1262 0.2365
H9 H -0.3817 0.1852 0.1782
H10 H -0.2241 0.0026 -0.0509
H11 H -0.1164 -0.0982 -0.0220
H12 H -0.0892 -0.1868 0.0451
H13 H -0.1689 -0.2460 0.1578
H14 H -0.2912 -0.2136 0.2260
H15 H -0.4045 -0.1273 0.2332
H16 H -0.2670 0.1017 -0.0947
H17 H -0.3564 0.1170 -0.0805
H18 H -0.3302 0.0742 -0.1748
H19 H -0.5156 -0.0949 -0.0767
H20 H -0.4296 -0.0549 -0.0920
H21 H -0.4571 -0.0640 -0.3788
H22 H -0.5359 -0.0983 -0.3842
H23 H -0.3912 -0.1326 -0.4667
H24 H -0.4722 -0.1626 -0.4878
H25 H -0.3529 -0.1962 -0.3616
H26 H -0.4870 -0.2446 -0.2511
H27 H -0.5285 -0.2191 -0.3589
H28 H -0.3356 -0.0772 -0.2697
H29 H -0.2847 -0.1200 -0.1998
H30 H -0.2969 -0.1285 -0.3315
H31 H -0.3645 -0.1575 -0.0639
H32 H -0.4243 -0.2031 -0.1060
H33 H -0.3344 -0.2088 -0.1351
H34 H -0.5285 0.0810 0.2696
H35 H -0.6194 0.0311 0.2191
H36 H -0.5222 0.0768 0.5108
H37 H -0.5702 0.0237 0.5477
H38 H -0.6419 0.0774 0.6658
H39 H -0.5977 0.1310 0.6227
H40 H -0.7331 0.1520 0.5551
H41 H -0.7545 0.0283 0.5807
H42 H -0.7957 0.0715 0.4472
H43 H -0.7482 0.0964 0.3032
H44 H -0.6853 0.1231 0.2255
H45 H -0.7540 0.1686 0.3065
H46 H -0.6284 0.2055 0.4111
H47 H -0.5611 0.1670 0.4591
H48 H -0.5738 0.1723 0.3268
O9 O -0.4978(4) -0.1655(3) -0.7289(6)
C47 C -0.537(1) -0.189(1) -0.839(2)
C48 C -0.594(2) -0.174(1) -0.853(3)
H49 H -0.5344 -0.2280 -0.8328
H50 H -0.5032 -0.1759 -0.9005
H51 H -0.6107 -0.1925 -0.9219
H52 H -0.5941 -0.1355 -0.8600
H53 H -0.6253 -0.1869 -0.7900
H54 H -0.4735 -0.1511 -0.6591
loop_
_geom_bond_atom_site_label_1
_geom_bond_atom_site_label_2
_geom_bond_site_symmetry_1
_geom_bond_site_symmetry_2
S1 O1 1_555 1_555
S2 O4 1_555 1_555
O1 C6 1_555 1_555
O2 S1 1_555 1_555
O3 S1 1_555 1_555
O4 C19 1_555 1_555
O5 S2 1_555 1_555
O6 S2 1_555 1_555
O7 C33 1_555 1_555
O8 C43 1_555 1_555
O9 C47 1_555 1_555
N1 C5 1_555 1_555
N2 C18 1_555 1_555
C1 C2 1_555 1_555
C2 C3 1_555 1_555
C3 C4 1_555 1_555
C4 C5 1_555 1_555
C5 C6 1_555 1_555
C6 C1 1_555 1_555
C7 C4 1_555 1_555
C8 C7 1_555 1_555
C9 C8 1_555 1_555
C10 C9 1_555 1_555
C11 C10 1_555 1_555
C12 N1 1_555 1_555
C13 C2 1_555 1_555
C14 C1 1_555 1_555
C15 C14 1_555 1_555
C16 C15 1_555 1_555
C17 C16 1_555 1_555
C18 C17 1_555 1_555
C19 C14 1_555 1_555
C20 C17 1_555 1_555
C21 C20 1_555 1_555
C22 C21 1_555 1_555
C23 C22 1_555 1_555
C24 C23 1_555 1_555
C25 N2 1_555 1_555
C26 C15 1_555 1_555
C27 S1 1_555 1_555
C28 C27 1_555 1_555
C29 C28 1_555 1_555
C30 C29 1_555 1_555
C31 C30 1_555 1_555
C32 C31 1_555 1_555
C33 C28 1_555 1_555
C34 C28 1_555 1_555
C35 C34 1_555 1_555
C36 C34 1_555 1_555
C37 S2 1_555 1_555
C38 C37 1_555 1_555
C39 C38 1_555 1_555
C40 C39 1_555 1_555
C41 C40 1_555 1_555
C42 C41 1_555 1_555
C43 C38 1_555 1_555
C44 C38 1_555 1_555
C45 C44 1_555 1_555
C46 C44 1_555 1_555
C47 C48 1_555 1_555
C48 H51 1_555 1_555
H1 C3 1_555 1_555
H2 C8 1_555 1_555
H3 C9 1_555 1_555
H4 C10 1_555 1_555
H5 C11 1_555 1_555
H6 N1 1_555 1_555
H7 C13 1_555 1_555
H8 C13 1_555 1_555
H9 C13 1_555 1_555
H10 C16 1_555 1_555
H11 C21 1_555 1_555
H12 C22 1_555 1_555
H13 C23 1_555 1_555
H14 C24 1_555 1_555
H15 N2 1_555 1_555
H16 C26 1_555 1_555
H17 C26 1_555 1_555
H18 C26 1_555 1_555
H19 C27 1_555 1_555
H20 C27 1_555 1_555
H21 C29 1_555 1_555
H22 C29 1_555 1_555
H23 C30 1_555 1_555
H24 C30 1_555 1_555
H25 C31 1_555 1_555
H26 C32 1_555 1_555
H27 C32 1_555 1_555
H28 C35 1_555 1_555
H29 C35 1_555 1_555
H30 C35 1_555 1_555
H31 C36 1_555 1_555
H32 C36 1_555 1_555
H33 C36 1_555 1_555
H34 C37 1_555 1_555
H35 C37 1_555 1_555
H36 C39 1_555 1_555
H37 C39 1_555 1_555
H38 C40 1_555 1_555
H39 C40 1_555 1_555
H40 C41 1_555 1_555
H41 C42 1_555 1_555
H42 C42 1_555 1_555
H43 C45 1_555 1_555
H44 C45 1_555 1_555
H45 C45 1_555 1_555
H46 C46 1_555 1_555
H47 C46 1_555 1_555
H48 C46 1_555 1_555
H49 C47 1_555 1_555
H50 C47 1_555 1_555
H52 C48 1_555 1_555
H53 C48 1_555 1_555
H54 O9 1_555 1_555
C7 C12 1_555 1_555
C11 C12 1_555 1_555
C18 C19 1_555 1_555
C20 C25 1_555 1_555
C24 C25 1_555 1_555
C31 C34 1_555 1_555
C32 C33 1_555 1_555
C41 C44 1_555 1_555
C42 C43 1_555 1_555

#END
