
#######################################################################
#
#                 Cambridge Crystallographic Data Centre
#                                CCDC 
#
#######################################################################
#
# If this CIF has been generated from an entry in the Cambridge 
# Structural Database, then it will include bibliographic, chemical, 
# crystal, experimental, refinement or atomic coordinate data resulting 
# from the CCDC's data processing and validation procedures.
#
#######################################################################

data_FASJEQ
_chemical_name_common            
'2-(1H-Imidazol-3-ium-1-yl)-1-phenylethanone 5-nitrosalicylate'
_chemical_formula_moiety         'C11 H11 N2 O1 1+,C7 H4 N1 O5 1-'
_chemical_name_systematic        
'1-(2-Oxo-2-phenylethyl)-1H-imidazol-3-ium 2-hydroxy-5-nitrobenzoate'
_symmetry_cell_setting           orthorhombic
_symmetry_space_group_name_H-M   'P 21 21 21'
_symmetry_Int_Tables_number      19
_space_group_name_Hall           'P 2ac 2ab'
loop_
_symmetry_equiv_pos_site_id
_symmetry_equiv_pos_as_xyz
1 x,y,z
2 1/2-x,-y,1/2+z
3 -x,1/2+y,1/2-z
4 1/2+x,1/2-y,-z
_cell_length_a                   5.3029(5)
_cell_length_b                   15.9360(14)
_cell_length_c                   20.2249(19)
_cell_angle_alpha                90
_cell_angle_beta                 90
_cell_angle_gamma                90
_cell_volume                     1709.15
_exptl_crystal_colour            colorless
_exptl_crystal_description       block
_chemical_melting_point          '186-188 deg.C'
_cell_formula_units_Z            4
loop_
_atom_site_label
_atom_site_type_symbol
_atom_site_fract_x
_atom_site_fract_y
_atom_site_fract_z
N1 N 0.0291(5) 0.37682(13) 0.12518(11)
N2 N 0.0695(5) 0.25207(14) 0.08701(13)
H1 H 0.1230 0.2099 0.0645
O1 O 0.3800(5) 0.42368(11) 0.21386(10)
C1 C 0.1581(7) 0.32982(17) 0.08285(15)
H3 H 0.2873 0.3481 0.0553
C2 C -0.1187(7) 0.24954(19) 0.13241(17)
H4 H -0.2127 0.2026 0.1442
C3 C -0.1443(6) 0.32733(17) 0.15727(16)
H5 H -0.2573 0.3443 0.1898
C4 C 0.0707(6) 0.46600(14) 0.13665(15)
H6 H -0.0838 0.4909 0.1531
H7 H 0.1115 0.4929 0.0950
C5 C 0.2809(6) 0.48247(16) 0.18551(13)
C6 C 0.3604(6) 0.57060(16) 0.19593(13)
C7 C 0.2438(6) 0.63730(16) 0.16519(15)
H8 H 0.1065 0.6281 0.1375
C8 C 0.3321(8) 0.71878(19) 0.17565(17)
H9 H 0.2545 0.7639 0.1547
C9 C 0.5332(8) 0.7321(2) 0.21677(19)
H10 H 0.5912 0.7864 0.2239
C10 C 0.6499(8) 0.6660(2) 0.24755(18)
H11 H 0.7882 0.6756 0.2748
C11 C 0.5630(7) 0.58562(19) 0.23823(15)
H12 H 0.6396 0.5411 0.2602
N3 N 0.0950(6) 0.47105(19) 0.35243(13)
O2 O 0.9598(5) 0.51775(12) 0.54565(12)
O3 O 0.7952(5) 0.61894(12) 0.48319(11)
O4 O 0.7900(4) 0.37117(12) 0.54266(11)
H2 H 0.8801 0.4105 0.5539
O5 O -0.0407(6) 0.41705(16) 0.32811(12)
O6 O 0.0802(6) 0.54584(15) 0.33809(12)
C12 C 0.8094(6) 0.54488(18) 0.50173(15)
C13 C 0.6262(6) 0.48105(15) 0.47362(13)
C14 C 0.6282(6) 0.39700(16) 0.49567(14)
C15 C 0.4585(7) 0.33976(16) 0.46992(16)
H13 H 0.4614 0.2846 0.4848
C16 C 0.2862(6) 0.36300(17) 0.42285(15)
H14 H 0.1734 0.3241 0.4055
C17 C 0.2836(6) 0.44567(16) 0.40163(14)
C18 C 0.4502(6) 0.50400(17) 0.42612(14)
H15 H 0.4450 0.5590 0.4108
loop_
_geom_bond_atom_site_label_1
_geom_bond_atom_site_label_2
_geom_bond_site_symmetry_1
_geom_bond_site_symmetry_2
N1 C1 1_555 1_555
N2 H1 1_555 1_555
N3 O5 1_555 1_555
O1 C5 1_555 1_555
O2 C12 1_555 1_555
O3 C12 1_555 1_555
O4 H2 1_555 1_555
O6 N3 1_555 1_555
C1 N2 1_555 1_555
H3 C1 1_555 1_555
C2 N2 1_555 1_555
H4 C2 1_555 1_555
C3 N1 1_555 1_555
H5 C3 1_555 1_555
C4 N1 1_555 1_555
H6 C4 1_555 1_555
H7 C4 1_555 1_555
C5 C4 1_555 1_555
C6 C5 1_555 1_555
C7 C6 1_555 1_555
H8 C7 1_555 1_555
C8 C7 1_555 1_555
H9 C8 1_555 1_555
C9 C8 1_555 1_555
H10 C9 1_555 1_555
C10 C9 1_555 1_555
H11 C10 1_555 1_555
C11 C6 1_555 1_555
H12 C11 1_555 1_555
C12 C13 1_555 1_555
C13 C14 1_555 1_555
C14 O4 1_555 1_555
C15 C14 1_555 1_555
H13 C15 1_555 1_555
C16 C15 1_555 1_555
H14 C16 1_555 1_555
C17 N3 1_555 1_555
C18 C13 1_555 1_555
H15 C18 1_555 1_555
C2 C3 1_555 1_555
C10 C11 1_555 1_555
C16 C17 1_555 1_555
C17 C18 1_555 1_555

#END
