
#######################################################################
#
#                 Cambridge Crystallographic Data Centre
#                                CCDC 
#
#######################################################################
#
# If this CIF has been generated from an entry in the Cambridge 
# Structural Database, then it will include bibliographic, chemical, 
# crystal, experimental, refinement or atomic coordinate data resulting 
# from the CCDC's data processing and validation procedures.
#
#######################################################################

data_FASMIX
_chemical_name_common            
'1,3-Dimethyl-2-(4-chlorostyryl)benzimidazol-3-ium iodide'
_chemical_formula_moiety         'C17 H16 Cl1 N2 1+,I1 1-'
_chemical_name_systematic        
'2-(2-(4-Chlorophenyl)vinyl)-1,3-dimethyl-1H-1,3-benzimidazol-3-ium iodide'
_symmetry_cell_setting           monoclinic
_symmetry_space_group_name_H-M   'P 21/c'
_symmetry_Int_Tables_number      14
_space_group_name_Hall           '-P 2ybc'
loop_
_symmetry_equiv_pos_site_id
_symmetry_equiv_pos_as_xyz
1 x,y,z
2 -x,1/2+y,1/2-z
3 -x,-y,-z
4 x,1/2-y,1/2+z
_cell_length_a                   12.507(3)
_cell_length_b                   7.3259(19)
_cell_length_c                   36.705(9)
_cell_angle_alpha                90
_cell_angle_beta                 92.857(4)
_cell_angle_gamma                90
_cell_volume                     3358.92
_exptl_crystal_colour            yellow
_chemical_melting_point          '290-291 deg.C'
_cell_formula_units_Z            8
loop_
_atom_site_label
_atom_site_type_symbol
_atom_site_fract_x
_atom_site_fract_y
_atom_site_fract_z
I1 I 0.68402(2) 0.67605(5) 0.069835(8)
I2 I 0.29840(2) 0.63563(5) 0.168497(8)
Cl1 Cl 0.12058(11) 0.1255(2) 0.10278(4)
N1 N 0.7041(3) 0.3140(5) -0.03571(10)
N2 N 0.7817(3) 0.2259(5) 0.01627(9)
C1 C 0.2456(4) 0.1319(6) 0.08449(14)
C2 C 0.2533(4) 0.1785(7) 0.04834(13)
H1 H 0.1918 0.2028 0.0338
C3 C 0.3532(4) 0.1889(6) 0.03372(11)
H2 H 0.3590 0.2219 0.0094
C4 C 0.4434(3) 0.1507(6) 0.05495(12)
C5 C 0.4337(4) 0.1003(7) 0.09057(13)
H3 H 0.4945 0.0706 0.1049
C6 C 0.3355(4) 0.0932(7) 0.10523(13)
H4 H 0.3302 0.0616 0.1296
C7 C 0.5520(4) 0.1645(7) 0.04093(13)
H5 H 0.6069 0.1120 0.0554
C8 C 0.5796(4) 0.2398(7) 0.01146(13)
H6 H 0.5245 0.2884 -0.0034
C9 C 0.6865(3) 0.2585(6) -0.00155(13)
C10 C 0.8139(4) 0.3174(6) -0.04013(13)
C11 C 0.8720(4) 0.3642(7) -0.06965(13)
H7 H 0.8393 0.4025 -0.0916
C12 C 0.9813(4) 0.3508(7) -0.06455(15)
H8 H 1.0237 0.3801 -0.0838
C13 C 1.0305(4) 0.2957(8) -0.03194(16)
H9 H 1.1048 0.2907 -0.0297
C14 C 0.9727(4) 0.2482(7) -0.00292(14)
H10 H 1.0057 0.2095 0.0190
C15 C 0.8625(4) 0.2605(6) -0.00765(13)
C16 C 0.8038(3) 0.1799(7) 0.05490(12)
H11 H 0.7611 0.2558 0.0698
H12 H 0.8782 0.1997 0.0613
H13 H 0.7864 0.0540 0.0589
C17 C 0.6234(3) 0.3608(6) -0.06447(12)
H14 H 0.5715 0.2644 -0.0669
H15 H 0.6574 0.3762 -0.0871
H16 H 0.5884 0.4723 -0.0582
Cl2 Cl 0.90114(11) 0.2755(2) 0.15581(4)
N3 N 0.2484(3) 0.1939(5) 0.24678(10)
N4 N 0.3172(3) 0.2640(5) 0.30081(10)
C18 C 0.7763(4) 0.2779(7) 0.17458(13)
C19 C 0.6874(4) 0.3376(6) 0.15474(13)
H17 H 0.6929 0.3783 0.1309
C20 C 0.5904(4) 0.3366(6) 0.17038(12)
H18 H 0.5301 0.3777 0.1570
C21 C 0.5800(4) 0.2758(6) 0.20561(12)
C22 C 0.6710(4) 0.2187(6) 0.22543(11)
H19 H 0.6657 0.1806 0.2494
C23 C 0.7688(4) 0.2176(7) 0.21019(12)
H20 H 0.8293 0.1768 0.2235
C24 C 0.4738(4) 0.2753(6) 0.22031(12)
H21 H 0.4177 0.3130 0.2045
C25 C 0.4482(3) 0.2273(6) 0.25355(12)
H22 H 0.5029 0.1899 0.2699
C26 C 0.3409(4) 0.2294(6) 0.26590(13)
C27 C 0.2074(4) 0.2536(6) 0.30403(13)
C28 C 0.1441(4) 0.2810(7) 0.33340(13)
H23 H 0.1730 0.3127 0.3564
C29 C 0.0362(4) 0.2587(8) 0.32654(15)
H24 H -0.0090 0.2749 0.3456
C30 C -0.0084(4) 0.2134(8) 0.29269(17)
H25 H -0.0822 0.1986 0.2897
C31 C 0.0538(4) 0.1895(7) 0.26329(15)
H26 H 0.0240 0.1599 0.2403
C32 C 0.1625(4) 0.2115(6) 0.26947(13)
C33 C 0.2357(4) 0.1302(7) 0.20876(12)
H27 H 0.2300 0.2335 0.1927
H28 H 0.1720 0.0574 0.2058
H29 H 0.2967 0.0581 0.2030
C34 C 0.3944(3) 0.3177(6) 0.33047(11)
H30 H 0.4658 0.3057 0.3224
H31 H 0.3858 0.2401 0.3512
H32 H 0.3817 0.4422 0.3372
loop_
_geom_bond_atom_site_label_1
_geom_bond_atom_site_label_2
_geom_bond_site_symmetry_1
_geom_bond_site_symmetry_2
Cl1 C1 1_555 1_555
Cl2 C18 1_555 1_555
N1 C9 1_555 1_555
N2 C9 1_555 1_555
N3 C26 1_555 1_555
N4 C26 1_555 1_555
C1 C2 1_555 1_555
C2 H1 1_555 1_555
C3 C2 1_555 1_555
H2 C3 1_555 1_555
C4 C3 1_555 1_555
C5 C4 1_555 1_555
H3 C5 1_555 1_555
C6 C1 1_555 1_555
H4 C6 1_555 1_555
C7 C4 1_555 1_555
H5 C7 1_555 1_555
C8 C7 1_555 1_555
H6 C8 1_555 1_555
C9 C8 1_555 1_555
C10 N1 1_555 1_555
C11 C10 1_555 1_555
H7 C11 1_555 1_555
C12 C11 1_555 1_555
H8 C12 1_555 1_555
C13 C12 1_555 1_555
H9 C13 1_555 1_555
C14 C13 1_555 1_555
H10 C14 1_555 1_555
C15 N2 1_555 1_555
C16 N2 1_555 1_555
H11 C16 1_555 1_555
H12 C16 1_555 1_555
H13 C16 1_555 1_555
C17 N1 1_555 1_555
H14 C17 1_555 1_555
H15 C17 1_555 1_555
H16 C17 1_555 1_555
C18 C19 1_555 1_555
C19 H17 1_555 1_555
C20 C19 1_555 1_555
H18 C20 1_555 1_555
C21 C20 1_555 1_555
C22 C21 1_555 1_555
H19 C22 1_555 1_555
C23 C18 1_555 1_555
H20 C23 1_555 1_555
C24 C21 1_555 1_555
H21 C24 1_555 1_555
C25 C24 1_555 1_555
H22 C25 1_555 1_555
C26 C25 1_555 1_555
C27 N4 1_555 1_555
C28 C27 1_555 1_555
H23 C28 1_555 1_555
C29 C28 1_555 1_555
H24 C29 1_555 1_555
C30 C29 1_555 1_555
H25 C30 1_555 1_555
C31 C30 1_555 1_555
H26 C31 1_555 1_555
C32 N3 1_555 1_555
C33 N3 1_555 1_555
H27 C33 1_555 1_555
H28 C33 1_555 1_555
H29 C33 1_555 1_555
C34 N4 1_555 1_555
H30 C34 1_555 1_555
H31 C34 1_555 1_555
H32 C34 1_555 1_555
C5 C6 1_555 1_555
C10 C15 1_555 1_555
C14 C15 1_555 1_555
C22 C23 1_555 1_555
C27 C32 1_555 1_555
C31 C32 1_555 1_555

#END
