
#######################################################################
#
#                 Cambridge Crystallographic Data Centre
#                                CCDC 
#
#######################################################################
#
# If this CIF has been generated from an entry in the Cambridge 
# Structural Database, then it will include bibliographic, chemical, 
# crystal, experimental, refinement or atomic coordinate data resulting 
# from the CCDC's data processing and validation procedures.
#
#######################################################################

data_FASQEY
_chemical_formula_moiety         'C19 H16 Br1 N1 O4'
_chemical_name_systematic        
'benzyl 2-(5-bromo-3-hydroxy-1-methyl-2-oxo-2,3-dihydro-1H-indol-3-yl)acrylate'
_symmetry_cell_setting           orthorhombic
_symmetry_space_group_name_H-M   'P 21 21 21'
_symmetry_Int_Tables_number      19
_space_group_name_Hall           'P 2ac 2ab'
loop_
_symmetry_equiv_pos_site_id
_symmetry_equiv_pos_as_xyz
1 x,y,z
2 1/2-x,-y,1/2+z
3 -x,1/2+y,1/2-z
4 1/2+x,1/2-y,-z
_cell_length_a                   7.8115(7)
_cell_length_b                   11.8206(11)
_cell_length_c                   18.4780(17)
_cell_angle_alpha                90
_cell_angle_beta                 90
_cell_angle_gamma                90
_cell_volume                     1706.2
_exptl_crystal_colour            colorless
_exptl_crystal_description       prismatic
_cell_formula_units_Z            4
loop_
_atom_site_label
_atom_site_type_symbol
_atom_site_fract_x
_atom_site_fract_y
_atom_site_fract_z
Br1 Br 0.50253(6) 0.83389(3) 0.134482(19)
N1 N 0.2542(4) 0.8912(2) 0.44073(15)
O1 O 0.1305(4) 0.7595(2) 0.51580(13)
O2 O 0.3607(3) 0.62386(17) 0.41767(13)
H1 H 0.4499 0.6558 0.4292
O3 O -0.1942(4) 0.6652(2) 0.31638(18)
O4 O -0.0590(3) 0.81443(17) 0.36331(13)
C1 C 0.1980(4) 0.7870(3) 0.45889(17)
C2 C 0.2389(4) 0.7054(2) 0.39525(16)
C3 C 0.3083(4) 0.7862(2) 0.33966(17)
C4 C 0.3148(4) 0.8940(2) 0.36963(19)
C5 C 0.3703(4) 0.9862(3) 0.3284(2)
H2 H 0.3715 1.0589 0.3476
C6 C 0.4235(4) 0.9655(3) 0.25791(19)
H3 H 0.4617 1.0252 0.2294
C7 C 0.4204(4) 0.8590(3) 0.23024(18)
C8 C 0.3611(4) 0.7669(2) 0.26949(17)
H4 H 0.3571 0.6949 0.2493
C9 C 0.0804(4) 0.6413(2) 0.37047(16)
C10 C -0.0725(5) 0.7061(3) 0.34663(18)
C11 C 0.0772(5) 0.5297(3) 0.36712(19)
H5 H -0.0198 0.4928 0.3500
H6 H 0.1720 0.4880 0.3819
C12 C 0.2401(6) 0.9893(3) 0.4878(2)
H7 H 0.1540 1.0395 0.4693
H8 H 0.3481 1.0279 0.4895
H9 H 0.2089 0.9652 0.5356
C13 C -0.2006(5) 0.8872(3) 0.3425(2)
H10 H -0.3066 0.8596 0.3634
H11 H -0.2127 0.8884 0.2903
C14 C -0.1621(4) 1.0036(3) 0.37021(18)
C15 C -0.2334(5) 1.0397(3) 0.4347(2)
H12 H -0.3059 0.9919 0.4603
C16 C -0.1978(6) 1.1458(4) 0.4612(2)
H13 H -0.2466 1.1698 0.5045
C17 C -0.0898(6) 1.2165(4) 0.4235(3)
H14 H -0.0664 1.2886 0.4412
C18 C -0.0169(6) 1.1812(3) 0.3601(2)
H15 H 0.0573 1.2287 0.3351
C19 C -0.0536(5) 1.0755(3) 0.3335(2)
H16 H -0.0045 1.0521 0.2902
loop_
_geom_bond_atom_site_label_1
_geom_bond_atom_site_label_2
_geom_bond_site_symmetry_1
_geom_bond_site_symmetry_2
Br1 C7 1_555 1_555
N1 C1 1_555 1_555
O1 C1 1_555 1_555
O2 H1 1_555 1_555
O3 C10 1_555 1_555
O4 C10 1_555 1_555
C1 C2 1_555 1_555
C2 O2 1_555 1_555
C3 C2 1_555 1_555
C4 N1 1_555 1_555
C5 C4 1_555 1_555
H2 C5 1_555 1_555
C6 C5 1_555 1_555
H3 C6 1_555 1_555
C7 C6 1_555 1_555
C8 C3 1_555 1_555
H4 C8 1_555 1_555
C9 C2 1_555 1_555
C10 C9 1_555 1_555
C11 C9 1_555 1_555
H5 C11 1_555 1_555
H6 C11 1_555 1_555
C12 N1 1_555 1_555
H7 C12 1_555 1_555
H8 C12 1_555 1_555
H9 C12 1_555 1_555
C13 O4 1_555 1_555
H10 C13 1_555 1_555
H11 C13 1_555 1_555
C14 C13 1_555 1_555
C15 C14 1_555 1_555
H12 C15 1_555 1_555
C16 C15 1_555 1_555
H13 C16 1_555 1_555
C17 C16 1_555 1_555
H14 C17 1_555 1_555
C18 C17 1_555 1_555
H15 C18 1_555 1_555
C19 C14 1_555 1_555
H16 C19 1_555 1_555
C3 C4 1_555 1_555
C7 C8 1_555 1_555
C18 C19 1_555 1_555

#END
