
#######################################################################
#
#                 Cambridge Crystallographic Data Centre
#                                CCDC 
#
#######################################################################
#
# If this CIF has been generated from an entry in the Cambridge 
# Structural Database, then it will include bibliographic, chemical, 
# crystal, experimental, refinement or atomic coordinate data resulting 
# from the CCDC's data processing and validation procedures.
#
#######################################################################

data_FASWON
_chemical_formula_moiety         'C14 H13 N3 O4'
_chemical_name_systematic        N-Ethyl-2,4-dinitro-N-phenylaniline
_symmetry_cell_setting           monoclinic
_symmetry_space_group_name_H-M   'P 21/c'
_symmetry_Int_Tables_number      14
_space_group_name_Hall           '-P 2ybc'
loop_
_symmetry_equiv_pos_site_id
_symmetry_equiv_pos_as_xyz
1 x,y,z
2 -x,1/2+y,1/2-z
3 -x,-y,-z
4 x,1/2-y,1/2+z
_cell_length_a                   8.0781(11)
_cell_length_b                   16.109(2)
_cell_length_c                   10.6222(13)
_cell_angle_alpha                90
_cell_angle_beta                 102.001(2)
_cell_angle_gamma                90
_cell_volume                     1352.06
_exptl_crystal_colour            orange
_exptl_crystal_description       block
_cell_formula_units_Z            4
loop_
_atom_site_label
_atom_site_type_symbol
_atom_site_fract_x
_atom_site_fract_y
_atom_site_fract_z
C1 C 0.64752(16) 0.79229(8) 0.21168(13)
H1 H 0.6966 0.7673 0.2918
C2 C 0.51202(17) 0.75454(9) 0.12953(14)
H2 H 0.4679 0.7037 0.1538
C3 C 0.44120(17) 0.79053(10) 0.01282(14)
H3 H 0.3503 0.7638 -0.0438
C4 C 0.50256(18) 0.86539(10) -0.02168(13)
H4 H 0.4523 0.8904 -0.1015
C5 C 0.63663(17) 0.90415(9) 0.05907(12)
H5 H 0.6780 0.9558 0.0353
C6 C 0.71063(15) 0.86698(8) 0.17549(11)
C7 C 1.00708(16) 0.90602(8) 0.18994(12)
H6 H 1.0986 0.9387 0.2443
H7 H 0.9733 0.9350 0.1063
C8 C 1.07446(19) 0.82049(9) 0.16728(14)
H8 H 1.1087 0.7916 0.2498
H9 H 1.1723 0.8262 0.1268
H10 H 0.9858 0.7885 0.1107
C9 C 0.88421(15) 0.90360(7) 0.38460(11)
C10 C 0.75068(14) 0.91436(7) 0.45149(11)
C11 C 0.77396(15) 0.90828(7) 0.58363(12)
H11 H 0.6808 0.9130 0.6250
C12 C 0.93556(16) 0.89525(7) 0.65420(11)
C13 C 1.07355(16) 0.88969(7) 0.59519(12)
H12 H 1.1847 0.8836 0.6456
C14 C 1.04773(15) 0.89314(7) 0.46343(12)
H13 H 1.1424 0.8884 0.4237
N1 N 0.86044(13) 0.90275(6) 0.25310(9)
N2 N 0.58148(13) 0.94213(6) 0.38627(10)
N3 N 0.96189(14) 0.88904(7) 0.79349(10)
O1 O 0.57089(11) 0.99461(6) 0.30119(9)
O2 O 0.45909(11) 0.91482(6) 0.42512(9)
O3 O 0.83783(13) 0.89094(7) 0.84314(9)
O4 O 1.10765(13) 0.88296(8) 0.85532(10)
loop_
_geom_bond_atom_site_label_1
_geom_bond_atom_site_label_2
_geom_bond_site_symmetry_1
_geom_bond_site_symmetry_2
C1 H1 1_555 1_555
C2 C1 1_555 1_555
H2 C2 1_555 1_555
C3 C2 1_555 1_555
H3 C3 1_555 1_555
C4 C3 1_555 1_555
H4 C4 1_555 1_555
C5 C4 1_555 1_555
H5 C5 1_555 1_555
C6 C1 1_555 1_555
C7 H6 1_555 1_555
H7 C7 1_555 1_555
C8 C7 1_555 1_555
H8 C8 1_555 1_555
H9 C8 1_555 1_555
H10 C8 1_555 1_555
C9 C10 1_555 1_555
C10 C11 1_555 1_555
C11 H11 1_555 1_555
C12 C11 1_555 1_555
C13 C12 1_555 1_555
H12 C13 1_555 1_555
C14 C9 1_555 1_555
H13 C14 1_555 1_555
N1 C6 1_555 1_555
N2 C10 1_555 1_555
N3 C12 1_555 1_555
O1 N2 1_555 1_555
O2 N2 1_555 1_555
O3 N3 1_555 1_555
O4 N3 1_555 1_555
C5 C6 1_555 1_555
C7 N1 1_555 1_555
C9 N1 1_555 1_555
C13 C14 1_555 1_555

#END
