
#######################################################################
#
#                 Cambridge Crystallographic Data Centre
#                                CCDC 
#
#######################################################################
#
# If this CIF has been generated from an entry in the Cambridge 
# Structural Database, then it will include bibliographic, chemical, 
# crystal, experimental, refinement or atomic coordinate data resulting 
# from the CCDC's data processing and validation procedures.
#
#######################################################################

data_FASXOO
_chemical_formula_moiety         'C18 H20 N2 O4'
_chemical_name_systematic        
4,4'-(3,8-Dioxa-2,9-diazadeca-1,9-diene-1,10-diyl)diphenol
_symmetry_cell_setting           monoclinic
_symmetry_space_group_name_H-M   'P 21/c'
_symmetry_Int_Tables_number      14
_space_group_name_Hall           '-P 2ybc'
loop_
_symmetry_equiv_pos_site_id
_symmetry_equiv_pos_as_xyz
1 x,y,z
2 -x,1/2+y,1/2-z
3 -x,-y,-z
4 x,1/2-y,1/2+z
_cell_length_a                   20.195(2)
_cell_length_b                   5.1601(4)
_cell_length_c                   8.3019(7)
_cell_angle_alpha                90
_cell_angle_beta                 100.7750(10)
_cell_angle_gamma                90
_cell_volume                     849.873
_exptl_crystal_colour            colorless
_exptl_crystal_description       block
_chemical_melting_point          '424-425 K'
_cell_formula_units_Z            2
loop_
_atom_site_label
_atom_site_type_symbol
_atom_site_fract_x
_atom_site_fract_y
_atom_site_fract_z
N1 N 0.32482(9) 0.4202(4) 0.6189(2)
O1 O 0.39294(7) 0.4824(3) 0.6239(2)
O2 O 0.02892(7) 0.4708(3) 0.7838(2)
H1 H 0.0104 0.3474 0.7317
C1 C 0.41882(12) 0.3112(6) 0.5152(4)
H2 H 0.3952 0.3380 0.4035
H3 H 0.4124 0.1325 0.5453
C2 C 0.49322(13) 0.3679(5) 0.5282(4)
H4 H 0.5156 0.3477 0.6415
H5 H 0.5124 0.2419 0.4632
C3 C 0.29877(11) 0.5618(5) 0.7143(3)
H6 H 0.3249 0.6886 0.7756
C4 C 0.22865(10) 0.5307(4) 0.7305(3)
C5 C 0.18854(11) 0.3308(4) 0.6535(3)
H7 H 0.2069 0.2109 0.5906
C6 C 0.12217(10) 0.3082(4) 0.6689(3)
H8 H 0.0957 0.1749 0.6159
C7 C 0.09511(10) 0.4847(4) 0.7638(3)
C8 C 0.13377(10) 0.6824(4) 0.8409(3)
H9 H 0.1154 0.8010 0.9045
C9 C 0.20006(10) 0.7051(4) 0.8237(3)
H10 H 0.2261 0.8403 0.8759
N1B N 0.67518(9) 0.5798(4) 0.3811(2)
O1B O 0.60706(7) 0.5176(3) 0.3761(2)
O2B O 0.97108(7) 0.5292(3) 0.2162(2)
H1B H 0.9896 0.6526 0.2683
C1B C 0.58118(12) 0.6888(6) 0.4848(4)
H2B H 0.6048 0.6620 0.5965
H3B H 0.5876 0.8675 0.4547
C2B C 0.50678(13) 0.6321(5) 0.4718(4)
H4B H 0.4844 0.6523 0.3585
H5B H 0.4876 0.7581 0.5368
C3B C 0.70123(11) 0.4382(5) 0.2857(3)
H6B H 0.6751 0.3114 0.2244
C4B C 0.77135(10) 0.4693(4) 0.2695(3)
C5B C 0.81146(11) 0.6692(4) 0.3465(3)
H7B H 0.7931 0.7891 0.4094
C6B C 0.87783(10) 0.6918(4) 0.3311(3)
H8B H 0.9043 0.8251 0.3841
C7B C 0.90489(10) 0.5153(4) 0.2362(3)
C8B C 0.86623(10) 0.3176(4) 0.1591(3)
H9B H 0.8846 0.1990 0.0955
C9B C 0.79994(10) 0.2949(4) 0.1763(3)
H10B H 0.7739 0.1597 0.1241
loop_
_geom_bond_atom_site_label_1
_geom_bond_atom_site_label_2
_geom_bond_site_symmetry_1
_geom_bond_site_symmetry_2
N1 O1 1_555 1_555
O1 C1 1_555 1_555
O2 H1 1_555 1_555
C1 H2 1_555 1_555
H3 C1 1_555 1_555
C2 C1 1_555 1_555
H4 C2 1_555 1_555
H5 C2 1_555 1_555
C3 N1 1_555 1_555
H6 C3 1_555 1_555
C4 C3 1_555 1_555
C5 C4 1_555 1_555
H7 C5 1_555 1_555
C6 C5 1_555 1_555
H8 C6 1_555 1_555
C7 O2 1_555 1_555
C8 C7 1_555 1_555
H9 C8 1_555 1_555
C9 C4 1_555 1_555
H10 C9 1_555 1_555
N1B O1B 1_555 1_555
O1B C1B 1_555 1_555
O2B H1B 1_555 1_555
C1B H2B 1_555 1_555
H3B C1B 1_555 1_555
C2B C2 1_555 1_555
H4B C2B 1_555 1_555
H5B C2B 1_555 1_555
C3B N1B 1_555 1_555
H6B C3B 1_555 1_555
C4B C3B 1_555 1_555
C5B C4B 1_555 1_555
H7B C5B 1_555 1_555
C6B C5B 1_555 1_555
H8B C6B 1_555 1_555
C7B O2B 1_555 1_555
C8B C7B 1_555 1_555
H9B C8B 1_555 1_555
C9B C4B 1_555 1_555
H10B C9B 1_555 1_555
C6 C7 1_555 1_555
C8 C9 1_555 1_555
C1B C2B 1_555 1_555
C6B C7B 1_555 1_555
C8B C9B 1_555 1_555

#END
