
#######################################################################
#
#                 Cambridge Crystallographic Data Centre
#                                CCDC 
#
#######################################################################
#
# If this CIF has been generated from an entry in the Cambridge 
# Structural Database, then it will include bibliographic, chemical, 
# crystal, experimental, refinement or atomic coordinate data resulting 
# from the CCDC's data processing and validation procedures.
#
#######################################################################

data_FASXEE
_chemical_name_common            
"bis(3-ethoxy-4-hydroxybenzaldehyde) O,O'-(butane-1,4-diyl)dioxime"
_chemical_formula_moiety         'C22 H28 N2 O6'
_chemical_name_systematic        
4,4'-(3,8-Dioxa-2,9-diazadeca-1,9-diene-1,10-diyl)bis(2-ethoxyphenol)
_symmetry_cell_setting           monoclinic
_symmetry_space_group_name_H-M   'P 21/c'
_symmetry_Int_Tables_number      14
_space_group_name_Hall           '-P 2ybc'
loop_
_symmetry_equiv_pos_site_id
_symmetry_equiv_pos_as_xyz
1 x,y,z
2 -x,1/2+y,1/2-z
3 -x,-y,-z
4 x,1/2-y,1/2+z
_cell_length_a                   5.2239(4)
_cell_length_b                   14.5728(13)
_cell_length_c                   29.272(2)
_cell_angle_alpha                90
_cell_angle_beta                 92.7140(10)
_cell_angle_gamma                90
_cell_volume                     2225.89
_exptl_crystal_colour            colorless
_exptl_crystal_description       needle
_cell_formula_units_Z            4
loop_
_atom_site_label
_atom_site_type_symbol
_atom_site_fract_x
_atom_site_fract_y
_atom_site_fract_z
N1 N 0.6348(5) 0.67444(17) 0.31608(8)
N2 N 0.5461(6) 0.26290(17) 0.40338(9)
O1 O 0.6628(5) 0.58074(14) 0.30424(7)
O2 O 0.5904(5) 0.24701(13) 0.35650(7)
O3 O 0.5376(4) 1.01894(14) 0.36340(7)
O4 O 0.8717(4) 1.10700(14) 0.31223(7)
H1 H 0.7643 1.1262 0.3294
O5 O 0.4062(4) 0.37514(14) 0.56934(6)
O6 O 0.7532(4) 0.27652(14) 0.61981(6)
H2 H 0.6408 0.3116 0.6278
C1 C 0.4458(6) 0.5300(2) 0.31923(10)
H3 H 0.2908 0.5496 0.3024
H4 H 0.4245 0.5405 0.3516
C2 C 0.4950(6) 0.43000(19) 0.31058(10)
H5 H 0.6629 0.4137 0.3236
H6 H 0.4948 0.4193 0.2779
C3 C 0.2930(6) 0.3691(2) 0.33127(10)
H7 H 0.2738 0.3872 0.3628
H8 H 0.1298 0.3790 0.3148
C4 C 0.3583(7) 0.2685(2) 0.32982(11)
H9 H 0.2176 0.2333 0.3414
H10 H 0.3787 0.2503 0.2983
C5 C 0.8118(7) 0.7225(2) 0.29885(10)
H11 H 0.9334 0.6929 0.2819
C6 C 0.8305(6) 0.8222(2) 0.30471(9)
C7 C 0.6664(6) 0.8706(2) 0.33263(10)
H12 H 0.5460 0.8389 0.3489
C8 C 0.6823(6) 0.9643(2) 0.33601(9)
C9 C 0.8599(6) 1.0131(2) 0.31046(10)
C10 C 1.0242(6) 0.9656(2) 0.28387(10)
H13 H 1.1446 0.9973 0.2676
C11 C 1.0118(6) 0.8708(2) 0.28119(9)
H14 H 1.1259 0.8392 0.2635
C12 C 0.3852(7) 0.9722(2) 0.39587(12)
H15 H 0.4926 0.9308 0.4143
H16 H 0.2531 0.9363 0.3798
C13 C 0.2690(11) 1.0385(3) 0.42495(17)
H17 H 0.3996 1.0680 0.4439
H18 H 0.1503 1.0081 0.4439
H19 H 0.1796 1.0837 0.4064
C14 C 0.7437(8) 0.2427(2) 0.42834(11)
H20 H 0.8887 0.2203 0.4148
C15 C 0.7463(7) 0.2542(2) 0.47828(10)
C16 C 0.5645(6) 0.3106(2) 0.49856(10)
H21 H 0.4433 0.3419 0.4802
C17 C 0.5653(6) 0.3199(2) 0.54573(10)
C18 C 0.7459(6) 0.2710(2) 0.57321(10)
C19 C 0.9259(6) 0.2170(2) 0.55325(10)
H22 H 1.0475 0.1857 0.5715
C20 C 0.9265(7) 0.2092(2) 0.50585(11)
H23 H 1.0500 0.1731 0.4927
C21 C 0.2282(6) 0.4321(2) 0.54398(10)
H24 H 0.1069 0.3946 0.5262
H25 H 0.3181 0.4711 0.5232
C22 C 0.0889(7) 0.4902(2) 0.57775(11)
H26 H 0.0123 0.4511 0.5997
H27 H -0.0423 0.5254 0.5617
H28 H 0.2083 0.5310 0.5933
loop_
_geom_bond_atom_site_label_1
_geom_bond_atom_site_label_2
_geom_bond_site_symmetry_1
_geom_bond_site_symmetry_2
N1 O1 1_555 1_555
N2 O2 1_555 1_555
O1 C1 1_555 1_555
O2 C4 1_555 1_555
O3 C8 1_555 1_555
O4 H1 1_555 1_555
O5 C17 1_555 1_555
O6 H2 1_555 1_555
C1 H3 1_555 1_555
H4 C1 1_555 1_555
C2 C1 1_555 1_555
H5 C2 1_555 1_555
H6 C2 1_555 1_555
C3 C2 1_555 1_555
H7 C3 1_555 1_555
H8 C3 1_555 1_555
C4 C3 1_555 1_555
H9 C4 1_555 1_555
H10 C4 1_555 1_555
C5 N1 1_555 1_555
H11 C5 1_555 1_555
C6 C5 1_555 1_555
C7 C6 1_555 1_555
H12 C7 1_555 1_555
C8 C7 1_555 1_555
C9 O4 1_555 1_555
C10 C9 1_555 1_555
H13 C10 1_555 1_555
C11 C6 1_555 1_555
H14 C11 1_555 1_555
C12 O3 1_555 1_555
H15 C12 1_555 1_555
H16 C12 1_555 1_555
C13 C12 1_555 1_555
H17 C13 1_555 1_555
H18 C13 1_555 1_555
H19 C13 1_555 1_555
C14 N2 1_555 1_555
H20 C14 1_555 1_555
C15 C14 1_555 1_555
C16 C15 1_555 1_555
H21 C16 1_555 1_555
C17 C16 1_555 1_555
C18 O6 1_555 1_555
C19 C18 1_555 1_555
H22 C19 1_555 1_555
C20 C15 1_555 1_555
H23 C20 1_555 1_555
C21 O5 1_555 1_555
H24 C21 1_555 1_555
H25 C21 1_555 1_555
C22 C21 1_555 1_555
H26 C22 1_555 1_555
H27 C22 1_555 1_555
H28 C22 1_555 1_555
C8 C9 1_555 1_555
C10 C11 1_555 1_555
C17 C18 1_555 1_555
C19 C20 1_555 1_555

#END
