
#######################################################################
#
#                 Cambridge Crystallographic Data Centre
#                                CCDC 
#
#######################################################################
#
# If this CIF has been generated from an entry in the Cambridge 
# Structural Database, then it will include bibliographic, chemical, 
# crystal, experimental, refinement or atomic coordinate data resulting 
# from the CCDC's data processing and validation procedures.
#
#######################################################################

data_FATDUB
_chemical_formula_moiety         'C14 H19 N4 O4 1+,Cl1 1-'
_chemical_name_systematic        
'2-(3-Carboxy-5-nitro-1H-indazol-1-yl)-N,N-diethylethanaminium chloride'
_symmetry_cell_setting           orthorhombic
_symmetry_space_group_name_H-M   'P b c a'
_symmetry_Int_Tables_number      61
_space_group_name_Hall           '-P 2ac 2ab'
loop_
_symmetry_equiv_pos_site_id
_symmetry_equiv_pos_as_xyz
1 x,y,z
2 1/2-x,-y,1/2+z
3 -x,1/2+y,1/2-z
4 1/2+x,1/2-y,-z
5 -x,-y,-z
6 1/2+x,y,1/2-z
7 x,1/2-y,1/2+z
8 1/2-x,1/2+y,z
_cell_length_a                   17.218(3)
_cell_length_b                   8.3969(17)
_cell_length_c                   21.955(4)
_cell_angle_alpha                90
_cell_angle_beta                 90
_cell_angle_gamma                90
_cell_volume                     3174.21
_exptl_crystal_colour            colorless
_exptl_crystal_description       cuboid
_chemical_melting_point          '508 K'
_cell_formula_units_Z            8
loop_
_atom_site_label
_atom_site_type_symbol
_atom_site_fract_x
_atom_site_fract_y
_atom_site_fract_z
Cl1 Cl 0.19453(2) 0.99008(5) 0.137960(19)
O1 O 0.30582(7) -0.03766(18) -0.17734(6)
O2 O 0.40290(7) 0.04843(18) -0.12504(6)
O3 O 0.02598(7) -0.00664(15) -0.12351(6)
O4 O -0.06068(7) 0.12743(16) -0.06692(5)
H1 H -0.0925 0.0812 -0.0884
N1 N 0.33315(9) 0.03871(18) -0.13498(6)
N2 N 0.05238(8) 0.28433(17) -0.00903(6)
N3 N 0.12043(8) 0.34342(17) 0.01168(6)
N4 N 0.13808(7) 0.43993(16) 0.17548(6)
C1 C 0.18257(9) 0.27791(19) -0.01747(7)
C2 C 0.26259(9) 0.3001(2) -0.00935(7)
H2 H 0.2820 0.3659 0.0211
C3 C 0.31107(9) 0.2201(2) -0.04847(7)
H3 H 0.3646 0.2311 -0.0449
C4 C 0.27970(9) 0.1219(2) -0.09389(7)
C5 C 0.20175(9) 0.0947(2) -0.10127(7)
H4 H 0.1830 0.0270 -0.1314
C6 C 0.15215(9) 0.1737(2) -0.06131(7)
C7 C 0.07042(9) 0.1819(2) -0.05258(7)
C8 C 0.01040(9) 0.0901(2) -0.08495(7)
C9 C 0.11992(10) 0.4540(2) 0.06260(7)
H5 H 0.0808 0.5353 0.0560
H6 H 0.1701 0.5058 0.0660
C10 C 0.10222(9) 0.3627(2) 0.12099(7)
H7 H 0.0464 0.3570 0.1266
H8 H 0.1217 0.2548 0.1173
C11 C 0.13889(9) 0.3288(2) 0.22896(7)
H9 H 0.1671 0.3788 0.2620
H10 H 0.1668 0.2328 0.2177
C12 C 0.05964(10) 0.2831(3) 0.25138(8)
H11 H 0.0307 0.3775 0.2611
H12 H 0.0646 0.2180 0.2871
H13 H 0.0329 0.2245 0.2202
C13 C 0.10389(10) 0.6004(2) 0.18788(8)
H14 H 0.0481 0.5896 0.1926
H15 H 0.1133 0.6689 0.1531
C14 C 0.13697(10) 0.6783(2) 0.24421(8)
H16 H 0.1155 0.6286 0.2798
H17 H 0.1240 0.7895 0.2442
H18 H 0.1924 0.6664 0.2444
H19 H 0.1890(6) 0.456(3) 0.1676(10)
loop_
_geom_bond_atom_site_label_1
_geom_bond_atom_site_label_2
_geom_bond_site_symmetry_1
_geom_bond_site_symmetry_2
O1 N1 1_555 1_555
O2 N1 1_555 1_555
O3 C8 1_555 1_555
O4 H1 1_555 1_555
N1 C4 1_555 1_555
N2 N3 1_555 1_555
N3 C1 1_555 1_555
N4 C10 1_555 1_555
C1 C2 1_555 1_555
C2 H2 1_555 1_555
C3 C2 1_555 1_555
H3 C3 1_555 1_555
C4 C3 1_555 1_555
C5 C4 1_555 1_555
H4 C5 1_555 1_555
C6 C1 1_555 1_555
C7 N2 1_555 1_555
C8 O4 1_555 1_555
C9 N3 1_555 1_555
H5 C9 1_555 1_555
H6 C9 1_555 1_555
C10 C9 1_555 1_555
H7 C10 1_555 1_555
H8 C10 1_555 1_555
C11 N4 1_555 1_555
H9 C11 1_555 1_555
H10 C11 1_555 1_555
C12 C11 1_555 1_555
H11 C12 1_555 1_555
H12 C12 1_555 1_555
H13 C12 1_555 1_555
C13 N4 1_555 1_555
H14 C13 1_555 1_555
H15 C13 1_555 1_555
C14 C13 1_555 1_555
H16 C14 1_555 1_555
H17 C14 1_555 1_555
H18 C14 1_555 1_555
H19 N4 1_555 1_555
C5 C6 1_555 1_555
C6 C7 1_555 1_555
C7 C8 1_555 1_555

#END
