
#######################################################################
#
#                 Cambridge Crystallographic Data Centre
#                                CCDC 
#
#######################################################################
#
# If this CIF has been generated from an entry in the Cambridge 
# Structural Database, then it will include bibliographic, chemical, 
# crystal, experimental, refinement or atomic coordinate data resulting 
# from the CCDC's data processing and validation procedures.
#
#######################################################################

data_FATFIR
_chemical_formula_moiety         'C18 H16 Cl2 O4'
_chemical_name_systematic        
(E)-3-(2,4-Dichlorophenyl)-1-(3,4,5-trimethoxyphenyl)prop-2-en-1-one
_symmetry_cell_setting           monoclinic
_symmetry_space_group_name_H-M   'P 21/n'
_symmetry_Int_Tables_number      14
_space_group_name_Hall           '-P 2yn'
loop_
_symmetry_equiv_pos_site_id
_symmetry_equiv_pos_as_xyz
1 x,y,z
2 1/2-x,1/2+y,1/2-z
3 -x,-y,-z
4 1/2+x,1/2-y,1/2+z
_cell_length_a                   7.2641(9)
_cell_length_b                   16.3533(19)
_cell_length_c                   14.6158(17)
_cell_angle_alpha                90
_cell_angle_beta                 102.514(2)
_cell_angle_gamma                90
_cell_volume                     1694.99
_exptl_crystal_colour            colorless
_exptl_crystal_description       prismatic
_cell_formula_units_Z            4
_exptl_crystal_recrystallization_method methanol/chloroform
loop_
_atom_site_label
_atom_site_type_symbol
_atom_site_fract_x
_atom_site_fract_y
_atom_site_fract_z
Cl1 Cl 0.71218(9) 1.15777(3) 0.21515(3)
Cl2 Cl 0.79545(12) 1.43786(3) 0.40593(6)
O1 O 0.7666(3) 0.90309(9) 0.39005(9)
O2 O 0.6793(2) 0.66379(7) 0.59338(9)
O3 O 0.7084(2) 0.72592(8) 0.76580(9)
O4 O 0.7621(2) 0.88386(9) 0.79973(9)
C1 C 0.7187(3) 0.79852(11) 0.53010(12)
H1 H 0.7114 0.7779 0.4701
C2 C 0.7069(3) 0.74604(10) 0.60270(12)
C3 C 0.7232(3) 0.77649(11) 0.69287(12)
C4 C 0.7460(3) 0.85992(12) 0.70907(12)
C5 C 0.7539(3) 0.91275(11) 0.63556(13)
H2 H 0.7677 0.9687 0.6462
C6 C 0.7412(2) 0.88159(10) 0.54627(12)
C7 C 0.7568(3) 0.93432(11) 0.46455(13)
C8 C 0.7613(3) 1.02405(11) 0.47494(13)
H3 H 0.7561 1.0470 0.5325
C9 C 0.7726(3) 1.07254(11) 0.40405(13)
H4 H 0.7764 1.0472 0.3475
C10 C 0.7799(2) 1.16195(11) 0.40518(12)
C11 C 0.8165(3) 1.20629(11) 0.48822(13)
H5 H 0.8387 1.1780 0.5447
C12 C 0.8211(3) 1.29018(12) 0.49023(15)
H6 H 0.8453 1.3184 0.5468
C13 C 0.7886(3) 1.33158(11) 0.40559(15)
C14 C 0.7530(3) 1.29158(11) 0.32169(14)
H7 H 0.7303 1.3204 0.2655
C15 C 0.7514(3) 1.20703(11) 0.32251(12)
C16 C 0.6517(4) 0.63115(12) 0.50199(14)
H8 H 0.5508 0.6599 0.4613
H9 H 0.6202 0.5742 0.5033
H10 H 0.7653 0.6372 0.4792
C17 C 0.8704(4) 0.67843(14) 0.79906(15)
H11 H 0.9051 0.6505 0.7475
H12 H 0.8447 0.6391 0.8434
H13 H 0.9721 0.7133 0.8290
C18 C 0.7490(5) 0.96867(15) 0.81682(17)
H14 H 0.8576 0.9961 0.8041
H15 H 0.7433 0.9772 0.8811
H16 H 0.6371 0.9903 0.7768
loop_
_geom_bond_atom_site_label_1
_geom_bond_atom_site_label_2
_geom_bond_site_symmetry_1
_geom_bond_site_symmetry_2
Cl1 C15 1_555 1_555
Cl2 C13 1_555 1_555
O1 C7 1_555 1_555
O2 C2 1_555 1_555
O3 C3 1_555 1_555
O4 C4 1_555 1_555
C1 H1 1_555 1_555
C2 C1 1_555 1_555
C3 C2 1_555 1_555
C4 C3 1_555 1_555
C5 C4 1_555 1_555
H2 C5 1_555 1_555
C6 C1 1_555 1_555
C7 C6 1_555 1_555
C8 C7 1_555 1_555
H3 C8 1_555 1_555
C9 C8 1_555 1_555
H4 C9 1_555 1_555
C10 C9 1_555 1_555
C11 C10 1_555 1_555
H5 C11 1_555 1_555
C12 C11 1_555 1_555
H6 C12 1_555 1_555
C13 C12 1_555 1_555
C14 C13 1_555 1_555
H7 C14 1_555 1_555
C15 C10 1_555 1_555
C16 O2 1_555 1_555
H8 C16 1_555 1_555
H9 C16 1_555 1_555
H10 C16 1_555 1_555
C17 O3 1_555 1_555
H11 C17 1_555 1_555
H12 C17 1_555 1_555
H13 C17 1_555 1_555
C18 O4 1_555 1_555
H14 C18 1_555 1_555
H15 C18 1_555 1_555
H16 C18 1_555 1_555
C5 C6 1_555 1_555
C14 C15 1_555 1_555

#END
