
#######################################################################
#
#                 Cambridge Crystallographic Data Centre
#                                CCDC 
#
#######################################################################
#
# If this CIF has been generated from an entry in the Cambridge 
# Structural Database, then it will include bibliographic, chemical, 
# crystal, experimental, refinement or atomic coordinate data resulting 
# from the CCDC's data processing and validation procedures.
#
#######################################################################

data_FATJAO
_chemical_formula_moiety         'C57 H36 N6,2(C1 H2 Cl2)'
_chemical_name_systematic        
"5-(4-(4,6-diphenyl-1,3,5-triazin-2-yl)phenyl)-10,15-diphenyl-10,15-dihydro-5H-diindolo[3,2-a:3',2'-c]carbazole dichloromethane solvate"
_symmetry_cell_setting           triclinic
_symmetry_space_group_name_H-M   'P -1'
_symmetry_Int_Tables_number      2
_space_group_name_Hall           '-P 1'
loop_
_symmetry_equiv_pos_site_id
_symmetry_equiv_pos_as_xyz
1 x,y,z
2 -x,-y,-z
_cell_length_a                   12.5822(7)
_cell_length_b                   12.8932(8)
_cell_length_c                   16.0270(11)
_cell_angle_alpha                85.197(2)
_cell_angle_beta                 89.6830(19)
_cell_angle_gamma                67.1866(14)
_cell_volume                     2387.15
_exptl_crystal_colour            yellow
_exptl_crystal_description       chunk
_cell_formula_units_Z            2
loop_
_atom_site_label
_atom_site_type_symbol
_atom_site_fract_x
_atom_site_fract_y
_atom_site_fract_z
Cl1 Cl 0.3342(2) 0.4647(2) 0.4214(2)
Cl2 Cl 0.3764(2) 0.61516(16) 0.52763(14)
C1 C 0.3022(9) 0.6045(7) 0.4401(5)
H1 H 0.3218 0.6431 0.3916
H2 H 0.2199 0.6419 0.4480
Cl5 Cl -0.0352(8) 0.4427(9) 1.1455(5)
Cl6 Cl -0.1701(6) 0.6405(6) 1.0542(5)
C3 C -0.1650(7) 0.5291(6) 1.1381(5)
H5 H -0.1894 0.5618 1.1908
H6 H -0.2151 0.4918 1.1231
N1 N 0.36565(15) 0.89206(17) 0.56625(13)
N2 N 0.76732(16) 0.80140(18) 0.62954(14)
N3 N 0.64200(17) 0.79240(18) 0.34736(14)
N4 N 0.07029(17) 0.86574(19) 0.88667(14)
N5 N 0.08138(18) 0.75395(19) 1.01412(15)
N6 N 0.23938(17) 0.70153(18) 0.92194(14)
C5 C 0.3352(2) 0.8865(2) 0.34368(18)
H9 H 0.3832 0.8748 0.2981
C6 C 0.2179(2) 0.9136(3) 0.3321(2)
H10 H 0.1877 0.9200 0.2782
C7 C 0.1449(2) 0.9312(2) 0.3994(2)
H11 H 0.0672 0.9465 0.3902
C8 C 0.1865(2) 0.9261(2) 0.47958(19)
H12 H 0.1377 0.9391 0.5248
C9 C 0.3039(2) 0.9010(2) 0.49100(17)
C10 C 0.48176(19) 0.8612(2) 0.54722(16)
C11 C 0.5753(2) 0.8492(2) 0.60099(16)
C12 C 0.5888(2) 0.8679(2) 0.68740(17)
C13 C 0.5140(2) 0.9143(2) 0.75209(18)
H13 H 0.4345 0.9426 0.7430
C14 C 0.5600(2) 0.9174(3) 0.8292(2)
H14 H 0.5103 0.9475 0.8720
C15 C 0.6784(3) 0.8768(3) 0.8450(2)
H15 H 0.7068 0.8781 0.8982
C16 C 0.7533(2) 0.8347(3) 0.78206(19)
H16 H 0.8326 0.8079 0.7919
C17 C 0.7086(2) 0.8329(2) 0.70334(17)
C18 C 0.6862(2) 0.8142(2) 0.56649(17)
C19 C 0.7041(2) 0.7996(2) 0.48059(16)
C20 C 0.8013(2) 0.7780(2) 0.42500(17)
C21 C 0.9157(2) 0.7684(2) 0.43321(19)
H17 H 0.9452 0.7744 0.4848
C22 C 0.9839(2) 0.7500(3) 0.3639(2)
H18 H 1.0597 0.7438 0.3694
C23 C 0.9427(2) 0.7404(3) 0.2869(2)
H19 H 0.9913 0.7265 0.2416
C24 C 0.8301(2) 0.7513(2) 0.2759(2)
H20 H 0.8020 0.7449 0.2238
C25 C 0.7605(2) 0.7719(2) 0.34450(18)
C26 C 0.6079(2) 0.8130(2) 0.42934(16)
C27 C 0.49527(19) 0.8470(2) 0.46098(16)
C28 C 0.3799(2) 0.8771(2) 0.42439(16)
C29 C 0.8871(2) 0.7271(2) 0.62993(18)
C30 C 0.9707(2) 0.7655(3) 0.6523(2)
H21 H 0.9499 0.8388 0.6673
C31 C 1.0859(3) 0.6931(3) 0.6520(2)
H22 H 1.1428 0.7183 0.6663
C32 C 1.1165(3) 0.5845(3) 0.6306(3)
H23 H 1.1940 0.5366 0.6309
C33 C 1.0344(3) 0.5461(3) 0.6090(2)
H24 H 1.0557 0.4725 0.5945
C34 C 0.9181(2) 0.6180(2) 0.60881(19)
H25 H 0.8616 0.5924 0.5945
C35 C 0.5940(2) 0.7388(2) 0.29278(17)
C36 C 0.5790(2) 0.7722(3) 0.2081(2)
H26 H 0.5970 0.8324 0.1864
C37 C 0.5367(3) 0.7157(4) 0.1551(2)
H27 H 0.5281 0.7372 0.0979
C38 C 0.5078(3) 0.6288(4) 0.1870(3)
H28 H 0.4786 0.5917 0.1518
C39 C 0.5222(3) 0.5965(3) 0.2714(3)
H29 H 0.5021 0.5376 0.2930
C40 C 0.5658(2) 0.6495(2) 0.3246(2)
H30 H 0.5763 0.6258 0.3815
C41 C 0.2292(2) 0.8192(2) 0.79365(17)
C42 C 0.3308(2) 0.7413(2) 0.76503(17)
H31 H 0.3681 0.6723 0.7961
C43 C 0.3775(2) 0.7649(2) 0.69086(17)
H32 H 0.4453 0.7118 0.6720
C44 C 0.32243(19) 0.8681(2) 0.64497(16)
C45 C 0.2222(2) 0.9479(2) 0.67389(18)
H33 H 0.1866 1.0179 0.6438
C46 C 0.1753(2) 0.9231(2) 0.74757(18)
H34 H 0.1075 0.9762 0.7663
C47 C -0.0900(2) 0.9225(2) 0.97941(18)
C48 C -0.1473(2) 1.0193(2) 0.92689(19)
H35 H -0.1125 1.0338 0.8785
C49 C -0.2556(2) 1.0945(3) 0.9457(2)
H36 H -0.2932 1.1596 0.9104
C50 C -0.3077(2) 1.0728(3) 1.0168(2)
H37 H -0.3812 1.1226 1.0291
C51 C -0.2512(2) 0.9779(3) 1.0699(2)
H38 H -0.2863 0.9641 1.1184
C52 C -0.1431(2) 0.9029(3) 1.05163(19)
H39 H -0.1054 0.8388 1.0879
C53 C 0.2504(2) 0.5839(2) 1.05004(18)
C54 C 0.2031(3) 0.5636(3) 1.1245(2)
H40 H 0.1321 0.6157 1.1393
C55 C 0.2589(3) 0.4679(4) 1.1768(3)
H41 H 0.2254 0.4557 1.2266
C56 C 0.3632(3) 0.3908(3) 1.1564(2)
H42 H 0.4011 0.3261 1.1921
C57 C 0.4118(3) 0.4093(3) 1.0831(2)
H43 H 0.4833 0.3571 1.0692
C58 C 0.3557(2) 0.5046(2) 1.0296(2)
H44 H 0.3889 0.5156 0.9794
C59 C 0.1765(2) 0.7939(2) 0.87176(17)
C60 C 0.0267(2) 0.8426(2) 0.95907(17)
C61 C 0.1868(2) 0.6850(2) 0.99237(17)
Cl3? Cl 0.3091(10) 0.5093(14) 0.3682(10)
Cl4? Cl 0.3026(16) 0.6336(9) 0.4958(10)
C2? C 0.272(4) 0.523(3) 0.4696(14)
H3? H 0.3169 0.4550 0.5046
H4? H 0.1908 0.5387 0.4758
Cl7? Cl -0.1828(4) 0.6341(5) 1.0644(3)
C4? C -0.0559(10) 0.5159(10) 1.0615(9)
H7? H 0.0079 0.5404 1.0592
H8? H -0.0568 0.4817 1.0100
Cl8? Cl -0.0287(3) 0.4105(5) 1.1464(3)
loop_
_geom_bond_atom_site_label_1
_geom_bond_atom_site_label_2
_geom_bond_site_symmetry_1
_geom_bond_site_symmetry_2
Cl1 C1 1_555 1_555
Cl2 C1 1_555 1_555
C1 H1 1_555 1_555
H2 C1 1_555 1_555
Cl5 C3 1_555 1_555
Cl6 C3 1_555 1_555
C3 H5 1_555 1_555
H6 C3 1_555 1_555
N1 C9 1_555 1_555
N2 C17 1_555 1_555
N3 C25 1_555 1_555
N4 C59 1_555 1_555
N5 C60 1_555 1_555
N6 C59 1_555 1_555
C5 H9 1_555 1_555
C6 C5 1_555 1_555
H10 C6 1_555 1_555
C7 C6 1_555 1_555
H11 C7 1_555 1_555
C8 C7 1_555 1_555
H12 C8 1_555 1_555
C9 C8 1_555 1_555
C10 N1 1_555 1_555
C11 C10 1_555 1_555
C12 C11 1_555 1_555
C13 C12 1_555 1_555
H13 C13 1_555 1_555
C14 C13 1_555 1_555
H14 C14 1_555 1_555
C15 C14 1_555 1_555
H15 C15 1_555 1_555
C16 C15 1_555 1_555
H16 C16 1_555 1_555
C17 C12 1_555 1_555
C18 N2 1_555 1_555
C19 C18 1_555 1_555
C20 C19 1_555 1_555
C21 C20 1_555 1_555
H17 C21 1_555 1_555
C22 C21 1_555 1_555
H18 C22 1_555 1_555
C23 C22 1_555 1_555
H19 C23 1_555 1_555
C24 C23 1_555 1_555
H20 C24 1_555 1_555
C25 C20 1_555 1_555
C26 N3 1_555 1_555
C27 C10 1_555 1_555
C28 C5 1_555 1_555
C29 N2 1_555 1_555
C30 C29 1_555 1_555
H21 C30 1_555 1_555
C31 C30 1_555 1_555
H22 C31 1_555 1_555
C32 C31 1_555 1_555
H23 C32 1_555 1_555
C33 C32 1_555 1_555
H24 C33 1_555 1_555
C34 C29 1_555 1_555
H25 C34 1_555 1_555
C35 N3 1_555 1_555
C36 C35 1_555 1_555
H26 C36 1_555 1_555
C37 C36 1_555 1_555
H27 C37 1_555 1_555
C38 C37 1_555 1_555
H28 C38 1_555 1_555
C39 C38 1_555 1_555
H29 C39 1_555 1_555
C40 C35 1_555 1_555
H30 C40 1_555 1_555
C41 C42 1_555 1_555
C42 H31 1_555 1_555
C43 C42 1_555 1_555
H32 C43 1_555 1_555
C44 N1 1_555 1_555
C45 C44 1_555 1_555
H33 C45 1_555 1_555
C46 C41 1_555 1_555
H34 C46 1_555 1_555
C47 C48 1_555 1_555
C48 H35 1_555 1_555
C49 C48 1_555 1_555
H36 C49 1_555 1_555
C50 C49 1_555 1_555
H37 C50 1_555 1_555
C51 C50 1_555 1_555
H38 C51 1_555 1_555
C52 C47 1_555 1_555
H39 C52 1_555 1_555
C53 C54 1_555 1_555
C54 H40 1_555 1_555
C55 C54 1_555 1_555
H41 C55 1_555 1_555
C56 C55 1_555 1_555
H42 C56 1_555 1_555
C57 C56 1_555 1_555
H43 C57 1_555 1_555
C58 C53 1_555 1_555
H44 C58 1_555 1_555
C59 C41 1_555 1_555
C60 N4 1_555 1_555
C61 N5 1_555 1_555
N6 C61 1_555 1_555
C9 C28 1_555 1_555
C11 C18 1_555 1_555
C16 C17 1_555 1_555
C19 C26 1_555 1_555
C24 C25 1_555 1_555
C26 C27 1_555 1_555
C27 C28 1_555 1_555
C33 C34 1_555 1_555
C39 C40 1_555 1_555
C43 C44 1_555 1_555
C45 C46 1_555 1_555
C47 C60 1_555 1_555
C51 C52 1_555 1_555
C53 C61 1_555 1_555
C57 C58 1_555 1_555

#END
