
#######################################################################
#
#                 Cambridge Crystallographic Data Centre
#                                CCDC 
#
#######################################################################
#
# If this CIF has been generated from an entry in the Cambridge 
# Structural Database, then it will include bibliographic, chemical, 
# crystal, experimental, refinement or atomic coordinate data resulting 
# from the CCDC's data processing and validation procedures.
#
#######################################################################

data_FATMIZ
_chemical_formula_moiety         'C25 H20 Br2 N2 O3'
_chemical_name_systematic        
1,3-bis(3-(4-bromophenyl)-3-oxopropyl)-1,3-dihydro-2H-benzimidazol-2-one
_symmetry_cell_setting           monoclinic
_symmetry_space_group_name_H-M   'P 21/c'
_symmetry_Int_Tables_number      14
_space_group_name_Hall           '-P 2ybc'
loop_
_symmetry_equiv_pos_site_id
_symmetry_equiv_pos_as_xyz
1 x,y,z
2 -x,1/2+y,1/2-z
3 -x,-y,-z
4 x,1/2-y,1/2+z
_cell_length_a                   25.738(8)
_cell_length_b                   5.4772(17)
_cell_length_c                   15.984(5)
_cell_angle_alpha                90
_cell_angle_beta                 97.927(5)
_cell_angle_gamma                90
_cell_volume                     2231.77
_cell_formula_units_Z            4
loop_
_atom_site_label
_atom_site_type_symbol
_atom_site_fract_x
_atom_site_fract_y
_atom_site_fract_z
Br1 Br -0.10013(2) 0.29523(15) 0.60924(4)
Br2 Br 0.63713(2) 0.59512(14) 0.75920(4)
C1 C 0.26597(18) 0.5938(9) 0.5922(3)
C2 C 0.26542(16) 0.7828(9) 0.4659(3)
C3 C 0.27329(19) 0.8564(10) 0.3865(3)
H1 H 0.2967 0.7748 0.3569
C4 C 0.2452(2) 1.0563(11) 0.3521(3)
H2 H 0.2493 1.1085 0.2981
C5 C 0.2111(2) 1.1795(10) 0.3967(3)
H3 H 0.1934 1.3159 0.3727
C6 C 0.20285(19) 1.1043(10) 0.4763(3)
H4 H 0.1793 1.1858 0.5056
C7 C 0.23043(16) 0.9057(9) 0.5108(3)
C8 C 0.20914(19) 0.8644(11) 0.6624(3)
H5 H 0.2001 1.0361 0.6564
H6 H 0.2352 0.8473 0.7119
C9 C 0.1610(2) 0.7229(12) 0.6761(4)
H7 H 0.1641 0.5580 0.6552
H8 H 0.1595 0.7126 0.7363
C10 C 0.1110(2) 0.8323(11) 0.6336(3)
C11 C 0.0610(2) 0.6968(10) 0.6325(3)
C12 C 0.0158(2) 0.7900(11) 0.5857(4)
H9 H 0.0182 0.9382 0.5581
C13 C -0.0314(2) 0.6778(12) 0.5781(4)
H10 H -0.0605 0.7423 0.5445
C14 C -0.0344(2) 0.4630(11) 0.6224(3)
C15 C 0.0077(2) 0.3626(11) 0.6705(3)
H11 H 0.0045 0.2184 0.7000
C16 C 0.0561(2) 0.4808(11) 0.6745(3)
H12 H 0.0855 0.4122 0.7062
C17 C 0.32918(19) 0.4277(9) 0.5030(3)
H13 H 0.3313 0.4160 0.4430
H14 H 0.3227 0.2655 0.5236
C18 C 0.38006(17) 0.5225(8) 0.5481(3)
H15 H 0.3879 0.6773 0.5231
H16 H 0.3760 0.5530 0.6067
C19 C 0.42554(18) 0.3533(8) 0.5455(3)
C20 C 0.47706(16) 0.4172(7) 0.5961(2)
C21 C 0.48438(18) 0.6314(8) 0.6431(3)
H17 H 0.4568 0.7416 0.6423
C22 C 0.5314(2) 0.6820(9) 0.6905(3)
H18 H 0.5358 0.8263 0.7214
C23 C 0.57283(18) 0.5170(9) 0.6926(3)
C24 C 0.56711(18) 0.3048(9) 0.6455(3)
H19 H 0.5949 0.1961 0.6457
C25 C 0.51941(18) 0.2583(8) 0.5983(3)
H20 H 0.5153 0.1154 0.5667
N1 N 0.23207(14) 0.7863(8) 0.5882(2)
N2 N 0.28594(14) 0.5898(8) 0.5165(2)
O1 O 0.11137(15) 1.0319(8) 0.6010(3)
O2 O 0.42090(14) 0.1652(7) 0.5057(2)
O3 O 0.27653(14) 0.4509(7) 0.6502(2)
loop_
_geom_bond_atom_site_label_1
_geom_bond_atom_site_label_2
_geom_bond_site_symmetry_1
_geom_bond_site_symmetry_2
Br1 C14 1_555 1_555
Br2 C23 1_555 1_555
C1 N1 1_555 1_555
C2 C3 1_555 1_555
C3 H1 1_555 1_555
C4 C3 1_555 1_555
H2 C4 1_555 1_555
C5 C4 1_555 1_555
H3 C5 1_555 1_555
C6 C5 1_555 1_555
H4 C6 1_555 1_555
C7 C2 1_555 1_555
C8 H5 1_555 1_555
H6 C8 1_555 1_555
C9 C8 1_555 1_555
H7 C9 1_555 1_555
H8 C9 1_555 1_555
C10 C9 1_555 1_555
C11 C10 1_555 1_555
C12 C11 1_555 1_555
H9 C12 1_555 1_555
C13 C12 1_555 1_555
H10 C13 1_555 1_555
C14 C13 1_555 1_555
C15 C14 1_555 1_555
H11 C15 1_555 1_555
C16 C11 1_555 1_555
H12 C16 1_555 1_555
C17 H13 1_555 1_555
H14 C17 1_555 1_555
C18 C17 1_555 1_555
H15 C18 1_555 1_555
H16 C18 1_555 1_555
C19 C18 1_555 1_555
C20 C19 1_555 1_555
C21 C20 1_555 1_555
H17 C21 1_555 1_555
C22 C21 1_555 1_555
H18 C22 1_555 1_555
C23 C22 1_555 1_555
C24 C23 1_555 1_555
H19 C24 1_555 1_555
C25 C20 1_555 1_555
H20 C25 1_555 1_555
N1 C7 1_555 1_555
N2 C1 1_555 1_555
O1 C10 1_555 1_555
O2 C19 1_555 1_555
O3 C1 1_555 1_555
C2 N2 1_555 1_555
C6 C7 1_555 1_555
C8 N1 1_555 1_555
C15 C16 1_555 1_555
C17 N2 1_555 1_555
C24 C25 1_555 1_555

#END
