
#######################################################################
#
#                 Cambridge Crystallographic Data Centre
#                                CCDC 
#
#######################################################################
#
# If this CIF has been generated from an entry in the Cambridge 
# Structural Database, then it will include bibliographic, chemical, 
# crystal, experimental, refinement or atomic coordinate data resulting 
# from the CCDC's data processing and validation procedures.
#
#######################################################################

data_FATPOI
_chemical_formula_moiety         'C29 H41 Cl1 N2 Si1,C4 H8 O1'
_chemical_name_systematic        
'1,3-bis(2,6-di-isopropylphenyl)-4-(dimethyl(chloro)silyl)-2,3-dihydroimidazol-2-ylidene tetrahydrofuran solvate'
_symmetry_cell_setting           triclinic
_symmetry_space_group_name_H-M   'P -1'
_symmetry_Int_Tables_number      2
_space_group_name_Hall           '-P 1'
loop_
_symmetry_equiv_pos_site_id
_symmetry_equiv_pos_as_xyz
1 x,y,z
2 -x,-y,-z
_cell_length_a                   8.935(3)
_cell_length_b                   12.508(4)
_cell_length_c                   16.628(5)
_cell_angle_alpha                69.021(10)
_cell_angle_beta                 81.901(11)
_cell_angle_gamma                81.762(11)
_cell_volume                     1709.15
_exptl_crystal_colour            colorless
_exptl_crystal_description       plate
_cell_formula_units_Z            2
loop_
_atom_site_label
_atom_site_type_symbol
_atom_site_fract_x
_atom_site_fract_y
_atom_site_fract_z
Si1 Si 0.28904(7) 0.27307(6) 0.28104(5)
Cl1 Cl 0.2684(3) 0.1008(3) 0.34017(16)
C1 C 0.2458(9) 0.3018(5) 0.1670(5)
H1 H 0.1449 0.2833 0.1678
H2 H 0.3175 0.2552 0.1415
N1 N 0.65946(19) 0.37861(14) 0.32875(12)
N2 N 0.62686(19) 0.25732(14) 0.27290(11)
C2 C 0.7402(2) 0.30201(17) 0.29316(14)
C3 C 0.5054(2) 0.37971(19) 0.32987(15)
H3 H 0.4313 0.4256 0.3512
C4 C 0.4798(2) 0.30318(18) 0.29485(14)
C5 C 0.6551(2) 0.16966(18) 0.23281(15)
C6 C 0.6719(3) 0.0540(2) 0.28668(16)
C7 C 0.6891(4) -0.0278(2) 0.2463(2)
H4 H 0.6984 -0.1056 0.2798
C8 C 0.6925(5) 0.0032(3) 0.1590(2)
H5 H 0.7024 -0.0535 0.1341
C9 C 0.6816(4) 0.1169(3) 0.1071(2)
H6 H 0.6861 0.1362 0.0474
C10 C 0.6638(3) 0.2037(2) 0.14286(17)
C11 C 0.6659(4) 0.3287(2) 0.08536(17)
H7 H 0.6032 0.3755 0.1162
C12 C 0.5997(5) 0.3550(3) -0.0012(2)
H8 H 0.6037 0.4350 -0.0351
H9 H 0.6582 0.3090 -0.0323
H10 H 0.4961 0.3372 0.0098
C13 C 0.8271(5) 0.3625(3) 0.0700(2)
H11 H 0.8280 0.4418 0.0335
H12 H 0.8628 0.3520 0.1244
H13 H 0.8921 0.3151 0.0424
C14 C 0.6820(3) 0.0193(2) 0.38261(16)
H14 H 0.6296 0.0821 0.4013
C15 C 0.6060(4) -0.0906(2) 0.4364(2)
H15 H 0.6161 -0.1082 0.4966
H16 H 0.5002 -0.0788 0.4273
H17 H 0.6543 -0.1534 0.4187
C16 C 0.8480(4) 0.0055(3) 0.3998(2)
H18 H 0.8545 -0.0166 0.4608
H19 H 0.9032 -0.0529 0.3791
H20 H 0.8908 0.0771 0.3702
C17 C 0.7284(2) 0.45385(18) 0.35833(16)
C18 C 0.7376(3) 0.4238(2) 0.44738(17)
C19 C 0.8020(3) 0.5001(2) 0.4732(2)
H21 H 0.8111 0.4829 0.5316
C20 C 0.8518(4) 0.5991(3) 0.4146(3)
H22 H 0.8934 0.6488 0.4337
C21 C 0.8412(3) 0.6265(2) 0.3282(2)
H23 H 0.8766 0.6943 0.2893
C22 C 0.7783(3) 0.5544(2) 0.29710(18)
C23 C 0.7594(13) 0.5839(11) 0.2018(4)
H24 H 0.7454 0.5145 0.1904
C24 C 0.6212(10) 0.6710(11) 0.1802(6)
H25 H 0.6068 0.6911 0.1202
H26 H 0.5331 0.6383 0.2154
H27 H 0.6364 0.7387 0.1913
C25 C 0.9021(11) 0.6389(12) 0.1457(7)
H28 H 0.8901 0.6575 0.0856
H29 H 0.9135 0.7077 0.1563
H30 H 0.9907 0.5853 0.1606
C26 C 0.6863(3) 0.3120(2) 0.51257(17)
H31 H 0.6137 0.2866 0.4859
C27 C 0.8206(4) 0.2207(3) 0.5294(3)
H32 H 0.8686 0.2153 0.4753
H33 H 0.8922 0.2412 0.5580
H34 H 0.7861 0.1479 0.5653
C28 C 0.6056(4) 0.3246(3) 0.5956(2)
H35 H 0.5760 0.2513 0.6340
H36 H 0.6727 0.3519 0.6226
H37 H 0.5169 0.3787 0.5827
C29 C 0.1459(3) 0.3472(4) 0.3429(3)
H38 H 0.1635 0.4266 0.3252
H39 H 0.0454 0.3420 0.3313
H40 H 0.1556 0.3108 0.4037
H41 H 0.2531 0.3816 0.1334
O1 O 0.217(2) 0.8566(12) 0.1369(11)
C30 C 0.3139(18) 0.9497(18) 0.0898(12)
H42 H 0.3783 0.9596 0.1284
H43 H 0.3778 0.9325 0.0429
C31 C 0.220(3) 1.0439(15) 0.0591(10)
H44 H 0.1627 1.0398 0.0151
H45 H 0.2723 1.1130 0.0368
C32 C 0.1174(17) 1.0345(14) 0.1466(13)
H46 H 0.1634 1.0659 0.1817
H47 H 0.0168 1.0742 0.1357
C33 C 0.112(2) 0.9274(16) 0.1826(12)
H48 H 0.0086 0.9101 0.1854
H49 H 0.1381 0.9048 0.2416
C34? C 0.770(5) 0.598(4) 0.1999(12)
H50? H 0.7130 0.5392 0.1961
C35? C 0.671(6) 0.706(2) 0.148(3)
H51? H 0.5804 0.7182 0.1840
H52? H 0.7271 0.7724 0.1307
H53? H 0.6438 0.6959 0.0979
C36? C 0.915(4) 0.581(4) 0.141(3)
H54? H 0.8935 0.6127 0.0819
H55? H 0.9940 0.6192 0.1498
H56? H 0.9467 0.5003 0.1561
O2? O 0.186(3) 0.8817(17) 0.1939(11)
C37? C 0.321(2) 0.9324(18) 0.1410(14)
H57? H 0.3974 0.9297 0.1777
H58? H 0.3632 0.8901 0.1029
C38? C 0.278(2) 1.0400(14) 0.0953(15)
H59? H 0.3420 1.0664 0.0413
H60? H 0.2799 1.0908 0.1275
C39? C 0.1117(19) 1.0337(16) 0.0788(14)
H61? H 0.0378 1.0721 0.1107
H62? H 0.0972 1.0672 0.0178
C40? C 0.103(2) 0.9214(18) 0.1084(13)
H63? H 0.1556 0.8859 0.0677
H64? H -0.0015 0.9035 0.1209
Cl2? Cl 0.2573(3) 0.3430(2) 0.1526(2)
C41? C 0.2676(10) 0.1152(7) 0.3095(5)
H65? H 0.1667 0.1065 0.3008
H66? H 0.3401 0.0841 0.2731
H67? H 0.2851 0.0748 0.3690
loop_
_geom_bond_atom_site_label_1
_geom_bond_atom_site_label_2
_geom_bond_site_symmetry_1
_geom_bond_site_symmetry_2
Si1 Cl1 1_555 1_555
C1 Si1 1_555 1_555
H1 C1 1_555 1_555
H2 C1 1_555 1_555
N1 C2 1_555 1_555
N2 C2 1_555 1_555
C3 N1 1_555 1_555
H3 C3 1_555 1_555
C4 Si1 1_555 1_555
C5 N2 1_555 1_555
C6 C5 1_555 1_555
C7 C6 1_555 1_555
H4 C7 1_555 1_555
C8 C7 1_555 1_555
H5 C8 1_555 1_555
C9 C8 1_555 1_555
H6 C9 1_555 1_555
C10 C5 1_555 1_555
C11 C10 1_555 1_555
H7 C11 1_555 1_555
C12 C11 1_555 1_555
H8 C12 1_555 1_555
H9 C12 1_555 1_555
H10 C12 1_555 1_555
C13 C11 1_555 1_555
H11 C13 1_555 1_555
H12 C13 1_555 1_555
H13 C13 1_555 1_555
C14 C6 1_555 1_555
H14 C14 1_555 1_555
C15 C14 1_555 1_555
H15 C15 1_555 1_555
H16 C15 1_555 1_555
H17 C15 1_555 1_555
C16 C14 1_555 1_555
H18 C16 1_555 1_555
H19 C16 1_555 1_555
H20 C16 1_555 1_555
C17 N1 1_555 1_555
C18 C17 1_555 1_555
C19 C18 1_555 1_555
H21 C19 1_555 1_555
C20 C19 1_555 1_555
H22 C20 1_555 1_555
C21 C20 1_555 1_555
H23 C21 1_555 1_555
C22 C17 1_555 1_555
C23 C22 1_555 1_555
H24 C23 1_555 1_555
C24 C23 1_555 1_555
H25 C24 1_555 1_555
H26 C24 1_555 1_555
H27 C24 1_555 1_555
C25 C23 1_555 1_555
H28 C25 1_555 1_555
H29 C25 1_555 1_555
H30 C25 1_555 1_555
C26 C18 1_555 1_555
H31 C26 1_555 1_555
C27 C26 1_555 1_555
H32 C27 1_555 1_555
H33 C27 1_555 1_555
H34 C27 1_555 1_555
C28 C26 1_555 1_555
H35 C28 1_555 1_555
H36 C28 1_555 1_555
H37 C28 1_555 1_555
C29 Si1 1_555 1_555
H38 C29 1_555 1_555
H39 C29 1_555 1_555
H40 C29 1_555 1_555
H41 C1 1_555 1_555
O1 C30 1_555 1_555
C30 H42 1_555 1_555
H43 C30 1_555 1_555
C31 C30 1_555 1_555
H44 C31 1_555 1_555
H45 C31 1_555 1_555
C32 C31 1_555 1_555
H46 C32 1_555 1_555
H47 C32 1_555 1_555
C33 O1 1_555 1_555
H48 C33 1_555 1_555
H49 C33 1_555 1_555
N2 C4 1_555 1_555
C3 C4 1_555 1_555
C9 C10 1_555 1_555
C21 C22 1_555 1_555
C32 C33 1_555 1_555

#END
