
#######################################################################
#
#                 Cambridge Crystallographic Data Centre
#                                CCDC 
#
#######################################################################
#
# If this CIF has been generated from an entry in the Cambridge 
# Structural Database, then it will include bibliographic, chemical, 
# crystal, experimental, refinement or atomic coordinate data resulting 
# from the CCDC's data processing and validation procedures.
#
#######################################################################

data_FATQEX
_chemical_formula_moiety         
'C12 H16 Mg1 N2 O4 2+,C8 H4 O4 2-,C12 H8 N2,H2 O1'
_chemical_name_systematic        
'Tetra-aqua-(1,10-phenanthroline)-magnesium(ii) phthalate 1,10-phenanthroline monohydrate'
_symmetry_cell_setting           monoclinic
_symmetry_space_group_name_H-M   'P 21/c'
_symmetry_Int_Tables_number      14
_space_group_name_Hall           '-P 2ybc'
loop_
_symmetry_equiv_pos_site_id
_symmetry_equiv_pos_as_xyz
1 x,y,z
2 -x,1/2+y,1/2-z
3 -x,-y,-z
4 x,1/2-y,1/2+z
_cell_length_a                   11.873(2)
_cell_length_b                   31.992(6)
_cell_length_c                   8.1439(16)
_cell_angle_alpha                90
_cell_angle_beta                 93.98(3)
_cell_angle_gamma                90
_cell_volume                     3085.93
_exptl_crystal_colour            colorless
_exptl_crystal_description       chunk
_cell_formula_units_Z            4
loop_
_atom_site_label
_atom_site_type_symbol
_atom_site_fract_x
_atom_site_fract_y
_atom_site_fract_z
Mg1 Mg 0.70692(6) 0.04992(2) 0.71869(8)
O1 O 0.55901(15) 0.08167(6) 0.7034(2)
O2 O 0.66600(17) 0.00427(6) 0.8787(2)
O3 O 0.76099(15) 0.08621(6) 0.9193(2)
O4 O 0.65046(15) 0.01069(6) 0.5332(2)
N1 N 0.88523(16) 0.02807(6) 0.7108(2)
N2 N 0.78385(16) 0.09050(5) 0.5350(2)
C1 C 0.9345(2) -0.00349(8) 0.7926(3)
C2 C 1.0501(3) -0.01169(10) 0.7949(3)
C3 C 1.1171(3) 0.01379(10) 0.7102(3)
C4 C 1.0686(2) 0.04765(8) 0.6202(3)
C5 C 1.1320(3) 0.07557(11) 0.5267(4)
C6 C 1.0811(3) 0.10643(11) 0.4381(4)
C7 C 0.9619(2) 0.11279(8) 0.4339(3)
C8 C 0.9027(3) 0.14328(9) 0.3397(4)
C9 C 0.7889(3) 0.14647(9) 0.3409(3)
C10 C 0.7314(3) 0.11965(8) 0.4417(3)
C11 C 0.89696(19) 0.08644(7) 0.5294(3)
C12 C 0.95163(19) 0.05315(7) 0.6239(3)
H1 H 0.882(2) -0.0209(8) 0.852(3)
H2 H 1.081(2) -0.0348(8) 0.857(3)
H3 H 1.200(3) 0.0099(9) 0.707(3)
H4 H 1.214(3) 0.0724(9) 0.525(4)
H5 H 1.126(3) 0.1241(9) 0.371(4)
H6 H 0.941(3) 0.1611(10) 0.276(4)
H7 H 0.737(3) 0.1693(11) 0.283(4)
H8 H 0.644(3) 0.1222(7) 0.449(3)
H21 H 0.534(3) 0.1021(10) 0.772(4)
H22 H 0.508(3) 0.0804(8) 0.627(4)
H23 H 0.662(3) -0.0260(10) 0.848(4)
H24 H 0.655(2) 0.0075(9) 0.973(4)
H25 H 0.789(3) 0.1068(11) 0.909(4)
H26 H 0.689(3) 0.0958(10) 0.980(4)
H27 H 0.632(3) 0.0179(10) 0.452(4)
H28 H 0.630(3) -0.0176(10) 0.549(3)
O5 O 0.51281(16) -0.14198(5) 1.09350(18)
O6 O 0.41741(15) -0.10391(5) 0.90160(19)
O7 O 0.65093(16) -0.07420(5) 0.81624(19)
O8 O 0.58977(14) -0.06891(5) 0.55439(18)
C25 C 0.54056(18) -0.15533(6) 0.8129(2)
C26 C 0.5331(2) -0.19863(7) 0.8127(3)
C27 C 0.5692(3) -0.22194(8) 0.6839(3)
C28 C 0.6142(2) -0.20222(8) 0.5537(3)
C29 C 0.6235(2) -0.15921(8) 0.5520(3)
C30 C 0.58809(18) -0.13549(6) 0.6818(2)
C31 C 0.4880(2) -0.13149(7) 0.9480(3)
C32 C 0.60982(18) -0.08931(6) 0.6848(2)
H17 H 0.506(2) -0.2122(8) 0.902(3)
H18 H 0.565(2) -0.2520(9) 0.685(3)
H19 H 0.634(2) -0.2178(8) 0.467(3)
H20 H 0.651(2) -0.1456(7) 0.467(3)
O9 O 0.40718(18) -0.02228(7) 0.8073(2)
H29 H 0.420(3) -0.0505(14) 0.828(5)
H30 H 0.472(5) -0.0135(15) 0.822(6)
N3 N 0.9931(2) 0.13409(6) 0.9046(3)
N4 N 0.79899(19) 0.17256(6) 0.7911(3)
C13 C 1.0905(4) 0.11662(10) 0.9596(4)
C14 C 1.1973(3) 0.13249(12) 0.9355(4)
C15 C 1.2058(3) 0.16827(11) 0.8520(4)
C16 C 1.1067(2) 0.18859(8) 0.7896(3)
C17 C 1.1090(3) 0.22689(10) 0.6999(4)
C18 C 1.0127(3) 0.24491(10) 0.6404(4)
C19 C 0.9050(2) 0.22725(8) 0.6665(3)
C20 C 0.8004(4) 0.24488(11) 0.6056(4)
C21 C 0.7018(3) 0.22618(12) 0.6366(5)
C22 C 0.7045(3) 0.19037(10) 0.7309(4)
C23 C 0.8982(2) 0.19027(7) 0.7572(3)
C24 C 1.0015(2) 0.17007(7) 0.8192(3)
H9 H 1.085(3) 0.0927(11) 1.018(4)
H10 H 1.276(3) 0.1145(11) 0.984(4)
H11 H 1.289(3) 0.1827(11) 0.837(4)
H12 H 1.198(3) 0.2399(11) 0.687(4)
H13 H 1.025(3) 0.2695(11) 0.583(4)
H14 H 0.805(3) 0.2682(11) 0.558(4)
H15 H 0.610(4) 0.2389(13) 0.596(5)
H16 H 0.614(3) 0.1765(11) 0.759(4)
loop_
_geom_bond_atom_site_label_1
_geom_bond_atom_site_label_2
_geom_bond_site_symmetry_1
_geom_bond_site_symmetry_2
Mg1 O1 1_555 1_555
O1 H21 1_555 1_555
O2 Mg1 1_555 1_555
O3 Mg1 1_555 1_555
O4 Mg1 1_555 1_555
O5 C31 1_555 1_555
O6 C31 1_555 1_555
O7 C32 1_555 1_555
O8 C32 1_555 1_555
O9 H29 1_555 1_555
N1 Mg1 1_555 1_555
N2 Mg1 1_555 1_555
N3 C13 1_555 1_555
N4 C22 1_555 1_555
C1 N1 1_555 1_555
C2 C1 1_555 1_555
C3 C2 1_555 1_555
C4 C3 1_555 1_555
C5 C4 1_555 1_555
C6 C5 1_555 1_555
C7 C6 1_555 1_555
C8 C7 1_555 1_555
C9 C8 1_555 1_555
C10 N2 1_555 1_555
C11 N2 1_555 1_555
C12 N1 1_555 1_555
C13 C14 1_555 1_555
C14 C15 1_555 1_555
C15 C16 1_555 1_555
C16 C17 1_555 1_555
C17 C18 1_555 1_555
C18 C19 1_555 1_555
C19 C20 1_555 1_555
C20 C21 1_555 1_555
C21 C22 1_555 1_555
C22 H16 1_555 1_555
C23 N4 1_555 1_555
C24 N3 1_555 1_555
C25 C26 1_555 1_555
C26 C27 1_555 1_555
C27 C28 1_555 1_555
C28 C29 1_555 1_555
C29 C30 1_555 1_555
C30 C25 1_555 1_555
C31 C25 1_555 1_555
C32 C30 1_555 1_555
H1 C1 1_555 1_555
H2 C2 1_555 1_555
H3 C3 1_555 1_555
H4 C5 1_555 1_555
H5 C6 1_555 1_555
H6 C8 1_555 1_555
H7 C9 1_555 1_555
H8 C10 1_555 1_555
H9 C13 1_555 1_555
H10 C14 1_555 1_555
H11 C15 1_555 1_555
H12 C17 1_555 1_555
H13 C18 1_555 1_555
H14 C20 1_555 1_555
H15 C21 1_555 1_555
H17 C26 1_555 1_555
H18 C27 1_555 1_555
H19 C28 1_555 1_555
H20 C29 1_555 1_555
H22 O1 1_555 1_555
H23 O2 1_555 1_555
H24 O2 1_555 1_555
H25 O3 1_555 1_555
H26 O3 1_555 1_555
H27 O4 1_555 1_555
H28 O4 1_555 1_555
H30 O9 1_555 1_555
C4 C12 1_555 1_555
C7 C11 1_555 1_555
C9 C10 1_555 1_555
C11 C12 1_555 1_555
C16 C24 1_555 1_555
C19 C23 1_555 1_555
C23 C24 1_555 1_555

#END
