
#######################################################################
#
#                 Cambridge Crystallographic Data Centre
#                                CCDC 
#
#######################################################################
#
# If this CIF has been generated from an entry in the Cambridge 
# Structural Database, then it will include bibliographic, chemical, 
# crystal, experimental, refinement or atomic coordinate data resulting 
# from the CCDC's data processing and validation procedures.
#
#######################################################################

data_FATXOP
_chemical_formula_moiety         'C108 F60'
_chemical_name_systematic        icosakis(Trifluoromethyl)-C88fullerene
_symmetry_cell_setting           triclinic
_symmetry_space_group_name_H-M   'P -1'
_symmetry_Int_Tables_number      2
_space_group_name_Hall           '-P 1'
loop_
_symmetry_equiv_pos_site_id
_symmetry_equiv_pos_as_xyz
1 x,y,z
2 -x,-y,-z
_cell_length_a                   16.3307(6)
_cell_length_b                   22.2730(10)
_cell_length_c                   22.8530(10)
_cell_angle_alpha                104.809(3)
_cell_angle_beta                 90.038(2)
_cell_angle_gamma                102.597(2)
_cell_volume                     7828.82
_exptl_crystal_colour            yellow
_exptl_crystal_description       block
_cell_formula_units_Z            4
loop_
_atom_site_label
_atom_site_type_symbol
_atom_site_fract_x
_atom_site_fract_y
_atom_site_fract_z
F1 F 0.4804(2) 0.0966(2) -0.33362(14)
F2 F 0.3950(2) 0.0502(2) -0.28138(16)
F3 F 0.3758(3) 0.1361(2) -0.30136(17)
F4 F 0.27915(19) 0.08234(19) -0.20829(16)
F5 F 0.25813(19) 0.06246(19) -0.12337(16)
F6 F 0.3300(2) 0.00878(19) -0.18635(17)
F7 F 0.38000(18) 0.05732(16) 0.04050(15)
F8 F 0.33143(19) 0.01751(17) -0.05119(17)
F9 F 0.28060(17) 0.09124(17) 0.00755(16)
F10 F 0.71815(19) 0.17465(18) 0.20817(14)
F11 F 0.5900(2) 0.1828(2) 0.20857(14)
F12 F 0.6199(2) 0.09575(18) 0.16236(15)
F13 F 0.7820(2) 0.09922(18) 0.13424(14)
F14 F 0.84298(19) 0.05394(17) 0.06029(15)
F15 F 0.9096(2) 0.14133(19) 0.12208(17)
F16 F 0.9803(2) 0.0619(2) -0.09475(16)
F17 F 0.97454(19) 0.08498(18) 0.00086(15)
F18 F 0.8781(2) 0.01086(18) -0.05517(17)
F19 F 0.8593(2) 0.05836(17) -0.26084(14)
F20 F 0.8836(2) 0.01847(17) -0.18976(16)
F21 F 0.97883(19) 0.09256(18) -0.21041(15)
F22 F 0.5876(2) 0.17436(19) -0.36983(14)
F23 F 0.7200(2) 0.1838(2) -0.36709(14)
F24 F 0.6410(3) 0.0957(2) -0.36464(15)
F25 F 0.2684(2) 0.29639(19) -0.07862(16)
F26 F 0.2577(2) 0.2161(2) -0.15604(17)
F27 F 0.3270(2) 0.3089(2) -0.1593(2)
F28 F 0.29389(19) 0.32352(17) 0.03508(16)
F29 F 0.25011(17) 0.22198(18) 0.01423(16)
F30 F 0.32144(19) 0.27290(19) 0.09748(15)
F31 F 0.6874(3) 0.3087(3) 0.24157(14)
F32 F 0.5668(2) 0.3279(3) 0.23542(15)
F33 F 0.6722(3) 0.4011(3) 0.23916(17)
F34 F 1.11066(17) 0.30115(19) -0.02175(16)
F35 F 1.07585(19) 0.2188(2) 0.01354(18)
F36 F 1.0598(2) 0.3104(3) 0.06508(16)
F37 F 1.04325(19) 0.27332(19) -0.21113(15)
F38 F 1.10122(18) 0.32587(18) -0.12397(15)
F39 F 1.08580(19) 0.22415(18) -0.15205(17)
F40 F 0.8295(3) 0.3266(3) -0.32220(18)
F41 F 0.6977(2) 0.3083(2) -0.33699(16)
F42 F 0.7698(3) 0.4004(2) -0.28880(19)
F43 F 0.4141(2) 0.40560(18) 0.11855(16)
F44 F 0.4388(2) 0.35342(18) 0.18104(16)
F45 F 0.5210(2) 0.44181(19) 0.18092(17)
F46 F 0.9080(2) 0.4591(2) 0.13839(18)
F47 F 0.8199(3) 0.4397(2) 0.20393(17)
F48 F 0.8144(2) 0.51400(19) 0.16128(19)
F49 F 0.9429(2) 0.44185(18) -0.21118(18)
F50 F 1.0289(2) 0.40592(19) -0.16681(18)
F51 F 0.9719(2) 0.35329(18) -0.25510(17)
F52 F 0.5653(2) 0.4574(2) -0.1602(2)
F53 F 0.6915(2) 0.51199(18) -0.1566(2)
F54 F 0.6413(3) 0.4371(2) -0.23536(19)
F55 F 0.5672(3) 0.5092(2) 0.1017(3)
F56 F 0.6335(3) 0.53648(19) 0.0300(2)
F57 F 0.6990(3) 0.5499(2) 0.1140(2)
F58 F 0.8271(3) 0.55001(19) -0.0897(2)
F59 F 0.9355(3) 0.5105(2) -0.0991(2)
F60 F 0.8870(3) 0.5370(2) -0.0133(2)
C1 C 0.6300(3) 0.0806(2) -0.0728(2)
C2 C 0.6226(3) 0.0799(2) -0.1363(2)
C3 C 0.5467(3) 0.0898(2) -0.1618(2)
C4 C 0.4756(3) 0.0920(2) -0.1243(2)
C5 C 0.4834(3) 0.0943(2) -0.0645(2)
C6 C 0.5596(3) 0.0884(2) -0.0370(2)
C7 C 0.5731(3) 0.1123(2) 0.0254(2)
C8 C 0.6527(3) 0.1279(2) 0.0553(2)
C9 C 0.7215(3) 0.1159(2) 0.0220(2)
C10 C 0.7114(3) 0.0911(2) -0.0425(2)
C11 C 0.7838(3) 0.0932(2) -0.0789(2)
C12 C 0.7772(3) 0.0952(2) -0.1374(2)
C13 C 0.6972(3) 0.0891(2) -0.1673(2)
C14 C 0.6985(3) 0.1128(2) -0.2185(2)
C15 C 0.6267(3) 0.1273(3) -0.2405(2)
C16 C 0.5523(3) 0.1150(2) -0.2138(2)
C17 C 0.4847(3) 0.1473(3) -0.2285(2)
C18 C 0.4276(3) 0.1616(3) -0.1764(2)
C19 C 0.3979(3) 0.1172(3) -0.1372(2)
C20 C 0.3858(3) 0.1548(3) -0.0722(2)
C21 C 0.4165(3) 0.1227(2) -0.0271(2)
C22 C 0.4589(3) 0.1725(2) 0.0291(2)
C23 C 0.5245(3) 0.1575(2) 0.0576(2)
C24 C 0.5754(3) 0.2016(2) 0.1043(2)
C25 C 0.6555(3) 0.1810(3) 0.1153(2)
C26 C 0.7306(3) 0.2353(3) 0.11464(19)
C27 C 0.8012(3) 0.2178(3) 0.0872(2)
C28 C 0.8073(3) 0.1497(3) 0.0536(2)
C29 C 0.8730(3) 0.1635(3) 0.0082(2)
C30 C 0.8760(3) 0.1187(3) -0.0528(2)
C31 C 0.9103(3) 0.1560(3) -0.0992(2)
C32 C 0.8614(3) 0.1243(3) -0.1603(2)
C33 C 0.8473(3) 0.1737(3) -0.1922(2)
C34 C 0.7732(3) 0.1576(2) -0.2283(2)
C35 C 0.7473(3) 0.2015(3) -0.2531(2)
C36 C 0.6552(3) 0.1802(3) -0.2744(2)
C37 C 0.6119(3) 0.2338(3) -0.2464(2)
C38 C 0.5309(3) 0.2158(3) -0.2285(2)
C39 C 0.4974(3) 0.2592(3) -0.1854(2)
C40 C 0.4305(3) 0.2232(3) -0.1573(2)
C41 C 0.3906(3) 0.2546(3) -0.1036(2)
C42 C 0.3800(2) 0.2150(3) -0.0573(2)
C43 C 0.3965(3) 0.2597(3) 0.0064(2)
C44 C 0.4509(3) 0.2359(2) 0.0460(2)
C45 C 0.5066(3) 0.2811(2) 0.0902(2)
C46 C 0.5692(3) 0.2638(3) 0.1195(2)
C47 C 0.6425(3) 0.3189(3) 0.1467(2)
C48 C 0.7237(3) 0.2990(3) 0.1226(2)
C49 C 0.7826(3) 0.3418(3) 0.0990(2)
C50 C 0.8504(3) 0.3216(3) 0.0671(2)
C51 C 0.8601(3) 0.2610(3) 0.0660(2)
C52 C 0.9061(3) 0.2248(3) 0.0203(2)
C53 C 0.9643(3) 0.2574(3) -0.0182(2)
C54 C 0.9516(3) 0.2171(3) -0.0842(2)
C55 C 0.9613(3) 0.2613(3) -0.1261(2)
C56 C 0.8932(3) 0.2368(3) -0.1773(2)
C57 C 0.8627(3) 0.2816(3) -0.1995(2)
C58 C 0.7905(3) 0.2635(3) -0.2375(2)
C59 C 0.7494(3) 0.3184(3) -0.2376(2)
C60 C 0.6555(3) 0.2979(3) -0.2232(2)
C61 C 0.6220(3) 0.3404(3) -0.1790(2)
C62 C 0.5420(3) 0.3199(3) -0.1571(2)
C63 C 0.5209(3) 0.3483(3) -0.0934(2)
C64 C 0.4532(3) 0.3142(3) -0.0681(2)
C65 C 0.4530(3) 0.3199(3) -0.0060(2)
C66 C 0.5166(3) 0.3616(3) 0.0334(2)
C67 C 0.5274(3) 0.3521(3) 0.0971(2)
C68 C 0.6207(3) 0.3694(3) 0.1188(2)
C69 C 0.6775(3) 0.4099(3) 0.0989(2)
C70 C 0.7706(3) 0.4070(3) 0.0992(2)
C71 C 0.7931(3) 0.4216(2) 0.0388(2)
C72 C 0.8542(3) 0.3952(3) 0.0000(2)
C73 C 0.8887(3) 0.3492(3) 0.0173(2)
C74 C 0.9364(3) 0.3158(3) -0.0245(2)
C75 C 0.9396(3) 0.3210(3) -0.0840(2)
C76 C 0.9005(3) 0.3635(3) -0.1025(2)
C77 C 0.8846(3) 0.3534(3) -0.1710(2)
C78 C 0.8003(3) 0.3688(3) -0.1848(2)
C79 C 0.7677(3) 0.4102(3) -0.1448(3)
C80 C 0.6721(3) 0.4061(3) -0.1471(3)
C81 C 0.6586(3) 0.4213(2) -0.0792(2)
C82 C 0.5818(3) 0.3942(3) -0.0535(2)
C83 C 0.5806(3) 0.4014(2) 0.0102(2)
C84 C 0.6565(3) 0.4435(3) 0.0521(3)
C85 C 0.7343(3) 0.4447(3) 0.0170(3)
C86 C 0.7310(3) 0.4442(3) -0.0455(3)
C87 C 0.8087(3) 0.4436(3) -0.0812(3)
C88 C 0.8596(3) 0.4018(3) -0.0601(2)
C89 C 0.4333(3) 0.1077(3) -0.2876(3)
C90 C 0.3157(3) 0.0661(3) -0.1646(3)
C91 C 0.3511(3) 0.0725(3) -0.0076(2)
C92 C 0.6471(3) 0.1586(3) 0.1742(2)
C93 C 0.8364(3) 0.1114(3) 0.0939(2)
C94 C 0.9277(3) 0.0679(3) -0.0502(2)
C95 C 0.8962(3) 0.0727(3) -0.2055(2)
C96 C 0.6494(3) 0.1578(3) -0.3450(2)
C97 C 0.3091(3) 0.2695(3) -0.1245(3)
C98 C 0.3135(3) 0.2702(3) 0.0387(3)
C99 C 0.6443(4) 0.3401(3) 0.2172(2)
C100 C 1.0549(3) 0.2717(3) 0.0098(2)
C101 C 1.0501(3) 0.2712(3) -0.1533(2)
C102 C 0.7589(4) 0.3386(3) -0.2976(3)
C103 C 0.4738(3) 0.3885(3) 0.1450(3)
C104 C 0.8291(3) 0.4561(3) 0.1518(3)
C105 C 0.9587(3) 0.3898(3) -0.2013(3)
C106 C 0.6434(4) 0.4546(3) -0.1746(3)
C107 C 0.6387(4) 0.5105(3) 0.0759(3)
C108 C 0.8655(4) 0.5118(3) -0.0711(3)
F61 F 0.4080(3) 0.1421(2) 0.1994(2)
F62 F 0.2802(4) 0.1028(4) 0.1668(3)
F63 F 0.3395(3) 0.0556(2) 0.21846(19)
F64 F 0.4719(4) 0.0858(3) 0.2918(3)
F65 F 0.3782(3) 0.0120(3) 0.3132(3)
F66 F 0.4813(4) 0.0657(3) 0.3768(2)
F67 F 0.3571(2) 0.05867(17) 0.54077(15)
F68 F 0.47558(18) 0.09247(17) 0.50712(17)
F69 F 0.3814(2) 0.01846(18) 0.45025(17)
F70 F 0.0828(2) 0.17184(18) 0.70596(13)
F71 F 0.2143(2) 0.1762(2) 0.70679(15)
F72 F 0.1301(3) 0.09148(19) 0.65952(16)
F73 F -0.0255(2) 0.0949(2) 0.63009(16)
F74 F -0.1296(2) 0.1343(2) 0.61579(18)
F75 F -0.1094(2) 0.04968(18) 0.55379(17)
F76 F -0.22324(18) 0.08143(17) 0.49684(16)
F77 F -0.24434(18) 0.06429(18) 0.40202(16)
F78 F -0.17311(19) 0.00869(17) 0.43588(18)
F79 F -0.21946(19) 0.09487(17) 0.28593(16)
F80 F -0.1206(2) 0.05987(17) 0.23650(14)
F81 F -0.17109(19) 0.01994(16) 0.30729(16)
F82 F 0.0927(7) 0.1890(4) 0.13397(19)
F83 F 0.2196(4) 0.1804(4) 0.1311(3)
F84 F 0.1209(6) 0.1004(4) 0.1358(3)
F85 F 0.60976(17) 0.30120(18) 0.42504(15)
F86 F 0.55965(19) 0.3133(2) 0.34437(17)
F87 F 0.5744(2) 0.2207(2) 0.34742(18)
F88 F 0.54032(17) 0.27185(18) 0.59943(14)
F89 F 0.58363(17) 0.22388(17) 0.51584(16)
F90 F 0.59883(17) 0.32541(16) 0.53925(16)
F91 F 0.1960(2) 0.3023(3) 0.74114(15)
F92 F 0.3262(2) 0.3264(3) 0.73643(16)
F93 F 0.2622(5) 0.3964(3) 0.74116(19)
F94 F -0.23245(18) 0.29751(18) 0.47580(15)
F95 F -0.1766(2) 0.3067(2) 0.56308(15)
F96 F -0.24571(19) 0.2150(2) 0.51028(19)
F97 F -0.25022(17) 0.22367(17) 0.34594(16)
F98 F -0.17782(18) 0.27445(17) 0.28789(14)
F99 F -0.20583(18) 0.32567(17) 0.37568(15)
F100 F 0.1937(3) 0.3161(2) 0.16653(16)
F101 F 0.0703(3) 0.3317(3) 0.1795(2)
F102 F 0.1705(3) 0.4054(2) 0.21503(18)
F103 F 0.4396(2) 0.44039(18) 0.68491(17)
F104 F 0.52601(18) 0.40447(18) 0.62280(16)
F105 F 0.4685(2) 0.35160(18) 0.68418(17)
F106 F 0.1892(2) 0.51085(19) 0.66472(18)
F107 F 0.0624(2) 0.4560(2) 0.64064(19)
F108 F 0.1379(3) 0.4359(2) 0.70535(16)
F109 F 0.02267(19) 0.44536(16) 0.29269(16)
F110 F -0.0862(2) 0.40630(18) 0.33421(17)
F111 F -0.0582(2) 0.35671(18) 0.24607(16)
F112 F 0.3212(3) 0.4429(2) 0.2698(2)
F113 F 0.3152(2) 0.51634(17) 0.3492(2)
F114 F 0.3862(3) 0.53680(19) 0.5356(2)
F115 F 0.3237(3) 0.5497(2) 0.6174(2)
F116 F 0.40872(19) 0.46191(19) 0.3449(2)
F117 F 0.4320(3) 0.5101(2) 0.6090(3)
F118 F 0.0671(3) 0.51147(19) 0.4064(2)
F119 F 0.1338(3) 0.53798(19) 0.4911(2)
F120 F 0.1991(3) 0.55134(19) 0.4140(3)
C109 C 0.1205(3) 0.0808(2) 0.4250(2)
C110 C 0.1287(3) 0.0814(2) 0.3623(2)
C111 C 0.2105(3) 0.0925(2) 0.3374(2)
C112 C 0.2830(3) 0.0943(2) 0.3755(2)
C113 C 0.2748(3) 0.0955(2) 0.4349(2)
C114 C 0.1238(3) 0.1262(2) 0.5534(2)
C115 C 0.1947(3) 0.1115(2) 0.5240(2)
C116 C 0.1946(3) 0.0885(2) 0.4607(2)
C117 C 0.0488(3) 0.1141(2) 0.5192(2)
C118 C 0.0447(3) 0.0904(2) 0.4551(2)
C119 C -0.0267(3) 0.0927(2) 0.4181(2)
C120 C -0.0173(3) 0.0956(2) 0.3599(2)
C121 C 0.0586(3) 0.0895(2) 0.3301(2)
C122 C 0.0729(3) 0.1145(2) 0.2797(2)
C123 C 0.1528(3) 0.1301(3) 0.2586(2)
C124 C 0.2212(3) 0.1180(2) 0.2858(2)
C125 C 0.3076(3) 0.1520(3) 0.2722(2)
C126 C 0.3727(3) 0.1658(3) 0.3250(2)
C127 C 0.3748(3) 0.1196(3) 0.3630(2)
C128 C 0.4086(3) 0.1563(2) 0.4285(2)
C129 C 0.3590(3) 0.1243(2) 0.4733(2)
C130 C 0.3446(3) 0.1728(2) 0.5295(2)
C131 C 0.2698(3) 0.1565(2) 0.5572(2)
C132 C 0.2434(3) 0.1997(2) 0.6041(2)
C133 C 0.0272(3) 0.2143(3) 0.5854(2)
C134 C 0.1081(3) 0.2322(2) 0.61307(19)
C135 C 0.1507(3) 0.1781(3) 0.6136(2)
C136 C -0.0181(3) 0.1469(3) 0.5506(2)
C137 C -0.0751(3) 0.1616(3) 0.5056(2)
C138 C -0.1046(3) 0.1170(3) 0.4435(2)
C139 C -0.1154(3) 0.1555(3) 0.3976(2)
C140 C -0.0842(3) 0.1248(2) 0.3371(2)
C141 C -0.0409(3) 0.1753(3) 0.3066(2)
C142 C 0.0241(3) 0.1599(2) 0.2701(2)
C143 C 0.0770(3) 0.2046(3) 0.2468(2)
C144 C 0.1571(3) 0.1847(3) 0.2263(2)
C145 C 0.2312(3) 0.2384(3) 0.2547(2)
C146 C 0.3019(3) 0.2201(3) 0.2727(2)
C147 C 0.4059(3) 0.2275(3) 0.3448(2)
C148 C 0.3608(3) 0.2635(3) 0.3167(2)
C149 C 0.4637(3) 0.2579(3) 0.3991(2)
C150 C 0.4503(3) 0.2174(3) 0.4446(2)
C151 C 0.4587(3) 0.2611(3) 0.5088(2)
C152 C 0.3899(3) 0.2361(2) 0.5473(2)
C153 C 0.3597(3) 0.2803(2) 0.5917(2)
C154 C 0.2867(3) 0.2622(3) 0.6205(2)
C155 C 0.2457(3) 0.3164(3) 0.6480(2)
C156 C 0.1521(3) 0.2961(3) 0.6225(2)
C157 C 0.1194(3) 0.3396(2) 0.6001(2)
C158 C 0.0395(3) 0.3194(3) 0.5668(2)
C159 C -0.0060(3) 0.2585(3) 0.5645(2)
C160 C -0.0719(3) 0.2229(3) 0.5180(2)
C161 C -0.1111(3) 0.2552(3) 0.4800(2)
C162 C -0.1213(3) 0.2160(3) 0.4137(2)
C163 C -0.1041(3) 0.2615(3) 0.3727(2)
C164 C -0.0491(3) 0.2377(2) 0.3216(2)
C165 C 0.0080(3) 0.2834(2) 0.3006(2)
C166 C 0.0701(3) 0.2661(2) 0.2631(2)
C167 C 0.1436(3) 0.3222(2) 0.2649(2)
C168 C 0.2254(3) 0.3015(3) 0.2786(2)
C169 C 0.2834(3) 0.3435(2) 0.3238(2)
C170 C 0.3507(3) 0.3235(3) 0.3463(2)
C171 C 0.3883(3) 0.3506(2) 0.4093(2)
C172 C 0.4359(3) 0.3165(2) 0.4349(2)
C173 C 0.4381(3) 0.3211(2) 0.4969(2)
C174 C 0.3977(3) 0.3628(2) 0.5373(2)
C175 C 0.3813(3) 0.3515(3) 0.5997(2)
C176 C 0.2975(3) 0.3680(3) 0.6211(2)
C177 C 0.2648(3) 0.4093(2) 0.6018(2)
C178 C 0.1701(3) 0.4053(3) 0.6014(2)
C179 C 0.1566(3) 0.4208(2) 0.5412(2)
C180 C 0.0800(3) 0.3941(2) 0.5013(2)
C181 C 0.0187(3) 0.3481(2) 0.5179(2)
C182 C -0.0484(3) 0.3146(2) 0.4751(2)
C183 C -0.0474(3) 0.3210(2) 0.4159(2)
C184 C 0.0168(3) 0.3638(2) 0.3982(2)
C185 C 0.0281(3) 0.3551(2) 0.3303(2)
C186 C 0.1214(3) 0.3719(2) 0.3176(2)
C187 C 0.1782(3) 0.4128(2) 0.3588(2)
C188 C 0.2713(3) 0.4094(3) 0.3569(2)
C189 C 0.2930(3) 0.4233(2) 0.4250(2)
C190 C 0.3539(3) 0.3959(2) 0.4505(2)
C191 C 0.3580(3) 0.4024(2) 0.5144(2)
C192 C 0.3066(3) 0.4438(2) 0.5560(2)
C193 C 0.2297(3) 0.4449(2) 0.5200(2)
C194 C 0.2337(3) 0.4458(2) 0.4580(2)
C195 C 0.1551(3) 0.4447(2) 0.4221(2)
C196 C 0.0800(3) 0.4026(2) 0.4420(2)
C197 C 0.3365(4) 0.1135(3) 0.2120(3)
C198 C 0.4255(3) 0.0683(3) 0.3345(3)
C199 C 0.3941(3) 0.0733(3) 0.4927(2)
C200 C 0.1434(3) 0.1532(3) 0.6721(2)
C201 C -0.0713(3) 0.1077(3) 0.5893(2)
C202 C -0.1865(3) 0.0662(3) 0.4445(3)
C203 C -0.1504(3) 0.0743(3) 0.2911(2)
C204 C 0.1495(4) 0.1620(3) 0.1556(2)
C205 C 0.5537(3) 0.2733(3) 0.3788(3)
C206 C 0.5473(3) 0.2714(3) 0.5414(3)
C207 C 0.2543(4) 0.3356(3) 0.7181(2)
C208 C -0.1935(3) 0.2682(3) 0.5072(2)
C209 C -0.1867(3) 0.2719(3) 0.3458(2)
C210 C 0.1472(3) 0.3437(3) 0.2048(3)
C211 C 0.4560(3) 0.3883(3) 0.6490(3)
C212 C 0.1398(3) 0.4533(3) 0.6537(3)
C213 C -0.0244(3) 0.3917(3) 0.3003(3)
C214 C 0.3289(3) 0.4596(3) 0.3307(3)
C215 C 0.3627(4) 0.5112(3) 0.5812(3)
C216 C 0.1394(3) 0.5124(3) 0.4323(3)
F121? F 0.4155(14) 0.0969(14) 0.2178(9)
F122? F 0.3652(16) 0.1569(12) 0.1737(9)
F123? F 0.2911(19) 0.0682(16) 0.1730(12)
F124? F 0.432(3) 0.0291(15) 0.3674(13)
F125? F 0.3749(15) 0.0250(15) 0.2830(18)
F126? F 0.5007(17) 0.0910(15) 0.3158(15)
F127? F 0.223(2) 0.148(3) 0.1315(13)
F128? F 0.094(3) 0.117(2) 0.1372(14)
F129? F 0.140(3) 0.2047(12) 0.1304(8)
loop_
_geom_bond_atom_site_label_1
_geom_bond_atom_site_label_2
_geom_bond_site_symmetry_1
_geom_bond_site_symmetry_2
F1 C89 1_555 1_555
F2 C89 1_555 1_555
F3 C89 1_555 1_555
F4 C90 1_555 1_555
F5 C90 1_555 1_555
F6 C90 1_555 1_555
F7 C91 1_555 1_555
F8 C91 1_555 1_555
F9 C91 1_555 1_555
F10 C92 1_555 1_555
F11 C92 1_555 1_555
F12 C92 1_555 1_555
F13 C93 1_555 1_555
F14 C93 1_555 1_555
F15 C93 1_555 1_555
F16 C94 1_555 1_555
F17 C94 1_555 1_555
F18 C94 1_555 1_555
F19 C95 1_555 1_555
F20 C95 1_555 1_555
F21 C95 1_555 1_555
F22 C96 1_555 1_555
F23 C96 1_555 1_555
F24 C96 1_555 1_555
F25 C97 1_555 1_555
F26 C97 1_555 1_555
F27 C97 1_555 1_555
F28 C98 1_555 1_555
F29 C98 1_555 1_555
F30 C98 1_555 1_555
F31 C99 1_555 1_555
F32 C99 1_555 1_555
F33 C99 1_555 1_555
F34 C100 1_555 1_555
F35 C100 1_555 1_555
F36 C100 1_555 1_555
F37 C101 1_555 1_555
F38 C101 1_555 1_555
F39 C101 1_555 1_555
F40 C102 1_555 1_555
F41 C102 1_555 1_555
F42 C102 1_555 1_555
F43 C103 1_555 1_555
F44 C103 1_555 1_555
F45 C103 1_555 1_555
F46 C104 1_555 1_555
F47 C104 1_555 1_555
F48 C104 1_555 1_555
F49 C105 1_555 1_555
F50 C105 1_555 1_555
F51 C105 1_555 1_555
F52 C106 1_555 1_555
F53 C106 1_555 1_555
F54 C106 1_555 1_555
F55 C107 1_555 1_555
F56 C107 1_555 1_555
F57 C107 1_555 1_555
F58 C108 1_555 1_555
F59 C108 1_555 1_555
F60 C108 1_555 1_555
F61 C197 1_555 1_555
F62 C197 1_555 1_555
F63 C197 1_555 1_555
F64 C198 1_555 1_555
F65 C198 1_555 1_555
F66 C198 1_555 1_555
F67 C199 1_555 1_555
F68 C199 1_555 1_555
F69 C199 1_555 1_555
F70 C200 1_555 1_555
F71 C200 1_555 1_555
F72 C200 1_555 1_555
F73 C201 1_555 1_555
F74 C201 1_555 1_555
F75 C201 1_555 1_555
F76 C202 1_555 1_555
F77 C202 1_555 1_555
F78 C202 1_555 1_555
F79 C203 1_555 1_555
F80 C203 1_555 1_555
F81 C203 1_555 1_555
F82 C204 1_555 1_555
F83 C204 1_555 1_555
F84 C204 1_555 1_555
F85 C205 1_555 1_555
F86 C205 1_555 1_555
F87 C205 1_555 1_555
F88 C206 1_555 1_555
F89 C206 1_555 1_555
F90 C206 1_555 1_555
F91 C207 1_555 1_555
F92 C207 1_555 1_555
F93 C207 1_555 1_555
F94 C208 1_555 1_555
F95 C208 1_555 1_555
F96 C208 1_555 1_555
F97 C209 1_555 1_555
F98 C209 1_555 1_555
F99 C209 1_555 1_555
F100 C210 1_555 1_555
F101 C210 1_555 1_555
F102 C210 1_555 1_555
F103 C211 1_555 1_555
F104 C211 1_555 1_555
F105 C211 1_555 1_555
F106 C212 1_555 1_555
F107 C212 1_555 1_555
F108 C212 1_555 1_555
F109 C213 1_555 1_555
F110 C213 1_555 1_555
F111 C213 1_555 1_555
F112 C214 1_555 1_555
F113 C214 1_555 1_555
F114 C215 1_555 1_555
F115 C215 1_555 1_555
F116 C214 1_555 1_555
F117 C215 1_555 1_555
F118 C216 1_555 1_555
F119 C216 1_555 1_555
F120 C216 1_555 1_555
C1 C2 1_555 1_555
C2 C3 1_555 1_555
C3 C4 1_555 1_555
C4 C5 1_555 1_555
C5 C6 1_555 1_555
C6 C1 1_555 1_555
C7 C6 1_555 1_555
C8 C7 1_555 1_555
C9 C8 1_555 1_555
C10 C1 1_555 1_555
C11 C10 1_555 1_555
C12 C11 1_555 1_555
C13 C2 1_555 1_555
C14 C13 1_555 1_555
C15 C14 1_555 1_555
C16 C3 1_555 1_555
C17 C16 1_555 1_555
C18 C17 1_555 1_555
C19 C4 1_555 1_555
C20 C19 1_555 1_555
C21 C5 1_555 1_555
C22 C21 1_555 1_555
C23 C7 1_555 1_555
C24 C23 1_555 1_555
C25 C8 1_555 1_555
C26 C25 1_555 1_555
C27 C26 1_555 1_555
C28 C9 1_555 1_555
C29 C28 1_555 1_555
C30 C11 1_555 1_555
C31 C30 1_555 1_555
C32 C12 1_555 1_555
C33 C32 1_555 1_555
C34 C14 1_555 1_555
C35 C34 1_555 1_555
C36 C15 1_555 1_555
C37 C36 1_555 1_555
C38 C17 1_555 1_555
C39 C38 1_555 1_555
C40 C18 1_555 1_555
C41 C40 1_555 1_555
C42 C20 1_555 1_555
C43 C42 1_555 1_555
C44 C22 1_555 1_555
C45 C44 1_555 1_555
C46 C24 1_555 1_555
C47 C46 1_555 1_555
C48 C26 1_555 1_555
C49 C48 1_555 1_555
C50 C49 1_555 1_555
C51 C27 1_555 1_555
C52 C29 1_555 1_555
C53 C52 1_555 1_555
C54 C31 1_555 1_555
C55 C54 1_555 1_555
C56 C33 1_555 1_555
C57 C56 1_555 1_555
C58 C35 1_555 1_555
C59 C58 1_555 1_555
C60 C37 1_555 1_555
C61 C60 1_555 1_555
C62 C39 1_555 1_555
C63 C62 1_555 1_555
C64 C41 1_555 1_555
C65 C43 1_555 1_555
C66 C65 1_555 1_555
C67 C45 1_555 1_555
C68 C47 1_555 1_555
C69 C68 1_555 1_555
C70 C49 1_555 1_555
C71 C70 1_555 1_555
C72 C71 1_555 1_555
C73 C50 1_555 1_555
C74 C53 1_555 1_555
C75 C55 1_555 1_555
C76 C75 1_555 1_555
C77 C57 1_555 1_555
C78 C59 1_555 1_555
C79 C78 1_555 1_555
C80 C61 1_555 1_555
C81 C80 1_555 1_555
C82 C63 1_555 1_555
C83 C66 1_555 1_555
C84 C69 1_555 1_555
C85 C71 1_555 1_555
C86 C81 1_555 1_555
C87 C79 1_555 1_555
C88 C72 1_555 1_555
C89 C17 1_555 1_555
C90 C19 1_555 1_555
C91 C21 1_555 1_555
C92 C25 1_555 1_555
C93 C28 1_555 1_555
C94 C30 1_555 1_555
C95 C32 1_555 1_555
C96 C36 1_555 1_555
C97 C41 1_555 1_555
C98 C43 1_555 1_555
C99 C47 1_555 1_555
C100 C53 1_555 1_555
C101 C55 1_555 1_555
C102 C59 1_555 1_555
C103 C67 1_555 1_555
C104 C70 1_555 1_555
C105 C77 1_555 1_555
C106 C80 1_555 1_555
C107 C84 1_555 1_555
C108 C87 1_555 1_555
C109 C110 1_555 1_555
C110 C111 1_555 1_555
C111 C112 1_555 1_555
C112 C113 1_555 1_555
C113 C116 1_555 1_555
C114 C115 1_555 1_555
C115 C116 1_555 1_555
C116 C109 1_555 1_555
C117 C114 1_555 1_555
C118 C109 1_555 1_555
C119 C118 1_555 1_555
C120 C119 1_555 1_555
C121 C110 1_555 1_555
C122 C121 1_555 1_555
C123 C122 1_555 1_555
C124 C111 1_555 1_555
C125 C124 1_555 1_555
C126 C125 1_555 1_555
C127 C112 1_555 1_555
C128 C127 1_555 1_555
C129 C113 1_555 1_555
C130 C129 1_555 1_555
C131 C115 1_555 1_555
C132 C131 1_555 1_555
C133 C134 1_555 1_555
C134 C135 1_555 1_555
C135 C114 1_555 1_555
C136 C117 1_555 1_555
C137 C136 1_555 1_555
C138 C119 1_555 1_555
C139 C138 1_555 1_555
C140 C120 1_555 1_555
C141 C140 1_555 1_555
C142 C122 1_555 1_555
C143 C142 1_555 1_555
C144 C123 1_555 1_555
C145 C144 1_555 1_555
C146 C125 1_555 1_555
C147 C126 1_555 1_555
C148 C146 1_555 1_555
C149 C147 1_555 1_555
C150 C128 1_555 1_555
C151 C150 1_555 1_555
C152 C130 1_555 1_555
C153 C152 1_555 1_555
C154 C132 1_555 1_555
C155 C154 1_555 1_555
C156 C134 1_555 1_555
C157 C156 1_555 1_555
C158 C157 1_555 1_555
C159 C133 1_555 1_555
C160 C137 1_555 1_555
C161 C160 1_555 1_555
C162 C139 1_555 1_555
C163 C162 1_555 1_555
C164 C141 1_555 1_555
C165 C164 1_555 1_555
C166 C143 1_555 1_555
C167 C166 1_555 1_555
C168 C145 1_555 1_555
C169 C168 1_555 1_555
C170 C148 1_555 1_555
C171 C170 1_555 1_555
C172 C149 1_555 1_555
C173 C151 1_555 1_555
C174 C173 1_555 1_555
C175 C153 1_555 1_555
C176 C155 1_555 1_555
C177 C176 1_555 1_555
C178 C157 1_555 1_555
C179 C178 1_555 1_555
C180 C179 1_555 1_555
C181 C158 1_555 1_555
C182 C161 1_555 1_555
C183 C163 1_555 1_555
C184 C183 1_555 1_555
C185 C165 1_555 1_555
C186 C167 1_555 1_555
C187 C186 1_555 1_555
C188 C169 1_555 1_555
C189 C188 1_555 1_555
C190 C171 1_555 1_555
C191 C174 1_555 1_555
C192 C177 1_555 1_555
C193 C179 1_555 1_555
C194 C189 1_555 1_555
C195 C187 1_555 1_555
C196 C180 1_555 1_555
C197 C125 1_555 1_555
C198 C127 1_555 1_555
C199 C129 1_555 1_555
C200 C135 1_555 1_555
C201 C136 1_555 1_555
C202 C138 1_555 1_555
C203 C140 1_555 1_555
C204 C144 1_555 1_555
C205 C149 1_555 1_555
C206 C151 1_555 1_555
C207 C155 1_555 1_555
C208 C161 1_555 1_555
C209 C163 1_555 1_555
C210 C167 1_555 1_555
C211 C175 1_555 1_555
C212 C178 1_555 1_555
C213 C185 1_555 1_555
C214 C188 1_555 1_555
C215 C192 1_555 1_555
C216 C195 1_555 1_555
C9 C10 1_555 1_555
C12 C13 1_555 1_555
C15 C16 1_555 1_555
C18 C19 1_555 1_555
C20 C21 1_555 1_555
C22 C23 1_555 1_555
C24 C25 1_555 1_555
C27 C28 1_555 1_555
C29 C30 1_555 1_555
C31 C32 1_555 1_555
C33 C34 1_555 1_555
C35 C36 1_555 1_555
C37 C38 1_555 1_555
C39 C40 1_555 1_555
C41 C42 1_555 1_555
C43 C44 1_555 1_555
C45 C46 1_555 1_555
C47 C48 1_555 1_555
C50 C51 1_555 1_555
C51 C52 1_555 1_555
C53 C54 1_555 1_555
C55 C56 1_555 1_555
C57 C58 1_555 1_555
C59 C60 1_555 1_555
C61 C62 1_555 1_555
C63 C64 1_555 1_555
C64 C65 1_555 1_555
C66 C67 1_555 1_555
C67 C68 1_555 1_555
C69 C70 1_555 1_555
C72 C73 1_555 1_555
C73 C74 1_555 1_555
C74 C75 1_555 1_555
C76 C77 1_555 1_555
C76 C88 1_555 1_555
C77 C78 1_555 1_555
C79 C80 1_555 1_555
C81 C82 1_555 1_555
C82 C83 1_555 1_555
C83 C84 1_555 1_555
C84 C85 1_555 1_555
C85 C86 1_555 1_555
C86 C87 1_555 1_555
C87 C88 1_555 1_555
C117 C118 1_555 1_555
C120 C121 1_555 1_555
C123 C124 1_555 1_555
C126 C127 1_555 1_555
C128 C129 1_555 1_555
C130 C131 1_555 1_555
C132 C135 1_555 1_555
C133 C136 1_555 1_555
C137 C138 1_555 1_555
C139 C140 1_555 1_555
C141 C142 1_555 1_555
C143 C144 1_555 1_555
C145 C146 1_555 1_555
C147 C148 1_555 1_555
C149 C150 1_555 1_555
C151 C152 1_555 1_555
C153 C154 1_555 1_555
C155 C156 1_555 1_555
C158 C159 1_555 1_555
C159 C160 1_555 1_555
C161 C162 1_555 1_555
C163 C164 1_555 1_555
C165 C166 1_555 1_555
C167 C168 1_555 1_555
C169 C170 1_555 1_555
C171 C172 1_555 1_555
C172 C173 1_555 1_555
C174 C175 1_555 1_555
C175 C176 1_555 1_555
C177 C178 1_555 1_555
C180 C181 1_555 1_555
C181 C182 1_555 1_555
C182 C183 1_555 1_555
C184 C185 1_555 1_555
C184 C196 1_555 1_555
C185 C186 1_555 1_555
C187 C188 1_555 1_555
C189 C190 1_555 1_555
C190 C191 1_555 1_555
C191 C192 1_555 1_555
C192 C193 1_555 1_555
C193 C194 1_555 1_555
C194 C195 1_555 1_555
C195 C196 1_555 1_555

#END
