
#######################################################################
#
#                 Cambridge Crystallographic Data Centre
#                                CCDC 
#
#######################################################################
#
# If this CIF has been generated from an entry in the Cambridge 
# Structural Database, then it will include bibliographic, chemical, 
# crystal, experimental, refinement or atomic coordinate data resulting 
# from the CCDC's data processing and validation procedures.
#
#######################################################################

data_FATXIJ
_chemical_formula_moiety         'C106 F54,1.5(C7 H8)'
_chemical_name_systematic        
'octadecakis(Trifluoromethyl)-C88fullerene toluene solvate'
_symmetry_cell_setting           triclinic
_symmetry_space_group_name_H-M   'P -1'
_symmetry_Int_Tables_number      2
_space_group_name_Hall           '-P 1'
loop_
_symmetry_equiv_pos_site_id
_symmetry_equiv_pos_as_xyz
1 x,y,z
2 -x,-y,-z
_cell_length_a                   13.6318(6)
_cell_length_b                   13.8220(6)
_cell_length_c                   22.8880(10)
_cell_angle_alpha                86.149(2)
_cell_angle_beta                 85.841(2)
_cell_angle_gamma                74.468(2)
_cell_volume                     4138.98
_exptl_crystal_colour            yellow
_exptl_crystal_description       plate
_cell_formula_units_Z            2
loop_
_atom_site_label
_atom_site_type_symbol
_atom_site_fract_x
_atom_site_fract_y
_atom_site_fract_z
F1 F 0.64888(17) 0.87201(15) 0.14640(10)
F2 F 0.65360(19) 0.79602(17) 0.06752(10)
F3 F 0.79001(17) 0.82563(16) 0.09416(10)
F4 F 0.78967(17) 0.89188(16) 0.21185(10)
F5 F 0.64827(16) 0.90454(16) 0.26361(10)
F6 F 0.79043(18) 0.87950(17) 0.30492(10)
F7 F 0.68095(17) 0.82632(16) 0.38866(10)
F8 F 0.71649(17) 0.71077(17) 0.45672(9)
F9 F 0.83541(16) 0.77138(18) 0.41591(10)
F10 F 0.65994(17) 0.26664(17) 0.53583(9)
F11 F 0.76182(18) 0.3555(2) 0.54892(9)
F12 F 0.60467(18) 0.42814(18) 0.53854(9)
F13 F 0.48114(16) 0.3338(2) 0.49661(9)
F14 F 0.36812(15) 0.3634(2) 0.43383(9)
F15 F 0.4510(2) 0.21172(19) 0.45530(12)
F16 F 0.25599(14) 0.44038(18) 0.22730(9)
F17 F 0.30053(14) 0.52838(16) 0.15348(9)
F18 F 0.30165(15) 0.37403(17) 0.14405(10)
F19 F 0.67681(15) 0.66954(16) -0.00886(9)
F20 F 0.52373(16) 0.70325(17) 0.03104(9)
F21 F 0.58365(17) 0.56963(18) -0.01637(9)
F22 F 1.08615(17) 0.66034(19) 0.15490(9)
F23 F 1.13664(16) 0.64633(18) 0.24232(10)
F24 F 1.01380(17) 0.77246(17) 0.21644(11)
F25 F 1.06498(19) 0.5722(2) 0.42308(10)
F26 F 1.05976(18) 0.68642(18) 0.35605(11)
F27 F 1.16959(16) 0.5438(2) 0.34828(12)
F28 F 1.01333(19) 0.2309(2) 0.50785(11)
F29 F 0.88110(18) 0.1763(2) 0.51675(10)
F30 F 1.0146(2) 0.09439(19) 0.47014(11)
F31 F 0.50594(18) 0.05385(17) 0.16354(11)
F32 F 0.41071(16) 0.18826(18) 0.12511(11)
F33 F 0.54891(19) 0.1109(2) 0.07930(10)
F34 F 0.78690(19) 0.47223(17) -0.04147(9)
F35 F 0.8980(2) 0.3302(3) -0.03861(10)
F36 F 0.7424(2) 0.33715(19) -0.04774(9)
F37 F 1.22193(17) 0.3359(2) 0.36714(11)
F38 F 1.13470(18) 0.3686(2) 0.44788(11)
F39 F 1.18499(18) 0.21900(19) 0.42200(12)
F40 F 1.0842(9) -0.0248(9) 0.3742(3)
F41 F 0.9314(5) -0.0334(8) 0.3961(5)
F42 F 1.0005(13) -0.0740(15) 0.3131(8)
F43 F 0.66785(15) 0.17389(16) -0.00076(9)
F44 F 0.74763(17) 0.04316(16) 0.05053(9)
F45 F 0.83081(16) 0.12863(16) -0.00519(9)
F46 F 1.1422(10) 0.3439(12) 0.0751(3)
F47 F 1.0481(8) 0.3542(16) 0.0051(5)
F48 F 1.1253(10) 0.2121(5) 0.0390(7)
F49 F 1.23563(17) 0.1403(2) 0.21832(11)
F50 F 1.24750(18) 0.1559(2) 0.30953(12)
F51 F 1.20710(19) 0.02844(19) 0.28124(14)
F52 F 1.03876(19) -0.03010(17) 0.15134(10)
F53 F 1.09779(18) 0.05029(19) 0.08019(12)
F54 F 0.95865(18) 0.00947(18) 0.07214(11)
C1 C 0.5472(2) 0.5682(2) 0.31908(14)
C2 C 0.5426(2) 0.6063(2) 0.25852(14)
C3 C 0.6107(2) 0.6659(2) 0.23524(14)
C4 C 0.6724(2) 0.6961(2) 0.27532(14)
C5 C 0.6776(2) 0.6573(2) 0.33185(14)
C6 C 0.6169(2) 0.5925(2) 0.35468(13)
C7 C 0.6528(2) 0.5287(2) 0.40356(13)
C8 C 0.6204(2) 0.4421(3) 0.41837(13)
C9 C 0.5479(2) 0.4197(3) 0.38685(14)
C10 C 0.5076(2) 0.4838(3) 0.33801(14)
C11 C 0.4544(2) 0.4468(3) 0.29648(14)
C12 C 0.4498(2) 0.4826(2) 0.23899(14)
C13 C 0.4944(2) 0.5613(2) 0.21875(14)
C14 C 0.5234(2) 0.5658(2) 0.15858(14)
C15 C 0.5946(2) 0.6171(2) 0.13658(13)
C16 C 0.6357(2) 0.6686(2) 0.17344(14)
C17 C 0.7315(2) 0.6984(2) 0.14966(14)
C18 C 0.8015(2) 0.7019(2) 0.19801(14)
C19 C 0.7639(2) 0.7384(3) 0.25731(14)
C20 C 0.8369(2) 0.6836(3) 0.30445(14)
C21 C 0.7755(2) 0.6632(3) 0.35977(15)
C22 C 0.8253(2) 0.5612(3) 0.38941(14)
C23 C 0.7589(2) 0.5108(3) 0.41832(14)
C24 C 0.7926(2) 0.4121(3) 0.43986(13)
C25 C 0.7045(2) 0.3641(3) 0.45200(14)
C26 C 0.7284(3) 0.2659(3) 0.42086(14)
C27 C 0.6474(2) 0.2413(3) 0.39894(14)
C28 C 0.5374(2) 0.3118(3) 0.39534(14)
C29 C 0.5040(2) 0.2767(3) 0.34118(14)
C30 C 0.4525(2) 0.3419(3) 0.29896(14)
C31 C 0.4536(2) 0.3114(3) 0.24033(14)
C32 C 0.4319(2) 0.4045(3) 0.19921(14)
C33 C 0.5077(2) 0.3909(3) 0.14607(14)
C34 C 0.5337(2) 0.4777(2) 0.12423(13)
C35 C 0.6142(2) 0.4739(3) 0.08299(13)
C36 C 0.6470(2) 0.5699(2) 0.07847(13)
C37 C 0.7629(2) 0.5448(3) 0.08474(13)
C38 C 0.7984(2) 0.6088(2) 0.11520(13)
C39 C 0.8938(2) 0.5769(3) 0.14003(14)
C40 C 0.8934(2) 0.6400(3) 0.18805(14)
C41 C 0.9762(2) 0.6150(3) 0.22961(14)
C42 C 0.9325(2) 0.6311(3) 0.29239(14)
C43 C 0.9953(2) 0.5491(3) 0.33342(15)
C44 C 0.9264(2) 0.5078(3) 0.37758(14)
C45 C 0.9579(2) 0.4059(3) 0.39632(14)
C46 C 0.8910(2) 0.3586(3) 0.42737(13)
C47 C 0.9211(3) 0.2451(3) 0.42261(14)
C48 C 0.8298(3) 0.2136(3) 0.40149(14)
C49 C 0.8456(3) 0.1465(3) 0.35633(14)
C50 C 0.7618(3) 0.1288(3) 0.32907(15)
C51 C 0.6644(3) 0.1701(3) 0.35479(14)
C52 C 0.5737(2) 0.1864(2) 0.32307(14)
C53 C 0.5805(2) 0.1609(2) 0.26590(14)
C54 C 0.5154(2) 0.2213(3) 0.22395(14)
C55 C 0.5646(2) 0.1992(3) 0.16216(14)
C56 C 0.5697(2) 0.2968(2) 0.12829(13)
C57 C 0.6540(2) 0.2943(3) 0.08939(13)
C58 C 0.6753(2) 0.3824(3) 0.06639(13)
C59 C 0.7868(2) 0.3698(2) 0.04609(13)
C60 C 0.8277(2) 0.4459(2) 0.07482(13)
C61 C 0.9222(2) 0.4147(3) 0.10131(13)
C62 C 0.9540(2) 0.4783(3) 0.13717(14)
C63 C 1.0206(2) 0.4389(3) 0.18761(14)
C64 C 1.0230(2) 0.5019(3) 0.23229(15)
C65 C 1.0395(2) 0.4659(3) 0.28995(15)
C66 C 1.0605(2) 0.3621(3) 0.30434(15)
C67 C 1.0488(2) 0.3288(3) 0.36918(15)
C68 C 1.0074(2) 0.2350(3) 0.37527(15)
C69 C 1.0228(2) 0.1695(3) 0.33423(15)
C70 C 0.9524(2) 0.1024(3) 0.32864(14)
C71 C 0.9482(2) 0.1053(2) 0.26195(15)
C72 C 0.8598(2) 0.1011(2) 0.23180(15)
C73 C 0.7693(3) 0.1033(2) 0.26679(14)
C74 C 0.6792(2) 0.1191(2) 0.23742(14)
C75 C 0.6756(2) 0.1424(2) 0.17648(14)
C76 C 0.7624(2) 0.1480(2) 0.14297(14)
C77 C 0.7491(2) 0.2047(3) 0.08312(14)
C78 C 0.8315(2) 0.2621(3) 0.07023(14)
C79 C 0.9226(2) 0.2328(3) 0.09219(14)
C80 C 0.9865(2) 0.3062(3) 0.09867(14)
C81 C 1.0284(2) 0.2692(3) 0.15870(14)
C82 C 1.0490(2) 0.3343(3) 0.20102(14)
C83 C 1.0689(2) 0.2964(3) 0.25981(15)
C84 C 1.0808(2) 0.1838(3) 0.27542(15)
C85 C 1.0212(2) 0.1442(3) 0.23518(15)
C86 C 1.0137(2) 0.1790(3) 0.17504(14)
C87 C 0.9515(2) 0.1415(3) 0.13571(14)
C88 C 0.8555(2) 0.1237(2) 0.17041(14)
C89 C 0.7063(3) 0.7994(3) 0.11376(15)
C90 C 0.7466(3) 0.8554(3) 0.25938(16)
C91 C 0.7521(3) 0.7444(3) 0.40557(15)
C92 C 0.6818(3) 0.3533(3) 0.51991(15)
C93 C 0.4595(3) 0.3043(3) 0.44649(15)
C94 C 0.3208(2) 0.4363(3) 0.18004(15)
C95 C 0.6079(2) 0.6299(3) 0.02010(15)
C96 C 1.0544(3) 0.6746(3) 0.21065(16)
C97 C 1.0744(3) 0.5880(3) 0.36525(16)
C98 C 0.9585(3) 0.1857(3) 0.48030(16)
C99 C 0.5073(3) 0.1377(3) 0.13182(15)
C100 C 0.8034(3) 0.3778(3) -0.02171(15)
C101 C 1.1499(3) 0.3126(3) 0.40224(16)
C102 C 0.9927(3) -0.0096(3) 0.35303(17)
C103 C 0.7486(3) 0.1359(3) 0.03143(15)
C104 C 1.0773(3) 0.3018(3) 0.05195(15)
C105 C 1.1948(3) 0.1261(3) 0.27141(17)
C106 C 1.0125(3) 0.0412(3) 0.10900(16)
C107 C 0.3592(3) 0.8353(4) 0.2025(2)
C108 C 0.4222(3) 0.8729(3) 0.2339(2)
H1 H 0.4655 0.9096 0.2140
C109 C 0.4228(4) 0.8575(4) 0.2943(2)
H2 H 0.4654 0.8837 0.3163
C110 C 0.3580(5) 0.8018(4) 0.3221(2)
H3 H 0.3566 0.7897 0.3635
C111 C 0.2980(4) 0.7657(4) 0.2895(3)
H4 H 0.2545 0.7282 0.3082
C112 C 0.2989(4) 0.7822(5) 0.2313(3)
H5 H 0.2561 0.7558 0.2096
C113 C 0.3570(5) 0.8563(6) 0.1374(3)
H6 H 0.3276 0.8083 0.1200
H7 H 0.4267 0.8493 0.1206
H8 H 0.3154 0.9248 0.1289
C114? C 0.508(2) 0.005(2) 0.5145(7)
C115? C 0.5782(15) 0.0010(12) 0.4654(8)
H9? H 0.5574 -0.0023 0.4270
C116? C 0.6782(12) 0.0021(10) 0.4737(9)
H10? H 0.7260 -0.0013 0.4411
C117? C 0.7075(13) 0.0082(11) 0.5293(10)
H11? H 0.7746 0.0122 0.5350
C118? C 0.6370(16) 0.0086(12) 0.5785(7)
H12? H 0.6575 0.0082 0.6173
C119? C 0.5359(14) 0.0096(9) 0.5680(6)
H13? H 0.4870 0.0137 0.6001
C120? C 0.3940(18) 0.0048(17) 0.5005(11)
H14? H 0.3640 -0.0293 0.5332
H15? H 0.3961 -0.0306 0.4645
H16? H 0.3524 0.0743 0.4952
F55? F 0.9670(14) -0.0702(15) 0.3211(9)
F56? F 1.0914(11) -0.0397(12) 0.3511(6)
F57? F 0.9621(9) -0.0226(11) 0.4069(6)
F58? F 1.0815(15) 0.2322(15) 0.0134(8)
F59? F 1.1663(6) 0.280(2) 0.0755(3)
F60? F 1.0695(16) 0.3853(10) 0.0186(9)
loop_
_geom_bond_atom_site_label_1
_geom_bond_atom_site_label_2
_geom_bond_site_symmetry_1
_geom_bond_site_symmetry_2
F1 C89 1_555 1_555
F2 C89 1_555 1_555
F3 C89 1_555 1_555
F4 C90 1_555 1_555
F5 C90 1_555 1_555
F6 C90 1_555 1_555
F7 C91 1_555 1_555
F8 C91 1_555 1_555
F9 C91 1_555 1_555
F10 C92 1_555 1_555
F11 C92 1_555 1_555
F12 C92 1_555 1_555
F13 C93 1_555 1_555
F14 C93 1_555 1_555
F15 C93 1_555 1_555
F16 C94 1_555 1_555
F17 C94 1_555 1_555
F18 C94 1_555 1_555
F19 C95 1_555 1_555
F20 C95 1_555 1_555
F21 C95 1_555 1_555
F22 C96 1_555 1_555
F23 C96 1_555 1_555
F24 C96 1_555 1_555
F25 C97 1_555 1_555
F26 C97 1_555 1_555
F27 C97 1_555 1_555
F28 C98 1_555 1_555
F29 C98 1_555 1_555
F30 C98 1_555 1_555
F31 C99 1_555 1_555
F32 C99 1_555 1_555
F33 C99 1_555 1_555
F34 C100 1_555 1_555
F35 C100 1_555 1_555
F36 C100 1_555 1_555
F37 C101 1_555 1_555
F38 C101 1_555 1_555
F39 C101 1_555 1_555
F40 C102 1_555 1_555
F41 C102 1_555 1_555
F42 C102 1_555 1_555
F43 C103 1_555 1_555
F44 C103 1_555 1_555
F45 C103 1_555 1_555
F46 C104 1_555 1_555
F47 C104 1_555 1_555
F48 C104 1_555 1_555
F49 C105 1_555 1_555
F50 C105 1_555 1_555
F51 C105 1_555 1_555
F52 C106 1_555 1_555
F53 C106 1_555 1_555
F54 C106 1_555 1_555
C1 C2 1_555 1_555
C2 C3 1_555 1_555
C3 C4 1_555 1_555
C4 C5 1_555 1_555
C5 C6 1_555 1_555
C6 C1 1_555 1_555
C7 C6 1_555 1_555
C8 C7 1_555 1_555
C9 C8 1_555 1_555
C10 C1 1_555 1_555
C11 C10 1_555 1_555
C12 C11 1_555 1_555
C13 C2 1_555 1_555
C14 C13 1_555 1_555
C15 C14 1_555 1_555
C16 C3 1_555 1_555
C17 C16 1_555 1_555
C18 C17 1_555 1_555
C19 C4 1_555 1_555
C20 C19 1_555 1_555
C21 C5 1_555 1_555
C22 C21 1_555 1_555
C23 C7 1_555 1_555
C24 C23 1_555 1_555
C25 C8 1_555 1_555
C26 C25 1_555 1_555
C27 C26 1_555 1_555
C28 C9 1_555 1_555
C29 C28 1_555 1_555
C30 C11 1_555 1_555
C31 C30 1_555 1_555
C32 C12 1_555 1_555
C33 C32 1_555 1_555
C34 C14 1_555 1_555
C35 C34 1_555 1_555
C36 C15 1_555 1_555
C37 C36 1_555 1_555
C38 C17 1_555 1_555
C39 C38 1_555 1_555
C40 C18 1_555 1_555
C41 C40 1_555 1_555
C42 C20 1_555 1_555
C43 C42 1_555 1_555
C44 C22 1_555 1_555
C45 C44 1_555 1_555
C46 C24 1_555 1_555
C47 C46 1_555 1_555
C48 C26 1_555 1_555
C49 C48 1_555 1_555
C50 C49 1_555 1_555
C51 C27 1_555 1_555
C52 C29 1_555 1_555
C53 C52 1_555 1_555
C54 C31 1_555 1_555
C55 C54 1_555 1_555
C56 C33 1_555 1_555
C57 C56 1_555 1_555
C58 C35 1_555 1_555
C59 C58 1_555 1_555
C60 C37 1_555 1_555
C61 C60 1_555 1_555
C62 C39 1_555 1_555
C63 C62 1_555 1_555
C64 C41 1_555 1_555
C65 C43 1_555 1_555
C66 C65 1_555 1_555
C67 C45 1_555 1_555
C68 C47 1_555 1_555
C69 C68 1_555 1_555
C70 C49 1_555 1_555
C71 C70 1_555 1_555
C72 C71 1_555 1_555
C73 C50 1_555 1_555
C74 C53 1_555 1_555
C75 C55 1_555 1_555
C76 C75 1_555 1_555
C77 C57 1_555 1_555
C78 C59 1_555 1_555
C79 C78 1_555 1_555
C80 C61 1_555 1_555
C81 C80 1_555 1_555
C82 C63 1_555 1_555
C83 C66 1_555 1_555
C84 C69 1_555 1_555
C85 C71 1_555 1_555
C86 C81 1_555 1_555
C87 C79 1_555 1_555
C88 C72 1_555 1_555
C89 C17 1_555 1_555
C90 C19 1_555 1_555
C91 C21 1_555 1_555
C92 C25 1_555 1_555
C93 C28 1_555 1_555
C94 C32 1_555 1_555
C95 C36 1_555 1_555
C96 C41 1_555 1_555
C97 C43 1_555 1_555
C98 C47 1_555 1_555
C99 C55 1_555 1_555
C100 C59 1_555 1_555
C101 C67 1_555 1_555
C102 C70 1_555 1_555
C103 C77 1_555 1_555
C104 C80 1_555 1_555
C105 C84 1_555 1_555
C106 C87 1_555 1_555
C107 C108 1_555 1_555
C108 H1 1_555 1_555
C109 C108 1_555 1_555
H2 C109 1_555 1_555
C110 C109 1_555 1_555
H3 C110 1_555 1_555
C111 C110 1_555 1_555
H4 C111 1_555 1_555
C112 C107 1_555 1_555
H5 C112 1_555 1_555
C113 C107 1_555 1_555
H6 C113 1_555 1_555
H7 C113 1_555 1_555
H8 C113 1_555 1_555
C9 C10 1_555 1_555
C12 C13 1_555 1_555
C15 C16 1_555 1_555
C18 C19 1_555 1_555
C20 C21 1_555 1_555
C22 C23 1_555 1_555
C24 C25 1_555 1_555
C27 C28 1_555 1_555
C29 C30 1_555 1_555
C31 C32 1_555 1_555
C33 C34 1_555 1_555
C35 C36 1_555 1_555
C37 C38 1_555 1_555
C39 C40 1_555 1_555
C41 C42 1_555 1_555
C43 C44 1_555 1_555
C45 C46 1_555 1_555
C47 C48 1_555 1_555
C50 C51 1_555 1_555
C51 C52 1_555 1_555
C53 C54 1_555 1_555
C55 C56 1_555 1_555
C57 C58 1_555 1_555
C59 C60 1_555 1_555
C61 C62 1_555 1_555
C63 C64 1_555 1_555
C64 C65 1_555 1_555
C66 C67 1_555 1_555
C67 C68 1_555 1_555
C69 C70 1_555 1_555
C72 C73 1_555 1_555
C73 C74 1_555 1_555
C74 C75 1_555 1_555
C76 C77 1_555 1_555
C76 C88 1_555 1_555
C77 C78 1_555 1_555
C79 C80 1_555 1_555
C81 C82 1_555 1_555
C82 C83 1_555 1_555
C83 C84 1_555 1_555
C84 C85 1_555 1_555
C85 C86 1_555 1_555
C86 C87 1_555 1_555
C87 C88 1_555 1_555
C111 C112 1_555 1_555

#END
