
#######################################################################
#
#                 Cambridge Crystallographic Data Centre
#                                CCDC 
#
#######################################################################
#
# If this CIF has been generated from an entry in the Cambridge 
# Structural Database, then it will include bibliographic, chemical, 
# crystal, experimental, refinement or atomic coordinate data resulting 
# from the CCDC's data processing and validation procedures.
#
#######################################################################

data_FATYOR
_chemical_formula_moiety         'C32 H30 O5,C2 H6 O1'
_chemical_name_systematic        
'4a-hydroxy-9-(4-methoxyphenyl)-3,6-diphenyl-3,4,4a,5,6,7,9,9a-octahydro-1H-xanthene-1,8(2H)-dione ethanol solvate'
_symmetry_cell_setting           triclinic
_symmetry_space_group_name_H-M   'P -1'
_symmetry_Int_Tables_number      2
_space_group_name_Hall           '-P 1'
loop_
_symmetry_equiv_pos_site_id
_symmetry_equiv_pos_as_xyz
1 x,y,z
2 -x,-y,-z
_cell_length_a                   11.1213(11)
_cell_length_b                   14.3003(15)
_cell_length_c                   19.259(2)
_cell_angle_alpha                80.399(2)
_cell_angle_beta                 79.692(2)
_cell_angle_gamma                76.6740(10)
_cell_volume                     2907.02
_exptl_crystal_description       block
_cell_formula_units_Z            4
loop_
_atom_site_label
_atom_site_type_symbol
_atom_site_fract_x
_atom_site_fract_y
_atom_site_fract_z
C1 C -0.0923(3) 0.9034(2) 0.51410(16)
C2 C -0.1875(3) 0.9796(2) 0.47768(16)
H1 H -0.1478 1.0323 0.4537
H2 H -0.2129 0.9516 0.4415
C3 C -0.3017(3) 1.0205(2) 0.52579(16)
H3 H -0.3477 0.9682 0.5427
C4 C -0.2657(3) 1.0478(2) 0.59119(16)
H4 H -0.2300 1.1052 0.5777
H5 H -0.3399 1.0631 0.6258
C5 C -0.1737(3) 0.9676(2) 0.62414(16)
C6 C -0.0959(3) 0.8971(2) 0.59099(15)
C7 C -0.3921(3) 1.1056(2) 0.49154(16)
C8 C -0.3597(3) 1.1636(2) 0.42956(17)
H6 H -0.2794 1.1487 0.4047
C9 C -0.4431(4) 1.2432(2) 0.40329(18)
H7 H -0.4181 1.2821 0.3620
C10 C -0.5622(4) 1.2648(3) 0.4380(2)
H8 H -0.6192 1.3179 0.4202
C11 C -0.5970(3) 1.2071(3) 0.4994(2)
H9 H -0.6783 1.2210 0.5230
C12 C -0.5126(3) 1.1289(3) 0.52647(19)
H10 H -0.5371 1.0915 0.5687
C13 C -0.0055(3) 0.8173(2) 0.62834(14)
H11 H 0.0784 0.8310 0.6134
C14 C -0.0380(3) 0.8194(2) 0.70922(15)
H12 H -0.1091 0.7879 0.7264
C15 C 0.0659(3) 0.7686(2) 0.75128(17)
C16 C 0.0273(3) 0.7617(2) 0.83086(16)
H13 H 0.0988 0.7298 0.8545
H14 H -0.0359 0.7227 0.8450
C17 C -0.0246(3) 0.8621(2) 0.85425(16)
H15 H 0.0450 0.8958 0.8464
C18 C -0.1217(3) 0.9215(2) 0.80800(15)
H16 H -0.1968 0.8951 0.8198
H17 H -0.1435 0.9878 0.8187
C19 C -0.0751(3) 0.9215(2) 0.72913(16)
C20 C -0.0014(3) 0.7163(2) 0.61200(14)
C21 C -0.1105(3) 0.6833(2) 0.61945(15)
H18 H -0.1867 0.7252 0.6305
C22 C -0.1088(3) 0.5887(3) 0.61076(16)
H19 H -0.1834 0.5673 0.6168
C23 C 0.0020(4) 0.5269(2) 0.59327(16)
C24 C 0.1117(3) 0.5585(2) 0.58409(16)
H20 H 0.1873 0.5169 0.5713
C25 C 0.1094(3) 0.6536(2) 0.59404(16)
H21 H 0.1841 0.6746 0.5884
C26 C 0.1058(4) 0.3669(3) 0.5717(2)
H22 H 0.1501 0.3547 0.6118
H23 H 0.1562 0.3924 0.5303
H24 H 0.0878 0.3075 0.5636
C27 C -0.0749(4) 0.8549(2) 0.93315(17)
C28 C -0.1824(4) 0.8209(3) 0.9602(2)
H25 H -0.2249 0.8018 0.9294
C29 C -0.2287(4) 0.8145(3) 1.0326(3)
H26 H -0.3011 0.7911 1.0502
C30 C -0.1647(6) 0.8439(3) 1.0778(3)
H27 H -0.1955 0.8421 1.1261
C31 C -0.0586(5) 0.8749(3) 1.0520(2)
H28 H -0.0145 0.8921 1.0830
C32 C -0.0133(4) 0.8817(3) 0.9795(2)
H29 H 0.0596 0.9048 0.9625
O1 O -0.0086(2) 0.85080(16) 0.47858(11)
O2 O 0.1725(2) 0.74095(17) 0.72398(12)
O3 O -0.17797(19) 0.97716(14) 0.69405(11)
O4 O 0.0298(2) 0.96365(15) 0.70619(12)
H30 H 0.0075 1.0229 0.7018
O5 O -0.0068(2) 0.43452(18) 0.58570(13)
C33 C 0.4068(3) 0.4869(2) 0.92854(16)
C34 C 0.3147(3) 0.4617(2) 0.99226(16)
H31 H 0.2907 0.4026 0.9866
H32 H 0.3562 0.4480 1.0342
C35 C 0.1999(3) 0.5370(2) 1.00513(18)
H33 H 0.1513 0.5387 0.9671
C36 C 0.2301(3) 0.6355(2) 0.99724(16)
H34 H 0.1535 0.6843 0.9952
H35 H 0.2645 0.6411 1.0389
C37 C 0.3205(3) 0.6551(2) 0.93244(16)
C38 C 0.4003(3) 0.5868(2) 0.89660(15)
C39 C 0.1134(3) 0.5210(2) 1.07504(17)
C40 C -0.0056(4) 0.5756(3) 1.08305(19)
H36 H -0.0330 0.6196 1.0449
C41 C -0.0857(4) 0.5672(3) 1.1459(2)
H37 H -0.1666 0.6042 1.1495
C42 C -0.0466(4) 0.5046(3) 1.2031(2)
H38 H -0.1000 0.4999 1.2461
C43 C 0.0710(4) 0.4492(3) 1.19685(19)
H39 H 0.0983 0.4065 1.2356
C44 C 0.1499(3) 0.4564(3) 1.13305(19)
H40 H 0.2293 0.4169 1.1290
C45 C 0.4889(3) 0.6108(2) 0.83023(14)
H41 H 0.5733 0.5959 0.8430
C46 C 0.4553(3) 0.7206(2) 0.80494(14)
H42 H 0.3842 0.7330 0.7787
C47 C 0.5600(3) 0.7615(2) 0.75725(16)
C48 C 0.5227(3) 0.8667(2) 0.72762(16)
H43 H 0.4584 0.8743 0.6979
H44 H 0.5943 0.8881 0.6983
C49 C 0.4734(3) 0.9296(2) 0.78811(16)
H45 H 0.5433 0.9263 0.8137
C50 C 0.3728(3) 0.8876(2) 0.84104(15)
H46 H 0.3494 0.9232 0.8818
H47 H 0.2991 0.8953 0.8185
C51 C 0.4190(3) 0.7811(2) 0.86600(15)
C52 C 0.4907(3) 0.5536(2) 0.77088(15)
C53 C 0.3817(3) 0.5454(2) 0.74999(16)
H48 H 0.3056 0.5722 0.7753
C54 C 0.3820(3) 0.4992(2) 0.69335(19)
H49 H 0.3068 0.4956 0.6803
C55 C 0.4938(4) 0.4578(2) 0.65533(18)
C56 C 0.6036(3) 0.4628(2) 0.67590(18)
H50 H 0.6795 0.4340 0.6516
C57 C 0.6014(3) 0.5110(2) 0.73312(18)
H51 H 0.6765 0.5146 0.7463
C58 C 0.5958(5) 0.3741(4) 0.5565(3)
H52 H 0.5759 0.3497 0.5174
H53 H 0.6441 0.3221 0.5847
H54 H 0.6432 0.4235 0.5385
C59 C 0.4275(3) 1.0350(2) 0.76056(16)
C60 C 0.3187(3) 1.0662(3) 0.73053(18)
H55 H 0.2718 1.0215 0.7270
C61 C 0.2791(4) 1.1625(3) 0.7058(2)
H56 H 0.2054 1.1823 0.6861
C62 C 0.3469(5) 1.2292(3) 0.7098(2)
H57 H 0.3197 1.2943 0.6932
C63 C 0.4542(4) 1.1994(3) 0.7384(2)
H58 H 0.5010 1.2445 0.7412
C64 C 0.4954(4) 1.1032(3) 0.76350(19)
H59 H 0.5697 1.0842 0.7826
O6 O 0.4916(2) 0.42231(16) 0.90537(12)
O7 O 0.6657(2) 0.71564(17) 0.74664(12)
O8 O 0.31478(18) 0.75232(14) 0.91437(10)
O9 O 0.5229(2) 0.76319(16) 0.90164(10)
H60 H 0.4995 0.7705 0.9436
O10 O 0.4843(3) 0.41369(19) 0.59890(14)
C65 C 0.1109(6) 0.7454(5) 1.2394(3)
H61 H 0.0747 0.8019 1.2096
H62 H 0.0576 0.6992 1.2482
H63 H 0.1915 0.7170 1.2160
C66 C 0.1242(5) 0.7730(4) 1.3073(3)
H64 H 0.1324 0.7161 1.3428
H65 H 0.1995 0.7985 1.3014
O11 O 0.0202(3) 0.84363(19) 1.33129(13)
H66 H 0.0210 0.8482 1.3731
C67 C 0.3644(9) 0.9247(4) 1.0529(3)
H67 H 0.3174 0.9374 1.0139
H68 H 0.4454 0.9395 1.0363
H69 H 0.3212 0.9643 1.0890
C68 C 0.3777(5) 0.8268(4) 1.0814(3)
H70 H 0.3961 0.8189 1.1297
H71 H 0.2995 0.8067 1.0834
O12 O 0.4718(3) 0.76817(18) 1.04154(12)
H72 H 0.4807 0.7121 1.0613
loop_
_geom_bond_atom_site_label_1
_geom_bond_atom_site_label_2
_geom_bond_site_symmetry_1
_geom_bond_site_symmetry_2
C1 C2 1_555 1_555
C2 H1 1_555 1_555
H2 C2 1_555 1_555
C3 C2 1_555 1_555
H3 C3 1_555 1_555
C4 C3 1_555 1_555
H4 C4 1_555 1_555
H5 C4 1_555 1_555
C5 C4 1_555 1_555
C6 C1 1_555 1_555
C7 C3 1_555 1_555
C8 C7 1_555 1_555
H6 C8 1_555 1_555
C9 C8 1_555 1_555
H7 C9 1_555 1_555
C10 C9 1_555 1_555
H8 C10 1_555 1_555
C11 C10 1_555 1_555
H9 C11 1_555 1_555
C12 C7 1_555 1_555
H10 C12 1_555 1_555
C13 C6 1_555 1_555
H11 C13 1_555 1_555
C14 C13 1_555 1_555
H12 C14 1_555 1_555
C15 C14 1_555 1_555
C16 C15 1_555 1_555
H13 C16 1_555 1_555
H14 C16 1_555 1_555
C17 C16 1_555 1_555
H15 C17 1_555 1_555
C18 C17 1_555 1_555
H16 C18 1_555 1_555
H17 C18 1_555 1_555
C19 C14 1_555 1_555
C20 C13 1_555 1_555
C21 C20 1_555 1_555
H18 C21 1_555 1_555
C22 C21 1_555 1_555
H19 C22 1_555 1_555
C23 C22 1_555 1_555
C24 C23 1_555 1_555
H20 C24 1_555 1_555
C25 C20 1_555 1_555
H21 C25 1_555 1_555
C26 H22 1_555 1_555
H23 C26 1_555 1_555
H24 C26 1_555 1_555
C27 C17 1_555 1_555
C28 C27 1_555 1_555
H25 C28 1_555 1_555
C29 C28 1_555 1_555
H26 C29 1_555 1_555
C30 C29 1_555 1_555
H27 C30 1_555 1_555
C31 C30 1_555 1_555
H28 C31 1_555 1_555
C32 C27 1_555 1_555
H29 C32 1_555 1_555
O1 C1 1_555 1_555
O2 C15 1_555 1_555
O3 C5 1_555 1_555
O4 C19 1_555 1_555
H30 O4 1_555 1_555
O5 C23 1_555 1_555
C33 C34 1_555 1_555
C34 H31 1_555 1_555
H32 C34 1_555 1_555
C35 C34 1_555 1_555
H33 C35 1_555 1_555
C36 C35 1_555 1_555
H34 C36 1_555 1_555
H35 C36 1_555 1_555
C37 C36 1_555 1_555
C38 C33 1_555 1_555
C39 C35 1_555 1_555
C40 C39 1_555 1_555
H36 C40 1_555 1_555
C41 C40 1_555 1_555
H37 C41 1_555 1_555
C42 C41 1_555 1_555
H38 C42 1_555 1_555
C43 C42 1_555 1_555
H39 C43 1_555 1_555
C44 C39 1_555 1_555
H40 C44 1_555 1_555
C45 C38 1_555 1_555
H41 C45 1_555 1_555
C46 C45 1_555 1_555
H42 C46 1_555 1_555
C47 C46 1_555 1_555
C48 C47 1_555 1_555
H43 C48 1_555 1_555
H44 C48 1_555 1_555
C49 C48 1_555 1_555
H45 C49 1_555 1_555
C50 C49 1_555 1_555
H46 C50 1_555 1_555
H47 C50 1_555 1_555
C51 C46 1_555 1_555
C52 C45 1_555 1_555
C53 C52 1_555 1_555
H48 C53 1_555 1_555
C54 C53 1_555 1_555
H49 C54 1_555 1_555
C55 C54 1_555 1_555
C56 C55 1_555 1_555
H50 C56 1_555 1_555
C57 C52 1_555 1_555
H51 C57 1_555 1_555
C58 H52 1_555 1_555
H53 C58 1_555 1_555
H54 C58 1_555 1_555
C59 C49 1_555 1_555
C60 C59 1_555 1_555
H55 C60 1_555 1_555
C61 C60 1_555 1_555
H56 C61 1_555 1_555
C62 C61 1_555 1_555
H57 C62 1_555 1_555
C63 C62 1_555 1_555
H58 C63 1_555 1_555
C64 C59 1_555 1_555
H59 C64 1_555 1_555
O6 C33 1_555 1_555
O7 C47 1_555 1_555
O8 C37 1_555 1_555
O9 C51 1_555 1_555
H60 O9 1_555 1_555
O10 C55 1_555 1_555
C65 H61 1_555 1_555
H62 C65 1_555 1_555
H63 C65 1_555 1_555
C66 C65 1_555 1_555
H64 C66 1_555 1_555
H65 C66 1_555 1_555
O11 C66 1_555 1_555
H66 O11 1_555 1_555
C67 H67 1_555 1_555
H68 C67 1_555 1_555
H69 C67 1_555 1_555
C68 C67 1_555 1_555
H70 C68 1_555 1_555
H71 C68 1_555 1_555
O12 C68 1_555 1_555
H72 O12 1_555 1_555
C5 C6 1_555 1_555
C11 C12 1_555 1_555
C18 C19 1_555 1_555
C19 O3 1_555 1_555
C24 C25 1_555 1_555
C26 O5 1_555 1_555
C31 C32 1_555 1_555
C37 C38 1_555 1_555
C43 C44 1_555 1_555
C50 C51 1_555 1_555
C51 O8 1_555 1_555
C56 C57 1_555 1_555
C58 O10 1_555 1_555
C63 C64 1_555 1_555

#END
