
#######################################################################
#
#                 Cambridge Crystallographic Data Centre
#                                CCDC 
#
#######################################################################
#
# If this CIF has been generated from an entry in the Cambridge 
# Structural Database, then it will include bibliographic, chemical, 
# crystal, experimental, refinement or atomic coordinate data resulting 
# from the CCDC's data processing and validation procedures.
#
#######################################################################

data_FATZUX
_chemical_formula_moiety         'C28 H29 N3 O3'
_chemical_name_systematic        
'(E)-n-Propyl 1-benzyl-8-phenyldiazenyl-1,2,3,3a,4,9b-hexahydrochromeno[4,3-b]pyrrole-2-carboxylate'
_symmetry_cell_setting           triclinic
_symmetry_space_group_name_H-M   'P -1'
_symmetry_Int_Tables_number      2
_space_group_name_Hall           '-P 1'
loop_
_symmetry_equiv_pos_site_id
_symmetry_equiv_pos_as_xyz
1 x,y,z
2 -x,-y,-z
_cell_length_a                   9.8953(4)
_cell_length_b                   10.8854(4)
_cell_length_c                   12.2722(5)
_cell_angle_alpha                70.348(4)
_cell_angle_beta                 84.081(3)
_cell_angle_gamma                83.746(3)
_cell_volume                     1234.36
_exptl_crystal_colour            orange
_exptl_crystal_description       block
_cell_formula_units_Z            2
loop_
_atom_site_label
_atom_site_type_symbol
_atom_site_fract_x
_atom_site_fract_y
_atom_site_fract_z
N1 N -0.04351(17) 0.62261(15) 0.16790(14)
C1 C -0.1496(2) 0.5676(2) 0.12860(18)
H1 H -0.1419 0.5950 0.0437
C2 C -0.1144(3) 0.4185(2) 0.1786(2)
H2 H -0.1954 0.3736 0.2138
H3 H -0.0736 0.3844 0.1182
C3 C -0.0126(2) 0.4011(2) 0.2701(2)
H4 H -0.0392 0.3336 0.3429
C4 C 0.1292(3) 0.3688(2) 0.2270(2)
H5 H 0.1327 0.2866 0.2117
H6 H 0.1529 0.4363 0.1546
O1 O 0.22648(17) 0.35835(15) 0.30878(16)
C5 C 0.2166(2) 0.4597(2) 0.35207(19)
C6 C 0.3247(3) 0.4641(3) 0.4144(2)
H7 H 0.3956 0.3985 0.4268
C7 C 0.3274(3) 0.5642(2) 0.4573(2)
H8 H 0.4002 0.5671 0.4985
C8 C 0.2211(2) 0.6620(2) 0.43940(17)
C9 C 0.1112(2) 0.6524(2) 0.38336(17)
H9 H 0.0378 0.7151 0.3759
C10 C 0.1059(2) 0.5526(2) 0.33752(17)
C11 C -0.0202(2) 0.53447(19) 0.28679(17)
H10 H -0.1003 0.5430 0.3386
C12 C -0.0622(2) 0.76336(19) 0.14992(18)
H11 H 0.0163 0.7902 0.1748
H12 H -0.1420 0.7814 0.1967
C13 C -0.2936(3) 0.6008(3) 0.1699(2)
O2 O -0.32888(19) 0.6306(2) 0.25400(18)
O3 O -0.3812(2) 0.5866(3) 0.09965(17)
C14 C -0.5290(7) 0.5769(10) 0.1368(14)
H13 H -0.5445 0.5493 0.2206
H14 H -0.5681 0.5168 0.1080
C15 C -0.5857(10) 0.7149(11) 0.0815(10)
H15 H -0.5331 0.7747 0.0998
H16 H -0.6794 0.7259 0.1111
C16 C -0.5793(13) 0.7448(19) -0.0490(11)
H17 H -0.6137 0.8337 -0.0854
H18 H -0.6336 0.6869 -0.0666
H19 H -0.4865 0.7325 -0.0775
N2 N 0.21712(19) 0.77293(18) 0.47675(15)
N3 N 0.3159(2) 0.77428(18) 0.53208(16)
C17 C 0.3159(3) 0.8880(2) 0.56499(19)
C18 C 0.42208(12) 0.88636(9) 0.63110(8)
H20 H 0.4840 0.8133 0.6533
C19 C 0.43513(12) 0.99468(9) 0.66389(8)
H21 H 0.5056 0.9941 0.7087
C20 C 0.34281(12) 1.10395(9) 0.62970(8)
H22 H 0.3515 1.1764 0.6516
C21 C 0.23742(12) 1.10489(9) 0.56272(8)
H23 H 0.1756 1.1780 0.5398
C22 C 0.22436(12) 0.99656(9) 0.52993(8)
H24 H 0.1543 0.9972 0.4846
C23 C -0.07953(12) 0.84119(9) 0.02345(8)
C24 C 0.03464(12) 0.84734(9) -0.05379(8)
H25 H 0.1176 0.8050 -0.0270
C25 C 0.02486(12) 0.91675(9) -0.17103(8)
H26 H 0.1012 0.9209 -0.2227
C26 C -0.09908(12) 0.98002(9) -0.21104(8)
H27 H -0.1056 1.0265 -0.2895
C27 C -0.21324(12) 0.97388(9) -0.13380(8)
H28 H -0.2962 1.0162 -0.1606
C28 C -0.20346(12) 0.90446(9) -0.01656(8)
H29 H -0.2798 0.9003 0.0351
C29? C -0.09518(12) 0.84412(9) 0.03323(8)
C30? C -0.5175(10) 0.646(2) 0.1305(17)
C31? C -0.6143(8) 0.6493(13) 0.0428(10)
C32? C -0.572(3) 0.767(2) -0.0568(19)
C33? C -0.00268(12) 0.86191(9) -0.06301(8)
C34? C -0.04317(12) 0.93558(9) -0.17274(8)
C35? C -0.17616(12) 0.99146(9) -0.18624(8)
C36? C -0.26867(12) 0.97367(9) -0.09000(8)
C37? C -0.22818(12) 0.90000(9) 0.01973(8)
H30? H -0.5091 0.7342 0.1302
H31? H -0.5516 0.5945 0.2075
H32? H -0.7084 0.6615 0.0706
H33? H -0.6014 0.5704 0.0216
H34? H -0.6272 0.7814 -0.1202
H35? H -0.4777 0.7524 -0.0814
H36? H -0.5826 0.8428 -0.0322
H37? H 0.0863 0.8245 -0.0540
H38? H 0.0187 0.9475 -0.2371
H39? H -0.2033 1.0407 -0.2597
H40? H -0.3576 1.0111 -0.0990
H41? H -0.2901 0.8881 0.0841
loop_
_geom_bond_atom_site_label_1
_geom_bond_atom_site_label_2
_geom_bond_site_symmetry_1
_geom_bond_site_symmetry_2
N1 C1 1_555 1_555
C1 H1 1_555 1_555
C2 C1 1_555 1_555
H2 C2 1_555 1_555
H3 C2 1_555 1_555
C3 C2 1_555 1_555
H4 C3 1_555 1_555
C4 C3 1_555 1_555
H5 C4 1_555 1_555
H6 C4 1_555 1_555
O1 C4 1_555 1_555
C5 O1 1_555 1_555
C6 C5 1_555 1_555
H7 C6 1_555 1_555
C7 C6 1_555 1_555
H8 C7 1_555 1_555
C8 C7 1_555 1_555
C9 C8 1_555 1_555
H9 C9 1_555 1_555
C10 C5 1_555 1_555
C11 N1 1_555 1_555
H10 C11 1_555 1_555
C12 N1 1_555 1_555
H11 C12 1_555 1_555
H12 C12 1_555 1_555
C13 C1 1_555 1_555
O2 C13 1_555 1_555
O3 C13 1_555 1_555
C14 O3 1_555 1_555
H13 C14 1_555 1_555
H14 C14 1_555 1_555
C15 C14 1_555 1_555
H15 C15 1_555 1_555
H16 C15 1_555 1_555
C16 C15 1_555 1_555
H17 C16 1_555 1_555
H18 C16 1_555 1_555
H19 C16 1_555 1_555
N2 C8 1_555 1_555
N3 N2 1_555 1_555
C17 N3 1_555 1_555
C18 C17 1_555 1_555
H20 C18 1_555 1_555
C19 C18 1_555 1_555
H21 C19 1_555 1_555
C20 C19 1_555 1_555
H22 C20 1_555 1_555
C21 C20 1_555 1_555
H23 C21 1_555 1_555
C22 C17 1_555 1_555
H24 C22 1_555 1_555
C23 C12 1_555 1_555
C24 C23 1_555 1_555
H25 C24 1_555 1_555
C25 C24 1_555 1_555
H26 C25 1_555 1_555
C26 C25 1_555 1_555
H27 C26 1_555 1_555
C27 C26 1_555 1_555
H28 C27 1_555 1_555
C28 C23 1_555 1_555
H29 C28 1_555 1_555
C3 C11 1_555 1_555
C9 C10 1_555 1_555
C10 C11 1_555 1_555
C21 C22 1_555 1_555
C27 C28 1_555 1_555

#END
