
#######################################################################
#
#                 Cambridge Crystallographic Data Centre
#                                CCDC 
#
#######################################################################
#
# If this CIF has been generated from an entry in the Cambridge 
# Structural Database, then it will include bibliographic, chemical, 
# crystal, experimental, refinement or atomic coordinate data resulting 
# from the CCDC's data processing and validation procedures.
#
#######################################################################

data_FAVBIO
_chemical_formula_moiety         'C29 H21 N3 O7'
_chemical_name_systematic        
1',11-diacetyl-4-phenyl-2,5-dihydro-11H-spiro[2,5-epoxy-11a,6a-(epoxymethano)[1,6,3]dioxazocino[8,7-b]indole-13,3'-indol]-2'(1'H)-one
_symmetry_cell_setting           monoclinic
_symmetry_space_group_name_H-M   'P 21/c'
_symmetry_Int_Tables_number      14
_space_group_name_Hall           '-P 2ybc'
loop_
_symmetry_equiv_pos_site_id
_symmetry_equiv_pos_as_xyz
1 x,y,z
2 -x,1/2+y,1/2-z
3 -x,-y,-z
4 x,1/2-y,1/2+z
_cell_length_a                   17.2335(11)
_cell_length_b                   14.9473(9)
_cell_length_c                   9.4343(6)
_cell_angle_alpha                90
_cell_angle_beta                 97.164(1)
_cell_angle_gamma                90
_cell_volume                     2411.25
_exptl_crystal_colour            colorless
_exptl_crystal_description       block
_chemical_melting_point          '208-210 deg.C'
_cell_formula_units_Z            4
loop_
_atom_site_label
_atom_site_type_symbol
_atom_site_fract_x
_atom_site_fract_y
_atom_site_fract_z
O1 O 0.21410(7) 0.61053(8) 0.56071(13)
O2 O 0.15641(8) 0.50386(9) 0.40275(13)
O3 O 0.22493(7) 0.39917(8) 0.55146(12)
O4 O 0.33518(7) 0.56968(8) 0.66514(14)
O5 O 0.41219(8) 0.45175(12) 0.88846(14)
O6 O 0.17562(10) 0.67355(10) 0.95519(18)
O7 O 0.56977(10) 0.29914(14) 0.6946(2)
N1 N 0.09279(9) 0.54342(11) 0.59551(16)
N2 N 0.22866(8) 0.57901(9) 0.80770(14)
N3 N 0.46687(8) 0.39194(10) 0.69555(15)
C1 C 0.05211(11) 0.30676(15) 0.6553(2)
H1 H 0.0790 0.2824 0.5849
C2 C 0.00910(14) 0.25126(17) 0.7346(3)
H2 H 0.0069 0.1901 0.7167
C3 C -0.03003(13) 0.2871(2) 0.8395(3)
H3 H -0.0595 0.2502 0.8915
C4 C -0.02584(13) 0.3771(2) 0.8678(3)
H4 H -0.0514 0.4007 0.9406
C5 C 0.01617(12) 0.43303(16) 0.7886(2)
H5 H 0.0184 0.4941 0.8078
C6 C 0.05507(9) 0.39795(13) 0.68033(19)
C7 C 0.09619(9) 0.45804(12) 0.59165(18)
C8 C 0.15028(10) 0.42665(12) 0.48524(18)
H6 H 0.1255 0.3783 0.4256
C9 C 0.26137(9) 0.45375(10) 0.66362(16)
C10 C 0.34895(9) 0.47477(11) 0.64529(18)
C11 C 0.38002(10) 0.44876(12) 0.51079(18)
C12 C 0.35127(11) 0.46791(14) 0.3700(2)
H7 H 0.3058 0.5013 0.3481
C13 C 0.39218(13) 0.43592(16) 0.2630(2)
H8 H 0.3736 0.4469 0.1677
C14 C 0.46024(13) 0.38796(15) 0.2971(2)
H9 H 0.4871 0.3677 0.2237
C15 C 0.49007(12) 0.36889(14) 0.4369(2)
H10 H 0.5364 0.3370 0.4584
C16 C 0.44810(10) 0.39926(11) 0.54346(19)
C17 C 0.41165(10) 0.43963(12) 0.76264(19)
C18 C 0.25345(9) 0.55878(11) 0.66909(17)
C19 C 0.22299(9) 0.49899(11) 0.88592(17)
C20 C 0.20253(11) 0.48759(13) 1.02292(19)
H11 H 0.1894 0.5362 1.0767
C21 C 0.20242(13) 0.40135(15) 1.0763(2)
H12 H 0.1884 0.3923 1.1673
C22 C 0.22245(13) 0.32821(14) 0.9989(2)
H13 H 0.2220 0.2711 1.0381
C23 C 0.24313(11) 0.34003(12) 0.8629(2)
H14 H 0.2568 0.2913 0.8099
C24 C 0.24307(9) 0.42543(11) 0.80768(17)
C25 C 0.14243(11) 0.57664(13) 0.4927(2)
H15 H 0.1148 0.6240 0.4350
C26 C 0.21252(10) 0.66452(12) 0.8546(2)
C27 C 0.24472(12) 0.74222(13) 0.7819(2)
H16 H 0.2294 0.7968 0.8243
H17 H 0.2247 0.7415 0.6822
H18 H 0.3007 0.7383 0.7922
C28 C 0.53315(12) 0.34633(14) 0.7646(2)
C29 C 0.55406(16) 0.35873(17) 0.9205(2)
H19 H 0.6000 0.3244 0.9524
H20 H 0.5116 0.3389 0.9694
H21 H 0.5642 0.4209 0.9406
loop_
_geom_bond_atom_site_label_1
_geom_bond_atom_site_label_2
_geom_bond_site_symmetry_1
_geom_bond_site_symmetry_2
O1 C18 1_555 1_555
O2 C8 1_555 1_555
O3 C8 1_555 1_555
O4 C10 1_555 1_555
O5 C17 1_555 1_555
O6 C26 1_555 1_555
O7 C28 1_555 1_555
N1 C7 1_555 1_555
N2 C18 1_555 1_555
N3 C16 1_555 1_555
C1 H1 1_555 1_555
C2 C1 1_555 1_555
H2 C2 1_555 1_555
C3 C2 1_555 1_555
H3 C3 1_555 1_555
C4 C3 1_555 1_555
H4 C4 1_555 1_555
C5 C4 1_555 1_555
H5 C5 1_555 1_555
C6 C1 1_555 1_555
C7 C6 1_555 1_555
C8 C7 1_555 1_555
H6 C8 1_555 1_555
C9 O3 1_555 1_555
C10 C9 1_555 1_555
C11 C10 1_555 1_555
C12 C11 1_555 1_555
H7 C12 1_555 1_555
C13 C12 1_555 1_555
H8 C13 1_555 1_555
C14 C13 1_555 1_555
H9 C14 1_555 1_555
C15 C14 1_555 1_555
H10 C15 1_555 1_555
C16 C11 1_555 1_555
C17 N3 1_555 1_555
C18 O4 1_555 1_555
C19 N2 1_555 1_555
C20 C19 1_555 1_555
H11 C20 1_555 1_555
C21 C20 1_555 1_555
H12 C21 1_555 1_555
C22 C21 1_555 1_555
H13 C22 1_555 1_555
C23 C22 1_555 1_555
H14 C23 1_555 1_555
C24 C9 1_555 1_555
C25 O1 1_555 1_555
H15 C25 1_555 1_555
C26 N2 1_555 1_555
C27 C26 1_555 1_555
H16 C27 1_555 1_555
H17 C27 1_555 1_555
H18 C27 1_555 1_555
C28 N3 1_555 1_555
C29 C28 1_555 1_555
H19 C29 1_555 1_555
H20 C29 1_555 1_555
H21 C29 1_555 1_555
O2 C25 1_555 1_555
N1 C25 1_555 1_555
C5 C6 1_555 1_555
C9 C18 1_555 1_555
C10 C17 1_555 1_555
C15 C16 1_555 1_555
C19 C24 1_555 1_555
C23 C24 1_555 1_555

#END
