
#######################################################################
#
#                 Cambridge Crystallographic Data Centre
#                                CCDC 
#
#######################################################################
#
# If this CIF has been generated from an entry in the Cambridge 
# Structural Database, then it will include bibliographic, chemical, 
# crystal, experimental, refinement or atomic coordinate data resulting 
# from the CCDC's data processing and validation procedures.
#
#######################################################################

data_FAVBOU
_chemical_formula_moiety         'C24 H17 N1 O3'
_chemical_name_systematic        
2-methyl-4-phenyl-2,5-dihydro-2,5-epoxyphenanthro[9,10-g][1,6,3]dioxazocine
_symmetry_cell_setting           monoclinic
_symmetry_space_group_name_H-M   'P 21/c'
_symmetry_Int_Tables_number      14
_space_group_name_Hall           '-P 2ybc'
loop_
_symmetry_equiv_pos_site_id
_symmetry_equiv_pos_as_xyz
1 x,y,z
2 -x,1/2+y,1/2-z
3 -x,-y,-z
4 x,1/2-y,1/2+z
_cell_length_a                   10.5543(1)
_cell_length_b                   12.6530(4)
_cell_length_c                   13.6927(3)
_cell_angle_alpha                90
_cell_angle_beta                 103.879(1)
_cell_angle_gamma                90
_cell_volume                     1775.19
_exptl_crystal_colour            yellow
_exptl_crystal_description       slab
_chemical_melting_point          '198-200 deg.C'
_cell_formula_units_Z            4
loop_
_atom_site_label
_atom_site_type_symbol
_atom_site_fract_x
_atom_site_fract_y
_atom_site_fract_z
O1 O 0.73378(16) 0.36770(13) 0.20219(13)
O2 O 0.90175(16) 0.56518(14) 0.27178(13)
O3 O 0.72029(17) 0.49792(14) 0.31927(13)
N1 N 0.6112(2) 0.52246(16) 0.15184(16)
C1 C 0.8461(2) 0.40098(19) 0.17288(18)
C2 C 0.8837(2) 0.32486(18) 0.10619(18)
C3 C 0.8059(3) 0.2358(2) 0.0717(2)
H1 H 0.7280 0.2266 0.0909
C4 C 0.8426(3) 0.1624(2) 0.0102(2)
H2 H 0.7895 0.1043 -0.0122
C5 C 0.9600(3) 0.1747(2) -0.0187(2)
H3 H 0.9857 0.1243 -0.0595
C6 C 1.0369(3) 0.2607(2) 0.01273(19)
H4 H 1.1146 0.2681 -0.0074
C7 C 1.0018(2) 0.33874(19) 0.07513(18)
C8 C 1.0794(2) 0.43239(19) 0.10735(18)
C9 C 1.1972(2) 0.4539(2) 0.0781(2)
H5 H 1.2266 0.4060 0.0368
C10 C 1.2678(3) 0.5425(2) 0.1088(2)
H6 H 1.3450 0.5541 0.0890
C11 C 1.2264(3) 0.6156(2) 0.1691(2)
H7 H 1.2754 0.6762 0.1896
C12 C 1.1120(2) 0.5987(2) 0.1990(2)
H8 H 1.0839 0.6485 0.2391
C13 C 1.0380(2) 0.50698(19) 0.16947(18)
C14 C 0.9190(2) 0.48821(19) 0.20326(18)
C15 C 0.7738(2) 0.5862(2) 0.28360(19)
H9 H 0.7745 0.6468 0.3283
C16 C 0.6794(2) 0.6051(2) 0.18223(18)
C17 C 0.6692(2) 0.7045(2) 0.12555(19)
C18 C 0.7492(3) 0.7906(2) 0.1640(2)
H10 H 0.8115 0.7837 0.2245
C19 C 0.7364(3) 0.8858(2) 0.1128(2)
H11 H 0.7895 0.9428 0.1390
C20 C 0.6444(3) 0.8959(2) 0.0224(2)
H12 H 0.6348 0.9601 -0.0116
C21 C 0.5663(3) 0.8106(2) -0.0177(2)
H13 H 0.5062 0.8171 -0.0794
C22 C 0.5782(3) 0.7161(2) 0.0342(2)
H14 H 0.5246 0.6595 0.0078
C23 C 0.6507(3) 0.4425(2) 0.2313(2)
C24 C 0.5382(3) 0.3833(2) 0.2551(2)
H15 H 0.4782 0.4326 0.2727
H16 H 0.5702 0.3363 0.3106
H17 H 0.4943 0.3432 0.1973
loop_
_geom_bond_atom_site_label_1
_geom_bond_atom_site_label_2
_geom_bond_site_symmetry_1
_geom_bond_site_symmetry_2
O1 C1 1_555 1_555
O2 C14 1_555 1_555
O3 C15 1_555 1_555
N1 C16 1_555 1_555
C1 C2 1_555 1_555
C2 C3 1_555 1_555
C3 H1 1_555 1_555
C4 C3 1_555 1_555
H2 C4 1_555 1_555
C5 C4 1_555 1_555
H3 C5 1_555 1_555
C6 C5 1_555 1_555
H4 C6 1_555 1_555
C7 C2 1_555 1_555
C8 C7 1_555 1_555
C9 C8 1_555 1_555
H5 C9 1_555 1_555
C10 C9 1_555 1_555
H6 C10 1_555 1_555
C11 C10 1_555 1_555
H7 C11 1_555 1_555
C12 C11 1_555 1_555
H8 C12 1_555 1_555
C13 C8 1_555 1_555
C14 C1 1_555 1_555
C15 O2 1_555 1_555
H9 C15 1_555 1_555
C16 C15 1_555 1_555
C17 C16 1_555 1_555
C18 C17 1_555 1_555
H10 C18 1_555 1_555
C19 C18 1_555 1_555
H11 C19 1_555 1_555
C20 C19 1_555 1_555
H12 C20 1_555 1_555
C21 C20 1_555 1_555
H13 C21 1_555 1_555
C22 C17 1_555 1_555
H14 C22 1_555 1_555
C23 O1 1_555 1_555
C24 C23 1_555 1_555
H15 C24 1_555 1_555
H16 C24 1_555 1_555
H17 C24 1_555 1_555
O3 C23 1_555 1_555
N1 C23 1_555 1_555
C6 C7 1_555 1_555
C12 C13 1_555 1_555
C13 C14 1_555 1_555
C21 C22 1_555 1_555

#END
