
#######################################################################
#
#                 Cambridge Crystallographic Data Centre
#                                CCDC 
#
#######################################################################
#
# If this CIF has been generated from an entry in the Cambridge 
# Structural Database, then it will include bibliographic, chemical, 
# crystal, experimental, refinement or atomic coordinate data resulting 
# from the CCDC's data processing and validation procedures.
#
#######################################################################

data_FAVCOW
_chemical_formula_moiety         'C14 H14 N4 O2'
_chemical_name_systematic        
'(E)-2-Aminoacetophenone 2-nitrophenylhydrazone'
_symmetry_cell_setting           triclinic
_symmetry_space_group_name_H-M   'P -1'
_symmetry_Int_Tables_number      2
_space_group_name_Hall           '-P 1'
loop_
_symmetry_equiv_pos_site_id
_symmetry_equiv_pos_as_xyz
1 x,y,z
2 -x,-y,-z
_cell_length_a                   6.8201(10)
_cell_length_b                   8.633(13)
_cell_length_c                   11.326(18)
_cell_angle_alpha                81.76(3)
_cell_angle_beta                 88.29(4)
_cell_angle_gamma                75.99(4)
_cell_volume                     640.327
_exptl_crystal_colour            brown
_exptl_crystal_description       plate
_cell_formula_units_Z            2
loop_
_atom_site_label
_atom_site_type_symbol
_atom_site_fract_x
_atom_site_fract_y
_atom_site_fract_z
O1 O 0.3629(6) 0.0506(4) 0.6312(3)
O2 O 0.3869(6) -0.0760(4) 0.8122(3)
N1 N 0.2545(6) 0.5127(5) 0.5218(3)
N2 N 0.2906(6) 0.3636(5) 0.5909(3)
H1 H 0.3096 0.2756 0.5570
N3 N 0.1778(8) 0.8308(6) 0.4950(4)
H2 H 0.237(9) 0.748(8) 0.536(5)
H3 H 0.184(11) 0.927(9) 0.514(6)
N4 N 0.3617(7) 0.0508(5) 0.7422(4)
C1 C 0.2018(7) 0.6722(5) 0.3296(4)
C2 C 0.1772(7) 0.8226(6) 0.3742(4)
C3 C 0.1408(8) 0.9666(6) 0.2946(5)
H4 H 0.1210 1.0661 0.3251
C4 C 0.1330(8) 0.9671(7) 0.1739(5)
H5 H 0.1078 1.0665 0.1219
C5 C 0.1620(8) 0.8224(6) 0.1266(5)
H6 H 0.1588 0.8223 0.0428
C6 C 0.1955(8) 0.6789(6) 0.2044(4)
H7 H 0.2151 0.5807 0.1720
C7 C 0.2395(7) 0.5147(5) 0.4070(4)
C8 C 0.2515(10) 0.3613(6) 0.3536(5)
H8 H 0.3869 0.2901 0.3672
H9 H 0.2246 0.3882 0.2676
H10 H 0.1509 0.3065 0.3913
C9 C 0.2969(7) 0.3527(6) 0.7124(4)
C10 C 0.3300(7) 0.2029(6) 0.7888(4)
C11 C 0.3347(8) 0.1952(7) 0.9129(4)
H11 H 0.3575 0.0933 0.9617
C12 C 0.3069(9) 0.3324(7) 0.9651(5)
H12 H 0.3105 0.3266 1.0494
C13 C 0.2730(9) 0.4816(7) 0.8916(5)
H13 H 0.2520 0.5777 0.9269
C14 C 0.2697(8) 0.4916(6) 0.7703(4)
H14 H 0.2485 0.5946 0.7232
loop_
_geom_bond_atom_site_label_1
_geom_bond_atom_site_label_2
_geom_bond_site_symmetry_1
_geom_bond_site_symmetry_2
O1 N4 1_555 1_555
O2 N4 1_555 1_555
N1 N2 1_555 1_555
N2 H1 1_555 1_555
N3 H2 1_555 1_555
H3 N3 1_555 1_555
N4 C10 1_555 1_555
C1 C2 1_555 1_555
C2 N3 1_555 1_555
C3 C2 1_555 1_555
H4 C3 1_555 1_555
C4 C3 1_555 1_555
H5 C4 1_555 1_555
C5 C4 1_555 1_555
H6 C5 1_555 1_555
C6 C1 1_555 1_555
H7 C6 1_555 1_555
C7 N1 1_555 1_555
C8 C7 1_555 1_555
H8 C8 1_555 1_555
H9 C8 1_555 1_555
H10 C8 1_555 1_555
C9 N2 1_555 1_555
C10 C9 1_555 1_555
C11 C10 1_555 1_555
H11 C11 1_555 1_555
C12 C11 1_555 1_555
H12 C12 1_555 1_555
C13 C12 1_555 1_555
H13 C13 1_555 1_555
C14 C9 1_555 1_555
H14 C14 1_555 1_555
C1 C7 1_555 1_555
C5 C6 1_555 1_555
C13 C14 1_555 1_555

#END
