
#######################################################################
#
#                 Cambridge Crystallographic Data Centre
#                                CCDC 
#
#######################################################################
#
# If this CIF has been generated from an entry in the Cambridge 
# Structural Database, then it will include bibliographic, chemical, 
# crystal, experimental, refinement or atomic coordinate data resulting 
# from the CCDC's data processing and validation procedures.
#
#######################################################################

data_FAVDAJ
_chemical_formula_moiety         'C14 H14 N4 O2'
_chemical_name_systematic        
'(E)-2-Aminoacetophenone 4-nitrophenylhydrazone'
_symmetry_cell_setting           orthorhombic
_symmetry_space_group_name_H-M   'P n a 21'
_symmetry_Int_Tables_number      33
_space_group_name_Hall           'P 2c -2n'
loop_
_symmetry_equiv_pos_site_id
_symmetry_equiv_pos_as_xyz
1 x,y,z
2 -x,-y,1/2+z
3 1/2+x,1/2-y,z
4 1/2-x,1/2+y,1/2+z
_cell_length_a                   21.6660(10)
_cell_length_b                   13.8168(6)
_cell_length_c                   4.16120(10)
_cell_angle_alpha                90
_cell_angle_beta                 90
_cell_angle_gamma                90
_cell_volume                     1245.68
_exptl_crystal_colour            red
_exptl_crystal_description       needle
_cell_formula_units_Z            4
loop_
_atom_site_label
_atom_site_type_symbol
_atom_site_fract_x
_atom_site_fract_y
_atom_site_fract_z
O1 O 0.77016(15) 0.6331(2) 1.0293(9)
O2 O 0.81843(15) 0.5266(3) 1.3180(10)
N1 N 0.57072(15) 0.2856(2) 0.4640(9)
N2 N 0.61982(15) 0.2634(2) 0.6594(9)
H1 H 0.6280 0.2026 0.7063
N3 N 0.50733(17) 0.4113(2) 0.0911(10)
H2 H 0.506(2) 0.456(3) -0.072(12)
H3 H 0.547(2) 0.395(3) 0.172(12)
N4 N 0.77656(18) 0.5490(3) 1.1290(11)
C1 C 0.48538(18) 0.2364(3) 0.1390(10)
C2 C 0.47142(18) 0.3305(3) 0.0196(10)
C3 C 0.41917(19) 0.3429(3) -0.1760(12)
H4 H 0.4103 0.4054 -0.2591
C4 C 0.3806(2) 0.2677(3) -0.2504(12)
H5 H 0.3454 0.2784 -0.3818
C5 C 0.3933(2) 0.1756(3) -0.1326(13)
H6 H 0.3669 0.1229 -0.1836
C6 C 0.44429(18) 0.1616(3) 0.0578(11)
H7 H 0.4521 0.0984 0.1383
C7 C 0.54002(18) 0.2140(3) 0.3376(11)
C8 C 0.5600(2) 0.1102(3) 0.3895(13)
H8 H 0.5548 0.0931 0.6165
H9 H 0.6034 0.1030 0.3289
H10 H 0.5346 0.0672 0.2568
C9 C 0.65601(19) 0.3356(3) 0.7808(11)
C10 C 0.64563(19) 0.4334(3) 0.7079(10)
H11 H 0.6113 0.4514 0.5792
C11 C 0.68506(19) 0.5030(3) 0.8225(12)
H12 H 0.6786 0.5691 0.7698
C12 C 0.73430(19) 0.4762(3) 1.0156(11)
C13 C 0.74387(19) 0.3797(3) 1.1031(12)
H13 H 0.7769 0.3626 1.2419
C14 C 0.70496(18) 0.3102(3) 0.9859(11)
H14 H 0.7111 0.2443 1.0434
loop_
_geom_bond_atom_site_label_1
_geom_bond_atom_site_label_2
_geom_bond_site_symmetry_1
_geom_bond_site_symmetry_2
O1 N4 1_555 1_555
O2 N4 1_555 1_555
N1 N2 1_555 1_555
N2 H1 1_555 1_555
N3 H2 1_555 1_555
H3 N3 1_555 1_555
N4 C12 1_555 1_555
C1 C2 1_555 1_555
C2 N3 1_555 1_555
C3 C2 1_555 1_555
H4 C3 1_555 1_555
C4 C3 1_555 1_555
H5 C4 1_555 1_555
C5 C4 1_555 1_555
H6 C5 1_555 1_555
C6 C1 1_555 1_555
H7 C6 1_555 1_555
C7 N1 1_555 1_555
C8 C7 1_555 1_555
H8 C8 1_555 1_555
H9 C8 1_555 1_555
H10 C8 1_555 1_555
C9 N2 1_555 1_555
C10 C9 1_555 1_555
H11 C10 1_555 1_555
C11 C10 1_555 1_555
H12 C11 1_555 1_555
C12 C11 1_555 1_555
C13 C12 1_555 1_555
H13 C13 1_555 1_555
C14 C9 1_555 1_555
H14 C14 1_555 1_555
C1 C7 1_555 1_555
C5 C6 1_555 1_555
C13 C14 1_555 1_555

#END
