
#######################################################################
#
#                 Cambridge Crystallographic Data Centre
#                                CCDC 
#
#######################################################################
#
# If this CIF has been generated from an entry in the Cambridge 
# Structural Database, then it will include bibliographic, chemical, 
# crystal, experimental, refinement or atomic coordinate data resulting 
# from the CCDC's data processing and validation procedures.
#
#######################################################################

data_FAVFEP
_chemical_formula_moiety         'C10 H15 N4 1+,C7 H5 O4 1-,0.5(H2 O1)'
_chemical_name_systematic        
'1-(4-(1H-Imidazol-1-yl)butyl)-1H-imidazol-3-ium 3,5-dihydroxybenzoate hemihydrate'
_symmetry_cell_setting           monoclinic
_symmetry_space_group_name_H-M   'C c'
_symmetry_Int_Tables_number      9
_space_group_name_Hall           'C -2yc'
loop_
_symmetry_equiv_pos_site_id
_symmetry_equiv_pos_as_xyz
1 x,y,z
2 x,-y,1/2+z
3 1/2+x,1/2+y,z
4 1/2+x,1/2-y,1/2+z
_cell_length_a                   17.4260(16)
_cell_length_b                   24.844(2)
_cell_length_c                   17.7181(17)
_cell_angle_alpha                90
_cell_angle_beta                 112.6790(10)
_cell_angle_gamma                90
_cell_volume                     7077.62
_exptl_crystal_colour            colorless
_exptl_crystal_description       block
_cell_formula_units_Z            16
loop_
_atom_site_label
_atom_site_type_symbol
_atom_site_fract_x
_atom_site_fract_y
_atom_site_fract_z
N1 N 0.7889(6) 0.7700(3) 0.8244(6)
N2 N 0.8216(5) 0.6862(3) 0.8322(6)
N3 N 0.9244(5) 1.0054(4) 0.8970(6)
N4 N 0.8927(5) 1.0904(3) 0.8892(5)
H1 H 0.8745 1.1217 0.8694
C1 C 0.8294(7) 0.7307(4) 0.8719(6)
H17 H 0.8603 0.7344 0.9277
C2 C 0.7772(7) 0.6978(5) 0.7532(7)
H18 H 0.7636 0.6734 0.7102
C3 C 0.7561(7) 0.7484(5) 0.7460(7)
H19 H 0.7252 0.7666 0.6979
C4 C 0.8909(7) 1.0475(4) 0.8479(7)
H20 H 0.8692 1.0458 0.7911
C5 C 0.9281(8) 1.0775(5) 0.9683(7)
H21 H 0.9352 1.1004 1.0119
C6 C 0.9520(8) 1.0253(5) 0.9744(7)
H22 H 0.9815 1.0066 1.0223
C7 C 0.7836(7) 0.8283(4) 0.8442(7)
H23 H 0.7791 0.8312 0.8970
H24 H 0.7341 0.8441 0.8034
C8 C 0.8596(6) 0.8589(3) 0.8463(6)
H25 H 0.8627 0.8576 0.7928
H26 H 0.9094 0.8422 0.8854
C9 C 0.8551(7) 0.9173(3) 0.8705(6)
H27 H 0.8057 0.9338 0.8305
H28 H 0.8497 0.9181 0.9230
C10 C 0.9305(6) 0.9500(4) 0.8765(7)
H29 H 0.9797 0.9342 0.9177
H30 H 0.9369 0.9484 0.8245
N5 N 0.5309(6) 0.2468(4) 0.2976(6)
N6 N 0.5630(6) 0.1624(4) 0.3037(6)
N7 N 0.6687(5) 0.4804(3) 0.3850(5)
N8 N 0.6347(5) 0.5662(3) 0.3761(5)
H2 H 0.6141 0.5968 0.3557
C11 C 0.5633(7) 0.2058(5) 0.3441(7)
H31 H 0.5846 0.2074 0.4009
C12 C 0.5261(9) 0.1750(5) 0.2251(8)
H32 H 0.5148 0.1516 0.1812
C13 C 0.5078(9) 0.2283(5) 0.2206(8)
H33 H 0.4837 0.2484 0.1729
C14 C 0.6351(7) 0.5215(4) 0.3353(7)
H34 H 0.6142 0.5192 0.2785
C15 C 0.6734(8) 0.5538(5) 0.4564(6)
H35 H 0.6831 0.5770 0.5003
C16 C 0.6958(8) 0.5002(5) 0.4609(7)
H36 H 0.7247 0.4812 0.5087
C17 C 0.5288(8) 0.3028(4) 0.3262(8)
H37 H 0.5268 0.3019 0.3802
H38 H 0.4786 0.3204 0.2895
C18 C 0.6030(7) 0.3351(4) 0.3299(7)
H39 H 0.6056 0.3355 0.2762
H40 H 0.6532 0.3179 0.3675
C19 C 0.5999(6) 0.3927(3) 0.3577(6)
H41 H 0.5490 0.4095 0.3208
H42 H 0.5983 0.3922 0.4118
C20 C 0.6718(7) 0.4255(4) 0.3600(7)
H43 H 0.7226 0.4089 0.3976
H44 H 0.6739 0.4255 0.3061
N9 N 0.4237(6) -0.0065(4) 0.4007(6)
N10 N 0.3878(6) -0.0919(4) 0.3890(6)
H3 H 0.3663 -0.1223 0.3683
N11 N 0.2922(5) 0.2297(3) 0.3260(5)
N12 N 0.3266(6) 0.3138(3) 0.3331(6)
C21 C 0.3823(7) -0.0460(4) 0.3495(7)
H45 H 0.3533 -0.0416 0.2935
C22 C 0.4341(9) -0.0815(5) 0.4682(8)
H46 H 0.4454 -0.1061 0.5108
C23 C 0.4610(8) -0.0311(5) 0.4764(7)
H47 H 0.4980 -0.0151 0.5240
C24 C 0.3329(7) 0.2693(4) 0.3730(7)
H48 H 0.3631 0.2658 0.4290
C25 C 0.2830(9) 0.3011(5) 0.2566(8)
H49 H 0.2706 0.3249 0.2130
C26 C 0.2598(9) 0.2520(6) 0.2495(8)
H50 H 0.2270 0.2347 0.2013
C27 C 0.4306(7) 0.0492(4) 0.3812(7)
H51 H 0.4363 0.0513 0.3289
H52 H 0.4804 0.0645 0.4224
C28 C 0.3551(6) 0.0827(4) 0.3770(7)
H53 H 0.3513 0.0827 0.4302
H54 H 0.3048 0.0664 0.3381
C29 C 0.3617(6) 0.1410(3) 0.3510(6)
H55 H 0.4117 0.1575 0.3900
H56 H 0.3657 0.1411 0.2978
C30 C 0.2859(7) 0.1732(4) 0.3468(7)
H57 H 0.2364 0.1574 0.3059
H58 H 0.2806 0.1713 0.3992
N13 N 0.0319(6) 0.2461(3) 0.3074(6)
N14 N 0.0716(6) 0.1640(3) 0.3205(6)
N15 N 0.1641(5) 0.4817(3) 0.3691(5)
N16 N 0.1273(6) 0.5665(4) 0.3616(6)
H4 H 0.1047 0.5970 0.3429
C31 C 0.0759(7) 0.2097(4) 0.3580(7)
H59 H 0.1062 0.2153 0.4135
C32 C 0.0225(8) 0.1727(4) 0.2409(7)
H60 H 0.0064 0.1470 0.1996
C33 C 0.0012(8) 0.2249(5) 0.2321(7)
H61 H -0.0289 0.2427 0.1835
C34 C 0.1228(7) 0.5221(4) 0.3186(7)
H62 H 0.0954 0.5191 0.2622
C35 C 0.1745(9) 0.5543(5) 0.4409(7)
H63 H 0.1880 0.5779 0.4849
C36 C 0.1992(8) 0.5008(5) 0.4450(7)
H64 H 0.2333 0.4822 0.4913
C37 C 0.0300(8) 0.3033(4) 0.3309(8)
H65 H -0.0226 0.3192 0.2961
H66 H 0.0338 0.3051 0.3869
C38 C 0.0990(7) 0.3348(4) 0.3237(7)
H67 H 0.0954 0.3332 0.2678
H68 H 0.1517 0.3192 0.3588
C39 C 0.0955(7) 0.3933(3) 0.3478(6)
H69 H 0.0427 0.4086 0.3123
H70 H 0.0979 0.3945 0.4034
C40 C 0.1650(7) 0.4270(4) 0.3426(7)
H71 H 0.2177 0.4106 0.3761
H72 H 0.1610 0.4272 0.2865
O1 O 0.6399(4) 0.2215(2) 0.0305(4)
O2 O 0.7639(4) 0.2308(2) 0.0213(4)
O3 O 0.9213(3) 0.0659(2) 0.1475(3)
H5 H 0.9289 0.0362 0.1693
O4 O 0.6482(4) 0.0341(3) 0.1409(4)
H6 H 0.6718 0.0065 0.1633
C41 C 0.7113(6) 0.2055(4) 0.0408(5)
C42 C 0.7367(5) 0.1506(3) 0.0781(5)
C43 C 0.8160(5) 0.1329(3) 0.0952(5)
H73 H 0.8536 0.1548 0.0839
C44 C 0.8407(4) 0.0819(3) 0.1294(4)
C45 C 0.7858(5) 0.0491(3) 0.1467(5)
H74 H 0.8022 0.0154 0.1704
C46 C 0.7048(5) 0.0679(4) 0.1278(5)
C47 C 0.6801(5) 0.1181(3) 0.0942(5)
H75 H 0.6261 0.1300 0.0825
O5 O 0.3164(4) 0.0252(2) 0.1759(4)
O6 O 0.1930(4) 0.0155(2) 0.1844(4)
O7 O 0.0346(3) 0.1819(2) 0.0594(4)
H7 H 0.0283 0.2121 0.0391
O8 O 0.3025(4) 0.2096(2) 0.0507(4)
H8 H 0.2788 0.2378 0.0312
C48 C 0.2454(6) 0.0421(3) 0.1649(5)
C49 C 0.2179(5) 0.0951(4) 0.1258(5)
C50 C 0.2737(6) 0.1278(3) 0.1050(5)
H76 H 0.3276 0.1161 0.1158
C51 C 0.2479(6) 0.1760(4) 0.0696(5)
C52 C 0.1674(5) 0.1967(3) 0.0517(4)
H77 H 0.1507 0.2299 0.0265
C53 C 0.1140(4) 0.1641(3) 0.0743(5)
C54 C 0.1398(5) 0.1146(3) 0.1103(5)
H78 H 0.1030 0.0938 0.1246
O9 O 0.5272(4) 0.2156(2) 0.5140(4)
O10 O 0.6147(4) 0.1482(3) 0.5671(5)
O11 O 0.4511(3) 0.0186(2) 0.6651(4)
H9 H 0.4108 0.0076 0.6736
O12 O 0.2715(4) 0.1695(3) 0.5651(4)
H10 H 0.2710 0.1992 0.5446
C55 C 0.5456(6) 0.1717(4) 0.5530(6)
C56 C 0.4833(5) 0.1452(3) 0.5798(5)
C57 C 0.4973(5) 0.0937(3) 0.6135(5)
H79 H 0.5472 0.0760 0.6232
C58 C 0.4351(6) 0.0693(4) 0.6325(5)
C59 C 0.3620(5) 0.0939(4) 0.6184(5)
H80 H 0.3211 0.0772 0.6316
C60 C 0.3490(5) 0.1452(3) 0.5832(5)
C61 C 0.4101(5) 0.1712(3) 0.5654(5)
H81 H 0.4014 0.2058 0.5439
O13 O -0.1626(4) 0.1022(3) 0.6243(5)
O14 O -0.0733(4) 0.0355(3) 0.6833(4)
O15 O 0.1879(3) 0.0837(2) 0.6467(4)
H11 H 0.1892 0.0552 0.6705
O16 O 0.0046(4) 0.2284(3) 0.5252(4)
H12 H 0.0469 0.2398 0.5211
C62 C -0.0934(6) 0.0788(4) 0.6439(6)
C63 C -0.0285(5) 0.1043(4) 0.6196(5)
C64 C 0.0466(5) 0.0809(3) 0.6393(4)
H82 H 0.0562 0.0472 0.6643
C65 C 0.1100(4) 0.1059(3) 0.6231(4)
C66 C 0.0983(6) 0.1554(3) 0.5836(5)
H83 H 0.1401 0.1718 0.5714
C67 C 0.0206(6) 0.1789(4) 0.5635(5)
C68 C -0.0430(6) 0.1545(4) 0.5813(6)
H84 H -0.0941 0.1715 0.5678
O17 O 0.7049(4) 0.0683(2) 0.6596(4)
H13 H 0.6698 0.0918 0.6319
H14 H 0.7503 0.0742 0.6537
O18 O 0.7458(4) 0.1860(2) 0.5321(4)
H15 H 0.7004 0.1790 0.5373
H16 H 0.7812 0.1623 0.5584
loop_
_geom_bond_atom_site_label_1
_geom_bond_atom_site_label_2
_geom_bond_site_symmetry_1
_geom_bond_site_symmetry_2
N1 C1 1_555 1_555
N2 C1 1_555 1_555
N3 C4 1_555 1_555
N4 H1 1_555 1_555
N5 C11 1_555 1_555
N6 C11 1_555 1_555
N7 C14 1_555 1_555
N8 H2 1_555 1_555
N9 C21 1_555 1_555
N10 H3 1_555 1_555
N11 C24 1_555 1_555
N12 C24 1_555 1_555
N13 C31 1_555 1_555
N14 C31 1_555 1_555
N15 C34 1_555 1_555
N16 H4 1_555 1_555
O1 C41 1_555 1_555
O2 C41 1_555 1_555
O3 H5 1_555 1_555
O4 H6 1_555 1_555
O5 C48 1_555 1_555
O6 C48 1_555 1_555
O7 H7 1_555 1_555
O8 H8 1_555 1_555
O9 C55 1_555 1_555
O10 C55 1_555 1_555
O11 H9 1_555 1_555
O12 H10 1_555 1_555
O13 C62 1_555 1_555
O14 C62 1_555 1_555
O15 H11 1_555 1_555
O16 H12 1_555 1_555
O17 H13 1_555 1_555
H14 O17 1_555 1_555
O18 H15 1_555 1_555
H16 O18 1_555 1_555
C1 H17 1_555 1_555
C2 N2 1_555 1_555
H18 C2 1_555 1_555
C3 N1 1_555 1_555
H19 C3 1_555 1_555
C4 N4 1_555 1_555
H20 C4 1_555 1_555
C5 N4 1_555 1_555
H21 C5 1_555 1_555
C6 N3 1_555 1_555
H22 C6 1_555 1_555
C7 N1 1_555 1_555
H23 C7 1_555 1_555
H24 C7 1_555 1_555
C8 C7 1_555 1_555
H25 C8 1_555 1_555
H26 C8 1_555 1_555
C9 C8 1_555 1_555
H27 C9 1_555 1_555
H28 C9 1_555 1_555
C10 N3 1_555 1_555
H29 C10 1_555 1_555
H30 C10 1_555 1_555
C11 H31 1_555 1_555
C12 N6 1_555 1_555
H32 C12 1_555 1_555
C13 N5 1_555 1_555
H33 C13 1_555 1_555
C14 N8 1_555 1_555
H34 C14 1_555 1_555
C15 N8 1_555 1_555
H35 C15 1_555 1_555
C16 N7 1_555 1_555
H36 C16 1_555 1_555
C17 N5 1_555 1_555
H37 C17 1_555 1_555
H38 C17 1_555 1_555
C18 C17 1_555 1_555
H39 C18 1_555 1_555
H40 C18 1_555 1_555
C19 C18 1_555 1_555
H41 C19 1_555 1_555
H42 C19 1_555 1_555
C20 N7 1_555 1_555
H43 C20 1_555 1_555
H44 C20 1_555 1_555
C21 N10 1_555 1_555
H45 C21 1_555 1_555
C22 N10 1_555 1_555
H46 C22 1_555 1_555
C23 N9 1_555 1_555
H47 C23 1_555 1_555
C24 H48 1_555 1_555
C25 N12 1_555 1_555
H49 C25 1_555 1_555
C26 N11 1_555 1_555
H50 C26 1_555 1_555
C27 N9 1_555 1_555
H51 C27 1_555 1_555
H52 C27 1_555 1_555
C28 C27 1_555 1_555
H53 C28 1_555 1_555
H54 C28 1_555 1_555
C29 C28 1_555 1_555
H55 C29 1_555 1_555
H56 C29 1_555 1_555
C30 N11 1_555 1_555
H57 C30 1_555 1_555
H58 C30 1_555 1_555
C31 H59 1_555 1_555
C32 N14 1_555 1_555
H60 C32 1_555 1_555
C33 N13 1_555 1_555
H61 C33 1_555 1_555
C34 N16 1_555 1_555
H62 C34 1_555 1_555
C35 N16 1_555 1_555
H63 C35 1_555 1_555
C36 N15 1_555 1_555
H64 C36 1_555 1_555
C37 N13 1_555 1_555
H65 C37 1_555 1_555
H66 C37 1_555 1_555
C38 C37 1_555 1_555
H67 C38 1_555 1_555
H68 C38 1_555 1_555
C39 C38 1_555 1_555
H69 C39 1_555 1_555
H70 C39 1_555 1_555
C40 N15 1_555 1_555
H71 C40 1_555 1_555
H72 C40 1_555 1_555
C41 C42 1_555 1_555
C42 C43 1_555 1_555
C43 H73 1_555 1_555
C44 O3 1_555 1_555
C45 C44 1_555 1_555
H74 C45 1_555 1_555
C46 O4 1_555 1_555
C47 C42 1_555 1_555
H75 C47 1_555 1_555
C48 C49 1_555 1_555
C49 C50 1_555 1_555
C50 H76 1_555 1_555
C51 O8 1_555 1_555
C52 C51 1_555 1_555
H77 C52 1_555 1_555
C53 O7 1_555 1_555
C54 C49 1_555 1_555
H78 C54 1_555 1_555
C55 C56 1_555 1_555
C56 C57 1_555 1_555
C57 H79 1_555 1_555
C58 O11 1_555 1_555
C59 C58 1_555 1_555
H80 C59 1_555 1_555
C60 O12 1_555 1_555
C61 C56 1_555 1_555
H81 C61 1_555 1_555
C62 C63 1_555 1_555
C63 C64 1_555 1_555
C64 H82 1_555 1_555
C65 O15 1_555 1_555
C66 C65 1_555 1_555
H83 C66 1_555 1_555
C67 O16 1_555 1_555
C68 C63 1_555 1_555
H84 C68 1_555 1_555
C2 C3 1_555 1_555
C5 C6 1_555 1_555
C9 C10 1_555 1_555
C12 C13 1_555 1_555
C15 C16 1_555 1_555
C19 C20 1_555 1_555
C22 C23 1_555 1_555
C25 C26 1_555 1_555
C29 C30 1_555 1_555
C32 C33 1_555 1_555
C35 C36 1_555 1_555
C39 C40 1_555 1_555
C43 C44 1_555 1_555
C45 C46 1_555 1_555
C46 C47 1_555 1_555
C50 C51 1_555 1_555
C52 C53 1_555 1_555
C53 C54 1_555 1_555
C57 C58 1_555 1_555
C59 C60 1_555 1_555
C60 C61 1_555 1_555
C64 C65 1_555 1_555
C66 C67 1_555 1_555
C67 C68 1_555 1_555

#END
