
#######################################################################
#
#                 Cambridge Crystallographic Data Centre
#                                CCDC 
#
#######################################################################
#
# If this CIF has been generated from an entry in the Cambridge 
# Structural Database, then it will include bibliographic, chemical, 
# crystal, experimental, refinement or atomic coordinate data resulting 
# from the CCDC's data processing and validation procedures.
#
#######################################################################

data_FAVLAQ
_chemical_compound_source        'Lantana involucrata'
_chemical_name_common            'Lantalucratin A'
_chemical_formula_moiety         'C16 H14 O4'
_chemical_name_systematic        
6-methoxy-2-(prop-1-en-2-yl)-2,3-dihydronaphtho[1,2-b]furan-4,5-dione
_chemical_properties_biological  
'broad spectrum inhibition of human tumour cell replication'
_symmetry_cell_setting           orthorhombic
_symmetry_space_group_name_H-M   'P 21 21 21'
_symmetry_Int_Tables_number      19
_space_group_name_Hall           'P 2ac 2ab'
loop_
_symmetry_equiv_pos_site_id
_symmetry_equiv_pos_as_xyz
1 x,y,z
2 1/2-x,-y,1/2+z
3 1/2+x,1/2-y,-z
4 -x,1/2+y,1/2-z
_cell_length_a                   18.220(2)
_cell_length_b                   43.020(6)
_cell_length_c                   6.824(1)
_cell_angle_alpha                90
_cell_angle_beta                 90
_cell_angle_gamma                90
_cell_volume                     5348.82
_exptl_crystal_colour            'dark orange'
_chemical_melting_point          '419-431 K'
_cell_formula_units_Z            16
loop_
_atom_site_label
_atom_site_type_symbol
_atom_site_fract_x
_atom_site_fract_y
_atom_site_fract_z
O1 O 0.4407(1) 0.20383(5) -0.1039(5)
C1 C 0.3737(2) 0.18471(8) -0.1294(8)
C2 C 0.3097(2) 0.20597(8) -0.0656(8)
C3 C 0.3457(2) 0.23751(8) -0.0808(7)
C4 C 0.3154(2) 0.26731(8) -0.0678(7)
C5 C 0.3685(2) 0.29497(7) -0.1067(6)
C6 C 0.4497(2) 0.28861(7) -0.0993(6)
C7 C 0.5021(2) 0.31258(8) -0.0989(6)
C8 C 0.5773(2) 0.30488(7) -0.0948(7)
C9 C 0.5989(2) 0.27471(9) -0.0893(7)
C10 C 0.5481(2) 0.25035(8) -0.0886(6)
C11 C 0.4738(2) 0.25765(8) -0.0945(6)
C12 C 0.4190(2) 0.23342(7) -0.0946(6)
C13 C 0.3823(2) 0.15504(8) -0.0192(10)
C14 C 0.3731(3) 0.12914(10) -0.1056(14)
C15 C 0.3999(3) 0.15798(10) 0.1956(11)
O2 O 0.2511(1) 0.27354(6) -0.0334(6)
O3 O 0.3423(1) 0.31989(5) -0.1459(5)
O4 O 0.4769(1) 0.34202(5) -0.1002(5)
C16 C 0.5293(3) 0.36681(9) -0.0992(10)
H1 H 0.3633 0.17737 -0.2735
H2 H 0.2646 0.20402 -0.1608
H3 H 0.2928 0.20116 0.0783
H4 H 0.6150 0.32178 -0.0960
H5 H 0.6525 0.26977 -0.0857
H6 H 0.5648 0.22822 -0.0840
H7 H 0.3789 0.10922 -0.0316
H8 H 0.3614 0.12719 -0.2482
H9 H 0.4047 0.13573 0.2576
H10 H 0.4496 0.17002 0.2127
H11 H 0.3577 0.17024 0.2663
H12 H 0.5016 0.38822 -0.1004
H13 H 0.5619 0.36526 0.0274
H14 H 0.5629 0.36514 -0.2239
O5 O 0.5455(1) 0.20133(5) 0.4532(5)
C17 C 0.6099(2) 0.18159(8) 0.4980(8)
C18 C 0.6767(2) 0.20412(8) 0.5067(8)
C19 C 0.6409(2) 0.23492(7) 0.4647(6)
C20 C 0.6720(2) 0.26508(7) 0.4624(6)
C21 C 0.6202(2) 0.29203(7) 0.4024(6)
C22 C 0.5391(2) 0.28595(7) 0.4049(6)
C23 C 0.4875(2) 0.31009(9) 0.3968(6)
C24 C 0.4121(2) 0.30288(9) 0.3935(7)
C25 C 0.3893(2) 0.27258(9) 0.4003(7)
C26 C 0.4390(2) 0.24839(8) 0.4113(6)
C27 C 0.5137(2) 0.25540(8) 0.4160(6)
C28 C 0.5676(2) 0.23084(7) 0.4391(6)
C29 C 0.6146(2) 0.15638(8) 0.3489(8)
C30 C 0.6150(3) 0.12737(9) 0.4048(11)
C31 C 0.6194(3) 0.16650(10) 0.1361(9)
O6 O 0.7359(1) 0.27141(6) 0.5025(5)
O7 O 0.6474(1) 0.31581(5) 0.3499(5)
O8 O 0.5134(1) 0.33941(6) 0.3983(5)
C32 C 0.4617(2) 0.36488(9) 0.4059(10)
H15 H 0.6071 0.16985 0.6327
H16 H 0.7014 0.20393 0.6457
H17 H 0.7160 0.19855 0.3998
H18 H 0.3750 0.31998 0.3862
H19 H 0.3356 0.26786 0.3972
H20 H 0.4218 0.22633 0.4158
H21 H 0.6182 0.11045 0.3047
H22 H 0.6118 0.12071 0.5449
H23 H 0.6224 0.14679 0.0457
H24 H 0.5726 0.17951 0.0995
H25 H 0.6665 0.18020 0.1159
H26 H 0.4904 0.38605 0.4061
H27 H 0.4271 0.36394 0.2830
H28 H 0.4301 0.36314 0.5341
O9 O 0.3919(1) -0.07108(5) -0.1907(5)
C33 C 0.3192(2) -0.08448(8) -0.2388(8)
C34 C 0.2647(2) -0.05657(8) -0.2347(9)
C35 C 0.3159(2) -0.02972(7) -0.2117(7)
C36 C 0.3008(2) 0.00216(8) -0.2141(7)
C37 C 0.3656(2) 0.02450(8) -0.1734(7)
C38 C 0.4403(2) 0.01102(8) -0.1467(6)
C39 C 0.5021(2) 0.02999(8) -0.1136(6)
C40 C 0.5706(2) 0.01556(9) -0.0824(7)
C41 C 0.5775(2) -0.01585(9) -0.0857(7)
C42 C 0.5179(2) -0.03502(8) -0.1221(6)
C43 C 0.4490(2) -0.02092(7) -0.1514(6)
C44 C 0.3848(2) -0.04032(7) -0.1849(6)
C45 C 0.3021(2) -0.10993(8) -0.0974(9)
C46 C 0.2795(2) -0.13704(9) -0.1637(10)
C47 C 0.3114(3) -0.10285(11) 0.1183(10)
O10 O 0.2408(1) 0.01381(6) -0.2489(6)
O11 O 0.3509(2) 0.05140(6) -0.1648(7)
O12 O 0.4920(1) 0.06085(6) -0.1122(5)
C48 C 0.5555(2) 0.08021(10) -0.0887(11)
H29 H 0.3164 -0.09504 -0.3773
H30 H 0.2347 -0.05502 -0.3658
H31 H 0.2283 -0.05820 -0.1159
H32 H 0.6149 0.02870 -0.0574
H33 H 0.6267 -0.02538 -0.0613
H34 H 0.5236 -0.05812 -0.1274
H35 H 0.2680 -0.15409 -0.0609
H36 H 0.2734 -0.14172 -0.3063
H37 H 0.2977 -0.12259 0.2010
H38 H 0.3662 -0.09670 0.1461
H39 H 0.2768 -0.08434 0.1575
H40 H 0.5395 0.10366 -0.0903
H41 H 0.5811 0.07509 0.0454
H42 H 0.5924 0.07604 -0.2040
O13 O 0.6129(1) -0.07916(5) 0.4330(5)
C49 C 0.6877(2) -0.09270(9) 0.4606(8)
C50 C 0.7365(2) -0.06429(9) 0.5151(9)
C51 C 0.6855(2) -0.03747(8) 0.4890(7)
C52 C 0.6991(2) -0.00527(8) 0.5041(7)
C53 C 0.6345(2) 0.01675(8) 0.4514(6)
C54 C 0.5604(2) 0.00284(7) 0.4154(6)
C55 C 0.4977(2) 0.02145(8) 0.3876(6)
C56 C 0.4300(2) 0.00677(9) 0.3498(6)
C57 C 0.4249(2) -0.02482(8) 0.3420(6)
C58 C 0.4861(2) -0.04356(9) 0.3701(6)
C59 C 0.5532(2) -0.02938(7) 0.4075(6)
C60 C 0.6182(2) -0.04819(7) 0.4424(6)
C61 C 0.7100(2) -0.10823(7) 0.2766(8)
C62 C 0.7319(2) -0.13715(9) 0.2812(9)
C63 C 0.7057(2) -0.08982(9) 0.0886(9)
O14 O 0.7572(1) 0.00649(6) 0.5571(5)
O15 O 0.6473(1) 0.04425(6) 0.4416(7)
O16 O 0.5061(1) 0.05232(6) 0.3977(5)
C64 C 0.4433(2) 0.07204(9) 0.3818(10)
H43 H 0.6914 -0.10978 0.5701
H44 H 0.7549 -0.06580 0.6606
H45 H 0.7818 -0.06251 0.4207
H46 H 0.3851 0.01970 0.3284
H47 H 0.3762 -0.03469 0.3156
H48 H 0.4820 -0.06672 0.3636
H49 H 0.7470 -0.14765 0.1568
H50 H 0.7347 -0.14934 0.4057
H51 H 0.7231 -0.10376 -0.0288
H52 H 0.6513 -0.08271 0.0648
H53 H 0.7397 -0.07018 0.0991
H54 H 0.4598 0.09537 0.3927
H55 H 0.4177 0.06837 0.2459
H56 H 0.4063 0.06688 0.4951
loop_
_geom_bond_atom_site_label_1
_geom_bond_atom_site_label_2
_geom_bond_site_symmetry_1
_geom_bond_site_symmetry_2
O1 C1 1_555 1_555
C1 C2 1_555 1_555
C2 C3 1_555 1_555
C3 C4 1_555 1_555
C4 C5 1_555 1_555
C5 C6 1_555 1_555
C6 C7 1_555 1_555
C7 C8 1_555 1_555
C8 C9 1_555 1_555
C9 C10 1_555 1_555
C10 C11 1_555 1_555
C11 C6 1_555 1_555
C12 O1 1_555 1_555
C13 C1 1_555 1_555
C14 C13 1_555 1_555
C15 C13 1_555 1_555
O2 C4 1_555 1_555
O3 C5 1_555 1_555
O4 C7 1_555 1_555
C16 O4 1_555 1_555
H1 C1 1_555 1_555
H2 C2 1_555 1_555
H3 C2 1_555 1_555
H4 C8 1_555 1_555
H5 C9 1_555 1_555
H6 C10 1_555 1_555
H7 C14 1_555 1_555
H8 C14 1_555 1_555
H9 C15 1_555 1_555
H10 C15 1_555 1_555
H11 C15 1_555 1_555
H12 C16 1_555 1_555
H13 C16 1_555 1_555
H14 C16 1_555 1_555
O5 C17 1_555 1_555
C17 C18 1_555 1_555
C18 C19 1_555 1_555
C19 C20 1_555 1_555
C20 C21 1_555 1_555
C21 C22 1_555 1_555
C22 C23 1_555 1_555
C23 C24 1_555 1_555
C24 C25 1_555 1_555
C25 C26 1_555 1_555
C26 C27 1_555 1_555
C27 C22 1_555 1_555
C28 O5 1_555 1_555
C29 C17 1_555 1_555
C30 C29 1_555 1_555
C31 C29 1_555 1_555
O6 C20 1_555 1_555
O7 C21 1_555 1_555
O8 C23 1_555 1_555
C32 O8 1_555 1_555
H15 C17 1_555 1_555
H16 C18 1_555 1_555
H17 C18 1_555 1_555
H18 C24 1_555 1_555
H19 C25 1_555 1_555
H20 C26 1_555 1_555
H21 C30 1_555 1_555
H22 C30 1_555 1_555
H23 C31 1_555 1_555
H24 C31 1_555 1_555
H25 C31 1_555 1_555
H26 C32 1_555 1_555
H27 C32 1_555 1_555
H28 C32 1_555 1_555
O9 C33 1_555 1_555
C33 C34 1_555 1_555
C34 C35 1_555 1_555
C35 C36 1_555 1_555
C36 C37 1_555 1_555
C37 C38 1_555 1_555
C38 C39 1_555 1_555
C39 C40 1_555 1_555
C40 C41 1_555 1_555
C41 C42 1_555 1_555
C42 C43 1_555 1_555
C43 C38 1_555 1_555
C44 O9 1_555 1_555
C45 C33 1_555 1_555
C46 C45 1_555 1_555
C47 C45 1_555 1_555
O10 C36 1_555 1_555
O11 C37 1_555 1_555
O12 C39 1_555 1_555
C48 O12 1_555 1_555
H29 C33 1_555 1_555
H30 C34 1_555 1_555
H31 C34 1_555 1_555
H32 C40 1_555 1_555
H33 C41 1_555 1_555
H34 C42 1_555 1_555
H35 C46 1_555 1_555
H36 C46 1_555 1_555
H37 C47 1_555 1_555
H38 C47 1_555 1_555
H39 C47 1_555 1_555
H40 C48 1_555 1_555
H41 C48 1_555 1_555
H42 C48 1_555 1_555
O13 C49 1_555 1_555
C49 C50 1_555 1_555
C50 C51 1_555 1_555
C51 C52 1_555 1_555
C52 C53 1_555 1_555
C53 C54 1_555 1_555
C54 C55 1_555 1_555
C55 C56 1_555 1_555
C56 C57 1_555 1_555
C57 C58 1_555 1_555
C58 C59 1_555 1_555
C59 C54 1_555 1_555
C60 O13 1_555 1_555
C61 C49 1_555 1_555
C62 C61 1_555 1_555
C63 C61 1_555 1_555
O14 C52 1_555 1_555
O15 C53 1_555 1_555
O16 C55 1_555 1_555
C64 O16 1_555 1_555
H43 C49 1_555 1_555
H44 C50 1_555 1_555
H45 C50 1_555 1_555
H46 C56 1_555 1_555
H47 C57 1_555 1_555
H48 C58 1_555 1_555
H49 C62 1_555 1_555
H50 C62 1_555 1_555
H51 C63 1_555 1_555
H52 C63 1_555 1_555
H53 C63 1_555 1_555
H54 C64 1_555 1_555
H55 C64 1_555 1_555
H56 C64 1_555 1_555
C3 C12 1_555 1_555
C11 C12 1_555 1_555
C19 C28 1_555 1_555
C27 C28 1_555 1_555
C35 C44 1_555 1_555
C43 C44 1_555 1_555
C51 C60 1_555 1_555
C59 C60 1_555 1_555

#END
