
#######################################################################
#
#                 Cambridge Crystallographic Data Centre
#                                CCDC 
#
#######################################################################
#
# If this CIF has been generated from an entry in the Cambridge 
# Structural Database, then it will include bibliographic, chemical, 
# crystal, experimental, refinement or atomic coordinate data resulting 
# from the CCDC's data processing and validation procedures.
#
#######################################################################

data_FAVTUU
_chemical_formula_moiety         'C20 H22 O2 S1'
_chemical_name_systematic        
1-(4-hydroxy-4-methyl-2,6-diphenyltetrahydro-2H-thiopyran-3-yl)ethanone
_symmetry_cell_setting           triclinic
_symmetry_space_group_name_H-M   'P -1'
_symmetry_Int_Tables_number      2
_space_group_name_Hall           '-P 1'
loop_
_symmetry_equiv_pos_site_id
_symmetry_equiv_pos_as_xyz
1 x,y,z
2 -x,-y,-z
_cell_length_a                   11.585(2)
_cell_length_b                   12.202(2)
_cell_length_c                   13.597(3)
_cell_angle_alpha                104.94(3)
_cell_angle_beta                 91.23(3)
_cell_angle_gamma                110.64(3)
_cell_volume                     1724.43
_exptl_crystal_colour            colorless
_exptl_crystal_description       block
_cell_formula_units_Z            4
loop_
_atom_site_label
_atom_site_type_symbol
_atom_site_fract_x
_atom_site_fract_y
_atom_site_fract_z
S1 S 0.46699(5) 0.47485(5) 0.22272(4)
O1 O 0.31994(16) 0.66820(16) 0.02044(13)
O2 O 0.30850(14) 0.42240(14) -0.03819(11)
H1 H 0.3219 0.4893 -0.0510
C1 C 0.6021(2) 0.7935(2) 0.21460(19)
H2 H 0.6348 0.7709 0.1524
C2 C 0.6593(2) 0.9109(2) 0.2807(2)
H3 H 0.7300 0.9679 0.2633
C3 C 0.6127(2) 0.9440(2) 0.3715(2)
H4 H 0.6513 1.0241 0.4168
C4 C 0.5104(2) 0.8611(2) 0.39649(19)
H5 H 0.4793 0.8840 0.4595
C5 C 0.4520(2) 0.7438(2) 0.33032(17)
H6 H 0.3808 0.6874 0.3479
C6 C 0.4983(2) 0.70924(19) 0.23811(16)
C7 C 0.43741(19) 0.58284(18) 0.16414(16)
H7 H 0.4789 0.5811 0.1003
C8 C 0.29678(19) 0.54463(18) 0.13360(16)
H8 H 0.2536 0.5373 0.1958
C9 C 0.2744(2) 0.6432(2) 0.09586(17)
C10 C 0.1955(2) 0.7058(2) 0.1519(2)
H9 H 0.1129 0.6453 0.1515
H10 H 0.1875 0.7652 0.1181
H11 H 0.2341 0.7482 0.2229
C11 C 0.24136(19) 0.41991(19) 0.04953(16)
C12 C 0.1039(2) 0.3886(2) 0.01651(18)
H12 H 0.0695 0.3074 -0.0331
H13 H 0.0953 0.4493 -0.0152
H14 H 0.0588 0.3889 0.0767
C13 C 0.2559(2) 0.31817(19) 0.08842(17)
H15 H 0.2102 0.3125 0.1488
H16 H 0.2162 0.2398 0.0343
C14 C 0.3894(2) 0.33386(18) 0.11857(17)
H17 H 0.4353 0.3400 0.0575
C15 C 0.3995(2) 0.22877(18) 0.15307(16)
C16 C 0.3336(2) 0.1891(2) 0.22988(18)
H18 H 0.2814 0.2289 0.2622
C17 C 0.3438(2) 0.0919(2) 0.25935(19)
H19 H 0.2981 0.0654 0.3116
C18 C 0.4196(2) 0.0333(2) 0.21362(18)
H20 H 0.4267 -0.0328 0.2346
C19 C 0.4846(2) 0.0715(2) 0.13746(19)
H21 H 0.5366 0.0313 0.1053
C20 C 0.4744(2) 0.1687(2) 0.10739(18)
H22 H 0.5197 0.1943 0.0546
S2 S 0.94616(5) 0.47735(5) 0.27115(4)
O3 O 0.81985(15) 0.65471(15) 0.58056(12)
O4 O 0.81301(14) 0.41428(14) 0.51043(11)
H23 H 0.8367 0.4809 0.5569
C21 C 1.0632(2) 0.8057(2) 0.43682(19)
H24 H 1.1040 0.7917 0.4910
C22 C 1.0970(3) 0.9228(2) 0.4269(2)
H25 H 1.1595 0.9888 0.4754
C23 C 1.0410(2) 0.9440(2) 0.3477(2)
H26 H 1.0645 1.0246 0.3415
C24 C 0.9504(2) 0.8479(2) 0.2770(2)
H27 H 0.9123 0.8622 0.2214
C25 C 0.9149(2) 0.7309(2) 0.28703(18)
H28 H 0.8525 0.6652 0.2382
C26 C 0.96951(19) 0.70853(18) 0.36764(16)
C27 C 0.92481(19) 0.58296(18) 0.38411(16)
H29 H 0.9769 0.5855 0.4449
C28 C 0.78711(18) 0.54181(18) 0.40410(16)
H30 H 0.7354 0.5367 0.3420
C29 C 0.77425(19) 0.63943(19) 0.49397(17)
C30 C 0.7050(2) 0.7146(2) 0.47252(19)
H31 H 0.7499 0.7639 0.4289
H32 H 0.6976 0.7686 0.5373
H33 H 0.6218 0.6608 0.4373
C31 C 0.73853(19) 0.41549(19) 0.42544(16)
C32 C 0.6033(2) 0.3837(2) 0.44735(18)
H34 H 0.5530 0.3860 0.3896
H35 H 0.5991 0.4431 0.5099
H36 H 0.5713 0.3016 0.4566
C33 C 0.7465(2) 0.31672(18) 0.33368(16)
H37 H 0.7113 0.2369 0.3485
H38 H 0.6943 0.3130 0.2734
C34 C 0.8774(2) 0.33527(18) 0.30582(16)
H39 H 0.9301 0.3393 0.3668
C35 C 0.8805(2) 0.23294(18) 0.21665(16)
C36 C 0.8065(2) 0.2005(2) 0.12394(18)
H40 H 0.7559 0.2449 0.1154
C37 C 0.8066(2) 0.1033(2) 0.04395(18)
H41 H 0.7550 0.0804 -0.0189
C38 C 0.8812(2) 0.0396(2) 0.05526(18)
H42 H 0.8799 -0.0278 0.0007
C39 C 0.9575(2) 0.0738(2) 0.14591(18)
H43 H 1.0107 0.0316 0.1531
C40 C 0.9567(2) 0.16992(19) 0.22650(17)
H44 H 1.0089 0.1927 0.2890
loop_
_geom_bond_atom_site_label_1
_geom_bond_atom_site_label_2
_geom_bond_site_symmetry_1
_geom_bond_site_symmetry_2
S1 C7 1_555 1_555
O1 C9 1_555 1_555
O2 H1 1_555 1_555
C1 H2 1_555 1_555
C2 C1 1_555 1_555
H3 C2 1_555 1_555
C3 C2 1_555 1_555
H4 C3 1_555 1_555
C4 C3 1_555 1_555
H5 C4 1_555 1_555
C5 C4 1_555 1_555
H6 C5 1_555 1_555
C6 C1 1_555 1_555
C7 C6 1_555 1_555
H7 C7 1_555 1_555
C8 C7 1_555 1_555
H8 C8 1_555 1_555
C9 C8 1_555 1_555
C10 C9 1_555 1_555
H9 C10 1_555 1_555
H10 C10 1_555 1_555
H11 C10 1_555 1_555
C11 O2 1_555 1_555
C12 C11 1_555 1_555
H12 C12 1_555 1_555
H13 C12 1_555 1_555
H14 C12 1_555 1_555
C13 C11 1_555 1_555
H15 C13 1_555 1_555
H16 C13 1_555 1_555
C14 S1 1_555 1_555
H17 C14 1_555 1_555
C15 C14 1_555 1_555
C16 C15 1_555 1_555
H18 C16 1_555 1_555
C17 C16 1_555 1_555
H19 C17 1_555 1_555
C18 C17 1_555 1_555
H20 C18 1_555 1_555
C19 C18 1_555 1_555
H21 C19 1_555 1_555
C20 C15 1_555 1_555
H22 C20 1_555 1_555
S2 C27 1_555 1_555
O3 C29 1_555 1_555
O4 H23 1_555 1_555
C21 H24 1_555 1_555
C22 C21 1_555 1_555
H25 C22 1_555 1_555
C23 C22 1_555 1_555
H26 C23 1_555 1_555
C24 C23 1_555 1_555
H27 C24 1_555 1_555
C25 C24 1_555 1_555
H28 C25 1_555 1_555
C26 C21 1_555 1_555
C27 C26 1_555 1_555
H29 C27 1_555 1_555
C28 C27 1_555 1_555
H30 C28 1_555 1_555
C29 C28 1_555 1_555
C30 C29 1_555 1_555
H31 C30 1_555 1_555
H32 C30 1_555 1_555
H33 C30 1_555 1_555
C31 O4 1_555 1_555
C32 C31 1_555 1_555
H34 C32 1_555 1_555
H35 C32 1_555 1_555
H36 C32 1_555 1_555
C33 C31 1_555 1_555
H37 C33 1_555 1_555
H38 C33 1_555 1_555
C34 S2 1_555 1_555
H39 C34 1_555 1_555
C35 C34 1_555 1_555
C36 C35 1_555 1_555
H40 C36 1_555 1_555
C37 C36 1_555 1_555
H41 C37 1_555 1_555
C38 C37 1_555 1_555
H42 C38 1_555 1_555
C39 C38 1_555 1_555
H43 C39 1_555 1_555
C40 C35 1_555 1_555
H44 C40 1_555 1_555
C5 C6 1_555 1_555
C8 C11 1_555 1_555
C13 C14 1_555 1_555
C19 C20 1_555 1_555
C25 C26 1_555 1_555
C28 C31 1_555 1_555
C33 C34 1_555 1_555
C39 C40 1_555 1_555

#END
