
#######################################################################
#
#                 Cambridge Crystallographic Data Centre
#                                CCDC 
#
#######################################################################
#
# If this CIF has been generated from an entry in the Cambridge 
# Structural Database, then it will include bibliographic, chemical, 
# crystal, experimental, refinement or atomic coordinate data resulting 
# from the CCDC's data processing and validation procedures.
#
#######################################################################

data_FAVWIL
_chemical_formula_moiety         'C23 H34 O6'
_chemical_name_systematic        
10-ethoxy-9-((4-methoxybenzyl)oxy)-1,4,4,6-tetramethyl-3,5-dioxatricyclo[5.2.2.0^2,6^]undecan-8-ol
_symmetry_cell_setting           orthorhombic
_symmetry_space_group_name_H-M   'P 21 21 21'
_symmetry_Int_Tables_number      19
_space_group_name_Hall           'P 2ac 2ab'
loop_
_symmetry_equiv_pos_site_id
_symmetry_equiv_pos_as_xyz
1 x,y,z
2 1/2+x,1/2-y,-z
3 -x,1/2+y,1/2-z
4 1/2-x,-y,1/2+z
_cell_length_a                   7.9838(1)
_cell_length_b                   14.1145(1)
_cell_length_c                   18.8516(1)
_cell_angle_alpha                90
_cell_angle_beta                 90
_cell_angle_gamma                90
_cell_volume                     2124.34
_exptl_crystal_colour            colorless
_exptl_crystal_description       plate
_cell_formula_units_Z            4
_exptl_crystal_recrystallization_method 'ethyl acetate / petroleum spirits'
loop_
_atom_site_label
_atom_site_type_symbol
_atom_site_fract_x
_atom_site_fract_y
_atom_site_fract_z
O1 O 0.98263(9) 0.84368(5) 0.35597(4)
O2 O 0.64826(12) 0.64853(6) 0.50265(4)
O3 O 0.84699(9) 0.56496(4) 0.41215(4)
O4 O 0.97754(10) 0.12759(5) 0.41579(4)
O5 O 0.65373(9) 0.69302(5) 0.23196(3)
O6 O 0.41926(9) 0.72738(5) 0.29476(4)
C1 C 0.71332(13) 0.71462(7) 0.45269(5)
C2 C 0.85627(12) 0.66566(6) 0.40972(5)
C3 C 0.84672(12) 0.69409(6) 0.33086(5)
C4 C 0.68286(12) 0.65311(7) 0.30077(5)
C5 C 0.52786(11) 0.68181(7) 0.34541(5)
C6 C 0.58356(12) 0.75609(7) 0.40067(5)
C7 C 0.83413(12) 0.80274(7) 0.32581(5)
C8 C 0.67282(13) 0.83822(7) 0.36279(5)
C9 C 0.99808(12) 0.65621(8) 0.29030(5)
C10 C 0.43778(14) 0.59753(8) 0.37823(6)
C11 C 0.47816(13) 0.70860(8) 0.22447(5)
C12 C 0.45018(17) 0.79554(10) 0.17960(6)
C13 C 0.39564(14) 0.62094(10) 0.19247(6)
C14 C 1.04443(15) 0.92083(8) 0.31479(6)
C15 C 1.21168(14) 0.95226(8) 0.34301(6)
C16 C 0.94943(14) 0.52332(7) 0.46570(5)
C17 C 0.95350(13) 0.41828(7) 0.45347(5)
C18 C 1.05310(13) 0.37946(7) 0.39955(5)
C19 C 1.05844(13) 0.28292(7) 0.38780(5)
C20 C 0.96204(13) 0.22243(7) 0.42985(5)
C21 C 0.86053(14) 0.25935(7) 0.48278(6)
C22 C 0.85765(14) 0.35708(7) 0.49428(6)
C23 C 0.89997(16) 0.06431(8) 0.46496(7)
H1 H 0.610(2) 0.6765(12) 0.5353(10)
H2 H 0.7610 0.7686 0.4789
H3 H 0.9660 0.6858 0.4297
H4 H 0.6948 0.5834 0.2977
H5 H 0.4863 0.7798 0.4267
H6 H 0.8282 0.8200 0.2765
H7 H 0.7018 0.8873 0.3973
H8 H 0.5963 0.8673 0.3278
H9 H 0.9828 0.6657 0.2396
H10 H 1.1001 0.6863 0.3059
H11 H 1.0135 0.5879 0.2979
H12 H 0.5136 0.5605 0.4082
H13 H 0.3428 0.6204 0.4076
H14 H 0.3918 0.5561 0.3423
H15 H 0.3312 0.8087 0.1759
H16 H 0.5066 0.8503 0.1999
H17 H 0.4937 0.7851 0.1317
H18 H 0.2758 0.6270 0.1917
H19 H 0.4355 0.6109 0.1439
H20 H 0.4244 0.5654 0.2218
H21 H 0.9554 0.9728 0.3169
H22 H 1.0510 0.8990 0.2660
H23 H 1.2508 1.0052 0.3149
H24 H 1.2002 0.9730 0.3929
H25 H 1.2912 0.9012 0.3394
H26 H 1.0646 0.5499 0.4610
H27 H 0.9023 0.5395 0.5131
H28 H 1.1215 0.4217 0.3716
H29 H 1.1283 0.2580 0.3528
H30 H 0.7933 0.2175 0.5102
H31 H 0.7904 0.3823 0.5311
H32 H 0.9347 0.0011 0.4510
H33 H 0.9449 0.0778 0.5117
H34 H 0.7783 0.0710 0.4635
loop_
_geom_bond_atom_site_label_1
_geom_bond_atom_site_label_2
_geom_bond_site_symmetry_1
_geom_bond_site_symmetry_2
O1 C7 1_555 1_555
O2 C1 1_555 1_555
O3 C2 1_555 1_555
O4 C20 1_555 1_555
O5 C4 1_555 1_555
O6 C5 1_555 1_555
C1 C2 1_555 1_555
C2 C3 1_555 1_555
C3 C4 1_555 1_555
C4 C5 1_555 1_555
C5 C6 1_555 1_555
C6 C1 1_555 1_555
C7 C3 1_555 1_555
C8 C6 1_555 1_555
C9 C3 1_555 1_555
C10 C5 1_555 1_555
C11 O5 1_555 1_555
C12 C11 1_555 1_555
C13 C11 1_555 1_555
C14 O1 1_555 1_555
C15 C14 1_555 1_555
C16 O3 1_555 1_555
C17 C16 1_555 1_555
C18 C17 1_555 1_555
C19 C18 1_555 1_555
C20 C19 1_555 1_555
C21 C20 1_555 1_555
C22 C17 1_555 1_555
C23 O4 1_555 1_555
H1 O2 1_555 1_555
H2 C1 1_555 1_555
H3 C2 1_555 1_555
H4 C4 1_555 1_555
H5 C6 1_555 1_555
H6 C7 1_555 1_555
H7 C8 1_555 1_555
H8 C8 1_555 1_555
H9 C9 1_555 1_555
H10 C9 1_555 1_555
H11 C9 1_555 1_555
H12 C10 1_555 1_555
H13 C10 1_555 1_555
H14 C10 1_555 1_555
H15 C12 1_555 1_555
H16 C12 1_555 1_555
H17 C12 1_555 1_555
H18 C13 1_555 1_555
H19 C13 1_555 1_555
H20 C13 1_555 1_555
H21 C14 1_555 1_555
H22 C14 1_555 1_555
H23 C15 1_555 1_555
H24 C15 1_555 1_555
H25 C15 1_555 1_555
H26 C16 1_555 1_555
H27 C16 1_555 1_555
H28 C18 1_555 1_555
H29 C19 1_555 1_555
H30 C21 1_555 1_555
H31 C22 1_555 1_555
H32 C23 1_555 1_555
H33 C23 1_555 1_555
H34 C23 1_555 1_555
O6 C11 1_555 1_555
C7 C8 1_555 1_555
C21 C22 1_555 1_555

#END
