
#######################################################################
#
#                 Cambridge Crystallographic Data Centre
#                                CCDC 
#
#######################################################################
#
# If this CIF has been generated from an entry in the Cambridge 
# Structural Database, then it will include bibliographic, chemical, 
# crystal, experimental, refinement or atomic coordinate data resulting 
# from the CCDC's data processing and validation procedures.
#
#######################################################################

data_FAVWOR
_chemical_formula_moiety         'C15 H24 O4'
_chemical_name_systematic        
11-ethoxy-2,4,4,7-tetramethyl-3,5-dioxatricyclo[5.2.2.0^2,6^]undecan-8-one
_symmetry_cell_setting           orthorhombic
_symmetry_space_group_name_H-M   'P 21 21 21'
_symmetry_Int_Tables_number      19
_space_group_name_Hall           'P 2ac 2ab'
loop_
_symmetry_equiv_pos_site_id
_symmetry_equiv_pos_as_xyz
1 x,y,z
2 1/2+x,1/2-y,-z
3 -x,1/2+y,1/2-z
4 1/2-x,-y,1/2+z
_cell_length_a                   7.6721(1)
_cell_length_b                   9.3354(2)
_cell_length_c                   20.5773(3)
_cell_angle_alpha                90
_cell_angle_beta                 90
_cell_angle_gamma                90
_cell_volume                     1473.79
_exptl_crystal_colour            colorless
_exptl_crystal_description       block
_cell_formula_units_Z            4
_exptl_crystal_recrystallization_method 'ethyl acetate / petroleum spirits'
loop_
_atom_site_label
_atom_site_type_symbol
_atom_site_fract_x
_atom_site_fract_y
_atom_site_fract_z
O1 O 0.76483(11) 0.52875(8) 0.52724(3)
O2 O 0.93149(12) 0.61293(8) 0.67354(4)
O3 O 0.86090(9) 0.13568(7) 0.61837(4)
O4 O 0.60590(9) 0.12242(8) 0.67377(4)
C1 C 0.63682(15) 0.52392(12) 0.66862(5)
C2 C 0.83046(15) 0.52293(11) 0.65370(5)
C3 C 0.88686(12) 0.39397(11) 0.61295(5)
C4 C 0.85727(13) 0.26256(10) 0.65702(5)
C5 C 0.67339(13) 0.26249(11) 0.68827(5)
C6 C 0.56151(14) 0.37518(12) 0.65324(5)
C7 C 0.75716(13) 0.38826(11) 0.55542(5)
C8 C 0.57238(14) 0.35142(12) 0.57970(5)
C9 C 1.07541(14) 0.40415(12) 0.59071(6)
C10 C 0.67860(16) 0.28535(12) 0.76180(5)
C11 C 0.74516(14) 0.03611(11) 0.64878(5)
C12 C 0.67439(18) -0.06316(12) 0.59714(6)
C13 C 0.83667(17) -0.04446(12) 0.70315(6)
C14 C 0.69903(16) 0.53496(13) 0.46224(5)
C15 C 0.69043(19) 0.69081(13) 0.44315(6)
H1 H 0.6204 0.5511 0.7149
H2 H 0.5802 0.5947 0.6402
H3 H 0.9489 0.2607 0.6908
H4 H 0.4381 0.3682 0.6685
H5 H 0.7982 0.3183 0.5226
H6 H 0.4869 0.4148 0.5566
H7 H 0.5446 0.2483 0.5712
H8 H 1.1080 0.3150 0.5669
H9 H 1.1549 0.4155 0.6278
H10 H 1.0899 0.4865 0.5608
H11 H 0.7393 0.3746 0.7724
H12 H 0.7424 0.2054 0.7841
H13 H 0.5587 0.2897 0.7786
H14 H 0.5865 -0.1273 0.6152
H15 H 0.7721 -0.1204 0.5790
H16 H 0.6209 -0.0076 0.5617
H17 H 0.7518 -0.1079 0.7248
H18 H 0.8876 0.0238 0.7341
H19 H 0.9260 -0.1051 0.6848
H20 H 0.7780 0.4798 0.4325
H21 H 0.5849 0.4894 0.4612
H22 H 0.6492 0.7012 0.3980
H23 H 0.8093 0.7359 0.4473
H24 H 0.6066 0.7409 0.4721
loop_
_geom_bond_atom_site_label_1
_geom_bond_atom_site_label_2
_geom_bond_site_symmetry_1
_geom_bond_site_symmetry_2
O1 C7 1_555 1_555
O2 C2 1_555 1_555
O3 C4 1_555 1_555
O4 C5 1_555 1_555
C1 C2 1_555 1_555
C2 C3 1_555 1_555
C3 C4 1_555 1_555
C4 C5 1_555 1_555
C5 C6 1_555 1_555
C6 C1 1_555 1_555
C7 C3 1_555 1_555
C8 C6 1_555 1_555
C9 C3 1_555 1_555
C10 C5 1_555 1_555
C11 O3 1_555 1_555
C12 C11 1_555 1_555
C13 C11 1_555 1_555
C14 O1 1_555 1_555
C15 C14 1_555 1_555
H1 C1 1_555 1_555
H2 C1 1_555 1_555
H3 C4 1_555 1_555
H4 C6 1_555 1_555
H5 C7 1_555 1_555
H6 C8 1_555 1_555
H7 C8 1_555 1_555
H8 C9 1_555 1_555
H9 C9 1_555 1_555
H10 C9 1_555 1_555
H11 C10 1_555 1_555
H12 C10 1_555 1_555
H13 C10 1_555 1_555
H14 C12 1_555 1_555
H15 C12 1_555 1_555
H16 C12 1_555 1_555
H17 C13 1_555 1_555
H18 C13 1_555 1_555
H19 C13 1_555 1_555
H20 C14 1_555 1_555
H21 C14 1_555 1_555
H22 C15 1_555 1_555
H23 C15 1_555 1_555
H24 C15 1_555 1_555
O4 C11 1_555 1_555
C7 C8 1_555 1_555

#END
