
#######################################################################
#
#                 Cambridge Crystallographic Data Centre
#                                CCDC 
#
#######################################################################
#
# If this CIF has been generated from an entry in the Cambridge 
# Structural Database, then it will include bibliographic, chemical, 
# crystal, experimental, refinement or atomic coordinate data resulting 
# from the CCDC's data processing and validation procedures.
#
#######################################################################

data_FAVYIM
_chemical_formula_moiety         'C21 H16 O2'
_chemical_name_systematic        
(E)-2-(4-Methylbenzylidene)-2,3-dihydro-1H-benzo[f]chromen-1-one
_chemical_properties_biological  'Tested for cytotoxic activity.'
_symmetry_cell_setting           monoclinic
_symmetry_space_group_name_H-M   'P 21/c'
_symmetry_Int_Tables_number      14
_space_group_name_Hall           '-P 2ybc'
loop_
_symmetry_equiv_pos_site_id
_symmetry_equiv_pos_as_xyz
1 x,y,z
2 -x,1/2+y,1/2-z
3 -x,-y,-z
4 x,1/2-y,1/2+z
_cell_length_a                   21.517(7)
_cell_length_b                   10.658(3)
_cell_length_c                   13.632(4)
_cell_angle_alpha                90
_cell_angle_beta                 108.410(7)
_cell_angle_gamma                90
_cell_volume                     2966.21
_exptl_crystal_colour            yellow
_exptl_crystal_description       plate
_chemical_melting_point          '151 deg.C'
_cell_formula_units_Z            8
_exptl_crystal_recrystallization_method methanol
loop_
_atom_site_label
_atom_site_type_symbol
_atom_site_fract_x
_atom_site_fract_y
_atom_site_fract_z
C1 C 0.0774(2) 0.3988(3) -0.0125(3)
H1 H 0.1183 0.4194 -0.0275
H2 H 0.0401 0.4271 -0.0719
C2 C 0.0732(2) 0.2600(3) -0.0004(3)
C3 C 0.11200(19) 0.2063(3) 0.1012(3)
C4 C 0.13754(18) 0.2960(3) 0.1865(3)
C5 C 0.17645(19) 0.2587(3) 0.2881(3)
C6 C 0.20158(19) 0.1363(3) 0.3168(3)
H3 H 0.1936 0.0730 0.2653
C7 C 0.23685(19) 0.1068(3) 0.4161(3)
H4 H 0.2530 0.0238 0.4320
C8 C 0.2498(2) 0.1969(4) 0.4953(3)
H5 H 0.2740 0.1751 0.5644
C9 C 0.2272(2) 0.3151(4) 0.4714(3)
H6 H 0.2362 0.3766 0.5245
C10 C 0.1907(2) 0.3492(3) 0.3699(3)
C11 C 0.16561(19) 0.4729(3) 0.3480(3)
H7 H 0.1746 0.5328 0.4022
C12 C 0.12897(19) 0.5072(3) 0.2511(3)
H8 H 0.1127 0.5905 0.2379
C13 C 0.11514(19) 0.4187(3) 0.1701(3)
C14 C 0.03704(19) 0.1824(3) -0.0726(3)
H9 H 0.0369 0.0974 -0.0517
C15 C -0.00244(19) 0.2089(3) -0.1793(3)
C16 C -0.0575(2) 0.1342(3) -0.2254(3)
H10 H -0.0695 0.0705 -0.1861
C17 C -0.0947(2) 0.1523(3) -0.3275(3)
H11 H -0.1321 0.1011 -0.3569
C18 C -0.0785(2) 0.2436(3) -0.3881(3)
C19 C -0.0239(2) 0.3169(3) -0.3423(3)
H12 H -0.0119 0.3801 -0.3821
C20 C 0.01360(19) 0.3004(3) -0.2402(3)
H13 H 0.0508 0.3522 -0.2111
C21 C -0.1166(2) 0.2578(4) -0.5004(4)
H14 H -0.0947 0.2115 -0.5421
H15 H -0.1192 0.3468 -0.5193
H16 H -0.1609 0.2244 -0.5132
O1 O 0.12018(14) 0.0925(2) 0.1108(2)
O2 O 0.07629(14) 0.4644(2) 0.0791(2)
C22 C 0.42407(19) 0.8970(3) 0.4014(3)
H17 H 0.4599 0.9276 0.3764
H18 H 0.3819 0.9160 0.3477
C23 C 0.4304(2) 0.7578(3) 0.4176(3)
C24 C 0.39160(18) 0.7039(3) 0.4802(3)
C25 C 0.36571(18) 0.7913(4) 0.5397(3)
C26 C 0.32586(19) 0.7539(3) 0.6019(3)
C27 C 0.29667(18) 0.6347(3) 0.5962(3)
H19 H 0.3032 0.5740 0.5494
C28 C 0.2592(2) 0.6053(4) 0.6572(3)
H20 H 0.2393 0.5248 0.6507
C29 C 0.2492(2) 0.6900(4) 0.7285(3)
H21 H 0.2244 0.6664 0.7720
C30 C 0.2757(2) 0.8074(4) 0.7350(3)
H22 H 0.2679 0.8668 0.7817
C31 C 0.31435(18) 0.8410(3) 0.6734(3)
C32 C 0.3428(2) 0.9622(3) 0.6827(3)
H23 H 0.3361 1.0192 0.7320
C33 C 0.37940(19) 0.9986(3) 0.6228(3)
H24 H 0.3982 1.0802 0.6303
C34 C 0.38934(19) 0.9143(4) 0.5492(3)
C35 C 0.46813(19) 0.6828(3) 0.3834(3)
H25 H 0.4694 0.5980 0.4054
C36 C 0.50799(19) 0.7103(3) 0.3170(3)
C37 C 0.56557(19) 0.6425(3) 0.3295(3)
H26 H 0.5785 0.5799 0.3816
C38 C 0.6037(2) 0.6651(3) 0.2676(3)
H27 H 0.6434 0.6200 0.2793
C39 C 0.5854(2) 0.7530(3) 0.1876(3)
C40 C 0.52795(19) 0.8196(4) 0.1749(3)
H28 H 0.5146 0.8807 0.1216
C41 C 0.4897(2) 0.7993(3) 0.2380(3)
H29 H 0.4506 0.8464 0.2275
C42 C 0.6254(2) 0.7738(4) 0.1177(3)
H30 H 0.6138 0.7111 0.0623
H31 H 0.6720 0.7660 0.1572
H32 H 0.6168 0.8580 0.0876
O3 O 0.38530(14) 0.5892(2) 0.4839(2)
O4 O 0.42685(13) 0.9615(2) 0.4959(2)
loop_
_geom_bond_atom_site_label_1
_geom_bond_atom_site_label_2
_geom_bond_site_symmetry_1
_geom_bond_site_symmetry_2
C1 H1 1_555 1_555
H2 C1 1_555 1_555
C2 C1 1_555 1_555
C3 C2 1_555 1_555
C4 C3 1_555 1_555
C5 C4 1_555 1_555
C6 C5 1_555 1_555
H3 C6 1_555 1_555
C7 C6 1_555 1_555
H4 C7 1_555 1_555
C8 C7 1_555 1_555
H5 C8 1_555 1_555
C9 C8 1_555 1_555
H6 C9 1_555 1_555
C10 C5 1_555 1_555
C11 C10 1_555 1_555
H7 C11 1_555 1_555
C12 C11 1_555 1_555
H8 C12 1_555 1_555
C13 C4 1_555 1_555
C14 C2 1_555 1_555
H9 C14 1_555 1_555
C15 C14 1_555 1_555
C16 C15 1_555 1_555
H10 C16 1_555 1_555
C17 C16 1_555 1_555
H11 C17 1_555 1_555
C18 C17 1_555 1_555
C19 C18 1_555 1_555
H12 C19 1_555 1_555
C20 C15 1_555 1_555
H13 C20 1_555 1_555
C21 C18 1_555 1_555
H14 C21 1_555 1_555
H15 C21 1_555 1_555
H16 C21 1_555 1_555
C22 H17 1_555 1_555
H18 C22 1_555 1_555
C23 C22 1_555 1_555
C24 C23 1_555 1_555
C25 C24 1_555 1_555
C26 C25 1_555 1_555
C27 C26 1_555 1_555
H19 C27 1_555 1_555
C28 C27 1_555 1_555
H20 C28 1_555 1_555
C29 C28 1_555 1_555
H21 C29 1_555 1_555
C30 C29 1_555 1_555
H22 C30 1_555 1_555
C31 C26 1_555 1_555
C32 C31 1_555 1_555
H23 C32 1_555 1_555
C33 C32 1_555 1_555
H24 C33 1_555 1_555
C34 C25 1_555 1_555
C35 C23 1_555 1_555
H25 C35 1_555 1_555
C36 C35 1_555 1_555
C37 C36 1_555 1_555
H26 C37 1_555 1_555
C38 C37 1_555 1_555
H27 C38 1_555 1_555
C39 C38 1_555 1_555
C40 C39 1_555 1_555
H28 C40 1_555 1_555
C41 C36 1_555 1_555
H29 C41 1_555 1_555
C42 C39 1_555 1_555
H30 C42 1_555 1_555
H31 C42 1_555 1_555
H32 C42 1_555 1_555
O1 C3 1_555 1_555
O2 C1 1_555 1_555
O3 C24 1_555 1_555
O4 C22 1_555 1_555
C9 C10 1_555 1_555
C12 C13 1_555 1_555
C13 O2 1_555 1_555
C19 C20 1_555 1_555
C30 C31 1_555 1_555
C33 C34 1_555 1_555
C34 O4 1_555 1_555
C40 C41 1_555 1_555

#END
