
#######################################################################
#
#                 Cambridge Crystallographic Data Centre
#                                CCDC 
#
#######################################################################
#
# If this CIF has been generated from an entry in the Cambridge 
# Structural Database, then it will include bibliographic, chemical, 
# crystal, experimental, refinement or atomic coordinate data resulting 
# from the CCDC's data processing and validation procedures.
#
#######################################################################

data_FAWCOY
_chemical_formula_moiety         'C21 H21 Cl2 N1 O2 S1'
_chemical_name_systematic        
2-chloro-7-(4-chlorobenzylidene)-6-((4-methylphenyl)sulfonyl)-6-azabicyclo[3.2.1]octane
_symmetry_cell_setting           triclinic
_symmetry_space_group_name_H-M   'P -1'
_symmetry_Int_Tables_number      2
_space_group_name_Hall           '-P 1'
loop_
_symmetry_equiv_pos_site_id
_symmetry_equiv_pos_as_xyz
1 x,y,z
2 -x,-y,-z
_cell_length_a                   8.0645(2)
_cell_length_b                   10.0952(2)
_cell_length_c                   13.0450(3)
_cell_angle_alpha                82.3770(10)
_cell_angle_beta                 87.0400(10)
_cell_angle_gamma                70.2740(10)
_cell_volume                     990.845
_exptl_crystal_colour            colorless
_exptl_crystal_description       prism
_cell_formula_units_Z            2
loop_
_atom_site_label
_atom_site_type_symbol
_atom_site_fract_x
_atom_site_fract_y
_atom_site_fract_z
C1 C 0.3548(6) 0.0309(5) 0.1630(3)
C2 C 0.4204(6) 0.0687(5) 0.2463(4)
H1 H 0.4330 0.1594 0.2432
C3 C 0.4673(7) -0.0279(6) 0.3337(4)
H2 H 0.5111 -0.0023 0.3916
C4 C 0.4522(7) -0.1613(6) 0.3397(4)
C5 C 0.5055(11) -0.2664(8) 0.4366(5)
H3 H 0.6216 -0.2707 0.4590
H4 H 0.5108 -0.3604 0.4219
H5 H 0.4187 -0.2359 0.4916
C6 C 0.3898(7) -0.1975(6) 0.2549(4)
H6 H 0.3801 -0.2890 0.2574
C7 C 0.3416(7) -0.1029(5) 0.1668(4)
H7 H 0.2993 -0.1293 0.1087
C8 C -0.1077(15) 0.2299(8) 0.0632(5)
H8 H -0.1109 0.1959 -0.0051
C9 C -0.1046(12) 0.1316(8) 0.1443(6)
H9 H -0.0027 0.0456 0.1350
H10 H -0.2123 0.1059 0.1417
C10 C -0.0937(7) 0.1689(5) 0.2478(4)
H11 H 0.0313 0.1330 0.2690
H12 H -0.1584 0.1202 0.2969
C11 C -0.1672(13) 0.3266(6) 0.2561(5)
H13 H -0.1060 0.3522 0.3113
C12 C -0.1831(12) 0.4193(6) 0.1675(6)
H14 H -0.2375 0.5213 0.1783
C13 C -0.2429(8) 0.3831(7) 0.0713(4)
H15 H -0.2346 0.4503 0.0103
H16 H -0.3653 0.3822 0.0785
C14 C 0.0403(7) 0.3654(6) 0.1507(5)
C15 C 0.1441(5) 0.4278(4) 0.1811(3)
H17 H 0.2613 0.4027 0.1548
C16 C 0.0890(5) 0.5358(4) 0.2543(3)
C17 C -0.0243(6) 0.6723(5) 0.2250(3)
H18 H -0.0674 0.6976 0.1562
C18 C -0.0761(7) 0.7728(5) 0.2937(4)
H19 H -0.1548 0.8655 0.2728
C19 C -0.0110(6) 0.7352(5) 0.3930(4)
C20 C 0.1027(6) 0.6025(5) 0.4238(3)
H20 H 0.1484 0.5790 0.4920
C21 C 0.1509(5) 0.5026(5) 0.3553(3)
H21 H 0.2276 0.4096 0.3775
N1 N 0.0784(5) 0.2582(4) 0.0826(3)
O1 O 0.3850(4) 0.2441(3) 0.0378(3)
O2 O 0.2542(5) 0.0825(4) -0.0278(2)
S1 S 0.27803(14) 0.15591(11) 0.05369(8)
Cl1 Cl -0.42844(17) 0.38142(16) 0.28423(12)
Cl2 Cl -0.0760(2) 0.86005(15) 0.48055(12)
loop_
_geom_bond_atom_site_label_1
_geom_bond_atom_site_label_2
_geom_bond_site_symmetry_1
_geom_bond_site_symmetry_2
C1 C2 1_555 1_555
C2 H1 1_555 1_555
C3 C2 1_555 1_555
H2 C3 1_555 1_555
C4 C3 1_555 1_555
C5 C4 1_555 1_555
H3 C5 1_555 1_555
H4 C5 1_555 1_555
H5 C5 1_555 1_555
C6 C4 1_555 1_555
H6 C6 1_555 1_555
C7 C1 1_555 1_555
H7 C7 1_555 1_555
C8 H8 1_555 1_555
C9 C8 1_555 1_555
H9 C9 1_555 1_555
H10 C9 1_555 1_555
C10 C9 1_555 1_555
H11 C10 1_555 1_555
H12 C10 1_555 1_555
C11 C10 1_555 1_555
H13 C11 1_555 1_555
C12 C11 1_555 1_555
H14 C12 1_555 1_555
C13 C8 1_555 1_555
H15 C13 1_555 1_555
H16 C13 1_555 1_555
C14 C12 1_555 1_555
C15 C14 1_555 1_555
H17 C15 1_555 1_555
C16 C15 1_555 1_555
C17 C16 1_555 1_555
H18 C17 1_555 1_555
C18 C17 1_555 1_555
H19 C18 1_555 1_555
C19 C18 1_555 1_555
C20 C19 1_555 1_555
H20 C20 1_555 1_555
C21 C16 1_555 1_555
H21 C21 1_555 1_555
N1 C8 1_555 1_555
O1 S1 1_555 1_555
O2 S1 1_555 1_555
S1 C1 1_555 1_555
Cl1 C11 1_555 1_555
Cl2 C19 1_555 1_555
C6 C7 1_555 1_555
C12 C13 1_555 1_555
C14 N1 1_555 1_555
C20 C21 1_555 1_555
N1 S1 1_555 1_555

#END
