
#######################################################################
#
#                 Cambridge Crystallographic Data Centre
#                                CCDC 
#
#######################################################################
#
# If this CIF has been generated from an entry in the Cambridge 
# Structural Database, then it will include bibliographic, chemical, 
# crystal, experimental, refinement or atomic coordinate data resulting 
# from the CCDC's data processing and validation procedures.
#
#######################################################################

data_FAWCIS
_chemical_formula_moiety         'C26 H22 Br1 N3 O4 S1'
_chemical_name_systematic        
'methyl 1-(3-bromophenyl)-4-((4-methylphenyl)sulfonyl)-1,11b-dihydro-4H-pyridazino[1,6-c]quinazoline-2-carboxylate'
_symmetry_cell_setting           monoclinic
_symmetry_space_group_name_H-M   'P 21'
_symmetry_Int_Tables_number      4
_space_group_name_Hall           'P 2yb'
loop_
_symmetry_equiv_pos_site_id
_symmetry_equiv_pos_as_xyz
1 x,y,z
2 -x,1/2+y,-z
_cell_length_a                   11.041(2)
_cell_length_b                   10.800(2)
_cell_length_c                   42.042(8)
_cell_angle_alpha                90
_cell_angle_beta                 91.05(3)
_cell_angle_gamma                90
_cell_volume                     5012.36
_exptl_crystal_colour            colorless
_exptl_crystal_description       block
_cell_formula_units_Z            8
loop_
_atom_site_label
_atom_site_type_symbol
_atom_site_fract_x
_atom_site_fract_y
_atom_site_fract_z
Br1 Br 0.62389(9) 0.32155(10) 0.04889(2)
S1 S 0.1245(2) 0.7632(2) 0.03941(6)
O1 O 0.2369(7) 0.3034(7) -0.04290(17)
O2 O 0.2447(7) 0.5064(7) -0.05638(17)
O3 O 0.0378(6) 0.7976(7) 0.06283(17)
O4 O 0.1447(6) 0.8376(7) 0.01213(16)
N1 N -0.1340(7) 0.4288(8) 0.0664(2)
N2 N 0.0406(7) 0.5348(8) 0.04734(19)
N3 N 0.0749(7) 0.6233(7) 0.02410(17)
C1 C 0.1493(8) 0.3600(8) 0.0200(2)
H1 H 0.0779 0.3098 0.0146
C2 C 0.1254(9) 0.4302(9) 0.0516(2)
H2 H 0.2029 0.4635 0.0595
C3 C 0.0744(9) 0.3468(9) 0.0773(2)
C4 C 0.1496(10) 0.2695(10) 0.0951(2)
H3 H 0.2329 0.2721 0.0924
C5 C 0.0989(12) 0.1859(13) 0.1175(3)
H4 H 0.1493 0.1342 0.1295
C6 C -0.0268(12) 0.1818(11) 0.1214(3)
H5 H -0.0602 0.1266 0.1358
C7 C -0.1021(11) 0.2611(11) 0.1036(2)
H6 H -0.1855 0.2575 0.1061
C8 C -0.0535(9) 0.3457(9) 0.0821(2)
C9 C -0.0846(9) 0.5167(9) 0.0502(2)
H7 H -0.1360 0.5722 0.0398
C10 C 0.1657(9) 0.4551(9) -0.0056(2)
C11 C 0.1368(8) 0.5761(11) -0.0026(2)
H8 H 0.1582 0.6306 -0.0187
C12 C 0.2582(9) 0.2739(9) 0.0247(2)
C13 C 0.2459(10) 0.1456(10) 0.0243(3)
H9 H 0.1697 0.1107 0.0211
C14 C 0.3455(9) 0.0695(11) 0.0286(3)
H10 H 0.3365 -0.0157 0.0265
C15 C 0.4602(10) 0.1190(11) 0.0363(3)
H11 H 0.5266 0.0681 0.0404
C16 C 0.4702(10) 0.2481(10) 0.0374(2)
C17 C 0.3732(9) 0.3267(11) 0.0310(2)
H12 H 0.3837 0.4122 0.0309
C18 C 0.2195(9) 0.4126(11) -0.0369(2)
C19 C 0.2943(12) 0.4695(13) -0.0862(2)
H13 H 0.3682 0.4245 -0.0824
H14 H 0.3107 0.5417 -0.0987
H15 H 0.2373 0.4176 -0.0974
C20 C 0.2639(10) 0.7280(10) 0.0574(2)
C21 C 0.2708(10) 0.7117(10) 0.0904(2)
H16 H 0.2032 0.7228 0.1030
C22 C 0.3828(10) 0.6780(11) 0.1038(2)
H17 H 0.3886 0.6669 0.1257
C23 C 0.4870(10) 0.6602(10) 0.0857(2)
C24 C 0.4789(9) 0.6802(10) 0.0527(2)
H18 H 0.5475 0.6726 0.0404
C25 C 0.3690(9) 0.7113(10) 0.0386(2)
H19 H 0.3635 0.7214 0.0167
C26 C 0.6059(10) 0.6229(11) 0.1003(3)
H20 H 0.6688 0.6749 0.0922
H21 H 0.6226 0.5382 0.0950
H22 H 0.6028 0.6317 0.1230
Br2 Br -0.12366(10) 0.57739(12) 0.54887(3)
S2 S 0.3762(2) 0.1359(3) 0.53925(6)
O5 O 0.2628(7) 0.5963(8) 0.45738(18)
O6 O 0.2570(8) 0.3936(8) 0.44329(18)
O7 O 0.4627(7) 0.1012(7) 0.56275(17)
O8 O 0.3558(7) 0.0615(7) 0.51201(18)
N4 N 0.6338(8) 0.4715(8) 0.5661(2)
N5 N 0.4612(7) 0.3640(8) 0.54695(19)
N6 N 0.4268(8) 0.2753(8) 0.52367(19)
C27 C 0.3501(9) 0.5391(10) 0.5200(2)
H23 H 0.4211 0.5900 0.5154
C28 C 0.3745(9) 0.4676(10) 0.5521(2)
H24 H 0.2979 0.4337 0.5597
C29 C 0.4266(10) 0.5505(10) 0.5768(3)
C30 C 0.3513(11) 0.6288(12) 0.5951(3)
H25 H 0.2676 0.6242 0.5927
C31 C 0.4030(13) 0.7127(13) 0.6166(3)
H26 H 0.3536 0.7643 0.6285
C32 C 0.5257(13) 0.7189(13) 0.6204(3)
H27 H 0.5596 0.7768 0.6343
C33 C 0.6026(11) 0.6383(11) 0.6034(3)
H28 H 0.6861 0.6421 0.6066
C34 C 0.5525(9) 0.5528(9) 0.5818(2)
C35 C 0.5852(9) 0.3845(11) 0.5497(2)
H29 H 0.6363 0.3312 0.5390
C36 C 0.3341(9) 0.4454(10) 0.4943(2)
C37 C 0.3636(8) 0.3227(11) 0.4970(2)
H30 H 0.3410 0.2688 0.4807
C38 C 0.2413(11) 0.6245(11) 0.5248(2)
C39 C 0.2558(11) 0.7527(11) 0.5239(3)
H31 H 0.3316 0.7865 0.5200
C40 C 0.1552(11) 0.8321(13) 0.5289(3)
H32 H 0.1623 0.9175 0.5269
C41 C 0.0432(12) 0.7761(14) 0.5370(3)
H33 H -0.0226 0.8260 0.5419
C42 C 0.0310(11) 0.6515(13) 0.5378(3)
C43 C 0.1285(10) 0.5748(13) 0.5310(2)
H34 H 0.1178 0.4894 0.5307
C44 C 0.2819(9) 0.4893(11) 0.4632(2)
C45 C 0.2055(12) 0.4316(12) 0.4134(2)
H35 H 0.1235 0.4584 0.4164
H36 H 0.2062 0.3634 0.3988
H37 H 0.2520 0.4988 0.4050
C46 C 0.2370(10) 0.1715(11) 0.5577(2)
C47 C 0.2300(10) 0.1898(11) 0.5902(3)
H38 H 0.2984 0.1795 0.6032
C48 C 0.1182(10) 0.2241(11) 0.6035(3)
H39 H 0.1149 0.2378 0.6253
C49 C 0.0136(10) 0.2379(10) 0.5853(3)
C50 C 0.0225(11) 0.2188(11) 0.5527(3)
H40 H -0.0465 0.2273 0.5399
C51 C 0.1321(10) 0.1871(12) 0.5385(3)
H41 H 0.1356 0.1764 0.5166
C52 C -0.1073(11) 0.2761(12) 0.6004(3)
H42 H -0.1275 0.3590 0.5940
H43 H -0.0993 0.2726 0.6231
H44 H -0.1702 0.2206 0.5934
Br3 Br 0.61602(11) 0.07882(11) 0.29512(3)
S3 S 1.0501(2) 0.5726(3) 0.29827(6)
O9 O 0.6080(7) 0.4853(8) 0.20969(18)
O10 O 0.8072(7) 0.4640(8) 0.19806(18)
O11 O 1.0776(7) 0.6574(8) 0.32348(19)
O12 O 1.1311(7) 0.5567(8) 0.27194(18)
N7 N 0.7272(9) 0.8503(8) 0.3186(2)
N8 N 0.8294(7) 0.6658(7) 0.30247(19)
N9 N 0.9193(8) 0.6255(8) 0.2810(2)
C53 C 0.6584(9) 0.5653(11) 0.2730(2)
H45 H 0.6126 0.6398 0.2671
C54 C 0.7198(9) 0.5849(10) 0.3056(2)
H46 H 0.7459 0.5042 0.3139
C55 C 0.6365(9) 0.6447(11) 0.3296(2)
C56 C 0.5518(10) 0.5761(13) 0.3458(3)
H47 H 0.5513 0.4906 0.3433
C57 C 0.4656(12) 0.6312(15) 0.3660(3)
H48 H 0.4068 0.5841 0.3759
C58 C 0.4729(11) 0.7599(14) 0.3704(3)
H49 H 0.4200 0.7980 0.3843
C59 C 0.5577(10) 0.8325(12) 0.3544(2)
H50 H 0.5594 0.9178 0.3573
C60 C 0.6414(10) 0.7744(10) 0.3337(2)
C61 C 0.8150(11) 0.7934(9) 0.3036(2)
H51 H 0.8712 0.8421 0.2931
C62 C 0.7563(10) 0.5431(9) 0.2486(2)
C63 C 0.8769(9) 0.5653(10) 0.2537(2)
H52 H 0.9319 0.5397 0.2386
C64 C 0.5703(11) 0.4549(11) 0.2755(3)
C65 C 0.4472(10) 0.4684(12) 0.2740(3)
H53 H 0.4136 0.5466 0.2710
C66 C 0.3705(12) 0.3634(11) 0.2768(3)
H54 H 0.2870 0.3716 0.2743
C67 C 0.4208(11) 0.2500(12) 0.2834(3)
H55 H 0.3710 0.1820 0.2868
C68 C 0.5424(12) 0.2365(11) 0.2851(3)
C69 C 0.6216(11) 0.3407(12) 0.2809(2)
H56 H 0.7053 0.3310 0.2817
C70 C 0.7155(10) 0.4971(9) 0.2174(2)
C71 C 0.7744(13) 0.4197(15) 0.1676(3)
H57 H 0.7305 0.3435 0.1696
H58 H 0.8461 0.4056 0.1556
H59 H 0.7243 0.4798 0.1569
C72 C 1.0134(10) 0.4265(10) 0.3151(3)
C73 C 0.9844(11) 0.4179(12) 0.3457(3)
H60 H 0.9817 0.4885 0.3584
C74 C 0.9580(10) 0.3004(11) 0.3588(3)
H61 H 0.9401 0.2949 0.3803
C75 C 0.9578(11) 0.1922(10) 0.3404(3)
C76 C 0.9849(11) 0.2088(11) 0.3080(3)
H62 H 0.9845 0.1395 0.2949
C77 C 1.0113(10) 0.3192(12) 0.2950(2)
H63 H 1.0279 0.3258 0.2734
C78 C 0.9276(13) 0.0671(13) 0.3538(3)
H64 H 0.8442 0.0483 0.3491
H65 H 0.9409 0.0677 0.3764
H66 H 0.9783 0.0055 0.3444
Br4 Br 0.88410(11) 0.82170(11) 0.79493(3)
S4 S 0.4499(2) 0.3278(3) 0.79800(6)
O13 O 0.8918(7) 0.4138(8) 0.70934(18)
O14 O 0.6931(7) 0.4357(8) 0.69785(18)
O15 O 0.4231(7) 0.2431(8) 0.82317(18)
O16 O 0.3695(7) 0.3430(8) 0.77182(19)
N10 N 0.7723(9) 0.0503(8) 0.8186(2)
N11 N 0.6703(7) 0.2345(8) 0.80252(19)
N12 N 0.5796(8) 0.2743(8) 0.7810(2)
C79 C 0.8427(9) 0.3339(10) 0.7730(2)
H67 H 0.8882 0.2592 0.7675
C80 C 0.7797(9) 0.3149(10) 0.8052(2)
H68 H 0.7551 0.3960 0.8133
C81 C 0.8644(10) 0.2557(11) 0.8293(2)
C82 C 0.9485(10) 0.3262(13) 0.8460(2)
H69 H 0.9483 0.4120 0.8439
C83 C 1.0340(12) 0.2683(13) 0.8660(3)
H70 H 1.0942 0.3140 0.8764
C84 C 1.0267(11) 0.1408(13) 0.8699(3)
H71 H 1.0812 0.1020 0.8838
C85 C 0.9421(10) 0.0701(12) 0.8540(2)
H72 H 0.9406 -0.0153 0.8569
C86 C 0.8590(10) 0.1264(10) 0.8337(2)
C87 C 0.6830(11) 0.1049(9) 0.8035(2)
H73 H 0.6254 0.0562 0.7930
C88 C 0.7430(10) 0.3564(9) 0.7483(2)
C89 C 0.6226(9) 0.3348(9) 0.7532(2)
H74 H 0.5666 0.3606 0.7378
C90 C 0.9293(10) 0.4453(10) 0.7753(2)
C91 C 1.0533(10) 0.4337(12) 0.7740(3)
H75 H 1.0870 0.3558 0.7708
C92 C 1.1297(13) 0.5364(12) 0.7772(4)
H76 H 1.2129 0.5282 0.7750
C93 C 1.0798(12) 0.6486(12) 0.7835(3)
H77 H 1.1301 0.7165 0.7870
C94 C 0.9572(11) 0.6635(11) 0.7849(3)
C95 C 0.8797(11) 0.5633(12) 0.7809(2)
H78 H 0.7962 0.5739 0.7819
C96 C 0.7847(11) 0.4031(10) 0.7175(2)
C97 C 0.7267(13) 0.4830(15) 0.6675(3)
H79 H 0.7698 0.5595 0.6703
H80 H 0.6552 0.4971 0.6547
H81 H 0.7777 0.4241 0.6571
C98 C 0.4865(10) 0.4757(10) 0.8148(3)
C99 C 0.5160(11) 0.4830(11) 0.8460(3)
H82 H 0.5185 0.4125 0.8587
C100 C 0.5427(10) 0.5999(10) 0.8588(3)
H83 H 0.5612 0.6064 0.8804
C101 C 0.5424(11) 0.7065(11) 0.8402(3)
C102 C 0.5138(12) 0.6909(11) 0.8078(3)
H84 H 0.5135 0.7602 0.7947
C103 C 0.4872(10) 0.5817(11) 0.7950(3)
H85 H 0.4693 0.5750 0.7733
C104 C 0.5735(13) 0.8331(13) 0.8537(3)
H86 H 0.6562 0.8526 0.8491
H87 H 0.5628 0.8325 0.8763
H88 H 0.5212 0.8942 0.8441
loop_
_geom_bond_atom_site_label_1
_geom_bond_atom_site_label_2
_geom_bond_site_symmetry_1
_geom_bond_site_symmetry_2
Br1 C16 1_555 1_555
S1 O3 1_555 1_555
O1 C18 1_555 1_555
O2 C18 1_555 1_555
O4 S1 1_555 1_555
N1 C8 1_555 1_555
N2 N3 1_555 1_555
N3 S1 1_555 1_555
C1 H1 1_555 1_555
C2 N2 1_555 1_555
H2 C2 1_555 1_555
C3 C2 1_555 1_555
C4 C3 1_555 1_555
H3 C4 1_555 1_555
C5 C4 1_555 1_555
H4 C5 1_555 1_555
C6 C5 1_555 1_555
H5 C6 1_555 1_555
C7 C6 1_555 1_555
H6 C7 1_555 1_555
C8 C3 1_555 1_555
C9 N1 1_555 1_555
H7 C9 1_555 1_555
C10 C1 1_555 1_555
C11 N3 1_555 1_555
H8 C11 1_555 1_555
C12 C1 1_555 1_555
C13 C12 1_555 1_555
H9 C13 1_555 1_555
C14 C13 1_555 1_555
H10 C14 1_555 1_555
C15 C14 1_555 1_555
H11 C15 1_555 1_555
C16 C15 1_555 1_555
C17 C12 1_555 1_555
H12 C17 1_555 1_555
C18 C10 1_555 1_555
C19 O2 1_555 1_555
H13 C19 1_555 1_555
H14 C19 1_555 1_555
H15 C19 1_555 1_555
C20 S1 1_555 1_555
C21 C20 1_555 1_555
H16 C21 1_555 1_555
C22 C21 1_555 1_555
H17 C22 1_555 1_555
C23 C22 1_555 1_555
C24 C23 1_555 1_555
H18 C24 1_555 1_555
C25 C20 1_555 1_555
H19 C25 1_555 1_555
C26 C23 1_555 1_555
H20 C26 1_555 1_555
H21 C26 1_555 1_555
H22 C26 1_555 1_555
Br2 C42 1_555 1_555
S2 O7 1_555 1_555
O5 C44 1_555 1_555
O6 C44 1_555 1_555
O8 S2 1_555 1_555
N4 C34 1_555 1_555
N5 N6 1_555 1_555
N6 S2 1_555 1_555
C27 H23 1_555 1_555
C28 N5 1_555 1_555
H24 C28 1_555 1_555
C29 C28 1_555 1_555
C30 C29 1_555 1_555
H25 C30 1_555 1_555
C31 C30 1_555 1_555
H26 C31 1_555 1_555
C32 C31 1_555 1_555
H27 C32 1_555 1_555
C33 C32 1_555 1_555
H28 C33 1_555 1_555
C34 C29 1_555 1_555
C35 N4 1_555 1_555
H29 C35 1_555 1_555
C36 C27 1_555 1_555
C37 N6 1_555 1_555
H30 C37 1_555 1_555
C38 C27 1_555 1_555
C39 C38 1_555 1_555
H31 C39 1_555 1_555
C40 C39 1_555 1_555
H32 C40 1_555 1_555
C41 C40 1_555 1_555
H33 C41 1_555 1_555
C42 C41 1_555 1_555
C43 C38 1_555 1_555
H34 C43 1_555 1_555
C44 C36 1_555 1_555
C45 O6 1_555 1_555
H35 C45 1_555 1_555
H36 C45 1_555 1_555
H37 C45 1_555 1_555
C46 S2 1_555 1_555
C47 C46 1_555 1_555
H38 C47 1_555 1_555
C48 C47 1_555 1_555
H39 C48 1_555 1_555
C49 C48 1_555 1_555
C50 C49 1_555 1_555
H40 C50 1_555 1_555
C51 C46 1_555 1_555
H41 C51 1_555 1_555
C52 C49 1_555 1_555
H42 C52 1_555 1_555
H43 C52 1_555 1_555
H44 C52 1_555 1_555
Br3 C68 1_555 1_555
S3 O11 1_555 1_555
O9 C70 1_555 1_555
O10 C70 1_555 1_555
O12 S3 1_555 1_555
N7 C60 1_555 1_555
N8 N9 1_555 1_555
N9 S3 1_555 1_555
C53 H45 1_555 1_555
C54 N8 1_555 1_555
H46 C54 1_555 1_555
C55 C54 1_555 1_555
C56 C55 1_555 1_555
H47 C56 1_555 1_555
C57 C56 1_555 1_555
H48 C57 1_555 1_555
C58 C57 1_555 1_555
H49 C58 1_555 1_555
C59 C58 1_555 1_555
H50 C59 1_555 1_555
C60 C55 1_555 1_555
C61 N7 1_555 1_555
H51 C61 1_555 1_555
C62 C53 1_555 1_555
C63 N9 1_555 1_555
H52 C63 1_555 1_555
C64 C53 1_555 1_555
C65 C64 1_555 1_555
H53 C65 1_555 1_555
C66 C65 1_555 1_555
H54 C66 1_555 1_555
C67 C66 1_555 1_555
H55 C67 1_555 1_555
C68 C67 1_555 1_555
C69 C64 1_555 1_555
H56 C69 1_555 1_555
C70 C62 1_555 1_555
C71 O10 1_555 1_555
H57 C71 1_555 1_555
H58 C71 1_555 1_555
H59 C71 1_555 1_555
C72 S3 1_555 1_555
C73 C72 1_555 1_555
H60 C73 1_555 1_555
C74 C73 1_555 1_555
H61 C74 1_555 1_555
C75 C74 1_555 1_555
C76 C75 1_555 1_555
H62 C76 1_555 1_555
C77 C72 1_555 1_555
H63 C77 1_555 1_555
C78 C75 1_555 1_555
H64 C78 1_555 1_555
H65 C78 1_555 1_555
H66 C78 1_555 1_555
Br4 C94 1_555 1_555
S4 O15 1_555 1_555
O13 C96 1_555 1_555
O14 C96 1_555 1_555
O16 S4 1_555 1_555
N10 C86 1_555 1_555
N11 N12 1_555 1_555
N12 S4 1_555 1_555
C79 H67 1_555 1_555
C80 N11 1_555 1_555
H68 C80 1_555 1_555
C81 C80 1_555 1_555
C82 C81 1_555 1_555
H69 C82 1_555 1_555
C83 C82 1_555 1_555
H70 C83 1_555 1_555
C84 C83 1_555 1_555
H71 C84 1_555 1_555
C85 C84 1_555 1_555
H72 C85 1_555 1_555
C86 C81 1_555 1_555
C87 N10 1_555 1_555
H73 C87 1_555 1_555
C88 C79 1_555 1_555
C89 N12 1_555 1_555
H74 C89 1_555 1_555
C90 C79 1_555 1_555
C91 C90 1_555 1_555
H75 C91 1_555 1_555
C92 C91 1_555 1_555
H76 C92 1_555 1_555
C93 C92 1_555 1_555
H77 C93 1_555 1_555
C94 C93 1_555 1_555
C95 C90 1_555 1_555
H78 C95 1_555 1_555
C96 C88 1_555 1_555
C97 O14 1_555 1_555
H79 C97 1_555 1_555
H80 C97 1_555 1_555
H81 C97 1_555 1_555
C98 S4 1_555 1_555
C99 C98 1_555 1_555
H82 C99 1_555 1_555
C100 C99 1_555 1_555
H83 C100 1_555 1_555
C101 C100 1_555 1_555
C102 C101 1_555 1_555
H84 C102 1_555 1_555
C103 C98 1_555 1_555
H85 C103 1_555 1_555
C104 C101 1_555 1_555
H86 C104 1_555 1_555
H87 C104 1_555 1_555
H88 C104 1_555 1_555
N2 C9 1_555 1_555
C1 C2 1_555 1_555
C7 C8 1_555 1_555
C10 C11 1_555 1_555
C16 C17 1_555 1_555
C24 C25 1_555 1_555
N5 C35 1_555 1_555
C27 C28 1_555 1_555
C33 C34 1_555 1_555
C36 C37 1_555 1_555
C42 C43 1_555 1_555
C50 C51 1_555 1_555
N8 C61 1_555 1_555
C53 C54 1_555 1_555
C59 C60 1_555 1_555
C62 C63 1_555 1_555
C68 C69 1_555 1_555
C76 C77 1_555 1_555
N11 C87 1_555 1_555
C79 C80 1_555 1_555
C85 C86 1_555 1_555
C88 C89 1_555 1_555
C94 C95 1_555 1_555
C102 C103 1_555 1_555

#END
