
#######################################################################
#
#                 Cambridge Crystallographic Data Centre
#                                CCDC 
#
#######################################################################
#
# If this CIF has been generated from an entry in the Cambridge 
# Structural Database, then it will include bibliographic, chemical, 
# crystal, experimental, refinement or atomic coordinate data resulting 
# from the CCDC's data processing and validation procedures.
#
#######################################################################

data_FAWDOZ
_chemical_name_common            
8-bromo-4-(nitromethyl)-2,3,3a,9a-tetrahydro-4H-furo[2,3-b][1]benzopyran
_chemical_formula_moiety         'C12 H12 Br1 N1 O4'
_chemical_name_systematic        
(3aR,4S,9aS)-8-bromo-4-(nitromethyl)-3,3a,4,9a-tetrahydro-2H-furo[2,3-b]chromene
_symmetry_cell_setting           orthorhombic
_symmetry_space_group_name_H-M   'P 21 21 21'
_symmetry_Int_Tables_number      19
_space_group_name_Hall           'P 2ac 2ab'
loop_
_symmetry_equiv_pos_site_id
_symmetry_equiv_pos_as_xyz
1 x,y,z
2 1/2+x,1/2-y,-z
3 -x,1/2+y,1/2-z
4 1/2-x,-y,1/2+z
_cell_length_a                   7.7255(9)
_cell_length_b                   8.9557(12)
_cell_length_c                   17.913(2)
_cell_angle_alpha                90
_cell_angle_beta                 90
_cell_angle_gamma                90
_cell_volume                     1239.35
_exptl_crystal_colour            colorless
_exptl_crystal_description       plate
_cell_formula_units_Z            4
loop_
_atom_site_label
_atom_site_type_symbol
_atom_site_fract_x
_atom_site_fract_y
_atom_site_fract_z
Br1 Br 0.31635(10) 0.82870(10) 0.92895(4)
C1 C 0.1129(7) 0.8427(7) 0.8707(3)
C2 C -0.0390(9) 0.8845(6) 0.9034(3)
H1 H -0.0435 0.9052 0.9542
C3 C -0.1854(10) 0.8957(6) 0.8602(3)
H2 H -0.2897 0.9228 0.8822
C4 C -0.1797(8) 0.8672(6) 0.7844(3)
H3 H -0.2792 0.8780 0.7557
C5 C -0.0264(7) 0.8227(6) 0.7510(3)
C6 C 0.1212(7) 0.8089(7) 0.7946(3)
C7 C -0.0080(7) 0.7850(6) 0.6691(3)
H4 H -0.0144 0.6762 0.6641
C8 C 0.1714(7) 0.8351(6) 0.6417(3)
H5 H 0.1879 0.7998 0.5904
C9 C 0.3155(9) 0.7751(6) 0.6897(3)
H6 H 0.3538 0.6792 0.6691
C10 C 0.2021(9) 1.0035(7) 0.6440(4)
H7 H 0.1574 1.0524 0.5997
H8 H 0.1508 1.0485 0.6880
C11 C 0.3983(15) 1.0088(15) 0.6468(9)
H9 H 0.4462 1.0109 0.5968
H10 H 0.4371 1.0971 0.6734
C12 C -0.1523(8) 0.8522(8) 0.6228(3)
H11 H -0.2627 0.8135 0.6399
H12 H -0.1532 0.9597 0.6294
N1 N -0.1299(7) 0.8165(7) 0.5422(3)
O1 O 0.2741(5) 0.7551(6) 0.7672(2)
O2 O 0.4516(5) 0.8762(6) 0.6853(3)
O3 O -0.1042(10) 0.6899(7) 0.5241(3)
O4 O -0.1373(10) 0.9169(7) 0.4981(3)
H13? H 0.1064 1.0537 0.6685
H14? H 0.2139 1.0432 0.5939
C13? C 0.371(3) 1.026(3) 0.6886(17)
H15? H 0.4446 1.1006 0.6653
H16? H 0.3474 1.0554 0.7396
loop_
_geom_bond_atom_site_label_1
_geom_bond_atom_site_label_2
_geom_bond_site_symmetry_1
_geom_bond_site_symmetry_2
Br1 C1 1_555 1_555
C1 C2 1_555 1_555
C2 H1 1_555 1_555
C3 C2 1_555 1_555
H2 C3 1_555 1_555
C4 C3 1_555 1_555
H3 C4 1_555 1_555
C5 C4 1_555 1_555
C6 C1 1_555 1_555
C7 C5 1_555 1_555
H4 C7 1_555 1_555
C8 C7 1_555 1_555
H5 C8 1_555 1_555
C9 C8 1_555 1_555
H6 C9 1_555 1_555
C10 C8 1_555 1_555
H7 C10 1_555 1_555
H8 C10 1_555 1_555
C11 C10 1_555 1_555
H9 C11 1_555 1_555
H10 C11 1_555 1_555
C12 C7 1_555 1_555
H11 C12 1_555 1_555
H12 C12 1_555 1_555
N1 C12 1_555 1_555
O1 C6 1_555 1_555
O2 C9 1_555 1_555
O3 N1 1_555 1_555
O4 N1 1_555 1_555
C5 C6 1_555 1_555
C9 O1 1_555 1_555
C11 O2 1_555 1_555

#END
