
#######################################################################
#
#                 Cambridge Crystallographic Data Centre
#                                CCDC 
#
#######################################################################
#
# If this CIF has been generated from an entry in the Cambridge 
# Structural Database, then it will include bibliographic, chemical, 
# crystal, experimental, refinement or atomic coordinate data resulting 
# from the CCDC's data processing and validation procedures.
#
#######################################################################

data_FAWDIT
_chemical_formula_moiety         'C20 H22 N1 1+,C1 H2 Cl2,Cl1 1-'
_chemical_name_systematic        
"3'-methyl-4-phenyl-1',3,4,5'-tetrahydro-2H-spiro[naphthalene-1,2'-pyrrol[1]ium] chloride dichloromethane solvate"
_symmetry_cell_setting           monoclinic
_symmetry_space_group_name_H-M   'P 21/c'
_symmetry_Int_Tables_number      14
_space_group_name_Hall           '-P 2ybc'
loop_
_symmetry_equiv_pos_site_id
_symmetry_equiv_pos_as_xyz
1 x,y,z
2 -x,1/2+y,1/2-z
3 -x,-y,-z
4 x,1/2-y,1/2+z
_cell_length_a                   11.5155(5)
_cell_length_b                   12.0757(6)
_cell_length_c                   14.9193(7)
_cell_angle_alpha                90
_cell_angle_beta                 105.200(2)
_cell_angle_gamma                90
_cell_volume                     2002.07
_exptl_crystal_colour            colorless
_exptl_crystal_description       block
_cell_formula_units_Z            4
_exptl_crystal_recrystallization_method 'hexane, dichloromethane'
loop_
_atom_site_label
_atom_site_type_symbol
_atom_site_fract_x
_atom_site_fract_y
_atom_site_fract_z
N1 N 0.38685(11) 0.11971(11) 0.52309(9)
H1 H 0.4069 0.1130 0.4683
H2 H 0.4424 0.0825 0.5675
C1 C 0.26437(15) 0.07176(15) 0.51412(12)
H3 H 0.2193 0.0638 0.4481
H4 H 0.2696 -0.0013 0.5450
C2 C 0.20713(14) 0.15546(15) 0.56217(11)
H5 H 0.1329 0.1438 0.5773
C3 C 0.27100(13) 0.24819(14) 0.58164(10)
C4 C 0.24209(15) 0.34922(16) 0.62849(12)
H6 H 0.3022 0.3590 0.6881
H7 H 0.1621 0.3413 0.6393
H8 H 0.2429 0.4139 0.5890
C5 C 0.38586(13) 0.24217(13) 0.54966(10)
C6 C 0.49820(14) 0.26741(14) 0.62784(10)
H9 H 0.4919 0.3428 0.6522
H10 H 0.5042 0.2141 0.6793
C7 C 0.61087(14) 0.25963(14) 0.59256(11)
H11 H 0.6161 0.1845 0.5673
H12 H 0.6829 0.2712 0.6451
C8 C 0.60992(13) 0.34577(14) 0.51671(11)
H13 H 0.6268 0.4193 0.5482
C9 C 0.48749(14) 0.35457(13) 0.44628(10)
C10 C 0.47852(14) 0.41189(14) 0.36351(11)
H14 H 0.5494 0.4411 0.3512
C11 C 0.36899(15) 0.42734(14) 0.29877(11)
H15 H 0.3652 0.4670 0.2431
C12 C 0.26464(14) 0.38453(15) 0.31572(11)
H16 H 0.1892 0.3943 0.2716
C13 C 0.27189(14) 0.32755(14) 0.39744(11)
H17 H 0.2005 0.2986 0.4091
C14 C 0.38194(14) 0.31163(13) 0.46313(10)
C15 C 0.71345(14) 0.32115(14) 0.47419(11)
C16 C 0.70436(14) 0.24005(14) 0.40608(12)
H18 H 0.6293 0.2047 0.3805
C17 C 0.80395(15) 0.21058(15) 0.37540(12)
H19 H 0.7968 0.1549 0.3293
C18 C 0.91397(14) 0.26222(16) 0.41187(12)
H20 H 0.9824 0.2412 0.3915
C19 C 0.92341(15) 0.34430(15) 0.47792(12)
H21 H 0.9982 0.3807 0.5022
C20 C 0.82361(14) 0.37389(15) 0.50901(11)
H22 H 0.8308 0.4305 0.5543
Cl1 Cl 0.91536(4) 0.35286(4) 0.16367(3)
Cl2 Cl 0.97312(4) 0.57522(4) 0.23793(3)
C21 C 0.87841(16) 0.45848(15) 0.23320(12)
H23 H 0.8870 0.4299 0.2968
H24 H 0.7935 0.4808 0.2073
Cl3 Cl 0.44190(3) 0.03922(3) 0.34253(2)
loop_
_geom_bond_atom_site_label_1
_geom_bond_atom_site_label_2
_geom_bond_site_symmetry_1
_geom_bond_site_symmetry_2
N1 H1 1_555 1_555
H2 N1 1_555 1_555
C1 N1 1_555 1_555
H3 C1 1_555 1_555
H4 C1 1_555 1_555
C2 C1 1_555 1_555
H5 C2 1_555 1_555
C3 C2 1_555 1_555
C4 C3 1_555 1_555
H6 C4 1_555 1_555
H7 C4 1_555 1_555
H8 C4 1_555 1_555
C5 N1 1_555 1_555
C6 C5 1_555 1_555
H9 C6 1_555 1_555
H10 C6 1_555 1_555
C7 C6 1_555 1_555
H11 C7 1_555 1_555
H12 C7 1_555 1_555
C8 C7 1_555 1_555
H13 C8 1_555 1_555
C9 C8 1_555 1_555
C10 C9 1_555 1_555
H14 C10 1_555 1_555
C11 C10 1_555 1_555
H15 C11 1_555 1_555
C12 C11 1_555 1_555
H16 C12 1_555 1_555
C13 C12 1_555 1_555
H17 C13 1_555 1_555
C14 C5 1_555 1_555
C15 C8 1_555 1_555
C16 C15 1_555 1_555
H18 C16 1_555 1_555
C17 C16 1_555 1_555
H19 C17 1_555 1_555
C18 C17 1_555 1_555
H20 C18 1_555 1_555
C19 C18 1_555 1_555
H21 C19 1_555 1_555
C20 C15 1_555 1_555
H22 C20 1_555 1_555
Cl1 C21 1_555 1_555
Cl2 C21 1_555 1_555
C21 H23 1_555 1_555
H24 C21 1_555 1_555
C3 C5 1_555 1_555
C9 C14 1_555 1_555
C13 C14 1_555 1_555
C19 C20 1_555 1_555

#END
