
#######################################################################
#
#                 Cambridge Crystallographic Data Centre
#                                CCDC 
#
#######################################################################
#
# If this CIF has been generated from an entry in the Cambridge 
# Structural Database, then it will include bibliographic, chemical, 
# crystal, experimental, refinement or atomic coordinate data resulting 
# from the CCDC's data processing and validation procedures.
#
#######################################################################

data_FAWDEP
_chemical_formula_moiety         'C21 H24 Cl1 N1 O3 S1'
_chemical_name_systematic        
N-(4-chloro-3-(phenylacetyl)cyclohexyl)-4-methylbenzenesulfonamide
_symmetry_cell_setting           orthorhombic
_symmetry_space_group_name_H-M   'P b c a'
_symmetry_Int_Tables_number      61
_space_group_name_Hall           '-P 2ac 2ab'
loop_
_symmetry_equiv_pos_site_id
_symmetry_equiv_pos_as_xyz
1 x,y,z
2 1/2-x,-y,1/2+z
3 -x,1/2+y,1/2-z
4 1/2+x,1/2-y,-z
5 -x,-y,-z
6 1/2+x,y,1/2-z
7 x,1/2-y,1/2+z
8 1/2-x,1/2+y,z
_cell_length_a                   18.0358(14)
_cell_length_b                   9.4830(9)
_cell_length_c                   23.993(2)
_cell_angle_alpha                90
_cell_angle_beta                 90
_cell_angle_gamma                90
_cell_volume                     4103.61
_exptl_crystal_colour            colorless
_exptl_crystal_description       prism
_cell_formula_units_Z            8
loop_
_atom_site_label
_atom_site_type_symbol
_atom_site_fract_x
_atom_site_fract_y
_atom_site_fract_z
C1 C 0.99307(11) 0.5829(2) 0.33888(8)
C2 C 0.97058(15) 0.4562(3) 0.35967(10)
H1 H 0.9779 0.3723 0.3387
C3 C 0.93709(17) 0.4504(3) 0.41152(12)
H2 H 0.9221 0.3614 0.4258
C4 C 0.92482(13) 0.5692(3) 0.44292(9)
C5 C 0.88811(16) 0.5598(3) 0.49936(11)
H3 H 0.8831 0.6550 0.5172
H4 H 0.8326 0.5164 0.4900
H5 H 0.9150 0.4861 0.5249
C6 C 0.94674(17) 0.6950(3) 0.42063(11)
H6 H 0.9383 0.7792 0.4411
C7 C 0.98080(16) 0.7034(3) 0.36906(10)
H7 H 0.9956 0.7923 0.3546
C8 C 0.90729(12) 0.5642(2) 0.21429(9)
H8 H 0.9172 0.4662 0.2277
C9 C 0.83563(12) 0.6160(3) 0.24092(9)
H9 H 0.8277 0.7163 0.2312
H10 H 0.8397 0.6090 0.2820
C10 C 0.76944(12) 0.5290(3) 0.22102(9)
H11 H 0.7749 0.4302 0.2337
H12 H 0.7232 0.5675 0.2372
C11 C 0.76514(12) 0.5332(3) 0.15793(9)
H13 H 0.7599 0.6337 0.1459
C12 C 0.83481(12) 0.4728(2) 0.13143(9)
H14 H 0.8415 0.3730 0.1440
C13 C 0.90125(12) 0.5613(2) 0.15113(9)
H15 H 0.9474 0.5216 0.1353
H16 H 0.8959 0.6589 0.1371
C14 C 0.82994(12) 0.4763(3) 0.06810(9)
C15 C 0.83667(15) 0.3382(3) 0.03808(9)
H17 H 0.7975 0.2744 0.0523
H18 H 0.8850 0.2957 0.0480
C16 C 0.83102(13) 0.3423(3) -0.02446(9)
C17 C 0.77611(14) 0.2683(3) -0.05167(11)
H19 H 0.7407 0.2168 -0.0306
C18 C 0.77184(16) 0.2681(4) -0.10937(11)
H20 H 0.7340 0.2159 -0.1276
C19 C 0.82231(17) 0.3431(4) -0.13987(11)
H21 H 0.8195 0.3429 -0.1794
C20 C 0.87670(16) 0.4182(3) -0.11368(11)
H22 H 0.9114 0.4708 -0.1350
C21 C 0.88127(15) 0.4179(3) -0.05626(10)
H23 H 0.9193 0.4703 -0.0383
N1 N 0.97102(9) 0.65408(19) 0.22989(7)
H24 H 0.9625 0.7512 0.2326
O1 O 1.08937(8) 0.70502(16) 0.27473(6)
O2 O 1.05400(8) 0.45843(15) 0.25384(6)
O3 O 0.82140(11) 0.58757(18) 0.04416(7)
S1 S 1.03380(3) 0.59737(5) 0.27220(2)
Cl1 Cl 0.68498(3) 0.43628(8) 0.13406(3)
loop_
_geom_bond_atom_site_label_1
_geom_bond_atom_site_label_2
_geom_bond_site_symmetry_1
_geom_bond_site_symmetry_2
C1 C2 1_555 1_555
C2 H1 1_555 1_555
C3 C2 1_555 1_555
H2 C3 1_555 1_555
C4 C3 1_555 1_555
C5 C4 1_555 1_555
H3 C5 1_555 1_555
H4 C5 1_555 1_555
H5 C5 1_555 1_555
C6 C4 1_555 1_555
H6 C6 1_555 1_555
C7 C1 1_555 1_555
H7 C7 1_555 1_555
C8 H8 1_555 1_555
C9 C8 1_555 1_555
H9 C9 1_555 1_555
H10 C9 1_555 1_555
C10 C9 1_555 1_555
H11 C10 1_555 1_555
H12 C10 1_555 1_555
C11 C10 1_555 1_555
H13 C11 1_555 1_555
C12 C11 1_555 1_555
H14 C12 1_555 1_555
C13 C8 1_555 1_555
H15 C13 1_555 1_555
H16 C13 1_555 1_555
C14 C12 1_555 1_555
C15 C14 1_555 1_555
H17 C15 1_555 1_555
H18 C15 1_555 1_555
C16 C15 1_555 1_555
C17 C16 1_555 1_555
H19 C17 1_555 1_555
C18 C17 1_555 1_555
H20 C18 1_555 1_555
C19 C18 1_555 1_555
H21 C19 1_555 1_555
C20 C19 1_555 1_555
H22 C20 1_555 1_555
C21 C16 1_555 1_555
H23 C21 1_555 1_555
N1 C8 1_555 1_555
H24 N1 1_555 1_555
O1 S1 1_555 1_555
O2 S1 1_555 1_555
O3 C14 1_555 1_555
S1 C1 1_555 1_555
Cl1 C11 1_555 1_555
C6 C7 1_555 1_555
C12 C13 1_555 1_555
C20 C21 1_555 1_555
N1 S1 1_555 1_555

#END
