
#######################################################################
#
#                 Cambridge Crystallographic Data Centre
#                                CCDC 
#
#######################################################################
#
# If this CIF has been generated from an entry in the Cambridge 
# Structural Database, then it will include bibliographic, chemical, 
# crystal, experimental, refinement or atomic coordinate data resulting 
# from the CCDC's data processing and validation procedures.
#
#######################################################################

data_FAWGUI
_chemical_formula_moiety         'C19 H28 O3'
_chemical_name_systematic        3,14-dihydroxyandrost-15-en-17-one
_symmetry_cell_setting           orthorhombic
_symmetry_space_group_name_H-M   'P 21 21 21'
_symmetry_Int_Tables_number      19
_space_group_name_Hall           'P 2ac 2ab'
loop_
_symmetry_equiv_pos_site_id
_symmetry_equiv_pos_as_xyz
1 x,y,z
2 1/2+x,1/2-y,-z
3 -x,1/2+y,1/2-z
4 1/2-x,-y,1/2+z
_cell_length_a                   7.2467(4)
_cell_length_b                   11.5805(8)
_cell_length_c                   60.118(4)
_cell_angle_alpha                90
_cell_angle_beta                 90
_cell_angle_gamma                90
_cell_volume                     5045.13
_exptl_crystal_colour            white
_exptl_crystal_description       block
_cell_formula_units_Z            12
loop_
_atom_site_label
_atom_site_type_symbol
_atom_site_fract_x
_atom_site_fract_y
_atom_site_fract_z
C1 C 1.1370(8) 0.5154(5) 0.17238(10)
H1 H 1.2058 0.5662 0.1621
H2 H 1.1575 0.4345 0.1677
C2 C 1.2119(8) 0.5319(5) 0.19612(10)
H3 H 1.1516 0.4756 0.2061
H4 H 1.3461 0.5157 0.1962
C3 C 1.1796(8) 0.6516(5) 0.20486(10)
H5 H 1.2550 0.7064 0.1958
C4 C 0.9814(7) 0.6860(4) 0.20277(9)
H6 H 0.9686 0.7684 0.2069
H7 H 0.9070 0.6401 0.2134
C5 C 0.9047(7) 0.6684(4) 0.17934(9)
H8 H 0.9805 0.7184 0.1693
C6 C 0.7072(8) 0.7107(4) 0.17717(9)
H9 H 0.6264 0.6637 0.1869
H10 H 0.7000 0.7919 0.1823
C7 C 0.6381(8) 0.7031(4) 0.15346(9)
H11 H 0.7065 0.7591 0.1441
H12 H 0.5058 0.7245 0.1531
C8 C 0.6620(8) 0.5813(4) 0.14371(8)
H13 H 0.5865 0.5285 0.1532
C9 C 0.8628(8) 0.5401(4) 0.14582(9)
H14 H 0.9405 0.5969 0.1375
C10 C 0.9298(7) 0.5434(4) 0.17090(8)
C11 C 0.8904(10) 0.4233(5) 0.13456(12)
H15 H 0.9813 0.4328 0.1224
H16 H 0.9442 0.3692 0.1455
C12 C 0.7223(16) 0.3705(7) 0.12524(19)
H17 H 0.6454 0.3428 0.1378
H18 H 0.7593 0.3020 0.1165
C13 C 0.6040(13) 0.4465(5) 0.11066(12)
C14 C 0.5855(10) 0.5703(4) 0.12018(9)
C15 C 0.6819(9) 0.6465(5) 0.10340(12)
H19 H 0.7078 0.7262 0.1056
C16 C 0.7248(9) 0.5890(9) 0.08561(12)
H20 H 0.7801 0.6220 0.0728
C17 C 0.6776(11) 0.4685(8) 0.08786(16)
C18 C 0.8213(8) 0.4543(4) 0.18496(9)
H21 H 0.6886 0.4683 0.1833
H22 H 0.8560 0.4621 0.2006
H23 H 0.8506 0.3761 0.1798
C19 C 0.4205(18) 0.3805(7) 0.10908(13)
H24 H 0.3366 0.4216 0.0990
H25 H 0.3645 0.3752 0.1239
H26 H 0.4433 0.3027 0.1033
O1 O 1.2315(5) 0.6657(4) 0.22771(7)
H27 H 1.3346 0.6345 0.2299
O2 O 0.3992(6) 0.6071(4) 0.12132(7)
H28 H 0.3577 0.6159 0.1084
O3 O 0.6849(11) 0.3929(7) 0.07374(11)
C20 C 0.8276(7) 0.5624(4) 0.84645(9)
H29 H 0.9591 0.5491 0.8428
H30 H 0.7895 0.6353 0.8392
C21 C 0.8079(9) 0.5762(5) 0.87148(9)
H31 H 0.8582 0.5069 0.8790
H32 H 0.8809 0.6438 0.8764
C22 C 0.6119(8) 0.5923(4) 0.87816(10)
H33 H 0.5670 0.6663 0.8715
C23 C 0.4936(8) 0.4955(4) 0.86924(9)
H34 H 0.3631 0.5104 0.8732
H35 H 0.5309 0.4221 0.8764
C24 C 0.5103(6) 0.4834(4) 0.84415(8)
H36 H 0.4733 0.5595 0.8377
C25 C 0.3786(7) 0.3942(4) 0.83444(9)
H37 H 0.4112 0.3166 0.8401
H38 H 0.2510 0.4119 0.8393
C26 C 0.3877(7) 0.3938(4) 0.80921(9)
H39 H 0.3087 0.3308 0.8035
H40 H 0.3379 0.4677 0.8035
C27 C 0.5824(6) 0.3777(4) 0.80042(8)
H41 H 0.6249 0.2997 0.8054
C28 C 0.7155(7) 0.4677(4) 0.81095(9)
H42 H 0.6660 0.5454 0.8068
C29 C 0.7123(7) 0.4625(4) 0.83685(8)
C30 C 0.9090(8) 0.4595(6) 0.80038(11)
H43 H 0.9359 0.5330 0.7926
H44 H 1.0012 0.4505 0.8124
C31 C 0.9323(9) 0.3608(6) 0.78401(10)
H45 H 1.0556 0.3673 0.7770
H46 H 0.9291 0.2871 0.7924
C32 C 0.7895(8) 0.3559(4) 0.76593(9)
C33 C 0.5920(7) 0.3789(4) 0.77452(9)
C34 C 0.5434(8) 0.4940(4) 0.76463(9)
H47 H 0.4337 0.5347 0.7683
C35 C 0.6665(8) 0.5330(4) 0.75052(9)
H48 H 0.6570 0.6034 0.7425
C36 C 0.8185(8) 0.4528(4) 0.74904(10)
C37 C 0.7877(8) 0.3472(4) 0.84509(10)
H49 H 0.7702 0.3415 0.8612
H50 H 0.9195 0.3420 0.8416
H51 H 0.7218 0.2839 0.8377
C38 C 0.8124(10) 0.2363(4) 0.75433(10)
H52 H 0.7253 0.2305 0.7419
H53 H 0.7875 0.1746 0.7651
H54 H 0.9388 0.2287 0.7487
O4 O 0.6029(6) 0.6026(4) 0.90201(6)
H55 H 0.4921 0.6071 0.9060
O5 O 0.4593(5) 0.2959(3) 0.76678(6)
H56 H 0.4817 0.2313 0.7725
O6 O 0.9495(7) 0.4607(4) 0.73647(8)
C39 C 0.2982(8) 0.6975(4) 1.01929(9)
H57 H 0.3913 0.7377 1.0101
H58 H 0.1750 0.7252 1.0146
C40 C 0.3284(8) 0.7308(4) 1.04364(9)
H59 H 0.4576 0.7135 1.0479
H60 H 0.3088 0.8150 1.0454
C41 C 0.1985(9) 0.6664(4) 1.05914(9)
H61 H 0.0691 0.6923 1.0562
C42 C 0.2110(9) 0.5372(4) 1.05548(8)
H62 H 0.1195 0.4973 1.0650
H63 H 0.3355 0.5096 1.0597
C43 C 0.1737(8) 0.5086(4) 1.03101(9)
H64 H 0.0484 0.5397 1.0274
C44 C 0.1656(11) 0.3773(4) 1.02738(10)
H65 H 0.2878 0.3430 1.0306
H66 H 0.0746 0.3428 1.0377
C45 C 0.1111(10) 0.3508(5) 1.00364(10)
H67 H -0.0167 0.3778 1.0011
H68 H 0.1131 0.2661 1.0014
C46 C 0.2386(8) 0.4075(3) 0.98657(8)
H69 H 0.3655 0.3779 0.9898
C47 C 0.2453(7) 0.5388(3) 0.99068(8)
H70 H 0.1154 0.5673 0.9895
C48 C 0.3109(7) 0.5661(3) 1.01465(8)
C49 C 0.3559(9) 0.6014(4) 0.97236(9)
H71 H 0.2704 0.6498 0.9635
H72 H 0.4470 0.6534 0.9795
C50 C 0.4573(8) 0.5190(5) 0.95674(9)
H73 H 0.5233 0.5643 0.9453
H74 H 0.5501 0.4747 0.9653
C51 C 0.3247(7) 0.4352(4) 0.94541(8)
C52 C 0.1955(9) 0.3728(4) 0.96251(9)
C53 C 0.0060(8) 0.4028(5) 0.95414(11)
H75 H -0.1033 0.3733 0.9608
C54 C 0.0030(9) 0.4728(5) 0.93700(11)
H76 H -0.1054 0.5005 0.9299
C55 C 0.1917(9) 0.5017(5) 0.93045(9)
C56 C 0.5095(8) 0.5265(5) 1.01831(10)
H77 H 0.5469 0.5439 1.0336
H78 H 0.5912 0.5670 1.0079
H79 H 0.5180 0.4431 1.0157
C57 C 0.4355(9) 0.3535(5) 0.93055(10)
H80 H 0.3513 0.3000 0.9230
H81 H 0.5229 0.3095 0.9397
H82 H 0.5035 0.3985 0.9194
O7 O 0.2437(6) 0.6890(3) 1.08197(6)
H83 H 0.2086 0.7558 1.0854
O8 O 0.2162(6) 0.2493(3) 0.96262(6)
H84 H 0.1959 0.2233 0.9498
O9 O 0.2375(6) 0.5689(4) 0.91605(7)
loop_
_geom_bond_atom_site_label_1
_geom_bond_atom_site_label_2
_geom_bond_site_symmetry_1
_geom_bond_site_symmetry_2
C1 H1 1_555 1_555
H2 C1 1_555 1_555
C2 C1 1_555 1_555
H3 C2 1_555 1_555
H4 C2 1_555 1_555
C3 C2 1_555 1_555
H5 C3 1_555 1_555
C4 C3 1_555 1_555
H6 C4 1_555 1_555
H7 C4 1_555 1_555
C5 C4 1_555 1_555
H8 C5 1_555 1_555
C6 C5 1_555 1_555
H9 C6 1_555 1_555
H10 C6 1_555 1_555
C7 C6 1_555 1_555
H11 C7 1_555 1_555
H12 C7 1_555 1_555
C8 C7 1_555 1_555
H13 C8 1_555 1_555
C9 C8 1_555 1_555
H14 C9 1_555 1_555
C10 C1 1_555 1_555
C11 C9 1_555 1_555
H15 C11 1_555 1_555
H16 C11 1_555 1_555
C12 C11 1_555 1_555
H17 C12 1_555 1_555
H18 C12 1_555 1_555
C13 C12 1_555 1_555
C14 C8 1_555 1_555
C15 C14 1_555 1_555
H19 C15 1_555 1_555
C16 C15 1_555 1_555
H20 C16 1_555 1_555
C17 C13 1_555 1_555
C18 C10 1_555 1_555
H21 C18 1_555 1_555
H22 C18 1_555 1_555
H23 C18 1_555 1_555
C19 C13 1_555 1_555
H24 C19 1_555 1_555
H25 C19 1_555 1_555
H26 C19 1_555 1_555
O1 C3 1_555 1_555
H27 O1 1_555 1_555
O2 C14 1_555 1_555
H28 O2 1_555 1_555
O3 C17 1_555 1_555
C20 H29 1_555 1_555
H30 C20 1_555 1_555
C21 C20 1_555 1_555
H31 C21 1_555 1_555
H32 C21 1_555 1_555
C22 C21 1_555 1_555
H33 C22 1_555 1_555
C23 C22 1_555 1_555
H34 C23 1_555 1_555
H35 C23 1_555 1_555
C24 C23 1_555 1_555
H36 C24 1_555 1_555
C25 C24 1_555 1_555
H37 C25 1_555 1_555
H38 C25 1_555 1_555
C26 C25 1_555 1_555
H39 C26 1_555 1_555
H40 C26 1_555 1_555
C27 C26 1_555 1_555
H41 C27 1_555 1_555
C28 C27 1_555 1_555
H42 C28 1_555 1_555
C29 C20 1_555 1_555
C30 C28 1_555 1_555
H43 C30 1_555 1_555
H44 C30 1_555 1_555
C31 C30 1_555 1_555
H45 C31 1_555 1_555
H46 C31 1_555 1_555
C32 C31 1_555 1_555
C33 C27 1_555 1_555
C34 C33 1_555 1_555
H47 C34 1_555 1_555
C35 C34 1_555 1_555
H48 C35 1_555 1_555
C36 C32 1_555 1_555
C37 C29 1_555 1_555
H49 C37 1_555 1_555
H50 C37 1_555 1_555
H51 C37 1_555 1_555
C38 C32 1_555 1_555
H52 C38 1_555 1_555
H53 C38 1_555 1_555
H54 C38 1_555 1_555
O4 C22 1_555 1_555
H55 O4 1_555 1_555
O5 C33 1_555 1_555
H56 O5 1_555 1_555
O6 C36 1_555 1_555
C39 H57 1_555 1_555
H58 C39 1_555 1_555
C40 C39 1_555 1_555
H59 C40 1_555 1_555
H60 C40 1_555 1_555
C41 C40 1_555 1_555
H61 C41 1_555 1_555
C42 C41 1_555 1_555
H62 C42 1_555 1_555
H63 C42 1_555 1_555
C43 C42 1_555 1_555
H64 C43 1_555 1_555
C44 C43 1_555 1_555
H65 C44 1_555 1_555
H66 C44 1_555 1_555
C45 C44 1_555 1_555
H67 C45 1_555 1_555
H68 C45 1_555 1_555
C46 C45 1_555 1_555
H69 C46 1_555 1_555
C47 C46 1_555 1_555
H70 C47 1_555 1_555
C48 C39 1_555 1_555
C49 C47 1_555 1_555
H71 C49 1_555 1_555
H72 C49 1_555 1_555
C50 C49 1_555 1_555
H73 C50 1_555 1_555
H74 C50 1_555 1_555
C51 C50 1_555 1_555
C52 C46 1_555 1_555
C53 C52 1_555 1_555
H75 C53 1_555 1_555
C54 C53 1_555 1_555
H76 C54 1_555 1_555
C55 C51 1_555 1_555
C56 C48 1_555 1_555
H77 C56 1_555 1_555
H78 C56 1_555 1_555
H79 C56 1_555 1_555
C57 C51 1_555 1_555
H80 C57 1_555 1_555
H81 C57 1_555 1_555
H82 C57 1_555 1_555
O7 C41 1_555 1_555
H83 O7 1_555 1_555
O8 C52 1_555 1_555
H84 O8 1_555 1_555
O9 C55 1_555 1_555
C5 C10 1_555 1_555
C9 C10 1_555 1_555
C13 C14 1_555 1_555
C16 C17 1_555 1_555
C24 C29 1_555 1_555
C28 C29 1_555 1_555
C32 C33 1_555 1_555
C35 C36 1_555 1_555
C43 C48 1_555 1_555
C47 C48 1_555 1_555
C51 C52 1_555 1_555
C54 C55 1_555 1_555

#END
