
#######################################################################
#
#                 Cambridge Crystallographic Data Centre
#                                CCDC 
#
#######################################################################
#
# If this CIF has been generated from an entry in the Cambridge 
# Structural Database, then it will include bibliographic, chemical, 
# crystal, experimental, refinement or atomic coordinate data resulting 
# from the CCDC's data processing and validation procedures.
#
#######################################################################

data_FAWHIW
_chemical_formula_moiety         'C21 H18 O2'
_chemical_name_systematic        
1-(10-(Phenylethynyl)-12-oxatricyclo[7.2.1.0^2,7^]dodeca-2,4,6-trien-10-yl)ethanone
_symmetry_cell_setting           triclinic
_symmetry_space_group_name_H-M   'P -1'
_symmetry_Int_Tables_number      2
_space_group_name_Hall           '-P 1'
loop_
_symmetry_equiv_pos_site_id
_symmetry_equiv_pos_as_xyz
1 x,y,z
2 -x,-y,-z
_cell_length_a                   5.780(3)
_cell_length_b                   9.050(5)
_cell_length_c                   15.428(9)
_cell_angle_alpha                82.449(15)
_cell_angle_beta                 83.244(19)
_cell_angle_gamma                88.07(2)
_cell_volume                     794.334
_exptl_crystal_colour            colorless
_exptl_crystal_description       prism
_cell_formula_units_Z            2
loop_
_atom_site_label
_atom_site_type_symbol
_atom_site_fract_x
_atom_site_fract_y
_atom_site_fract_z
O1 O 0.4797(2) 1.07858(12) 0.35449(8)
O2 O 0.4068(2) 0.71270(13) 0.46565(8)
C1 C 0.5076(3) 0.93485(18) 0.32244(11)
H1 H 0.3607 0.8773 0.3386
C2 C 0.5633(3) 0.96262(18) 0.22246(11)
H2 H 0.6082 0.8672 0.1997
H3 H 0.4229 1.0030 0.1959
C3 C 0.7598(3) 1.07150(18) 0.19647(11)
C4 C 0.8698(3) 1.09412(18) 0.11036(12)
H4 H 0.8177 1.0427 0.0666
C5 C 1.0553(3) 1.19137(19) 0.08807(12)
H5 H 1.1287 1.2062 0.0293
C6 C 1.1334(3) 1.26684(19) 0.15178(12)
H6 H 1.2611 1.3324 0.1368
C7 C 1.0233(3) 1.24569(18) 0.23764(12)
H7 H 1.0754 1.2977 0.2811
C8 C 0.8367(3) 1.14855(17) 0.26031(11)
C9 C 0.7168(3) 1.12314(18) 0.35377(11)
H8 H 0.7224 1.2148 0.3833
C10 C 0.8190(3) 0.98900(17) 0.40807(11)
H9 H 0.7719 0.9896 0.4718
H10 H 0.9912 0.9853 0.3969
C11 C 0.7076(3) 0.85642(18) 0.37283(11)
C12 C 0.8826(3) 0.77805(18) 0.31683(11)
C13 C 1.0309(3) 0.71893(18) 0.27221(11)
C14 C 1.2193(3) 0.66222(17) 0.21502(11)
C15 C 1.2322(3) 0.70234(18) 0.12387(11)
H11 H 1.1103 0.7607 0.0995
C16 C 1.4206(3) 0.65776(19) 0.06917(12)
H12 H 1.4280 0.6860 0.0074
C17 C 1.5992(3) 0.57200(19) 0.10386(12)
H13 H 1.7289 0.5418 0.0660
C18 C 1.5875(3) 0.53034(19) 0.19418(13)
H14 H 1.7094 0.4713 0.2181
C19 C 1.3983(3) 0.57466(17) 0.24966(12)
H15 H 1.3907 0.5453 0.3113
C20 C 0.6121(3) 0.74255(19) 0.45161(11)
C21 C 0.7849(3) 0.6725(2) 0.51113(12)
H16 H 0.7577 0.7117 0.5678
H17 H 0.9434 0.6960 0.4838
H18 H 0.7662 0.5641 0.5205
loop_
_geom_bond_atom_site_label_1
_geom_bond_atom_site_label_2
_geom_bond_site_symmetry_1
_geom_bond_site_symmetry_2
O1 C1 1_555 1_555
O2 C20 1_555 1_555
C1 H1 1_555 1_555
C2 C1 1_555 1_555
H2 C2 1_555 1_555
H3 C2 1_555 1_555
C3 C2 1_555 1_555
C4 C3 1_555 1_555
H4 C4 1_555 1_555
C5 C4 1_555 1_555
H5 C5 1_555 1_555
C6 C5 1_555 1_555
H6 C6 1_555 1_555
C7 C6 1_555 1_555
H7 C7 1_555 1_555
C8 C3 1_555 1_555
C9 O1 1_555 1_555
H8 C9 1_555 1_555
C10 C9 1_555 1_555
H9 C10 1_555 1_555
H10 C10 1_555 1_555
C11 C1 1_555 1_555
C12 C11 1_555 1_555
C13 C12 1_555 1_555
C14 C13 1_555 1_555
C15 C14 1_555 1_555
H11 C15 1_555 1_555
C16 C15 1_555 1_555
H12 C16 1_555 1_555
C17 C16 1_555 1_555
H13 C17 1_555 1_555
C18 C17 1_555 1_555
H14 C18 1_555 1_555
C19 C14 1_555 1_555
H15 C19 1_555 1_555
C20 C11 1_555 1_555
C21 C20 1_555 1_555
H16 C21 1_555 1_555
H17 C21 1_555 1_555
H18 C21 1_555 1_555
C7 C8 1_555 1_555
C8 C9 1_555 1_555
C10 C11 1_555 1_555
C18 C19 1_555 1_555

#END
