
#######################################################################
#
#                 Cambridge Crystallographic Data Centre
#                                CCDC 
#
#######################################################################
#
# If this CIF has been generated from an entry in the Cambridge 
# Structural Database, then it will include bibliographic, chemical, 
# crystal, experimental, refinement or atomic coordinate data resulting 
# from the CCDC's data processing and validation procedures.
#
#######################################################################

data_FAWHIX
_chemical_formula_moiety         'C19 H26 O2'
_chemical_name_systematic        3-hydroxyandrosta-8(14),15-dien-17-one
_symmetry_cell_setting           orthorhombic
_symmetry_space_group_name_H-M   'P 21 21 21'
_symmetry_Int_Tables_number      19
_space_group_name_Hall           'P 2ac 2ab'
loop_
_symmetry_equiv_pos_site_id
_symmetry_equiv_pos_as_xyz
1 x,y,z
2 1/2-x,-y,1/2+z
3 -x,1/2+y,1/2-z
4 1/2+x,1/2-y,-z
_cell_length_a                   7.5382(11)
_cell_length_b                   9.2390(15)
_cell_length_c                   22.809(3)
_cell_angle_alpha                90
_cell_angle_beta                 90
_cell_angle_gamma                90
_cell_volume                     1588.54
_exptl_crystal_colour            white
_exptl_crystal_description       block
_cell_formula_units_Z            4
loop_
_atom_site_label
_atom_site_type_symbol
_atom_site_fract_x
_atom_site_fract_y
_atom_site_fract_z
C1 C 0.1292(2) 1.03238(17) 0.93367(7)
C2 C 0.1502(2) 1.00443(17) 0.99038(7)
C3 C -0.0875(2) 0.98369(18) 0.85119(7)
O1 O -0.15847(18) 0.92190(19) 0.66611(5)
H1 H -0.2670 0.9155 0.6581
C4 C 0.2817(2) 1.0432(3) 0.89123(7)
H2 H 0.3892 1.0015 0.9096
H3 H 0.3058 1.1465 0.8829
C5 C -0.0496(2) 1.07268(19) 0.90754(7)
H4 H -0.0376 1.1754 0.8944
C6 C -0.2020(2) 1.0722(2) 0.95249(7)
H5 H -0.2936 1.1423 0.9398
H6 H -0.2571 0.9750 0.9530
C7 C 0.3143(2) 1.0028(2) 1.02397(7)
H7 H 0.4280 0.9862 1.0073
C8 C 0.0353(2) 0.9447(2) 0.74786(7)
H8 H 0.1349 0.9708 0.7216
H9 H 0.0329 0.8379 0.7515
C9 C 0.0672(2) 1.0112(2) 0.80810(7)
H10 H 0.0738 1.1183 0.8022
C10 C 0.0003(2) 1.0054(2) 1.03463(6)
O2 O 0.02547(19) 1.0807(2) 1.13680(5)
C11 C -0.1047(3) 0.8233(2) 0.86648(8)
H11 H -0.1057 0.7659 0.8303
H12 H -0.2154 0.8072 0.8880
H13 H -0.0040 0.7938 0.8909
C12 C -0.1423(2) 1.1110(2) 1.01479(7)
H14 H -0.0949 1.2109 1.0155
H15 H -0.2449 1.1063 1.0418
C13 C -0.2576(2) 1.0391(3) 0.82172(7)
H16 H -0.3599 1.0191 0.8477
H17 H -0.2490 1.1453 0.8167
C14 C -0.1368(2) 0.9955(2) 0.72085(7)
H18 H -0.1280 1.1018 0.7131
C15 C 0.2866(2) 1.0274(2) 1.08083(7)
H19 H 0.3764 1.0327 1.1100
C16 C -0.2909(2) 0.9689(3) 0.76188(8)
H20 H -0.3079 0.8634 0.7670
H21 H -0.4006 1.0093 0.7445
C17 C 0.2449(2) 0.9649(3) 0.83385(7)
H22 H 0.2440 0.8592 0.8408
H23 H 0.3407 0.9866 0.8055
C18 C -0.0754(3) 0.8527(2) 1.04484(9)
H24 H 0.0205 0.7873 1.0567
H25 H -0.1293 0.8171 1.0085
H26 H -0.1655 0.8564 1.0758
C19 C 0.0967(2) 1.04496(19) 1.09133(7)
loop_
_geom_bond_atom_site_label_1
_geom_bond_atom_site_label_2
_geom_bond_site_symmetry_1
_geom_bond_site_symmetry_2
C1 C2 1_555 1_555
C2 C7 1_555 1_555
C3 C5 1_555 1_555
O1 H1 1_555 1_555
C4 C1 1_555 1_555
H2 C4 1_555 1_555
H3 C4 1_555 1_555
C5 C1 1_555 1_555
H4 C5 1_555 1_555
C6 C5 1_555 1_555
H5 C6 1_555 1_555
H6 C6 1_555 1_555
C7 H7 1_555 1_555
C8 H8 1_555 1_555
H9 C8 1_555 1_555
C9 C3 1_555 1_555
H10 C9 1_555 1_555
C10 C2 1_555 1_555
O2 C19 1_555 1_555
C11 C3 1_555 1_555
H11 C11 1_555 1_555
H12 C11 1_555 1_555
H13 C11 1_555 1_555
C12 C6 1_555 1_555
H14 C12 1_555 1_555
H15 C12 1_555 1_555
C13 C3 1_555 1_555
H16 C13 1_555 1_555
H17 C13 1_555 1_555
C14 O1 1_555 1_555
H18 C14 1_555 1_555
C15 C7 1_555 1_555
H19 C15 1_555 1_555
C16 C13 1_555 1_555
H20 C16 1_555 1_555
H21 C16 1_555 1_555
C17 C4 1_555 1_555
H22 C17 1_555 1_555
H23 C17 1_555 1_555
C18 C10 1_555 1_555
H24 C18 1_555 1_555
H25 C18 1_555 1_555
H26 C18 1_555 1_555
C19 C10 1_555 1_555
C8 C9 1_555 1_555
C8 C14 1_555 1_555
C9 C17 1_555 1_555
C10 C12 1_555 1_555
C14 C16 1_555 1_555
C15 C19 1_555 1_555

#END
