
#######################################################################
#
#                 Cambridge Crystallographic Data Centre
#                                CCDC 
#
#######################################################################
#
# If this CIF has been generated from an entry in the Cambridge 
# Structural Database, then it will include bibliographic, chemical, 
# crystal, experimental, refinement or atomic coordinate data resulting 
# from the CCDC's data processing and validation procedures.
#
#######################################################################

data_FAWMOI
_chemical_formula_moiety         'C18 H18 O2'
_chemical_name_systematic        4,5-dimethoxy-2-methyl-1-phenyl-1H-indene
_symmetry_cell_setting           triclinic
_symmetry_space_group_name_H-M   'P -1'
_symmetry_Int_Tables_number      2
_space_group_name_Hall           '-P 1'
loop_
_symmetry_equiv_pos_site_id
_symmetry_equiv_pos_as_xyz
1 x,y,z
2 -x,-y,-z
_cell_length_a                   7.0295(6)
_cell_length_b                   9.8296(8)
_cell_length_c                   11.7070(9)
_cell_angle_alpha                101.647(5)
_cell_angle_beta                 105.413(5)
_cell_angle_gamma                103.993(5)
_cell_volume                     725.413
_exptl_crystal_colour            colorless
_cell_formula_units_Z            2
loop_
_atom_site_label
_atom_site_type_symbol
_atom_site_fract_x
_atom_site_fract_y
_atom_site_fract_z
O1 O 0.0184(3) 0.77541(18) 0.59279(13)
O2 O 0.3645(3) 0.70114(17) 0.65665(14)
C1 C -0.1518(5) 0.8281(3) 0.5562(2)
H1 H -0.2647 0.7768 0.5784
H2 H -0.1953 0.8124 0.4683
H3 H -0.1110 0.9308 0.5970
C2 C 0.1066(3) 0.7916(2) 0.71600(18)
C3 C 0.2846(3) 0.7487(2) 0.74730(18)
C4 C 0.3844(3) 0.76237(19) 0.87034(17)
C5 C 0.3090(3) 0.82123(19) 0.96220(17)
C6 C 0.4565(3) 0.8339(2) 1.08714(17)
H4 H 0.5296 0.9381 1.1288
C7 C 0.3610(3) 0.7696(2) 1.17350(17)
C8 C 0.3852(3) 0.8550(3) 1.28929(19)
H5 H 0.4584 0.9543 1.3139
C9 C 0.3017(4) 0.7941(4) 1.3685(2)
H6 H 0.3203 0.8524 1.4463
C10 C 0.1930(4) 0.6502(4) 1.3335(3)
H7 H 0.1368 0.6100 1.3872
C11 C 0.0315(3) 0.8472(2) 0.80745(19)
H8 H -0.0879 0.8746 0.7860
C12 C 0.1333(3) 0.8623(2) 0.93043(18)
H9 H 0.0826 0.9001 0.9913
C13 C 0.3432(5) 0.5524(3) 0.6246(2)
H10 H 0.3823 0.5225 0.6982
H11 H 0.4313 0.5347 0.5769
H12 H 0.2012 0.4977 0.5765
C14 C 0.5703(3) 0.7290(2) 0.93001(19)
H13 H 0.6489 0.6885 0.8890
C15 C 0.6115(3) 0.7650(2) 1.0522(2)
C16 C 0.1653(4) 0.5632(3) 1.2191(3)
H14 H 0.0902 0.4644 1.1953
C17 C 0.2492(3) 0.6228(2) 1.1389(2)
H15 H 0.2303 0.5636 1.0614
C18 C 0.7830(3) 0.7469(3) 1.1478(2)
H16 H 0.8781 0.7170 1.1105
H17 H 0.7269 0.6738 1.1838
H18 H 0.8550 0.8382 1.2110
loop_
_geom_bond_atom_site_label_1
_geom_bond_atom_site_label_2
_geom_bond_site_symmetry_1
_geom_bond_site_symmetry_2
O1 C1 1_555 1_555
O2 C3 1_555 1_555
C1 H1 1_555 1_555
H2 C1 1_555 1_555
H3 C1 1_555 1_555
C2 O1 1_555 1_555
C3 C2 1_555 1_555
C4 C3 1_555 1_555
C5 C4 1_555 1_555
C6 C5 1_555 1_555
H4 C6 1_555 1_555
C7 C6 1_555 1_555
C8 C7 1_555 1_555
H5 C8 1_555 1_555
C9 C8 1_555 1_555
H6 C9 1_555 1_555
C10 C9 1_555 1_555
H7 C10 1_555 1_555
C11 C2 1_555 1_555
H8 C11 1_555 1_555
C12 C5 1_555 1_555
H9 C12 1_555 1_555
C13 O2 1_555 1_555
H10 C13 1_555 1_555
H11 C13 1_555 1_555
H12 C13 1_555 1_555
C14 C4 1_555 1_555
H13 C14 1_555 1_555
C15 C6 1_555 1_555
C16 C10 1_555 1_555
H14 C16 1_555 1_555
C17 C7 1_555 1_555
H15 C17 1_555 1_555
C18 C15 1_555 1_555
H16 C18 1_555 1_555
H17 C18 1_555 1_555
H18 C18 1_555 1_555
C11 C12 1_555 1_555
C14 C15 1_555 1_555
C16 C17 1_555 1_555

#END
