
#######################################################################
#
#                 Cambridge Crystallographic Data Centre
#                                CCDC 
#
#######################################################################
#
# If this CIF has been generated from an entry in the Cambridge 
# Structural Database, then it will include bibliographic, chemical, 
# crystal, experimental, refinement or atomic coordinate data resulting 
# from the CCDC's data processing and validation procedures.
#
#######################################################################

data_FAWNOJ
_chemical_formula_moiety         'C33 H31 N5 O4'
_chemical_name_systematic        
"t-butyl [3',4-dimethyl-5,5'-dioxo-1,1'-diphenyl-3-(phenylethynyl)[1',4,5,5'-tetrahydro-1H,4'H-[4,4'-bipyrazole]]-4'-yl]carbamate"
_symmetry_cell_setting           monoclinic
_symmetry_space_group_name_H-M   'P 21'
_symmetry_Int_Tables_number      4
_space_group_name_Hall           'P 2yb'
loop_
_symmetry_equiv_pos_site_id
_symmetry_equiv_pos_as_xyz
1 x,y,z
2 -x,1/2+y,-z
_cell_length_a                   10.48005(13)
_cell_length_b                   24.7093(3)
_cell_length_c                   12.42655(18)
_cell_angle_alpha                90
_cell_angle_beta                 112.8024(16)
_cell_angle_gamma                90
_cell_volume                     2966.42
_exptl_crystal_colour            colorless
_exptl_crystal_description       block
_cell_formula_units_Z            4
loop_
_atom_site_label
_atom_site_type_symbol
_atom_site_fract_x
_atom_site_fract_y
_atom_site_fract_z
O1 O 0.29768(18) 0.64254(8) 1.12641(16)
O2 O 0.33341(16) 0.70135(7) 0.99928(14)
O3 O 0.70519(17) 0.69832(7) 1.17370(13)
O4 O 0.69341(16) 0.56642(7) 1.20046(14)
N1 N 0.62615(18) 0.73481(8) 0.98688(16)
N2 N 0.53207(18) 0.72015(8) 0.87423(16)
N3 N 0.89630(19) 0.62007(8) 1.06144(16)
N4 N 0.87674(18) 0.59821(8) 1.15799(16)
N5 N 0.45742(19) 0.62593(8) 1.04929(17)
H1 H 0.498(3) 0.6007(13) 1.103(3)
C1 C 0.5526(2) 0.64791(9) 1.00104(18)
C2 C 0.6371(2) 0.69653(9) 1.06911(18)
C3 C 0.4861(2) 0.67261(9) 0.88024(19)
C4 C 0.6596(2) 0.60238(9) 1.00696(18)
C5 C 0.7773(2) 0.62299(9) 0.97621(19)
C6 C 0.7408(2) 0.58673(9) 1.13456(19)
C7 C 0.3560(2) 0.65662(10) 1.0640(2)
C8 C 0.2177(3) 0.73868(11) 0.9858(3)
C9 C 0.0818(3) 0.70826(16) 0.9319(4)
H2 H 0.076925 0.690444 0.859995
H3 H 0.004587 0.733730 0.913902
H4 H 0.076122 0.680966 0.987128
C10 C 0.2384(5) 0.76322(14) 1.1027(3)
H5 H 0.226165 0.735225 1.153790
H6 H 0.170385 0.792101 1.091804
H7 H 0.332010 0.778256 1.138459
C11 C 0.2314(3) 0.78060(12) 0.9019(3)
H8 H 0.321475 0.798584 0.937237
H9 H 0.157410 0.807494 0.884930
H10 H 0.224134 0.762822 0.829254
C12 C 0.6987(2) 0.78461(9) 1.0040(2)
C13 C 0.7351(3) 0.81149(12) 1.1094(3)
H11 H 0.708398 0.797544 1.168798
C14 C 0.8108(4) 0.85890(13) 1.1273(3)
H12 H 0.837144 0.877272 1.199831
C15 C 0.8484(3) 0.87976(11) 1.0410(3)
H13 H 0.900438 0.912320 1.053867
C16 C 0.8100(3) 0.85304(12) 0.9360(2)
H14 H 0.835367 0.867451 0.876273
C17 C 0.7347(3) 0.80540(11) 0.9164(2)
H15 H 0.708206 0.787235 0.843567
C18 C 0.3756(2) 0.64764(11) 0.7775(2)
H16 H 0.328288 0.675831 0.720562
H17 H 0.308795 0.629375 0.802635
H18 H 0.416816 0.621232 0.741660
C19 C 0.5939(2) 0.55148(10) 0.9371(2)
H19 H 0.550514 0.560520 0.853974
H20 H 0.523625 0.537362 0.963623
H21 H 0.665546 0.524000 0.949139
C20 C 0.7614(2) 0.63896(10) 0.86164(19)
C21 C 0.7360(2) 0.64990(10) 0.7616(2)
C22 C 0.6975(7) 0.6643(4) 0.6412(8)
C23 C 0.7808(6) 0.6502(3) 0.5805(6)
H22 H 0.865505 0.631574 0.620221
C24 C 0.7417(9) 0.6629(2) 0.4636(6)
H23 H 0.798815 0.652980 0.423172
C25 C 0.6172(9) 0.6904(3) 0.4056(4)
H24 H 0.589006 0.698702 0.324989
C26 C 0.5347(6) 0.7056(3) 0.4645(5)
H25 H 0.450751 0.724595 0.424478
C27 C 0.5745(5) 0.6933(3) 0.5818(6)
H26 H 0.518509 0.704449 0.622297
C28 C 0.9938(2) 0.59400(9) 1.26502(19)
C29 C 1.1176(2) 0.61662(10) 1.2733(2)
H27 H 1.124581 0.633902 1.207456
C30 C 1.2314(2) 0.61403(11) 1.3775(2)
H28 H 1.316594 0.629605 1.383084
C31 C 1.2223(3) 0.58910(12) 1.4733(2)
H29 H 1.300761 0.587553 1.544936
C32 C 1.0994(3) 0.56655(17) 1.4644(3)
H30 H 1.093230 0.549156 1.530393
C33 C 0.9838(3) 0.56868(15) 1.3608(3)
H31 H 0.898833 0.552973 1.355532
O5 O 0.11826(15) 0.42094(8) 0.28033(15)
O6 O 0.28493(15) 0.38931(7) 0.44882(14)
O7 O 0.50552(17) 0.35941(7) 0.30003(15)
O8 O 0.41833(15) 0.47866(7) 0.15136(14)
N6 N 0.62146(18) 0.36687(8) 0.50084(16)
N7 N 0.61402(18) 0.40146(8) 0.58903(16)
N8 N 0.76032(17) 0.44964(8) 0.32494(16)
N9 N 0.64554(17) 0.44833(8) 0.22043(15)
N10 N 0.34025(18) 0.45079(9) 0.34347(18)
H37 H 0.316(3) 0.4653(14) 0.274(3)
C40 C 0.4856(2) 0.43992(9) 0.40785(18)
C41 C 0.5342(2) 0.38301(9) 0.3915(2)
C42 C 0.5356(2) 0.44159(10) 0.53983(19)
C43 C 0.5681(2) 0.48064(9) 0.36039(18)
C44 C 0.7212(2) 0.46740(9) 0.40527(19)
C45 C 0.5290(2) 0.46931(9) 0.22972(18)
C46 C 0.2355(2) 0.41938(10) 0.3518(2)
C47 C 0.1927(2) 0.35164(10) 0.4778(2)
C48 C 0.0752(3) 0.38234(14) 0.4917(3)
H38 H 0.111275 0.415343 0.537094
H39 H 0.031762 0.359559 0.532556
H40 H 0.006374 0.392022 0.414582
C49 C 0.1436(3) 0.30756(13) 0.3860(3)
H41 H 0.078421 0.322927 0.312545
H42 H 0.097469 0.279034 0.412304
H43 H 0.223187 0.292232 0.373748
C50 C 0.2907(3) 0.32892(12) 0.5939(2)
H44 H 0.371963 0.313377 0.584741
H45 H 0.243303 0.300722 0.619803
H46 H 0.320112 0.357994 0.651991
C51 C 0.7199(2) 0.32416(9) 0.5327(2)
C52 C 0.7309(3) 0.28956(11) 0.4478(3)
H47 H 0.669078 0.292910 0.368508
C53 C 0.8338(3) 0.25006(12) 0.4812(3)
H48 H 0.843161 0.226907 0.423618
C54 C 0.9224(3) 0.24399(11) 0.5963(3)
H49 H 0.990371 0.216201 0.618350
C55 C 0.9113(3) 0.27867(14) 0.6792(3)
H50 H 0.972929 0.274987 0.758414
C56 C 0.8109(3) 0.31898(12) 0.6481(2)
H51 H 0.804713 0.342902 0.705695
C57 C 0.4984(3) 0.48275(11) 0.6101(2)
H52 H 0.520495 0.468767 0.689137
H53 H 0.399112 0.490582 0.573318
H54 H 0.551063 0.515996 0.614270
C58 C 0.5402(2) 0.54010(10) 0.3784(2)
H55 H 0.575886 0.548122 0.462129
H56 H 0.440319 0.546922 0.343853
H57 H 0.586568 0.563303 0.340701
C59 C 0.8161(2) 0.47715(10) 0.5207(2)
C60 C 0.8914(2) 0.48841(10) 0.6185(2)
C61 C 0.9937(16) 0.5025(9) 0.7277(15)
C62 C 1.1311(7) 0.4923(3) 0.7585(6)
H58 H 1.162728 0.475848 0.704232
C63 C 1.2237(6) 0.5058(3) 0.8682(7)
H59 H 1.319050 0.497769 0.889837
C64 C 1.1799(12) 0.5312(3) 0.9487(9)
H60 H 1.244542 0.540553 1.024326
C65 C 1.0440(9) 0.5421(3) 0.9164(6)
H61 H 1.013279 0.560103 0.969609
C66 C 0.9477(7) 0.5275(4) 0.8067(5)
H62 H 0.852009 0.534601 0.785899
C67 C 0.6638(2) 0.43350(10) 0.1169(2)
C68 C 0.7950(3) 0.43703(13) 0.1142(2)
H63 H 0.872171 0.448320 0.181136
C69 C 0.8105(4) 0.42372(17) 0.0118(3)
H64 H 0.899659 0.425543 0.008919
C70 C 0.6987(4) 0.40783(15) -0.0863(3)
H65 H 0.710401 0.399834 -0.156741
C71 C 0.5702(4) 0.40369(12) -0.0813(2)
H66 H 0.493476 0.392319 -0.148500
C72 C 0.5506(3) 0.41587(10) 0.0207(2)
H67 H 0.462144 0.412209 0.024277
C34? C 0.722(5) 0.657(2) 0.640(4)
C35? C 0.827(4) 0.6419(13) 0.608(3)
H32? H 0.909133 0.625583 0.661640
C36? C 0.810(5) 0.6512(11) 0.496(2)
H33? H 0.879638 0.642187 0.468217
C37? C 0.683(5) 0.6749(13) 0.421(2)
H34? H 0.671710 0.682050 0.343150
C38? C 0.578(4) 0.6880(13) 0.4519(17)
H35? H 0.494245 0.702974 0.397805
C39? C 0.599(4) 0.6783(14) 0.569(2)
H36? H 0.529356 0.686538 0.597328
C73? C 0.9696(14) 0.5026(8) 0.7436(14)
C74? C 1.1117(8) 0.5135(5) 0.7800(7)
H68? H 1.155713 0.510918 0.726189
C75? C 1.1881(10) 0.5283(5) 0.8965(9)
H69? H 1.284146 0.536000 0.921633
C76? C 1.1242(9) 0.5317(3) 0.9746(8)
H70? H 1.175325 0.543316 1.052414
C77? C 0.9871(6) 0.5184(3) 0.9406(5)
H71? H 0.944823 0.519178 0.995778
C78? C 0.9098(6) 0.5037(3) 0.8256(5)
H72? H 0.814996 0.494287 0.802924
loop_
_geom_bond_atom_site_label_1
_geom_bond_atom_site_label_2
_geom_bond_site_symmetry_1
_geom_bond_site_symmetry_2
O1 C7 1_555 1_555
O2 C7 1_555 1_555
O3 C2 1_555 1_555
O4 C6 1_555 1_555
N1 N2 1_555 1_555
N2 C3 1_555 1_555
N3 N4 1_555 1_555
N4 C6 1_555 1_555
N5 H1 1_555 1_555
C1 N5 1_555 1_555
C2 N1 1_555 1_555
C3 C1 1_555 1_555
C4 C1 1_555 1_555
C5 N3 1_555 1_555
C6 C4 1_555 1_555
C7 N5 1_555 1_555
C8 O2 1_555 1_555
C9 C8 1_555 1_555
H2 C9 1_555 1_555
H3 C9 1_555 1_555
H4 C9 1_555 1_555
C10 C8 1_555 1_555
H5 C10 1_555 1_555
H6 C10 1_555 1_555
H7 C10 1_555 1_555
C11 C8 1_555 1_555
H8 C11 1_555 1_555
H9 C11 1_555 1_555
H10 C11 1_555 1_555
C12 N1 1_555 1_555
C13 C12 1_555 1_555
H11 C13 1_555 1_555
C14 C13 1_555 1_555
H12 C14 1_555 1_555
C15 C14 1_555 1_555
H13 C15 1_555 1_555
C16 C15 1_555 1_555
H14 C16 1_555 1_555
C17 C12 1_555 1_555
H15 C17 1_555 1_555
C18 C3 1_555 1_555
H16 C18 1_555 1_555
H17 C18 1_555 1_555
H18 C18 1_555 1_555
C19 C4 1_555 1_555
H19 C19 1_555 1_555
H20 C19 1_555 1_555
H21 C19 1_555 1_555
C20 C5 1_555 1_555
C21 C20 1_555 1_555
C22 C21 1_555 1_555
C23 C22 1_555 1_555
H22 C23 1_555 1_555
C24 C23 1_555 1_555
H23 C24 1_555 1_555
C25 C24 1_555 1_555
H24 C25 1_555 1_555
C26 C25 1_555 1_555
H25 C26 1_555 1_555
C27 C22 1_555 1_555
H26 C27 1_555 1_555
C28 N4 1_555 1_555
C29 C28 1_555 1_555
H27 C29 1_555 1_555
C30 C29 1_555 1_555
H28 C30 1_555 1_555
C31 C30 1_555 1_555
H29 C31 1_555 1_555
C32 C31 1_555 1_555
H30 C32 1_555 1_555
C33 C28 1_555 1_555
H31 C33 1_555 1_555
O5 C46 1_555 1_555
O6 C46 1_555 1_555
O7 C41 1_555 1_555
O8 C45 1_555 1_555
N6 N7 1_555 1_555
N7 C42 1_555 1_555
N8 N9 1_555 1_555
N9 C45 1_555 1_555
N10 H37 1_555 1_555
C40 N10 1_555 1_555
C41 N6 1_555 1_555
C42 C40 1_555 1_555
C43 C40 1_555 1_555
C44 N8 1_555 1_555
C45 C43 1_555 1_555
C46 N10 1_555 1_555
C47 O6 1_555 1_555
C48 C47 1_555 1_555
H38 C48 1_555 1_555
H39 C48 1_555 1_555
H40 C48 1_555 1_555
C49 C47 1_555 1_555
H41 C49 1_555 1_555
H42 C49 1_555 1_555
H43 C49 1_555 1_555
C50 C47 1_555 1_555
H44 C50 1_555 1_555
H45 C50 1_555 1_555
H46 C50 1_555 1_555
C51 N6 1_555 1_555
C52 C51 1_555 1_555
H47 C52 1_555 1_555
C53 C52 1_555 1_555
H48 C53 1_555 1_555
C54 C53 1_555 1_555
H49 C54 1_555 1_555
C55 C54 1_555 1_555
H50 C55 1_555 1_555
C56 C51 1_555 1_555
H51 C56 1_555 1_555
C57 C42 1_555 1_555
H52 C57 1_555 1_555
H53 C57 1_555 1_555
H54 C57 1_555 1_555
C58 C43 1_555 1_555
H55 C58 1_555 1_555
H56 C58 1_555 1_555
H57 C58 1_555 1_555
C59 C44 1_555 1_555
C60 C59 1_555 1_555
C61 C60 1_555 1_555
C62 C61 1_555 1_555
H58 C62 1_555 1_555
C63 C62 1_555 1_555
H59 C63 1_555 1_555
C64 C63 1_555 1_555
H60 C64 1_555 1_555
C65 C64 1_555 1_555
H61 C65 1_555 1_555
C66 C61 1_555 1_555
H62 C66 1_555 1_555
C67 N9 1_555 1_555
C68 C67 1_555 1_555
H63 C68 1_555 1_555
C69 C68 1_555 1_555
H64 C69 1_555 1_555
C70 C69 1_555 1_555
H65 C70 1_555 1_555
C71 C70 1_555 1_555
H66 C71 1_555 1_555
C72 C67 1_555 1_555
H67 C72 1_555 1_555
C1 C2 1_555 1_555
C4 C5 1_555 1_555
C16 C17 1_555 1_555
C26 C27 1_555 1_555
C32 C33 1_555 1_555
C40 C41 1_555 1_555
C43 C44 1_555 1_555
C55 C56 1_555 1_555
C65 C66 1_555 1_555
C71 C72 1_555 1_555

#END
