
#######################################################################
#
#                 Cambridge Crystallographic Data Centre
#                                CCDC 
#
#######################################################################
#
# If this CIF has been generated from an entry in the Cambridge 
# Structural Database, then it will include bibliographic, chemical, 
# crystal, experimental, refinement or atomic coordinate data resulting 
# from the CCDC's data processing and validation procedures.
#
#######################################################################

data_FAWPAX
_chemical_formula_moiety         'C23 H16 Cl1 N1 O2'
_chemical_name_systematic        
9-chloro-11-(4-methoxyphenyl)-6H-[2]benzopyrano[4,3-c]quinoline
_symmetry_cell_setting           triclinic
_symmetry_space_group_name_H-M   'P -1'
_symmetry_Int_Tables_number      2
_space_group_name_Hall           '-P 1'
loop_
_symmetry_equiv_pos_site_id
_symmetry_equiv_pos_as_xyz
1 x,y,z
2 -x,-y,-z
_cell_length_a                   10.119(2)
_cell_length_b                   11.447(2)
_cell_length_c                   16.905(3)
_cell_angle_alpha                76.716(4)
_cell_angle_beta                 84.104(4)
_cell_angle_gamma                75.228(4)
_cell_volume                     1840.73
_exptl_crystal_colour            colorless
_exptl_crystal_description       block
_cell_formula_units_Z            4
loop_
_atom_site_label
_atom_site_type_symbol
_atom_site_fract_x
_atom_site_fract_y
_atom_site_fract_z
Cl1 Cl -0.00670(10) -0.34636(6) 0.08776(4)
O1 O -0.13525(18) 0.23971(14) 0.11068(9)
O2 O -0.2293(2) -0.46062(17) 0.44020(12)
N1 N -0.06473(18) 0.04957(16) 0.34864(10)
C1 C -0.2270(3) 0.1959(2) 0.07044(15)
H1 H -0.2346 0.2412 0.0144
H2 H -0.3173 0.2112 0.0973
C2 C -0.1761(2) 0.0609(2) 0.07231(12)
C3 C -0.1809(2) 0.0090(2) 0.00642(13)
H3 H -0.2176 0.0592 -0.0415
C4 C -0.1314(3) -0.1168(2) 0.01141(13)
H4 H -0.1367 -0.1521 -0.0322
C5 C -0.0742(3) -0.1885(2) 0.08241(13)
C6 C -0.0660(2) -0.1394(2) 0.14906(12)
H5 H -0.0241 -0.1896 0.1956
C7 C -0.1217(2) -0.01347(19) 0.14531(11)
C8 C -0.1147(2) 0.05103(18) 0.21086(11)
C9 C -0.1010(2) -0.00447(18) 0.29576(11)
C10 C -0.0453(2) 0.1664(2) 0.32232(12)
C11 C -0.0019(3) 0.2231(2) 0.37776(14)
H6 H 0.0168 0.1790 0.4305
C12 C 0.0126(3) 0.3410(3) 0.35494(17)
H7 H 0.0430 0.3762 0.3919
C13 C -0.0179(3) 0.4110(3) 0.27557(17)
H8 H -0.0086 0.4921 0.2608
C14 C -0.0609(3) 0.3595(2) 0.22052(15)
H9 H -0.0820 0.4059 0.1686
C15 C -0.0735(2) 0.23611(19) 0.24242(12)
C16 C -0.1106(2) 0.17392(19) 0.18760(12)
C17 C -0.1344(2) -0.12576(18) 0.33065(11)
C18 C -0.0536(2) -0.2130(2) 0.38874(12)
H10 H 0.0237 -0.1962 0.4047
C19 C -0.0865(2) -0.3243(2) 0.42311(13)
H11 H -0.0298 -0.3828 0.4607
C20 C -0.2039(2) -0.3494(2) 0.40175(13)
C21 C -0.2870(2) -0.2630(2) 0.34440(14)
H12 H -0.3657 -0.2789 0.3297
C22 C -0.2513(2) -0.1524(2) 0.30922(12)
H13 H -0.3066 -0.0948 0.2705
C23 C -0.3382(4) -0.4974(4) 0.4130(2)
H14 H -0.3242 -0.4958 0.3557
H15 H -0.4236 -0.4415 0.4229
H16 H -0.3400 -0.5796 0.4419
Cl2 Cl 0.59473(7) 0.27989(7) 0.32122(5)
O3 O 0.29723(18) -0.18363(16) 0.43235(10)
O4 O 0.3981(4) 0.3722(3) -0.0190(2)
N2 N 0.3514(2) -0.1395(2) 0.18141(12)
C24 C 0.2399(3) -0.0702(2) 0.46106(14)
H17 H 0.2387 -0.0878 0.5200
H18 H 0.1464 -0.0367 0.4445
C25 C 0.3223(2) 0.0228(2) 0.42731(12)
C26 C 0.3497(3) 0.0999(2) 0.47313(14)
H19 H 0.3137 0.0958 0.5263
C27 C 0.4297(3) 0.1827(2) 0.44056(16)
H20 H 0.4459 0.2358 0.4706
C28 C 0.4851(2) 0.1841(2) 0.36212(15)
C29 C 0.4593(2) 0.1092(2) 0.31485(13)
H21 H 0.4985 0.1118 0.2624
C30 C 0.3737(2) 0.02935(19) 0.34677(12)
C31 C 0.3438(2) -0.0585(2) 0.30288(12)
C32 C 0.3532(2) -0.0478(2) 0.21632(12)
C33 C 0.3345(3) -0.2483(2) 0.22963(16)
C34 C 0.3365(5) -0.3479(3) 0.1922(2)
H22 H 0.3522 -0.3385 0.1362
C35 C 0.3157(5) -0.4567(3) 0.2374(3)
H23 H 0.3183 -0.5213 0.2120
C36 C 0.2903(4) -0.4727(3) 0.3214(3)
H24 H 0.2750 -0.5475 0.3513
C37 C 0.2876(3) -0.3799(2) 0.3602(2)
H25 H 0.2701 -0.3913 0.4162
C38 C 0.3115(2) -0.2660(2) 0.31503(15)
C39 C 0.3149(2) -0.1656(2) 0.34985(13)
C40 C 0.3610(2) 0.0693(2) 0.15849(12)
C41 C 0.4517(3) 0.0666(3) 0.09027(15)
H26 H 0.5096 -0.0083 0.0838
C42 C 0.4574(3) 0.1703(3) 0.03345(17)
H27 H 0.5186 0.1664 -0.0114
C43 C 0.3731(4) 0.2800(3) 0.04248(17)
C44 C 0.2790(3) 0.2884(3) 0.11001(17)
H28 H 0.2215 0.3639 0.1157
C45 C 0.2747(3) 0.1817(2) 0.16733(14)
H29 H 0.2135 0.1852 0.2122
C46 C 0.3112(5) 0.4698(5) -0.0148(3)
H30 H 0.3149 0.5293 -0.0648
H31 H 0.3301 0.5018 0.0295
H32 H 0.2218 0.4536 -0.0059
loop_
_geom_bond_atom_site_label_1
_geom_bond_atom_site_label_2
_geom_bond_site_symmetry_1
_geom_bond_site_symmetry_2
Cl1 C5 1_555 1_555
O1 C1 1_555 1_555
O2 C20 1_555 1_555
N1 C9 1_555 1_555
C1 H1 1_555 1_555
H2 C1 1_555 1_555
C2 C1 1_555 1_555
C3 C2 1_555 1_555
H3 C3 1_555 1_555
C4 C3 1_555 1_555
H4 C4 1_555 1_555
C5 C4 1_555 1_555
C6 C5 1_555 1_555
H5 C6 1_555 1_555
C7 C2 1_555 1_555
C8 C7 1_555 1_555
C9 C8 1_555 1_555
C10 N1 1_555 1_555
C11 C10 1_555 1_555
H6 C11 1_555 1_555
C12 C11 1_555 1_555
H7 C12 1_555 1_555
C13 C12 1_555 1_555
H8 C13 1_555 1_555
C14 C13 1_555 1_555
H9 C14 1_555 1_555
C15 C10 1_555 1_555
C16 O1 1_555 1_555
C17 C9 1_555 1_555
C18 C17 1_555 1_555
H10 C18 1_555 1_555
C19 C18 1_555 1_555
H11 C19 1_555 1_555
C20 C19 1_555 1_555
C21 C20 1_555 1_555
H12 C21 1_555 1_555
C22 C17 1_555 1_555
H13 C22 1_555 1_555
C23 O2 1_555 1_555
H14 C23 1_555 1_555
H15 C23 1_555 1_555
H16 C23 1_555 1_555
Cl2 C28 1_555 1_555
O3 C24 1_555 1_555
O4 C43 1_555 1_555
N2 C32 1_555 1_555
C24 H17 1_555 1_555
H18 C24 1_555 1_555
C25 C24 1_555 1_555
C26 C25 1_555 1_555
H19 C26 1_555 1_555
C27 C26 1_555 1_555
H20 C27 1_555 1_555
C28 C27 1_555 1_555
C29 C28 1_555 1_555
H21 C29 1_555 1_555
C30 C25 1_555 1_555
C31 C30 1_555 1_555
C32 C31 1_555 1_555
C33 N2 1_555 1_555
C34 C33 1_555 1_555
H22 C34 1_555 1_555
C35 C34 1_555 1_555
H23 C35 1_555 1_555
C36 C35 1_555 1_555
H24 C36 1_555 1_555
C37 C36 1_555 1_555
H25 C37 1_555 1_555
C38 C33 1_555 1_555
C39 O3 1_555 1_555
C40 C32 1_555 1_555
C41 C40 1_555 1_555
H26 C41 1_555 1_555
C42 C41 1_555 1_555
H27 C42 1_555 1_555
C43 C42 1_555 1_555
C44 C43 1_555 1_555
H28 C44 1_555 1_555
C45 C40 1_555 1_555
H29 C45 1_555 1_555
C46 O4 1_555 1_555
H30 C46 1_555 1_555
H31 C46 1_555 1_555
H32 C46 1_555 1_555
C6 C7 1_555 1_555
C8 C16 1_555 1_555
C14 C15 1_555 1_555
C15 C16 1_555 1_555
C21 C22 1_555 1_555
C29 C30 1_555 1_555
C31 C39 1_555 1_555
C37 C38 1_555 1_555
C38 C39 1_555 1_555
C44 C45 1_555 1_555

#END
