
#######################################################################
#
#                 Cambridge Crystallographic Data Centre
#                                CCDC 
#
#######################################################################
#
# If this CIF has been generated from an entry in the Cambridge 
# Structural Database, then it will include bibliographic, chemical, 
# crystal, experimental, refinement or atomic coordinate data resulting 
# from the CCDC's data processing and validation procedures.
#
#######################################################################

data_FAWRIH
_chemical_formula_moiety         'C30 H25 F1 O2'
_chemical_name_systematic        
4-[8-(4-fluorophenyl)-3,4-dimethoxy-7,8-dihydronaphthalen-1-yl]-1,1'-biphenyl
_symmetry_cell_setting           triclinic
_symmetry_space_group_name_H-M   'P -1'
_symmetry_Int_Tables_number      2
_space_group_name_Hall           '-P 1'
loop_
_symmetry_equiv_pos_site_id
_symmetry_equiv_pos_as_xyz
1 x,y,z
2 -x,-y,-z
_cell_length_a                   11.399(2)
_cell_length_b                   11.510(2)
_cell_length_c                   19.440(4)
_cell_angle_alpha                74.294(4)
_cell_angle_beta                 85.627(5)
_cell_angle_gamma                65.942(4)
_cell_volume                     2240.37
_exptl_crystal_colour            colorless
_cell_formula_units_Z            4
loop_
_atom_site_label
_atom_site_type_symbol
_atom_site_fract_x
_atom_site_fract_y
_atom_site_fract_z
F1 F -0.11072(11) 0.64377(11) 0.74284(5)
O1 O 0.00862(11) 0.96713(11) 0.26962(6)
O2 O 0.05196(11) 0.71075(11) 0.29644(6)
C1 C -0.02173(17) 0.63579(16) 0.69113(9)
C2 C -0.06378(17) 0.70052(16) 0.62145(9)
H1 H -0.1528 0.7501 0.6093
C3 C 0.02715(16) 0.69184(15) 0.56900(8)
H2 H -0.0004 0.7361 0.5205
C4 C 0.15812(15) 0.61943(14) 0.58625(8)
C5 C 0.26100(15) 0.60705(15) 0.53050(8)
H3 H 0.3279 0.6295 0.5473
C6 C 0.20714(15) 0.70339(15) 0.45830(8)
C7 C 0.19467(15) 0.83364(15) 0.44196(8)
C8 C 0.25544(15) 0.87794(14) 0.48948(8)
C9 C 0.18417(16) 0.95791(16) 0.53313(8)
H4 H 0.0933 0.9866 0.5330
C10 C 0.24482(16) 0.99627(15) 0.57701(8)
H5 H 0.1945 1.0518 0.6061
C11 C 0.37832(15) 0.95445(14) 0.57896(8)
C12 C 0.44600(15) 0.98962(15) 0.62703(8)
C13 C 0.39208(16) 1.11337(15) 0.64166(8)
H6 H 0.3100 1.1755 0.6212
C14 C 0.45699(17) 1.14624(16) 0.68556(8)
H7 H 0.4185 1.2299 0.6957
C15 C 0.57793(17) 1.05764(16) 0.71485(8)
H8 H 0.6233 1.0810 0.7440
C16 C 0.19551(17) 0.55747(15) 0.65828(8)
H9 H 0.2844 0.5089 0.6712
C17 C 0.10608(17) 0.56507(16) 0.71150(9)
H10 H 0.1324 0.5228 0.7603
C18 C 0.32753(17) 0.46510(16) 0.52309(9)
H11 H 0.4099 0.4536 0.4992
H12 H 0.3470 0.4027 0.5713
C19 C 0.24534(17) 0.43354(16) 0.48075(9)
H13 H 0.2493 0.3464 0.4920
C20 C 0.16680(17) 0.52607(15) 0.42755(9)
H14 H 0.1173 0.5033 0.4006
C21 C 0.15540(15) 0.66295(15) 0.40985(8)
C22 C 0.12807(15) 0.92426(15) 0.37921(8)
H15 H 0.1182 1.0133 0.3690
C23 C 0.07625(15) 0.88512(15) 0.33174(8)
C24 C -0.01357(19) 1.10336(17) 0.25547(10)
H16 H -0.0603 1.1385 0.2947
H17 H -0.0646 1.1530 0.2107
H18 H 0.0690 1.1118 0.2513
C25 C 0.09273(15) 0.75302(16) 0.34668(8)
C26 C -0.08107(17) 0.73264(18) 0.30091(9)
H19 H -0.0955 0.6819 0.3476
H20 H -0.1051 0.7043 0.2629
H21 H -0.1336 0.8267 0.2953
C27 C 0.63216(16) 0.93442(16) 0.70114(8)
H22 H 0.7146 0.8730 0.7214
C28 C 0.56671(15) 0.90075(15) 0.65819(8)
H23 H 0.6044 0.8157 0.6497
C29 C 0.44846(15) 0.87547(15) 0.53426(8)
H24 H 0.5393 0.8467 0.5341
C30 C 0.38834(15) 0.83835(15) 0.49029(8)
H25 H 0.4384 0.7851 0.4602
F2 F 0.06743(9) 0.93186(10) 0.92594(6)
O3 O 0.93365(11) 0.64842(11) 1.12571(6)
O4 O 0.85538(10) 0.46742(10) 1.10845(5)
C31 C 0.19733(16) 0.89243(16) 0.91754(9)
C32 C 0.27795(16) 0.81929(15) 0.97667(9)
H26 H 0.2448 0.7965 1.0223
C33 C 0.40976(15) 0.77932(15) 0.96795(8)
H27 H 0.4672 0.7284 1.0082
C34 C 0.45894(15) 0.81268(15) 0.90118(8)
C35 C 0.60247(15) 0.76574(15) 0.88840(8)
H28 H 0.6149 0.8358 0.8490
C36 C 0.68536(15) 0.74304(14) 0.95260(8)
C37 C 0.72068(15) 0.84014(14) 0.96301(8)
C38 C 0.67222(15) 0.97728(14) 0.91524(8)
C39 C 0.54050(15) 1.05681(15) 0.90722(8)
H29 H 0.4810 1.0212 0.9296
C40 C 0.49563(15) 1.18713(15) 0.86695(8)
H30 H 0.4058 1.2398 0.8627
C41 C 0.58022(15) 1.24234(14) 0.83256(8)
C42 C 0.52949(15) 1.38284(15) 0.79016(8)
C43 C 0.58119(17) 1.42298(16) 0.72502(9)
H31 H 0.6513 1.3600 0.7074
C44 C 0.53066(18) 1.55443(17) 0.68590(9)
H32 H 0.5662 1.5805 0.6416
C45 C 0.42930(17) 1.64737(16) 0.71094(9)
H33 H 0.3950 1.7370 0.6839
C46 C 0.37237(16) 0.88871(15) 0.84297(9)
H34 H 0.4044 0.9128 0.7972
C47 C 0.24038(17) 0.92995(16) 0.85060(9)
H35 H 0.1819 0.9823 0.8109
C48 C 0.64988(16) 0.63927(15) 0.86220(8)
H36 H 0.5880 0.6501 0.8255
H37 H 0.7340 0.6251 0.8399
C49 C 0.66342(16) 0.52122(16) 0.92320(9)
H38 H 0.6446 0.4527 0.9152
C50 C 0.70150(15) 0.51156(15) 0.98841(8)
H39 H 0.7088 0.4369 1.0266
C51 C 0.73243(15) 0.61655(15) 1.00149(8)
C52 C 0.80506(15) 0.81026(15) 1.02053(8)
H40 H 0.8311 0.8756 1.0265
C53 C 0.85061(15) 0.68659(15) 1.06851(8)
C54 C 1.00770(17) 0.72414(18) 1.12346(9)
H41 H 1.0504 0.7323 1.0778
H42 H 1.0726 0.6798 1.1628
H43 H 0.9508 0.8121 1.1282
C55 C 0.81244(15) 0.59026(14) 1.05934(8)
C56 C 0.98361(17) 0.38291(17) 1.09571(10)
H44 H 0.9840 0.3610 1.0503
H45 H 1.0136 0.3017 1.1347
H46 H 1.0408 0.4283 1.0934
C57 C 0.37769(17) 1.60929(16) 0.77585(9)
H47 H 0.3083 1.6730 0.7935
C58 C 0.42752(16) 1.47801(15) 0.81501(8)
H48 H 0.3917 1.4526 0.8594
C59 C 0.71170(15) 1.16257(15) 0.83941(8)
H49 H 0.7709 1.1976 0.8159
C60 C 0.75693(15) 1.03176(15) 0.88047(8)
H50 H 0.8467 0.9790 0.8848
loop_
_geom_bond_atom_site_label_1
_geom_bond_atom_site_label_2
_geom_bond_site_symmetry_1
_geom_bond_site_symmetry_2
F1 C1 1_555 1_555
O1 C23 1_555 1_555
O2 C25 1_555 1_555
C1 C2 1_555 1_555
C2 H1 1_555 1_555
C3 C2 1_555 1_555
H2 C3 1_555 1_555
C4 C3 1_555 1_555
C5 C4 1_555 1_555
H3 C5 1_555 1_555
C6 C5 1_555 1_555
C7 C6 1_555 1_555
C8 C7 1_555 1_555
C9 C8 1_555 1_555
H4 C9 1_555 1_555
C10 C9 1_555 1_555
H5 C10 1_555 1_555
C11 C10 1_555 1_555
C12 C11 1_555 1_555
C13 C12 1_555 1_555
H6 C13 1_555 1_555
C14 C13 1_555 1_555
H7 C14 1_555 1_555
C15 C14 1_555 1_555
H8 C15 1_555 1_555
C16 C4 1_555 1_555
H9 C16 1_555 1_555
C17 C1 1_555 1_555
H10 C17 1_555 1_555
C18 C5 1_555 1_555
H11 C18 1_555 1_555
H12 C18 1_555 1_555
C19 C18 1_555 1_555
H13 C19 1_555 1_555
C20 C19 1_555 1_555
H14 C20 1_555 1_555
C21 C6 1_555 1_555
C22 C7 1_555 1_555
H15 C22 1_555 1_555
C23 C22 1_555 1_555
C24 O1 1_555 1_555
H16 C24 1_555 1_555
H17 C24 1_555 1_555
H18 C24 1_555 1_555
C25 C21 1_555 1_555
C26 O2 1_555 1_555
H19 C26 1_555 1_555
H20 C26 1_555 1_555
H21 C26 1_555 1_555
C27 C15 1_555 1_555
H22 C27 1_555 1_555
C28 C12 1_555 1_555
H23 C28 1_555 1_555
C29 C11 1_555 1_555
H24 C29 1_555 1_555
C30 C8 1_555 1_555
H25 C30 1_555 1_555
F2 C31 1_555 1_555
O3 C53 1_555 1_555
O4 C55 1_555 1_555
C31 C32 1_555 1_555
C32 H26 1_555 1_555
C33 C32 1_555 1_555
H27 C33 1_555 1_555
C34 C33 1_555 1_555
C35 C34 1_555 1_555
H28 C35 1_555 1_555
C36 C35 1_555 1_555
C37 C36 1_555 1_555
C38 C37 1_555 1_555
C39 C38 1_555 1_555
H29 C39 1_555 1_555
C40 C39 1_555 1_555
H30 C40 1_555 1_555
C41 C40 1_555 1_555
C42 C41 1_555 1_555
C43 C42 1_555 1_555
H31 C43 1_555 1_555
C44 C43 1_555 1_555
H32 C44 1_555 1_555
C45 C44 1_555 1_555
H33 C45 1_555 1_555
C46 C34 1_555 1_555
H34 C46 1_555 1_555
C47 C31 1_555 1_555
H35 C47 1_555 1_555
C48 C35 1_555 1_555
H36 C48 1_555 1_555
H37 C48 1_555 1_555
C49 C48 1_555 1_555
H38 C49 1_555 1_555
C50 C49 1_555 1_555
H39 C50 1_555 1_555
C51 C36 1_555 1_555
C52 C37 1_555 1_555
H40 C52 1_555 1_555
C53 C52 1_555 1_555
C54 O3 1_555 1_555
H41 C54 1_555 1_555
H42 C54 1_555 1_555
H43 C54 1_555 1_555
C55 C51 1_555 1_555
C56 O4 1_555 1_555
H44 C56 1_555 1_555
H45 C56 1_555 1_555
H46 C56 1_555 1_555
C57 C45 1_555 1_555
H47 C57 1_555 1_555
C58 C42 1_555 1_555
H48 C58 1_555 1_555
C59 C41 1_555 1_555
H49 C59 1_555 1_555
C60 C38 1_555 1_555
H50 C60 1_555 1_555
C16 C17 1_555 1_555
C20 C21 1_555 1_555
C23 C25 1_555 1_555
C27 C28 1_555 1_555
C29 C30 1_555 1_555
C46 C47 1_555 1_555
C50 C51 1_555 1_555
C53 C55 1_555 1_555
C57 C58 1_555 1_555
C59 C60 1_555 1_555

#END
