
#######################################################################
#
#                 Cambridge Crystallographic Data Centre
#                                CCDC 
#
#######################################################################
#
# If this CIF has been generated from an entry in the Cambridge 
# Structural Database, then it will include bibliographic, chemical, 
# crystal, experimental, refinement or atomic coordinate data resulting 
# from the CCDC's data processing and validation procedures.
#
#######################################################################

data_FAWRED
_chemical_formula_moiety         'C22 H20 O3'
_chemical_name_systematic        
(6-hydroxy-4,5-dimethyl[1,1'-biphenyl]-3-yl)(2-hydroxy-5-methylphenyl)methanone
_symmetry_cell_setting           triclinic
_symmetry_space_group_name_H-M   'P -1'
_symmetry_Int_Tables_number      2
_space_group_name_Hall           '-P 1'
loop_
_symmetry_equiv_pos_site_id
_symmetry_equiv_pos_as_xyz
1 x,y,z
2 -x,-y,-z
_cell_length_a                   9.8395(17)
_cell_length_b                   10.7013(19)
_cell_length_c                   10.8636(19)
_cell_angle_alpha                114.335(2)
_cell_angle_beta                 94.477(2)
_cell_angle_gamma                116.312(2)
_cell_volume                     885.394
_exptl_crystal_colour            yellowish
_exptl_crystal_description       block
_cell_formula_units_Z            2
loop_
_atom_site_label
_atom_site_type_symbol
_atom_site_fract_x
_atom_site_fract_y
_atom_site_fract_z
O1 O 0.25004(17) 0.61583(16) 0.67394(12)
O2 O 0.22545(17) 0.45439(15) -0.16495(12)
O3 O 0.10172(17) 0.5356(2) 0.41973(14)
C1 C 0.23361(17) 0.38668(17) 0.01401(14)
C2 C 0.24223(17) 0.24412(17) -0.07874(15)
C3 C 0.22467(18) 0.49039(18) -0.02911(15)
C4 C 0.37896(19) 0.64480(18) 0.49778(15)
C5 C 0.23608(18) 0.42199(19) 0.15292(15)
C6 C 0.22594(18) 0.55124(19) 0.24468(15)
C7 C 0.3841(2) 0.66748(19) 0.63590(16)
C8 C 0.21436(19) 0.62193(18) 0.06192(16)
C9 C 0.21422(19) 0.65286(19) 0.20071(16)
C10 C 0.2277(2) 0.5753(2) 0.39156(16)
C11 C 0.5234(2) 0.6976(2) 0.46755(17)
C12 C 0.1446(2) 0.0989(2) -0.08407(18)
C13 C 0.6702(2) 0.7742(2) 0.56747(19)
C14 C 0.5312(2) 0.7481(2) 0.73849(18)
C15 C 0.3504(2) 0.2516(2) -0.1541(2)
C16 C 0.6700(2) 0.8008(2) 0.70466(19)
C17 C 0.2048(3) 0.7296(2) 0.00966(19)
H1 H 0.3086 0.7983 0.0092
H2 H 0.1693 0.7941 0.0718
H3 H 0.1305 0.6646 -0.0852
C18 C 0.1560(3) -0.0344(2) -0.1610(2)
C19 C 0.2057(3) 0.7948(3) 0.3017(2)
C20 C 0.2639(3) -0.0247(3) -0.2344(3)
C21 C 0.3611(3) 0.1183(3) -0.2309(3)
C22 C 0.8230(3) 0.8279(3) 0.5308(3)
H4 H 0.8660 0.7633 0.5319
H5 H 0.8990 0.9389 0.5995
H6 H 0.8014 0.8158 0.4375
H7 H 0.2514(19) 0.357(2) 0.1885(18)
H8 H 0.519(2) 0.679(2) 0.373(2)
H9 H 0.064(2) 0.092(2) -0.036(2)
H10 H 0.420(3) 0.354(3) -0.152(2)
H11 H 0.774(3) 0.860(3) 0.779(2)
H12 H 0.209(3) 0.804(3) 0.391(3)
H13 H 0.533(2) 0.767(2) 0.835(2)
H14 H 0.083(3) -0.133(3) -0.162(2)
H15 H 0.267(3) -0.119(3) -0.288(3)
H16 H 0.294(4) 0.894(4) 0.315(3)
H17 H 0.439(3) 0.125(3) -0.284(2)
H18 H 0.105(4) 0.789(4) 0.267(3)
H19 H 0.160(4) 0.566(4) 0.596(3)
H20 H 0.217(3) 0.520(3) -0.186(3)
loop_
_geom_bond_atom_site_label_1
_geom_bond_atom_site_label_2
_geom_bond_site_symmetry_1
_geom_bond_site_symmetry_2
O1 C7 1_555 1_555
O2 C3 1_555 1_555
O3 C10 1_555 1_555
C1 C2 1_555 1_555
C2 C12 1_555 1_555
C3 C1 1_555 1_555
C4 C7 1_555 1_555
C5 C1 1_555 1_555
C6 C5 1_555 1_555
C7 C14 1_555 1_555
C8 C3 1_555 1_555
C9 C6 1_555 1_555
C10 C4 1_555 1_555
C11 C4 1_555 1_555
C12 C18 1_555 1_555
C13 C11 1_555 1_555
C14 C16 1_555 1_555
C15 C2 1_555 1_555
C16 C13 1_555 1_555
C17 C8 1_555 1_555
H1 C17 1_555 1_555
H2 C17 1_555 1_555
H3 C17 1_555 1_555
C18 C20 1_555 1_555
C19 C9 1_555 1_555
C20 C21 1_555 1_555
C21 C15 1_555 1_555
C22 C13 1_555 1_555
H4 C22 1_555 1_555
H5 C22 1_555 1_555
H6 C22 1_555 1_555
H7 C5 1_555 1_555
H8 C11 1_555 1_555
H9 C12 1_555 1_555
H10 C15 1_555 1_555
H11 C16 1_555 1_555
H12 C19 1_555 1_555
H13 C14 1_555 1_555
H14 C18 1_555 1_555
H15 C20 1_555 1_555
H16 C19 1_555 1_555
H17 C21 1_555 1_555
H18 C19 1_555 1_555
H19 O1 1_555 1_555
H20 O2 1_555 1_555
C6 C10 1_555 1_555
C8 C9 1_555 1_555

#END
