
#######################################################################
#
#                 Cambridge Crystallographic Data Centre
#                                CCDC 
#
#######################################################################
#
# If this CIF has been generated from an entry in the Cambridge 
# Structural Database, then it will include bibliographic, chemical, 
# crystal, experimental, refinement or atomic coordinate data resulting 
# from the CCDC's data processing and validation procedures.
#
#######################################################################

data_FAWTIG
_chemical_name_common            'Fissistigine C'
_chemical_formula_moiety         'C20 H23 N1 O4'
_chemical_name_systematic        
5,6,8,14-Tetradehydro-2,3,6-trimethoxy-17-methyl-morphinan-7-one
_symmetry_cell_setting           orthorhombic
_symmetry_space_group_name_H-M   'P 21 21 21'
_symmetry_Int_Tables_number      19
_space_group_name_Hall           'P 2ac 2ab'
loop_
_symmetry_equiv_pos_site_id
_symmetry_equiv_pos_as_xyz
1 x,y,z
2 1/2+x,1/2-y,-z
3 -x,1/2+y,1/2-z
4 1/2-x,-y,1/2+z
_cell_length_a                   12.488(4)
_cell_length_b                   14.413(4)
_cell_length_c                   10.339(3)
_cell_angle_alpha                90
_cell_angle_beta                 90
_cell_angle_gamma                90
_cell_volume                     1860.91
_cell_formula_units_Z            4
loop_
_atom_site_label
_atom_site_type_symbol
_atom_site_fract_x
_atom_site_fract_y
_atom_site_fract_z
C1 C 0.8914(5) 0.5584(4) 0.7497(7)
C2 C 0.8163(5) 0.5929(4) 0.8372(6)
C3 C 0.7695(5) 0.6808(7) 0.8149(5)
C4 C 0.7987(5) 0.7321(4) 0.7073(7)
C5 C 0.8787(5) 0.6965(4) 0.6204(6)
C6 C 0.9219(5) 0.6097(4) 0.6410(6)
C7 C 0.9474(5) 0.4655(4) 0.7776(6)
C8 C 0.9774(6) 0.4151(5) 0.6557(7)
C9 C 0.9387(6) 0.3316(5) 0.6252(7)
C10 C 0.8586(6) 0.2847(5) 0.7039(8)
C11 C 0.8298(6) 0.3264(5) 0.8317(8)
C12 C 0.8708(6) 0.4092(4) 0.8634(6)
C13 C 0.8450(5) 0.4563(5) 0.9908(6)
C14 C 0.7808(5) 0.5422(5) 0.9616(6)
C15 C 1.0515(6) 0.4832(5) 0.8578(7)
C16 C 1.0261(5) 0.5277(5) 0.9897(6)
C17 C 0.9295(7) 0.5069(6) 1.1899(7)
C18 C 0.6971(6) 0.8644(5) 0.7745(9)
C19 C 0.9836(6) 0.7232(5) 0.4331(7)
C20 C 1.0500(9) 0.3170(7) 0.4399(9)
N1 N 0.9492(4) 0.4700(4) 1.0585(5)
O1 O 0.7565(4) 0.8159(3) 0.6754(5)
O2 O 0.9020(4) 0.7526(3) 0.5179(5)
O3 O 0.9649(5) 0.2820(4) 0.5153(5)
O4 O 0.8140(5) 0.2108(4) 0.6693(6)
H1 H 0.7196 0.7116 0.8801
H2 H 0.9902 0.5938 0.5926
H3 H 1.0408 0.4529 0.5927
H4 H 0.7862 0.2830 0.9083
H5 H 0.8220 0.4078 1.0524
H6 H 0.8075 0.5817 1.0370
H7 H 0.6979 0.5249 0.9635
H8 H 1.1044 0.4173 0.8850
H9 H 1.0070 0.5864 0.9824
H10 H 1.1028 0.5095 1.0428
H11 H 0.9095 0.5785 1.1604
H12 H 0.8725 0.4918 1.2168
H13 H 0.9952 0.4825 1.2340
H14 H 0.6869 0.9294 0.7203
H15 H 0.6257 0.8304 0.7935
H16 H 0.7422 0.8736 0.8693
H17 H 0.9776 0.6825 0.3742
H18 H 1.0582 0.7008 0.4764
H19 H 1.0257 0.3718 0.3988
H20 H 1.1324 0.3472 0.4593
H21 H 1.0842 0.2733 0.3626
loop_
_geom_bond_atom_site_label_1
_geom_bond_atom_site_label_2
_geom_bond_site_symmetry_1
_geom_bond_site_symmetry_2
C1 C2 1_555 1_555
C2 C3 1_555 1_555
C3 C4 1_555 1_555
C4 C5 1_555 1_555
C5 C6 1_555 1_555
C6 C1 1_555 1_555
C7 C1 1_555 1_555
C8 C7 1_555 1_555
C9 C8 1_555 1_555
C10 C9 1_555 1_555
C11 C10 1_555 1_555
C12 C7 1_555 1_555
C13 C12 1_555 1_555
C14 C2 1_555 1_555
C15 C7 1_555 1_555
C16 C15 1_555 1_555
C17 N1 1_555 1_555
C18 O1 1_555 1_555
C19 O2 1_555 1_555
C20 O3 1_555 1_555
N1 C13 1_555 1_555
O1 C4 1_555 1_555
O2 C5 1_555 1_555
O3 C9 1_555 1_555
O4 C10 1_555 1_555
H1 C3 1_555 1_555
H2 C6 1_555 1_555
H3 C8 1_555 1_555
H4 C11 1_555 1_555
H5 C13 1_555 1_555
H6 C14 1_555 1_555
H7 C14 1_555 1_555
H8 C15 1_555 1_555
H9 C16 1_555 1_555
H10 C16 1_555 1_555
H11 C17 1_555 1_555
H12 C17 1_555 1_555
H13 C17 1_555 1_555
H14 C18 1_555 1_555
H15 C18 1_555 1_555
H16 C18 1_555 1_555
H17 C19 1_555 1_555
H18 C19 1_555 1_555
H19 C20 1_555 1_555
H20 C20 1_555 1_555
H21 C20 1_555 1_555
C11 C12 1_555 1_555
C13 C14 1_555 1_555
C16 N1 1_555 1_555

#END
