
#######################################################################
#
#                 Cambridge Crystallographic Data Centre
#                                CCDC 
#
#######################################################################
#
# If this CIF has been generated from an entry in the Cambridge 
# Structural Database, then it will include bibliographic, chemical, 
# crystal, experimental, refinement or atomic coordinate data resulting 
# from the CCDC's data processing and validation procedures.
#
#######################################################################

data_FAWYUA
_chemical_formula_moiety         'C13 H20 N2 O4 S2'
_chemical_name_systematic        
2-{[2-({2-[2-(methylamino)-5-nitrophenoxy]ethyl}sulfanyl)ethyl]sulfanyl}ethan-1-ol
_symmetry_cell_setting           monoclinic
_symmetry_space_group_name_H-M   'P 21/n'
_symmetry_Int_Tables_number      14
_space_group_name_Hall           '-P 2yn'
loop_
_symmetry_equiv_pos_site_id
_symmetry_equiv_pos_as_xyz
1 x,y,z
2 1/2-x,1/2+y,1/2-z
3 -x,-y,-z
4 1/2+x,1/2-y,1/2+z
_cell_length_a                   4.8927(2)
_cell_length_b                   30.9902(11)
_cell_length_c                   20.5795(8)
_cell_angle_alpha                90
_cell_angle_beta                 95.657(2)
_cell_angle_gamma                90
_cell_volume                     3105.19
_exptl_crystal_colour            yellow
_exptl_crystal_description       needle
_cell_formula_units_Z            8
_exptl_crystal_recrystallization_method 'dichloromethane / hexane'
loop_
_atom_site_label
_atom_site_type_symbol
_atom_site_fract_x
_atom_site_fract_y
_atom_site_fract_z
S1 S 0.66915(17) 0.89448(2) 0.21410(4)
S2 S 0.28414(17) 1.02171(2) 0.24567(4)
O1 O 0.3575(5) 0.80670(6) 0.32626(9)
O2 O 0.4395(6) 1.01736(7) 0.09045(11)
H1 H 0.247(9) 1.0052(13) 0.085(2)
O3 O 0.4844(6) 0.61976(7) 0.27220(14)
O4 O 0.6568(6) 0.67109(7) 0.21901(11)
N1 N 0.0425(6) 0.78120(9) 0.41280(12)
H2 H 0.059(8) 0.8068(11) 0.4019(17)
N2 N 0.5238(6) 0.65829(9) 0.26299(13)
C1 C 0.3308(6) 0.76296(9) 0.33031(13)
C2 C 0.1558(6) 0.74993(9) 0.37794(13)
C3 C 0.1157(7) 0.70568(10) 0.38752(14)
H3 H 0.0034 0.6962 0.4198
C4 C 0.2397(7) 0.67572(10) 0.34989(15)
H4 H 0.2110 0.6457 0.3560
C5 C 0.4044(6) 0.68968(9) 0.30367(14)
C6 C 0.4545(6) 0.73324(9) 0.29348(14)
H5 H 0.5715 0.7422 0.2618
C7 C 0.5157(7) 0.82310(9) 0.27609(14)
H6 H 0.4459 0.8114 0.2329
H7 H 0.7115 0.8151 0.2853
C8 C 0.4824(6) 0.87124(9) 0.27728(14)
H8 H 0.5548 0.8827 0.3205
H9 H 0.2855 0.8789 0.2696
C9 C 0.6331(6) 0.95110(9) 0.23382(15)
H10 H 0.7058 0.9560 0.2799
H11 H 0.7439 0.9686 0.2059
C10 C 0.3355(7) 0.96600(9) 0.22405(15)
H12 H 0.2247 0.9475 0.2506
H13 H 0.2662 0.9618 0.1776
C11 C 0.5082(7) 1.05200(10) 0.19784(15)
H14 H 0.5311 1.0813 0.2168
H15 H 0.6910 1.0380 0.2023
C12 C 0.4155(8) 1.05649(10) 0.12602(15)
H16 H 0.2215 1.0660 0.1209
H17 H 0.5269 1.0791 0.1072
C13 C -0.1456(7) 0.77254(11) 0.46142(15)
H18 H -0.2105 0.7999 0.4782
H19 H -0.0508 0.7559 0.4974
H20 H -0.3026 0.7560 0.4415
S3 S 0.3579(2) 0.72489(3) 0.64387(4)
S4 S 0.6864(2) 0.63430(3) 0.50399(5)
O5 O 0.6426(5) 0.84004(7) 0.59314(10)
O6 O 0.4336(6) 0.52204(9) 0.57623(13)
H21 H 0.236(10) 0.5110(15) 0.570(3)
O7 O 0.0968(5) 0.94182(7) 0.37229(10)
O8 O -0.0147(5) 0.87695(7) 0.39853(10)
N3 N 0.9651(6) 0.90744(9) 0.61130(12)
H22 H 0.971(7) 0.8883(10) 0.6385(16)
N4 N 0.1350(6) 0.90936(9) 0.40659(12)
C14 C 0.5890(6) 0.87298(9) 0.54938(13)
C15 C 0.7719(6) 0.90879(10) 0.56047(13)
C16 C 0.7380(7) 0.94356(10) 0.51681(14)
H23 H 0.8598 0.9674 0.5223
C17 C 0.5317(7) 0.94391(10) 0.46601(14)
H24 H 0.5112 0.9677 0.4368
C18 C 0.3552(6) 0.90901(10) 0.45828(13)
C19 C 0.3836(6) 0.87327(9) 0.49989(13)
H25 H 0.2611 0.8495 0.4936
C20 C 0.4517(7) 0.80455(9) 0.58953(14)
H26 H 0.4370 0.7913 0.5456
H27 H 0.2673 0.8144 0.5990
C21 C 0.5681(7) 0.77249(10) 0.64084(16)
H28 H 0.5843 0.7867 0.6842
H29 H 0.7548 0.7639 0.6312
C22 C 0.4124(15) 0.6944(2) 0.5711(3)
H30 H 0.2445 0.6775 0.5574
H31 H 0.4426 0.7147 0.5355
C23 C 0.6459(15) 0.6649(2) 0.5805(3)
H32 H 0.6176 0.6444 0.6161
H33 H 0.8154 0.6815 0.5933
C24 C 0.6842(8) 0.58080(12) 0.53845(17)
H34 H 0.7673 0.5606 0.5088
H35 H 0.8006 0.5807 0.5806
C25 C 0.4052(7) 0.56476(11) 0.54954(16)
H36 H 0.3205 0.5840 0.5803
H37 H 0.2858 0.5642 0.5078
C26 C 1.1527(7) 0.94309(11) 0.62851(15)
H38 H 1.2768 0.9352 0.6670
H39 H 1.0471 0.9688 0.6383
H40 H 1.2601 0.9492 0.5918
C27? C 0.588(3) 0.6849(5) 0.6045(7)
H41? H 0.7687 0.6983 0.5996
H42? H 0.6187 0.6590 0.6325
C28? C 0.457(3) 0.6727(6) 0.5415(9)
H43? H 0.4248 0.6985 0.5135
H44? H 0.2774 0.6589 0.5463
loop_
_geom_bond_atom_site_label_1
_geom_bond_atom_site_label_2
_geom_bond_site_symmetry_1
_geom_bond_site_symmetry_2
S1 C8 1_555 1_555
S2 C10 1_555 1_555
O1 C1 1_555 1_555
O2 H1 1_555 1_555
O3 N2 1_555 1_555
O4 N2 1_555 1_555
N1 H2 1_555 1_555
N2 C5 1_555 1_555
C1 C2 1_555 1_555
C2 N1 1_555 1_555
C3 C2 1_555 1_555
H3 C3 1_555 1_555
C4 C3 1_555 1_555
H4 C4 1_555 1_555
C5 C4 1_555 1_555
C6 C1 1_555 1_555
H5 C6 1_555 1_555
C7 O1 1_555 1_555
H6 C7 1_555 1_555
H7 C7 1_555 1_555
C8 C7 1_555 1_555
H8 C8 1_555 1_555
H9 C8 1_555 1_555
C9 S1 1_555 1_555
H10 C9 1_555 1_555
H11 C9 1_555 1_555
C10 C9 1_555 1_555
H12 C10 1_555 1_555
H13 C10 1_555 1_555
C11 S2 1_555 1_555
H14 C11 1_555 1_555
H15 C11 1_555 1_555
C12 O2 1_555 1_555
H16 C12 1_555 1_555
H17 C12 1_555 1_555
C13 N1 1_555 1_555
H18 C13 1_555 1_555
H19 C13 1_555 1_555
H20 C13 1_555 1_555
S3 C21 1_555 1_555
S4 C23 1_555 1_555
O5 C14 1_555 1_555
O6 H21 1_555 1_555
O7 N4 1_555 1_555
O8 N4 1_555 1_555
N3 H22 1_555 1_555
N4 C18 1_555 1_555
C14 C15 1_555 1_555
C15 N3 1_555 1_555
C16 C15 1_555 1_555
H23 C16 1_555 1_555
C17 C16 1_555 1_555
H24 C17 1_555 1_555
C18 C17 1_555 1_555
C19 C14 1_555 1_555
H25 C19 1_555 1_555
C20 O5 1_555 1_555
H26 C20 1_555 1_555
H27 C20 1_555 1_555
C21 C20 1_555 1_555
H28 C21 1_555 1_555
H29 C21 1_555 1_555
C22 S3 1_555 1_555
H30 C22 1_555 1_555
H31 C22 1_555 1_555
C23 C22 1_555 1_555
H32 C23 1_555 1_555
H33 C23 1_555 1_555
C24 S4 1_555 1_555
H34 C24 1_555 1_555
H35 C24 1_555 1_555
C25 O6 1_555 1_555
H36 C25 1_555 1_555
H37 C25 1_555 1_555
C26 N3 1_555 1_555
H38 C26 1_555 1_555
H39 C26 1_555 1_555
H40 C26 1_555 1_555
C5 C6 1_555 1_555
C11 C12 1_555 1_555
C18 C19 1_555 1_555
C24 C25 1_555 1_555

#END
