
#######################################################################
#
#                 Cambridge Crystallographic Data Centre
#                                CCDC 
#
#######################################################################
#
# If this CIF has been generated from an entry in the Cambridge 
# Structural Database, then it will include bibliographic, chemical, 
# crystal, experimental, refinement or atomic coordinate data resulting 
# from the CCDC's data processing and validation procedures.
#
#######################################################################

data_FAWYOT
_chemical_formula_moiety         'C18 H16 Cl1 N1 O2'
_chemical_name_systematic        
(6-(2-Chlorophenyl)-4-hydroxy-3,4-dihydropyridin-1(2H)-yl)(phenyl)methanone
_symmetry_cell_setting           monoclinic
_symmetry_space_group_name_H-M   'P 21'
_symmetry_Int_Tables_number      4
_space_group_name_Hall           'P 2yb'
loop_
_symmetry_equiv_pos_site_id
_symmetry_equiv_pos_as_xyz
1 x,y,z
2 -x,1/2+y,-z
_cell_length_a                   8.517(3)
_cell_length_b                   8.037(2)
_cell_length_c                   11.474(3)
_cell_angle_alpha                90
_cell_angle_beta                 105.352(4)
_cell_angle_gamma                90
_cell_volume                     757.383
_exptl_crystal_colour            colorless
_exptl_crystal_description       plate
_cell_formula_units_Z            2
loop_
_atom_site_label
_atom_site_type_symbol
_atom_site_fract_x
_atom_site_fract_y
_atom_site_fract_z
Cl1 Cl 0.98713(10) 0.13642(10) 0.50937(6)
O1 O 0.8173(2) 0.6079(2) 0.81746(18)
H1 H 0.8659 0.6961 0.8087
O2 O 0.9813(2) -0.1046(2) 0.79104(18)
N1 N 1.0101(2) 0.1739(2) 0.77581(19)
C1 C 0.9344(3) 0.4837(3) 0.8732(2)
H2 H 0.9913 0.5205 0.9570
C2 C 1.0582(3) 0.4633(3) 0.8017(2)
H3 H 1.1133 0.5602 0.7863
C3 C 1.0961(3) 0.3196(3) 0.7586(2)
C4 C 0.8401(3) 0.2081(3) 0.7755(3)
H4 H 0.7837 0.1030 0.7843
H5 H 0.7816 0.2612 0.6983
C5 C 0.8417(3) 0.3231(3) 0.8801(2)
H6 H 0.8932 0.2653 0.9570
H7 H 0.7283 0.3504 0.8799
C6 C 1.2101(3) 0.3132(3) 0.6800(2)
C7 C 1.3580(3) 0.3994(4) 0.7154(2)
H8 H 1.3886 0.4501 0.7929
C8 C 1.4603(3) 0.4126(4) 0.6407(2)
H9 H 1.5589 0.4738 0.6663
C9 C 1.4195(4) 0.3370(4) 0.5284(3)
H10 H 1.4903 0.3452 0.4771
C10 C 1.2750(4) 0.2492(4) 0.4912(3)
H11 H 1.2469 0.1959 0.4146
C11 C 1.1721(3) 0.2394(3) 0.5656(2)
C12 C 1.0711(3) 0.0173(3) 0.7930(2)
C13 C 1.2516(3) -0.0053(3) 0.8225(2)
C14 C 1.3527(3) 0.0836(3) 0.9175(2)
H12 H 1.3077 0.1642 0.9600
C15 C 1.5191(3) 0.0541(4) 0.9499(2)
H13 H 1.5884 0.1148 1.0144
C16 C 1.5837(4) -0.0635(4) 0.8883(3)
H14 H 1.6977 -0.0832 0.9104
C17 C 1.4837(3) -0.1529(4) 0.7948(3)
H15 H 1.5292 -0.2338 0.7529
C18 C 1.3170(3) -0.1246(4) 0.7620(2)
H16 H 1.2480 -0.1869 0.6983
loop_
_geom_bond_atom_site_label_1
_geom_bond_atom_site_label_2
_geom_bond_site_symmetry_1
_geom_bond_site_symmetry_2
Cl1 C11 1_555 1_555
O1 H1 1_555 1_555
O2 C12 1_555 1_555
N1 C3 1_555 1_555
C1 O1 1_555 1_555
H2 C1 1_555 1_555
C2 C1 1_555 1_555
H3 C2 1_555 1_555
C3 C2 1_555 1_555
C4 N1 1_555 1_555
H4 C4 1_555 1_555
H5 C4 1_555 1_555
C5 C1 1_555 1_555
H6 C5 1_555 1_555
H7 C5 1_555 1_555
C6 C3 1_555 1_555
C7 C6 1_555 1_555
H8 C7 1_555 1_555
C8 C7 1_555 1_555
H9 C8 1_555 1_555
C9 C8 1_555 1_555
H10 C9 1_555 1_555
C10 C9 1_555 1_555
H11 C10 1_555 1_555
C11 C6 1_555 1_555
C12 N1 1_555 1_555
C13 C12 1_555 1_555
C14 C13 1_555 1_555
H12 C14 1_555 1_555
C15 C14 1_555 1_555
H13 C15 1_555 1_555
C16 C15 1_555 1_555
H14 C16 1_555 1_555
C17 C16 1_555 1_555
H15 C17 1_555 1_555
C18 C13 1_555 1_555
H16 C18 1_555 1_555
C4 C5 1_555 1_555
C10 C11 1_555 1_555
C17 C18 1_555 1_555

#END
