
#######################################################################
#
#                 Cambridge Crystallographic Data Centre
#                                CCDC 
#
#######################################################################
#
# If this CIF has been generated from an entry in the Cambridge 
# Structural Database, then it will include bibliographic, chemical, 
# crystal, experimental, refinement or atomic coordinate data resulting 
# from the CCDC's data processing and validation procedures.
#
#######################################################################

data_FAWZIP
_chemical_formula_moiety         'C34 H29 N1 O3'
_chemical_name_systematic        
4-{4-[2,2-bis(4-methoxyphenyl)-1-phenylethenyl]phenyl}-1-methylpyridin-2(1H)-one
_symmetry_cell_setting           triclinic
_symmetry_space_group_name_H-M   'P -1'
_symmetry_Int_Tables_number      2
_space_group_name_Hall           '-P 1'
loop_
_symmetry_equiv_pos_site_id
_symmetry_equiv_pos_as_xyz
1 x,y,z
2 -x,-y,-z
_cell_length_a                   9.806(2)
_cell_length_b                   10.498(2)
_cell_length_c                   25.685(5)
_cell_angle_alpha                88.718(6)
_cell_angle_beta                 87.656(6)
_cell_angle_gamma                89.387(6)
_cell_volume                     2641.1
_exptl_crystal_colour            colorless
_exptl_crystal_description       Plate
_cell_formula_units_Z            4
loop_
_atom_site_label
_atom_site_type_symbol
_atom_site_fract_x
_atom_site_fract_y
_atom_site_fract_z
O1 O 0.3002(2) 0.71965(18) -0.00714(7)
O2 O 0.7564(2) 0.9020(2) 0.30776(9)
C1 C 0.2951(4) 0.5844(3) -0.00838(12)
H1 H 0.2928 0.5580 -0.0439
H2 H 0.2146 0.5553 0.0106
H3 H 0.3745 0.5487 0.0073
C2 C 0.2983(3) 0.7734(2) 0.04116(10)
C3 C 0.3009(3) 0.9056(3) 0.04236(11)
H4 H 0.3052 0.9530 0.0113
C4 C 0.2972(3) 0.9669(2) 0.08926(11)
H5 H 0.2988 1.0554 0.0894
C5 C 0.2911(2) 0.8991(2) 0.13652(10)
C6 C 0.2914(2) 0.7666(2) 0.13466(10)
H6 H 0.2901 0.7190 0.1657
C7 C 0.2935(2) 0.7036(2) 0.08755(10)
H7 H 0.2916 0.6151 0.0872
C8 C 0.2849(2) 0.9583(2) 0.18882(10)
C9 C 0.4076(2) 0.9327(2) 0.22044(10)
C10 C 0.5348(2) 0.9765(2) 0.20190(11)
H8 H 0.5429 1.0155 0.1691
C11 C 0.6488(3) 0.9630(3) 0.23142(12)
H9 H 0.7322 0.9947 0.2187
C12 C 0.6393(3) 0.9025(2) 0.27982(11)
C13 C 0.5165(3) 0.8505(3) 0.29757(11)
H10 H 0.5107 0.8050 0.3290
C14 C 0.4016(3) 0.8671(2) 0.26793(11)
H11 H 0.3189 0.8332 0.2803
C15 C 0.7606(4) 0.8217(4) 0.35253(14)
H12 H 0.7457 0.7353 0.3430
H13 H 0.6908 0.8475 0.3775
H14 H 0.8484 0.8279 0.3675
C16 C 0.1764(2) 1.0270(2) 0.20681(10)
C17 C 0.0531(2) 1.0531(2) 0.17558(9)
C18 C -0.0116(2) 0.9610(2) 0.14698(10)
H15 H 0.0220 0.8779 0.1468
C19 C -0.1253(3) 0.9927(2) 0.11906(10)
H16 H -0.1675 0.9304 0.1004
C20 C -0.1772(3) 1.1157(3) 0.11849(10)
H17 H -0.2522 1.1367 0.0989
C21 C -0.1160(3) 1.2078(2) 0.14764(10)
H18 H -0.1508 1.2905 0.1480
C22 C -0.0033(2) 1.1761(2) 0.17601(10)
H19 H 0.0359 1.2379 0.1958
C23 C 0.1706(2) 1.0838(2) 0.25987(10)
C24 C 0.2762(2) 1.1557(2) 0.27882(11)
H20 H 0.3534 1.1719 0.2575
C25 C 0.2680(3) 1.2030(3) 0.32837(12)
H21 H 0.3399 1.2505 0.3399
C26 C 0.1548(3) 1.1815(3) 0.36167(11)
C27 C 0.0483(3) 1.1111(3) 0.34266(11)
H22 H -0.0290 1.0952 0.3639
C28 C 0.0560(3) 1.0648(2) 0.29277(10)
H23 H -0.0172 1.0198 0.2808
C29 C 0.1450(3) 1.2349(3) 0.41475(13)
C30 C 0.0875(7) 1.1674(8) 0.4546(3)
H24 H 0.0517 1.0885 0.4471
C31 C 0.0759(9) 1.2081(9) 0.5098(4)
O3 O 0.0183(7) 1.1284(10) 0.54673(18)
C32 C 0.2297(9) 1.3386(10) 0.4258(4)
H25 H 0.2890 1.3745 0.4005
C33 C 0.2203(10) 1.3825(11) 0.4743(4)
H26 H 0.2721 1.4525 0.4824
N1 N 0.1339(19) 1.3258(13) 0.5139(8)
C34 C 0.124(2) 1.3871(14) 0.5646(7)
H27 H 0.0543 1.3452 0.5858
H28 H 0.1000 1.4753 0.5599
H29 H 0.2095 1.3801 0.5814
O5 O 0.80057(18) 0.78388(18) -0.00049(7)
O6 O 1.1803(6) 0.6507(4) 0.3246(2)
O7 O 0.5253(2) 0.3174(2) 0.55948(7)
N3 N 0.6254(10) 0.1365(7) 0.5241(3)
C40 C 0.9342(3) 0.8005(3) -0.02410(11)
H36 H 0.9286 0.8545 -0.0546
H37 H 0.9716 0.7191 -0.0337
H38 H 0.9921 0.8391 0.0002
C41 C 0.7921(2) 0.7177(2) 0.04618(9)
C42 C 0.6653(2) 0.7197(2) 0.07247(10)
H39 H 0.5921 0.7617 0.0576
C43 C 0.6479(2) 0.6596(2) 0.12058(10)
H40 H 0.5629 0.6632 0.1379
C44 C 0.7543(2) 0.5937(2) 0.14380(9)
C45 C 0.8804(2) 0.5930(2) 0.11650(9)
H41 H 0.9537 0.5504 0.1312
C46 C 0.9002(2) 0.6536(2) 0.06822(9)
H42 H 0.9852 0.6511 0.0509
C47 C 0.7408(2) 0.5328(2) 0.19670(9)
C48 C 0.8582(2) 0.5563(2) 0.23056(9)
C49 C 0.9092(3) 0.6797(2) 0.23399(10)
H43 H 0.8693 0.7459 0.2152
C50 C 1.0178(3) 0.7051(3) 0.26472(12)
H44 H 1.0499 0.7879 0.2664
C51 C 1.0786(3) 0.6083(3) 0.29281(11)
C52 C 1.0324(3) 0.4855(3) 0.28974(11)
H45 H 1.0739 0.4198 0.3083
C53 C 0.9232(2) 0.4600(2) 0.25870(10)
H46 H 0.8929 0.3767 0.2567
C54 C 1.2439(4) 0.5563(4) 0.35563(17)
H47 H 1.1777 0.5197 0.3800
H48 H 1.3154 0.5942 0.3743
H49 H 1.2819 0.4909 0.3337
C55 C 0.6312(2) 0.4637(2) 0.21430(9)
C56 C 0.5142(2) 0.4286(2) 0.18207(9)
C57 C 0.5324(3) 0.3644(2) 0.13555(10)
H50 H 0.6203 0.3452 0.1230
C58 C 0.4216(3) 0.3284(3) 0.10748(11)
H51 H 0.4357 0.2852 0.0765
C59 C 0.2910(3) 0.3566(3) 0.12553(11)
H52 H 0.2168 0.3331 0.1066
C60 C 0.2704(3) 0.4198(3) 0.17177(11)
H53 H 0.1821 0.4389 0.1840
C61 C 0.3812(2) 0.4550(2) 0.20023(10)
H54 H 0.3664 0.4964 0.2316
C62 C 0.6206(2) 0.4120(2) 0.26899(9)
C63 C 0.6038(3) 0.4905(2) 0.31170(10)
H55 H 0.5935 0.5779 0.3064
C64 C 0.6020(3) 0.4405(2) 0.36211(10)
H56 H 0.5891 0.4947 0.3901
C65 C 0.6194(2) 0.3097(2) 0.37155(9)
C66 C 0.6317(3) 0.2318(2) 0.32851(10)
H57 H 0.6413 0.1442 0.3337
C67 C 0.6302(2) 0.2813(2) 0.27837(9)
H58 H 0.6355 0.2264 0.2504
C68 C 0.6235(3) 0.2549(3) 0.42524(11)
C69 C 0.6727(9) 0.1236(7) 0.4331(3)
H59 H 0.6992 0.0746 0.4046
C70 C 0.6790(10) 0.0746(8) 0.4817(2)
H60 H 0.7215 -0.0041 0.4866
C71 C 0.5754(3) 0.2658(3) 0.52022(11)
C72 C 0.5742(3) 0.3175(3) 0.46787(10)
H61 H 0.5374 0.3987 0.4629
C73 C 0.6368(13) 0.0785(11) 0.5769(4)
H62 H 0.5497 0.0461 0.5889
H63 H 0.6658 0.1418 0.6003
H64 H 0.7025 0.0100 0.5756
O4? O -0.1201(5) 1.3474(6) 0.5121(2)
N2? N 0.1163(17) 1.3647(14) 0.5107(8)
C35? C 0.2478(8) 1.2725(7) 0.4434(3)
H30? H 0.3364 1.2600 0.4300
C36? C 0.2312(11) 1.3283(9) 0.4910(4)
H31? H 0.3084 1.3403 0.5101
C37? C -0.0034(6) 1.3236(7) 0.4877(3)
C38? C 0.0088(6) 1.2694(7) 0.4378(3)
H32? H -0.0690 1.2552 0.4193
C39? C 0.1048(15) 1.4353(13) 0.5605(7)
H33? H 0.1944 1.4504 0.5726
H34? H 0.0538 1.3856 0.5862
H35? H 0.0589 1.5153 0.5547
C74? C 0.7228(18) 0.1629(17) 0.4360(6)
H65? H 0.7745 0.1276 0.4086
C75? C 0.7451(19) 0.1241(16) 0.4858(5)
H66? H 0.8088 0.0599 0.4921
N4? N 0.6747(15) 0.1787(14) 0.5267(5)
C76? C 0.700(2) 0.1256(18) 0.5803(7)
H67? H 0.7290 0.1928 0.6020
H68? H 0.7702 0.0612 0.5780
H69? H 0.6177 0.0891 0.5951
O8? O 1.203(2) 0.6079(17) 0.3150(7)
C77? C 1.1985(17) 0.6925(17) 0.3568(5)
H70? H 1.1779 0.7770 0.3441
H71? H 1.2854 0.6922 0.3727
H72? H 1.1291 0.6662 0.3821
loop_
_geom_bond_atom_site_label_1
_geom_bond_atom_site_label_2
_geom_bond_site_symmetry_1
_geom_bond_site_symmetry_2
O1 C1 1_555 1_555
O2 C12 1_555 1_555
C1 H1 1_555 1_555
H2 C1 1_555 1_555
H3 C1 1_555 1_555
C2 O1 1_555 1_555
C3 C2 1_555 1_555
H4 C3 1_555 1_555
C4 C3 1_555 1_555
H5 C4 1_555 1_555
C5 C4 1_555 1_555
C6 C5 1_555 1_555
H6 C6 1_555 1_555
C7 C2 1_555 1_555
H7 C7 1_555 1_555
C8 C5 1_555 1_555
C9 C8 1_555 1_555
C10 C9 1_555 1_555
H8 C10 1_555 1_555
C11 C10 1_555 1_555
H9 C11 1_555 1_555
C12 C11 1_555 1_555
C13 C12 1_555 1_555
H10 C13 1_555 1_555
C14 C9 1_555 1_555
H11 C14 1_555 1_555
C15 O2 1_555 1_555
H12 C15 1_555 1_555
H13 C15 1_555 1_555
H14 C15 1_555 1_555
C16 C8 1_555 1_555
C17 C16 1_555 1_555
C18 C17 1_555 1_555
H15 C18 1_555 1_555
C19 C18 1_555 1_555
H16 C19 1_555 1_555
C20 C19 1_555 1_555
H17 C20 1_555 1_555
C21 C20 1_555 1_555
H18 C21 1_555 1_555
C22 C17 1_555 1_555
H19 C22 1_555 1_555
C23 C16 1_555 1_555
C24 C23 1_555 1_555
H20 C24 1_555 1_555
C25 C24 1_555 1_555
H21 C25 1_555 1_555
C26 C25 1_555 1_555
C27 C26 1_555 1_555
H22 C27 1_555 1_555
C28 C23 1_555 1_555
H23 C28 1_555 1_555
C29 C26 1_555 1_555
C30 C29 1_555 1_555
H24 C30 1_555 1_555
C31 C30 1_555 1_555
O3 C31 1_555 1_555
C32 C29 1_555 1_555
H25 C32 1_555 1_555
C33 C32 1_555 1_555
H26 C33 1_555 1_555
N1 C31 1_555 1_555
C34 N1 1_555 1_555
H27 C34 1_555 1_555
H28 C34 1_555 1_555
H29 C34 1_555 1_555
O5 C40 1_555 1_555
O6 C51 1_555 1_555
O7 C71 1_555 1_555
N3 C70 1_555 1_555
C40 H36 1_555 1_555
H37 C40 1_555 1_555
H38 C40 1_555 1_555
C41 O5 1_555 1_555
C42 C41 1_555 1_555
H39 C42 1_555 1_555
C43 C42 1_555 1_555
H40 C43 1_555 1_555
C44 C43 1_555 1_555
C45 C44 1_555 1_555
H41 C45 1_555 1_555
C46 C41 1_555 1_555
H42 C46 1_555 1_555
C47 C44 1_555 1_555
C48 C47 1_555 1_555
C49 C48 1_555 1_555
H43 C49 1_555 1_555
C50 C49 1_555 1_555
H44 C50 1_555 1_555
C51 C50 1_555 1_555
C52 C51 1_555 1_555
H45 C52 1_555 1_555
C53 C48 1_555 1_555
H46 C53 1_555 1_555
C54 O6 1_555 1_555
H47 C54 1_555 1_555
H48 C54 1_555 1_555
H49 C54 1_555 1_555
C55 C47 1_555 1_555
C56 C55 1_555 1_555
C57 C56 1_555 1_555
H50 C57 1_555 1_555
C58 C57 1_555 1_555
H51 C58 1_555 1_555
C59 C58 1_555 1_555
H52 C59 1_555 1_555
C60 C59 1_555 1_555
H53 C60 1_555 1_555
C61 C56 1_555 1_555
H54 C61 1_555 1_555
C62 C55 1_555 1_555
C63 C62 1_555 1_555
H55 C63 1_555 1_555
C64 C63 1_555 1_555
H56 C64 1_555 1_555
C65 C64 1_555 1_555
C66 C65 1_555 1_555
H57 C66 1_555 1_555
C67 C62 1_555 1_555
H58 C67 1_555 1_555
C68 C65 1_555 1_555
C69 C68 1_555 1_555
H59 C69 1_555 1_555
C70 C69 1_555 1_555
H60 C70 1_555 1_555
C71 N3 1_555 1_555
C72 C68 1_555 1_555
H61 C72 1_555 1_555
C73 N3 1_555 1_555
H62 C73 1_555 1_555
H63 C73 1_555 1_555
H64 C73 1_555 1_555
C6 C7 1_555 1_555
C13 C14 1_555 1_555
C21 C22 1_555 1_555
C27 C28 1_555 1_555
C33 N1 1_555 1_555
C45 C46 1_555 1_555
C52 C53 1_555 1_555
C60 C61 1_555 1_555
C66 C67 1_555 1_555
C71 C72 1_555 1_555

#END
