
#######################################################################
#
#                 Cambridge Crystallographic Data Centre
#                                CCDC 
#
#######################################################################
#
# If this CIF has been generated from an entry in the Cambridge 
# Structural Database, then it will include bibliographic, chemical, 
# crystal, experimental, refinement or atomic coordinate data resulting 
# from the CCDC's data processing and validation procedures.
#
#######################################################################

data_FAXCEM
_chemical_compound_source        'Scytonema pseudohofmanni Bharadwaja'
_chemical_formula_moiety         'C57 H78 Br2 O12,4(C1 H4 O1)'
_chemical_name_systematic        
'Scytophycin C di-p-bromobenzoate methanol solvate'
_chemical_properties_biological  
'potent cytotoxic and broad-spectrum fungicidal activity'
_symmetry_cell_setting           monoclinic
_symmetry_space_group_name_H-M   'P 21'
_symmetry_Int_Tables_number      4
_space_group_name_Hall           'P 2yb'
loop_
_symmetry_equiv_pos_site_id
_symmetry_equiv_pos_as_xyz
1 x,y,z
2 -x,1/2+y,-z
_cell_length_a                   15.258(4)
_cell_length_b                   16.765(7)
_cell_length_c                   14.588(3)
_cell_angle_alpha                90
_cell_angle_beta                 111.54(2)
_cell_angle_gamma                90
_cell_volume                     3471.01
_chemical_melting_point          124-125deg.C
_cell_formula_units_Z            2
loop_
_atom_site_label
_atom_site_type_symbol
_atom_site_fract_x
_atom_site_fract_y
_atom_site_fract_z
C1 C -0.6121(16) -0.8890(17) -0.2676(16)
C2 C -0.7125(16) -0.8713(16) -0.3135(17)
C3 C -0.7768(15) -0.9269(14) -0.3500(19)
C4 C -0.8790(17) -0.9138(14) -0.3871(18)
C5 C -0.9311(18) -0.9745(17) -0.4106(22)
C6 C -1.0422(20) -0.9779(18) -0.4619(22)
C7 C -1.0848(12) -1.0595(12) -0.4353(15)
C8 C -1.0795(19) -1.0625(18) -0.3321(17)
C9 C -1.1120(19) -1.1499(19) -0.3113(25)
C10 C -1.1705(20) -1.1424(19) -0.2429(23)
C11 C -1.1313(24) -1.1825(24) -0.1540(24)
C12 C -1.0516(19) -1.2339(20) -0.1223(22)
C13 C -0.9915(16) -1.2010(15) -0.1778(17)
C14 C -0.9126(20) -1.2595(19) -0.1573(21)
C15 C -0.8346(18) -1.2239(16) -0.1917(18)
C16 C -0.7455(15) -1.1992(13) -0.1105(16)
C17 C -0.6882(16) -1.1440(15) -0.1511(18)
C18 C -0.5972(15) -1.1155(15) -0.0747(17)
C19 C -0.5497(16) -1.0454(15) -0.1058(17)
C20 C -0.5157(15) -1.0705(15) -0.1940(18)
C21 C -0.4973(18) -0.9904(14) -0.2421(17)
C22 C -0.4427(15) -1.0002(13) -0.3100(16)
C23 C -0.4126(17) -0.9224(15) -0.3379(17)
C24 C -0.3570(17) -0.8680(16) -0.2504(19)
C25 C -0.3222(18) -0.7900(16) -0.2937(20)
C26 C -0.4018(16) -0.7565(14) -0.3716(18)
C27 C -0.4595(15) -0.8114(15) -0.4528(17)
C28 C -0.5518(16) -0.7732(13) -0.5166(16)
C29 C -0.5711(16) -0.7949(15) -0.6208(20)
C30 C -0.4676(18) -0.7965(16) -0.6226(16)
C31 C -0.4164(14) -0.8408(14) -0.5311(16)
C32 C -0.3137(17) -0.8353(15) -0.5057(19)
C33 C -0.9122(18) -0.8267(18) -0.3959(23)
C34 C -0.6887(20) -1.2711(18) -0.0579(21)
C35 C -0.4290(19) -1.1241(14) -0.1630(20)
C36 C -0.4969(18) -1.0454(14) -0.4002(17)
C37 C -0.2676(18) -0.9100(17) -0.1717(21)
C38 C -0.6333(19) -0.7861(17) -0.4836(21)
C39 C -0.4641(21) -0.8317(19) -0.7118(21)
C40 C -0.8560(21) -1.2872(18) -0.3432(24)
C41 C -0.7798(17) -1.0235(17) -0.1344(20)
C42 C -0.4841(25) -0.9586(18) 0.0330(23)
C43 C -0.6904(20) -0.8822(21) -0.7303(20)
C44 C -1.2098(17) -1.0919(18) -0.5827(18)
C45 C -1.3136(15) -1.0942(16) -0.6427(16)
C46 C -1.3496(18) -1.1316(18) -0.7293(19)
C47 C -1.4397(21) -1.1324(16) -0.7817(19)
C48 C -1.4995(18) -1.0877(17) -0.7406(20)
C49 C -1.4661(16) -1.0541(15) -0.6499(15)
C50 C -1.3695(17) -1.0569(14) -0.6014(19)
C51 C -0.1959(18) -0.7407(15) -0.4461(19)
C52 C -0.1758(16) -0.6493(16) -0.4255(18)
C53 C -0.0787(18) -0.6295(19) -0.3796(20)
C54 C -0.0541(21) -0.5496(17) -0.3583(20)
C55 C -0.1352(23) -0.4995(16) -0.3881(23)
C56 C -0.2284(18) -0.5117(18) -0.4298(21)
C57 C -0.2480(17) -0.5937(18) -0.4541(21)
O1 O -0.5559(11) -0.8441(10) -0.2062(14)
O2 O -1.1828(8) -1.0570(9) -0.5002(10)
O3 O -1.0390(10) -1.2033(9) -0.2791(11)
O4 O -0.8034(13) -1.2850(12) -0.2414(13)
O5 O -0.7477(10) -1.0746(10) -0.1994(12)
O6 O -0.4675(11) -1.0175(11) -0.0268(12)
O7 O -0.5885(10) -0.9595(8) -0.2947(11)
O8 O -0.4843(10) -0.8810(10) -0.4072(11)
O9 O -0.6103(10) -0.8748(12) -0.6408(12)
O10 O -0.2850(9) -0.7529(8) -0.4967(11)
O11 O -1.1544(12) -1.1253(11) -0.6195(13)
O12 O -0.1339(10) -0.7906(10) -0.4144(3)
Br1 Br -0.1015(2) -0.3839(3) -0.3526(3)
Br2 Br -1.6330(2) -1.0916(3) -0.8167(2)
H1 H -0.734(17) -0.811(11) -0.331(19)
H2 H -0.754(10) -0.987(10) -0.345(11)
H3 H -0.910(13) -1.016(14) -0.385(20)
H4 H -1.069(16) -0.925(16) -0.435(16)
H5 H -1.055(16) -0.961(16) -0.526(19)
H6 H -1.049(16) -1.113(15) -0.439(17)
H7 H -1.122(15) -1.021(14) -0.319(15)
H8 H -1.012(13) -1.050(12) -0.277(13)
H9 H -1.147(11) -1.170(10) -0.374(11)
H10 H -1.232(17) -1.111(15) -0.262(16)
H11 H -1.152(13) -1.169(17) -0.087(15)
H12 H -1.072(15) -1.291(16) -0.143(15)
H13 H -1.017(15) -1.231(14) -0.048(15)
H14 H -0.970(12) -1.146(11) -0.152(13)
H15 H -0.885(11) -1.271(11) -0.080(12)
H16 H -0.934(13) -1.317(14) -0.190(21)
H17 H -0.867(10) -1.172(10) -0.233(11)
H18 H -0.760(13) -1.169(12) -0.056(14)
H19 H -0.673(10) -1.176(99) -0.204(11)
H20 H -0.550(12) -1.159(11) -0.054(13)
H21 H -0.609(20) -1.096(21) -0.012(21)
H22 H -0.594(11) -1.002(10) -0.128(12)
H23 H -0.561(15) -1.105(16) -0.250(16)
H24 H -0.457(10) -0.9503(98) -0.185(10)
H25 H -0.3812(96) -1.0325(92) -0.271(10)
H26 H -0.364(14) -0.935(13) -0.368(14)
H27 H -0.405(14) -0.852(13) -0.221(14)
H28 H -0.294(14) -0.749(14) -0.235(15)
H29 H -0.270(13) -0.798(13) -0.318(14)
H30 H -0.446(13) -0.733(13) -0.340(14)
H31 H -0.378(12) -0.710(12) -0.411(12)
H32 H -0.5483(91) -0.7142(91) -0.5202(99)
H33 H -0.619(13) -0.760(13) -0.668(14)
H34 H -0.440(16) -0.740(17) -0.621(18)
H35 H -0.428(20) -0.896(21) -0.536(21)
H36 H -0.295(11) -0.863(10) -0.558(12)
H37 H -0.280(16) -0.864(15) -0.440(17)
H38 H -0.890(19) -0.797(12) -0.333(19)
H39 H -0.986(15) -0.823(15) -0.426(16)
H40 H -0.891(16) -0.794(15) -0.448(17)
H41 H -0.726(19) -1.305(19) -0.027(20)
H42 H -0.662(12) -1.253(12) -0.007(13)
H43 H -0.671(15) -1.295(16) -0.103(17)
H44 H -0.371(14) -1.103(14) -0.100(15)
H45 H -0.406(18) -1.138(18) -0.222(20)
H46 H -0.440(11) -1.171(11) -0.133(12)
H47 H -0.516(17) -1.101(11) -0.384(11)
H48 H -0.460(16) -1.053(15) -0.447(10)
H49 H -0.559(13) -1.012(12) -0.441(14)
H50 H -0.224(16) -0.930(15) -0.206(17)
H51 H -0.293(17) -0.958(17) -0.147(18)
H52 H -0.233(16) -0.870(13) -0.116(21)
H53 H -0.641(18) -0.846(12) -0.480(13)
H54 H -0.690(18) -0.759(11) -0.525(12)
H55 H -0.609(11) -0.763(11) -0.411(13)
H56 H -0.395(17) -0.837(17) -0.701(18)
H57 H -0.499(14) -0.796(14) -0.769(15)
H58 H -0.494(13) -0.886(13) -0.719(13)
H59 H -0.927(23) -1.293(23) -0.357(24)
H60 H -0.834(14) -1.329(13) -0.379(15)
H61 H -0.851(17) -1.229(17) -0.376(18)
H62 H -0.820(20) -1.055(15) -0.100(15)
H63 H -0.819(15) -0.975(15) -0.170(21)
H64 H -0.723(19) -1.000(18) -0.074(20)
H65 H -0.515(18) -0.906(15) -0.009(19)
H66 H -0.423(15) -0.938(14) 0.086(15)
H67 H -0.529(16) -0.977(14) 0.065(16)
H68 H -0.744(17) -0.844(18) -0.729(19)
H69 H -0.715(19) -0.938(19) -0.741(20)
H70 H -0.673(15) -0.864(14) -0.791(15)
H71 H -1.297(16) -1.154(16) -0.755(17)
H72 H -1.472(12) -1.165(12) -0.846(13)
H73 H -1.508(17) -1.025(17) -0.618(17)
H74 H -1.341(12) -1.033(12) -0.532(13)
H75 H -0.025(19) -0.673(20) -0.365(21)
H76 H 0.011(14) -0.531(13) -0.320(15)
H77 H -0.278(14) -0.465(13) -0.452(14)
H78 H -0.315(15) -0.611(15) -0.494(16)
loop_
_geom_bond_atom_site_label_1
_geom_bond_atom_site_label_2
_geom_bond_site_symmetry_1
_geom_bond_site_symmetry_2
C1 C2 1_555 1_555
C2 C3 1_555 1_555
C3 C4 1_555 1_555
C4 C5 1_555 1_555
C5 C6 1_555 1_555
C6 C7 1_555 1_555
C7 C8 1_555 1_555
C8 C9 1_555 1_555
C9 C10 1_555 1_555
C10 C11 1_555 1_555
C11 C12 1_555 1_555
C12 C13 1_555 1_555
C13 C14 1_555 1_555
C14 C15 1_555 1_555
C15 C16 1_555 1_555
C16 C17 1_555 1_555
C17 C18 1_555 1_555
C18 C19 1_555 1_555
C19 C20 1_555 1_555
C20 C21 1_555 1_555
C21 C22 1_555 1_555
C22 C23 1_555 1_555
C23 C24 1_555 1_555
C24 C25 1_555 1_555
C25 C26 1_555 1_555
C26 C27 1_555 1_555
C27 C28 1_555 1_555
C28 C29 1_555 1_555
C29 C30 1_555 1_555
C30 C31 1_555 1_555
C31 C27 1_555 1_555
C32 C31 1_555 1_555
C33 C4 1_555 1_555
C34 C16 1_555 1_555
C35 C20 1_555 1_555
C36 C22 1_555 1_555
C37 C24 1_555 1_555
C38 C28 1_555 1_555
C39 C30 1_555 1_555
C40 O4 1_555 1_555
C41 O5 1_555 1_555
C42 O6 1_555 1_555
C43 O9 1_555 1_555
C44 C45 1_555 1_555
C45 C46 1_555 1_555
C46 C47 1_555 1_555
C47 C48 1_555 1_555
C48 C49 1_555 1_555
C49 C50 1_555 1_555
C50 C45 1_555 1_555
C51 C52 1_555 1_555
C52 C53 1_555 1_555
C53 C54 1_555 1_555
C54 C55 1_555 1_555
C55 C56 1_555 1_555
C56 C57 1_555 1_555
C57 C52 1_555 1_555
O1 C1 1_555 1_555
O2 C7 1_555 1_555
O3 C9 1_555 1_555
O4 C15 1_555 1_555
O5 C17 1_555 1_555
O6 C19 1_555 1_555
O7 C1 1_555 1_555
O8 C23 1_555 1_555
O9 C29 1_555 1_555
O10 C32 1_555 1_555
O11 C44 1_555 1_555
O12 C51 1_555 1_555
Br1 C55 1_555 1_555
Br2 C48 1_555 1_555
H1 C2 1_555 1_555
H2 C3 1_555 1_555
H3 C5 1_555 1_555
H4 C6 1_555 1_555
H5 C6 1_555 1_555
H6 C7 1_555 1_555
H7 C8 1_555 1_555
H8 C8 1_555 1_555
H9 C9 1_555 1_555
H10 C10 1_555 1_555
H11 C11 1_555 1_555
H12 C12 1_555 1_555
H13 C12 1_555 1_555
H14 C13 1_555 1_555
H15 C14 1_555 1_555
H16 C14 1_555 1_555
H17 C15 1_555 1_555
H18 C16 1_555 1_555
H19 C17 1_555 1_555
H20 C18 1_555 1_555
H21 C18 1_555 1_555
H22 C19 1_555 1_555
H23 C20 1_555 1_555
H24 C21 1_555 1_555
H25 C22 1_555 1_555
H26 C23 1_555 1_555
H27 C24 1_555 1_555
H28 C25 1_555 1_555
H29 C25 1_555 1_555
H30 C26 1_555 1_555
H31 C26 1_555 1_555
H32 C28 1_555 1_555
H33 C29 1_555 1_555
H34 C30 1_555 1_555
H35 C31 1_555 1_555
H36 C32 1_555 1_555
H37 C32 1_555 1_555
H38 C33 1_555 1_555
H39 C33 1_555 1_555
H40 C33 1_555 1_555
H41 C34 1_555 1_555
H42 C34 1_555 1_555
H43 C34 1_555 1_555
H44 C35 1_555 1_555
H45 C35 1_555 1_555
H46 C35 1_555 1_555
H47 C36 1_555 1_555
H48 C36 1_555 1_555
H49 C36 1_555 1_555
H50 C37 1_555 1_555
H51 C37 1_555 1_555
H52 C37 1_555 1_555
H53 C38 1_555 1_555
H54 C38 1_555 1_555
H55 C38 1_555 1_555
H56 C39 1_555 1_555
H57 C39 1_555 1_555
H58 C39 1_555 1_555
H59 C40 1_555 1_555
H60 C40 1_555 1_555
H61 C40 1_555 1_555
H62 C41 1_555 1_555
H63 C41 1_555 1_555
H64 C41 1_555 1_555
H65 C42 1_555 1_555
H66 C42 1_555 1_555
H67 C42 1_555 1_555
H68 C43 1_555 1_555
H69 C43 1_555 1_555
H70 C43 1_555 1_555
H71 C46 1_555 1_555
H72 C47 1_555 1_555
H73 C49 1_555 1_555
H74 C50 1_555 1_555
H75 C53 1_555 1_555
H76 C54 1_555 1_555
H77 C56 1_555 1_555
H78 C57 1_555 1_555
C13 O3 1_555 1_555
C21 O7 1_555 1_555
C27 O8 1_555 1_555
C44 O2 1_555 1_555
C51 O10 1_555 1_555

#END
