
#######################################################################
#
#                 Cambridge Crystallographic Data Centre
#                                CCDC 
#
#######################################################################
#
# If this CIF has been generated from an entry in the Cambridge 
# Structural Database, then it will include bibliographic, chemical, 
# crystal, experimental, refinement or atomic coordinate data resulting 
# from the CCDC's data processing and validation procedures.
#
#######################################################################

data_FAXCUE
_chemical_formula_moiety         'C33 H77 Ca3 N12 1+,C18 H17 Si1 1-,2(C4 H8 O1)'
_chemical_name_systematic        
'bis(\m~2~-Hydrido)-tris(\m~2~-4,7,10-trimethyl-1,4,7,10-tetraazacyclododecanyl)-tri-calcium dihydrotriphenylsilylide tetrahydrofuran solvate'
_symmetry_cell_setting           monoclinic
_symmetry_space_group_name_H-M   'C c'
_symmetry_Int_Tables_number      9
_space_group_name_Hall           'C -2yc'
loop_
_symmetry_equiv_pos_site_id
_symmetry_equiv_pos_as_xyz
1 x,y,z
2 x,-y,1/2+z
3 1/2+x,1/2+y,z
4 1/2+x,1/2-y,1/2+z
_cell_length_a                   16.304(5)
_cell_length_b                   27.730(4)
_cell_length_c                   15.267(4)
_cell_angle_alpha                90
_cell_angle_beta                 109.26(2)
_cell_angle_gamma                90
_cell_volume                     6516.05
_exptl_crystal_colour            yellow
_exptl_crystal_description       plate
_cell_formula_units_Z            4
loop_
_atom_site_label
_atom_site_type_symbol
_atom_site_fract_x
_atom_site_fract_y
_atom_site_fract_z
Ca1 Ca 0.03498(12) 0.37801(6) 0.69103(13)
Ca2 Ca -0.11824(12) 0.29300(6) 0.66559(13)
Ca3 Ca -0.16933(12) 0.40990(7) 0.66875(14)
H1 H -0.063(5) 0.363(3) 0.741(6)
H2 H -0.102(5) 0.353(3) 0.585(6)
N1 N -0.0376(5) 0.4566(3) 0.6882(5)
N2 N 0.0533(5) 0.4268(3) 0.5526(6)
N3 N 0.1987(5) 0.3896(3) 0.7142(6)
N4 N 0.1151(5) 0.4187(3) 0.8485(5)
N5 N 0.0356(5) 0.2902(2) 0.6784(6)
N6 N -0.1102(5) 0.2478(3) 0.5184(5)
N7 N -0.1825(6) 0.2063(2) 0.6558(6)
N8 N -0.0381(5) 0.2465(3) 0.8171(6)
N9 N -0.2523(5) 0.3337(2) 0.6534(5)
N10 N -0.2317(5) 0.4089(3) 0.8085(7)
N11 N -0.2677(6) 0.4844(3) 0.6602(8)
N12 N -0.2902(5) 0.4128(3) 0.5096(5)
C1 C -0.0191(9) 0.4888(4) 0.6241(9)
H3 H 0.0361 0.5057 0.6567
H4 H -0.0655 0.5135 0.6055
C2 C -0.0117(9) 0.4669(4) 0.5406(8)
H5 H 0.0030 0.4926 0.5034
H6 H -0.0695 0.4542 0.5038
C3 C 0.1416(8) 0.4420(5) 0.5771(9)
H7 H 0.1533 0.4507 0.5195
H8 H 0.1488 0.4717 0.6150
C4 C 0.2047(8) 0.4085(5) 0.6262(8)
H9 H 0.2625 0.4237 0.6396
H10 H 0.2024 0.3807 0.5848
C5 C 0.2399(8) 0.4218(5) 0.7928(8)
H11 H 0.3030 0.4149 0.8158
H12 H 0.2324 0.4554 0.7699
C6 C 0.2081(7) 0.4184(5) 0.8684(9)
H13 H 0.2328 0.4456 0.9109
H14 H 0.2312 0.3883 0.9025
C7 C 0.0816(10) 0.4689(4) 0.8379(9)
H15 H 0.0895 0.4815 0.9008
H16 H 0.1191 0.4884 0.8121
C8 C -0.0055(7) 0.4774(4) 0.7828(9)
H17 H -0.0140 0.5128 0.7769
H18 H -0.0432 0.4653 0.8172
C9 C 0.0239(9) 0.4010(4) 0.4632(8)
H19 H 0.0280 0.4225 0.4138
H20 H -0.0366 0.3908 0.4497
H21 H 0.0606 0.3726 0.4667
C10 C 0.2417(7) 0.3419(4) 0.7306(9)
H22 H 0.2987 0.3443 0.7223
H23 H 0.2057 0.3185 0.6862
H24 H 0.2491 0.3312 0.7939
C11 C 0.0975(8) 0.3950(4) 0.9293(7)
H25 H 0.1163 0.4165 0.9833
H26 H 0.1297 0.3646 0.9442
H27 H 0.0352 0.3886 0.9131
C12 C 0.0386(9) 0.2752(5) 0.5882(11)
H28 H 0.0335 0.3049 0.5509
H29 H 0.0977 0.2623 0.5987
C13 C -0.0197(9) 0.2416(6) 0.5314(9)
H30 H -0.0024 0.2091 0.5578
H31 H -0.0124 0.2422 0.4695
C14 C -0.1558(11) 0.2001(4) 0.5056(9)
H32 H -0.2156 0.2046 0.4620
H33 H -0.1257 0.1777 0.4760
C15 C -0.1609(9) 0.1786(5) 0.5861(10)
H34 H -0.1041 0.1630 0.6173
H35 H -0.2043 0.1523 0.5664
C16 C -0.1426(9) 0.1853(4) 0.7498(10)
H36 H -0.1809 0.1942 0.7858
H37 H -0.1470 0.1498 0.7420
C17 C -0.0636(9) 0.1943(4) 0.8029(10)
H38 H -0.0233 0.1779 0.7763
H39 H -0.0552 0.1797 0.8644
C18 C 0.0539(8) 0.2511(5) 0.8299(9)
C19 C 0.0775(10) 0.2516(8) 0.7409(14)
H40 H 0.1413 0.2551 0.7574
H41 H 0.0608 0.2204 0.7085
C20 C -0.1509(8) 0.2750(4) 0.4325(7)
H42 H -0.1221 0.3063 0.4365
H43 H -0.2126 0.2800 0.4240
H44 H -0.1453 0.2568 0.3797
C21 C -0.2775(7) 0.2082(4) 0.6364(10)
H45 H -0.3035 0.2312 0.5862
H46 H -0.2896 0.2185 0.6924
H47 H -0.3025 0.1761 0.6178
C22 C -0.0497(9) 0.2650(5) 0.9005(7)
H48 H -0.0125 0.2470 0.9542
H49 H -0.1106 0.2614 0.8965
H50 H -0.0337 0.2992 0.9075
C23 C -0.2770(10) 0.3269(4) 0.7346(10)
H51 H -0.2319 0.3064 0.7779
H52 H -0.3314 0.3079 0.7154
C24 C -0.2906(11) 0.3678(5) 0.7876(10)
H53 H -0.2921 0.3551 0.8476
H54 H -0.3494 0.3805 0.7542
C25 C -0.2795(9) 0.4553(6) 0.8067(12)
H55 H -0.3252 0.4490 0.8348
H56 H -0.2381 0.4785 0.8475
C26 C -0.3189(11) 0.4779(5) 0.7211(11)
H57 H -0.3389 0.5101 0.7334
H58 H -0.3713 0.4591 0.6869
C27 C -0.3283(9) 0.4888(5) 0.5662(10)
H59 H -0.3792 0.5076 0.5684
H60 H -0.2998 0.5076 0.5292
C28 C -0.3584(12) 0.4452(7) 0.5195(14)
H61 H -0.3991 0.4528 0.4569
H62 H -0.3917 0.4277 0.5533
C29 C -0.3171(12) 0.3622(6) 0.4908(10)
H63 H -0.2727 0.3447 0.4721
H64 H -0.3723 0.3610 0.4381
C30 C -0.3299(8) 0.3363(4) 0.5751(9)
H65 H -0.3750 0.3534 0.5935
H66 H -0.3512 0.3031 0.5565
C31 C -0.1669(8) 0.4027(5) 0.8979(8)
H67 H -0.1953 0.3983 0.9448
H68 H -0.1296 0.4313 0.9131
H69 H -0.1316 0.3743 0.8969
C32 C -0.2128(11) 0.5267(7) 0.6980(17)
H70 H -0.1670 0.5290 0.6697
H71 H -0.1864 0.5233 0.7653
H72 H -0.2485 0.5559 0.6839
C33 C -0.2506(13) 0.4266(9) 0.4428(15)
H73 H -0.2939 0.4255 0.3806
H74 H -0.2031 0.4043 0.4458
H75 H -0.2275 0.4594 0.4562
Si1 Si 0.9207(2) 0.97707(13) 0.1838(2)
H76 H 0.859(6) 0.970(3) 0.078(6)
H77 H 0.981(6) 0.975(3) 0.292(6)
C34 C 0.9902(7) 0.9324(4) 0.1419(9)
C35 C 0.9819(9) 0.9269(5) 0.0508(9)
H78 H 0.9377 0.9440 0.0049
C36 C 1.0403(11) 0.8947(5) 0.0224(11)
H79 H 1.0346 0.8907 -0.0411
C37 C 1.1028(10) 0.8708(6) 0.0900(12)
H80 H 1.1421 0.8510 0.0721
C38 C 1.1122(9) 0.8736(4) 0.1806(10)
H81 H 1.1547 0.8553 0.2259
C39 C 1.0564(7) 0.9048(4) 0.2042(9)
H82 H 1.0636 0.9077 0.2683
C40 C 0.8291(6) 0.9553(4) 0.2283(7)
C41 C 0.8415(7) 0.9511(4) 0.3247(7)
H83 H 0.8963 0.9589 0.3688
C42 C 0.7764(7) 0.9360(4) 0.3543(7)
H84 H 0.7851 0.9356 0.4189
C43 C 0.6975(7) 0.9213(3) 0.2929(7)
H85 H 0.6537 0.9085 0.3147
C44 C 0.6834(7) 0.9256(4) 0.1968(8)
H86 H 0.6288 0.9172 0.1528
C45 C 0.7486(7) 0.9417(3) 0.1684(7)
H87 H 0.7386 0.9439 0.1036
C46 C 0.9414(7) 1.0449(4) 0.1763(8)
C47 C 0.9663(7) 1.0747(5) 0.2569(10)
H88 H 0.9761 1.0603 0.3159
C48 C 0.9764(7) 1.1235(4) 0.2516(9)
H89 H 0.9914 1.1427 0.3061
C49 C 0.9649(8) 1.1446(5) 0.1669(14)
H90 H 0.9701 1.1786 0.1628
C50 C 0.9452(8) 1.1160(6) 0.0855(12)
H91 H 0.9419 1.1298 0.0274
C51 C 0.9312(7) 1.0676(5) 0.0935(9)
H92 H 0.9133 1.0488 0.0385
O1 O 0.7377(12) 0.2687(5) 0.9766(12)
C52 C 0.6609(13) 0.2481(8) 0.9033(16)
H93 H 0.6162 0.2371 0.9296
H94 H 0.6348 0.2720 0.8537
C53 C 0.6988(16) 0.2068(7) 0.8676(12)
H95 H 0.7356 0.2178 0.8313
H96 H 0.6532 0.1848 0.8293
C54 C 0.7525(16) 0.1834(6) 0.9588(15)
H97 H 0.7151 0.1649 0.9864
H98 H 0.7971 0.1616 0.9498
C55 C 0.7937(14) 0.2260(8) 1.0186(15)
H99 H 0.7953 0.2208 1.0834
H100 H 0.8538 0.2310 1.0185
O2 O 0.897(2) 0.6514(12) 0.720(2)
C56 C 0.911(3) 0.6294(13) 0.638(3)
H101 H 0.8551 0.6203 0.5910
H102 H 0.9486 0.6005 0.6558
C57 C 0.956(3) 0.6702(16) 0.604(2)
H103 H 0.9153 0.6971 0.5767
H104 H 0.9828 0.6587 0.5587
C58 C 1.024(2) 0.6842(16) 0.698(3)
H105 H 1.0706 0.6597 0.7193
H106 H 1.0503 0.7161 0.6951
C59 C 0.967(3) 0.6853(15) 0.760(2)
H107 H 1.0013 0.6758 0.8240
H108 H 0.9439 0.7182 0.7611
H109? H 0.0799 0.2657 0.8921
H110? H 0.0762 0.2176 0.8352
H111? H 0.1341 0.2501 0.7747
H112? H 0.1178 0.3004 0.8158
C60? C 0.086(2) 0.2727(18) 0.780(3)
H113? H 0.1339 0.2522 0.7754
H114? H 0.1131 0.3018 0.8149
H115? H -0.405(17) 0.449(10) 0.380(18)
H116? H -0.478(16) 0.422(10) 0.561(18)
H117? H -0.3975 0.4479 0.4581
H118? H -0.3152 0.4730 0.4428
H119? H -0.4121 0.3881 0.4985
H120? H -0.3668 0.3571 0.4389
H121? H -0.1557 0.5239 0.6746
H122? H -0.2362 0.5573 0.6733
H123? H -0.2314 0.5346 0.5787
H124? H -0.2967 0.4203 0.3634
H125? H -0.2353 0.3763 0.4128
H126? H -0.2007 0.4306 0.4327
C61? C -0.335(2) 0.4556(13) 0.489(3)
C62? C -0.357(3) 0.3733(13) 0.499(2)
C63? C -0.218(2) 0.5291(12) 0.645(3)
C64? C -0.252(3) 0.410(2) 0.420(3)
C65? C 0.636(3) 0.2255(15) 0.880(2)
C66? C 0.679(3) 0.1860(10) 0.946(3)
C67? C 0.769(2) 0.2094(14) 0.996(3)
C68? C 0.738(3) 0.2593(13) 1.017(3)
C69? C 0.857(2) 0.6449(13) 0.624(2)
C70? C 0.961(3) 0.6361(9) 0.694(3)
C71? C 0.956(2) 0.6390(12) 0.651(3)
C72? C 0.911(3) 0.6674(13) 0.741(3)
C73? C 0.984(2) 0.6922(14) 0.669(3)
C74? C 0.963(3) 0.7145(12) 0.753(3)
C75? C 0.921(2) 0.7125(11) 0.713(3)
C76? C 0.970(3) 0.7190(10) 0.657(3)
H127? H -0.3778 0.3351 0.6016
H128? H -0.3325 0.3052 0.5423
H129? H 0.6544 0.2247 0.8242
H130? H 0.5724 0.2226 0.8607
H131? H 0.6850 0.1562 0.9128
H132? H 0.6478 0.1788 0.9898
H133? H 0.8020 0.1918 1.0533
H134? H 0.8051 0.2119 0.9549
H135? H 0.7185 0.2577 1.0721
H136? H 0.7852 0.2836 1.0290
H137? H 0.8482 0.6097 0.6282
H138? H 0.8041 0.6588 0.5780
H139? H 1.0096 0.6196 0.7405
H140? H 0.9219 0.6115 0.6542
H141? H 0.9455 0.6427 0.5837
H142? H 1.0057 0.6174 0.6805
H143? H 0.9127 0.6538 0.8013
H144? H 0.8499 0.6719 0.7011
H145? H 1.0443 0.6949 0.7111
H146? H 0.9784 0.7090 0.6098
H147? H 0.9304 0.7419 0.7678
H148? H 1.0203 0.7116 0.8016
H149? H 0.9510 0.7190 0.7792
H150? H 0.8958 0.7431 0.6819
H151? H 0.9139 0.7293 0.6114
H152? H 1.0156 0.7424 0.6567
O3? O 0.666(2) 0.2708(10) 0.933(2)
O4? O 0.8528(17) 0.6772(12) 0.701(2)
O5? O 0.993(2) 0.6694(11) 0.637(2)
loop_
_geom_bond_atom_site_label_1
_geom_bond_atom_site_label_2
_geom_bond_site_symmetry_1
_geom_bond_site_symmetry_2
Ca1 H1 1_555 1_555
Ca2 H1 1_555 1_555
Ca3 H1 1_555 1_555
H2 Ca1 1_555 1_555
N1 Ca1 1_555 1_555
N2 Ca1 1_555 1_555
N3 Ca1 1_555 1_555
N4 Ca1 1_555 1_555
N5 Ca1 1_555 1_555
N6 Ca2 1_555 1_555
N7 Ca2 1_555 1_555
N8 Ca2 1_555 1_555
N9 Ca2 1_555 1_555
N10 Ca3 1_555 1_555
N11 Ca3 1_555 1_555
N12 Ca3 1_555 1_555
C1 N1 1_555 1_555
H3 C1 1_555 1_555
H4 C1 1_555 1_555
C2 N2 1_555 1_555
H5 C2 1_555 1_555
H6 C2 1_555 1_555
C3 N2 1_555 1_555
H7 C3 1_555 1_555
H8 C3 1_555 1_555
C4 N3 1_555 1_555
H9 C4 1_555 1_555
H10 C4 1_555 1_555
C5 N3 1_555 1_555
H11 C5 1_555 1_555
H12 C5 1_555 1_555
C6 N4 1_555 1_555
H13 C6 1_555 1_555
H14 C6 1_555 1_555
C7 N4 1_555 1_555
H15 C7 1_555 1_555
H16 C7 1_555 1_555
C8 N1 1_555 1_555
H17 C8 1_555 1_555
H18 C8 1_555 1_555
C9 N2 1_555 1_555
H19 C9 1_555 1_555
H20 C9 1_555 1_555
H21 C9 1_555 1_555
C10 N3 1_555 1_555
H22 C10 1_555 1_555
H23 C10 1_555 1_555
H24 C10 1_555 1_555
C11 N4 1_555 1_555
H25 C11 1_555 1_555
H26 C11 1_555 1_555
H27 C11 1_555 1_555
C12 N5 1_555 1_555
H28 C12 1_555 1_555
H29 C12 1_555 1_555
C13 N6 1_555 1_555
H30 C13 1_555 1_555
H31 C13 1_555 1_555
C14 N6 1_555 1_555
H32 C14 1_555 1_555
H33 C14 1_555 1_555
C15 N7 1_555 1_555
H34 C15 1_555 1_555
H35 C15 1_555 1_555
C16 N7 1_555 1_555
H36 C16 1_555 1_555
H37 C16 1_555 1_555
C17 N8 1_555 1_555
H38 C17 1_555 1_555
H39 C17 1_555 1_555
C18 N8 1_555 1_555
C19 N5 1_555 1_555
H40 C19 1_555 1_555
H41 C19 1_555 1_555
C20 N6 1_555 1_555
H42 C20 1_555 1_555
H43 C20 1_555 1_555
H44 C20 1_555 1_555
C21 N7 1_555 1_555
H45 C21 1_555 1_555
H46 C21 1_555 1_555
H47 C21 1_555 1_555
C22 N8 1_555 1_555
H48 C22 1_555 1_555
H49 C22 1_555 1_555
H50 C22 1_555 1_555
C23 N9 1_555 1_555
H51 C23 1_555 1_555
H52 C23 1_555 1_555
C24 N10 1_555 1_555
H53 C24 1_555 1_555
H54 C24 1_555 1_555
C25 N10 1_555 1_555
H55 C25 1_555 1_555
H56 C25 1_555 1_555
C26 N11 1_555 1_555
H57 C26 1_555 1_555
H58 C26 1_555 1_555
C27 N11 1_555 1_555
H59 C27 1_555 1_555
H60 C27 1_555 1_555
C28 N12 1_555 1_555
H61 C28 1_555 1_555
H62 C28 1_555 1_555
C29 N12 1_555 1_555
H63 C29 1_555 1_555
H64 C29 1_555 1_555
C30 N9 1_555 1_555
H65 C30 1_555 1_555
H66 C30 1_555 1_555
C31 N10 1_555 1_555
H67 C31 1_555 1_555
H68 C31 1_555 1_555
H69 C31 1_555 1_555
C32 N11 1_555 1_555
H70 C32 1_555 1_555
H71 C32 1_555 1_555
H72 C32 1_555 1_555
C33 N12 1_555 1_555
H73 C33 1_555 1_555
H74 C33 1_555 1_555
H75 C33 1_555 1_555
Si1 H76 1_555 1_555
H77 Si1 1_555 1_555
C34 Si1 1_555 1_555
C35 C34 1_555 1_555
H78 C35 1_555 1_555
C36 C35 1_555 1_555
H79 C36 1_555 1_555
C37 C36 1_555 1_555
H80 C37 1_555 1_555
C38 C37 1_555 1_555
H81 C38 1_555 1_555
C39 C34 1_555 1_555
H82 C39 1_555 1_555
C40 Si1 1_555 1_555
C41 C40 1_555 1_555
H83 C41 1_555 1_555
C42 C41 1_555 1_555
H84 C42 1_555 1_555
C43 C42 1_555 1_555
H85 C43 1_555 1_555
C44 C43 1_555 1_555
H86 C44 1_555 1_555
C45 C40 1_555 1_555
H87 C45 1_555 1_555
C46 Si1 1_555 1_555
C47 C46 1_555 1_555
H88 C47 1_555 1_555
C48 C47 1_555 1_555
H89 C48 1_555 1_555
C49 C48 1_555 1_555
H90 C49 1_555 1_555
C50 C49 1_555 1_555
H91 C50 1_555 1_555
C51 C46 1_555 1_555
H92 C51 1_555 1_555
O1 C52 1_555 1_555
C52 H93 1_555 1_555
H94 C52 1_555 1_555
C53 C52 1_555 1_555
H95 C53 1_555 1_555
H96 C53 1_555 1_555
C54 C53 1_555 1_555
H97 C54 1_555 1_555
H98 C54 1_555 1_555
C55 O1 1_555 1_555
H99 C55 1_555 1_555
H100 C55 1_555 1_555
O2 C56 1_555 1_555
C56 H101 1_555 1_555
H102 C56 1_555 1_555
C57 C56 1_555 1_555
H103 C57 1_555 1_555
H104 C57 1_555 1_555
C58 C57 1_555 1_555
H105 C58 1_555 1_555
H106 C58 1_555 1_555
C59 O2 1_555 1_555
H107 C59 1_555 1_555
H108 C59 1_555 1_555
Ca2 H2 1_555 1_555
Ca2 N5 1_555 1_555
Ca3 H2 1_555 1_555
Ca3 N1 1_555 1_555
Ca3 N9 1_555 1_555
C1 C2 1_555 1_555
C3 C4 1_555 1_555
C5 C6 1_555 1_555
C7 C8 1_555 1_555
C12 C13 1_555 1_555
C14 C15 1_555 1_555
C16 C17 1_555 1_555
C18 C19 1_555 1_555
C23 C24 1_555 1_555
C25 C26 1_555 1_555
C27 C28 1_555 1_555
C29 C30 1_555 1_555
C38 C39 1_555 1_555
C44 C45 1_555 1_555
C50 C51 1_555 1_555
C54 C55 1_555 1_555
C58 C59 1_555 1_555

#END
