
#######################################################################
#
#                 Cambridge Crystallographic Data Centre
#                                CCDC 
#
#######################################################################
#
# If this CIF has been generated from an entry in the Cambridge 
# Structural Database, then it will include bibliographic, chemical, 
# crystal, experimental, refinement or atomic coordinate data resulting 
# from the CCDC's data processing and validation procedures.
#
#######################################################################

data_FAXDAL
_chemical_formula_moiety         'C33 H77 Ca3 N12 1+,C19 H17 Si1 1-,C4 H8 O1'
_chemical_name_systematic        
'bis(\m~2~-Hydrido)-tris(\m~2~-4,7,10-trimethyl-1,4,7,10-tetraazacyclododecanyl)-tri-calcium (diphenylsilyl)phenylmethanide tetrahydrofuran solvate'
_symmetry_cell_setting           triclinic
_symmetry_space_group_name_H-M   'P -1'
_symmetry_Int_Tables_number      2
_space_group_name_Hall           '-P 1'
loop_
_symmetry_equiv_pos_site_id
_symmetry_equiv_pos_as_xyz
1 x,y,z
2 -x,-y,-z
_cell_length_a                   10.1903(14)
_cell_length_b                   16.360(2)
_cell_length_c                   18.369(3)
_cell_angle_alpha                91.479(4)
_cell_angle_beta                 90.715(4)
_cell_angle_gamma                96.624(4)
_cell_volume                     3040.53
_exptl_crystal_colour            brown
_exptl_crystal_description       plate
_cell_formula_units_Z            2
loop_
_atom_site_label
_atom_site_type_symbol
_atom_site_fract_x
_atom_site_fract_y
_atom_site_fract_z
Ca1 Ca 0.59130(17) 0.20007(10) 0.29865(9)
Ca2 Ca 0.52737(18) 0.26566(11) 0.13180(10)
Ca3 Ca 0.55253(19) 0.39876(11) 0.27443(10)
H1 H 0.426(8) 0.273(5) 0.251(5)
H2 H 0.692(8) 0.302(5) 0.228(5)
N1 N 0.5614(7) 0.1316(4) 0.1776(4)
N2 N 0.3947(7) 0.0820(4) 0.3096(4)
N3 N 0.6479(7) 0.0966(4) 0.3960(4)
N4 N 0.8099(7) 0.1428(4) 0.2670(4)
N5 N 0.5064(8) 0.4131(5) 0.1438(4)
N6 N 0.7060(8) 0.3407(5) 0.0494(4)
N7 N 0.4856(9) 0.2143(5) -0.0042(4)
N8 N 0.2867(8) 0.2876(5) 0.0882(5)
N9 N 0.5840(8) 0.3178(5) 0.3829(4)
N10 N 0.3496(8) 0.4146(5) 0.3600(4)
N11 N 0.5457(9) 0.5518(5) 0.3108(5)
N12 N 0.7752(8) 0.4571(5) 0.3359(4)
C1 C 0.4356(10) 0.0805(6) 0.1752(6)
H3 H 0.4344 0.0418 0.1327
H4 H 0.3648 0.1161 0.1672
C2 C 0.4036(11) 0.0306(6) 0.2436(6)
H5 H 0.3186 -0.0045 0.2356
H6 H 0.4730 -0.0062 0.2512
C3 C 0.4145(9) 0.0334(6) 0.3741(5)
H7 H 0.3587 -0.0202 0.3689
H8 H 0.3845 0.0627 0.4176
C4 C 0.5558(9) 0.0178(5) 0.3866(5)
H9 H 0.5846 -0.0145 0.3446
H10 H 0.5613 -0.0153 0.4306
C5 C 0.7824(10) 0.0760(6) 0.3855(5)
H11 H 0.7922 0.0240 0.4103
H12 H 0.8453 0.1198 0.4089
C6 C 0.8187(10) 0.0664(6) 0.3074(5)
H13 H 0.9100 0.0515 0.3048
H14 H 0.7589 0.0209 0.2841
C7 C 0.7990(10) 0.1252(7) 0.1871(6)
H15 H 0.8166 0.1777 0.1615
H16 H 0.8680 0.0902 0.1729
C8 C 0.6693(11) 0.0837(7) 0.1626(6)
H17 H 0.6718 0.0720 0.1095
H18 H 0.6526 0.0304 0.1871
C9 C 0.2661(9) 0.1104(6) 0.3137(6)
H19 H 0.1981 0.0629 0.3151
H20 H 0.2511 0.1428 0.2710
H21 H 0.2617 0.1447 0.3580
C10 C 0.6372(11) 0.1324(6) 0.4680(5)
H22 H 0.6654 0.0949 0.5043
H23 H 0.5452 0.1415 0.4766
H24 H 0.6937 0.1850 0.4721
C11 C 0.9283(9) 0.2026(6) 0.2806(6)
H25 H 0.9404 0.2132 0.3331
H26 H 0.9169 0.2541 0.2565
H27 H 1.0061 0.1800 0.2611
C12 C 0.5713(19) 0.4567(11) 0.0912(11)
H28 H 0.5812 0.5159 0.1054
H29 H 0.5187 0.4495 0.0453
C13 C 0.7083(18) 0.4292(11) 0.0783(11)
H30 H 0.7555 0.4665 0.0432
H31 H 0.7592 0.4352 0.1247
C14 C 0.663(2) 0.3318(13) -0.0230(12)
H32 H 0.7374 0.3518 -0.0548
H33 H 0.5914 0.3665 -0.0309
C15 C 0.616(2) 0.2462(13) -0.0444(12)
H34 H 0.6851 0.2105 -0.0328
H35 H 0.5993 0.2423 -0.0976
C16 C 0.378(2) 0.2443(14) -0.0350(11)
H36 H 0.3539 0.2134 -0.0812
H37 H 0.4026 0.3027 -0.0469
C17 C 0.261(2) 0.2384(14) 0.0132(11)
H38 H 0.2333 0.1797 0.0230
H39 H 0.1864 0.2597 -0.0128
C18 C 0.2870(18) 0.3726(11) 0.0764(11)
H40 H 0.1948 0.3860 0.0733
H41 H 0.3298 0.3864 0.0295
C19 C 0.360(2) 0.4240(13) 0.1372(12)
H42 H 0.3169 0.4094 0.1839
H43 H 0.3515 0.4827 0.1290
C20 C 0.8383(10) 0.3265(8) 0.0672(6)
H44 H 0.8999 0.3586 0.0353
H45 H 0.8473 0.2678 0.0603
H46 H 0.8585 0.3433 0.1180
C21 C 0.4956(15) 0.1275(7) -0.0100(6)
H47 H 0.4324 0.0981 0.0227
H48 H 0.5854 0.1171 0.0035
H49 H 0.4759 0.1079 -0.0603
C22 C 0.1828(10) 0.2464(7) 0.1322(6)
H50 H 0.0966 0.2589 0.1141
H51 H 0.1953 0.2657 0.1830
H52 H 0.1863 0.1868 0.1291
C23 C 0.4602(11) 0.3067(7) 0.4220(6)
H53 H 0.4780 0.2873 0.4713
H54 H 0.4000 0.2631 0.3965
C24 C 0.3899(11) 0.3841(7) 0.4293(5)
H55 H 0.3108 0.3719 0.4596
H56 H 0.4496 0.4279 0.4550
C25 C 0.3303(12) 0.5033(7) 0.3660(7)
H57 H 0.2762 0.5121 0.4093
H58 H 0.2800 0.5177 0.3226
C26 C 0.4562(11) 0.5605(7) 0.3723(6)
H59 H 0.4345 0.6179 0.3752
H60 H 0.5027 0.5498 0.4181
C27 C 0.6799(12) 0.5891(6) 0.3307(7)
H61 H 0.6740 0.6410 0.3588
H62 H 0.7287 0.6032 0.2856
C28 C 0.7566(12) 0.5346(7) 0.3748(7)
H63 H 0.8442 0.5645 0.3877
H64 H 0.7095 0.5218 0.4207
C29 C 0.8064(10) 0.3939(7) 0.3876(6)
H65 H 0.8768 0.4184 0.4218
H66 H 0.8411 0.3484 0.3601
C30 C 0.6867(11) 0.3589(6) 0.4312(6)
H67 H 0.7142 0.3193 0.4665
H68 H 0.6514 0.4041 0.4588
C31 C 0.2249(9) 0.3698(7) 0.3348(6)
H69 H 0.2359 0.3115 0.3271
H70 H 0.1976 0.3925 0.2889
H71 H 0.1572 0.3752 0.3715
C32 C 0.4996(14) 0.5941(6) 0.2470(6)
H72 H 0.5059 0.6534 0.2579
H73 H 0.4075 0.5730 0.2356
H74 H 0.5548 0.5840 0.2051
C33 C 0.8849(11) 0.4698(7) 0.2847(6)
H75 H 0.8677 0.5124 0.2505
H76 H 0.8930 0.4182 0.2578
H77 H 0.9673 0.4872 0.3118
Si1 Si 0.8192(4) 0.2679(3) 0.6881(2)
H78 H 0.772(11) 0.334(5) 0.642(5)
C34 C 0.9113(11) 0.2126(6) 0.6158(5)
C35 C 0.9813(11) 0.2568(4) 0.5623(6)
H79 H 0.9804 0.3147 0.5605
C36 C 1.0526(10) 0.2163(6) 0.5116(5)
H80 H 1.1004 0.2466 0.4750
C37 C 1.0540(11) 0.1316(6) 0.5143(5)
H81 H 1.1028 0.1040 0.4796
C38 C 0.9840(11) 0.0874(4) 0.5677(6)
H82 H 0.9850 0.0294 0.5696
C39 C 0.9127(10) 0.1278(6) 0.6185(5)
H83 H 0.8649 0.0976 0.6550
C40 C 0.9372(13) 0.3092(9) 0.7608(8)
C41 C 0.8954(15) 0.3759(10) 0.8114(8)
H84 H 0.8119 0.3960 0.8073
C42 C 0.9893(18) 0.4053(10) 0.8646(8)
H85 H 0.9679 0.4485 0.8963
C43 C 1.107(2) 0.3780(11) 0.8750(10)
H86 H 1.1651 0.3992 0.9135
C44 C 1.1381(19) 0.3196(8) 0.8283(8)
H87 H 1.2223 0.3006 0.8336
C45 C 1.0562(13) 0.2852(8) 0.7729(7)
H88 H 1.0850 0.2432 0.7425
C46 C 0.6883(15) 0.2074(9) 0.7329(9)
H89 H 0.7112 0.1839 0.7774
C47 C 0.5537(11) 0.1903(7) 0.7096(10)
C48 C 0.5139(15) 0.2034(6) 0.6380(7)
H90 H 0.5777 0.2206 0.6026
C49 C 0.3877(12) 0.1917(7) 0.6201(7)
H91 H 0.3641 0.2026 0.5714
C50 C 0.2881(11) 0.1653(7) 0.6655(6)
H92 H 0.1991 0.1586 0.6483
C51 C 0.3176(12) 0.1482(6) 0.7373(7)
H93 H 0.2502 0.1300 0.7704
C52 C 0.4558(15) 0.1594(6) 0.7593(7)
H94 H 0.4808 0.1459 0.8071
O1 O 0.8812(13) 0.1193(8) 0.9771(6)
C53 C 0.8280(16) 0.0353(8) 0.9568(9)
H95 H 0.7367 0.0339 0.9374
H96 H 0.8266 -0.0002 0.9997
C54 C 0.9163(17) 0.0060(8) 0.8998(9)
H97 H 0.8637 -0.0260 0.8608
H98 H 0.9786 -0.0292 0.9213
C55 C 0.9900(18) 0.0832(9) 0.8700(9)
H99 H 1.0863 0.0843 0.8785
H100 H 0.9729 0.0864 0.8170
C56 C 0.9375(17) 0.1532(8) 0.9108(9)
H101 H 1.0097 0.1976 0.9223
H102 H 0.8692 0.1760 0.8812
C57? C 0.634(2) 0.4579(13) 0.1097(12)
C58? C 0.669(2) 0.4218(13) 0.0402(13)
C59? C 0.695(2) 0.2971(16) -0.0315(13)
C60? C 0.552(2) 0.2710(15) -0.0532(13)
C61? C 0.330(2) 0.2122(15) -0.0180(13)
C62? C 0.273(2) 0.2837(14) 0.0144(11)
C63? C 0.279(2) 0.3785(13) 0.1208(13)
C64? C 0.399(2) 0.4364(15) 0.1057(15)
C65? C 0.939(4) 0.206(2) 0.5959(18)
C66? C 0.965(4) 0.2821(18) 0.564(2)
C67? C 1.047(4) 0.2904(17) 0.5037(19)
C68? C 1.102(4) 0.223(2) 0.4757(17)
C69? C 1.076(4) 0.1466(18) 0.508(2)
C70? C 0.994(4) 0.1383(17) 0.568(2)
C71? C 0.844(3) 0.092(3) 0.904(2)
C72? C 0.932(4) 0.035(3) 0.865(2)
C73? C 1.070(3) 0.082(3) 0.882(2)
C74? C 1.055(3) 0.101(3) 0.963(2)
H103? H 0.6214 0.5163 0.1026
H104? H 0.7089 0.4568 0.1445
H105? H 0.5920 0.4188 0.0062
H106? H 0.7427 0.4572 0.0188
H107? H 0.7359 0.3361 -0.0673
H108? H 0.7440 0.2483 -0.0320
H109? H 0.5043 0.3205 -0.0550
H110? H 0.5481 0.2453 -0.1027
H111? H 0.3121 0.2100 -0.0712
H112? H 0.2848 0.1612 0.0024
H113? H 0.3174 0.3349 -0.0060
H114? H 0.1780 0.2798 0.0011
H115? H 0.2004 0.4002 0.0998
H116? H 0.2671 0.3757 0.1742
H117? H 0.4166 0.4355 0.0528
H118? H 0.3842 0.4931 0.1207
H119? H 0.9271 0.3284 0.5829
H120? H 1.0645 0.3424 0.4817
H121? H 1.1577 0.2284 0.4347
H122? H 1.1136 0.1004 0.4887
H123? H 0.9763 0.0863 0.5899
H124? H 0.8236 0.1363 0.8714
H125? H 0.7607 0.0601 0.9185
H126? H 0.9133 0.0309 0.8117
H127? H 0.9231 -0.0204 0.8852
H128? H 1.1412 0.0473 0.8724
H129? H 1.0855 0.1331 0.8536
H130? H 1.0626 0.0512 0.9919
H131? H 1.1220 0.1456 0.9805
O2? O 0.922(3) 0.126(2) 0.9676(18)
loop_
_geom_bond_atom_site_label_1
_geom_bond_atom_site_label_2
_geom_bond_site_symmetry_1
_geom_bond_site_symmetry_2
Ca1 H1 1_555 1_555
Ca2 H1 1_555 1_555
Ca3 H1 1_555 1_555
H2 Ca1 1_555 1_555
N1 Ca1 1_555 1_555
N2 Ca1 1_555 1_555
N3 Ca1 1_555 1_555
N4 Ca1 1_555 1_555
N5 Ca2 1_555 1_555
N6 Ca2 1_555 1_555
N7 Ca2 1_555 1_555
N8 Ca2 1_555 1_555
N9 Ca1 1_555 1_555
N10 Ca3 1_555 1_555
N11 Ca3 1_555 1_555
N12 Ca3 1_555 1_555
C1 N1 1_555 1_555
H3 C1 1_555 1_555
H4 C1 1_555 1_555
C2 N2 1_555 1_555
H5 C2 1_555 1_555
H6 C2 1_555 1_555
C3 N2 1_555 1_555
H7 C3 1_555 1_555
H8 C3 1_555 1_555
C4 N3 1_555 1_555
H9 C4 1_555 1_555
H10 C4 1_555 1_555
C5 N3 1_555 1_555
H11 C5 1_555 1_555
H12 C5 1_555 1_555
C6 N4 1_555 1_555
H13 C6 1_555 1_555
H14 C6 1_555 1_555
C7 N4 1_555 1_555
H15 C7 1_555 1_555
H16 C7 1_555 1_555
C8 N1 1_555 1_555
H17 C8 1_555 1_555
H18 C8 1_555 1_555
C9 N2 1_555 1_555
H19 C9 1_555 1_555
H20 C9 1_555 1_555
H21 C9 1_555 1_555
C10 N3 1_555 1_555
H22 C10 1_555 1_555
H23 C10 1_555 1_555
H24 C10 1_555 1_555
C11 N4 1_555 1_555
H25 C11 1_555 1_555
H26 C11 1_555 1_555
H27 C11 1_555 1_555
C12 N5 1_555 1_555
H28 C12 1_555 1_555
H29 C12 1_555 1_555
C13 N6 1_555 1_555
H30 C13 1_555 1_555
H31 C13 1_555 1_555
C14 N6 1_555 1_555
H32 C14 1_555 1_555
H33 C14 1_555 1_555
C15 N7 1_555 1_555
H34 C15 1_555 1_555
H35 C15 1_555 1_555
C16 N7 1_555 1_555
H36 C16 1_555 1_555
H37 C16 1_555 1_555
C17 N8 1_555 1_555
H38 C17 1_555 1_555
H39 C17 1_555 1_555
C18 N8 1_555 1_555
H40 C18 1_555 1_555
H41 C18 1_555 1_555
C19 N5 1_555 1_555
H42 C19 1_555 1_555
H43 C19 1_555 1_555
C20 N6 1_555 1_555
H44 C20 1_555 1_555
H45 C20 1_555 1_555
H46 C20 1_555 1_555
C21 N7 1_555 1_555
H47 C21 1_555 1_555
H48 C21 1_555 1_555
H49 C21 1_555 1_555
C22 N8 1_555 1_555
H50 C22 1_555 1_555
H51 C22 1_555 1_555
H52 C22 1_555 1_555
C23 N9 1_555 1_555
H53 C23 1_555 1_555
H54 C23 1_555 1_555
C24 N10 1_555 1_555
H55 C24 1_555 1_555
H56 C24 1_555 1_555
C25 N10 1_555 1_555
H57 C25 1_555 1_555
H58 C25 1_555 1_555
C26 N11 1_555 1_555
H59 C26 1_555 1_555
H60 C26 1_555 1_555
C27 N11 1_555 1_555
H61 C27 1_555 1_555
H62 C27 1_555 1_555
C28 N12 1_555 1_555
H63 C28 1_555 1_555
H64 C28 1_555 1_555
C29 N12 1_555 1_555
H65 C29 1_555 1_555
H66 C29 1_555 1_555
C30 N9 1_555 1_555
H67 C30 1_555 1_555
H68 C30 1_555 1_555
C31 N10 1_555 1_555
H69 C31 1_555 1_555
H70 C31 1_555 1_555
H71 C31 1_555 1_555
C32 N11 1_555 1_555
H72 C32 1_555 1_555
H73 C32 1_555 1_555
H74 C32 1_555 1_555
C33 N12 1_555 1_555
H75 C33 1_555 1_555
H76 C33 1_555 1_555
H77 C33 1_555 1_555
Si1 H78 1_555 1_555
C34 Si1 1_555 1_555
C35 C34 1_555 1_555
H79 C35 1_555 1_555
C36 C35 1_555 1_555
H80 C36 1_555 1_555
C37 C36 1_555 1_555
H81 C37 1_555 1_555
C38 C37 1_555 1_555
H82 C38 1_555 1_555
C39 C34 1_555 1_555
H83 C39 1_555 1_555
C40 Si1 1_555 1_555
C41 C40 1_555 1_555
H84 C41 1_555 1_555
C42 C41 1_555 1_555
H85 C42 1_555 1_555
C43 C42 1_555 1_555
H86 C43 1_555 1_555
C44 C43 1_555 1_555
H87 C44 1_555 1_555
C45 C40 1_555 1_555
H88 C45 1_555 1_555
C46 Si1 1_555 1_555
H89 C46 1_555 1_555
C47 C46 1_555 1_555
C48 C47 1_555 1_555
H90 C48 1_555 1_555
C49 C48 1_555 1_555
H91 C49 1_555 1_555
C50 C49 1_555 1_555
H92 C50 1_555 1_555
C51 C50 1_555 1_555
H93 C51 1_555 1_555
C52 C47 1_555 1_555
H94 C52 1_555 1_555
O1 C53 1_555 1_555
C53 H95 1_555 1_555
H96 C53 1_555 1_555
C54 C53 1_555 1_555
H97 C54 1_555 1_555
H98 C54 1_555 1_555
C55 C54 1_555 1_555
H99 C55 1_555 1_555
H100 C55 1_555 1_555
C56 O1 1_555 1_555
H101 C56 1_555 1_555
H102 C56 1_555 1_555
Ca2 H2 1_555 1_555
Ca2 N1 1_555 1_555
Ca3 H2 1_555 1_555
Ca3 N5 1_555 1_555
Ca3 N9 1_555 1_555
C1 C2 1_555 1_555
C3 C4 1_555 1_555
C5 C6 1_555 1_555
C7 C8 1_555 1_555
C12 C13 1_555 1_555
C14 C15 1_555 1_555
C16 C17 1_555 1_555
C18 C19 1_555 1_555
C23 C24 1_555 1_555
C25 C26 1_555 1_555
C27 C28 1_555 1_555
C29 C30 1_555 1_555
C38 C39 1_555 1_555
C44 C45 1_555 1_555
C51 C52 1_555 1_555
C55 C56 1_555 1_555

#END
