
#######################################################################
#
#                 Cambridge Crystallographic Data Centre
#                                CCDC 
#
#######################################################################
#
# If this CIF has been generated from an entry in the Cambridge 
# Structural Database, then it will include bibliographic, chemical, 
# crystal, experimental, refinement or atomic coordinate data resulting 
# from the CCDC's data processing and validation procedures.
#
#######################################################################

data_FAXNAT
_chemical_formula_moiety         'C24 H24 O8'
_chemical_name_systematic        4,5,15,16-Tetra-acetoxy(2.2)paracyclophane
_symmetry_cell_setting           orthorhombic
_symmetry_space_group_name_H-M   'P b c a'
_symmetry_Int_Tables_number      61
_space_group_name_Hall           '-P 2ac 2ab'
loop_
_symmetry_equiv_pos_site_id
_symmetry_equiv_pos_as_xyz
1 x,y,z
2 1/2-x,1/2+y,z
3 x,1/2-y,1/2+z
4 1/2-x,-y,1/2+z
5 -x,-y,-z
6 1/2+x,1/2-y,-z
7 -x,1/2+y,1/2-z
8 1/2+x,y,1/2-z
_cell_length_a                   13.543(2)
_cell_length_b                   9.411(1)
_cell_length_c                   16.997(1)
_cell_angle_alpha                90
_cell_angle_beta                 90
_cell_angle_gamma                90
_cell_volume                     2166.32
_exptl_crystal_colour            colorless
_cell_formula_units_Z            4
loop_
_atom_site_label
_atom_site_type_symbol
_atom_site_fract_x
_atom_site_fract_y
_atom_site_fract_z
O1 O 0.07050(9) 0.51372(11) 0.33789(6)
O2 O 0.04573(12) 0.34060(15) 0.24860(7)
O3 O 0.20865(8) 0.47980(12) 0.45055(6)
O4 O 0.25391(11) 0.34520(15) 0.34722(8)
C1 C -0.05066(12) 0.38101(15) 0.41358(8)
C2 C 0.04595(12) 0.42475(15) 0.40074(8)
C3 C 0.11784(11) 0.40937(14) 0.45815(8)
C4 C 0.09523(12) 0.35114(15) 0.53121(8)
C5 C 0.00460(13) 0.28236(15) 0.53763(9)
C6 C -0.06654(13) 0.29580(16) 0.47966(9)
C7 C -0.13637(13) 0.44894(18) 0.37078(9)
C8 C 0.15431(14) 0.39116(18) 0.60351(9)
C9 C 0.07269(13) 0.45831(19) 0.26385(9)
C10 C 0.1114(16) 0.56577(24) 0.20786(11)
C11 C 0.27060(13) 0.44124(17) 0.39101(10)
C12 C 0.35887(14) 0.53543(20) 0.38895(14)
H1 H -0.0136(12) 0.2277(15) 0.5916(5)
H2 H -0.1405(5) 0.2573(17) 0.4900(10)
H3 H -0.1214 0.4465 0.3084
H4 H -0.2024 0.3885 0.3831
H5 H 0.2318 0.3769 0.5909
H6 H 0.1331 0.3222 0.6514
H7 H 0.1190 0.5227 0.1493
H8 H 0.1824 0.5999 0.2292
H9 H 0.0613 0.6554 0.2064
H10 H 0.4099 0.4866 0.3483
H11 H 0.3944 0.5491 0.4453
H12 H 0.3364 0.6378 0.3665
C8D C -0.15431(14) 0.60884(18) 0.39649(9)
C7D C 0.13637(13) 0.55106(18) 0.62922(9)
C4D C -0.09523(12) 0.64886(15) 0.46879(8)
H5D H -0.2318 0.6231 0.4091
H6D H -0.1331 0.6778 0.3486
C1D C 0.05066(12) 0.61899(15) 0.58642(8)
H3D H 0.1214 0.5535 0.6916
H4D H 0.2024 0.6115 0.6169
C3D C -0.11784(11) 0.59063(14) 0.54185(8)
C5D C -0.00460(13) 0.71764(15) 0.46237(9)
C2D C -0.04595(12) 0.57525(15) 0.59926(8)
C6D C 0.06654(13) 0.70420(16) 0.52034(9)
O3D O -0.20865(8) 0.52020(12) 0.54945(6)
H1D H 0.0136(12) 0.7723(15) 0.4084(5)
O1D O -0.07050(9) 0.48628(11) 0.66211(6)
H2D H 0.1405(5) 0.7427(17) 0.5100(10)
C11D C -0.27060(13) 0.55876(17) 0.60899(10)
C9D C -0.07269(13) 0.54169(19) 0.73615(9)
O4D O -0.25391(11) 0.65480(15) 0.65278(8)
C12D C -0.35887(14) 0.46457(20) 0.61105(14)
O2D O -0.04573(12) 0.65940(15) 0.75140(7)
C10D C -0.1114(16) 0.43423(24) 0.79214(11)
H10D H -0.4099 0.5134 0.6517
H11D H -0.3944 0.4509 0.5547
H12D H -0.3364 0.3622 0.6335
H7D H -0.1190 0.4773 0.8507
H8D H -0.1824 0.4001 0.7708
H9D H -0.0613 0.3446 0.7936
loop_
_geom_bond_atom_site_label_1
_geom_bond_atom_site_label_2
_geom_bond_site_symmetry_1
_geom_bond_site_symmetry_2
O1 C2 1_555 1_555
O2 C9 1_555 1_555
O3 C3 1_555 1_555
O4 C11 1_555 1_555
C1 C2 1_555 1_555
C2 C3 1_555 1_555
C3 C4 1_555 1_555
C4 C5 1_555 1_555
C5 C6 1_555 1_555
C6 C1 1_555 1_555
C7 C1 1_555 1_555
C8 C4 1_555 1_555
C9 O1 1_555 1_555
C10 C9 1_555 1_555
C11 O3 1_555 1_555
C12 C11 1_555 1_555
H1 C5 1_555 1_555
H2 C6 1_555 1_555
H3 C7 1_555 1_555
H4 C7 1_555 1_555
H5 C8 1_555 1_555
H6 C8 1_555 1_555
H7 C10 1_555 1_555
H8 C10 1_555 1_555
H9 C10 1_555 1_555
H10 C12 1_555 1_555
H11 C12 1_555 1_555
H12 C12 1_555 1_555
C8D C7 1_555 1_555
C7D C8 1_555 1_555
C4D C8D 1_555 1_555
H5D C8D 1_555 1_555
H6D C8D 1_555 1_555
C1D C7D 1_555 1_555
H3D C7D 1_555 1_555
H4D C7D 1_555 1_555
C3D C4D 1_555 1_555
C5D C4D 1_555 1_555
C2D C1D 1_555 1_555
C6D C1D 1_555 1_555
O3D C3D 1_555 1_555
H1D C5D 1_555 1_555
O1D C2D 1_555 1_555
H2D C6D 1_555 1_555
C11D O3D 1_555 1_555
C9D O1D 1_555 1_555
O4D C11D 1_555 1_555
C12D C11D 1_555 1_555
O2D C9D 1_555 1_555
C10D C9D 1_555 1_555
H10D C12D 1_555 1_555
H11D C12D 1_555 1_555
H12D C12D 1_555 1_555
H7D C10D 1_555 1_555
H8D C10D 1_555 1_555
H9D C10D 1_555 1_555
C3D C2D 1_555 1_555
C5D C6D 1_555 1_555

#END
