
#######################################################################
#
#                 Cambridge Crystallographic Data Centre
#                                CCDC 
#
#######################################################################
#
# If this CIF has been generated from an entry in the Cambridge 
# Structural Database, then it will include bibliographic, chemical, 
# crystal, experimental, refinement or atomic coordinate data resulting 
# from the CCDC's data processing and validation procedures.
#
#######################################################################

data_FAXRIF
_chemical_formula_moiety         'C15 H21 Br3'
_chemical_name_systematic        1,3,5-tris(Bromomethyl)-2,4,6-triethylbenzene
_symmetry_cell_setting           rhombohedral
_symmetry_space_group_name_H-M   'R 3'
_symmetry_Int_Tables_number      146
_space_group_name_Hall           'R 3'
loop_
_symmetry_equiv_pos_site_id
_symmetry_equiv_pos_as_xyz
1 x,y,z
2 -y,x-y,z
3 -x+y,-x,z
4 2/3+x,1/3+y,1/3+z
5 2/3-y,1/3+x-y,1/3+z
6 2/3-x+y,1/3-x,1/3+z
7 1/3+x,2/3+y,2/3+z
8 1/3-y,2/3+x-y,2/3+z
9 1/3-x+y,2/3-x,2/3+z
_cell_length_a                   16.5648(11)
_cell_length_b                   16.5648(11)
_cell_length_c                   5.3351(4)
_cell_angle_alpha                90
_cell_angle_beta                 90
_cell_angle_gamma                120.00
_cell_volume                     1267.78
_exptl_crystal_colour            colorless
_exptl_crystal_description       block
_cell_formula_units_Z            3
_exptl_crystal_recrystallization_method n-hexane/dichloromethane
loop_
_atom_site_label
_atom_site_type_symbol
_atom_site_fract_x
_atom_site_fract_y
_atom_site_fract_z
Br1 Br 0.95915(3) 0.20067(3) 0.9880
C1 C 0.7701(3) -0.0372(3) 0.4062(11)
H1 H 0.7078 -0.0476 0.4202
H2 H 0.7691 -0.0874 0.3140
H3 H 0.8085 0.0205 0.3199
C2 C 0.8092(2) -0.0325(2) 0.6644(7)
H4 H 0.7696 -0.0899 0.7507
H5 H 0.8085 0.0169 0.7566
C3 C 0.90811(19) -0.01608(19) 0.6615(6)
C4 C 0.9844(2) 0.07561(19) 0.6585(6)
C5 C 0.9675(2) 0.1563(2) 0.6483(6)
H6 H 0.9105 0.1379 0.5594
H7 H 1.0173 0.2065 0.5573
C4A C 0.92439(19) -0.09121(28) 0.6585(6)
C3A C 1.01608(19) -0.07581(27) 0.6615(6)
C2A C 1.0325(2) -0.1583(3) 0.6644(7)
C1A C 1.0372(3) -0.1927(4) 0.4062(11)
H1A H 1.0476 -0.2446 0.4202
H2A H 1.0874 -0.1435 0.3140
H3A H 0.9795 -0.2120 0.3199
H4A H 1.0899 -0.1405 0.7507
H5A H 0.9831 -0.2084 0.7566
C4B C 1.09121(28) 0.0156(2) 0.6585(6)
C3B C 1.07581(27) 0.09189(19) 0.6615(6)
C2B C 1.1583(3) 0.1908(2) 0.6644(7)
C1B C 1.1927(4) 0.2299(3) 0.4062(11)
H1B H 1.2446 0.2922 0.4202
H2B H 1.1435 0.2309 0.3140
H3B H 1.2120 0.1915 0.3199
H4B H 1.1405 0.2304 0.7507
H5B H 1.2084 0.1915 0.7566
C5B C 1.1888(3) 0.0325(2) 0.6483(6)
Br1B Br 1.24152(4) 0.04085(3) 0.9880
H6B H 1.2274 0.0895 0.5594
H7B H 1.1892 -0.0173 0.5573
C5A C 0.8437(2) -0.1888(3) 0.6483(6)
Br1A Br 0.79933(3) -0.24152(4) 0.9880
H6A H 0.8621 -0.2274 0.5594
H7A H 0.7935 -0.1892 0.5573
loop_
_geom_bond_atom_site_label_1
_geom_bond_atom_site_label_2
_geom_bond_site_symmetry_1
_geom_bond_site_symmetry_2
Br1 C5 1_555 1_555
C1 H1 1_555 1_555
H2 C1 1_555 1_555
H3 C1 1_555 1_555
C2 C1 1_555 1_555
H4 C2 1_555 1_555
H5 C2 1_555 1_555
C3 C2 1_555 1_555
C4 C3 1_555 1_555
C5 C4 1_555 1_555
H6 C5 1_555 1_555
H7 C5 1_555 1_555
C4A C3 1_555 1_555
C3A C4A 1_555 1_555
C2A C3A 1_555 1_555
C1A C2A 1_555 1_555
H1A C1A 1_555 1_555
H2A C1A 1_555 1_555
H3A C1A 1_555 1_555
H4A C2A 1_555 1_555
H5A C2A 1_555 1_555
C4B C3A 1_555 1_555
C3B C4 1_555 1_555
C2B C3B 1_555 1_555
C1B C2B 1_555 1_555
H1B C1B 1_555 1_555
H2B C1B 1_555 1_555
H3B C1B 1_555 1_555
H4B C2B 1_555 1_555
H5B C2B 1_555 1_555
C5B C4B 1_555 1_555
Br1B C5B 1_555 1_555
H6B C5B 1_555 1_555
H7B C5B 1_555 1_555
C5A C4A 1_555 1_555
Br1A C5A 1_555 1_555
H6A C5A 1_555 1_555
H7A C5A 1_555 1_555
C4B C3B 1_555 1_555

#END
