
#######################################################################
#
#                 Cambridge Crystallographic Data Centre
#                                CCDC 
#
#######################################################################
#
# If this CIF has been generated from an entry in the Cambridge 
# Structural Database, then it will include bibliographic, chemical, 
# crystal, experimental, refinement or atomic coordinate data resulting 
# from the CCDC's data processing and validation procedures.
#
#######################################################################

data_FAXTUU
_chemical_formula_moiety         'C7 H6 Cl3 N1 O3'
_chemical_name_systematic        
(2R,5S)-2-Trichloromethyl-3-oxa-1-azabicyclo(3.3.0)octane-4,8-dione
_symmetry_cell_setting           orthorhombic
_symmetry_space_group_name_H-M   'P 21 21 21'
_symmetry_Int_Tables_number      19
_space_group_name_Hall           'P 2ac 2ab'
loop_
_symmetry_equiv_pos_site_id
_symmetry_equiv_pos_as_xyz
1 x,y,z
2 1/2+x,1/2-y,-z
3 -x,1/2+y,1/2-z
4 1/2-x,-y,1/2+z
_cell_length_a                   6.04800(10)
_cell_length_b                   10.1735(3)
_cell_length_c                   15.5791(4)
_cell_angle_alpha                90
_cell_angle_beta                 90
_cell_angle_gamma                90
_cell_volume                     958.572
_exptl_crystal_colour            colorless
_exptl_crystal_description       needle
_cell_formula_units_Z            4
_exptl_crystal_recrystallization_method 'ethyl acetate'
loop_
_atom_site_label
_atom_site_type_symbol
_atom_site_fract_x
_atom_site_fract_y
_atom_site_fract_z
C1 C 0.8490(2) 0.15246(16) 0.24808(9)
C2 C 0.8540(2) 0.14921(15) 0.14903(9)
N1 N 0.9665(2) 0.03633(13) 0.11515(8)
C3 C 1.1804(3) 0.07368(16) 0.07969(10)
C4 C 1.1657(3) 0.22241(17) 0.07900(10)
O1 O 0.9761(2) 0.26093(11) 0.11948(7)
O2 O 1.2939(3) 0.30057(14) 0.05136(10)
C5 C 1.1938(3) 0.00394(17) -0.00842(11)
C6 C 1.0262(3) -0.10780(18) 0.00128(12)
C7 C 0.8571(3) -0.05505(15) 0.06413(10)
O3 O 0.6642(2) -0.08309(13) 0.07187(9)
Cl1 Cl 1.11902(7) 0.15831(5) 0.29063(3)
Cl2 Cl 0.71158(9) 0.01009(4) 0.28416(3)
Cl3 Cl 0.69808(8) 0.29265(4) 0.28155(3)
H1 H 0.7008 0.1531 0.1278
H2 H 1.3021 0.0455 0.1181
H3 H 1.3388 -0.0319 -0.0172
H4 H 1.1486 0.0656 -0.0533
H5 H 1.1002 -0.1859 0.0264
H6 H 0.9571 -0.1357 -0.0533
loop_
_geom_bond_atom_site_label_1
_geom_bond_atom_site_label_2
_geom_bond_site_symmetry_1
_geom_bond_site_symmetry_2
C1 C2 1_555 1_555
C2 N1 1_555 1_555
N1 C3 1_555 1_555
C3 C4 1_555 1_555
C4 O1 1_555 1_555
O1 C2 1_555 1_555
O2 C4 1_555 1_555
C5 C3 1_555 1_555
C6 C5 1_555 1_555
C7 N1 1_555 1_555
O3 C7 1_555 1_555
Cl1 C1 1_555 1_555
Cl2 C1 1_555 1_555
Cl3 C1 1_555 1_555
H1 C2 1_555 1_555
H2 C3 1_555 1_555
H3 C5 1_555 1_555
H4 C5 1_555 1_555
H5 C6 1_555 1_555
H6 C6 1_555 1_555
C6 C7 1_555 1_555

#END
