
#######################################################################
#
#                 Cambridge Crystallographic Data Centre
#                                CCDC 
#
#######################################################################
#
# If this CIF has been generated from an entry in the Cambridge 
# Structural Database, then it will include bibliographic, chemical, 
# crystal, experimental, refinement or atomic coordinate data resulting 
# from the CCDC's data processing and validation procedures.
#
#######################################################################

data_FAXVUW
_chemical_formula_moiety         'C25 H28 N4 O4 S1'
_chemical_name_systematic        
'Methyl 3-(dimethylamino)-2-(2-(1-(3-(4-(methylsulfanyl)phenyl)-1,2,4-oxadiazol-5-yl)-2-(dimethylamino)vinyloxy)phenyl)acrylate'
_symmetry_cell_setting           monoclinic
_symmetry_space_group_name_H-M   'P 21/n'
_symmetry_Int_Tables_number      14
_space_group_name_Hall           '-P 2yn'
loop_
_symmetry_equiv_pos_site_id
_symmetry_equiv_pos_as_xyz
1 x,y,z
2 1/2-x,1/2+y,1/2-z
3 -x,-y,-z
4 1/2+x,1/2-y,1/2+z
_cell_length_a                   8.2940(17)
_cell_length_b                   12.654(3)
_cell_length_c                   23.601(5)
_cell_angle_alpha                90
_cell_angle_beta                 97.02(3)
_cell_angle_gamma                90
_cell_volume                     2458.41
_exptl_crystal_colour            colorless
_exptl_crystal_description       block
_cell_formula_units_Z            4
_exptl_crystal_recrystallization_method ethanol
loop_
_atom_site_label
_atom_site_type_symbol
_atom_site_fract_x
_atom_site_fract_y
_atom_site_fract_z
S1 S 0.08012(14) 0.17354(10) 0.04616(5)
O1 O 0.4590(4) -0.3252(2) 0.22705(12)
O2 O 0.7074(3) -0.2165(2) 0.34968(10)
O3 O 0.7910(4) -0.1166(3) 0.51887(11)
O4 O 0.9948(3) -0.1811(2) 0.47539(11)
N1 N 0.3691(5) -0.2671(3) 0.18243(16)
N2 N 0.5052(3) -0.1568(3) 0.24706(12)
N3 N 0.6235(4) 0.0744(3) 0.38594(14)
N4 N 0.7353(4) -0.4533(3) 0.36462(15)
C1 C 0.1268(5) 0.2986(3) 0.0787(2)
H1 H 0.0736 0.3534 0.0552
H2 H 0.2421 0.3097 0.0827
H3 H 0.0897 0.3002 0.1156
C2 C 0.1838(4) 0.0809(3) 0.09275(16)
C3 C 0.1782(5) -0.0239(3) 0.07402(17)
H4 H 0.1243 -0.0396 0.0381
C4 C 0.2488(4) -0.1033(3) 0.10662(17)
H5 H 0.2425 -0.1722 0.0928
C5 C 0.3314(4) -0.0827(3) 0.16097(15)
C6 C 0.3389(5) 0.0211(3) 0.17948(17)
H6 H 0.3940 0.0370 0.2152
C7 C 0.2666(4) 0.1014(3) 0.14613(16)
H7 H 0.2736 0.1704 0.1597
C8 C 0.4031(4) -0.1697(3) 0.19627(16)
C9 C 0.5356(4) -0.2537(3) 0.26288(16)
C10 C 0.6370(4) -0.2939(3) 0.31215(16)
C11 C 0.8484(4) -0.1667(3) 0.33657(14)
C12 C 0.9251(4) -0.1944(3) 0.28989(14)
H8 H 0.8840 -0.2481 0.2654
C13 C 1.0640(5) -0.1405(3) 0.28045(16)
H9 H 1.1171 -0.1586 0.2493
C14 C 1.1245(5) -0.0616(3) 0.31570(18)
H10 H 1.2174 -0.0253 0.3085
C15 C 1.0470(5) -0.0352(3) 0.36264(16)
H11 H 1.0901 0.0182 0.3870
C16 C 0.9059(4) -0.0870(3) 0.37406(14)
C17 C 0.8208(4) -0.0611(3) 0.42423(14)
C18 C 0.8623(5) -0.1193(3) 0.47689(15)
C19 C 1.0447(6) -0.2425(4) 0.52581(18)
H12 H 1.1395 -0.2829 0.5203
H13 H 0.9585 -0.2895 0.5329
H14 H 1.0693 -0.1961 0.5579
C20 C 0.6985(4) 0.0100(3) 0.42550(15)
H15 H 0.6596 0.0147 0.4607
C21 C 0.4973(6) 0.1459(4) 0.3995(2)
H16 H 0.4802 0.1368 0.4387
H17 H 0.3984 0.1309 0.3753
H18 H 0.5298 0.2175 0.3935
C22 C 0.6621(7) 0.0818(4) 0.32782(19)
H19 H 0.7469 0.0325 0.3224
H20 H 0.6978 0.1523 0.3207
H21 H 0.5672 0.0656 0.3018
C23 C 0.6512(5) -0.3983(3) 0.32260(17)
H22 H 0.5910 -0.4402 0.2954
C24 C 0.7202(6) -0.5682(3) 0.3660(2)
H23 H 0.6527 -0.5917 0.3324
H24 H 0.6721 -0.5888 0.3993
H25 H 0.8259 -0.5997 0.3671
C25 C 0.8376(5) -0.4064(4) 0.41265(17)
H26 H 0.8407 -0.3311 0.4078
H27 H 0.9456 -0.4344 0.4143
H28 H 0.7939 -0.4226 0.4475
loop_
_geom_bond_atom_site_label_1
_geom_bond_atom_site_label_2
_geom_bond_site_symmetry_1
_geom_bond_site_symmetry_2
S1 C1 1_555 1_555
O1 N1 1_555 1_555
O2 C10 1_555 1_555
O3 C18 1_555 1_555
O4 C18 1_555 1_555
N1 C8 1_555 1_555
N2 C8 1_555 1_555
N3 C20 1_555 1_555
N4 C23 1_555 1_555
C1 H1 1_555 1_555
H2 C1 1_555 1_555
H3 C1 1_555 1_555
C2 S1 1_555 1_555
C3 C2 1_555 1_555
H4 C3 1_555 1_555
C4 C3 1_555 1_555
H5 C4 1_555 1_555
C5 C4 1_555 1_555
C6 C5 1_555 1_555
H6 C6 1_555 1_555
C7 C2 1_555 1_555
H7 C7 1_555 1_555
C8 C5 1_555 1_555
C9 O1 1_555 1_555
C10 C9 1_555 1_555
C11 O2 1_555 1_555
C12 C11 1_555 1_555
H8 C12 1_555 1_555
C13 C12 1_555 1_555
H9 C13 1_555 1_555
C14 C13 1_555 1_555
H10 C14 1_555 1_555
C15 C14 1_555 1_555
H11 C15 1_555 1_555
C16 C11 1_555 1_555
C17 C16 1_555 1_555
C18 C17 1_555 1_555
C19 O4 1_555 1_555
H12 C19 1_555 1_555
H13 C19 1_555 1_555
H14 C19 1_555 1_555
C20 C17 1_555 1_555
H15 C20 1_555 1_555
C21 N3 1_555 1_555
H16 C21 1_555 1_555
H17 C21 1_555 1_555
H18 C21 1_555 1_555
C22 N3 1_555 1_555
H19 C22 1_555 1_555
H20 C22 1_555 1_555
H21 C22 1_555 1_555
C23 C10 1_555 1_555
H22 C23 1_555 1_555
C24 N4 1_555 1_555
H23 C24 1_555 1_555
H24 C24 1_555 1_555
H25 C24 1_555 1_555
C25 N4 1_555 1_555
H26 C25 1_555 1_555
H27 C25 1_555 1_555
H28 C25 1_555 1_555
N2 C9 1_555 1_555
C6 C7 1_555 1_555
C15 C16 1_555 1_555

#END
