
#######################################################################
#
#                 Cambridge Crystallographic Data Centre
#                                CCDC 
#
#######################################################################
#
# If this CIF has been generated from an entry in the Cambridge 
# Structural Database, then it will include bibliographic, chemical, 
# crystal, experimental, refinement or atomic coordinate data resulting 
# from the CCDC's data processing and validation procedures.
#
#######################################################################

data_FAXXIM
_chemical_formula_moiety         'C18 H45 N8 3+,3(Cl1 1-),7(H2 O1)'
_chemical_name_systematic        
'1,4,10,16,21-Pentaaza-7,13,24-triazoniabicyclo(8.8.8)hexacosane monohydrate clathrate trichloride hexahydrate'
_symmetry_cell_setting           orthorhombic
_symmetry_space_group_name_H-M   'P b c a'
_symmetry_Int_Tables_number      61
_space_group_name_Hall           '-P 2ac 2ab'
loop_
_symmetry_equiv_pos_site_id
_symmetry_equiv_pos_as_xyz
1 x,y,z
2 1/2-x,-y,1/2+z
3 -x,1/2+y,1/2-z
4 1/2+x,1/2-y,-z
5 -x,-y,-z
6 1/2+x,y,1/2-z
7 x,1/2-y,1/2+z
8 1/2-x,1/2+y,z
_cell_length_a                   14.2710(6)
_cell_length_b                   14.9228(6)
_cell_length_c                   29.8597(12)
_cell_angle_alpha                90
_cell_angle_beta                 90
_cell_angle_gamma                90
_cell_volume                     6359.02
_exptl_crystal_colour            colorless
_exptl_crystal_description       block
_cell_formula_units_Z            8
loop_
_atom_site_label
_atom_site_type_symbol
_atom_site_fract_x
_atom_site_fract_y
_atom_site_fract_z
N1 N 1.13477(13) 0.07746(12) 0.30336(6)
C1 C 1.23306(15) 0.09037(16) 0.31705(8)
H1 H 1.2745 0.0747 0.2916
H2 H 1.2475 0.0490 0.3420
C2 C 1.25378(16) 0.18517(15) 0.33170(8)
H3 H 1.3222 0.1922 0.3360
H4 H 1.2339 0.2272 0.3079
N2 N 1.20534(13) 0.20831(12) 0.37365(6)
C3 C 1.23589(16) 0.29603(15) 0.39027(8)
H5 H 1.2257 0.3414 0.3666
H6 H 1.3039 0.2937 0.3966
C4 C 1.18507(16) 0.32482(16) 0.43195(8)
H7 H 1.1897 0.2766 0.4546
H8 H 1.2160 0.3788 0.4443
N3 N 1.08415(14) 0.34515(14) 0.42357(7)
C5 C 1.03864(18) 0.39006(17) 0.46258(8)
H9 H 1.0713 0.4471 0.4691
H10 H 1.0437 0.3512 0.4893
C6 C 0.93677(18) 0.40858(16) 0.45281(8)
H11 H 0.9071 0.4349 0.4797
H12 H 0.9323 0.4531 0.4283
N4 N 0.88543(13) 0.32694(12) 0.43985(6)
C7 C 1.10709(17) -0.01725(15) 0.30762(8)
H13 H 1.1584 -0.0558 0.2963
H14 H 1.0510 -0.0284 0.2889
C8 C 1.08563(15) -0.04221(14) 0.35556(7)
H15 H 1.0722 -0.1072 0.3574
H16 H 1.1409 -0.0295 0.3746
N5 N 1.00330(13) 0.00944(12) 0.37246(6)
C9 C 0.97707(16) -0.01609(14) 0.41909(7)
H17 H 1.0315 -0.0062 0.4390
H18 H 0.9616 -0.0807 0.4199
C10 C 0.89437(16) 0.03693(14) 0.43656(7)
H19 H 0.8437 0.0359 0.4139
H20 H 0.8703 0.0077 0.4640
N6 N 0.91826(13) 0.13050(12) 0.44682(6)
C11 C 0.84034(17) 0.17591(16) 0.46944(8)
H21 H 0.8251 0.1437 0.4975
H22 H 0.7842 0.1744 0.4499
C12 C 0.86466(17) 0.27241(16) 0.48021(8)
H23 H 0.8116 0.3000 0.4965
H24 H 0.9199 0.2734 0.5003
C13 C 1.11905(17) 0.11018(17) 0.25743(7)
H25 H 1.1369 0.0625 0.2360
H26 H 1.1603 0.1623 0.2519
C14 C 1.01835(17) 0.13746(16) 0.24855(8)
H27 H 1.0108 0.1523 0.2164
H28 H 0.9762 0.0867 0.2556
N7 N 0.99193(13) 0.21537(13) 0.27584(6)
C15 C 0.89795(16) 0.24844(16) 0.26544(8)
H29 H 0.8523 0.1993 0.2698
H30 H 0.8956 0.2663 0.2335
C16 C 0.86957(17) 0.32736(16) 0.29407(8)
H31 H 0.9193 0.3735 0.2925
H32 H 0.8115 0.3539 0.2816
N8 N 0.85314(14) 0.30325(14) 0.34199(7)
C17 C 0.81360(18) 0.37909(17) 0.36888(8)
H33 H 0.7534 0.3985 0.3556
H34 H 0.8574 0.4305 0.3680
C18 C 0.79792(17) 0.35121(17) 0.41688(8)
H35 H 0.7675 0.4011 0.4332
H36 H 0.7548 0.2993 0.4175
H37 H 1.2180(19) 0.1704(19) 0.3943(9)
H38 H 0.956(2) 0.0014(19) 0.3552(9)
H39 H 1.0153(19) 0.073(2) 0.3710(9)
H40 H 1.028(2) 0.2553(19) 0.2708(9)
H41 H 1.0781(19) 0.3785(19) 0.3989(10)
H42 H 1.0491(19) 0.2955(19) 0.4179(9)
H43 H 0.9305(19) 0.1608(18) 0.4225(9)
H44 H 0.907(2) 0.2844(18) 0.3547(9)
H45 H 0.8114(19) 0.2555(19) 0.3447(9)
Cl1 Cl 1.23502(4) 0.04805(4) 0.453342(19)
Cl2 Cl 1.14708(4) 0.38858(4) 0.264667(19)
Cl3 Cl 0.70182(5) 0.15299(4) 0.35678(2)
O1 O 1.01762(10) 0.19982(10) 0.36441(5)
H46 H 1.0089(16) 0.1985(18) 0.3364(4)
H47 H 1.0757(8) 0.1995(19) 0.3688(8)
O2 O 1.04341(13) 0.45163(12) 0.35126(6)
H48 H 1.0517(19) 0.5031(10) 0.3613(8)
H49 H 1.0712(17) 0.4454(16) 0.3270(5)
O3 O 1.07898(13) 0.16730(12) 0.49848(6)
H50 H 1.1221(12) 0.1345(16) 0.4883(8)
H51 H 1.0317(11) 0.1555(18) 0.4821(8)
O4 O 0.85106(13) 0.02680(13) 0.31466(6)
H52 H 0.8399(17) -0.0070(15) 0.2929(6)
H53 H 0.8038(12) 0.0557(16) 0.3226(8)
O5 O 1.07215(18) 0.32483(16) 0.16931(8)
H54 H 1.0970(18) 0.2752(11) 0.1618(8)
H55 H 1.0951(18) 0.3390(16) 0.1946(5)
O6 O 1.08022(16) 0.59849(17) 0.40159(8)
H56 H 1.0473(15) 0.6399(14) 0.4145(8)
H57 H 1.1258(13) 0.5906(18) 0.4193(7)
O7 O 1.05245(18) 0.2838(2) 0.56842(8)
H58 H 1.0955(13) 0.2937(17) 0.5865(7)
H59 H 1.0673(17) 0.2436(14) 0.5508(7)
loop_
_geom_bond_atom_site_label_1
_geom_bond_atom_site_label_2
_geom_bond_site_symmetry_1
_geom_bond_site_symmetry_2
N1 C1 1_555 1_555
C1 H1 1_555 1_555
H2 C1 1_555 1_555
C2 C1 1_555 1_555
H3 C2 1_555 1_555
H4 C2 1_555 1_555
N2 C2 1_555 1_555
C3 N2 1_555 1_555
H5 C3 1_555 1_555
H6 C3 1_555 1_555
C4 C3 1_555 1_555
H7 C4 1_555 1_555
H8 C4 1_555 1_555
N3 C4 1_555 1_555
C5 N3 1_555 1_555
H9 C5 1_555 1_555
H10 C5 1_555 1_555
C6 C5 1_555 1_555
H11 C6 1_555 1_555
H12 C6 1_555 1_555
N4 C6 1_555 1_555
C7 N1 1_555 1_555
H13 C7 1_555 1_555
H14 C7 1_555 1_555
C8 C7 1_555 1_555
H15 C8 1_555 1_555
H16 C8 1_555 1_555
N5 C8 1_555 1_555
C9 N5 1_555 1_555
H17 C9 1_555 1_555
H18 C9 1_555 1_555
C10 C9 1_555 1_555
H19 C10 1_555 1_555
H20 C10 1_555 1_555
N6 C10 1_555 1_555
C11 N6 1_555 1_555
H21 C11 1_555 1_555
H22 C11 1_555 1_555
C12 N4 1_555 1_555
H23 C12 1_555 1_555
H24 C12 1_555 1_555
C13 N1 1_555 1_555
H25 C13 1_555 1_555
H26 C13 1_555 1_555
C14 C13 1_555 1_555
H27 C14 1_555 1_555
H28 C14 1_555 1_555
N7 C14 1_555 1_555
C15 N7 1_555 1_555
H29 C15 1_555 1_555
H30 C15 1_555 1_555
C16 C15 1_555 1_555
H31 C16 1_555 1_555
H32 C16 1_555 1_555
N8 C16 1_555 1_555
C17 N8 1_555 1_555
H33 C17 1_555 1_555
H34 C17 1_555 1_555
C18 N4 1_555 1_555
H35 C18 1_555 1_555
H36 C18 1_555 1_555
O1 H46 1_555 1_555
O2 H48 1_555 1_555
O3 H50 1_555 1_555
O4 H52 1_555 1_555
O5 H54 1_555 1_555
O6 H56 1_555 1_555
O7 H58 1_555 1_555
H37 N2 1_555 1_555
H38 N5 1_555 1_555
H39 N5 1_555 1_555
H40 N7 1_555 1_555
H41 N3 1_555 1_555
H42 N3 1_555 1_555
H43 N6 1_555 1_555
H44 N8 1_555 1_555
H45 N8 1_555 1_555
H47 O1 1_555 1_555
H49 O2 1_555 1_555
H51 O3 1_555 1_555
H53 O4 1_555 1_555
H55 O5 1_555 1_555
H57 O6 1_555 1_555
H59 O7 1_555 1_555
C11 C12 1_555 1_555
C17 C18 1_555 1_555

#END
