
#######################################################################
#
#                 Cambridge Crystallographic Data Centre
#                                CCDC 
#
#######################################################################
#
# If this CIF has been generated from an entry in the Cambridge 
# Structural Database, then it will include bibliographic, chemical, 
# crystal, experimental, refinement or atomic coordinate data resulting 
# from the CCDC's data processing and validation procedures.
#
#######################################################################

data_FAXXUY
_chemical_formula_moiety         'C20 H14 Cl1 N1 O5,C3 H7 N1 O1'
_chemical_name_systematic        
'Methyl 2-amino-4-(4-chlorophenyl)-4H-pyrano(3,2-c)coumarin-3-carboxylate N,N-dimethylformamide solvate'
_symmetry_cell_setting           triclinic
_symmetry_space_group_name_H-M   'P -1'
_symmetry_Int_Tables_number      2
_space_group_name_Hall           '-P 1'
loop_
_symmetry_equiv_pos_site_id
_symmetry_equiv_pos_as_xyz
1 x,y,z
2 -x,-y,-z
_cell_length_a                   7.5757(5)
_cell_length_b                   12.7812(4)
_cell_length_c                   12.9142(8)
_cell_angle_alpha                62.186(5)
_cell_angle_beta                 89.802(8)
_cell_angle_gamma                74.080(6)
_cell_volume                     1052.09
_exptl_crystal_colour            colorless
_exptl_crystal_description       block
_chemical_melting_point          '489-491 K'
_cell_formula_units_Z            2
_exptl_crystal_recrystallization_method DMF-ethanol
loop_
_atom_site_label
_atom_site_type_symbol
_atom_site_fract_x
_atom_site_fract_y
_atom_site_fract_z
Cl1 Cl -0.03927(6) 0.84390(4) -0.03440(4)
O1 O 0.40612(14) 0.75813(9) 0.54777(8)
O2 O 0.45504(16) 1.07261(9) 0.17312(9)
O3 O 0.30753(15) 1.12517(9) 0.29747(9)
O4 O 0.77962(14) 0.47257(9) 0.50759(9)
O5 O 0.77654(14) 0.61315(9) 0.31864(9)
N1 N 0.56264(19) 0.55796(12) 0.63697(11)
C1 C 0.52509(19) 0.66369(12) 0.53441(12)
C2 C 0.59088(19) 0.68346(12) 0.43038(12)
C3 C 0.52512(19) 0.80956(12) 0.31973(12)
H1 H 0.6356 0.8290 0.2818
C4 C 0.43424(19) 0.90671(12) 0.35471(12)
C5 C 0.37810(19) 0.87798(12) 0.46073(12)
C6 C 0.4038(2) 1.03626(13) 0.26859(13)
C7 C 0.2491(2) 1.09399(13) 0.40622(13)
C8 C 0.1567(2) 1.19133(14) 0.42583(15)
H2 H 0.1353 1.2751 0.3660
C9 C 0.0962(2) 1.16471(15) 0.53375(16)
H3 H 0.0321 1.2307 0.5481
C10 C 0.1281(2) 1.04232(15) 0.62141(15)
H4 H 0.0860 1.0252 0.6953
C11 C 0.2206(2) 0.94523(14) 0.60187(14)
H5 H 0.2423 0.8617 0.6621
C12 C 0.28244(19) 0.97067(13) 0.49255(13)
C13 C 0.72114(19) 0.57928(13) 0.42648(12)
C14 C 0.9086(2) 0.51457(15) 0.30822(15)
H6 H 1.0193 0.4797 0.3669
H7 H 0.9435 0.5476 0.2286
H8 H 0.8529 0.4493 0.3221
C15 C 0.38820(19) 0.81481(12) 0.22935(12)
C16 C 0.2321(2) 0.77696(13) 0.26478(13)
H9 H 0.2156 0.7446 0.3457
C17 C 0.1009(2) 0.78541(14) 0.18489(14)
H10 H -0.0050 0.7595 0.2102
C18 C 0.1266(2) 0.83243(14) 0.06731(14)
C19 C 0.2798(2) 0.87040(15) 0.02928(13)
H11 H 0.2956 0.9027 -0.0517
C20 C 0.4102(2) 0.86079(14) 0.11098(13)
H12 H 0.5164 0.8861 0.0854
H20 H 0.627(2) 0.4882(18) 0.6383(15)
H21 H 0.500(3) 0.5608(17) 0.6921(18)
O6 O 0.33948(18) 0.60983(11) 0.80508(10)
N2 N 0.2888(2) 0.47247(13) 0.98411(12)
C21 C 0.2756(2) 0.58516(16) 0.89749(15)
H13 H 0.2100 0.6533 0.9084
C22 C 0.3889(3) 0.36327(18) 0.9735(2)
H14 H 0.4501 0.3892 0.9026
H15 H 0.3013 0.3219 0.9671
H16 H 0.4824 0.3055 1.0436
C23 C 0.2142(3) 0.4514(3) 1.09249(18)
H17 H 0.1550 0.5314 1.0896
H18 H 0.3147 0.4007 1.1596
H19 H 0.1221 0.4079 1.1020
loop_
_geom_bond_atom_site_label_1
_geom_bond_atom_site_label_2
_geom_bond_site_symmetry_1
_geom_bond_site_symmetry_2
Cl1 C18 1_555 1_555
O1 C1 1_555 1_555
O2 C6 1_555 1_555
O3 C6 1_555 1_555
O4 C13 1_555 1_555
O5 C13 1_555 1_555
O6 C21 1_555 1_555
N1 C1 1_555 1_555
N2 C21 1_555 1_555
C1 C2 1_555 1_555
C2 C3 1_555 1_555
C3 H1 1_555 1_555
C4 C3 1_555 1_555
C5 O1 1_555 1_555
C6 C4 1_555 1_555
C7 O3 1_555 1_555
C8 C7 1_555 1_555
H2 C8 1_555 1_555
C9 C8 1_555 1_555
H3 C9 1_555 1_555
C10 C9 1_555 1_555
H4 C10 1_555 1_555
C11 C10 1_555 1_555
H5 C11 1_555 1_555
C12 C5 1_555 1_555
C13 C2 1_555 1_555
C14 O5 1_555 1_555
H6 C14 1_555 1_555
H7 C14 1_555 1_555
H8 C14 1_555 1_555
C15 C3 1_555 1_555
C16 C15 1_555 1_555
H9 C16 1_555 1_555
C17 C16 1_555 1_555
H10 C17 1_555 1_555
C18 C17 1_555 1_555
C19 C18 1_555 1_555
H11 C19 1_555 1_555
C20 C15 1_555 1_555
H12 C20 1_555 1_555
C21 H13 1_555 1_555
C22 N2 1_555 1_555
H14 C22 1_555 1_555
H15 C22 1_555 1_555
H16 C22 1_555 1_555
C23 N2 1_555 1_555
H17 C23 1_555 1_555
H18 C23 1_555 1_555
H19 C23 1_555 1_555
H20 N1 1_555 1_555
H21 N1 1_555 1_555
C4 C5 1_555 1_555
C7 C12 1_555 1_555
C11 C12 1_555 1_555
C19 C20 1_555 1_555

#END
