
#######################################################################
#
#                 Cambridge Crystallographic Data Centre
#                                CCDC 
#
#######################################################################
#
# If this CIF has been generated from an entry in the Cambridge 
# Structural Database, then it will include bibliographic, chemical, 
# crystal, experimental, refinement or atomic coordinate data resulting 
# from the CCDC's data processing and validation procedures.
#
#######################################################################

data_FAXYIN
_chemical_formula_moiety         'C24 H24 N2 O6'
_chemical_name_systematic        
N,N'-bis(p-Methoxyphenyl)-2,2'-(p-phenylenedioxy)diacetamide
_symmetry_cell_setting           triclinic
_symmetry_space_group_name_H-M   'P -1'
_symmetry_Int_Tables_number      2
_space_group_name_Hall           '-P 1'
loop_
_symmetry_equiv_pos_site_id
_symmetry_equiv_pos_as_xyz
1 x,y,z
2 -x,-y,-z
_cell_length_a                   9.8370(7)
_cell_length_b                   10.1922(8)
_cell_length_c                   10.9181(8)
_cell_angle_alpha                94.3270(10)
_cell_angle_beta                 92.6330(10)
_cell_angle_gamma                97.7190(10)
_cell_volume                     1079.9
_exptl_crystal_colour            colorless
_exptl_crystal_description       block
_cell_formula_units_Z            2
_exptl_crystal_recrystallization_method DMF-ethanol
loop_
_atom_site_label
_atom_site_type_symbol
_atom_site_fract_x
_atom_site_fract_y
_atom_site_fract_z
O1 O 0.3564(3) 0.05594(19) 0.36651(17)
O3 O 0.18321(16) 0.3795(2) -0.05510(16)
O5 O 0.42053(15) 0.39082(15) -0.28693(13)
N1 N 0.39026(17) 0.30968(18) -0.06615(15)
H1 H 0.4639 0.3115 -0.1059
C1 C 0.3591(5) -0.0823(3) 0.3675(3)
H3 H 0.2786 -0.1294 0.3230
H4 H 0.3609 -0.1061 0.4509
H5 H 0.4396 -0.1052 0.3292
C2 C 0.3627(3) 0.1106(2) 0.2562(2)
C3 C 0.3733(3) 0.2477(2) 0.2626(2)
H6 H 0.3732 0.2955 0.3386
C4 C 0.3840(2) 0.3134(2) 0.1578(2)
H7 H 0.3931 0.4057 0.1630
C5 C 0.38145(19) 0.2427(2) 0.04446(18)
C6 C 0.3683(2) 0.1066(2) 0.0378(2)
H8 H 0.3651 0.0589 -0.0386
C7 C 0.3596(3) 0.0393(2) 0.1430(2)
H9 H 0.3518 -0.0530 0.1377
C8 C 0.2882(2) 0.3689(2) -0.10900(19)
C9 C 0.3041(2) 0.4280(2) -0.2308(2)
H10 H 0.2228 0.3976 -0.2844
H11 H 0.3131 0.5240 -0.2181
C10 C 0.5796(2) 0.4236(2) -0.43729(18)
H12 H 0.6334 0.3716 -0.3949
C11 C 0.4555(2) 0.44659(19) -0.39396(17)
C12 C 0.3746(2) 0.5234(2) -0.45705(19)
H13 H 0.2901 0.5391 -0.4284
O1A O 0.6436(3) 0.94406(19) -1.36651(17)
O3A O 0.81679(16) 0.6205(2) -0.94490(16)
O5A O 0.57947(15) 0.60918(15) -0.71307(13)
N1A N 0.60974(17) 0.69032(18) -0.93385(15)
H1A H 0.5361 0.6885 -0.8941
C1A C 0.6409(5) 1.0823(3) -1.3675(3)
H3A H 0.7214 1.1294 -1.3230
H4A H 0.6391 1.1061 -1.4509
H5A H 0.5604 1.1052 -1.3292
C2A C 0.6373(3) 0.8894(2) -1.2562(2)
C3A C 0.6267(3) 0.7523(2) -1.2626(2)
H6A H 0.6268 0.7045 -1.3386
C4A C 0.6160(2) 0.6866(2) -1.1578(2)
H7A H 0.6069 0.5943 -1.1630
C5A C 0.61855(19) 0.7573(2) -1.04446(18)
C6A C 0.6317(2) 0.8934(2) -1.0378(2)
H8A H 0.6349 0.9411 -0.9614
C7A C 0.6404(3) 0.9607(2) -1.1430(2)
H9A H 0.6482 1.0530 -1.1377
C8A C 0.7118(2) 0.6311(2) -0.89100(19)
C9A C 0.6959(2) 0.5720(2) -0.7692(2)
H10A H 0.7772 0.6024 -0.7156
H11A H 0.6869 0.4760 -0.7819
C10A C 0.4204(2) 0.5764(2) -0.56271(18)
H12A H 0.3666 0.6284 -0.6051
C11A C 0.5445(2) 0.55341(19) -0.60604(17)
C12A C 0.6254(2) 0.4766(2) -0.54295(19)
H13A H 0.7099 0.4609 -0.5716
O2 O 0.8140(3) 0.0000(3) 0.3642(2)
O4 O 0.68859(16) 0.32820(19) -0.10362(17)
O6 O 0.89964(17) 0.37242(15) -0.30145(14)
N2 N 0.90288(18) 0.30275(18) -0.03154(16)
H2 H 0.9880 0.3226 -0.0462
C13 C 0.9902(2) 0.5771(2) -0.39136(19)
H14 H 0.9840 0.6291 -0.3187
C14 C 0.9613(2) 0.3652(2) -0.5063(2)
H15 H 0.9351 0.2738 -0.5104
C15 C 0.9508(2) 0.4412(2) -0.39733(19)
C16 C 0.8804(2) 0.4487(2) -0.19098(19)
H16 H 0.8221 0.5157 -0.2075
H17 H 0.9681 0.4930 -0.1548
C17 C 0.8131(2) 0.3534(2) -0.1040(2)
C18 C 0.8761(2) 0.2212(2) 0.06565(19)
C19 C 0.9773(3) 0.1497(3) 0.1030(2)
H18 H 1.0582 0.1532 0.0618
C20 C 0.9597(3) 0.0731(3) 0.2011(3)
H19 H 1.0280 0.0241 0.2254
C21 C 0.8399(3) 0.0690(3) 0.2635(2)
C22 C 0.7405(3) 0.1414(3) 0.2275(2)
H20 H 0.6609 0.1400 0.2705
C23 C 0.7567(2) 0.2164(2) 0.1284(2)
H21 H 0.6875 0.2640 0.1036
C24 C 0.8739(7) -0.1017(4) 0.3829(5)
H22 H 0.8784 -0.1531 0.3062
H23 H 0.8228 -0.1553 0.4384
H24 H 0.9652 -0.0728 0.4181
O2A O 1.1860(3) 1.0000(3) -1.3642(2)
O4A O 1.31141(16) 0.67180(19) -0.89638(17)
O6A O 1.10036(17) 0.62758(15) -0.69855(14)
N2A N 1.09712(18) 0.69725(18) -0.96846(16)
H2A H 1.0120 0.6774 -0.9538
C13A C 1.0098(2) 0.4229(2) -0.60864(19)
H14A H 1.0160 0.3709 -0.6813
C14A C 1.0387(2) 0.6348(2) -0.4937(2)
H15A H 1.0649 0.7262 -0.4896
C15A C 1.0492(2) 0.5588(2) -0.60267(19)
C16A C 1.1196(2) 0.5513(2) -0.80902(19)
H16A H 1.1779 0.4843 -0.7925
H17A H 1.0319 0.5070 -0.8452
C17A C 1.1869(2) 0.6466(2) -0.8960(2)
C18A C 1.1239(2) 0.7788(2) -1.06565(19)
C19A C 1.0227(3) 0.8503(3) -1.1030(2)
H18A H 0.9418 0.8468 -1.0618
C20A C 1.0403(3) 0.9269(3) -1.2011(3)
H19A H 0.9720 0.9759 -1.2254
C21A C 1.1601(3) 0.9310(3) -1.2635(2)
C22A C 1.2595(3) 0.8586(3) -1.2275(2)
H20A H 1.3391 0.8600 -1.2705
C23A C 1.2433(2) 0.7836(2) -1.1284(2)
H21A H 1.3125 0.7360 -1.1036
C24A C 1.1261(7) 1.1017(4) -1.3829(5)
H22A H 1.1216 1.1531 -1.3062
H23A H 1.1772 1.1553 -1.4384
H24A H 1.0348 1.0728 -1.4181
loop_
_geom_bond_atom_site_label_1
_geom_bond_atom_site_label_2
_geom_bond_site_symmetry_1
_geom_bond_site_symmetry_2
O1 C1 1_555 1_555
O2 C21 1_555 1_555
O3 C8 1_555 1_555
O4 C17 1_555 1_555
O5 C9 1_555 1_555
O6 C15 1_555 1_555
N1 H1 1_555 1_555
N2 H2 1_555 1_555
C1 H3 1_555 1_555
H4 C1 1_555 1_555
H5 C1 1_555 1_555
C2 O1 1_555 1_555
C3 C2 1_555 1_555
H6 C3 1_555 1_555
C4 C3 1_555 1_555
H7 C4 1_555 1_555
C5 N1 1_555 1_555
C6 C5 1_555 1_555
H8 C6 1_555 1_555
C7 C2 1_555 1_555
H9 C7 1_555 1_555
C8 N1 1_555 1_555
C9 C8 1_555 1_555
H10 C9 1_555 1_555
H11 C9 1_555 1_555
C10 H12 1_555 1_555
C11 O5 1_555 1_555
C12 C11 1_555 1_555
H13 C12 1_555 1_555
C13 H14 1_555 1_555
C14 H15 1_555 1_555
C15 C13 1_555 1_555
C16 O6 1_555 1_555
H16 C16 1_555 1_555
H17 C16 1_555 1_555
C17 N2 1_555 1_555
C18 N2 1_555 1_555
C19 C18 1_555 1_555
H18 C19 1_555 1_555
C20 C19 1_555 1_555
H19 C20 1_555 1_555
C21 C20 1_555 1_555
C22 C21 1_555 1_555
H20 C22 1_555 1_555
C23 C18 1_555 1_555
H21 C23 1_555 1_555
C24 O2 1_555 1_555
H22 C24 1_555 1_555
H23 C24 1_555 1_555
H24 C24 1_555 1_555
O1A C1A 1_555 1_555
O2A C21A 1_555 1_555
O3A C8A 1_555 1_555
O4A C17A 1_555 1_555
O5A C9A 1_555 1_555
O6A C15A 1_555 1_555
N1A H1A 1_555 1_555
N2A H2A 1_555 1_555
C1A H3A 1_555 1_555
H4A C1A 1_555 1_555
H5A C1A 1_555 1_555
C2A O1A 1_555 1_555
C3A C2A 1_555 1_555
H6A C3A 1_555 1_555
C4A C3A 1_555 1_555
H7A C4A 1_555 1_555
C5A N1A 1_555 1_555
C6A C5A 1_555 1_555
H8A C6A 1_555 1_555
C7A C2A 1_555 1_555
H9A C7A 1_555 1_555
C8A N1A 1_555 1_555
C9A C8A 1_555 1_555
H10A C9A 1_555 1_555
H11A C9A 1_555 1_555
C10A C12 1_555 1_555
H12A C10A 1_555 1_555
C11A O5A 1_555 1_555
C12A C10 1_555 1_555
H13A C12A 1_555 1_555
C13A C14 1_555 1_555
H14A C13A 1_555 1_555
C14A C13 1_555 1_555
H15A C14A 1_555 1_555
C15A C13A 1_555 1_555
C16A O6A 1_555 1_555
H16A C16A 1_555 1_555
H17A C16A 1_555 1_555
C17A N2A 1_555 1_555
C18A N2A 1_555 1_555
C19A C18A 1_555 1_555
H18A C19A 1_555 1_555
C20A C19A 1_555 1_555
H19A C20A 1_555 1_555
C21A C20A 1_555 1_555
C22A C21A 1_555 1_555
H20A C22A 1_555 1_555
C23A C18A 1_555 1_555
H21A C23A 1_555 1_555
C24A O2A 1_555 1_555
H22A C24A 1_555 1_555
H23A C24A 1_555 1_555
H24A C24A 1_555 1_555
C4 C5 1_555 1_555
C6 C7 1_555 1_555
C10 C11 1_555 1_555
C14 C15 1_555 1_555
C16 C17 1_555 1_555
C22 C23 1_555 1_555
C4A C5A 1_555 1_555
C6A C7A 1_555 1_555
C10A C11A 1_555 1_555
C11A C12A 1_555 1_555
C14A C15A 1_555 1_555
C16A C17A 1_555 1_555
C22A C23A 1_555 1_555

#END
