
#######################################################################
#
#                 Cambridge Crystallographic Data Centre
#                                CCDC 
#
#######################################################################
#
# If this CIF has been generated from an entry in the Cambridge 
# Structural Database, then it will include bibliographic, chemical, 
# crystal, experimental, refinement or atomic coordinate data resulting 
# from the CCDC's data processing and validation procedures.
#
#######################################################################

data_FAYDUF02
_chemical_name_common            'pioglitazone hydrochloride'
_chemical_formula_moiety         'C19 H21 N2 O3 S1 1+,Cl1 1-'
_chemical_name_systematic        
'2-(2-{4-[(2,4-dioxo-1,3-thiazolidin-5-yl)methyl]phenoxy}ethyl)-5-ethylpyridin-1-ium chloride'
_chemical_properties_biological  'oral antidiabetic agent'
_symmetry_cell_setting           monoclinic
_symmetry_space_group_name_H-M   'P 21/n'
_symmetry_Int_Tables_number      14
_space_group_name_Hall           '-P 2yn'
loop_
_symmetry_equiv_pos_site_id
_symmetry_equiv_pos_as_xyz
1 x,y,z
2 1/2-x,1/2+y,1/2-z
3 -x,-y,-z
4 1/2+x,1/2-y,1/2+z
_cell_length_a                   10.9231(4)
_cell_length_b                   12.7342(5)
_cell_length_c                   13.5217(10)
_cell_angle_alpha                90
_cell_angle_beta                 93.094(7)
_cell_angle_gamma                90
_cell_volume                     1878.09
_exptl_crystal_colour            colorless
_exptl_crystal_description       plate
_chemical_melting_point          '466.85 K'
_cell_formula_units_Z            4
_exptl_crystal_recrystallization_method methanol
loop_
_atom_site_label
_atom_site_type_symbol
_atom_site_fract_x
_atom_site_fract_y
_atom_site_fract_z
Cl1 Cl 0.12220(8) 0.15732(7) 0.64183(5)
O1 O 0.1454(2) 0.51026(18) 0.40358(15)
C1 C 0.5594(4) 0.1676(3) 0.3432(3)
H1 H 0.5788 0.2319 0.3046
C2 C 0.6380(4) 0.0777(3) 0.3092(3)
O2 O 0.6363(3) 0.0464(2) 0.22476(18)
N1 N 0.7137(3) 0.0364(3) 0.3846(2)
H2 H 0.7616 -0.0177 0.3744
C3 C 0.7109(4) 0.0830(4) 0.4761(3)
O3 O 0.7742(3) 0.0569(3) 0.5480(2)
S1 S 0.60708(10) 0.18941(9) 0.47310(8)
C4 C 0.4246(3) 0.1451(3) 0.3284(3)
H3 H 0.4066 0.1239 0.2587
H4 H 0.4039 0.0852 0.3710
C5 C 0.3441(3) 0.2364(3) 0.3515(2)
C6 C 0.3105(3) 0.2598(3) 0.4471(2)
H5 H 0.3333 0.2126 0.4993
C7 C 0.2446(3) 0.3501(3) 0.4687(2)
H6 H 0.2251 0.3648 0.5349
C8 C 0.2076(3) 0.4184(3) 0.3922(2)
C9 C 0.2356(3) 0.3936(3) 0.2958(2)
H7 H 0.2073 0.4378 0.2429
C10 C 0.3037(3) 0.3062(3) 0.2760(2)
H8 H 0.3239 0.2925 0.2097
C11 C 0.1474(3) 0.5572(3) 0.5008(2)
H9 H 0.2323 0.5614 0.5303
H10 H 0.0968 0.5162 0.5456
C12 C 0.0941(3) 0.6660(3) 0.4827(2)
H11 H 0.1492 0.7056 0.4404
H12 H 0.0140 0.6588 0.4454
C13 C 0.0762(3) 0.7282(3) 0.5741(2)
C14 C 0.1428(7) 0.7176(6) 0.6650(5)
H13 H 0.2002 0.6622 0.6757
C15 C 0.1231(6) 0.7891(5) 0.7383(5)
H14 H 0.1594 0.7773 0.8028
C16 C 0.0520(6) 0.8780(5) 0.7215(4)
C17 C -0.0058(7) 0.8893(6) 0.6279(5)
H15 H -0.0501 0.9517 0.6115
N2 N 0.0012(6) 0.8107(5) 0.5596(5)
H16 H -0.0450 0.8144 0.5043
C18 C 0.0295(6) 0.9541(5) 0.8033(4)
H17 H -0.0098 1.0178 0.7741
H18 H 0.1096 0.9754 0.8349
C19 C -0.0501(8) 0.9120(6) 0.8826(5)
H19 H -0.1306 0.8926 0.8526
H20 H -0.0603 0.9662 0.9329
H21 H -0.0111 0.8500 0.9135
H22? H 0.3719 0.0941 0.2908
H23? H 0.4846 0.1715 0.2820
C20? C 0.4924(13) 0.0867(12) 0.4021(9)
H24? H 0.4305 0.0391 0.4304
C21? C 0.5789(13) 0.0149(14) 0.3559(10)
O4? O 0.5608(17) -0.0300(15) 0.2780(10)
N3? N 0.6882(13) 0.0054(12) 0.4131(9)
H25? H 0.7451 -0.0396 0.3972
C22? C 0.7043(13) 0.0686(15) 0.4951(11)
O5? O 0.7884(12) 0.0650(13) 0.5562(9)
S2? S 0.5705(5) 0.1450(5) 0.5084(4)
C23? C 0.1175(7) 0.7016(6) 0.6714(4)
H26? H 0.1669 0.6408 0.6821
C24? C 0.0878(7) 0.7617(5) 0.7517(5)
H27? H 0.1236 0.7461 0.8156
C25? C 0.0068(7) 0.8439(6) 0.7400(5)
C26? C -0.0382(7) 0.8675(6) 0.6455(5)
H28? H -0.0979 0.9212 0.6351
N4? N 0.0035(6) 0.8132(5) 0.5668(4)
H29? H -0.0190 0.8357 0.5070
C27? C -0.0418(9) 0.9022(6) 0.8308(6)
H30? H -0.1293 0.9207 0.8180
H31? H -0.0345 0.8565 0.8901
C28? C 0.0328(9) 0.9996(7) 0.8479(7)
H32? H 0.1193 0.9807 0.8598
H33? H 0.0043 1.0371 0.9057
H34? H 0.0236 1.0450 0.7894
loop_
_geom_bond_atom_site_label_1
_geom_bond_atom_site_label_2
_geom_bond_site_symmetry_1
_geom_bond_site_symmetry_2
O1 C8 1_555 1_555
C1 H1 1_555 1_555
C2 C1 1_555 1_555
O2 C2 1_555 1_555
N1 C2 1_555 1_555
H2 N1 1_555 1_555
C3 N1 1_555 1_555
O3 C3 1_555 1_555
S1 C1 1_555 1_555
C4 C1 1_555 1_555
H3 C4 1_555 1_555
H4 C4 1_555 1_555
C5 C4 1_555 1_555
C6 C5 1_555 1_555
H5 C6 1_555 1_555
C7 C6 1_555 1_555
H6 C7 1_555 1_555
C8 C7 1_555 1_555
C9 C8 1_555 1_555
H7 C9 1_555 1_555
C10 C5 1_555 1_555
H8 C10 1_555 1_555
C11 O1 1_555 1_555
H9 C11 1_555 1_555
H10 C11 1_555 1_555
C12 C11 1_555 1_555
H11 C12 1_555 1_555
H12 C12 1_555 1_555
C13 C12 1_555 1_555
C14 C13 1_555 1_555
H13 C14 1_555 1_555
C15 C14 1_555 1_555
H14 C15 1_555 1_555
C16 C15 1_555 1_555
C17 C16 1_555 1_555
H15 C17 1_555 1_555
N2 C13 1_555 1_555
H16 N2 1_555 1_555
C18 C16 1_555 1_555
H17 C18 1_555 1_555
H18 C18 1_555 1_555
C19 C18 1_555 1_555
H19 C19 1_555 1_555
H20 C19 1_555 1_555
H21 C19 1_555 1_555
C3 S1 1_555 1_555
C9 C10 1_555 1_555
C17 N2 1_555 1_555

#END
