
#######################################################################
#
#                 Cambridge Crystallographic Data Centre
#                                CCDC 
#
#######################################################################
#
# If this CIF has been generated from an entry in the Cambridge 
# Structural Database, then it will include bibliographic, chemical, 
# crystal, experimental, refinement or atomic coordinate data resulting 
# from the CCDC's data processing and validation procedures.
#
#######################################################################

data_FAYFIU
_chemical_formula_moiety         'C6 H9 N3 O2'
_chemical_name_systematic        1,3-Dimethyl-6-azathymine
_symmetry_cell_setting           orthorhombic
_symmetry_space_group_name_H-M   'P 21 21 21'
_symmetry_Int_Tables_number      19
_space_group_name_Hall           'P 2ac 2ab'
loop_
_symmetry_equiv_pos_site_id
_symmetry_equiv_pos_as_xyz
1 x,y,z
2 1/2+x,1/2-y,-z
3 -x,1/2+y,1/2-z
4 1/2-x,-y,1/2+z
_cell_length_a                   6.757(2)
_cell_length_b                   8.499(2)
_cell_length_c                   13.122(3)
_cell_angle_alpha                90
_cell_angle_beta                 90
_cell_angle_gamma                90
_cell_volume                     753.567
_cell_formula_units_Z            4
loop_
_atom_site_label
_atom_site_type_symbol
_atom_site_fract_x
_atom_site_fract_y
_atom_site_fract_z
N1 N 0.0014(16) 0.5945(6) 1.0867(4)
N2 N 0.0009(16) 0.7450(6) 1.1160(4)
C1 C 0.0024(17) 0.8718(7) 1.0499(4)
N3 N -0.0033(16) 0.8334(5) 0.9479(4)
C2 C -0.0102(16) 0.6809(7) 0.9135(5)
C3 C 0.0025(17) 0.5636(7) 0.9895(4)
C4 C -0.0188(16) 0.3955(8) 0.9544(6)
C5 C 0.0144(16) 0.7779(9) 1.2270(5)
O1 O -0.0145(15) 1.0075(5) 1.0794(4)
C6 C 0.0223(16) 0.9583(7) 0.8713(5)
O2 O -0.0006(16) 0.6505(6) 0.8216(4)
loop_
_geom_bond_atom_site_label_1
_geom_bond_atom_site_label_2
_geom_bond_site_symmetry_1
_geom_bond_site_symmetry_2
N1 N2 1_555 1_555
N2 C1 1_555 1_555
C1 N3 1_555 1_555
N3 C2 1_555 1_555
C2 C3 1_555 1_555
C3 N1 1_555 1_555
C4 C3 1_555 1_555
C5 N2 1_555 1_555
O1 C1 1_555 1_555
C6 N3 1_555 1_555
O2 C2 1_555 1_555

#END
