
#######################################################################
#
#                 Cambridge Crystallographic Data Centre
#                                CCDC 
#
#######################################################################
#
# If this CIF has been generated from an entry in the Cambridge 
# Structural Database, then it will include bibliographic, chemical, 
# crystal, experimental, refinement or atomic coordinate data resulting 
# from the CCDC's data processing and validation procedures.
#
#######################################################################

data_FAYFOA
_chemical_formula_moiety         'C9 H12 N4 O2'
_chemical_name_systematic        
6S,8R-1,3-Dimethyl-1,6-cyanoethylene-6-azathymine
_symmetry_cell_setting           orthorhombic
_symmetry_space_group_name_H-M   'P 21 21 21'
_symmetry_Int_Tables_number      19
_space_group_name_Hall           'P 2ac 2ab'
loop_
_symmetry_equiv_pos_site_id
_symmetry_equiv_pos_as_xyz
1 x,y,z
2 1/2+x,1/2-y,-z
3 -x,1/2+y,1/2-z
4 1/2-x,-y,1/2+z
_cell_length_a                   7.739(3)
_cell_length_b                   11.217(4)
_cell_length_c                   11.923(5)
_cell_angle_alpha                90
_cell_angle_beta                 90
_cell_angle_gamma                90
_cell_volume                     1035.02
_cell_formula_units_Z            4
loop_
_atom_site_label
_atom_site_type_symbol
_atom_site_fract_x
_atom_site_fract_y
_atom_site_fract_z
N1 N 0.2045(10) 0.1321(5) 0.6494(7)
N2 N 0.2111(11) 0.1673(7) 0.7608(7)
C1 C 0.0760(11) 0.1459(8) 0.8361(10)
N3 N -0.0699(10) 0.0897(6) 0.7914(7)
C2 C -0.1088(14) 0.0799(8) 0.6755(8)
C3 C 0.0355(12) 0.1140(8) 0.6017(8)
C4 C 0.1075(13) 0.0053(10) 0.5349(9)
C5 C 0.2621(14) 0.0114(8) 0.6175(8)
C6 C 0.3611(15) 0.2360(9) 0.7952(10)
C7 C -0.2010(16) 0.0571(10) 0.8710(9)
C8 C -0.0197(14) 0.2204(9) 0.5268(8)
C9 C 0.2530(14) -0.0786(8) 0.7043(7)
N4 N 0.2477(15) -0.1474(7) 0.7756(8)
O1 O 0.0807(10) 0.1800(6) 0.9325(6)
O2 O -0.2457(11) 0.0420(1) 0.6450(6)
loop_
_geom_bond_atom_site_label_1
_geom_bond_atom_site_label_2
_geom_bond_site_symmetry_1
_geom_bond_site_symmetry_2
N1 N2 1_555 1_555
N2 C1 1_555 1_555
C1 N3 1_555 1_555
N3 C2 1_555 1_555
C2 C3 1_555 1_555
C3 N1 1_555 1_555
C4 C3 1_555 1_555
C5 N1 1_555 1_555
C6 N2 1_555 1_555
C7 N3 1_555 1_555
C8 C3 1_555 1_555
C9 C5 1_555 1_555
N4 C9 1_555 1_555
O1 C1 1_555 1_555
O2 C2 1_555 1_555
C4 C5 1_555 1_555

#END
