
#######################################################################
#
#                 Cambridge Crystallographic Data Centre
#                                CCDC 
#
#######################################################################
#
# If this CIF has been generated from an entry in the Cambridge 
# Structural Database, then it will include bibliographic, chemical, 
# crystal, experimental, refinement or atomic coordinate data resulting 
# from the CCDC's data processing and validation procedures.
#
#######################################################################

data_FAYFAN
_chemical_formula_moiety         'C3 H8 N6 2+,2(C2 H1 O4 1-)'
_chemical_name_systematic        'Melaminium bis(hydrogen oxalate)'
_symmetry_cell_setting           monoclinic
_symmetry_space_group_name_H-M   'C 2/c'
_symmetry_Int_Tables_number      15
_space_group_name_Hall           '-C 2yn'
loop_
_symmetry_equiv_pos_site_id
_symmetry_equiv_pos_as_xyz
1 x,y,z
2 1/2+x,1/2+y,z
3 -x,y,1/2-z
4 1/2-x,1/2+y,1/2-z
5 -x,-y,-z
6 1/2-x,1/2-y,-z
7 x,-y,1/2+z
8 1/2+x,1/2-y,1/2+z
_cell_length_a                   20.829(2)
_cell_length_b                   8.4280(10)
_cell_length_c                   6.8415(8)
_cell_angle_alpha                90
_cell_angle_beta                 108.402(2)
_cell_angle_gamma                90
_cell_volume                     1139.59
_exptl_crystal_colour            colorless
_exptl_crystal_description       block
_cell_formula_units_Z            4
_exptl_crystal_recrystallization_method aqueous
loop_
_atom_site_label
_atom_site_type_symbol
_atom_site_fract_x
_atom_site_fract_y
_atom_site_fract_z
O1 O 0.39408(6) 0.33040(10) 0.5019(2)
O2 O 0.33277(6) 0.55290(10) 0.4576(2)
O3 O 0.28898(6) 0.18790(10) 0.2248(2)
O4 O 0.22063(5) 0.36290(10) 0.3048(2)
C3 C 0.34060(10) 0.4069(2) 0.4346(2)
C4 C 0.27650(10) 0.3165(2) 0.3126(2)
H1 H 0.2510(10) 0.141(2) 0.164(3)
N1 N 0.5000 0.5051(2) 0.7500
N2 N 0.44680(10) 0.7417(2) 0.6298(2)
N3 N 0.39420(10) 0.9795(2) 0.5160(2)
N4 N 0.5000 0.9864(2) 0.7500
C1 C 0.5000 0.6586(2) 0.7500
C2 C 0.44746(7) 0.9047(2) 0.6330(2)
H2 H 0.4650(10) 0.458(2) 0.672(3)
H3 H 0.4120(10) 0.688(2) 0.567(3)
H4 H 0.3930(10) 1.0800(10) 0.517(3)
H5 H 0.3600(10) 0.930(2) 0.437(3)
N2B N 0.55320(10) 0.7417(2) 0.8702(2)
N3B N 0.60580(10) 0.9795(2) 0.9840(2)
C2B C 0.55254(7) 0.9047(2) 0.8670(2)
H2B H 0.5350(10) 0.458(2) 0.828(3)
H3B H 0.5880(10) 0.688(2) 0.933(3)
H4B H 0.6070(10) 1.0800(10) 0.983(3)
H5B H 0.6400(10) 0.930(2) 1.063(3)
loop_
_geom_bond_atom_site_label_1
_geom_bond_atom_site_label_2
_geom_bond_site_symmetry_1
_geom_bond_site_symmetry_2
O1 C3 1_555 1_555
O2 C3 1_555 1_555
O3 C4 1_555 1_555
O4 C4 1_555 1_555
N1 C1 1_555 1_555
N2 C1 1_555 1_555
N3 C2 1_555 1_555
N4 C2 1_555 1_555
C1 N2B 1_555 1_555
C2 N2 1_555 1_555
C3 C4 1_555 1_555
H1 O3 1_555 1_555
H2 N1 1_555 1_555
H3 N2 1_555 1_555
H4 N3 1_555 1_555
H5 N3 1_555 1_555
N2B C2B 1_555 1_555
N3B C2B 1_555 1_555
C2B N4 1_555 1_555
H2B N1 1_555 1_555
H3B N2B 1_555 1_555
H4B N3B 1_555 1_555
H5B N3B 1_555 1_555

#END
