
#######################################################################
#
#                 Cambridge Crystallographic Data Centre
#                                CCDC 
#
#######################################################################
#
# If this CIF has been generated from an entry in the Cambridge 
# Structural Database, then it will include bibliographic, chemical, 
# crystal, experimental, refinement or atomic coordinate data resulting 
# from the CCDC's data processing and validation procedures.
#
#######################################################################

data_FAYGAO
_chemical_formula_moiety         'C10 H15 N3 O3'
_chemical_name_systematic        
6S,8R-1,3-Dimethyl-1,6-acetylethylene-6-azathymine
_symmetry_cell_setting           orthorhombic
_symmetry_space_group_name_H-M   'P c 21 n'
_symmetry_Int_Tables_number      33
_space_group_name_Hall           'P -2n -2ac'
loop_
_symmetry_equiv_pos_site_id
_symmetry_equiv_pos_as_xyz
1 x,y,z
2 1/2-x,y,1/2+z
3 1/2+x,1/2+y,1/2-z
4 -x,1/2+y,-z
_cell_length_a                   11.046(3)
_cell_length_b                   12.263(4)
_cell_length_c                   16.411(4)
_cell_angle_alpha                90
_cell_angle_beta                 90
_cell_angle_gamma                90
_cell_volume                     2222.99
_cell_formula_units_Z            8
loop_
_atom_site_label
_atom_site_type_symbol
_atom_site_fract_x
_atom_site_fract_y
_atom_site_fract_z
N1 N 0.7293(1) 0.3847(4) 0.5314(2)
N2 N 0.8380(3) 0.4332(5) 0.5077(3)
C1 C 0.8346(5) 0.5409(6) 0.4784(12)
N3 N 0.7245(3) 0.5979(3) 0.4824(8)
C2 C 0.6148(3) 0.5527(1) 0.5013(8)
C3 C 0.6105(2) 0.4269(1) 0.5098(1)
C4 C 0.5687(9) 0.3891(12) 0.5944(4)
C5 C 0.7028(2) 0.3799(3) 0.6205(2)
C6 C 0.9480(8) 0.3687(11) 0.5051(12)
O1 O 0.9242(6) 0.5843(9) 0.4548(6)
C7 C 0.7295(17) 0.7181(2) 0.4711(10)
O2 O 0.5264(5) 0.5995(7) 0.5199(6)
C8 C 0.5563(13) 0.3844(13) 0.4326(5)
C9 C 0.7298(14) 0.4739(4) 0.6798(1)
C10 C 0.7063(18) 0.4392(13) 0.7670(4)
O3 O 0.7606(11) 0.5589(5) 0.6523(6)
N4 N 0.2898(1) 0.6255(3) 0.2122(2)
N5 N 0.1959(3) 0.5689 0.2502(4)
C11 C 0.1903(4) 0.4572(3) 0.2693(8)
N6 N 0.3062(3) 0.4128(3) 0.2577(7)
C12 C 0.4157(3) 0.4523(2) 0.2324(7)
C13 C 0.4087(4) 0.5783(2) 0.2266(2)
C14 C 0.4430(1) 0.6242(12) 0.1427(4)
C15 C 0.3068(1) 0.6334(2) 0.1223(2)
C16 C 0.0834(10) 0.6287(14) 0.2595(12)
C17 C 0.3050(14) 0.2927(3) 0.2705(13)
O4 O 0.1003(5) 0.4108(8) 0.2887(8)
O5 O 0.5040(5) 0.4013(8) 0.2209(8)
C18 C 0.4769(11) 0.6294(11) 0.2954(6)
C19 C 0.2594(13) 0.5371(5) 0.0714(2)
C20 C 0.2655(13) 0.5620(12) -0.0189(2)
O6 O 0.2129(12) 0.4553(7) 0.0939(10)
loop_
_geom_bond_atom_site_label_1
_geom_bond_atom_site_label_2
_geom_bond_site_symmetry_1
_geom_bond_site_symmetry_2
N1 N2 1_555 1_555
N2 C1 1_555 1_555
C1 N3 1_555 1_555
N3 C2 1_555 1_555
C2 C3 1_555 1_555
C3 N1 1_555 1_555
C4 C3 1_555 1_555
C5 N1 1_555 1_555
C6 N2 1_555 1_555
O1 C1 1_555 1_555
C7 N3 1_555 1_555
O2 C2 1_555 1_555
C8 C3 1_555 1_555
C9 C5 1_555 1_555
C10 C9 1_555 1_555
O3 C9 1_555 1_555
N4 N5 1_555 1_555
N5 C11 1_555 1_555
C11 N6 1_555 1_555
N6 C12 1_555 1_555
C12 C13 1_555 1_555
C13 N4 1_555 1_555
C14 C13 1_555 1_555
C15 N4 1_555 1_555
C16 N5 1_555 1_555
C17 N6 1_555 1_555
O4 C11 1_555 1_555
O5 C12 1_555 1_555
C18 C13 1_555 1_555
C19 C15 1_555 1_555
C20 C19 1_555 1_555
O6 C19 1_555 1_555
C4 C5 1_555 1_555
C14 C15 1_555 1_555

#END
