
#######################################################################
#
#                 Cambridge Crystallographic Data Centre
#                                CCDC 
#
#######################################################################
#
# If this CIF has been generated from an entry in the Cambridge 
# Structural Database, then it will include bibliographic, chemical, 
# crystal, experimental, refinement or atomic coordinate data resulting 
# from the CCDC's data processing and validation procedures.
#
#######################################################################

data_FAYGAN
_chemical_formula_moiety         'C10 H15 N3 O3'
_chemical_name_systematic        
6R,8R-1,3-Dimethyl-1,6-acetylethylene-6-azathymine
_symmetry_cell_setting           orthorhombic
_symmetry_space_group_name_H-M   'P 21 21 21'
_symmetry_Int_Tables_number      19
_space_group_name_Hall           'P 2ac 2ab'
loop_
_symmetry_equiv_pos_site_id
_symmetry_equiv_pos_as_xyz
1 x,y,z
2 1/2+x,1/2-y,-z
3 -x,1/2+y,1/2-z
4 1/2-x,-y,1/2+z
_cell_length_a                   7.003(2)
_cell_length_b                   8.450(2)
_cell_length_c                   19.321(4)
_cell_angle_alpha                90
_cell_angle_beta                 90
_cell_angle_gamma                90
_cell_volume                     1143.33
_cell_formula_units_Z            4
loop_
_atom_site_label
_atom_site_type_symbol
_atom_site_fract_x
_atom_site_fract_y
_atom_site_fract_z
N1 N 0.0301(8) 0.9878(7) -0.1368(3)
N2 N 0.1022(10) 0.8482(8) -0.1085(4)
C1 C 0.1455(13) 0.8325(11) -0.0383(5)
N3 N 0.0905(8) 0.9658(7) 0.0020(3)
C2 C -0.0449(9) 1.0737(9) -0.0153(4)
C3 C -0.0948(11) 1.0833(9) -0.0916(4)
C4 C -0.0009(11) 1.2341(10) -0.1226(5)
C5 C 0.1646(11) 1.1233(9) -0.1441(4)
C6 C 0.1345(16) 0.7177(11) -0.1561(5)
C7 C 0.1469(15) 0.9489(13) 0.0755(5)
C8 C -0.3083(13) 1.0585(10) -0.1033(5)
C9 C 0.2561(13) 1.1406(12) -0.2151(4)
C10 C 0.3333(14) 1.3046(11) -0.2293(5)
O1 O 0.2224(9) 0.7180(7) -0.0156(3)
O2 O -0.1164(7) 1.1607(7) 0.0266(2)
O3 O 0.2605(12) 1.0317(7) -0.2552(3)
loop_
_geom_bond_atom_site_label_1
_geom_bond_atom_site_label_2
_geom_bond_site_symmetry_1
_geom_bond_site_symmetry_2
N1 N2 1_555 1_555
N2 C1 1_555 1_555
C1 N3 1_555 1_555
N3 C2 1_555 1_555
C2 C3 1_555 1_555
C3 N1 1_555 1_555
C4 C3 1_555 1_555
C5 N1 1_555 1_555
C6 N2 1_555 1_555
C7 N3 1_555 1_555
C8 C3 1_555 1_555
C9 C5 1_555 1_555
C10 C9 1_555 1_555
O1 C1 1_555 1_555
O2 C2 1_555 1_555
O3 C9 1_555 1_555
C4 C5 1_555 1_555

#END
