
#######################################################################
#
#                 Cambridge Crystallographic Data Centre
#                                CCDC 
#
#######################################################################
#
# If this CIF has been generated from an entry in the Cambridge 
# Structural Database, then it will include bibliographic, chemical, 
# crystal, experimental, refinement or atomic coordinate data resulting 
# from the CCDC's data processing and validation procedures.
#
#######################################################################

data_FAYHAP
_chemical_formula_moiety         'C30 H32 N2'
_chemical_name_systematic        N,N,N',N'-Tetrabenzylethylenediamine
_symmetry_cell_setting           triclinic
_symmetry_space_group_name_H-M   'P -1'
_symmetry_Int_Tables_number      2
_space_group_name_Hall           '-P 1'
loop_
_symmetry_equiv_pos_site_id
_symmetry_equiv_pos_as_xyz
1 x,y,z
2 -x,-y,-z
_cell_length_a                   5.8718(19)
_cell_length_b                   10.202(3)
_cell_length_c                   10.629(3)
_cell_angle_alpha                97.621(6)
_cell_angle_beta                 101.621(6)
_cell_angle_gamma                93.951(6)
_cell_volume                     615.155
_exptl_crystal_colour            colorless
_exptl_crystal_description       block
_chemical_melting_point          '367-368 K'
_cell_formula_units_Z            1
_exptl_crystal_recrystallization_method 'hot ethanol'
loop_
_atom_site_label
_atom_site_type_symbol
_atom_site_fract_x
_atom_site_fract_y
_atom_site_fract_z
N1 N 0.1624(3) 0.89967(17) 0.11889(15)
C1 C 0.1257(4) 0.9999(2) 0.0326(2)
H1 H 0.2173 0.9836 -0.0334
H2 H 0.1816 1.0869 0.0824
C2 C 0.1482(5) 0.7662(2) 0.0451(2)
H3 H 0.2831 0.7599 0.0057
H4 H 0.0098 0.7534 -0.0244
C3 C 0.1387(4) 0.6576(2) 0.1262(2)
C4 C -0.0290(5) 0.6475(3) 0.1982(3)
H5 H -0.1357 0.7108 0.1985
C5 C -0.0430(6) 0.5458(3) 0.2700(3)
H6 H -0.1578 0.5411 0.3184
C6 C 0.1100(7) 0.4527(3) 0.2702(3)
H7 H 0.0990 0.3832 0.3178
C7 C 0.2796(6) 0.4607(3) 0.2009(3)
H8 H 0.3867 0.3976 0.2023
C8 C 0.2931(5) 0.5625(3) 0.1283(3)
H9 H 0.4085 0.5667 0.0802
C9 C 0.3883(4) 0.9282(2) 0.2101(2)
H10 H 0.5094 0.9401 0.1615
H11 H 0.4186 0.8520 0.2545
C10 C 0.4045(4) 1.0486(2) 0.3094(2)
C11 C 0.5914(4) 1.1445(3) 0.3357(2)
H12 H 0.7052 1.1372 0.2864
C12 C 0.6142(6) 1.2505(3) 0.4328(3)
H13 H 0.7420 1.3140 0.4484
C13 C 0.4504(6) 1.2627(3) 0.5061(3)
H14 H 0.4667 1.3336 0.5730
C14 C 0.2604(5) 1.1697(3) 0.4808(2)
H15 H 0.1458 1.1785 0.5295
C15 C 0.2391(4) 1.0633(2) 0.3835(2)
H16 H 0.1104 1.0004 0.3677
N1A N -0.1624(3) 1.10033(17) -0.11889(15)
C1A C -0.1257(4) 1.0001(2) -0.0326(2)
H1A H -0.2173 1.0164 0.0334
H2A H -0.1816 0.9131 -0.0824
C2A C -0.1482(5) 1.2338(2) -0.0451(2)
H3A H -0.2831 1.2401 -0.0057
H4A H -0.0098 1.2466 0.0244
C3A C -0.1387(4) 1.3424(2) -0.1262(2)
C4A C 0.0290(5) 1.3525(3) -0.1982(3)
H5A H 0.1357 1.2892 -0.1985
C5A C 0.0430(6) 1.4542(3) -0.2700(3)
H6A H 0.1578 1.4589 -0.3184
C6A C -0.1100(7) 1.5473(3) -0.2702(3)
H7A H -0.0990 1.6168 -0.3178
C7A C -0.2796(6) 1.5393(3) -0.2009(3)
H8A H -0.3867 1.6024 -0.2023
C8A C -0.2931(5) 1.4375(3) -0.1283(3)
H9A H -0.4085 1.4333 -0.0802
C9A C -0.3883(4) 1.0718(2) -0.2101(2)
H10A H -0.5094 1.0599 -0.1615
H11A H -0.4186 1.1480 -0.2545
C10A C -0.4045(4) 0.9514(2) -0.3094(2)
C11A C -0.5914(4) 0.8555(3) -0.3357(2)
H12A H -0.7052 0.8628 -0.2864
C12A C -0.6142(6) 0.7495(3) -0.4328(3)
H13A H -0.7420 0.6860 -0.4484
C13A C -0.4504(6) 0.7373(3) -0.5061(3)
H14A H -0.4667 0.6664 -0.5730
C14A C -0.2604(5) 0.8303(3) -0.4808(2)
H15A H -0.1458 0.8215 -0.5295
C15A C -0.2391(4) 0.9367(2) -0.3835(2)
H16A H -0.1104 0.9996 -0.3677
loop_
_geom_bond_atom_site_label_1
_geom_bond_atom_site_label_2
_geom_bond_site_symmetry_1
_geom_bond_site_symmetry_2
N1 C1 1_555 1_555
C1 H1 1_555 1_555
H2 C1 1_555 1_555
C2 N1 1_555 1_555
H3 C2 1_555 1_555
H4 C2 1_555 1_555
C3 C2 1_555 1_555
C4 C3 1_555 1_555
H5 C4 1_555 1_555
C5 C4 1_555 1_555
H6 C5 1_555 1_555
C6 C5 1_555 1_555
H7 C6 1_555 1_555
C7 C6 1_555 1_555
H8 C7 1_555 1_555
C8 C3 1_555 1_555
H9 C8 1_555 1_555
C9 N1 1_555 1_555
H10 C9 1_555 1_555
H11 C9 1_555 1_555
C10 C9 1_555 1_555
C11 C10 1_555 1_555
H12 C11 1_555 1_555
C12 C11 1_555 1_555
H13 C12 1_555 1_555
C13 C12 1_555 1_555
H14 C13 1_555 1_555
C14 C13 1_555 1_555
H15 C14 1_555 1_555
C15 C10 1_555 1_555
H16 C15 1_555 1_555
N1A C1A 1_555 1_555
C1A C1 1_555 1_555
H1A C1A 1_555 1_555
H2A C1A 1_555 1_555
C2A N1A 1_555 1_555
H3A C2A 1_555 1_555
H4A C2A 1_555 1_555
C3A C2A 1_555 1_555
C4A C3A 1_555 1_555
H5A C4A 1_555 1_555
C5A C4A 1_555 1_555
H6A C5A 1_555 1_555
C6A C5A 1_555 1_555
H7A C6A 1_555 1_555
C7A C6A 1_555 1_555
H8A C7A 1_555 1_555
C8A C3A 1_555 1_555
H9A C8A 1_555 1_555
C9A N1A 1_555 1_555
H10A C9A 1_555 1_555
H11A C9A 1_555 1_555
C10A C9A 1_555 1_555
C11A C10A 1_555 1_555
H12A C11A 1_555 1_555
C12A C11A 1_555 1_555
H13A C12A 1_555 1_555
C13A C12A 1_555 1_555
H14A C13A 1_555 1_555
C14A C13A 1_555 1_555
H15A C14A 1_555 1_555
C15A C10A 1_555 1_555
H16A C15A 1_555 1_555
C7 C8 1_555 1_555
C14 C15 1_555 1_555
C7A C8A 1_555 1_555
C14A C15A 1_555 1_555

#END
