
#######################################################################
#
#                 Cambridge Crystallographic Data Centre
#                                CCDC 
#
#######################################################################
#
# If this CIF has been generated from an entry in the Cambridge 
# Structural Database, then it will include bibliographic, chemical, 
# crystal, experimental, refinement or atomic coordinate data resulting 
# from the CCDC's data processing and validation procedures.
#
#######################################################################

data_FAYHUL
_chemical_formula_moiety         'C20 H21 N1 O2 S1'
_chemical_name_systematic        
6-methyl-3-((4-methylphenyl)sulfonyl)-1-phenyl-3-azabicyclo[4.1.0]hept-4-ene
_symmetry_cell_setting           orthorhombic
_symmetry_space_group_name_H-M   'P 21 21 21'
_symmetry_Int_Tables_number      19
_space_group_name_Hall           'P 2ac 2ab'
loop_
_symmetry_equiv_pos_site_id
_symmetry_equiv_pos_as_xyz
1 x,y,z
2 1/2-x,-y,1/2+z
3 -x,1/2+y,1/2-z
4 1/2+x,1/2-y,-z
_cell_length_a                   7.1089(3)
_cell_length_b                   13.2422(5)
_cell_length_c                   19.3781(7)
_cell_angle_alpha                90
_cell_angle_beta                 90
_cell_angle_gamma                90
_cell_volume                     1824.21
_exptl_crystal_colour            colorless
_exptl_crystal_description       plate
_cell_formula_units_Z            4
loop_
_atom_site_label
_atom_site_type_symbol
_atom_site_fract_x
_atom_site_fract_y
_atom_site_fract_z
S1 S 0.58245(15) 0.61959(7) 0.37943(5)
O1 O 0.4747(6) 0.7050(2) 0.35887(17)
O2 O 0.7658(5) 0.6035(2) 0.35098(16)
N1 N 0.4571(5) 0.5190(3) 0.35898(17)
C1 C 0.2587(6) 0.5242(3) 0.3641(2)
H1 H 0.201953 0.585671 0.374319
C2 C 0.1527(6) 0.4438(4) 0.3546(2)
H2 H 0.023116 0.450589 0.359327
C3 C 0.2295(6) 0.3429(3) 0.3369(2)
C4 C 0.3585(6) 0.3404(4) 0.2742(2)
H3 H 0.356594 0.280206 0.245646
H4 H 0.377716 0.402995 0.249188
C5 C 0.4428(5) 0.3318(3) 0.34494(18)
C6 C 0.5454(5) 0.4210(3) 0.3756(2)
H5 H 0.549883 0.413275 0.425386
H6 H 0.673906 0.421227 0.358764
C7 C 0.1040(7) 0.2528(4) 0.3510(3)
H7 H 0.083861 0.246590 0.399844
H8 H 0.163124 0.192664 0.333956
H9 H -0.014697 0.262182 0.328263
C8 C 0.5287(5) 0.2343(3) 0.3687(2)
C9 C 0.6218(6) 0.1702(3) 0.3230(2)
H10 H 0.622069 0.184527 0.276044
C10 C 0.7135(7) 0.0856(4) 0.3471(3)
H11 H 0.774399 0.042885 0.316260
C11 C 0.7157(7) 0.0636(4) 0.4167(3)
H12 H 0.779460 0.007060 0.432799
C12 C 0.6230(8) 0.1259(4) 0.4619(3)
H13 H 0.623455 0.110850 0.508744
C13 C 0.5292(7) 0.2105(3) 0.4387(2)
H14 H 0.466190 0.251786 0.469854
C14 C 0.6040(6) 0.6213(3) 0.4700(2)
C15 C 0.7393(6) 0.5637(3) 0.5024(2)
H15 H 0.822983 0.525405 0.476411
C16 C 0.7506(7) 0.5629(4) 0.5731(2)
H16 H 0.841514 0.523370 0.594611
C17 C 0.6281(6) 0.6201(4) 0.6132(2)
C18 C 0.4945(7) 0.6776(4) 0.5796(3)
H17 H 0.412396 0.716763 0.605684
C19 C 0.4786(7) 0.6790(3) 0.5088(3)
H18 H 0.386181 0.717551 0.487354
C20 C 0.6429(9) 0.6183(6) 0.6908(3)
H19 H 0.649079 0.549620 0.706409
H20 H 0.534489 0.650595 0.710443
H21 H 0.754413 0.653602 0.704853
loop_
_geom_bond_atom_site_label_1
_geom_bond_atom_site_label_2
_geom_bond_site_symmetry_1
_geom_bond_site_symmetry_2
S1 O1 1_555 1_555
O2 S1 1_555 1_555
N1 S1 1_555 1_555
C1 N1 1_555 1_555
H1 C1 1_555 1_555
C2 C1 1_555 1_555
H2 C2 1_555 1_555
C3 C2 1_555 1_555
C4 C3 1_555 1_555
H3 C4 1_555 1_555
H4 C4 1_555 1_555
C5 C3 1_555 1_555
C6 N1 1_555 1_555
H5 C6 1_555 1_555
H6 C6 1_555 1_555
C7 C3 1_555 1_555
H7 C7 1_555 1_555
H8 C7 1_555 1_555
H9 C7 1_555 1_555
C8 C5 1_555 1_555
C9 C8 1_555 1_555
H10 C9 1_555 1_555
C10 C9 1_555 1_555
H11 C10 1_555 1_555
C11 C10 1_555 1_555
H12 C11 1_555 1_555
C12 C11 1_555 1_555
H13 C12 1_555 1_555
C13 C8 1_555 1_555
H14 C13 1_555 1_555
C14 S1 1_555 1_555
C15 C14 1_555 1_555
H15 C15 1_555 1_555
C16 C15 1_555 1_555
H16 C16 1_555 1_555
C17 C16 1_555 1_555
C18 C17 1_555 1_555
H17 C18 1_555 1_555
C19 C14 1_555 1_555
H18 C19 1_555 1_555
C20 C17 1_555 1_555
H19 C20 1_555 1_555
H20 C20 1_555 1_555
H21 C20 1_555 1_555
C4 C5 1_555 1_555
C5 C6 1_555 1_555
C12 C13 1_555 1_555
C18 C19 1_555 1_555

#END
