
#######################################################################
#
#                 Cambridge Crystallographic Data Centre
#                                CCDC 
#
#######################################################################
#
# If this CIF has been generated from an entry in the Cambridge 
# Structural Database, then it will include bibliographic, chemical, 
# crystal, experimental, refinement or atomic coordinate data resulting 
# from the CCDC's data processing and validation procedures.
#
#######################################################################

data_FAYJAS
_chemical_name_common            
"1,3,9(1,3),7(3,1)-Tetraimidazola-2,8(2,6)-dipyridina-5,11(1,4)-dibenzenacyclododecaphane-1$3!,3$3!,7$3!,9$3!-tetra-ium bis(naphthalene-2,6-dicarboxylate) biphenyl-3,3',4,4'-tetramine heptadecahydrate"
_chemical_formula_moiety         
'C38 H34 N10 4+,2(C12 H6 O4 2-),C12 H14 N4,17(H2 O1)'
_chemical_name_systematic        
"6,12,25,31,42,47-Hexaaza-3,15,22,34-tetraazonianonacyclo[34.2.2.2^17,20^.1^3,6^.1^7,11^.1^12,15^.1^22,25^.1^26,30^.1^31,34^]octatetraconta-1(38),3(48),4,7(47),8,10,13,15(46),17,19,22(43),23,26(42),27,29,32,34(41),36,39,44-icosaene bis(naphthalene-2,6-dicarboxylate) biphenyl-3,3',4,4'-tetramine heptadecahydrate"
_symmetry_cell_setting           triclinic
_symmetry_space_group_name_H-M   'P -1'
_symmetry_Int_Tables_number      2
_space_group_name_Hall           '-P 1'
loop_
_symmetry_equiv_pos_site_id
_symmetry_equiv_pos_as_xyz
1 x,y,z
2 -x,-y,-z
_cell_length_a                   11.500(2)
_cell_length_b                   13.854(3)
_cell_length_c                   15.172(3)
_cell_angle_alpha                65.19(3)
_cell_angle_beta                 71.09(3)
_cell_angle_gamma                65.93(3)
_cell_volume                     1968.93
_exptl_crystal_colour            pink
_exptl_crystal_description       prism
_cell_formula_units_Z            1
_exptl_crystal_recrystallization_method acetonitrile/water
loop_
_atom_site_label
_atom_site_type_symbol
_atom_site_fract_x
_atom_site_fract_y
_atom_site_fract_z
N6 N 1.0474(3) 0.6060(2) 0.6828(2)
H1 H 0.9686 0.6492 0.6811
H2 H 1.1004 0.6005 0.6287
N7 N 1.3039(3) 0.4644(2) 0.6880(2)
H3 H 1.3822 0.4201 0.6901
H4 H 1.2779 0.5006 0.6323
C26 C 1.2197(3) 0.4775(2) 0.7743(3)
C27 C 1.2577(3) 0.4213(3) 0.8638(3)
H25 H 1.3432 0.3751 0.8654
C28 C 1.1764(3) 0.4292(2) 0.9524(2)
H26 H 1.2083 0.3910 1.0111
C29 C 1.0452(3) 0.4953(2) 0.9532(2)
C30 C 1.0060(3) 0.5519(2) 0.8616(2)
H27 H 0.9201 0.5966 0.8596
C31 C 1.0896(3) 0.5443(2) 0.7738(3)
N6A N 0.9526(3) 0.3940(2) 1.3172(2)
H1A H 1.0314 0.3508 1.3189
H2A H 0.8996 0.3995 1.3713
N7A N 0.6961(3) 0.5356(2) 1.3120(2)
H3A H 0.6178 0.5799 1.3099
H4A H 0.7221 0.4994 1.3677
C26A C 0.7803(3) 0.5225(2) 1.2257(3)
C27A C 0.7423(3) 0.5787(3) 1.1362(3)
H25A H 0.6568 0.6249 1.1346
C28A C 0.8236(3) 0.5708(2) 1.0476(2)
H26A H 0.7917 0.6090 0.9889
C29A C 0.9548(3) 0.5047(2) 1.0468(2)
C30A C 0.9940(3) 0.4481(2) 1.1384(2)
H27A H 1.0799 0.4034 1.1404
C31A C 0.9104(3) 0.4557(2) 1.2262(3)
C20 C 0.9160(3) 0.1552(2) 0.7264(2)
C21 C 0.9681(2) 0.0907(2) 0.8214(2)
C22 C 1.1005(3) 0.0221(2) 0.8198(2)
H22 H 1.1552 0.0186 0.7600
C23 C 1.1472(3) -0.0383(2) 0.9056(2)
H23 H 1.2337 -0.0827 0.9035
C24 C 1.0649(2) -0.0346(2) 0.9996(2)
C25 C 1.1115(3) -0.0968(2) 1.0896(2)
H24 H 1.1973 -0.1425 1.0886
O1 O 0.7938(2) 0.18774(19) 0.73290(16)
O2 O 0.9960(2) 0.17273(18) 0.64672(15)
C20A C 1.0840(3) -0.1552(2) 1.2736(2)
C21A C 1.0319(2) -0.0907(2) 1.1786(2)
C22A C 0.8995(3) -0.0221(2) 1.1802(2)
H22A H 0.8448 -0.0186 1.2400
C23A C 0.8528(3) 0.0383(2) 1.0944(2)
H23A H 0.7663 0.0827 1.0965
C24A C 0.9351(2) 0.0346(2) 1.0004(2)
C25A C 0.8885(3) 0.0968(2) 0.9104(2)
H24A H 0.8027 0.1425 0.9114
O1A O 1.2062(2) -0.18774(19) 1.26710(16)
O2A O 1.0040(2) -0.17273(18) 1.35328(15)
C32 C 1.4749(3) 0.2812(2) 1.0328(2)
C33 C 1.3750(3) 0.1234(2) 1.1059(2)
H28 H 1.3182 0.1560 1.1528
C34 C 1.4644(3) 0.1754(2) 1.0344(2)
C35 C 1.5451(3) 0.1269(2) 0.9638(2)
H29 H 1.6016 0.1627 0.9144
C36 C 1.5450(3) 0.0255(2) 0.9638(2)
C37 C 1.6295(3) -0.0258(2) 0.8927(2)
H30 H 1.6888 0.0076 0.8443
O3 O 1.5473(2) 0.32834(17) 0.96234(18)
O4 O 1.4099(2) 0.31459(17) 1.10659(17)
C32A C 1.5251(3) -0.2812(2) 0.9672(2)
C33A C 1.6250(3) -0.1234(2) 0.8941(2)
H28A H 1.6818 -0.1560 0.8472
C34A C 1.5356(3) -0.1754(2) 0.9656(2)
C35A C 1.4549(3) -0.1269(2) 1.0362(2)
H29A H 1.3984 -0.1627 1.0856
C36A C 1.4550(3) -0.0255(2) 1.0362(2)
C37A C 1.3705(3) 0.0258(2) 1.1073(2)
H30A H 1.3112 -0.0076 1.1557
O3A O 1.4527(2) -0.32834(17) 1.03766(18)
O4A O 1.5901(2) -0.31459(17) 0.89341(17)
N1 N 0.8401(2) 0.25536(17) 1.20744(16)
N2 N 0.91812(19) 0.27628(16) 1.05185(15)
N3 N 1.04688(19) 0.26839(16) 0.90115(15)
N4 N 1.1901(2) 0.24785(17) 0.75783(16)
N5 N 1.3490(2) 0.17738(17) 0.65658(16)
C1 C 0.7453(3) 0.2602(2) 1.29869(19)
H5 H 0.6746 0.3301 1.2851
H6 H 0.7860 0.2575 1.3468
C2 C 0.8106(2) 0.3070(2) 1.11739(18)
H7 H 0.7300 0.3558 1.1023
C3 C 0.9684(3) 0.1909(2) 1.2000(2)
H8 H 1.0129 0.1468 1.2523
C4 C 1.0184(2) 0.2028(2) 1.10407(19)
H9 H 1.1032 0.1687 1.0776
C5 C 0.9272(2) 0.3123(2) 0.94787(18)
C6 C 0.8224(2) 0.3833(2) 0.90231(19)
H10 H 0.7412 0.4099 0.9384
C7 C 0.8428(3) 0.4133(2) 0.8005(2)
H11 H 0.7747 0.4614 0.7670
C8 C 0.9656(3) 0.3715(2) 0.74826(19)
H12 H 0.9820 0.3914 0.6798
C9 C 1.0622(2) 0.29862(19) 0.80339(18)
C10 C 1.2241(2) 0.2318(2) 0.67127(19)
H13 H 1.1686 0.2553 0.6281
C11 C 1.2990(2) 0.1984(2) 0.8017(2)
H14 H 1.3026 0.1957 0.8631
C12 C 1.3979(3) 0.1553(2) 0.7378(2)
H15 H 1.4835 0.1176 0.7464
C13 C 1.4189(3) 0.1289(2) 0.57554(19)
H16 H 1.5117 0.1101 0.5688
H17 H 1.3937 0.1832 0.5135
C14 C 1.3855(2) 0.0250(2) 0.59973(18)
C15 C 1.2914(2) 0.0284(2) 0.55987(19)
H18 H 1.2542 0.0938 0.5120
C16 C 1.2514(3) -0.0637(2) 0.58985(18)
H19 H 1.1866 -0.0592 0.5630
C17 C 1.3071(3) -0.1629(2) 0.65976(19)
C18 C 1.4059(3) -0.1690(2) 0.6985(2)
H20 H 1.4454 -0.2355 0.7443
C19 C 1.4449(3) -0.0756(2) 0.6684(2)
H21 H 1.5109 -0.0799 0.6940
N1A N 1.1599(2) -0.25536(17) 0.79256(16)
N2A N 1.08188(19) -0.27628(16) 0.94815(15)
N3A N 0.95312(19) -0.26839(16) 1.09885(15)
N4A N 0.8099(2) -0.24785(17) 1.24217(16)
N5A N 0.6510(2) -0.17738(17) 1.34342(16)
C1A C 1.2547(3) -0.2602(2) 0.70131(19)
H5A H 1.3254 -0.3301 0.7149
H6A H 1.2140 -0.2575 0.6532
C2A C 1.1894(2) -0.3070(2) 0.88261(18)
H7A H 1.2700 -0.3558 0.8977
C3A C 1.0316(3) -0.1909(2) 0.8000(2)
H8A H 0.9871 -0.1468 0.7477
C4A C 0.9816(2) -0.2028(2) 0.89593(19)
H9A H 0.8968 -0.1687 0.9224
C5A C 1.0728(2) -0.3123(2) 1.05213(18)
C6A C 1.1776(2) -0.3833(2) 1.09769(19)
H10A H 1.2588 -0.4099 1.0616
C7A C 1.1572(3) -0.4133(2) 1.1995(2)
H11A H 1.2253 -0.4614 1.2330
C8A C 1.0344(3) -0.3715(2) 1.25174(19)
H12A H 1.0180 -0.3914 1.3202
C9A C 0.9378(2) -0.29862(19) 1.19661(18)
C10A C 0.7759(2) -0.2318(2) 1.32873(19)
H13A H 0.8314 -0.2553 1.3719
C11A C 0.7010(2) -0.1984(2) 1.1983(2)
H14A H 0.6974 -0.1957 1.1369
C12A C 0.6021(3) -0.1553(2) 1.2622(2)
H15A H 0.5165 -0.1176 1.2536
C13A C 0.5811(3) -0.1289(2) 1.42446(19)
H16A H 0.4883 -0.1101 1.4312
H17A H 0.6063 -0.1832 1.4865
C14A C 0.6145(2) -0.0250(2) 1.40027(18)
C15A C 0.7086(2) -0.0284(2) 1.44013(19)
H18A H 0.7458 -0.0938 1.4880
C16A C 0.7486(3) 0.0637(2) 1.41015(18)
H19A H 0.8134 0.0592 1.4370
C17A C 0.6929(3) 0.1629(2) 1.34024(19)
C18A C 0.5941(3) 0.1690(2) 1.3015(2)
H20A H 0.5546 0.2355 1.2557
C19A C 0.5551(3) 0.0756(2) 1.3316(2)
H21A H 0.4891 0.0799 1.3060
loop_
_geom_bond_atom_site_label_1
_geom_bond_atom_site_label_2
_geom_bond_site_symmetry_1
_geom_bond_site_symmetry_2
N1 C1 1_555 1_555
N2 C2 1_555 1_555
N3 C5 1_555 1_555
N4 C9 1_555 1_555
N5 C10 1_555 1_555
N6 H1 1_555 1_555
H2 N6 1_555 1_555
N7 H3 1_555 1_555
H4 N7 1_555 1_555
C1 H5 1_555 1_555
H6 C1 1_555 1_555
C2 N1 1_555 1_555
H7 C2 1_555 1_555
C3 N1 1_555 1_555
H8 C3 1_555 1_555
C4 N2 1_555 1_555
H9 C4 1_555 1_555
C5 N2 1_555 1_555
C6 C5 1_555 1_555
H10 C6 1_555 1_555
C7 C6 1_555 1_555
H11 C7 1_555 1_555
C8 C7 1_555 1_555
H12 C8 1_555 1_555
C9 N3 1_555 1_555
C10 N4 1_555 1_555
H13 C10 1_555 1_555
C11 N4 1_555 1_555
H14 C11 1_555 1_555
C12 N5 1_555 1_555
H15 C12 1_555 1_555
C13 N5 1_555 1_555
H16 C13 1_555 1_555
H17 C13 1_555 1_555
C14 C13 1_555 1_555
C15 C14 1_555 1_555
H18 C15 1_555 1_555
C16 C15 1_555 1_555
H19 C16 1_555 1_555
C17 C16 1_555 1_555
C18 C17 1_555 1_555
H20 C18 1_555 1_555
C19 C14 1_555 1_555
H21 C19 1_555 1_555
C20 C21 1_555 1_555
C21 C22 1_555 1_555
C22 H22 1_555 1_555
C23 C22 1_555 1_555
H23 C23 1_555 1_555
C24 C23 1_555 1_555
C25 C24 1_555 1_555
H24 C25 1_555 1_555
C26 N7 1_555 1_555
C27 C26 1_555 1_555
H25 C27 1_555 1_555
C28 C27 1_555 1_555
H26 C28 1_555 1_555
C29 C28 1_555 1_555
C30 C29 1_555 1_555
H27 C30 1_555 1_555
C31 N6 1_555 1_555
C32 C34 1_555 1_555
C33 H28 1_555 1_555
C34 C33 1_555 1_555
C35 C34 1_555 1_555
H29 C35 1_555 1_555
C36 C35 1_555 1_555
C37 C36 1_555 1_555
H30 C37 1_555 1_555
O1 C20 1_555 1_555
O2 C20 1_555 1_555
O3 C32 1_555 1_555
O4 C32 1_555 1_555
N1A C1A 1_555 1_555
N2A C2A 1_555 1_555
N3A C5A 1_555 1_555
N4A C9A 1_555 1_555
N5A C10A 1_555 1_555
N6A H1A 1_555 1_555
H2A N6A 1_555 1_555
N7A H3A 1_555 1_555
H4A N7A 1_555 1_555
C1A C17 1_555 1_555
H5A C1A 1_555 1_555
H6A C1A 1_555 1_555
C2A N1A 1_555 1_555
H7A C2A 1_555 1_555
C3A N1A 1_555 1_555
H8A C3A 1_555 1_555
C4A N2A 1_555 1_555
H9A C4A 1_555 1_555
C5A N2A 1_555 1_555
C6A C5A 1_555 1_555
H10A C6A 1_555 1_555
C7A C6A 1_555 1_555
H11A C7A 1_555 1_555
C8A C7A 1_555 1_555
H12A C8A 1_555 1_555
C9A N3A 1_555 1_555
C10A N4A 1_555 1_555
H13A C10A 1_555 1_555
C11A N4A 1_555 1_555
H14A C11A 1_555 1_555
C12A N5A 1_555 1_555
H15A C12A 1_555 1_555
C13A N5A 1_555 1_555
H16A C13A 1_555 1_555
H17A C13A 1_555 1_555
C14A C13A 1_555 1_555
C15A C14A 1_555 1_555
H18A C15A 1_555 1_555
C16A C15A 1_555 1_555
H19A C16A 1_555 1_555
C17A C1 1_555 1_555
C18A C17A 1_555 1_555
H20A C18A 1_555 1_555
C19A C14A 1_555 1_555
H21A C19A 1_555 1_555
C20A C21A 1_555 1_555
C21A C25 1_555 1_555
C22A C21A 1_555 1_555
H22A C22A 1_555 1_555
C23A C22A 1_555 1_555
H23A C23A 1_555 1_555
C24A C24 1_555 1_555
C25A C21 1_555 1_555
H24A C25A 1_555 1_555
C26A N7A 1_555 1_555
C27A C26A 1_555 1_555
H25A C27A 1_555 1_555
C28A C27A 1_555 1_555
H26A C28A 1_555 1_555
C29A C29 1_555 1_555
C30A C29A 1_555 1_555
H27A C30A 1_555 1_555
C31A N6A 1_555 1_555
C32A C34A 1_555 1_555
C33A C37 1_555 1_555
H28A C33A 1_555 1_555
C34A C33A 1_555 1_555
C35A C34A 1_555 1_555
H29A C35A 1_555 1_555
C36A C36 1_555 1_555
C37A C33 1_555 1_555
H30A C37A 1_555 1_555
O1A C20A 1_555 1_555
O2A C20A 1_555 1_555
O3A C32A 1_555 1_555
O4A C32A 1_555 1_555
C3 C4 1_555 1_555
C8 C9 1_555 1_555
C11 C12 1_555 1_555
C18 C19 1_555 1_555
C26 C31 1_555 1_555
C30 C31 1_555 1_555
C3A C4A 1_555 1_555
C8A C9A 1_555 1_555
C11A C12A 1_555 1_555
C16A C17A 1_555 1_555
C18A C19A 1_555 1_555
C23A C24A 1_555 1_555
C24A C25A 1_555 1_555
C26A C31A 1_555 1_555
C28A C29A 1_555 1_555
C30A C31A 1_555 1_555
C35A C36A 1_555 1_555
C36A C37A 1_555 1_555

#END
