
#######################################################################
#
#                 Cambridge Crystallographic Data Centre
#                                CCDC 
#
#######################################################################
#
# If this CIF has been generated from an entry in the Cambridge 
# Structural Database, then it will include bibliographic, chemical, 
# crystal, experimental, refinement or atomic coordinate data resulting 
# from the CCDC's data processing and validation procedures.
#
#######################################################################

data_FAYLUO
_chemical_formula_moiety         'C24 H22 Cl1 N1 O7,C3 H6 O1'
_chemical_name_systematic        
'(2S,3R,4S,5R)-Dimethyl 1-benzoyl-2-(4-chlorophenyl)-6-oxo-7-oxa-1-azaspiro[4.4]nonane-3,4-dicarboxylate acetone solvate'
_symmetry_cell_setting           monoclinic
_symmetry_space_group_name_H-M   'P 21'
_symmetry_Int_Tables_number      4
_space_group_name_Hall           'P 2yb'
loop_
_symmetry_equiv_pos_site_id
_symmetry_equiv_pos_as_xyz
1 x,y,z
2 -x,1/2+y,-z
_cell_length_a                   10.2188(13)
_cell_length_b                   12.4231(16)
_cell_length_c                   10.4850(14)
_cell_angle_alpha                90
_cell_angle_beta                 98.490(2)
_cell_angle_gamma                90
_cell_volume                     1316.48
_exptl_crystal_description       block
_cell_formula_units_Z            2
loop_
_atom_site_label
_atom_site_type_symbol
_atom_site_fract_x
_atom_site_fract_y
_atom_site_fract_z
C1 C 0.46146(18) 0.65403(17) 0.12509(19)
C2 C 0.3522(2) 0.69862(19) 0.05561(19)
H1 H 0.3446 0.7042 -0.0336
C3 C 0.25259(18) 0.73548(17) 0.12001(17)
H2 H 0.1778 0.7667 0.0732
C4 C 0.26155(15) 0.72700(13) 0.25265(16)
C5 C 0.37251(17) 0.67801(14) 0.31933(16)
H3 H 0.3794 0.6691 0.4081
C6 C 0.47308(17) 0.64222(16) 0.25590(18)
H4 H 0.5481 0.6104 0.3016
C7 C 0.14534(16) 0.76484(13) 0.31652(16)
H5 H 0.0672 0.7668 0.2500
C8 C 0.12851(15) 0.73920(13) 0.54833(15)
C9 C 0.19047(15) 0.85173(14) 0.53193(16)
H6 H 0.1447 0.9044 0.5792
C10 C 0.15329(16) 0.87407(13) 0.38774(16)
H7 H 0.0619 0.9002 0.3778
C11 C 0.22938(18) 0.96131(15) 0.33037(18)
C12 C 0.3441(2) 1.12382(19) 0.3701(2)
H8 H 0.4264 1.0947 0.3522
H9 H 0.3611 1.1786 0.4350
H10 H 0.2965 1.1544 0.2928
C13 C 0.33603(17) 0.85666(15) 0.58324(17)
C14 C 0.4851(2) 0.8551(2) 0.7781(2)
H11 H 0.5134 0.7814 0.7776
H12 H 0.4882 0.8790 0.8655
H13 H 0.5426 0.8990 0.7354
C15 C -0.00060(17) 0.74447(17) 0.60589(18)
H14 H -0.0430 0.8141 0.5906
H15 H -0.0617 0.6885 0.5706
O1 O 0.16476(15) 0.66194(13) 0.75538(12)
C16 C 0.21670(18) 0.66930(15) 0.64640(16)
C17 C 0.07964(15) 0.58718(14) 0.40248(16)
C18 C 0.06289(16) 0.54299(15) 0.26854(17)
C19 C 0.15249(19) 0.46782(16) 0.2374(2)
H16 H 0.2223 0.4462 0.2992
C20 C 0.1387(2) 0.4248(2) 0.1153(2)
H17 H 0.2004 0.3756 0.0937
C21 C 0.0337(3) 0.4549(2) 0.0257(2)
H18 H 0.0244 0.4257 -0.0568
C22 C -0.0579(2) 0.5274(2) 0.0561(2)
H19 H -0.1297 0.5463 -0.0049
C23 C -0.0430(2) 0.57246(18) 0.17817(19)
H20 H -0.1041 0.6224 0.1991
Cl1 Cl 0.58932(6) 0.60883(6) 0.04434(6)
N1 N 0.11566(13) 0.69165(11) 0.41947(12)
O2 O 0.24782(19) 0.96477(13) 0.22151(15)
O3 O 0.26604(13) 1.03900(11) 0.41582(14)
O4 O 0.42554(12) 0.85461(13) 0.52152(13)
O5 O 0.35192(12) 0.86372(12) 0.71185(12)
C27 C 0.0462(2) 0.7267(2) 0.7476(2)
H27 H 0.0654 0.7949 0.7913
H28 H -0.0209 0.6894 0.7872
O6 O 0.31999(12) 0.62936(11) 0.63335(13)
O7 O 0.06297(13) 0.53023(10) 0.49453(13)
C24 C 0.6939(3) 0.8571(3) 0.3785(3)
H21 H 0.7462 0.8019 0.4255
H22 H 0.6018 0.8395 0.3734
H23 H 0.7109 0.9248 0.4220
C25 C 0.7286(2) 0.8649(2) 0.2479(2)
C26 C 0.6346(3) 0.9210(2) 0.1507(3)
H24 H 0.6387 0.9970 0.1674
H25 H 0.5466 0.8955 0.1548
H26 H 0.6569 0.9072 0.0665
O8 O 0.8302(2) 0.8295(2) 0.2220(3)
loop_
_geom_bond_atom_site_label_1
_geom_bond_atom_site_label_2
_geom_bond_site_symmetry_1
_geom_bond_site_symmetry_2
C1 C2 1_555 1_555
C2 H1 1_555 1_555
C3 C2 1_555 1_555
H2 C3 1_555 1_555
C4 C3 1_555 1_555
C5 C4 1_555 1_555
H3 C5 1_555 1_555
C6 C1 1_555 1_555
H4 C6 1_555 1_555
C7 C4 1_555 1_555
H5 C7 1_555 1_555
C8 C9 1_555 1_555
C9 H6 1_555 1_555
C10 C7 1_555 1_555
H7 C10 1_555 1_555
C11 C10 1_555 1_555
C12 H8 1_555 1_555
H9 C12 1_555 1_555
H10 C12 1_555 1_555
C13 C9 1_555 1_555
C14 H11 1_555 1_555
H12 C14 1_555 1_555
H13 C14 1_555 1_555
C15 C8 1_555 1_555
H14 C15 1_555 1_555
H15 C15 1_555 1_555
O1 C16 1_555 1_555
C16 C8 1_555 1_555
C17 C18 1_555 1_555
C18 C19 1_555 1_555
C19 H16 1_555 1_555
C20 C19 1_555 1_555
H17 C20 1_555 1_555
C21 C20 1_555 1_555
H18 C21 1_555 1_555
C22 C21 1_555 1_555
H19 C22 1_555 1_555
C23 C18 1_555 1_555
H20 C23 1_555 1_555
C24 H21 1_555 1_555
H22 C24 1_555 1_555
H23 C24 1_555 1_555
C25 C24 1_555 1_555
C26 C25 1_555 1_555
H24 C26 1_555 1_555
H25 C26 1_555 1_555
H26 C26 1_555 1_555
Cl1 C1 1_555 1_555
N1 C7 1_555 1_555
O2 C11 1_555 1_555
O3 C11 1_555 1_555
O4 C13 1_555 1_555
O5 C13 1_555 1_555
C27 C15 1_555 1_555
H27 C27 1_555 1_555
H28 C27 1_555 1_555
O6 C16 1_555 1_555
O7 C17 1_555 1_555
O8 C25 1_555 1_555
C5 C6 1_555 1_555
C8 N1 1_555 1_555
C9 C10 1_555 1_555
C12 O3 1_555 1_555
C14 O5 1_555 1_555
O1 C27 1_555 1_555
C17 N1 1_555 1_555
C22 C23 1_555 1_555

#END
