
#######################################################################
#
#                 Cambridge Crystallographic Data Centre
#                                CCDC 
#
#######################################################################
#
# If this CIF has been generated from an entry in the Cambridge 
# Structural Database, then it will include bibliographic, chemical, 
# crystal, experimental, refinement or atomic coordinate data resulting 
# from the CCDC's data processing and validation procedures.
#
#######################################################################

data_FAYNIF
_chemical_formula_moiety         'C28 H28 N5 S1 1+,B1 F4 1-'
_chemical_name_systematic        
'3-{[(1,3-benzothiazol-2-yl)amino](phenyl)methyl}-2-(2,4,6-trimethylphenyl)-6,7-dihydro-5H-pyrrolo[2,1-c][1,2,4]triazol-2-ium tetrafluoroborate'
_symmetry_cell_setting           monoclinic
_symmetry_space_group_name_H-M   'P 21/n'
_symmetry_Int_Tables_number      14
_space_group_name_Hall           '-P 2yn'
loop_
_symmetry_equiv_pos_site_id
_symmetry_equiv_pos_as_xyz
1 x,y,z
2 1/2-x,1/2+y,1/2-z
3 -x,-y,-z
4 1/2+x,1/2-y,1/2+z
_cell_length_a                   11.5879(12)
_cell_length_b                   20.348(2)
_cell_length_c                   12.6518(14)
_cell_angle_alpha                90
_cell_angle_beta                 114.477(3)
_cell_angle_gamma                90
_cell_volume                     2715.07
_cell_formula_units_Z            4
loop_
_atom_site_label
_atom_site_type_symbol
_atom_site_fract_x
_atom_site_fract_y
_atom_site_fract_z
B1 B 0.7242(2) 0.55806(14) 0.0046(2)
F1 F 0.6528(2) 0.50299(9) 0.00069(15)
F2 F 0.84650(16) 0.54628(11) 0.0776(2)
F3 F 0.67913(16) 0.61041(8) 0.04473(14)
F4 F 0.7085(2) 0.56897(9) -0.10964(16)
C1 C 0.7858(2) 0.32205(11) 0.69714(17)
C2 C 0.7881(2) 0.26132(11) 0.64658(19)
H1 H 0.7132 0.2416 0.5958
C3 C 0.9038(2) 0.23093(12) 0.6733(2)
H2 H 0.9062 0.1901 0.6413
C4 C 1.0162(2) 0.26052(13) 0.7471(2)
H3 H 1.0927 0.2393 0.7632
C5 C 1.0168(2) 0.32109(12) 0.7973(2)
H4 H 1.0924 0.3409 0.8465
C6 C 0.9008(2) 0.35130(11) 0.77168(19)
C7 C 0.70732(18) 0.41203(11) 0.73794(17)
C8 C 0.48589(18) 0.44267(10) 0.66709(17)
H5 H 0.4754 0.4349 0.5872
C9 C 0.40566(18) 0.50128(10) 0.66675(18)
C10 C 0.3871(2) 0.51793(11) 0.76502(19)
H6 H 0.4243 0.4927 0.8321
C11 C 0.3136(2) 0.57172(12) 0.7638(2)
H7 H 0.3001 0.5821 0.8294
C12 C 0.2607(2) 0.60978(13) 0.6660(3)
H8 H 0.2131 0.6466 0.6659
C13 C 0.2779(3) 0.59365(17) 0.5678(3)
H9 H 0.2410 0.6194 0.5014
C14 C 0.3497(2) 0.53931(15) 0.5671(2)
H10 H 0.3604 0.5284 0.5004
C15 C 0.44180(18) 0.38182(10) 0.70878(16)
C16 C 0.41625(19) 0.29982(10) 0.80793(17)
C17 C 0.4683(2) 0.26218(11) 0.91875(18)
H11 H 0.5024 0.2202 0.9093
H12 H 0.4043 0.2550 0.9483
C18 C 0.5740(2) 0.30836(11) 0.99886(18)
H13 H 0.5443 0.3334 1.0480
H14 H 0.6475 0.2830 1.0482
C19 C 0.6087(2) 0.35452(12) 0.92172(18)
H15 H 0.6248 0.3987 0.9531
H16 H 0.6821 0.3388 0.9110
C20 C 0.25079(18) 0.36041(10) 0.52697(17)
C21 C 0.2823(2) 0.33365(11) 0.44034(18)
C22 C 0.2017(2) 0.34747(12) 0.32605(19)
H17 H 0.2207 0.3306 0.2668
C23 C 0.0934(2) 0.38578(11) 0.29719(18)
C24 C 0.06544(19) 0.41018(10) 0.38677(19)
H18 H -0.0071 0.4356 0.3681
C25 C 0.14216(18) 0.39793(10) 0.50304(18)
C26 C 0.1075(2) 0.42310(12) 0.5983(2)
H19 H 0.1561 0.4618 0.6322
H20 H 0.1255 0.3899 0.6569
H21 H 0.0188 0.4336 0.5664
C27 C 0.3972(2) 0.29064(14) 0.4698(2)
H22 H 0.3953 0.2710 0.4001
H23 H 0.3970 0.2568 0.5226
H24 H 0.4726 0.3167 0.5055
C28 C 0.0068(2) 0.39826(14) 0.1712(2)
H25 H 0.0568 0.4047 0.1277
H26 H -0.0432 0.4368 0.1655
H27 H -0.0483 0.3612 0.1406
N1 N 0.67664(16) 0.35750(9) 0.67957(15)
N2 N 0.61879(15) 0.45602(9) 0.73770(15)
H28 H 0.6408 0.4911 0.7844
N3 N 0.49229(15) 0.35165(8) 0.81199(14)
N4 N 0.31915(16) 0.29547(8) 0.70774(15)
N5 N 0.33691(15) 0.34826(8) 0.64631(14)
S1 S 0.86945(5) 0.42699(3) 0.82064(5)
loop_
_geom_bond_atom_site_label_1
_geom_bond_atom_site_label_2
_geom_bond_site_symmetry_1
_geom_bond_site_symmetry_2
B1 F1 1_555 1_555
F2 B1 1_555 1_555
F3 B1 1_555 1_555
F4 B1 1_555 1_555
C1 C2 1_555 1_555
C2 H1 1_555 1_555
C3 C2 1_555 1_555
H2 C3 1_555 1_555
C4 C3 1_555 1_555
H3 C4 1_555 1_555
C5 C4 1_555 1_555
H4 C5 1_555 1_555
C6 C1 1_555 1_555
C7 N1 1_555 1_555
C8 H5 1_555 1_555
C9 C8 1_555 1_555
C10 C9 1_555 1_555
H6 C10 1_555 1_555
C11 C10 1_555 1_555
H7 C11 1_555 1_555
C12 C11 1_555 1_555
H8 C12 1_555 1_555
C13 C12 1_555 1_555
H9 C13 1_555 1_555
C14 C9 1_555 1_555
H10 C14 1_555 1_555
C15 C8 1_555 1_555
C16 C17 1_555 1_555
C17 H11 1_555 1_555
H12 C17 1_555 1_555
C18 C17 1_555 1_555
H13 C18 1_555 1_555
H14 C18 1_555 1_555
C19 C18 1_555 1_555
H15 C19 1_555 1_555
H16 C19 1_555 1_555
C20 C21 1_555 1_555
C21 C22 1_555 1_555
C22 H17 1_555 1_555
C23 C22 1_555 1_555
C24 C23 1_555 1_555
H18 C24 1_555 1_555
C25 C20 1_555 1_555
C26 C25 1_555 1_555
H19 C26 1_555 1_555
H20 C26 1_555 1_555
H21 C26 1_555 1_555
C27 C21 1_555 1_555
H22 C27 1_555 1_555
H23 C27 1_555 1_555
H24 C27 1_555 1_555
C28 C23 1_555 1_555
H25 C28 1_555 1_555
H26 C28 1_555 1_555
H27 C28 1_555 1_555
N1 C1 1_555 1_555
N2 C7 1_555 1_555
H28 N2 1_555 1_555
N3 C15 1_555 1_555
N4 C16 1_555 1_555
N5 C15 1_555 1_555
S1 C6 1_555 1_555
C5 C6 1_555 1_555
C7 S1 1_555 1_555
C8 N2 1_555 1_555
C13 C14 1_555 1_555
C16 N3 1_555 1_555
C19 N3 1_555 1_555
C20 N5 1_555 1_555
C24 C25 1_555 1_555
N4 N5 1_555 1_555

#END
