
#######################################################################
#
#                 Cambridge Crystallographic Data Centre
#                                CCDC 
#
#######################################################################
#
# If this CIF has been generated from an entry in the Cambridge 
# Structural Database, then it will include bibliographic, chemical, 
# crystal, experimental, refinement or atomic coordinate data resulting 
# from the CCDC's data processing and validation procedures.
#
#######################################################################

data_FAYWUX
_chemical_name_common            'Hemiporphyrazine monohydrate'
_chemical_formula_moiety         'C26 H16 N8,H2 O1'
_chemical_name_systematic        
'5,25:12,18-Di-imino-7,11:20,24-dinitrilo-dibenzo(c,n)(1,6,12,17)-tetrazadocosine monohydrate'
_symmetry_cell_setting           orthorhombic
_symmetry_space_group_name_H-M   'P n m m'
_symmetry_Int_Tables_number      59
_space_group_name_Hall           '-P 2c 2bc'
loop_
_symmetry_equiv_pos_site_id
_symmetry_equiv_pos_as_xyz
1 x,y,z
2 -x,-y,1/2+z
3 x,1/2-y,1/2-z
4 -x,1/2+y,-z
5 -x,-y,-z
6 x,y,1/2-z
7 -x,1/2+y,1/2+z
8 x,1/2-y,z
_cell_length_a                   4.6142(3)
_cell_length_b                   14.7687(7)
_cell_length_c                   15.0650(5)
_cell_angle_alpha                90
_cell_angle_beta                 90
_cell_angle_gamma                90
_cell_volume                     1026.62
_exptl_crystal_colour            yellow
_cell_formula_units_Z            2
loop_
_atom_site_label
_atom_site_type_symbol
_atom_site_fract_x
_atom_site_fract_y
_atom_site_fract_z
O1 O 0.6976(11) 0.2500 0.2500
H1 H 0.550(10) 0.250 0.286(3)
H1B H 0.550(10) 0.250 0.214(3)
C1 C 0.2843(7) 0.4285(2) 0.1736(2)
C2 C 0.0921(7) 0.3277(2) 0.0694(2)
C3 C 0.8136(9) 0.6232(2) 0.2031(2)
C4 C 0.6469(9) 0.5621(3) 0.1555(2)
C5 C 0.4733(7) 0.5030(2) 0.2036(2)
C6 C -0.1332(8) 0.3330(2) 0.0076(2)
C7 C -0.2489(12) 0.2500 -0.0214(3)
N1 N 0.1750(9) 0.3868(3) 0.2500
N2 N 0.2376(7) 0.4085(2) 0.0921(2)
N3 N 0.2040(9) 0.2500 0.1026(2)
H2 H 0.023(11) 0.335(3) 0.250
H3 H 0.935(8) 0.667(2) 0.179(2)
H4 H 0.630(8) 0.559(3) 0.092(2)
H5 H -0.218(9) 0.401(2) -0.012(2)
H6 H -0.450(11) 0.250 -0.062(3)
C5E C 0.4733(7) 0.5030(2) 0.2964(2)
C3E C 0.8136(9) 0.6232(2) 0.2969(2)
C1E C 0.2843(7) 0.4285(2) 0.3264(2)
C6G C -0.1332(8) 0.1670(2) 0.0076(2)
C2G C 0.0921(7) 0.1723(2) 0.0694(2)
C4E C 0.6469(9) 0.5621(3) 0.3445(2)
H3E H 0.935(8) 0.667(2) 0.321(2)
N2E N 0.2376(7) 0.4085(2) 0.4079(2)
H5G H -0.218(9) 0.099(2) -0.012(2)
N2G N 0.2376(7) 0.0915(2) 0.0921(2)
H4E H 0.630(8) 0.559(3) 0.408(2)
C2E C 0.0921(7) 0.3277(2) 0.4306(2)
C1G C 0.2843(7) 0.0715(2) 0.1736(2)
C6E C -0.1332(8) 0.3330(2) 0.4924(2)
N3B N 0.2040(9) 0.2500 0.3974(2)
C5G C 0.4733(7) -0.0030(2) 0.2036(2)
N1B N 0.1750(9) 0.1132(3) 0.2500
C7B C -0.2489(12) 0.2500 0.5214(3)
H5E H -0.218(9) 0.401(2) 0.512(2)
C2B C 0.0921(7) 0.1723(2) 0.4306(2)
C4G C 0.6469(9) -0.0621(3) 0.1555(2)
C5B C 0.4733(7) -0.0030(2) 0.2964(2)
C1B C 0.2843(7) 0.0715(2) 0.3264(2)
H2B H 0.023(11) 0.165(3) 0.250
C6B C -0.1332(8) 0.1670(2) 0.4924(2)
H6B H -0.450(11) 0.250 0.562(3)
N2B N 0.2376(7) 0.0915(2) 0.4079(2)
C3G C 0.8136(9) -0.1232(2) 0.2031(2)
H4G H 0.630(8) -0.059(3) 0.092(2)
C4B C 0.6469(9) -0.0621(3) 0.3445(2)
H5B H -0.218(9) 0.099(2) 0.512(2)
C3B C 0.8136(9) -0.1232(2) 0.2969(2)
H3G H 0.935(8) -0.167(2) 0.179(2)
H4B H 0.630(8) -0.059(3) 0.408(2)
H3B H 0.935(8) -0.167(2) 0.321(2)
loop_
_geom_bond_atom_site_label_1
_geom_bond_atom_site_label_2
_geom_bond_site_symmetry_1
_geom_bond_site_symmetry_2
O1 H1 1_555 1_555
C1 C5 1_555 1_555
C2 C6 1_555 1_555
C3 C4 1_555 1_555
C4 C5 1_555 1_555
C5 C5E 1_555 1_555
C6 C7 1_555 1_555
C7 H6 1_555 1_555
N1 C1 1_555 1_555
N2 C1 1_555 1_555
N3 C2 1_555 1_555
H2 N1 1_555 1_555
H3 C3 1_555 1_555
H4 C4 1_555 1_555
H5 C6 1_555 1_555
H1B O1 1_555 1_555
C5E C1E 1_555 1_555
C3E C3 1_555 1_555
C1E N1 1_555 1_555
C6G C7 1_555 1_555
C2G N3 1_555 1_555
C4E C5E 1_555 1_555
H3E C3E 1_555 1_555
N2E C1E 1_555 1_555
H5G C6G 1_555 1_555
N2G C2G 1_555 1_555
H4E C4E 1_555 1_555
C2E N2E 1_555 1_555
C1G N2G 1_555 1_555
C6E C2E 1_555 1_555
N3B C2E 1_555 1_555
C5G C1G 1_555 1_555
N1B C1G 1_555 1_555
C7B C6E 1_555 1_555
H5E C6E 1_555 1_555
C2B N3B 1_555 1_555
C4G C5G 1_555 1_555
C5B C5G 1_555 1_555
C1B N1B 1_555 1_555
H2B N1B 1_555 1_555
C6B C7B 1_555 1_555
H6B C7B 1_555 1_555
N2B C2B 1_555 1_555
C3G C4G 1_555 1_555
H4G C4G 1_555 1_555
C4B C5B 1_555 1_555
H5B C6B 1_555 1_555
C3B C3G 1_555 1_555
H3G C3G 1_555 1_555
H4B C4B 1_555 1_555
H3B C3B 1_555 1_555
C2 N2 1_555 1_555
C3E C4E 1_555 1_555
C6G C2G 1_555 1_555
C2B C6B 1_555 1_555
C5B C1B 1_555 1_555
C1B N2B 1_555 1_555
C4B C3B 1_555 1_555

#END
