
#######################################################################
#
#                 Cambridge Crystallographic Data Centre
#                                CCDC 
#
#######################################################################
#
# If this CIF has been generated from an entry in the Cambridge 
# Structural Database, then it will include bibliographic, chemical, 
# crystal, experimental, refinement or atomic coordinate data resulting 
# from the CCDC's data processing and validation procedures.
#
#######################################################################

data_FAYXIP
_chemical_formula_moiety         'C28 H21 N2 O2 P1'
_chemical_name_systematic        
N-[4-(diphenylphosphoryl)naphthalen-1-yl]pyridine-2-carboxamide
_symmetry_cell_setting           monoclinic
_symmetry_space_group_name_H-M   'P 21/c'
_symmetry_Int_Tables_number      14
_space_group_name_Hall           '-P 2ybc'
loop_
_symmetry_equiv_pos_site_id
_symmetry_equiv_pos_as_xyz
1 x,y,z
2 -x,1/2+y,1/2-z
3 -x,-y,-z
4 x,1/2-y,1/2+z
_cell_length_a                   11.9961(5)
_cell_length_b                   8.6310(3)
_cell_length_c                   21.6563(7)
_cell_angle_alpha                90
_cell_angle_beta                 95.014(4)
_cell_angle_gamma                90
_cell_volume                     2233.68
_exptl_crystal_colour            colorless
_exptl_crystal_description       prism
_cell_formula_units_Z            4
loop_
_atom_site_label
_atom_site_type_symbol
_atom_site_fract_x
_atom_site_fract_y
_atom_site_fract_z
C1 C 0.69349(15) -0.0621(2) 0.41360(9)
C2 C 0.74927(17) -0.1984(2) 0.40237(10)
H1 H 0.7869 -0.2079 0.3668
C3 C 0.7493(2) -0.3204(3) 0.44382(12)
H2 H 0.7884 -0.4107 0.4366
C4 C 0.6919(2) -0.3085(3) 0.49520(13)
H3 H 0.6901 -0.3920 0.5223
C5 C 0.6366(2) -0.1737(3) 0.50727(12)
H4 H 0.5985 -0.1659 0.5427
C6 C 0.63756(19) -0.0494(3) 0.46686(11)
H5 H 0.6009 0.0421 0.4754
C7 C 0.82258(15) 0.2106(2) 0.39351(9)
C8 C 0.8664(2) 0.2013(3) 0.45420(11)
H6 H 0.8316 0.1400 0.4822
C9 C 0.9623(2) 0.2833(4) 0.47368(13)
H7 H 0.9918 0.2760 0.5147
C10 C 1.0141(2) 0.3744(3) 0.43345(14)
H8 H 1.0785 0.4289 0.4470
C11 C 0.97070(19) 0.3852(3) 0.37297(13)
H9 H 1.0054 0.4477 0.3454
C12 C 0.87539(17) 0.3032(2) 0.35299(11)
H10 H 0.8465 0.3104 0.3118
C13 C 0.58167(15) 0.2162(2) 0.36134(8)
C14 C 0.58682(16) 0.3558(2) 0.39131(9)
H11 H 0.6514 0.3807 0.4163
C15 C 0.49838(17) 0.4630(2) 0.38589(10)
H12 H 0.5047 0.5565 0.4073
C16 C 0.40311(15) 0.4295(2) 0.34904(9)
C17 C 0.38944(15) 0.2811(2) 0.31971(8)
C18 C 0.47977(14) 0.1736(2) 0.32600(8)
C19 C 0.46411(16) 0.0252(2) 0.29794(9)
H13 H 0.5223 -0.0463 0.3016
C20 C 0.36553(18) -0.0138(2) 0.26585(10)
H14 H 0.3565 -0.1117 0.2482
C21 C 0.27738(18) 0.0940(3) 0.25941(10)
H15 H 0.2107 0.0673 0.2368
C22 C 0.28850(16) 0.2366(2) 0.28588(9)
H16 H 0.2289 0.3058 0.2817
C23 C 0.28724(17) 0.6498(2) 0.37849(9)
C24 C 0.18728(16) 0.7463(2) 0.35552(9)
C25 C 0.1712(2) 0.8882(3) 0.38274(11)
H17 H 0.2225 0.9260 0.4138
C26 C 0.0768(2) 0.9730(3) 0.36278(12)
H18 H 0.0636 1.0689 0.3803
C27 C 0.00288(19) 0.9137(3) 0.31683(12)
H19 H -0.0614 0.9678 0.3028
C28 C 0.02663(17) 0.7727(3) 0.29234(12)
H20 H -0.0233 0.7330 0.2610
N1 N 0.31509(13) 0.53826(19) 0.33879(8)
H21 H 0.2754 0.5328 0.3038
N2 N 0.11703(13) 0.6880(2) 0.31046(9)
O1 O 0.72650(11) 0.04376(17) 0.29721(6)
O2 O 0.33411(16) 0.6725(2) 0.42975(7)
P1 P 0.70509(4) 0.09650(5) 0.36057(2)
loop_
_geom_bond_atom_site_label_1
_geom_bond_atom_site_label_2
_geom_bond_site_symmetry_1
_geom_bond_site_symmetry_2
C1 C2 1_555 1_555
C2 H1 1_555 1_555
C3 C2 1_555 1_555
H2 C3 1_555 1_555
C4 C3 1_555 1_555
H3 C4 1_555 1_555
C5 C4 1_555 1_555
H4 C5 1_555 1_555
C6 C1 1_555 1_555
H5 C6 1_555 1_555
C7 C8 1_555 1_555
C8 H6 1_555 1_555
C9 C8 1_555 1_555
H7 C9 1_555 1_555
C10 C9 1_555 1_555
H8 C10 1_555 1_555
C11 C10 1_555 1_555
H9 C11 1_555 1_555
C12 C7 1_555 1_555
H10 C12 1_555 1_555
C13 C14 1_555 1_555
C14 H11 1_555 1_555
C15 C14 1_555 1_555
H12 C15 1_555 1_555
C16 C15 1_555 1_555
C17 C16 1_555 1_555
C18 C13 1_555 1_555
C19 C18 1_555 1_555
H13 C19 1_555 1_555
C20 C19 1_555 1_555
H14 C20 1_555 1_555
C21 C20 1_555 1_555
H15 C21 1_555 1_555
C22 C17 1_555 1_555
H16 C22 1_555 1_555
C23 C24 1_555 1_555
C24 C25 1_555 1_555
C25 H17 1_555 1_555
C26 C25 1_555 1_555
H18 C26 1_555 1_555
C27 C26 1_555 1_555
H19 C27 1_555 1_555
C28 C27 1_555 1_555
H20 C28 1_555 1_555
N1 C16 1_555 1_555
H21 N1 1_555 1_555
N2 C24 1_555 1_555
O1 P1 1_555 1_555
O2 C23 1_555 1_555
P1 C1 1_555 1_555
C5 C6 1_555 1_555
C7 P1 1_555 1_555
C11 C12 1_555 1_555
C13 P1 1_555 1_555
C17 C18 1_555 1_555
C21 C22 1_555 1_555
C23 N1 1_555 1_555
C28 N2 1_555 1_555

#END
