
#######################################################################
#
#                 Cambridge Crystallographic Data Centre
#                                CCDC 
#
#######################################################################
#
# If this CIF has been generated from an entry in the Cambridge 
# Structural Database, then it will include bibliographic, chemical, 
# crystal, experimental, refinement or atomic coordinate data resulting 
# from the CCDC's data processing and validation procedures.
#
#######################################################################

data_FAYZUB
_chemical_name_common            
5,17-Dichloro-2,8,14,20-tetra-azacalix(2)arene(2)triazine
_chemical_formula_moiety         'C18 H12 Cl2 N10'
_chemical_name_systematic        
5,17-Dichloro-2,4,6,8,14,16,18,20,26,28-deca-azapentacyclo(19.3.1.1^3,7^.1^9,13^.1^15,19^)octacosa-1(25),3(28),4,6,9(27),10,12,15(26),16,18,21,23-dodecaene
_symmetry_cell_setting           orthorhombic
_symmetry_space_group_name_H-M   'P n m a'
_symmetry_Int_Tables_number      62
_space_group_name_Hall           '-P 2ac 2n'
loop_
_symmetry_equiv_pos_site_id
_symmetry_equiv_pos_as_xyz
1 x,y,z
2 1/2-x,-y,1/2+z
3 -x,1/2+y,-z
4 1/2+x,1/2-y,1/2-z
5 -x,-y,-z
6 1/2+x,y,1/2-z
7 x,1/2-y,z
8 1/2-x,1/2+y,1/2+z
_cell_length_a                   10.127(2)
_cell_length_b                   12.040(2)
_cell_length_c                   15.569(3)
_cell_angle_alpha                90
_cell_angle_beta                 90
_cell_angle_gamma                90
_cell_volume                     1898.31
_exptl_crystal_colour            colorless
_exptl_crystal_description       block
_chemical_melting_point          'above 300deg.C'
_cell_formula_units_Z            4
_exptl_crystal_recrystallization_method 'diethyl ether/dmf'
loop_
_atom_site_label
_atom_site_type_symbol
_atom_site_fract_x
_atom_site_fract_y
_atom_site_fract_z
Cl1 Cl 0.41314(3) 0.7500 0.636049(17)
Cl2 Cl 0.31509(3) 0.7500 -0.131969(16)
N1 N 0.15793(8) 0.7500 0.40950(5)
N2 N 0.28232(6) 0.65110(4) 0.51618(3)
N3 N 0.15898(6) 0.55811(5) 0.41734(3)
H1 H 0.1825 0.5004 0.4461
N4 N 0.10657(6) 0.55841(4) 0.10707(3)
H2 H 0.1178 0.5009 0.0751
N5 N 0.20769(6) 0.65104(4) -0.00249(3)
N6 N 0.10512(8) 0.7500 0.11400(5)
C1 C 0.31429(10) 0.7500 0.54515(6)
C2 C 0.20059(7) 0.65669(5) 0.44667(4)
C3 C 0.07974(7) 0.53946(5) 0.34323(4)
C4 C -0.03219(7) 0.47458(6) 0.35174(4)
H3 H -0.0604 0.4523 0.4059
C5 C -0.10193(7) 0.44302(7) 0.27952(5)
H4 H -0.1775 0.3998 0.2851
C6 C -0.05938(7) 0.47571(6) 0.19877(4)
H5 H -0.1063 0.4545 0.1501
C7 C 0.05340(7) 0.54017(5) 0.19083(4)
C8 C 0.12194(7) 0.57489(5) 0.26306(4)
H6 H 0.1950 0.6212 0.2578
C9 C 0.14045(7) 0.65662(5) 0.07383(4)
C10 C 0.23388(10) 0.7500 -0.03377(6)
N2F N 0.28232(6) 0.84890(4) 0.51618(3)
N3F N 0.15898(6) 0.94189(5) 0.41734(3)
H1F H 0.1825 0.9996 0.4461
N4F N 0.10657(6) 0.94159(4) 0.10707(3)
H2F H 0.1178 0.9991 0.0751
N5F N 0.20769(6) 0.84896(4) -0.00249(3)
C2F C 0.20059(7) 0.84331(5) 0.44667(4)
C3F C 0.07974(7) 0.96054(5) 0.34323(4)
C4F C -0.03219(7) 1.02542(6) 0.35174(4)
H3F H -0.0604 1.0477 0.4059
C5F C -0.10193(7) 1.05698(7) 0.27952(5)
H4F H -0.1775 1.1002 0.2851
C6F C -0.05938(7) 1.02429(6) 0.19877(4)
H5F H -0.1063 1.0455 0.1501
C7F C 0.05340(7) 0.95983(5) 0.19083(4)
C8F C 0.12194(7) 0.92511(5) 0.26306(4)
H6F H 0.1950 0.8788 0.2578
C9F C 0.14045(7) 0.84338(5) 0.07383(4)
loop_
_geom_bond_atom_site_label_1
_geom_bond_atom_site_label_2
_geom_bond_site_symmetry_1
_geom_bond_site_symmetry_2
Cl1 C1 1_555 1_555
Cl2 C10 1_555 1_555
N1 C2 1_555 1_555
N2 C1 1_555 1_555
N3 H1 1_555 1_555
N4 H2 1_555 1_555
N5 C9 1_555 1_555
N6 C9 1_555 1_555
C1 N2F 1_555 1_555
C2 N2 1_555 1_555
C3 N3 1_555 1_555
C4 C3 1_555 1_555
H3 C4 1_555 1_555
C5 C4 1_555 1_555
H4 C5 1_555 1_555
C6 C5 1_555 1_555
H5 C6 1_555 1_555
C7 N4 1_555 1_555
C8 C3 1_555 1_555
H6 C8 1_555 1_555
C9 N4 1_555 1_555
C10 N5 1_555 1_555
N2F C2F 1_555 1_555
N3F H1F 1_555 1_555
N4F H2F 1_555 1_555
N5F C10 1_555 1_555
C2F N1 1_555 1_555
C3F N3F 1_555 1_555
C4F C3F 1_555 1_555
H3F C4F 1_555 1_555
C5F C4F 1_555 1_555
H4F C5F 1_555 1_555
C6F C5F 1_555 1_555
H5F C6F 1_555 1_555
C7F N4F 1_555 1_555
C8F C3F 1_555 1_555
H6F C8F 1_555 1_555
C9F N6 1_555 1_555
N3 C2 1_555 1_555
C6 C7 1_555 1_555
C7 C8 1_555 1_555
N3F C2F 1_555 1_555
N4F C9F 1_555 1_555
N5F C9F 1_555 1_555
C6F C7F 1_555 1_555
C7F C8F 1_555 1_555

#END
