
#######################################################################
#
#                 Cambridge Crystallographic Data Centre
#                                CCDC 
#
#######################################################################
#
# If this CIF has been generated from an entry in the Cambridge 
# Structural Database, then it will include bibliographic, chemical, 
# crystal, experimental, refinement or atomic coordinate data resulting 
# from the CCDC's data processing and validation procedures.
#
#######################################################################

data_FAYZIP
_chemical_name_common            
5,17-Dichloro-8,14-diaza-2,20-dioxacalix(2)arene(2)triazine
_chemical_formula_moiety         'C18 H10 Cl2 N8 O2'
_chemical_name_systematic        
5,17-Dichloro-2,20-dioxa-4,6,8,14,16,18,26,28-octa-azapentacyclo(19.3.1.1^3,7^.1^9,13^.1^15,19^)octacosa-1(25),3(28),4,6,9(27),10,12,15(26),16,18,21,23-dodecaene
_symmetry_cell_setting           monoclinic
_symmetry_space_group_name_H-M   'C 2/c'
_symmetry_Int_Tables_number      15
_space_group_name_Hall           '-C 2yn'
loop_
_symmetry_equiv_pos_site_id
_symmetry_equiv_pos_as_xyz
1 x,y,z
2 1/2+x,1/2+y,z
3 -x,y,1/2-z
4 1/2-x,1/2+y,1/2-z
5 -x,-y,-z
6 1/2-x,1/2-y,-z
7 x,-y,1/2+z
8 1/2+x,1/2-y,1/2+z
_cell_length_a                   21.2008(9)
_cell_length_b                   8.2713(3)
_cell_length_c                   21.3391(10)
_cell_angle_alpha                90
_cell_angle_beta                 95.009(2)
_cell_angle_gamma                90
_cell_volume                     3727.7
_exptl_crystal_colour            colorless
_exptl_crystal_description       needles
_chemical_melting_point          'above 300deg.C'
_cell_formula_units_Z            8
_exptl_crystal_recrystallization_method 'n-hexane/ethyl acetate'
loop_
_atom_site_label
_atom_site_type_symbol
_atom_site_fract_x
_atom_site_fract_y
_atom_site_fract_z
Cl1 Cl 0.09405(4) 0.20369(12) 0.00304(3)
Cl2 Cl 0.47098(3) 0.31920(17) -0.40955(4)
N1 N 0.42118(8) 0.5523(3) -0.21287(7)
H1 H 0.4618 0.5470 -0.2077
N2 N 0.26839(8) 0.5433(3) -0.05141(8)
H2 H 0.2723 0.5546 -0.0112
N3 N 0.19654(8) 0.4650(2) -0.13459(8)
N4 N 0.10958(9) 0.3012(3) -0.10895(9)
N5 N 0.18546(9) 0.3878(3) -0.02799(9)
N6 N 0.33428(7) 0.5023(2) -0.28560(7)
N7 N 0.35746(8) 0.3828(3) -0.38297(8)
N8 N 0.44107(8) 0.4482(3) -0.30661(8)
O1 O 0.25926(7) 0.4431(2) -0.36679(7)
O2 O 0.11570(8) 0.3816(2) -0.20637(8)
C1 C 0.14329(10) 0.3848(3) -0.14768(10)
C2 C 0.13471(12) 0.3103(3) -0.05060(11)
C3 C 0.21582(10) 0.4639(3) -0.07318(10)
C4 C 0.31955(9) 0.4435(3) -0.34246(10)
C5 C 0.41721(10) 0.3924(4) -0.36058(11)
C6 C 0.39692(9) 0.5000(3) -0.26908(9)
C7 C 0.39315(9) 0.6150(3) -0.15982(9)
C8 C 0.42992(11) 0.7267(3) -0.12453(10)
H3 H 0.4677 0.7637 -0.1385
C9 C 0.41005(12) 0.7822(3) -0.06876(11)
H4 H 0.4340 0.8590 -0.0455
C10 C 0.35507(11) 0.7248(3) -0.04725(10)
H5 H 0.3422 0.7618 -0.0092
C11 C 0.31891(9) 0.6123(3) -0.08206(9)
C12 C 0.33633(9) 0.5593(3) -0.13986(9)
H6 H 0.3107 0.4885 -0.1645
C13 C 0.21047(9) 0.5003(3) -0.33241(9)
C14 C 0.17593(11) 0.6258(3) -0.35890(11)
H7 H 0.1884 0.6782 -0.3943
C15 C 0.12202(12) 0.6733(3) -0.33202(13)
H8 H 0.0977 0.7579 -0.3497
C16 C 0.10388(10) 0.5965(3) -0.27917(12)
H9 H 0.0677 0.6285 -0.2608
C17 C 0.14065(10) 0.4717(3) -0.25427(10)
C18 C 0.19447(10) 0.4191(3) -0.27989(10)
H10 H 0.2186 0.3336 -0.2626
loop_
_geom_bond_atom_site_label_1
_geom_bond_atom_site_label_2
_geom_bond_site_symmetry_1
_geom_bond_site_symmetry_2
Cl1 C2 1_555 1_555
Cl2 C5 1_555 1_555
N1 H1 1_555 1_555
N2 H2 1_555 1_555
N3 C1 1_555 1_555
N4 C1 1_555 1_555
N5 C2 1_555 1_555
N6 C4 1_555 1_555
N7 C4 1_555 1_555
N8 C5 1_555 1_555
O1 C4 1_555 1_555
O2 C1 1_555 1_555
C2 N4 1_555 1_555
C3 N2 1_555 1_555
C5 N7 1_555 1_555
C6 N1 1_555 1_555
C7 N1 1_555 1_555
C8 C7 1_555 1_555
H3 C8 1_555 1_555
C9 C8 1_555 1_555
H4 C9 1_555 1_555
C10 C9 1_555 1_555
H5 C10 1_555 1_555
C11 N2 1_555 1_555
C12 C7 1_555 1_555
H6 C12 1_555 1_555
C13 O1 1_555 1_555
C14 C13 1_555 1_555
H7 C14 1_555 1_555
C15 C14 1_555 1_555
H8 C15 1_555 1_555
C16 C15 1_555 1_555
H9 C16 1_555 1_555
C17 O2 1_555 1_555
C18 C13 1_555 1_555
H10 C18 1_555 1_555
N3 C3 1_555 1_555
N5 C3 1_555 1_555
N6 C6 1_555 1_555
N8 C6 1_555 1_555
C10 C11 1_555 1_555
C11 C12 1_555 1_555
C16 C17 1_555 1_555
C17 C18 1_555 1_555

#END
