
#######################################################################
#
#                 Cambridge Crystallographic Data Centre
#                                CCDC 
#
#######################################################################
#
# If this CIF has been generated from an entry in the Cambridge 
# Structural Database, then it will include bibliographic, chemical, 
# crystal, experimental, refinement or atomic coordinate data resulting 
# from the CCDC's data processing and validation procedures.
#
#######################################################################

data_FAZBEO
_chemical_name_common            
'5,17-Dichloro-8,14-dimethyl-8,14,20-triaza-2-oxacalix(2)arene(2)triazine sesquihydrate'
_chemical_formula_moiety         'C20 H15 Cl2 N9 O1,1.5(H2 O1)'
_chemical_name_systematic        
'5,17-Dichloro-8,14-dimethyl-2-oxa-4,6,8,14,16,18,20,26,28-nona-azapentacyclo(19.3.1.1^3,7^.1^9,13^.1^15,19^)octacosa-1(25),3(28),4,6,9(27),10,12,15(26),16,18,21,23-dodecaene sesquihydrate'
_symmetry_cell_setting           monoclinic
_symmetry_space_group_name_H-M   'P 21/c'
_symmetry_Int_Tables_number      14
_space_group_name_Hall           '-P 2ybc'
loop_
_symmetry_equiv_pos_site_id
_symmetry_equiv_pos_as_xyz
1 x,y,z
2 -x,1/2+y,1/2-z
3 -x,-y,-z
4 x,1/2-y,1/2+z
_cell_length_a                   18.4440(10)
_cell_length_b                   18.7666(14)
_cell_length_c                   13.6773(16)
_cell_angle_alpha                90
_cell_angle_beta                 104.276(4)
_cell_angle_gamma                90
_cell_volume                     4587.95
_exptl_crystal_colour            colorless
_exptl_crystal_description       prisms
_chemical_melting_point          'above 300deg.C'
_cell_formula_units_Z            8
_exptl_crystal_recrystallization_method dichloromethane/acetone
loop_
_atom_site_label
_atom_site_type_symbol
_atom_site_fract_x
_atom_site_fract_y
_atom_site_fract_z
Cl1 Cl 0.12236(9) 0.37010(8) 0.64446(10)
Cl2 Cl 0.68660(9) 0.09007(8) 1.13616(11)
O1 O 0.2443(2) 0.1430(2) 0.6460(2)
N1 N 0.2595(3) 0.3549(3) 0.6344(3)
N2 N 0.3193(3) 0.2399(3) 0.6393(3)
N3 N 0.1905(3) 0.2489(2) 0.6467(3)
N4 N 0.6492(3) 0.1634(2) 0.9709(3)
N5 N 0.5673(3) 0.0682(2) 0.9946(3)
N6 N 0.5363(3) 0.1373(2) 0.8413(3)
N7 N 0.3823(3) 0.3431(2) 0.6276(3)
N8 N 0.4666(2) 0.0406(2) 0.8673(3)
H1 H 0.4598 0.0071 0.9070
N9 N 0.6109(3) 0.2332(2) 0.8288(3)
C1 C 0.2004(3) 0.3174(3) 0.6410(4)
C2 C 0.3176(3) 0.3120(3) 0.6334(4)
C3 C 0.2537(3) 0.2141(3) 0.6443(4)
C4 C 0.4487(3) 0.3020(3) 0.6321(4)
C5 C 0.4670(3) 0.2796(3) 0.5451(4)
H2 H 0.4363 0.2913 0.4824
C6 C 0.5312(3) 0.2397(3) 0.5512(4)
H3 H 0.5422 0.2232 0.4924
C7 C 0.5789(3) 0.2242(3) 0.6435(4)
H4 H 0.6224 0.1981 0.6471
C8 C 0.5609(3) 0.2485(3) 0.7322(4)
C9 C 0.4960(3) 0.2869(3) 0.7268(4)
H5 H 0.4840 0.3026 0.7854
C10 C 0.5976(3) 0.1753(3) 0.8809(4)
C11 C 0.6264(4) 0.1100(3) 1.0176(4)
C12 C 0.5245(3) 0.0840(3) 0.8996(4)
C13 C 0.4151(3) 0.0459(3) 0.7708(4)
C14 C 0.3599(3) 0.0971(3) 0.7523(4)
H6 H 0.3582 0.1309 0.8014
C15 C 0.3076(3) 0.0985(3) 0.6618(4)
C16 C 0.3078(4) 0.0491(3) 0.5863(4)
H7 H 0.2719 0.0500 0.5251
C17 C 0.3641(4) -0.0018(3) 0.6063(4)
H8 H 0.3657 -0.0356 0.5571
C18 C 0.4177(3) -0.0041(3) 0.6963(4)
H9 H 0.4551 -0.0385 0.7072
C19 C 0.3883(3) 0.4186(3) 0.6072(4)
H10 H 0.3413 0.4415 0.6043
H11 H 0.4012 0.4245 0.5438
H12 H 0.4265 0.4397 0.6600
C20 C 0.6764(3) 0.2776(3) 0.8627(4)
H13 H 0.7042 0.2619 0.9280
H14 H 0.6612 0.3262 0.8669
H15 H 0.7073 0.2742 0.8157
Cl3 Cl -0.18026(9) 0.09472(8) 0.36251(11)
Cl4 Cl 0.36047(8) 0.34959(8) 0.89194(10)
O2 O 0.2419(2) 0.1208(2) 0.8893(2)
N10 N -0.0687(3) 0.0634(2) 0.5111(3)
N11 N -0.1538(3) 0.1532(3) 0.5402(3)
N12 N -0.0471(2) 0.1206(2) 0.6733(3)
N13 N 0.2952(3) 0.2269(3) 0.8900(3)
N14 N 0.2228(3) 0.3325(2) 0.8999(3)
N15 N 0.1663(3) 0.2175(2) 0.8944(3)
N16 N -0.1256(3) 0.2120(3) 0.6919(3)
N17 N 0.0275(3) 0.0304(2) 0.6435(3)
H16 H 0.0379 0.0002 0.6018
N18 N 0.1000(3) 0.3191(2) 0.9046(3)
C21 C -0.1276(3) 0.1063(3) 0.4876(4)
C22 C -0.1079(3) 0.1606(3) 0.6347(4)
C23 C -0.0303(3) 0.0737(3) 0.6098(4)
C24 C -0.0771(3) 0.2261(3) 0.7912(4)
C25 C -0.1000(3) 0.2039(3) 0.8755(4)
H17 H -0.1444 0.1788 0.8687
C26 C -0.0553(3) 0.2201(3) 0.9698(4)
H18 H -0.0705 0.2056 1.0267
C27 C 0.0125(3) 0.2577(3) 0.9828(4)
H19 H 0.0423 0.2685 1.0464
C28 C 0.0324(3) 0.2780(3) 0.8938(4)
C29 C -0.0114(3) 0.2628(3) 0.8007(4)
H20 H 0.0032 0.2774 0.7434
C30 C 0.1645(3) 0.2886(3) 0.8978(4)
C31 C 0.2829(3) 0.2964(3) 0.8938(4)
C32 C 0.2315(3) 0.1918(3) 0.8894(4)
C33 C 0.1785(3) 0.0766(3) 0.8657(4)
C34 C 0.1302(3) 0.0777(3) 0.7685(4)
H21 H 0.1372 0.1108 0.7210
C35 C 0.0739(3) 0.0306(3) 0.7450(4)
C36 C 0.0602(4) -0.0184(3) 0.8128(4)
H22 H 0.0208 -0.0506 0.7938
C37 C 0.1059(4) -0.0194(3) 0.9102(4)
H23 H 0.0965 -0.0510 0.9579
C38 C 0.1682(4) 0.0291(3) 0.9363(4)
H24 H 0.2007 0.0280 1.0002
C39 C -0.1917(3) 0.2584(3) 0.6567(4)
H25 H -0.2186 0.2439 0.5904
H26 H -0.1757 0.3069 0.6546
H27 H -0.2237 0.2545 0.7022
C40 C 0.0974(3) 0.3958(3) 0.9222(4)
H28 H 0.1461 0.4159 0.9275
H29 H 0.0825 0.4042 0.9836
H30 H 0.0620 0.4177 0.8669
O3 O 0.3508(6) -0.0419(5) 1.3065(8)
O4 O 0.2233(8) -0.0322(6) 1.2993(9)
O5 O 0.2622(9) -0.0853(6) 1.1869(10)
loop_
_geom_bond_atom_site_label_1
_geom_bond_atom_site_label_2
_geom_bond_site_symmetry_1
_geom_bond_site_symmetry_2
Cl1 C1 1_555 1_555
Cl2 C11 1_555 1_555
O1 C3 1_555 1_555
N1 C1 1_555 1_555
N2 C2 1_555 1_555
N3 C1 1_555 1_555
N4 C10 1_555 1_555
N5 C11 1_555 1_555
N6 C10 1_555 1_555
N7 C2 1_555 1_555
N8 H1 1_555 1_555
N9 C8 1_555 1_555
C2 N1 1_555 1_555
C3 N2 1_555 1_555
C4 N7 1_555 1_555
C5 C4 1_555 1_555
H2 C5 1_555 1_555
C6 C5 1_555 1_555
H3 C6 1_555 1_555
C7 C6 1_555 1_555
H4 C7 1_555 1_555
C8 C7 1_555 1_555
C9 C4 1_555 1_555
H5 C9 1_555 1_555
C10 N9 1_555 1_555
C11 N4 1_555 1_555
C12 N5 1_555 1_555
C13 N8 1_555 1_555
C14 C13 1_555 1_555
H6 C14 1_555 1_555
C15 O1 1_555 1_555
C16 C15 1_555 1_555
H7 C16 1_555 1_555
C17 C16 1_555 1_555
H8 C17 1_555 1_555
C18 C13 1_555 1_555
H9 C18 1_555 1_555
C19 N7 1_555 1_555
H10 C19 1_555 1_555
H11 C19 1_555 1_555
H12 C19 1_555 1_555
C20 N9 1_555 1_555
H13 C20 1_555 1_555
H14 C20 1_555 1_555
H15 C20 1_555 1_555
Cl3 C21 1_555 1_555
Cl4 C31 1_555 1_555
O2 C32 1_555 1_555
N10 C21 1_555 1_555
N11 C21 1_555 1_555
N12 C22 1_555 1_555
N13 C31 1_555 1_555
N14 C30 1_555 1_555
N15 C30 1_555 1_555
N16 C22 1_555 1_555
N17 H16 1_555 1_555
N18 C28 1_555 1_555
C22 N11 1_555 1_555
C23 N10 1_555 1_555
C24 N16 1_555 1_555
C25 C24 1_555 1_555
H17 C25 1_555 1_555
C26 C25 1_555 1_555
H18 C26 1_555 1_555
C27 C26 1_555 1_555
H19 C27 1_555 1_555
C28 C27 1_555 1_555
C29 C24 1_555 1_555
H20 C29 1_555 1_555
C30 N18 1_555 1_555
C31 N14 1_555 1_555
C32 N13 1_555 1_555
C33 O2 1_555 1_555
C34 C33 1_555 1_555
H21 C34 1_555 1_555
C35 N17 1_555 1_555
C36 C35 1_555 1_555
H22 C36 1_555 1_555
C37 C36 1_555 1_555
H23 C37 1_555 1_555
C38 C33 1_555 1_555
H24 C38 1_555 1_555
C39 N16 1_555 1_555
H25 C39 1_555 1_555
H26 C39 1_555 1_555
H27 C39 1_555 1_555
C40 N18 1_555 1_555
H28 C40 1_555 1_555
H29 C40 1_555 1_555
H30 C40 1_555 1_555
N3 C3 1_555 1_555
N6 C12 1_555 1_555
N8 C12 1_555 1_555
C8 C9 1_555 1_555
C14 C15 1_555 1_555
C17 C18 1_555 1_555
N12 C23 1_555 1_555
N15 C32 1_555 1_555
N17 C23 1_555 1_555
C28 C29 1_555 1_555
C34 C35 1_555 1_555
C37 C38 1_555 1_555

#END
