
#######################################################################
#
#                 Cambridge Crystallographic Data Centre
#                                CCDC 
#
#######################################################################
#
# If this CIF has been generated from an entry in the Cambridge 
# Structural Database, then it will include bibliographic, chemical, 
# crystal, experimental, refinement or atomic coordinate data resulting 
# from the CCDC's data processing and validation procedures.
#
#######################################################################

data_FAZGEV
_chemical_formula_moiety         'C28 H21 N2 O2 P1'
_chemical_name_systematic        
N-(5-(diphenylphosphoryl)quinolin-8-yl)benzamide
_symmetry_cell_setting           monoclinic
_symmetry_space_group_name_H-M   'P 21/c'
_symmetry_Int_Tables_number      14
_space_group_name_Hall           '-P 2ybc'
loop_
_symmetry_equiv_pos_site_id
_symmetry_equiv_pos_as_xyz
1 x,y,z
2 -x,1/2+y,1/2-z
3 -x,-y,-z
4 x,1/2-y,1/2+z
_cell_length_a                   12.9056(3)
_cell_length_b                   8.9810(2)
_cell_length_c                   20.4045(5)
_cell_angle_alpha                90
_cell_angle_beta                 106.848(3)
_cell_angle_gamma                90
_cell_volume                     2263.48
_exptl_crystal_colour            colorless
_exptl_crystal_description       prism
_cell_formula_units_Z            4
loop_
_atom_site_label
_atom_site_type_symbol
_atom_site_fract_x
_atom_site_fract_y
_atom_site_fract_z
C1 C 0.79527(14) 1.0392(2) 0.36759(9)
C2 C 0.74864(16) 1.1718(2) 0.33947(11)
H1 H 0.7155 1.1782 0.2926
C3 C 0.75094(19) 1.2947(3) 0.38042(13)
H2 H 0.7187 1.3832 0.3612
C4 C 0.8006(2) 1.2865(3) 0.44923(13)
H3 H 0.8024 1.3695 0.4768
C5 C 0.8479(2) 1.1554(3) 0.47769(12)
H4 H 0.8818 1.1506 0.5245
C6 C 0.84570(18) 1.0301(3) 0.43743(11)
H5 H 0.8775 0.9416 0.4570
C7 C 0.67288(14) 0.7701(2) 0.31851(9)
C8 C 0.63500(17) 0.7681(3) 0.37536(11)
H6 H 0.6705 0.8221 0.4143
C9 C 0.54384(19) 0.6852(3) 0.37411(12)
H7 H 0.5178 0.6849 0.4121
C10 C 0.49180(18) 0.6037(3) 0.31747(13)
H8 H 0.4303 0.5492 0.3169
C11 C 0.53068(19) 0.6024(3) 0.26135(12)
H9 H 0.4967 0.5448 0.2233
C12 C 0.61994(16) 0.6867(3) 0.26167(11)
H10 H 0.6449 0.6876 0.2233
C13 C 0.90602(14) 0.7710(2) 0.34394(8)
C14 C 0.90535(15) 0.6426(2) 0.37971(9)
H11 H 0.8436 0.6193 0.3924
C15 C 0.99365(15) 0.5443(2) 0.39824(10)
H12 H 0.9903 0.4589 0.4233
C16 C 1.08528(14) 0.5754(2) 0.37899(9)
C17 C 1.09225(14) 0.7132(2) 0.34542(9)
C18 C 1.00340(14) 0.8120(2) 0.32786(8)
C19 C 1.01777(16) 0.9484(2) 0.29734(10)
H13 H 0.9618 1.0176 0.2855
C20 C 1.11448(17) 0.9780(3) 0.28531(11)
H14 H 1.1255 1.0679 0.2656
C21 C 1.19667(17) 0.8712(3) 0.30305(11)
H15 H 1.2613 0.8920 0.2934
C22 C 1.19809(16) 0.3574(2) 0.42854(10)
C23 C 1.30263(16) 0.2849(2) 0.42865(9)
C24 C 1.3093(2) 0.1316(3) 0.42923(12)
H16 H 1.2497 0.0746 0.4305
C25 C 1.4047(2) 0.0622(3) 0.42789(12)
H17 H 1.4082 -0.0412 0.4267
C26 C 1.4939(2) 0.1458(4) 0.42830(14)
H18 H 1.5579 0.0991 0.4277
C27 C 1.4887(2) 0.2976(4) 0.42966(14)
H19 H 1.5498 0.3540 0.4311
C28 C 1.39304(18) 0.3678(3) 0.42885(12)
H20 H 1.3894 0.4712 0.4284
N1 N 1.18864(13) 0.74334(19) 0.33243(8)
N2 N 1.17477(14) 0.4820(2) 0.39001(9)
H21 H 1.2118(19) 0.498(3) 0.3627(13)
O1 O 0.76791(11) 0.92796(17) 0.23860(6)
O2 O 1.14148(15) 0.3074(2) 0.46191(10)
P1 P 0.78517(3) 0.88214(5) 0.31095(2)
loop_
_geom_bond_atom_site_label_1
_geom_bond_atom_site_label_2
_geom_bond_site_symmetry_1
_geom_bond_site_symmetry_2
C1 C2 1_555 1_555
C2 H1 1_555 1_555
C3 C2 1_555 1_555
H2 C3 1_555 1_555
C4 C3 1_555 1_555
H3 C4 1_555 1_555
C5 C4 1_555 1_555
H4 C5 1_555 1_555
C6 C1 1_555 1_555
H5 C6 1_555 1_555
C7 C8 1_555 1_555
C8 H6 1_555 1_555
C9 C8 1_555 1_555
H7 C9 1_555 1_555
C10 C9 1_555 1_555
H8 C10 1_555 1_555
C11 C10 1_555 1_555
H9 C11 1_555 1_555
C12 C7 1_555 1_555
H10 C12 1_555 1_555
C13 C14 1_555 1_555
C14 H11 1_555 1_555
C15 C14 1_555 1_555
H12 C15 1_555 1_555
C16 C15 1_555 1_555
C17 C16 1_555 1_555
C18 C13 1_555 1_555
C19 C18 1_555 1_555
H13 C19 1_555 1_555
C20 C19 1_555 1_555
H14 C20 1_555 1_555
C21 C20 1_555 1_555
H15 C21 1_555 1_555
C22 C23 1_555 1_555
C23 C24 1_555 1_555
C24 H16 1_555 1_555
C25 C24 1_555 1_555
H17 C25 1_555 1_555
C26 C25 1_555 1_555
H18 C26 1_555 1_555
C27 C26 1_555 1_555
H19 C27 1_555 1_555
C28 C23 1_555 1_555
H20 C28 1_555 1_555
N1 C17 1_555 1_555
N2 C16 1_555 1_555
H21 N2 1_555 1_555
O1 P1 1_555 1_555
O2 C22 1_555 1_555
P1 C1 1_555 1_555
C5 C6 1_555 1_555
C7 P1 1_555 1_555
C11 C12 1_555 1_555
C13 P1 1_555 1_555
C17 C18 1_555 1_555
C21 N1 1_555 1_555
C22 N2 1_555 1_555
C27 C28 1_555 1_555

#END
