
#######################################################################
#
#                 Cambridge Crystallographic Data Centre
#                                CCDC 
#
#######################################################################
#
# If this CIF has been generated from an entry in the Cambridge 
# Structural Database, then it will include bibliographic, chemical, 
# crystal, experimental, refinement or atomic coordinate data resulting 
# from the CCDC's data processing and validation procedures.
#
#######################################################################

data_FAZNAY
_chemical_formula_moiety         'C17 H14 N2 O1'
_chemical_name_systematic        
(2E,5E)-2,5-bis(pyridin-2-ylmethylene)cyclopentanone
_symmetry_cell_setting           monoclinic
_symmetry_space_group_name_H-M   'P 21/c'
_symmetry_Int_Tables_number      14
_space_group_name_Hall           '-P 2ybc'
loop_
_symmetry_equiv_pos_site_id
_symmetry_equiv_pos_as_xyz
1 x,y,z
2 -x,1/2+y,1/2-z
3 -x,-y,-z
4 x,1/2-y,1/2+z
_cell_length_a                   3.9053(3)
_cell_length_b                   28.382(2)
_cell_length_c                   11.3000(10)
_cell_angle_alpha                90
_cell_angle_beta                 93.656(4)
_cell_angle_gamma                90
_cell_volume                     1249.95
_exptl_crystal_colour            yellowish
_exptl_crystal_description       needle
_cell_formula_units_Z            4
_exptl_crystal_recrystallization_method 'dichloromethane / hexane'
loop_
_atom_site_label
_atom_site_type_symbol
_atom_site_fract_x
_atom_site_fract_y
_atom_site_fract_z
O1 O 0.1154(4) 0.12366(5) -0.00430(12)
N1 N 0.6987(4) 0.24986(5) 0.27351(14)
N2 N -0.1572(4) 0.00958(5) 0.33511(15)
C1 C 0.8570(5) 0.28917(7) 0.30935(18)
C2 C 0.9578(5) 0.32460(7) 0.23490(19)
C3 C 0.8881(5) 0.31914(7) 0.11493(19)
C4 C 0.7227(5) 0.27894(7) 0.07375(18)
C5 C 0.6311(5) 0.24484(6) 0.15543(16)
C6 C 0.4606(5) 0.20180(6) 0.11070(18)
C7 C 0.3384(5) 0.16524(6) 0.17022(17)
C8 C 0.1699(5) 0.12569(6) 0.10284(17)
C9 C 0.0756(5) 0.08912(6) 0.18972(17)
C10 C 0.2033(5) 0.10430(7) 0.31284(17)
C11 C 0.3326(5) 0.15552(7) 0.30079(17)
C12 C -0.0860(5) 0.05004(6) 0.15026(18)
C13 C -0.2023(5) 0.00930(6) 0.21592(17)
C14 C -0.3544(5) -0.02843(7) 0.15375(19)
C15 C -0.4730(5) -0.06668(7) 0.2147(2)
C16 C -0.4296(5) -0.06642(7) 0.3362(2)
C17 C -0.2680(5) -0.02807(7) 0.39257(19)
H1 H 0.906(6) 0.2924(8) 0.396(2)
H2 H 1.072(5) 0.3523(7) 0.2674(18)
H3 H 0.956(5) 0.3435(7) 0.0569(17)
H4 H 0.667(5) 0.2734(7) -0.0081(18)
H5 H 0.426(5) 0.2012(7) 0.0257(19)
H6 H 0.392(5) 0.0835(7) 0.3426(17)
H7 H 0.011(5) 0.1020(7) 0.3683(18)
H8 H 0.165(5) 0.1782(7) 0.3356(18)
H9 H 0.566(6) 0.1603(8) 0.3439(19)
H10 H -0.143(5) 0.0476(7) 0.0620(18)
H11 H -0.365(5) -0.0271(7) 0.0656(18)
H12 H -0.582(6) -0.0927(8) 0.1691(19)
H13 H -0.496(6) -0.0915(8) 0.382(2)
H14 H -0.225(6) -0.0298(8) 0.478(2)
loop_
_geom_bond_atom_site_label_1
_geom_bond_atom_site_label_2
_geom_bond_site_symmetry_1
_geom_bond_site_symmetry_2
O1 C8 1_555 1_555
N1 C1 1_555 1_555
N2 C13 1_555 1_555
C1 C2 1_555 1_555
C2 C3 1_555 1_555
C3 C4 1_555 1_555
C4 C5 1_555 1_555
C5 N1 1_555 1_555
C6 C5 1_555 1_555
C7 C6 1_555 1_555
C8 C7 1_555 1_555
C9 C8 1_555 1_555
C10 C9 1_555 1_555
C11 C7 1_555 1_555
C12 C9 1_555 1_555
C13 C12 1_555 1_555
C14 C13 1_555 1_555
C15 C14 1_555 1_555
C16 C15 1_555 1_555
C17 N2 1_555 1_555
H1 C1 1_555 1_555
H2 C2 1_555 1_555
H3 C3 1_555 1_555
H4 C4 1_555 1_555
H5 C6 1_555 1_555
H6 C10 1_555 1_555
H7 C10 1_555 1_555
H8 C11 1_555 1_555
H9 C11 1_555 1_555
H10 C12 1_555 1_555
H11 C14 1_555 1_555
H12 C15 1_555 1_555
H13 C16 1_555 1_555
H14 C17 1_555 1_555
C10 C11 1_555 1_555
C16 C17 1_555 1_555

#END
