
#######################################################################
#
#                 Cambridge Crystallographic Data Centre
#                                CCDC 
#
#######################################################################
#
# If this CIF has been generated from an entry in the Cambridge 
# Structural Database, then it will include bibliographic, chemical, 
# crystal, experimental, refinement or atomic coordinate data resulting 
# from the CCDC's data processing and validation procedures.
#
#######################################################################

data_FAZNEC
_chemical_formula_moiety         'C24 H32 N2 O4,C1 H4 O1'
_chemical_name_systematic        
'4-[(4-{[(tricyclo[3.3.1.1^3,7^]decan-1-yl)carbamoyl]amino}cyclohexyl)oxy]benzoic acid methanol solvate'
_symmetry_cell_setting           monoclinic
_symmetry_space_group_name_H-M   'C 2/c'
_symmetry_Int_Tables_number      15
_space_group_name_Hall           '-C 2yn'
loop_
_symmetry_equiv_pos_site_id
_symmetry_equiv_pos_as_xyz
1 x,y,z
2 -x,y,1/2-z
3 1/2+x,1/2+y,z
4 1/2-x,1/2+y,1/2-z
5 -x,-y,-z
6 x,-y,1/2+z
7 1/2-x,1/2-y,-z
8 1/2+x,1/2-y,1/2+z
_cell_length_a                   36.6234(14)
_cell_length_b                   6.8024(3)
_cell_length_c                   22.9580(9)
_cell_angle_alpha                90
_cell_angle_beta                 125.914(2)
_cell_angle_gamma                90
_cell_volume                     4632.18
_exptl_crystal_colour            colorless
_exptl_crystal_description       block
_cell_formula_units_Z            8
loop_
_atom_site_label
_atom_site_type_symbol
_atom_site_fract_x
_atom_site_fract_y
_atom_site_fract_z
O1 O 0.17857(2) 1.02272(8) 0.62060(3)
O2 O 0.06686(2) 0.66124(8) 0.31083(3)
O3 O 0.01816(2) 0.24907(8) 0.02851(3)
H1 H 0.0080(5) 0.157(3) -0.0096(9)
O4 O 0.01175(2) -0.01457(8) 0.08071(3)
N1 N 0.16253(2) 0.75419(9) 0.66311(3)
H2 H 0.1561(4) 0.6249(19) 0.6550(6)
C1 C 0.18025(2) 0.82490(10) 0.73571(4)
N2 N 0.15440(2) 0.73677(9) 0.55667(3)
H3 H 0.1472(4) 0.617(2) 0.5575(6)
C2 C 0.17021(3) 0.66197(11) 0.77090(4)
H4 H 0.137285 0.639045 0.742080
H5 H 0.184816 0.538117 0.772044
C3 C 0.23146(2) 0.85836(11) 0.78132(4)
H6 H 0.246695 0.736005 0.783005
H7 H 0.238475 0.962537 0.759165
C4 C 0.15662(2) 1.01464(11) 0.73370(4)
H8 H 0.162416 1.121137 0.710698
H9 H 0.123665 0.992697 0.704850
C5 C 0.18785(3) 0.72090(12) 0.84789(4)
H10 H 0.181206 0.613789 0.870240
C6 C 0.24890(2) 0.91941(11) 0.85801(4)
H11 H 0.282184 0.941784 0.887122
C7 C 0.17438(2) 1.07555(11) 0.81067(4)
H12 H 0.159051 1.199263 0.809022
C8 C 0.16472(3) 0.91169(13) 0.84587(4)
H13 H 0.131793 0.890345 0.818122
H14 H 0.176135 0.950658 0.895390
C9 C 0.23897(3) 0.75480(12) 0.89255(4)
H15 H 0.250590 0.791866 0.942325
H16 H 0.254248 0.632279 0.894502
C10 C 0.22545(3) 1.11050(11) 0.85500(4)
H17 H 0.236984 1.152285 0.904321
H18 H 0.231971 1.216152 0.832665
C11 C 0.16602(2) 0.84884(10) 0.61418(3)
C12 C 0.15161(2) 0.81331(10) 0.49483(4)
H19 H 0.176343 0.911103 0.511927
C13 C 0.15758(2) 0.64396(11) 0.45710(4)
H20 H 0.186623 0.577236 0.492060
H21 H 0.158738 0.697837 0.418158
C14 C 0.11922(2) 0.49323(10) 0.42517(4)
H22 H 0.123093 0.393654 0.397745
H23 H 0.120916 0.424848 0.464761
C15 C 0.07286(2) 0.58911(10) 0.37554(4)
H24 H 0.048891 0.490297 0.362144
C16 C 0.06723(2) 0.76709(11) 0.40979(4)
H25 H 0.065087 0.721990 0.448692
H26 H 0.038648 0.834487 0.373180
C17 C 0.10614(3) 0.91365(10) 0.44089(4)
H27 H 0.101781 1.021591 0.465186
H28 H 0.106162 0.971447 0.401336
C18 C 0.05616(2) 0.53081(10) 0.25835(3)
C19 C 0.04919(2) 0.32894(10) 0.26043(4)
H29 H 0.052747 0.272944 0.301388
C20 C 0.03705(2) 0.21155(10) 0.20209(4)
H30 H 0.032221 0.074873 0.203340
C21 C 0.03186(2) 0.29173(10) 0.14166(3)
C22 C 0.03867(2) 0.49351(10) 0.13993(4)
H31 H 0.034730 0.549629 0.098695
C23 C 0.05109(2) 0.61158(10) 0.19782(4)
H32 H 0.056201 0.747937 0.196590
C24 C 0.01975(2) 0.16233(10) 0.08130(4)
O5 O 0.13467(2) 1.35907(8) 0.58924(3)
H33 H 0.1504(5) 1.250(2) 0.6018(7)
C25 C 0.08852(3) 1.31112(13) 0.55377(5)
H34 H 0.077571 1.239863 0.509230
H35 H 0.071001 1.432088 0.542365
H36 H 0.085113 1.228265 0.585225
loop_
_geom_bond_atom_site_label_1
_geom_bond_atom_site_label_2
_geom_bond_site_symmetry_1
_geom_bond_site_symmetry_2
O1 C11 1_555 1_555
O2 C15 1_555 1_555
O3 H1 1_555 1_555
O4 C24 1_555 1_555
N1 H2 1_555 1_555
C1 N1 1_555 1_555
N2 H3 1_555 1_555
C2 C1 1_555 1_555
H4 C2 1_555 1_555
H5 C2 1_555 1_555
C3 C1 1_555 1_555
H6 C3 1_555 1_555
H7 C3 1_555 1_555
C4 C1 1_555 1_555
H8 C4 1_555 1_555
H9 C4 1_555 1_555
C5 C2 1_555 1_555
H10 C5 1_555 1_555
C6 C3 1_555 1_555
H11 C6 1_555 1_555
C7 C4 1_555 1_555
H12 C7 1_555 1_555
C8 C5 1_555 1_555
H13 C8 1_555 1_555
H14 C8 1_555 1_555
C9 C5 1_555 1_555
H15 C9 1_555 1_555
H16 C9 1_555 1_555
C10 C6 1_555 1_555
H17 C10 1_555 1_555
H18 C10 1_555 1_555
C11 N1 1_555 1_555
C12 N2 1_555 1_555
H19 C12 1_555 1_555
C13 C12 1_555 1_555
H20 C13 1_555 1_555
H21 C13 1_555 1_555
C14 C13 1_555 1_555
H22 C14 1_555 1_555
H23 C14 1_555 1_555
C15 C14 1_555 1_555
H24 C15 1_555 1_555
C16 C15 1_555 1_555
H25 C16 1_555 1_555
H26 C16 1_555 1_555
C17 C12 1_555 1_555
H27 C17 1_555 1_555
H28 C17 1_555 1_555
C18 O2 1_555 1_555
C19 C18 1_555 1_555
H29 C19 1_555 1_555
C20 C19 1_555 1_555
H30 C20 1_555 1_555
C21 C20 1_555 1_555
C22 C21 1_555 1_555
H31 C22 1_555 1_555
C23 C18 1_555 1_555
H32 C23 1_555 1_555
C24 O3 1_555 1_555
O5 H33 1_555 1_555
C25 O5 1_555 1_555
H34 C25 1_555 1_555
H35 C25 1_555 1_555
H36 C25 1_555 1_555
N2 C11 1_555 1_555
C6 C9 1_555 1_555
C7 C8 1_555 1_555
C7 C10 1_555 1_555
C16 C17 1_555 1_555
C21 C24 1_555 1_555
C22 C23 1_555 1_555

#END
