
#######################################################################
#
#                 Cambridge Crystallographic Data Centre
#                                CCDC 
#
#######################################################################
#
# If this CIF has been generated from an entry in the Cambridge 
# Structural Database, then it will include bibliographic, chemical, 
# crystal, experimental, refinement or atomic coordinate data resulting 
# from the CCDC's data processing and validation procedures.
#
#######################################################################

data_FAZSOO
_chemical_formula_moiety         'C29 H36 O6 S2'
_chemical_name_systematic        
trans-2-Benzyloxy-3,3-propylenedithio-6-methyl-10,10-bis(methoxycarbonyl)-1(2,5)furanaundecaphan-6-ene
_symmetry_cell_setting           monoclinic
_symmetry_space_group_name_H-M   'P 21/n'
_symmetry_Int_Tables_number      14
_space_group_name_Hall           '-P 2yn'
loop_
_symmetry_equiv_pos_site_id
_symmetry_equiv_pos_as_xyz
1 x,y,z
2 1/2-x,1/2+y,1/2-z
3 -x,-y,-z
4 1/2+x,1/2-y,1/2+z
_cell_length_a                   11.2091(9)
_cell_length_b                   21.9959(12)
_cell_length_c                   12.4331(9)
_cell_angle_alpha                90
_cell_angle_beta                 108.009(6)
_cell_angle_gamma                90
_cell_volume                     2915.25
_cell_formula_units_Z            4
loop_
_atom_site_label
_atom_site_type_symbol
_atom_site_fract_x
_atom_site_fract_y
_atom_site_fract_z
C1 C 0.9993(5) 0.83757(23) 0.0178(5)
C2 C 0.8667(5) 0.86522(24) -0.0269(5)
C3 C 0.8549(5) 0.9333(3) -0.0023(4)
C4 C 0.7470(5) 0.96254(25) -0.0928(4)
C5 C 0.7699(5) 0.9999(3) -0.1664(4)
C6 C 0.6787(5) 1.0240(3) -0.2724(5)
C7 C 0.6719(5) 0.9843(3) -0.3768(4)
C8 C 0.7665(5) 0.99605(24) -0.4408(4)
C9 C 0.9055(5) 0.9924(3) -0.3703(4)
C10 C 0.9466(5) 0.9328(3) -0.3165(4)
C11 C 0.9494(6) 0.8755(3) -0.3511(5)
C12 C 1.0064(6) 0.8390(3) -0.2540(5)
C13 C 1.0345(5) 0.87587(24) -0.1643(4)
C14 C 1.0882(5) 0.86932(24) -0.0383(4)
C15 C 0.6184(6) 0.9426(3) -0.0913(6)
C16 C 1.1836(6) 0.7978(3) 0.2212(5)
C17 C 1.1528(6) 0.7321(3) 0.1898(5)
C18 C 1.1177(6) 0.7199(3) 0.0628(5)
C19 C 1.3071(6) 0.8710(3) -0.0224(6)
C20 C 1.4152(5) 0.8296(3) 0.0014(5)
C21 C 1.4211(7) 0.7854(3) -0.0769(6)
C22 C 1.5246(8) 0.7479(4) -0.0530(8)
C23 C 1.6156(6) 0.7545(4) 0.0406(8)
C24 C 1.6204(7) 0.7965(4) 0.1221(8)
C25 C 1.5110(6) 0.8336(3) 0.0984(6)
C26 C 0.7374(5) 0.9524(3) -0.5417(4)
C27 C 0.8023(8) 0.9223(5) -0.6946(7)
C28 C 0.7471(5) 1.0605(3) -0.4894(4)
C29 C 0.6263(7) 1.1224(3) -0.6373(6)
O1 O 1.0003(3) 0.93370(16) -0.2005(3)
O2 O 1.2040(3) 0.83630(16) -0.0088(3)
O3 O 0.6532(4) 0.91729(19) -0.5682(3)
O4 O 0.8192(4) 0.96046(22) -0.5969(3)
O5 O 0.8100(4) 1.10408(17) -0.4522(3)
O6 O 0.6469(4) 1.06388(18) -0.5811(3)
S1 S 1.05215(16) 0.84907(7) 0.16999(13)
S2 S 0.97571(17) 0.75737(7) -0.02111(14)
H1 H 0.843(4) 0.8617(18) -0.111(3)
H2 H 0.811(4) 0.8414(18) 0.009(3)
H3 H 0.937(3) 0.9549(17) -0.001(3)
H4 H 0.846(4) 0.9408(19) 0.077(3)
H5 H 0.862(3) 1.0056(18) -0.157(3)
H6 H 0.590(3) 1.0273(17) -0.261(3)
H7 H 0.709(4) 1.0657(19) -0.289(3)
H8 H 0.588(3) 0.9826(16) -0.428(3)
H9 H 0.678(3) 0.9387(17) -0.358(3)
H10 H 0.917(3) 1.0233(16) -0.309(3)
H11 H 0.954(3) 1.0069(17) -0.423(3)
H12 H 0.928(4) 0.8618(22) -0.431(4)
H13 H 1.019(4) 0.7953(17) -0.253(3)
H14 H 1.109(4) 0.9102(18) -0.003(3)
H15 H 1.206(4) 0.8024(20) 0.299(4)
H16 H 1.259(4) 0.8117(19) 0.193(3)
H17 H 1.079(4) 0.7200(19) 0.216(4)
H18 H 1.232(4) 0.7080(19) 0.230(3)
H19 H 1.186(4) 0.7331(19) 0.037(3)
H20 H 1.100(4) 0.6765(18) 0.052(3)
H21 H 1.280(6) 0.882(3) -0.105(6)
H22 H 1.322(5) 0.908(3) 0.040(5)
H23 H 1.341(7) 0.787(3) -0.145(6)
H24 H 1.519(5) 0.725(3) -0.108(5)
H25 H 1.690(6) 0.734(3) 0.064(5)
H26 H 1.685(5) 0.803(3) 0.188(5)
H27 H 1.506(5) 0.8585(23) 0.163(5)
H28 H 0.625(5) 0.9479(23) -0.014(4)
H29 H 0.562(4) 0.9587(21) -0.150(4)
H30 H 0.609(5) 0.897(3) -0.110(5)
H31 H 0.873 0.929 -0.737
H32 H 0.810 0.873 -0.670
H33 H 0.710 0.927 -0.757
H34 H 0.543 1.123 -0.712
H35 H 0.613 1.159 -0.581
H36 H 0.706 1.136 -0.665
loop_
_geom_bond_atom_site_label_1
_geom_bond_atom_site_label_2
_geom_bond_site_symmetry_1
_geom_bond_site_symmetry_2
C1 C2 1_555 1_555
C2 C3 1_555 1_555
C3 C4 1_555 1_555
C4 C5 1_555 1_555
C5 C6 1_555 1_555
C6 C7 1_555 1_555
C7 C8 1_555 1_555
C8 C9 1_555 1_555
C9 C10 1_555 1_555
C10 C11 1_555 1_555
C11 C12 1_555 1_555
C12 C13 1_555 1_555
C13 C14 1_555 1_555
C14 C1 1_555 1_555
C15 C4 1_555 1_555
C16 C17 1_555 1_555
C17 C18 1_555 1_555
C18 S2 1_555 1_555
C19 C20 1_555 1_555
C20 C21 1_555 1_555
C21 C22 1_555 1_555
C22 C23 1_555 1_555
C23 C24 1_555 1_555
C24 C25 1_555 1_555
C25 C20 1_555 1_555
C26 C8 1_555 1_555
C27 O4 1_555 1_555
C28 C8 1_555 1_555
C29 O6 1_555 1_555
O1 C10 1_555 1_555
O2 C14 1_555 1_555
O3 C26 1_555 1_555
O4 C26 1_555 1_555
O5 C28 1_555 1_555
O6 C28 1_555 1_555
S1 C1 1_555 1_555
S2 C1 1_555 1_555
H1 C2 1_555 1_555
H2 C2 1_555 1_555
H3 C3 1_555 1_555
H4 C3 1_555 1_555
H5 C5 1_555 1_555
H6 C6 1_555 1_555
H7 C6 1_555 1_555
H8 C7 1_555 1_555
H9 C7 1_555 1_555
H10 C9 1_555 1_555
H11 C9 1_555 1_555
H12 C11 1_555 1_555
H13 C12 1_555 1_555
H14 C14 1_555 1_555
H15 C16 1_555 1_555
H16 C16 1_555 1_555
H17 C17 1_555 1_555
H18 C17 1_555 1_555
H19 C18 1_555 1_555
H20 C18 1_555 1_555
H21 C19 1_555 1_555
H22 C19 1_555 1_555
H23 C21 1_555 1_555
H24 C22 1_555 1_555
H25 C23 1_555 1_555
H26 C24 1_555 1_555
H27 C25 1_555 1_555
H28 C15 1_555 1_555
H29 C15 1_555 1_555
H30 C15 1_555 1_555
H31 C27 1_555 1_555
H32 C27 1_555 1_555
H33 C27 1_555 1_555
H34 C29 1_555 1_555
H35 C29 1_555 1_555
H36 C29 1_555 1_555
C13 O1 1_555 1_555
C16 S1 1_555 1_555
C19 O2 1_555 1_555

#END
