
#######################################################################
#
#                 Cambridge Crystallographic Data Centre
#                                CCDC 
#
#######################################################################
#
# If this CIF has been generated from an entry in the Cambridge 
# Structural Database, then it will include bibliographic, chemical, 
# crystal, experimental, refinement or atomic coordinate data resulting 
# from the CCDC's data processing and validation procedures.
#
#######################################################################

data_FAZSOP
_chemical_formula_moiety         'C27 H23 N7 2+,2(F6 P1 1-),H2 O1'
_chemical_name_systematic        
'3,6,14,17,28,31,33-Heptaaza-heptacyclo(17.8.4.1^3,6^.1^8,12^.1^14,17^.0^22,30^.0^25,29^)tetratriaconta-1(28),4,8(33),9,11,15,19,20,22,24,26,29-dodecaene-32,34-bis(ylium) bis(hexafluorophosphate) monohydrate'
_symmetry_cell_setting           triclinic
_symmetry_space_group_name_H-M   'P -1'
_symmetry_Int_Tables_number      2
_space_group_name_Hall           '-P 1'
loop_
_symmetry_equiv_pos_site_id
_symmetry_equiv_pos_as_xyz
1 x,y,z
2 -x,-y,-z
_cell_length_a                   8.8384(9)
_cell_length_b                   12.4665(13)
_cell_length_c                   14.1344(14)
_cell_angle_alpha                107.558(2)
_cell_angle_beta                 97.807(2)
_cell_angle_gamma                92.270(2)
_cell_volume                     1465.7
_exptl_crystal_colour            colorless
_exptl_crystal_description       block
_cell_formula_units_Z            2
_exptl_crystal_recrystallization_method acetonitrile
loop_
_atom_site_label
_atom_site_type_symbol
_atom_site_fract_x
_atom_site_fract_y
_atom_site_fract_z
P1 P 0.65886(7) 0.02669(5) 0.21172(4)
F1 F 0.81156(19) -0.01053(17) 0.16661(13)
F2 F 0.6033(2) -0.10250(13) 0.19040(12)
F3 F 0.50730(19) 0.06259(18) 0.25593(14)
F4 F 0.7182(2) 0.15402(14) 0.23214(16)
F5 F 0.74354(18) 0.03151(14) 0.31995(11)
F6 F 0.5746(2) 0.02008(15) 0.10292(12)
P2 P 0.19891(7) 0.40914(5) 0.38227(5)
F7 F 0.1622(2) 0.32981(15) 0.44693(13)
F8 F 0.36504(19) 0.36239(16) 0.37664(12)
F9 F 0.24214(19) 0.48871(14) 0.31741(12)
F10 F 0.03821(19) 0.45808(17) 0.38744(13)
F11 F 0.2725(2) 0.50652(13) 0.48318(11)
F12 F 0.1319(2) 0.31306(14) 0.28080(12)
O1 O 0.2553(2) 0.68313(15) 0.24635(14)
H1 H 0.317(4) 0.643(3) 0.199(3)
H2 H 0.242(5) 0.626(4) 0.287(4)
N1 N 0.2811(2) 0.92628(16) 0.42590(14)
N2 N 0.5280(2) 0.75778(16) 0.43214(14)
N3 N 0.5983(2) 0.61012(17) 0.32808(14)
N4 N 0.4379(2) 0.50010(16) 0.13971(14)
N5 N 0.3073(2) 0.63242(16) 0.03466(14)
N6 N 0.2331(2) 0.89781(16) 0.08987(14)
N7 N 0.1613(2) 0.99288(16) 0.22870(14)
C1 C 0.1415(3) 0.9407(2) 0.38246(17)
C2 C 0.0108(3) 0.8752(2) 0.38153(18)
H3 H -0.087(3) 0.892(2) 0.352(2)
C3 C 0.0235(3) 0.7924(2) 0.42836(19)
H4 H -0.061(4) 0.753(3) 0.433(2)
C4 C 0.1657(3) 0.7764(2) 0.47303(18)
H5 H 0.177(3) 0.721(2) 0.506(2)
C5 C 0.2915(3) 0.8446(2) 0.46934(16)
C6 C 0.4516(3) 0.8284(2) 0.51243(18)
H6 H 0.449(3) 0.786(2) 0.560(2)
H7 H 0.514(3) 0.897(3) 0.540(2)
C7 C 0.5897(3) 0.7929(2) 0.36080(18)
H8 H 0.593(3) 0.869(3) 0.362(2)
C8 C 0.6331(3) 0.7012(2) 0.29608(19)
H9 H 0.678(3) 0.694(2) 0.243(2)
C9 C 0.5338(3) 0.6472(2) 0.40996(17)
H10 H 0.499(3) 0.603(2) 0.445(2)
C10 C 0.6225(3) 0.4917(2) 0.28013(19)
H11 H 0.725(4) 0.488(2) 0.263(2)
H12 H 0.620(3) 0.452(3) 0.328(2)
C11 C 0.5045(3) 0.4351(2) 0.18863(18)
C12 C 0.4718(3) 0.3176(2) 0.1591(2)
H13 H 0.519(3) 0.275(3) 0.194(2)
C13 C 0.3645(3) 0.2676(2) 0.0773(2)
H14 H 0.342(3) 0.190(3) 0.054(2)
C14 C 0.2881(3) 0.3336(2) 0.02372(18)
C15 C 0.3314(3) 0.45054(19) 0.05769(17)
C16 C 0.1695(3) 0.2875(2) -0.06034(19)
H15 H 0.147(3) 0.209(3) -0.082(2)
C17 C 0.0966(3) 0.3543(2) -0.10792(19)
H16 H 0.020(3) 0.324(3) -0.160(2)
C18 C 0.2576(3) 0.52152(19) 0.00416(17)
C19 C 0.1390(3) 0.4731(2) -0.07757(17)
C20 C 0.0694(3) 0.5456(2) -0.12648(18)
H17 H -0.005(3) 0.517(2) -0.183(2)
C21 C 0.1209(3) 0.6571(2) -0.09597(18)
H18 H 0.080(3) 0.710(2) -0.127(2)
C22 C 0.2414(3) 0.6970(2) -0.01506(17)
C23 C 0.3124(3) 0.8168(2) 0.01735(18)
H19 H 0.419(3) 0.819(2) 0.050(2)
H20 H 0.309(3) 0.843(2) -0.040(2)
C24 C 0.1776(3) 0.9941(2) 0.07602(19)
H21 H 0.180(3) 1.009(2) 0.014(2)
C25 C 0.1329(3) 1.0534(2) 0.16219(19)
H22 H 0.094(3) 1.124(3) 0.182(2)
C26 C 0.2233(3) 0.8991(2) 0.18334(18)
H23 H 0.252(3) 0.842(2) 0.212(2)
C27 C 0.1346(3) 1.0328(2) 0.33418(18)
H24 H 0.209(3) 1.095(2) 0.370(2)
H25 H 0.038(3) 1.066(2) 0.335(2)
loop_
_geom_bond_atom_site_label_1
_geom_bond_atom_site_label_2
_geom_bond_site_symmetry_1
_geom_bond_site_symmetry_2
P1 F1 1_555 1_555
F2 P1 1_555 1_555
F3 P1 1_555 1_555
F4 P1 1_555 1_555
F5 P1 1_555 1_555
F6 P1 1_555 1_555
P2 F7 1_555 1_555
F8 P2 1_555 1_555
F9 P2 1_555 1_555
F10 P2 1_555 1_555
F11 P2 1_555 1_555
F12 P2 1_555 1_555
O1 H1 1_555 1_555
H2 O1 1_555 1_555
N1 C1 1_555 1_555
N2 C6 1_555 1_555
N3 C8 1_555 1_555
N4 C11 1_555 1_555
N5 C18 1_555 1_555
N6 C23 1_555 1_555
N7 C25 1_555 1_555
C1 C2 1_555 1_555
C2 H3 1_555 1_555
C3 C2 1_555 1_555
H4 C3 1_555 1_555
C4 C3 1_555 1_555
H5 C4 1_555 1_555
C5 N1 1_555 1_555
C6 C5 1_555 1_555
H6 C6 1_555 1_555
H7 C6 1_555 1_555
C7 N2 1_555 1_555
H8 C7 1_555 1_555
C8 C7 1_555 1_555
H9 C8 1_555 1_555
C9 N2 1_555 1_555
H10 C9 1_555 1_555
C10 N3 1_555 1_555
H11 C10 1_555 1_555
H12 C10 1_555 1_555
C11 C10 1_555 1_555
C12 C11 1_555 1_555
H13 C12 1_555 1_555
C13 C12 1_555 1_555
H14 C13 1_555 1_555
C14 C13 1_555 1_555
C15 N4 1_555 1_555
C16 C14 1_555 1_555
H15 C16 1_555 1_555
C17 C16 1_555 1_555
H16 C17 1_555 1_555
C18 C15 1_555 1_555
C19 C17 1_555 1_555
C20 C19 1_555 1_555
H17 C20 1_555 1_555
C21 C20 1_555 1_555
H18 C21 1_555 1_555
C22 N5 1_555 1_555
C23 C22 1_555 1_555
H19 C23 1_555 1_555
H20 C23 1_555 1_555
C24 N6 1_555 1_555
H21 C24 1_555 1_555
C25 C24 1_555 1_555
H22 C25 1_555 1_555
C26 N6 1_555 1_555
H23 C26 1_555 1_555
C27 N7 1_555 1_555
H24 C27 1_555 1_555
H25 C27 1_555 1_555
N3 C9 1_555 1_555
N7 C26 1_555 1_555
C1 C27 1_555 1_555
C4 C5 1_555 1_555
C14 C15 1_555 1_555
C18 C19 1_555 1_555
C21 C22 1_555 1_555

#END
