
#######################################################################
#
#                 Cambridge Crystallographic Data Centre
#                                CCDC 
#
#######################################################################
#
# If this CIF has been generated from an entry in the Cambridge 
# Structural Database, then it will include bibliographic, chemical, 
# crystal, experimental, refinement or atomic coordinate data resulting 
# from the CCDC's data processing and validation procedures.
#
#######################################################################

data_FAZVAD
_chemical_formula_moiety         'C29 H36 O6 S2'
_chemical_name_systematic        
cis-2-Benzyloxy-3,3-propylenedithio-6-methyl-10,10-bis(methoxycarbonyl)-1(2,5)furanaundecaphan-6-ene
_symmetry_cell_setting           orthorhombic
_symmetry_space_group_name_H-M   'P c a b'
_symmetry_Int_Tables_number      61
_space_group_name_Hall           '-P 2bc 2ac'
loop_
_symmetry_equiv_pos_site_id
_symmetry_equiv_pos_as_xyz
1 x,y,z
2 1/2+x,-y,1/2-z
3 1/2-x,1/2+y,-z
4 -x,1/2-y,1/2+z
5 -x,-y,-z
6 1/2-x,y,1/2+z
7 1/2+x,1/2-y,z
8 x,1/2+y,1/2-z
_cell_length_a                   12.9936(6)
_cell_length_b                   20.7674(10)
_cell_length_c                   21.5147(7)
_cell_angle_alpha                90
_cell_angle_beta                 90
_cell_angle_gamma                90
_cell_volume                     5805.6
_cell_formula_units_Z            8
loop_
_atom_site_label
_atom_site_type_symbol
_atom_site_fract_x
_atom_site_fract_y
_atom_site_fract_z
S1 S 0.91105(9) 0.57733(5) 0.85294(5)
S2 S 1.05802(9) 0.51656(5) 0.76019(4)
O1 O 1.11748(18) 0.40320(10) 0.93158(10)
O2 O 0.91344(19) 0.42423(10) 0.82461(10)
O3 O 1.48303(24) 0.38841(14) 0.91152(12)
O4 O 1.45090(23) 0.29665(11) 0.96090(13)
O5 O 1.3466(3) 0.35238(15) 1.10247(12)
O6 O 1.49595(23) 0.38852(14) 1.06571(12)
C1 C 1.0159(3) 0.51961(15) 0.84052(15)
C2 C 1.1083(3) 0.54804(16) 0.87613(16)
C3 C 1.0948(3) 0.56002(16) 0.94606(17)
C4 C 1.1889(3) 0.59242(16) 0.97248(17)
C5 C 1.2626(4) 0.56503(18) 1.00441(19)
C6 C 1.2721(4) 0.49499(18) 1.02330(18)
C7 C 1.3479(3) 0.45923(16) 0.98258(18)
C8 C 1.3573(3) 0.38649(15) 0.99548(15)
C9 C 1.2533(3) 0.35030(16) 0.98848(17)
C10 C 1.1996(3) 0.36074(15) 0.92832(17)
C11 C 1.2081(3) 0.33843(16) 0.87028(17)
C12 C 1.1295(3) 0.36868(16) 0.83454(16)
C13 C 1.0769(3) 0.40713(14) 0.87270(14)
C14 C 0.9871(3) 0.45192(16) 0.86585(14)
C15 C 1.1929(4) 0.66505(18) 0.96037(22)
C16 C 0.8186(3) 0.55855(18) 0.79309(20)
C17 C 0.8617(4) 0.56339(21) 0.72840(20)
C18 C 0.9400(4) 0.51135(19) 0.71482(17)
C19 C 0.8534(3) 0.37482(17) 0.85255(16)
C20 C 0.8065(3) 0.33376(15) 0.80312(16)
C21 C 0.8660(4) 0.29105(18) 0.76992(18)
C22 C 0.8225(5) 0.25214(22) 0.72443(18)
C23 C 0.7198(5) 0.25748(22) 0.71194(19)
C24 C 0.6583(4) 0.29996(23) 0.74509(24)
C25 C 0.7034(4) 0.33812(18) 0.79047(21)
C26 C 1.4375(3) 0.35916(17) 0.95028(16)
C27 C 1.5326(4) 0.26655(22) 0.92488(25)
C28 C 1.3963(3) 0.37347(17) 1.06049(16)
C29 C 1.5435(4) 0.3702(3) 1.12403(21)
H1 H 1.1671(22) 0.5189(12) 0.8683(12)
H2 H 1.1242(24) 0.5911(13) 0.8519(12)
H3 H 1.083(3) 0.5151(14) 0.9678(13)
H4 H 1.0330(25) 0.5888(14) 0.9525(12)
H5 H 1.336(4) 0.5951(19) 1.0225(19)
H6 H 1.3006(24) 0.4931(13) 1.0691(13)
H7 H 1.193(3) 0.4895(15) 1.0231(15)
H8 H 1.331(3) 0.4686(16) 0.9356(15)
H9 H 1.419(3) 0.4796(14) 0.9878(14)
H10 H 1.207(3) 0.3643(14) 1.0246(14)
H11 H 1.263(3) 0.3048(14) 0.9976(13)
H12 H 1.258(3) 0.3075(14) 0.8541(13)
H13 H 1.1178(22) 0.3648(12) 0.7921(12)
H14 H 0.9594(20) 0.4590(11) 0.9072(11)
H15 H 1.157(6) 0.680(3) 0.918(3)
H16 H 1.215(4) 0.6835(22) 0.9931(21)
H17 H 1.264(7) 0.677(3) 0.944(3)
H18 H 0.7660(24) 0.5938(13) 0.7986(12)
H19 H 0.783(3) 0.5116(16) 0.8024(16)
H20 H 0.805(3) 0.5601(18) 0.6968(18)
H21 H 0.892(3) 0.6036(16) 0.7225(15)
H22 H 0.910(3) 0.4681(16) 0.7211(16)
H23 H 0.9677(22) 0.5133(13) 0.6714(12)
H24 H 0.893(3) 0.3476(16) 0.8801(15)
H25 H 0.801(3) 0.3936(14) 0.8806(14)
H26 H 0.876(3) 0.2142(19) 0.7014(18)
H27 H 0.939(3) 0.2880(15) 0.7808(15)
H28 H 0.693(3) 0.2274(17) 0.6760(16)
H29 H 0.590(4) 0.3044(23) 0.7290(20)
H30 H 0.655(4) 0.3736(19) 0.8128(19)
H31 H 1.531(4) 0.2195(18) 0.9359(17)
H32 H 1.519(4) 0.2847(19) 0.8745(17)
H33 H 1.600(4) 0.2950(19) 0.9270(17)
H34 H 1.613(3) 0.3905(19) 1.1225(17)
H35 H 1.496(3) 0.3869(20) 1.1620(18)
H36 H 1.542(3) 0.3182(20) 1.1307(17)
loop_
_geom_bond_atom_site_label_1
_geom_bond_atom_site_label_2
_geom_bond_site_symmetry_1
_geom_bond_site_symmetry_2
S1 C1 1_555 1_555
S2 C1 1_555 1_555
O1 C10 1_555 1_555
O2 C14 1_555 1_555
O3 C26 1_555 1_555
O4 C26 1_555 1_555
O5 C28 1_555 1_555
O6 C28 1_555 1_555
C1 C2 1_555 1_555
C2 C3 1_555 1_555
C3 C4 1_555 1_555
C4 C5 1_555 1_555
C5 C6 1_555 1_555
C6 C7 1_555 1_555
C7 C8 1_555 1_555
C8 C9 1_555 1_555
C9 C10 1_555 1_555
C10 C11 1_555 1_555
C11 C12 1_555 1_555
C12 C13 1_555 1_555
C13 O1 1_555 1_555
C14 C1 1_555 1_555
C15 C4 1_555 1_555
C16 S1 1_555 1_555
C17 C16 1_555 1_555
C18 S2 1_555 1_555
C19 O2 1_555 1_555
C20 C19 1_555 1_555
C21 C20 1_555 1_555
C22 C21 1_555 1_555
C23 C22 1_555 1_555
C24 C23 1_555 1_555
C25 C20 1_555 1_555
C26 C8 1_555 1_555
C27 O4 1_555 1_555
C28 C8 1_555 1_555
C29 O6 1_555 1_555
H1 C2 1_555 1_555
H2 C2 1_555 1_555
H3 C3 1_555 1_555
H4 C3 1_555 1_555
H5 C5 1_555 1_555
H6 C6 1_555 1_555
H7 C6 1_555 1_555
H8 C7 1_555 1_555
H9 C7 1_555 1_555
H10 C9 1_555 1_555
H11 C9 1_555 1_555
H12 C11 1_555 1_555
H13 C12 1_555 1_555
H14 C14 1_555 1_555
H15 C15 1_555 1_555
H16 C15 1_555 1_555
H17 C15 1_555 1_555
H18 C16 1_555 1_555
H19 C16 1_555 1_555
H20 C17 1_555 1_555
H21 C17 1_555 1_555
H22 C18 1_555 1_555
H23 C18 1_555 1_555
H24 C19 1_555 1_555
H25 C19 1_555 1_555
H26 C22 1_555 1_555
H27 C21 1_555 1_555
H28 C23 1_555 1_555
H29 C24 1_555 1_555
H30 C25 1_555 1_555
H31 C27 1_555 1_555
H32 C27 1_555 1_555
H33 C27 1_555 1_555
H34 C29 1_555 1_555
H35 C29 1_555 1_555
H36 C29 1_555 1_555
C13 C14 1_555 1_555
C17 C18 1_555 1_555
C24 C25 1_555 1_555

#END
