
#######################################################################
#
#                 Cambridge Crystallographic Data Centre
#                                CCDC 
#
#######################################################################
#
# If this CIF has been generated from an entry in the Cambridge 
# Structural Database, then it will include bibliographic, chemical, 
# crystal, experimental, refinement or atomic coordinate data resulting 
# from the CCDC's data processing and validation procedures.
#
#######################################################################

data_FAZWIP
_chemical_formula_moiety         'C36 H48 B1 N1 O5 Si1'
_chemical_name_systematic        
'benzyl [4-{[t-butyl(dimethyl)silyl]oxy}-2-(cyclohex-1-en-1-yl)-3-(4,4,5,5-tetramethyl-1,3,2-dioxaborolan-2-yl)naphthalen-1-yl]carbamate'
_symmetry_cell_setting           triclinic
_symmetry_space_group_name_H-M   'P -1'
_symmetry_Int_Tables_number      2
_space_group_name_Hall           '-P 1'
loop_
_symmetry_equiv_pos_site_id
_symmetry_equiv_pos_as_xyz
1 x,y,z
2 -x,-y,-z
_cell_length_a                   7.2437(12)
_cell_length_b                   15.956(3)
_cell_length_c                   15.979(3)
_cell_angle_alpha                93.500(4)
_cell_angle_beta                 95.990(4)
_cell_angle_gamma                100.034(4)
_cell_volume                     1802.75
_exptl_crystal_colour            colorless
_exptl_crystal_description       prismatic
_cell_formula_units_Z            2
loop_
_atom_site_label
_atom_site_type_symbol
_atom_site_fract_x
_atom_site_fract_y
_atom_site_fract_z
Si1 Si 1.2760(3) 0.39291(13) 0.25373(17)
C1 C 1.332(2) 0.3997(10) 0.1443(10)
H1 H 1.2454 0.3569 0.1080
H2 H 1.4585 0.3905 0.1412
H3 H 1.3205 0.4552 0.1267
C2 C 1.374(3) 0.2981(11) 0.2871(15)
H4 H 1.3874 0.2989 0.3476
H5 H 1.4958 0.2996 0.2676
H6 H 1.2907 0.2469 0.2633
C3 C 1.3694(14) 0.4939(6) 0.3177(6)
C4 C 1.309(2) 0.5685(9) 0.2755(12)
H7 H 1.3914 0.6205 0.2988
H8 H 1.1819 0.5714 0.2850
H9 H 1.3170 0.5612 0.2160
C5 C 1.588(2) 0.5155(13) 0.3222(15)
H10 H 1.6226 0.5298 0.2678
H11 H 1.6402 0.4669 0.3387
H12 H 1.6353 0.5631 0.3629
C6 C 1.313(3) 0.4861(13) 0.4081(9)
H13 H 1.3825 0.5338 0.4446
H14 H 1.3419 0.4340 0.4285
H15 H 1.1804 0.4858 0.4072
N1 N 0.5619(5) 0.1115(3) 0.0619(2)
O1 O 0.2851(5) 0.0358(2) -0.0048(2)
O2 O 0.2953(4) 0.16281(19) 0.0681(2)
O3 O 1.0337(5) 0.3789(2) 0.2619(2)
B1 B 0.9026(9) 0.2267(4) 0.3441(3)
C7 C 0.7151(6) 0.2621(3) 0.0824(3)
C8 C 0.6486(7) 0.2779(3) -0.0014(3)
H16 H 0.5774 0.2334 -0.0376
C9 C 0.6878(8) 0.3572(4) -0.0290(4)
H17 H 0.6429 0.3665 -0.0837
C10 C 0.7944(8) 0.4245(4) 0.0239(4)
H18 H 0.8164 0.4788 0.0048
C11 C 0.8674(7) 0.4121(3) 0.1036(4)
H19 H 0.9402 0.4577 0.1379
C12 C 0.8321(6) 0.3298(3) 0.1339(3)
C13 C 0.9097(6) 0.3141(3) 0.2166(3)
C14 C 0.8550(6) 0.2373(3) 0.2498(3)
C15 C 0.7339(6) 0.1696(3) 0.1969(3)
C16 C 0.6697(6) 0.1823(3) 0.1154(3)
C17 C 0.3753(7) 0.0981(3) 0.0381(3)
C18 C 0.1001(6) 0.1583(3) 0.0390(4)
H20 H 0.0421 0.1884 0.0807
H21 H 0.0371 0.0991 0.0329
C19 C 0.0723(7) 0.1968(4) -0.0448(4)
C20 C -0.0527(11) 0.1571(6) -0.1088(5)
H22 H -0.1226 0.1035 -0.1030
C21 C -0.0789(18) 0.1961(10) -0.1848(7)
H23 H -0.1664 0.1681 -0.2288
C22 C 0.0201(19) 0.2726(11) -0.1945(7)
H24 H 0.0029 0.2971 -0.2454
C23 C 0.1409(14) 0.3134(6) -0.1332(7)
H25 H 0.2086 0.3672 -0.1401
C24 C 0.1690(10) 0.2759(5) -0.0561(5)
H26 H 0.2549 0.3055 -0.0124
C25 C 0.6790(8) 0.0851(3) 0.2295(3)
O4 O 1.0711(10) 0.2416(5) 0.3925(4)
O5 O 0.7645(10) 0.1924(5) 0.3942(4)
C26 C 0.815(3) 0.0334(13) 0.2349(14)
H27 H 0.9268 0.0509 0.2120
C27 C 0.7896(16) -0.0485(7) 0.2758(8)
H28 H 0.8409 -0.0391 0.3348
H29 H 0.8542 -0.0888 0.2480
C28 C 0.5665(18) -0.0849(7) 0.2669(10)
H30 H 0.5138 -0.0937 0.2080
H31 H 0.5407 -0.1387 0.2925
C29 C 0.481(2) -0.0138(8) 0.3151(8)
H32 H 0.3499 -0.0342 0.3220
H33 H 0.5516 0.0035 0.3702
C30 C 0.500(3) 0.0601(10) 0.2584(14)
H34 H 0.4064 0.0446 0.2095
H35 H 0.4695 0.1093 0.2890
C31 C 1.050(2) 0.2034(10) 0.4729(7)
C32 C 0.853(2) 0.2055(12) 0.4824(8)
C33 C 0.811(3) 0.2923(11) 0.5159(10)
H36 H 0.9130 0.3371 0.5081
H37 H 0.7964 0.2912 0.5749
H38 H 0.6962 0.3024 0.4856
C34 C 1.105(3) 0.1139(10) 0.4618(9)
H39 H 0.9978 0.0737 0.4347
H40 H 1.1431 0.0960 0.5162
H41 H 1.2069 0.1168 0.4278
C35 C 1.193(2) 0.2583(11) 0.5405(7)
H42 H 1.3172 0.2484 0.5333
H43 H 1.1627 0.2435 0.5955
H44 H 1.1878 0.3175 0.5352
C36 C 0.851(4) 0.1012(15) 0.5065(14)
H45 H 0.8805 0.1055 0.5668
H46 H 0.8846 0.0498 0.4829
H47 H 0.7186 0.0997 0.4923
H48 H 0.614(8) 0.063(3) 0.056(3)
Si2? Si 1.1868(10) 0.4492(4) 0.3069(4)
C37? C 1.183(3) 0.5600(14) 0.2791(17)
H49? H 1.1741 0.5616 0.2189
H50? H 1.2962 0.5968 0.3048
H51? H 1.0753 0.5789 0.2994
C38? C 1.228(5) 0.456(2) 0.4237(19)
H52? H 1.1092 0.4507 0.4463
H53? H 1.3052 0.5100 0.4440
H54? H 1.2909 0.4106 0.4412
C39? C 1.386(3) 0.4209(15) 0.2553(13)
C40? C 1.391(8) 0.3253(19) 0.278(4)
H55? H 1.3094 0.2861 0.2368
H56? H 1.3499 0.3176 0.3330
H57? H 1.5180 0.3147 0.2791
C41? C 1.583(4) 0.4775(19) 0.295(2)
H58? H 1.6845 0.4552 0.2728
H59? H 1.5960 0.4759 0.3554
H60? H 1.5878 0.5354 0.2811
C42? C 1.379(4) 0.4359(16) 0.1566(13)
H61? H 1.5001 0.4649 0.1450
H62? H 1.2852 0.4699 0.1418
H63? H 1.3470 0.3817 0.1240
O6? O 0.9388(17) 0.2927(9) 0.3998(6)
O7? O 0.9319(17) 0.1602(9) 0.3776(6)
C43? C 0.786(5) 0.0227(19) 0.225(2)
H64? H 0.9086 0.0349 0.2111
C44? C 0.692(4) -0.0733(11) 0.2439(12)
H65? H 0.6190 -0.1034 0.1932
H66? H 0.7897 -0.1048 0.2623
C45? C 0.566(3) -0.0658(13) 0.3121(13)
H67? H 0.5111 -0.1223 0.3266
H68? H 0.6388 -0.0349 0.3624
C46? C 0.409(3) -0.0189(11) 0.2813(13)
H69? H 0.3239 -0.0156 0.3239
H70? H 0.3375 -0.0484 0.2301
C47? C 0.505(5) 0.0709(14) 0.264(2)
H71? H 0.4155 0.0938 0.2271
H72? H 0.5244 0.1056 0.3175
C48? C 0.926(5) 0.264(2) 0.4799(19)
C49? C 0.953(6) 0.172(2) 0.474(2)
C50? C 1.175(5) 0.163(2) 0.4868(18)
H73? H 1.2090 0.1387 0.4353
H74? H 1.1952 0.1265 0.5312
H75? H 1.2518 0.2183 0.5015
C51? C 1.052(5) 0.3245(18) 0.5483(15)
H76? H 1.1765 0.3384 0.5318
H77? H 1.0575 0.2977 0.6004
H78? H 1.0008 0.3757 0.5557
C52? C 0.753(3) 0.1321(13) 0.5292(9)
H79? H 0.6197 0.1307 0.5216
H80? H 0.7986 0.1411 0.5883
H81? H 0.7799 0.0788 0.5069
C53? C 0.710(4) 0.2390(17) 0.5206(15)
H82? H 0.6204 0.2027 0.4795
H83? H 0.6643 0.2907 0.5335
H84? H 0.7268 0.2102 0.5710
loop_
_geom_bond_atom_site_label_1
_geom_bond_atom_site_label_2
_geom_bond_site_symmetry_1
_geom_bond_site_symmetry_2
Si1 C1 1_555 1_555
C1 H1 1_555 1_555
H2 C1 1_555 1_555
H3 C1 1_555 1_555
C2 Si1 1_555 1_555
H4 C2 1_555 1_555
H5 C2 1_555 1_555
H6 C2 1_555 1_555
C3 Si1 1_555 1_555
C4 C3 1_555 1_555
H7 C4 1_555 1_555
H8 C4 1_555 1_555
H9 C4 1_555 1_555
C5 C3 1_555 1_555
H10 C5 1_555 1_555
H11 C5 1_555 1_555
H12 C5 1_555 1_555
C6 C3 1_555 1_555
H13 C6 1_555 1_555
H14 C6 1_555 1_555
H15 C6 1_555 1_555
N1 C16 1_555 1_555
O1 C17 1_555 1_555
O2 C17 1_555 1_555
O3 Si1 1_555 1_555
B1 C14 1_555 1_555
C7 C8 1_555 1_555
C8 H16 1_555 1_555
C9 C8 1_555 1_555
H17 C9 1_555 1_555
C10 C9 1_555 1_555
H18 C10 1_555 1_555
C11 C10 1_555 1_555
H19 C11 1_555 1_555
C12 C7 1_555 1_555
C13 O3 1_555 1_555
C14 C13 1_555 1_555
C15 C14 1_555 1_555
C16 C7 1_555 1_555
C17 N1 1_555 1_555
C18 O2 1_555 1_555
H20 C18 1_555 1_555
H21 C18 1_555 1_555
C19 C18 1_555 1_555
C20 C19 1_555 1_555
H22 C20 1_555 1_555
C21 C20 1_555 1_555
H23 C21 1_555 1_555
C22 C21 1_555 1_555
H24 C22 1_555 1_555
C23 C22 1_555 1_555
H25 C23 1_555 1_555
C24 C19 1_555 1_555
H26 C24 1_555 1_555
C25 C15 1_555 1_555
O4 B1 1_555 1_555
O5 B1 1_555 1_555
C26 C25 1_555 1_555
H27 C26 1_555 1_555
C27 C26 1_555 1_555
H28 C27 1_555 1_555
H29 C27 1_555 1_555
C28 C27 1_555 1_555
H30 C28 1_555 1_555
H31 C28 1_555 1_555
C29 C28 1_555 1_555
H32 C29 1_555 1_555
H33 C29 1_555 1_555
C30 C25 1_555 1_555
H34 C30 1_555 1_555
H35 C30 1_555 1_555
C31 O4 1_555 1_555
C32 O5 1_555 1_555
C33 C32 1_555 1_555
H36 C33 1_555 1_555
H37 C33 1_555 1_555
H38 C33 1_555 1_555
C34 C31 1_555 1_555
H39 C34 1_555 1_555
H40 C34 1_555 1_555
H41 C34 1_555 1_555
C35 C31 1_555 1_555
H42 C35 1_555 1_555
H43 C35 1_555 1_555
H44 C35 1_555 1_555
C36 C32 1_555 1_555
H45 C36 1_555 1_555
H46 C36 1_555 1_555
H47 C36 1_555 1_555
H48 N1 1_555 1_555
C11 C12 1_555 1_555
C12 C13 1_555 1_555
C15 C16 1_555 1_555
C23 C24 1_555 1_555
C29 C30 1_555 1_555
C31 C32 1_555 1_555

#END
