
#######################################################################
#
#                 Cambridge Crystallographic Data Centre
#                                CCDC 
#
#######################################################################
#
# If this CIF has been generated from an entry in the Cambridge 
# Structural Database, then it will include bibliographic, chemical, 
# crystal, experimental, refinement or atomic coordinate data resulting 
# from the CCDC's data processing and validation procedures.
#
#######################################################################

data_FAZXUZ
_chemical_formula_moiety         'C31 H36 O9 S2'
_chemical_name_systematic        
1,4-Epoxy-2,6,6-tris(methoxycarbonyl)-10-methyl-13,13-propylenedithio-14-benzoyloxytricyclo(8.4.0.0^4,9^)tetradec-2-ene
_symmetry_cell_setting           triclinic
_symmetry_space_group_name_H-M   'P -1'
_symmetry_Int_Tables_number      2
_space_group_name_Hall           '-P 1'
loop_
_symmetry_equiv_pos_site_id
_symmetry_equiv_pos_as_xyz
1 x,y,z
2 -x,-y,-z
_cell_length_a                   11.6815(9)
_cell_length_b                   13.9714(15)
_cell_length_c                   20.0741(17)
_cell_angle_alpha                103.269(8)
_cell_angle_beta                 102.686(7)
_cell_angle_gamma                96.314(8)
_cell_volume                     3066.23
_cell_formula_units_Z            4
loop_
_atom_site_label
_atom_site_type_symbol
_atom_site_fract_x
_atom_site_fract_y
_atom_site_fract_z
C1 C 0.3648(3) 0.55619(23) 0.77206(17)
C2 C 0.2548(3) 0.51976(22) 0.79543(16)
C3 C 0.1358(3) 0.49560(21) 0.73972(15)
C4 C 0.0243(3) 0.48717(22) 0.76631(15)
C5 C -0.0591(3) 0.42592(22) 0.71268(16)
C6 C 0.0023(3) 0.39513(22) 0.65326(15)
C7 C -0.0516(3) 0.29980(22) 0.59581(16)
C8 C -0.1669(3) 0.31552(23) 0.54640(15)
C9 C -0.1482(3) 0.41173(25) 0.52138(17)
C10 C -0.0901(3) 0.50620(24) 0.58183(17)
C11 C 0.0253(3) 0.48362(22) 0.62176(16)
C12 C 0.1139(3) 0.56351(22) 0.68542(15)
C13 C 0.2307(3) 0.59486(23) 0.66754(17)
C14 C 0.3335(3) 0.63669(23) 0.73416(17)
C15 C 0.0607(3) 0.65662(23) 0.71065(17)
C16 C 0.5429(3) 0.5180(3) 0.70277(23)
C17 C 0.6392(3) 0.5677(3) 0.7705(3)
C18 C 0.6023(3) 0.6508(3) 0.82047(22)
C19 C 0.2405(3) 0.4161(3) 0.87550(16)
C20 C 0.2734(3) 0.32369(23) 0.89196(16)
C21 C 0.3434(3) 0.26924(24) 0.85710(18)
C22 C 0.3703(3) 0.1822(3) 0.87294(21)
C23 C 0.3270(4) 0.1490(3) 0.92317(20)
C24 C 0.2576(4) 0.2027(3) 0.95860(20)
C25 C 0.2296(4) 0.2906(3) 0.94297(19)
C26 C 0.0094(3) 0.55270(24) 0.83150(16)
C27 C -0.1028(3) 0.5771(3) 0.91584(19)
C28 C -0.2718(3) 0.31535(25) 0.57964(16)
C29 C -0.4021(3) 0.2126(4) 0.61911(22)
C30 C -0.2047(3) 0.2265(3) 0.48059(17)
C31 C -0.3631(4) 0.1511(3) 0.37883(20)
O1 O 0.27608(18) 0.43156(14) 0.81922(10)
O2 O 0.1866(3) 0.47035(20) 0.90757(13)
O3 O 0.12115(17) 0.39652(14) 0.69333(10)
O4 O -0.32987(21) 0.38053(18) 0.58756(13)
O5 O -0.29336(20) 0.22993(18) 0.59717(12)
O6 O -0.14821(22) 0.16411(21) 0.46444(15)
O7 O -0.31263(21) 0.23040(18) 0.44297(11)
O8 O 0.07097(19) 0.63241(15) 0.86172(11)
O9 O -0.08234(19) 0.51407(17) 0.85304(11)
S1 S 0.41056(8) 0.45226(7) 0.71626(5)
S2 S 0.48049(9) 0.60954(7) 0.85453(5)
H1 H 0.248 0.578 0.840
H2 H -0.151 0.403 0.712
H3 H 0.011 0.279 0.566
H4 H -0.074 0.241 0.620
H5 H -0.234 0.424 0.495
H6 H -0.093 0.401 0.485
H7 H -0.147 0.524 0.616
H8 H -0.071 0.568 0.560
H9 H 0.076 0.460 0.584
H10 H 0.219 0.650 0.639
H11 H 0.253 0.530 0.635
H12 H 0.410 0.666 0.719
H13 H 0.307 0.696 0.769
H14 H 0.049 0.697 0.670
H15 H -0.024 0.635 0.720
H16 H 0.121 0.704 0.759
H17 H 0.517 0.576 0.677
H18 H 0.580 0.466 0.668
H19 H 0.718 0.597 0.756
H20 H 0.661 0.511 0.798
H21 H 0.678 0.687 0.864
H22 H 0.575 0.705 0.791
H23 H 0.378 0.295 0.817
H24 H 0.426 0.139 0.846
H25 H 0.347 0.079 0.935
H26 H 0.224 0.177 0.999
H27 H 0.173 0.333 0.971
H28 H -0.178 0.547 0.930
H29 H -0.025 0.598 0.958
H30 H -0.124 0.650 0.902
H31 H -0.412 0.143 0.634
H32 H -0.398 0.273 0.667
H33 H -0.478 0.215 0.579
H34 H -0.453 0.165 0.354
H35 H -0.311 0.150 0.342
H36 H -0.376 0.080 0.391
C32 C 0.7868(3) 0.17187(23) 0.85089(16)
C33 C 0.7817(3) 0.05825(23) 0.83240(16)
C34 C 0.8112(3) 0.01161(23) 0.76370(16)
C35 C 0.8241(3) -0.09850(22) 0.75209(16)
C36 C 0.7978(3) -0.13570(23) 0.68261(17)
C37 C 0.7692(3) -0.04999(23) 0.65062(16)
C38 C 0.6971(3) -0.07214(24) 0.57473(17)
C39 C 0.7732(3) -0.11873(25) 0.52519(17)
C40 C 0.9020(3) -0.0597(3) 0.54371(18)
C41 C 0.9662(3) -0.0301(3) 0.62258(17)
C42 C 0.8855(3) 0.02313(23) 0.66309(16)
C43 C 0.9201(3) 0.06778(23) 0.74509(16)
C44 C 0.9128(3) 0.17983(24) 0.76272(17)
C45 C 0.9021(3) 0.21962(24) 0.83844(17)
C46 C 1.0418(3) 0.0497(3) 0.78177(17)
C47 C 0.6636(3) 0.3324(3) 0.84042(20)
C48 C 0.6678(3) 0.3569(3) 0.91873(20)
C49 C 0.7803(3) 0.3356(3) 0.96288(19)
C50 C 0.6434(3) -0.0377(3) 0.87693(17)
C51 C 0.5139(3) -0.06990(24) 0.86585(18)
C52 C 0.4312(3) -0.0581(3) 0.80886(18)
C53 C 0.3117(3) -0.0859(3) 0.80288(21)
C54 C 0.2745(3) -0.1253(3) 0.85294(22)
C55 C 0.3558(4) -0.1382(3) 0.90856(23)
C56 C 0.4766(4) -0.1112(3) 0.91518(21)
C57 C 0.8700(3) -0.15149(24) 0.80554(18)
C58 C 0.9912(4) -0.1336(3) 0.92062(19)
C59 C 0.7734(3) -0.2285(3) 0.52230(17)
C60 C 0.6452(4) -0.3835(3) 0.49713(24)
C61 C 0.7173(3) -0.1141(3) 0.44973(18)
C62 C 0.7200(4) -0.1792(3) 0.33021(19)
O10 O 0.66370(18) 0.00998(16) 0.82825(11)
O11 O 0.72195(23) -0.04931(21) 0.92285(14)
O12 O 0.71517(17) 0.00556(15) 0.70243(10)
O13 O 0.85843(21) -0.26764(18) 0.53365(14)
O14 O 0.66078(21) -0.27674(17) 0.50452(13)
O15 O 0.64658(23) -0.06320(19) 0.43363(13)
O16 O 0.76174(25) -0.17461(20) 0.40398(12)
O17 O 0.84579(23) -0.23997(17) 0.79683(14)
O18 O 0.94508(20) -0.09054(16) 0.86329(11)
S3 S 0.65248(8) 0.20093(7) 0.79906(5)
S4 S 0.79214(9) 0.20564(7) 0.94568(5)
H37 H 0.844 0.041 0.875
H38 H 0.797 -0.212 0.655
H39 H 0.617 -0.123 0.567
H40 H 0.676 -0.003 0.563
H41 H 0.897 0.008 0.527
H42 H 0.954 -0.105 0.515
H43 H 1.050 0.018 0.632
H44 H 0.983 -0.097 0.640
H45 H 0.862 0.083 0.640
H46 H 0.836 0.192 0.726
H47 H 0.993 0.221 0.757
H48 H 0.903 0.300 0.849
H49 H 0.977 0.206 0.875
H50 H 1.110 0.091 0.766
H51 H 1.055 0.074 0.838
H52 H 1.045 -0.029 0.766
H53 H 0.590 0.360 0.813
H54 H 0.746 0.372 0.835
H55 H 0.593 0.310 0.926
H56 H 0.660 0.434 0.938
H57 H 0.856 0.374 0.948
H58 H 0.788 0.366 1.017
H59 H 0.460 -0.028 0.769
H60 H 0.246 -0.076 0.757
H61 H 0.180 -0.145 0.847
H62 H 0.324 -0.168 0.948
H63 H 0.542 -0.123 0.959
H64 H 1.052 -0.074 0.964
H65 H 0.921 -0.163 0.940
H66 H 1.042 -0.190 0.904
H67 H 0.547 -0.413 0.482
H68 H 0.680 -0.420 0.455
H69 H 0.683 -0.400 0.545
H70 H 0.760 -0.231 0.298
H71 H 0.622 -0.205 0.313
H72 H 0.736 -0.106 0.320
loop_
_geom_bond_atom_site_label_1
_geom_bond_atom_site_label_2
_geom_bond_site_symmetry_1
_geom_bond_site_symmetry_2
C1 C2 1_555 1_555
C2 C3 1_555 1_555
C3 C4 1_555 1_555
C4 C5 1_555 1_555
C5 C6 1_555 1_555
C6 C7 1_555 1_555
C7 C8 1_555 1_555
C8 C9 1_555 1_555
C9 C10 1_555 1_555
C10 C11 1_555 1_555
C11 C6 1_555 1_555
C12 C3 1_555 1_555
C13 C12 1_555 1_555
C14 C1 1_555 1_555
C15 C12 1_555 1_555
C16 C17 1_555 1_555
C17 C18 1_555 1_555
C18 S2 1_555 1_555
C19 C20 1_555 1_555
C20 C21 1_555 1_555
C21 C22 1_555 1_555
C22 C23 1_555 1_555
C23 C24 1_555 1_555
C24 C25 1_555 1_555
C25 C20 1_555 1_555
C26 C4 1_555 1_555
C27 O9 1_555 1_555
C28 C8 1_555 1_555
C29 O5 1_555 1_555
C30 C8 1_555 1_555
C31 O7 1_555 1_555
O1 C2 1_555 1_555
O2 C19 1_555 1_555
O3 C3 1_555 1_555
O4 C28 1_555 1_555
O5 C28 1_555 1_555
O6 C30 1_555 1_555
O7 C30 1_555 1_555
O8 C26 1_555 1_555
O9 C26 1_555 1_555
S1 C1 1_555 1_555
S2 C1 1_555 1_555
H1 C2 1_555 1_555
H2 C5 1_555 1_555
H3 C7 1_555 1_555
H4 C7 1_555 1_555
H5 C9 1_555 1_555
H6 C9 1_555 1_555
H7 C10 1_555 1_555
H8 C10 1_555 1_555
H9 C11 1_555 1_555
H10 C13 1_555 1_555
H11 C13 1_555 1_555
H12 C14 1_555 1_555
H13 C14 1_555 1_555
H14 C15 1_555 1_555
H15 C15 1_555 1_555
H16 C15 1_555 1_555
H17 C16 1_555 1_555
H18 C16 1_555 1_555
H19 C17 1_555 1_555
H20 C17 1_555 1_555
H21 C18 1_555 1_555
H22 C18 1_555 1_555
H23 C21 1_555 1_555
H24 C22 1_555 1_555
H25 C23 1_555 1_555
H26 C24 1_555 1_555
H27 C25 1_555 1_555
H28 C27 1_555 1_555
H29 C27 1_555 1_555
H30 C27 1_555 1_555
H31 C29 1_555 1_555
H32 C29 1_555 1_555
H33 C29 1_555 1_555
H34 C31 1_555 1_555
H35 C31 1_555 1_555
H36 C31 1_555 1_555
C32 C33 1_555 1_555
C33 C34 1_555 1_555
C34 C35 1_555 1_555
C35 C36 1_555 1_555
C36 C37 1_555 1_555
C37 C38 1_555 1_555
C38 C39 1_555 1_555
C39 C40 1_555 1_555
C40 C41 1_555 1_555
C41 C42 1_555 1_555
C42 C37 1_555 1_555
C43 C34 1_555 1_555
C44 C43 1_555 1_555
C45 C32 1_555 1_555
C46 C43 1_555 1_555
C47 C48 1_555 1_555
C48 C49 1_555 1_555
C49 S4 1_555 1_555
C50 C51 1_555 1_555
C51 C52 1_555 1_555
C52 C53 1_555 1_555
C53 C54 1_555 1_555
C54 C55 1_555 1_555
C55 C56 1_555 1_555
C56 C51 1_555 1_555
C57 C35 1_555 1_555
C58 O18 1_555 1_555
C59 C39 1_555 1_555
C60 O14 1_555 1_555
C61 C39 1_555 1_555
C62 O16 1_555 1_555
O10 C33 1_555 1_555
O11 C50 1_555 1_555
O12 C34 1_555 1_555
O13 C59 1_555 1_555
O14 C59 1_555 1_555
O15 C61 1_555 1_555
O16 C61 1_555 1_555
O17 C57 1_555 1_555
O18 C57 1_555 1_555
S3 C32 1_555 1_555
S4 C32 1_555 1_555
H37 C33 1_555 1_555
H38 C36 1_555 1_555
H39 C38 1_555 1_555
H40 C38 1_555 1_555
H41 C40 1_555 1_555
H42 C40 1_555 1_555
H43 C41 1_555 1_555
H44 C41 1_555 1_555
H45 C42 1_555 1_555
H46 C44 1_555 1_555
H47 C44 1_555 1_555
H48 C45 1_555 1_555
H49 C45 1_555 1_555
H50 C46 1_555 1_555
H51 C46 1_555 1_555
H52 C46 1_555 1_555
H53 C47 1_555 1_555
H54 C47 1_555 1_555
H55 C48 1_555 1_555
H56 C48 1_555 1_555
H57 C49 1_555 1_555
H58 C49 1_555 1_555
H59 C52 1_555 1_555
H60 C53 1_555 1_555
H61 C54 1_555 1_555
H62 C55 1_555 1_555
H63 C56 1_555 1_555
H64 C58 1_555 1_555
H65 C58 1_555 1_555
H66 C58 1_555 1_555
H67 C60 1_555 1_555
H68 C60 1_555 1_555
H69 C60 1_555 1_555
H70 C62 1_555 1_555
H71 C62 1_555 1_555
H72 C62 1_555 1_555
C6 O3 1_555 1_555
C11 C12 1_555 1_555
C13 C14 1_555 1_555
C16 S1 1_555 1_555
C19 O1 1_555 1_555
C37 O12 1_555 1_555
C42 C43 1_555 1_555
C44 C45 1_555 1_555
C47 S3 1_555 1_555
C50 O10 1_555 1_555

#END
