
#######################################################################
#
#                 Cambridge Crystallographic Data Centre
#                                CCDC 
#
#######################################################################
#
# If this CIF has been generated from an entry in the Cambridge 
# Structural Database, then it will include bibliographic, chemical, 
# crystal, experimental, refinement or atomic coordinate data resulting 
# from the CCDC's data processing and validation procedures.
#
#######################################################################

data_FAZYAH
_chemical_formula_moiety         
'H10 Na1 O5 1+,2(C24 H22 N2 2+),C24 H11 O16 S8 5-,4.5(H2 O1)'
_chemical_name_systematic        
'Pentaaqua-sodium bis(benzyl viologen) 25,26,27-trihydroxy-2,8,14,20-tetrathiacalix(4)arene-5,11,17,23-tetrasulfonate-28-olate hydrate'
_symmetry_cell_setting           monoclinic
_symmetry_space_group_name_H-M   'P 21/c'
_symmetry_Int_Tables_number      14
_space_group_name_Hall           '-P 2ybc'
loop_
_symmetry_equiv_pos_site_id
_symmetry_equiv_pos_as_xyz
1 x,y,z
2 -x,1/2+y,1/2-z
3 -x,-y,-z
4 x,1/2-y,1/2+z
_cell_length_a                   15.099(4)
_cell_length_b                   35.962(10)
_cell_length_c                   14.662(4)
_cell_angle_alpha                90
_cell_angle_beta                 102.290(5)
_cell_angle_gamma                90
_cell_volume                     7778.87
_cell_formula_units_Z            4
loop_
_atom_site_label
_atom_site_type_symbol
_atom_site_fract_x
_atom_site_fract_y
_atom_site_fract_z
S1 S 1.01579(9) 0.55281(4) 0.57460(10)
S2 S 0.70067(10) 0.58593(5) 0.32422(10)
S3 S 0.50964(9) 0.53362(4) 0.58080(10)
S4 S 0.82713(10) 0.52052(5) 0.84935(10)
S5 S 0.94996(11) 0.69481(4) 0.44552(12)
S6 S 0.37624(12) 0.64772(5) 0.34427(19)
S7 S 0.63274(14) 0.65080(5) 0.80422(13)
S8 S 1.16823(11) 0.58118(5) 0.93680(11)
O1 O 0.8248(2) 0.54104(10) 0.4766(2)
H1 H 0.7713 0.5413 0.4800
O2 O 0.6622(2) 0.53798(11) 0.4881(3)
O3 O 0.6639(3) 0.49421(11) 0.6984(3)
H2 H 0.6835 0.4819 0.7453
O4 O 0.8538(2) 0.52736(11) 0.6558(3)
H3 H 0.8552 0.5346 0.6032
O5 O 1.0362(3) 0.69190(13) 0.4182(4)
O6 O 0.9586(4) 0.71072(13) 0.5364(4)
O7 O 0.8818(3) 0.71343(12) 0.3776(3)
O8 O 0.3039(8) 0.6277(5) 0.2921(10)
O9 O 0.3550(12) 0.6626(5) 0.4309(9)
O10 O 0.411(2) 0.6766(7) 0.2959(15)
O14 O 0.7175(4) 0.66403(14) 0.8585(4)
O15 O 0.5633(4) 0.64743(15) 0.8586(4)
O16 O 0.6012(3) 0.67176(13) 0.7190(3)
O17 O 1.2047(5) 0.54828(15) 0.9839(5)
O18 O 1.1375(4) 0.6065(2) 1.0006(5)
O19 O 1.2273(5) 0.5988(3) 0.8870(4)
C1 C 0.8518(3) 0.57506(15) 0.4664(4)
C2 C 0.9378(3) 0.58699(15) 0.5162(3)
C3 C 0.9663(4) 0.62352(15) 0.5108(4)
H4 H 1.0221 0.6311 0.5462
C4 C 0.9121(4) 0.64859(15) 0.4530(4)
C5 C 0.8298(4) 0.63720(16) 0.4007(4)
H5 H 0.7942 0.6540 0.3606
C6 C 0.7989(4) 0.60102(15) 0.4067(4)
C7 C 0.5998(3) 0.56364(15) 0.4539(4)
C8 C 0.6094(4) 0.58887(15) 0.3830(4)
C9 C 0.5415(4) 0.61398(17) 0.3507(4)
H6 H 0.5480 0.6306 0.3039
C10 C 0.4638(4) 0.61522(17) 0.3861(5)
C11 C 0.4544(4) 0.59102(16) 0.4572(5)
H7 H 0.4027 0.5922 0.4821
C12 C 0.5217(3) 0.56509(16) 0.4915(4)
C13 C 0.6637(4) 0.53040(16) 0.7214(4)
C14 C 0.5937(4) 0.55239(16) 0.6727(4)
C15 C 0.5878(4) 0.58975(17) 0.6978(4)
H8 H 0.5399 0.6042 0.6663
C16 C 0.6524(4) 0.60541(17) 0.7688(4)
C17 C 0.7231(4) 0.58405(18) 0.8138(4)
H9 H 0.7665 0.5946 0.8613
C18 C 0.7323(4) 0.54686(17) 0.7907(4)
C19 C 0.9245(3) 0.54171(14) 0.7174(4)
C20 C 0.9197(4) 0.54205(15) 0.8116(4)
C21 C 0.9925(4) 0.55492(17) 0.8781(4)
H10 H 0.9892 0.5551 0.9407
C22 C 1.0701(4) 0.56753(15) 0.8521(4)
C23 C 1.0743(4) 0.56812(14) 0.7590(4)
H11 H 1.1261 0.5770 0.7416
C24 C 1.0025(3) 0.55561(15) 0.6916(4)
N1 N 0.6274(4) 0.73494(14) 0.4106(3)
N2 N 0.9153(4) 0.67152(15) 0.8167(4)
C25 C 0.6055(5) 0.70368(19) 0.4491(5)
H12 H 0.5524 0.6913 0.4221
C26 C 0.6602(5) 0.68970(18) 0.5277(4)
H13 H 0.6455 0.6673 0.5526
C27 C 0.7385(4) 0.70902(17) 0.5711(4)
C28 C 0.7569(5) 0.74155(17) 0.5297(5)
H14 H 0.8075 0.7554 0.5574
C29 C 0.7027(5) 0.75405(18) 0.4488(5)
H15 H 0.7178 0.7756 0.4204
C30 C 0.5678(5) 0.74830(19) 0.3222(4)
H16 H 0.5803 0.7744 0.3138
H17 H 0.5051 0.7462 0.3275
C31 C 0.5807(4) 0.72705(17) 0.2380(4)
C32 C 0.6524(5) 0.7046(2) 0.2363(5)
H18 H 0.6981 0.7020 0.2896
C33 C 0.6582(7) 0.6854(3) 0.1561(7)
H19 H 0.7058 0.6690 0.1564
C34 C 0.5941(8) 0.6907(3) 0.0767(6)
H20 H 0.5986 0.6781 0.0225
C35 C 0.5251(8) 0.7136(3) 0.0757(6)
H21 H 0.4820 0.7173 0.0209
C36 C 0.5177(6) 0.7320(2) 0.1569(6)
H22 H 0.4691 0.7480 0.1561
C37 C 0.8827(5) 0.64749(19) 0.7472(5)
H23 H 0.9003 0.6227 0.7536
C38 C 0.8247(5) 0.65860(17) 0.6679(4)
H24 H 0.8032 0.6415 0.6208
C39 C 0.7977(4) 0.69532(16) 0.6571(4)
C40 C 0.8315(4) 0.71984(18) 0.7296(4)
H25 H 0.8150 0.7448 0.7243
C41 C 0.8892(5) 0.70720(19) 0.8088(5)
H26 H 0.9105 0.7236 0.8576
C42 C 0.9866(6) 0.6596(3) 0.8983(5)
H27 H 0.9969 0.6331 0.8935
H28 H 1.0428 0.6723 0.8960
C43 C 0.9630(5) 0.66733(18) 0.9889(3)
C44 C 0.9016(4) 0.64355(19) 1.0174(5)
H29 H 0.8742 0.6246 0.9780
C45 C 0.8810(5) 0.6481(3) 1.1047(6)
H30 H 0.8399 0.6321 1.1238
C46 C 0.9218(7) 0.6763(3) 1.1635(4)
H31 H 0.9080 0.6794 1.2220
C47 C 0.9832(7) 0.7001(2) 1.1350(5)
H32 H 1.0106 0.7190 1.1743
C48 C 1.0038(6) 0.69562(17) 1.0477(6)
H33 H 1.0449 0.7115 1.0286
N3 N 0.6349(4) 0.46068(15) 0.2022(4)
N4 N 0.8522(3) 0.40610(13) 0.6489(3)
C49 C 0.6235(4) 0.42587(19) 0.2292(5)
H34 H 0.5872 0.4097 0.1878
C50 C 0.6638(4) 0.41345(17) 0.3159(4)
H35 H 0.6551 0.3891 0.3332
C51 C 0.7182(3) 0.43744(16) 0.3786(4)
C52 C 0.7304(4) 0.47287(16) 0.3481(4)
H36 H 0.7682 0.4893 0.3873
C53 C 0.6875(4) 0.48410(18) 0.2609(4)
H37 H 0.6950 0.5084 0.2421
C54 C 0.5920(6) 0.4723(2) 0.1038(5)
H38 H 0.6303 0.4642 0.0622
H39 H 0.5339 0.4600 0.0848
C55 C 0.5784(5) 0.5129(2) 0.0943(5)
C56 C 0.6315(6) 0.5326(4) 0.0465(6)
H40 H 0.6757 0.5203 0.0226
C57 C 0.6204(10) 0.5712(5) 0.0328(9)
H41 H 0.6558 0.5849 0.0003
C58 C 0.5560(12) 0.5867(3) 0.0694(10)
H42 H 0.5473 0.6122 0.0606
C59 C 0.5021(8) 0.5692(3) 0.1180(7)
H43 H 0.4588 0.5819 0.1423
C60 C 0.5146(6) 0.5304(3) 0.1303(5)
H44 H 0.4789 0.5170 0.1631
C61 C 0.8446(4) 0.38160(17) 0.5792(4)
H45 H 0.8703 0.3581 0.5908
C62 C 0.7991(4) 0.39071(16) 0.4905(4)
H46 H 0.7932 0.3733 0.4426
C63 C 0.7623(3) 0.42583(15) 0.4729(4)
C64 C 0.7687(4) 0.45022(15) 0.5474(4)
H47 H 0.7423 0.4737 0.5380
C65 C 0.8136(4) 0.43971(17) 0.6345(4)
H48 H 0.8175 0.4561 0.6843
C66 C 0.9049(4) 0.39657(18) 0.7445(4)
H49 H 0.9296 0.3717 0.7440
H50 H 0.8648 0.3969 0.7881
C67 C 0.9807(4) 0.42380(18) 0.7757(4)
C68 C 1.0363(5) 0.4338(2) 0.7168(5)
H51 H 1.0268 0.4234 0.6574
C69 C 1.1056(5) 0.4587(2) 0.7442(6)
H52 H 1.1421 0.4654 0.7032
C70 C 1.1209(5) 0.4735(2) 0.8320(5)
H53 H 1.1704 0.4890 0.8526
C71 C 1.0636(6) 0.4656(3) 0.8884(5)
H54 H 1.0718 0.4768 0.9468
C72 C 0.9930(6) 0.4411(2) 0.8602(5)
H55 H 0.9532 0.4364 0.8993
Na1 Na 0.3058(3) 0.80281(11) 0.2092(4)
O23 O 0.2163(7) 0.7946(3) 0.0518(7)
H56 H 0.1958 0.7732 0.0337
H57 H 0.2487 0.8064 0.0207
O24 O 0.2951(10) 0.7404(3) 0.2348(18)
H58 H 0.3162 0.7307 0.2879
H59 H 0.2694 0.7268 0.1895
O26 O 0.3953(6) 0.8227(4) 0.3472(7)
H62 H 0.4117 0.8076 0.3922
H63 H 0.4123 0.8452 0.3530
O27 O 0.4127(4) 0.82722(17) 0.1337(5)
H64 H 0.4667 0.8190 0.1461
H65 H 0.3977 0.8443 0.0932
O28 O 0.2032(4) 0.84945(16) 0.2310(5)
H66 H 0.1926 0.8635 0.1833
H67 H 0.1540 0.8395 0.2380
O29 O 1.2802(4) 0.56071(15) 1.1807(4)
O30 O 0.0585(5) 0.8029(2) 0.2107(5)
O31 O 0.1154(7) 0.7523(3) 0.3449(6)
O32 O 0.2646(11) 0.7752(4) 0.4761(12)
O33 O 0.3155(14) 0.8421(6) 0.5262(16)
O34 O 0.2383(13) 0.8343(5) 0.6058(13)
O11? O 0.3230(14) 0.6317(4) 0.2624(12)
O12? O 0.3276(12) 0.6541(5) 0.4152(12)
O13? O 0.4211(19) 0.6807(5) 0.3229(14)
O20? O 1.2357(15) 0.5562(7) 0.919(2)
O21? O 1.149(2) 0.5776(11) 1.0258(10)
O22? O 1.183(2) 0.6182(4) 0.911(2)
O25? O 0.352(5) 0.754(2) 0.347(6)
H60? H 0.3339 0.7317 0.3342
H61? H 0.3283 0.7607 0.3922
loop_
_geom_bond_atom_site_label_1
_geom_bond_atom_site_label_2
_geom_bond_site_symmetry_1
_geom_bond_site_symmetry_2
S1 C2 1_555 1_555
S2 C6 1_555 1_555
S3 C12 1_555 1_555
S4 C18 1_555 1_555
S5 O5 1_555 1_555
S6 O8 1_555 1_555
S7 O14 1_555 1_555
S8 O17 1_555 1_555
O1 H1 1_555 1_555
O2 C7 1_555 1_555
O3 H2 1_555 1_555
O4 H3 1_555 1_555
O6 S5 1_555 1_555
O7 S5 1_555 1_555
O9 S6 1_555 1_555
O10 S6 1_555 1_555
O15 S7 1_555 1_555
O16 S7 1_555 1_555
O18 S8 1_555 1_555
O19 S8 1_555 1_555
C1 O1 1_555 1_555
C2 C1 1_555 1_555
C3 C2 1_555 1_555
H4 C3 1_555 1_555
C4 S5 1_555 1_555
C5 C4 1_555 1_555
H5 C5 1_555 1_555
C6 C1 1_555 1_555
C7 C8 1_555 1_555
C8 S2 1_555 1_555
C9 C8 1_555 1_555
H6 C9 1_555 1_555
C10 S6 1_555 1_555
C11 C10 1_555 1_555
H7 C11 1_555 1_555
C12 C7 1_555 1_555
C13 O3 1_555 1_555
C14 S3 1_555 1_555
C15 C14 1_555 1_555
H8 C15 1_555 1_555
C16 S7 1_555 1_555
C17 C16 1_555 1_555
H9 C17 1_555 1_555
C18 C13 1_555 1_555
C19 O4 1_555 1_555
C20 S4 1_555 1_555
C21 C20 1_555 1_555
H10 C21 1_555 1_555
C22 S8 1_555 1_555
C23 C22 1_555 1_555
H11 C23 1_555 1_555
C24 S1 1_555 1_555
N1 C25 1_555 1_555
N2 C37 1_555 1_555
C25 H12 1_555 1_555
C26 C25 1_555 1_555
H13 C26 1_555 1_555
C27 C26 1_555 1_555
C28 C27 1_555 1_555
H14 C28 1_555 1_555
C29 N1 1_555 1_555
H15 C29 1_555 1_555
C30 N1 1_555 1_555
H16 C30 1_555 1_555
H17 C30 1_555 1_555
C31 C30 1_555 1_555
C32 C31 1_555 1_555
H18 C32 1_555 1_555
C33 C32 1_555 1_555
H19 C33 1_555 1_555
C34 C33 1_555 1_555
H20 C34 1_555 1_555
C35 C34 1_555 1_555
H21 C35 1_555 1_555
C36 C31 1_555 1_555
H22 C36 1_555 1_555
C37 H23 1_555 1_555
C38 C37 1_555 1_555
H24 C38 1_555 1_555
C39 C27 1_555 1_555
C40 C39 1_555 1_555
H25 C40 1_555 1_555
C41 N2 1_555 1_555
H26 C41 1_555 1_555
C42 N2 1_555 1_555
H27 C42 1_555 1_555
H28 C42 1_555 1_555
C43 C42 1_555 1_555
C44 C43 1_555 1_555
H29 C44 1_555 1_555
C45 C44 1_555 1_555
H30 C45 1_555 1_555
C46 C45 1_555 1_555
H31 C46 1_555 1_555
C47 C46 1_555 1_555
H32 C47 1_555 1_555
C48 C43 1_555 1_555
H33 C48 1_555 1_555
N3 C49 1_555 1_555
N4 C61 1_555 1_555
C49 H34 1_555 1_555
C50 C49 1_555 1_555
H35 C50 1_555 1_555
C51 C50 1_555 1_555
C52 C51 1_555 1_555
H36 C52 1_555 1_555
C53 N3 1_555 1_555
H37 C53 1_555 1_555
C54 N3 1_555 1_555
H38 C54 1_555 1_555
H39 C54 1_555 1_555
C55 C54 1_555 1_555
C56 C55 1_555 1_555
H40 C56 1_555 1_555
C57 C56 1_555 1_555
H41 C57 1_555 1_555
C58 C57 1_555 1_555
H42 C58 1_555 1_555
C59 C58 1_555 1_555
H43 C59 1_555 1_555
C60 C55 1_555 1_555
H44 C60 1_555 1_555
C61 H45 1_555 1_555
C62 C61 1_555 1_555
H46 C62 1_555 1_555
C63 C51 1_555 1_555
C64 C63 1_555 1_555
H47 C64 1_555 1_555
C65 N4 1_555 1_555
H48 C65 1_555 1_555
C66 N4 1_555 1_555
H49 C66 1_555 1_555
H50 C66 1_555 1_555
C67 C66 1_555 1_555
C68 C67 1_555 1_555
H51 C68 1_555 1_555
C69 C68 1_555 1_555
H52 C69 1_555 1_555
C70 C69 1_555 1_555
H53 C70 1_555 1_555
C71 C70 1_555 1_555
H54 C71 1_555 1_555
C72 C67 1_555 1_555
H55 C72 1_555 1_555
Na1 O23 1_555 1_555
O23 H56 1_555 1_555
H57 O23 1_555 1_555
O24 Na1 1_555 1_555
H58 O24 1_555 1_555
H59 O24 1_555 1_555
O26 Na1 1_555 1_555
H62 O26 1_555 1_555
H63 O26 1_555 1_555
O27 Na1 1_555 1_555
H64 O27 1_555 1_555
H65 O27 1_555 1_555
O28 Na1 1_555 1_555
H66 O28 1_555 1_555
H67 O28 1_555 1_555
C3 C4 1_555 1_555
C5 C6 1_555 1_555
C9 C10 1_555 1_555
C11 C12 1_555 1_555
C13 C14 1_555 1_555
C15 C16 1_555 1_555
C17 C18 1_555 1_555
C19 C20 1_555 1_555
C19 C24 1_555 1_555
C21 C22 1_555 1_555
C23 C24 1_555 1_555
C28 C29 1_555 1_555
C35 C36 1_555 1_555
C38 C39 1_555 1_555
C40 C41 1_555 1_555
C47 C48 1_555 1_555
C52 C53 1_555 1_555
C59 C60 1_555 1_555
C62 C63 1_555 1_555
C64 C65 1_555 1_555
C71 C72 1_555 1_555

#END
