
#######################################################################
#
#                 Cambridge Crystallographic Data Centre
#                                CCDC 
#
#######################################################################
#
# If this CIF has been generated from an entry in the Cambridge 
# Structural Database, then it will include bibliographic, chemical, 
# crystal, experimental, refinement or atomic coordinate data resulting 
# from the CCDC's data processing and validation procedures.
#
#######################################################################

data_FAZZOY
_chemical_formula_moiety         'C27 H28 N2 O1'
_chemical_name_systematic        
1-[3-(4-t-butylphenyl)-1-(pyridin-2-yl)-1H-indol-2-yl]butan-1-one
_symmetry_cell_setting           monoclinic
_symmetry_space_group_name_H-M   'P 21/n'
_symmetry_Int_Tables_number      14
_space_group_name_Hall           '-P 2yn'
loop_
_symmetry_equiv_pos_site_id
_symmetry_equiv_pos_as_xyz
1 x,y,z
2 1/2-x,1/2+y,1/2-z
3 -x,-y,-z
4 1/2+x,1/2-y,1/2+z
_cell_length_a                   11.8865(19)
_cell_length_b                   8.4071(19)
_cell_length_c                   22.8768(18)
_cell_angle_alpha                90
_cell_angle_beta                 100.158(10)
_cell_angle_gamma                90
_cell_volume                     2250.27
_exptl_crystal_colour            colorless
_exptl_crystal_description       plane
_cell_formula_units_Z            4
loop_
_atom_site_label
_atom_site_type_symbol
_atom_site_fract_x
_atom_site_fract_y
_atom_site_fract_z
O1 O 0.83702(17) 1.1790(3) 0.15478(9)
N1 N 0.6340(2) 0.9784(3) 0.16382(11)
N2 N 0.6153(2) 1.2323(3) 0.20099(11)
C1 C 0.6800(2) 1.0201(3) 0.11350(13)
C2 C 0.6520(2) 0.9077(3) 0.07057(13)
C3 C 0.5832(2) 0.7906(3) 0.09376(13)
C4 C 0.5720(2) 0.8386(3) 0.15151(13)
C5 C 0.5042(3) 0.7548(4) 0.18504(14)
H1 H 0.4953 0.7892 0.2226
C6 C 0.4511(3) 0.6197(4) 0.16024(15)
H2 H 0.4046 0.5623 0.1813
C7 C 0.4654(3) 0.5659(4) 0.10389(15)
H3 H 0.4304 0.4719 0.0890
C8 C 0.5305(3) 0.6500(3) 0.07044(14)
H4 H 0.5393 0.6141 0.0331
C9 C 0.6886(2) 0.8971(3) 0.01210(12)
C10 C 0.8028(2) 0.9111(3) 0.00595(13)
H5 H 0.8585 0.9285 0.0393
C11 C 0.8343(2) 0.8991(4) -0.04937(13)
H6 H 0.9110 0.9093 -0.0523
C12 C 0.7546(2) 0.8725(3) -0.10074(13)
C13 C 0.6418(2) 0.8585(3) -0.09407(13)
H7 H 0.5861 0.8409 -0.1275
C14 C 0.6092(2) 0.8700(3) -0.03881(13)
H8 H 0.5325 0.8592 -0.0360
C15 C 0.7940(3) 0.8530(4) -0.16083(14)
C16 C 0.6933(3) 0.8547(5) -0.21250(15)
H9 H 0.6532 0.9539 -0.2128
H10 H 0.6424 0.7687 -0.2080
H11 H 0.7210 0.8426 -0.2492
C17 C 0.8782(4) 0.9839(6) -0.16962(19)
H12 H 0.8414 1.0856 -0.1696
H13 H 0.9033 0.9685 -0.2069
H14 H 0.9429 0.9801 -0.1379
C18 C 0.8544(3) 0.6922(5) -0.16110(17)
H15 H 0.9199 0.6900 -0.1298
H16 H 0.8785 0.6773 -0.1986
H17 H 0.8028 0.6086 -0.1550
C19 C 0.7591(2) 1.1568(3) 0.11342(13)
C20 C 0.7381(2) 1.2667(3) 0.06031(14)
H18 H 0.6909 1.3547 0.0690
H19 H 0.6956 1.2092 0.0268
C21 C 0.8465(3) 1.3335(4) 0.04256(15)
H20 H 0.8914 1.3868 0.0765
H21 H 0.8919 1.2465 0.0314
C22 C 0.8208(3) 1.4502(5) -0.0088(2)
H22 H 0.8912 1.4884 -0.0187
H23 H 0.7778 1.5382 0.0025
H24 H 0.7771 1.3977 -0.0426
C23 C 0.6325(2) 1.0793(4) 0.21372(13)
C24 C 0.6465(3) 1.0154(4) 0.27021(14)
H25 H 0.6588 0.9071 0.2767
C25 C 0.6416(3) 1.1190(4) 0.31689(14)
H26 H 0.6504 1.0812 0.3556
C26 C 0.6234(2) 1.2783(4) 0.30516(14)
H27 H 0.6184 1.3497 0.3356
C27 C 0.6128(2) 1.3295(4) 0.24744(14)
H28 H 0.6033 1.4379 0.2400
loop_
_geom_bond_atom_site_label_1
_geom_bond_atom_site_label_2
_geom_bond_site_symmetry_1
_geom_bond_site_symmetry_2
O1 C19 1_555 1_555
N1 C1 1_555 1_555
N2 C23 1_555 1_555
C1 C2 1_555 1_555
C2 C3 1_555 1_555
C3 C4 1_555 1_555
C4 N1 1_555 1_555
C5 C4 1_555 1_555
H1 C5 1_555 1_555
C6 C5 1_555 1_555
H2 C6 1_555 1_555
C7 C6 1_555 1_555
H3 C7 1_555 1_555
C8 C3 1_555 1_555
H4 C8 1_555 1_555
C9 C2 1_555 1_555
C10 C9 1_555 1_555
H5 C10 1_555 1_555
C11 C10 1_555 1_555
H6 C11 1_555 1_555
C12 C11 1_555 1_555
C13 C12 1_555 1_555
H7 C13 1_555 1_555
C14 C9 1_555 1_555
H8 C14 1_555 1_555
C15 C12 1_555 1_555
C16 C15 1_555 1_555
H9 C16 1_555 1_555
H10 C16 1_555 1_555
H11 C16 1_555 1_555
C17 C15 1_555 1_555
H12 C17 1_555 1_555
H13 C17 1_555 1_555
H14 C17 1_555 1_555
C18 C15 1_555 1_555
H15 C18 1_555 1_555
H16 C18 1_555 1_555
H17 C18 1_555 1_555
C19 C1 1_555 1_555
C20 C19 1_555 1_555
H18 C20 1_555 1_555
H19 C20 1_555 1_555
C21 C20 1_555 1_555
H20 C21 1_555 1_555
H21 C21 1_555 1_555
C22 C21 1_555 1_555
H22 C22 1_555 1_555
H23 C22 1_555 1_555
H24 C22 1_555 1_555
C23 N1 1_555 1_555
C24 C23 1_555 1_555
H25 C24 1_555 1_555
C25 C24 1_555 1_555
H26 C25 1_555 1_555
C26 C25 1_555 1_555
H27 C26 1_555 1_555
C27 N2 1_555 1_555
H28 C27 1_555 1_555
C7 C8 1_555 1_555
C13 C14 1_555 1_555
C26 C27 1_555 1_555

#END
