
#######################################################################
#
#                 Cambridge Crystallographic Data Centre
#                                CCDC 
#
#######################################################################
#
# If this CIF has been generated from an entry in the Cambridge 
# Structural Database, then it will include bibliographic, chemical, 
# crystal, experimental, refinement or atomic coordinate data resulting 
# from the CCDC's data processing and validation procedures.
#
#######################################################################

data_FDMUPD11
_chemical_formula_moiety         'C12 H14 F2 N4 O4'
_chemical_name_systematic        
cis-anti-4a,8a-Difluoro-1,3,5,7-tetramethyltetrahydropyrimido[4',5':3,4]cyclobuta[1,2-d]pyrimidine-2,4,6,8(1H,3H,4aH,7H)-tetrone
_symmetry_cell_setting           orthorhombic
_symmetry_space_group_name_H-M   'P b c a'
_symmetry_Int_Tables_number      61
_space_group_name_Hall           '-P 2ac 2ab'
loop_
_symmetry_equiv_pos_site_id
_symmetry_equiv_pos_as_xyz
1 x,y,z
2 1/2-x,-y,1/2+z
3 -x,1/2+y,1/2-z
4 1/2+x,1/2-y,-z
5 -x,-y,-z
6 1/2+x,y,1/2-z
7 x,1/2-y,1/2+z
8 1/2-x,1/2+y,z
_cell_length_a                   14.4986(14)
_cell_length_b                   12.6769(11)
_cell_length_c                   14.7086(15)
_cell_angle_alpha                90
_cell_angle_beta                 90
_cell_angle_gamma                90
_cell_volume                     2703.4
_exptl_crystal_colour            colorless
_exptl_crystal_description       needle
_cell_formula_units_Z            8
loop_
_atom_site_label
_atom_site_type_symbol
_atom_site_fract_x
_atom_site_fract_y
_atom_site_fract_z
F1 F 0.09851(8) 0.42547(9) 0.66764(8)
F2 F 0.33907(8) 0.35737(10) 0.51700(9)
N1 N 0.10161(11) 0.15583(13) 0.63862(11)
N2 N 0.24340(11) 0.21760(14) 0.69623(11)
N3 N 0.18965(12) 0.18709(13) 0.42864(12)
N4 N 0.12081(12) 0.35559(13) 0.44034(11)
O1 O -0.01272(10) 0.26877(14) 0.59823(13)
O2 O 0.19763(11) 0.04915(12) 0.71962(11)
O3 O 0.30933(11) 0.13537(12) 0.51703(11)
O4 O 0.07409(12) 0.24002(14) 0.33357(11)
C1 C 0.06664(14) 0.25388(17) 0.61855(14)
C2 C 0.18429(14) 0.13643(16) 0.68744(14)
C3 C 0.23344(13) 0.31102(16) 0.64277(13)
H1 H 0.2652 0.3700 0.6724
C4 C 0.13493(14) 0.34314(15) 0.61822(13)
C5 C 0.25454(14) 0.20298(16) 0.49457(14)
C6 C 0.12355(15) 0.26167(17) 0.39719(14)
C7 C 0.17072(13) 0.37661(15) 0.52227(13)
H2 H 0.1878 0.4514 0.5237
C8 C 0.25591(13) 0.31027(15) 0.53931(14)
C9 C 0.03866(17) 0.06572(19) 0.62834(18)
H3 H 0.0062 0.0543 0.6844
H4 H 0.0735 0.0037 0.6132
H5 H -0.0048 0.0803 0.5807
C10 C 0.33263(15) 0.1990(2) 0.74063(18)
H6 H 0.3253 0.1474 0.7879
H7 H 0.3548 0.2637 0.7665
H8 H 0.3762 0.1736 0.6966
C11 C 0.1895(2) 0.08298(18) 0.38432(17)
H9 H 0.2496 0.0688 0.3598
H10 H 0.1449 0.0825 0.3361
H11 H 0.1740 0.0297 0.4281
C12 C 0.05300(17) 0.4329(2) 0.40847(16)
H12 H 0.0539 0.4355 0.3432
H13 H 0.0680 0.5012 0.4325
H14 H -0.0074 0.4126 0.4288
loop_
_geom_bond_atom_site_label_1
_geom_bond_atom_site_label_2
_geom_bond_site_symmetry_1
_geom_bond_site_symmetry_2
F1 C4 1_555 1_555
F2 C8 1_555 1_555
N1 C1 1_555 1_555
N2 C2 1_555 1_555
N3 C5 1_555 1_555
N4 C6 1_555 1_555
O1 C1 1_555 1_555
O2 C2 1_555 1_555
O3 C5 1_555 1_555
O4 C6 1_555 1_555
C1 C4 1_555 1_555
C2 N1 1_555 1_555
C3 N2 1_555 1_555
H1 C3 1_555 1_555
C4 C3 1_555 1_555
C5 C8 1_555 1_555
C6 N3 1_555 1_555
C7 N4 1_555 1_555
H2 C7 1_555 1_555
C8 C3 1_555 1_555
C9 N1 1_555 1_555
H3 C9 1_555 1_555
H4 C9 1_555 1_555
H5 C9 1_555 1_555
C10 N2 1_555 1_555
H6 C10 1_555 1_555
H7 C10 1_555 1_555
H8 C10 1_555 1_555
C11 N3 1_555 1_555
H9 C11 1_555 1_555
H10 C11 1_555 1_555
H11 C11 1_555 1_555
C12 N4 1_555 1_555
H12 C12 1_555 1_555
H13 C12 1_555 1_555
H14 C12 1_555 1_555
C4 C7 1_555 1_555
C7 C8 1_555 1_555

#END
