
#######################################################################
#
#                 Cambridge Crystallographic Data Centre
#                                CCDC 
#
#######################################################################
#
# If this CIF has been generated from an entry in the Cambridge 
# Structural Database, then it will include bibliographic, chemical, 
# crystal, experimental, refinement or atomic coordinate data resulting 
# from the CCDC's data processing and validation procedures.
#
#######################################################################

data_FEBBUL
_chemical_formula_moiety         'C50 H44 N4 O1 Si1'
_chemical_name_systematic        
2,7,12,17-Tetraphenyl-4-((2-(trimethylsilyl)ethoxy)methyl)-4,21,22,23-tetra-azapentacyclo[16.2.1.1^3,6^.1^8,11^.1^13,16^]tetracosa-1,3(24),5,7,9,11(23),12,14,16,18(21),19-undecaene
_symmetry_cell_setting           triclinic
_symmetry_space_group_name_H-M   'P -1'
_symmetry_Int_Tables_number      2
_space_group_name_Hall           '-P 1'
loop_
_symmetry_equiv_pos_site_id
_symmetry_equiv_pos_as_xyz
1 x,y,z
2 -x,-y,-z
_cell_length_a                   10.344(4)
_cell_length_b                   13.082(5)
_cell_length_c                   14.935(6)
_cell_angle_alpha                85.488(9)
_cell_angle_beta                 83.720(8)
_cell_angle_gamma                80.284(9)
_cell_volume                     1976.32
_exptl_crystal_colour            'dark violet'
_exptl_crystal_description       plate
_cell_formula_units_Z            2
loop_
_atom_site_label
_atom_site_type_symbol
_atom_site_fract_x
_atom_site_fract_y
_atom_site_fract_z
C1 C 0.8877(4) 0.4687(3) 0.1719(2)
H1 H 0.9010 0.4981 0.2250
C2 C 0.7772(3) 0.4998(2) 0.1224(2)
C3 C 0.8019(4) 0.4380(2) 0.0480(2)
H2 H 0.7465 0.4422 0.0015
C4 C 0.9188(4) 0.3702(3) 0.0525(2)
C5 C 0.9818(3) 0.2940(3) -0.0092(2)
C6 C 0.9508(3) 0.2991(3) -0.0980(2)
C7 C 1.0041(4) 0.2215(3) -0.1619(2)
H3 H 1.0634 0.1601 -0.1509
C8 C 0.9522(4) 0.2539(3) -0.2404(2)
H4 H 0.9691 0.2200 -0.2947
C9 C 0.8656(4) 0.3513(3) -0.2245(2)
C10 C 0.7896(4) 0.4122(3) -0.2900(2)
C11 C 0.6944(4) 0.4983(3) -0.2722(2)
C12 C 0.6306(4) 0.5675(3) -0.3397(2)
H5 H 0.6444 0.5605 -0.4023
C13 C 0.5477(4) 0.6441(3) -0.2979(2)
H6 H 0.4951 0.6998 -0.3270
C14 C 0.5525(3) 0.6271(2) -0.2019(2)
C15 C 0.4820(3) 0.6898(2) -0.1369(2)
C16 C 0.4955(3) 0.6757(2) -0.0419(2)
C17 C 0.4095(4) 0.7310(3) 0.0273(2)
H7 H 0.3327 0.7793 0.0191
C18 C 0.4608(4) 0.6998(3) 0.1059(2)
H8 H 0.4264 0.7222 0.1633
C19 C 0.5784(3) 0.6254(2) 0.0856(2)
C20 C 0.6695(4) 0.5803(2) 0.1456(2)
N1 N 0.9709(3) 0.3915(2) 0.13257(18)
N2 N 0.8645(3) 0.3767(2) -0.13874(18)
N3 N 0.6456(3) 0.5388(2) -0.19117(18)
H9 H 0.6701 0.5123 -0.1393
N4 N 0.5958(3) 0.6100(2) -0.00607(18)
C21 C 1.0807(3) 0.2018(3) 0.0180(2)
C22 C 1.0393(4) 0.1187(3) 0.0688(3)
H10 H 0.9501 0.1219 0.0908
C23 C 1.1288(5) 0.0308(3) 0.0871(3)
H11 H 1.0994 -0.0266 0.1201
C24 C 1.2601(5) 0.0257(3) 0.0580(3)
H12 H 1.3203 -0.0341 0.0722
C25 C 1.3029(4) 0.1079(3) 0.0084(3)
H13 H 1.3924 0.1048 -0.0125
C26 C 1.2133(4) 0.1958(3) -0.0107(2)
H14 H 1.2432 0.2528 -0.0439
C27 C 0.8145(4) 0.3809(3) -0.3853(2)
C28 C 0.9355(5) 0.3839(3) -0.4341(3)
H15 H 1.0034 0.4045 -0.4064
C29 C 0.9590(6) 0.3566(4) -0.5245(3)
H16 H 1.0409 0.3608 -0.5574
C30 C 0.8613(7) 0.3241(3) -0.5636(3)
H17 H 0.8759 0.3051 -0.6237
C31 C 0.7426(6) 0.3191(3) -0.5158(3)
H18 H 0.6761 0.2964 -0.5435
C32 C 0.7173(5) 0.3468(3) -0.4265(3)
H19 H 0.6347 0.3425 -0.3945
C33 C 0.3872(4) 0.7813(3) -0.1694(2)
C34 C 0.2845(4) 0.7711(3) -0.2185(2)
H20 H 0.2677 0.7044 -0.2275
C35 C 0.2063(4) 0.8572(3) -0.2546(3)
H21 H 0.1381 0.8485 -0.2886
C36 C 0.2274(4) 0.9551(3) -0.2413(3)
H22 H 0.1752 1.0136 -0.2670
C37 C 0.3253(4) 0.9671(3) -0.1900(3)
H23 H 0.3385 1.0341 -0.1791
C38 C 0.4047(4) 0.8813(3) -0.1544(2)
H24 H 0.4717 0.8908 -0.1196
C39 C 0.6606(4) 0.6189(3) 0.2380(2)
C40 C 0.6562(4) 0.7224(3) 0.2521(2)
H25 H 0.6518 0.7712 0.2024
C41 C 0.6580(4) 0.7568(3) 0.3370(3)
H26 H 0.6568 0.8277 0.3440
C42 C 0.6616(5) 0.6884(3) 0.4105(3)
H27 H 0.6620 0.7117 0.4684
C43 C 0.6647(5) 0.5847(3) 0.3989(2)
H28 H 0.6670 0.5368 0.4493
C44 C 0.6644(4) 0.5504(3) 0.3140(2)
H29 H 0.6668 0.4792 0.3074
C45 C 1.0925(4) 0.3466(3) 0.1685(3)
H30 H 1.1585 0.3205 0.1200
H31 H 1.1268 0.3986 0.1989
O1 O 1.0637(3) 0.2634(2) 0.23105(17)
C46 C 1.1815(4) 0.2015(3) 0.2627(3)
H32 H 1.2337 0.2460 0.2880
H33 H 1.2356 0.1665 0.2125
C47 C 1.1402(4) 0.1222(3) 0.3341(3)
H34 H 1.0800 0.0843 0.3089
H35 H 1.0902 0.1595 0.3846
Si1 Si 1.27494(13) 0.02452(10) 0.38040(9)
C48 C 1.3288(5) -0.0784(4) 0.2998(4)
H36 H 1.3876 -0.1348 0.3275
H37 H 1.3746 -0.0500 0.2459
H38 H 1.2524 -0.1044 0.2839
C49 C 1.4209(5) 0.0857(3) 0.3977(3)
H39 H 1.4876 0.0337 0.4231
H40 H 1.3938 0.1410 0.4387
H41 H 1.4569 0.1141 0.3402
C50 C 1.2063(6) -0.0277(5) 0.4918(4)
H42 H 1.1337 -0.0630 0.4834
H43 H 1.1750 0.0291 0.5308
H44 H 1.2745 -0.0763 0.5193
loop_
_geom_bond_atom_site_label_1
_geom_bond_atom_site_label_2
_geom_bond_site_symmetry_1
_geom_bond_site_symmetry_2
C1 H1 1_555 1_555
C2 C1 1_555 1_555
C3 C2 1_555 1_555
H2 C3 1_555 1_555
C4 C3 1_555 1_555
C5 C4 1_555 1_555
C6 C5 1_555 1_555
C7 C6 1_555 1_555
H3 C7 1_555 1_555
C8 C7 1_555 1_555
H4 C8 1_555 1_555
C9 C8 1_555 1_555
C10 C9 1_555 1_555
C11 C10 1_555 1_555
C12 C11 1_555 1_555
H5 C12 1_555 1_555
C13 C12 1_555 1_555
H6 C13 1_555 1_555
C14 C13 1_555 1_555
C15 C14 1_555 1_555
C16 C15 1_555 1_555
C17 C16 1_555 1_555
H7 C17 1_555 1_555
C18 C17 1_555 1_555
H8 C18 1_555 1_555
C19 C18 1_555 1_555
C20 C2 1_555 1_555
N1 C1 1_555 1_555
N2 C6 1_555 1_555
N3 C11 1_555 1_555
H9 N3 1_555 1_555
N4 C16 1_555 1_555
C21 C5 1_555 1_555
C22 C21 1_555 1_555
H10 C22 1_555 1_555
C23 C22 1_555 1_555
H11 C23 1_555 1_555
C24 C23 1_555 1_555
H12 C24 1_555 1_555
C25 C24 1_555 1_555
H13 C25 1_555 1_555
C26 C21 1_555 1_555
H14 C26 1_555 1_555
C27 C10 1_555 1_555
C28 C27 1_555 1_555
H15 C28 1_555 1_555
C29 C28 1_555 1_555
H16 C29 1_555 1_555
C30 C29 1_555 1_555
H17 C30 1_555 1_555
C31 C30 1_555 1_555
H18 C31 1_555 1_555
C32 C27 1_555 1_555
H19 C32 1_555 1_555
C33 C15 1_555 1_555
C34 C33 1_555 1_555
H20 C34 1_555 1_555
C35 C34 1_555 1_555
H21 C35 1_555 1_555
C36 C35 1_555 1_555
H22 C36 1_555 1_555
C37 C36 1_555 1_555
H23 C37 1_555 1_555
C38 C33 1_555 1_555
H24 C38 1_555 1_555
C39 C20 1_555 1_555
C40 C39 1_555 1_555
H25 C40 1_555 1_555
C41 C40 1_555 1_555
H26 C41 1_555 1_555
C42 C41 1_555 1_555
H27 C42 1_555 1_555
C43 C42 1_555 1_555
H28 C43 1_555 1_555
C44 C39 1_555 1_555
H29 C44 1_555 1_555
C45 N1 1_555 1_555
H30 C45 1_555 1_555
H31 C45 1_555 1_555
O1 C45 1_555 1_555
C46 O1 1_555 1_555
H32 C46 1_555 1_555
H33 C46 1_555 1_555
C47 C46 1_555 1_555
H34 C47 1_555 1_555
H35 C47 1_555 1_555
Si1 C47 1_555 1_555
C48 Si1 1_555 1_555
H36 C48 1_555 1_555
H37 C48 1_555 1_555
H38 C48 1_555 1_555
C49 Si1 1_555 1_555
H39 C49 1_555 1_555
H40 C49 1_555 1_555
H41 C49 1_555 1_555
C50 Si1 1_555 1_555
H42 C50 1_555 1_555
H43 C50 1_555 1_555
H44 C50 1_555 1_555
C4 N1 1_555 1_555
C9 N2 1_555 1_555
C14 N3 1_555 1_555
C19 C20 1_555 1_555
C19 N4 1_555 1_555
C25 C26 1_555 1_555
C31 C32 1_555 1_555
C37 C38 1_555 1_555
C43 C44 1_555 1_555

#END
