
#######################################################################
#
#                 Cambridge Crystallographic Data Centre
#                                CCDC 
#
#######################################################################
#
# If this CIF has been generated from an entry in the Cambridge 
# Structural Database, then it will include bibliographic, chemical, 
# crystal, experimental, refinement or atomic coordinate data resulting 
# from the CCDC's data processing and validation procedures.
#
#######################################################################

data_FEBCAS
_chemical_formula_moiety         'C45 H32 N4,C1 H2 Cl2'
_chemical_name_systematic        
'21-Methyl-2,7,12,17-tetraphenyl-4,21,22,23-tetra-azapentacyclo[16.2.1.1^3,6^.1^8,11^.1^13,16^]tetracosa-1(20),2,4,6(24),7,9,11(23),12,14,16,18-undecaene dichloromethane solvate'
_symmetry_cell_setting           triclinic
_symmetry_space_group_name_H-M   'P -1'
_symmetry_Int_Tables_number      2
_space_group_name_Hall           '-P 1'
loop_
_symmetry_equiv_pos_site_id
_symmetry_equiv_pos_as_xyz
1 x,y,z
2 -x,-y,-z
_cell_length_a                   10.881(4)
_cell_length_b                   12.396(5)
_cell_length_c                   14.261(6)
_cell_angle_alpha                84.614(14)
_cell_angle_beta                 73.106(11)
_cell_angle_gamma                74.751(13)
_cell_volume                     1775.41
_exptl_crystal_colour            green
_exptl_crystal_description       platelet
_cell_formula_units_Z            2
loop_
_atom_site_label
_atom_site_type_symbol
_atom_site_fract_x
_atom_site_fract_y
_atom_site_fract_z
Cl1 Cl 0.20484(10) 0.65212(7) 0.22900(6)
Cl2 Cl 0.19219(9) 0.88735(8) 0.25071(7)
C46 C 0.2615(5) 0.74987(4) 0.2769(5)
H33 H 0.2413 0.7391 0.3490
H34 H 0.3590 0.7348 0.2502
N1 N 0.0080(2) 0.26502(17) 0.52342(15)
C1 C 0.0785(2) 0.16854(19) 0.54848(18)
H1 H 0.0667 0.1385 0.6134
C2 C 0.1635(2) 0.18621(17) 0.38388(17)
H2 H 0.2153 0.1750 0.3177
N2 N 0.4423(2) 0.17595(17) 0.12800(15)
H3 H 0.3768 0.1719 0.1807
C3 C 0.5685(2) 0.23833(17) -0.01598(16)
H4 H 0.5948 0.2829 -0.0725
C4 C 0.6412(2) 0.1424(2) 0.01109(18)
H5 H 0.7300 0.1074 -0.0227
N3 N 0.42138(19) 0.02747(15) 0.29966(14)
N4 N 0.20012(17) 0.36345(15) 0.22283(13)
C5 C 0.1773(2) 0.11484(18) 0.46185(18)
C6 C 0.0591(2) 0.27818(18) 0.41990(16)
C7 C 0.0047(2) 0.37158(17) 0.36759(16)
C8 C 0.0655(2) 0.39624(17) 0.26878(16)
C9 C 0.0021(2) 0.45026(19) 0.19743(17)
H6 H -0.0901 0.4834 0.2086
C10 C 0.0965(2) 0.44659(19) 0.10950(17)
H7 H 0.0812 0.4770 0.0490
C11 C 0.2207(2) 0.38989(18) 0.12377(16)
C12 C 0.3413(2) 0.35498(18) 0.04989(16)
C13 C 0.4435(2) 0.26067(18) 0.05666(16)
C14 C 0.5623(2) 0.10026(19) 0.10045(17)
C15 C 0.6080(2) -0.00049(19) 0.14929(17)
C16 C 0.5378(2) -0.03433(18) 0.24137(17)
C17 C 0.5732(3) -0.13712(19) 0.29348(18)
H8 H 0.6498 -0.1964 0.2714
C18 C 0.4783(2) -0.13493(18) 0.37982(18)
H9 H 0.4762 -0.1931 0.4282
C19 C 0.3814(2) -0.02979(18) 0.38598(17)
C20 C 0.2703(2) 0.01063(18) 0.46426(17)
C21 C -0.1258(2) 0.44586(18) 0.41503(16)
C22 C -0.2310(2) 0.40194(19) 0.47140(17)
H10 H -0.2208 0.3233 0.4766
C23 C -0.3502(2) 0.4732(2) 0.51963(18)
H11 H -0.4207 0.4431 0.5588
C24 C -0.3669(2) 0.5885(2) 0.51100(18)
H12 H -0.4485 0.6368 0.5444
C25 C -0.2655(2) 0.63236(19) 0.45427(18)
H13 H -0.2776 0.7111 0.4474
C26 C -0.1449(2) 0.56157(19) 0.40666(17)
H14 H -0.0749 0.5926 0.3680
C27 C 0.3530(2) 0.41896(18) -0.04467(16)
C28 C 0.3472(2) 0.53238(19) -0.04786(17)
H15 H 0.3354 0.5694 0.0107
C29 C 0.3584(2) 0.59202(19) -0.13571(17)
H16 H 0.3563 0.6693 -0.1373
C30 C 0.3728(2) 0.5397(2) -0.22163(17)
H17 H 0.3799 0.5809 -0.2818
C31 C 0.3769(2) 0.4267(2) -0.21875(18)
H18 H 0.3860 0.3904 -0.2770
C32 C 0.3677(2) 0.36691(19) -0.13103(17)
H19 H 0.3716 0.2893 -0.1298
C33 C 0.7401(2) -0.0736(2) 0.10100(18)
C34 C 0.7647(3) -0.1139(2) 0.00732(19)
H20 H 0.6971 -0.0945 -0.0254
C35 C 0.8877(3) -0.1821(2) -0.0380(2)
H21 H 0.9043 -0.2089 -0.1019
C36 C 0.9860(3) -0.2111(3) 0.0095(3)
H22 H 1.0695 -0.2589 -0.0211
C37 C 0.9631(3) -0.1709(3) 0.1010(3)
H23 H 1.0314 -0.1904 0.1332
C38 C 0.8405(3) -0.1018(3) 0.1472(2)
H24 H 0.8257 -0.0739 0.2104
C39 C 0.2485(2) -0.05803(18) 0.55609(17)
C40 C 0.3484(2) -0.09715(18) 0.60347(18)
H25 H 0.4327 -0.0817 0.5756
C41 C 0.3254(3) -0.1581(2) 0.69044(18)
H26 H 0.3944 -0.1858 0.7213
C42 C 0.2011(3) -0.1788(2) 0.73271(19)
H27 H 0.1848 -0.2193 0.7931
C43 C 0.1017(3) -0.1407(2) 0.68697(19)
H28 H 0.0169 -0.1548 0.7159
C44 C 0.1256(2) -0.08183(19) 0.59881(18)
H29 H 0.0573 -0.0573 0.5670
C45 C 0.3004(2) 0.36207(19) 0.27419(17)
H30 H 0.3399 0.2847 0.2908
H31 H 0.2581 0.4051 0.3344
H32 H 0.3697 0.3955 0.2315
C47? C 0.4423(2) 0.17595(17) 0.12800(15)
C48? C 0.6412(2) 0.1424(2) 0.01109(18)
C49? C 0.0785(2) 0.16854(19) 0.54848(18)
C50? C 0.0080(2) 0.26502(17) 0.52342(15)
H35? H 0.3716 0.1716 0.1848
H36? H 0.7300 0.1074 -0.0227
H37? H 0.0667 0.1385 0.6134
H38? H -0.0629 0.3158 0.5659
H39? H 0.3784 0.0942 0.2841
N5? N 0.1635(2) 0.18621(17) 0.38388(17)
N6? N 0.5685(2) 0.23833(17) -0.01598(16)
N7? N 0.42138(19) 0.02747(15) 0.29966(14)
loop_
_geom_bond_atom_site_label_1
_geom_bond_atom_site_label_2
_geom_bond_site_symmetry_1
_geom_bond_site_symmetry_2
Cl1 C46 1_555 1_555
Cl2 C46 1_555 1_555
N1 C1 1_555 1_555
C1 H1 1_555 1_555
C2 H2 1_555 1_555
N2 H3 1_555 1_555
C3 H4 1_555 1_555
C4 C3 1_555 1_555
H5 C4 1_555 1_555
N3 C16 1_555 1_555
N4 C8 1_555 1_555
C5 C1 1_555 1_555
C6 N1 1_555 1_555
C7 C6 1_555 1_555
C8 C7 1_555 1_555
C9 C8 1_555 1_555
H6 C9 1_555 1_555
C10 C9 1_555 1_555
H7 C10 1_555 1_555
C11 N4 1_555 1_555
C12 C11 1_555 1_555
C13 N2 1_555 1_555
C14 N2 1_555 1_555
C15 C14 1_555 1_555
C16 C15 1_555 1_555
C17 C16 1_555 1_555
H8 C17 1_555 1_555
C18 C17 1_555 1_555
H9 C18 1_555 1_555
C19 N3 1_555 1_555
C20 C5 1_555 1_555
C21 C7 1_555 1_555
C22 C21 1_555 1_555
H10 C22 1_555 1_555
C23 C22 1_555 1_555
H11 C23 1_555 1_555
C24 C23 1_555 1_555
H12 C24 1_555 1_555
C25 C24 1_555 1_555
H13 C25 1_555 1_555
C26 C21 1_555 1_555
H14 C26 1_555 1_555
C27 C12 1_555 1_555
C28 C27 1_555 1_555
H15 C28 1_555 1_555
C29 C28 1_555 1_555
H16 C29 1_555 1_555
C30 C29 1_555 1_555
H17 C30 1_555 1_555
C31 C30 1_555 1_555
H18 C31 1_555 1_555
C32 C27 1_555 1_555
H19 C32 1_555 1_555
C33 C15 1_555 1_555
C34 C33 1_555 1_555
H20 C34 1_555 1_555
C35 C34 1_555 1_555
H21 C35 1_555 1_555
C36 C35 1_555 1_555
H22 C36 1_555 1_555
C37 C36 1_555 1_555
H23 C37 1_555 1_555
C38 C33 1_555 1_555
H24 C38 1_555 1_555
C39 C20 1_555 1_555
C40 C39 1_555 1_555
H25 C40 1_555 1_555
C41 C40 1_555 1_555
H26 C41 1_555 1_555
C42 C41 1_555 1_555
H27 C42 1_555 1_555
C43 C42 1_555 1_555
H28 C43 1_555 1_555
C44 C39 1_555 1_555
H29 C44 1_555 1_555
C45 N4 1_555 1_555
H30 C45 1_555 1_555
H31 C45 1_555 1_555
H32 C45 1_555 1_555
C46 H33 1_555 1_555
H34 C46 1_555 1_555
C2 C5 1_555 1_555
C2 C6 1_555 1_555
C3 C13 1_555 1_555
C4 C14 1_555 1_555
C10 C11 1_555 1_555
C12 C13 1_555 1_555
C18 C19 1_555 1_555
C19 C20 1_555 1_555
C25 C26 1_555 1_555
C31 C32 1_555 1_555
C37 C38 1_555 1_555
C43 C44 1_555 1_555

#END
