
#######################################################################
#
#                 Cambridge Crystallographic Data Centre
#                                CCDC 
#
#######################################################################
#
# If this CIF has been generated from an entry in the Cambridge 
# Structural Database, then it will include bibliographic, chemical, 
# crystal, experimental, refinement or atomic coordinate data resulting 
# from the CCDC's data processing and validation procedures.
#
#######################################################################

data_FEBDUO
_chemical_formula_moiety         'C29 H22 N2 O2'
_chemical_name_systematic        
(Z)-4-((4'-(diphenylamino)-[1,1'-biphenyl]-4-yl)methylene)-2-methyl-1,3-oxazol-5(4H)-one
_symmetry_cell_setting           monoclinic
_symmetry_space_group_name_H-M   'P 21/n'
_symmetry_Int_Tables_number      14
_space_group_name_Hall           '-P 2yn'
loop_
_symmetry_equiv_pos_site_id
_symmetry_equiv_pos_as_xyz
1 x,y,z
2 1/2-x,1/2+y,1/2-z
3 -x,-y,-z
4 1/2+x,1/2-y,1/2+z
_cell_length_a                   9.3274(4)
_cell_length_b                   16.6999(5)
_cell_length_c                   14.2408(5)
_cell_angle_alpha                90
_cell_angle_beta                 95.215(4)
_cell_angle_gamma                90
_cell_volume                     2209.06
_exptl_crystal_colour            red
_exptl_crystal_description       block
_cell_formula_units_Z            4
_chemical_properties_physical    ', Light-sensitive'
_exptl_crystal_recrystallization_method dichloromethane/hexane
_exptl_crystal_preparation       ', Luminescent'
loop_
_atom_site_label
_atom_site_type_symbol
_atom_site_fract_x
_atom_site_fract_y
_atom_site_fract_z
O1 O 0.46868(9) 0.91747(5) 0.20701(6)
O2 O 0.52714(10) 0.82344(5) 0.10174(6)
N1 N 0.38428(11) 0.84043(6) 0.32078(7)
N2 N 0.13816(11) 0.27783(6) 0.67975(7)
C1 C 0.41319(13) 0.91148(7) 0.29368(8)
C2 C 0.47995(12) 0.83900(7) 0.17526(8)
C3 C 0.42571(12) 0.78926(7) 0.24979(8)
C4 C 0.42618(12) 0.70833(7) 0.24615(8)
H1 H 0.4612 0.6864 0.1910
C5 C 0.38202(12) 0.64963(7) 0.31261(8)
C6 C 0.41139(13) 0.56878(7) 0.29639(8)
H2 H 0.4578 0.5544 0.2421
C7 C 0.37445(13) 0.50948(7) 0.35750(8)
H3 H 0.3959 0.4552 0.3445
C8 C 0.30574(12) 0.52818(7) 0.43845(8)
C9 C 0.27550(12) 0.60940(7) 0.45427(8)
H4 H 0.2282 0.6238 0.5082
C10 C 0.31283(12) 0.66879(6) 0.39345(8)
H5 H 0.2916 0.7231 0.4064
C11 C 0.40054(16) 0.98777(8) 0.34440(10)
H6 H 0.3482 1.0267 0.3027
H7 H 0.4969 1.0085 0.3642
H8 H 0.3481 0.9789 0.4001
C12 C 0.26555(12) 0.46479(6) 0.50359(8)
C13 C 0.33387(12) 0.38990(7) 0.50685(8)
H9 H 0.4092 0.3804 0.4676
C14 C 0.29436(12) 0.32973(6) 0.56561(8)
H10 H 0.3440 0.2800 0.5670
C15 C 0.18244(13) 0.34088(6) 0.62305(8)
C16 C 0.11552(12) 0.41578(7) 0.62258(8)
H11 H 0.0410 0.4252 0.6624
C17 C 0.15712(12) 0.47625(6) 0.56448(8)
H12 H 0.1111 0.5269 0.5658
C18 C 0.14284(12) 0.19727(7) 0.64986(8)
C19 C 0.10904(14) 0.17728(7) 0.55535(9)
H13 H 0.0799 0.2178 0.5108
C20 C 0.11787(15) 0.09838(8) 0.52645(10)
H14 H 0.0970 0.0853 0.4617
C21 C 0.15698(15) 0.03814(7) 0.59108(11)
H15 H 0.1625 -0.0159 0.5709
C22 C 0.18785(14) 0.05765(7) 0.68523(10)
H16 H 0.2139 0.0167 0.7298
C23 C 0.18110(13) 0.13674(7) 0.71516(9)
H17 H 0.2025 0.1496 0.7799
C24 C 0.09235(13) 0.29466(6) 0.77085(8)
C25 C 0.18531(14) 0.33124(7) 0.83974(9)
H18 H 0.2789 0.3470 0.8257
C26 C 0.14156(14) 0.34472(7) 0.92899(9)
H19 H 0.2061 0.3686 0.9764
C27 C 0.00409(14) 0.32349(7) 0.94928(8)
H20 H -0.0266 0.3339 1.0099
C28 C -0.08828(13) 0.28699(7) 0.88050(9)
H21 H -0.1825 0.2722 0.8943
C29 C -0.04439(13) 0.27188(7) 0.79162(8)
H22 H -0.1077 0.2460 0.7451
loop_
_geom_bond_atom_site_label_1
_geom_bond_atom_site_label_2
_geom_bond_site_symmetry_1
_geom_bond_site_symmetry_2
O1 C1 1_555 1_555
O2 C2 1_555 1_555
N1 C1 1_555 1_555
N2 C15 1_555 1_555
C1 C11 1_555 1_555
C2 O1 1_555 1_555
C3 N1 1_555 1_555
C4 C3 1_555 1_555
H1 C4 1_555 1_555
C5 C4 1_555 1_555
C6 C5 1_555 1_555
H2 C6 1_555 1_555
C7 C6 1_555 1_555
H3 C7 1_555 1_555
C8 C7 1_555 1_555
C9 C8 1_555 1_555
H4 C9 1_555 1_555
C10 C5 1_555 1_555
H5 C10 1_555 1_555
C11 H6 1_555 1_555
H7 C11 1_555 1_555
H8 C11 1_555 1_555
C12 C8 1_555 1_555
C13 C12 1_555 1_555
H9 C13 1_555 1_555
C14 C13 1_555 1_555
H10 C14 1_555 1_555
C15 C14 1_555 1_555
C16 C15 1_555 1_555
H11 C16 1_555 1_555
C17 C12 1_555 1_555
H12 C17 1_555 1_555
C18 N2 1_555 1_555
C19 C18 1_555 1_555
H13 C19 1_555 1_555
C20 C19 1_555 1_555
H14 C20 1_555 1_555
C21 C20 1_555 1_555
H15 C21 1_555 1_555
C22 C21 1_555 1_555
H16 C22 1_555 1_555
C23 C18 1_555 1_555
H17 C23 1_555 1_555
C24 N2 1_555 1_555
C25 C24 1_555 1_555
H18 C25 1_555 1_555
C26 C25 1_555 1_555
H19 C26 1_555 1_555
C27 C26 1_555 1_555
H20 C27 1_555 1_555
C28 C27 1_555 1_555
H21 C28 1_555 1_555
C29 C24 1_555 1_555
H22 C29 1_555 1_555
C2 C3 1_555 1_555
C9 C10 1_555 1_555
C16 C17 1_555 1_555
C22 C23 1_555 1_555
C28 C29 1_555 1_555

#END
