
#######################################################################
#
#                 Cambridge Crystallographic Data Centre
#                                CCDC 
#
#######################################################################
#
# If this CIF has been generated from an entry in the Cambridge 
# Structural Database, then it will include bibliographic, chemical, 
# crystal, experimental, refinement or atomic coordinate data resulting 
# from the CCDC's data processing and validation procedures.
#
#######################################################################

data_FEBDOI
_chemical_formula_moiety         'C37 H27 N1 O2'
_chemical_name_systematic        
(Z)-2-methyl-4-((4'-(1,2,2-triphenylvinyl)-[1,1'-biphenyl]-4-yl)methylene)-1,3-oxazol-5(4H)-one
_symmetry_cell_setting           monoclinic
_symmetry_space_group_name_H-M   'P 21/c'
_symmetry_Int_Tables_number      14
_space_group_name_Hall           '-P 2ybc'
loop_
_symmetry_equiv_pos_site_id
_symmetry_equiv_pos_as_xyz
1 x,y,z
2 -x,1/2+y,1/2-z
3 -x,-y,-z
4 x,1/2-y,1/2+z
_cell_length_a                   27.9230(7)
_cell_length_b                   11.5399(2)
_cell_length_c                   17.5406(4)
_cell_angle_alpha                90
_cell_angle_beta                 102.171(2)
_cell_angle_gamma                90
_cell_volume                     5525.04
_exptl_crystal_colour            yellow
_exptl_crystal_description       plate
_cell_formula_units_Z            8
_chemical_properties_physical    ', Photo-sensitive'
_exptl_crystal_recrystallization_method dichloromethane/hexane
_exptl_crystal_preparation       ', Luminescent'
loop_
_atom_site_label
_atom_site_type_symbol
_atom_site_fract_x
_atom_site_fract_y
_atom_site_fract_z
O1 O 0.38021(5) 0.31708(13) 0.03251(8)
O2 O 0.39330(5) 0.16698(13) -0.04381(9)
N1 N 0.45265(7) 0.32613(15) 0.11948(10)
C1 C 0.40962(9) 0.3686(2) 0.09681(13)
C2 C 0.40846(7) 0.22810(16) 0.01125(12)
C3 C 0.45551(7) 0.23467(16) 0.06767(11)
C4 C 0.49314(7) 0.16184(16) 0.06670(11)
H1 H 0.4880 0.1075 0.0251
C5 C 0.54025(7) 0.15466(16) 0.12008(11)
C6 C 0.57525(7) 0.07524(16) 0.10565(11)
H2 H 0.5674 0.0264 0.0612
C7 C 0.62104(7) 0.06618(16) 0.15467(12)
H3 H 0.6439 0.0112 0.1434
C8 C 0.63401(7) 0.13684(15) 0.22051(11)
C9 C 0.59846(7) 0.21396(17) 0.23557(11)
H4 H 0.6060 0.2617 0.2806
C10 C 0.55279(7) 0.22289(17) 0.18707(12)
H5 H 0.5296 0.2761 0.1994
C11 C 0.38741(11) 0.4660(2) 0.13142(16)
H6 H 0.3711 0.5182 0.0899
H7 H 0.4130 0.5085 0.1674
H8 H 0.3634 0.4361 0.1599
C12 C 0.68285(7) 0.13071(15) 0.27353(11)
C13 C 0.71285(7) 0.03293(16) 0.27708(12)
H9 H 0.7016 -0.0324 0.2454
C14 C 0.75851(7) 0.03021(16) 0.32602(12)
H10 H 0.7787 -0.0360 0.3259
C15 C 0.77581(7) 0.12286(16) 0.37589(12)
C16 C 0.74582(7) 0.22049(16) 0.37177(11)
H11 H 0.7567 0.2853 0.4042
C17 C 0.70065(7) 0.22425(16) 0.32124(11)
H12 H 0.6813 0.2923 0.3190
C18 C 0.82571(7) 0.12000(15) 0.42707(12)
C19 C 0.86589(7) 0.08477(15) 0.38708(11)
C20 C 0.86464(7) 0.12006(16) 0.31079(12)
H13 H 0.8400 0.1727 0.2862
C21 C 0.89899(8) 0.07932(18) 0.27004(12)
H14 H 0.8976 0.1036 0.2179
C22 C 0.93533(8) 0.00292(17) 0.30601(13)
H15 H 0.9588 -0.0252 0.2785
C23 C 0.93712(8) -0.03160(17) 0.38146(13)
H16 H 0.9621 -0.0833 0.4062
C24 C 0.90286(8) 0.00824(16) 0.42165(12)
H17 H 0.9045 -0.0169 0.4737
C25 C 0.83283(7) 0.14637(15) 0.50342(11)
C26 C 0.79230(7) 0.15383(16) 0.54618(11)
C27 C 0.75533(8) 0.06836(18) 0.53503(13)
H18 H 0.7561 0.0070 0.4992
C28 C 0.71787(9) 0.0731(2) 0.57595(14)
H19 H 0.6928 0.0162 0.5669
C29 C 0.71683(8) 0.1598(2) 0.62957(13)
H20 H 0.6910 0.1628 0.6571
C30 C 0.75374(8) 0.2427(2) 0.64327(13)
H21 H 0.7537 0.3016 0.6811
C31 C 0.79070(8) 0.23883(18) 0.60113(12)
H22 H 0.8156 0.2963 0.6104
C32 C 0.88275(7) 0.17318(15) 0.55268(11)
C33 C 0.91543(8) 0.24746(16) 0.52676(11)
H23 H 0.9074 0.2764 0.4749
C34 C 0.95962(7) 0.28008(16) 0.57526(12)
H24 H 0.9816 0.3297 0.5562
C35 C 0.97140(7) 0.23963(17) 0.65170(12)
H25 H 1.0008 0.2638 0.6857
C36 C 0.93997(7) 0.16411(17) 0.67760(11)
H26 H 0.9484 0.1344 0.7292
C37 C 0.89617(7) 0.13111(16) 0.62885(12)
H27 H 0.8750 0.0790 0.6477
O3 O 0.61178(5) 0.59432(14) 0.15889(10)
O4 O 0.62978(6) 0.74639(17) 0.24208(10)
N2 N 0.53217(6) 0.63081(16) 0.10333(11)
C38 C 0.56900(8) 0.56247(19) 0.10729(14)
C39 C 0.60061(8) 0.6975(2) 0.19291(14)
C40 C 0.54899(7) 0.72103(19) 0.15655(13)
C41 C 0.52562(7) 0.8153(2) 0.17447(12)
H28 H 0.5448 0.8653 0.2119
C42 C 0.47514(7) 0.85330(18) 0.14531(12)
C43 C 0.45967(7) 0.95396(18) 0.17706(12)
H29 H 0.4821 0.9959 0.2155
C44 C 0.41211(7) 0.99324(17) 0.15327(12)
H30 H 0.4024 1.0624 0.1752
C45 C 0.37793(7) 0.93315(16) 0.09751(11)
C46 C 0.39380(7) 0.83332(18) 0.06491(11)
H31 H 0.3715 0.7920 0.0260
C47 C 0.44163(7) 0.79347(19) 0.08842(12)
H32 H 0.4516 0.7252 0.0657
C48 C 0.57146(9) 0.4550(2) 0.06342(17)
H33 H 0.5987 0.4597 0.0363
H34 H 0.5407 0.4443 0.0252
H35 H 0.5766 0.3891 0.0995
C49 C 0.32682(7) 0.97389(16) 0.07531(11)
C50 C 0.30479(7) 1.03079(16) 0.12914(11)
H36 H 0.3231 1.0443 0.1804
C51 C 0.25670(7) 1.06783(16) 0.10907(11)
H37 H 0.2422 1.1039 0.1473
C52 C 0.22911(7) 1.05309(15) 0.03355(11)
C53 C 0.25079(7) 0.99380(16) -0.02011(11)
H38 H 0.2325 0.9807 -0.0715
C54 C 0.29846(7) 0.95408(16) 0.00072(11)
H39 H 0.3122 0.9126 -0.0363
C55 C 0.17835(7) 1.09956(15) 0.01182(11)
C56 C 0.14815(7) 1.08238(16) 0.07181(11)
C57 C 0.14647(7) 0.97583(16) 0.10824(11)
H40 H 0.1636 0.9116 0.0931
C58 C 0.12005(8) 0.96208(17) 0.16649(12)
H41 H 0.1187 0.8885 0.1902
C59 C 0.09569(7) 1.05590(18) 0.18991(12)
H42 H 0.0777 1.0468 0.2299
C60 C 0.09759(7) 1.16260(17) 0.15507(12)
H43 H 0.0811 1.2270 0.1715
C61 C 0.12340(7) 1.17605(16) 0.09629(11)
H44 H 0.1243 1.2497 0.0724
C62 C 0.16176(7) 1.15849(15) -0.05538(11)
C63 C 0.19437(7) 1.19920(15) -0.10684(11)
C64 C 0.24076(7) 1.24574(17) -0.07577(13)
H45 H 0.2509 1.2558 -0.0210
C65 C 0.27202(8) 1.27725(19) -0.12421(14)
H46 H 0.3040 1.3049 -0.1021
C66 C 0.25714(8) 1.26878(19) -0.20378(14)
H47 H 0.2788 1.2899 -0.2365
C67 C 0.21077(8) 1.22969(18) -0.23590(13)
H48 H 0.1999 1.2270 -0.2910
C68 C 0.17944(7) 1.19370(17) -0.18753(11)
H49 H 0.1477 1.1653 -0.2102
C69 C 0.10861(7) 1.18752(16) -0.08106(11)
C70 C 0.07272(7) 1.10285(16) -0.08389(11)
H50 H 0.0821 1.0248 -0.0716
C71 C 0.02340(7) 1.13125(17) -0.10448(12)
H51 H -0.0007 1.0727 -0.1063
C72 C 0.00929(7) 1.24507(18) -0.12247(12)
H52 H -0.0245 1.2650 -0.1352
C73 C 0.04476(7) 1.32942(17) -0.12171(12)
H53 H 0.0352 1.4072 -0.1347
C74 C 0.09415(7) 1.30106(16) -0.10216(12)
H54 H 0.1182 1.3590 -0.1031
loop_
_geom_bond_atom_site_label_1
_geom_bond_atom_site_label_2
_geom_bond_site_symmetry_1
_geom_bond_site_symmetry_2
O1 C1 1_555 1_555
O2 C2 1_555 1_555
N1 C1 1_555 1_555
C1 C11 1_555 1_555
C2 O1 1_555 1_555
C3 N1 1_555 1_555
C4 C3 1_555 1_555
H1 C4 1_555 1_555
C5 C4 1_555 1_555
C6 C5 1_555 1_555
H2 C6 1_555 1_555
C7 C6 1_555 1_555
H3 C7 1_555 1_555
C8 C7 1_555 1_555
C9 C8 1_555 1_555
H4 C9 1_555 1_555
C10 C5 1_555 1_555
H5 C10 1_555 1_555
C11 H6 1_555 1_555
H7 C11 1_555 1_555
H8 C11 1_555 1_555
C12 C8 1_555 1_555
C13 C12 1_555 1_555
H9 C13 1_555 1_555
C14 C13 1_555 1_555
H10 C14 1_555 1_555
C15 C14 1_555 1_555
C16 C15 1_555 1_555
H11 C16 1_555 1_555
C17 C12 1_555 1_555
H12 C17 1_555 1_555
C18 C15 1_555 1_555
C19 C18 1_555 1_555
C20 C19 1_555 1_555
H13 C20 1_555 1_555
C21 C20 1_555 1_555
H14 C21 1_555 1_555
C22 C21 1_555 1_555
H15 C22 1_555 1_555
C23 C22 1_555 1_555
H16 C23 1_555 1_555
C24 C19 1_555 1_555
H17 C24 1_555 1_555
C25 C18 1_555 1_555
C26 C25 1_555 1_555
C27 C26 1_555 1_555
H18 C27 1_555 1_555
C28 C27 1_555 1_555
H19 C28 1_555 1_555
C29 C28 1_555 1_555
H20 C29 1_555 1_555
C30 C29 1_555 1_555
H21 C30 1_555 1_555
C31 C26 1_555 1_555
H22 C31 1_555 1_555
C32 C25 1_555 1_555
C33 C32 1_555 1_555
H23 C33 1_555 1_555
C34 C33 1_555 1_555
H24 C34 1_555 1_555
C35 C34 1_555 1_555
H25 C35 1_555 1_555
C36 C35 1_555 1_555
H26 C36 1_555 1_555
C37 C32 1_555 1_555
H27 C37 1_555 1_555
O3 C38 1_555 1_555
O4 C39 1_555 1_555
N2 C38 1_555 1_555
C38 C48 1_555 1_555
C39 O3 1_555 1_555
C40 N2 1_555 1_555
C41 C40 1_555 1_555
H28 C41 1_555 1_555
C42 C41 1_555 1_555
C43 C42 1_555 1_555
H29 C43 1_555 1_555
C44 C43 1_555 1_555
H30 C44 1_555 1_555
C45 C44 1_555 1_555
C46 C45 1_555 1_555
H31 C46 1_555 1_555
C47 C42 1_555 1_555
H32 C47 1_555 1_555
C48 H33 1_555 1_555
H34 C48 1_555 1_555
H35 C48 1_555 1_555
C49 C45 1_555 1_555
C50 C49 1_555 1_555
H36 C50 1_555 1_555
C51 C50 1_555 1_555
H37 C51 1_555 1_555
C52 C51 1_555 1_555
C53 C52 1_555 1_555
H38 C53 1_555 1_555
C54 C49 1_555 1_555
H39 C54 1_555 1_555
C55 C52 1_555 1_555
C56 C55 1_555 1_555
C57 C56 1_555 1_555
H40 C57 1_555 1_555
C58 C57 1_555 1_555
H41 C58 1_555 1_555
C59 C58 1_555 1_555
H42 C59 1_555 1_555
C60 C59 1_555 1_555
H43 C60 1_555 1_555
C61 C56 1_555 1_555
H44 C61 1_555 1_555
C62 C55 1_555 1_555
C63 C62 1_555 1_555
C64 C63 1_555 1_555
H45 C64 1_555 1_555
C65 C64 1_555 1_555
H46 C65 1_555 1_555
C66 C65 1_555 1_555
H47 C66 1_555 1_555
C67 C66 1_555 1_555
H48 C67 1_555 1_555
C68 C63 1_555 1_555
H49 C68 1_555 1_555
C69 C62 1_555 1_555
C70 C69 1_555 1_555
H50 C70 1_555 1_555
C71 C70 1_555 1_555
H51 C71 1_555 1_555
C72 C71 1_555 1_555
H52 C72 1_555 1_555
C73 C72 1_555 1_555
H53 C73 1_555 1_555
C74 C69 1_555 1_555
H54 C74 1_555 1_555
C2 C3 1_555 1_555
C9 C10 1_555 1_555
C16 C17 1_555 1_555
C23 C24 1_555 1_555
C30 C31 1_555 1_555
C36 C37 1_555 1_555
C39 C40 1_555 1_555
C46 C47 1_555 1_555
C53 C54 1_555 1_555
C60 C61 1_555 1_555
C67 C68 1_555 1_555
C73 C74 1_555 1_555

#END
