
#######################################################################
#
#                 Cambridge Crystallographic Data Centre
#                                CCDC 
#
#######################################################################
#
# If this CIF has been generated from an entry in the Cambridge 
# Structural Database, then it will include bibliographic, chemical, 
# crystal, experimental, refinement or atomic coordinate data resulting 
# from the CCDC's data processing and validation procedures.
#
#######################################################################

data_FEBKOP
_chemical_formula_moiety         'C13 H10 Cl1 N1 O2'
_chemical_name_systematic        '4-chloro-2-(phenylamino)benzoic acid'
_symmetry_cell_setting           triclinic
_symmetry_space_group_name_H-M   'P -1'
_symmetry_Int_Tables_number      2
_space_group_name_Hall           '-P 1'
loop_
_symmetry_equiv_pos_site_id
_symmetry_equiv_pos_as_xyz
1 x,y,z
2 -x,-y,-z
_cell_length_a                   9.9015(2)
_cell_length_b                   10.7701(2)
_cell_length_c                   11.3935(2)
_cell_angle_alpha                90.2523(8)
_cell_angle_beta                 103.8986(8)
_cell_angle_gamma                102.7160(8)
_cell_volume                     1148.4
_exptl_crystal_colour            colorless
_exptl_crystal_description       lath
_cell_formula_units_Z            4
loop_
_atom_site_label
_atom_site_type_symbol
_atom_site_fract_x
_atom_site_fract_y
_atom_site_fract_z
Cl1 Cl 0.35111(4) 0.49259(4) 0.68818(4)
C1 C 0.59133(16) 0.23552(14) 0.71121(13)
C2 C 0.57784(17) 0.20411(14) 0.58667(13)
C3 C 0.49208(17) 0.26179(14) 0.49756(14)
H1 H 0.482483 0.239147 0.414790
C4 C 0.42114(17) 0.35009(15) 0.52538(14)
H2 H 0.363992 0.388927 0.463872
C5 C 0.43695(17) 0.37993(14) 0.64792(14)
C6 C 0.51768(17) 0.32500(14) 0.73903(14)
H3 H 0.523882 0.347468 0.821188
N1 N 0.67284(15) 0.17967(13) 0.80096(12)
H4 H 0.7038(19) 0.1129(17) 0.7774(15)
C7 C 0.69404(17) 0.20321(15) 0.92757(14)
C8 C 0.66548(18) 0.10117(16) 0.99768(14)
H5 H 0.631963 0.017091 0.960993
C9 C 0.68571(19) 0.12129(17) 1.12196(15)
H6 H 0.665877 0.050797 1.169867
C10 C 0.73441(19) 0.24305(17) 1.17609(15)
H7 H 0.746421 0.256775 1.260763
C11 C 0.76559(18) 0.34491(17) 1.10608(15)
H8 H 0.800415 0.428715 1.143260
C12 C 0.74660(18) 0.32606(16) 0.98236(14)
H9 H 0.769249 0.396442 0.935036
C13 C 0.65099(16) 0.11188(14) 0.54928(13)
O1 O 0.72668(11) 0.05395(10) 0.62057(9)
O2 O 0.62916(12) 0.09435(11) 0.43031(9)
H10 H 0.6770(19) 0.0358(18) 0.4137(16)
Cl2 Cl 0.86075(4) 0.50414(4) 0.70774(3)
C14 C 1.08577(17) 0.23494(14) 0.72380(14)
C15 C 1.07278(17) 0.20666(14) 0.59897(13)
C16 C 0.98960(17) 0.26797(14) 0.51105(14)
H11 H 0.980263 0.247549 0.427858
C17 C 0.92109(17) 0.35684(15) 0.54167(14)
H12 H 0.864735 0.397493 0.481262
C18 C 0.93745(17) 0.38520(14) 0.66516(14)
C19 C 1.01493(16) 0.32570(14) 0.75457(14)
H13 H 1.020821 0.345675 0.837209
N2 N 1.16865(16) 0.17904(14) 0.81239(12)
H14 H 1.2189(19) 0.1294(17) 0.7864(15)
C20 C 1.18406(18) 0.19514(15) 0.93917(14)
C21 C 1.31909(19) 0.23539(16) 1.01504(14)
H15 H 1.400150 0.256404 0.982043
C22 C 1.3362(2) 0.24509(18) 1.13967(15)
H16 H 1.429305 0.271085 1.191791
C23 C 1.21869(19) 0.21717(16) 1.18816(15)
H17 H 1.230711 0.225239 1.273327
C24 C 1.08364(19) 0.17748(17) 1.11247(15)
H18 H 1.002457 0.158402 1.145435
C25 C 1.06662(19) 0.16547(17) 0.98797(14)
H19 H 0.973774 0.136709 0.936091
C26 C 1.14724(17) 0.11694(14) 0.55956(13)
O3 O 1.23165(11) 0.06527(10) 0.63000(9)
O4 O 1.11782(12) 0.09409(10) 0.44042(9)
H20 H 1.1759(19) 0.0386(17) 0.4218(16)
loop_
_geom_bond_atom_site_label_1
_geom_bond_atom_site_label_2
_geom_bond_site_symmetry_1
_geom_bond_site_symmetry_2
Cl1 C5 1_555 1_555
C1 C2 1_555 1_555
C2 C3 1_555 1_555
C3 H1 1_555 1_555
C4 C3 1_555 1_555
H2 C4 1_555 1_555
C5 C4 1_555 1_555
C6 C1 1_555 1_555
H3 C6 1_555 1_555
N1 C1 1_555 1_555
H4 N1 1_555 1_555
C7 N1 1_555 1_555
C8 C7 1_555 1_555
H5 C8 1_555 1_555
C9 C8 1_555 1_555
H6 C9 1_555 1_555
C10 C9 1_555 1_555
H7 C10 1_555 1_555
C11 C10 1_555 1_555
H8 C11 1_555 1_555
C12 C7 1_555 1_555
H9 C12 1_555 1_555
C13 C2 1_555 1_555
O1 C13 1_555 1_555
O2 C13 1_555 1_555
H10 O2 1_555 1_555
Cl2 C18 1_555 1_555
C14 C15 1_555 1_555
C15 C16 1_555 1_555
C16 H11 1_555 1_555
C17 C16 1_555 1_555
H12 C17 1_555 1_555
C18 C17 1_555 1_555
C19 C14 1_555 1_555
H13 C19 1_555 1_555
N2 C14 1_555 1_555
H14 N2 1_555 1_555
C20 N2 1_555 1_555
C21 C20 1_555 1_555
H15 C21 1_555 1_555
C22 C21 1_555 1_555
H16 C22 1_555 1_555
C23 C22 1_555 1_555
H17 C23 1_555 1_555
C24 C23 1_555 1_555
H18 C24 1_555 1_555
C25 C20 1_555 1_555
H19 C25 1_555 1_555
C26 C15 1_555 1_555
O3 C26 1_555 1_555
O4 C26 1_555 1_555
H20 O4 1_555 1_555
C5 C6 1_555 1_555
C11 C12 1_555 1_555
C18 C19 1_555 1_555
C24 C25 1_555 1_555

#END
