
#######################################################################
#
#                 Cambridge Crystallographic Data Centre
#                                CCDC 
#
#######################################################################
#
# If this CIF has been generated from an entry in the Cambridge 
# Structural Database, then it will include bibliographic, chemical, 
# crystal, experimental, refinement or atomic coordinate data resulting 
# from the CCDC's data processing and validation procedures.
#
#######################################################################

data_FEBKOP01
_chemical_formula_moiety         'C13 H10 Cl1 N1 O2'
_chemical_name_systematic        '4-chloro-2-(phenylamino)benzoic acid'
_symmetry_cell_setting           triclinic
_symmetry_space_group_name_H-M   'P -1'
_symmetry_Int_Tables_number      2
_space_group_name_Hall           '-P 1'
loop_
_symmetry_equiv_pos_site_id
_symmetry_equiv_pos_as_xyz
1 x,y,z
2 -x,-y,-z
_cell_length_a                   8.2249(2)
_cell_length_b                   10.1269(3)
_cell_length_c                   13.7993(4)
_cell_angle_alpha                88.2266(11)
_cell_angle_beta                 85.9540(11)
_cell_angle_gamma                81.4168(11)
_cell_volume                     1133.43
_exptl_crystal_colour            yellow
_exptl_crystal_description       rod
_cell_formula_units_Z            4
loop_
_atom_site_label
_atom_site_type_symbol
_atom_site_fract_x
_atom_site_fract_y
_atom_site_fract_z
Cl1 Cl 0.95907(6) -0.35528(5) 0.24016(3)
C1 C 0.5970(2) -0.05393(19) 0.19182(13)
C2 C 0.6603(2) 0.00391(19) 0.10428(13)
C3 C 0.8136(2) -0.05318(19) 0.06216(13)
H1 H 0.854696 -0.014603 0.003552
C4 C 0.9066(2) -0.16209(19) 0.10179(13)
H2 H 1.010745 -0.198597 0.072188
C5 C 0.8428(2) -0.21723(19) 0.18706(13)
C6 C 0.6932(2) -0.16701(18) 0.23200(13)
H3 H 0.654310 -0.208249 0.290094
N1 N 0.45047(19) -0.00074(17) 0.23790(12)
H4 H 0.401(2) 0.074(2) 0.2116(14)
C7 C 0.3727(2) -0.05801(19) 0.32117(14)
C8 C 0.3252(2) -0.1837(2) 0.31749(14)
H5 H 0.349419 -0.234337 0.260089
C9 C 0.2423(2) -0.2353(2) 0.39773(14)
H6 H 0.211561 -0.321907 0.395725
C10 C 0.2044(2) -0.1602(2) 0.48078(14)
H7 H 0.145639 -0.194352 0.535335
C11 C 0.2525(2) -0.0352(2) 0.48394(14)
H8 H 0.226628 0.016199 0.540921
C12 C 0.3377(2) 0.0156(2) 0.40488(13)
H9 H 0.372230 0.100732 0.408009
C13 C 0.5727(2) 0.12385(19) 0.05916(13)
O1 O 0.43798(15) 0.18531(13) 0.09151(9)
O2 O 0.64971(16) 0.16435(14) -0.02144(9)
H10 H 0.591(2) 0.253(2) -0.0455(14)
Cl2 Cl 0.98489(6) 0.07709(5) 0.27343(3)
C14 C 0.6390(2) 0.38135(18) 0.20481(13)
C15 C 0.7170(2) 0.43747(19) 0.12100(13)
C16 C 0.8765(2) 0.37981(19) 0.08881(13)
H11 H 0.928101 0.417124 0.032873
C17 C 0.9608(2) 0.27165(19) 0.13496(13)
H12 H 1.069556 0.235174 0.112478
C18 C 0.8820(2) 0.21687(18) 0.21583(13)
C19 C 0.7252(2) 0.26901(18) 0.25042(13)
H13 H 0.674991 0.228686 0.305529
N2 N 0.48209(19) 0.43356(16) 0.23697(11)
H14 H 0.432(2) 0.4952(18) 0.1992(13)
C20 C 0.3885(2) 0.39811(18) 0.32124(13)
C21 C 0.4530(2) 0.38246(18) 0.41227(13)
H15 H 0.565913 0.388176 0.418768
C22 C 0.3512(2) 0.35849(19) 0.49329(14)
H16 H 0.395746 0.345902 0.555157
C23 C 0.1861(2) 0.35264(19) 0.48533(14)
H17 H 0.116812 0.337964 0.541474
C24 C 0.1223(2) 0.36835(19) 0.39491(14)
H18 H 0.008690 0.364825 0.389024
C25 C 0.2233(2) 0.38923(18) 0.31267(14)
H19 H 0.179454 0.397452 0.250548
C26 C 0.6360(2) 0.55419(19) 0.06901(13)
O3 O 0.49311(15) 0.60846(13) 0.09054(9)
O4 O 0.72624(16) 0.60020(14) -0.00461(9)
H20 H 0.663(2) 0.677(2) -0.0321(14)
loop_
_geom_bond_atom_site_label_1
_geom_bond_atom_site_label_2
_geom_bond_site_symmetry_1
_geom_bond_site_symmetry_2
Cl1 C5 1_555 1_555
C1 C2 1_555 1_555
C2 C3 1_555 1_555
C3 H1 1_555 1_555
C4 C3 1_555 1_555
H2 C4 1_555 1_555
C5 C4 1_555 1_555
C6 C1 1_555 1_555
H3 C6 1_555 1_555
N1 C1 1_555 1_555
H4 N1 1_555 1_555
C7 N1 1_555 1_555
C8 C7 1_555 1_555
H5 C8 1_555 1_555
C9 C8 1_555 1_555
H6 C9 1_555 1_555
C10 C9 1_555 1_555
H7 C10 1_555 1_555
C11 C10 1_555 1_555
H8 C11 1_555 1_555
C12 C7 1_555 1_555
H9 C12 1_555 1_555
C13 C2 1_555 1_555
O1 C13 1_555 1_555
O2 C13 1_555 1_555
H10 O2 1_555 1_555
Cl2 C18 1_555 1_555
C14 C15 1_555 1_555
C15 C16 1_555 1_555
C16 H11 1_555 1_555
C17 C16 1_555 1_555
H12 C17 1_555 1_555
C18 C17 1_555 1_555
C19 C14 1_555 1_555
H13 C19 1_555 1_555
N2 C14 1_555 1_555
H14 N2 1_555 1_555
C20 N2 1_555 1_555
C21 C20 1_555 1_555
H15 C21 1_555 1_555
C22 C21 1_555 1_555
H16 C22 1_555 1_555
C23 C22 1_555 1_555
H17 C23 1_555 1_555
C24 C23 1_555 1_555
H18 C24 1_555 1_555
C25 C20 1_555 1_555
H19 C25 1_555 1_555
C26 C15 1_555 1_555
O3 C26 1_555 1_555
O4 C26 1_555 1_555
H20 O4 1_555 1_555
C5 C6 1_555 1_555
C11 C12 1_555 1_555
C18 C19 1_555 1_555
C24 C25 1_555 1_555

#END
