
#######################################################################
#
#                 Cambridge Crystallographic Data Centre
#                                CCDC 
#
#######################################################################
#
# If this CIF has been generated from an entry in the Cambridge 
# Structural Database, then it will include bibliographic, chemical, 
# crystal, experimental, refinement or atomic coordinate data resulting 
# from the CCDC's data processing and validation procedures.
#
#######################################################################

data_FEBMAD
_chemical_formula_moiety         'C24 H23 B1 F10 N1 1-,C5 H5 N1,Li1 1+'
_chemical_name_systematic        
'lithium bis(pentafluorophenyl)[3-(2,2,6,6-tetramethylpiperidin-1-yl)propylidene]borate pyridine unknown solvate'
_symmetry_cell_setting           monoclinic
_symmetry_space_group_name_H-M   'P 21/c'
_symmetry_Int_Tables_number      14
_space_group_name_Hall           '-P 2ybc'
loop_
_symmetry_equiv_pos_site_id
_symmetry_equiv_pos_as_xyz
1 x,y,z
2 -x,1/2+y,1/2-z
3 -x,-y,-z
4 x,1/2-y,1/2+z
_cell_length_a                   11.9795(2)
_cell_length_b                   16.9234(3)
_cell_length_c                   15.3648(3)
_cell_angle_alpha                90
_cell_angle_beta                 96.686(1)
_cell_angle_gamma                90
_cell_volume                     3093.78
_exptl_crystal_colour            colorless
_exptl_crystal_description       prism
_cell_formula_units_Z            4
loop_
_atom_site_label
_atom_site_type_symbol
_atom_site_fract_x
_atom_site_fract_y
_atom_site_fract_z
N1 N 0.6613(2) 0.19887(17) 0.69957(16)
C1 C 0.7140(3) 0.1328(2) 0.7554(2)
H1 H 0.6682 0.0852 0.7437
H2 H 0.7123 0.1468 0.8171
C2 C 0.8357(3) 0.1132(2) 0.7412(2)
H3 H 0.8593 0.0666 0.7766
H4 H 0.8370 0.0987 0.6796
C3 C 0.9212(3) 0.1778(2) 0.7634(2)
H5 H 0.9097 0.2100 0.8114
C4 C 0.5835(3) 0.1669(2) 0.6219(2)
C5 C 0.5389(3) 0.2371(3) 0.5660(2)
H6 H 0.6020 0.2629 0.5421
H7 H 0.4872 0.2177 0.5165
C6 C 0.4789(4) 0.2972(3) 0.6156(3)
H8 H 0.4125 0.2733 0.6366
H9 H 0.4542 0.3416 0.5772
C7 C 0.5591(3) 0.3259(3) 0.6921(3)
H10 H 0.5195 0.3636 0.7259
H11 H 0.6209 0.3542 0.6694
C8 C 0.6082(3) 0.2611(2) 0.7534(2)
C9 C 0.4841(3) 0.1155(3) 0.6446(3)
H12 H 0.5111 0.0770 0.6889
H13 H 0.4509 0.0882 0.5923
H14 H 0.4280 0.1489 0.6667
C10 C 0.6517(3) 0.1147(3) 0.5666(2)
H15 H 0.7154 0.1443 0.5502
H16 H 0.6046 0.0980 0.5142
H17 H 0.6785 0.0685 0.6003
C11 C 0.5194(3) 0.2298(3) 0.8100(3)
H18 H 0.4507 0.2174 0.7726
H19 H 0.5041 0.2699 0.8522
H20 H 0.5477 0.1826 0.8408
C12 C 0.7022(3) 0.2995(3) 0.8160(3)
H21 H 0.6727 0.3453 0.8436
H22 H 0.7628 0.3157 0.7832
H23 H 0.7304 0.2616 0.8606
B1 B 1.0182(3) 0.1963(2) 0.7197(2)
C13 C 1.1113(3) 0.2597(2) 0.7557(2)
F1 F 1.1257(2) 0.21100(16) 0.90110(14)
C14 C 1.1596(3) 0.2617(2) 0.8417(3)
F2 F 1.2879(2) 0.31162(19) 0.95787(18)
C15 C 1.2435(3) 0.3135(3) 0.8731(3)
F3 F 1.3637(2) 0.41857(17) 0.8469(2)
C16 C 1.2817(3) 0.3673(3) 0.8169(4)
F4 F 1.2737(2) 0.42262(16) 0.6760(2)
C17 C 1.2375(3) 0.3692(2) 0.7312(4)
F5 F 1.1131(2) 0.31973(14) 0.61712(15)
C18 C 1.1550(3) 0.3158(2) 0.7027(3)
C19 C 1.0451(3) 0.15095(19) 0.6321(2)
F6 F 1.20439(17) 0.08839(14) 0.70651(14)
C20 C 1.1349(3) 0.0995(2) 0.6312(2)
F7 F 1.24551(19) 0.00751(14) 0.56404(16)
C21 C 1.1584(3) 0.0578(2) 0.5593(3)
F8 F 1.1116(2) 0.02720(13) 0.40992(14)
C22 C 1.0908(3) 0.0675(2) 0.4818(2)
F9 F 0.9355(2) 0.12890(14) 0.40148(13)
C23 C 1.0016(3) 0.1188(2) 0.4774(2)
F10 F 0.89151(16) 0.20882(12) 0.54446(12)
C24 C 0.9818(3) 0.1585(2) 0.5523(2)
N2 N 0.8396(3) 0.36565(17) 0.61801(19)
C25 C 0.8168(4) 0.3838(2) 0.5332(3)
H24 H 0.7851 0.3442 0.4951
C26 C 0.8360(5) 0.4550(3) 0.4981(3)
H25 H 0.8174 0.4641 0.4378
C27 C 0.8823(5) 0.5132(3) 0.5511(4)
H26 H 0.8961 0.5632 0.5279
C28 C 0.9088(4) 0.4986(3) 0.6384(4)
H27 H 0.9410 0.5379 0.6766
C29 C 0.8866(3) 0.4236(3) 0.6690(3)
H28 H 0.9057 0.4130 0.7289
Li1 Li 0.8141(5) 0.2528(4) 0.6619(4)
loop_
_geom_bond_atom_site_label_1
_geom_bond_atom_site_label_2
_geom_bond_site_symmetry_1
_geom_bond_site_symmetry_2
N1 C1 1_555 1_555
C1 H1 1_555 1_555
H2 C1 1_555 1_555
C2 C1 1_555 1_555
H3 C2 1_555 1_555
H4 C2 1_555 1_555
C3 C2 1_555 1_555
H5 C3 1_555 1_555
C4 N1 1_555 1_555
C5 C4 1_555 1_555
H6 C5 1_555 1_555
H7 C5 1_555 1_555
C6 C5 1_555 1_555
H8 C6 1_555 1_555
H9 C6 1_555 1_555
C7 C6 1_555 1_555
H10 C7 1_555 1_555
H11 C7 1_555 1_555
C8 N1 1_555 1_555
C9 C4 1_555 1_555
H12 C9 1_555 1_555
H13 C9 1_555 1_555
H14 C9 1_555 1_555
C10 C4 1_555 1_555
H15 C10 1_555 1_555
H16 C10 1_555 1_555
H17 C10 1_555 1_555
C11 C8 1_555 1_555
H18 C11 1_555 1_555
H19 C11 1_555 1_555
H20 C11 1_555 1_555
C12 C8 1_555 1_555
H21 C12 1_555 1_555
H22 C12 1_555 1_555
H23 C12 1_555 1_555
B1 C3 1_555 1_555
C13 B1 1_555 1_555
F1 C14 1_555 1_555
C14 C13 1_555 1_555
F2 C15 1_555 1_555
C15 C14 1_555 1_555
F3 C16 1_555 1_555
C16 C15 1_555 1_555
F4 C17 1_555 1_555
C17 C16 1_555 1_555
F5 C18 1_555 1_555
C18 C13 1_555 1_555
C19 B1 1_555 1_555
F6 C20 1_555 1_555
C20 C19 1_555 1_555
F7 C21 1_555 1_555
C21 C20 1_555 1_555
F8 C22 1_555 1_555
C22 C21 1_555 1_555
F9 C23 1_555 1_555
C23 C22 1_555 1_555
F10 C24 1_555 1_555
C24 C19 1_555 1_555
N2 C25 1_555 1_555
C25 H24 1_555 1_555
C26 C25 1_555 1_555
H25 C26 1_555 1_555
C27 C26 1_555 1_555
H26 C27 1_555 1_555
C28 C27 1_555 1_555
H27 C28 1_555 1_555
C29 N2 1_555 1_555
H28 C29 1_555 1_555
C7 C8 1_555 1_555
C17 C18 1_555 1_555
C23 C24 1_555 1_555
C28 C29 1_555 1_555

#END
