
#######################################################################
#
#                 Cambridge Crystallographic Data Centre
#                                CCDC 
#
#######################################################################
#
# If this CIF has been generated from an entry in the Cambridge 
# Structural Database, then it will include bibliographic, chemical, 
# crystal, experimental, refinement or atomic coordinate data resulting 
# from the CCDC's data processing and validation procedures.
#
#######################################################################

data_FEBMEH
_chemical_formula_moiety         
'C37 H33 B1 F10 N1 O1 1-,C9 H19 N1,1.5(C1 H2 Cl2),Li1 1+'
_chemical_name_systematic        
'lithium 2,2-bis(pentafluorophenyl)-4,4-diphenyl-3-[2-(2,2,6,6-tetramethylpiperidin-1-yl)ethyl]-1,2-oxaboretan-2-ide 2,2,6,6-tetramethylpiperidine dichloromethane solvate'
_symmetry_cell_setting           triclinic
_symmetry_space_group_name_H-M   'P -1'
_symmetry_Int_Tables_number      2
_space_group_name_Hall           '-P 1'
loop_
_symmetry_equiv_pos_site_id
_symmetry_equiv_pos_as_xyz
1 x,y,z
2 -x,-y,-z
_cell_length_a                   11.5212(4)
_cell_length_b                   12.3482(4)
_cell_length_c                   17.2949(6)
_cell_angle_alpha                74.8320(10)
_cell_angle_beta                 84.5700(10)
_cell_angle_gamma                84.5730(10)
_cell_volume                     2357.86
_exptl_crystal_colour            colorless
_exptl_crystal_description       prism
_cell_formula_units_Z            2
loop_
_atom_site_label
_atom_site_type_symbol
_atom_site_fract_x
_atom_site_fract_y
_atom_site_fract_z
B1 B 0.27829(18) 0.58994(17) 0.26235(12)
O1 O 0.30086(10) 0.46283(10) 0.27730(7)
N1 N 0.69582(13) 0.74444(12) 0.17725(9)
C1 C 0.62264(15) 0.66088(15) 0.23265(11)
H1 H 0.6226 0.6708 0.2876
H2 H 0.658 0.5844 0.2333
C2 C 0.49620(15) 0.66997(15) 0.21004(11)
H3 H 0.4656 0.7497 0.1993
H4 H 0.4951 0.6458 0.1599
C3 C 0.41560(15) 0.59904(14) 0.27511(10)
H5 H 0.4212 0.6188 0.3271
C4 C 0.42388(15) 0.46694(15) 0.29022(10)
C5 C 0.73006(16) 0.83246(16) 0.21429(11)
C6 C 0.79498(17) 0.92132(16) 0.14979(12)
H6 H 0.7386 0.9656 0.1117
H7 H 0.8266 0.9735 0.1759
C7 C 0.89473(16) 0.87064(16) 0.10317(11)
H8 H 0.9319 0.9309 0.0613
H9 H 0.9547 0.8303 0.1399
C8 C 0.84530(16) 0.78960(16) 0.06461(11)
H10 H 0.9095 0.7565 0.0338
H11 H 0.7884 0.8319 0.0262
C9 C 0.78453(16) 0.69411(16) 0.12570(11)
C10 C 0.61869(18) 0.89361(17) 0.24316(12)
H12 H 0.5676 0.9209 0.1988
H13 H 0.6397 0.9575 0.2614
H14 H 0.5777 0.8415 0.2877
C11 C 0.80657(18) 0.78740(17) 0.28645(11)
H15 H 0.7712 0.7232 0.3242
H16 H 0.8118 0.847 0.3136
H17 H 0.8851 0.7634 0.2672
C12 C 0.72100(18) 0.63256(18) 0.07777(13)
H18 H 0.6885 0.5657 0.1143
H19 H 0.7763 0.6097 0.0373
H20 H 0.6576 0.6829 0.0511
C13 C 0.87727(17) 0.60923(17) 0.17205(13)
H21 H 0.932 0.6499 0.192
H22 H 0.9201 0.5674 0.136
H23 H 0.8385 0.5567 0.2175
C14 C 0.23096(15) 0.64996(15) 0.17296(10)
C15 C 0.18574(15) 0.59816(15) 0.12185(11)
F1 F 0.17244(9) 0.48412(8) 0.14512(6)
C16 C 0.14849(16) 0.65254(16) 0.04695(11)
F2 F 0.10491(10) 0.59571(9) 0.00113(6)
C17 C 0.15400(16) 0.76759(16) 0.02034(10)
F3 F 0.11723(10) 0.82354(9) -0.05172(6)
C18 C 0.19541(15) 0.82490(15) 0.06933(11)
F4 F 0.19777(10) 0.93764(9) 0.04563(6)
C19 C 0.23200(15) 0.76587(15) 0.14312(10)
F5 F 0.26865(9) 0.82721(8) 0.18931(6)
C20 C 0.17749(15) 0.62064(14) 0.32860(10)
C21 C 0.07754(16) 0.56194(15) 0.34766(10)
F6 F 0.06468(9) 0.47970(9) 0.30921(6)
C22 C -0.01330(16) 0.57998(16) 0.40172(11)
F7 F -0.10769(9) 0.51890(9) 0.41610(7)
C23 C -0.00681(17) 0.66348(16) 0.44022(11)
F8 F -0.09325(10) 0.68381(10) 0.49356(7)
C24 C 0.08980(17) 0.72625(16) 0.42339(11)
F9 F 0.09617(11) 0.80931(10) 0.46000(7)
C25 C 0.17890(16) 0.70380(15) 0.36915(10)
F10 F 0.27106(9) 0.76834(9) 0.35698(6)
C26 C 0.44852(16) 0.40699(15) 0.37662(10)
C27 C 0.55024(17) 0.42550(16) 0.40782(11)
H24 H 0.6019 0.4776 0.3754
C28 C 0.57717(18) 0.36933(17) 0.48507(12)
H25 H 0.647 0.3826 0.5052
C29 C 0.50203(18) 0.29360(16) 0.53311(11)
H26 H 0.5208 0.254 0.5859
C30 C 0.40007(18) 0.27615(17) 0.50393(11)
H27 H 0.3477 0.2254 0.5371
C31 C 0.37327(16) 0.33257(16) 0.42595(11)
H28 H 0.3027 0.3199 0.4064
C32 C 0.49785(15) 0.41304(15) 0.22986(11)
C33 C 0.46739(16) 0.43817(16) 0.15034(11)
H29 H 0.4065 0.4945 0.1334
C34 C 0.52381(18) 0.38293(18) 0.09567(12)
H30 H 0.5016 0.4017 0.042
C35 C 0.61279(19) 0.30013(19) 0.11933(14)
H31 H 0.6511 0.2613 0.0823
C36 C 0.64504(18) 0.27479(18) 0.19714(13)
H32 H 0.7061 0.2184 0.2136
C37 C 0.58918(16) 0.33080(17) 0.25184(12)
H33 H 0.6134 0.3129 0.305
Li1 Li 0.1873(3) 0.3799(3) 0.25826(19)
N2 N 0.13858(14) 0.21833(13) 0.28221(10)
H34 H 0.1466(18) 0.1904(18) 0.3341(14)
C38 C 0.23262(18) 0.15134(17) 0.24403(13)
C39 C 0.2012(2) 0.02924(19) 0.25865(19)
H35 H 0.2596 -0.0106 0.2281
H36 H 0.2052 -0.0088 0.3164
C40 C 0.0797(2) 0.0208(2) 0.23374(18)
H37 H 0.0758 0.0551 0.1754
H38 H 0.063 -0.0593 0.2448
C41 C -0.00996(19) 0.08132(17) 0.28039(14)
H39 H -0.0106 0.0413 0.3381
H40 H -0.0883 0.0783 0.2623
C42 C 0.01299(17) 0.20493(16) 0.27066(12)
C43 C 0.34362(18) 0.15149(18) 0.28560(16)
H41 H 0.3678 0.2285 0.2737
H42 H 0.4059 0.1035 0.266
H43 H 0.3284 0.1226 0.3438
C44 C 0.2557(2) 0.2071(2) 0.15480(14)
H44 H 0.189 0.1997 0.1259
H45 H 0.3264 0.1704 0.1337
H46 H 0.2667 0.287 0.1475
C45 C -0.0620(2) 0.2466(2) 0.33609(14)
H47 H -0.0362 0.2054 0.3889
H48 H -0.1441 0.2341 0.3332
H49 H -0.0541 0.3272 0.3282
C46 C -0.0202(2) 0.2792(2) 0.18927(14)
H50 H 0.0041 0.3553 0.1827
H51 H -0.1051 0.2825 0.1865
H52 H 0.0189 0.2476 0.1464
C47 C 0.3095(2) 0.9486(2) 0.50860(15)
H53 H 0.2863 0.8742 0.5068
H54 H 0.364 0.9758 0.4611
Cl1 Cl 0.38128(6) 0.93351(6) 0.59561(4)
Cl2 Cl 0.18397(5) 1.04344(5) 0.50370(4)
C48? C 0.4957(4) 0.9449(4) 0.0476(3)
H55? H 0.4285 0.9359 0.0884
H56? H 0.5665 0.9089 0.0748
Cl3? Cl 0.47147(14) 0.87648(15) -0.02710(10)
Cl4? Cl 0.51306(18) 1.08725(15) 0.00685(14)
loop_
_geom_bond_atom_site_label_1
_geom_bond_atom_site_label_2
_geom_bond_site_symmetry_1
_geom_bond_site_symmetry_2
B1 O1 1_555 1_555
O1 C4 1_555 1_555
N1 C1 1_555 1_555
C1 H1 1_555 1_555
H2 C1 1_555 1_555
C2 C1 1_555 1_555
H3 C2 1_555 1_555
H4 C2 1_555 1_555
C3 B1 1_555 1_555
H5 C3 1_555 1_555
C4 C3 1_555 1_555
C5 N1 1_555 1_555
C6 C5 1_555 1_555
H6 C6 1_555 1_555
H7 C6 1_555 1_555
C7 C6 1_555 1_555
H8 C7 1_555 1_555
H9 C7 1_555 1_555
C8 C7 1_555 1_555
H10 C8 1_555 1_555
H11 C8 1_555 1_555
C9 N1 1_555 1_555
C10 C5 1_555 1_555
H12 C10 1_555 1_555
H13 C10 1_555 1_555
H14 C10 1_555 1_555
C11 C5 1_555 1_555
H15 C11 1_555 1_555
H16 C11 1_555 1_555
H17 C11 1_555 1_555
C12 C9 1_555 1_555
H18 C12 1_555 1_555
H19 C12 1_555 1_555
H20 C12 1_555 1_555
C13 C9 1_555 1_555
H21 C13 1_555 1_555
H22 C13 1_555 1_555
H23 C13 1_555 1_555
C14 B1 1_555 1_555
C15 C14 1_555 1_555
F1 C15 1_555 1_555
C16 C15 1_555 1_555
F2 C16 1_555 1_555
C17 C16 1_555 1_555
F3 C17 1_555 1_555
C18 C17 1_555 1_555
F4 C18 1_555 1_555
C19 C14 1_555 1_555
F5 C19 1_555 1_555
C20 B1 1_555 1_555
C21 C20 1_555 1_555
F6 C21 1_555 1_555
C22 C21 1_555 1_555
F7 C22 1_555 1_555
C23 C22 1_555 1_555
F8 C23 1_555 1_555
C24 C23 1_555 1_555
F9 C24 1_555 1_555
C25 C20 1_555 1_555
F10 C25 1_555 1_555
C26 C4 1_555 1_555
C27 C26 1_555 1_555
H24 C27 1_555 1_555
C28 C27 1_555 1_555
H25 C28 1_555 1_555
C29 C28 1_555 1_555
H26 C29 1_555 1_555
C30 C29 1_555 1_555
H27 C30 1_555 1_555
C31 C26 1_555 1_555
H28 C31 1_555 1_555
C32 C4 1_555 1_555
C33 C32 1_555 1_555
H29 C33 1_555 1_555
C34 C33 1_555 1_555
H30 C34 1_555 1_555
C35 C34 1_555 1_555
H31 C35 1_555 1_555
C36 C35 1_555 1_555
H32 C36 1_555 1_555
C37 C32 1_555 1_555
H33 C37 1_555 1_555
N2 H34 1_555 1_555
C38 N2 1_555 1_555
C39 C38 1_555 1_555
H35 C39 1_555 1_555
H36 C39 1_555 1_555
C40 C39 1_555 1_555
H37 C40 1_555 1_555
H38 C40 1_555 1_555
C41 C40 1_555 1_555
H39 C41 1_555 1_555
H40 C41 1_555 1_555
C42 N2 1_555 1_555
C43 C38 1_555 1_555
H41 C43 1_555 1_555
H42 C43 1_555 1_555
H43 C43 1_555 1_555
C44 C38 1_555 1_555
H44 C44 1_555 1_555
H45 C44 1_555 1_555
H46 C44 1_555 1_555
C45 C42 1_555 1_555
H47 C45 1_555 1_555
H48 C45 1_555 1_555
H49 C45 1_555 1_555
C46 C42 1_555 1_555
H50 C46 1_555 1_555
H51 C46 1_555 1_555
H52 C46 1_555 1_555
C47 H53 1_555 1_555
H54 C47 1_555 1_555
Cl1 C47 1_555 1_555
Cl2 C47 1_555 1_555
C2 C3 1_555 1_555
C8 C9 1_555 1_555
C18 C19 1_555 1_555
C24 C25 1_555 1_555
C30 C31 1_555 1_555
C36 C37 1_555 1_555
C41 C42 1_555 1_555

#END
