
#######################################################################
#
#                 Cambridge Crystallographic Data Centre
#                                CCDC 
#
#######################################################################
#
# If this CIF has been generated from an entry in the Cambridge 
# Structural Database, then it will include bibliographic, chemical, 
# crystal, experimental, refinement or atomic coordinate data resulting 
# from the CCDC's data processing and validation procedures.
#
#######################################################################

data_FEBMUX
_chemical_formula_moiety         'C25 H34 N1 1+,Cl1 1-'
_chemical_name_systematic        
'1-(4,4-diphenylbut-3-en-1-yl)-2,2,6,6-tetramethylpiperidin-1-ium chloride'
_symmetry_cell_setting           monoclinic
_symmetry_space_group_name_H-M   'P 21/n'
_symmetry_Int_Tables_number      14
_space_group_name_Hall           '-P 2yn'
loop_
_symmetry_equiv_pos_site_id
_symmetry_equiv_pos_as_xyz
1 x,y,z
2 1/2-x,1/2+y,1/2-z
3 -x,-y,-z
4 1/2+x,1/2-y,1/2+z
_cell_length_a                   6.6815(3)
_cell_length_b                   15.5318(6)
_cell_length_c                   20.9543(8)
_cell_angle_alpha                90
_cell_angle_beta                 95.2790(10)
_cell_angle_gamma                90
_cell_volume                     2165.32
_exptl_crystal_colour            colorless
_exptl_crystal_description       plate
_cell_formula_units_Z            4
loop_
_atom_site_label
_atom_site_type_symbol
_atom_site_fract_x
_atom_site_fract_y
_atom_site_fract_z
Cl1 Cl 1.24264(4) 0.52945(2) 0.63256(2)
N1 N 0.86253(14) 0.65487(6) 0.61591(5)
H1 H 0.972(2) 0.6212(10) 0.6233(7)
C1 C 0.72158(17) 0.63088(7) 0.66630(5)
H2 H 0.5962 0.6065 0.6447
H3 H 0.6859 0.6835 0.6894
C2 C 0.81543(17) 0.56552(7) 0.71466(5)
H4 H 0.8656 0.5154 0.6917
H5 H 0.9307 0.5921 0.7405
C3 C 0.66048(17) 0.53629(7) 0.75809(5)
H6 H 0.604 0.4807 0.7502
C4 C 0.59480(17) 0.58116(7) 0.80671(5)
C5 C 0.94941(19) 0.74697(8) 0.62495(6)
C6 C 1.0981(2) 0.76108(8) 0.57441(6)
H7 H 1.1436 0.8218 0.5766
H8 H 1.2174 0.7242 0.5851
C7 C 1.0134(2) 0.74146(8) 0.50605(6)
H9 H 0.9002 0.7808 0.4933
H10 H 1.1186 0.7503 0.4764
C8 C 0.94094(18) 0.64864(8) 0.50221(6)
H11 H 1.0572 0.6101 0.5128
H12 H 0.8871 0.6361 0.4576
C9 C 0.77854(17) 0.62824(8) 0.54703(5)
C10 C 0.7866(2) 0.81660(8) 0.62029(7)
H13 H 0.6791 0.8002 0.6467
H14 H 0.7313 0.8228 0.5756
H15 H 0.8453 0.8715 0.6356
C11 C 1.0661(2) 0.74957(9) 0.69142(6)
H16 H 1.1588 0.7006 0.6961
H17 H 0.9716 0.7464 0.7244
H18 H 1.1426 0.8034 0.6963
C12 C 0.57831(18) 0.67151(9) 0.52567(6)
H19 H 0.5203 0.6451 0.4857
H20 H 0.6004 0.733 0.5187
H21 H 0.4858 0.6642 0.5589
C13 C 0.74517(18) 0.53086(8) 0.54809(6)
H22 H 0.6284 0.518 0.5715
H23 H 0.8646 0.5028 0.5693
H24 H 0.7211 0.5095 0.5041
C14 C 0.67614(18) 0.66817(7) 0.82556(5)
C15 C 0.54852(19) 0.73971(8) 0.81993(6)
H25 H 0.4101 0.7319 0.8064
C16 C 0.6213(2) 0.82220(8) 0.83378(6)
H26 H 0.5328 0.8702 0.8298
C17 C 0.8243(2) 0.83424(8) 0.85358(6)
H27 H 0.8755 0.8906 0.8619
C18 C 0.9511(2) 0.76353(9) 0.86110(6)
H28 H 1.0888 0.7715 0.8756
C19 C 0.87800(19) 0.68081(8) 0.84748(6)
H29 H 0.9659 0.6328 0.8531
C20 C 0.43000(17) 0.54646(7) 0.84276(6)
C21 C 0.43119(19) 0.56038(8) 0.90872(6)
H30 H 0.5353 0.5939 0.9304
C22 C 0.2814(2) 0.52571(8) 0.94306(6)
H31 H 0.285 0.5351 0.9879
C23 C 0.12705(19) 0.47758(8) 0.91191(6)
H32 H 0.0249 0.454 0.9353
C24 C 0.12288(18) 0.46410(8) 0.84606(6)
H33 H 0.0173 0.4313 0.8246
C25 C 0.27246(18) 0.49842(8) 0.81159(6)
H34 H 0.2677 0.4892 0.7666
loop_
_geom_bond_atom_site_label_1
_geom_bond_atom_site_label_2
_geom_bond_site_symmetry_1
_geom_bond_site_symmetry_2
N1 H1 1_555 1_555
C1 N1 1_555 1_555
H2 C1 1_555 1_555
H3 C1 1_555 1_555
C2 C1 1_555 1_555
H4 C2 1_555 1_555
H5 C2 1_555 1_555
C3 C2 1_555 1_555
H6 C3 1_555 1_555
C4 C3 1_555 1_555
C5 N1 1_555 1_555
C6 C5 1_555 1_555
H7 C6 1_555 1_555
H8 C6 1_555 1_555
C7 C6 1_555 1_555
H9 C7 1_555 1_555
H10 C7 1_555 1_555
C8 C7 1_555 1_555
H11 C8 1_555 1_555
H12 C8 1_555 1_555
C9 N1 1_555 1_555
C10 C5 1_555 1_555
H13 C10 1_555 1_555
H14 C10 1_555 1_555
H15 C10 1_555 1_555
C11 C5 1_555 1_555
H16 C11 1_555 1_555
H17 C11 1_555 1_555
H18 C11 1_555 1_555
C12 C9 1_555 1_555
H19 C12 1_555 1_555
H20 C12 1_555 1_555
H21 C12 1_555 1_555
C13 C9 1_555 1_555
H22 C13 1_555 1_555
H23 C13 1_555 1_555
H24 C13 1_555 1_555
C14 C4 1_555 1_555
C15 C14 1_555 1_555
H25 C15 1_555 1_555
C16 C15 1_555 1_555
H26 C16 1_555 1_555
C17 C16 1_555 1_555
H27 C17 1_555 1_555
C18 C17 1_555 1_555
H28 C18 1_555 1_555
C19 C14 1_555 1_555
H29 C19 1_555 1_555
C20 C4 1_555 1_555
C21 C20 1_555 1_555
H30 C21 1_555 1_555
C22 C21 1_555 1_555
H31 C22 1_555 1_555
C23 C22 1_555 1_555
H32 C23 1_555 1_555
C24 C23 1_555 1_555
H33 C24 1_555 1_555
C25 C20 1_555 1_555
H34 C25 1_555 1_555
C8 C9 1_555 1_555
C18 C19 1_555 1_555
C24 C25 1_555 1_555

#END
