
#######################################################################
#
#                 Cambridge Crystallographic Data Centre
#                                CCDC 
#
#######################################################################
#
# If this CIF has been generated from an entry in the Cambridge 
# Structural Database, then it will include bibliographic, chemical, 
# crystal, experimental, refinement or atomic coordinate data resulting 
# from the CCDC's data processing and validation procedures.
#
#######################################################################

data_FEBNUY
_chemical_formula_moiety         
'C34 H20 B1 F10 O1 1-,C9 H19 N1,C1 H2 Cl2,Li1 1+'
_chemical_name_systematic        
'lithium 2,2-bis(pentafluorophenyl)-4,4-diphenyl-3-(2-phenylethyl)-1,2-oxaboretan-2-ide 2,2,6,6-tetramethylpiperidine dichloromethane solvate'
_symmetry_cell_setting           triclinic
_symmetry_space_group_name_H-M   'P -1'
_symmetry_Int_Tables_number      2
_space_group_name_Hall           '-P 1'
loop_
_symmetry_equiv_pos_site_id
_symmetry_equiv_pos_as_xyz
1 x,y,z
2 -x,-y,-z
_cell_length_a                   10.2492(3)
_cell_length_b                   11.9411(3)
_cell_length_c                   18.0278(5)
_cell_angle_alpha                80.1520(10)
_cell_angle_beta                 74.0120(10)
_cell_angle_gamma                74.3990(10)
_cell_volume                     2031.64
_exptl_crystal_colour            colorless
_exptl_crystal_description       plate
_cell_formula_units_Z            2
loop_
_atom_site_label
_atom_site_type_symbol
_atom_site_fract_x
_atom_site_fract_y
_atom_site_fract_z
B1 B 0.34133(18) 0.75069(15) 0.69533(10)
C1 C 0.11272(16) 0.88483(14) 0.89778(9)
H1 H 0.1718 0.8282 0.9291
H2 H 0.1416 0.9597 0.889
O1 O 0.41370(11) 0.63836(9) 0.73697(6)
C2 C 0.13875(16) 0.83921(14) 0.81919(9)
H3 H 0.1034 0.7675 0.8276
H4 H 0.0852 0.8985 0.7863
C3 C 0.29274(16) 0.81175(13) 0.77619(9)
H5 H 0.3339 0.8807 0.7705
C4 C 0.39061(16) 0.69629(13) 0.80590(9)
C5 C -0.03790(17) 0.90377(15) 0.94311(9)
C6 C -0.08619(19) 0.81299(15) 0.99252(11)
H6 H -0.0236 0.7389 0.9977
C7 C -0.2242(2) 0.82877(17) 1.03438(12)
H7 H -0.2553 0.7656 1.0679
C8 C -0.31722(18) 0.93655(16) 1.02746(10)
H8 H -0.4116 0.9477 1.0564
C9 C -0.27093(17) 1.02689(15) 0.97812(10)
H9 H -0.3339 1.1007 0.9727
C10 C -0.13246(17) 1.01073(15) 0.93619(10)
H10 H -0.102 1.0738 0.9023
C11 C 0.46032(16) 0.79539(14) 0.62297(9)
C12 C 0.53808(16) 0.71780(13) 0.56977(9)
F1 F 0.50968(10) 0.60865(8) 0.57919(5)
C13 C 0.64466(17) 0.73812(14) 0.50724(10)
F2 F 0.71416(11) 0.65741(9) 0.45801(6)
C14 C 0.68181(17) 0.84379(15) 0.49706(10)
F3 F 0.78880(10) 0.86444(9) 0.43898(6)
C15 C 0.60975(17) 0.92509(14) 0.54852(10)
F4 F 0.64556(10) 1.02794(8) 0.53923(6)
C16 C 0.50022(16) 0.90104(14) 0.60910(9)
F5 F 0.43304(10) 0.98715(8) 0.65517(6)
C17 C 0.21900(16) 0.72965(14) 0.66050(9)
C18 C 0.19719(16) 0.62251(14) 0.65413(9)
F6 F 0.28551(9) 0.51952(8) 0.67481(6)
C19 C 0.09043(17) 0.60869(15) 0.62609(10)
F7 F 0.07403(10) 0.50191(9) 0.62290(7)
C20 C -0.00001(17) 0.70596(16) 0.60086(10)
F8 F -0.10424(11) 0.69379(10) 0.57377(7)
C21 C 0.01832(17) 0.81554(15) 0.60339(10)
F9 F -0.06790(11) 0.91039(9) 0.57697(6)
C22 C 0.12493(17) 0.82473(14) 0.63327(9)
F10 F 0.13818(10) 0.93332(8) 0.63514(6)
C23 C 0.52780(16) 0.71730(14) 0.81193(9)
C24 C 0.52768(18) 0.80896(15) 0.85037(10)
H11 H 0.4415 0.8592 0.8726
C25 C 0.6517(2) 0.82798(16) 0.85660(11)
H12 H 0.6497 0.8904 0.8836
C26 C 0.77790(19) 0.75677(17) 0.82389(11)
H13 H 0.8629 0.7707 0.8274
C27 C 0.77944(18) 0.66522(17) 0.78613(11)
H14 H 0.8659 0.6153 0.764
C28 C 0.65495(17) 0.64543(15) 0.78017(10)
H15 H 0.6573 0.582 0.754
C29 C 0.32622(16) 0.62103(13) 0.87672(9)
C30 C 0.36081(17) 0.60622(15) 0.94775(10)
H16 H 0.4257 0.6456 0.9538
C31 C 0.30162(18) 0.53443(16) 1.01016(10)
H17 H 0.3268 0.525 1.0582
C32 C 0.20616(18) 0.47668(16) 1.00252(11)
H18 H 0.1658 0.4277 1.045
C33 C 0.17027(18) 0.49114(15) 0.93231(11)
H19 H 0.1044 0.4522 0.9268
C34 C 0.22951(16) 0.56183(14) 0.87011(10)
H20 H 0.2043 0.5704 0.8222
Li1 Li 0.4848(3) 0.5024(2) 0.69101(17)
N1 N 0.63847(14) 0.35072(12) 0.70603(8)
H21 H 0.698(2) 0.3738(16) 0.7265(11)
C35 C 0.58136(18) 0.26333(15) 0.76884(10)
C36 C 0.6898(2) 0.14690(15) 0.77332(11)
H22 H 0.7638 0.1579 0.795
H23 H 0.6442 0.0885 0.8093
C37 C 0.7565(2) 0.09970(16) 0.69535(11)
H24 H 0.6844 0.0836 0.6744
H25 H 0.8266 0.0256 0.7014
C38 C 0.8263(2) 0.18919(16) 0.63973(11)
H26 H 0.8675 0.1588 0.5885
H27 H 0.9034 0.1992 0.6592
C39 C 0.72604(17) 0.30917(15) 0.62929(10)
C40 C 0.5469(2) 0.31714(16) 0.84501(11)
H28 H 0.6319 0.331 0.8529
H29 H 0.5094 0.2634 0.8881
H30 H 0.4774 0.3914 0.8429
C41 C 0.4476(2) 0.24555(17) 0.75608(12)
H31 H 0.3799 0.321 0.7542
H32 H 0.4084 0.1922 0.7988
H33 H 0.4686 0.212 0.707
C42 C 0.81097(19) 0.40037(17) 0.59230(11)
H34 H 0.7478 0.4757 0.5818
H35 H 0.8754 0.3755 0.5436
H36 H 0.8643 0.4085 0.6278
C43 C 0.6334(2) 0.30530(16) 0.57638(11)
H37 H 0.5872 0.2405 0.5963
H38 H 0.6911 0.2938 0.5237
H39 H 0.5628 0.3791 0.5753
C44 C 0.0955(3) 0.2831(2) 0.7290(2)
H40 H 0.0689 0.2961 0.6789
H41 H 0.1796 0.3137 0.7208
Cl1 Cl 0.1359(3) 0.13503(18) 0.75724(15)
Cl2 Cl -0.0409(4) 0.3611(2) 0.79713(16)
C45? C 0.0972(7) 0.2815(7) 0.7869(6)
H42? H 0.1468 0.2657 0.8289
H43? H 0.1371 0.3391 0.7469
Cl3? Cl 0.1268(7) 0.1532(6) 0.7461(4)
Cl4? Cl -0.0753(4) 0.3412(4) 0.8240(4)
loop_
_geom_bond_atom_site_label_1
_geom_bond_atom_site_label_2
_geom_bond_site_symmetry_1
_geom_bond_site_symmetry_2
B1 O1 1_555 1_555
C1 H1 1_555 1_555
H2 C1 1_555 1_555
O1 C4 1_555 1_555
C2 C1 1_555 1_555
H3 C2 1_555 1_555
H4 C2 1_555 1_555
C3 B1 1_555 1_555
H5 C3 1_555 1_555
C4 C3 1_555 1_555
C5 C1 1_555 1_555
C6 C5 1_555 1_555
H6 C6 1_555 1_555
C7 C6 1_555 1_555
H7 C7 1_555 1_555
C8 C7 1_555 1_555
H8 C8 1_555 1_555
C9 C8 1_555 1_555
H9 C9 1_555 1_555
C10 C5 1_555 1_555
H10 C10 1_555 1_555
C11 B1 1_555 1_555
C12 C11 1_555 1_555
F1 C12 1_555 1_555
C13 C12 1_555 1_555
F2 C13 1_555 1_555
C14 C13 1_555 1_555
F3 C14 1_555 1_555
C15 C14 1_555 1_555
F4 C15 1_555 1_555
C16 C11 1_555 1_555
F5 C16 1_555 1_555
C17 B1 1_555 1_555
C18 C17 1_555 1_555
F6 C18 1_555 1_555
C19 C18 1_555 1_555
F7 C19 1_555 1_555
C20 C19 1_555 1_555
F8 C20 1_555 1_555
C21 C20 1_555 1_555
F9 C21 1_555 1_555
C22 C17 1_555 1_555
F10 C22 1_555 1_555
C23 C4 1_555 1_555
C24 C23 1_555 1_555
H11 C24 1_555 1_555
C25 C24 1_555 1_555
H12 C25 1_555 1_555
C26 C25 1_555 1_555
H13 C26 1_555 1_555
C27 C26 1_555 1_555
H14 C27 1_555 1_555
C28 C23 1_555 1_555
H15 C28 1_555 1_555
C29 C4 1_555 1_555
C30 C29 1_555 1_555
H16 C30 1_555 1_555
C31 C30 1_555 1_555
H17 C31 1_555 1_555
C32 C31 1_555 1_555
H18 C32 1_555 1_555
C33 C32 1_555 1_555
H19 C33 1_555 1_555
C34 C29 1_555 1_555
H20 C34 1_555 1_555
N1 H21 1_555 1_555
C35 N1 1_555 1_555
C36 C35 1_555 1_555
H22 C36 1_555 1_555
H23 C36 1_555 1_555
C37 C36 1_555 1_555
H24 C37 1_555 1_555
H25 C37 1_555 1_555
C38 C37 1_555 1_555
H26 C38 1_555 1_555
H27 C38 1_555 1_555
C39 N1 1_555 1_555
C40 C35 1_555 1_555
H28 C40 1_555 1_555
H29 C40 1_555 1_555
H30 C40 1_555 1_555
C41 C35 1_555 1_555
H31 C41 1_555 1_555
H32 C41 1_555 1_555
H33 C41 1_555 1_555
C42 C39 1_555 1_555
H34 C42 1_555 1_555
H35 C42 1_555 1_555
H36 C42 1_555 1_555
C43 C39 1_555 1_555
H37 C43 1_555 1_555
H38 C43 1_555 1_555
H39 C43 1_555 1_555
C44 H40 1_555 1_555
H41 C44 1_555 1_555
Cl1 C44 1_555 1_555
Cl2 C44 1_555 1_555
C2 C3 1_555 1_555
C9 C10 1_555 1_555
C15 C16 1_555 1_555
C21 C22 1_555 1_555
C27 C28 1_555 1_555
C33 C34 1_555 1_555
C38 C39 1_555 1_555

#END
