
#######################################################################
#
#                 Cambridge Crystallographic Data Centre
#                                CCDC 
#
#######################################################################
#
# If this CIF has been generated from an entry in the Cambridge 
# Structural Database, then it will include bibliographic, chemical, 
# crystal, experimental, refinement or atomic coordinate data resulting 
# from the CCDC's data processing and validation procedures.
#
#######################################################################

data_FEBPIO
_chemical_formula_moiety         'C24 B2 F20 O2 2-,2(C9 H19 N1),2(Li1 1+)'
_chemical_name_systematic        
'di-lithium 2,2,4,4-tetrakis(pentafluorophenyl)-1,3,2,4-dioxadiboretane-2,4-diide bis(2,2,6,6-tetramethylpiperidine)'
_symmetry_cell_setting           triclinic
_symmetry_space_group_name_H-M   'P -1'
_symmetry_Int_Tables_number      2
_space_group_name_Hall           '-P 1'
loop_
_symmetry_equiv_pos_site_id
_symmetry_equiv_pos_as_xyz
1 x,y,z
2 -x,-y,-z
_cell_length_a                   9.8919(3)
_cell_length_b                   11.1034(4)
_cell_length_c                   11.1528(4)
_cell_angle_alpha                105.3350(10)
_cell_angle_beta                 98.6630(10)
_cell_angle_gamma                106.3030(10)
_cell_volume                     1099.87
_exptl_crystal_colour            'pale yellow'
_exptl_crystal_description       prism
_cell_formula_units_Z            1
loop_
_atom_site_label
_atom_site_type_symbol
_atom_site_fract_x
_atom_site_fract_y
_atom_site_fract_z
B1 B 0.45390(18) 0.52339(17) 0.42697(16)
O1 O 0.44096(11) 0.39517(10) 0.44857(10)
C1 C 0.52266(16) 0.54185(15) 0.30346(14)
C2 C 0.55608(17) 0.44753(15) 0.21563(15)
F1 F 0.51946(11) 0.31918(9) 0.21645(9)
C3 C 0.62544(17) 0.47179(17) 0.12126(15)
F2 F 0.65256(11) 0.37380(10) 0.03828(9)
C4 C 0.66480(16) 0.59688(17) 0.11115(15)
F3 F 0.73078(11) 0.62273(11) 0.01930(9)
C5 C 0.63325(17) 0.69516(16) 0.19475(16)
F4 F 0.67042(11) 0.81821(10) 0.18604(10)
C6 C 0.56247(16) 0.66499(15) 0.28616(15)
F5 F 0.53101(10) 0.76459(9) 0.36362(9)
C7 C 0.29760(16) 0.55097(15) 0.41351(14)
C8 C 0.17334(17) 0.45771(15) 0.32663(15)
F6 F 0.18369(10) 0.34661(9) 0.24615(9)
C9 C 0.03712(17) 0.46945(17) 0.31676(15)
F7 F -0.08056(11) 0.37454(11) 0.23205(10)
C10 C 0.02081(17) 0.57971(17) 0.39664(16)
F8 F -0.11093(10) 0.59263(10) 0.38987(10)
C11 C 0.13990(17) 0.67535(16) 0.48516(15)
F9 F 0.12512(10) 0.78230(9) 0.56580(9)
C12 C 0.27413(16) 0.65962(15) 0.49017(14)
F10 F 0.38707(9) 0.76235(9) 0.57904(9)
B1A B 0.54610(18) 0.47661(17) 0.57303(16)
O1A O 0.55904(11) 0.60483(10) 0.55143(10)
C1A C 0.47734(16) 0.45815(15) 0.69654(14)
C2A C 0.44392(17) 0.55247(15) 0.78437(15)
F1A F 0.48054(11) 0.68082(9) 0.78355(9)
C3A C 0.37456(17) 0.52821(17) 0.87874(15)
F2A F 0.34744(11) 0.62620(10) 0.96172(9)
C4A C 0.33520(16) 0.40312(17) 0.88885(15)
F3A F 0.26922(11) 0.37727(11) 0.98070(9)
C5A C 0.36675(17) 0.30484(16) 0.80525(16)
F4A F 0.32958(11) 0.18179(10) 0.81396(10)
C6A C 0.43753(16) 0.33501(15) 0.71384(15)
F5A F 0.46899(10) 0.23541(9) 0.63638(9)
C7A C 0.70240(16) 0.44903(15) 0.58649(14)
C8A C 0.82666(17) 0.54229(15) 0.67337(15)
F6A F 0.81631(10) 0.65339(9) 0.75385(9)
C9A C 0.96288(17) 0.53055(17) 0.68324(15)
F7A F 1.08056(11) 0.62546(11) 0.76795(10)
C10A C 0.97919(17) 0.42029(17) 0.60336(16)
F8A F 1.11093(10) 0.40737(10) 0.61013(10)
C11A C 0.86010(17) 0.32465(16) 0.51484(15)
F9A F 0.87488(10) 0.21770(9) 0.43420(9)
C12A C 0.72587(16) 0.34038(15) 0.50983(14)
F10A F 0.61293(9) 0.23765(9) 0.42096(9)
C13 C 0.19251(17) -0.00089(16) 0.33354(16)
N1 N 0.24352(15) 0.05776(13) 0.23459(13)
H1 H 0.171(2) 0.0867(18) 0.2091(18)
C14 C 0.06366(18) -0.13089(17) 0.27184(17)
H2 H 0.0404 -0.1715 0.3385
H3 H -0.0224 -0.1111 0.2362
C15 C 0.09520(19) -0.22928(17) 0.16549(18)
H4 H 0.1777 -0.2537 0.201
H5 H 0.0092 -0.3109 0.1271
C16 C 0.1320(2) -0.16669(18) 0.06373(18)
H6 H 0.0448 -0.1518 0.0227
H7 H 0.1566 -0.2298 -0.0032
C17 C 0.25883(18) -0.03422(17) 0.11496(16)
C18 C 0.31691(18) -0.02429(16) 0.41368(16)
H8 H 0.331 -0.1055 0.3651
H9 H 0.2929 -0.0335 0.4936
H10 H 0.4064 0.0511 0.4335
C19 C 0.14478(19) 0.10274(17) 0.42045(17)
H11 H 0.2255 0.1871 0.4558
H12 H 0.116 0.0725 0.4907
H13 H 0.0623 0.1151 0.3706
C20 C 0.40472(19) -0.05678(18) 0.14055(17)
H14 H 0.4825 0.0288 0.1829
H15 H 0.4226 -0.1013 0.0591
H16 H 0.4024 -0.1123 0.196
C21 C 0.2574(2) 0.0370(2) 0.01502(17)
H17 H 0.1684 0.0596 0.0038
H18 H 0.2608 -0.0212 -0.0668
H19 H 0.3421 0.1183 0.044
Li1 Li 0.4136(3) 0.2365(3) 0.3312(3)
loop_
_geom_bond_atom_site_label_1
_geom_bond_atom_site_label_2
_geom_bond_site_symmetry_1
_geom_bond_site_symmetry_2
B1 O1 1_555 1_555
O1 B1A 1_555 1_555
C1 B1 1_555 1_555
C2 C1 1_555 1_555
F1 C2 1_555 1_555
C3 C2 1_555 1_555
F2 C3 1_555 1_555
C4 C3 1_555 1_555
F3 C4 1_555 1_555
C5 C4 1_555 1_555
F4 C5 1_555 1_555
C6 C1 1_555 1_555
F5 C6 1_555 1_555
C7 B1 1_555 1_555
C8 C7 1_555 1_555
F6 C8 1_555 1_555
C9 C8 1_555 1_555
F7 C9 1_555 1_555
C10 C9 1_555 1_555
F8 C10 1_555 1_555
C11 C10 1_555 1_555
F9 C11 1_555 1_555
C12 C7 1_555 1_555
F10 C12 1_555 1_555
C13 N1 1_555 1_555
N1 H1 1_555 1_555
C14 C13 1_555 1_555
H2 C14 1_555 1_555
H3 C14 1_555 1_555
C15 C14 1_555 1_555
H4 C15 1_555 1_555
H5 C15 1_555 1_555
C16 C15 1_555 1_555
H6 C16 1_555 1_555
H7 C16 1_555 1_555
C17 N1 1_555 1_555
C18 C13 1_555 1_555
H8 C18 1_555 1_555
H9 C18 1_555 1_555
H10 C18 1_555 1_555
C19 C13 1_555 1_555
H11 C19 1_555 1_555
H12 C19 1_555 1_555
H13 C19 1_555 1_555
C20 C17 1_555 1_555
H14 C20 1_555 1_555
H15 C20 1_555 1_555
H16 C20 1_555 1_555
C21 C17 1_555 1_555
H17 C21 1_555 1_555
H18 C21 1_555 1_555
H19 C21 1_555 1_555
B1A O1A 1_555 1_555
O1A B1 1_555 1_555
C1A B1A 1_555 1_555
C2A C1A 1_555 1_555
F1A C2A 1_555 1_555
C3A C2A 1_555 1_555
F2A C3A 1_555 1_555
C4A C3A 1_555 1_555
F3A C4A 1_555 1_555
C5A C4A 1_555 1_555
F4A C5A 1_555 1_555
C6A C1A 1_555 1_555
F5A C6A 1_555 1_555
C7A B1A 1_555 1_555
C8A C7A 1_555 1_555
F6A C8A 1_555 1_555
C9A C8A 1_555 1_555
F7A C9A 1_555 1_555
C10A C9A 1_555 1_555
F8A C10A 1_555 1_555
C11A C10A 1_555 1_555
F9A C11A 1_555 1_555
C12A C7A 1_555 1_555
F10A C12A 1_555 1_555
C5 C6 1_555 1_555
C11 C12 1_555 1_555
C16 C17 1_555 1_555
C5A C6A 1_555 1_555
C11A C12A 1_555 1_555

#END
