
#######################################################################
#
#                 Cambridge Crystallographic Data Centre
#                                CCDC 
#
#######################################################################
#
# If this CIF has been generated from an entry in the Cambridge 
# Structural Database, then it will include bibliographic, chemical, 
# crystal, experimental, refinement or atomic coordinate data resulting 
# from the CCDC's data processing and validation procedures.
#
#######################################################################

data_FEBPUA
_chemical_formula_moiety         'C25 H21 N1 O3 S1'
_chemical_name_systematic        
9-[(4-methylphenyl)sulfonyl]-9a-phenyl-4,4a,9,9a-tetrahydro-3H-carbazol-3-one
_symmetry_cell_setting           orthorhombic
_symmetry_space_group_name_H-M   'P 21 21 21'
_symmetry_Int_Tables_number      19
_space_group_name_Hall           'P 2ac 2ab'
loop_
_symmetry_equiv_pos_site_id
_symmetry_equiv_pos_as_xyz
1 x,y,z
2 1/2-x,-y,1/2+z
3 1/2+x,1/2-y,-z
4 -x,1/2+y,1/2-z
_cell_length_a                   9.3259(5)
_cell_length_b                   19.0277(11)
_cell_length_c                   23.1597(9)
_cell_angle_alpha                90
_cell_angle_beta                 90
_cell_angle_gamma                90
_cell_volume                     4109.7
_exptl_crystal_colour            'light colorless'
_exptl_crystal_description       block
_cell_formula_units_Z            8
loop_
_atom_site_label
_atom_site_type_symbol
_atom_site_fract_x
_atom_site_fract_y
_atom_site_fract_z
S1 S -0.2501(2) -0.13218(9) -0.09075(7)
O1 O -0.2745(5) -0.1677(2) -0.03728(16)
O2 O -0.1476(5) -0.0756(2) -0.09257(19)
O3 O 0.2754(6) -0.3317(4) -0.1674(2)
N1 N -0.2055(6) -0.1947(3) -0.13777(18)
C1 C -0.1485(7) -0.1764(4) -0.1932(2)
C2 C -0.1514(7) -0.1131(4) -0.2224(3)
H1 H -0.1923 -0.0734 -0.2056
C3 C -0.0922(8) -0.1099(4) -0.2769(3)
H2 H -0.0923 -0.0675 -0.2969
C4 C -0.0330(8) -0.1687(4) -0.3022(3)
H3 H 0.0052 -0.1657 -0.3392
C5 C -0.0299(7) -0.2326(4) -0.2728(3)
H4 H 0.0098 -0.2724 -0.2899
C6 C -0.0871(7) -0.2358(4) -0.2178(2)
C7 C -0.1042(7) -0.2974(3) -0.1775(2)
H5 H -0.1895 -0.3240 -0.1891
C8 C 0.0232(8) -0.3476(4) -0.1757(3)
H6 H -0.0026 -0.3885 -0.1530
H7 H 0.0441 -0.3633 -0.2146
C9 C 0.1539(9) -0.3153(4) -0.1507(3)
C10 C 0.1331(8) -0.2658(4) -0.1032(3)
H8 H 0.2128 -0.2497 -0.0830
C11 C 0.0042(8) -0.2432(3) -0.0880(3)
H9 H -0.0015 -0.2131 -0.0565
C12 C -0.1341(7) -0.2625(3) -0.1178(2)
C13 C -0.2304(8) -0.3080(3) -0.0811(3)
C14 C -0.4548(9) -0.3696(4) -0.0678(3)
H10 H -0.5470 -0.3798 -0.0805
C15 C -0.3678(7) -0.3250(3) -0.0995(3)
H11 H -0.4021 -0.3061 -0.1338
C16 C -0.4046(9) -0.3986(4) -0.0175(3)
H12 H -0.4620 -0.4290 0.0037
C17 C -0.2700(10) -0.3823(4) 0.0010(3)
H13 H -0.2365 -0.4019 0.0352
C18 C -0.1818(7) -0.3374(3) -0.0298(2)
H14 H -0.0904 -0.3269 -0.0163
C19 C -0.4133(8) -0.0988(4) -0.1177(3)
C20 C -0.4374(9) -0.0281(4) -0.1141(3)
H15 H -0.3643 0.0017 -0.1019
C21 C -0.5695(9) -0.0006(4) -0.1284(3)
H16 H -0.5858 0.0473 -0.1240
C22 C -0.6784(9) -0.0432(5) -0.1493(3)
C23 C -0.6507(8) -0.1140(5) -0.1537(3)
H17 H -0.7216 -0.1437 -0.1679
C24 C -0.5197(8) -0.1422(4) -0.1376(3)
H18 H -0.5040 -0.1904 -0.1402
C25 C -0.8254(9) -0.0143(5) -0.1624(4)
H19 H -0.8890 -0.0248 -0.1310
H20 H -0.8613 -0.0354 -0.1972
H21 H -0.8195 0.0357 -0.1674
S2 S 0.30095(19) -0.16599(10) -0.46324(7)
O4 O 0.4192(5) -0.1179(3) -0.46653(18)
O5 O 0.2847(5) -0.2199(2) -0.50620(15)
O6 O 0.6937(6) -0.3496(3) -0.28716(19)
N2 N 0.3114(6) -0.2045(3) -0.39914(19)
C26 C 0.2506(7) -0.2719(3) -0.3865(2)
C27 C 0.1536(8) -0.3110(4) -0.4178(3)
H22 H 0.1179 -0.2946 -0.4528
C28 C 0.1102(8) -0.3756(4) -0.3958(3)
H23 H 0.0447 -0.4029 -0.4162
C29 C 0.1642(8) -0.3995(4) -0.3438(3)
H24 H 0.1366 -0.4433 -0.3299
C30 C 0.2584(7) -0.3592(4) -0.3122(3)
H25 H 0.2935 -0.3753 -0.2770
C31 C 0.3000(7) -0.2946(3) -0.3334(2)
C32 C 0.5166(8) -0.2621(4) -0.2697(2)
H26 H 0.5611 -0.2218 -0.2514
H27 H 0.4832 -0.2934 -0.2395
C33 C 0.3884(7) -0.2374(3) -0.3054(2)
H28 H 0.3253 -0.2099 -0.2802
C34 C 0.6267(8) -0.2998(4) -0.3056(3)
C35 C 0.6515(7) -0.2697(4) -0.3629(2)
H29 H 0.7277 -0.2863 -0.3849
C36 C 0.5688(7) -0.2195(4) -0.3845(3)
H30 H 0.5966 -0.2002 -0.4196
C37 C 0.4330(7) -0.1906(3) -0.3572(2)
C38 C 0.4438(8) -0.1143(3) -0.3391(2)
C39 C 0.3221(9) -0.0775(4) -0.3245(3)
H31 H 0.2328 -0.0988 -0.3279
C40 C 0.3316(10) -0.0088(4) -0.3046(3)
H32 H 0.2487 0.0158 -0.2951
C41 C 0.4631(11) 0.0230(4) -0.2989(3)
H33 H 0.4691 0.0690 -0.2856
C42 C 0.5839(10) -0.0126(4) -0.3127(4)
H34 H 0.6731 0.0087 -0.3086
C43 C 0.5741(9) -0.0813(4) -0.3331(3)
H35 H 0.6575 -0.1053 -0.3428
C44 C 0.1403(7) -0.1169(3) -0.4614(3)
C45 C 0.0126(8) -0.1483(4) -0.4746(3)
H36 H 0.0102 -0.1955 -0.4850
C46 C -0.1126(9) -0.1099(4) -0.4726(3)
H37 H -0.1993 -0.1318 -0.4809
C47 C -0.1110(9) -0.0395(4) -0.4586(3)
C48 C 0.0186(10) -0.0089(4) -0.4461(3)
H38 H 0.0217 0.0385 -0.4366
C49 C 0.1446(9) -0.0472(4) -0.4472(3)
H39 H 0.2314 -0.0257 -0.4384
C50 C -0.2495(10) 0.0024(4) -0.4574(3)
H40 H -0.2756 0.0121 -0.4181
H41 H -0.3244 -0.0243 -0.4756
H42 H -0.2362 0.0458 -0.4778
loop_
_geom_bond_atom_site_label_1
_geom_bond_atom_site_label_2
_geom_bond_site_symmetry_1
_geom_bond_site_symmetry_2
S1 O1 1_555 1_555
O2 S1 1_555 1_555
O3 C9 1_555 1_555
N1 S1 1_555 1_555
C1 N1 1_555 1_555
C2 C1 1_555 1_555
H1 C2 1_555 1_555
C3 C2 1_555 1_555
H2 C3 1_555 1_555
C4 C3 1_555 1_555
H3 C4 1_555 1_555
C5 C4 1_555 1_555
H4 C5 1_555 1_555
C6 C1 1_555 1_555
C7 C6 1_555 1_555
H5 C7 1_555 1_555
C8 C7 1_555 1_555
H6 C8 1_555 1_555
H7 C8 1_555 1_555
C9 C8 1_555 1_555
C10 C9 1_555 1_555
H8 C10 1_555 1_555
C11 C10 1_555 1_555
H9 C11 1_555 1_555
C12 N1 1_555 1_555
C13 C12 1_555 1_555
C14 H10 1_555 1_555
C15 C13 1_555 1_555
H11 C15 1_555 1_555
C16 C14 1_555 1_555
H12 C16 1_555 1_555
C17 C16 1_555 1_555
H13 C17 1_555 1_555
C18 C13 1_555 1_555
H14 C18 1_555 1_555
C19 S1 1_555 1_555
C20 C19 1_555 1_555
H15 C20 1_555 1_555
C21 C20 1_555 1_555
H16 C21 1_555 1_555
C22 C21 1_555 1_555
C23 C22 1_555 1_555
H17 C23 1_555 1_555
C24 C19 1_555 1_555
H18 C24 1_555 1_555
C25 C22 1_555 1_555
H19 C25 1_555 1_555
H20 C25 1_555 1_555
H21 C25 1_555 1_555
S2 O4 1_555 1_555
O5 S2 1_555 1_555
O6 C34 1_555 1_555
N2 S2 1_555 1_555
C26 N2 1_555 1_555
C27 C26 1_555 1_555
H22 C27 1_555 1_555
C28 C27 1_555 1_555
H23 C28 1_555 1_555
C29 C28 1_555 1_555
H24 C29 1_555 1_555
C30 C29 1_555 1_555
H25 C30 1_555 1_555
C31 C26 1_555 1_555
C32 H26 1_555 1_555
H27 C32 1_555 1_555
C33 C31 1_555 1_555
H28 C33 1_555 1_555
C34 C32 1_555 1_555
C35 C34 1_555 1_555
H29 C35 1_555 1_555
C36 C35 1_555 1_555
H30 C36 1_555 1_555
C37 N2 1_555 1_555
C38 C37 1_555 1_555
C39 C38 1_555 1_555
H31 C39 1_555 1_555
C40 C39 1_555 1_555
H32 C40 1_555 1_555
C41 C40 1_555 1_555
H33 C41 1_555 1_555
C42 C41 1_555 1_555
H34 C42 1_555 1_555
C43 C38 1_555 1_555
H35 C43 1_555 1_555
C44 S2 1_555 1_555
C45 C44 1_555 1_555
H36 C45 1_555 1_555
C46 C45 1_555 1_555
H37 C46 1_555 1_555
C47 C46 1_555 1_555
C48 C47 1_555 1_555
H38 C48 1_555 1_555
C49 C44 1_555 1_555
H39 C49 1_555 1_555
C50 C47 1_555 1_555
H40 C50 1_555 1_555
H41 C50 1_555 1_555
H42 C50 1_555 1_555
C5 C6 1_555 1_555
C7 C12 1_555 1_555
C11 C12 1_555 1_555
C14 C15 1_555 1_555
C17 C18 1_555 1_555
C23 C24 1_555 1_555
C30 C31 1_555 1_555
C32 C33 1_555 1_555
C33 C37 1_555 1_555
C36 C37 1_555 1_555
C42 C43 1_555 1_555
C48 C49 1_555 1_555

#END
