
#######################################################################
#
#                 Cambridge Crystallographic Data Centre
#                                CCDC 
#
#######################################################################
#
# If this CIF has been generated from an entry in the Cambridge 
# Structural Database, then it will include bibliographic, chemical, 
# crystal, experimental, refinement or atomic coordinate data resulting 
# from the CCDC's data processing and validation procedures.
#
#######################################################################

data_FEBPEK
_chemical_formula_moiety         'C28 H15 B1 Cl1 F10 O1 1-,C9 H19 N1,Li1 1+'
_chemical_name_systematic        
'lithium 4-(4-chlorophenyl)-2,2-bis(pentafluorophenyl)-3-(2-phenylethyl)-1,2-oxaboretan-2-ide 2,2,6,6-tetramethylpiperidine'
_symmetry_cell_setting           triclinic
_symmetry_space_group_name_H-M   'P -1'
_symmetry_Int_Tables_number      2
_space_group_name_Hall           '-P 1'
loop_
_symmetry_equiv_pos_site_id
_symmetry_equiv_pos_as_xyz
1 x,y,z
2 -x,-y,-z
_cell_length_a                   10.1977(3)
_cell_length_b                   13.1232(5)
_cell_length_c                   13.9306(5)
_cell_angle_alpha                95.042(2)
_cell_angle_beta                 90.491(2)
_cell_angle_gamma                109.468(2)
_cell_volume                     1749.47
_exptl_crystal_colour            colorless
_exptl_crystal_description       prism
_cell_formula_units_Z            2
loop_
_atom_site_label
_atom_site_type_symbol
_atom_site_fract_x
_atom_site_fract_y
_atom_site_fract_z
Li1 Li 0.6031(7) -0.2652(5) -0.2379(5)
O1 O 0.5164(3) -0.18364(19) -0.29541(19)
C1 C 0.3356(4) 0.0549(3) -0.3861(3)
H1 H 0.4226 0.0968 -0.3484
H2 H 0.3562 0.0589 -0.4552
C2 C 0.2940(4) -0.0646(3) -0.3645(3)
H3 H 0.2794 -0.0693 -0.2946
H4 H 0.2052 -0.1070 -0.3997
C3 C 0.4050(4) -0.1135(3) -0.3940(3)
H5 H 0.4282 -0.1019 -0.4627
C4 C 0.5415(4) -0.0775(3) -0.3293(3)
H6 H 0.6237 -0.0605 -0.3712
C5 C 0.2292(4) 0.1087(3) -0.3640(3)
C6 C 0.2201(4) 0.1555(3) -0.2726(3)
H7 H 0.2803 0.1511 -0.2219
C7 C 0.1248(5) 0.2086(4) -0.2534(4)
H8 H 0.1195 0.2394 -0.1898
C8 C 0.0385(5) 0.2168(4) -0.3258(4)
H9 H -0.0250 0.2550 -0.3134
C9 C 0.0447(5) 0.1694(4) -0.4159(4)
H10 H -0.0168 0.1730 -0.4661
C10 C 0.1392(4) 0.1162(3) -0.4351(3)
H11 H 0.1421 0.0841 -0.4986
C11 C 0.5684(4) 0.0092(3) -0.2469(3)
C12 C 0.6773(4) 0.1059(3) -0.2512(3)
H12 H 0.7338 0.1152 -0.3058
C13 C 0.7054(5) 0.1891(3) -0.1775(4)
H13 H 0.7808 0.2548 -0.1813
C14 C 0.6241(5) 0.1758(3) -0.0999(3)
C15 C 0.5148(5) 0.0811(4) -0.0917(3)
H14 H 0.4583 0.0733 -0.0371
C16 C 0.4892(4) -0.0031(3) -0.1657(3)
H15 H 0.4164 -0.0698 -0.1602
Cl1 Cl 0.66121(15) 0.28038(12) -0.00657(11)
B1 B 0.3993(4) -0.2362(3) -0.3722(3)
C17 C 0.2672(4) -0.3245(3) -0.3263(3)
F1 F 0.4124(2) -0.36227(18) -0.20872(16)
C18 C 0.2825(4) -0.3807(3) -0.2500(3)
F2 F 0.2025(3) -0.5110(2) -0.13715(19)
C19 C 0.1769(5) -0.4595(3) -0.2109(3)
F3 F -0.0612(3) -0.5626(2) -0.2119(2)
C20 C 0.0442(5) -0.4865(3) -0.2485(4)
F4 F -0.1093(3) -0.4582(2) -0.3617(3)
C21 C 0.0215(4) -0.4328(4) -0.3246(4)
F5 F 0.1001(3) -0.3084(2) -0.4371(2)
C22 C 0.1306(4) -0.3556(3) -0.3618(3)
C23 C 0.4544(4) -0.2978(3) -0.4633(3)
F6 F 0.6109(2) -0.34856(18) -0.36589(16)
C24 C 0.5579(4) -0.3431(3) -0.4560(3)
F7 F 0.7159(2) -0.42764(19) -0.51759(19)
C25 C 0.6134(4) -0.3864(3) -0.5316(3)
F8 F 0.6126(3) -0.4310(2) -0.69923(19)
C26 C 0.5617(5) -0.3888(3) -0.6231(3)
F9 F 0.4059(3) -0.3489(2) -0.72610(19)
C27 C 0.4563(5) -0.3471(3) -0.6360(3)
F10 F 0.3015(3) -0.2644(2) -0.57656(18)
C28 C 0.4054(4) -0.3039(3) -0.5577(3)
N1 N 0.7857(3) -0.2630(3) -0.1765(3)
H16 H 0.810(4) -0.303(3) -0.213(3)
C29 C 0.7797(4) -0.3179(3) -0.0851(3)
C30 C 0.9266(5) -0.3085(4) -0.0494(3)
H17 H 0.9215 -0.3353 0.0152
H18 H 0.9625 -0.3553 -0.0938
C31 C 1.0276(5) -0.1921(4) -0.0435(4)
H19 H 0.9954 -0.1456 0.0038
H20 H 1.1210 -0.1900 -0.0212
C32 C 1.0361(4) -0.1494(4) -0.1418(4)
H21 H 1.0747 -0.1932 -0.1874
H22 H 1.1007 -0.0735 -0.1368
C33 C 0.8939(4) -0.1529(3) -0.1822(3)
C34 C 0.7053(5) -0.2708(5) -0.0084(3)
H23 H 0.7658 -0.1979 0.0165
H24 H 0.6829 -0.3176 0.0445
H25 H 0.6192 -0.2665 -0.0367
C35 C 0.6945(5) -0.4360(4) -0.1120(4)
H26 H 0.5999 -0.4417 -0.1324
H27 H 0.6907 -0.4770 -0.0560
H28 H 0.7377 -0.4657 -0.1650
C36 C 0.9037(5) -0.1352(4) -0.2887(4)
H29 H 0.9294 -0.1933 -0.3240
H30 H 0.9746 -0.0649 -0.2967
H31 H 0.8134 -0.1360 -0.3141
C37 C 0.8479(5) -0.0648(4) -0.1288(4)
H32 H 0.7490 -0.0790 -0.1439
H33 H 0.9027 0.0062 -0.1490
H34 H 0.8624 -0.0648 -0.0591
loop_
_geom_bond_atom_site_label_1
_geom_bond_atom_site_label_2
_geom_bond_site_symmetry_1
_geom_bond_site_symmetry_2
O1 C4 1_555 1_555
C1 H1 1_555 1_555
H2 C1 1_555 1_555
C2 C1 1_555 1_555
H3 C2 1_555 1_555
H4 C2 1_555 1_555
C3 C2 1_555 1_555
H5 C3 1_555 1_555
C4 C3 1_555 1_555
H6 C4 1_555 1_555
C5 C1 1_555 1_555
C6 C5 1_555 1_555
H7 C6 1_555 1_555
C7 C6 1_555 1_555
H8 C7 1_555 1_555
C8 C7 1_555 1_555
H9 C8 1_555 1_555
C9 C8 1_555 1_555
H10 C9 1_555 1_555
C10 C5 1_555 1_555
H11 C10 1_555 1_555
C11 C4 1_555 1_555
C12 C11 1_555 1_555
H12 C12 1_555 1_555
C13 C12 1_555 1_555
H13 C13 1_555 1_555
C14 C13 1_555 1_555
C15 C14 1_555 1_555
H14 C15 1_555 1_555
C16 C11 1_555 1_555
H15 C16 1_555 1_555
Cl1 C14 1_555 1_555
B1 O1 1_555 1_555
C17 B1 1_555 1_555
F1 C18 1_555 1_555
C18 C17 1_555 1_555
F2 C19 1_555 1_555
C19 C18 1_555 1_555
F3 C20 1_555 1_555
C20 C19 1_555 1_555
F4 C21 1_555 1_555
C21 C20 1_555 1_555
F5 C22 1_555 1_555
C22 C17 1_555 1_555
C23 B1 1_555 1_555
F6 C24 1_555 1_555
C24 C23 1_555 1_555
F7 C25 1_555 1_555
C25 C24 1_555 1_555
F8 C26 1_555 1_555
C26 C25 1_555 1_555
F9 C27 1_555 1_555
C27 C26 1_555 1_555
F10 C28 1_555 1_555
C28 C23 1_555 1_555
N1 H16 1_555 1_555
C29 N1 1_555 1_555
C30 C29 1_555 1_555
H17 C30 1_555 1_555
H18 C30 1_555 1_555
C31 C30 1_555 1_555
H19 C31 1_555 1_555
H20 C31 1_555 1_555
C32 C31 1_555 1_555
H21 C32 1_555 1_555
H22 C32 1_555 1_555
C33 N1 1_555 1_555
C34 C29 1_555 1_555
H23 C34 1_555 1_555
H24 C34 1_555 1_555
H25 C34 1_555 1_555
C35 C29 1_555 1_555
H26 C35 1_555 1_555
H27 C35 1_555 1_555
H28 C35 1_555 1_555
C36 C33 1_555 1_555
H29 C36 1_555 1_555
H30 C36 1_555 1_555
H31 C36 1_555 1_555
C37 C33 1_555 1_555
H32 C37 1_555 1_555
H33 C37 1_555 1_555
H34 C37 1_555 1_555
C3 B1 1_555 1_555
C9 C10 1_555 1_555
C15 C16 1_555 1_555
C21 C22 1_555 1_555
C27 C28 1_555 1_555
C32 C33 1_555 1_555

#END
