
#######################################################################
#
#                 Cambridge Crystallographic Data Centre
#                                CCDC 
#
#######################################################################
#
# If this CIF has been generated from an entry in the Cambridge 
# Structural Database, then it will include bibliographic, chemical, 
# crystal, experimental, refinement or atomic coordinate data resulting 
# from the CCDC's data processing and validation procedures.
#
#######################################################################

data_FEBQOU
_chemical_name_common            
'tetrakis(4-(Pyridin-4-yl)phenyl)ethylene methanol solvate'
_chemical_formula_moiety         'C46 H32 N4,4(C1 H4 O1)'
_chemical_name_systematic        
"4,4',4'',4'''-(Ethene-1,1,2,2-tetrayltetra-4,1-phenylene)tetrapyridine methanol solvate"
_symmetry_cell_setting           monoclinic
_symmetry_space_group_name_H-M   'P 21/c'
_symmetry_Int_Tables_number      14
_space_group_name_Hall           '-P 2ybc'
loop_
_symmetry_equiv_pos_site_id
_symmetry_equiv_pos_as_xyz
1 x,y,z
2 -x,1/2+y,1/2-z
3 -x,-y,-z
4 x,1/2-y,1/2+z
_cell_length_a                   13.118(3)
_cell_length_b                   9.4837(19)
_cell_length_c                   34.086(7)
_cell_angle_alpha                90
_cell_angle_beta                 91.080(4)
_cell_angle_gamma                90
_cell_volume                     4239.79
_exptl_crystal_colour            colorless
_exptl_crystal_description       plate
_cell_formula_units_Z            4
_exptl_crystal_recrystallization_method dichloromethane/methanol
loop_
_atom_site_label
_atom_site_type_symbol
_atom_site_fract_x
_atom_site_fract_y
_atom_site_fract_z
O1 O 0.2421(3) -0.0588(4) 0.63191(9)
H1 H 0.2486 -0.1165 0.6134
C1 C 0.1665(4) 0.0342(6) 0.62274(14)
H2 H 0.1865 0.0912 0.6002
H3 H 0.1546 0.0959 0.6453
H4 H 0.1038 -0.0176 0.6162
O2 O 0.3093(3) 0.2318(5) 0.51115(9)
H5 H 0.3226 0.2007 0.4887
C2 C 0.3838(4) 0.1914(7) 0.53710(14)
H6 H 0.4260 0.1184 0.5252
H7 H 0.3526 0.1539 0.5608
H8 H 0.4263 0.2730 0.5440
N1 N 1.20411(16) 0.1579(3) 0.72793(7)
N2 N 0.3686(2) 0.3404(3) 0.93667(7)
N3 N -0.09872(19) 0.7048(3) 0.63870(9)
N4 N 0.7503(2) 0.2338(4) 0.43549(8)
C3 C 0.51828(18) 0.4005(3) 0.66494(8)
C4 C 0.56953(18) 0.3751(3) 0.69899(8)
C5 C 0.67912(18) 0.3322(3) 0.69960(8)
C6 C 0.75521(19) 0.4136(3) 0.68266(8)
H9 H 0.7370 0.4968 0.6686
C7 C 0.85675(19) 0.3750(3) 0.68596(8)
H10 H 0.9071 0.4328 0.6744
C8 C 0.88673(18) 0.2535(3) 0.70586(8)
C9 C 0.81062(19) 0.1694(3) 0.72168(8)
H11 H 0.8287 0.0840 0.7346
C10 C 0.70888(19) 0.2087(3) 0.71880(8)
H12 H 0.6585 0.1504 0.7301
C11 C 0.99628(18) 0.2189(3) 0.71223(8)
C12 C 1.06964(19) 0.3246(3) 0.71511(8)
H13 H 1.0505 0.4206 0.7117
C13 C 1.17073(19) 0.2897(3) 0.72291(8)
H14 H 1.2191 0.3641 0.7248
C14 C 1.1335(2) 0.0578(3) 0.72457(9)
H15 H 1.1551 -0.0373 0.7276
C15 C 1.0315(2) 0.0817(3) 0.71696(9)
H16 H 0.9853 0.0047 0.7150
C16 C 0.52460(18) 0.3841(3) 0.73857(8)
C17 C 0.57877(18) 0.4540(3) 0.76864(8)
H17 H 0.6402 0.5019 0.7627
C18 C 0.54477(19) 0.4547(3) 0.80638(8)
H18 H 0.5822 0.5044 0.8261
C19 C 0.45548(18) 0.3828(3) 0.81625(8)
C20 C 0.40056(18) 0.3159(3) 0.78613(8)
H19 H 0.3387 0.2690 0.7920
C21 C 0.43447(18) 0.3167(3) 0.74800(8)
H20 H 0.3956 0.2706 0.7280
C22 C 0.42503(19) 0.3709(3) 0.85765(8)
C23 C 0.4969(2) 0.3764(3) 0.88822(8)
H21 H 0.5669 0.3906 0.8828
C24 C 0.4656(2) 0.3611(3) 0.92653(9)
H22 H 0.5160 0.3657 0.9469
C25 C 0.3002(2) 0.3359(3) 0.90708(9)
H23 H 0.2307 0.3216 0.9133
C26 C 0.3241(2) 0.3508(3) 0.86823(9)
H24 H 0.2718 0.3474 0.8486
C27 C 0.41077(19) 0.4536(3) 0.66274(7)
C28 C 0.38155(19) 0.5793(3) 0.68055(8)
H25 H 0.4293 0.6300 0.6964
C29 C 0.28327(19) 0.6310(3) 0.67523(8)
H26 H 0.2650 0.7176 0.6872
C30 C 0.21107(19) 0.5587(3) 0.65278(8)
C31 C 0.2401(2) 0.4317(3) 0.63562(8)
H27 H 0.1917 0.3793 0.6205
C32 C 0.33817(19) 0.3812(3) 0.64030(8)
H28 H 0.3565 0.2953 0.6279
C33 C 0.1053(2) 0.6123(3) 0.64745(8)
C34 C 0.0573(2) 0.6883(3) 0.67657(9)
H29 H 0.0932 0.7118 0.7001
C35 C -0.0432(2) 0.7298(3) 0.67109(11)
H30 H -0.0746 0.7795 0.6918
C36 C -0.0518(2) 0.6344(5) 0.61097(11)
H31 H -0.0890 0.6157 0.5874
C37 C 0.0482(2) 0.5854(4) 0.61366(9)
H32 H 0.0768 0.5342 0.5926
C38 C 0.56406(19) 0.3750(3) 0.62622(8)
C39 C 0.5665(2) 0.4812(3) 0.59807(8)
H33 H 0.5392 0.5713 0.6041
C40 C 0.6076(2) 0.4582(3) 0.56157(9)
H34 H 0.6097 0.5332 0.5431
C41 C 0.6458(2) 0.3273(3) 0.55165(8)
C42 C 0.6439(2) 0.2213(3) 0.57993(8)
H35 H 0.6704 0.1308 0.5739
C43 C 0.6045(2) 0.2451(3) 0.61620(8)
H36 H 0.6048 0.1709 0.6349
C44 C 0.6846(2) 0.2983(3) 0.51162(9)
C45 C 0.6548(3) 0.3760(4) 0.47947(10)
H37 H 0.6106 0.4544 0.4825
C46 C 0.6890(3) 0.3403(4) 0.44264(11)
H38 H 0.6667 0.3964 0.4210
C47 C 0.7784(4) 0.1600(6) 0.46636(12)
H39 H 0.8223 0.0818 0.4624
C48 C 0.7490(4) 0.1879(6) 0.50412(12)
H40 H 0.7734 0.1304 0.5251
loop_
_geom_bond_atom_site_label_1
_geom_bond_atom_site_label_2
_geom_bond_site_symmetry_1
_geom_bond_site_symmetry_2
O1 H1 1_555 1_555
C1 O1 1_555 1_555
H2 C1 1_555 1_555
H3 C1 1_555 1_555
H4 C1 1_555 1_555
O2 H5 1_555 1_555
C2 O2 1_555 1_555
H6 C2 1_555 1_555
H7 C2 1_555 1_555
H8 C2 1_555 1_555
N1 C13 1_555 1_555
N2 C24 1_555 1_555
N3 C35 1_555 1_555
N4 C46 1_555 1_555
C3 C4 1_555 1_555
C4 C5 1_555 1_555
C5 C6 1_555 1_555
C6 H9 1_555 1_555
C7 C6 1_555 1_555
H10 C7 1_555 1_555
C8 C7 1_555 1_555
C9 C8 1_555 1_555
H11 C9 1_555 1_555
C10 C5 1_555 1_555
H12 C10 1_555 1_555
C11 C8 1_555 1_555
C12 C11 1_555 1_555
H13 C12 1_555 1_555
C13 C12 1_555 1_555
H14 C13 1_555 1_555
C14 N1 1_555 1_555
H15 C14 1_555 1_555
C15 C11 1_555 1_555
H16 C15 1_555 1_555
C16 C4 1_555 1_555
C17 C16 1_555 1_555
H17 C17 1_555 1_555
C18 C17 1_555 1_555
H18 C18 1_555 1_555
C19 C18 1_555 1_555
C20 C19 1_555 1_555
H19 C20 1_555 1_555
C21 C16 1_555 1_555
H20 C21 1_555 1_555
C22 C19 1_555 1_555
C23 C22 1_555 1_555
H21 C23 1_555 1_555
C24 C23 1_555 1_555
H22 C24 1_555 1_555
C25 N2 1_555 1_555
H23 C25 1_555 1_555
C26 C22 1_555 1_555
H24 C26 1_555 1_555
C27 C3 1_555 1_555
C28 C27 1_555 1_555
H25 C28 1_555 1_555
C29 C28 1_555 1_555
H26 C29 1_555 1_555
C30 C29 1_555 1_555
C31 C30 1_555 1_555
H27 C31 1_555 1_555
C32 C27 1_555 1_555
H28 C32 1_555 1_555
C33 C30 1_555 1_555
C34 C33 1_555 1_555
H29 C34 1_555 1_555
C35 C34 1_555 1_555
H30 C35 1_555 1_555
C36 N3 1_555 1_555
H31 C36 1_555 1_555
C37 C33 1_555 1_555
H32 C37 1_555 1_555
C38 C3 1_555 1_555
C39 C38 1_555 1_555
H33 C39 1_555 1_555
C40 C39 1_555 1_555
H34 C40 1_555 1_555
C41 C40 1_555 1_555
C42 C41 1_555 1_555
H35 C42 1_555 1_555
C43 C38 1_555 1_555
H36 C43 1_555 1_555
C44 C41 1_555 1_555
C45 C44 1_555 1_555
H37 C45 1_555 1_555
C46 C45 1_555 1_555
H38 C46 1_555 1_555
C47 N4 1_555 1_555
H39 C47 1_555 1_555
C48 C44 1_555 1_555
H40 C48 1_555 1_555
C9 C10 1_555 1_555
C14 C15 1_555 1_555
C20 C21 1_555 1_555
C25 C26 1_555 1_555
C31 C32 1_555 1_555
C36 C37 1_555 1_555
C42 C43 1_555 1_555
C47 C48 1_555 1_555

#END
