
#######################################################################
#
#                 Cambridge Crystallographic Data Centre
#                                CCDC 
#
#######################################################################
#
# If this CIF has been generated from an entry in the Cambridge 
# Structural Database, then it will include bibliographic, chemical, 
# crystal, experimental, refinement or atomic coordinate data resulting 
# from the CCDC's data processing and validation procedures.
#
#######################################################################

data_FEBQEL
_chemical_formula_moiety         'C19 H22 N2'
_chemical_name_systematic        17,18-didehydroyohimban
_symmetry_cell_setting           monoclinic
_symmetry_space_group_name_H-M   'P 21'
_symmetry_Int_Tables_number      4
_space_group_name_Hall           'P 2yb'
loop_
_symmetry_equiv_pos_site_id
_symmetry_equiv_pos_as_xyz
1 x,y,z
2 -x,1/2+y,-z
_cell_length_a                   6.8230(19)
_cell_length_b                   7.936(2)
_cell_length_c                   14.340(4)
_cell_angle_alpha                90
_cell_angle_beta                 97.758(7)
_cell_angle_gamma                90
_cell_volume                     769.366
_exptl_crystal_colour            colorless
_exptl_crystal_description       prismatic
_cell_formula_units_Z            2
loop_
_atom_site_label
_atom_site_type_symbol
_atom_site_fract_x
_atom_site_fract_y
_atom_site_fract_z
N1 N 0.9270(5) 0.3832(4) 0.4574(2)
N2 N 0.5251(4) 0.5595(4) 0.2874(2)
C1 C 0.9495(6) 0.4235(4) 0.5518(3)
C2 C 1.0980(6) 0.3865(5) 0.6239(3)
H1 H 1.2080 0.3238 0.6133
C3 C 1.0774(8) 0.4455(6) 0.7117(3)
H2 H 1.1764 0.4231 0.7614
C4 C 0.9141(9) 0.5374(6) 0.7288(3)
H3 H 0.9041 0.5740 0.7896
C5 C 0.7667(7) 0.5750(5) 0.6573(3)
H4 H 0.6570 0.6369 0.6692
C6 C 0.7830(6) 0.5196(4) 0.5663(3)
C7 C 0.6623(5) 0.5346(4) 0.4779(3)
C8 C 0.4680(6) 0.6205(5) 0.4502(3)
H5 H 0.3789 0.5942 0.4955
H6 H 0.4872 0.7416 0.4501
C9 C 0.3794(5) 0.5633(5) 0.3544(3)
H7 H 0.3242 0.4514 0.3590
H8 H 0.2721 0.6386 0.3307
C10 C 0.6790(5) 0.4319(5) 0.3131(3)
H9 H 0.6184 0.3202 0.3033
C11 C 0.7532(5) 0.4509(4) 0.4143(3)
C12 C 0.8358(5) 0.4496(5) 0.2478(3)
H10 H 0.8945 0.5609 0.2550
H11 H 0.9396 0.3673 0.2649
C13 C 0.4304(5) 0.5312(6) 0.1928(3)
H12 H 0.3271 0.6146 0.1776
H13 H 0.3684 0.4209 0.1894
C14 C 0.5726(6) 0.5406(5) 0.1204(3)
H14 H 0.6238 0.6560 0.1208
C15 C 0.7475(5) 0.4234(5) 0.1464(3)
H15 H 0.6985 0.3073 0.1400
C16 C 0.9003(7) 0.4461(7) 0.0787(3)
H16 H 0.9746 0.5488 0.0946
H17 H 0.9925 0.3525 0.0860
C17 C 0.8064(8) 0.4551(8) -0.0210(3)
H18 H 0.8869 0.4427 -0.0680
C18 C 0.6173(9) 0.4796(7) -0.0464(4)
H19 H 0.5707 0.4824 -0.1104
C19 C 0.4722(8) 0.5032(7) 0.0214(3)
H20 H 0.3929 0.4019 0.0225
H21 H 0.3840 0.5954 0.0001
H22 H 1.003(6) 0.323(6) 0.435(3)
loop_
_geom_bond_atom_site_label_1
_geom_bond_atom_site_label_2
_geom_bond_site_symmetry_1
_geom_bond_site_symmetry_2
N1 C1 1_555 1_555
N2 C9 1_555 1_555
C1 C2 1_555 1_555
C2 H1 1_555 1_555
C3 C2 1_555 1_555
H2 C3 1_555 1_555
C4 C3 1_555 1_555
H3 C4 1_555 1_555
C5 C4 1_555 1_555
H4 C5 1_555 1_555
C6 C1 1_555 1_555
C7 C6 1_555 1_555
C8 C7 1_555 1_555
H5 C8 1_555 1_555
H6 C8 1_555 1_555
C9 C8 1_555 1_555
H7 C9 1_555 1_555
H8 C9 1_555 1_555
C10 N2 1_555 1_555
H9 C10 1_555 1_555
C11 N1 1_555 1_555
C12 C10 1_555 1_555
H10 C12 1_555 1_555
H11 C12 1_555 1_555
C13 N2 1_555 1_555
H12 C13 1_555 1_555
H13 C13 1_555 1_555
C14 C13 1_555 1_555
H14 C14 1_555 1_555
C15 C12 1_555 1_555
H15 C15 1_555 1_555
C16 C15 1_555 1_555
H16 C16 1_555 1_555
H17 C16 1_555 1_555
C17 C16 1_555 1_555
H18 C17 1_555 1_555
C18 C17 1_555 1_555
H19 C18 1_555 1_555
C19 C14 1_555 1_555
H20 C19 1_555 1_555
H21 C19 1_555 1_555
H22 N1 1_555 1_555
C5 C6 1_555 1_555
C7 C11 1_555 1_555
C10 C11 1_555 1_555
C14 C15 1_555 1_555
C18 C19 1_555 1_555

#END
