
#######################################################################
#
#                 Cambridge Crystallographic Data Centre
#                                CCDC 
#
#######################################################################
#
# If this CIF has been generated from an entry in the Cambridge 
# Structural Database, then it will include bibliographic, chemical, 
# crystal, experimental, refinement or atomic coordinate data resulting 
# from the CCDC's data processing and validation procedures.
#
#######################################################################

data_FEBQUB
_chemical_formula_moiety         'C57 H48 N4 O4'
_chemical_name_systematic        
tetrakis((4-((phenylimino)methyl)phenoxy)methyl)methane
_symmetry_cell_setting           triclinic
_symmetry_space_group_name_H-M   'P -1'
_symmetry_Int_Tables_number      2
_space_group_name_Hall           '-P 1'
loop_
_symmetry_equiv_pos_site_id
_symmetry_equiv_pos_as_xyz
1 x,y,z
2 -x,-y,-z
_cell_length_a                   21.1700(16)
_cell_length_b                   22.5739(14)
_cell_length_c                   24.0674(16)
_cell_angle_alpha                62.949(2)
_cell_angle_beta                 71.882(2)
_cell_angle_gamma                67.422(2)
_cell_volume                     9327.29
_exptl_crystal_description       plate
_cell_formula_units_Z            8
loop_
_atom_site_label
_atom_site_type_symbol
_atom_site_fract_x
_atom_site_fract_y
_atom_site_fract_z
C1 C 0.8196(3) 0.3373(3) 0.2915(3)
C2 C 0.8169(3) 0.3413(3) 0.2272(3)
H1 H 0.7949 0.3897 0.2005
H2 H 0.8644 0.3259 0.2052
C3 C 0.7488(3) 0.3696(3) 0.3228(3)
H3 H 0.7158 0.3444 0.3302
H4 H 0.7521 0.3669 0.3641
C4 C 0.8699(3) 0.3770(3) 0.2800(3)
H5 H 0.8569 0.4239 0.2468
H6 H 0.8679 0.3821 0.3193
C5 C 0.8447(3) 0.2604(3) 0.3354(3)
H7 H 0.8089 0.2368 0.3467
H8 H 0.8879 0.2362 0.3140
C6 C 0.7777(3) 0.2856(3) 0.1863(3)
C7 C 0.8041(3) 0.3211(3) 0.1238(3)
H9 H 0.8239 0.3568 0.1138
C8 C 0.8014(3) 0.3042(3) 0.0768(3)
H10 H 0.8199 0.3286 0.0344
C9 C 0.7730(3) 0.2529(3) 0.0885(3)
C10 C 0.7462(3) 0.2183(3) 0.1515(3)
H11 H 0.7264 0.1827 0.1612
C11 C 0.7477(3) 0.2341(3) 0.1993(3)
H12 H 0.7283 0.2102 0.2415
C12 C 0.7734(3) 0.2351(3) 0.0375(3)
H13 H 0.7922 0.2603 -0.0044
C13 C 0.7564(4) 0.1677(3) -0.0039(3)
C14 C 0.8106(4) 0.1733(3) -0.0552(4)
H14 H 0.8439 0.1944 -0.0595
C15 C 0.8159(5) 0.1482(4) -0.0995(3)
H15 H 0.8524 0.1530 -0.1348
C16 C 0.7685(5) 0.1161(4) -0.0931(4)
H16 H 0.7729 0.0981 -0.1233
C17 C 0.7155(5) 0.1107(3) -0.0432(4)
H17 H 0.6826 0.0891 -0.0389
C18 C 0.7089(4) 0.1362(3) 0.0014(4)
H18 H 0.6716 0.1321 0.0359
C19 C 0.6637(3) 0.4808(3) 0.3018(3)
C20 C 0.6258(3) 0.4598(3) 0.3630(3)
H19 H 0.6415 0.4142 0.3931
C21 C 0.5656(3) 0.5056(3) 0.3791(3)
H20 H 0.5400 0.4913 0.4206
C22 C 0.5415(3) 0.5724(3) 0.3357(3)
C23 C 0.5799(4) 0.5912(3) 0.2751(3)
H21 H 0.5640 0.6364 0.2446
C24 C 0.6400(3) 0.5461(3) 0.2583(3)
H22 H 0.6652 0.5602 0.2165
C25 C 0.4804(3) 0.6217(3) 0.3546(3)
H23 H 0.4618 0.6651 0.3231
C26 C 0.3922(4) 0.6602(3) 0.4268(3)
C27 C 0.3373(4) 0.6920(4) 0.3968(3)
H24 H 0.3374 0.6815 0.3628
C28 C 0.2798(4) 0.7407(4) 0.4153(4)
H25 H 0.2408 0.7633 0.3941
C29 C 0.2810(5) 0.7548(4) 0.4645(4)
H26 H 0.2425 0.7878 0.4774
C30 C 0.3366(5) 0.7221(4) 0.4953(4)
H27 H 0.3370 0.7328 0.5290
C31 C 0.3920(4) 0.6738(3) 0.4776(3)
H28 H 0.4300 0.6497 0.4999
C32 C 0.9902(4) 0.3701(3) 0.2381(3)
C33 C 0.9822(4) 0.4357(3) 0.2344(3)
H29 H 0.9387 0.4624 0.2492
C34 C 1.0391(4) 0.4610(3) 0.2088(3)
H30 H 1.0347 0.5060 0.2054
C35 C 1.1030(3) 0.4213(3) 0.1879(3)
C36 C 1.1099(4) 0.3561(3) 0.1943(3)
H31 H 1.1537 0.3286 0.1810
C37 C 1.0546(4) 0.3302(3) 0.2194(3)
H32 H 1.0601 0.2844 0.2242
C38 C 1.1641(4) 0.4490(4) 0.1590(3)
H33 H 1.2064 0.4211 0.1440
C39 C 1.2226(4) 0.5314(3) 0.1214(3)
C40 C 1.2601(4) 0.5256(3) 0.0645(4)
H34 H 1.2481 0.5025 0.0464
C41 C 1.3151(4) 0.5540(4) 0.0347(4)
H35 H 1.3406 0.5512 -0.0046
C42 C 1.3329(4) 0.5859(4) 0.0611(4)
H36 H 1.3716 0.6040 0.0406
C43 C 1.2965(4) 0.5924(3) 0.1163(4)
H37 H 1.3091 0.6151 0.1344
C44 C 1.2412(4) 0.5656(3) 0.1455(3)
H38 H 1.2149 0.5710 0.1838
C45 C 0.8778(4) 0.1971(4) 0.4376(3)
C46 C 0.8840(4) 0.1343(3) 0.4378(3)
H39 H 0.8737 0.1319 0.4032
C47 C 0.9055(4) 0.0743(3) 0.4890(4)
H40 H 0.9093 0.0308 0.4894
C48 C 0.9213(4) 0.0758(3) 0.5386(3)
C49 C 0.9143(4) 0.1389(4) 0.5389(4)
H41 H 0.9239 0.1408 0.5739
C50 C 0.8933(4) 0.1992(4) 0.4884(4)
H42 H 0.8895 0.2426 0.4883
C51 C 0.9445(4) 0.0086(4) 0.5932(4)
H43 H 0.9422 -0.0337 0.5956
C52 C 0.9884(5) -0.0557(4) 0.6871(4)
C53 C 0.9434(5) -0.0970(4) 0.7242(4)
H44 H 0.8993 -0.0847 0.7136
C54 C 0.9641(7) -0.1556(5) 0.7763(5)
H45 H 0.9333 -0.1825 0.8036
C55 C 1.0305(8) -0.1745(5) 0.7882(5)
H46 H 1.0469 -0.2169 0.8216
C56 C 1.0720(6) -0.1330(5) 0.7523(5)
H47 H 1.1163 -0.1452 0.7627
C57 C 1.0520(5) -0.0745(4) 0.7018(4)
H48 H 1.0824 -0.0465 0.6767
N1 N 0.7496(3) 0.1872(3) 0.0467(2)
N2 N 0.4511(3) 0.6085(2) 0.4116(3)
N3 N 1.1620(3) 0.5073(3) 0.1536(2)
N4 N 0.9664(4) 0.0097(3) 0.6345(3)
O1 O 0.7770(2) 0.29687(18) 0.23751(17)
O2 O 0.7252(2) 0.44063(19) 0.28165(18)
O3 O 0.9382(2) 0.33944(18) 0.26063(19)
O4 O 0.8568(2) 0.2599(2) 0.3906(2)
C58 C 0.0205(3) 0.8094(3) 0.3271(3)
C59 C 0.0625(4) 0.8618(3) 0.2962(3)
H49 H 0.0512 0.8933 0.2534
H50 H 0.0498 0.8903 0.3216
C60 C 0.0299(4) 0.7615(3) 0.3950(3)
H51 H 0.0226 0.7893 0.4198
H52 H -0.0049 0.7352 0.4146
C61 C 0.1786(4) 0.8679(3) 0.2650(3)
C62 C 0.1574(4) 0.9397(3) 0.2430(3)
H53 H 0.1095 0.9645 0.2461
C63 C 0.2076(4) 0.9746(3) 0.2164(3)
H54 H 0.1932 1.0239 0.2009
C64 C 0.2774(4) 0.9407(3) 0.2116(3)
C65 C 0.2969(4) 0.8682(3) 0.2330(3)
H55 H 0.3447 0.8432 0.2294
C66 C 0.2481(4) 0.8327(3) 0.2589(3)
H56 H 0.2624 0.7835 0.2729
C67 C 0.3280(4) 0.9804(3) 0.1835(3)
H57 H 0.3112 1.0287 0.1749
C68 C 0.4334(4) 1.0009(3) 0.1451(4)
C69 C 0.4307(4) 1.0397(4) 0.1762(4)
H58 H 0.3996 1.0374 0.2148
C70 C 0.4736(6) 1.0825(5) 0.1511(7)
H59 H 0.4729 1.1086 0.1732
C71 C 0.5175(7) 1.0872(6) 0.0940(7)
H60 H 0.5442 1.1192 0.0753
C72 C 0.5221(6) 1.0467(6) 0.0652(6)
H61 H 0.5545 1.0478 0.0274
C73 C 0.4805(5) 1.0036(4) 0.0900(4)
H62 H 0.4840 0.9753 0.0689
C74 C 0.1117(4) 0.6620(4) 0.4512(4)
C75 C 0.0641(4) 0.6485(3) 0.5069(4)
H63 H 0.0178 0.6779 0.5082
C76 C 0.0846(3) 0.5923(4) 0.5601(4)
H64 H 0.0518 0.5837 0.5980
C77 C 0.1496(4) 0.5488(4) 0.5606(4)
C78 C 0.1973(4) 0.5633(4) 0.5040(4)
H65 H 0.2435 0.5336 0.5026
C79 C 0.1778(4) 0.6194(4) 0.4513(4)
H66 H 0.2111 0.6291 0.4137
C80 C 0.1714(4) 0.4894(4) 0.6141(4)
H67 H 0.2182 0.4615 0.6102
C81 C 0.1578(4) 0.4120(4) 0.7198(4)
C82 C 0.2226(4) 0.3968(4) 0.7317(4)
H68 H 0.2512 0.4262 0.7045
C83 C 0.2462(5) 0.3395(6) 0.7824(5)
H69 H 0.2918 0.3291 0.7892
C84 C 0.2056(6) 0.2959(5) 0.8247(5)
H70 H 0.2221 0.2571 0.8607
C85 C 0.1401(5) 0.3113(4) 0.8122(4)
H71 H 0.1118 0.2815 0.8388
C86 C 0.1161(4) 0.3697(4) 0.7613(4)
H72 H 0.0703 0.3811 0.7546
N5 N 0.3914(3) 0.9549(3) 0.1702(3)
N6 N 0.1314(3) 0.4705(3) 0.6682(4)
O5 O 0.1338(3) 0.8276(2) 0.2918(2)
O6 O 0.0974(3) 0.7148(2) 0.3961(2)
C87 C 0.043(2) 0.7592(8) 0.2938(9)
H73 H 0.0943 0.7380 0.2898
H74 H 0.0205 0.7218 0.3180
O7 O 0.0235(11) 0.7990(6) 0.2330(5)
C88 C 0.0320(7) 0.7608(6) 0.1987(5)
C89 C 0.0585(7) 0.6896(5) 0.2202(5)
H75 H 0.0731 0.6630 0.2603
C90 C 0.0625(5) 0.6593(5) 0.1805(5)
H76 H 0.0794 0.6101 0.1943
C91 C 0.0432(7) 0.6971(5) 0.1219(5)
C92 C 0.0167(7) 0.7695(5) 0.1016(5)
H77 H 0.0027 0.7964 0.0613
C93 C 0.0111(8) 0.8010(6) 0.1405(5)
H78 H -0.0069 0.8500 0.1276
C94 C 0.0465(5) 0.6611(5) 0.0829(4)
H79 H 0.0670 0.6123 0.0973
N7 N 0.0240(6) 0.6908(4) 0.0325(4)
C95 C 0.0304(5) 0.6522(5) -0.0029(4)
C96 C 0.0620(7) 0.5811(6) 0.0156(6)
H80 H 0.0809 0.5559 0.0537
C97 C 0.0661(9) 0.5465(8) -0.0212(7)
H81 H 0.0878 0.4979 -0.0084
C98 C 0.0390(12) 0.5824(9) -0.0754(9)
H82 H 0.0395 0.5585 -0.0995
C99 C 0.0112(7) 0.6521(8) -0.0953(6)
H83 H -0.0042 0.6773 -0.1351
C100 C 0.0049(7) 0.6867(7) -0.0586(5)
H84 H -0.0174 0.7352 -0.0721
C101 C -0.0557(6) 0.8543(8) 0.3218(7)
H85 H -0.0588 0.8933 0.2801
H86 H -0.0851 0.8261 0.3277
O8 O -0.0767(6) 0.8794(6) 0.3715(5)
C102 C -0.1340(5) 0.9337(5) 0.3705(5)
C103 C -0.1768(6) 0.9682(6) 0.3257(6)
H87 H -0.1689 0.9531 0.2926
C104 C -0.2318(6) 1.0254(6) 0.3298(6)
H88 H -0.2613 1.0501 0.2987
C105 C -0.2440(5) 1.0468(5) 0.3784(6)
C106 C -0.2024(7) 1.0105(6) 0.4247(6)
H89 H -0.2116 1.0248 0.4586
C107 C -0.1477(7) 0.9534(6) 0.4215(6)
H90 H -0.1195 0.9275 0.4535
C108 C -0.3029(6) 1.1079(5) 0.3799(5)
H91 H -0.3298 1.1327 0.3468
N8 N -0.3177(5) 1.1272(4) 0.4239(4)
C109 C -0.3732(5) 1.1865(4) 0.4255(4)
C110 C -0.3858(8) 1.2496(5) 0.3759(5)
H92 H -0.3562 1.2556 0.3361
C111 C -0.4414(8) 1.3044(6) 0.3836(7)
H93 H -0.4506 1.3473 0.3485
C112 C -0.4832(10) 1.2982(7) 0.4406(6)
H94 H -0.5193 1.3373 0.4459
C113 C -0.4730(8) 1.2359(7) 0.4898(6)
H95 H -0.5033 1.2308 0.5292
C114 C -0.4195(6) 1.1806(6) 0.4829(4)
H96 H -0.4133 1.1371 0.5176
C143 C 0.6632(3) 0.6375(3) 0.7165(3)
C144 C 0.6270(3) 0.5811(3) 0.7434(3)
H121 H 0.6399 0.5570 0.7141
H122 H 0.6407 0.5464 0.7847
C145 C 0.7425(3) 0.6053(3) 0.7051(3)
H123 H 0.7663 0.6417 0.6882
H124 H 0.7583 0.5701 0.7454
C146 C 0.6466(3) 0.6660(3) 0.7675(3)
H125 H 0.5969 0.6921 0.7727
H126 H 0.6561 0.6272 0.8084
C147 C 0.6364(3) 0.6921(3) 0.6544(3)
H127 H 0.6475 0.6701 0.6238
H128 H 0.5854 0.7115 0.6630
C148 C 0.5090(3) 0.5749(3) 0.7834(3)
C149 C 0.5285(3) 0.5049(3) 0.8167(3)
H129 H 0.5762 0.4799 0.8172
C150 C 0.4786(4) 0.4709(3) 0.8495(3)
H130 H 0.4922 0.4222 0.8728
C151 C 0.4090(4) 0.5059(3) 0.8492(3)
C152 C 0.3900(3) 0.5771(3) 0.8144(3)
H131 H 0.3424 0.6021 0.8126
C153 C 0.4402(3) 0.6112(3) 0.7825(3)
H132 H 0.4272 0.6600 0.7599
C154 C 0.3565(4) 0.4685(3) 0.8829(3)
H133 H 0.3718 0.4209 0.9093
C155 C 0.2502(4) 0.4477(3) 0.9148(3)
C156 C 0.2510(4) 0.4055(4) 0.9779(3)
H134 H 0.2814 0.4046 1.0003
C157 C 0.2060(5) 0.3644(4) 1.0080(5)
H135 H 0.2052 0.3355 1.0516
C158 C 0.1632(6) 0.3649(5) 0.9755(6)
H136 H 0.1336 0.3356 0.9966
C159 C 0.1621(5) 0.4077(5) 0.9119(5)
H137 H 0.1313 0.4089 0.8896
C160 C 0.2071(4) 0.4486(4) 0.8819(4)
H138 H 0.2080 0.4775 0.8382
C161 C 0.8266(3) 0.5379(3) 0.6486(3)
C162 C 0.8793(3) 0.5346(3) 0.6718(3)
H139 H 0.8704 0.5585 0.6985
C163 C 0.9456(4) 0.4964(3) 0.6561(3)
H140 H 0.9824 0.4937 0.6726
C164 C 0.9595(3) 0.4622(3) 0.6172(3)
C165 C 0.9061(4) 0.4677(3) 0.5933(3)
H141 H 0.9154 0.4448 0.5656
C166 C 0.8396(4) 0.5051(3) 0.6078(3)
H142 H 0.8032 0.5086 0.5904
C167 C 1.0299(4) 0.4171(3) 0.6049(3)
H143 H 1.0669 0.4167 0.6195
C168 C 1.1091(4) 0.3314(3) 0.5701(4)
C169 C 1.1437(4) 0.2884(4) 0.6201(4)
H144 H 1.1273 0.2940 0.6594
C170 C 1.2037(4) 0.2359(4) 0.6123(4)
H145 H 1.2277 0.2048 0.6469
C171 C 1.2284(4) 0.2288(4) 0.5545(4)
H146 H 1.2687 0.1925 0.5493
C172 C 1.1946(4) 0.2738(4) 0.5062(4)
H147 H 1.2129 0.2707 0.4659
C173 C 1.1345(4) 0.3243(4) 0.5129(3)
H148 H 1.1103 0.3543 0.4781
C174 C 0.6857(3) 0.7354(3) 0.7930(3)
C175 C 0.6472(4) 0.7177(3) 0.8528(3)
H149 H 0.6191 0.6878 0.8663
C176 C 0.6506(4) 0.7446(4) 0.8927(3)
H150 H 0.6238 0.7332 0.9339
C177 C 0.6908(4) 0.7869(3) 0.8750(3)
C178 C 0.7289(4) 0.8048(3) 0.8134(3)
H151 H 0.7568 0.8349 0.7999
C179 C 0.7262(4) 0.7794(3) 0.7730(3)
H152 H 0.7518 0.7918 0.7314
C180 C 0.6439(3) 0.8026(3) 0.5800(3)
C181 C 0.6003(3) 0.8086(3) 0.5448(3)
H153 H 0.5831 0.7709 0.5556
C182 C 0.5811(4) 0.8690(3) 0.4940(3)
H154 H 0.5509 0.8730 0.4697
C183 C 0.6060(4) 0.9241(3) 0.4781(3)
C184 C 0.6475(5) 0.9167(4) 0.5151(4)
H155 H 0.6636 0.9548 0.5053
C185 C 0.6674(4) 0.8579(4) 0.5651(3)
H156 H 0.6970 0.8548 0.5896
N11 N 0.2943(3) 0.4935(2) 0.8798(2)
N12 N 1.0412(3) 0.3800(3) 0.5760(3)
O11 O 0.5546(2) 0.61433(18) 0.75098(19)
O12 O 0.7585(2) 0.5740(2) 0.66098(19)
O13 O 0.6880(2) 0.7106(2) 0.75007(19)
O14 O 0.6684(2) 0.7454(2) 0.6291(2)
C186 C 0.5949(18) 0.9869(10) 0.4217(11)
H157 H 0.6207 1.0178 0.4117
N13 N 0.5552(11) 1.0039(7) 0.3853(9)
C187 C 0.5524(7) 1.0712(7) 0.3337(7)
C188 C 0.5340(7) 1.1296(6) 0.3452(6)
H158 H 0.5234 1.1268 0.3876
C189 C 0.5307(8) 1.1923(6) 0.2963(7)
H159 H 0.5155 1.2333 0.3047
C190 C 0.5486(10) 1.1965(7) 0.2369(7)
H160 H 0.5496 1.2400 0.2033
C191 C 0.5655(13) 1.1386(9) 0.2237(9)
H161 H 0.5744 1.1430 0.1810
C192 C 0.5699(11) 1.0735(9) 0.2724(7)
H162 H 0.5841 1.0326 0.2640
C193 C 0.699(2) 0.813(2) 0.9177(12)
H163 H 0.6671 0.8089 0.9561
N14 N 0.7448(11) 0.8407(12) 0.9075(9)
C194 C 0.7517(9) 0.8518(8) 0.9593(7)
C195 C 0.6953(10) 0.8866(10) 0.9911(8)
H164 H 0.6511 0.9036 0.9788
C196 C 0.7024(11) 0.8971(12) 1.0416(10)
H165 H 0.6633 0.9189 1.0653
C197 C 0.7672(11) 0.8751(11) 1.0556(8)
H166 H 0.7742 0.8870 1.0859
C198 C 0.8217(10) 0.8368(10) 1.0273(8)
H167 H 0.8651 0.8176 1.0415
C199 C 0.8154(9) 0.8251(9) 0.9784(7)
H168 H 0.8543 0.7991 0.9580
C214 C 0.5850(4) 0.8095(3) 0.2853(3)
C215 C 0.5917(4) 0.7350(3) 0.3329(3)
H181 H 0.5452 0.7278 0.3524
H182 H 0.6183 0.7020 0.3115
C216 C 0.5504(4) 0.8235(3) 0.2319(3)
H183 H 0.5064 0.8107 0.2497
H184 H 0.5396 0.8735 0.2045
C217 C 0.5406(4) 0.8603(3) 0.3179(3)
H185 H 0.5621 0.8526 0.3527
H186 H 0.5356 0.9089 0.2873
C218 C 0.6568(4) 0.8205(3) 0.2610(3)
H187 H 0.6785 0.8094 0.2968
H188 H 0.6868 0.7898 0.2381
C219 C 0.6311(3) 0.6629(3) 0.4331(3)
C220 C 0.6026(3) 0.6123(3) 0.4437(3)
H189 H 0.5803 0.6164 0.4129
C221 C 0.6074(3) 0.5555(3) 0.5004(3)
H190 H 0.5882 0.5202 0.5081
C222 C 0.6388(3) 0.5484(3) 0.5456(3)
C223 C 0.6690(3) 0.5994(3) 0.5326(3)
H191 H 0.6930 0.5945 0.5626
C224 C 0.6642(3) 0.6563(3) 0.4772(3)
H192 H 0.6838 0.6914 0.4692
C225 C 0.6431(3) 0.4876(3) 0.6044(3)
H193 H 0.6195 0.4557 0.6118
C226 C 0.6757(4) 0.4140(3) 0.7028(3)
C227 C 0.6153(4) 0.3950(3) 0.7346(3)
H194 H 0.5729 0.4219 0.7188
C228 C 0.6176(5) 0.3362(4) 0.7897(3)
H195 H 0.5766 0.3226 0.8121
C229 C 0.6785(5) 0.2980(3) 0.8119(3)
H196 H 0.6798 0.2575 0.8497
C230 C 0.7383(4) 0.3172(4) 0.7803(4)
H197 H 0.7807 0.2903 0.7960
C231 C 0.7360(4) 0.3759(3) 0.7254(3)
H198 H 0.7771 0.3896 0.7033
C232 C 0.5668(4) 0.7789(3) 0.1552(3)
C233 C 0.4988(4) 0.8093(3) 0.1465(3)
H199 H 0.4681 0.8395 0.1672
C234 C 0.4757(4) 0.7957(3) 0.1075(3)
H200 H 0.4287 0.8171 0.1015
C235 C 0.5185(4) 0.7520(3) 0.0768(3)
C236 C 0.5878(4) 0.7252(3) 0.0835(3)
H201 H 0.6190 0.6973 0.0608
C237 C 0.6125(4) 0.7378(3) 0.1216(3)
H202 H 0.6602 0.7189 0.1254
C238 C 0.4906(4) 0.7341(3) 0.0400(3)
H203 H 0.4434 0.7556 0.0346
C239 C 0.5004(4) 0.6720(4) -0.0193(3)
C240 C 0.4438(4) 0.7131(4) -0.0473(3)
H204 H 0.4200 0.7571 -0.0445
C241 C 0.4207(5) 0.6904(6) -0.0803(4)
H205 H 0.3805 0.7187 -0.0994
C242 C 0.4556(6) 0.6271(6) -0.0853(4)
H206 H 0.4390 0.6115 -0.1071
C243 C 0.5133(5) 0.5874(5) -0.0594(4)
H207 H 0.5385 0.5446 -0.0644
C244 C 0.5359(4) 0.6089(4) -0.0253(3)
H208 H 0.5759 0.5802 -0.0060
C245 C 0.4190(5) 0.8978(4) 0.3511(3)
C246 C 0.4214(4) 0.9571(4) 0.3546(3)
H209 H 0.4647 0.9631 0.3512
C247 C 0.3602(5) 1.0065(4) 0.3632(3)
H210 H 0.3614 1.0477 0.3641
C248 C 0.2962(4) 0.9968(4) 0.3706(3)
C249 C 0.2958(5) 0.9372(5) 0.3677(4)
H211 H 0.2528 0.9300 0.3724
C250 C 0.3561(5) 0.8889(4) 0.3581(4)
H212 H 0.3545 0.8483 0.3563
C251 C 0.7042(5) 0.9152(4) 0.2023(3)
C252 C 0.7711(5) 0.8756(3) 0.2109(3)
H213 H 0.7816 0.8265 0.2309
C253 C 0.8220(4) 0.9066(4) 0.1906(3)
H214 H 0.8681 0.8791 0.1971
C254 C 0.8077(5) 0.9782(4) 0.1605(4)
C255 C 0.7430(6) 1.0161(4) 0.1520(5)
H215 H 0.7331 1.0651 0.1313
C256 C 0.6898(5) 0.9864(4) 0.1723(5)
H216 H 0.6439 1.0145 0.1658
N17 N 0.6759(3) 0.4744(2) 0.6463(2)
N18 N 0.5288(3) 0.6896(3) 0.0148(2)
O15 O 0.6269(2) 0.7239(2) 0.37996(19)
O16 O 0.5955(2) 0.7840(2) 0.1958(2)
O17 O 0.4747(3) 0.8467(2) 0.3421(2)
O18 O 0.6486(3) 0.8912(2) 0.2197(2)
C257 C 0.2286(10) 1.0437(11) 0.3835(18)
H217 H 0.1867 1.0323 0.3929
N19 N 0.2291(9) 1.0993(12) 0.3815(15)
C258 C 0.1642(7) 1.1502(8) 0.3874(8)
C259 C 0.1129(8) 1.1631(8) 0.3561(7)
H218 H 0.1198 1.1368 0.3321
C260 C 0.0519(9) 1.2142(9) 0.3596(8)
H219 H 0.0175 1.2258 0.3359
C261 C 0.0419(9) 1.2479(9) 0.3979(10)
H220 H -0.0021 1.2797 0.4042
C262 C 0.0928(8) 1.2373(9) 0.4274(9)
H221 H 0.0860 1.2656 0.4494
C263 C 0.1542(8) 1.1858(8) 0.4255(8)
H222 H 0.1885 1.1750 0.4491
C264 C 0.8697(7) 1.0069(10) 0.1307(10)
H223 H 0.8611 1.0556 0.1174
N20 N 0.9303(7) 0.9722(7) 0.1225(7)
C265 C 0.9883(7) 0.9987(6) 0.1000(7)
C266 C 1.0003(10) 1.0273(10) 0.1357(9)
H224 H 0.9699 1.0295 0.1736
C267 C 1.0578(11) 1.0524(11) 0.1139(10)
H225 H 1.0676 1.0738 0.1350
C268 C 1.0996(11) 1.0441(12) 0.0595(10)
H226 H 1.1402 1.0589 0.0455
C269 C 1.0895(10) 1.0171(13) 0.0234(10)
H227 H 1.1218 1.0132 -0.0132
C270 C 1.0298(9) 0.9956(10) 0.0423(8)
H228 H 1.0178 0.9798 0.0175
C115? C 0.035(5) 0.7677(15) 0.2860(19)
H97? H 0.0843 0.7403 0.2824
H98? H 0.0061 0.7353 0.3060
O9? O 0.019(3) 0.8143(13) 0.2250(11)
C116? C 0.0249(17) 0.7859(12) 0.1830(9)
C117? C 0.0492(16) 0.7163(11) 0.1937(11)
H99? H 0.0644 0.6836 0.2326
C118? C 0.0518(18) 0.6934(13) 0.1479(12)
H100? H 0.0688 0.6452 0.1561
C119? C 0.0301(15) 0.7396(13) 0.0908(12)
C120? C 0.0074(14) 0.8106(12) 0.0801(10)
H101? H -0.0075 0.8436 0.0412
C121? C 0.0062(19) 0.8338(11) 0.1248(10)
H102? H -0.0072 0.8822 0.1157
C122? C 0.0328(15) 0.7203(10) 0.0383(11)
H103? H 0.0262 0.7554 -0.0025
N9? N 0.0434(16) 0.6595(10) 0.0473(12)
C123? C 0.0395(12) 0.6356(11) 0.0032(10)
C124? C -0.0054(16) 0.6756(15) -0.0396(13)
H104? H -0.0331 0.7211 -0.0422
C125? C -0.0094(17) 0.6481(19) -0.0791(14)
H105? H -0.0436 0.6730 -0.1059
C126? C 0.035(3) 0.586(2) -0.080(2)
H106? H 0.0348 0.5711 -0.1112
C127? C 0.078(2) 0.5455(16) -0.0373(16)
H107? H 0.1049 0.4997 -0.0345
C128? C 0.0838(16) 0.5720(13) 0.0022(14)
H108? H 0.1181 0.5465 0.0289
C129? C -0.0567(12) 0.845(3) 0.340(2)
H109? H -0.0714 0.8861 0.3020
H110? H -0.0840 0.8131 0.3525
O10? O -0.0678(13) 0.8670(15) 0.3905(12)
C130? C -0.1232(11) 0.9230(12) 0.3932(10)
C131? C -0.1693(14) 0.9616(14) 0.3515(13)
H111? H -0.1662 0.9495 0.3175
C132? C -0.2209(15) 1.0192(14) 0.3605(13)
H112? H -0.2520 1.0472 0.3309
C133? C -0.2287(13) 1.0372(11) 0.4104(13)
C134? C -0.1850(13) 0.9926(12) 0.4556(11)
H113? H -0.1927 0.9999 0.4933
C135? C -0.1309(15) 0.9380(15) 0.4455(12)
H114? H -0.0988 0.9106 0.4743
C136? C -0.2838(11) 1.0960(9) 0.4227(10)
H115? H -0.2930 1.0975 0.4634
N10? N -0.3189(10) 1.1438(9) 0.3822(8)
C137? C -0.3729(10) 1.1979(8) 0.3977(8)
C138? C -0.4176(15) 1.1843(13) 0.4549(10)
H116? H -0.4136 1.1379 0.4846
C139? C -0.468(2) 1.2394(15) 0.4684(13)
H117? H -0.4970 1.2314 0.5088
C140? C -0.477(2) 1.3050(15) 0.4233(16)
H118? H -0.5158 1.3413 0.4305
C141? C -0.4314(18) 1.3198(11) 0.3685(14)
H119? H -0.4341 1.3665 0.3405
C142? C -0.3812(19) 1.2659(9) 0.3540(13)
H120? H -0.3520 1.2753 0.3139
C200? C 0.584(2) 0.9894(12) 0.4251(11)
H169? H 0.5822 1.0317 0.4259
N15? N 0.5684(11) 0.9906(7) 0.3797(9)
C201? C 0.5504(8) 1.0558(7) 0.3281(7)
C202? C 0.4856(7) 1.1016(6) 0.3308(6)
H170? H 0.4531 1.0922 0.3689
C203? C 0.4670(7) 1.1609(6) 0.2791(6)
H171? H 0.4202 1.1892 0.2804
C204? C 0.5133(8) 1.1797(8) 0.2270(7)
H172? H 0.5003 1.2221 0.1923
C205? C 0.5805(10) 1.1363(10) 0.2247(10)
H173? H 0.6147 1.1503 0.1890
C206? C 0.5985(9) 1.0727(10) 0.2738(9)
H174? H 0.6433 1.0410 0.2701
C207? C 0.689(3) 0.808(2) 0.9257(13)
H175? H 0.6630 0.7910 0.9664
N16? N 0.7230(12) 0.8473(14) 0.9146(10)
C208? C 0.7173(9) 0.8718(8) 0.9617(7)
C209? C 0.6577(10) 0.8820(10) 1.0043(8)
H176? H 0.6181 0.8726 1.0032
C210? C 0.6553(11) 0.9060(11) 1.0491(9)
H177? H 0.6137 0.9128 1.0783
C211? C 0.7111(11) 0.9200(11) 1.0519(10)
H178? H 0.7083 0.9375 1.0821
C212? C 0.7708(11) 0.9085(11) 1.0109(9)
H179? H 0.8118 0.9126 1.0154
C213? C 0.7718(10) 0.8907(11) 0.9622(8)
H180? H 0.8104 0.8916 0.9289
C271? C 0.2340(12) 1.0558(12) 0.374(2)
H229? H 0.1926 1.0516 0.3709
N21? N 0.2263(10) 1.1089(13) 0.3813(17)
C272? C 0.1621(9) 1.1602(9) 0.3829(9)
C273? C 0.0995(9) 1.1517(10) 0.3887(11)
H230? H 0.0969 1.1087 0.3931
C274? C 0.0403(10) 1.2060(11) 0.3883(12)
H231? H -0.0026 1.1996 0.3914
C275? C 0.0403(10) 1.2685(11) 0.3835(13)
H232? H -0.0018 1.3049 0.3826
C276? C 0.1007(9) 1.2782(9) 0.3802(9)
H233? H 0.1020 1.3201 0.3797
C277? C 0.1599(8) 1.2251(9) 0.3777(10)
H234? H 0.2028 1.2331 0.3720
C278? C 0.8511(8) 1.0178(10) 0.1511(11)
H235? H 0.8326 1.0668 0.1378
N22? N 0.9114(7) 0.9911(6) 0.1595(6)
C279? C 0.9552(7) 1.0362(7) 0.1306(6)
C280? C 0.9276(9) 1.1070(7) 0.1123(9)
H236? H 0.8789 1.1270 0.1204
C281? C 0.9716(8) 1.1491(8) 0.0821(8)
H237? H 0.9532 1.1982 0.0652
C282? C 1.0413(8) 1.1191(8) 0.0769(9)
H238? H 1.0709 1.1477 0.0624
C283? C 1.0699(9) 1.0501(10) 0.0916(13)
H239? H 1.1188 1.0313 0.0833
C284? C 1.0267(7) 1.0070(9) 0.1191(11)
H240? H 1.0457 0.9583 0.1299
C285? C 0.864(2) 1.010(3) 0.123(3)
H241? H 0.8577 1.0476 0.0840
N23? N 0.921(2) 0.989(2) 0.142(2)
C286? C 0.9683(16) 1.0294(17) 0.1061(15)
C287? C 0.950(2) 1.0973(19) 0.101(2)
H242? H 0.9064 1.1170 0.1211
C288? C 0.996(3) 1.137(2) 0.065(3)
H243? H 0.9836 1.1837 0.0607
C289? C 1.059(2) 1.108(3) 0.037(3)
H244? H 1.0912 1.1345 0.0134
C290? C 1.078(2) 1.041(3) 0.041(3)
H245? H 1.1221 1.0217 0.0207
C291? C 1.032(2) 1.001(2) 0.076(3)
H246? H 1.0445 0.9548 0.0785
loop_
_geom_bond_atom_site_label_1
_geom_bond_atom_site_label_2
_geom_bond_site_symmetry_1
_geom_bond_site_symmetry_2
C1 C2 1_555 1_555
C2 H1 1_555 1_555
H2 C2 1_555 1_555
C3 C1 1_555 1_555
H3 C3 1_555 1_555
H4 C3 1_555 1_555
C4 C1 1_555 1_555
H5 C4 1_555 1_555
H6 C4 1_555 1_555
C5 C1 1_555 1_555
H7 C5 1_555 1_555
H8 C5 1_555 1_555
C6 C7 1_555 1_555
C7 H9 1_555 1_555
C8 C7 1_555 1_555
H10 C8 1_555 1_555
C9 C8 1_555 1_555
C10 C9 1_555 1_555
H11 C10 1_555 1_555
C11 C6 1_555 1_555
H12 C11 1_555 1_555
C12 C9 1_555 1_555
H13 C12 1_555 1_555
C13 C14 1_555 1_555
C14 H14 1_555 1_555
C15 C14 1_555 1_555
H15 C15 1_555 1_555
C16 C15 1_555 1_555
H16 C16 1_555 1_555
C17 C16 1_555 1_555
H17 C17 1_555 1_555
C18 C13 1_555 1_555
H18 C18 1_555 1_555
C19 C20 1_555 1_555
C20 H19 1_555 1_555
C21 C20 1_555 1_555
H20 C21 1_555 1_555
C22 C21 1_555 1_555
C23 C22 1_555 1_555
H21 C23 1_555 1_555
C24 C19 1_555 1_555
H22 C24 1_555 1_555
C25 C22 1_555 1_555
H23 C25 1_555 1_555
C26 C27 1_555 1_555
C27 H24 1_555 1_555
C28 C27 1_555 1_555
H25 C28 1_555 1_555
C29 C28 1_555 1_555
H26 C29 1_555 1_555
C30 C29 1_555 1_555
H27 C30 1_555 1_555
C31 C26 1_555 1_555
H28 C31 1_555 1_555
C32 C33 1_555 1_555
C33 H29 1_555 1_555
C34 C33 1_555 1_555
H30 C34 1_555 1_555
C35 C34 1_555 1_555
C36 C35 1_555 1_555
H31 C36 1_555 1_555
C37 C32 1_555 1_555
H32 C37 1_555 1_555
C38 C35 1_555 1_555
H33 C38 1_555 1_555
C39 C40 1_555 1_555
C40 H34 1_555 1_555
C41 C40 1_555 1_555
H35 C41 1_555 1_555
C42 C41 1_555 1_555
H36 C42 1_555 1_555
C43 C42 1_555 1_555
H37 C43 1_555 1_555
C44 C39 1_555 1_555
H38 C44 1_555 1_555
C45 C46 1_555 1_555
C46 H39 1_555 1_555
C47 C46 1_555 1_555
H40 C47 1_555 1_555
C48 C47 1_555 1_555
C49 C48 1_555 1_555
H41 C49 1_555 1_555
C50 C45 1_555 1_555
H42 C50 1_555 1_555
C51 C48 1_555 1_555
H43 C51 1_555 1_555
C52 C53 1_555 1_555
C53 H44 1_555 1_555
C54 C53 1_555 1_555
H45 C54 1_555 1_555
C55 C54 1_555 1_555
H46 C55 1_555 1_555
C56 C55 1_555 1_555
H47 C56 1_555 1_555
C57 C52 1_555 1_555
H48 C57 1_555 1_555
N1 C12 1_555 1_555
N2 C25 1_555 1_555
N3 C38 1_555 1_555
N4 C51 1_555 1_555
O1 C2 1_555 1_555
O2 C3 1_555 1_555
O3 C4 1_555 1_555
O4 C5 1_555 1_555
C58 C59 1_555 1_555
C59 H49 1_555 1_555
H50 C59 1_555 1_555
C60 C58 1_555 1_555
H51 C60 1_555 1_555
H52 C60 1_555 1_555
C61 C62 1_555 1_555
C62 H53 1_555 1_555
C63 C62 1_555 1_555
H54 C63 1_555 1_555
C64 C63 1_555 1_555
C65 C64 1_555 1_555
H55 C65 1_555 1_555
C66 C61 1_555 1_555
H56 C66 1_555 1_555
C67 C64 1_555 1_555
H57 C67 1_555 1_555
C68 C69 1_555 1_555
C69 H58 1_555 1_555
C70 C69 1_555 1_555
H59 C70 1_555 1_555
C71 C70 1_555 1_555
H60 C71 1_555 1_555
C72 C71 1_555 1_555
H61 C72 1_555 1_555
C73 C68 1_555 1_555
H62 C73 1_555 1_555
C74 C75 1_555 1_555
C75 H63 1_555 1_555
C76 C75 1_555 1_555
H64 C76 1_555 1_555
C77 C76 1_555 1_555
C78 C77 1_555 1_555
H65 C78 1_555 1_555
C79 C74 1_555 1_555
H66 C79 1_555 1_555
C80 C77 1_555 1_555
H67 C80 1_555 1_555
C81 C82 1_555 1_555
C82 H68 1_555 1_555
C83 C82 1_555 1_555
H69 C83 1_555 1_555
C84 C83 1_555 1_555
H70 C84 1_555 1_555
C85 C84 1_555 1_555
H71 C85 1_555 1_555
C86 C81 1_555 1_555
H72 C86 1_555 1_555
N5 C67 1_555 1_555
N6 C80 1_555 1_555
O5 C59 1_555 1_555
O6 C60 1_555 1_555
C87 C58 1_555 1_555
H73 C87 1_555 1_555
H74 C87 1_555 1_555
O7 C87 1_555 1_555
C88 O7 1_555 1_555
C89 C88 1_555 1_555
H75 C89 1_555 1_555
C90 C89 1_555 1_555
H76 C90 1_555 1_555
C91 C90 1_555 1_555
C92 C91 1_555 1_555
H77 C92 1_555 1_555
C93 C88 1_555 1_555
H78 C93 1_555 1_555
C94 C91 1_555 1_555
H79 C94 1_555 1_555
N7 C94 1_555 1_555
C95 N7 1_555 1_555
C96 C95 1_555 1_555
H80 C96 1_555 1_555
C97 C96 1_555 1_555
H81 C97 1_555 1_555
C98 C97 1_555 1_555
H82 C98 1_555 1_555
C99 C98 1_555 1_555
H83 C99 1_555 1_555
C100 C95 1_555 1_555
H84 C100 1_555 1_555
C101 C58 1_555 1_555
H85 C101 1_555 1_555
H86 C101 1_555 1_555
O8 C101 1_555 1_555
C102 O8 1_555 1_555
C103 C102 1_555 1_555
H87 C103 1_555 1_555
C104 C103 1_555 1_555
H88 C104 1_555 1_555
C105 C104 1_555 1_555
C106 C105 1_555 1_555
H89 C106 1_555 1_555
C107 C102 1_555 1_555
H90 C107 1_555 1_555
C108 C105 1_555 1_555
H91 C108 1_555 1_555
N8 C108 1_555 1_555
C109 N8 1_555 1_555
C110 C109 1_555 1_555
H92 C110 1_555 1_555
C111 C110 1_555 1_555
H93 C111 1_555 1_555
C112 C111 1_555 1_555
H94 C112 1_555 1_555
C113 C112 1_555 1_555
H95 C113 1_555 1_555
C114 C109 1_555 1_555
H96 C114 1_555 1_555
C143 C144 1_555 1_555
C144 H121 1_555 1_555
H122 C144 1_555 1_555
C145 C143 1_555 1_555
H123 C145 1_555 1_555
H124 C145 1_555 1_555
C146 C143 1_555 1_555
H125 C146 1_555 1_555
H126 C146 1_555 1_555
C147 C143 1_555 1_555
H127 C147 1_555 1_555
H128 C147 1_555 1_555
C148 C149 1_555 1_555
C149 H129 1_555 1_555
C150 C149 1_555 1_555
H130 C150 1_555 1_555
C151 C150 1_555 1_555
C152 C151 1_555 1_555
H131 C152 1_555 1_555
C153 C148 1_555 1_555
H132 C153 1_555 1_555
C154 C151 1_555 1_555
H133 C154 1_555 1_555
C155 C156 1_555 1_555
C156 H134 1_555 1_555
C157 C156 1_555 1_555
H135 C157 1_555 1_555
C158 C157 1_555 1_555
H136 C158 1_555 1_555
C159 C158 1_555 1_555
H137 C159 1_555 1_555
C160 C155 1_555 1_555
H138 C160 1_555 1_555
C161 C162 1_555 1_555
C162 H139 1_555 1_555
C163 C162 1_555 1_555
H140 C163 1_555 1_555
C164 C163 1_555 1_555
C165 C164 1_555 1_555
H141 C165 1_555 1_555
C166 C161 1_555 1_555
H142 C166 1_555 1_555
C167 C164 1_555 1_555
H143 C167 1_555 1_555
C168 C169 1_555 1_555
C169 H144 1_555 1_555
C170 C169 1_555 1_555
H145 C170 1_555 1_555
C171 C170 1_555 1_555
H146 C171 1_555 1_555
C172 C171 1_555 1_555
H147 C172 1_555 1_555
C173 C168 1_555 1_555
H148 C173 1_555 1_555
C174 C175 1_555 1_555
C175 H149 1_555 1_555
C176 C175 1_555 1_555
H150 C176 1_555 1_555
C177 C176 1_555 1_555
C178 C177 1_555 1_555
H151 C178 1_555 1_555
C179 C174 1_555 1_555
H152 C179 1_555 1_555
C180 C181 1_555 1_555
C181 H153 1_555 1_555
C182 C181 1_555 1_555
H154 C182 1_555 1_555
C183 C182 1_555 1_555
C184 C183 1_555 1_555
H155 C184 1_555 1_555
C185 C180 1_555 1_555
H156 C185 1_555 1_555
N11 C154 1_555 1_555
N12 C167 1_555 1_555
O11 C144 1_555 1_555
O12 C145 1_555 1_555
O13 C146 1_555 1_555
O14 C147 1_555 1_555
C186 C183 1_555 1_555
H157 C186 1_555 1_555
N13 C186 1_555 1_555
C187 N13 1_555 1_555
C188 C187 1_555 1_555
H158 C188 1_555 1_555
C189 C188 1_555 1_555
H159 C189 1_555 1_555
C190 C189 1_555 1_555
H160 C190 1_555 1_555
C191 C190 1_555 1_555
H161 C191 1_555 1_555
C192 C187 1_555 1_555
H162 C192 1_555 1_555
C193 C177 1_555 1_555
H163 C193 1_555 1_555
N14 C193 1_555 1_555
C194 N14 1_555 1_555
C195 C194 1_555 1_555
H164 C195 1_555 1_555
C196 C195 1_555 1_555
H165 C196 1_555 1_555
C197 C196 1_555 1_555
H166 C197 1_555 1_555
C198 C197 1_555 1_555
H167 C198 1_555 1_555
C199 C194 1_555 1_555
H168 C199 1_555 1_555
C214 C215 1_555 1_555
C215 H181 1_555 1_555
H182 C215 1_555 1_555
C216 C214 1_555 1_555
H183 C216 1_555 1_555
H184 C216 1_555 1_555
C217 C214 1_555 1_555
H185 C217 1_555 1_555
H186 C217 1_555 1_555
C218 C214 1_555 1_555
H187 C218 1_555 1_555
H188 C218 1_555 1_555
C219 C220 1_555 1_555
C220 H189 1_555 1_555
C221 C220 1_555 1_555
H190 C221 1_555 1_555
C222 C221 1_555 1_555
C223 C222 1_555 1_555
H191 C223 1_555 1_555
C224 C219 1_555 1_555
H192 C224 1_555 1_555
C225 C222 1_555 1_555
H193 C225 1_555 1_555
C226 C227 1_555 1_555
C227 H194 1_555 1_555
C228 C227 1_555 1_555
H195 C228 1_555 1_555
C229 C228 1_555 1_555
H196 C229 1_555 1_555
C230 C229 1_555 1_555
H197 C230 1_555 1_555
C231 C226 1_555 1_555
H198 C231 1_555 1_555
C232 C233 1_555 1_555
C233 H199 1_555 1_555
C234 C233 1_555 1_555
H200 C234 1_555 1_555
C235 C234 1_555 1_555
C236 C235 1_555 1_555
H201 C236 1_555 1_555
C237 C232 1_555 1_555
H202 C237 1_555 1_555
C238 C235 1_555 1_555
H203 C238 1_555 1_555
C239 C240 1_555 1_555
C240 H204 1_555 1_555
C241 C240 1_555 1_555
H205 C241 1_555 1_555
C242 C241 1_555 1_555
H206 C242 1_555 1_555
C243 C242 1_555 1_555
H207 C243 1_555 1_555
C244 C239 1_555 1_555
H208 C244 1_555 1_555
C245 C246 1_555 1_555
C246 H209 1_555 1_555
C247 C246 1_555 1_555
H210 C247 1_555 1_555
C248 C247 1_555 1_555
C249 C248 1_555 1_555
H211 C249 1_555 1_555
C250 C245 1_555 1_555
H212 C250 1_555 1_555
C251 C252 1_555 1_555
C252 H213 1_555 1_555
C253 C252 1_555 1_555
H214 C253 1_555 1_555
C254 C253 1_555 1_555
C255 C254 1_555 1_555
H215 C255 1_555 1_555
C256 C251 1_555 1_555
H216 C256 1_555 1_555
N17 C225 1_555 1_555
N18 C238 1_555 1_555
O15 C215 1_555 1_555
O16 C216 1_555 1_555
O17 C217 1_555 1_555
O18 C218 1_555 1_555
C257 C248 1_555 1_555
H217 C257 1_555 1_555
N19 C257 1_555 1_555
C258 N19 1_555 1_555
C259 C258 1_555 1_555
H218 C259 1_555 1_555
C260 C259 1_555 1_555
H219 C260 1_555 1_555
C261 C260 1_555 1_555
H220 C261 1_555 1_555
C262 C261 1_555 1_555
H221 C262 1_555 1_555
C263 C258 1_555 1_555
H222 C263 1_555 1_555
C264 C254 1_555 1_555
H223 C264 1_555 1_555
N20 C264 1_555 1_555
C265 N20 1_555 1_555
C266 C265 1_555 1_555
H224 C266 1_555 1_555
C267 C266 1_555 1_555
H225 C267 1_555 1_555
C268 C267 1_555 1_555
H226 C268 1_555 1_555
C269 C268 1_555 1_555
H227 C269 1_555 1_555
C270 C265 1_555 1_555
H228 C270 1_555 1_555
C6 O1 1_555 1_555
C10 C11 1_555 1_555
C13 N1 1_555 1_555
C17 C18 1_555 1_555
C19 O2 1_555 1_555
C23 C24 1_555 1_555
C26 N2 1_555 1_555
C30 C31 1_555 1_555
C32 O3 1_555 1_555
C36 C37 1_555 1_555
C39 N3 1_555 1_555
C43 C44 1_555 1_555
C45 O4 1_555 1_555
C49 C50 1_555 1_555
C52 N4 1_555 1_555
C56 C57 1_555 1_555
C61 O5 1_555 1_555
C65 C66 1_555 1_555
C68 N5 1_555 1_555
C72 C73 1_555 1_555
C74 O6 1_555 1_555
C78 C79 1_555 1_555
C81 N6 1_555 1_555
C85 C86 1_555 1_555
C92 C93 1_555 1_555
C99 C100 1_555 1_555
C106 C107 1_555 1_555
C113 C114 1_555 1_555
C148 O11 1_555 1_555
C152 C153 1_555 1_555
C155 N11 1_555 1_555
C159 C160 1_555 1_555
C161 O12 1_555 1_555
C165 C166 1_555 1_555
C168 N12 1_555 1_555
C172 C173 1_555 1_555
C174 O13 1_555 1_555
C178 C179 1_555 1_555
C180 O14 1_555 1_555
C184 C185 1_555 1_555
C191 C192 1_555 1_555
C198 C199 1_555 1_555
C219 O15 1_555 1_555
C223 C224 1_555 1_555
C226 N17 1_555 1_555
C230 C231 1_555 1_555
C232 O16 1_555 1_555
C236 C237 1_555 1_555
C239 N18 1_555 1_555
C243 C244 1_555 1_555
C245 O17 1_555 1_555
C249 C250 1_555 1_555
C251 O18 1_555 1_555
C255 C256 1_555 1_555
C262 C263 1_555 1_555
C269 C270 1_555 1_555

#END
