
#######################################################################
#
#                 Cambridge Crystallographic Data Centre
#                                CCDC 
#
#######################################################################
#
# If this CIF has been generated from an entry in the Cambridge 
# Structural Database, then it will include bibliographic, chemical, 
# crystal, experimental, refinement or atomic coordinate data resulting 
# from the CCDC's data processing and validation procedures.
#
#######################################################################

data_FEBRAI
_chemical_formula_moiety         'C24 H28 N2 O4 S1'
_chemical_name_systematic        
'methyl 4-(4,4-dimethyl-1-((4-methylphenyl)sulfonyl)-3-phenyl-4,5-dihydro-1H-pyrazol-5-yl)-2-methylidenebutanoate'
_symmetry_cell_setting           triclinic
_symmetry_space_group_name_H-M   'P -1'
_symmetry_Int_Tables_number      2
_space_group_name_Hall           '-P 1'
loop_
_symmetry_equiv_pos_site_id
_symmetry_equiv_pos_as_xyz
1 x,y,z
2 -x,-y,-z
_cell_length_a                   10.4274(9)
_cell_length_b                   11.0126(10)
_cell_length_c                   11.6840(10)
_cell_angle_alpha                93.5160(10)
_cell_angle_beta                 114.8320(10)
_cell_angle_gamma                111.0780(10)
_cell_volume                     1099.88
_exptl_crystal_colour            colorless
_exptl_crystal_description       block
_cell_formula_units_Z            2
loop_
_atom_site_label
_atom_site_type_symbol
_atom_site_fract_x
_atom_site_fract_y
_atom_site_fract_z
C1 C 0.14840(12) 0.31643(11) -0.00893(10)
C2 C 0.05969(13) 0.17666(12) -0.05052(12)
H1 H 0.0338 0.1292 0.0075
C3 C 0.00934(14) 0.10697(13) -0.17540(12)
H2 H -0.0498 0.0122 -0.2021
C4 C 0.04531(16) 0.17568(15) -0.26144(12)
H3 H 0.0089 0.1282 -0.3476
C5 C 0.13386(17) 0.31290(15) -0.22177(12)
H4 H 0.1598 0.3595 -0.2803
C6 C 0.18546(15) 0.38358(12) -0.09598(11)
H5 H 0.2463 0.4781 -0.0694
C7 C 0.19871(12) 0.38649(10) 0.12492(10)
C8 C 0.28398(12) 0.53742(10) 0.18827(10)
C9 C 0.25848(12) 0.53833(10) 0.31046(10)
H6 H 0.1574 0.5445 0.2868
C10 C 0.45646(13) 0.58142(13) 0.22233(12)
H7 H 0.5027 0.5362 0.2868
H8 H 0.5136 0.6790 0.2585
H9 H 0.4628 0.5570 0.1434
C11 C 0.21679(16) 0.62651(11) 0.11070(12)
H10 H 0.2300 0.6250 0.0325
H11 H 0.2719 0.7189 0.1647
H12 H 0.1054 0.5926 0.0852
C12 C 0.38671(13) 0.64915(11) 0.43461(11)
H13 H 0.4215 0.6071 0.5075
H14 H 0.4775 0.6981 0.4212
C13 C 0.33230(13) 0.74861(11) 0.47155(11)
H15 H 0.2970 0.7900 0.3983
H16 H 0.2415 0.6994 0.4850
C14 C 0.45686(13) 0.85881(11) 0.59321(11)
C15 C 0.60354(15) 0.87582(14) 0.66126(14)
H17 H 0.6741 0.9476 0.7373
H18 H 0.6380 0.8162 0.6339
C16 C 0.41398(13) 0.95783(11) 0.64410(11)
C17 C 0.21121(14) 1.01718(11) 0.62207(11)
H19 H 0.2623 1.0419 0.7175
H20 H 0.0977 0.9738 0.5875
H21 H 0.2398 1.0982 0.5906
C18 C -0.06472(12) 0.29389(11) 0.28848(10)
C19 C -0.13110(13) 0.37124(12) 0.31875(11)
H22 H -0.0708 0.4436 0.3947
C20 C -0.28676(13) 0.34184(12) 0.23688(11)
H23 H -0.3333 0.3929 0.2590
C21 C -0.37544(13) 0.23882(11) 0.12309(11)
C22 C -0.30533(13) 0.16399(11) 0.09273(11)
H24 H -0.3639 0.0947 0.0144
C23 C -0.15148(13) 0.18932(11) 0.17530(11)
H25 H -0.1058 0.1362 0.1551
C24 C -0.54353(15) 0.20910(14) 0.03505(14)
H26 H -0.6096 0.1515 0.0678
H27 H -0.5752 0.1629 -0.0532
H28 H -0.5552 0.2935 0.0333
N1 N 0.17963(10) 0.31409(9) 0.20392(9)
N2 N 0.23830(11) 0.40006(9) 0.32670(9)
O1 O 0.13915(10) 0.20058(9) 0.40610(8)
O2 O 0.18442(10) 0.42507(9) 0.51171(8)
O3 O 0.26097(9) 0.92532(8) 0.57874(8)
O4 O 0.50472(11) 1.05563(10) 0.73454(11)
S1 S 0.12994(3) 0.32633(3) 0.39616(2)
loop_
_geom_bond_atom_site_label_1
_geom_bond_atom_site_label_2
_geom_bond_site_symmetry_1
_geom_bond_site_symmetry_2
C1 C2 1_555 1_555
C2 H1 1_555 1_555
C3 C2 1_555 1_555
H2 C3 1_555 1_555
C4 C3 1_555 1_555
H3 C4 1_555 1_555
C5 C4 1_555 1_555
H4 C5 1_555 1_555
C6 C1 1_555 1_555
H5 C6 1_555 1_555
C7 C1 1_555 1_555
C8 C7 1_555 1_555
C9 C8 1_555 1_555
H6 C9 1_555 1_555
C10 C8 1_555 1_555
H7 C10 1_555 1_555
H8 C10 1_555 1_555
H9 C10 1_555 1_555
C11 C8 1_555 1_555
H10 C11 1_555 1_555
H11 C11 1_555 1_555
H12 C11 1_555 1_555
C12 C9 1_555 1_555
H13 C12 1_555 1_555
H14 C12 1_555 1_555
C13 C12 1_555 1_555
H15 C13 1_555 1_555
H16 C13 1_555 1_555
C14 C13 1_555 1_555
C15 C14 1_555 1_555
H17 C15 1_555 1_555
H18 C15 1_555 1_555
C16 C14 1_555 1_555
C17 H19 1_555 1_555
H20 C17 1_555 1_555
H21 C17 1_555 1_555
C18 C19 1_555 1_555
C19 H22 1_555 1_555
C20 C19 1_555 1_555
H23 C20 1_555 1_555
C21 C20 1_555 1_555
C22 C21 1_555 1_555
H24 C22 1_555 1_555
C23 C18 1_555 1_555
H25 C23 1_555 1_555
C24 C21 1_555 1_555
H26 C24 1_555 1_555
H27 C24 1_555 1_555
H28 C24 1_555 1_555
N1 C7 1_555 1_555
N2 C9 1_555 1_555
O1 S1 1_555 1_555
O2 S1 1_555 1_555
O3 C16 1_555 1_555
O4 C16 1_555 1_555
S1 C18 1_555 1_555
C5 C6 1_555 1_555
C17 O3 1_555 1_555
C22 C23 1_555 1_555
N1 N2 1_555 1_555
N2 S1 1_555 1_555

#END
