
#######################################################################
#
#                 Cambridge Crystallographic Data Centre
#                                CCDC 
#
#######################################################################
#
# If this CIF has been generated from an entry in the Cambridge 
# Structural Database, then it will include bibliographic, chemical, 
# crystal, experimental, refinement or atomic coordinate data resulting 
# from the CCDC's data processing and validation procedures.
#
#######################################################################

data_FEBROW
_chemical_formula_moiety         'C17 H13 N1 O2'
_chemical_name_systematic        
(Z)-4-((biphenyl-4-yl)methylidene)-2-methyl-1,3-oxazol-5(4H)-one
_symmetry_cell_setting           triclinic
_symmetry_space_group_name_H-M   'P -1'
_symmetry_Int_Tables_number      2
_space_group_name_Hall           '-P 1'
loop_
_symmetry_equiv_pos_site_id
_symmetry_equiv_pos_as_xyz
1 x,y,z
2 -x,-y,-z
_cell_length_a                   7.1873(5)
_cell_length_b                   9.3467(7)
_cell_length_c                   9.6678(7)
_cell_angle_alpha                95.859(6)
_cell_angle_beta                 102.212(6)
_cell_angle_gamma                90.885(6)
_cell_volume                     630.988
_exptl_crystal_colour            yellow
_exptl_crystal_description       block
_cell_formula_units_Z            2
_exptl_crystal_recrystallization_method dichloromethane/hexane
_exptl_crystal_preparation       ', Luminescent'
loop_
_atom_site_label
_atom_site_type_symbol
_atom_site_fract_x
_atom_site_fract_y
_atom_site_fract_z
O1 O 0.58170(10) 0.10497(7) 0.90051(7)
O2 O 0.48593(11) -0.04883(8) 0.69977(8)
N1 N 0.48814(12) 0.31893(9) 0.82361(9)
C1 C 0.56595(14) 0.25245(11) 0.92876(11)
C2 C 0.50027(14) 0.07290(11) 0.75657(11)
C3 C 0.44387(14) 0.21213(11) 0.70578(11)
C4 C 0.37081(14) 0.22711(11) 0.56810(11)
H1 H 0.3610 0.1412 0.5049
C5 C 0.30473(14) 0.35490(11) 0.50158(11)
C6 C 0.26605(15) 0.34923(11) 0.35315(11)
H2 H 0.2862 0.2629 0.2983
C7 C 0.19904(15) 0.46684(11) 0.28493(11)
H3 H 0.1759 0.4605 0.1840
C8 C 0.16441(14) 0.59607(11) 0.36214(11)
C9 C 0.20566(14) 0.60145(11) 0.51063(11)
H4 H 0.1854 0.6877 0.5656
C10 C 0.27497(14) 0.48477(11) 0.57919(11)
H5 H 0.3030 0.4923 0.6803
C11 C 0.63995(17) 0.31288(12) 1.07780(11)
H6 H 0.5850 0.2576 1.1413
H7 H 0.6050 0.4136 1.0901
H8 H 0.7790 0.3076 1.1009
C12 C 0.08284(14) 0.72002(11) 0.28918(11)
C13 C -0.02451(15) 0.70099(12) 0.14972(11)
H9 H -0.0440 0.6070 0.1003
C14 C -0.10321(15) 0.81642(12) 0.08197(11)
H10 H -0.1739 0.8011 -0.0135
C15 C -0.07921(15) 0.95453(12) 0.15297(12)
H11 H -0.1342 1.0337 0.1070
C16 C 0.02568(15) 0.97553(11) 0.29154(12)
H12 H 0.0417 1.0696 0.3410
C17 C 0.10751(14) 0.86075(11) 0.35879(11)
H13 H 0.1813 0.8774 0.4532
loop_
_geom_bond_atom_site_label_1
_geom_bond_atom_site_label_2
_geom_bond_site_symmetry_1
_geom_bond_site_symmetry_2
O1 C1 1_555 1_555
O2 C2 1_555 1_555
N1 C1 1_555 1_555
C1 C11 1_555 1_555
C2 O1 1_555 1_555
C3 N1 1_555 1_555
C4 C3 1_555 1_555
H1 C4 1_555 1_555
C5 C4 1_555 1_555
C6 C5 1_555 1_555
H2 C6 1_555 1_555
C7 C6 1_555 1_555
H3 C7 1_555 1_555
C8 C7 1_555 1_555
C9 C8 1_555 1_555
H4 C9 1_555 1_555
C10 C5 1_555 1_555
H5 C10 1_555 1_555
C11 H6 1_555 1_555
H7 C11 1_555 1_555
H8 C11 1_555 1_555
C12 C8 1_555 1_555
C13 C12 1_555 1_555
H9 C13 1_555 1_555
C14 C13 1_555 1_555
H10 C14 1_555 1_555
C15 C14 1_555 1_555
H11 C15 1_555 1_555
C16 C15 1_555 1_555
H12 C16 1_555 1_555
C17 C12 1_555 1_555
H13 C17 1_555 1_555
C2 C3 1_555 1_555
C9 C10 1_555 1_555
C16 C17 1_555 1_555

#END
