
#######################################################################
#
#                 Cambridge Crystallographic Data Centre
#                                CCDC 
#
#######################################################################
#
# If this CIF has been generated from an entry in the Cambridge 
# Structural Database, then it will include bibliographic, chemical, 
# crystal, experimental, refinement or atomic coordinate data resulting 
# from the CCDC's data processing and validation procedures.
#
#######################################################################

data_FEBSIR
_chemical_name_common            '2-aminobenzoic acid pyridine-3-carboxamide'
_chemical_formula_moiety         'C7 H7 N1 O2,C6 H6 N2 O1'
_chemical_name_systematic        '2-Aminobenzoic acid nicotinamide'
_symmetry_cell_setting           monoclinic
_symmetry_space_group_name_H-M   'P 21'
_symmetry_Int_Tables_number      4
_space_group_name_Hall           'P 2yb'
loop_
_symmetry_equiv_pos_site_id
_symmetry_equiv_pos_as_xyz
1 x,y,z
2 -x,1/2+y,-z
_cell_length_a                   10.479(2)
_cell_length_b                   4.9873(9)
_cell_length_c                   12.644(3)
_cell_angle_alpha                90
_cell_angle_beta                 109.361(5)
_cell_angle_gamma                90
_cell_volume                     623.43
_exptl_crystal_colour            colorless
_exptl_crystal_description       needle-plate
_cell_formula_units_Z            2
loop_
_atom_site_label
_atom_site_type_symbol
_atom_site_fract_x
_atom_site_fract_y
_atom_site_fract_z
C1 C 0.0787(2) 0.8813(5) 0.68144(18)
C2 C -0.0134(2) 0.7129(5) 0.7082(2)
H1 H -0.0613 0.5864 0.6561
C3 C -0.0342(3) 0.7301(5) 0.8083(3)
H2 H -0.0964 0.6162 0.8232
C4 C 0.0356(2) 0.9142(6) 0.8888(2)
H3 H 0.021 0.9244 0.9574
C5 C 0.1265(2) 1.0808(5) 0.86529(19)
H4 H 0.1735 1.2055 0.9187
C6 C 0.1505(2) 1.0682(5) 0.76314(18)
C7 C 0.2494(2) 1.2516(4) 0.74230(16)
O1 O 0.31317(16) 1.4066(4) 0.82782(13)
H5 H 0.371(3) 1.524(8) 0.808(3)
O2 O 0.27321(19) 1.2637(4) 0.65458(14)
N1 N 0.0924(3) 0.8617(6) 0.57744(18)
H6 H 0.060(3) 0.712(8) 0.541(3)
H7 H 0.170(3) 0.949(7) 0.573(2)
C8 C 0.5287(2) 0.8068(5) 0.71258(17)
H8 H 0.4879 0.7082 0.6477
N2 N 0.49379(18) 0.7545(4) 0.80244(15)
C9 C 0.5543(2) 0.8917(6) 0.89530(18)
H9 H 0.5318 0.8535 0.9589
C10 C 0.6486(3) 1.0874(6) 0.9020(2)
H10 H 0.6894 1.1796 0.9687
C11 C 0.6814(2) 1.1439(5) 0.8079(2)
H11 H 0.7434 1.2788 0.8097
C12 C 0.6224(2) 1.0002(4) 0.71067(17)
C13 C 0.6607(2) 1.0578(5) 0.60906(18)
O3 O 0.69416(19) 1.2858(3) 0.59138(15)
N3 N 0.6551(2) 0.8528(4) 0.54095(16)
H12 H 0.680(2) 0.885(6) 0.4823(19)
H13 H 0.647(3) 0.686(7) 0.562(2)
loop_
_geom_bond_atom_site_label_1
_geom_bond_atom_site_label_2
_geom_bond_site_symmetry_1
_geom_bond_site_symmetry_2
C1 C2 1_555 1_555
C2 H1 1_555 1_555
C3 C2 1_555 1_555
H2 C3 1_555 1_555
C4 C3 1_555 1_555
H3 C4 1_555 1_555
C5 C4 1_555 1_555
H4 C5 1_555 1_555
C6 C1 1_555 1_555
C7 C6 1_555 1_555
O1 C7 1_555 1_555
H5 O1 1_555 1_555
O2 C7 1_555 1_555
N1 C1 1_555 1_555
H6 N1 1_555 1_555
H7 N1 1_555 1_555
C8 H8 1_555 1_555
N2 C8 1_555 1_555
C9 N2 1_555 1_555
H9 C9 1_555 1_555
C10 C9 1_555 1_555
H10 C10 1_555 1_555
C11 C10 1_555 1_555
H11 C11 1_555 1_555
C12 C8 1_555 1_555
C13 C12 1_555 1_555
O3 C13 1_555 1_555
N3 C13 1_555 1_555
H12 N3 1_555 1_555
H13 N3 1_555 1_555
C5 C6 1_555 1_555
C11 C12 1_555 1_555

#END
