
#######################################################################
#
#                 Cambridge Crystallographic Data Centre
#                                CCDC 
#
#######################################################################
#
# If this CIF has been generated from an entry in the Cambridge 
# Structural Database, then it will include bibliographic, chemical, 
# crystal, experimental, refinement or atomic coordinate data resulting 
# from the CCDC's data processing and validation procedures.
#
#######################################################################

data_FEBSEN
_chemical_formula_moiety         '2(C7 H5 N1 O4),C1 H4 N2 O1'
_chemical_name_systematic        'bis(2-nitrobenzoic acid) urea'
_symmetry_cell_setting           monoclinic
_symmetry_space_group_name_H-M   'P 21/n'
_symmetry_Int_Tables_number      14
_space_group_name_Hall           '-P 2yn'
loop_
_symmetry_equiv_pos_site_id
_symmetry_equiv_pos_as_xyz
1 x,y,z
2 1/2-x,1/2+y,1/2-z
3 -x,-y,-z
4 1/2+x,1/2-y,1/2+z
_cell_length_a                   11.8242(18)
_cell_length_b                   10.0350(15)
_cell_length_c                   15.060(2)
_cell_angle_alpha                90
_cell_angle_beta                 104.953(2)
_cell_angle_gamma                90
_cell_volume                     1726.45
_exptl_crystal_colour            colorless
_exptl_crystal_description       Block
_cell_formula_units_Z            4
loop_
_atom_site_label
_atom_site_type_symbol
_atom_site_fract_x
_atom_site_fract_y
_atom_site_fract_z
C1 C 0.69431(14) 0.61853(16) 0.68141(11)
H1 H 0.7365 0.5401 0.6976
C2 C 0.68124(15) 0.70385(17) 0.74946(11)
H2 H 0.7162 0.6837 0.8107
C3 C 0.61704(15) 0.81830(17) 0.72756(11)
H3 H 0.6061 0.8741 0.774
C4 C 0.56882(14) 0.85062(16) 0.63724(11)
H4 H 0.5259 0.9287 0.6218
C5 C 0.58482(12) 0.76574(14) 0.56972(10)
C6 C 0.64605(12) 0.64666(14) 0.58906(10)
C7 C 0.65220(12) 0.54931(14) 0.51610(10)
O1 O 0.73094(11) 0.45639(12) 0.54510(8)
H5 H 0.7259(19) 0.3995(18) 0.5034(11)
O2 O 0.58941(9) 0.55410(10) 0.43895(7)
N1 N 0.53872(12) 0.81129(13) 0.47483(9)
O3 O 0.60807(12) 0.84580(13) 0.43288(8)
O4 O 0.43428(12) 0.81768(19) 0.44412(10)
C8 C 0.69983(13) 0.26442(16) 0.33986(11)
O5 O 0.73122(10) 0.26453(11) 0.42612(7)
N2 N 0.65153(15) 0.37302(16) 0.29458(11)
H6 H 0.6298(16) 0.4379(16) 0.3266(12)
H7 H 0.6263(16) 0.371(2) 0.2350(7)
N3 N 0.71443(15) 0.15682(16) 0.29326(10)
H8 H 0.6983(16) 0.157(2) 0.2328(7)
H9 H 0.7579(14) 0.0905(15) 0.3219(12)
C9 C 0.92104(14) 0.89027(16) 0.66328(10)
H10 H 0.8944 0.9707 0.6809
C10 C 0.97570(15) 0.80121(18) 0.72981(11)
H11 H 0.9849 0.8214 0.7915
C11 C 1.01668(16) 0.68280(18) 0.70549(12)
H12 H 1.0541 0.623 0.7507
C12 C 1.00265(16) 0.65223(17) 0.61456(12)
H13 H 1.0307 0.5721 0.5976
C13 C 0.94637(13) 0.74183(14) 0.54872(10)
C14 C 0.90459(12) 0.86322(14) 0.57053(10)
C15 C 0.85202(12) 0.96386(14) 0.49909(10)
H14 H 0.7776(18) 1.1189(17) 0.4913(11)
O6 O 0.80127(12) 1.06039(12) 0.53164(8)
O7 O 0.85824(10) 0.95630(11) 0.42042(7)
N4 N 0.92872(13) 0.70063(13) 0.45314(9)
O8 O 1.01019(14) 0.70031(19) 0.41985(11)
O9 O 0.83264(13) 0.66269(16) 0.41283(9)
loop_
_geom_bond_atom_site_label_1
_geom_bond_atom_site_label_2
_geom_bond_site_symmetry_1
_geom_bond_site_symmetry_2
C1 H1 1_555 1_555
C2 C1 1_555 1_555
H2 C2 1_555 1_555
C3 C2 1_555 1_555
H3 C3 1_555 1_555
C4 C3 1_555 1_555
H4 C4 1_555 1_555
C5 C4 1_555 1_555
C6 C1 1_555 1_555
C7 C6 1_555 1_555
O1 C7 1_555 1_555
H5 O1 1_555 1_555
O2 C7 1_555 1_555
N1 C5 1_555 1_555
O3 N1 1_555 1_555
O4 N1 1_555 1_555
C8 O5 1_555 1_555
N2 C8 1_555 1_555
H6 N2 1_555 1_555
H7 N2 1_555 1_555
N3 C8 1_555 1_555
H8 N3 1_555 1_555
H9 N3 1_555 1_555
C9 H10 1_555 1_555
C10 C9 1_555 1_555
H11 C10 1_555 1_555
C11 C10 1_555 1_555
H12 C11 1_555 1_555
C12 C11 1_555 1_555
H13 C12 1_555 1_555
C13 C12 1_555 1_555
C14 C9 1_555 1_555
C15 C14 1_555 1_555
H14 O6 1_555 1_555
O6 C15 1_555 1_555
O7 C15 1_555 1_555
N4 C13 1_555 1_555
O8 N4 1_555 1_555
O9 N4 1_555 1_555
C5 C6 1_555 1_555
C13 C14 1_555 1_555

#END
