
#######################################################################
#
#                 Cambridge Crystallographic Data Centre
#                                CCDC 
#
#######################################################################
#
# If this CIF has been generated from an entry in the Cambridge 
# Structural Database, then it will include bibliographic, chemical, 
# crystal, experimental, refinement or atomic coordinate data resulting 
# from the CCDC's data processing and validation procedures.
#
#######################################################################

data_FEBSUB
_chemical_formula_moiety         
'2(C24 H13 O16 S8 3-),4(C10 H9 N2 1+),C10 H10 N2 2+,9(H2 O1)'
_chemical_name_systematic        
"bis(5,11,17-tris(Sulfonato)-23-(hydrogen sulfonato)-25,26,27,28-tetrahydroxy-2,8,14,20-tetrathiacalix(4)arene) tetrakis(2,2'-bipyridine-1-ium) 2,2'-bipyridine-1,1'-di-ium clathrate nonahydrate"
_symmetry_cell_setting           triclinic
_symmetry_space_group_name_H-M   'P -1'
_symmetry_Int_Tables_number      2
_space_group_name_Hall           '-P 1'
loop_
_symmetry_equiv_pos_site_id
_symmetry_equiv_pos_as_xyz
1 x,y,z
2 -x,-y,-z
_cell_length_a                   14.634(4)
_cell_length_b                   14.812(4)
_cell_length_c                   15.798(5)
_cell_angle_alpha                108.907(4)
_cell_angle_beta                 101.396(4)
_cell_angle_gamma                99.676(5)
_cell_volume                     3074.66
_exptl_crystal_colour            colorless
_exptl_crystal_description       block
_cell_formula_units_Z            1
loop_
_atom_site_label
_atom_site_type_symbol
_atom_site_fract_x
_atom_site_fract_y
_atom_site_fract_z
S1 S 0.34413(11) 0.97343(13) 0.01134(12)
S2 S 0.03025(11) 0.72124(12) 0.03005(12)
S3 S 0.23250(11) 0.43397(11) 0.00142(12)
S4 S 0.55699(12) 0.69994(12) 0.01838(14)
S5 S 0.18252(12) 1.08409(12) 0.30402(11)
S6 S 0.02949(19) 0.51510(17) 0.26156(17)
S7 S 0.56384(16) 0.52099(16) 0.27351(16)
H1 H 0.701(7) 0.599(9) 0.315(9)
S8 S 0.67190(18) 1.06399(19) 0.29404(18)
O1 O 0.1935(4) 0.7874(3) -0.0469(3)
H2 H 0.1403 0.7489 -0.0727
O2 O 0.1642(3) 0.6009(3) -0.0395(3)
H3 H 0.2015 0.5674 -0.0558
O3 O 0.3490(3) 0.5820(4) -0.0521(4)
H4 H 0.3834 0.5850 -0.0868
O4 O 0.3944(4) 0.7778(4) -0.0535(4)
H5 H 0.3457 0.7969 -0.0649
O5 O 0.1858(4) 1.0394(4) 0.3720(3)
O6 O 0.2640(4) 1.1669(4) 0.3287(4)
O7 O 0.0907(4) 1.1069(4) 0.2791(3)
O8 O 0.1088(6) 0.5578(8) 0.3414(5)
O9 O -0.0493(5) 0.5611(5) 0.2727(5)
O10 O -0.0039(7) 0.4095(5) 0.2290(6)
O11 O 0.4994(6) 0.5116(8) 0.3282(6)
O12 O 0.5816(8) 0.4273(6) 0.2333(6)
O13 O 0.6394(9) 0.6015(7) 0.3224(7)
O14 O 0.6777(7) 1.0099(8) 0.3607(5)
O15 O 0.7605(5) 1.0778(7) 0.2767(6)
O16 O 0.6306(7) 1.1408(7) 0.3283(7)
C1 C 0.1913(4) 0.8528(4) 0.0338(4)
C2 C 0.2595(4) 0.9449(4) 0.0719(4)
C3 C 0.2574(4) 1.0149(4) 0.1548(4)
H9 H 0.3015 1.0761 0.1793
C4 C 0.1903(4) 0.9944(4) 0.2011(4)
C5 C 0.1246(4) 0.9029(4) 0.1643(4)
H10 H 0.0802 0.8888 0.1959
C6 C 0.1243(4) 0.8331(4) 0.0823(4)
C7 C 0.1356(4) 0.5818(4) 0.0296(4)
C8 C 0.0768(4) 0.6357(4) 0.0735(4)
C9 C 0.0445(4) 0.6144(4) 0.1427(4)
H11 H 0.0047 0.6497 0.1709
C10 C 0.0706(5) 0.5416(5) 0.1705(5)
C11 C 0.1297(4) 0.4876(4) 0.1289(4)
H12 H 0.1464 0.4378 0.1477
C12 C 0.1635(4) 0.5080(4) 0.0598(4)
C13 C 0.3996(4) 0.5720(4) 0.0241(4)
C14 C 0.3524(4) 0.5071(4) 0.0599(5)
C15 C 0.4029(5) 0.4947(4) 0.1368(5)
H13 H 0.3727 0.4518 0.1605
C16 C 0.4993(5) 0.5460(4) 0.1795(5)
C17 C 0.5443(5) 0.6097(4) 0.1441(5)
H14 H 0.6086 0.6433 0.1724
C18 C 0.4954(4) 0.6241(4) 0.0678(5)
C19 C 0.4565(4) 0.8443(5) 0.0266(4)
C20 C 0.5347(4) 0.8164(4) 0.0711(5)
C21 C 0.5988(4) 0.8848(5) 0.1523(5)
H15 H 0.6505 0.8673 0.1820
C22 C 0.5870(4) 0.9789(5) 0.1897(5)
C23 C 0.5101(4) 1.0054(5) 0.1459(4)
H16 H 0.5029 1.0690 0.1709
C24 C 0.4441(4) 0.9388(4) 0.0658(4)
N1 N 0.3246(5) 0.8621(6) 0.4049(5)
N2 N 0.3874(6) 1.0605(8) 0.5108(8)
H6 H 0.3586 1.0178 0.5292
C25 C 0.2952(7) 0.7646(8) 0.3515(9)
H17 H 0.2629 0.7200 0.3723
C26 C 0.3143(10) 0.7322(13) 0.2644(12)
H18 H 0.2949 0.6666 0.2242
C27 C 0.3665(15) 0.809(2) 0.2425(12)
H19 H 0.3828 0.7905 0.1865
C28 C 0.3918(9) 0.8988(13) 0.2917(9)
H20 H 0.4235 0.9454 0.2727
C29 C 0.3710(5) 0.9237(8) 0.3724(6)
C30 C 0.4051(6) 1.0308(8) 0.4286(8)
C31 C 0.4558(7) 1.0978(9) 0.4063(9)
H21 H 0.4727 1.0769 0.3507
C32 C 0.4841(10) 1.1932(11) 0.4585(15)
H22 H 0.5177 1.2377 0.4384
C33 C 0.4630(10) 1.2253(12) 0.5428(13)
H23 H 0.4827 1.2918 0.5806
C34 C 0.4149(9) 1.1614(13) 0.5691(10)
H24 H 0.3991 1.1820 0.6253
N3 N 0.9137(4) 0.9124(4) 0.2938(4)
N4 N 0.9716(4) 1.1045(4) 0.3996(4)
H7 H 0.9879 1.0776 0.3498
C35 C 0.8872(5) 0.8155(6) 0.2407(5)
H25 H 0.9038 0.7958 0.1848
C36 C 0.8377(6) 0.7448(6) 0.2638(6)
H26 H 0.8199 0.6789 0.2245
C37 C 0.8148(6) 0.7744(7) 0.3478(7)
H27 H 0.7827 0.7278 0.3665
C38 C 0.8391(5) 0.8718(6) 0.4031(5)
H28 H 0.8228 0.8924 0.4591
C39 C 0.8884(4) 0.9392(5) 0.3745(4)
C40 C 0.9171(4) 1.0442(5) 0.4299(4)
C41 C 0.8933(5) 1.0871(6) 0.5113(5)
H29 H 0.8583 1.0492 0.5365
C42 C 0.9247(6) 1.1923(8) 0.5556(6)
H30 H 0.9093 1.2240 0.6102
C43 C 0.9766(7) 1.2455(7) 0.5179(7)
H31 H 0.9953 1.3139 0.5460
C44 C 1.0009(7) 1.2009(6) 0.4411(6)
H32 H 1.0386 1.2376 0.4169
N5 N 0.9255(5) 1.0110(7) 0.0805(6)
H8 H 0.9542 1.0697 0.1193
C45 C 0.8446(9) 0.9576(13) 0.0941(10)
H33 H 0.8201 0.9854 0.1438
C46 C 0.8031(8) 0.8637(13) 0.0326(13)
H34 H 0.7506 0.8259 0.0410
C47 C 0.8378(8) 0.8256(8) -0.0404(11)
H35 H 0.8076 0.7620 -0.0827
C48 C 0.9163(5) 0.8779(6) -0.0539(6)
H36 H 0.9401 0.8499 -0.1040
C49 C 0.9583(5) 0.9701(6) 0.0062(6)
N5A N 1.0745(5) 0.9890(7) -0.0805(6)
H8A H 1.0458 0.9303 -0.1193
C45A C 1.1554(9) 1.0424(13) -0.0941(10)
H33A H 1.1799 1.0146 -0.1438
C46A C 1.1969(8) 1.1363(13) -0.0326(13)
H34A H 1.2494 1.1741 -0.0410
C47A C 1.1622(8) 1.1744(8) 0.0404(11)
H35A H 1.1924 1.2380 0.0827
C48A C 1.0837(5) 1.1221(6) 0.0539(6)
H36A H 1.0599 1.1501 0.1040
C49A C 1.0417(5) 1.0299(6) -0.0062(6)
O17 O 0.7253(11) 0.6573(10) 0.5163(8)
O18 O 0.7826(10) 0.4108(13) 0.2382(12)
O19 O -0.1221(15) 0.6964(13) 0.7283(15)
O20 O 0.1020(18) 0.7983(16) 0.7677(15)
O22 O 0.473(2) 0.737(2) 0.746(2)
O23 O 0.624(3) 0.721(3) 0.755(3)
O24 O 0.724(2) 0.579(3) 0.709(2)
O28 O 0.885(2) 0.562(2) 0.539(2)
O29 O 0.738(3) 0.323(3) 0.459(3)
O30 O 0.604(4) 0.411(4) 0.469(4)
O21? O 0.011(2) 0.771(2) 0.778(2)
O25? O 0.561(2) 0.7576(18) 0.794(2)
O26? O 0.709(2) 0.656(2) 0.7527(19)
O27? O 0.685(3) 0.463(3) 0.632(3)
loop_
_geom_bond_atom_site_label_1
_geom_bond_atom_site_label_2
_geom_bond_site_symmetry_1
_geom_bond_site_symmetry_2
S1 C2 1_555 1_555
S2 C6 1_555 1_555
S3 C12 1_555 1_555
S4 C18 1_555 1_555
S5 O5 1_555 1_555
S6 O8 1_555 1_555
S7 O11 1_555 1_555
H1 O13 1_555 1_555
S8 O14 1_555 1_555
O1 H2 1_555 1_555
O2 H3 1_555 1_555
O3 H4 1_555 1_555
O4 H5 1_555 1_555
O6 S5 1_555 1_555
O7 S5 1_555 1_555
O9 S6 1_555 1_555
O10 S6 1_555 1_555
O12 S7 1_555 1_555
O13 S7 1_555 1_555
O15 S8 1_555 1_555
O16 S8 1_555 1_555
N1 C25 1_555 1_555
N2 H6 1_555 1_555
N3 C35 1_555 1_555
N4 H7 1_555 1_555
N5 H8 1_555 1_555
C1 O1 1_555 1_555
C2 C1 1_555 1_555
C3 C2 1_555 1_555
H9 C3 1_555 1_555
C4 S5 1_555 1_555
C5 C4 1_555 1_555
H10 C5 1_555 1_555
C6 C1 1_555 1_555
C7 O2 1_555 1_555
C8 S2 1_555 1_555
C9 C8 1_555 1_555
H11 C9 1_555 1_555
C10 S6 1_555 1_555
C11 C10 1_555 1_555
H12 C11 1_555 1_555
C12 C7 1_555 1_555
C13 O3 1_555 1_555
C14 S3 1_555 1_555
C15 C14 1_555 1_555
H13 C15 1_555 1_555
C16 S7 1_555 1_555
C17 C16 1_555 1_555
H14 C17 1_555 1_555
C18 C13 1_555 1_555
C19 O4 1_555 1_555
C20 S4 1_555 1_555
C21 C20 1_555 1_555
H15 C21 1_555 1_555
C22 S8 1_555 1_555
C23 C22 1_555 1_555
H16 C23 1_555 1_555
C24 S1 1_555 1_555
C25 H17 1_555 1_555
C26 C25 1_555 1_555
H18 C26 1_555 1_555
C27 C26 1_555 1_555
H19 C27 1_555 1_555
C28 C27 1_555 1_555
H20 C28 1_555 1_555
C29 N1 1_555 1_555
C30 N2 1_555 1_555
C31 C30 1_555 1_555
H21 C31 1_555 1_555
C32 C31 1_555 1_555
H22 C32 1_555 1_555
C33 C32 1_555 1_555
H23 C33 1_555 1_555
C34 N2 1_555 1_555
H24 C34 1_555 1_555
C35 H25 1_555 1_555
C36 C35 1_555 1_555
H26 C36 1_555 1_555
C37 C36 1_555 1_555
H27 C37 1_555 1_555
C38 C37 1_555 1_555
H28 C38 1_555 1_555
C39 N3 1_555 1_555
C40 N4 1_555 1_555
C41 C40 1_555 1_555
H29 C41 1_555 1_555
C42 C41 1_555 1_555
H30 C42 1_555 1_555
C43 C42 1_555 1_555
H31 C43 1_555 1_555
C44 N4 1_555 1_555
H32 C44 1_555 1_555
C45 N5 1_555 1_555
H33 C45 1_555 1_555
C46 C45 1_555 1_555
H34 C46 1_555 1_555
C47 C46 1_555 1_555
H35 C47 1_555 1_555
C48 C47 1_555 1_555
H36 C48 1_555 1_555
C49 N5 1_555 1_555
N5A H8A 1_555 1_555
C45A N5A 1_555 1_555
H33A C45A 1_555 1_555
C46A C45A 1_555 1_555
H34A C46A 1_555 1_555
C47A C46A 1_555 1_555
H35A C47A 1_555 1_555
C48A C47A 1_555 1_555
H36A C48A 1_555 1_555
C49A C49 1_555 1_555
C3 C4 1_555 1_555
C5 C6 1_555 1_555
C7 C8 1_555 1_555
C9 C10 1_555 1_555
C11 C12 1_555 1_555
C13 C14 1_555 1_555
C15 C16 1_555 1_555
C17 C18 1_555 1_555
C19 C20 1_555 1_555
C19 C24 1_555 1_555
C21 C22 1_555 1_555
C23 C24 1_555 1_555
C28 C29 1_555 1_555
C29 C30 1_555 1_555
C33 C34 1_555 1_555
C38 C39 1_555 1_555
C39 C40 1_555 1_555
C43 C44 1_555 1_555
C48 C49 1_555 1_555
N5A C49A 1_555 1_555
C48A C49A 1_555 1_555

#END
