
#######################################################################
#
#                 Cambridge Crystallographic Data Centre
#                                CCDC 
#
#######################################################################
#
# If this CIF has been generated from an entry in the Cambridge 
# Structural Database, then it will include bibliographic, chemical, 
# crystal, experimental, refinement or atomic coordinate data resulting 
# from the CCDC's data processing and validation procedures.
#
#######################################################################

data_FEBTOY
_chemical_formula_moiety         'C20 H13 F1 N2 O1'
_chemical_name_systematic        
2-(3-fluorophenyl)-3-phenylquinazolin-4(3H)-one
_symmetry_cell_setting           monoclinic
_symmetry_space_group_name_H-M   'P 21/n'
_symmetry_Int_Tables_number      14
_space_group_name_Hall           '-P 2yn'
loop_
_symmetry_equiv_pos_site_id
_symmetry_equiv_pos_as_xyz
1 x,y,z
2 1/2-x,1/2+y,1/2-z
3 -x,-y,-z
4 1/2+x,1/2-y,1/2+z
_cell_length_a                   9.17425(19)
_cell_length_b                   7.88736(13)
_cell_length_c                   21.7312(4)
_cell_angle_alpha                90
_cell_angle_beta                 99.3556(19)
_cell_angle_gamma                90
_cell_volume                     1551.57
_exptl_crystal_colour            colorless
_exptl_crystal_description       block
_cell_formula_units_Z            4
loop_
_atom_site_label
_atom_site_type_symbol
_atom_site_fract_x
_atom_site_fract_y
_atom_site_fract_z
O1 O 0.62858(10) 0.52559(11) 0.64972(4)
N1 N 0.30326(11) 0.84764(12) 0.68490(4)
N2 N 0.51331(10) 0.67497(12) 0.71800(4)
C1 C 0.53173(12) 0.62531(14) 0.65764(5)
C2 C 0.42547(13) 0.70129(14) 0.60818(5)
C3 C 0.43481(14) 0.66730(16) 0.54558(6)
H1 H 0.5104 0.5989 0.5358
C4 C 0.33267(15) 0.73471(17) 0.49862(6)
H2 H 0.3383 0.7110 0.4572
C5 C 0.22030(15) 0.83914(17) 0.51361(6)
H3 H 0.1509 0.8842 0.4818
C6 C 0.21094(14) 0.87628(16) 0.57492(6)
H4 H 0.1365 0.9472 0.5842
C7 C 0.31394(13) 0.80680(14) 0.62326(5)
C8 C 0.40047(12) 0.78457(14) 0.72824(5)
C9 C 0.39319(12) 0.83146(14) 0.79424(5)
C10 C 0.26659(13) 0.78932(15) 0.81863(6)
H5 H 0.1882 0.7342 0.7941
C11 C 0.25943(15) 0.83077(16) 0.87991(6)
H6 H 0.1758 0.8006 0.8965
F1 F 0.59583(15) 1.04049(17) 0.92779(6)
C12 C 0.37235(16) 0.91542(16) 0.91717(6)
H7 H 0.3659 0.9428 0.9583
C13 C 0.49545(15) 0.95812(15) 0.89135(5)
C14 C 0.50901(13) 0.91768(14) 0.83079(5)
H8 H 0.5934 0.9472 0.8147
C15 C 0.60979(12) 0.59908(14) 0.76984(5)
C16 C 0.55265(13) 0.48046(14) 0.80656(5)
H9 H 0.4548 0.4456 0.7968
C17 C 0.64392(15) 0.41482(15) 0.85811(6)
H10 H 0.6071 0.3355 0.8833
C18 C 0.78998(15) 0.46678(17) 0.87241(6)
H11 H 0.8502 0.4240 0.9075
C19 C 0.84619(14) 0.58262(17) 0.83432(6)
H12 H 0.9447 0.6154 0.8435
C20 C 0.75630(13) 0.64968(15) 0.78266(6)
H13 H 0.7936 0.7273 0.7570
H14? H 0.5721 1.0163 0.9157
F2? F 0.15326(18) 0.7856(2) 0.90920(8)
loop_
_geom_bond_atom_site_label_1
_geom_bond_atom_site_label_2
_geom_bond_site_symmetry_1
_geom_bond_site_symmetry_2
O1 C1 1_555 1_555
N1 C7 1_555 1_555
N2 C1 1_555 1_555
C1 C2 1_555 1_555
C2 C3 1_555 1_555
C3 H1 1_555 1_555
C4 C3 1_555 1_555
H2 C4 1_555 1_555
C5 C4 1_555 1_555
H3 C5 1_555 1_555
C6 C5 1_555 1_555
H4 C6 1_555 1_555
C7 C2 1_555 1_555
C8 N1 1_555 1_555
C9 C8 1_555 1_555
C10 C9 1_555 1_555
H5 C10 1_555 1_555
C11 C10 1_555 1_555
H6 C11 1_555 1_555
F1 C13 1_555 1_555
C12 C11 1_555 1_555
H7 C12 1_555 1_555
C13 C12 1_555 1_555
C14 C9 1_555 1_555
H8 C14 1_555 1_555
C15 N2 1_555 1_555
C16 C15 1_555 1_555
H9 C16 1_555 1_555
C17 C16 1_555 1_555
H10 C17 1_555 1_555
C18 C17 1_555 1_555
H11 C18 1_555 1_555
C19 C18 1_555 1_555
H12 C19 1_555 1_555
C20 C15 1_555 1_555
H13 C20 1_555 1_555
N2 C8 1_555 1_555
C6 C7 1_555 1_555
C13 C14 1_555 1_555
C19 C20 1_555 1_555

#END
