
#######################################################################
#
#                 Cambridge Crystallographic Data Centre
#                                CCDC 
#
#######################################################################
#
# If this CIF has been generated from an entry in the Cambridge 
# Structural Database, then it will include bibliographic, chemical, 
# crystal, experimental, refinement or atomic coordinate data resulting 
# from the CCDC's data processing and validation procedures.
#
#######################################################################

data_FEBVOA
_chemical_formula_moiety         'C20 H26 O2'
_chemical_name_systematic        kaura-1,15-diene-12,14-dione
_symmetry_cell_setting           triclinic
_symmetry_space_group_name_H-M   'P -1'
_symmetry_Int_Tables_number      2
_space_group_name_Hall           '-P 1'
loop_
_symmetry_equiv_pos_site_id
_symmetry_equiv_pos_as_xyz
1 x,y,z
2 -x,-y,-z
_cell_length_a                   6.1485(5)
_cell_length_b                   8.5900(7)
_cell_length_c                   16.0047(11)
_cell_angle_alpha                95.985(6)
_cell_angle_beta                 95.246(6)
_cell_angle_gamma                101.426(7)
_cell_volume                     818.564
_exptl_crystal_colour            colorless
_exptl_crystal_description       block
_cell_formula_units_Z            2
loop_
_atom_site_label
_atom_site_type_symbol
_atom_site_fract_x
_atom_site_fract_y
_atom_site_fract_z
O1 O 0.2971(3) 0.6880(3) 0.48272(11)
O2 O 0.3851(2) 0.74889(19) 0.22757(9)
C1 C 0.1934(4) 0.7117(3) 0.41946(13)
C2 C -0.0433(3) 0.6231(2) 0.39216(11)
H1 H -0.1412 0.6788 0.4222
H2 H -0.0597 0.5177 0.4105
C3 C -0.1280(3) 0.6010(2) 0.29607(10)
H3 H -0.2847 0.6106 0.2928
C4 C -0.0058(3) 0.7416(2) 0.25169(11)
C5 C 0.2467(3) 0.7656(2) 0.27387(12)
C6 C 0.2886(3) 0.8390(3) 0.36587(12)
H4 H 0.4449 0.8907 0.3844
C7 C 0.1328(3) 0.9556(2) 0.36111(12)
C8 C -0.0302(3) 0.8986(2) 0.29866(11)
H5 H -0.1466 0.9494 0.2852
C9 C -0.0808(3) 0.7217(2) 0.15697(11)
H6 H -0.2282 0.7458 0.1483
H7 H 0.0207 0.7986 0.1309
C10 C -0.0884(3) 0.5541(2) 0.11315(11)
H8 H -0.1495 0.5460 0.0544
H9 H 0.0620 0.5346 0.1145
C11 C -0.2319(3) 0.4284(2) 0.15674(10)
H10 H -0.3704 0.4670 0.1619
C12 C -0.1301(3) 0.4310(2) 0.24985(11)
C13 C -0.2832(3) 0.3066(2) 0.28926(12)
H11 H -0.2727 0.3153 0.3480
C14 C -0.4308(3) 0.1865(2) 0.24590(13)
H12 H -0.5136 0.1145 0.2764
C15 C -0.4759(3) 0.1567(3) 0.15250(13)
H13 H -0.6239 0.1746 0.1361
H14 H -0.4774 0.0450 0.1347
C16 C -0.3087(3) 0.2601(2) 0.10462(11)
C17 C 0.1688(4) 1.1034(3) 0.42308(14)
H15 H 0.3033 1.1754 0.4144
H16 H 0.1818 1.0754 0.4796
H17 H 0.0444 1.1546 0.4151
C18 C 0.1067(3) 0.3946(2) 0.25979(12)
H18 H 0.0966 0.2815 0.2471
H19 H 0.1745 0.4296 0.3169
H20 H 0.1960 0.4502 0.2216
C19 C -0.1180(4) 0.1759(3) 0.08655(14)
H21 H -0.0013 0.2488 0.0661
H22 H -0.1727 0.0848 0.0446
H23 H -0.0603 0.1413 0.1376
C20 C -0.4334(4) 0.2761(3) 0.01890(13)
H24 H -0.5419 0.3407 0.0280
H25 H -0.5076 0.1718 -0.0084
H26 H -0.3286 0.3256 -0.0163
loop_
_geom_bond_atom_site_label_1
_geom_bond_atom_site_label_2
_geom_bond_site_symmetry_1
_geom_bond_site_symmetry_2
O1 C1 1_555 1_555
O2 C5 1_555 1_555
C1 C2 1_555 1_555
C2 H1 1_555 1_555
H2 C2 1_555 1_555
C3 C2 1_555 1_555
H3 C3 1_555 1_555
C4 C3 1_555 1_555
C5 C4 1_555 1_555
C6 C1 1_555 1_555
H4 C6 1_555 1_555
C7 C6 1_555 1_555
C8 C4 1_555 1_555
H5 C8 1_555 1_555
C9 C4 1_555 1_555
H6 C9 1_555 1_555
H7 C9 1_555 1_555
C10 C9 1_555 1_555
H8 C10 1_555 1_555
H9 C10 1_555 1_555
C11 C10 1_555 1_555
H10 C11 1_555 1_555
C12 C3 1_555 1_555
C13 C12 1_555 1_555
H11 C13 1_555 1_555
C14 C13 1_555 1_555
H12 C14 1_555 1_555
C15 C14 1_555 1_555
H13 C15 1_555 1_555
H14 C15 1_555 1_555
C16 C11 1_555 1_555
C17 C7 1_555 1_555
H15 C17 1_555 1_555
H16 C17 1_555 1_555
H17 C17 1_555 1_555
C18 C12 1_555 1_555
H18 C18 1_555 1_555
H19 C18 1_555 1_555
H20 C18 1_555 1_555
C19 C16 1_555 1_555
H21 C19 1_555 1_555
H22 C19 1_555 1_555
H23 C19 1_555 1_555
C20 C16 1_555 1_555
H24 C20 1_555 1_555
H25 C20 1_555 1_555
H26 C20 1_555 1_555
C5 C6 1_555 1_555
C7 C8 1_555 1_555
C11 C12 1_555 1_555
C15 C16 1_555 1_555

#END
