
#######################################################################
#
#                 Cambridge Crystallographic Data Centre
#                                CCDC 
#
#######################################################################
#
# If this CIF has been generated from an entry in the Cambridge 
# Structural Database, then it will include bibliographic, chemical, 
# crystal, experimental, refinement or atomic coordinate data resulting 
# from the CCDC's data processing and validation procedures.
#
#######################################################################

data_FEBVEQ
_chemical_formula_moiety         'C15 H20 O3'
_chemical_name_systematic        
8a-methoxy-5-methyloctahydro-1H,8H-1,7a-ethenopentaleno[2,1-c]pyran-8-one
_symmetry_cell_setting           monoclinic
_symmetry_space_group_name_H-M   'C c'
_symmetry_Int_Tables_number      9
_space_group_name_Hall           'C -2yc'
loop_
_symmetry_equiv_pos_site_id
_symmetry_equiv_pos_as_xyz
1 x,y,z
2 x,-y,1/2+z
3 1/2+x,1/2+y,z
4 1/2+x,1/2-y,1/2+z
_cell_length_a                   11.4777(10)
_cell_length_b                   8.9184(7)
_cell_length_c                   12.9080(9)
_cell_angle_alpha                90
_cell_angle_beta                 96.233(8)
_cell_angle_gamma                90
_cell_volume                     1313.49
_exptl_crystal_colour            colorless
_exptl_crystal_description       block
_cell_formula_units_Z            4
loop_
_atom_site_label
_atom_site_type_symbol
_atom_site_fract_x
_atom_site_fract_y
_atom_site_fract_z
O1 O 0.91113(17) 0.9830(2) 0.37024(14)
O2 O 0.54783(18) 0.9426(3) 0.50273(17)
O3 O 0.65441(17) 0.9476(2) 0.31104(14)
C1 C 0.9597(2) 0.8360(4) 0.3856(2)
H1 H 0.9849 0.8209 0.4591
H2 H 1.0278 0.8265 0.3477
C2 C 0.8712(2) 0.7181(3) 0.3487(2)
H3 H 0.9056 0.6196 0.3615
H4 H 0.8505 0.7287 0.2742
C3 C 0.7609(2) 0.7306(3) 0.40389(18)
H5 H 0.7001 0.6687 0.3658
C4 C 0.7150(2) 0.8938(3) 0.40461(19)
C5 C 0.8165(2) 1.0065(3) 0.4313(2)
H6 H 0.7846 1.1058 0.4120
C6 C 0.8572(2) 1.0136(3) 0.54559(19)
H7 H 0.9152 1.0827 0.5683
C7 C 0.8151(2) 0.9270(3) 0.61582(19)
H8 H 0.8425 0.9374 0.6859
C8 C 0.7224(2) 0.8113(3) 0.58244(18)
C9 C 0.7724(2) 0.6822(2) 0.51934(18)
H9 H 0.8551 0.6657 0.5443
C10 C 0.7001(2) 0.5458(3) 0.5452(2)
H10 H 0.6231 0.5531 0.5045
C11 C 0.6835(3) 0.5706(3) 0.6596(2)
H11 H 0.6178 0.5124 0.6789
H12 H 0.7534 0.5418 0.7042
C12 C 0.6600(3) 0.7378(3) 0.6690(2)
H13 H 0.6916 0.7749 0.7370
H14 H 0.5765 0.7583 0.6590
C13 C 0.6444(2) 0.8913(3) 0.49823(19)
C14 C 0.5605(3) 0.8582(4) 0.2632(3)
H15 H 0.5123 0.8254 0.3151
H16 H 0.5918 0.7724 0.2308
H17 H 0.5142 0.9165 0.2114
C15 C 0.7540(3) 0.3966(3) 0.5202(3)
H18 H 0.8294 0.3865 0.5598
H19 H 0.7630 0.3924 0.4472
H20 H 0.7038 0.3165 0.5377
loop_
_geom_bond_atom_site_label_1
_geom_bond_atom_site_label_2
_geom_bond_site_symmetry_1
_geom_bond_site_symmetry_2
O1 C1 1_555 1_555
O2 C13 1_555 1_555
O3 C4 1_555 1_555
C1 H1 1_555 1_555
H2 C1 1_555 1_555
C2 C1 1_555 1_555
H3 C2 1_555 1_555
H4 C2 1_555 1_555
C3 C2 1_555 1_555
H5 C3 1_555 1_555
C4 C3 1_555 1_555
C5 O1 1_555 1_555
H6 C5 1_555 1_555
C6 C5 1_555 1_555
H7 C6 1_555 1_555
C7 C6 1_555 1_555
H8 C7 1_555 1_555
C8 C7 1_555 1_555
C9 C3 1_555 1_555
H9 C9 1_555 1_555
C10 C9 1_555 1_555
H10 C10 1_555 1_555
C11 C10 1_555 1_555
H11 C11 1_555 1_555
H12 C11 1_555 1_555
C12 C8 1_555 1_555
H13 C12 1_555 1_555
H14 C12 1_555 1_555
C13 C4 1_555 1_555
C14 O3 1_555 1_555
H15 C14 1_555 1_555
H16 C14 1_555 1_555
H17 C14 1_555 1_555
C15 C10 1_555 1_555
H18 C15 1_555 1_555
H19 C15 1_555 1_555
H20 C15 1_555 1_555
C4 C5 1_555 1_555
C8 C9 1_555 1_555
C8 C13 1_555 1_555
C11 C12 1_555 1_555

#END
