
#######################################################################
#
#                 Cambridge Crystallographic Data Centre
#                                CCDC 
#
#######################################################################
#
# If this CIF has been generated from an entry in the Cambridge 
# Structural Database, then it will include bibliographic, chemical, 
# crystal, experimental, refinement or atomic coordinate data resulting 
# from the CCDC's data processing and validation procedures.
#
#######################################################################

data_FEBXES
_chemical_formula_moiety         'C21 H18 P1 1+,I1 1-'
_chemical_name_systematic        
'1-methyl-1,2-diphenyl-1H-phosphindol-1-ium iodide'
_symmetry_cell_setting           monoclinic
_symmetry_space_group_name_H-M   'P 21/n'
_symmetry_Int_Tables_number      14
_space_group_name_Hall           '-P 2yn'
loop_
_symmetry_equiv_pos_site_id
_symmetry_equiv_pos_as_xyz
1 x,y,z
2 1/2-x,1/2+y,1/2-z
3 -x,-y,-z
4 1/2+x,1/2-y,1/2+z
_cell_length_a                   9.19717(17)
_cell_length_b                   19.1790(4)
_cell_length_c                   10.65593(19)
_cell_angle_alpha                90
_cell_angle_beta                 102.343(7)
_cell_angle_gamma                90
_cell_volume                     1836.18
_exptl_crystal_colour            colorless
_exptl_crystal_description       block
_cell_formula_units_Z            4
_exptl_crystal_recrystallization_method dichloromethane/methanol
loop_
_atom_site_label
_atom_site_type_symbol
_atom_site_fract_x
_atom_site_fract_y
_atom_site_fract_z
I1 I 0.21052(2) 0.66848(2) 0.24868(2)
P1 P 0.48274(5) 0.61020(2) 0.70506(4)
C1 C 0.4346(2) 0.51853(9) 0.69536(17)
C2 C 0.5299(2) 0.48534(10) 0.79057(18)
C3 C 0.6428(2) 0.52855(10) 0.87317(18)
C4 C 0.7566(2) 0.50607(11) 0.97285(19)
C5 C 0.8545(2) 0.55533(12) 1.0402(2)
C6 C 0.8411(2) 0.62562(12) 1.0091(2)
C7 C 0.7288(2) 0.64863(11) 0.90768(19)
C8 C 0.6314(2) 0.59987(10) 0.84199(17)
C9 C 0.5485(2) 0.64643(10) 0.57308(17)
C10 C 0.3342(2) 0.66287(9) 0.73598(17)
C11 C 0.3104(2) 0.66710(11) 0.8609(2)
C12 C 0.1923(3) 0.70653(13) 0.8842(2)
C13 C 0.0993(2) 0.74120(11) 0.7848(2)
C14 C 0.1229(2) 0.73709(11) 0.6613(2)
C15 C 0.2402(2) 0.69797(10) 0.63551(19)
C16 C 0.30881(19) 0.48761(9) 0.60338(17)
C17 C 0.2616(2) 0.51534(9) 0.48036(18)
C18 C 0.1465(2) 0.48415(10) 0.3923(2)
C19 C 0.0764(2) 0.42535(11) 0.4268(2)
C20 C 0.1202(2) 0.39811(10) 0.5496(2)
C21 C 0.2354(2) 0.42868(10) 0.63779(19)
H1 H 0.524 0.43649 0.8034
H2 H 0.76733 0.45804 0.99463
H3 H 0.93197 0.54047 1.10892
H4 H 0.90867 0.65825 1.05691
H5 H 0.71976 0.69654 0.88469
H6 H 0.46648 0.64862 0.49745
H7 H 0.62826 0.61703 0.55407
H8 H 0.58689 0.69351 0.59529
H9 H 0.3744 0.64325 0.92923
H10 H 0.17544 0.70968 0.96887
H11 H 0.01874 0.76803 0.80155
H12 H 0.0584 0.76116 0.5936
H13 H 0.25631 0.69514 0.55052
H14 H 0.30841 0.55591 0.45653
H15 H 0.11588 0.50315 0.30851
H16 H -0.00147 0.40376 0.36628
H17 H 0.07097 0.35829 0.57356
H18 H 0.26481 0.40969 0.72174
loop_
_geom_bond_atom_site_label_1
_geom_bond_atom_site_label_2
_geom_bond_site_symmetry_1
_geom_bond_site_symmetry_2
P1 C1 1_555 1_555
C1 C2 1_555 1_555
C2 C3 1_555 1_555
C3 C4 1_555 1_555
C4 C5 1_555 1_555
C5 C6 1_555 1_555
C6 C7 1_555 1_555
C7 C8 1_555 1_555
C8 P1 1_555 1_555
C9 P1 1_555 1_555
C10 P1 1_555 1_555
C11 C10 1_555 1_555
C12 C11 1_555 1_555
C13 C12 1_555 1_555
C14 C13 1_555 1_555
C15 C10 1_555 1_555
C16 C1 1_555 1_555
C17 C16 1_555 1_555
C18 C17 1_555 1_555
C19 C18 1_555 1_555
C20 C19 1_555 1_555
C21 C16 1_555 1_555
H1 C2 1_555 1_555
H2 C4 1_555 1_555
H3 C5 1_555 1_555
H4 C6 1_555 1_555
H5 C7 1_555 1_555
H6 C9 1_555 1_555
H7 C9 1_555 1_555
H8 C9 1_555 1_555
H9 C11 1_555 1_555
H10 C12 1_555 1_555
H11 C13 1_555 1_555
H12 C14 1_555 1_555
H13 C15 1_555 1_555
H14 C17 1_555 1_555
H15 C18 1_555 1_555
H16 C19 1_555 1_555
H17 C20 1_555 1_555
H18 C21 1_555 1_555
C3 C8 1_555 1_555
C14 C15 1_555 1_555
C20 C21 1_555 1_555

#END
