
#######################################################################
#
#                 Cambridge Crystallographic Data Centre
#                                CCDC 
#
#######################################################################
#
# If this CIF has been generated from an entry in the Cambridge 
# Structural Database, then it will include bibliographic, chemical, 
# crystal, experimental, refinement or atomic coordinate data resulting 
# from the CCDC's data processing and validation procedures.
#
#######################################################################

data_FEBXOC
_chemical_formula_moiety         'C26 H20 P1 1+,C1 H2 Cl2,I1 1-'
_chemical_name_systematic        
'1,1,2-triphenyl-1H-phosphindol-1-ium iodide dichloromethane solvate'
_symmetry_cell_setting           monoclinic
_symmetry_space_group_name_H-M   'P 21/n'
_symmetry_Int_Tables_number      14
_space_group_name_Hall           '-P 2yn'
loop_
_symmetry_equiv_pos_site_id
_symmetry_equiv_pos_as_xyz
1 x,y,z
2 1/2-x,1/2+y,1/2-z
3 -x,-y,-z
4 1/2+x,1/2-y,1/2+z
_cell_length_a                   9.8866(2)
_cell_length_b                   21.0534(5)
_cell_length_c                   12.0079(3)
_cell_angle_alpha                90
_cell_angle_beta                 94.878(2)
_cell_angle_gamma                90
_cell_volume                     2490.35
_exptl_crystal_colour            yellow
_exptl_crystal_description       prism
_cell_formula_units_Z            4
_exptl_crystal_recrystallization_method 'dichloromethane/diethyl ether'
loop_
_atom_site_label
_atom_site_type_symbol
_atom_site_fract_x
_atom_site_fract_y
_atom_site_fract_z
P1 P 0.41104(10) 0.19503(5) 0.23087(9)
C1 C 0.4468(4) 0.27903(19) 0.2164(3)
C2 C 0.3422(4) 0.3109(2) 0.2534(3)
H1 H 0.3412 0.3560 0.2558
C3 C 0.2286(4) 0.2729(2) 0.2902(3)
C4 C 0.2491(4) 0.20733(19) 0.2845(3)
C5 C 0.1539(4) 0.1642(2) 0.3144(3)
H2 H 0.1691 0.1197 0.3099
C6 C 0.0336(4) 0.1885(2) 0.3519(3)
H3 H -0.0337 0.1601 0.3742
C7 C 0.0119(4) 0.2530(2) 0.3568(4)
H4 H -0.0705 0.2684 0.3819
C8 C 0.1090(4) 0.2960(2) 0.3256(4)
H5 H 0.0930 0.3404 0.3286
C9 C 0.5675(4) 0.30713(19) 0.1718(3)
C10 C 0.6798(4) 0.2701(2) 0.1476(3)
H6 H 0.6780 0.2254 0.1585
C11 C 0.7934(4) 0.2984(2) 0.1080(4)
H7 H 0.8688 0.2729 0.0925
C12 C 0.7974(5) 0.3628(2) 0.0911(4)
H8 H 0.8754 0.3819 0.0642
C13 C 0.6875(5) 0.3996(2) 0.1135(4)
H9 H 0.6898 0.4441 0.1007
C14 C 0.5736(4) 0.3727(2) 0.1544(3)
H10 H 0.4996 0.3989 0.1707
C15 C 0.5303(4) 0.15756(19) 0.3307(3)
C16 C 0.5242(4) 0.0927(2) 0.3469(4)
H11 H 0.4622 0.0674 0.3011
C17 C 0.6096(4) 0.0648(2) 0.4305(4)
H12 H 0.6054 0.0202 0.4423
C18 C 0.7005(5) 0.1011(2) 0.4969(4)
H13 H 0.7582 0.0816 0.5544
C19 C 0.7074(5) 0.1658(2) 0.4793(4)
H14 H 0.7710 0.1907 0.5242
C20 C 0.6225(4) 0.1947(2) 0.3971(3)
H15 H 0.6267 0.2393 0.3857
C21 C 0.3917(4) 0.15078(18) 0.1030(3)
C22 C 0.2664(4) 0.15211(19) 0.0399(3)
H16 H 0.1933 0.1763 0.0643
C23 C 0.2500(5) 0.1178(2) -0.0587(3)
H17 H 0.1653 0.1186 -0.1025
C24 C 0.3563(5) 0.0825(2) -0.0938(4)
H18 H 0.3446 0.0594 -0.1619
C25 C 0.4801(5) 0.0806(2) -0.0301(4)
H19 H 0.5523 0.0558 -0.0542
C26 C 0.4988(4) 0.11478(19) 0.0683(3)
H20 H 0.5837 0.1137 0.1118
I1 I 0.73314(3) 0.511928(13) 0.71558(2)
C27 C 0.4059(5) 0.4361(2) 0.5867(4)
H21 H 0.3611 0.4659 0.5314
H22 H 0.5029 0.4482 0.5989
Cl1 Cl 0.32927(11) 0.44242(6) 0.71428(9)
Cl2 Cl 0.39277(11) 0.35782(5) 0.53357(10)
loop_
_geom_bond_atom_site_label_1
_geom_bond_atom_site_label_2
_geom_bond_site_symmetry_1
_geom_bond_site_symmetry_2
P1 C1 1_555 1_555
C1 C2 1_555 1_555
C2 H1 1_555 1_555
C3 C2 1_555 1_555
C4 P1 1_555 1_555
C5 C4 1_555 1_555
H2 C5 1_555 1_555
C6 C5 1_555 1_555
H3 C6 1_555 1_555
C7 C6 1_555 1_555
H4 C7 1_555 1_555
C8 C3 1_555 1_555
H5 C8 1_555 1_555
C9 C1 1_555 1_555
C10 C9 1_555 1_555
H6 C10 1_555 1_555
C11 C10 1_555 1_555
H7 C11 1_555 1_555
C12 C11 1_555 1_555
H8 C12 1_555 1_555
C13 C12 1_555 1_555
H9 C13 1_555 1_555
C14 C9 1_555 1_555
H10 C14 1_555 1_555
C15 P1 1_555 1_555
C16 C15 1_555 1_555
H11 C16 1_555 1_555
C17 C16 1_555 1_555
H12 C17 1_555 1_555
C18 C17 1_555 1_555
H13 C18 1_555 1_555
C19 C18 1_555 1_555
H14 C19 1_555 1_555
C20 C15 1_555 1_555
H15 C20 1_555 1_555
C21 P1 1_555 1_555
C22 C21 1_555 1_555
H16 C22 1_555 1_555
C23 C22 1_555 1_555
H17 C23 1_555 1_555
C24 C23 1_555 1_555
H18 C24 1_555 1_555
C25 C24 1_555 1_555
H19 C25 1_555 1_555
C26 C21 1_555 1_555
H20 C26 1_555 1_555
C27 H21 1_555 1_555
H22 C27 1_555 1_555
Cl1 C27 1_555 1_555
Cl2 C27 1_555 1_555
C3 C4 1_555 1_555
C7 C8 1_555 1_555
C13 C14 1_555 1_555
C19 C20 1_555 1_555
C25 C26 1_555 1_555

#END
