
#######################################################################
#
#                 Cambridge Crystallographic Data Centre
#                                CCDC 
#
#######################################################################
#
# If this CIF has been generated from an entry in the Cambridge 
# Structural Database, then it will include bibliographic, chemical, 
# crystal, experimental, refinement or atomic coordinate data resulting 
# from the CCDC's data processing and validation procedures.
#
#######################################################################

data_FEBYAP
_chemical_formula_moiety         'C22 H20 O1 P1 1+,I1 1-'
_chemical_name_systematic        
'1-(2-hydroxyethyl)-1,2-diphenyl-1H-phosphindol-1-ium iodide'
_symmetry_cell_setting           monoclinic
_symmetry_space_group_name_H-M   'P 21/n'
_symmetry_Int_Tables_number      14
_space_group_name_Hall           '-P 2yn'
loop_
_symmetry_equiv_pos_site_id
_symmetry_equiv_pos_as_xyz
1 x,y,z
2 1/2-x,1/2+y,1/2-z
3 -x,-y,-z
4 1/2+x,1/2-y,1/2+z
_cell_length_a                   9.41250(10)
_cell_length_b                   22.5530(4)
_cell_length_c                   10.2457(2)
_cell_angle_alpha                90
_cell_angle_beta                 116.7384(11)
_cell_angle_gamma                90
_cell_volume                     1942.39
_exptl_crystal_colour            colorless
_exptl_crystal_description       prism
_cell_formula_units_Z            4
_exptl_crystal_recrystallization_method dichloromethane/toluene
loop_
_atom_site_label
_atom_site_type_symbol
_atom_site_fract_x
_atom_site_fract_y
_atom_site_fract_z
I1 I 0.771845(13) 0.135785(5) 0.595901(11)
P1 P 0.95975(5) 0.115729(17) 0.13819(4)
C1 C 0.90688(18) 0.03907(7) 0.14670(17)
C2 C 1.00008(19) 0.01897(7) 0.28271(18)
H1 H 0.9904 -0.0202 0.3116
C3 C 1.11728(19) 0.06079(7) 0.38390(18)
C4 C 1.11090(18) 0.11734(7) 0.32303(18)
C5 C 1.21680(18) 0.16193(8) 0.40011(18)
H2 H 1.2125 0.1996 0.3570
C6 C 1.3297(2) 0.14987(8) 0.5425(2)
H3 H 1.4026 0.1799 0.5982
C7 C 1.3370(2) 0.09445(9) 0.60407(19)
H4 H 1.4150 0.0871 0.7014
C8 C 1.2317(2) 0.04943(8) 0.52554(19)
H5 H 1.2382 0.0115 0.5684
C9 C 0.77808(18) 0.00695(7) 0.02709(18)
C10 C 0.69469(19) -0.03773(7) 0.05934(18)
H6 H 0.7181 -0.0454 0.1581
C11 C 0.5788(2) -0.07062(7) -0.0515(2)
H7 H 0.5231 -0.1006 -0.0282
C12 C 0.5432(2) -0.06013(8) -0.1963(2)
H8 H 0.4650 -0.0833 -0.2718
C13 C 0.6225(2) -0.01558(8) -0.23007(19)
H9 H 0.5976 -0.0080 -0.3292
C14 C 0.73847(19) 0.01809(7) -0.11961(18)
H10 H 0.7911 0.0489 -0.1440
C15 C 0.79141(17) 0.16184(7) 0.10344(17)
C16 C 0.75964(19) 0.17656(7) 0.21991(18)
H11 H 0.8278 0.1631 0.3158
C17 C 0.6274(2) 0.21110(7) 0.19440(19)
H12 H 0.6059 0.2219 0.2734
C18 C 0.52662(19) 0.22978(7) 0.0535(2)
H13 H 0.4374 0.2540 0.0367
C19 C 0.5556(2) 0.21328(7) -0.06302(19)
H14 H 0.4843 0.2251 -0.1595
C20 C 0.68885(19) 0.17945(7) -0.03869(18)
H15 H 0.7097 0.1685 -0.1179
C21 C 1.03975(19) 0.12866(7) 0.01075(18)
H16 H 1.1004 0.0932 0.0080
H17 H 0.9507 0.1341 -0.0881
C22 C 1.1484(2) 0.18275(7) 0.0488(2)
H18 H 1.2494 0.1747 0.1370
H19 H 1.1734 0.1922 -0.0330
O1 O 1.06757(16) 0.23106(5) 0.07485(17)
H20 H 1.1181 0.2626 0.0818
loop_
_geom_bond_atom_site_label_1
_geom_bond_atom_site_label_2
_geom_bond_site_symmetry_1
_geom_bond_site_symmetry_2
P1 C1 1_555 1_555
C1 C2 1_555 1_555
C2 H1 1_555 1_555
C3 C2 1_555 1_555
C4 P1 1_555 1_555
C5 C4 1_555 1_555
H2 C5 1_555 1_555
C6 C5 1_555 1_555
H3 C6 1_555 1_555
C7 C6 1_555 1_555
H4 C7 1_555 1_555
C8 C3 1_555 1_555
H5 C8 1_555 1_555
C9 C1 1_555 1_555
C10 C9 1_555 1_555
H6 C10 1_555 1_555
C11 C10 1_555 1_555
H7 C11 1_555 1_555
C12 C11 1_555 1_555
H8 C12 1_555 1_555
C13 C12 1_555 1_555
H9 C13 1_555 1_555
C14 C9 1_555 1_555
H10 C14 1_555 1_555
C15 P1 1_555 1_555
C16 C15 1_555 1_555
H11 C16 1_555 1_555
C17 C16 1_555 1_555
H12 C17 1_555 1_555
C18 C17 1_555 1_555
H13 C18 1_555 1_555
C19 C18 1_555 1_555
H14 C19 1_555 1_555
C20 C15 1_555 1_555
H15 C20 1_555 1_555
C21 P1 1_555 1_555
H16 C21 1_555 1_555
H17 C21 1_555 1_555
C22 C21 1_555 1_555
H18 C22 1_555 1_555
H19 C22 1_555 1_555
O1 C22 1_555 1_555
H20 O1 1_555 1_555
C3 C4 1_555 1_555
C7 C8 1_555 1_555
C13 C14 1_555 1_555
C19 C20 1_555 1_555

#END
