
#######################################################################
#
#                 Cambridge Crystallographic Data Centre
#                                CCDC 
#
#######################################################################
#
# If this CIF has been generated from an entry in the Cambridge 
# Structural Database, then it will include bibliographic, chemical, 
# crystal, experimental, refinement or atomic coordinate data resulting 
# from the CCDC's data processing and validation procedures.
#
#######################################################################

data_FEBZAQ
_chemical_formula_moiety         'C18 H12 N2 O2'
_chemical_name_systematic        
(Z)-4'-[(2-methyl-5-oxo-1,3-oxazol-4(5H)-ylidene)methyl][1,1'-biphenyl]-4-carbonitrile
_symmetry_cell_setting           triclinic
_symmetry_space_group_name_H-M   'P -1'
_symmetry_Int_Tables_number      2
_space_group_name_Hall           '-P 1'
loop_
_symmetry_equiv_pos_site_id
_symmetry_equiv_pos_as_xyz
1 x,y,z
2 -x,-y,-z
_cell_length_a                   3.9036(2)
_cell_length_b                   13.2662(8)
_cell_length_c                   13.3770(9)
_cell_angle_alpha                88.642(5)
_cell_angle_beta                 85.390(5)
_cell_angle_gamma                85.977(5)
_cell_volume                     688.684
_exptl_crystal_colour            yellow
_exptl_crystal_description       block
_cell_formula_units_Z            2
_exptl_crystal_recrystallization_method dichloromethane/hexane
_exptl_crystal_preparation       ', Luminescent'
loop_
_atom_site_label
_atom_site_type_symbol
_atom_site_fract_x
_atom_site_fract_y
_atom_site_fract_z
O1 O 0.9439(2) 0.46531(7) 0.11220(7)
O2 O 1.1162(3) 0.56089(7) 0.23456(7)
N1 N 0.6748(3) 0.34297(8) 0.20261(8)
N2 N -0.2988(3) -0.12210(9) 0.95494(9)
C1 C 0.7670(3) 0.37791(9) 0.11511(9)
C2 C 0.9710(3) 0.48914(9) 0.21174(9)
C3 C 0.7942(3) 0.40966(9) 0.27038(9)
C4 C 0.7615(3) 0.40835(9) 0.37120(9)
H1 H 0.8598 0.4625 0.4013
C5 C 0.6004(3) 0.33766(9) 0.44152(9)
C6 C 0.6039(3) 0.35657(9) 0.54395(9)
H2 H 0.7037 0.4153 0.5643
C7 C 0.4651(3) 0.29161(9) 0.61619(9)
H3 H 0.4677 0.3068 0.6852
C8 C 0.3210(3) 0.20371(9) 0.58875(9)
C9 C 0.3145(3) 0.18510(9) 0.48622(9)
H4 H 0.2159 0.1261 0.4662
C10 C 0.4481(3) 0.25057(9) 0.41354(9)
H5 H 0.4370 0.2367 0.3446
C11 C 0.1804(3) 0.13317(9) 0.66676(9)
C12 C 0.0370(3) 0.16920(9) 0.75937(9)
H6 H 0.0279 0.2396 0.7718
C13 C -0.0919(3) 0.10402(10) 0.83323(9)
H7 H -0.1920 0.1296 0.8954
C14 C -0.0732(3) 0.00022(10) 0.81542(9)
C15 C 0.0685(3) -0.03737(9) 0.72357(10)
H8 H 0.0800 -0.1079 0.7116
C16 C 0.1921(3) 0.02900(9) 0.64999(9)
H9 H 0.2863 0.0035 0.5871
C17 C -0.1996(3) -0.06794(10) 0.89281(10)
C18 C 0.7069(4) 0.33839(10) 0.01635(10)
H10 H 0.5744 0.3899 -0.0211
H11 H 0.5779 0.2777 0.0257
H12 H 0.9287 0.3214 -0.0212
loop_
_geom_bond_atom_site_label_1
_geom_bond_atom_site_label_2
_geom_bond_site_symmetry_1
_geom_bond_site_symmetry_2
O1 C1 1_555 1_555
O2 C2 1_555 1_555
N1 C1 1_555 1_555
N2 C17 1_555 1_555
C1 C18 1_555 1_555
C2 O1 1_555 1_555
C3 N1 1_555 1_555
C4 C3 1_555 1_555
H1 C4 1_555 1_555
C5 C4 1_555 1_555
C6 C5 1_555 1_555
H2 C6 1_555 1_555
C7 C6 1_555 1_555
H3 C7 1_555 1_555
C8 C7 1_555 1_555
C9 C8 1_555 1_555
H4 C9 1_555 1_555
C10 C5 1_555 1_555
H5 C10 1_555 1_555
C11 C8 1_555 1_555
C12 C11 1_555 1_555
H6 C12 1_555 1_555
C13 C12 1_555 1_555
H7 C13 1_555 1_555
C14 C13 1_555 1_555
C15 C14 1_555 1_555
H8 C15 1_555 1_555
C16 C11 1_555 1_555
H9 C16 1_555 1_555
C17 C14 1_555 1_555
C18 H10 1_555 1_555
H11 C18 1_555 1_555
H12 C18 1_555 1_555
C2 C3 1_555 1_555
C9 C10 1_555 1_555
C15 C16 1_555 1_555

#END
