
#######################################################################
#
#                 Cambridge Crystallographic Data Centre
#                                CCDC 
#
#######################################################################
#
# If this CIF has been generated from an entry in the Cambridge 
# Structural Database, then it will include bibliographic, chemical, 
# crystal, experimental, refinement or atomic coordinate data resulting 
# from the CCDC's data processing and validation procedures.
#
#######################################################################

data_FECDUP
_chemical_formula_moiety         'C17 H14 F3 N3 O3'
_chemical_name_systematic        
'[4-nitro-5-phenyl-3-(trifluoromethyl)pyrazolidin-1-yl](phenyl)methanone'
_symmetry_cell_setting           monoclinic
_symmetry_space_group_name_H-M   'P 21/n'
_symmetry_Int_Tables_number      14
_space_group_name_Hall           '-P 2yn'
loop_
_symmetry_equiv_pos_site_id
_symmetry_equiv_pos_as_xyz
1 x,y,z
2 1/2-x,1/2+y,1/2-z
3 -x,-y,-z
4 1/2+x,1/2-y,1/2+z
_cell_length_a                   5.6912(4)
_cell_length_b                   25.2938(19)
_cell_length_c                   11.9374(9)
_cell_angle_alpha                90
_cell_angle_beta                 102.064(8)
_cell_angle_gamma                90
_cell_volume                     1680.46
_exptl_crystal_colour            colorless
_exptl_crystal_description       block
_cell_formula_units_Z            4
loop_
_atom_site_label
_atom_site_type_symbol
_atom_site_fract_x
_atom_site_fract_y
_atom_site_fract_z
F1 F 0.7152(4) -0.04634(7) 0.72268(18)
F2 F 0.8903(5) -0.02014(9) 0.88956(17)
F3 F 0.5571(4) 0.01546(9) 0.80658(19)
O1 O 1.1033(5) 0.07056(10) 0.5561(2)
O2 O 0.7883(5) 0.04762(11) 0.43266(19)
O3 O 0.4134(4) 0.14367(8) 0.80844(17)
N1 N 0.9644(5) 0.08237(10) 0.8083(2)
H1 H 1.091(6) 0.0982(13) 0.792(3)
N2 N 0.7683(4) 0.11789(9) 0.77071(19)
N3 N 0.8942(6) 0.05796(10) 0.5294(2)
C1 C 0.9052(5) 0.03626(11) 0.7347(2)
H2 H 1.0529 0.0201 0.7207
C2 C 0.7498(5) 0.05583(11) 0.6208(2)
H3 H 0.6118 0.0322 0.5969
C3 C 0.6612(5) 0.11166(11) 0.6480(2)
H4 H 0.4863 0.1100 0.6396
C4 C 0.7173(5) 0.15640(12) 0.5747(2)
C5 C 0.9243(6) 0.18644(14) 0.6043(3)
H5 H 1.0321 0.1797 0.6729
C6 C 0.9726(7) 0.22639(14) 0.5330(4)
H6 H 1.1135 0.2460 0.5532
C7 C 0.8132(9) 0.23706(15) 0.4330(3)
H7 H 0.8460 0.2638 0.3850
C8 C 0.6053(8) 0.20837(16) 0.4035(3)
H8 H 0.4958 0.2160 0.3359
C9 C 0.5583(6) 0.16814(13) 0.4740(3)
H9 H 0.4172 0.1487 0.4531
C10 C 0.6242(5) 0.13096(11) 0.8449(2)
C11 C 0.7352(5) 0.13342(11) 0.9694(2)
C12 C 0.6059(6) 0.11651(13) 1.0482(3)
H10 H 0.4557 0.1011 1.0232
C13 C 0.6987(7) 0.12240(15) 1.1644(3)
H11 H 0.6126 0.1100 1.2172
C14 C 0.9168(7) 0.14640(15) 1.2017(3)
H12 H 0.9780 0.1507 1.2797
C15 C 1.0447(6) 0.16409(15) 1.1237(3)
H13 H 1.1916 0.1809 1.1491
C16 C 0.9570(5) 0.15716(12) 1.0075(3)
H14 H 1.0466 0.1684 0.9552
C17 C 0.7676(7) -0.00361(14) 0.7904(3)
loop_
_geom_bond_atom_site_label_1
_geom_bond_atom_site_label_2
_geom_bond_site_symmetry_1
_geom_bond_site_symmetry_2
F1 C17 1_555 1_555
F2 C17 1_555 1_555
F3 C17 1_555 1_555
O1 N3 1_555 1_555
O2 N3 1_555 1_555
O3 C10 1_555 1_555
N1 H1 1_555 1_555
N2 N1 1_555 1_555
N3 C2 1_555 1_555
C1 N1 1_555 1_555
H2 C1 1_555 1_555
C2 C1 1_555 1_555
H3 C2 1_555 1_555
C3 N2 1_555 1_555
H4 C3 1_555 1_555
C4 C3 1_555 1_555
C5 C4 1_555 1_555
H5 C5 1_555 1_555
C6 C5 1_555 1_555
H6 C6 1_555 1_555
C7 C6 1_555 1_555
H7 C7 1_555 1_555
C8 C7 1_555 1_555
H8 C8 1_555 1_555
C9 C4 1_555 1_555
H9 C9 1_555 1_555
C10 N2 1_555 1_555
C11 C10 1_555 1_555
C12 C11 1_555 1_555
H10 C12 1_555 1_555
C13 C12 1_555 1_555
H11 C13 1_555 1_555
C14 C13 1_555 1_555
H12 C14 1_555 1_555
C15 C14 1_555 1_555
H13 C15 1_555 1_555
C16 C11 1_555 1_555
H14 C16 1_555 1_555
C17 C1 1_555 1_555
C2 C3 1_555 1_555
C8 C9 1_555 1_555
C15 C16 1_555 1_555

#END
