
#######################################################################
#
#                 Cambridge Crystallographic Data Centre
#                                CCDC 
#
#######################################################################
#
# If this CIF has been generated from an entry in the Cambridge 
# Structural Database, then it will include bibliographic, chemical, 
# crystal, experimental, refinement or atomic coordinate data resulting 
# from the CCDC's data processing and validation procedures.
#
#######################################################################

data_FECDOJ
_chemical_formula_moiety         'C23 H35 N4 O4 P1'
_chemical_name_systematic        
't-butyl (2-{9-[bis(dimethylamino)phosphoryl]-2-oxo-2,3,4,9-tetrahydro-4aH-carbazol-4a-yl}ethyl)carbamate'
_symmetry_cell_setting           monoclinic
_symmetry_space_group_name_H-M   'P 21'
_symmetry_Int_Tables_number      4
_space_group_name_Hall           'P 2yb'
loop_
_symmetry_equiv_pos_site_id
_symmetry_equiv_pos_as_xyz
1 x,y,z
2 -x,1/2+y,-z
_cell_length_a                   11.632(2)
_cell_length_b                   10.796(2)
_cell_length_c                   20.144(4)
_cell_angle_alpha                90
_cell_angle_beta                 92.25(3)
_cell_angle_gamma                90
_cell_volume                     2527.71
_exptl_crystal_colour            colorless
_exptl_crystal_description       prismatic
_cell_formula_units_Z            4
loop_
_atom_site_label
_atom_site_type_symbol
_atom_site_fract_x
_atom_site_fract_y
_atom_site_fract_z
P1 P 0.13538(5) 0.07619(5) 0.45944(3)
O1 O -0.01556(19) 0.0205(2) 0.19433(10)
O2 O -0.1189(2) -0.5397(2) 0.22897(10)
O3 O -0.25582(18) -0.5642(2) 0.30641(10)
O4 O 0.13557(17) 0.03770(17) 0.52925(8)
N1 N 0.15566(17) -0.05152(17) 0.41187(9)
N2 N -0.09315(18) -0.4737(2) 0.33514(10)
H1 H -0.1240 -0.4705 0.3743
N3 N 0.01424(18) 0.1351(2) 0.43170(11)
N4 N 0.23965(19) 0.1706(2) 0.44452(11)
C1 C 0.28827(19) -0.3537(2) 0.39579(12)
H2 H 0.2837 -0.4192 0.3643
C2 C 0.3619(2) -0.3619(2) 0.45196(13)
H3 H 0.4087 -0.4333 0.4585
C3 C 0.3675(2) -0.2681(3) 0.49773(13)
H4 H 0.4177 -0.2761 0.5358
C4 C 0.3006(2) -0.1602(2) 0.48970(12)
H5 H 0.3045 -0.0952 0.5215
C5 C 0.22886(19) -0.1527(2) 0.43339(11)
C6 C 0.11395(18) -0.0780(2) 0.34729(11)
C7 C 0.0633(2) -0.0020(2) 0.30174(12)
H6 H 0.0443 0.0804 0.3137
C8 C 0.0377(2) -0.0451(2) 0.23443(13)
C9 C 0.0820(2) -0.1702(3) 0.21386(12)
H7 H 0.1150 -0.1621 0.1695
H8 H 0.0162 -0.2281 0.2095
C10 C 0.1729(2) -0.2268(2) 0.26133(11)
H9 H 0.2473 -0.1836 0.2567
H10 H 0.1838 -0.3153 0.2504
C11 C 0.13388(18) -0.2143(2) 0.33330(10)
C12 C 0.22218(18) -0.2482(2) 0.38690(11)
C13 C 0.01895(19) -0.2829(2) 0.34410(11)
H11 H -0.0010 -0.2728 0.3911
H12 H -0.0424 -0.2425 0.3164
C14 C 0.01929(19) -0.4210(2) 0.32778(12)
H13 H 0.0431 -0.4331 0.2816
H14 H 0.0756 -0.4641 0.3578
C15 C -0.1527(2) -0.5276(3) 0.28461(13)
C16 C -0.3262(3) -0.6517(4) 0.26590(17)
C17 C -0.3668(4) -0.5895(5) 0.20155(19)
H15 H -0.3020 -0.5815 0.1722
H16 H -0.3973 -0.5072 0.2113
H17 H -0.4273 -0.6398 0.1797
C18 C -0.4315(4) -0.6665(6) 0.3090(2)
H18 H -0.4082 -0.7072 0.3509
H19 H -0.4898 -0.7170 0.2853
H20 H -0.4636 -0.5847 0.3184
C19 C -0.2617(4) -0.7703(4) 0.2576(2)
H21 H -0.1965 -0.7561 0.2291
H22 H -0.3131 -0.8325 0.2370
H23 H -0.2332 -0.8001 0.3011
C20 C -0.0003(4) 0.2615(3) 0.4091(2)
H24 H -0.0809 0.2753 0.3950
H25 H 0.0490 0.2764 0.3716
H26 H 0.0211 0.3184 0.4455
C21 C -0.0911(2) 0.0682(4) 0.4436(2)
H27 H -0.1569 0.1144 0.4245
H28 H -0.0995 0.0587 0.4916
H29 H -0.0880 -0.0138 0.4228
C22 C 0.2917(3) 0.1871(3) 0.38129(15)
H30 H 0.3531 0.2492 0.3857
H31 H 0.2333 0.2152 0.3483
H32 H 0.3242 0.1082 0.3669
C23 C 0.2801(4) 0.2593(4) 0.49556(19)
H33 H 0.3429 0.3090 0.4785
H34 H 0.3078 0.2142 0.5353
H35 H 0.2165 0.3139 0.5070
P2 P 0.67013(5) 0.06765(6) 0.01026(3)
O5 O 0.7321(2) -0.0280(2) -0.26042(10)
O6 O 0.61665(15) -0.5147(2) -0.27047(9)
O7 O 0.43226(14) -0.55663(17) -0.24422(8)
O8 O 0.6114(2) 0.0428(2) 0.07106(12)
N5 N 0.70966(16) -0.07056(18) -0.02368(9)
N6 N 0.55409(18) -0.4905(2) -0.16594(10)
H36 H 0.4959 -0.5021 -0.1400
N7 N 0.7850(2) 0.1504(3) 0.02193(15)
N8 N 0.5956(2) 0.1360(2) -0.04829(11)
C24 C 0.8230(2) -0.3789(2) 0.00524(14)
H37 H 0.8449 -0.4461 -0.0220
C25 C 0.8339(2) -0.3883(3) 0.07388(14)
H38 H 0.8638 -0.4620 0.0937
C26 C 0.8017(2) -0.2916(3) 0.11317(13)
H39 H 0.8089 -0.2998 0.1601
C27 C 0.7584(2) -0.1813(3) 0.08574(13)
H40 H 0.7369 -0.1144 0.1132
C28 C 0.74793(19) -0.1728(2) 0.01719(11)
C29 C 0.7294(2) -0.0994(2) -0.08971(12)
C30 C 0.7244(3) -0.0273(3) -0.14491(13)
H41 H 0.6994 0.0563 -0.1424
C31 C 0.7580(3) -0.0794(3) -0.20830(13)
C32 C 0.8290(3) -0.1968(3) -0.20842(14)
H42 H 0.9010 -0.1800 -0.2315
H43 H 0.7858 -0.2607 -0.2343
C33 C 0.8600(2) -0.2490(3) -0.13962(14)
H44 H 0.9268 -0.2035 -0.1197
H45 H 0.8815 -0.3374 -0.1434
C34 C 0.75698(19) -0.2361(2) -0.09522(11)
C35 C 0.77961(19) -0.2703(2) -0.02344(12)
C36 C 0.6472(2) -0.3016(2) -0.12429(12)
H46 H 0.5846 -0.2899 -0.0930
H47 H 0.6234 -0.2602 -0.1665
C37 C 0.6602(2) -0.4397(2) -0.13759(13)
H48 H 0.7229 -0.4531 -0.1686
H49 H 0.6809 -0.4830 -0.0955
C38 C 0.54148(19) -0.5205(2) -0.23045(11)
C39 C 0.4015(2) -0.6233(3) -0.30629(14)
C40 C 0.2746(2) -0.6461(4) -0.29957(16)
H50 H 0.2628 -0.6983 -0.2606
H51 H 0.2434 -0.6879 -0.3395
H52 H 0.2350 -0.5668 -0.2942
C41 C 0.4218(3) -0.5420(4) -0.36565(16)
H53 H 0.5046 -0.5286 -0.3695
H54 H 0.3834 -0.4621 -0.3600
H55 H 0.3906 -0.5826 -0.4060
C42 C 0.4677(3) -0.7440(4) -0.3069(2)
H56 H 0.5497 -0.7266 -0.3114
H57 H 0.4395 -0.7947 -0.3445
H58 H 0.4566 -0.7888 -0.2654
C43 C 0.4863(3) 0.0780(4) -0.0698(2)
H59 H 0.4491 0.1278 -0.1052
H60 H 0.4358 0.0730 -0.0321
H61 H 0.5010 -0.0056 -0.0865
C44 C 0.5917(7) 0.2694(4) -0.0565(4)
H62 H 0.5421 0.2902 -0.0954
H63 H 0.6696 0.3007 -0.0630
H64 H 0.5609 0.3074 -0.0168
C45 C 0.8700(6) 0.1648(10) -0.0237(5)
H65 H 0.9317 0.2169 -0.0045
H66 H 0.8372 0.2042 -0.0640
H67 H 0.9011 0.0835 -0.0350
C46 C 0.8227(8) 0.1885(7) 0.0865(3)
H68 H 0.8936 0.2369 0.0837
H69 H 0.8374 0.1154 0.1144
H70 H 0.7631 0.2396 0.1060
loop_
_geom_bond_atom_site_label_1
_geom_bond_atom_site_label_2
_geom_bond_site_symmetry_1
_geom_bond_site_symmetry_2
P1 O4 1_555 1_555
O1 C8 1_555 1_555
O2 C15 1_555 1_555
O3 C15 1_555 1_555
N1 P1 1_555 1_555
N2 H1 1_555 1_555
N3 P1 1_555 1_555
N4 P1 1_555 1_555
C1 H2 1_555 1_555
C2 C1 1_555 1_555
H3 C2 1_555 1_555
C3 C2 1_555 1_555
H4 C3 1_555 1_555
C4 C3 1_555 1_555
H5 C4 1_555 1_555
C5 N1 1_555 1_555
C6 N1 1_555 1_555
C7 C6 1_555 1_555
H6 C7 1_555 1_555
C8 C7 1_555 1_555
C9 C8 1_555 1_555
H7 C9 1_555 1_555
H8 C9 1_555 1_555
C10 C9 1_555 1_555
H9 C10 1_555 1_555
H10 C10 1_555 1_555
C11 C6 1_555 1_555
C12 C1 1_555 1_555
C13 C11 1_555 1_555
H11 C13 1_555 1_555
H12 C13 1_555 1_555
C14 N2 1_555 1_555
H13 C14 1_555 1_555
H14 C14 1_555 1_555
C15 N2 1_555 1_555
C16 O3 1_555 1_555
C17 C16 1_555 1_555
H15 C17 1_555 1_555
H16 C17 1_555 1_555
H17 C17 1_555 1_555
C18 C16 1_555 1_555
H18 C18 1_555 1_555
H19 C18 1_555 1_555
H20 C18 1_555 1_555
C19 C16 1_555 1_555
H21 C19 1_555 1_555
H22 C19 1_555 1_555
H23 C19 1_555 1_555
C20 N3 1_555 1_555
H24 C20 1_555 1_555
H25 C20 1_555 1_555
H26 C20 1_555 1_555
C21 N3 1_555 1_555
H27 C21 1_555 1_555
H28 C21 1_555 1_555
H29 C21 1_555 1_555
C22 N4 1_555 1_555
H30 C22 1_555 1_555
H31 C22 1_555 1_555
H32 C22 1_555 1_555
C23 N4 1_555 1_555
H33 C23 1_555 1_555
H34 C23 1_555 1_555
H35 C23 1_555 1_555
P2 O8 1_555 1_555
O5 C31 1_555 1_555
O6 C38 1_555 1_555
O7 C38 1_555 1_555
N5 P2 1_555 1_555
N6 H36 1_555 1_555
N7 P2 1_555 1_555
N8 P2 1_555 1_555
C24 H37 1_555 1_555
C25 C24 1_555 1_555
H38 C25 1_555 1_555
C26 C25 1_555 1_555
H39 C26 1_555 1_555
C27 C26 1_555 1_555
H40 C27 1_555 1_555
C28 N5 1_555 1_555
C29 N5 1_555 1_555
C30 C29 1_555 1_555
H41 C30 1_555 1_555
C31 C30 1_555 1_555
C32 C31 1_555 1_555
H42 C32 1_555 1_555
H43 C32 1_555 1_555
C33 C32 1_555 1_555
H44 C33 1_555 1_555
H45 C33 1_555 1_555
C34 C29 1_555 1_555
C35 C24 1_555 1_555
C36 C34 1_555 1_555
H46 C36 1_555 1_555
H47 C36 1_555 1_555
C37 N6 1_555 1_555
H48 C37 1_555 1_555
H49 C37 1_555 1_555
C38 N6 1_555 1_555
C39 O7 1_555 1_555
C40 C39 1_555 1_555
H50 C40 1_555 1_555
H51 C40 1_555 1_555
H52 C40 1_555 1_555
C41 C39 1_555 1_555
H53 C41 1_555 1_555
H54 C41 1_555 1_555
H55 C41 1_555 1_555
C42 C39 1_555 1_555
H56 C42 1_555 1_555
H57 C42 1_555 1_555
H58 C42 1_555 1_555
C43 N8 1_555 1_555
H59 C43 1_555 1_555
H60 C43 1_555 1_555
H61 C43 1_555 1_555
C44 N8 1_555 1_555
H62 C44 1_555 1_555
H63 C44 1_555 1_555
H64 C44 1_555 1_555
C45 N7 1_555 1_555
H65 C45 1_555 1_555
H66 C45 1_555 1_555
H67 C45 1_555 1_555
C46 N7 1_555 1_555
H68 C46 1_555 1_555
H69 C46 1_555 1_555
H70 C46 1_555 1_555
C4 C5 1_555 1_555
C5 C12 1_555 1_555
C10 C11 1_555 1_555
C11 C12 1_555 1_555
C13 C14 1_555 1_555
C27 C28 1_555 1_555
C28 C35 1_555 1_555
C33 C34 1_555 1_555
C34 C35 1_555 1_555
C36 C37 1_555 1_555

#END
