
#######################################################################
#
#                 Cambridge Crystallographic Data Centre
#                                CCDC 
#
#######################################################################
#
# If this CIF has been generated from an entry in the Cambridge 
# Structural Database, then it will include bibliographic, chemical, 
# crystal, experimental, refinement or atomic coordinate data resulting 
# from the CCDC's data processing and validation procedures.
#
#######################################################################

data_FECDEY
_chemical_formula_moiety         'C21 H15 N1 O1'
_chemical_name_systematic        2-(4-Phenylquinolin-2-yl)phenol
_symmetry_cell_setting           monoclinic
_symmetry_space_group_name_H-M   'P 21/c'
_symmetry_Int_Tables_number      14
_space_group_name_Hall           '-P 2ybc'
loop_
_symmetry_equiv_pos_site_id
_symmetry_equiv_pos_as_xyz
1 x,y,z
2 -x,1/2+y,1/2-z
3 -x,-y,-z
4 x,1/2-y,1/2+z
_cell_length_a                   13.740(2)
_cell_length_b                   7.0021(12)
_cell_length_c                   15.550(3)
_cell_angle_alpha                90
_cell_angle_beta                 95.820(4)
_cell_angle_gamma                90
_cell_volume                     1488.34
_exptl_crystal_colour            colorless
_exptl_crystal_description       block
_cell_formula_units_Z            4
loop_
_atom_site_label
_atom_site_type_symbol
_atom_site_fract_x
_atom_site_fract_y
_atom_site_fract_z
C1 C 0.62001(11) 0.40369(19) 0.26284(10)
C2 C 0.53340(10) 0.39772(17) 0.30439(9)
C3 C 0.54439(11) 0.3878(2) 0.39445(9)
H1 H 0.4886 0.3819 0.4235
C4 C 0.63390(11) 0.3865(2) 0.44173(10)
H2 H 0.6384 0.3784 0.5017
C5 C 0.71722(12) 0.3972(2) 0.39982(12)
H3 H 0.7784 0.3983 0.4315
C6 C 0.71012(12) 0.4061(2) 0.31158(12)
H4 H 0.7668 0.4140 0.2838
C7 C 0.43642(10) 0.40147(17) 0.25474(8)
C8 C 0.34912(10) 0.41519(17) 0.29564(8)
H5 H 0.3531 0.4221 0.3556
C9 C 0.25980(10) 0.41844(18) 0.24941(8)
C10 C 0.25483(11) 0.40761(18) 0.15723(8)
C11 C 0.34464(12) 0.39781(17) 0.12017(9)
C12 C 0.34394(13) 0.3944(2) 0.02950(9)
H6 H 0.4028 0.3895 0.0049
C13 C 0.25880(15) 0.3981(2) -0.02214(10)
H7 H 0.2596 0.3955 -0.0819
C14 C 0.16978(14) 0.4059(2) 0.01348(10)
H8 H 0.1115 0.4066 -0.0226
C15 C 0.16760(12) 0.4126(2) 0.10121(9)
H9 H 0.1078 0.4204 0.1241
C16 C 0.17079(10) 0.4402(2) 0.29551(7)
C17 C 0.09376(11) 0.3120(2) 0.28485(9)
H10 H 0.0967 0.2092 0.2474
C18 C 0.01261(11) 0.3355(3) 0.32938(10)
H11 H -0.0387 0.2486 0.3215
C19 C 0.00735(11) 0.4857(3) 0.38497(10)
H12 H -0.0476 0.5016 0.4146
C20 C 0.08308(11) 0.6121(2) 0.39678(9)
H13 H 0.0798 0.7136 0.4349
C21 C 0.16454(10) 0.5906(2) 0.35262(8)
H14 H 0.2157 0.6777 0.3613
N1 N 0.43288(9) 0.39440(15) 0.16911(7)
O1 O 0.61852(10) 0.40849(17) 0.17588(7)
H15 H 0.5477(18) 0.404(3) 0.1545(14)
loop_
_geom_bond_atom_site_label_1
_geom_bond_atom_site_label_2
_geom_bond_site_symmetry_1
_geom_bond_site_symmetry_2
C1 C2 1_555 1_555
C2 C3 1_555 1_555
C3 H1 1_555 1_555
C4 C3 1_555 1_555
H2 C4 1_555 1_555
C5 C4 1_555 1_555
H3 C5 1_555 1_555
C6 C1 1_555 1_555
H4 C6 1_555 1_555
C7 C2 1_555 1_555
C8 C7 1_555 1_555
H5 C8 1_555 1_555
C9 C8 1_555 1_555
C10 C9 1_555 1_555
C11 C10 1_555 1_555
C12 C11 1_555 1_555
H6 C12 1_555 1_555
C13 C12 1_555 1_555
H7 C13 1_555 1_555
C14 C13 1_555 1_555
H8 C14 1_555 1_555
C15 C10 1_555 1_555
H9 C15 1_555 1_555
C16 C9 1_555 1_555
C17 C16 1_555 1_555
H10 C17 1_555 1_555
C18 C17 1_555 1_555
H11 C18 1_555 1_555
C19 C18 1_555 1_555
H12 C19 1_555 1_555
C20 C19 1_555 1_555
H13 C20 1_555 1_555
C21 C16 1_555 1_555
H14 C21 1_555 1_555
N1 C7 1_555 1_555
O1 C1 1_555 1_555
H15 O1 1_555 1_555
C5 C6 1_555 1_555
C11 N1 1_555 1_555
C14 C15 1_555 1_555
C20 C21 1_555 1_555

#END
