
#######################################################################
#
#                 Cambridge Crystallographic Data Centre
#                                CCDC 
#
#######################################################################
#
# If this CIF has been generated from an entry in the Cambridge 
# Structural Database, then it will include bibliographic, chemical, 
# crystal, experimental, refinement or atomic coordinate data resulting 
# from the CCDC's data processing and validation procedures.
#
#######################################################################

data_FECFEB
_chemical_name_common            'nicotinamide 4-nitrobenzoic acid'
_chemical_formula_moiety         'C6 H6 N2 O1,C7 H5 N1 O4'
_chemical_name_systematic        'pyridine-3-carboxamide 4-nitrobenzoic acid'
_symmetry_cell_setting           triclinic
_symmetry_space_group_name_H-M   'P -1'
_symmetry_Int_Tables_number      2
_space_group_name_Hall           '-P 1'
loop_
_symmetry_equiv_pos_site_id
_symmetry_equiv_pos_as_xyz
1 x,y,z
2 -x,-y,-z
_cell_length_a                   7.1167(5)
_cell_length_b                   7.5590(5)
_cell_length_c                   12.8081(9)
_cell_angle_alpha                85.164(2)
_cell_angle_beta                 75.933(2)
_cell_angle_gamma                85.895(2)
_cell_volume                     665.041
_exptl_crystal_colour            colorless
_exptl_crystal_description       Block
_cell_formula_units_Z            2
loop_
_atom_site_label
_atom_site_type_symbol
_atom_site_fract_x
_atom_site_fract_y
_atom_site_fract_z
O1 O 0.7016(2) 0.12253(17) 0.62520(10)
O2 O 0.7475(2) 0.3148(2) 0.73616(9)
N1 N 0.7803(2) 0.8299(2) 0.31076(12)
O3 O 0.8075(3) 0.9795(2) 0.33054(13)
O4 O 0.7656(3) 0.7939(2) 0.22265(11)
C1 C 0.7429(2) 0.4218(2) 0.55774(11)
C2 C 0.7669(2) 0.6863(2) 0.39705(12)
C3 C 0.7306(2) 0.2808(2) 0.64825(12)
C4 C 0.7425(2) 0.3810(2) 0.45412(12)
H1 H 0.7336 0.2638 0.4397
C5 C 0.7553(2) 0.5148(2) 0.37202(12)
H2 H 0.7561 0.4892 0.3022
C6 C 0.7563(2) 0.5964(2) 0.57941(12)
H3 H 0.7575 0.623 0.6488
C7 C 0.7679(3) 0.7313(2) 0.49866(13)
H4 H 0.7761 0.8489 0.5126
H5 H 0.694(4) 0.052(3) 0.6802(15)
O5 O 0.17735(19) 0.60390(18) 0.88830(9)
N2 N 0.1528(2) 0.6228(2) 1.06520(11)
N3 N 0.6546(2) 0.90616(19) 0.79889(11)
C8 C 0.4292(2) 0.74284(19) 0.93579(11)
C9 C 0.2421(2) 0.6511(2) 0.96195(12)
C10 C 0.5482(2) 0.7499(2) 1.00624(12)
H6 H 0.5113 0.7 1.0766
C11 C 0.4890(3) 0.8235(2) 0.83253(13)
H7 H 0.41 0.8196 0.7847
C12 C 0.7220(2) 0.8317(2) 0.97091(13)
H8 H 0.8052 0.8352 1.0165
C13 C 0.7699(3) 0.9079(2) 0.86688(14)
H9 H 0.8872 0.9627 0.8431
H10 H 0.048(2) 0.558(2) 1.0815(15)
H11 H 0.200(3) 0.658(2) 1.1173(12)
loop_
_geom_bond_atom_site_label_1
_geom_bond_atom_site_label_2
_geom_bond_site_symmetry_1
_geom_bond_site_symmetry_2
O1 C3 1_555 1_555
O2 C3 1_555 1_555
N1 O3 1_555 1_555
O4 N1 1_555 1_555
C1 C3 1_555 1_555
C2 N1 1_555 1_555
C4 C1 1_555 1_555
H1 C4 1_555 1_555
C5 C2 1_555 1_555
H2 C5 1_555 1_555
C6 C1 1_555 1_555
H3 C6 1_555 1_555
C7 C2 1_555 1_555
H4 C7 1_555 1_555
H5 O1 1_555 1_555
O5 C9 1_555 1_555
N2 C9 1_555 1_555
N3 C11 1_555 1_555
C8 C9 1_555 1_555
C10 C8 1_555 1_555
H6 C10 1_555 1_555
C11 C8 1_555 1_555
H7 C11 1_555 1_555
C12 C10 1_555 1_555
H8 C12 1_555 1_555
C13 N3 1_555 1_555
H9 C13 1_555 1_555
H10 N2 1_555 1_555
H11 N2 1_555 1_555
C4 C5 1_555 1_555
C6 C7 1_555 1_555
C12 C13 1_555 1_555

#END
