
#######################################################################
#
#                 Cambridge Crystallographic Data Centre
#                                CCDC 
#
#######################################################################
#
# If this CIF has been generated from an entry in the Cambridge 
# Structural Database, then it will include bibliographic, chemical, 
# crystal, experimental, refinement or atomic coordinate data resulting 
# from the CCDC's data processing and validation procedures.
#
#######################################################################

data_FECGEC
_chemical_formula_moiety         'C7 H7 N1 O1,C7 H5 F1 O2'
_chemical_name_systematic        'benzamide 3-fluorobenzoic acid'
_symmetry_cell_setting           triclinic
_symmetry_space_group_name_H-M   'P -1'
_symmetry_Int_Tables_number      2
_space_group_name_Hall           '-P 1'
loop_
_symmetry_equiv_pos_site_id
_symmetry_equiv_pos_as_xyz
1 x,y,z
2 -x,-y,-z
_cell_length_a                   5.222(4)
_cell_length_b                   8.817(7)
_cell_length_c                   14.578(11)
_cell_angle_alpha                101.606(18)
_cell_angle_beta                 94.434(16)
_cell_angle_gamma                94.826(18)
_cell_volume                     652.091
_exptl_crystal_colour            pink
_exptl_crystal_description       Block
_cell_formula_units_Z            2
loop_
_atom_site_label
_atom_site_type_symbol
_atom_site_fract_x
_atom_site_fract_y
_atom_site_fract_z
C1 C 0.5532(8) -0.0036(5) 0.7373(3)
H1 H 0.4027 -0.0635 0.7434
C2 C 0.6615(9) 0.1135(6) 0.8104(3)
C3 C 0.8794(9) 0.2066(5) 0.8039(3)
H2 H 0.9475 0.2869 0.8536
C4 C 0.9932(8) 0.1777(5) 0.7222(3)
H3 H 1.1439 0.2382 0.7168
C5 C 0.8912(8) 0.0613(5) 0.6470(3)
H4 H 0.9705 0.045 0.5913
C6 C 0.6692(7) -0.0312(5) 0.6551(2)
C7 C 0.5513(7) -0.1618(5) 0.5769(3)
O1 O 0.6826(6) -0.1789(4) 0.5018(2)
H5 H 0.617(11) -0.256(5) 0.462(3)
O2 O 0.3538(5) -0.2431(4) 0.58116(18)
F1 F 0.5438(6) 0.1390(4) 0.89108(19)
C8 C 0.0308(8) 0.3036(5) 0.2269(3)
H6 H -0.0778 0.2914 0.2731
C9 C -0.0200(8) 0.2116(6) 0.1380(3)
H7 H -0.1629 0.1376 0.1249
C10 C 0.1370(9) 0.2275(6) 0.0684(3)
H8 H 0.1012 0.1647 0.0085
C11 C 0.3477(9) 0.3373(6) 0.0883(3)
H9 H 0.4535 0.3505 0.0414
C12 C 0.4029(8) 0.4286(5) 0.1783(3)
H10 H 0.5492 0.5001 0.1917
C13 C 0.2445(7) 0.4150(4) 0.2480(2)
C14 C 0.3117(7) 0.5170(4) 0.3427(2)
O3 O 0.5363(5) 0.5848(3) 0.36458(18)
N1 N 0.1330(7) 0.5339(5) 0.4030(2)
H11 H 0.178(7) 0.590(4) 0.4613(12)
H12 H -0.033(3) 0.503(5) 0.382(3)
loop_
_geom_bond_atom_site_label_1
_geom_bond_atom_site_label_2
_geom_bond_site_symmetry_1
_geom_bond_site_symmetry_2
C1 H1 1_555 1_555
C2 C1 1_555 1_555
C3 C2 1_555 1_555
H2 C3 1_555 1_555
C4 C3 1_555 1_555
H3 C4 1_555 1_555
C5 C4 1_555 1_555
H4 C5 1_555 1_555
C6 C1 1_555 1_555
C7 C6 1_555 1_555
O1 C7 1_555 1_555
H5 O1 1_555 1_555
O2 C7 1_555 1_555
F1 C2 1_555 1_555
C8 H6 1_555 1_555
C9 C8 1_555 1_555
H7 C9 1_555 1_555
C10 C9 1_555 1_555
H8 C10 1_555 1_555
C11 C10 1_555 1_555
H9 C11 1_555 1_555
C12 C11 1_555 1_555
H10 C12 1_555 1_555
C13 C8 1_555 1_555
C14 C13 1_555 1_555
O3 C14 1_555 1_555
N1 C14 1_555 1_555
H11 N1 1_555 1_555
H12 N1 1_555 1_555
C5 C6 1_555 1_555
C12 C13 1_555 1_555

#END
