
#######################################################################
#
#                 Cambridge Crystallographic Data Centre
#                                CCDC 
#
#######################################################################
#
# If this CIF has been generated from an entry in the Cambridge 
# Structural Database, then it will include bibliographic, chemical, 
# crystal, experimental, refinement or atomic coordinate data resulting 
# from the CCDC's data processing and validation procedures.
#
#######################################################################

data_FECJOO
_chemical_formula_moiety         'C18 H17 N1 O2'
_chemical_name_systematic        
'Methyl cis-3,5-diphenyl-3,4-dihydro-2H-pyrrole-2-carboxylate'
_symmetry_cell_setting           monoclinic
_symmetry_space_group_name_H-M   'P 21/c'
_symmetry_Int_Tables_number      14
_space_group_name_Hall           '-P 2ybc'
loop_
_symmetry_equiv_pos_site_id
_symmetry_equiv_pos_as_xyz
1 x,y,z
2 -x,1/2+y,1/2-z
3 -x,-y,-z
4 x,1/2-y,1/2+z
_cell_length_a                   7.6540(13)
_cell_length_b                   16.830(3)
_cell_length_c                   11.568(2)
_cell_angle_alpha                90
_cell_angle_beta                 99.578(2)
_cell_angle_gamma                90
_cell_volume                     1469.38
_exptl_crystal_colour            'pale yellow'
_exptl_crystal_description       bulk
_chemical_melting_point          '106-108 deg.C'
_cell_formula_units_Z            4
loop_
_atom_site_label
_atom_site_type_symbol
_atom_site_fract_x
_atom_site_fract_y
_atom_site_fract_z
O1 O 1.13253(17) 0.04650(7) 0.75956(11)
N1 N 0.8049(2) 0.06502(9) 0.49943(13)
C1 C 1.0477(2) 0.08265(12) 0.66303(16)
C2 C 0.8769(2) 0.04077(10) 0.61917(16)
H1 H 0.9005 -0.0165 0.6190
C3 C 0.7858(2) 0.10173(10) 0.80903(16)
C4 C 0.5442(2) 0.12318(10) 0.38507(17)
O2 O 1.10170(19) 0.14148(9) 0.62200(13)
C5 C 0.6501(2) 0.09383(10) 0.49494(16)
C6 C 0.7285(2) 0.05622(11) 0.69674(16)
H2 H 0.6844 0.0044 0.7176
C7 C 0.3799(2) 0.15816(12) 0.38454(19)
H3 H 0.3344 0.1623 0.4540
C8 C 0.8168(3) 0.18318(11) 0.81000(18)
H4 H 0.7985 0.2114 0.7399
C9 C 0.6068(3) 0.11731(11) 0.27976(17)
H5 H 0.7165 0.0939 0.2783
C10 C 0.8747(3) 0.22268(13) 0.9142(2)
H6 H 0.8950 0.2771 0.9134
C11 C 0.5821(2) 0.09549(13) 0.60916(17)
H7 H 0.4721 0.0660 0.6035
H8 H 0.5619 0.1497 0.6323
C12 C 0.8137(3) 0.06264(12) 0.91561(18)
H9 H 0.7923 0.0083 0.9176
C13 C 0.5091(3) 0.14568(13) 0.17671(18)
H10 H 0.5527 0.1409 0.1066
C14 C 0.9025(3) 0.18230(15) 1.0186(2)
H11 H 0.9415 0.2091 1.0884
C15 C 0.8723(3) 0.10232(15) 1.01912(19)
H12 H 0.8915 0.0745 1.0896
C16 C 0.3469(3) 0.18104(13) 0.1779(2)
H13 H 0.2813 0.2008 0.1090
C17 C 1.2797(3) 0.08719(14) 0.82762(19)
H14 H 1.3279 0.0552 0.8941
H15 H 1.2404 0.1371 0.8542
H16 H 1.3693 0.0964 0.7801
C18 C 0.2832(3) 0.18685(13) 0.2811(2)
H17 H 0.1735 0.2104 0.2820
loop_
_geom_bond_atom_site_label_1
_geom_bond_atom_site_label_2
_geom_bond_site_symmetry_1
_geom_bond_site_symmetry_2
O1 C1 1_555 1_555
N1 C2 1_555 1_555
C1 C2 1_555 1_555
C2 H1 1_555 1_555
C3 C6 1_555 1_555
C4 C5 1_555 1_555
O2 C1 1_555 1_555
C5 N1 1_555 1_555
C6 C2 1_555 1_555
H2 C6 1_555 1_555
C7 C4 1_555 1_555
H3 C7 1_555 1_555
C8 C3 1_555 1_555
H4 C8 1_555 1_555
C9 C4 1_555 1_555
H5 C9 1_555 1_555
C10 C8 1_555 1_555
H6 C10 1_555 1_555
C11 C5 1_555 1_555
H7 C11 1_555 1_555
H8 C11 1_555 1_555
C12 C3 1_555 1_555
H9 C12 1_555 1_555
C13 C9 1_555 1_555
H10 C13 1_555 1_555
C14 C10 1_555 1_555
H11 C14 1_555 1_555
C15 C12 1_555 1_555
H12 C15 1_555 1_555
C16 C13 1_555 1_555
H13 C16 1_555 1_555
C17 O1 1_555 1_555
H14 C17 1_555 1_555
H15 C17 1_555 1_555
H16 C17 1_555 1_555
C18 C7 1_555 1_555
H17 C18 1_555 1_555
C6 C11 1_555 1_555
C14 C15 1_555 1_555
C16 C18 1_555 1_555

#END
