
#######################################################################
#
#                 Cambridge Crystallographic Data Centre
#                                CCDC 
#
#######################################################################
#
# If this CIF has been generated from an entry in the Cambridge 
# Structural Database, then it will include bibliographic, chemical, 
# crystal, experimental, refinement or atomic coordinate data resulting 
# from the CCDC's data processing and validation procedures.
#
#######################################################################

data_FECJUV
_chemical_formula_moiety         'C19 H10 O3'
_chemical_name_systematic        13H-benzo[c]furo[2,3-a]xanthen-13-one
_symmetry_cell_setting           triclinic
_symmetry_space_group_name_H-M   'P -1'
_symmetry_Int_Tables_number      2
_space_group_name_Hall           '-P 1'
loop_
_symmetry_equiv_pos_site_id
_symmetry_equiv_pos_as_xyz
1 x,y,z
2 -x,-y,-z
_cell_length_a                   6.958(4)
_cell_length_b                   8.660(5)
_cell_length_c                   11.304(6)
_cell_angle_alpha                106.451(9)
_cell_angle_beta                 92.498(10)
_cell_angle_gamma                100.270(9)
_cell_volume                     639.585
_exptl_crystal_colour            colorless
_exptl_crystal_description       prism
_cell_formula_units_Z            2
loop_
_atom_site_label
_atom_site_type_symbol
_atom_site_fract_x
_atom_site_fract_y
_atom_site_fract_z
O1 O 0.2882(7) 0.6417(5) -0.1677(4)
O2 O 0.1986(5) 0.3173(4) 0.0353(3)
O3 O 0.3587(5) 0.8950(4) 0.0616(3)
C1 C 0.2167(7) 0.3652(6) -0.1642(4)
C2 C 0.2043(8) 0.2993(7) -0.2925(5)
H1 H 0.2229 0.3676 -0.3431
C3 C 0.1637(9) 0.1300(8) -0.3433(6)
H2 H 0.1541 0.0846 -0.4289
C4 C 0.1380(8) 0.0299(7) -0.2702(5)
H3 H 0.1106 -0.0833 -0.3066
C5 C 0.1515(8) 0.0921(7) -0.1430(5)
H4 H 0.1356 0.0224 -0.0933
C6 C 0.1893(7) 0.2608(6) -0.0910(4)
C7 C 0.2377(7) 0.4826(6) 0.0931(5)
C8 C 0.2466(8) 0.5231(6) 0.2261(5)
C9 C 0.2103(8) 0.4038(7) 0.2881(5)
H5 H 0.1761 0.2936 0.2421
C10 C 0.2239(10) 0.4451(8) 0.4139(5)
H6 H 0.2017 0.3638 0.4534
C11 C 0.2720(9) 0.6127(8) 0.4842(5)
H7 H 0.2817 0.6416 0.5703
C12 C 0.3033(9) 0.7292(8) 0.4279(5)
H8 H 0.3340 0.8387 0.4758
C13 C 0.2913(7) 0.6913(7) 0.2971(5)
C14 C 0.3240(7) 0.8125(6) 0.2314(5)
C15 C 0.3770(8) 0.9876(7) 0.2675(5)
H9 H 0.3956 1.0584 0.3480
C16 C 0.3946(8) 1.0297(6) 0.1633(5)
H10 H 0.4272 1.1374 0.1604
C17 C 0.3158(7) 0.7630(6) 0.1054(5)
C18 C 0.2721(8) 0.5974(7) 0.0287(5)
C19 C 0.2619(8) 0.5445(7) -0.1068(5)
loop_
_geom_bond_atom_site_label_1
_geom_bond_atom_site_label_2
_geom_bond_site_symmetry_1
_geom_bond_site_symmetry_2
O1 C19 1_555 1_555
O2 C6 1_555 1_555
O3 C16 1_555 1_555
C1 C2 1_555 1_555
C2 H1 1_555 1_555
C3 C2 1_555 1_555
H2 C3 1_555 1_555
C4 C3 1_555 1_555
H3 C4 1_555 1_555
C5 C4 1_555 1_555
H4 C5 1_555 1_555
C6 C1 1_555 1_555
C7 O2 1_555 1_555
C8 C7 1_555 1_555
C9 C8 1_555 1_555
H5 C9 1_555 1_555
C10 C9 1_555 1_555
H6 C10 1_555 1_555
C11 C10 1_555 1_555
H7 C11 1_555 1_555
C12 C11 1_555 1_555
H8 C12 1_555 1_555
C13 C8 1_555 1_555
C14 C13 1_555 1_555
C15 C14 1_555 1_555
H9 C15 1_555 1_555
C16 C15 1_555 1_555
H10 C16 1_555 1_555
C17 O3 1_555 1_555
C18 C7 1_555 1_555
C19 C1 1_555 1_555
C5 C6 1_555 1_555
C12 C13 1_555 1_555
C14 C17 1_555 1_555
C17 C18 1_555 1_555
C18 C19 1_555 1_555

#END
