
#######################################################################
#
#                 Cambridge Crystallographic Data Centre
#                                CCDC 
#
#######################################################################
#
# If this CIF has been generated from an entry in the Cambridge 
# Structural Database, then it will include bibliographic, chemical, 
# crystal, experimental, refinement or atomic coordinate data resulting 
# from the CCDC's data processing and validation procedures.
#
#######################################################################

data_FECJII
_chemical_name_common            
((5R*,6R*,11R*,12R*)-5,6,11,12-Tetrahydro-5,11-epoxydibenzo[a,e][8]annulene-6,12-diyl)bis(phenylmethanone)
_chemical_formula_moiety         'C30 H22 O3'
_chemical_name_systematic        
(1R*,8R*,9R*,16R*)-17-Oxatetracyclo[7.7.1.0^2,7^.0^10,15^]heptadeca-2,4,6,10,12,14-hexaene-8,16-diylbis(phenylmethanone)
_symmetry_cell_setting           monoclinic
_symmetry_space_group_name_H-M   'P 21/c'
_symmetry_Int_Tables_number      14
_space_group_name_Hall           '-P 2ybc'
loop_
_symmetry_equiv_pos_site_id
_symmetry_equiv_pos_as_xyz
1 x,y,z
2 -x,1/2+y,1/2-z
3 -x,-y,-z
4 x,1/2-y,1/2+z
_cell_length_a                   13.7895(14)
_cell_length_b                   16.0801(16)
_cell_length_c                   9.8741(10)
_cell_angle_alpha                90
_cell_angle_beta                 101.502(2)
_cell_angle_gamma                90
_cell_volume                     2145.48
_exptl_crystal_colour            colorless
_exptl_crystal_description       prismatic
_chemical_melting_point          '177-180 deg.C'
_cell_formula_units_Z            4
loop_
_atom_site_label
_atom_site_type_symbol
_atom_site_fract_x
_atom_site_fract_y
_atom_site_fract_z
O1 O 0.25390(9) 0.04402(7) 0.39666(12)
O2 O 0.40934(10) 0.19159(8) 0.59218(17)
O3 O 0.10151(11) -0.09987(10) 0.21786(15)
C1 C 0.20707(13) 0.06148(10) 0.50977(18)
H1 H 0.1586 0.1059 0.4815
C2 C 0.28649(12) 0.09420(9) 0.62929(18)
H2 H 0.2566 0.0989 0.7111
C3 C 0.36930(12) 0.03131(10) 0.66070(18)
C4 C 0.43592(14) 0.03192(11) 0.78608(19)
H3 H 0.4290 0.0713 0.8525
C5 C 0.51216(15) -0.02468(12) 0.8140(2)
H4 H 0.5568 -0.0229 0.8981
C6 C 0.52225(14) -0.08374(11) 0.7175(2)
H5 H 0.5729 -0.1227 0.7366
C7 C 0.45706(13) -0.08504(10) 0.5924(2)
H6 H 0.4646 -0.1247 0.5267
C8 C 0.38018(12) -0.02805(10) 0.56259(18)
C9 C 0.31188(13) -0.02991(10) 0.42303(18)
H7 H 0.3523 -0.0348 0.3522
C10 C 0.23968(12) -0.10375(10) 0.40717(18)
H8 H 0.2779 -0.1544 0.4354
C11 C 0.16799(12) -0.09186(10) 0.50152(18)
C12 C 0.11659(14) -0.15848(11) 0.5424(2)
H9 H 0.1259 -0.2114 0.5091
C13 C 0.05262(14) -0.14811(12) 0.6303(2)
H10 H 0.0191 -0.1937 0.6564
C14 C 0.03770(14) -0.06934(12) 0.6807(2)
H11 H -0.0058 -0.0616 0.7404
C15 C 0.08844(13) -0.00301(11) 0.64070(19)
H12 H 0.0787 0.0497 0.6743
C16 C 0.15334(12) -0.01259(10) 0.55231(18)
C17 C 0.32367(14) 0.18027(11) 0.5986(2)
C18 C 0.25235(13) 0.25104(10) 0.57456(19)
C19 C 0.16111(15) 0.24988(12) 0.6119(2)
H13 H 0.1421 0.2033 0.6560
C20 C 0.09768(17) 0.31705(13) 0.5847(3)
H14 H 0.0353 0.3147 0.6070
C21 C 0.12711(18) 0.38705(14) 0.5249(2)
H15 H 0.0852 0.4328 0.5082
C22 C 0.21832(18) 0.38954(13) 0.4897(2)
H16 H 0.2382 0.4371 0.4491
C23 C 0.28026(15) 0.32220(11) 0.5140(2)
H17 H 0.3419 0.3245 0.4894
C24 C 0.18916(15) -0.11292(11) 0.2547(2)
C25 C 0.25114(14) -0.13437(10) 0.15282(19)
C26 C 0.34365(15) -0.17099(11) 0.1884(2)
H18 H 0.3693 -0.1834 0.2806
C27 C 0.39836(17) -0.18931(11) 0.0900(2)
H19 H 0.4597 -0.2149 0.1156
C28 C 0.3623(2) -0.16972(13) -0.0459(3)
H20 H 0.3998 -0.1809 -0.1123
C29 C 0.2702(2) -0.13344(14) -0.0838(2)
H21 H 0.2456 -0.1202 -0.1760
C30 C 0.21470(16) -0.11683(12) 0.0138(2)
H22 H 0.1521 -0.0936 -0.0131
loop_
_geom_bond_atom_site_label_1
_geom_bond_atom_site_label_2
_geom_bond_site_symmetry_1
_geom_bond_site_symmetry_2
O1 C1 1_555 1_555
O2 C17 1_555 1_555
O3 C24 1_555 1_555
C1 H1 1_555 1_555
C2 C1 1_555 1_555
H2 C2 1_555 1_555
C3 C2 1_555 1_555
C4 C3 1_555 1_555
H3 C4 1_555 1_555
C5 C4 1_555 1_555
H4 C5 1_555 1_555
C6 C5 1_555 1_555
H5 C6 1_555 1_555
C7 C6 1_555 1_555
H6 C7 1_555 1_555
C8 C3 1_555 1_555
C9 O1 1_555 1_555
H7 C9 1_555 1_555
C10 C9 1_555 1_555
H8 C10 1_555 1_555
C11 C10 1_555 1_555
C12 C11 1_555 1_555
H9 C12 1_555 1_555
C13 C12 1_555 1_555
H10 C13 1_555 1_555
C14 C13 1_555 1_555
H11 C14 1_555 1_555
C15 C14 1_555 1_555
H12 C15 1_555 1_555
C16 C1 1_555 1_555
C17 C2 1_555 1_555
C18 C17 1_555 1_555
C19 C18 1_555 1_555
H13 C19 1_555 1_555
C20 C19 1_555 1_555
H14 C20 1_555 1_555
C21 C20 1_555 1_555
H15 C21 1_555 1_555
C22 C21 1_555 1_555
H16 C22 1_555 1_555
C23 C18 1_555 1_555
H17 C23 1_555 1_555
C24 C10 1_555 1_555
C25 C24 1_555 1_555
C26 C25 1_555 1_555
H18 C26 1_555 1_555
C27 C26 1_555 1_555
H19 C27 1_555 1_555
C28 C27 1_555 1_555
H20 C28 1_555 1_555
C29 C28 1_555 1_555
H21 C29 1_555 1_555
C30 C25 1_555 1_555
H22 C30 1_555 1_555
C7 C8 1_555 1_555
C8 C9 1_555 1_555
C11 C16 1_555 1_555
C15 C16 1_555 1_555
C22 C23 1_555 1_555
C29 C30 1_555 1_555

#END
