
#######################################################################
#
#                 Cambridge Crystallographic Data Centre
#                                CCDC 
#
#######################################################################
#
# If this CIF has been generated from an entry in the Cambridge 
# Structural Database, then it will include bibliographic, chemical, 
# crystal, experimental, refinement or atomic coordinate data resulting 
# from the CCDC's data processing and validation procedures.
#
#######################################################################

data_FECKIK
_chemical_formula_moiety         'C9 H12 O2'
_chemical_name_systematic        1,4,4a,5,8,8a-hexahydro-3H-isochromen-3-one
_symmetry_cell_setting           orthorhombic
_symmetry_space_group_name_H-M   'P n a 21'
_symmetry_Int_Tables_number      33
_space_group_name_Hall           'P 2c -2n'
loop_
_symmetry_equiv_pos_site_id
_symmetry_equiv_pos_as_xyz
1 x,y,z
2 -x,-y,1/2+z
3 1/2+x,1/2-y,z
4 1/2-x,1/2+y,1/2+z
_cell_length_a                   11.629(8)
_cell_length_b                   12.235(8)
_cell_length_c                   5.656(4)
_cell_angle_alpha                90
_cell_angle_beta                 90
_cell_angle_gamma                90
_cell_volume                     804.74
_exptl_crystal_colour            colorless
_exptl_crystal_description       prismatic
_cell_formula_units_Z            4
loop_
_atom_site_label
_atom_site_type_symbol
_atom_site_fract_x
_atom_site_fract_y
_atom_site_fract_z
O1 O 0.5547(4) 0.2939(4) 0.2950(11)
O2 O 0.4388(4) 0.4320(4) 0.2424(8)
C1 C 0.4701(5) 0.3414(5) 0.3574(12)
C2 C 0.3969(5) 0.3012(5) 0.5551(13)
H1 H 0.4472 0.2742 0.6789
H2 H 0.3526 0.2395 0.4977
C3 C 0.3143(5) 0.3822(5) 0.6648(11)
H3 H 0.3599 0.4289 0.7699
C4 C 0.2238(5) 0.3271(4) 0.8178(11)
H4 H 0.1916 0.2656 0.7324
H5 H 0.2601 0.2992 0.9600
C5 C 0.1292(4) 0.4033(5) 0.8855(10)
H6 H 0.0786 0.3816 1.0038
C6 C 0.1136(4) 0.4993(5) 0.7870(12)
H7 H 0.0540 0.5430 0.8425
C7 C 0.1862(5) 0.5415(4) 0.5914(12)
H8 H 0.2337 0.6006 0.6508
H9 H 0.1368 0.5711 0.4690
C8 C 0.2629(5) 0.4548(5) 0.4843(11)
H10 H 0.2143 0.4091 0.3830
C9 C 0.3520(5) 0.5053(5) 0.3299(12)
H11 H 0.3139 0.5388 0.1957
H12 H 0.3897 0.5631 0.4180
loop_
_geom_bond_atom_site_label_1
_geom_bond_atom_site_label_2
_geom_bond_site_symmetry_1
_geom_bond_site_symmetry_2
O1 C1 1_555 1_555
O2 C1 1_555 1_555
C1 C2 1_555 1_555
C2 H1 1_555 1_555
H2 C2 1_555 1_555
C3 C2 1_555 1_555
H3 C3 1_555 1_555
C4 C3 1_555 1_555
H4 C4 1_555 1_555
H5 C4 1_555 1_555
C5 C4 1_555 1_555
H6 C5 1_555 1_555
C6 C5 1_555 1_555
H7 C6 1_555 1_555
C7 C6 1_555 1_555
H8 C7 1_555 1_555
H9 C7 1_555 1_555
C8 C3 1_555 1_555
H10 C8 1_555 1_555
C9 O2 1_555 1_555
H11 C9 1_555 1_555
H12 C9 1_555 1_555
C7 C8 1_555 1_555
C8 C9 1_555 1_555

#END
