
#######################################################################
#
#                 Cambridge Crystallographic Data Centre
#                                CCDC 
#
#######################################################################
#
# If this CIF has been generated from an entry in the Cambridge 
# Structural Database, then it will include bibliographic, chemical, 
# crystal, experimental, refinement or atomic coordinate data resulting 
# from the CCDC's data processing and validation procedures.
#
#######################################################################

data_FECLOR
_chemical_formula_moiety         'C12 H10 Br1 N1 O3 S1'
_chemical_name_systematic        
'6-(4-bromophenyl)-3-oxa-4-thia-5-azabicyclo[5.2.0]nona-1(7),5-diene 4,4-dioxide'
_symmetry_cell_setting           triclinic
_symmetry_space_group_name_H-M   'P -1'
_symmetry_Int_Tables_number      2
_space_group_name_Hall           '-P 1'
loop_
_symmetry_equiv_pos_site_id
_symmetry_equiv_pos_as_xyz
1 x,y,z
2 -x,-y,-z
_cell_length_a                   12.1801(15)
_cell_length_b                   14.4847(18)
_cell_length_c                   15.6426(19)
_cell_angle_alpha                89.100(3)
_cell_angle_beta                 82.956(3)
_cell_angle_gamma                66.053(2)
_cell_volume                     2501.39
_exptl_crystal_colour            colorless
_exptl_crystal_description       prismatic
_cell_formula_units_Z            8
loop_
_atom_site_label
_atom_site_type_symbol
_atom_site_fract_x
_atom_site_fract_y
_atom_site_fract_z
Br1 Br -0.43743(5) 0.82303(4) 0.16119(4)
S1 S 0.23570(12) 0.85578(9) 0.06509(9)
N1 N 0.1083(3) 0.8421(3) 0.0796(2)
O1 O 0.3385(3) 0.7547(2) 0.0234(2)
O2 O 0.2647(3) 0.8759(3) 0.1449(2)
O3 O 0.2227(3) 0.9261(2) -0.0014(2)
C1 C 0.3965(4) 0.6725(4) 0.0786(4)
H1 H 0.4235 0.6973 0.1256
H2 H 0.4668 0.6207 0.0460
C2 C 0.3117(4) 0.6299(3) 0.1130(3)
C3 C 0.3273(4) 0.5296(3) 0.1522(4)
H3 H 0.3598 0.5192 0.2069
H4 H 0.3705 0.4714 0.1129
C4 C 0.1879(4) 0.5679(3) 0.1607(3)
H5 H 0.1591 0.5300 0.1255
H6 H 0.1484 0.5777 0.2196
C5 C 0.1906(4) 0.6642(3) 0.1200(3)
C6 C 0.0952(4) 0.7607(3) 0.1037(3)
C7 C -0.0327(4) 0.7723(3) 0.1206(3)
C8 C -0.0667(4) 0.6962(3) 0.0982(3)
H7 H -0.0082 0.6347 0.0750
C9 C -0.1868(4) 0.7116(3) 0.1103(3)
H8 H -0.2096 0.6609 0.0947
C10 C -0.2722(4) 0.8013(3) 0.1454(3)
C11 C -0.2417(4) 0.8783(3) 0.1689(3)
H9 H -0.3011 0.9390 0.1928
C12 C -0.1217(4) 0.8640(3) 0.1565(3)
H10 H -0.0999 0.9154 0.1720
Br2 Br -0.47192(5) 0.85837(5) 0.91326(4)
S2 S 0.27598(11) 0.53357(9) 0.88460(9)
N2 N 0.1334(3) 0.6076(3) 0.8978(2)
O4 O 0.3542(3) 0.5933(2) 0.9030(2)
O5 O 0.2959(3) 0.4645(2) 0.9521(2)
O6 O 0.3073(3) 0.4968(3) 0.7977(2)
C13 C 0.3744(4) 0.6585(4) 0.8347(4)
H11 H 0.4368 0.6796 0.8477
H12 H 0.4016 0.6209 0.7798
C14 C 0.2616(4) 0.7475(3) 0.8290(3)
C15 C 0.2378(4) 0.8520(3) 0.7985(3)
H13 H 0.2610 0.8547 0.7372
H14 H 0.2684 0.8897 0.8323
C16 C 0.1019(4) 0.8758(3) 0.8237(4)
H15 H 0.0627 0.9252 0.8711
H16 H 0.0549 0.8916 0.7756
C17 C 0.1441(4) 0.7661(3) 0.8503(3)
C18 C 0.0818(4) 0.7018(3) 0.8797(3)
C19 C -0.0520(4) 0.7429(3) 0.8868(3)
C20 C -0.1061(5) 0.6801(4) 0.8650(3)
H17 H -0.0578 0.6140 0.8453
C21 C -0.2295(5) 0.7142(4) 0.8721(3)
H18 H -0.2649 0.6721 0.8560
C22 C -0.3008(4) 0.8115(4) 0.9032(3)
C23 C -0.2495(4) 0.8749(4) 0.9253(3)
H19 H -0.2982 0.9403 0.9465
C24 C -0.1251(4) 0.8407(3) 0.9157(3)
H20 H -0.0900 0.8842 0.9289
Br3 Br -0.44548(5) 0.34405(5) 0.67345(4)
S3 S 0.30603(11) 0.02955(8) 0.56547(9)
N3 N 0.1598(3) 0.0976(3) 0.5803(3)
O7 O 0.3731(3) 0.0950(2) 0.5236(2)
O8 O 0.3444(3) -0.0028(3) 0.6459(2)
O9 O 0.3260(3) -0.0429(2) 0.4985(2)
C25 C 0.3957(4) 0.1616(4) 0.5815(3)
H21 H 0.4497 0.1884 0.5506
H22 H 0.4347 0.1234 0.6289
C26 C 0.2804(4) 0.2460(3) 0.6157(3)
C27 C 0.2535(4) 0.3484(3) 0.6525(3)
H23 H 0.2773 0.3911 0.6129
H24 H 0.2814 0.3481 0.7080
C28 C 0.1171(4) 0.3671(3) 0.6577(3)
H25 H 0.0748 0.3773 0.7158
H26 H 0.0715 0.4183 0.6199
C29 C 0.1648(4) 0.2592(3) 0.6212(3)
C30 C 0.1068(4) 0.1922(3) 0.6050(3)
C31 C -0.0261(4) 0.2307(3) 0.6215(3)
C32 C -0.0800(4) 0.1676(3) 0.6538(3)
H27 H -0.0314 0.1012 0.6652
C33 C -0.2038(4) 0.2008(4) 0.6694(3)
H28 H -0.2387 0.1584 0.6935
C34 C -0.2748(4) 0.2970(4) 0.6489(3)
C35 C -0.2254(4) 0.3612(3) 0.6154(3)
H29 H -0.2748 0.4263 0.6015
C36 C -0.1015(4) 0.3280(3) 0.6025(3)
H30 H -0.0675 0.3719 0.5806
Br4 Br -0.45539(5) 0.32433(5) 0.41771(4)
S4 S 0.21014(11) 0.36743(9) 0.38740(9)
N4 N 0.0865(3) 0.3485(3) 0.3982(3)
O10 O 0.3201(3) 0.2682(2) 0.4069(2)
O11 O 0.1964(3) 0.4359(2) 0.4566(2)
O12 O 0.2320(3) 0.3929(3) 0.3027(2)
C37 C 0.3748(4) 0.1897(4) 0.3405(3)
H31 H 0.4506 0.1400 0.3562
H32 H 0.3922 0.2183 0.2868
C38 C 0.2927(4) 0.1404(3) 0.3291(3)
C39 C 0.3156(4) 0.0368(4) 0.2953(3)
H33 H 0.3642 -0.0180 0.3290
H34 H 0.3449 0.0246 0.2343
C40 C 0.1777(4) 0.0696(3) 0.3173(4)
H35 H 0.1356 0.0735 0.2677
H36 H 0.1548 0.0321 0.3627
C41 C 0.1740(4) 0.1700(3) 0.3474(3)
C42 C 0.0761(4) 0.2656(3) 0.3784(3)
C43 C -0.0506(4) 0.2755(3) 0.3867(3)
C44 C -0.0850(5) 0.1996(3) 0.4162(3)
H37 H -0.0267 0.1380 0.4301
C45 C -0.2046(5) 0.2143(4) 0.4252(3)
H38 H -0.2264 0.1621 0.4439
C46 C -0.2910(4) 0.3041(4) 0.4070(3)
C47 C -0.2613(4) 0.3820(4) 0.3796(3)
H39 H -0.3213 0.4440 0.3685
C48 C -0.1405(4) 0.3675(3) 0.3685(3)
H40 H -0.1195 0.4198 0.3487
loop_
_geom_bond_atom_site_label_1
_geom_bond_atom_site_label_2
_geom_bond_site_symmetry_1
_geom_bond_site_symmetry_2
Br1 C10 1_555 1_555
S1 N1 1_555 1_555
N1 C6 1_555 1_555
O1 S1 1_555 1_555
O2 S1 1_555 1_555
O3 S1 1_555 1_555
C1 O1 1_555 1_555
H1 C1 1_555 1_555
H2 C1 1_555 1_555
C2 C1 1_555 1_555
C3 C2 1_555 1_555
H3 C3 1_555 1_555
H4 C3 1_555 1_555
C4 C3 1_555 1_555
H5 C4 1_555 1_555
H6 C4 1_555 1_555
C5 C2 1_555 1_555
C6 C5 1_555 1_555
C7 C6 1_555 1_555
C8 C7 1_555 1_555
H7 C8 1_555 1_555
C9 C8 1_555 1_555
H8 C9 1_555 1_555
C10 C9 1_555 1_555
C11 C10 1_555 1_555
H9 C11 1_555 1_555
C12 C7 1_555 1_555
H10 C12 1_555 1_555
Br2 C22 1_555 1_555
S2 N2 1_555 1_555
N2 C18 1_555 1_555
O4 S2 1_555 1_555
O5 S2 1_555 1_555
O6 S2 1_555 1_555
C13 O4 1_555 1_555
H11 C13 1_555 1_555
H12 C13 1_555 1_555
C14 C13 1_555 1_555
C15 C14 1_555 1_555
H13 C15 1_555 1_555
H14 C15 1_555 1_555
C16 C15 1_555 1_555
H15 C16 1_555 1_555
H16 C16 1_555 1_555
C17 C14 1_555 1_555
C18 C17 1_555 1_555
C19 C18 1_555 1_555
C20 C19 1_555 1_555
H17 C20 1_555 1_555
C21 C20 1_555 1_555
H18 C21 1_555 1_555
C22 C21 1_555 1_555
C23 C22 1_555 1_555
H19 C23 1_555 1_555
C24 C19 1_555 1_555
H20 C24 1_555 1_555
Br3 C34 1_555 1_555
S3 N3 1_555 1_555
N3 C30 1_555 1_555
O7 S3 1_555 1_555
O8 S3 1_555 1_555
O9 S3 1_555 1_555
C25 O7 1_555 1_555
H21 C25 1_555 1_555
H22 C25 1_555 1_555
C26 C25 1_555 1_555
C27 C26 1_555 1_555
H23 C27 1_555 1_555
H24 C27 1_555 1_555
C28 C27 1_555 1_555
H25 C28 1_555 1_555
H26 C28 1_555 1_555
C29 C26 1_555 1_555
C30 C29 1_555 1_555
C31 C30 1_555 1_555
C32 C31 1_555 1_555
H27 C32 1_555 1_555
C33 C32 1_555 1_555
H28 C33 1_555 1_555
C34 C33 1_555 1_555
C35 C34 1_555 1_555
H29 C35 1_555 1_555
C36 C31 1_555 1_555
H30 C36 1_555 1_555
Br4 C46 1_555 1_555
S4 N4 1_555 1_555
N4 C42 1_555 1_555
O10 S4 1_555 1_555
O11 S4 1_555 1_555
O12 S4 1_555 1_555
C37 O10 1_555 1_555
H31 C37 1_555 1_555
H32 C37 1_555 1_555
C38 C37 1_555 1_555
C39 C38 1_555 1_555
H33 C39 1_555 1_555
H34 C39 1_555 1_555
C40 C39 1_555 1_555
H35 C40 1_555 1_555
H36 C40 1_555 1_555
C41 C38 1_555 1_555
C42 C41 1_555 1_555
C43 C42 1_555 1_555
C44 C43 1_555 1_555
H37 C44 1_555 1_555
C45 C44 1_555 1_555
H38 C45 1_555 1_555
C46 C45 1_555 1_555
C47 C46 1_555 1_555
H39 C47 1_555 1_555
C48 C43 1_555 1_555
H40 C48 1_555 1_555
C4 C5 1_555 1_555
C11 C12 1_555 1_555
C16 C17 1_555 1_555
C23 C24 1_555 1_555
C28 C29 1_555 1_555
C35 C36 1_555 1_555
C40 C41 1_555 1_555
C47 C48 1_555 1_555

#END
