
#######################################################################
#
#                 Cambridge Crystallographic Data Centre
#                                CCDC 
#
#######################################################################
#
# If this CIF has been generated from an entry in the Cambridge 
# Structural Database, then it will include bibliographic, chemical, 
# crystal, experimental, refinement or atomic coordinate data resulting 
# from the CCDC's data processing and validation procedures.
#
#######################################################################

data_FECLUX
_chemical_formula_moiety         'C23 H23 Cl1 O7'
_chemical_name_systematic        
'dimethyl 3a-((2-chlorophenyl)ethynyl)-3-(2-methoxy-2-oxoethyl)-4-oxohexahydropentalene-1,1(2H)-dicarboxylate'
_symmetry_cell_setting           orthorhombic
_symmetry_space_group_name_H-M   'P 21 21 21'
_symmetry_Int_Tables_number      19
_space_group_name_Hall           'P 2ac 2ab'
loop_
_symmetry_equiv_pos_site_id
_symmetry_equiv_pos_as_xyz
1 x,y,z
2 1/2-x,-y,1/2+z
3 -x,1/2+y,1/2-z
4 1/2+x,1/2-y,-z
_cell_length_a                   6.82668(15)
_cell_length_b                   9.4989(2)
_cell_length_c                   34.5079(10)
_cell_angle_alpha                90
_cell_angle_beta                 90
_cell_angle_gamma                90
_cell_volume                     2237.7
_exptl_crystal_colour            colorless
_exptl_crystal_description       plate
_cell_formula_units_Z            4
loop_
_atom_site_label
_atom_site_type_symbol
_atom_site_fract_x
_atom_site_fract_y
_atom_site_fract_z
Cl1 Cl 0.4710(3) 0.7077(3) 0.73202(4)
O1 O 0.1935(5) 0.3981(3) 0.62227(9)
O2 O 0.1294(6) 0.5108(4) 0.56726(10)
O3 O 0.5998(6) 0.4257(3) 0.57617(9)
O4 O 0.7629(4) 1.0796(3) 0.54802(8)
O5 O 0.4377(5) 1.0611(3) 0.54300(8)
O6 O 0.6313(5) 1.1156(3) 0.63512(8)
O7 O 0.8926(5) 0.9732(4) 0.63400(9)
C1 C 0.6778(8) 0.6009(6) 0.73795(12)
C2 C 0.7293(10) 0.5601(8) 0.77469(14)
H1 H 0.6524 0.5863 0.7957
C3 C 0.8913(12) 0.4819(8) 0.78022(15)
H2 H 0.9276 0.4551 0.8051
C4 C 1.0028(11) 0.4419(7) 0.7491(2)
H3 H 1.1129 0.3859 0.7528
C5 C 0.9519(8) 0.4848(6) 0.71203(14)
H4 H 1.0298 0.4590 0.6911
C6 C 0.7870(6) 0.5651(4) 0.70602(10)
C7 C 0.7289(5) 0.6052(4) 0.66772(10)
C8 C 0.6762(5) 0.6354(3) 0.63560(10)
C9 C 0.6083(5) 0.6704(3) 0.59690(9)
C10 C 0.6310(5) 0.5454(4) 0.56854(10)
C11 C 0.6999(7) 0.6023(4) 0.53010(11)
H5 H 0.6129 0.5722 0.5095
H6 H 0.8310 0.5687 0.5244
C12 C 0.6988(6) 0.7616(4) 0.53357(10)
H7 H 0.5776 0.8001 0.5234
H8 H 0.8076 0.8021 0.5193
C13 C 0.7183(5) 0.7935(3) 0.57749(9)
H9 H 0.8563 0.7937 0.5853
C14 C 0.6143(5) 0.9280(4) 0.59218(9)
C15 C 0.4176(5) 0.8789(4) 0.60947(11)
H10 H 0.4202 0.8856 0.6375
H11 H 0.3109 0.9364 0.5998
C16 C 0.3920(5) 0.7262(4) 0.59677(9)
H12 H 0.3448 0.7260 0.5700
C17 C 0.2477(5) 0.6431(4) 0.62130(11)
H13 H 0.3090 0.6170 0.6456
H14 H 0.1346 0.7013 0.6271
C18 C 0.1824(5) 0.5121(4) 0.60014(11)
C19 C 0.1491(12) 0.2674(5) 0.6026(2)
H15 H 0.2436 0.2516 0.5824
H16 H 0.0205 0.2728 0.5914
H17 H 0.1538 0.1911 0.6208
C20 C 0.5893(6) 1.0318(3) 0.55843(10)
C21 C 0.7687(10) 1.1744(5) 0.51522(13)
H18 H 0.7075 1.1303 0.4933
H19 H 0.9025 1.1961 0.5091
H20 H 0.7001 1.2596 0.5215
C22 C 0.7344(6) 1.0058(4) 0.62289(10)
C23 C 0.7197(10) 1.2096(6) 0.66281(15)
H21 H 0.8290 1.2567 0.6510
H22 H 0.7641 1.1568 0.6848
H23 H 0.6249 1.2781 0.6710
loop_
_geom_bond_atom_site_label_1
_geom_bond_atom_site_label_2
_geom_bond_site_symmetry_1
_geom_bond_site_symmetry_2
Cl1 C1 1_555 1_555
O1 C18 1_555 1_555
O2 C18 1_555 1_555
O3 C10 1_555 1_555
O4 C20 1_555 1_555
O5 C20 1_555 1_555
O6 C22 1_555 1_555
O7 C22 1_555 1_555
C1 C2 1_555 1_555
C2 H1 1_555 1_555
C3 C2 1_555 1_555
H2 C3 1_555 1_555
C4 C3 1_555 1_555
H3 C4 1_555 1_555
C5 C4 1_555 1_555
H4 C5 1_555 1_555
C6 C1 1_555 1_555
C7 C6 1_555 1_555
C8 C7 1_555 1_555
C9 C8 1_555 1_555
C10 C9 1_555 1_555
C11 C10 1_555 1_555
H5 C11 1_555 1_555
H6 C11 1_555 1_555
C12 C11 1_555 1_555
H7 C12 1_555 1_555
H8 C12 1_555 1_555
C13 C9 1_555 1_555
H9 C13 1_555 1_555
C14 C13 1_555 1_555
C15 C14 1_555 1_555
H10 C15 1_555 1_555
H11 C15 1_555 1_555
C16 C9 1_555 1_555
H12 C16 1_555 1_555
C17 C16 1_555 1_555
H13 C17 1_555 1_555
H14 C17 1_555 1_555
C18 C17 1_555 1_555
C19 O1 1_555 1_555
H15 C19 1_555 1_555
H16 C19 1_555 1_555
H17 C19 1_555 1_555
C20 C14 1_555 1_555
C21 O4 1_555 1_555
H18 C21 1_555 1_555
H19 C21 1_555 1_555
H20 C21 1_555 1_555
C22 C14 1_555 1_555
C23 O6 1_555 1_555
H21 C23 1_555 1_555
H22 C23 1_555 1_555
H23 C23 1_555 1_555
C5 C6 1_555 1_555
C12 C13 1_555 1_555
C15 C16 1_555 1_555

#END
