
#######################################################################
#
#                 Cambridge Crystallographic Data Centre
#                                CCDC 
#
#######################################################################
#
# If this CIF has been generated from an entry in the Cambridge 
# Structural Database, then it will include bibliographic, chemical, 
# crystal, experimental, refinement or atomic coordinate data resulting 
# from the CCDC's data processing and validation procedures.
#
#######################################################################

data_FECMEG
_chemical_formula_moiety         'C12 H19 N1 O5'
_chemical_name_systematic        
3-Acetyl-3-(4-methyl-1-nitropentan-2-yl)-tetrahydrofuran-2-one
_symmetry_cell_setting           orthorhombic
_symmetry_space_group_name_H-M   'P 21 21 21'
_symmetry_Int_Tables_number      19
_space_group_name_Hall           'P 2ac 2ab'
loop_
_symmetry_equiv_pos_site_id
_symmetry_equiv_pos_as_xyz
1 x,y,z
2 1/2+x,1/2-y,-z
3 -x,1/2+y,1/2-z
4 1/2-x,-y,1/2+z
_cell_length_a                   6.6508(6)
_cell_length_b                   14.1098(13)
_cell_length_c                   14.6329(7)
_cell_angle_alpha                90
_cell_angle_beta                 90
_cell_angle_gamma                90
_cell_volume                     1373.17
_exptl_crystal_colour            colorless
_exptl_crystal_description       needle
_cell_formula_units_Z            4
_exptl_crystal_recrystallization_method 'hexane/ethyl acetate'
loop_
_atom_site_label
_atom_site_type_symbol
_atom_site_fract_x
_atom_site_fract_y
_atom_site_fract_z
C1 C 0.6404(3) 0.09883(14) 0.37040(13)
C2 C 0.6887(3) 0.00660(15) 0.42340(13)
C3 C 0.8718(4) -0.04475(16) 0.38404(15)
C4 C 0.8879(5) -0.14956(17) 0.40982(19)
C5 C 1.0987(6) -0.1856(3) 0.3885(3)
C6 C 0.7319(7) -0.2088(2) 0.3616(3)
C7 C 0.7258(4) 0.02514(18) 0.52577(15)
C8 C 0.5841(4) 0.07336(15) 0.26984(14)
C9 C 0.4163(6) 0.0058(3) 0.2532(2)
C10 C 0.4572(4) 0.14931(18) 0.40960(15)
C11 C 0.6754(6) 0.26587(18) 0.3658(2)
C12 C 0.8000(4) 0.17601(17) 0.37139(17)
N1 N 0.5427(5) 0.01473(19) 0.58380(14)
O1 O 0.4333(5) -0.0524(2) 0.5712(2)
O2 O 0.5212(5) 0.0723(2) 0.64445(16)
O3 O 0.3075(3) 0.11370(17) 0.44031(15)
O4 O 0.4823(4) 0.24286(14) 0.40625(13)
O5 O 0.6735(4) 0.10865(14) 0.20796(11)
H1 H 0.5761 -0.0344 0.4182
H2 H 0.9892 -0.0134 0.4055
H3 H 0.8655 -0.0404 0.3194
H4 H 0.8665 -0.1551 0.4738
H5 H 1.1088 -0.2506 0.4045
H6 H 1.1947 -0.1501 0.4226
H7 H 1.1253 -0.1782 0.3250
H8 H 0.7460 -0.2732 0.3792
H9 H 0.6011 -0.1871 0.3779
H10 H 0.7489 -0.2033 0.2974
H11 H 0.8239 -0.0184 0.5468
H12 H 0.7746 0.0880 0.5324
H13 H 0.3245 0.0072 0.3012
H14 H 0.3573 0.0170 0.1967
H15 H 0.4760 -0.0587 0.2515
H16 H 0.7386 0.3155 0.3992
H17 H 0.6592 0.2847 0.3041
H18 H 0.8769 0.1740 0.4263
H19 H 0.8882 0.1705 0.3205
loop_
_geom_bond_atom_site_label_1
_geom_bond_atom_site_label_2
_geom_bond_site_symmetry_1
_geom_bond_site_symmetry_2
C1 C2 1_555 1_555
C2 C3 1_555 1_555
C3 C4 1_555 1_555
C4 C5 1_555 1_555
C5 H5 1_555 1_555
C6 C4 1_555 1_555
C7 C2 1_555 1_555
C8 C1 1_555 1_555
C9 C8 1_555 1_555
C10 C1 1_555 1_555
C11 C12 1_555 1_555
C12 C1 1_555 1_555
N1 C7 1_555 1_555
O1 N1 1_555 1_555
O2 N1 1_555 1_555
O3 C10 1_555 1_555
O4 C10 1_555 1_555
O5 C8 1_555 1_555
H1 C2 1_555 1_555
H2 C3 1_555 1_555
H3 C3 1_555 1_555
H4 C4 1_555 1_555
H6 C5 1_555 1_555
H7 C5 1_555 1_555
H8 C6 1_555 1_555
H9 C6 1_555 1_555
H10 C6 1_555 1_555
H11 C7 1_555 1_555
H12 C7 1_555 1_555
H13 C9 1_555 1_555
H14 C9 1_555 1_555
H15 C9 1_555 1_555
H16 C11 1_555 1_555
H17 C11 1_555 1_555
H18 C12 1_555 1_555
H19 C12 1_555 1_555
C11 O4 1_555 1_555

#END
