
#######################################################################
#
#                 Cambridge Crystallographic Data Centre
#                                CCDC 
#
#######################################################################
#
# If this CIF has been generated from an entry in the Cambridge 
# Structural Database, then it will include bibliographic, chemical, 
# crystal, experimental, refinement or atomic coordinate data resulting 
# from the CCDC's data processing and validation procedures.
#
#######################################################################

data_FECNOT
_chemical_formula_moiety         'C22 H28 N2 O4'
_chemical_name_systematic        
13-methyl-16-[(E)-2-pyridin-4-ylvinyl]-2,3,5,6,8,9,12,13-octahydro-11H-1,4,7,10,13-benzotetraoxazacyclopentadecine
_symmetry_cell_setting           monoclinic
_symmetry_space_group_name_H-M   'P 21'
_symmetry_Int_Tables_number      4
_space_group_name_Hall           'P 2yb'
loop_
_symmetry_equiv_pos_site_id
_symmetry_equiv_pos_as_xyz
1 x,y,z
2 -x,1/2+y,-z
_cell_length_a                   9.528(2)
_cell_length_b                   8.300(2)
_cell_length_c                   12.872(3)
_cell_angle_alpha                90
_cell_angle_beta                 98.603(10)
_cell_angle_gamma                90
_cell_volume                     1006.5
_exptl_crystal_colour            yellow
_exptl_crystal_description       plate
_cell_formula_units_Z            2
_exptl_crystal_recrystallization_method 'dichloromethane / hexane'
loop_
_atom_site_label
_atom_site_type_symbol
_atom_site_fract_x
_atom_site_fract_y
_atom_site_fract_z
O1 O 0.5693(7) 0.5513(7) 0.2363(5)
O2 O 0.5759(8) 0.3547(8) 0.0605(6)
O3 O 0.8080(7) 0.4407(8) -0.0418(5)
O4 O 0.8367(8) 0.7790(8) 0.0033(5)
N1 N -0.1651(9) 0.8361(11) 0.6855(7)
N2 N 0.7427(9) 0.8132(10) 0.2658(6)
C1 C -0.0579(11) 0.9350(13) 0.7197(8)
H1 H -0.0663 1.0032 0.7777
C2 C 0.0639(11) 0.9429(13) 0.6752(8)
H2 H 0.1369 1.0161 0.7023
C3 C 0.0817(10) 0.8432(12) 0.5895(7)
C4 C -0.0306(11) 0.7403(13) 0.5558(9)
H3 H -0.0259 0.6697 0.4983
C5 C -0.1471(12) 0.7402(13) 0.6050(9)
H4 H -0.2212 0.6668 0.5805
C6 C 0.2117(11) 0.8575(13) 0.5420(9)
H5 H 0.2794 0.9353 0.5712
C7 C 0.2434(11) 0.7702(13) 0.4610(8)
H6 H 0.1760 0.6918 0.4322
C8 C 0.3717(10) 0.7849(12) 0.4133(8)
C9 C 0.4644(11) 0.9167(13) 0.4293(8)
H7 H 0.4454 1.0008 0.4753
C10 C 0.5795(10) 0.9264(12) 0.3810(8)
H8 H 0.6372 1.0201 0.3920
C11 C 0.6186(10) 0.8062(11) 0.3156(8)
C12 C 0.5275(10) 0.6721(11) 0.2986(8)
C13 C 0.4051(11) 0.6630(12) 0.3444(8)
H9 H 0.3429 0.5738 0.3293
C14 C 0.7217(10) 0.8157(12) 0.1532(7)
H10 H 0.7175 0.9291 0.1289
H11 H 0.6292 0.7649 0.1267
C15 C 0.8368(11) 0.7295(13) 0.1071(8)
H12 H 0.9301 0.7534 0.1493
H13 H 0.8209 0.6117 0.1091
C16 C 0.9278(12) 0.6861(14) -0.0521(9)
H14 H 1.0052 0.6388 -0.0013
H15 H 0.9713 0.7572 -0.1002
C17 C 0.8482(12) 0.5552(13) -0.1134(9)
H16 H 0.7628 0.5996 -0.1574
H17 H 0.9085 0.5036 -0.1601
C18 C 0.7020(11) 0.3308(13) -0.0862(9)
H18 H 0.7420 0.2524 -0.1318
H19 H 0.6229 0.3890 -0.1291
C19 C 0.6499(11) 0.2453(12) 0.0040(8)
H20 H 0.5862 0.1558 -0.0231
H21 H 0.7316 0.1994 0.0514
C20 C 0.5577(11) 0.2914(13) 0.1588(8)
H22 H 0.6513 0.2679 0.2007
H23 H 0.5028 0.1898 0.1494
C21 C 0.4791(10) 0.4142(12) 0.2151(9)
H24 H 0.3894 0.4453 0.1706
H25 H 0.4562 0.3684 0.2816
C22 C 0.8487(11) 0.9309(14) 0.3132(8)
H26 H 0.8723 0.9096 0.3887
H27 H 0.8099 1.0400 0.3024
H28 H 0.9346 0.9216 0.2802
loop_
_geom_bond_atom_site_label_1
_geom_bond_atom_site_label_2
_geom_bond_site_symmetry_1
_geom_bond_site_symmetry_2
O1 C12 1_555 1_555
O2 C19 1_555 1_555
O3 C17 1_555 1_555
O4 C15 1_555 1_555
N1 C1 1_555 1_555
N2 C11 1_555 1_555
C1 H1 1_555 1_555
C2 C1 1_555 1_555
H2 C2 1_555 1_555
C3 C2 1_555 1_555
C4 C3 1_555 1_555
H3 C4 1_555 1_555
C5 N1 1_555 1_555
H4 C5 1_555 1_555
C6 C3 1_555 1_555
H5 C6 1_555 1_555
C7 C6 1_555 1_555
H6 C7 1_555 1_555
C8 C7 1_555 1_555
C9 C8 1_555 1_555
H7 C9 1_555 1_555
C10 C9 1_555 1_555
H8 C10 1_555 1_555
C11 C10 1_555 1_555
C12 C11 1_555 1_555
C13 C8 1_555 1_555
H9 C13 1_555 1_555
C14 N2 1_555 1_555
H10 C14 1_555 1_555
H11 C14 1_555 1_555
C15 C14 1_555 1_555
H12 C15 1_555 1_555
H13 C15 1_555 1_555
C16 O4 1_555 1_555
H14 C16 1_555 1_555
H15 C16 1_555 1_555
C17 C16 1_555 1_555
H16 C17 1_555 1_555
H17 C17 1_555 1_555
C18 O3 1_555 1_555
H18 C18 1_555 1_555
H19 C18 1_555 1_555
C19 C18 1_555 1_555
H20 C19 1_555 1_555
H21 C19 1_555 1_555
C20 O2 1_555 1_555
H22 C20 1_555 1_555
H23 C20 1_555 1_555
C21 O1 1_555 1_555
H24 C21 1_555 1_555
H25 C21 1_555 1_555
C22 N2 1_555 1_555
H26 C22 1_555 1_555
H27 C22 1_555 1_555
H28 C22 1_555 1_555
C4 C5 1_555 1_555
C12 C13 1_555 1_555
C20 C21 1_555 1_555

#END
