
#######################################################################
#
#                 Cambridge Crystallographic Data Centre
#                                CCDC 
#
#######################################################################
#
# If this CIF has been generated from an entry in the Cambridge 
# Structural Database, then it will include bibliographic, chemical, 
# crystal, experimental, refinement or atomic coordinate data resulting 
# from the CCDC's data processing and validation procedures.
#
#######################################################################

data_FECNUX
_chemical_formula_moiety         'C29 H36 O1 P1 1+,F6 P1 1-'
_chemical_name_systematic        
'1,1-bis(Cyclohexyl)-3-(diphenyl(hydroxy)methyl)phospholium hexafluorophosphate'
_symmetry_cell_setting           triclinic
_symmetry_space_group_name_H-M   'P -1'
_symmetry_Int_Tables_number      2
_space_group_name_Hall           '-P 1'
loop_
_symmetry_equiv_pos_site_id
_symmetry_equiv_pos_as_xyz
1 x,y,z
2 -x,-y,-z
_cell_length_a                   9.6199(6)
_cell_length_b                   12.0564(8)
_cell_length_c                   13.1906(8)
_cell_angle_alpha                72.1230(10)
_cell_angle_beta                 75.2560(10)
_cell_angle_gamma                69.1020(10)
_cell_volume                     1342.01
_exptl_crystal_colour            colorless
_exptl_crystal_description       plate
_cell_formula_units_Z            2
_exptl_crystal_recrystallization_method dichloromethane/hexane
loop_
_atom_site_label
_atom_site_type_symbol
_atom_site_fract_x
_atom_site_fract_y
_atom_site_fract_z
P1 P 0.76134(9) 0.10945(7) 0.22140(6)
C1 C 0.7533(3) 0.1968(3) 0.3134(2)
H1 H 0.8125 0.1418 0.3697
C2 C 0.5893(4) 0.2441(3) 0.3678(3)
H2 H 0.5512 0.1755 0.4067
H3 H 0.5270 0.2951 0.3133
C3 C 0.5806(4) 0.3185(3) 0.4466(3)
H4 H 0.4759 0.3517 0.4771
H5 H 0.6340 0.2648 0.5054
C4 C 0.6483(4) 0.4224(3) 0.3912(3)
H6 H 0.6469 0.4636 0.4443
H7 H 0.5875 0.4814 0.3384
C5 C 0.8108(4) 0.3758(3) 0.3350(3)
H8 H 0.8479 0.4449 0.2960
H9 H 0.8743 0.3252 0.3890
C6 C 0.8211(4) 0.3021(3) 0.2569(3)
H10 H 0.9260 0.2691 0.2268
H11 H 0.7678 0.3553 0.1980
C7 C 0.7391(3) -0.0385(3) 0.2958(2)
H12 H 0.6516 -0.0258 0.3532
C8 C 0.7102(4) -0.1035(3) 0.2221(3)
H13 H 0.6186 -0.0541 0.1926
H14 H 0.7932 -0.1131 0.1624
C9 C 0.6950(4) -0.2290(3) 0.2867(3)
H15 H 0.6063 -0.2184 0.3422
H16 H 0.6814 -0.2703 0.2391
C10 C 0.8330(4) -0.3075(3) 0.3393(3)
H17 H 0.9205 -0.3242 0.2837
H18 H 0.8181 -0.3850 0.3818
C11 C 0.8615(4) -0.2432(3) 0.4119(3)
H19 H 0.9522 -0.2936 0.4423
H20 H 0.7778 -0.2330 0.4710
C12 C 0.8795(4) -0.1178(3) 0.3489(3)
H21 H 0.9685 -0.1281 0.2938
H22 H 0.8925 -0.0773 0.3976
C13 C 0.9245(4) 0.0935(3) 0.1194(2)
H23 H 1.0239 0.0571 0.1312
C14 C 0.8788(4) 0.1434(3) 0.0217(3)
H24 H 0.9461 0.1444 -0.0429
C15 C 0.6329(3) 0.1904(3) 0.1264(2)
H25 H 0.5290 0.2227 0.1439
C16 C 0.7118(4) 0.1966(3) 0.0259(2)
C17 C 0.6512(4) 0.2408(3) -0.0805(2)
C18 C 0.4800(4) 0.2675(3) -0.0607(2)
C19 C 0.3796(4) 0.3837(3) -0.0899(3)
H26 H 0.4162 0.4501 -0.1235
C20 C 0.2244(4) 0.4015(3) -0.0690(3)
H27 H 0.1584 0.4794 -0.0894
C21 C 0.1684(4) 0.3040(3) -0.0183(3)
H28 H 0.0650 0.3161 -0.0046
C22 C 0.2670(4) 0.1883(3) 0.0121(3)
H29 H 0.2299 0.1224 0.0467
C23 C 0.4203(4) 0.1706(3) -0.0089(3)
H30 H 0.4855 0.0923 0.0119
C24 C 0.7015(3) 0.3496(3) -0.1535(3)
C25 C 0.7309(4) 0.3667(3) -0.2651(3)
H31 H 0.7237 0.3092 -0.2954
C26 C 0.7710(4) 0.4685(3) -0.3322(3)
H32 H 0.7902 0.4783 -0.4066
C27 C 0.7824(4) 0.5553(3) -0.2885(3)
H33 H 0.8087 0.6235 -0.3336
C28 C 0.7543(4) 0.5399(3) -0.1773(3)
H34 H 0.7623 0.5974 -0.1473
C29 C 0.7140(4) 0.4380(3) -0.1110(3)
H35 H 0.6948 0.4284 -0.0366
O1 O 0.7245(3) 0.1344(2) -0.1243(2)
H36 H 0.679(6) 0.141(5) -0.179(4)
P2 P 0.75285(10) 0.96617(8) -0.34565(7)
F1 F 0.6558(3) 0.8892(2) -0.25471(18)
F2 F 0.6524(2) 1.0867(2) -0.30113(18)
F3 F 0.8464(2) 1.0458(2) -0.43644(17)
F4 F 0.8529(3) 0.84711(19) -0.38801(18)
F5 F 0.6353(2) 0.9985(2) -0.42520(17)
F6 F 0.8682(2) 0.93607(19) -0.26506(16)
loop_
_geom_bond_atom_site_label_1
_geom_bond_atom_site_label_2
_geom_bond_site_symmetry_1
_geom_bond_site_symmetry_2
P1 C1 1_555 1_555
C1 H1 1_555 1_555
C2 C1 1_555 1_555
H2 C2 1_555 1_555
H3 C2 1_555 1_555
C3 C2 1_555 1_555
H4 C3 1_555 1_555
H5 C3 1_555 1_555
C4 C3 1_555 1_555
H6 C4 1_555 1_555
H7 C4 1_555 1_555
C5 C4 1_555 1_555
H8 C5 1_555 1_555
H9 C5 1_555 1_555
C6 C1 1_555 1_555
H10 C6 1_555 1_555
H11 C6 1_555 1_555
C7 P1 1_555 1_555
H12 C7 1_555 1_555
C8 C7 1_555 1_555
H13 C8 1_555 1_555
H14 C8 1_555 1_555
C9 C8 1_555 1_555
H15 C9 1_555 1_555
H16 C9 1_555 1_555
C10 C9 1_555 1_555
H17 C10 1_555 1_555
H18 C10 1_555 1_555
C11 C10 1_555 1_555
H19 C11 1_555 1_555
H20 C11 1_555 1_555
C12 C7 1_555 1_555
H21 C12 1_555 1_555
H22 C12 1_555 1_555
C13 P1 1_555 1_555
H23 C13 1_555 1_555
C14 C13 1_555 1_555
H24 C14 1_555 1_555
C15 P1 1_555 1_555
H25 C15 1_555 1_555
C16 C14 1_555 1_555
C17 C16 1_555 1_555
C18 C17 1_555 1_555
C19 C18 1_555 1_555
H26 C19 1_555 1_555
C20 C19 1_555 1_555
H27 C20 1_555 1_555
C21 C20 1_555 1_555
H28 C21 1_555 1_555
C22 C21 1_555 1_555
H29 C22 1_555 1_555
C23 C18 1_555 1_555
H30 C23 1_555 1_555
C24 C17 1_555 1_555
C25 C24 1_555 1_555
H31 C25 1_555 1_555
C26 C25 1_555 1_555
H32 C26 1_555 1_555
C27 C26 1_555 1_555
H33 C27 1_555 1_555
C28 C27 1_555 1_555
H34 C28 1_555 1_555
C29 C24 1_555 1_555
H35 C29 1_555 1_555
O1 C17 1_555 1_555
P2 F1 1_555 1_555
F2 P2 1_555 1_555
F3 P2 1_555 1_555
F4 P2 1_555 1_555
F5 P2 1_555 1_555
F6 P2 1_555 1_555
H36 O1 1_555 1_555
C5 C6 1_555 1_555
C11 C12 1_555 1_555
C15 C16 1_555 1_555
C22 C23 1_555 1_555
C28 C29 1_555 1_555

#END
