
#######################################################################
#
#                 Cambridge Crystallographic Data Centre
#                                CCDC 
#
#######################################################################
#
# If this CIF has been generated from an entry in the Cambridge 
# Structural Database, then it will include bibliographic, chemical, 
# crystal, experimental, refinement or atomic coordinate data resulting 
# from the CCDC's data processing and validation procedures.
#
#######################################################################

data_FECPAH
_chemical_formula_moiety         'C17 H9 N1 O3'
_chemical_name_systematic        
9H,12H-[1,3]dioxolo[5,6]indeno[1,2-c]quinolin-12-one
_symmetry_cell_setting           monoclinic
_symmetry_space_group_name_H-M   'P 21/c'
_symmetry_Int_Tables_number      14
_space_group_name_Hall           '-P 2ybc'
loop_
_symmetry_equiv_pos_site_id
_symmetry_equiv_pos_as_xyz
1 x,y,z
2 -x,1/2+y,1/2-z
3 -x,-y,-z
4 x,1/2-y,1/2+z
_cell_length_a                   7.1237(3)
_cell_length_b                   9.1398(4)
_cell_length_c                   18.4293(6)
_cell_angle_alpha                90
_cell_angle_beta                 92.024(3)
_cell_angle_gamma                90
_cell_volume                     1199.17
_exptl_crystal_colour            red
_exptl_crystal_description       block
_cell_formula_units_Z            4
loop_
_atom_site_label
_atom_site_type_symbol
_atom_site_fract_x
_atom_site_fract_y
_atom_site_fract_z
O1 O 0.11961(14) 0.82881(11) 0.69181(5)
O2 O 0.08840(14) 0.96297(11) 0.58507(5)
O3 O 0.30699(14) 0.28088(11) 0.58925(5)
N1 N 0.29021(16) 0.44109(13) 0.31691(6)
C1 C 0.20854(17) 0.61612(15) 0.50085(7)
C2 C 0.28686(17) 0.37847(15) 0.46509(7)
C3 C 0.32798(17) 0.26399(15) 0.41705(7)
C4 C 0.24799(17) 0.51735(15) 0.43947(7)
C5 C 0.15545(18) 0.74169(15) 0.63324(7)
C6 C 0.22706(17) 0.53469(15) 0.56500(7)
C7 C 0.27752(17) 0.38175(15) 0.54709(7)
C8 C 0.15989(18) 0.76374(15) 0.50127(7)
H1 H 0.1449 0.8186 0.4590
C9 C 0.13557(17) 0.82252(15) 0.56959(7)
C10 C 0.20011(18) 0.59539(15) 0.63341(7)
H2 H 0.2115 0.5408 0.6759
C11 C 0.32861(17) 0.30313(15) 0.34163(7)
C12 C 0.37292(18) 0.19485(16) 0.28995(7)
H3 H 0.3731 0.2185 0.2409
C13 C 0.25089(19) 0.54452(15) 0.36437(7)
H4 H 0.2243 0.6384 0.3475
C14 C 0.36766(18) 0.11789(16) 0.43784(7)
H5 H 0.3635 0.0907 0.4864
C15 C 0.41212(18) 0.01668(16) 0.38651(7)
H6 H 0.4405 -0.0787 0.4006
C16 C 0.41546(18) 0.05556(16) 0.31221(7)
H7 H 0.4470 -0.0145 0.2781
C17 C 0.0952(2) 0.97413(16) 0.66315(8)
H8 H 0.1990 1.0361 0.6793
H9 H -0.0205 1.0165 0.6798
loop_
_geom_bond_atom_site_label_1
_geom_bond_atom_site_label_2
_geom_bond_site_symmetry_1
_geom_bond_site_symmetry_2
O1 C5 1_555 1_555
O2 C9 1_555 1_555
O3 C7 1_555 1_555
N1 C11 1_555 1_555
C1 C4 1_555 1_555
C2 C3 1_555 1_555
C3 C11 1_555 1_555
C4 C2 1_555 1_555
C5 C9 1_555 1_555
C6 C1 1_555 1_555
C7 C2 1_555 1_555
C8 C1 1_555 1_555
H1 C8 1_555 1_555
C9 C8 1_555 1_555
C10 C5 1_555 1_555
H2 C10 1_555 1_555
C11 C12 1_555 1_555
C12 H3 1_555 1_555
C13 N1 1_555 1_555
H4 C13 1_555 1_555
C14 C3 1_555 1_555
H5 C14 1_555 1_555
C15 C14 1_555 1_555
H6 C15 1_555 1_555
C16 C12 1_555 1_555
H7 C16 1_555 1_555
C17 O1 1_555 1_555
H8 C17 1_555 1_555
H9 C17 1_555 1_555
O2 C17 1_555 1_555
C4 C13 1_555 1_555
C6 C7 1_555 1_555
C6 C10 1_555 1_555
C15 C16 1_555 1_555

#END
