
#######################################################################
#
#                 Cambridge Crystallographic Data Centre
#                                CCDC 
#
#######################################################################
#
# If this CIF has been generated from an entry in the Cambridge 
# Structural Database, then it will include bibliographic, chemical, 
# crystal, experimental, refinement or atomic coordinate data resulting 
# from the CCDC's data processing and validation procedures.
#
#######################################################################

data_FECROU10
_chemical_compound_source        'Streptomyces cinnamonensis'
_chemical_formula_moiety         'C36 H61 K1 O11,2(H2 O1)'
_chemical_name_systematic        '(Monensin A potassium) dihydrate'
_chemical_properties_biological  'antibiotic activity'
_symmetry_cell_setting           orthorhombic
_symmetry_space_group_name_H-M   'P 21 21 21'
_symmetry_Int_Tables_number      19
_space_group_name_Hall           'P 2ac 2ab'
loop_
_symmetry_equiv_pos_site_id
_symmetry_equiv_pos_as_xyz
1 x,y,z
2 1/2+x,1/2-y,-z
3 -x,1/2+y,1/2-z
4 1/2-x,-y,1/2+z
_cell_length_a                   16.485(2)
_cell_length_b                   19.189(2)
_cell_length_c                   12.661(1)
_cell_angle_alpha                90
_cell_angle_beta                 90
_cell_angle_gamma                90
_cell_volume                     4005.06
_cell_formula_units_Z            4
loop_
_atom_site_label
_atom_site_type_symbol
_atom_site_fract_x
_atom_site_fract_y
_atom_site_fract_z
K1 K 0.37553(4) 0.33988(3) -0.16268(5)
C1 C 0.2764(2) 0.2089(1) -0.3390(2)
C2 C 0.2185(2) 0.1991(1) -0.4331(2)
C3 C 0.1497(2) 0.2522(1) -0.4365(2)
C4 C 0.1733(1) 0.3299(1) -0.4481(2)
C5 C 0.1960(1) 0.3661(1) -0.3444(2)
C6 C 0.1300(2) 0.3653(1) -0.2585(2)
C7 C 0.1600(2) 0.4065(1) -0.1622(2)
C8 C 0.1898(2) 0.4783(1) -0.1936(2)
C9 C 0.2458(2) 0.4792(1) -0.2899(2)
C10 C 0.2605(2) 0.5519(1) -0.3334(3)
C11 C 0.3465(2) 0.5526(2) -0.3705(3)
C12 C 0.3868(2) 0.4873(1) -0.3226(2)
C13 C 0.4564(2) 0.5058(1) -0.2485(2)
C14 C 0.4375(2) 0.5493(1) -0.1513(3)
C15 C 0.5049(3) 0.5292(1) -0.0735(3)
C16 C 0.5425(2) 0.4622(1) -0.1178(3)
C17 C 0.5410(2) 0.3985(1) -0.0450(2)
C18 C 0.5997(2) 0.3918(2) 0.0480(3)
C19 C 0.5571(2) 0.3337(2) 0.1099(3)
C20 C 0.4665(2) 0.3499(1) 0.0959(2)
C21 C 0.4114(2) 0.2868(2) 0.0835(2)
C22 C 0.4111(2) 0.2391(2) 0.1800(2)
C23 C 0.3658(2) 0.1727(2) 0.1533(2)
C24 C 0.3978(2) 0.1379(1) 0.0532(3)
C25 C 0.3951(1) 0.1904(1) -0.0380(2)
C26 C 0.4390(2) 0.1633(2) -0.1358(2)
C27 C 0.3528(3) 0.0703(2) 0.0300(4)
C28 C 0.3721(3) 0.2746(3) 0.2755(3)
C29 C 0.6113(3) 0.4581(2) 0.1163(4)
C30 C 0.6279(2) 0.4756(2) -0.1620(4)
C31 C 0.6609(3) 0.4220(4) -0.2347(5)
C32 C 0.4155(2) 0.4368(2) -0.4073(3)
C33 C 0.0497(2) 0.3959(2) -0.2968(3)
C34 C 0.2383(2) 0.3404(2) -0.5319(2)
C35 C 0.1845(3) 0.1238(2) -0.4263(3)
C36 C 0.0182(2) 0.2443(3) -0.5195(3)
O1 O 0.3483(2) 0.2175(3) -0.3601(3)
O2 O 0.2489(2) 0.2080(2) -0.2490(2)
O3 O 0.1031(1) 0.2340(1) -0.5292(1)
O4 O 0.2242(1) 0.3710(1) -0.1102(1)
O5 O 0.2131(1) 0.43784(8) -0.3730(1)
O6 O 0.3237(1) 0.45434(9) -0.2600(1)
O7 O 0.4899(1) 0.44288(9) -0.2054(2)
O8 O 0.4612(1) 0.3932(1) 0.0019(2)
O9 O 0.4393(1) 0.2508(1) -0.0089(1)
O10 O 0.3135(1) 0.2089(1) -0.0603(1)
O11 O 0.4506(1) 0.2143(1) -0.2136(2)
O12 O 0.1826(2) 0.2762(1) 0.0412(2)
O13 O 0.6143(2) 0.2403(2) -0.2406(2)
loop_
_geom_bond_atom_site_label_1
_geom_bond_atom_site_label_2
_geom_bond_site_symmetry_1
_geom_bond_site_symmetry_2
K1 O4 1_555 1_555
C1 C2 1_555 1_555
C2 C3 1_555 1_555
C3 C4 1_555 1_555
C4 C5 1_555 1_555
C5 C6 1_555 1_555
C6 C7 1_555 1_555
C7 C8 1_555 1_555
C8 C9 1_555 1_555
C9 C10 1_555 1_555
C10 C11 1_555 1_555
C11 C12 1_555 1_555
C12 C13 1_555 1_555
C13 C14 1_555 1_555
C14 C15 1_555 1_555
C15 C16 1_555 1_555
C16 C17 1_555 1_555
C17 C18 1_555 1_555
C18 C19 1_555 1_555
C19 C20 1_555 1_555
C20 C21 1_555 1_555
C21 C22 1_555 1_555
C22 C23 1_555 1_555
C23 C24 1_555 1_555
C24 C25 1_555 1_555
C25 C26 1_555 1_555
C26 O11 1_555 1_555
C27 C24 1_555 1_555
C28 C22 1_555 1_555
C29 C18 1_555 1_555
C30 C16 1_555 1_555
C31 C30 1_555 1_555
C32 C12 1_555 1_555
C33 C6 1_555 1_555
C34 C4 1_555 1_555
C35 C2 1_555 1_555
C36 O3 1_555 1_555
O1 C1 1_555 1_555
O2 C1 1_555 1_555
O3 C3 1_555 1_555
O4 C7 1_555 1_555
O5 C5 1_555 1_555
O6 K1 1_555 1_555
O7 K1 1_555 1_555
O8 K1 1_555 1_555
O9 K1 1_555 1_555
O10 C25 1_555 1_555
O11 K1 1_555 1_555
C9 O5 1_555 1_555
C9 O6 1_555 1_555
C12 O6 1_555 1_555
C13 O7 1_555 1_555
C16 O7 1_555 1_555
C17 O8 1_555 1_555
C20 O8 1_555 1_555
C21 O9 1_555 1_555
C25 O9 1_555 1_555

#END
