
#######################################################################
#
#                 Cambridge Crystallographic Data Centre
#                                CCDC 
#
#######################################################################
#
# If this CIF has been generated from an entry in the Cambridge 
# Structural Database, then it will include bibliographic, chemical, 
# crystal, experimental, refinement or atomic coordinate data resulting 
# from the CCDC's data processing and validation procedures.
#
#######################################################################

data_FEDBAT
_chemical_formula_moiety         'C30 H20 N1 O1 P1'
_chemical_name_systematic        
9-(4-(5-Oxido-5H-benzo[b]phosphindol-5-yl)phenyl)-9H-carbazole
_symmetry_cell_setting           orthorhombic
_symmetry_space_group_name_H-M   'P b c a'
_symmetry_Int_Tables_number      61
_space_group_name_Hall           '-P 2ac 2ab'
loop_
_symmetry_equiv_pos_site_id
_symmetry_equiv_pos_as_xyz
1 x,y,z
2 1/2-x,-y,1/2+z
3 -x,1/2+y,1/2-z
4 1/2+x,1/2-y,-z
5 -x,-y,-z
6 1/2+x,y,1/2-z
7 x,1/2-y,1/2+z
8 1/2-x,1/2+y,z
_cell_length_a                   8.1571(4)
_cell_length_b                   16.5407(9)
_cell_length_c                   33.1095(18)
_cell_angle_alpha                90
_cell_angle_beta                 90
_cell_angle_gamma                90
_cell_volume                     4467.27
_exptl_crystal_colour            colorless
_exptl_crystal_description       needle
_cell_formula_units_Z            8
loop_
_atom_site_label
_atom_site_type_symbol
_atom_site_fract_x
_atom_site_fract_y
_atom_site_fract_z
P1 P 0.32274(6) 0.84184(3) 0.427510(16)
O1 O 0.16189(17) 0.87270(10) 0.41334(5)
N1 N 0.8745(2) 0.99656(10) 0.33562(5)
C1 C 0.4909(2) 0.88803(12) 0.40076(6)
C2 C 0.6537(2) 0.87531(13) 0.41212(7)
H1 H 0.6777 0.8413 0.4345
C3 C 0.7807(2) 0.91187(13) 0.39110(6)
H2 H 0.8911 0.9042 0.3993
C4 C 0.7446(2) 0.95987(12) 0.35787(6)
C5 C 0.5832(2) 0.97214(13) 0.34591(6)
H3 H 0.5598 1.0047 0.3230
C6 C 0.4567(2) 0.93681(13) 0.36741(6)
H4 H 0.3463 0.9458 0.3595
C7 C 0.3555(2) 0.73393(13) 0.42736(7)
C8 C 0.3420(3) 0.67996(16) 0.39546(8)
H5 H 0.3171 0.6986 0.3690
C9 C 0.3657(3) 0.59797(17) 0.40297(10)
H6 H 0.3543 0.5601 0.3816
C10 C 0.4055(3) 0.57144(16) 0.44114(11)
H7 H 0.4221 0.5153 0.4456
C11 C 0.4219(3) 0.62497(15) 0.47323(9)
H8 H 0.4500 0.6060 0.4994
C12 C 0.3961(3) 0.70718(13) 0.46620(7)
C13 C 0.4035(2) 0.77272(13) 0.49664(7)
C14 C 0.4429(3) 0.76559(16) 0.53731(7)
H9 H 0.4700 0.7144 0.5485
C15 C 0.4422(3) 0.83401(18) 0.56134(8)
H10 H 0.4701 0.8293 0.5891
C16 C 0.4020(3) 0.90856(17) 0.54595(7)
H11 H 0.4005 0.9545 0.5632
C17 C 0.3635(3) 0.91712(14) 0.50522(7)
H12 H 0.3366 0.9686 0.4944
C18 C 0.3651(2) 0.84909(12) 0.48065(6)
C19 C 1.0024(2) 0.95471(13) 0.31690(6)
C20 C 1.0449(3) 0.87361(13) 0.31921(6)
H13 H 0.9873 0.8374 0.3364
C21 C 1.1747(3) 0.84753(14) 0.29557(7)
H14 H 1.2053 0.7921 0.2963
C22 C 1.2617(3) 0.90036(16) 0.27065(7)
H15 H 1.3496 0.8805 0.2546
C23 C 1.2209(3) 0.98132(15) 0.26912(6)
H16 H 1.2814 1.0174 0.2525
C24 C 1.0901(2) 1.00937(13) 0.29220(6)
C25 C 1.0129(2) 1.08737(13) 0.29647(6)
C26 C 1.0449(3) 1.16386(14) 0.28019(7)
H17 H 1.1324 1.1717 0.2617
C27 C 0.9464(3) 1.22769(15) 0.29169(8)
H18 H 0.9665 1.2800 0.2809
C28 C 0.8186(3) 1.21677(15) 0.31874(8)
H19 H 0.7543 1.2621 0.3265
C29 C 0.7822(3) 1.14176(14) 0.33477(7)
H20 H 0.6935 1.1347 0.3530
C30 C 0.8801(3) 1.07713(13) 0.32318(6)
loop_
_geom_bond_atom_site_label_1
_geom_bond_atom_site_label_2
_geom_bond_site_symmetry_1
_geom_bond_site_symmetry_2
P1 O1 1_555 1_555
N1 C4 1_555 1_555
C1 P1 1_555 1_555
C2 C1 1_555 1_555
H1 C2 1_555 1_555
C3 C2 1_555 1_555
H2 C3 1_555 1_555
C4 C3 1_555 1_555
C5 C4 1_555 1_555
H3 C5 1_555 1_555
C6 C1 1_555 1_555
H4 C6 1_555 1_555
C7 P1 1_555 1_555
C8 C7 1_555 1_555
H5 C8 1_555 1_555
C9 C8 1_555 1_555
H6 C9 1_555 1_555
C10 C9 1_555 1_555
H7 C10 1_555 1_555
C11 C10 1_555 1_555
H8 C11 1_555 1_555
C12 C7 1_555 1_555
C13 C12 1_555 1_555
C14 C13 1_555 1_555
H9 C14 1_555 1_555
C15 C14 1_555 1_555
H10 C15 1_555 1_555
C16 C15 1_555 1_555
H11 C16 1_555 1_555
C17 C16 1_555 1_555
H12 C17 1_555 1_555
C18 P1 1_555 1_555
C19 N1 1_555 1_555
C20 C19 1_555 1_555
H13 C20 1_555 1_555
C21 C20 1_555 1_555
H14 C21 1_555 1_555
C22 C21 1_555 1_555
H15 C22 1_555 1_555
C23 C22 1_555 1_555
H16 C23 1_555 1_555
C24 C19 1_555 1_555
C25 C24 1_555 1_555
C26 C25 1_555 1_555
H17 C26 1_555 1_555
C27 C26 1_555 1_555
H18 C27 1_555 1_555
C28 C27 1_555 1_555
H19 C28 1_555 1_555
C29 C28 1_555 1_555
H20 C29 1_555 1_555
C30 N1 1_555 1_555
C5 C6 1_555 1_555
C11 C12 1_555 1_555
C13 C18 1_555 1_555
C17 C18 1_555 1_555
C23 C24 1_555 1_555
C25 C30 1_555 1_555
C29 C30 1_555 1_555

#END
