
#######################################################################
#
#                 Cambridge Crystallographic Data Centre
#                                CCDC 
#
#######################################################################
#
# If this CIF has been generated from an entry in the Cambridge 
# Structural Database, then it will include bibliographic, chemical, 
# crystal, experimental, refinement or atomic coordinate data resulting 
# from the CCDC's data processing and validation procedures.
#
#######################################################################

data_FEDCOI
_chemical_formula_moiety         'C3 N5 O6 1-,H4 N1 1+'
_chemical_name_systematic        'Ammonium 3,4,5-trinitropyrazol-1-ide'
_symmetry_cell_setting           monoclinic
_symmetry_space_group_name_H-M   'P 21/n'
_symmetry_Int_Tables_number      14
_space_group_name_Hall           '-P 2yn'
loop_
_symmetry_equiv_pos_site_id
_symmetry_equiv_pos_as_xyz
1 x,y,z
2 1/2-x,1/2+y,1/2-z
3 -x,-y,-z
4 1/2+x,1/2-y,1/2+z
_cell_length_a                   8.8627(6)
_cell_length_b                   8.6593(6)
_cell_length_c                   10.7528(7)
_cell_angle_alpha                90
_cell_angle_beta                 95.283(2)
_cell_angle_gamma                90
_cell_volume                     821.716
_exptl_crystal_colour            orange
_exptl_crystal_description       irregular
_cell_formula_units_Z            4
loop_
_atom_site_label
_atom_site_type_symbol
_atom_site_fract_x
_atom_site_fract_y
_atom_site_fract_z
N1 N 0.53902(12) 0.29169(13) 0.54418(11)
N2 N 0.66368(12) 0.23385(13) 0.49918(11)
C1 C 0.78320(15) 0.31299(15) 0.55263(12)
C2 C 0.73902(15) 0.42455(15) 0.63354(12)
C3 C 0.58377(15) 0.40576(15) 0.62405(12)
N3 N 0.93460(13) 0.27688(13) 0.52552(11)
O1 O 0.95425(11) 0.16451(11) 0.45848(9)
O2 O 1.03724(11) 0.35831(12) 0.57420(10)
N4 N 0.83352(13) 0.52699(14) 0.71395(12)
O3 O 0.89875(14) 0.47006(15) 0.80797(12)
O4 O 0.84101(15) 0.66171(13) 0.68176(11)
N5 N 0.47726(13) 0.48432(13) 0.69472(11)
O5 O 0.52926(12) 0.57932(12) 0.77188(10)
O6 O 0.34224(11) 0.45228(13) 0.67501(10)
N6 N 0.71993(15) -0.09146(15) 0.42798(14)
H1 H 0.694(2) 0.008(3) 0.4438(19)
H2 H 0.640(2) -0.157(2) 0.4376(17)
H3 H 0.807(3) -0.119(2) 0.477(2)
H4 H 0.741(2) -0.099(2) 0.352(2)
loop_
_geom_bond_atom_site_label_1
_geom_bond_atom_site_label_2
_geom_bond_site_symmetry_1
_geom_bond_site_symmetry_2
N1 N2 1_555 1_555
N2 C1 1_555 1_555
C1 C2 1_555 1_555
C2 C3 1_555 1_555
C3 N1 1_555 1_555
N3 C1 1_555 1_555
O1 N3 1_555 1_555
O2 N3 1_555 1_555
N4 C2 1_555 1_555
O3 N4 1_555 1_555
O4 N4 1_555 1_555
N5 C3 1_555 1_555
O5 N5 1_555 1_555
O6 N5 1_555 1_555
N6 H1 1_555 1_555
H2 N6 1_555 1_555
H3 N6 1_555 1_555
H4 N6 1_555 1_555

#END
