
#######################################################################
#
#                 Cambridge Crystallographic Data Centre
#                                CCDC 
#
#######################################################################
#
# If this CIF has been generated from an entry in the Cambridge 
# Structural Database, then it will include bibliographic, chemical, 
# crystal, experimental, refinement or atomic coordinate data resulting 
# from the CCDC's data processing and validation procedures.
#
#######################################################################

data_FEDCIC
_chemical_formula_moiety         'C3 N5 O7 1-,C4 H8 O2,H4 N1 1+'
_chemical_name_systematic        
'Ammonium 3,4,5-trinitro-1H-pyrazol-1-olate ethyl acetate solvate'
_symmetry_cell_setting           triclinic
_symmetry_space_group_name_H-M   'P -1'
_symmetry_Int_Tables_number      2
_space_group_name_Hall           '-P 1'
loop_
_symmetry_equiv_pos_site_id
_symmetry_equiv_pos_as_xyz
1 x,y,z
2 -x,-y,-z
_cell_length_a                   4.9047(19)
_cell_length_b                   10.001(4)
_cell_length_c                   14.952(6)
_cell_angle_alpha                80.849(5)
_cell_angle_beta                 84.181(5)
_cell_angle_gamma                78.460(6)
_cell_volume                     707.615
_exptl_crystal_colour            yellow
_exptl_crystal_description       irregular
_cell_formula_units_Z            2
loop_
_atom_site_label
_atom_site_type_symbol
_atom_site_fract_x
_atom_site_fract_y
_atom_site_fract_z
N1 N 0.7000(3) 0.76039(13) 0.92775(8)
N2 N 0.4851(3) 0.86003(13) 0.94333(9)
C1 C 0.5163(3) 0.96507(16) 0.87679(10)
C2 C 0.7451(3) 0.93374(16) 0.81847(10)
C3 C 0.8641(3) 0.79998(16) 0.85240(10)
O1 O 0.7359(3) 0.64388(11) 0.98165(8)
N3 N 0.3287(3) 1.09505(14) 0.87766(9)
O2 O 0.1111(3) 1.09867(14) 0.92564(10)
O3 O 0.4019(3) 1.19498(13) 0.83013(9)
N4 N 0.8322(3) 1.01786(15) 0.73566(9)
O4 O 0.6953(4) 1.03052(19) 0.67165(9)
O5 O 1.0278(4) 1.0720(2) 0.73560(11)
N5 N 1.1129(3) 0.71563(16) 0.82024(10)
O6 O 1.2241(3) 0.76432(18) 0.74905(11)
O7 O 1.2026(3) 0.60467(15) 0.86444(11)
O8 O 0.2020(4) 0.4713(2) 1.27933(11)
C4 C 0.3210(5) 0.4787(2) 1.34418(14)
O9 O 0.3296(4) 0.38639(18) 1.41779(10)
C5 C 0.1939(9) 0.2698(4) 1.4174(2)
H1 H 0.0004 0.3030 1.4042
H2 H 0.2850 0.2166 1.3702
C6 C 0.2070(12) 0.1858(5) 1.5014(3)
H3 H 0.1058 0.1130 1.5015
H4 H 0.1258 0.2398 1.5484
H5 H 0.3982 0.1470 1.5121
C7 C 0.4801(8) 0.5873(3) 1.3514(2)
H6 H 0.3599 0.6760 1.3424
H7 H 0.6333 0.5842 1.3059
H8 H 0.5503 0.5721 1.4105
N6 N 0.2305(4) 0.60718(17) 1.09505(11)
H9 H 0.227(5) 0.580(2) 1.1596(17)
H10 H 0.391(6) 0.633(2) 1.0656(16)
H11 H 0.183(5) 0.544(3) 1.0712(16)
H12 H 0.106(6) 0.671(3) 1.0892(16)
loop_
_geom_bond_atom_site_label_1
_geom_bond_atom_site_label_2
_geom_bond_site_symmetry_1
_geom_bond_site_symmetry_2
N1 N2 1_555 1_555
N2 C1 1_555 1_555
C1 C2 1_555 1_555
C2 C3 1_555 1_555
C3 N1 1_555 1_555
O1 N1 1_555 1_555
N3 C1 1_555 1_555
O2 N3 1_555 1_555
O3 N3 1_555 1_555
N4 C2 1_555 1_555
O4 N4 1_555 1_555
O5 N4 1_555 1_555
N5 C3 1_555 1_555
O6 N5 1_555 1_555
O7 N5 1_555 1_555
O8 C4 1_555 1_555
C4 O9 1_555 1_555
O9 C5 1_555 1_555
C5 H1 1_555 1_555
H2 C5 1_555 1_555
C6 C5 1_555 1_555
H3 C6 1_555 1_555
H4 C6 1_555 1_555
H5 C6 1_555 1_555
C7 C4 1_555 1_555
H6 C7 1_555 1_555
H7 C7 1_555 1_555
H8 C7 1_555 1_555
N6 H9 1_555 1_555
H10 N6 1_555 1_555
H11 N6 1_555 1_555
H12 N6 1_555 1_555

#END
