
#######################################################################
#
#                 Cambridge Crystallographic Data Centre
#                                CCDC 
#
#######################################################################
#
# If this CIF has been generated from an entry in the Cambridge 
# Structural Database, then it will include bibliographic, chemical, 
# crystal, experimental, refinement or atomic coordinate data resulting 
# from the CCDC's data processing and validation procedures.
#
#######################################################################

data_FEDFAY
_chemical_name_common            
'Janusarene J1 bis(9,10-dimethylanthracene) clathrate dichloromethane solvate'
_chemical_formula_moiety         'C126 H102 O12,2(C16 H14),2(C1 H2 Cl2)'
_chemical_name_systematic        
"hexakis(4,4''-dimethoxy-1,3':5',1''-terphenyl-1'-yl)benzene bis(9,10-dimethylanthracene) clathrate dichloromethane solvate"
_symmetry_cell_setting           monoclinic
_symmetry_space_group_name_H-M   'C 2/c'
_symmetry_Int_Tables_number      15
_space_group_name_Hall           '-C 2yn'
loop_
_symmetry_equiv_pos_site_id
_symmetry_equiv_pos_as_xyz
1 x,y,z
2 -x,y,1/2-z
3 1/2+x,1/2+y,z
4 1/2-x,1/2+y,1/2-z
5 -x,-y,-z
6 x,-y,1/2+z
7 1/2-x,1/2-y,-z
8 1/2+x,1/2-y,1/2+z
_cell_length_a                   33.0943(15)
_cell_length_b                   13.7410(4)
_cell_length_c                   31.3244(13)
_cell_angle_alpha                90
_cell_angle_beta                 116.993(6)
_cell_angle_gamma                90
_cell_volume                     12692.9
_exptl_crystal_colour            colorless
_exptl_crystal_description       plate
_cell_formula_units_Z            4
loop_
_atom_site_label
_atom_site_type_symbol
_atom_site_fract_x
_atom_site_fract_y
_atom_site_fract_z
Cl1 Cl 0.55981(7) 1.29837(18) 0.24940(11)
Cl2 Cl 0.56623(9) 1.0995(2) 0.27128(9)
C1 C 0.5783(2) 1.2127(6) 0.2939(2)
H1 H 0.6108 1.2191 0.3133
H2 H 0.5640 1.2238 0.3145
O1 O 0.61807(11) 0.7115(2) 0.21757(11)
C2 C 0.77822(10) 0.2581(2) 0.47800(10)
C3 C 0.73119(10) 0.2694(2) 0.45063(10)
O2 O 0.73894(12) -0.1633(2) 0.25642(12)
C4 C 0.70268(9) 0.2625(2) 0.47271(10)
O3 O 0.97524(11) -0.1123(2) 0.43182(13)
C5 C 0.80884(10) 0.2688(2) 0.45470(10)
C6 C 0.83508(10) 0.1914(2) 0.45333(10)
H3 H 0.8325 0.1315 0.4657
C7 C 0.65255(10) 0.2742(2) 0.44476(10)
C8 C 0.81270(11) 0.3579(3) 0.43617(11)
H4 H 0.7951 0.4098 0.4371
C9 C 0.71285(10) 0.2751(2) 0.39711(11)
C10 C 0.58651(11) 0.3773(3) 0.40049(11)
C11 C 0.69622(10) 0.3597(3) 0.37079(11)
H5 H 0.6940 0.4158 0.3861
C12 C 0.63338(10) 0.3639(3) 0.42525(11)
H6 H 0.6524 0.4164 0.4288
C13 C 0.86533(10) 0.2017(3) 0.43377(11)
C14 C 0.57679(11) 0.2080(3) 0.41667(12)
C15 C 0.62378(10) 0.1975(2) 0.44028(11)
H7 H 0.6361 0.1374 0.4534
C16 C 0.66487(12) 0.4537(3) 0.29460(11)
O4 O 0.51665(11) 0.7369(2) 0.30985(13)
C17 C 0.71672(11) 0.1925(2) 0.37415(11)
H8 H 0.7273 0.1352 0.3916
C18 C 0.84236(11) 0.3717(3) 0.41618(12)
C19 C 0.89332(11) 0.1175(3) 0.43340(12)
C20 C 0.70516(11) 0.1929(3) 0.32540(11)
C21 C 0.68281(11) 0.3620(3) 0.32175(11)
C22 C 0.86830(11) 0.2923(3) 0.41543(12)
H9 H 0.8882 0.3001 0.4022
C23 C 0.54766(11) 0.1237(3) 0.41372(14)
C24 C 0.55881(11) 0.2985(3) 0.39709(12)
H10 H 0.5275 0.3064 0.3813
C25 C 0.68819(11) 0.2783(3) 0.29981(12)
H11 H 0.6802 0.2797 0.2673
C26 C 0.71342(13) 0.1018(3) 0.30413(13)
C27 C 0.56747(11) 0.4736(3) 0.37912(12)
C28 C 0.84569(14) 0.4683(3) 0.39660(14)
C29 C 0.63695(12) 0.5147(3) 0.30413(13)
H12 H 0.6289 0.4973 0.3279
C30 C 0.90607(12) 0.1036(3) 0.39728(14)
H13 H 0.8960 0.1476 0.3720
O5 O 0.8476(3) 0.7410(5) 0.3356(2)
C31 C 0.72867(16) -0.0741(3) 0.27005(16)
C32 C 0.68273(14) 0.0672(3) 0.25999(13)
H14 H 0.6568 0.1033 0.2415
C33 C 0.55723(13) 0.0666(3) 0.45291(17)
H15 H 0.5809 0.0845 0.4823
C34 C 0.69011(15) -0.0225(3) 0.24242(14)
H16 H 0.6692 -0.0459 0.2127
C35 C 0.58963(12) 0.5592(3) 0.39852(15)
H17 H 0.6162 0.5572 0.4272
C36 C 0.67650(14) 0.4824(3) 0.25912(13)
H18 H 0.6954 0.4430 0.2518
C37 C 0.62039(13) 0.6016(3) 0.27946(14)
H19 H 0.6014 0.6411 0.2865
C38 C 0.90917(13) 0.0500(3) 0.47019(15)
H20 H 0.9016 0.0574 0.4952
C39 C 0.75247(14) 0.0474(3) 0.32993(14)
H21 H 0.7741 0.0707 0.3593
C40 C 0.94801(14) -0.0386(3) 0.43447(18)
C41 C 0.52706(12) 0.4803(3) 0.33672(14)
H22 H 0.5107 0.4243 0.3227
C42 C 0.57375(13) 0.6485(3) 0.37683(16)
H23 H 0.5897 0.7050 0.3909
C43 C 0.63263(14) 0.6281(3) 0.24447(14)
C44 C 0.53494(15) 0.6536(3) 0.33503(16)
C45 C 0.76009(16) -0.0395(3) 0.31336(15)
H24 H 0.7864 -0.0746 0.3314
C46 C 0.93606(13) -0.0285(3) 0.47100(16)
H25 H 0.9458 -0.0736 0.4958
C47 C 0.80754(17) 0.5251(3) 0.37093(15)
H26 H 0.7793 0.5027 0.3661
O6 O 0.47248(15) -0.1261(3) 0.3977(2)
C48 C 0.66056(15) 0.5681(3) 0.23457(15)
H27 H 0.6688 0.5858 0.2109
C49 C 0.93300(15) 0.0275(3) 0.39751(17)
H28 H 0.9410 0.0207 0.3728
C50 C 0.51092(13) 0.0980(3) 0.37070(16)
H29 H 0.5030 0.1376 0.3440
C51 C 0.53298(15) -0.0168(3) 0.4504(2)
H30 H 0.5397 -0.0541 0.4775
C52 C 0.51131(14) 0.5694(4) 0.31547(16)
H31 H 0.4842 0.5726 0.2874
C53 C 0.88730(17) 0.5048(3) 0.40398(16)
H32 H 0.9133 0.4684 0.4215
C54 C 0.49827(17) -0.0432(4) 0.4062(3)
C55 C 0.8488(3) 0.6519(4) 0.3569(3)
C56 C 0.8910(5) 0.5947(8) 0.3858(4)
H33 H 0.9193 0.6189 0.3915
C57 C 0.8109(2) 0.6152(4) 0.35235(18)
H34 H 0.7845 0.6511 0.3357
C58 C 0.48613(17) 0.0156(4) 0.3668(2)
H35 H 0.4614 -0.0002 0.3379
C59 C 0.59614(16) 0.7831(3) 0.2322(2)
H36 H 0.5901 0.8394 0.2120
H37 H 0.6154 0.8010 0.2648
H38 H 0.5681 0.7575 0.2295
C60 C 0.71009(18) -0.1986(4) 0.21025(19)
H39 H 0.7116 -0.1562 0.1867
H40 H 0.6795 -0.2009 0.2060
H41 H 0.7195 -0.2628 0.2066
C61 C 0.98861(18) -0.1843(4) 0.4670(2)
H42 H 1.0069 -0.2317 0.4613
H43 H 0.9622 -0.2154 0.4661
H44 H 1.0059 -0.1553 0.4979
C62 C 0.5426(2) 0.8240(4) 0.3256(2)
H45 H 0.5265 0.8763 0.3043
H46 H 0.5713 0.8149 0.3255
H47 H 0.5474 0.8393 0.3574
C63 C 0.4894(3) -0.1841(10) 0.4350(5)
H48 H 0.5214 -0.1914 0.4457
H49 H 0.4750 -0.2466 0.4262
H50 H 0.4843 -0.1568 0.4603
C64 C 0.8898(3) 0.7800(8) 0.3406(4)
H51 H 0.8845 0.8422 0.3250
H52 H 0.9026 0.7363 0.3261
H53 H 0.9104 0.7874 0.3739
O1F O 0.88193(11) -0.2115(2) 0.78243(11)
C2F C 0.72178(10) 0.2419(2) 0.52200(10)
C3F C 0.76881(10) 0.2306(2) 0.54937(10)
O2F O 0.76106(12) 0.6633(2) 0.74358(12)
C4F C 0.79732(9) 0.2375(2) 0.52729(10)
O3F O 0.52476(11) 0.6123(2) 0.56818(13)
C5F C 0.69116(10) 0.2312(2) 0.54530(10)
C6F C 0.66492(10) 0.3086(2) 0.54667(10)
H3F H 0.6675 0.3685 0.5343
C7F C 0.84745(10) 0.2258(2) 0.55524(10)
C8F C 0.68730(11) 0.1421(3) 0.56383(11)
H4F H 0.7049 0.0902 0.5629
C9F C 0.78715(10) 0.2249(2) 0.60289(11)
C10F C 0.91349(11) 0.1227(3) 0.59951(11)
C11F C 0.80378(10) 0.1403(3) 0.62921(11)
H5F H 0.8060 0.0842 0.6139
C12F C 0.86662(10) 0.1361(3) 0.57475(11)
H6F H 0.8476 0.0836 0.5712
C13F C 0.63467(10) 0.2983(3) 0.56623(11)
C14F C 0.92321(11) 0.2920(3) 0.58333(12)
C15F C 0.87622(10) 0.3025(2) 0.55972(11)
H7F H 0.8639 0.3626 0.5466
C16F C 0.83513(12) 0.0463(3) 0.70540(11)
O4F O 0.98335(11) -0.2369(2) 0.69015(13)
C17F C 0.78328(11) 0.3075(2) 0.62585(11)
H8F H 0.7727 0.3648 0.6084
C18F C 0.65764(11) 0.1283(3) 0.58382(12)
C19F C 0.60668(11) 0.3825(3) 0.56660(12)
C20F C 0.79484(11) 0.3071(3) 0.67460(11)
C21F C 0.81719(11) 0.1380(3) 0.67825(11)
C22F C 0.63170(11) 0.2077(3) 0.58457(12)
H9F H 0.6118 0.1999 0.5978
C23F C 0.95234(11) 0.3763(3) 0.58628(14)
C24F C 0.94119(11) 0.2015(3) 0.60291(12)
H10F H 0.9725 0.1936 0.6187
C25F C 0.81181(11) 0.2217(3) 0.70019(12)
H11F H 0.8198 0.2203 0.7327
C26F C 0.78658(13) 0.3982(3) 0.69587(13)
C27F C 0.93253(11) 0.0264(3) 0.62088(12)
C28F C 0.65431(14) 0.0317(3) 0.60340(14)
C29F C 0.86305(12) -0.0147(3) 0.69587(13)
H12F H 0.8711 0.0027 0.6721
C30F C 0.59393(12) 0.3964(3) 0.60272(14)
H13F H 0.6040 0.3524 0.6280
O5F O 0.6524(3) -0.2410(5) 0.6644(2)
C31F C 0.77133(16) 0.5741(3) 0.72995(16)
C32F C 0.81727(14) 0.4328(3) 0.74001(13)
H14F H 0.8432 0.3967 0.7585
C33F C 0.94277(13) 0.4334(3) 0.54709(17)
H15F H 0.9191 0.4155 0.5177
C34F C 0.80989(15) 0.5225(3) 0.75758(14)
H16F H 0.8308 0.5459 0.7873
C35F C 0.91037(12) -0.0592(3) 0.60148(15)
H17F H 0.8838 -0.0572 0.5728
C36F C 0.82350(14) 0.0176(3) 0.74088(13)
H18F H 0.8046 0.0570 0.7482
C37F C 0.87961(13) -0.1016(3) 0.72054(14)
H19F H 0.8986 -0.1411 0.7135
C38F C 0.59083(13) 0.4500(3) 0.52981(15)
H20F H 0.5984 0.4426 0.5048
C39F C 0.74753(14) 0.4526(3) 0.67007(14)
H21F H 0.7259 0.4293 0.6407
C40F C 0.55199(14) 0.5386(3) 0.56553(18)
C41F C 0.97294(12) 0.0197(3) 0.66328(14)
H22F H 0.9893 0.0757 0.6773
C42F C 0.92625(13) -0.1485(3) 0.62317(16)
H23F H 0.9103 -0.2050 0.6091
C43F C 0.86737(14) -0.1281(3) 0.75553(14)
C44F C 0.96506(15) -0.1536(3) 0.66497(16)
C45F C 0.73991(16) 0.5395(3) 0.68664(15)
H24F H 0.7136 0.5746 0.6686
C46F C 0.56394(13) 0.5285(3) 0.52900(16)
H25F H 0.5542 0.5736 0.5042
C47F C 0.69246(17) -0.0251(3) 0.62907(15)
H26F H 0.7207 -0.0027 0.6339
O6F O 1.02752(15) 0.6261(3) 0.6023(2)
C48F C 0.83944(15) -0.0681(3) 0.76543(15)
H27F H 0.8312 -0.0858 0.7891
C49F C 0.56700(15) 0.4725(3) 0.60249(17)
H28F H 0.5590 0.4793 0.6272
C50F C 0.98908(13) 0.4020(3) 0.62930(16)
H29F H 0.9970 0.3624 0.6560
C51F C 0.96702(15) 0.5168(3) 0.5496(2)
H30F H 0.9603 0.5541 0.5225
C52F C 0.98869(14) -0.0694(4) 0.68453(16)
H31F H 1.0158 -0.0726 0.7126
C53F C 0.61270(17) -0.0048(3) 0.59602(16)
H32F H 0.5867 0.0316 0.5785
C54F C 1.00173(17) 0.5432(4) 0.5938(3)
C55F C 0.6512(3) -0.1519(4) 0.6431(3)
C56F C 0.6090(5) -0.0947(8) 0.6142(4)
H33F H 0.5807 -0.1189 0.6085
C57F C 0.6891(2) -0.1152(4) 0.64765(18)
H34F H 0.7155 -0.1511 0.6643
C58F C 1.01387(17) 0.4844(4) 0.6332(2)
H35F H 1.0386 0.5002 0.6621
C59F C 0.90386(16) -0.2831(3) 0.7678(2)
H36F H 0.9099 -0.3394 0.7880
H37F H 0.8846 -0.3010 0.7352
H38F H 0.9319 -0.2575 0.7705
C60F C 0.78991(18) 0.6986(4) 0.78975(19)
H39F H 0.7884 0.6562 0.8133
H40F H 0.8205 0.7009 0.7940
H41F H 0.7805 0.7628 0.7934
C61F C 0.51139(18) 0.6843(4) 0.5330(2)
H42F H 0.4931 0.7317 0.5387
H43F H 0.5378 0.7154 0.5339
H44F H 0.4941 0.6553 0.5021
C62F C 0.9574(2) -0.3240(4) 0.6744(2)
H45F H 0.9735 -0.3763 0.6957
H46F H 0.9287 -0.3149 0.6745
H47F H 0.9526 -0.3393 0.6426
C63F C 1.0106(3) 0.6841(10) 0.5650(5)
H48F H 0.9786 0.6914 0.5543
H49F H 1.0250 0.7466 0.5738
H50F H 1.0157 0.6568 0.5397
C64F C 0.6102(3) -0.2800(8) 0.6594(4)
H51F H 0.6155 -0.3422 0.6750
H52F H 0.5974 -0.2363 0.6739
H53F H 0.5896 -0.2874 0.6261
C68 C 0.68488(12) 0.7985(3) 0.41164(13)
C69 C 0.66314(13) 0.8356(3) 0.43815(14)
C70 C 0.70801(12) 0.7090(3) 0.42418(15)
C71 C 0.68692(13) 0.6931(3) 0.48962(14)
C72 C 0.66362(13) 0.7829(3) 0.47702(14)
C73 C 0.70921(13) 0.6567(3) 0.46333(16)
C74 C 0.68267(15) 0.8553(4) 0.37234(16)
H60 H 0.6968 0.8323 0.3545
C75 C 0.64043(16) 0.9273(3) 0.42405(16)
H61 H 0.6260 0.9528 0.4411
C76 C 0.66077(18) 0.9411(4) 0.36046(17)
H62 H 0.6598 0.9763 0.3346
C77 C 0.68905(17) 0.6370(4) 0.52871(17)
H63 H 0.6743 0.6593 0.5460
C78 C 0.73295(16) 0.5656(3) 0.4778(2)
H64 H 0.7477 0.5405 0.4611
C79 C 0.63943(19) 0.9779(4) 0.38666(18)
H65 H 0.6245 1.0374 0.3783
C80 C 0.7340(2) 0.5164(4) 0.5155(3)
H66 H 0.7496 0.4577 0.5248
C81 C 0.7116(2) 0.5534(5) 0.5411(2)
H67 H 0.7126 0.5186 0.5670
C82 C 0.73112(16) 0.6714(4) 0.39569(19)
H68 H 0.7188 0.6089 0.3824
H69 H 0.7631 0.6652 0.4163
H70 H 0.7262 0.7160 0.3702
C83 C 0.63933(18) 0.8212(4) 0.50430(18)
H71 H 0.6529 0.8814 0.5196
H72 H 0.6416 0.7746 0.5282
H73 H 0.6080 0.8318 0.4825
C65? C 0.4830(8) -0.2172(11) 0.4039(10)
H54? H 0.5069 -0.2298 0.3952
H55? H 0.4569 -0.2555 0.3841
H56? H 0.4930 -0.2339 0.4369
O7? O 0.8834(8) 0.7273(13) 0.3641(7)
C66? C 0.8532(18) 0.801(3) 0.3461(14)
H57? H 0.8266 0.7776 0.3189
H58? H 0.8665 0.8529 0.3365
H59? H 0.8452 0.8233 0.3702
C67? C 0.8784(13) 0.632(3) 0.3807(9)
loop_
_geom_bond_atom_site_label_1
_geom_bond_atom_site_label_2
_geom_bond_site_symmetry_1
_geom_bond_site_symmetry_2
Cl1 C1 1_555 1_555
Cl2 C1 1_555 1_555
C1 H1 1_555 1_555
H2 C1 1_555 1_555
O1 C43 1_555 1_555
C2 C3 1_555 1_555
C3 C4 1_555 1_555
O2 C31 1_555 1_555
C4 C7 1_555 1_555
O3 C40 1_555 1_555
C5 C2 1_555 1_555
C6 C5 1_555 1_555
H3 C6 1_555 1_555
C7 C12 1_555 1_555
C8 C5 1_555 1_555
H4 C8 1_555 1_555
C9 C3 1_555 1_555
C10 C12 1_555 1_555
C11 C9 1_555 1_555
H5 C11 1_555 1_555
C12 H6 1_555 1_555
C13 C6 1_555 1_555
C14 C15 1_555 1_555
C15 C7 1_555 1_555
H7 C15 1_555 1_555
C16 C21 1_555 1_555
O4 C44 1_555 1_555
C17 C9 1_555 1_555
H8 C17 1_555 1_555
C18 C8 1_555 1_555
C19 C13 1_555 1_555
C20 C17 1_555 1_555
C21 C11 1_555 1_555
C22 C13 1_555 1_555
H9 C22 1_555 1_555
C23 C14 1_555 1_555
C24 C10 1_555 1_555
H10 C24 1_555 1_555
C25 C20 1_555 1_555
H11 C25 1_555 1_555
C26 C20 1_555 1_555
C27 C10 1_555 1_555
C28 C18 1_555 1_555
C29 C16 1_555 1_555
H12 C29 1_555 1_555
C30 C19 1_555 1_555
H13 C30 1_555 1_555
O5 C55 1_555 1_555
C31 C34 1_555 1_555
C32 C26 1_555 1_555
H14 C32 1_555 1_555
C33 C23 1_555 1_555
H15 C33 1_555 1_555
C34 C32 1_555 1_555
H16 C34 1_555 1_555
C35 C27 1_555 1_555
H17 C35 1_555 1_555
C36 C16 1_555 1_555
H18 C36 1_555 1_555
C37 C29 1_555 1_555
H19 C37 1_555 1_555
C38 C19 1_555 1_555
H20 C38 1_555 1_555
C39 C26 1_555 1_555
H21 C39 1_555 1_555
C40 C46 1_555 1_555
C41 C27 1_555 1_555
H22 C41 1_555 1_555
C42 C35 1_555 1_555
H23 C42 1_555 1_555
C43 C37 1_555 1_555
C44 C42 1_555 1_555
C45 C31 1_555 1_555
H24 C45 1_555 1_555
C46 C38 1_555 1_555
H25 C46 1_555 1_555
C47 C28 1_555 1_555
H26 C47 1_555 1_555
O6 C54 1_555 1_555
C48 C36 1_555 1_555
H27 C48 1_555 1_555
C49 C30 1_555 1_555
H28 C49 1_555 1_555
C50 C23 1_555 1_555
H29 C50 1_555 1_555
C51 C33 1_555 1_555
H30 C51 1_555 1_555
C52 C41 1_555 1_555
H31 C52 1_555 1_555
C53 C28 1_555 1_555
H32 C53 1_555 1_555
C54 C51 1_555 1_555
C55 C56 1_555 1_555
C56 C53 1_555 1_555
H33 C56 1_555 1_555
C57 C47 1_555 1_555
H34 C57 1_555 1_555
C58 C50 1_555 1_555
H35 C58 1_555 1_555
C59 O1 1_555 1_555
H36 C59 1_555 1_555
H37 C59 1_555 1_555
H38 C59 1_555 1_555
C60 O2 1_555 1_555
H39 C60 1_555 1_555
H40 C60 1_555 1_555
H41 C60 1_555 1_555
C61 O3 1_555 1_555
H42 C61 1_555 1_555
H43 C61 1_555 1_555
H44 C61 1_555 1_555
C62 O4 1_555 1_555
H45 C62 1_555 1_555
H46 C62 1_555 1_555
H47 C62 1_555 1_555
C63 O6 1_555 1_555
H48 C63 1_555 1_555
H49 C63 1_555 1_555
H50 C63 1_555 1_555
C64 O5 1_555 1_555
H51 C64 1_555 1_555
H52 C64 1_555 1_555
H53 C64 1_555 1_555
C68 C69 1_555 1_555
C69 C72 1_555 1_555
C70 C68 1_555 1_555
C71 C72 1_555 1_555
C72 C83 1_555 1_555
C73 C70 1_555 1_555
C74 C68 1_555 1_555
H60 C74 1_555 1_555
C75 C69 1_555 1_555
H61 C75 1_555 1_555
C76 C74 1_555 1_555
H62 C76 1_555 1_555
C77 C71 1_555 1_555
H63 C77 1_555 1_555
C78 C73 1_555 1_555
H64 C78 1_555 1_555
C79 C75 1_555 1_555
H65 C79 1_555 1_555
C80 C78 1_555 1_555
H66 C80 1_555 1_555
C81 C77 1_555 1_555
H67 C81 1_555 1_555
C82 C70 1_555 1_555
H68 C82 1_555 1_555
H69 C82 1_555 1_555
H70 C82 1_555 1_555
C83 H71 1_555 1_555
H72 C83 1_555 1_555
H73 C83 1_555 1_555
O1F C43F 1_555 1_555
C2F C4 1_555 1_555
C3F C2F 1_555 1_555
O2F C31F 1_555 1_555
C4F C2 1_555 1_555
O3F C40F 1_555 1_555
C5F C2F 1_555 1_555
C6F C5F 1_555 1_555
H3F C6F 1_555 1_555
C7F C4F 1_555 1_555
C8F C5F 1_555 1_555
H4F C8F 1_555 1_555
C9F C3F 1_555 1_555
C10F C12F 1_555 1_555
C11F C9F 1_555 1_555
H5F C11F 1_555 1_555
C12F C7F 1_555 1_555
H6F C12F 1_555 1_555
C13F C6F 1_555 1_555
C14F C15F 1_555 1_555
C15F C7F 1_555 1_555
H7F C15F 1_555 1_555
C16F C21F 1_555 1_555
O4F C44F 1_555 1_555
C17F C9F 1_555 1_555
H8F C17F 1_555 1_555
C18F C8F 1_555 1_555
C19F C13F 1_555 1_555
C20F C17F 1_555 1_555
C21F C11F 1_555 1_555
C22F C13F 1_555 1_555
H9F C22F 1_555 1_555
C23F C14F 1_555 1_555
C24F C10F 1_555 1_555
H10F C24F 1_555 1_555
C25F C20F 1_555 1_555
H11F C25F 1_555 1_555
C26F C20F 1_555 1_555
C27F C10F 1_555 1_555
C28F C18F 1_555 1_555
C29F C16F 1_555 1_555
H12F C29F 1_555 1_555
C30F C19F 1_555 1_555
H13F C30F 1_555 1_555
O5F C55F 1_555 1_555
C31F C34F 1_555 1_555
C32F C26F 1_555 1_555
H14F C32F 1_555 1_555
C33F C23F 1_555 1_555
H15F C33F 1_555 1_555
C34F C32F 1_555 1_555
H16F C34F 1_555 1_555
C35F C27F 1_555 1_555
H17F C35F 1_555 1_555
C36F C16F 1_555 1_555
H18F C36F 1_555 1_555
C37F C29F 1_555 1_555
H19F C37F 1_555 1_555
C38F C19F 1_555 1_555
H20F C38F 1_555 1_555
C39F C26F 1_555 1_555
H21F C39F 1_555 1_555
C40F C46F 1_555 1_555
C41F C27F 1_555 1_555
H22F C41F 1_555 1_555
C42F C35F 1_555 1_555
H23F C42F 1_555 1_555
C43F C37F 1_555 1_555
C44F C42F 1_555 1_555
C45F C31F 1_555 1_555
H24F C45F 1_555 1_555
C46F C38F 1_555 1_555
H25F C46F 1_555 1_555
C47F C28F 1_555 1_555
H26F C47F 1_555 1_555
O6F C54F 1_555 1_555
C48F C36F 1_555 1_555
H27F C48F 1_555 1_555
C49F C30F 1_555 1_555
H28F C49F 1_555 1_555
C50F C23F 1_555 1_555
H29F C50F 1_555 1_555
C51F C33F 1_555 1_555
H30F C51F 1_555 1_555
C52F C41F 1_555 1_555
H31F C52F 1_555 1_555
C53F C28F 1_555 1_555
H32F C53F 1_555 1_555
C54F C51F 1_555 1_555
C55F C56F 1_555 1_555
C56F C53F 1_555 1_555
H33F C56F 1_555 1_555
C57F C47F 1_555 1_555
H34F C57F 1_555 1_555
C58F C50F 1_555 1_555
H35F C58F 1_555 1_555
C59F O1F 1_555 1_555
H36F C59F 1_555 1_555
H37F C59F 1_555 1_555
H38F C59F 1_555 1_555
C60F O2F 1_555 1_555
H39F C60F 1_555 1_555
H40F C60F 1_555 1_555
H41F C60F 1_555 1_555
C61F O3F 1_555 1_555
H42F C61F 1_555 1_555
H43F C61F 1_555 1_555
H44F C61F 1_555 1_555
C62F O4F 1_555 1_555
H45F C62F 1_555 1_555
H46F C62F 1_555 1_555
H47F C62F 1_555 1_555
C63F O6F 1_555 1_555
H48F C63F 1_555 1_555
H49F C63F 1_555 1_555
H50F C63F 1_555 1_555
C64F O5F 1_555 1_555
H51F C64F 1_555 1_555
H52F C64F 1_555 1_555
H53F C64F 1_555 1_555
C14 C24 1_555 1_555
C18 C22 1_555 1_555
C21 C25 1_555 1_555
C39 C45 1_555 1_555
C40 C49 1_555 1_555
C43 C48 1_555 1_555
C44 C52 1_555 1_555
C54 C58 1_555 1_555
C55 C57 1_555 1_555
C71 C73 1_555 1_555
C76 C79 1_555 1_555
C80 C81 1_555 1_555
C3F C4F 1_555 1_555
C14F C24F 1_555 1_555
C18F C22F 1_555 1_555
C21F C25F 1_555 1_555
C39F C45F 1_555 1_555
C40F C49F 1_555 1_555
C43F C48F 1_555 1_555
C44F C52F 1_555 1_555
C54F C58F 1_555 1_555
C55F C57F 1_555 1_555

#END
