
#######################################################################
#
#                 Cambridge Crystallographic Data Centre
#                                CCDC 
#
#######################################################################
#
# If this CIF has been generated from an entry in the Cambridge 
# Structural Database, then it will include bibliographic, chemical, 
# crystal, experimental, refinement or atomic coordinate data resulting 
# from the CCDC's data processing and validation procedures.
#
#######################################################################

data_FEDKOP
_chemical_compound_source        'Chinese medicinal plant Aster tataricus L'
_chemical_formula_moiety         'C30 H50 O1'
_chemical_name_systematic        
4,5,9,14-Tetramethyl-19-norcholest-24-en-3-one
_symmetry_cell_setting           monoclinic
_symmetry_space_group_name_H-M   'P 21'
_symmetry_Int_Tables_number      4
_space_group_name_Hall           'P 2yb'
loop_
_symmetry_equiv_pos_site_id
_symmetry_equiv_pos_as_xyz
1 x,y,z
2 -x,1/2+y,-z
_cell_length_a                   11.330(2)
_cell_length_b                   6.9142(13)
_cell_length_c                   17.913(3)
_cell_angle_alpha                90
_cell_angle_beta                 107.145(3)
_cell_angle_gamma                90
_cell_volume                     1340.91
_exptl_crystal_colour            colorless
_exptl_crystal_description       block
_chemical_melting_point          '432-433 K'
_cell_formula_units_Z            2
_exptl_crystal_recrystallization_method acetone
loop_
_atom_site_label
_atom_site_type_symbol
_atom_site_fract_x
_atom_site_fract_y
_atom_site_fract_z
O1 O 0.6053(3) 0.6121(7) 0.00019(14)
C1 C 0.5007(3) 0.7844(6) 0.15327(17)
H1 H 0.4370 0.7618 0.1785
H2 H 0.4805 0.9032 0.1235
C2 C 0.5004(3) 0.6175(7) 0.09751(19)
H3 H 0.4971 0.4962 0.1240
H4 H 0.4269 0.6261 0.0530
C3 C 0.6124(4) 0.6179(7) 0.06891(19)
C4 C 0.7336(3) 0.6357(6) 0.13253(18)
H5 H 0.7357 0.5297 0.1692
C5 C 0.7327(3) 0.8273(5) 0.17861(15)
C6 C 0.8561(2) 0.8451(6) 0.24337(15)
H6 H 0.8764 0.7207 0.2689
H7 H 0.9204 0.8769 0.2197
C7 C 0.8558(2) 0.9968(5) 0.30469(15)
H8 H 0.8416 1.1235 0.2804
H9 H 0.9357 0.9986 0.3441
C8 C 0.7549(2) 0.9524(4) 0.34314(13)
H10 H 0.7660 0.8149 0.3566
C9 C 0.6242(2) 0.9633(4) 0.28062(15)
C10 C 0.6261(2) 0.8095(5) 0.21665(15)
H11 H 0.6407 0.6858 0.2445
C11 C 0.5245(2) 0.9049(5) 0.31969(16)
H12 H 0.4438 0.9371 0.2846
H13 H 0.5273 0.7658 0.3271
C12 C 0.5389(2) 1.0022(5) 0.39838(16)
H14 H 0.4766 0.9515 0.4204
H15 H 0.5241 1.1398 0.3900
C13 C 0.6671(2) 0.9722(4) 0.45744(15)
C14 C 0.7672(2) 1.0547(4) 0.42222(15)
C15 C 0.8939(2) 1.0144(5) 0.48252(15)
H16 H 0.9045 0.8759 0.4899
H17 H 0.9588 1.0614 0.4620
C16 C 0.9076(3) 1.1109(6) 0.56226(16)
H18 H 0.9208 1.2481 0.5569
H19 H 0.9817 1.0599 0.5993
C17 C 0.7998(2) 1.0876(5) 0.59825(16)
C18 C 0.6740(2) 1.0799(5) 0.53410(16)
H20 H 0.6148 1.0204 0.5566
H21 H 0.6470 1.2119 0.5208
C19 C 0.8441(4) 0.6053(9) 0.1012(2)
H22 H 0.8304 0.4926 0.0684
H23 H 0.9175 0.5879 0.1441
H24 H 0.8536 0.7164 0.0713
C20 C 0.7193(3) 1.0000(7) 0.12178(19)
H25 H 0.7321 1.1187 0.1509
H26 H 0.6379 0.9995 0.0853
H27 H 0.7796 0.9889 0.0939
C21 C 0.5882(3) 1.1647(6) 0.2443(2)
H28 H 0.6605 1.2294 0.2394
H29 H 0.5524 1.2393 0.2773
H30 H 0.5293 1.1509 0.1937
C22 C 0.6806(3) 0.7530(5) 0.47459(16)
H31 H 0.6220 0.7135 0.5009
H32 H 0.7628 0.7260 0.5072
H33 H 0.6655 0.6832 0.4264
C23 C 0.7574(3) 1.2767(5) 0.4114(2)
H34 H 0.6740 1.3109 0.3833
H35 H 0.8119 1.3187 0.3826
H36 H 0.7801 1.3383 0.4617
C24 C 0.7985(3) 1.2665(5) 0.6482(2)
H37 H 0.7307 1.2577 0.6700
H38 H 0.7893 1.3804 0.6163
H39 H 0.8747 1.2737 0.6897
C25 C 0.8278(4) 0.9119(6) 0.6528(2)
H40 H 0.9080 0.9322 0.6892
H41 H 0.8346 0.8019 0.6216
C26 C 0.7448(4) 0.8568(10) 0.6984(3)
H44 H 0.6685 0.8078 0.6630
H45 H 0.7248 0.9715 0.7234
C27 C 0.7965(9) 0.7085(10) 0.7592(3)
H46 H 0.8126 0.5906 0.7392
C28 C 0.8244(12) 0.7113(17) 0.8372(5)
C29 C 0.8121(10) 0.8912(16) 0.8812(7)
H47 H 0.8925 0.9336 0.9118
H48 H 0.7624 0.8643 0.9150
H49 H 0.7736 0.9909 0.8448
C30 C 0.8528(9) 0.5211(13) 0.8798(5)
H50 H 0.8601 0.4218 0.8440
H51 H 0.7874 0.4888 0.9016
H52 H 0.9291 0.5316 0.9210
H42? H 0.8712 0.8233 0.6290
H43? H 0.7489 0.8535 0.6477
C31? C 0.8929(13) 0.905(2) 0.7358(5)
H53? H 0.8620 1.0086 0.7612
H54? H 0.9796 0.9305 0.7425
C32? C 0.884(2) 0.721(2) 0.7770(9)
H55? H 0.9161 0.6079 0.7631
C33? C 0.830(3) 0.718(6) 0.8340(15)
C34? C 0.755(2) 0.851(4) 0.8684(14)
H56? H 0.8091 0.9423 0.9024
H57? H 0.7122 0.7775 0.8976
H58? H 0.6964 0.9198 0.8271
C35? C 0.9079(19) 0.593(4) 0.8980(12)
H59? H 0.9350 0.4815 0.8755
H60? H 0.8605 0.5520 0.9316
H61? H 0.9785 0.6650 0.9278
loop_
_geom_bond_atom_site_label_1
_geom_bond_atom_site_label_2
_geom_bond_site_symmetry_1
_geom_bond_site_symmetry_2
O1 C3 1_555 1_555
C1 H1 1_555 1_555
H2 C1 1_555 1_555
C2 C1 1_555 1_555
H3 C2 1_555 1_555
H4 C2 1_555 1_555
C3 C2 1_555 1_555
C4 C3 1_555 1_555
H5 C4 1_555 1_555
C5 C4 1_555 1_555
C6 C5 1_555 1_555
H6 C6 1_555 1_555
H7 C6 1_555 1_555
C7 C6 1_555 1_555
H8 C7 1_555 1_555
H9 C7 1_555 1_555
C8 C7 1_555 1_555
H10 C8 1_555 1_555
C9 C8 1_555 1_555
C10 C1 1_555 1_555
H11 C10 1_555 1_555
C11 C9 1_555 1_555
H12 C11 1_555 1_555
H13 C11 1_555 1_555
C12 C11 1_555 1_555
H14 C12 1_555 1_555
H15 C12 1_555 1_555
C13 C12 1_555 1_555
C14 C8 1_555 1_555
C15 C14 1_555 1_555
H16 C15 1_555 1_555
H17 C15 1_555 1_555
C16 C15 1_555 1_555
H18 C16 1_555 1_555
H19 C16 1_555 1_555
C17 C16 1_555 1_555
C18 C13 1_555 1_555
H20 C18 1_555 1_555
H21 C18 1_555 1_555
C19 C4 1_555 1_555
H22 C19 1_555 1_555
H23 C19 1_555 1_555
H24 C19 1_555 1_555
C20 C5 1_555 1_555
H25 C20 1_555 1_555
H26 C20 1_555 1_555
H27 C20 1_555 1_555
C21 C9 1_555 1_555
H28 C21 1_555 1_555
H29 C21 1_555 1_555
H30 C21 1_555 1_555
C22 C13 1_555 1_555
H31 C22 1_555 1_555
H32 C22 1_555 1_555
H33 C22 1_555 1_555
C23 C14 1_555 1_555
H34 C23 1_555 1_555
H35 C23 1_555 1_555
H36 C23 1_555 1_555
C24 C17 1_555 1_555
H37 C24 1_555 1_555
H38 C24 1_555 1_555
H39 C24 1_555 1_555
C25 C17 1_555 1_555
H40 C25 1_555 1_555
H41 C25 1_555 1_555
C26 C25 1_555 1_555
H44 C26 1_555 1_555
H45 C26 1_555 1_555
C27 C26 1_555 1_555
H46 C27 1_555 1_555
C28 C27 1_555 1_555
C29 C28 1_555 1_555
H47 C29 1_555 1_555
H48 C29 1_555 1_555
H49 C29 1_555 1_555
C30 C28 1_555 1_555
H50 C30 1_555 1_555
H51 C30 1_555 1_555
H52 C30 1_555 1_555
C5 C10 1_555 1_555
C9 C10 1_555 1_555
C13 C14 1_555 1_555
C17 C18 1_555 1_555

#END
