
#######################################################################
#
#                 Cambridge Crystallographic Data Centre
#                                CCDC 
#
#######################################################################
#
# If this CIF has been generated from an entry in the Cambridge 
# Structural Database, then it will include bibliographic, chemical, 
# crystal, experimental, refinement or atomic coordinate data resulting 
# from the CCDC's data processing and validation procedures.
#
#######################################################################

data_FEDQEN
_chemical_formula_moiety         'C33 H52 Li1 N1 O1 P2'
_chemical_name_systematic        
(4,5-bis(di-isopropylphosphino)-2,7,9,9-tetramethyl-9,10-dihydroacridin-10-yl)-tetrahydrofuran-lithium
_symmetry_cell_setting           triclinic
_symmetry_space_group_name_H-M   'P -1'
_symmetry_Int_Tables_number      2
_space_group_name_Hall           '-P 1'
loop_
_symmetry_equiv_pos_site_id
_symmetry_equiv_pos_as_xyz
1 x,y,z
2 -x,-y,-z
_cell_length_a                   11.235(3)
_cell_length_b                   13.156(3)
_cell_length_c                   13.409(3)
_cell_angle_alpha                108.803(3)
_cell_angle_beta                 111.890(3)
_cell_angle_gamma                98.393(3)
_cell_volume                     1659.08
_exptl_crystal_colour            yellow
_exptl_crystal_description       platy
_cell_formula_units_Z            2
loop_
_atom_site_label
_atom_site_type_symbol
_atom_site_fract_x
_atom_site_fract_y
_atom_site_fract_z
P1 P 0.62479(6) 0.86539(5) 0.17878(6)
P2 P 0.78731(6) 0.63867(5) 0.35343(5)
Li1 Li 0.7180(4) 0.8092(3) 0.3462(4)
O1 O 0.76241(19) 0.92524(16) 0.49641(16)
C1 C 0.4288(2) 0.72635(19) 0.19704(19)
C2 C 0.6023(2) 0.47613(19) 0.3645(2)
H1 H 0.6767 0.4511 0.3976
C3 C 0.4510(2) 0.80743(19) 0.1504(2)
C4 C 0.6235(2) 0.56793(19) 0.3350(2)
C5 C 0.5139(2) 0.60831(19) 0.28693(19)
C6 C 0.3428(2) 0.83675(19) 0.0857(2)
H2 H 0.3597 0.8917 0.0569
C7 C 0.2950(2) 0.67753(19) 0.1730(2)
C8 C 0.4771(2) 0.42066(19) 0.3473(2)
C9 C 0.3851(2) 0.55191(19) 0.2692(2)
C10 C 0.3706(2) 0.4607(2) 0.2990(2)
H3 H 0.2836 0.4235 0.2859
C11 C 0.1916(2) 0.7096(2) 0.1071(2)
H4 H 0.1024 0.6757 0.0919
C12 C 0.2116(2) 0.7887(2) 0.0619(2)
C13 C 0.6226(2) 0.7759(2) 0.0384(2)
H5 H 0.5756 0.6970 0.0206
C14 C 0.9096(2) 0.6300(2) 0.4864(2)
H6 H 0.8939 0.5493 0.4746
C15 C 0.8056(3) 0.5393(2) 0.2287(2)
H7 H 0.8875 0.5791 0.2274
C16 C 0.2673(2) 0.5986(2) 0.2299(2)
C17 C 0.6327(2) 1.00687(19) 0.1781(2)
H8 H 0.5589 0.9987 0.1027
C18 C 0.4560(3) 0.3240(2) 0.3818(2)
H9 H 0.5333 0.2949 0.3939
H10 H 0.3740 0.2640 0.3191
H11 H 0.4468 0.3501 0.4551
C19 C 0.5428(3) 0.7968(2) -0.0696(2)
H12 H 0.5900 0.8698 -0.0616
H13 H 0.4531 0.7968 -0.0757
H14 H 0.5340 0.7370 -0.1406
C20 C 1.0524(2) 0.6782(2) 0.5046(2)
H15 H 1.0663 0.7559 0.5114
H16 H 1.0643 0.6324 0.4372
H17 H 1.1179 0.6773 0.5769
C21 C 0.8908(3) 0.6957(2) 0.5934(2)
H18 H 0.9572 0.6925 0.6639
H19 H 0.7999 0.6624 0.5812
H20 H 0.9032 0.7744 0.6038
C22 C 0.7676(3) 1.0617(2) 0.1866(3)
H21 H 0.7725 1.1382 0.1911
H22 H 0.7761 1.0170 0.1167
H23 H 0.8410 1.0651 0.2573
C23 C 0.0953(2) 0.8217(2) -0.0081(2)
H24 H 0.1189 0.9040 0.0221
H25 H 0.0154 0.7922 -0.0003
H26 H 0.0762 0.7902 -0.0913
C24 C 0.8243(3) 0.4283(2) 0.2357(3)
H27 H 0.7467 0.3875 0.2392
H28 H 0.9065 0.4443 0.3066
H29 H 0.8317 0.3822 0.1658
C25 C 0.6126(3) 1.0807(2) 0.2813(2)
H30 H 0.6830 1.0874 0.3556
H31 H 0.5241 1.0464 0.2732
H32 H 0.6178 1.1558 0.2814
C26 C 0.7641(3) 0.7760(2) 0.0509(3)
H33 H 0.7568 0.7182 -0.0208
H34 H 0.8123 0.7597 0.1188
H35 H 0.8134 0.8501 0.0626
C27 C 0.2572(3) 0.6695(3) 0.3418(3)
H36 H 0.2417 0.6215 0.3813
H37 H 0.1823 0.7007 0.3197
H38 H 0.3413 0.7311 0.3953
C28 C 0.6851(3) 0.5158(2) 0.1126(2)
H39 H 0.7005 0.4729 0.0463
H40 H 0.6744 0.5874 0.1091
H41 H 0.6033 0.4722 0.1082
C29 C 0.8807(3) 1.0133(3) 0.5857(3)
H42 H 0.8912 1.0787 0.5650
H43 H 0.9611 0.9873 0.5958
C30 C 0.1350(3) 0.5031(3) 0.1457(3)
H44 H 0.1400 0.4596 0.0734
H45 H 0.0603 0.5351 0.1260
H46 H 0.1201 0.4535 0.1837
C31 C 0.6584(4) 0.9333(4) 0.5317(3)
H47 H 0.6065 0.8573 0.5153
H48 H 0.5962 0.9661 0.4868
C32 C 0.7173(4) 1.0033(4) 0.6553(4)
H49 H 0.6984 0.9594 0.6983
H50 H 0.6799 1.0672 0.6695
C33 C 0.8646(4) 1.0451(4) 0.6961(3)
H51 H 0.9134 1.0090 0.7460
H52 H 0.8991 1.1278 0.7419
N1 N 0.53864(18) 0.70001(16) 0.26040(16)
loop_
_geom_bond_atom_site_label_1
_geom_bond_atom_site_label_2
_geom_bond_site_symmetry_1
_geom_bond_site_symmetry_2
P1 Li1 1_555 1_555
P2 Li1 1_555 1_555
Li1 O1 1_555 1_555
O1 C29 1_555 1_555
C1 C3 1_555 1_555
C2 H1 1_555 1_555
C3 P1 1_555 1_555
C4 P2 1_555 1_555
C5 C4 1_555 1_555
C6 C3 1_555 1_555
H2 C6 1_555 1_555
C7 C1 1_555 1_555
C8 C2 1_555 1_555
C9 C5 1_555 1_555
C10 C8 1_555 1_555
H3 C10 1_555 1_555
C11 C7 1_555 1_555
H4 C11 1_555 1_555
C12 C6 1_555 1_555
C13 P1 1_555 1_555
H5 C13 1_555 1_555
C14 P2 1_555 1_555
H6 C14 1_555 1_555
C15 P2 1_555 1_555
H7 C15 1_555 1_555
C16 C7 1_555 1_555
C17 P1 1_555 1_555
H8 C17 1_555 1_555
C18 C8 1_555 1_555
H9 C18 1_555 1_555
H10 C18 1_555 1_555
H11 C18 1_555 1_555
C19 C13 1_555 1_555
H12 C19 1_555 1_555
H13 C19 1_555 1_555
H14 C19 1_555 1_555
C20 C14 1_555 1_555
H15 C20 1_555 1_555
H16 C20 1_555 1_555
H17 C20 1_555 1_555
C21 C14 1_555 1_555
H18 C21 1_555 1_555
H19 C21 1_555 1_555
H20 C21 1_555 1_555
C22 C17 1_555 1_555
H21 C22 1_555 1_555
H22 C22 1_555 1_555
H23 C22 1_555 1_555
C23 C12 1_555 1_555
H24 C23 1_555 1_555
H25 C23 1_555 1_555
H26 C23 1_555 1_555
C24 C15 1_555 1_555
H27 C24 1_555 1_555
H28 C24 1_555 1_555
H29 C24 1_555 1_555
C25 C17 1_555 1_555
H30 C25 1_555 1_555
H31 C25 1_555 1_555
H32 C25 1_555 1_555
C26 C13 1_555 1_555
H33 C26 1_555 1_555
H34 C26 1_555 1_555
H35 C26 1_555 1_555
C27 C16 1_555 1_555
H36 C27 1_555 1_555
H37 C27 1_555 1_555
H38 C27 1_555 1_555
C28 C15 1_555 1_555
H39 C28 1_555 1_555
H40 C28 1_555 1_555
H41 C28 1_555 1_555
C29 H42 1_555 1_555
H43 C29 1_555 1_555
C30 C16 1_555 1_555
H44 C30 1_555 1_555
H45 C30 1_555 1_555
H46 C30 1_555 1_555
C31 O1 1_555 1_555
H47 C31 1_555 1_555
H48 C31 1_555 1_555
C32 C31 1_555 1_555
H49 C32 1_555 1_555
H50 C32 1_555 1_555
C33 C29 1_555 1_555
H51 C33 1_555 1_555
H52 C33 1_555 1_555
N1 Li1 1_555 1_555
C1 N1 1_555 1_555
C2 C4 1_555 1_555
C5 N1 1_555 1_555
C9 C10 1_555 1_555
C9 C16 1_555 1_555
C11 C12 1_555 1_555
C32 C33 1_555 1_555

#END
