
#######################################################################
#
#                 Cambridge Crystallographic Data Centre
#                                CCDC 
#
#######################################################################
#
# If this CIF has been generated from an entry in the Cambridge 
# Structural Database, then it will include bibliographic, chemical, 
# crystal, experimental, refinement or atomic coordinate data resulting 
# from the CCDC's data processing and validation procedures.
#
#######################################################################

data_FEDVAM
_chemical_formula_moiety         'C11 H11 N5 O3'
_chemical_name_systematic        
3-(N'-(4-Hydroxy-3-methoxyphenyl)methylenehydrazinocarbonyl)-1H-1,2,4-triazole
_chemical_properties_biological  'potential biological activity'
_symmetry_cell_setting           triclinic
_symmetry_space_group_name_H-M   'P -1'
_symmetry_Int_Tables_number      2
_space_group_name_Hall           '-P 1'
loop_
_symmetry_equiv_pos_site_id
_symmetry_equiv_pos_as_xyz
1 x,y,z
2 -x,-y,-z
_cell_length_a                   4.4730(10)
_cell_length_b                   14.772(5)
_cell_length_c                   18.263(2)
_cell_angle_alpha                79.38(2)
_cell_angle_beta                 88.780(10)
_cell_angle_gamma                86.33(2)
_cell_volume                     1183.57
_exptl_crystal_colour            brown
_exptl_crystal_description       spike
_cell_formula_units_Z            4
_exptl_crystal_recrystallization_method DMF
loop_
_atom_site_label
_atom_site_type_symbol
_atom_site_fract_x
_atom_site_fract_y
_atom_site_fract_z
O1 O -1.1420(4) 1.25562(13) 0.05702(9)
O2 O -0.0449(4) 0.87349(13) 0.09108(10)
O3 O 0.2375(4) 0.80654(13) 0.21688(11)
H1 H 0.2507 0.7924 0.1755
N1 N -1.5371(5) 1.38568(14) 0.11372(11)
N2 N -1.6889(5) 1.42595(15) 0.16499(12)
H3 H -1.8228 1.4707 0.1548
N3 N -1.3951(5) 1.32054(16) 0.22994(12)
N4 N -0.9696(4) 1.20748(14) 0.17482(11)
H4 H -0.9843 1.2165 0.2200
N5 N -0.7621(4) 1.14090(14) 0.15822(11)
C1 C -1.6040(6) 1.38727(19) 0.23285(15)
H7 H -1.6800 1.4044 0.2764
C2 C -1.3611(5) 1.32289(17) 0.15598(13)
C3 C -1.1496(5) 1.25877(17) 0.12317(14)
C4 C -0.6135(5) 1.10045(17) 0.21522(14)
H8 H -0.6509 1.1199 0.2603
C5 C -0.3885(5) 1.02525(16) 0.21296(14)
C6 C -0.2337(6) 0.98840(18) 0.27753(14)
H9 H -0.2712 1.0127 0.3206
C7 C -0.0234(6) 0.91548(19) 0.27804(15)
H10 H 0.0807 0.8910 0.3215
C8 C 0.0327(6) 0.87908(17) 0.21520(14)
C9 C -0.1228(5) 0.91620(17) 0.14934(14)
C10 C -0.3300(5) 0.98910(17) 0.14860(14)
H11 H -0.4315 1.0144 0.1050
C11 C -0.2320(7) 0.8953(2) 0.02675(16)
H12 H -0.4352 0.8830 0.0411
H13 H -0.1647 0.8580 -0.0090
H14 H -0.2213 0.9593 0.0050
O4 O 1.0455(5) 0.55491(14) 0.26267(10)
O5 O 1.2849(5) 0.63936(13) 0.60994(10)
O6 O 1.0800(5) 0.79185(15) 0.65774(10)
H2 H 1.1845 0.7472 0.6784
N6 N 0.8693(5) 0.56851(15) 0.11694(11)
N7 N 0.5247(5) 0.66398(16) 0.06080(12)
H5 H 0.4083 0.6922 0.0259
N8 N 0.5261(5) 0.68206(15) 0.13039(12)
N9 N 0.7068(5) 0.66888(15) 0.28114(11)
H6 H 0.5543 0.7041 0.2637
N10 N 0.8111(5) 0.67119(15) 0.35077(11)
C12 C 0.7257(6) 0.5973(2) 0.05348(15)
H15 H 0.7617 0.5737 0.0101
C13 C 0.7403(5) 0.62222(16) 0.16241(13)
C14 C 0.8436(6) 0.61144(18) 0.24034(14)
C15 C 0.6881(6) 0.73314(19) 0.38260(15)
H16 H 0.5313 0.7711 0.3591
C16 C 0.7860(6) 0.74648(19) 0.45516(14)
C17 C 0.6807(7) 0.8230(2) 0.48381(16)
H17 H 0.5407 0.8651 0.4572
C18 C 0.7805(7) 0.8378(2) 0.55104(16)
H18 H 0.7095 0.8900 0.5693
C19 C 0.9853(7) 0.7756(2) 0.59169(14)
C20 C 1.0870(6) 0.69655(19) 0.56467(14)
C21 C 0.9915(6) 0.68308(18) 0.49643(14)
H19 H 1.0645 0.6314 0.4777
C22 C 1.3787(8) 0.55363(19) 0.58878(17)
H20 H 1.2078 0.5179 0.5872
H21 H 1.5190 0.5202 0.6245
H22 H 1.4725 0.5651 0.5405
loop_
_geom_bond_atom_site_label_1
_geom_bond_atom_site_label_2
_geom_bond_site_symmetry_1
_geom_bond_site_symmetry_2
O1 C3 1_555 1_555
O2 C9 1_555 1_555
O3 H1 1_555 1_555
O4 C14 1_555 1_555
O5 C20 1_555 1_555
O6 H2 1_555 1_555
N1 N2 1_555 1_555
N2 H3 1_555 1_555
N3 C1 1_555 1_555
N4 H4 1_555 1_555
N5 N4 1_555 1_555
N6 C12 1_555 1_555
N7 H5 1_555 1_555
N8 N7 1_555 1_555
N9 H6 1_555 1_555
N10 N9 1_555 1_555
C1 N2 1_555 1_555
H7 C1 1_555 1_555
C2 N1 1_555 1_555
C3 N4 1_555 1_555
C4 N5 1_555 1_555
H8 C4 1_555 1_555
C5 C4 1_555 1_555
C6 C5 1_555 1_555
H9 C6 1_555 1_555
C7 C6 1_555 1_555
H10 C7 1_555 1_555
C8 O3 1_555 1_555
C9 C8 1_555 1_555
C10 C5 1_555 1_555
H11 C10 1_555 1_555
C11 O2 1_555 1_555
H12 C11 1_555 1_555
H13 C11 1_555 1_555
H14 C11 1_555 1_555
C12 N7 1_555 1_555
H15 C12 1_555 1_555
C13 N6 1_555 1_555
C14 N9 1_555 1_555
C15 N10 1_555 1_555
H16 C15 1_555 1_555
C16 C15 1_555 1_555
C17 C16 1_555 1_555
H17 C17 1_555 1_555
C18 C17 1_555 1_555
H18 C18 1_555 1_555
C19 O6 1_555 1_555
C20 C19 1_555 1_555
C21 C16 1_555 1_555
H19 C21 1_555 1_555
C22 O5 1_555 1_555
H20 C22 1_555 1_555
H21 C22 1_555 1_555
H22 C22 1_555 1_555
N3 C2 1_555 1_555
N8 C13 1_555 1_555
C2 C3 1_555 1_555
C7 C8 1_555 1_555
C9 C10 1_555 1_555
C13 C14 1_555 1_555
C18 C19 1_555 1_555
C20 C21 1_555 1_555

#END
