
#######################################################################
#
#                 Cambridge Crystallographic Data Centre
#                                CCDC 
#
#######################################################################
#
# If this CIF has been generated from an entry in the Cambridge 
# Structural Database, then it will include bibliographic, chemical, 
# crystal, experimental, refinement or atomic coordinate data resulting 
# from the CCDC's data processing and validation procedures.
#
#######################################################################

data_FEDWAP
_chemical_formula_moiety         'C25 H18 N2 O3'
_chemical_name_systematic        
'2-(quinolin-8-ylcarbamoyl)phenyl 3-phenylacrylate unknown solvate'
_symmetry_cell_setting           triclinic
_symmetry_space_group_name_H-M   'P -1'
_symmetry_Int_Tables_number      2
_space_group_name_Hall           '-P 1'
loop_
_symmetry_equiv_pos_site_id
_symmetry_equiv_pos_as_xyz
1 x,y,z
2 -x,-y,-z
_cell_length_a                   8.3306(3)
_cell_length_b                   10.9662(4)
_cell_length_c                   13.2845(5)
_cell_angle_alpha                73.973(2)
_cell_angle_beta                 86.519(2)
_cell_angle_gamma                75.983(2)
_cell_volume                     1131.68
_exptl_crystal_colour            colorless
_exptl_crystal_description       block
_cell_formula_units_Z            2
loop_
_atom_site_label
_atom_site_type_symbol
_atom_site_fract_x
_atom_site_fract_y
_atom_site_fract_z
C1 C 0.4435(4) 0.8063(3) 0.3388(3)
C2 C 0.4963(4) 0.9208(4) 0.3106(3)
H1 H 0.4957 0.9678 0.3593
C3 C 0.5502(6) 0.9655(6) 0.2096(5)
H2 H 0.5854 1.0429 0.1902
C4 C 0.5520(7) 0.8984(9) 0.1398(4)
H3 H 0.5879 0.9293 0.0719
C5 C 0.5014(5) 0.7845(7) 0.1677(3)
H4 H 0.5049 0.7387 0.1180
C6 C 0.4445(4) 0.7339(4) 0.2681(3)
C7 C 0.3946(4) 0.6082(5) 0.2855(3)
C8 C 0.2801(3) 0.4436(2) 0.4141(3)
C9 C 0.2829(4) 0.3581(3) 0.3535(3)
H5 H 0.3256 0.3751 0.2861
C10 C 0.2217(5) 0.2472(3) 0.3936(4)
H6 H 0.2235 0.1900 0.3530
C11 C 0.1577(4) 0.2218(3) 0.4944(4)
H7 H 0.1168 0.1476 0.5212
C12 C 0.1550(4) 0.3073(4) 0.5550(3)
C13 C 0.0920(6) 0.2871(5) 0.6528(7)
H8 H 0.0493 0.2139 0.6801
C14 C 0.0892(5) 0.3694(6) 0.7118(5)
H9 H 0.0453 0.3545 0.7790
C15 C 0.1577(5) 0.4832(5) 0.6664(4)
H10 H 0.1578 0.5414 0.7057
C16 C 0.2166(4) 0.4184(3) 0.5161(4)
C17 C 0.2761(3) 0.8321(3) 0.4857(2)
C18 C 0.2798(4) 0.7874(3) 0.5999(2)
H11 H 0.3617 0.7161 0.6339
C19 C 0.1667(4) 0.8482(4) 0.6553(3)
H12 H 0.0837 0.9150 0.6171
C20 C 0.1566(4) 0.8233(4) 0.7680(3)
C21 C 0.0298(6) 0.9006(5) 0.8097(3)
H13 H -0.0491 0.9639 0.7650
C22 C 0.0168(8) 0.8863(6) 0.9159(4)
H14 H -0.0702 0.9392 0.9425
C23 C 0.1327(9) 0.7941(7) 0.9821(4)
H15 H 0.1253 0.7850 1.0539
C24 C 0.2608(7) 0.7141(6) 0.9430(3)
H16 H 0.3391 0.6513 0.9885
C25 C 0.2729(5) 0.7273(5) 0.8361(3)
H17 H 0.3580 0.6724 0.8099
N1 N 0.3410(3) 0.5557(3) 0.3809(3)
H18 H 0.3446 0.5962 0.4274
N2 N 0.2182(3) 0.5048(3) 0.5729(3)
O1 O 0.1783(3) 0.9206(3) 0.43168(19)
O2 O 0.4047(2) 0.7575(2) 0.44387(15)
O3 O 0.4043(5) 0.5577(5) 0.2141(3)
loop_
_geom_bond_atom_site_label_1
_geom_bond_atom_site_label_2
_geom_bond_site_symmetry_1
_geom_bond_site_symmetry_2
C1 C2 1_555 1_555
C2 H1 1_555 1_555
C3 C2 1_555 1_555
H2 C3 1_555 1_555
C4 C3 1_555 1_555
H3 C4 1_555 1_555
C5 C4 1_555 1_555
H4 C5 1_555 1_555
C6 C1 1_555 1_555
C7 C6 1_555 1_555
C8 C9 1_555 1_555
C9 H5 1_555 1_555
C10 C9 1_555 1_555
H6 C10 1_555 1_555
C11 C10 1_555 1_555
H7 C11 1_555 1_555
C12 C11 1_555 1_555
C13 C12 1_555 1_555
H8 C13 1_555 1_555
C14 C13 1_555 1_555
H9 C14 1_555 1_555
C15 C14 1_555 1_555
H10 C15 1_555 1_555
C16 C8 1_555 1_555
C17 C18 1_555 1_555
C18 H11 1_555 1_555
C19 C18 1_555 1_555
H12 C19 1_555 1_555
C20 C19 1_555 1_555
C21 C20 1_555 1_555
H13 C21 1_555 1_555
C22 C21 1_555 1_555
H14 C22 1_555 1_555
C23 C22 1_555 1_555
H15 C23 1_555 1_555
C24 C23 1_555 1_555
H16 C24 1_555 1_555
C25 C20 1_555 1_555
H17 C25 1_555 1_555
N1 C7 1_555 1_555
H18 N1 1_555 1_555
N2 C15 1_555 1_555
O1 C17 1_555 1_555
O2 C1 1_555 1_555
O3 C7 1_555 1_555
C5 C6 1_555 1_555
C8 N1 1_555 1_555
C12 C16 1_555 1_555
C16 N2 1_555 1_555
C17 O2 1_555 1_555
C24 C25 1_555 1_555

#END
