
#######################################################################
#
#                 Cambridge Crystallographic Data Centre
#                                CCDC 
#
#######################################################################
#
# If this CIF has been generated from an entry in the Cambridge 
# Structural Database, then it will include bibliographic, chemical, 
# crystal, experimental, refinement or atomic coordinate data resulting 
# from the CCDC's data processing and validation procedures.
#
#######################################################################

data_FEFCOL
_chemical_formula_moiety         'C70 H87 N7 O15'
_chemical_name_systematic        
'26,28,40,42-tetramethoxy-5,13,21,33,35-pentakis(3-methylbutoxy)-2,9,17,24,30,38,47-heptaazaheptacyclo[37.3.1.1^4,8^.1^11,15^.1^18,22^.1^25,29^.1^32,36^]octatetraconta-1(43),4(48),5,7,11(47),12,14,18(46),19,21,25(45),26,28,32(44),33,35,39,41-octadecaene-3,10,16,23,31,37-hexone unknown solvate'
_symmetry_cell_setting           monoclinic
_symmetry_space_group_name_H-M   'P 21/c'
_symmetry_Int_Tables_number      14
_space_group_name_Hall           '-P 2ybc'
loop_
_symmetry_equiv_pos_site_id
_symmetry_equiv_pos_as_xyz
1 x,y,z
2 -x,1/2+y,1/2-z
3 -x,-y,-z
4 x,1/2-y,1/2+z
_cell_length_a                   14.0550(12)
_cell_length_b                   22.0345(17)
_cell_length_c                   26.245(2)
_cell_angle_alpha                90
_cell_angle_beta                 90.205(2)
_cell_angle_gamma                90
_cell_volume                     8127.89
_cell_formula_units_Z            4
loop_
_atom_site_label
_atom_site_type_symbol
_atom_site_fract_x
_atom_site_fract_y
_atom_site_fract_z
C1 C 0.9936(3) 0.19937(19) 0.85680(15)
C2 C 0.6307(3) 0.1791(2) 0.77945(15)
C3 C 0.9439(3) 0.16396(19) 0.77190(14)
C4 C 0.9797(3) 0.1588(2) 0.72308(15)
C5 C 0.9217(3) 0.1566(2) 0.68088(16)
H1 H 0.9483 0.1530 0.6478
C6 C 0.8240(3) 0.15953(19) 0.68730(14)
C7 C 0.7838(3) 0.16505(18) 0.73590(14)
C8 C 0.8461(3) 0.16664(18) 0.77786(15)
H2 H 0.8205 0.1696 0.8112
C9 C 1.1189(4) 0.1643(4) 0.6702(2)
H3 H 1.0944 0.2015 0.6544
H4 H 1.1013 0.1293 0.6492
H5 H 1.1883 0.1667 0.6729
C10 C 0.7964(3) 0.1520(2) 0.59718(14)
H6 H 0.8288 0.1130 0.5931
H7 H 0.8416 0.1851 0.5911
H8 H 0.7438 0.1549 0.5727
C11 C 1.0457(3) 0.18120(18) 0.90404(15)
C12 C 1.1239(3) 0.1433(2) 0.90821(16)
C13 C 1.1589(3) 0.1258(2) 0.95594(17)
H9 H 1.2147 0.1017 0.9585
C14 C 1.1107(3) 0.14407(19) 0.99974(16)
C15 C 1.0341(3) 0.18234(18) 0.99778(15)
C16 C 1.0040(3) 0.20132(18) 0.94906(15)
H10 H 0.9527 0.2293 0.9468
C17 C 1.2457(4) 0.0833(3) 0.8657(2)
H11 H 1.2336 0.0497 0.8899
H12 H 1.3031 0.1056 0.8771
C18 C 1.2602(4) 0.0584(3) 0.8124(2)
H13 H 1.2691 0.0937 0.7895
H14 H 1.3212 0.0359 0.8127
C19 C 1.1761(14) 0.0235(9) 0.7923(6)
H15 H 1.1248 0.0548 0.7900
C20 C 1.1313(16) -0.0267(7) 0.8237(6)
H16 H 1.1373 -0.0169 0.8600
H17 H 1.1638 -0.0651 0.8167
H18 H 1.0638 -0.0304 0.8147
C21 C 1.1781(15) -0.0041(7) 0.7388(5)
H19 H 1.1599 0.0268 0.7137
H20 H 1.1332 -0.0381 0.7370
H21 H 1.2424 -0.0187 0.7313
C22 C 1.2068(4) 0.0759(2) 1.05230(19)
H22 H 1.2723 0.0918 1.0486
H23 H 1.1958 0.0450 1.0255
C23 C 1.1942(5) 0.0481(3) 1.1042(2)
H24 H 1.2202 0.0775 1.1291
H25 H 1.2358 0.0119 1.1056
C24 C 1.0973(8) 0.0286(7) 1.1239(5)
H26 H 1.0536 0.0643 1.1225
C25 C 1.0985(12) 0.0045(7) 1.1778(5)
H27 H 1.1537 -0.0222 1.1824
H28 H 1.0400 -0.0185 1.1841
H29 H 1.1025 0.0384 1.2018
C26 C 1.0576(13) -0.0201(7) 1.0898(7)
H30 H 1.0572 -0.0057 1.0545
H31 H 0.9925 -0.0298 1.1003
H32 H 1.0973 -0.0565 1.0924
C27 C 0.9719(4) 0.2057(2) 1.04032(16)
C28 C 0.6101(3) 0.2062(2) 1.11636(16)
C29 C 0.9201(3) 0.1858(2) 1.12802(16)
C30 C 0.9579(3) 0.1830(2) 1.17751(16)
C31 C 0.8970(3) 0.1848(2) 1.21961(15)
H33 H 0.9223 0.1836 1.2532
C32 C 0.8008(3) 0.1882(2) 1.21210(15)
C33 C 0.7619(3) 0.1923(2) 1.16307(16)
C34 C 0.8242(3) 0.1911(2) 1.12130(16)
H34 H 0.7990 0.1941 1.0878
C35 C 1.0965(4) 0.1799(3) 1.23111(18)
H35 H 1.0781 0.1431 1.2495
H36 H 1.0740 0.2157 1.2497
H37 H 1.1660 0.1815 1.2282
C36 C 0.7697(4) 0.1791(2) 1.30178(15)
H38 H 0.8108 0.2133 1.3111
H39 H 0.8062 0.1413 1.3038
H40 H 0.7158 0.1771 1.3253
C37 C 0.5025(3) 0.20246(18) 1.12117(15)
C38 C 0.4508(3) 0.22126(18) 1.07883(15)
H41 H 0.4849 0.2346 1.0497
C39 C 0.3535(3) 0.22167(18) 1.07678(15)
C40 C 0.3040(3) 0.20076(19) 1.11988(17)
H42 H 0.2364 0.2000 1.1198
C41 C 0.3531(3) 0.1817(2) 1.16167(17)
H43 H 0.3186 0.1669 1.1902
C42 C 0.4521(3) 0.18300(19) 1.16418(15)
C43 C 0.4530(4) 0.1381(2) 1.24851(16)
H44 H 0.4238 0.0991 1.2381
H45 H 0.4021 0.1655 1.2607
C44 C 0.5248(4) 0.1279(3) 1.28924(19)
H46 H 0.5493 0.1673 1.3020
H47 H 0.5790 0.1042 1.2758
C45 C 0.4761(10) 0.0930(5) 1.3324(4)
H48 H 0.4064 0.1021 1.3312
C46 C 0.4895(9) 0.0265(4) 1.3249(4)
H49 H 0.5555 0.0156 1.3328
H50 H 0.4752 0.0160 1.2895
H51 H 0.4466 0.0043 1.3476
C47 C 0.5146(9) 0.1131(5) 1.3841(3)
H52 H 0.4624 0.1199 1.4081
H53 H 0.5521 0.1504 1.3808
H54 H 0.5555 0.0804 1.3969
C48 C 0.2278(3) 0.2783(2) 1.03418(16)
C49 C 0.2615(3) 0.2886(2) 0.84924(16)
C50 C 0.1907(3) 0.29862(19) 0.98331(15)
N1 N 0.2417(2) 0.28452(15) 0.94198(13)
C51 C 0.2072(3) 0.30405(19) 0.89724(16)
C52 C 0.1231(3) 0.33551(18) 0.89124(16)
H55 H 0.1013 0.3476 0.8585
C53 C 0.0709(3) 0.34902(19) 0.93512(17)
C54 C 0.1067(3) 0.3308(2) 0.98204(17)
H56 H 0.0740 0.3402 1.0126
C55 C -0.0766(4) 0.3863(3) 0.9688(2)
H57 H -0.0473 0.4118 0.9957
H58 H -0.0927 0.3464 0.9838
C56 C -0.1662(4) 0.4167(3) 0.9482(3)
H59 H -0.2011 0.3858 0.9281
H60 H -0.2065 0.4268 0.9779
C57 C -0.1608(8) 0.4679(6) 0.9186(4)
H61 H -0.1192 0.4603 0.8885
C58 C -0.1172(10) 0.5145(6) 0.9521(5)
H62 H -0.1519 0.5162 0.9845
H63 H -0.1205 0.5542 0.9354
H64 H -0.0506 0.5040 0.9587
C59 C -0.2511(6) 0.4964(5) 0.9022(4)
H65 H -0.2757 0.4753 0.8721
H66 H -0.2397 0.5391 0.8938
H67 H -0.2976 0.4938 0.9298
C60 C 0.3784(3) 0.22160(19) 0.81150(15)
C61 C 0.3293(3) 0.2057(2) 0.76770(16)
H68 H 0.2621 0.2102 0.7665
C62 C 0.3764(3) 0.1835(2) 0.72611(17)
H69 H 0.3413 0.1737 0.6962
C63 C 0.4728(3) 0.17509(18) 0.72669(14)
C64 C 0.5251(3) 0.18737(19) 0.77190(14)
C65 C 0.4740(3) 0.21041(19) 0.81367(14)
H70 H 0.5072 0.2185 0.8445
C66 C 0.4702(3) 0.13497(19) 0.64057(14)
H71 H 0.4277 0.1675 0.6279
H72 H 0.4312 0.0990 0.6490
C67 C 0.5437(3) 0.11920(19) 0.60101(14)
H73 H 0.5949 0.0953 0.6174
H74 H 0.5723 0.1572 0.5880
C68 C 0.5039(3) 0.0831(2) 0.55598(16)
H75 H 0.4760 0.0446 0.5696
C69 C 0.4250(4) 0.1171(2) 0.52737(17)
H76 H 0.4515 0.1538 0.5118
H77 H 0.3746 0.1284 0.5513
H78 H 0.3985 0.0909 0.5007
C70 C 0.5829(3) 0.0662(2) 0.52014(18)
H79 H 0.6100 0.1032 0.5052
H80 H 0.5577 0.0403 0.4929
H81 H 0.6326 0.0443 0.5389
N2 N 1.0038(3) 0.16379(15) 0.81442(12)
H82 H 1.0524 0.1386 0.8139
N3 N 0.6845(2) 0.16943(15) 0.73823(12)
H83 H 0.6538 0.1653 0.7092
N4 N 0.9838(3) 0.18025(18) 1.08686(13)
H84 H 1.0355 0.1585 1.0918
N5 N 0.6625(3) 0.19428(17) 1.15823(13)
H85 H 0.6302 0.1868 1.1862
N6 N 0.3051(3) 0.24176(15) 1.03292(13)
H86 H 0.3263 0.2299 1.0030
N7 N 0.3296(3) 0.24563(16) 0.85417(12)
H87 H 0.3441 0.2322 0.8848
O1 O 1.0781(2) 0.15755(17) 0.72077(11)
O2 O 0.7597(2) 0.15677(14) 0.64830(10)
O3 O 0.6626(2) 0.1799(2) 0.82363(12)
O4 O 0.9373(2) 0.24187(14) 0.85667(11)
O5 O 1.1646(2) 0.12372(14) 0.86371(11)
O6 O 1.1388(2) 0.12433(14) 1.04744(11)
O7 O 0.9120(3) 0.24508(15) 1.03169(11)
O8 O 0.6456(2) 0.22056(15) 1.07526(11)
O9 O 1.0543(2) 0.17910(17) 1.18047(11)
O10 O 0.7348(2) 0.18728(14) 1.25034(10)
O11 O 0.5027(2) 0.16521(14) 1.20638(11)
O12 O 0.1895(3) 0.29449(16) 1.07346(12)
O13 O 0.2424(2) 0.31412(15) 0.80942(11)
O14 O -0.0129(2) 0.37868(15) 0.92813(14)
O15 O 0.5235(2) 0.15555(14) 0.68535(10)
C71? C 1.1914(17) 0.0199(10) 0.7889(7)
H88? H 1.1279 0.0404 0.7883
C72? C 1.2284(17) 0.0120(9) 0.7345(6)
H89? H 1.2554 0.0504 0.7226
H90? H 1.1758 0.0000 0.7121
H91? H 1.2776 -0.0195 0.7341
C73? C 1.1862(19) -0.0378(8) 0.8205(7)
H92? H 1.2411 -0.0636 0.8128
H93? H 1.1274 -0.0596 0.8123
H94? H 1.1868 -0.0273 0.8568
C74? C 1.1208(17) 0.0066(9) 1.1045(7)
H95? H 1.0617 0.0319 1.1047
C75? C 1.1022(15) -0.0413(9) 1.0648(8)
H96? H 1.0757 -0.0200 1.0362
H97? H 1.0542 -0.0665 1.0799
H98? H 1.1542 -0.0662 1.0536
C76? C 1.1195(16) -0.0265(10) 1.1551(8)
H99? H 1.1416 -0.0682 1.1503
H100? H 1.0545 -0.0269 1.1685
H101? H 1.1616 -0.0056 1.1793
C77? C 0.5128(15) 0.0800(14) 1.3348(8)
H102? H 0.4810 0.0432 1.3203
C78? C 0.6018(13) 0.0594(9) 1.3601(7)
H103? H 0.6262 0.0919 1.3820
H104? H 0.6493 0.0495 1.3341
H105? H 0.5886 0.0233 1.3807
C79? C 0.4426(16) 0.1109(10) 1.3678(8)
H106? H 0.4628 0.1529 1.3737
H107? H 0.4385 0.0897 1.4006
H108? H 0.3801 0.1106 1.3512
C80? C -0.1396(13) 0.4820(5) 0.9355(12)
H109? H -0.1606 0.4759 0.8995
C81? C -0.0576(12) 0.5217(8) 0.9177(8)
H110? H -0.0704 0.5359 0.8830
H111? H 0.0014 0.4980 0.9181
H112? H -0.0510 0.5566 0.9406
C82? C -0.2137(11) 0.5304(7) 0.9425(7)
H113? H -0.1951 0.5668 0.9236
H114? H -0.2193 0.5402 0.9788
H115? H -0.2751 0.5157 0.9297
loop_
_geom_bond_atom_site_label_1
_geom_bond_atom_site_label_2
_geom_bond_site_symmetry_1
_geom_bond_site_symmetry_2
C1 C11 1_555 1_555
C2 C64 1_555 1_555
C3 C4 1_555 1_555
C4 C5 1_555 1_555
C5 H1 1_555 1_555
C6 C5 1_555 1_555
C7 C6 1_555 1_555
C8 C3 1_555 1_555
H2 C8 1_555 1_555
C9 H3 1_555 1_555
H4 C9 1_555 1_555
H5 C9 1_555 1_555
C10 H6 1_555 1_555
H7 C10 1_555 1_555
H8 C10 1_555 1_555
C11 C12 1_555 1_555
C12 C13 1_555 1_555
C13 H9 1_555 1_555
C14 C13 1_555 1_555
C15 C14 1_555 1_555
C16 C11 1_555 1_555
H10 C16 1_555 1_555
C17 H11 1_555 1_555
H12 C17 1_555 1_555
C18 C17 1_555 1_555
H13 C18 1_555 1_555
H14 C18 1_555 1_555
C19 C18 1_555 1_555
H15 C19 1_555 1_555
C20 C19 1_555 1_555
H16 C20 1_555 1_555
H17 C20 1_555 1_555
H18 C20 1_555 1_555
C21 C19 1_555 1_555
H19 C21 1_555 1_555
H20 C21 1_555 1_555
H21 C21 1_555 1_555
C22 H22 1_555 1_555
H23 C22 1_555 1_555
C23 C22 1_555 1_555
H24 C23 1_555 1_555
H25 C23 1_555 1_555
C24 C23 1_555 1_555
H26 C24 1_555 1_555
C25 C24 1_555 1_555
H27 C25 1_555 1_555
H28 C25 1_555 1_555
H29 C25 1_555 1_555
C26 C24 1_555 1_555
H30 C26 1_555 1_555
H31 C26 1_555 1_555
H32 C26 1_555 1_555
C27 C15 1_555 1_555
C28 C37 1_555 1_555
C29 C30 1_555 1_555
C30 C31 1_555 1_555
C31 H33 1_555 1_555
C32 C31 1_555 1_555
C33 C32 1_555 1_555
C34 C29 1_555 1_555
H34 C34 1_555 1_555
C35 H35 1_555 1_555
H36 C35 1_555 1_555
H37 C35 1_555 1_555
C36 H38 1_555 1_555
H39 C36 1_555 1_555
H40 C36 1_555 1_555
C37 C38 1_555 1_555
C38 H41 1_555 1_555
C39 C38 1_555 1_555
C40 C39 1_555 1_555
H42 C40 1_555 1_555
C41 C40 1_555 1_555
H43 C41 1_555 1_555
C42 C37 1_555 1_555
C43 H44 1_555 1_555
H45 C43 1_555 1_555
C44 C43 1_555 1_555
H46 C44 1_555 1_555
H47 C44 1_555 1_555
C45 C44 1_555 1_555
H48 C45 1_555 1_555
C46 C45 1_555 1_555
H49 C46 1_555 1_555
H50 C46 1_555 1_555
H51 C46 1_555 1_555
C47 C45 1_555 1_555
H52 C47 1_555 1_555
H53 C47 1_555 1_555
H54 C47 1_555 1_555
C48 C50 1_555 1_555
C49 C51 1_555 1_555
C50 N1 1_555 1_555
N1 C51 1_555 1_555
C51 C52 1_555 1_555
C52 H55 1_555 1_555
C53 C52 1_555 1_555
C54 C50 1_555 1_555
H56 C54 1_555 1_555
C55 H57 1_555 1_555
H58 C55 1_555 1_555
C56 C55 1_555 1_555
H59 C56 1_555 1_555
H60 C56 1_555 1_555
C57 C56 1_555 1_555
H61 C57 1_555 1_555
C58 C57 1_555 1_555
H62 C58 1_555 1_555
H63 C58 1_555 1_555
H64 C58 1_555 1_555
C59 C57 1_555 1_555
H65 C59 1_555 1_555
H66 C59 1_555 1_555
H67 C59 1_555 1_555
C60 C61 1_555 1_555
C61 H68 1_555 1_555
C62 C61 1_555 1_555
H69 C62 1_555 1_555
C63 C62 1_555 1_555
C64 C63 1_555 1_555
C65 C60 1_555 1_555
H70 C65 1_555 1_555
C66 H71 1_555 1_555
H72 C66 1_555 1_555
C67 C66 1_555 1_555
H73 C67 1_555 1_555
H74 C67 1_555 1_555
C68 C67 1_555 1_555
H75 C68 1_555 1_555
C69 C68 1_555 1_555
H76 C69 1_555 1_555
H77 C69 1_555 1_555
H78 C69 1_555 1_555
C70 C68 1_555 1_555
H79 C70 1_555 1_555
H80 C70 1_555 1_555
H81 C70 1_555 1_555
N2 C1 1_555 1_555
H82 N2 1_555 1_555
N3 C2 1_555 1_555
H83 N3 1_555 1_555
N4 C27 1_555 1_555
H84 N4 1_555 1_555
N5 C28 1_555 1_555
H85 N5 1_555 1_555
N6 C39 1_555 1_555
H86 N6 1_555 1_555
N7 C49 1_555 1_555
H87 N7 1_555 1_555
O1 C4 1_555 1_555
O2 C6 1_555 1_555
O3 C2 1_555 1_555
O4 C1 1_555 1_555
O5 C12 1_555 1_555
O6 C14 1_555 1_555
O7 C27 1_555 1_555
O8 C28 1_555 1_555
O9 C30 1_555 1_555
O10 C32 1_555 1_555
O11 C42 1_555 1_555
O12 C48 1_555 1_555
O13 C49 1_555 1_555
O14 C53 1_555 1_555
O15 C63 1_555 1_555
C3 N2 1_555 1_555
C7 C8 1_555 1_555
C7 N3 1_555 1_555
C9 O1 1_555 1_555
C10 O2 1_555 1_555
C15 C16 1_555 1_555
C17 O5 1_555 1_555
C22 O6 1_555 1_555
C29 N4 1_555 1_555
C33 C34 1_555 1_555
C33 N5 1_555 1_555
C35 O9 1_555 1_555
C36 O10 1_555 1_555
C41 C42 1_555 1_555
C43 O11 1_555 1_555
C48 N6 1_555 1_555
C53 C54 1_555 1_555
C55 O14 1_555 1_555
C60 N7 1_555 1_555
C64 C65 1_555 1_555
C66 O15 1_555 1_555

#END
