
#######################################################################
#
#                 Cambridge Crystallographic Data Centre
#                                CCDC 
#
#######################################################################
#
# If this CIF has been generated from an entry in the Cambridge 
# Structural Database, then it will include bibliographic, chemical, 
# crystal, experimental, refinement or atomic coordinate data resulting 
# from the CCDC's data processing and validation procedures.
#
#######################################################################

data_FEFDEC
_chemical_formula_moiety         'C13 H16 N6 O1'
_chemical_name_systematic        
7-amino-5-benzyl-8,8-dimethyl-7,8-dihydrotetrazolo[1,5-a]pyrazin-6(5H)-one
_symmetry_cell_setting           monoclinic
_symmetry_space_group_name_H-M   'I 2/a'
_symmetry_Int_Tables_number      15
_space_group_name_Hall           '-I 2ya'
loop_
_symmetry_equiv_pos_site_id
_symmetry_equiv_pos_as_xyz
1 x,y,z
2 1/2-x,y,-z
3 1/2+x,1/2+y,1/2+z
4 -x,1/2+y,1/2-z
5 -x,-y,-z
6 1/2+x,-y,z
7 1/2-x,1/2-y,1/2-z
8 x,1/2-y,1/2+z
_cell_length_a                   14.3819(6)
_cell_length_b                   8.1017(3)
_cell_length_c                   23.2784(9)
_cell_angle_alpha                90
_cell_angle_beta                 91.397(4)
_cell_angle_gamma                90
_cell_volume                     2711.54
_exptl_crystal_colour            white
_exptl_crystal_description       prism
_cell_formula_units_Z            8
loop_
_atom_site_label
_atom_site_type_symbol
_atom_site_fract_x
_atom_site_fract_y
_atom_site_fract_z
O1 O -0.02195(5) 0.13618(10) 0.77933(3)
N1 N 0.20205(6) 0.29483(11) 0.81806(4)
N2 N 0.05179(7) -0.13902(11) 0.82762(5)
N3 N 0.26504(7) 0.41860(12) 0.81403(4)
N4 N 0.34353(7) 0.35706(13) 0.83233(5)
C1 C 0.24471(7) 0.16126(13) 0.83897(4)
N5 N 0.10112(6) 0.01263(11) 0.82373(4)
C2 C 0.24944(8) -0.13628(14) 0.81832(5)
H1 H 0.2217 -0.2435 0.8272
H2 H 0.3147 -0.1354 0.8314
H3 H 0.2458 -0.1176 0.7767
C3 C 0.19644(7) 0.00067(13) 0.84898(4)
C4 C 0.10417(7) 0.31323(13) 0.80174(5)
H4 H 0.1004 0.3609 0.7621
N6 N 0.33347(7) 0.19562(12) 0.84831(4)
C5 C 0.05738(7) 0.14437(13) 0.80014(4)
C6 C -0.01918(9) 0.26616(17) 0.92076(5)
H5 H -0.0658 0.2328 0.8936
C7 C 0.05419(8) 0.43199(13) 0.84244(5)
H6 H 0.086 0.5403 0.8419
H7 H -0.0104 0.4488 0.8279
C8 C 0.05146(8) 0.37149(14) 0.90372(5)
C9 C 0.11846(9) 0.41858(16) 0.94455(6)
H8 H 0.1674 0.4903 0.9339
C10 C 0.11471(11) 0.36185(19) 1.00085(6)
H9 H 0.1609 0.3954 1.0283
C11 C -0.02233(10) 0.20925(19) 0.97686(6)
H10 H -0.0707 0.1367 0.9877
C12 C 0.19266(8) -0.03273(15) 0.91371(5)
H11 H 0.1591 0.0571 0.9323
H12 H 0.2561 -0.0393 0.9299
H13 H 0.1604 -0.1374 0.9202
C13 C 0.04457(11) 0.2576(2) 1.01698(6)
H14 H 0.0421 0.219 1.0555
H15 H 0.0501(10) -0.1861(19) 0.7906(7)
H16 H -0.0073(11) -0.1127(18) 0.8367(6)
loop_
_geom_bond_atom_site_label_1
_geom_bond_atom_site_label_2
_geom_bond_site_symmetry_1
_geom_bond_site_symmetry_2
O1 C5 1_555 1_555
N1 N3 1_555 1_555
N2 N5 1_555 1_555
N3 N4 1_555 1_555
N4 N6 1_555 1_555
C1 N1 1_555 1_555
N5 C3 1_555 1_555
C2 H1 1_555 1_555
H2 C2 1_555 1_555
H3 C2 1_555 1_555
C3 C1 1_555 1_555
C4 N1 1_555 1_555
H4 C4 1_555 1_555
N6 C1 1_555 1_555
C5 N5 1_555 1_555
C6 H5 1_555 1_555
C7 C4 1_555 1_555
H6 C7 1_555 1_555
H7 C7 1_555 1_555
C8 C6 1_555 1_555
C9 C8 1_555 1_555
H8 C9 1_555 1_555
C10 C9 1_555 1_555
H9 C10 1_555 1_555
C11 C6 1_555 1_555
H10 C11 1_555 1_555
C12 C3 1_555 1_555
H11 C12 1_555 1_555
H12 C12 1_555 1_555
H13 C12 1_555 1_555
C13 C10 1_555 1_555
H14 C13 1_555 1_555
H15 N2 1_555 1_555
H16 N2 1_555 1_555
C2 C3 1_555 1_555
C4 C5 1_555 1_555
C7 C8 1_555 1_555
C11 C13 1_555 1_555

#END
