
#######################################################################
#
#                 Cambridge Crystallographic Data Centre
#                                CCDC 
#
#######################################################################
#
# If this CIF has been generated from an entry in the Cambridge 
# Structural Database, then it will include bibliographic, chemical, 
# crystal, experimental, refinement or atomic coordinate data resulting 
# from the CCDC's data processing and validation procedures.
#
#######################################################################

data_FEFFUT
_chemical_formula_moiety         'C24 H22 S2'
_chemical_name_systematic        
2,2'-(Ethane-1,2-diylbis(sulfanediylmethylene))dinaphthalene
_symmetry_cell_setting           monoclinic
_symmetry_space_group_name_H-M   'P 21/c'
_symmetry_Int_Tables_number      14
_space_group_name_Hall           '-P 2ybc'
loop_
_symmetry_equiv_pos_site_id
_symmetry_equiv_pos_as_xyz
1 x,y,z
2 -x,1/2+y,1/2-z
3 -x,-y,-z
4 x,1/2-y,1/2+z
_cell_length_a                   17.962(5)
_cell_length_b                   5.784(5)
_cell_length_c                   9.076(5)
_cell_angle_alpha                90
_cell_angle_beta                 97.512(5)
_cell_angle_gamma                90
_cell_volume                     934.833
_cell_formula_units_Z            2
loop_
_atom_site_label
_atom_site_type_symbol
_atom_site_fract_x
_atom_site_fract_y
_atom_site_fract_z
C1 C 0.19855(15) 0.1038(5) 0.3969(3)
C2 C 0.26542(15) 0.2055(5) 0.3761(3)
H1 H 0.2780 0.3478 0.4202
C3 C 0.31589(15) 0.0993(5) 0.2889(3)
C4 C 0.38492(16) 0.2002(5) 0.2657(3)
H2 H 0.3992 0.3403 0.3112
C5 C 0.43103(17) 0.0960(6) 0.1780(3)
H3 H 0.4759 0.1666 0.1630
C6 C 0.41102(16) -0.1179(5) 0.1101(3)
H4 H 0.4427 -0.1881 0.0502
C7 C 0.34541(16) -0.2222(5) 0.1318(3)
H5 H 0.3328 -0.3636 0.0865
C8 C 0.29610(15) -0.1193(5) 0.2222(3)
C9 C 0.22758(16) -0.2231(5) 0.2478(3)
H6 H 0.2141 -0.3658 0.2051
C10 C 0.18105(15) -0.1173(5) 0.3340(3)
H7 H 0.1371 -0.1912 0.3519
C11 C 0.14271(15) 0.2227(5) 0.4794(3)
H8 H 0.1658 0.3541 0.5338
H9 H 0.1245 0.1171 0.5496
S1 S 0.06507(4) 0.31892(13) 0.34296(7)
C12 C -0.00675(15) 0.3859(5) 0.4591(3)
H10 H -0.0551 0.3917 0.3976
H11 H -0.0086 0.2629 0.5311
C1B C -0.19855(15) 0.8962(5) 0.6031(3)
C2B C -0.26542(15) 0.7945(5) 0.6239(3)
H1B H -0.2780 0.6522 0.5798
C3B C -0.31589(15) 0.9007(5) 0.7111(3)
C4B C -0.38492(16) 0.7998(5) 0.7343(3)
H2B H -0.3992 0.6597 0.6888
C5B C -0.43103(17) 0.9040(6) 0.8220(3)
H3B H -0.4759 0.8334 0.8370
C6B C -0.41102(16) 1.1179(5) 0.8899(3)
H4B H -0.4427 1.1881 0.9498
C7B C -0.34541(16) 1.2222(5) 0.8682(3)
H5B H -0.3328 1.3636 0.9135
C8B C -0.29610(15) 1.1193(5) 0.7778(3)
C9B C -0.22758(16) 1.2231(5) 0.7522(3)
H6B H -0.2141 1.3658 0.7949
C10B C -0.18105(15) 1.1173(5) 0.6660(3)
H7B H -0.1371 1.1912 0.6481
C11B C -0.14271(15) 0.7773(5) 0.5206(3)
H8B H -0.1658 0.6459 0.4662
H9B H -0.1245 0.8829 0.4504
S1B S -0.06507(4) 0.68108(13) 0.65704(7)
C12B C 0.00675(15) 0.6141(5) 0.5409(3)
H10B H 0.0551 0.6083 0.6024
H11B H 0.0086 0.7371 0.4689
loop_
_geom_bond_atom_site_label_1
_geom_bond_atom_site_label_2
_geom_bond_site_symmetry_1
_geom_bond_site_symmetry_2
C1 C2 1_555 1_555
C2 H1 1_555 1_555
C3 C2 1_555 1_555
C4 C3 1_555 1_555
H2 C4 1_555 1_555
C5 C4 1_555 1_555
H3 C5 1_555 1_555
C6 C5 1_555 1_555
H4 C6 1_555 1_555
C7 C6 1_555 1_555
H5 C7 1_555 1_555
C8 C3 1_555 1_555
C9 C8 1_555 1_555
H6 C9 1_555 1_555
C10 C1 1_555 1_555
H7 C10 1_555 1_555
C11 C1 1_555 1_555
H8 C11 1_555 1_555
H9 C11 1_555 1_555
S1 C11 1_555 1_555
C12 S1 1_555 1_555
H10 C12 1_555 1_555
H11 C12 1_555 1_555
C1B C2B 1_555 1_555
C2B H1B 1_555 1_555
C3B C2B 1_555 1_555
C4B C3B 1_555 1_555
H2B C4B 1_555 1_555
C5B C4B 1_555 1_555
H3B C5B 1_555 1_555
C6B C5B 1_555 1_555
H4B C6B 1_555 1_555
C7B C6B 1_555 1_555
H5B C7B 1_555 1_555
C8B C3B 1_555 1_555
C9B C8B 1_555 1_555
H6B C9B 1_555 1_555
C10B C1B 1_555 1_555
H7B C10B 1_555 1_555
C11B C1B 1_555 1_555
H8B C11B 1_555 1_555
H9B C11B 1_555 1_555
S1B C11B 1_555 1_555
C12B C12 1_555 1_555
H10B C12B 1_555 1_555
H11B C12B 1_555 1_555
C7 C8 1_555 1_555
C9 C10 1_555 1_555
C7B C8B 1_555 1_555
C9B C10B 1_555 1_555
S1B C12B 1_555 1_555

#END
