
#######################################################################
#
#                 Cambridge Crystallographic Data Centre
#                                CCDC 
#
#######################################################################
#
# If this CIF has been generated from an entry in the Cambridge 
# Structural Database, then it will include bibliographic, chemical, 
# crystal, experimental, refinement or atomic coordinate data resulting 
# from the CCDC's data processing and validation procedures.
#
#######################################################################

data_FEFJAE
_chemical_formula_moiety         'C4 N6 O10 2-,2(H5 N2 1+),H2 O1'
_chemical_name_systematic        
'bis(hydrazinium) (4-(dinitromethanidyl)-5-oxo-1,2,5-oxadiazol-3-yl)(dinitro)methanide monohydrate'
_symmetry_cell_setting           monoclinic
_symmetry_space_group_name_H-M   'P 21/c'
_symmetry_Int_Tables_number      14
_space_group_name_Hall           '-P 2ybc'
loop_
_symmetry_equiv_pos_site_id
_symmetry_equiv_pos_as_xyz
1 x,y,z
2 -x,1/2+y,1/2-z
3 -x,-y,-z
4 x,1/2-y,1/2+z
_cell_length_a                   8.705(6)
_cell_length_b                   15.244(10)
_cell_length_c                   10.548(7)
_cell_angle_alpha                90
_cell_angle_beta                 100.190(11)
_cell_angle_gamma                90
_cell_volume                     1377.63
_exptl_crystal_colour            colorless
_exptl_crystal_description       block
_cell_formula_units_Z            4
loop_
_atom_site_label
_atom_site_type_symbol
_atom_site_fract_x
_atom_site_fract_y
_atom_site_fract_z
C1 C 0.1380(3) 0.34674(17) 0.8330(3)
C2 C 0.1051(3) 0.34212(16) 0.9634(2)
C3 C 0.1762(3) 0.39113(16) 1.0735(2)
C4 C 0.2918(3) 0.46110(16) 1.0883(2)
N1 N 0.2769(3) 0.31202(14) 0.8119(2)
N2 N 0.0329(3) 0.38808(14) 0.7367(2)
N3 N 0.2691(3) 0.53114(14) 1.0037(2)
N4 N 0.4201(3) 0.45656(15) 1.1871(2)
N5 N 0.0017(3) 0.28632(16) 0.9930(2)
N6 N 0.1112(3) 0.36305(15) 1.1698(2)
O1 O 0.3142(3) 0.30931(14) 0.7032(2)
O2 O 0.1229(3) 0.37958(15) 1.28490(19)
O3 O 0.3649(2) 0.27964(14) 0.9077(2)
O4 O 0.0011(2) 0.29565(13) 1.1226(2)
O5 O 0.0666(3) 0.40785(15) 0.6310(2)
O6 O -0.0984(2) 0.40609(14) 0.7636(2)
O7 O 0.1538(2) 0.52665(13) 0.9140(2)
O8 O 0.3585(3) 0.59548(14) 1.0138(2)
O9 O 0.5110(3) 0.51912(17) 1.2152(2)
O10 O 0.4396(2) 0.38534(14) 1.24681(19)
O11 O 0.1946(3) 0.61585(19) 0.6641(3)
H1 H 0.094(2) 0.620(3) 0.648(4)
H2 H 0.219(5) 0.580(3) 0.725(3)
N7 N 0.6427(3) 0.57968(18) 0.4961(2)
H3 H 0.7042 0.5989 0.4430
H4 H 0.6562 0.6129 0.5666
H5 H 0.5435 0.5826 0.4569
N8 N 0.6818(4) 0.4902(2) 0.5313(3)
H6 H 0.697(5) 0.440(2) 0.481(4)
H7 H 0.766(3) 0.493(3) 0.585(4)
N9 N 0.6244(4) 0.2715(2) 0.6292(3)
H8 H 0.565(5) 0.234(2) 0.600(4)
H9 H 0.677(5) 0.300(3) 0.593(4)
N10 N 0.6507(3) 0.27409(18) 0.7658(3)
H10 H 0.5598 0.2788 0.7927
H11 H 0.7105 0.3200 0.7933
H12 H 0.6984 0.2250 0.7970
loop_
_geom_bond_atom_site_label_1
_geom_bond_atom_site_label_2
_geom_bond_site_symmetry_1
_geom_bond_site_symmetry_2
C1 C2 1_555 1_555
C2 C3 1_555 1_555
C3 C4 1_555 1_555
C4 N3 1_555 1_555
N1 C1 1_555 1_555
N2 C1 1_555 1_555
N3 O7 1_555 1_555
N4 C4 1_555 1_555
N5 C2 1_555 1_555
N6 C3 1_555 1_555
O1 N1 1_555 1_555
O2 N6 1_555 1_555
O3 N1 1_555 1_555
O4 N5 1_555 1_555
O5 N2 1_555 1_555
O6 N2 1_555 1_555
O8 N3 1_555 1_555
O9 N4 1_555 1_555
O10 N4 1_555 1_555
O11 H1 1_555 1_555
H2 O11 1_555 1_555
N7 H3 1_555 1_555
H4 N7 1_555 1_555
H5 N7 1_555 1_555
N8 N7 1_555 1_555
H6 N8 1_555 1_555
H7 N8 1_555 1_555
N9 H8 1_555 1_555
H9 N9 1_555 1_555
N10 N9 1_555 1_555
H10 N10 1_555 1_555
H11 N10 1_555 1_555
H12 N10 1_555 1_555
N6 O4 1_555 1_555

#END
