
#######################################################################
#
#                 Cambridge Crystallographic Data Centre
#                                CCDC 
#
#######################################################################
#
# If this CIF has been generated from an entry in the Cambridge 
# Structural Database, then it will include bibliographic, chemical, 
# crystal, experimental, refinement or atomic coordinate data resulting 
# from the CCDC's data processing and validation procedures.
#
#######################################################################

data_FEFJUY
_chemical_formula_moiety         'C26 H29 N3 O2'
_chemical_name_systematic        
5-(4-(1,3-benzoxazol-2-yl)benzylidene)-2-methyl-3-octyl-3,5-dihydro-4H-imidazol-4-one
_symmetry_cell_setting           orthorhombic
_symmetry_space_group_name_H-M   'P b c a'
_symmetry_Int_Tables_number      61
_space_group_name_Hall           '-P 2ac 2ab'
loop_
_symmetry_equiv_pos_site_id
_symmetry_equiv_pos_as_xyz
1 x,y,z
2 1/2-x,-y,1/2+z
3 -x,1/2+y,1/2-z
4 1/2+x,1/2-y,-z
5 -x,-y,-z
6 1/2+x,y,1/2-z
7 x,1/2-y,1/2+z
8 1/2-x,1/2+y,z
_cell_length_a                   8.3045(4)
_cell_length_b                   22.2219(12)
_cell_length_c                   49.260(3)
_cell_angle_alpha                90
_cell_angle_beta                 90
_cell_angle_gamma                90
_cell_volume                     9090.53
_exptl_crystal_colour            orange
_exptl_crystal_description       block
_cell_formula_units_Z            16
loop_
_atom_site_label
_atom_site_type_symbol
_atom_site_fract_x
_atom_site_fract_y
_atom_site_fract_z
C1 C 0.2142(3) 0.60254(12) 0.40280(5)
O1 O 0.2561(3) 0.64515(8) 0.38464(4)
N1 N 0.1102(3) 0.56332(10) 0.39408(4)
O2 O 0.6651(2) 0.60543(8) 0.56310(4)
N2 N 0.3366(2) 0.52636(8) 0.53388(4)
N3 N 0.4690(2) 0.53489(9) 0.57386(4)
C2 C 0.1676(3) 0.63103(12) 0.36162(5)
C3 C 0.0780(3) 0.58090(13) 0.36740(5)
C4 C -0.0236(4) 0.55643(17) 0.34804(7)
H1 H -0.0866 0.5217 0.3517
C5 C -0.0292(4) 0.58489(19) 0.32313(7)
H2 H -0.0973 0.5693 0.3093
C6 C 0.0611(5) 0.63503(17) 0.31787(6)
H3 H 0.0534 0.6534 0.3005
C7 C 0.1628(4) 0.65964(15) 0.33693(6)
H4 H 0.2259 0.6944 0.3332
C8 C 0.2859(3) 0.60253(11) 0.42973(5)
C9 C 0.2408(3) 0.55876(11) 0.44849(5)
H5 H 0.1630 0.5293 0.4436
C10 C 0.3081(3) 0.55776(10) 0.47413(5)
H6 H 0.2765 0.5276 0.4867
C11 C 0.4224(3) 0.60072(10) 0.48176(5)
C12 C 0.4697(3) 0.64356(11) 0.46256(5)
H7 H 0.5501 0.6722 0.4671
C13 C 0.4010(3) 0.64477(11) 0.43699(5)
H8 H 0.4328 0.6747 0.4243
C14 C 0.4973(3) 0.60190(10) 0.50847(5)
H9 H 0.5837 0.6295 0.5105
C15 C 0.4607(3) 0.56905(10) 0.53074(5)
C16 C 0.5487(3) 0.57480(11) 0.55670(5)
C17 C 0.3463(3) 0.50818(10) 0.55891(5)
C18 C 0.2361(4) 0.46388(12) 0.57148(5)
H10 H 0.1560 0.4850 0.5825
H11 H 0.2980 0.4364 0.5830
H12 H 0.1814 0.4409 0.5572
C19 C 0.5197(3) 0.52076(12) 0.60141(5)
H13 H 0.6338 0.5327 0.6036
H14 H 0.5131 0.4767 0.6041
C20 C 0.4209(4) 0.55131(12) 0.62325(5)
H15 H 0.3053 0.5430 0.6201
H16 H 0.4373 0.5954 0.6222
C21 C 0.4677(4) 0.52948(16) 0.65131(6)
H17 H 0.4500 0.4855 0.6523
H18 H 0.5841 0.5369 0.6541
C22 C 0.3750(4) 0.55938(15) 0.67385(6)
H19 H 0.2584 0.5558 0.6700
H20 H 0.4023 0.6028 0.6742
C23 C 0.4099(5) 0.53242(18) 0.70167(6)
H21 H 0.3898 0.4885 0.7010
H22 H 0.5250 0.5386 0.7061
C24 C 0.3089(6) 0.55959(19) 0.72367(7)
H23 H 0.1941 0.5553 0.7186
H24 H 0.3329 0.6032 0.7247
C25 C 0.3333(6) 0.5324(2) 0.75154(8)
H25 H 0.4486 0.5363 0.7564
H26 H 0.2712 0.5566 0.7648
C26 C 0.2864(6) 0.4685(2) 0.75475(9)
H27 H 0.1739 0.4633 0.7493
H28 H 0.2989 0.4566 0.7738
H29 H 0.3556 0.4433 0.7433
O4 O 0.1279(3) 0.82203(9) 0.66821(4)
N5 N 0.2583(3) 0.73985(11) 0.68255(4)
O5 O 0.7040(2) 0.73451(8) 0.50560(4)
N6 N 0.4370(2) 0.84411(8) 0.53246(4)
N7 N 0.5770(2) 0.82392(8) 0.49405(4)
C27 C 0.2312(4) 0.77703(14) 0.66253(6)
C28 C 0.0835(3) 0.81220(13) 0.69509(5)
C29 C 0.1637(3) 0.76126(14) 0.70381(5)
C30 C 0.1408(4) 0.73942(15) 0.72986(6)
H30 H 0.1948 0.7044 0.7361
C31 C 0.0363(4) 0.77078(15) 0.74632(6)
H31 H 0.0175 0.7569 0.7643
C32 C -0.0419(4) 0.82191(15) 0.73740(6)
H32 H -0.1120 0.8425 0.7495
C33 C -0.0212(4) 0.84428(14) 0.71128(6)
H33 H -0.0755 0.8793 0.7050
C34 C 0.3038(3) 0.77257(12) 0.63564(5)
C35 C 0.4161(3) 0.72771(13) 0.63063(5)
H34 H 0.4443 0.7003 0.6446
C36 C 0.4870(3) 0.72268(12) 0.60549(5)
H35 H 0.5640 0.6918 0.6024
C37 C 0.4481(3) 0.76200(10) 0.58434(5)
C38 C 0.3336(3) 0.80666(11) 0.58964(5)
H36 H 0.3040 0.8338 0.5756
C39 C 0.2628(3) 0.81197(12) 0.61487(5)
H37 H 0.1857 0.8427 0.6181
C40 C 0.5281(3) 0.75470(10) 0.55831(5)
H38 H 0.5943 0.7200 0.5567
C41 C 0.5215(3) 0.79018(10) 0.53619(5)
C42 C 0.6145(3) 0.77647(10) 0.51106(5)
C43 C 0.4728(3) 0.86179(10) 0.50805(5)
C44 C 0.4161(3) 0.91821(11) 0.49524(5)
H39 H 0.3493 0.9406 0.5082
H40 H 0.3524 0.9086 0.4791
H41 H 0.5091 0.9428 0.4900
C45 C 0.6385(3) 0.83289(11) 0.46671(5)
H42 H 0.7409 0.8105 0.4648
H43 H 0.6627 0.8762 0.4642
C46 C 0.5244(3) 0.81291(11) 0.44442(5)
H44 H 0.5321 0.7687 0.4422
H45 H 0.4125 0.8227 0.4498
C47 C 0.5619(3) 0.84302(13) 0.41752(5)
H46 H 0.5494 0.8871 0.4196
H47 H 0.6755 0.8349 0.4127
C48 C 0.4546(3) 0.82156(14) 0.39485(5)
H48 H 0.3412 0.8251 0.4008
H49 H 0.4765 0.7783 0.3917
C49 C 0.4733(4) 0.85490(15) 0.36809(5)
H50 H 0.5870 0.8527 0.3621
H51 H 0.4455 0.8978 0.3708
C50 C 0.3647(4) 0.82811(16) 0.34599(6)
H52 H 0.3951 0.7854 0.3434
H53 H 0.2522 0.8288 0.3526
C51 C 0.3699(5) 0.85870(17) 0.31918(6)
H54 H 0.4815 0.8580 0.3121
H55 H 0.3373 0.9013 0.3214
C52 C 0.2576(6) 0.82776(19) 0.29886(7)
H56 H 0.2946 0.7865 0.2957
H57 H 0.2586 0.8500 0.2817
H58 H 0.1479 0.8270 0.3062
O3? O 0.1102(3) 0.56332(10) 0.39408(4)
N4? N 0.2561(3) 0.64515(8) 0.38464(4)
O6? O 0.2583(3) 0.73985(11) 0.68255(4)
N8? N 0.1279(3) 0.82203(9) 0.66821(4)
loop_
_geom_bond_atom_site_label_1
_geom_bond_atom_site_label_2
_geom_bond_site_symmetry_1
_geom_bond_site_symmetry_2
C1 O1 1_555 1_555
O1 C2 1_555 1_555
N1 C1 1_555 1_555
O2 C16 1_555 1_555
N2 C15 1_555 1_555
N3 C16 1_555 1_555
C2 C3 1_555 1_555
C3 N1 1_555 1_555
C4 C3 1_555 1_555
H1 C4 1_555 1_555
C5 C4 1_555 1_555
H2 C5 1_555 1_555
C6 C5 1_555 1_555
H3 C6 1_555 1_555
C7 C2 1_555 1_555
H4 C7 1_555 1_555
C8 C1 1_555 1_555
C9 C8 1_555 1_555
H5 C9 1_555 1_555
C10 C9 1_555 1_555
H6 C10 1_555 1_555
C11 C10 1_555 1_555
C12 C11 1_555 1_555
H7 C12 1_555 1_555
C13 C8 1_555 1_555
H8 C13 1_555 1_555
C14 C11 1_555 1_555
H9 C14 1_555 1_555
C15 C14 1_555 1_555
C16 C15 1_555 1_555
C17 N2 1_555 1_555
C18 C17 1_555 1_555
H10 C18 1_555 1_555
H11 C18 1_555 1_555
H12 C18 1_555 1_555
C19 N3 1_555 1_555
H13 C19 1_555 1_555
H14 C19 1_555 1_555
C20 C19 1_555 1_555
H15 C20 1_555 1_555
H16 C20 1_555 1_555
C21 C20 1_555 1_555
H17 C21 1_555 1_555
H18 C21 1_555 1_555
C22 C21 1_555 1_555
H19 C22 1_555 1_555
H20 C22 1_555 1_555
C23 C22 1_555 1_555
H21 C23 1_555 1_555
H22 C23 1_555 1_555
C24 C23 1_555 1_555
H23 C24 1_555 1_555
H24 C24 1_555 1_555
C25 C24 1_555 1_555
H25 C25 1_555 1_555
H26 C25 1_555 1_555
C26 C25 1_555 1_555
H27 C26 1_555 1_555
H28 C26 1_555 1_555
H29 C26 1_555 1_555
O4 C27 1_555 1_555
N5 C27 1_555 1_555
O5 C42 1_555 1_555
N6 C41 1_555 1_555
N7 C42 1_555 1_555
C27 C34 1_555 1_555
C28 O4 1_555 1_555
C29 N5 1_555 1_555
C30 C29 1_555 1_555
H30 C30 1_555 1_555
C31 C30 1_555 1_555
H31 C31 1_555 1_555
C32 C31 1_555 1_555
H32 C32 1_555 1_555
C33 C28 1_555 1_555
H33 C33 1_555 1_555
C34 C35 1_555 1_555
C35 H34 1_555 1_555
C36 C35 1_555 1_555
H35 C36 1_555 1_555
C37 C36 1_555 1_555
C38 C37 1_555 1_555
H36 C38 1_555 1_555
C39 C34 1_555 1_555
H37 C39 1_555 1_555
C40 C37 1_555 1_555
H38 C40 1_555 1_555
C41 C40 1_555 1_555
C42 C41 1_555 1_555
C43 N6 1_555 1_555
C44 C43 1_555 1_555
H39 C44 1_555 1_555
H40 C44 1_555 1_555
H41 C44 1_555 1_555
C45 N7 1_555 1_555
H42 C45 1_555 1_555
H43 C45 1_555 1_555
C46 C45 1_555 1_555
H44 C46 1_555 1_555
H45 C46 1_555 1_555
C47 C46 1_555 1_555
H46 C47 1_555 1_555
H47 C47 1_555 1_555
C48 C47 1_555 1_555
H48 C48 1_555 1_555
H49 C48 1_555 1_555
C49 C48 1_555 1_555
H50 C49 1_555 1_555
H51 C49 1_555 1_555
C50 C49 1_555 1_555
H52 C50 1_555 1_555
H53 C50 1_555 1_555
C51 C50 1_555 1_555
H54 C51 1_555 1_555
H55 C51 1_555 1_555
C52 C51 1_555 1_555
H56 C52 1_555 1_555
H57 C52 1_555 1_555
H58 C52 1_555 1_555
N3 C17 1_555 1_555
C6 C7 1_555 1_555
C12 C13 1_555 1_555
N7 C43 1_555 1_555
C28 C29 1_555 1_555
C32 C33 1_555 1_555
C38 C39 1_555 1_555

#END
