
#######################################################################
#
#                 Cambridge Crystallographic Data Centre
#                                CCDC 
#
#######################################################################
#
# If this CIF has been generated from an entry in the Cambridge 
# Structural Database, then it will include bibliographic, chemical, 
# crystal, experimental, refinement or atomic coordinate data resulting 
# from the CCDC's data processing and validation procedures.
#
#######################################################################

data_FEFJIL
_chemical_formula_moiety         'C16 H12 N4 O4 2+,2(H2 O1),2(Cl1 1-)'
_chemical_name_systematic        
"2,2'-(3,6-Dicarboxypyrazine-2,5-diyl)bis(pyridin-1-ium) dichloride dihydrate"
_symmetry_cell_setting           triclinic
_symmetry_space_group_name_H-M   'P -1'
_symmetry_Int_Tables_number      2
_space_group_name_Hall           '-P 1'
loop_
_symmetry_equiv_pos_site_id
_symmetry_equiv_pos_as_xyz
1 x,y,z
2 -x,-y,-z
_cell_length_a                   6.8570(10)
_cell_length_b                   8.5760(10)
_cell_length_c                   9.187(2)
_cell_angle_alpha                63.400(10)
_cell_angle_beta                 81.940(10)
_cell_angle_gamma                87.470(10)
_cell_volume                     478.187
_exptl_crystal_colour            colorless
_exptl_crystal_description       rod
_cell_formula_units_Z            1
loop_
_atom_site_label
_atom_site_type_symbol
_atom_site_fract_x
_atom_site_fract_y
_atom_site_fract_z
O1 O 1.00015(17) 0.49490(17) 0.31111(14)
O2 O 0.92722(19) 0.23783(17) 0.53000(16)
N1 N 0.5886(2) 0.35779(19) 0.61518(16)
N2 N 0.2702(2) 0.38465(19) 0.92225(16)
C1 C 0.4106(2) 0.4098(2) 0.65399(19)
C2 C 0.6788(2) 0.4478(2) 0.46210(19)
C3 C 0.3229(2) 0.3023(2) 0.82833(19)
C4 C 0.3015(3) 0.1241(2) 0.8968(2)
C5 C 0.2197(3) 0.0334(2) 1.0613(2)
C6 C 0.1635(3) 0.1233(3) 1.1525(2)
C7 C 0.1921(3) 0.3007(2) 1.0801(2)
C8 C 0.8865(2) 0.3959(2) 0.42515(19)
H1 H 0.288(3) 0.500(2) 0.880(2)
H2 H 1.044(3) 0.211(4) 0.511(3)
H3 H 0.34130 0.06410 0.83390
H4 H 0.20300 -0.08850 1.10970
H5 H 0.10640 0.06370 1.26270
H6 H 0.15690 0.36330 1.14140
O1A O -0.00015(17) 0.50510(17) 0.68889(14)
O2A O 0.07278(19) 0.76217(17) 0.47000(16)
N1A N 0.4114(2) 0.64221(19) 0.38482(16)
N2A N 0.7298(2) 0.61535(19) 0.07775(16)
C1A C 0.5894(2) 0.5902(2) 0.34601(19)
C2A C 0.3212(2) 0.5522(2) 0.53790(19)
C3A C 0.6771(2) 0.6977(2) 0.17167(19)
C4A C 0.6985(3) 0.8759(2) 0.1032(2)
C5A C 0.7803(3) 0.9666(2) -0.0613(2)
C6A C 0.8365(3) 0.8767(3) -0.1525(2)
C7A C 0.8079(3) 0.6993(2) -0.0801(2)
C8A C 0.1135(2) 0.6041(2) 0.57485(19)
H1A H 0.712(3) 0.500(2) 0.120(2)
H2A H -0.044(3) 0.789(4) 0.489(3)
H3A H 0.65870 0.93590 0.16610
H4A H 0.79700 1.08850 -0.10970
H5A H 0.89360 0.93630 -0.26270
H6A H 0.84310 0.63670 -0.14140
Cl1 Cl 0.35647(7) 0.77154(6) 0.77915(6)
O3 O 0.2839(2) 0.1436(2) 0.5001(2)
H7 H 0.305(5) 0.044(4) 0.565(4)
H8 H 0.370(4) 0.164(3) 0.423(3)
loop_
_geom_bond_atom_site_label_1
_geom_bond_atom_site_label_2
_geom_bond_site_symmetry_1
_geom_bond_site_symmetry_2
O1 C8 1_555 1_555
O2 C8 1_555 1_555
N1 C1 1_555 1_555
N2 C3 1_555 1_555
C1 C3 1_555 1_555
C2 N1 1_555 1_555
C3 C4 1_555 1_555
C4 C5 1_555 1_555
C5 C6 1_555 1_555
C6 C7 1_555 1_555
C7 N2 1_555 1_555
C8 C2 1_555 1_555
O3 H7 1_555 1_555
H1 N2 1_555 1_555
H2 O2 1_555 1_555
H3 C4 1_555 1_555
H4 C5 1_555 1_555
H5 C6 1_555 1_555
H6 C7 1_555 1_555
H8 O3 1_555 1_555
O1A C8A 1_555 1_555
O2A C8A 1_555 1_555
N1A C1A 1_555 1_555
N2A C3A 1_555 1_555
C1A C2 1_555 1_555
C2A C1 1_555 1_555
C3A C1A 1_555 1_555
C4A C3A 1_555 1_555
C5A C4A 1_555 1_555
C6A C5A 1_555 1_555
C7A N2A 1_555 1_555
C8A C2A 1_555 1_555
H1A N2A 1_555 1_555
H2A O2A 1_555 1_555
H3A C4A 1_555 1_555
H4A C5A 1_555 1_555
H5A C6A 1_555 1_555
H6A C7A 1_555 1_555
N1A C2A 1_555 1_555
C6A C7A 1_555 1_555

#END
