
#######################################################################
#
#                 Cambridge Crystallographic Data Centre
#                                CCDC 
#
#######################################################################
#
# If this CIF has been generated from an entry in the Cambridge 
# Structural Database, then it will include bibliographic, chemical, 
# crystal, experimental, refinement or atomic coordinate data resulting 
# from the CCDC's data processing and validation procedures.
#
#######################################################################

data_FEFKAF
_chemical_formula_moiety         'C34 H45 N3 O2'
_chemical_name_systematic        
5-(4-(1,3-benzoxazol-2-yl)benzylidene)-3-hexadecyl-2-methyl-3,5-dihydro-4H-imidazol-4-one
_symmetry_cell_setting           triclinic
_symmetry_space_group_name_H-M   'P -1'
_symmetry_Int_Tables_number      2
_space_group_name_Hall           '-P 1'
loop_
_symmetry_equiv_pos_site_id
_symmetry_equiv_pos_as_xyz
1 x,y,z
2 -x,-y,-z
_cell_length_a                   6.8292(8)
_cell_length_b                   8.1494(12)
_cell_length_c                   29.098(5)
_cell_angle_alpha                86.356(7)
_cell_angle_beta                 84.087(6)
_cell_angle_gamma                69.351(6)
_cell_volume                     1506.67
_exptl_crystal_colour            yellow
_exptl_crystal_description       plate
_cell_formula_units_Z            2
loop_
_atom_site_label
_atom_site_type_symbol
_atom_site_fract_x
_atom_site_fract_y
_atom_site_fract_z
O1 O 1.4402(3) 1.0002(3) 0.28595(8)
O2 O 0.6127(4) 0.7940(4) 0.54960(9)
N1 N 1.1444(4) 1.0558(4) 0.25112(10)
N2 N 1.1444(4) 0.6844(4) 0.50470(10)
N3 N 0.9484(4) 0.6110(4) 0.56390(10)
C1 C 1.2352(5) 1.0110(5) 0.28930(13)
C2 C 1.4814(5) 1.0445(5) 0.24026(12)
C3 C 1.2999(5) 1.0776(5) 0.21841(13)
C4 C 1.2943(6) 1.1258(5) 0.17227(14)
H1 H 1.1708 1.1490 0.1569
C5 C 1.4759(6) 1.1392(6) 0.14918(14)
H2 H 1.4782 1.1715 0.1172
C6 C 1.6553(6) 1.1058(6) 0.17231(15)
H3 H 1.7776 1.1163 0.1556
C7 C 1.6618(5) 1.0585(5) 0.21814(14)
H4 H 1.7844 1.0365 0.2338
C8 C 1.1403(5) 0.9798(4) 0.33449(12)
C9 C 0.9253(5) 1.0274(5) 0.34204(12)
H5 H 0.8403 1.0742 0.3171
C10 C 0.8321(5) 1.0079(5) 0.38537(12)
H6 H 0.6834 1.0448 0.3902
C11 C 0.9537(5) 0.9345(4) 0.42245(12)
C12 C 1.1699(5) 0.8901(5) 0.41470(13)
H7 H 1.2555 0.8439 0.4395
C13 C 1.2616(5) 0.9121(5) 0.37176(13)
H8 H 1.4099 0.8809 0.3672
C14 C 0.8448(5) 0.8966(5) 0.46546(12)
H9 H 0.6976 0.9579 0.4694
C15 C 0.9293(5) 0.7839(5) 0.50049(13)
C16 C 0.8015(6) 0.7407(5) 0.53969(12)
C17 C 1.1470(5) 0.5880(5) 0.54142(12)
C18 C 1.3390(5) 0.4612(5) 0.56019(14)
H10 H 1.3276 0.3444 0.5631
H11 H 1.3539 0.4982 0.5906
H12 H 1.4623 0.4573 0.5392
C19 C 0.8922(5) 0.5172(5) 0.60421(12)
H13 H 0.9980 0.3975 0.6059
H14 H 0.7546 0.5061 0.6009
C20 C 0.8799(5) 0.6081(5) 0.64803(12)
H15 H 0.7763 0.7286 0.6458
H16 H 1.0183 0.6178 0.6512
C21 C 0.8176(5) 0.5153(5) 0.69148(12)
H17 H 0.9111 0.3908 0.6915
H18 H 0.8427 0.5687 0.7189
C22 C 0.5914(5) 0.5216(5) 0.69664(12)
H19 H 0.4971 0.6431 0.6904
H20 H 0.5729 0.4455 0.6735
C23 C 0.5299(5) 0.4619(5) 0.74440(12)
H21 H 0.5488 0.5391 0.7672
H22 H 0.6278 0.3416 0.7506
C24 C 0.3073(5) 0.4615(5) 0.75239(13)
H23 H 0.2088 0.5793 0.7442
H24 H 0.2908 0.3767 0.7316
C25 C 0.2489(5) 0.4142(5) 0.80162(12)
H25 H 0.2569 0.5038 0.8221
H26 H 0.3544 0.3005 0.8104
C26 C 0.0319(5) 0.4000(5) 0.81050(13)
H27 H -0.0738 0.5121 0.8007
H28 H 0.0253 0.3069 0.7911
C27 C -0.0258(5) 0.3591(5) 0.86053(13)
H29 H -0.0237 0.4540 0.8798
H30 H 0.0821 0.2489 0.8706
C28 C -0.2400(5) 0.3396(5) 0.86895(13)
H31 H -0.3472 0.4475 0.8574
H32 H -0.2399 0.2407 0.8509
C29 C -0.3015(5) 0.3077(5) 0.91901(13)
H33 H -0.3010 0.4067 0.9370
H34 H -0.1937 0.2001 0.9304
C30 C -0.5142(5) 0.2878(5) 0.92831(13)
H35 H -0.5125 0.1847 0.9118
H36 H -0.6214 0.3926 0.9155
C31 C -0.5786(5) 0.2653(5) 0.97944(13)
H37 H -0.4729 0.1592 0.9922
H38 H -0.5780 0.3674 0.9961
C32 C -0.7929(5) 0.2485(5) 0.98861(13)
H39 H -0.7931 0.1456 0.9723
H40 H -0.8985 0.3540 0.9756
C33 C -0.8572(6) 0.2282(6) 1.03943(13)
H41 H -0.8509 0.3283 1.0560
H42 H -0.7555 0.1196 1.0521
C34 C -1.0782(6) 0.2199(6) 1.04837(15)
H43 H -1.1791 0.3247 1.0347
H44 H -1.1148 0.2145 1.0818
H45 H -1.0823 0.1150 1.0344
loop_
_geom_bond_atom_site_label_1
_geom_bond_atom_site_label_2
_geom_bond_site_symmetry_1
_geom_bond_site_symmetry_2
O1 C1 1_555 1_555
O2 C16 1_555 1_555
N1 C1 1_555 1_555
N2 C15 1_555 1_555
N3 C16 1_555 1_555
C1 C8 1_555 1_555
C2 O1 1_555 1_555
C3 N1 1_555 1_555
C4 C3 1_555 1_555
H1 C4 1_555 1_555
C5 C4 1_555 1_555
H2 C5 1_555 1_555
C6 C5 1_555 1_555
H3 C6 1_555 1_555
C7 C2 1_555 1_555
H4 C7 1_555 1_555
C8 C9 1_555 1_555
C9 H5 1_555 1_555
C10 C9 1_555 1_555
H6 C10 1_555 1_555
C11 C10 1_555 1_555
C12 C11 1_555 1_555
H7 C12 1_555 1_555
C13 C8 1_555 1_555
H8 C13 1_555 1_555
C14 C11 1_555 1_555
H9 C14 1_555 1_555
C15 C14 1_555 1_555
C16 C15 1_555 1_555
C17 N2 1_555 1_555
C18 C17 1_555 1_555
H10 C18 1_555 1_555
H11 C18 1_555 1_555
H12 C18 1_555 1_555
C19 N3 1_555 1_555
H13 C19 1_555 1_555
H14 C19 1_555 1_555
C20 C19 1_555 1_555
H15 C20 1_555 1_555
H16 C20 1_555 1_555
C21 C20 1_555 1_555
H17 C21 1_555 1_555
H18 C21 1_555 1_555
C22 C21 1_555 1_555
H19 C22 1_555 1_555
H20 C22 1_555 1_555
C23 C22 1_555 1_555
H21 C23 1_555 1_555
H22 C23 1_555 1_555
C24 C23 1_555 1_555
H23 C24 1_555 1_555
H24 C24 1_555 1_555
C25 C24 1_555 1_555
H25 C25 1_555 1_555
H26 C25 1_555 1_555
C26 C25 1_555 1_555
H27 C26 1_555 1_555
H28 C26 1_555 1_555
C27 C26 1_555 1_555
H29 C27 1_555 1_555
H30 C27 1_555 1_555
C28 C27 1_555 1_555
H31 C28 1_555 1_555
H32 C28 1_555 1_555
C29 C28 1_555 1_555
H33 C29 1_555 1_555
H34 C29 1_555 1_555
C30 C29 1_555 1_555
H35 C30 1_555 1_555
H36 C30 1_555 1_555
C31 C30 1_555 1_555
H37 C31 1_555 1_555
H38 C31 1_555 1_555
C32 C31 1_555 1_555
H39 C32 1_555 1_555
H40 C32 1_555 1_555
C33 C32 1_555 1_555
H41 C33 1_555 1_555
H42 C33 1_555 1_555
C34 C33 1_555 1_555
H43 C34 1_555 1_555
H44 C34 1_555 1_555
H45 C34 1_555 1_555
N3 C17 1_555 1_555
C2 C3 1_555 1_555
C6 C7 1_555 1_555
C12 C13 1_555 1_555

#END
