
#######################################################################
#
#                 Cambridge Crystallographic Data Centre
#                                CCDC 
#
#######################################################################
#
# If this CIF has been generated from an entry in the Cambridge 
# Structural Database, then it will include bibliographic, chemical, 
# crystal, experimental, refinement or atomic coordinate data resulting 
# from the CCDC's data processing and validation procedures.
#
#######################################################################

data_FEFMEK
_chemical_formula_moiety         'C31 H32 N2 O7,0.25(C4 H8 O2)'
_chemical_name_systematic        
'1-(5-((bis(4-methoxyphenyl)(phenyl)methoxy)methyl)-4-hydroxytetrahydrofuran-2-yl)-5-methylpyrimidine-2,4(1H,3H)-dione ethyl acetate solvate'
_symmetry_cell_setting           monoclinic
_symmetry_space_group_name_H-M   'P 21'
_symmetry_Int_Tables_number      4
_space_group_name_Hall           'P 2yb'
loop_
_symmetry_equiv_pos_site_id
_symmetry_equiv_pos_as_xyz
1 x,y,z
2 -x,1/2+y,-z
_cell_length_a                   10.542(2)
_cell_length_b                   17.931(4)
_cell_length_c                   17.136(3)
_cell_angle_alpha                90
_cell_angle_beta                 107.51(3)
_cell_angle_gamma                90
_cell_volume                     3089.1
_exptl_crystal_colour            colorless
_exptl_crystal_description       prism
_cell_formula_units_Z            4
loop_
_atom_site_label
_atom_site_type_symbol
_atom_site_fract_x
_atom_site_fract_y
_atom_site_fract_z
O1 O -0.2151(2) 0.32719(13) 0.07146(13)
O2 O -0.3666(2) 0.32102(15) 0.20273(16)
H1 H -0.4499 0.3221 0.1903
O3 O 0.0951(2) 0.23199(14) 0.20216(15)
O4 O 0.3646(2) 0.38126(18) 0.11039(18)
O5 O -0.2788(2) 0.48282(13) 0.03782(13)
O6 O -0.3179(3) 0.44313(19) -0.32883(17)
O7 O 0.0999(3) 0.75605(18) 0.14832(18)
N1 N 0.0087(3) 0.34228(16) 0.14261(17)
N2 N 0.2275(3) 0.31054(17) 0.15847(18)
H2 H 0.298(4) 0.275(2) 0.180(2)
C1 C -0.3396(3) 0.36087(18) 0.07274(19)
H3 H -0.4112 0.3223 0.0553
C2 C -0.3219(3) 0.38051(19) 0.1624(2)
H4 H -0.3660 0.4288 0.1677
C3 C -0.1723(3) 0.3848(2) 0.19975(19)
H5 H -0.1455 0.3723 0.2587
H6 H -0.1385 0.4350 0.1927
C4 C -0.1227(3) 0.32666(19) 0.15144(19)
H7 H -0.1224 0.2764 0.1769
C5 C 0.1086(3) 0.29146(19) 0.17000(19)
C6 C 0.0272(3) 0.40655(19) 0.1018(2)
H8 H -0.0456 0.4399 0.0826
C7 C 0.1424(3) 0.4238(2) 0.0883(2)
C8 C 0.2540(3) 0.3730(2) 0.1176(2)
C9 C 0.1611(4) 0.4934(3) 0.0439(3)
H9 H 0.1675 0.4801 -0.0103
H10 H 0.2429 0.5187 0.0753
H11 H 0.0850 0.5267 0.0377
C10 C -0.3738(3) 0.42424(19) 0.0119(2)
H12 H -0.3739 0.4061 -0.0427
H13 H -0.4639 0.4433 0.0074
C11 C -0.3062(3) 0.54958(19) -0.0126(2)
C12 C -0.4332(4) 0.58728(19) -0.0058(2)
C13 C -0.5132(4) 0.6323(2) -0.0675(3)
H14 H -0.4920 0.6381 -0.1173
C14 C -0.6222(5) 0.6685(2) -0.0574(3)
H15 H -0.6771 0.6978 -0.1006
C15 C -0.6519(5) 0.6622(3) 0.0151(4)
H16 H -0.7278 0.6868 0.0217
C16 C -0.5721(5) 0.6204(2) 0.0782(3)
H17 H -0.5913 0.6174 0.1289
C17 C -0.4633(4) 0.5824(2) 0.0679(2)
H18 H -0.4091 0.5529 0.1113
C18 C -0.3099(3) 0.52775(19) -0.1004(2)
C19 C -0.4273(4) 0.5060(2) -0.1590(2)
H19 H -0.5094 0.5100 -0.1470
C20 C -0.4265(4) 0.4785(2) -0.2343(2)
H20 H -0.5077 0.4642 -0.2733
C21 C -0.3083(4) 0.4719(2) -0.2531(2)
C22 C -0.1906(4) 0.4939(2) -0.1965(2)
H21 H -0.1092 0.4907 -0.2093
C23 C -0.1924(4) 0.5210(2) -0.1202(2)
H22 H -0.1111 0.5351 -0.0811
C24 C -0.1951(5) 0.4262(3) -0.3457(3)
H23 H -0.1475 0.4726 -0.3483
H24 H -0.2146 0.4000 -0.3982
H25 H -0.1399 0.3944 -0.3021
C25 C -0.1916(4) 0.60279(19) 0.0278(2)
C26 C -0.1615(4) 0.6628(2) -0.0147(2)
H26 H -0.2087 0.6688 -0.0710
C27 C -0.0645(4) 0.7142(2) 0.0231(2)
H27 H -0.0448 0.7543 -0.0076
C28 C 0.0043(4) 0.7073(2) 0.1058(2)
C29 C -0.0274(4) 0.6495(2) 0.1499(2)
H28 H 0.0161 0.6455 0.2070
C30 C -0.1222(4) 0.5976(2) 0.1111(2)
H29 H -0.1408 0.5572 0.1419
C31 C 0.1295(5) 0.8176(3) 0.1044(3)
H30 H 0.1593 0.7993 0.0589
H31 H 0.2001 0.8478 0.1411
H32 H 0.0496 0.8482 0.0828
O8 O 0.7264(2) 0.08358(14) 0.32231(15)
O9 O 0.9396(3) 0.20564(18) 0.31128(18)
H33 H 1.024(5) 0.189(3) 0.310(3)
O10 O 0.1955(2) 0.11553(16) 0.37975(17)
O11 O 0.4300(2) 0.20799(15) 0.22002(14)
O12 O 0.8659(2) 0.05605(15) 0.48853(14)
O13 O 1.4497(3) -0.0349(2) 0.6915(2)
O14 O 0.6227(5) 0.1702(3) 0.7502(3)
N3 N 0.5462(3) 0.15000(16) 0.33837(16)
N4 N 0.3184(3) 0.16005(17) 0.30231(18)
H34 H 0.253(4) 0.176(2) 0.274(2)
C32 C 0.8694(3) 0.0862(2) 0.3544(2)
H35 H 0.9075 0.0709 0.3099
C33 C 0.9064(3) 0.1685(2) 0.3760(2)
H36 H 0.9791 0.1732 0.4290
C34 C 0.7779(3) 0.2028(2) 0.3811(2)
H37 H 0.7718 0.2561 0.3655
H38 H 0.7694 0.1979 0.4368
C35 C 0.6731(3) 0.15678(19) 0.3196(2)
H39 H 0.6568 0.1782 0.2635
C36 C 0.5434(3) 0.1157(2) 0.4100(2)
H40 H 0.6256 0.1007 0.4477
C37 C 0.4316(3) 0.1022(2) 0.4298(2)
C38 C 0.3057(3) 0.12454(19) 0.3711(2)
C39 C 0.4313(3) 0.17471(18) 0.2828(2)
C40 C 0.4293(4) 0.0644(3) 0.5067(3)
H41 H 0.5206 0.0545 0.5407
H42 H 0.3806 0.0172 0.4934
H43 H 0.3850 0.0966 0.5367
C41 C 0.9179(4) 0.0321(2) 0.4247(2)
H44 H 0.8865 -0.0189 0.4068
H45 H 1.0163 0.0317 0.4444
C42 C 0.8902(3) 0.0099(2) 0.5610(2)
C43 C 0.8104(4) -0.0631(2) 0.5410(2)
C44 C 0.8453(4) -0.1265(3) 0.5898(3)
H46 H 0.9255 -0.1262 0.6340
C45 C 0.7669(5) -0.1896(3) 0.5759(4)
H47 H 0.7935 -0.2321 0.6100
C46 C 0.6482(5) -0.1908(3) 0.5116(4)
H48 H 0.5920 -0.2334 0.5025
C47 C 0.6136(4) -0.1287(3) 0.4610(3)
H49 H 0.5347 -0.1294 0.4159
C48 C 0.6932(4) -0.0661(2) 0.4760(2)
H50 H 0.6675 -0.0240 0.4412
C49 C 1.0409(4) -0.0040(2) 0.5970(2)
C50 C 1.1023(4) -0.0619(2) 0.5687(2)
H51 H 1.0496 -0.0946 0.5283
C51 C 1.2394(4) -0.0734(3) 0.5980(3)
H52 H 1.2792 -0.1131 0.5770
C52 C 1.3161(4) -0.0272(3) 0.6570(3)
C53 C 1.2572(4) 0.0323(3) 0.6849(3)
H53 H 1.3109 0.0655 0.7244
C54 C 1.1215(4) 0.0436(3) 0.6559(2)
H54 H 1.0825 0.0841 0.6762
C55 C 1.5121(5) -0.0974(4) 0.6669(4)
H55 H 1.4763 -0.1436 0.6825
H56 H 1.6083 -0.0953 0.6938
H57 H 1.4946 -0.0963 0.6074
C56 C 0.8318(4) 0.0558(3) 0.6168(2)
C57 C 0.7903(5) 0.0218(3) 0.6793(3)
H58 H 0.8083 -0.0296 0.6911
C58 C 0.7247(6) 0.0618(4) 0.7231(3)
H59 H 0.6989 0.0383 0.7656
C59 C 0.6955(5) 0.1366(3) 0.7056(3)
C60 C 0.7421(5) 0.1716(3) 0.6489(3)
H60 H 0.7273 0.2234 0.6391
C61 C 0.8113(5) 0.1310(3) 0.6057(2)
H61 H 0.8452 0.1561 0.5674
C62 C 0.5816(9) 0.2452(5) 0.7312(4)
H62 H 0.6571 0.2750 0.7269
H63 H 0.5489 0.2656 0.7746
H64 H 0.5103 0.2468 0.6791
O15 O -0.2273(8) 0.7847(6) 0.2520(7)
O16 O -0.0726(15) 0.8569(8) 0.3339(12)
C63 C -0.2266(16) 0.8284(16) 0.1824(12)
H65 H -0.1377 0.8267 0.1740
H66 H -0.2484 0.8810 0.1905
C64 C -0.3286(10) 0.7960(6) 0.1105(7)
H67 H -0.3104 0.7428 0.1062
H68 H -0.3255 0.8217 0.0606
H69 H -0.4170 0.8021 0.1173
C65 C -0.1420(14) 0.8015(9) 0.3250(8)
C66 C -0.128(2) 0.7486(11) 0.3939(10)
H70 H -0.0357 0.7479 0.4288
H71 H -0.1543 0.6985 0.3721
H72 H -0.1860 0.7646 0.4262
loop_
_geom_bond_atom_site_label_1
_geom_bond_atom_site_label_2
_geom_bond_site_symmetry_1
_geom_bond_site_symmetry_2
O1 C1 1_555 1_555
O2 H1 1_555 1_555
O3 C5 1_555 1_555
O4 C8 1_555 1_555
O5 C10 1_555 1_555
O6 C21 1_555 1_555
O7 C28 1_555 1_555
N1 C4 1_555 1_555
N2 H2 1_555 1_555
C1 H3 1_555 1_555
C2 O2 1_555 1_555
H4 C2 1_555 1_555
C3 C2 1_555 1_555
H5 C3 1_555 1_555
H6 C3 1_555 1_555
C4 O1 1_555 1_555
H7 C4 1_555 1_555
C5 N1 1_555 1_555
C6 N1 1_555 1_555
H8 C6 1_555 1_555
C7 C6 1_555 1_555
C8 N2 1_555 1_555
C9 C7 1_555 1_555
H9 C9 1_555 1_555
H10 C9 1_555 1_555
H11 C9 1_555 1_555
C10 C1 1_555 1_555
H12 C10 1_555 1_555
H13 C10 1_555 1_555
C11 O5 1_555 1_555
C12 C11 1_555 1_555
C13 C12 1_555 1_555
H14 C13 1_555 1_555
C14 C13 1_555 1_555
H15 C14 1_555 1_555
C15 C14 1_555 1_555
H16 C15 1_555 1_555
C16 C15 1_555 1_555
H17 C16 1_555 1_555
C17 C12 1_555 1_555
H18 C17 1_555 1_555
C18 C11 1_555 1_555
C19 C18 1_555 1_555
H19 C19 1_555 1_555
C20 C19 1_555 1_555
H20 C20 1_555 1_555
C21 C20 1_555 1_555
C22 C21 1_555 1_555
H21 C22 1_555 1_555
C23 C18 1_555 1_555
H22 C23 1_555 1_555
C24 O6 1_555 1_555
H23 C24 1_555 1_555
H24 C24 1_555 1_555
H25 C24 1_555 1_555
C25 C11 1_555 1_555
C26 C25 1_555 1_555
H26 C26 1_555 1_555
C27 C26 1_555 1_555
H27 C27 1_555 1_555
C28 C27 1_555 1_555
C29 C28 1_555 1_555
H28 C29 1_555 1_555
C30 C25 1_555 1_555
H29 C30 1_555 1_555
C31 O7 1_555 1_555
H30 C31 1_555 1_555
H31 C31 1_555 1_555
H32 C31 1_555 1_555
O8 C32 1_555 1_555
O9 H33 1_555 1_555
O10 C38 1_555 1_555
O11 C39 1_555 1_555
O12 C41 1_555 1_555
O13 C52 1_555 1_555
O14 C59 1_555 1_555
N3 C35 1_555 1_555
N4 H34 1_555 1_555
C32 H35 1_555 1_555
C33 O9 1_555 1_555
H36 C33 1_555 1_555
C34 C33 1_555 1_555
H37 C34 1_555 1_555
H38 C34 1_555 1_555
C35 O8 1_555 1_555
H39 C35 1_555 1_555
C36 N3 1_555 1_555
H40 C36 1_555 1_555
C37 C36 1_555 1_555
C38 N4 1_555 1_555
C39 N3 1_555 1_555
C40 C37 1_555 1_555
H41 C40 1_555 1_555
H42 C40 1_555 1_555
H43 C40 1_555 1_555
C41 C32 1_555 1_555
H44 C41 1_555 1_555
H45 C41 1_555 1_555
C42 O12 1_555 1_555
C43 C42 1_555 1_555
C44 C43 1_555 1_555
H46 C44 1_555 1_555
C45 C44 1_555 1_555
H47 C45 1_555 1_555
C46 C45 1_555 1_555
H48 C46 1_555 1_555
C47 C46 1_555 1_555
H49 C47 1_555 1_555
C48 C43 1_555 1_555
H50 C48 1_555 1_555
C49 C42 1_555 1_555
C50 C49 1_555 1_555
H51 C50 1_555 1_555
C51 C50 1_555 1_555
H52 C51 1_555 1_555
C52 C51 1_555 1_555
C53 C52 1_555 1_555
H53 C53 1_555 1_555
C54 C49 1_555 1_555
H54 C54 1_555 1_555
C55 O13 1_555 1_555
H55 C55 1_555 1_555
H56 C55 1_555 1_555
H57 C55 1_555 1_555
C56 C42 1_555 1_555
C57 C56 1_555 1_555
H58 C57 1_555 1_555
C58 C57 1_555 1_555
H59 C58 1_555 1_555
C59 C58 1_555 1_555
C60 C59 1_555 1_555
H60 C60 1_555 1_555
C61 C56 1_555 1_555
H61 C61 1_555 1_555
C62 O14 1_555 1_555
H62 C62 1_555 1_555
H63 C62 1_555 1_555
H64 C62 1_555 1_555
O15 C63 1_555 1_555
O16 C65 1_555 1_555
C63 H65 1_555 1_555
H66 C63 1_555 1_555
C64 C63 1_555 1_555
H67 C64 1_555 1_555
H68 C64 1_555 1_555
H69 C64 1_555 1_555
C65 O15 1_555 1_555
C66 C65 1_555 1_555
H70 C66 1_555 1_555
H71 C66 1_555 1_555
H72 C66 1_555 1_555
N2 C5 1_555 1_555
C1 C2 1_555 1_555
C3 C4 1_555 1_555
C7 C8 1_555 1_555
C16 C17 1_555 1_555
C22 C23 1_555 1_555
C29 C30 1_555 1_555
N4 C39 1_555 1_555
C32 C33 1_555 1_555
C34 C35 1_555 1_555
C37 C38 1_555 1_555
C47 C48 1_555 1_555
C53 C54 1_555 1_555
C60 C61 1_555 1_555

#END
