
#######################################################################
#
#                 Cambridge Crystallographic Data Centre
#                                CCDC 
#
#######################################################################
#
# If this CIF has been generated from an entry in the Cambridge 
# Structural Database, then it will include bibliographic, chemical, 
# crystal, experimental, refinement or atomic coordinate data resulting 
# from the CCDC's data processing and validation procedures.
#
#######################################################################

data_FEFNEM
_chemical_formula_moiety         'C22 H23 N1 O6'
_chemical_name_systematic        
'dimethyl 1-acetyl-5-hydroxy-2-phenyl-1,2,3,5-tetrahydro-4H-1-benzazepine-4,4-dicarboxylate'
_symmetry_cell_setting           orthorhombic
_symmetry_space_group_name_H-M   'P b c a'
_symmetry_Int_Tables_number      61
_space_group_name_Hall           '-P 2ac 2ab'
loop_
_symmetry_equiv_pos_site_id
_symmetry_equiv_pos_as_xyz
1 x,y,z
2 1/2-x,-y,1/2+z
3 1/2+x,1/2-y,-z
4 -x,1/2+y,1/2-z
5 -x,-y,-z
6 1/2+x,y,1/2-z
7 1/2-x,1/2+y,z
8 x,1/2-y,1/2+z
_cell_length_a                   10.9730(4)
_cell_length_b                   15.1158(5)
_cell_length_c                   25.0975(8)
_cell_angle_alpha                90
_cell_angle_beta                 90
_cell_angle_gamma                90
_cell_volume                     4162.81
_exptl_crystal_colour            colorless
_exptl_crystal_description       block
_cell_formula_units_Z            8
loop_
_atom_site_label
_atom_site_type_symbol
_atom_site_fract_x
_atom_site_fract_y
_atom_site_fract_z
O1 O 0.50553(15) 0.20280(10) 0.46364(6)
H1 H 0.4574 0.2051 0.4886
O2 O 0.80943(17) 0.29862(13) 0.47131(7)
O3 O 0.30686(17) 0.16359(14) 0.32788(9)
O4 O 0.45499(16) 0.08635(11) 0.29100(7)
O5 O 0.64889(16) 0.04668(11) 0.39694(8)
O6 O 0.44975(15) 0.02714(10) 0.41289(7)
N1 N 0.65884(16) 0.32329(11) 0.41291(7)
C1 C 0.5456(2) 0.36350(14) 0.39868(8)
C2 C 0.5436(2) 0.45169(16) 0.38395(10)
H2 H 0.6154 0.4843 0.3829
C3 C 0.4332(3) 0.49106(17) 0.37077(12)
H3 H 0.4310 0.5505 0.3612
C4 C 0.3281(3) 0.44284(17) 0.37185(11)
H4 H 0.2545 0.4695 0.3629
C5 C 0.3306(2) 0.35459(16) 0.38611(10)
H5 H 0.2584 0.3224 0.3867
C6 C 0.4391(2) 0.31332(14) 0.39961(9)
C7 C 0.4419(2) 0.21663(14) 0.41506(9)
H6 H 0.3578 0.1960 0.4195
C8 C 0.5040(2) 0.15999(13) 0.37086(9)
C9 C 0.6120(2) 0.20763(14) 0.34412(9)
H7 H 0.6528 0.1658 0.3208
H8 H 0.5798 0.2546 0.3219
C10 C 0.7070(2) 0.24755(14) 0.38146(9)
H9 H 0.7314 0.2014 0.4067
C11 C 0.8191(2) 0.27451(15) 0.35053(10)
C12 C 0.8162(3) 0.3432(2) 0.31417(11)
H10 H 0.7444 0.3748 0.3092
C13 C 0.9186(3) 0.3654(3) 0.28517(14)
H11 H 0.9154 0.4115 0.2607
C14 C 1.0245(3) 0.3196(3) 0.29249(17)
H12 H 1.0937 0.3347 0.2731
C15 C 1.0289(3) 0.2518(2) 0.3281(2)
H13 H 1.1009 0.2203 0.3327
C16 C 0.9269(2) 0.22968(18) 0.35744(14)
H14 H 0.9312 0.1839 0.3821
C17 C 0.7158(3) 0.33942(18) 0.45983(10)
C18 C 0.6616(3) 0.4072(2) 0.49676(12)
H15 H 0.6774 0.4654 0.4831
H16 H 0.6977 0.4013 0.5314
H17 H 0.5752 0.3980 0.4993
C19 C 0.4095(2) 0.13886(15) 0.32834(10)
C20 C 0.3721(3) 0.06156(19) 0.24861(11)
H18 H 0.4137 0.0241 0.2236
H19 H 0.3439 0.1138 0.2307
H20 H 0.3038 0.0304 0.2634
C21 C 0.5455(2) 0.07241(15) 0.39492(10)
C22 C 0.4756(3) -0.05865(16) 0.43642(12)
H21 H 0.5019 -0.0988 0.4091
H22 H 0.4033 -0.0813 0.4530
H23 H 0.5387 -0.0525 0.4626
loop_
_geom_bond_atom_site_label_1
_geom_bond_atom_site_label_2
_geom_bond_site_symmetry_1
_geom_bond_site_symmetry_2
O1 H1 1_555 1_555
O2 C17 1_555 1_555
O3 C19 1_555 1_555
O4 C19 1_555 1_555
O5 C21 1_555 1_555
O6 C21 1_555 1_555
N1 C1 1_555 1_555
C1 C2 1_555 1_555
C2 H2 1_555 1_555
C3 C2 1_555 1_555
H3 C3 1_555 1_555
C4 C3 1_555 1_555
H4 C4 1_555 1_555
C5 C4 1_555 1_555
H5 C5 1_555 1_555
C6 C1 1_555 1_555
C7 O1 1_555 1_555
H6 C7 1_555 1_555
C8 C7 1_555 1_555
C9 C8 1_555 1_555
H7 C9 1_555 1_555
H8 C9 1_555 1_555
C10 N1 1_555 1_555
H9 C10 1_555 1_555
C11 C10 1_555 1_555
C12 C11 1_555 1_555
H10 C12 1_555 1_555
C13 C12 1_555 1_555
H11 C13 1_555 1_555
C14 C13 1_555 1_555
H12 C14 1_555 1_555
C15 C14 1_555 1_555
H13 C15 1_555 1_555
C16 C11 1_555 1_555
H14 C16 1_555 1_555
C17 N1 1_555 1_555
C18 C17 1_555 1_555
H15 C18 1_555 1_555
H16 C18 1_555 1_555
H17 C18 1_555 1_555
C19 C8 1_555 1_555
C20 O4 1_555 1_555
H18 C20 1_555 1_555
H19 C20 1_555 1_555
H20 C20 1_555 1_555
C21 C8 1_555 1_555
C22 O6 1_555 1_555
H21 C22 1_555 1_555
H22 C22 1_555 1_555
H23 C22 1_555 1_555
C5 C6 1_555 1_555
C6 C7 1_555 1_555
C9 C10 1_555 1_555
C15 C16 1_555 1_555

#END
