
#######################################################################
#
#                 Cambridge Crystallographic Data Centre
#                                CCDC 
#
#######################################################################
#
# If this CIF has been generated from an entry in the Cambridge 
# Structural Database, then it will include bibliographic, chemical, 
# crystal, experimental, refinement or atomic coordinate data resulting 
# from the CCDC's data processing and validation procedures.
#
#######################################################################

data_FEFVEU
_chemical_formula_moiety         'C12 H12 Cl1 N1 O1'
_chemical_name_systematic        
1-(4-chlorophenyl)-3-hydroxy-3-methylcyclobutane-1-carbonitrile
_symmetry_cell_setting           orthorhombic
_symmetry_space_group_name_H-M   'P n m a'
_symmetry_Int_Tables_number      62
_space_group_name_Hall           '-P 2ac 2n'
loop_
_symmetry_equiv_pos_site_id
_symmetry_equiv_pos_as_xyz
1 x,y,z
2 1/2-x,-y,1/2+z
3 -x,1/2+y,-z
4 1/2+x,1/2-y,1/2-z
5 -x,-y,-z
6 1/2+x,y,1/2-z
7 x,1/2-y,z
8 1/2-x,1/2+y,1/2+z
_cell_length_a                   24.2112(12)
_cell_length_b                   6.7795(3)
_cell_length_c                   6.8952(3)
_cell_angle_alpha                90
_cell_angle_beta                 90
_cell_angle_gamma                90
_cell_volume                     1131.78
_exptl_crystal_colour            'light yellow'
_exptl_crystal_description       prism
_cell_formula_units_Z            4
loop_
_atom_site_label
_atom_site_type_symbol
_atom_site_fract_x
_atom_site_fract_y
_atom_site_fract_z
C1 C 0.22851(7) 0.7500 0.4864(3)
H1 H 0.2422 0.7500 0.6202
H2 H 0.2060 0.8680 0.4645
C2 C 0.27696(7) 0.7500 0.3476(3)
C3 C 0.32108(5) 0.5892(2) 0.39061(18)
H3 H 0.3376 0.5306 0.2726
H4 H 0.3082 0.4852 0.4807
C4 C 0.35855(7) 0.7500 0.4899(3)
C5 C 0.34918(7) 0.7500 0.7008(3)
C6 C 0.41990(7) 0.7500 0.4428(3)
C7 C 0.43651(8) 0.7500 0.2490(3)
H5 H 0.4094 0.7500 0.1494
C8 C 0.49204(8) 0.7500 0.1998(3)
H6 H 0.5030 0.7500 0.0675
C9 C 0.53134(8) 0.7500 0.3451(3)
C10 C 0.51629(8) 0.7500 0.5382(3)
H7 H 0.5436 0.7500 0.6369
C11 C 0.46063(8) 0.7500 0.5858(3)
H8 H 0.4500 0.7500 0.7184
N1 N 0.34087(7) 0.7500 0.8639(2)
O1 O 0.25400(5) 0.7500 0.15856(19)
H9 H 0.2795 0.7500 0.0761
Cl1 Cl 0.60102(2) 0.7500 0.28231(8)
H2F H 0.2060 0.6320 0.4645
C3F C 0.32108(5) 0.9108(2) 0.39061(18)
H3F H 0.3376 0.9694 0.2726
H4F H 0.3082 1.0148 0.4807
H10? H 0.2060 0.8680 0.4645
loop_
_geom_bond_atom_site_label_1
_geom_bond_atom_site_label_2
_geom_bond_site_symmetry_1
_geom_bond_site_symmetry_2
C1 H1 1_555 1_555
H2 C1 1_555 1_555
C2 C1 1_555 1_555
C3 C2 1_555 1_555
H3 C3 1_555 1_555
H4 C3 1_555 1_555
C4 C3 1_555 1_555
C5 C4 1_555 1_555
C6 C4 1_555 1_555
C7 C6 1_555 1_555
H5 C7 1_555 1_555
C8 C7 1_555 1_555
H6 C8 1_555 1_555
C9 C8 1_555 1_555
C10 C9 1_555 1_555
H7 C10 1_555 1_555
C11 C6 1_555 1_555
H8 C11 1_555 1_555
N1 C5 1_555 1_555
O1 C2 1_555 1_555
H9 O1 1_555 1_555
Cl1 C9 1_555 1_555
H2F C1 1_555 1_555
C3F C2 1_555 1_555
H3F C3F 1_555 1_555
H4F C3F 1_555 1_555
C4 C3F 1_555 1_555
C10 C11 1_555 1_555

#END
