
#######################################################################
#
#                 Cambridge Crystallographic Data Centre
#                                CCDC 
#
#######################################################################
#
# If this CIF has been generated from an entry in the Cambridge 
# Structural Database, then it will include bibliographic, chemical, 
# crystal, experimental, refinement or atomic coordinate data resulting 
# from the CCDC's data processing and validation procedures.
#
#######################################################################

data_FEFYAS
_chemical_name_common            'Furosemide pentoxifylline'
_chemical_formula_moiety         'C13 H18 N4 O3,C12 H11 Cl1 N2 O5 S1'
_chemical_name_systematic        
'4-Chloro-2-((2-furylmethyl)amino)-5-sulfamoylbenzoic acid 3,7-dimethyl-1-(5-oxohexyl)-3,7-dihydro-1H-purine-2,6-dione'
_symmetry_cell_setting           monoclinic
_symmetry_space_group_name_H-M   'P 21/c'
_symmetry_Int_Tables_number      14
_space_group_name_Hall           '-P 2ybc'
loop_
_symmetry_equiv_pos_site_id
_symmetry_equiv_pos_as_xyz
1 x,y,z
2 -x,1/2+y,1/2-z
3 -x,-y,-z
4 x,1/2-y,1/2+z
_cell_length_a                   8.0948(2)
_cell_length_b                   9.3747(2)
_cell_length_c                   36.2910(10)
_cell_angle_alpha                90
_cell_angle_beta                 93.1280(10)
_cell_angle_gamma                90
_cell_volume                     2749.89
_exptl_crystal_colour            colorless
_exptl_crystal_description       plate
_chemical_melting_point          '436 K'
_cell_formula_units_Z            4
loop_
_atom_site_label
_atom_site_type_symbol
_atom_site_fract_x
_atom_site_fract_y
_atom_site_fract_z
S1 S -0.07863(12) 0.08818(9) 0.08738(3)
N1 N -0.1954(4) 0.1235(3) 0.12076(9)
H1 H -0.2929 0.0735 0.1162
H2 H -0.2195 0.2088 0.1224
O1 O 0.0634(3) 0.1801(2) 0.09131(8)
O2 O -0.1689(3) 0.0854(2) 0.05227(7)
C1 C -0.0177(4) -0.0894(3) 0.09658(10)
C2 C -0.0733(4) -0.1927(3) 0.07155(10)
H3 H -0.1396 -0.1647 0.0511
C3 C -0.0343(4) -0.3354(3) 0.07570(10)
C4 C 0.0675(4) -0.3804(3) 0.10658(10)
C5 C 0.1272(4) -0.2733(3) 0.13152(10)
H4 H 0.1978 -0.2988 0.1515
C6 C 0.0830(4) -0.1333(3) 0.12680(10)
Cl1 Cl 0.15463(13) -0.01374(9) 0.16052(3)
C7 C -0.1052(4) -0.4400(4) 0.04838(10)
O3 O -0.0858(4) -0.5672(2) 0.05059(8)
O4 O -0.1944(3) -0.3797(2) 0.02117(7)
H5 H -0.2404 -0.4416 0.0084
N2 N 0.1083(4) -0.5179(3) 0.11249(8)
H6 H 0.0724 -0.5789 0.0963
C8 C 0.2082(4) -0.5723(4) 0.14408(11)
H7 H 0.3120 -0.5203 0.1459
H8 H 0.2338 -0.6717 0.1396
C9 C 0.1284(4) -0.5613(4) 0.18023(12)
O5 O -0.0101(3) -0.6395(3) 0.18542(9)
C10 C -0.0512(6) -0.6100(5) 0.22121(14)
H9 H -0.1402 -0.6500 0.2327
C11 C 0.0524(6) -0.5184(5) 0.23657(13)
H10 H 0.0495 -0.4806 0.2602
C12 C 0.1709(5) -0.4876(4) 0.21004(11)
H11 H 0.2613 -0.4267 0.2132
C13 C 0.4497(5) -0.3405(5) 0.30488(13)
H12 H 0.3443 -0.3006 0.3101
H13 H 0.5297 -0.3161 0.3244
H14 H 0.4404 -0.4424 0.3031
C14 C 0.5036(5) -0.2823(4) 0.26929(13)
O6 O 0.4185(4) -0.1977(3) 0.25107(9)
C15 C 0.6657(5) -0.3319(4) 0.25653(11)
H15 H 0.6643 -0.4353 0.2557
H16 H 0.7515 -0.3039 0.2748
C16 C 0.7129(4) -0.2769(4) 0.21915(11)
H17 H 0.8279 -0.3006 0.2159
H18 H 0.7037 -0.1737 0.2190
C17 C 0.6080(4) -0.3362(4) 0.18638(10)
H19 H 0.5857 -0.4366 0.1903
H20 H 0.5030 -0.2861 0.1841
C18 C 0.7000(5) -0.3173(4) 0.15151(11)
H21 H 0.7423 -0.2206 0.1508
H22 H 0.7940 -0.3815 0.1523
N3 N 0.5977(3) -0.3444(3) 0.11744(8)
C19 C 0.5810(5) -0.4872(4) 0.10670(11)
N4 N 0.4856(4) -0.5148(3) 0.07496(8)
C20 C 0.4134(4) -0.4033(3) 0.05534(10)
C21 C 0.4357(4) -0.2650(3) 0.06613(10)
C22 C 0.5272(4) -0.2248(4) 0.09883(11)
O7 O 0.5474(3) -0.1032(3) 0.11097(8)
O8 O 0.6472(3) -0.5820(3) 0.12492(8)
C23 C 0.4594(5) -0.6632(3) 0.06319(12)
H23 H 0.3773 -0.7063 0.0777
H24 H 0.5613 -0.7150 0.0665
H25 H 0.4223 -0.6652 0.0376
N5 N 0.3152(4) -0.4143(3) 0.02412(8)
C24 C 0.2766(5) -0.2779(4) 0.01568(11)
H26 H 0.2096 -0.2511 -0.0048
N6 N 0.3449(4) -0.1857(3) 0.03989(9)
C25 C 0.3315(5) -0.0295(3) 0.03834(12)
H27 H 0.2598 -0.0025 0.0176
H28 H 0.4392 0.0111 0.0358
H29 H 0.2869 0.0049 0.0606
loop_
_geom_bond_atom_site_label_1
_geom_bond_atom_site_label_2
_geom_bond_site_symmetry_1
_geom_bond_site_symmetry_2
S1 N1 1_555 1_555
N1 H1 1_555 1_555
H2 N1 1_555 1_555
O1 S1 1_555 1_555
O2 S1 1_555 1_555
C1 S1 1_555 1_555
C2 C1 1_555 1_555
H3 C2 1_555 1_555
C3 C2 1_555 1_555
C4 C3 1_555 1_555
C5 C4 1_555 1_555
H4 C5 1_555 1_555
C6 C1 1_555 1_555
Cl1 C6 1_555 1_555
C7 C3 1_555 1_555
O3 C7 1_555 1_555
O4 C7 1_555 1_555
H5 O4 1_555 1_555
N2 C4 1_555 1_555
H6 N2 1_555 1_555
C8 N2 1_555 1_555
H7 C8 1_555 1_555
H8 C8 1_555 1_555
C9 C8 1_555 1_555
O5 C9 1_555 1_555
C10 O5 1_555 1_555
H9 C10 1_555 1_555
C11 C10 1_555 1_555
H10 C11 1_555 1_555
C12 C9 1_555 1_555
H11 C12 1_555 1_555
C13 H12 1_555 1_555
H13 C13 1_555 1_555
H14 C13 1_555 1_555
C14 C13 1_555 1_555
O6 C14 1_555 1_555
C15 C14 1_555 1_555
H15 C15 1_555 1_555
H16 C15 1_555 1_555
C16 C15 1_555 1_555
H17 C16 1_555 1_555
H18 C16 1_555 1_555
C17 C16 1_555 1_555
H19 C17 1_555 1_555
H20 C17 1_555 1_555
C18 C17 1_555 1_555
H21 C18 1_555 1_555
H22 C18 1_555 1_555
N3 C18 1_555 1_555
C19 N3 1_555 1_555
N4 C19 1_555 1_555
C20 N4 1_555 1_555
C21 C20 1_555 1_555
C22 N3 1_555 1_555
O7 C22 1_555 1_555
O8 C19 1_555 1_555
C23 N4 1_555 1_555
H23 C23 1_555 1_555
H24 C23 1_555 1_555
H25 C23 1_555 1_555
N5 C20 1_555 1_555
C24 N5 1_555 1_555
H26 C24 1_555 1_555
N6 C21 1_555 1_555
C25 N6 1_555 1_555
H27 C25 1_555 1_555
H28 C25 1_555 1_555
H29 C25 1_555 1_555
C5 C6 1_555 1_555
C11 C12 1_555 1_555
C21 C22 1_555 1_555
C24 N6 1_555 1_555

#END
