
#######################################################################
#
#                 Cambridge Crystallographic Data Centre
#                                CCDC 
#
#######################################################################
#
# If this CIF has been generated from an entry in the Cambridge 
# Structural Database, then it will include bibliographic, chemical, 
# crystal, experimental, refinement or atomic coordinate data resulting 
# from the CCDC's data processing and validation procedures.
#
#######################################################################

data_FEFZOI
_chemical_formula_moiety         'C29 H18 O9,C1 H2 Cl2'
_chemical_name_systematic        
"ethyl 10'-(acryloyloxy)-3,3'-dioxo-3H,3'H-spiro[2-benzofuran-1,7'-pyrano[2,3-c]xanthene]-2'-carboxylate dichloromethane solvate"
_symmetry_cell_setting           monoclinic
_symmetry_space_group_name_H-M   'I 2/c'
_symmetry_Int_Tables_number      15
_space_group_name_Hall           '-I 2yc'
loop_
_symmetry_equiv_pos_site_id
_symmetry_equiv_pos_as_xyz
1 x,y,z
2 -x,y,1/2-z
3 1/2+x,1/2+y,1/2+z
4 1/2-x,1/2+y,-z
5 -x,-y,-z
6 x,-y,1/2+z
7 1/2-x,1/2-y,1/2-z
8 1/2+x,1/2-y,z
_cell_length_a                   18.1898(7)
_cell_length_b                   11.5003(3)
_cell_length_c                   25.5249(10)
_cell_angle_alpha                90
_cell_angle_beta                 91.969(3)
_cell_angle_gamma                90
_cell_volume                     5336.35
_exptl_crystal_colour            colorless
_exptl_crystal_description       needle
_cell_formula_units_Z            8
loop_
_atom_site_label
_atom_site_type_symbol
_atom_site_fract_x
_atom_site_fract_y
_atom_site_fract_z
Cl1 Cl 0.41445(9) 0.57549(14) 0.50978(7)
Cl2 Cl 0.30805(9) 0.38913(15) 0.52334(6)
C1 C 0.3812(4) 0.4418(5) 0.4874(2)
H1 H 0.4209 0.3856 0.4891
H2 H 0.3650 0.4496 0.4509
O1 O 0.22171(14) -0.0091(2) 0.27434(10)
O2 O 0.16085(17) -0.1766(3) 0.26442(13)
O3 O 0.33473(13) 0.27115(19) 0.27861(9)
O4 O 0.49789(15) 0.1295(2) 0.15372(11)
O5 O 0.56202(18) 0.2433(3) 0.10383(13)
O6 O 0.56576(17) 0.4789(3) 0.12943(14)
O7 O 0.4698(2) 0.5362(3) 0.17351(19)
O8 O 0.20836(17) 0.4478(2) 0.41255(11)
O9 O 0.0997(2) 0.3932(4) 0.4437(2)
C2 C 0.2084(2) -0.1216(4) 0.28692(17)
C3 C 0.2597(2) -0.1562(3) 0.32925(16)
C4 C 0.2656(3) -0.2617(4) 0.3561(2)
H3 H 0.2352 -0.3244 0.3476
C5 C 0.3181(3) -0.2685(4) 0.3955(2)
H4 H 0.3233 -0.3375 0.4143
C6 C 0.3639(3) -0.1759(4) 0.40851(18)
H5 H 0.3984 -0.1835 0.4361
C7 C 0.3592(2) -0.0721(4) 0.38108(17)
H6 H 0.3905 -0.0102 0.3891
C8 C 0.3057(2) -0.0646(3) 0.34110(16)
C9 C 0.2869(2) 0.0368(3) 0.30537(15)
C10 C 0.2647(2) 0.1444(3) 0.33397(14)
C11 C 0.2205(2) 0.1376(4) 0.37747(16)
H7 H 0.2047 0.0651 0.3887
C12 C 0.1997(2) 0.2356(4) 0.40402(16)
H8 H 0.1701 0.2295 0.4329
C13 C 0.2233(2) 0.3441(3) 0.38729(14)
C14 C 0.26768(19) 0.3534(3) 0.34536(14)
H9 H 0.2838 0.4259 0.3344
C15 C 0.28813(18) 0.2541(3) 0.31968(13)
C16 C 0.36309(19) 0.1764(3) 0.25455(13)
C17 C 0.3449(2) 0.0635(3) 0.26606(14)
C18 C 0.3787(2) -0.0259(3) 0.23877(16)
H10 H 0.3664 -0.1026 0.2460
C19 C 0.4291(2) -0.0037(4) 0.20186(17)
H11 H 0.4515 -0.0645 0.1844
C20 C 0.4465(2) 0.1103(3) 0.19070(14)
C21 C 0.41469(19) 0.2031(3) 0.21604(13)
C22 C 0.43602(18) 0.3177(3) 0.20227(13)
H12 H 0.4149 0.3808 0.2189
C23 C 0.4865(2) 0.3368(3) 0.16539(14)
C24 C 0.5189(2) 0.2396(4) 0.13794(16)
C25 C 0.5126(2) 0.4556(4) 0.15283(17)
C26 C 0.4955(4) 0.6631(5) 0.1712(3)
H13 H 0.4780 0.7084 0.2003
H14 H 0.5487 0.6690 0.1703
C27 C 0.4610(4) 0.6970(6) 0.1226(3)
H15 H 0.4796 0.6502 0.0949
H16 H 0.4713 0.7774 0.1160
H17 H 0.4088 0.6860 0.1243
C28 C 0.1471(3) 0.4631(5) 0.44075(18)
C29 C 0.1505(4) 0.5737(4) 0.4692(2)
H18 H 0.1916 0.6210 0.4661
C30 C 0.0982(5) 0.6072(6) 0.4983(3)
H19 H 0.0568 0.5607 0.5017
H20 H 0.1018 0.6778 0.5159
loop_
_geom_bond_atom_site_label_1
_geom_bond_atom_site_label_2
_geom_bond_site_symmetry_1
_geom_bond_site_symmetry_2
Cl1 C1 1_555 1_555
Cl2 C1 1_555 1_555
C1 H1 1_555 1_555
H2 C1 1_555 1_555
O1 C2 1_555 1_555
O2 C2 1_555 1_555
O3 C15 1_555 1_555
O4 C20 1_555 1_555
O5 C24 1_555 1_555
O6 C25 1_555 1_555
O7 C25 1_555 1_555
O8 C13 1_555 1_555
O9 C28 1_555 1_555
C2 C3 1_555 1_555
C3 C4 1_555 1_555
C4 H3 1_555 1_555
C5 C4 1_555 1_555
H4 C5 1_555 1_555
C6 C5 1_555 1_555
H5 C6 1_555 1_555
C7 C6 1_555 1_555
H6 C7 1_555 1_555
C8 C3 1_555 1_555
C9 O1 1_555 1_555
C10 C9 1_555 1_555
C11 C10 1_555 1_555
H7 C11 1_555 1_555
C12 C11 1_555 1_555
H8 C12 1_555 1_555
C13 C12 1_555 1_555
C14 C13 1_555 1_555
H9 C14 1_555 1_555
C15 C10 1_555 1_555
C16 O3 1_555 1_555
C17 C9 1_555 1_555
C18 C17 1_555 1_555
H10 C18 1_555 1_555
C19 C18 1_555 1_555
H11 C19 1_555 1_555
C20 C19 1_555 1_555
C21 C16 1_555 1_555
C22 C21 1_555 1_555
H12 C22 1_555 1_555
C23 C22 1_555 1_555
C24 O4 1_555 1_555
C25 C23 1_555 1_555
C26 O7 1_555 1_555
H13 C26 1_555 1_555
H14 C26 1_555 1_555
C27 C26 1_555 1_555
H15 C27 1_555 1_555
H16 C27 1_555 1_555
H17 C27 1_555 1_555
C28 O8 1_555 1_555
C29 C28 1_555 1_555
H18 C29 1_555 1_555
C30 C29 1_555 1_555
H19 C30 1_555 1_555
H20 C30 1_555 1_555
C7 C8 1_555 1_555
C8 C9 1_555 1_555
C14 C15 1_555 1_555
C16 C17 1_555 1_555
C20 C21 1_555 1_555
C23 C24 1_555 1_555

#END
