
#######################################################################
#
#                 Cambridge Crystallographic Data Centre
#                                CCDC 
#
#######################################################################
#
# If this CIF has been generated from an entry in the Cambridge 
# Structural Database, then it will include bibliographic, chemical, 
# crystal, experimental, refinement or atomic coordinate data resulting 
# from the CCDC's data processing and validation procedures.
#
#######################################################################

data_FEGFAZ
_chemical_compound_source        'branches and leaves of Sequoia sempervirens'
_chemical_name_common            'Sequosempervirin A'
_chemical_formula_moiety         'C17 H22 O2'
_chemical_name_systematic        
(4R)-4-(4-Hydroxybenzyl)spiro(4.5)dec-1-en-9-ol
_symmetry_cell_setting           orthorhombic
_symmetry_space_group_name_H-M   'P 21 21 21'
_symmetry_Int_Tables_number      19
_space_group_name_Hall           'P 2ac 2ab'
loop_
_symmetry_equiv_pos_site_id
_symmetry_equiv_pos_as_xyz
1 x,y,z
2 1/2-x,-y,1/2+z
3 1/2+x,1/2-y,-z
4 -x,1/2+y,1/2-z
_cell_length_a                   7.220(1)
_cell_length_b                   9.684(1)
_cell_length_c                   21.198(2)
_cell_angle_alpha                90
_cell_angle_beta                 90
_cell_angle_gamma                90
_cell_volume                     1482.13
_exptl_crystal_colour            colorless
_exptl_crystal_description       plate-like
_chemical_melting_point          172-174deg.C
_cell_formula_units_Z            4
_exptl_crystal_recrystallization_method methanol
loop_
_atom_site_label
_atom_site_type_symbol
_atom_site_fract_x
_atom_site_fract_y
_atom_site_fract_z
O1 O 0.4801(9) 0.7931(6) 0.0701(2)
O2 O 1.1518(9) -0.1454(6) 0.0256(2)
C1 C 0.7403(13) 0.5471(9) 0.2463(4)
C2 C 0.8762(14) 0.4666(10) 0.2663(4)
C3 C 0.9706(14) 0.3884(9) 0.2134(3)
C4 C 0.8250(12) 0.4053(8) 0.1596(4)
C5 C 0.7180(11) 0.5405(8) 0.1744(3)
C6 C 0.8075(11) 0.6701(8) 0.1451(3)
C7 C 0.6958(12) 0.8010(9) 0.1609(4)
C8 C 0.4948(13) 0.7883(8) 0.1388(4)
C9 C 0.4032(12) 0.6607(10) 0.1626(4)
C10 C 0.5182(12) 0.5282(9) 0.1521(4)
C11 C 0.9155(13) 0.3978(8) 0.0926(4)
C12 C 0.9782(13) 0.2542(8) 0.0758(3)
C13 C 1.1627(12) 0.2137(8) 0.0843(4)
C14 C 1.2213(12) 0.0828(9) 0.0681(4)
C15 C 1.0968(12) -0.0107(9) 0.0436(3)
C16 C 0.9115(12) 0.0231(10) 0.0350(4)
C17 C 0.8551(12) 0.1573(9) 0.0521(4)
H1 H 0.550 0.875 0.055
H2 H 1.117 -0.156 -0.022
H3 H 0.659 0.612 0.277
H4 H 0.916 0.457 0.315
H5 H 1.101 0.433 0.201
H6 H 0.991 0.280 0.226
H7 H 0.727 0.319 0.163
H8 H 0.814 0.658 0.095
H9 H 0.946 0.682 0.164
H10 H 0.758 0.888 0.137
H11 H 0.698 0.818 0.211
H12 H 0.420 0.876 0.158
H13 H 0.377 0.672 0.213
H14 H 0.270 0.648 0.139
H15 H 0.518 0.506 0.102
H16 H 0.453 0.444 0.177
H17 H 1.034 0.466 0.092
H18 H 0.815 0.432 0.058
H19 H 1.262 0.286 0.103
H20 H 1.365 0.055 0.074
H21 H 0.811 -0.051 0.019
H22 H 0.713 0.185 0.046
loop_
_geom_bond_atom_site_label_1
_geom_bond_atom_site_label_2
_geom_bond_site_symmetry_1
_geom_bond_site_symmetry_2
O1 C8 1_555 1_555
O2 C15 1_555 1_555
C1 C2 1_555 1_555
C2 C3 1_555 1_555
C3 C4 1_555 1_555
C4 C5 1_555 1_555
C5 C1 1_555 1_555
C6 C5 1_555 1_555
C7 C6 1_555 1_555
C8 C7 1_555 1_555
C9 C8 1_555 1_555
C10 C5 1_555 1_555
C11 C4 1_555 1_555
C12 C11 1_555 1_555
C13 C12 1_555 1_555
C14 C13 1_555 1_555
C15 C14 1_555 1_555
C16 C15 1_555 1_555
C17 C12 1_555 1_555
H1 O1 1_555 1_555
H2 O2 1_555 1_555
H3 C1 1_555 1_555
H4 C2 1_555 1_555
H5 C3 1_555 1_555
H6 C3 1_555 1_555
H7 C4 1_555 1_555
H8 C6 1_555 1_555
H9 C6 1_555 1_555
H10 C7 1_555 1_555
H11 C7 1_555 1_555
H12 C8 1_555 1_555
H13 C9 1_555 1_555
H14 C9 1_555 1_555
H15 C10 1_555 1_555
H16 C10 1_555 1_555
H17 C11 1_555 1_555
H18 C11 1_555 1_555
H19 C13 1_555 1_555
H20 C14 1_555 1_555
H21 C16 1_555 1_555
H22 C17 1_555 1_555
C9 C10 1_555 1_555
C16 C17 1_555 1_555

#END
