
#######################################################################
#
#                 Cambridge Crystallographic Data Centre
#                                CCDC 
#
#######################################################################
#
# If this CIF has been generated from an entry in the Cambridge 
# Structural Database, then it will include bibliographic, chemical, 
# crystal, experimental, refinement or atomic coordinate data resulting 
# from the CCDC's data processing and validation procedures.
#
#######################################################################

data_FEGFUV
_chemical_name_common            '3-methylglutaric anhydride'
_chemical_formula_moiety         'C6 H8 O3'
_chemical_name_systematic        4-methyldihydro-2H-pyran-2,6(3H)-dione
_symmetry_cell_setting           monoclinic
_symmetry_space_group_name_H-M   'C 2/c'
_symmetry_Int_Tables_number      15
_space_group_name_Hall           '-C 2yn'
loop_
_symmetry_equiv_pos_site_id
_symmetry_equiv_pos_as_xyz
1 x,y,z
2 -x,y,1/2-z
3 1/2+x,1/2+y,z
4 1/2-x,1/2+y,1/2-z
5 -x,-y,-z
6 x,-y,1/2+z
7 1/2-x,1/2-y,-z
8 1/2+x,1/2-y,1/2+z
_cell_length_a                   20.878(5)
_cell_length_b                   5.8522(12)
_cell_length_c                   12.293(3)
_cell_angle_alpha                90
_cell_angle_beta                 122.756(12)
_cell_angle_gamma                90
_cell_volume                     1263.14
_exptl_crystal_colour            colorless
_exptl_crystal_description       block
_cell_formula_units_Z            8
loop_
_atom_site_label
_atom_site_type_symbol
_atom_site_fract_x
_atom_site_fract_y
_atom_site_fract_z
O1 O 0.05100(12) 0.8846(4) -0.04896(16)
O2 O 0.22899(11) 1.2379(3) 0.2994(2)
O3 O 0.13745(10) 1.0630(3) 0.12861(17)
C1 C 0.08911(14) 0.8794(4) 0.0668(2)
C2 C 0.08980(13) 0.6939(4) 0.1492(2)
H1 H 0.1281 0.5786 0.1627
H2 H 0.0394 0.6182 0.1030
C3 C 0.10753(12) 0.7738(4) 0.27943(19)
H3 H 0.0654 0.8778 0.2641
C4 C 0.11166(13) 0.5794(4) 0.3642(2)
H4 H 0.1546 0.4796 0.3853
H5 H 0.0642 0.4914 0.3181
H6 H 0.1189 0.6414 0.4442
C5 C 0.17901(14) 0.9102(4) 0.3429(2)
C6 C 0.18519(13) 1.0825(4) 0.2606(2)
H7 H 0.1877(13) 0.988(4) 0.418(2)
H8 H 0.223(2) 0.795(6) 0.371(3)
loop_
_geom_bond_atom_site_label_1
_geom_bond_atom_site_label_2
_geom_bond_site_symmetry_1
_geom_bond_site_symmetry_2
O1 C1 1_555 1_555
O2 C6 1_555 1_555
O3 C1 1_555 1_555
C1 C2 1_555 1_555
C2 H1 1_555 1_555
H2 C2 1_555 1_555
C3 C2 1_555 1_555
H3 C3 1_555 1_555
C4 C3 1_555 1_555
H4 C4 1_555 1_555
H5 C4 1_555 1_555
H6 C4 1_555 1_555
C5 C3 1_555 1_555
C6 O3 1_555 1_555
H7 C5 1_555 1_555
H8 C5 1_555 1_555
C5 C6 1_555 1_555

#END
