
#######################################################################
#
#                 Cambridge Crystallographic Data Centre
#                                CCDC 
#
#######################################################################
#
# If this CIF has been generated from an entry in the Cambridge 
# Structural Database, then it will include bibliographic, chemical, 
# crystal, experimental, refinement or atomic coordinate data resulting 
# from the CCDC's data processing and validation procedures.
#
#######################################################################

data_FEGMIO
_chemical_compound_source        'Eriophyton wallchii Benth'
_chemical_name_common            'Cyasterone methanol solvate'
_chemical_formula_moiety         'C29 H44 O8,3(C1 H4 O1)'
_chemical_name_systematic        
'2,3,14,20,22-Pentahydroxy-26,28-epoxystigmast-7-ene-6,26-dione methanol solvate'
_symmetry_cell_setting           monoclinic
_symmetry_space_group_name_H-M   'P 21'
_symmetry_Int_Tables_number      4
_space_group_name_Hall           'P 2yb'
loop_
_symmetry_equiv_pos_site_id
_symmetry_equiv_pos_as_xyz
1 x,y,z
2 -x,1/2+y,-z
_cell_length_a                   13.684(3)
_cell_length_b                   7.791(2)
_cell_length_c                   15.784(3)
_cell_angle_alpha                90
_cell_angle_beta                 99.470(10)
_cell_angle_gamma                90
_cell_volume                     1659.83
_cell_formula_units_Z            2
_exptl_crystal_recrystallization_method 'methanol/ethyl acetate'
loop_
_atom_site_label
_atom_site_type_symbol
_atom_site_fract_x
_atom_site_fract_y
_atom_site_fract_z
O1 O 0.4614(3) 0.1507(7) 0.5107(2)
O2 O 0.3695(4) 0.4600(7) 0.4451(3)
O3 O 0.5435(4) -0.2623(6) 0.3190(2)
O4 O 0.2144(3) -0.0058(7) 0.0985(2)
O5 O 0.3608(3) 0.0957(6) -0.1757(2)
O6 O 0.2006(4) 0.1338(8) -0.3042(2)
O7 O -0.1589(5) -0.0895(11) -0.2435(6)
O8 O -0.1379(5) -0.3643(12) -0.2385(6)
C1 C 0.4600(5) 0.3293(8) 0.3448(4)
C2 C 0.3743(5) 0.3143(8) 0.3920(4)
C3 C 0.3781(5) 0.1506(9) 0.4432(4)
C4 C 0.3868(5) -0.0022(8) 0.3863(4)
C5 C 0.4774(4) 0.0138(7) 0.3417(3)
C6 C 0.4894(4) -0.1438(8) 0.2892(3)
C7 C 0.4338(4) -0.1472(7) 0.2028(3)
C8 C 0.3840(4) -0.0108(7) 0.1655(3)
C9 C 0.3866(4) 0.1650(8) 0.2088(3)
C10 C 0.4738(4) 0.1767(8) 0.2867(3)
C11 C 0.3867(4) 0.3142(8) 0.1456(4)
C12 C 0.3173(4) 0.2907(8) 0.0588(4)
C13 C 0.3361(4) 0.1198(8) 0.0176(3)
C14 C 0.3151(4) -0.0233(7) 0.0805(3)
C15 C 0.3140(5) -0.1875(8) 0.0284(4)
C16 C 0.2668(5) -0.1301(8) -0.0634(4)
C17 C 0.2611(4) 0.0681(7) -0.0642(3)
C18 C 0.5738(4) 0.1968(9) 0.2572(4)
C19 C 0.4440(4) 0.1077(9) 0.0043(3)
C20 C 0.2682(4) 0.1460(9) -0.1522(3)
C21 C 0.2636(5) 0.3402(9) -0.1517(4)
C22 C 0.1847(4) 0.0748(9) -0.2217(3)
C23 C 0.0810(5) 0.1142(10) -0.2094(4)
C24 C 0.0001(5) 0.0089(11) -0.2613(5)
C25 C 0.0003(6) -0.1754(11) -0.2374(5)
C26 C -0.1018(7) -0.2204(14) -0.2363(6)
C27 C 0.0504(8) -0.3053(16) -0.2855(9)
C28 C -0.1042(7) 0.0695(17) -0.2454(13)
C29 C -0.1495(11) 0.1973(22) -0.2781(15)
O9 O 0.1874(9) -0.0865(12) -0.4399(5)
C30 C 0.1088(11) -0.0452(22) -0.5098(9)
O10 O 0.2268(6) 0.5892(11) 0.5225(6)
C31 C 0.2047(9) 0.4467(13) 0.5741(7)
O11 O 0.0369(10) -0.1210(28) -0.0019(9)
C32 C -0.0322(12) -0.0077(23) 0.0282(10)
loop_
_geom_bond_atom_site_label_1
_geom_bond_atom_site_label_2
_geom_bond_site_symmetry_1
_geom_bond_site_symmetry_2
O1 C3 1_555 1_555
O2 C2 1_555 1_555
O3 C6 1_555 1_555
O4 C14 1_555 1_555
O5 C20 1_555 1_555
O6 C22 1_555 1_555
O7 C26 1_555 1_555
O8 C26 1_555 1_555
O9 C30 1_555 1_555
O10 C31 1_555 1_555
O11 C32 1_555 1_555
C1 C2 1_555 1_555
C2 C3 1_555 1_555
C3 C4 1_555 1_555
C4 C5 1_555 1_555
C5 C6 1_555 1_555
C6 C7 1_555 1_555
C7 C8 1_555 1_555
C8 C9 1_555 1_555
C9 C10 1_555 1_555
C10 C1 1_555 1_555
C11 C9 1_555 1_555
C12 C11 1_555 1_555
C13 C12 1_555 1_555
C14 C8 1_555 1_555
C15 C14 1_555 1_555
C16 C15 1_555 1_555
C17 C13 1_555 1_555
C18 C10 1_555 1_555
C19 C13 1_555 1_555
C20 C17 1_555 1_555
C21 C20 1_555 1_555
C22 C20 1_555 1_555
C23 C22 1_555 1_555
C24 C23 1_555 1_555
C25 C24 1_555 1_555
C26 C25 1_555 1_555
C27 C25 1_555 1_555
C28 O7 1_555 1_555
C29 C28 1_555 1_555
C5 C10 1_555 1_555
C13 C14 1_555 1_555
C16 C17 1_555 1_555
C24 C28 1_555 1_555

#END
