
#######################################################################
#
#                 Cambridge Crystallographic Data Centre
#                                CCDC 
#
#######################################################################
#
# If this CIF has been generated from an entry in the Cambridge 
# Structural Database, then it will include bibliographic, chemical, 
# crystal, experimental, refinement or atomic coordinate data resulting 
# from the CCDC's data processing and validation procedures.
#
#######################################################################

data_FEGNIP
_chemical_formula_moiety         'C15 H21 N1 O7'
_chemical_name_systematic        
1,2:4,5-Di-O-isopropylidene-3-C-cyano-3-O-acetyl-\b-D-psicopyranose
_symmetry_cell_setting           orthorhombic
_symmetry_space_group_name_H-M   'P 21 21 21'
_symmetry_Int_Tables_number      19
_space_group_name_Hall           'P 2ac 2ab'
loop_
_symmetry_equiv_pos_site_id
_symmetry_equiv_pos_as_xyz
1 x,y,z
2 1/2-x,-y,1/2+z
3 1/2+x,1/2-y,-z
4 -x,1/2+y,1/2-z
_cell_length_a                   7.879(1)
_cell_length_b                   14.111(1)
_cell_length_c                   15.256(1)
_cell_angle_alpha                90
_cell_angle_beta                 90
_cell_angle_gamma                90
_cell_volume                     1696.17
_chemical_melting_point          149-150deg.C
_cell_formula_units_Z            4
_exptl_crystal_recrystallization_method 'ethyl acetate/cyclohexane'
loop_
_atom_site_label
_atom_site_type_symbol
_atom_site_fract_x
_atom_site_fract_y
_atom_site_fract_z
O1 O 0.1679(6) 0.6524(3) 0.4715(2)
O2 O 0.1478(4) 0.6003(2) 0.3298(2)
O3 O -0.3339(5) 0.5977(3) 0.1822(2)
O4 O -0.1278(5) 0.6796(3) 0.1092(2)
O5 O -0.1414(5) 0.6108(2) 0.3668(2)
O6 O -0.1839(6) 0.7708(3) 0.2646(3)
O7 O -0.0677(5) 0.8934(3) 0.3425(3)
N1 N 0.2411(7) 0.8098(3) 0.2088(4)
C1 C 0.0080(7) 0.6609(3) 0.3452(3)
C2 C -0.0279(6) 0.7144(3) 0.2576(3)
C3 C -0.0523(7) 0.6375(4) 0.1844(3)
C4 C -0.1757(7) 0.5592(3) 0.2116(3)
C5 C -0.1754(8) 0.5329(4) 0.3086(4)
C6 C 0.0618(8) 0.7187(4) 0.4258(3)
C7 C 0.2565(8) 0.5987(4) 0.4077(3)
C8 C 0.4240(8) 0.6454(5) 0.3818(4)
C9 C 0.2761(10) 0.4983(5) 0.4397(4)
C10 C -0.2964(8) 0.6361(5) 0.0976(4)
C11 C -0.2816(10) 0.5604(6) 0.0265(4)
C12 C -0.4235(10) 0.7132(6) 0.0758(4)
C13 C -0.1909(7) 0.8577(3) 0.3083(3)
C14 C -0.3642(8) 0.9021(4) 0.3089(4)
C15 C 0.1232(7) 0.7727(4) 0.2319(3)
loop_
_geom_bond_atom_site_label_1
_geom_bond_atom_site_label_2
_geom_bond_site_symmetry_1
_geom_bond_site_symmetry_2
O1 C6 1_555 1_555
O2 C1 1_555 1_555
O3 C4 1_555 1_555
O4 C3 1_555 1_555
O5 C1 1_555 1_555
O6 C2 1_555 1_555
O7 C13 1_555 1_555
N1 C15 1_555 1_555
C1 C2 1_555 1_555
C2 C3 1_555 1_555
C3 C4 1_555 1_555
C4 C5 1_555 1_555
C5 O5 1_555 1_555
C6 C1 1_555 1_555
C7 O1 1_555 1_555
C8 C7 1_555 1_555
C9 C7 1_555 1_555
C10 O3 1_555 1_555
C11 C10 1_555 1_555
C12 C10 1_555 1_555
C13 O6 1_555 1_555
C14 C13 1_555 1_555
C15 C2 1_555 1_555
O2 C7 1_555 1_555
O4 C10 1_555 1_555

#END
