
#######################################################################
#
#                 Cambridge Crystallographic Data Centre
#                                CCDC 
#
#######################################################################
#
# If this CIF has been generated from an entry in the Cambridge 
# Structural Database, then it will include bibliographic, chemical, 
# crystal, experimental, refinement or atomic coordinate data resulting 
# from the CCDC's data processing and validation procedures.
#
#######################################################################

data_FEGPUF
_chemical_formula_moiety         'C36 H24 N3 O1 P1'
_chemical_name_systematic        'tri(9H-carbazol-9-yl)phosphine oxide'
_symmetry_cell_setting           monoclinic
_symmetry_space_group_name_H-M   'P 21/c'
_symmetry_Int_Tables_number      14
_space_group_name_Hall           '-P 2ybc'
loop_
_symmetry_equiv_pos_site_id
_symmetry_equiv_pos_as_xyz
1 x,y,z
2 -x,1/2+y,1/2-z
3 -x,-y,-z
4 x,1/2-y,1/2+z
_cell_length_a                   16.8479(5)
_cell_length_b                   8.9589(2)
_cell_length_c                   18.2273(5)
_cell_angle_alpha                90
_cell_angle_beta                 102.540(3)
_cell_angle_gamma                90
_cell_volume                     2685.57
_exptl_crystal_colour            colorless
_exptl_crystal_description       block
_cell_formula_units_Z            4
_exptl_crystal_recrystallization_method Sublimation
_exptl_crystal_preparation       ', Luminescent'
loop_
_atom_site_label
_atom_site_type_symbol
_atom_site_fract_x
_atom_site_fract_y
_atom_site_fract_z
P1 P 0.214551(15) 0.16448(3) 0.180469(14)
O1 O 0.17703(5) 0.03666(8) 0.13591(5)
N1 N 0.26313(5) 0.27928(9) 0.13225(5)
N2 N 0.28625(5) 0.11289(9) 0.25501(5)
N3 N 0.14631(5) 0.26822(10) 0.21068(5)
C1 C 0.39422(7) 0.31789(13) 0.27081(6)
H1 H 0.35836(7) 0.39432(13) 0.24754(6)
C2 C 0.25146(6) 0.43308(11) 0.11128(6)
C3 C 0.07391(6) 0.31601(12) 0.15906(6)
C4 C 0.36647(6) 0.17320(12) 0.27831(6)
C5 C 0.14404(6) 0.33049(11) 0.28250(6)
C6 C 0.33493(6) 0.32718(13) 0.04047(6)
C7 C 0.36977(7) -0.06989(12) 0.32056(6)
C8 C 0.28920(7) -0.03615(11) 0.28456(6)
C9 C 0.41845(6) 0.06184(13) 0.31636(6)
C10 C 0.20964(7) 0.54550(12) 0.13961(7)
H2 H 0.18369(7) 0.52714(12) 0.18008(7)
C11 C 0.31586(6) 0.21722(12) 0.08876(5)
C12 C 0.19803(7) 0.31488(13) 0.35177(6)
H3 H 0.24660(7) 0.25834(13) 0.35668(6)
C13 C 0.02885(6) 0.40754(12) 0.19731(7)
C14 C 0.07197(6) 0.41455(12) 0.27524(6)
C15 C 0.04856(7) 0.28473(14) 0.08260(7)
H4 H 0.07952(7) 0.22229(14) 0.05728(7)
C16 C 0.20722(8) 0.68622(13) 0.10640(7)
H5 H 0.17869(8) 0.76464(13) 0.12451(7)
C17 C 0.22584(8) -0.13628(13) 0.28297(7)
H6 H 0.17150(8) -0.11199(13) 0.25902(7)
C18 C 0.29361(6) 0.46260(12) 0.05386(6)
C19 C 0.28996(8) 0.60447(14) 0.02117(7)
H7 H 0.31739(8) 0.62461(14) -0.01812(7)
C20 C 0.24536(10) -0.27391(14) 0.31801(7)
H8 H 0.20323(10) -0.34399(14) 0.31878(7)
C21 C 0.34534(7) 0.07172(13) 0.08930(6)
H9 H 0.33288(7) -0.00143(13) 0.12282(6)
C22 C 0.39396(8) 0.03812(16) 0.03849(7)
H10 H 0.41425(8) -0.06047(16) 0.03681(7)
C23 C 0.38491(7) 0.29134(17) -0.00909(7)
H11 H 0.39905(7) 0.36493(17) -0.04154(7)
C24 C 0.17819(8) 0.38515(15) 0.41350(7)
H12 H 0.21431(8) 0.37678(15) 0.46121(7)
C25 C -0.06918(8) 0.44259(17) 0.08173(9)
H13 H -0.11822(8) 0.48572(17) 0.05432(9)
C26 C 0.05321(8) 0.48272(15) 0.33843(8)
H14 H 0.00447(8) 0.53855(15) 0.33409(8)
C27 C 0.32538(10) -0.31108(14) 0.35199(7)
H15 H 0.33693(10) -0.40675(14) 0.37422(7)
C28 C 0.50097(7) 0.09283(16) 0.34382(7)
H16 H 0.53671(7) 0.01800(16) 0.36899(7)
C29 C 0.47666(8) 0.34601(16) 0.29879(7)
H17 H 0.49736(8) 0.44334(16) 0.29406(7)
C30 C 0.41342(8) 0.14613(18) -0.00988(7)
H18 H 0.44665(8) 0.11990(18) -0.04385(7)
C31 C 0.38803(9) -0.21058(14) 0.35374(7)
H19 H 0.44238(9) -0.23629(14) 0.37696(7)
C32 C -0.02414(8) 0.34912(15) 0.04505(8)
H20 H -0.04358(8) 0.32887(15) -0.00691(8)
C33 C 0.52953(7) 0.23419(18) 0.33366(7)
H21 H 0.58575(7) 0.25568(18) 0.35055(7)
C34 C 0.10660(9) 0.46771(15) 0.40730(8)
H22 H 0.09458(9) 0.51368(15) 0.45059(8)
C35 C -0.04332(7) 0.47334(15) 0.15762(8)
H23 H -0.07388(7) 0.53780(15) 0.18233(8)
C36 C 0.24563(8) 0.71485(13) 0.04720(8)
H24 H 0.24128(8) 0.81092(13) 0.02462(8)
loop_
_geom_bond_atom_site_label_1
_geom_bond_atom_site_label_2
_geom_bond_site_symmetry_1
_geom_bond_site_symmetry_2
P1 O1 1_555 1_555
N1 P1 1_555 1_555
N2 P1 1_555 1_555
N3 P1 1_555 1_555
C1 H1 1_555 1_555
C2 N1 1_555 1_555
C3 N3 1_555 1_555
C4 N2 1_555 1_555
C5 N3 1_555 1_555
C6 C11 1_555 1_555
C7 C8 1_555 1_555
C8 N2 1_555 1_555
C9 C4 1_555 1_555
C10 C2 1_555 1_555
H2 C10 1_555 1_555
C11 N1 1_555 1_555
C12 C5 1_555 1_555
H3 C12 1_555 1_555
C13 C3 1_555 1_555
C14 C5 1_555 1_555
C15 C3 1_555 1_555
H4 C15 1_555 1_555
C16 C10 1_555 1_555
H5 C16 1_555 1_555
C17 C8 1_555 1_555
H6 C17 1_555 1_555
C18 C2 1_555 1_555
C19 C18 1_555 1_555
H7 C19 1_555 1_555
C20 C17 1_555 1_555
H8 C20 1_555 1_555
C21 C11 1_555 1_555
H9 C21 1_555 1_555
C22 C21 1_555 1_555
H10 C22 1_555 1_555
C23 C6 1_555 1_555
H11 C23 1_555 1_555
C24 C12 1_555 1_555
H12 C24 1_555 1_555
C25 H13 1_555 1_555
C26 C14 1_555 1_555
H14 C26 1_555 1_555
C27 C20 1_555 1_555
H15 C27 1_555 1_555
C28 C9 1_555 1_555
H16 C28 1_555 1_555
C29 C1 1_555 1_555
H17 C29 1_555 1_555
C30 C22 1_555 1_555
H18 C30 1_555 1_555
C31 C7 1_555 1_555
H19 C31 1_555 1_555
C32 C15 1_555 1_555
H20 C32 1_555 1_555
C33 C28 1_555 1_555
H21 C33 1_555 1_555
C34 C24 1_555 1_555
H22 C34 1_555 1_555
C35 C13 1_555 1_555
H23 C35 1_555 1_555
C36 C16 1_555 1_555
H24 C36 1_555 1_555
C1 C4 1_555 1_555
C6 C18 1_555 1_555
C7 C9 1_555 1_555
C13 C14 1_555 1_555
C19 C36 1_555 1_555
C23 C30 1_555 1_555
C25 C32 1_555 1_555
C25 C35 1_555 1_555
C26 C34 1_555 1_555
C27 C31 1_555 1_555
C29 C33 1_555 1_555

#END
