
#######################################################################
#
#                 Cambridge Crystallographic Data Centre
#                                CCDC 
#
#######################################################################
#
# If this CIF has been generated from an entry in the Cambridge 
# Structural Database, then it will include bibliographic, chemical, 
# crystal, experimental, refinement or atomic coordinate data resulting 
# from the CCDC's data processing and validation procedures.
#
#######################################################################

data_FEGPOZ
_chemical_formula_moiety         'C36 H24 N3 P1'
_chemical_name_systematic        9,9',9''-phosphanetriyltris(9H-carbazole)
_symmetry_cell_setting           monoclinic
_symmetry_space_group_name_H-M   'P 21/c'
_symmetry_Int_Tables_number      14
_space_group_name_Hall           '-P 2ybc'
loop_
_symmetry_equiv_pos_site_id
_symmetry_equiv_pos_as_xyz
1 x,y,z
2 -x,1/2+y,1/2-z
3 -x,-y,-z
4 x,1/2-y,1/2+z
_cell_length_a                   17.170(2)
_cell_length_b                   9.1604(10)
_cell_length_c                   17.355(2)
_cell_angle_alpha                90
_cell_angle_beta                 99.830(2)
_cell_angle_gamma                90
_cell_volume                     2689.59
_exptl_crystal_colour            colorless
_exptl_crystal_description       Prism
_cell_formula_units_Z            4
_exptl_crystal_recrystallization_method Sublimation
loop_
_atom_site_label
_atom_site_type_symbol
_atom_site_fract_x
_atom_site_fract_y
_atom_site_fract_z
P1 P 0.24934(2) 0.76286(4) 0.17269(2)
N1 N 0.30931(7) 0.91097(14) 0.16604(8)
N2 N 0.15639(7) 0.83358(14) 0.15372(8)
N3 N 0.26507(8) 0.73694(13) 0.27257(8)
C1 C 0.39076(9) 0.88134(17) 0.17183(9)
C2 C 0.43097(10) 0.75319(19) 0.19611(10)
H1 H 0.404300 0.670439 0.211914
C3 C 0.51194(11) 0.7516(2) 0.19622(11)
H2 H 0.541143 0.665454 0.212145
C4 C 0.55136(11) 0.8730(2) 0.17357(12)
H3 H 0.606851 0.868859 0.174839
C5 C 0.51057(10) 0.9993(2) 0.14930(11)
H4 H 0.537493 1.081656 0.133396
C6 C 0.42938(9) 1.00419(18) 0.14849(9)
C7 C 0.36986(9) 1.11500(17) 0.12669(9)
C8 C 0.37339(11) 1.25709(19) 0.09920(11)
H5 H 0.422705 1.299151 0.093632
C9 C 0.30438(11) 1.33622(18) 0.08012(11)
H6 H 0.306174 1.433469 0.061482
C10 C 0.23236(11) 1.27432(18) 0.08803(10)
H7 H 0.185429 1.329862 0.073490
C11 C 0.22680(10) 1.13388(18) 0.11651(10)
H8 H 0.177194 1.093153 0.122132
C12 C 0.29649(9) 1.05487(16) 0.13654(9)
C13 C 0.10906(9) 0.91296(16) 0.19793(10)
C14 C 0.12961(10) 0.98052(17) 0.26988(10)
H9 H 0.181959 0.975063 0.298313
C15 C 0.07087(10) 1.05667(18) 0.29904(11)
H10 H 0.083590 1.104764 0.348074
C16 C -0.00617(11) 1.0640(2) 0.25803(13)
H11 H -0.045236 1.115804 0.279712
C17 C -0.02627(11) 0.9970(2) 0.18638(12)
H12 H -0.078743 1.002940 0.158262
C18 C 0.03150(9) 0.92059(18) 0.15583(10)
C19 C 0.03056(10) 0.84493(19) 0.08284(10)
C20 C -0.02871(11) 0.8193(2) 0.01821(12)
H13 H -0.081381 0.851152 0.018190
C21 C -0.00910(12) 0.7473(3) -0.04517(13)
H14 H -0.048747 0.728683 -0.089366
C22 C 0.06843(13) 0.7009(3) -0.04554(12)
H15 H 0.080663 0.652962 -0.090525
C23 C 0.12762(12) 0.7231(2) 0.01800(11)
H16 H 0.180165 0.691013 0.017622
C24 C 0.10748(10) 0.79408(18) 0.08230(10)
C25 C 0.25131(9) 0.59427(16) 0.29834(9)
C26 C 0.21383(10) 0.47829(18) 0.25538(10)
H17 H 0.192391 0.488588 0.201459
C27 C 0.20890(11) 0.34738(19) 0.29403(11)
H18 H 0.184448 0.265940 0.265796
C28 C 0.23890(11) 0.33235(19) 0.37320(11)
H19 H 0.233530 0.241777 0.398433
C29 C 0.27646(11) 0.44753(18) 0.41570(10)
H20 H 0.296842 0.436954 0.469847
C30 C 0.28386(9) 0.57942(17) 0.37763(9)
C31 C 0.32185(9) 0.71689(17) 0.40219(9)
C32 C 0.36717(10) 0.76177(19) 0.47240(10)
H21 H 0.376666 0.697502 0.515952
C33 C 0.39811(10) 0.9012(2) 0.47775(11)
H22 H 0.429826 0.932889 0.525074
C34 C 0.38303(10) 0.99571(19) 0.41406(10)
H23 H 0.403901 1.091941 0.419301
C35 C 0.33855(9) 0.95368(17) 0.34331(10)
H24 H 0.328400 1.019413 0.300426
C36 C 0.30918(8) 0.81142(16) 0.33727(9)
loop_
_geom_bond_atom_site_label_1
_geom_bond_atom_site_label_2
_geom_bond_site_symmetry_1
_geom_bond_site_symmetry_2
P1 N1 1_555 1_555
N1 C1 1_555 1_555
N2 P1 1_555 1_555
N3 P1 1_555 1_555
C1 C2 1_555 1_555
C2 H1 1_555 1_555
C3 C2 1_555 1_555
H2 C3 1_555 1_555
C4 C3 1_555 1_555
H3 C4 1_555 1_555
C5 C4 1_555 1_555
H4 C5 1_555 1_555
C6 C1 1_555 1_555
C7 C6 1_555 1_555
C8 C7 1_555 1_555
H5 C8 1_555 1_555
C9 C8 1_555 1_555
H6 C9 1_555 1_555
C10 C9 1_555 1_555
H7 C10 1_555 1_555
C11 C10 1_555 1_555
H8 C11 1_555 1_555
C12 N1 1_555 1_555
C13 N2 1_555 1_555
C14 C13 1_555 1_555
H9 C14 1_555 1_555
C15 C14 1_555 1_555
H10 C15 1_555 1_555
C16 C15 1_555 1_555
H11 C16 1_555 1_555
C17 C16 1_555 1_555
H12 C17 1_555 1_555
C18 C13 1_555 1_555
C19 C18 1_555 1_555
C20 C19 1_555 1_555
H13 C20 1_555 1_555
C21 C20 1_555 1_555
H14 C21 1_555 1_555
C22 C21 1_555 1_555
H15 C22 1_555 1_555
C23 C22 1_555 1_555
H16 C23 1_555 1_555
C24 N2 1_555 1_555
C25 N3 1_555 1_555
C26 C25 1_555 1_555
H17 C26 1_555 1_555
C27 C26 1_555 1_555
H18 C27 1_555 1_555
C28 C27 1_555 1_555
H19 C28 1_555 1_555
C29 C28 1_555 1_555
H20 C29 1_555 1_555
C30 C25 1_555 1_555
C31 C30 1_555 1_555
C32 C31 1_555 1_555
H21 C32 1_555 1_555
C33 C32 1_555 1_555
H22 C33 1_555 1_555
C34 C33 1_555 1_555
H23 C34 1_555 1_555
C35 C34 1_555 1_555
H24 C35 1_555 1_555
C36 N3 1_555 1_555
C5 C6 1_555 1_555
C7 C12 1_555 1_555
C11 C12 1_555 1_555
C17 C18 1_555 1_555
C19 C24 1_555 1_555
C23 C24 1_555 1_555
C29 C30 1_555 1_555
C31 C36 1_555 1_555
C35 C36 1_555 1_555

#END
