
#######################################################################
#
#                 Cambridge Crystallographic Data Centre
#                                CCDC 
#
#######################################################################
#
# If this CIF has been generated from an entry in the Cambridge 
# Structural Database, then it will include bibliographic, chemical, 
# crystal, experimental, refinement or atomic coordinate data resulting 
# from the CCDC's data processing and validation procedures.
#
#######################################################################

data_FEGRAL
_chemical_formula_moiety         'C68 H70 Ca2 N6 O8 P4,4(C6 H6)'
_chemical_name_systematic        
"bis(\m~2~-Dibenzoylphosphanido-O,O,O')-bis(dibenzoylphosphanido-O,O')-bis(1,3,5-trimethyl-1,3,5-triazinane-N,N',N'')-di-calcium benzene solvate"
_symmetry_cell_setting           monoclinic
_symmetry_space_group_name_H-M   'C 2/c'
_symmetry_Int_Tables_number      15
_space_group_name_Hall           '-C 2yn'
loop_
_symmetry_equiv_pos_site_id
_symmetry_equiv_pos_as_xyz
1 x,y,z
2 1/2+x,1/2+y,z
3 -x,y,1/2-z
4 1/2-x,1/2+y,1/2-z
5 -x,-y,-z
6 1/2-x,1/2-y,-z
7 x,-y,1/2+z
8 1/2+x,1/2-y,1/2+z
_cell_length_a                   27.543(6)
_cell_length_b                   16.466(3)
_cell_length_c                   21.399(4)
_cell_angle_alpha                90
_cell_angle_beta                 116.70
_cell_angle_gamma                90
_cell_volume                     8670.12
_exptl_crystal_colour            red
_exptl_crystal_description       prism
_chemical_melting_point          '91 deg.C'
_cell_formula_units_Z            4
loop_
_atom_site_label
_atom_site_type_symbol
_atom_site_fract_x
_atom_site_fract_y
_atom_site_fract_z
Ca1 Ca 0.42504(2) 0.23313(3) 0.19030(3)
P1 P 0.37402(4) 0.43530(5) 0.05371(4)
C1 C 0.40482(11) 0.43444(18) 0.14759(15)
O1 O 0.42531(8) 0.37625(12) 0.18843(10)
C2 C 0.37911(11) 0.33139(19) 0.03323(14)
O2 O 0.39431(8) 0.27223(12) 0.07345(10)
C3 C 0.40683(12) 0.51656(18) 0.17936(17)
C4 C 0.37765(19) 0.5823(3) 0.1437(2)
H1 H 0.355(2) 0.576(3) 0.101(3)
C5 C 0.3808(2) 0.6564(3) 0.1745(3)
H2 H 0.3582(16) 0.691(3) 0.151(2)
C6 C 0.4125(2) 0.6670(3) 0.2418(3)
H3 H 0.4130(13) 0.715(2) 0.2613(17)
C7 C 0.4424(4) 0.6033(3) 0.2802(3)
H4 H 0.4660 0.6100 0.3286
C8 C 0.4386(3) 0.5286(3) 0.2485(2)
H5 H 0.4589 0.4843 0.2764
C9 C 0.36106(11) 0.3135(2) -0.04397(14)
C10 C 0.36511(13) 0.2344(2) -0.06357(17)
H6 H 0.3788(12) 0.1922(19) -0.0313(16)
C11 C 0.34823(15) 0.2151(3) -0.13373(19)
H7 H 0.3511(15) 0.160(2) -0.1439(19)
C12 C 0.32715(15) 0.2753(3) -0.18381(19)
H8 H 0.3154(16) 0.255(2) -0.231(2)
C13 C 0.32296(17) 0.3531(3) -0.16504(19)
H9 H 0.3126(15) 0.400(2) -0.196(2)
C14 C 0.34027(15) 0.3728(2) -0.09466(17)
H10 H 0.3374(12) 0.424(2) -0.0826(16)
P2 P 0.49444(3) 0.13112(5) 0.08343(4)
C15 C 0.51174(10) 0.22320(17) 0.13042(13)
O3 O 0.51194(7) 0.23829(11) 0.18921(9)
C16 C 0.47092(11) 0.07201(18) 0.13651(14)
O4 O 0.44757(8) 0.09995(12) 0.16963(10)
C17 C 0.52936(11) 0.29081(18) 0.09852(14)
C18 C 0.5421(2) 0.2795(3) 0.0431(2)
H11 H 0.5414(18) 0.228(3) 0.029(2)
C19 C 0.5563(2) 0.3438(3) 0.0140(2)
H12 H 0.5722(19) 0.335(3) -0.021(3)
C20 C 0.55805(18) 0.4203(3) 0.0379(2)
H13 H 0.5674(16) 0.460(3) 0.023(2)
C21 C 0.5465(3) 0.4325(3) 0.0923(3)
H14 H 0.541(2) 0.488(3) 0.106(3)
C22 C 0.5319(2) 0.3673(3) 0.1223(3)
H15 H 0.521(2) 0.375(3) 0.154(3)
C23 C 0.47652(12) -0.01871(18) 0.13495(15)
C24 C 0.45010(16) -0.0673(2) 0.16286(19)
H16 H 0.4326(13) -0.042(2) 0.1814(17)
C25 C 0.4551(2) -0.1505(2) 0.1633(2)
H17 H 0.4359(15) -0.181(2) 0.181(2)
C26 C 0.48553(18) -0.1869(2) 0.1353(2)
H18 H 0.4882(17) -0.243(3) 0.134(2)
C27 C 0.51254(18) -0.1395(3) 0.1084(3)
H19 H 0.5269(18) -0.159(3) 0.089(2)
C28 C 0.50833(14) -0.0560(2) 0.1078(2)
H20 H 0.5239(14) -0.022(2) 0.0870(18)
N1 N 0.32647(10) 0.17325(16) 0.11933(12)
N2 N 0.33762(10) 0.27176(17) 0.20357(15)
N3 N 0.36230(10) 0.13614(16) 0.23748(13)
C29 C 0.29713(18) 0.1468(3) 0.04612(19)
H21 H 0.3004(15) 0.192(2) 0.017(2)
H22 H 0.2600(19) 0.132(2) 0.035(2)
H23 H 0.3167(16) 0.099(2) 0.0427(19)
C30 C 0.3206(2) 0.3509(3) 0.2194(3)
H24 H 0.349(2) 0.369(3) 0.270(3)
H25 H 0.2867(18) 0.345(2) 0.219(2)
H26 H 0.3224(18) 0.391(3) 0.182(2)
C31 C 0.36792(19) 0.0705(3) 0.2865(2)
H27 H 0.3889(15) 0.091(2) 0.332(2)
H28 H 0.3891(17) 0.021(3) 0.279(2)
H29 H 0.3328(19) 0.056(3) 0.284(2)
C32 C 0.30185(13) 0.2458(2) 0.1322(2)
H30 H 0.3008(13) 0.289(2) 0.1006(17)
H31 H 0.2660(15) 0.234(2) 0.1284(17)
C33 C 0.33860(14) 0.2089(2) 0.25231(19)
H32 H 0.3014(16) 0.195(2) 0.2465(18)
H33 H 0.3621(14) 0.231(2) 0.3004(19)
C34 C 0.32796(13) 0.1087(2) 0.16654(17)
H34 H 0.2909(13) 0.0936(18) 0.1624(15)
H35 H 0.3427(12) 0.0589(19) 0.1572(16)
Ca1B Ca 0.57496(2) 0.23313(3) 0.30970(3)
P1B P 0.62598(4) 0.43530(5) 0.44629(4)
C1B C 0.59518(11) 0.43444(18) 0.35241(15)
O1B O 0.57469(8) 0.37625(12) 0.31157(10)
C2B C 0.62089(11) 0.33139(19) 0.46677(14)
O2B O 0.60569(8) 0.27223(12) 0.42655(10)
C3B C 0.59317(12) 0.51656(18) 0.32064(17)
C4B C 0.62235(19) 0.5823(3) 0.3563(2)
H1B H 0.645(2) 0.576(3) 0.399(3)
C5B C 0.6192(2) 0.6564(3) 0.3255(3)
H2B H 0.6418(16) 0.691(3) 0.349(2)
C6B C 0.5875(2) 0.6670(3) 0.2582(3)
H3B H 0.5870(13) 0.715(2) 0.2387(17)
C7B C 0.5576(4) 0.6033(3) 0.2198(3)
H4B H 0.5340 0.6100 0.1714
C8B C 0.5614(3) 0.5286(3) 0.2515(2)
H5B H 0.5411 0.4843 0.2236
C9B C 0.63894(11) 0.3135(2) 0.54397(14)
C10B C 0.63489(13) 0.2344(2) 0.56357(17)
H6B H 0.6212(12) 0.1922(19) 0.5313(16)
C11B C 0.65177(15) 0.2151(3) 0.63373(19)
H7B H 0.6489(15) 0.160(2) 0.6439(19)
C12B C 0.67285(15) 0.2753(3) 0.68381(19)
H8B H 0.6846(16) 0.255(2) 0.731(2)
C13B C 0.67704(17) 0.3531(3) 0.66504(19)
H9B H 0.6874(15) 0.400(2) 0.696(2)
C14B C 0.65973(15) 0.3728(2) 0.59466(17)
H10B H 0.6626(12) 0.424(2) 0.5826(16)
P2B P 0.50556(3) 0.13112(5) 0.41657(4)
C15B C 0.48826(10) 0.22320(17) 0.36958(13)
O3B O 0.48806(7) 0.23829(11) 0.31079(9)
C16B C 0.52908(11) 0.07201(18) 0.36349(14)
O4B O 0.55243(8) 0.09995(12) 0.33037(10)
C17B C 0.47064(11) 0.29081(18) 0.40148(14)
C18B C 0.4579(2) 0.2795(3) 0.4569(2)
H11B H 0.4586(18) 0.228(3) 0.471(2)
C19B C 0.4437(2) 0.3438(3) 0.4860(2)
H12B H 0.4278(19) 0.335(3) 0.521(3)
C20B C 0.44195(18) 0.4203(3) 0.4621(2)
H13B H 0.4326(16) 0.460(3) 0.477(2)
C21B C 0.4535(3) 0.4325(3) 0.4077(3)
H14B H 0.459(2) 0.488(3) 0.394(3)
C22B C 0.4681(2) 0.3673(3) 0.3777(3)
H15B H 0.479(2) 0.375(3) 0.346(3)
C23B C 0.52348(12) -0.01871(18) 0.36505(15)
C24B C 0.54990(16) -0.0673(2) 0.33714(19)
H16B H 0.5674(13) -0.042(2) 0.3186(17)
C25B C 0.5449(2) -0.1505(2) 0.3367(2)
H17B H 0.5641(15) -0.181(2) 0.319(2)
C26B C 0.51447(18) -0.1869(2) 0.3647(2)
H18B H 0.5118(17) -0.243(3) 0.366(2)
C27B C 0.48746(18) -0.1395(3) 0.3916(3)
H19B H 0.4731(18) -0.159(3) 0.411(2)
C28B C 0.49167(14) -0.0560(2) 0.3922(2)
H20B H 0.4761(14) -0.022(2) 0.4130(18)
N1B N 0.67353(10) 0.17325(16) 0.38067(12)
N2B N 0.66238(10) 0.27176(17) 0.29643(15)
N3B N 0.63770(10) 0.13614(16) 0.26252(13)
C29B C 0.70287(18) 0.1468(3) 0.45388(19)
H21B H 0.6996(15) 0.192(2) 0.483(2)
H22B H 0.7400(19) 0.132(2) 0.465(2)
H23B H 0.6833(16) 0.099(2) 0.4573(19)
C30B C 0.6794(2) 0.3509(3) 0.2806(3)
H24B H 0.651(2) 0.369(3) 0.230(3)
H25B H 0.7133(18) 0.345(2) 0.281(2)
H26B H 0.6776(18) 0.391(3) 0.318(2)
C31B C 0.63208(19) 0.0705(3) 0.2135(2)
H27B H 0.6111(15) 0.091(2) 0.168(2)
H28B H 0.6109(17) 0.021(3) 0.221(2)
H29B H 0.6672(19) 0.056(3) 0.216(2)
C32B C 0.69815(13) 0.2458(2) 0.3678(2)
H30B H 0.6992(13) 0.289(2) 0.3994(17)
H31B H 0.7340(15) 0.234(2) 0.3716(17)
C33B C 0.66140(14) 0.2089(2) 0.24769(19)
H32B H 0.6986(16) 0.195(2) 0.2535(18)
H33B H 0.6379(14) 0.231(2) 0.1996(19)
C34B C 0.67204(13) 0.1087(2) 0.33346(17)
H34B H 0.7091(13) 0.0936(18) 0.3376(15)
H35B H 0.6573(12) 0.0589(19) 0.3428(16)
C35 C 0.1349(2) 0.5965(3) 0.0377(2)
H36 H 0.100(2) 0.609(3) 0.006(3)
C36 C 0.1709(2) 0.6577(4) 0.0701(3)
H37 H 0.1600(17) 0.711(3) 0.065(2)
C37 C 0.2240(2) 0.6386(4) 0.1175(3)
H38 H 0.246(2) 0.680(3) 0.135(3)
C38 C 0.2395(2) 0.5591(4) 0.1308(3)
H39 H 0.277(2) 0.549(3) 0.159(3)
C39 C 0.2029(2) 0.4989(4) 0.0971(3)
H40 H 0.2136(18) 0.447(3) 0.107(2)
C40 C 0.1503(2) 0.5178(3) 0.0506(2)
H41 H 0.1263(18) 0.472(3) 0.032(2)
C41 C 0.6859(2) 0.1217(3) 0.8318(3)
H42 H 0.653(2) 0.124(3) 0.799(2)
C42 C 0.7274(2) 0.1064(3) 0.8149(3)
H43 H 0.7179(17) 0.100(3) 0.765(2)
C43 C 0.7794(2) 0.1008(3) 0.8658(3)
H44 H 0.8065(19) 0.086(3) 0.854(2)
C44 C 0.7897(2) 0.1086(4) 0.9329(3)
H45 H 0.824(2) 0.102(3) 0.967(3)
C45 C 0.7493(2) 0.1241(4) 0.9516(3)
H46 H 0.756(2) 0.140(3) 0.998(3)
C46 C 0.6969(2) 0.1309(3) 0.8998(3)
H47 H 0.6706(17) 0.140(2) 0.913(2)
loop_
_geom_bond_atom_site_label_1
_geom_bond_atom_site_label_2
_geom_bond_site_symmetry_1
_geom_bond_site_symmetry_2
Ca1 O1 1_555 1_555
P1 C1 1_555 1_555
C1 O1 1_555 1_555
C2 P1 1_555 1_555
O2 Ca1 1_555 1_555
C3 C1 1_555 1_555
C4 C3 1_555 1_555
H1 C4 1_555 1_555
C5 C4 1_555 1_555
H2 C5 1_555 1_555
C6 C5 1_555 1_555
H3 C6 1_555 1_555
C7 C6 1_555 1_555
H4 C7 1_555 1_555
C8 C3 1_555 1_555
H5 C8 1_555 1_555
C9 C2 1_555 1_555
C10 C9 1_555 1_555
H6 C10 1_555 1_555
C11 C10 1_555 1_555
H7 C11 1_555 1_555
C12 C11 1_555 1_555
H8 C12 1_555 1_555
C13 C12 1_555 1_555
H9 C13 1_555 1_555
C14 C9 1_555 1_555
H10 C14 1_555 1_555
P2 C15 1_555 1_555
C15 O3 1_555 1_555
O3 Ca1 1_555 1_555
C16 P2 1_555 1_555
O4 Ca1 1_555 1_555
C17 C15 1_555 1_555
C18 C17 1_555 1_555
H11 C18 1_555 1_555
C19 C18 1_555 1_555
H12 C19 1_555 1_555
C20 C19 1_555 1_555
H13 C20 1_555 1_555
C21 C20 1_555 1_555
H14 C21 1_555 1_555
C22 C17 1_555 1_555
H15 C22 1_555 1_555
C23 C16 1_555 1_555
C24 C23 1_555 1_555
H16 C24 1_555 1_555
C25 C24 1_555 1_555
H17 C25 1_555 1_555
C26 C25 1_555 1_555
H18 C26 1_555 1_555
C27 C26 1_555 1_555
H19 C27 1_555 1_555
C28 C23 1_555 1_555
H20 C28 1_555 1_555
N1 Ca1 1_555 1_555
N2 Ca1 1_555 1_555
N3 Ca1 1_555 1_555
C29 N1 1_555 1_555
H21 C29 1_555 1_555
H22 C29 1_555 1_555
H23 C29 1_555 1_555
C30 N2 1_555 1_555
H24 C30 1_555 1_555
H25 C30 1_555 1_555
H26 C30 1_555 1_555
C31 N3 1_555 1_555
H27 C31 1_555 1_555
H28 C31 1_555 1_555
H29 C31 1_555 1_555
C32 N1 1_555 1_555
H30 C32 1_555 1_555
H31 C32 1_555 1_555
C33 N2 1_555 1_555
H32 C33 1_555 1_555
H33 C33 1_555 1_555
C34 N1 1_555 1_555
H34 C34 1_555 1_555
H35 C34 1_555 1_555
C35 H36 1_555 1_555
C36 C35 1_555 1_555
H37 C36 1_555 1_555
C37 C36 1_555 1_555
H38 C37 1_555 1_555
C38 C37 1_555 1_555
H39 C38 1_555 1_555
C39 C38 1_555 1_555
H40 C39 1_555 1_555
C40 C35 1_555 1_555
H41 C40 1_555 1_555
C41 H42 1_555 1_555
C42 C41 1_555 1_555
H43 C42 1_555 1_555
C43 C42 1_555 1_555
H44 C43 1_555 1_555
C44 C43 1_555 1_555
H45 C44 1_555 1_555
C45 C44 1_555 1_555
H46 C45 1_555 1_555
C46 C41 1_555 1_555
H47 C46 1_555 1_555
Ca1B O3 1_555 1_555
P1B C1B 1_555 1_555
C1B O1B 1_555 1_555
O1B Ca1B 1_555 1_555
C2B P1B 1_555 1_555
O2B Ca1B 1_555 1_555
C3B C1B 1_555 1_555
C4B C3B 1_555 1_555
H1B C4B 1_555 1_555
C5B C4B 1_555 1_555
H2B C5B 1_555 1_555
C6B C5B 1_555 1_555
H3B C6B 1_555 1_555
C7B C6B 1_555 1_555
H4B C7B 1_555 1_555
C8B C3B 1_555 1_555
H5B C8B 1_555 1_555
C9B C2B 1_555 1_555
C10B C9B 1_555 1_555
H6B C10B 1_555 1_555
C11B C10B 1_555 1_555
H7B C11B 1_555 1_555
C12B C11B 1_555 1_555
H8B C12B 1_555 1_555
C13B C12B 1_555 1_555
H9B C13B 1_555 1_555
C14B C9B 1_555 1_555
H10B C14B 1_555 1_555
P2B C15B 1_555 1_555
C15B O3B 1_555 1_555
O3B Ca1 1_555 1_555
C16B P2B 1_555 1_555
O4B Ca1B 1_555 1_555
C17B C15B 1_555 1_555
C18B C17B 1_555 1_555
H11B C18B 1_555 1_555
C19B C18B 1_555 1_555
H12B C19B 1_555 1_555
C20B C19B 1_555 1_555
H13B C20B 1_555 1_555
C21B C20B 1_555 1_555
H14B C21B 1_555 1_555
C22B C17B 1_555 1_555
H15B C22B 1_555 1_555
C23B C16B 1_555 1_555
C24B C23B 1_555 1_555
H16B C24B 1_555 1_555
C25B C24B 1_555 1_555
H17B C25B 1_555 1_555
C26B C25B 1_555 1_555
H18B C26B 1_555 1_555
C27B C26B 1_555 1_555
H19B C27B 1_555 1_555
C28B C23B 1_555 1_555
H20B C28B 1_555 1_555
N1B Ca1B 1_555 1_555
N2B Ca1B 1_555 1_555
N3B Ca1B 1_555 1_555
C29B N1B 1_555 1_555
H21B C29B 1_555 1_555
H22B C29B 1_555 1_555
H23B C29B 1_555 1_555
C30B N2B 1_555 1_555
H24B C30B 1_555 1_555
H25B C30B 1_555 1_555
H26B C30B 1_555 1_555
C31B N3B 1_555 1_555
H27B C31B 1_555 1_555
H28B C31B 1_555 1_555
H29B C31B 1_555 1_555
C32B N1B 1_555 1_555
H30B C32B 1_555 1_555
H31B C32B 1_555 1_555
C33B N2B 1_555 1_555
H32B C33B 1_555 1_555
H33B C33B 1_555 1_555
C34B N1B 1_555 1_555
H34B C34B 1_555 1_555
H35B C34B 1_555 1_555
C2 O2 1_555 1_555
C7 C8 1_555 1_555
C13 C14 1_555 1_555
C16 O4 1_555 1_555
C21 C22 1_555 1_555
C27 C28 1_555 1_555
N2 C32 1_555 1_555
N3 C33 1_555 1_555
N3 C34 1_555 1_555
C39 C40 1_555 1_555
C45 C46 1_555 1_555
Ca1B O3B 1_555 1_555
C2B O2B 1_555 1_555
C7B C8B 1_555 1_555
C13B C14B 1_555 1_555
C16B O4B 1_555 1_555
C21B C22B 1_555 1_555
C27B C28B 1_555 1_555
N2B C32B 1_555 1_555
N3B C33B 1_555 1_555
N3B C34B 1_555 1_555

#END
