
#######################################################################
#
#                 Cambridge Crystallographic Data Centre
#                                CCDC 
#
#######################################################################
#
# If this CIF has been generated from an entry in the Cambridge 
# Structural Database, then it will include bibliographic, chemical, 
# crystal, experimental, refinement or atomic coordinate data resulting 
# from the CCDC's data processing and validation procedures.
#
#######################################################################

data_FEGRIT
_chemical_name_common            
(mu!2$-1,2-Dimethoxyethane-O,O')-bis(1,2-dimethoxyethane-O,O')-tetrakis(dipivaloylmethanido-O,O')-di-calcium
_chemical_formula_moiety         'C56 H106 Ca2 O14'
_chemical_name_systematic        
(\m~2~-1,2-Dimethoxyethane-O,O')-bis(1,2-dimethoxyethane-O,O')-tetrakis(2,2,6,6-tetramethylheptane-3,5-dionato-O,O')-di-calcium
_symmetry_cell_setting           triclinic
_symmetry_space_group_name_H-M   'P -1'
_symmetry_Int_Tables_number      2
_space_group_name_Hall           '-P 1'
loop_
_symmetry_equiv_pos_site_id
_symmetry_equiv_pos_as_xyz
1 x,y,z
2 -x,-y,-z
_cell_length_a                   10.4634(9)
_cell_length_b                   13.4343(12)
_cell_length_c                   14.3056(13)
_cell_angle_alpha                62.7150(10)
_cell_angle_beta                 78.4110(10)
_cell_angle_gamma                69.072(2)
_cell_volume                     1667.6
_exptl_crystal_colour            colorless
_exptl_crystal_description       plate
_chemical_melting_point          '142 deg.C'
_cell_formula_units_Z            1
loop_
_atom_site_label
_atom_site_type_symbol
_atom_site_fract_x
_atom_site_fract_y
_atom_site_fract_z
Ca1 Ca 0.92768(8) 0.58285(6) 0.71113(5)
O1 O 0.7785(3) 0.4795(2) 0.73940(19)
O2 O 1.0615(3) 0.3861(2) 0.78129(18)
O3 O 0.7642(3) 0.7499(2) 0.7160(2)
O4 O 1.0541(3) 0.6942(2) 0.7073(2)
O5 O 0.8450(6) 0.6865(3) 0.5318(3)
O6 O 1.1081(5) 0.5654(3) 0.5675(2)
O7 O 0.8867(4) 0.5272(3) 0.9035(2)
C1 C 0.6436(4) 0.3486(4) 0.8212(3)
C2 C 0.5306(8) 0.4499(9) 0.8136(15)
H1 H 0.4451 0.4342 0.8162
H2 H 0.5393 0.5166 0.7470
H3 H 0.5295 0.4687 0.8724
C3 C 0.6220(12) 0.3256(16) 0.7371(10)
H4 H 0.6720 0.2436 0.7502
H5 H 0.6554 0.3779 0.6699
H6 H 0.5240 0.3398 0.7341
C4 C 0.6313(9) 0.2531(13) 0.9190(8)
H7 H 0.5393 0.2456 0.9280
H8 H 0.6463 0.2675 0.9766
H9 H 0.6997 0.1803 0.9200
C5 C 0.7800(4) 0.3755(3) 0.8001(3)
C6 C 0.8973(4) 0.2845(3) 0.8468(3)
C7 C 1.0301(4) 0.2929(3) 0.8348(2)
C8 C 1.1468(4) 0.1799(3) 0.8910(3)
C9 C 1.1578(5) 0.0855(4) 0.8551(4)
H10 H 1.1849 0.1123 0.7799
H11 H 1.0690 0.0716 0.8669
H12 H 1.2268 0.0123 0.8954
C10 C 1.1135(6) 0.1305(4) 1.0109(3)
H13 H 1.1887 0.0605 1.0470
H14 H 1.0287 0.1096 1.0260
H15 H 1.1021 0.1903 1.0357
C11 C 1.2818(5) 0.2053(5) 0.8686(5)
H16 H 1.3531 0.1336 0.9080
H17 H 1.2739 0.2668 0.8902
H18 H 1.3060 0.2319 0.7931
C12 C 0.6297(4) 0.9295(3) 0.7250(3)
C13 C 0.6372(6) 1.0463(4) 0.7127(4)
H19 H 0.7001 1.0315 0.7632
H20 H 0.5458 1.0939 0.7260
H21 H 0.6704 1.0886 0.6409
C14 C 0.5399(5) 0.9530(4) 0.6405(4)
H22 H 0.5766 0.9972 0.5708
H23 H 0.4462 0.9988 0.6515
H24 H 0.5395 0.8780 0.6452
C15 C 0.5661(6) 0.8671(5) 0.8344(4)
H25 H 0.5586 0.7935 0.8410
H26 H 0.4749 0.9183 0.8430
H27 H 0.6245 0.8500 0.8889
C16 C 0.7695(4) 0.8427(3) 0.7152(2)
C17 C 0.8915(4) 0.8672(3) 0.7073(3)
C18 C 1.0246(4) 0.7956(3) 0.7024(3)
C19 C 1.1470(4) 0.8398(3) 0.6906(3)
C20 C 1.1063(7) 0.9705(6) 0.6661(8)
H28 H 1.0442 0.9853 0.7226
H29 H 1.0602 1.0178 0.5992
H30 H 1.1886 0.9919 0.6607
C21 C 1.2215(7) 0.7693(7) 0.7894(5)
H31 H 1.2531 0.6860 0.8029
H32 H 1.1602 0.7797 0.8480
H33 H 1.3005 0.7954 0.7827
C22 C 1.2386(8) 0.8241(8) 0.5991(5)
H34 H 1.3136 0.8568 0.5869
H35 H 1.1853 0.8652 0.5358
H36 H 1.2763 0.7402 0.6152
C23 C 0.7031(10) 0.7190(6) 0.5179(6)
H37 H 0.6777 0.7906 0.4527
H38 H 0.6505 0.7336 0.5777
H39 H 0.6831 0.6553 0.5137
C24 C 0.9430(11) 0.6827(6) 0.4458(4)
H40 H 0.9388 0.6224 0.4260
H41 H 0.9178 0.7597 0.3841
C25 C 1.0804(11) 0.6561(6) 0.4714(5)
H42 H 1.1454 0.6355 0.4177
H43 H 1.0923 0.7263 0.4709
C26 C 1.2485(8) 0.5244(6) 0.5912(6)
H44 H 1.3061 0.5075 0.5339
H45 H 1.2649 0.4525 0.6570
H46 H 1.2712 0.5848 0.5991
C27 C 0.9886(6) 0.4630(4) 0.9775(4)
H47 H 1.0754 0.4309 0.9437
H48 H 0.9620 0.3958 1.0355
C28 C 0.7495(6) 0.5407(5) 0.9491(4)
H49 H 0.7406 0.4634 0.9992
H50 H 0.6846 0.5768 0.8933
H51 H 0.7297 0.5911 0.9859
H52 H 0.8908 0.2135 0.8876
H53 H 0.8760 0.9324 0.7118
Ca1A Ca 1.07232(8) 0.41715(6) 1.28887(5)
O1A O 1.2215(3) 0.5205(2) 1.26060(19)
O2A O 0.9385(3) 0.6139(2) 1.21871(18)
O3A O 1.2358(3) 0.2501(2) 1.2840(2)
O4A O 0.9459(3) 0.3058(2) 1.2927(2)
O5A O 1.1550(6) 0.3135(3) 1.4682(3)
O6A O 0.8919(5) 0.4346(3) 1.4325(2)
O7A O 1.1133(4) 0.4728(3) 1.0965(2)
C1A C 1.3564(4) 0.6514(4) 1.1788(3)
C2A C 1.4694(8) 0.5501(9) 1.1864(15)
H1A H 1.5549 0.5658 1.1838
H2A H 1.4607 0.4834 1.2530
H3A H 1.4705 0.5313 1.1276
C3A C 1.3780(12) 0.6744(16) 1.2629(10)
H4A H 1.3280 0.7564 1.2498
H5A H 1.3446 0.6221 1.3301
H6A H 1.4760 0.6602 1.2659
C4A C 1.3687(9) 0.7469(13) 1.0810(8)
H7A H 1.4607 0.7544 1.0720
H8A H 1.3537 0.7325 1.0234
H9A H 1.3003 0.8197 1.0800
C5A C 1.2200(4) 0.6245(3) 1.1999(3)
C6A C 1.1027(4) 0.7155(3) 1.1532(3)
C7A C 0.9699(4) 0.7071(3) 1.1652(2)
C8A C 0.8532(4) 0.8201(3) 1.1090(3)
C9A C 0.8422(5) 0.9145(4) 1.1449(4)
H10A H 0.8151 0.8877 1.2201
H11A H 0.9310 0.9284 1.1331
H12A H 0.7732 0.9877 1.1046
C10A C 0.8865(6) 0.8695(4) 0.9891(3)
H13A H 0.8113 0.9395 0.9530
H14A H 0.9713 0.8904 0.9740
H15A H 0.8979 0.8097 0.9643
C11A C 0.7182(5) 0.7947(5) 1.1314(5)
H16A H 0.6469 0.8664 1.0920
H17A H 0.7261 0.7332 1.1098
H18A H 0.6940 0.7681 1.2069
C12A C 1.3703(4) 0.0705(3) 1.2750(3)
C13A C 1.3628(6) -0.0463(4) 1.2873(4)
H19A H 1.2999 -0.0315 1.2368
H20A H 1.4542 -0.0939 1.2740
H21A H 1.3296 -0.0886 1.3591
C14A C 1.4601(5) 0.0470(4) 1.3595(4)
H22A H 1.4234 0.0028 1.4292
H23A H 1.5538 0.0012 1.3485
H24A H 1.4605 0.1220 1.3548
C15A C 1.4339(6) 0.1329(5) 1.1656(4)
H25A H 1.4414 0.2065 1.1590
H26A H 1.5251 0.0817 1.1570
H27A H 1.3755 0.1500 1.1111
C16A C 1.2305(4) 0.1573(3) 1.2848(2)
C17A C 1.1085(4) 0.1328(3) 1.2927(3)
C18A C 0.9754(4) 0.2044(3) 1.2976(3)
C19A C 0.8530(4) 0.1602(3) 1.3094(3)
C20A C 0.8937(7) 0.0295(6) 1.3339(8)
H28A H 0.9558 0.0147 1.2774
H29A H 0.9398 -0.0178 1.4008
H30A H 0.8114 0.0081 1.3393
C21A C 0.7785(7) 0.2307(7) 1.2106(5)
H31A H 0.7469 0.3140 1.1971
H32A H 0.8398 0.2203 1.1520
H33A H 0.6995 0.2046 1.2173
C22A C 0.7614(8) 0.1759(8) 1.4009(5)
H34A H 0.6864 0.1432 1.4131
H35A H 0.8147 0.1348 1.4642
H36A H 0.7237 0.2598 1.3848
C23A C 1.2969(10) 0.2810(6) 1.4821(6)
H37A H 1.3223 0.2094 1.5473
H38A H 1.3495 0.2664 1.4223
H39A H 1.3169 0.3447 1.4863
C24A C 1.0570(11) 0.3173(6) 1.5542(4)
H40A H 1.0612 0.3776 1.5740
H41A H 1.0822 0.2403 1.6159
C25A C 0.9196(11) 0.3439(6) 1.5286(5)
H42A H 0.8546 0.3645 1.5823
H43A H 0.9077 0.2737 1.5291
C26A C 0.7515(8) 0.4756(6) 1.4088(6)
H44A H 0.6939 0.4925 1.4661
H45A H 0.7351 0.5475 1.3430
H46A H 0.7288 0.4152 1.4009
C27A C 1.0114(6) 0.5370(4) 1.0225(4)
H47A H 0.9246 0.5691 1.0563
H48A H 1.0380 0.6042 0.9645
C28A C 1.2505(6) 0.4593(5) 1.0509(4)
H49A H 1.2594 0.5366 1.0008
H50A H 1.3154 0.4232 1.1067
H51A H 1.2703 0.4089 1.0141
H52A H 1.1092 0.7865 1.1124
H53A H 1.1240 0.0676 1.2882
loop_
_geom_bond_atom_site_label_1
_geom_bond_atom_site_label_2
_geom_bond_site_symmetry_1
_geom_bond_site_symmetry_2
Ca1 O1 1_555 1_555
O1 C5 1_555 1_555
O2 Ca1 1_555 1_555
O3 Ca1 1_555 1_555
O4 Ca1 1_555 1_555
O5 Ca1 1_555 1_555
O6 Ca1 1_555 1_555
O7 Ca1 1_555 1_555
C1 C2 1_555 1_555
C2 H1 1_555 1_555
H2 C2 1_555 1_555
H3 C2 1_555 1_555
C3 C1 1_555 1_555
H4 C3 1_555 1_555
H5 C3 1_555 1_555
H6 C3 1_555 1_555
C4 C1 1_555 1_555
H7 C4 1_555 1_555
H8 C4 1_555 1_555
H9 C4 1_555 1_555
C5 C1 1_555 1_555
C6 C5 1_555 1_555
C7 O2 1_555 1_555
C8 C7 1_555 1_555
C9 C8 1_555 1_555
H10 C9 1_555 1_555
H11 C9 1_555 1_555
H12 C9 1_555 1_555
C10 C8 1_555 1_555
H13 C10 1_555 1_555
H14 C10 1_555 1_555
H15 C10 1_555 1_555
C11 C8 1_555 1_555
H16 C11 1_555 1_555
H17 C11 1_555 1_555
H18 C11 1_555 1_555
C12 C13 1_555 1_555
C13 H19 1_555 1_555
H20 C13 1_555 1_555
H21 C13 1_555 1_555
C14 C12 1_555 1_555
H22 C14 1_555 1_555
H23 C14 1_555 1_555
H24 C14 1_555 1_555
C15 C12 1_555 1_555
H25 C15 1_555 1_555
H26 C15 1_555 1_555
H27 C15 1_555 1_555
C16 O3 1_555 1_555
C17 C16 1_555 1_555
C18 O4 1_555 1_555
C19 C18 1_555 1_555
C20 C19 1_555 1_555
H28 C20 1_555 1_555
H29 C20 1_555 1_555
H30 C20 1_555 1_555
C21 C19 1_555 1_555
H31 C21 1_555 1_555
H32 C21 1_555 1_555
H33 C21 1_555 1_555
C22 C19 1_555 1_555
H34 C22 1_555 1_555
H35 C22 1_555 1_555
H36 C22 1_555 1_555
C23 O5 1_555 1_555
H37 C23 1_555 1_555
H38 C23 1_555 1_555
H39 C23 1_555 1_555
C24 O5 1_555 1_555
H40 C24 1_555 1_555
H41 C24 1_555 1_555
C25 O6 1_555 1_555
H42 C25 1_555 1_555
H43 C25 1_555 1_555
C26 O6 1_555 1_555
H44 C26 1_555 1_555
H45 C26 1_555 1_555
H46 C26 1_555 1_555
C27 O7 1_555 1_555
H47 C27 1_555 1_555
H48 C27 1_555 1_555
C28 O7 1_555 1_555
H49 C28 1_555 1_555
H50 C28 1_555 1_555
H51 C28 1_555 1_555
H52 C6 1_555 1_555
H53 C17 1_555 1_555
Ca1A O1A 1_555 1_555
O1A C5A 1_555 1_555
O2A Ca1A 1_555 1_555
O3A Ca1A 1_555 1_555
O4A Ca1A 1_555 1_555
O5A Ca1A 1_555 1_555
O6A Ca1A 1_555 1_555
O7A Ca1A 1_555 1_555
C1A C2A 1_555 1_555
C2A H1A 1_555 1_555
H2A C2A 1_555 1_555
H3A C2A 1_555 1_555
C3A C1A 1_555 1_555
H4A C3A 1_555 1_555
H5A C3A 1_555 1_555
H6A C3A 1_555 1_555
C4A C1A 1_555 1_555
H7A C4A 1_555 1_555
H8A C4A 1_555 1_555
H9A C4A 1_555 1_555
C5A C1A 1_555 1_555
C6A C5A 1_555 1_555
C7A O2A 1_555 1_555
C8A C7A 1_555 1_555
C9A C8A 1_555 1_555
H10A C9A 1_555 1_555
H11A C9A 1_555 1_555
H12A C9A 1_555 1_555
C10A C8A 1_555 1_555
H13A C10A 1_555 1_555
H14A C10A 1_555 1_555
H15A C10A 1_555 1_555
C11A C8A 1_555 1_555
H16A C11A 1_555 1_555
H17A C11A 1_555 1_555
H18A C11A 1_555 1_555
C12A C13A 1_555 1_555
C13A H19A 1_555 1_555
H20A C13A 1_555 1_555
H21A C13A 1_555 1_555
C14A C12A 1_555 1_555
H22A C14A 1_555 1_555
H23A C14A 1_555 1_555
H24A C14A 1_555 1_555
C15A C12A 1_555 1_555
H25A C15A 1_555 1_555
H26A C15A 1_555 1_555
H27A C15A 1_555 1_555
C16A O3A 1_555 1_555
C17A C16A 1_555 1_555
C18A O4A 1_555 1_555
C19A C18A 1_555 1_555
C20A C19A 1_555 1_555
H28A C20A 1_555 1_555
H29A C20A 1_555 1_555
H30A C20A 1_555 1_555
C21A C19A 1_555 1_555
H31A C21A 1_555 1_555
H32A C21A 1_555 1_555
H33A C21A 1_555 1_555
C22A C19A 1_555 1_555
H34A C22A 1_555 1_555
H35A C22A 1_555 1_555
H36A C22A 1_555 1_555
C23A O5A 1_555 1_555
H37A C23A 1_555 1_555
H38A C23A 1_555 1_555
H39A C23A 1_555 1_555
C24A O5A 1_555 1_555
H40A C24A 1_555 1_555
H41A C24A 1_555 1_555
C25A O6A 1_555 1_555
H42A C25A 1_555 1_555
H43A C25A 1_555 1_555
C26A O6A 1_555 1_555
H44A C26A 1_555 1_555
H45A C26A 1_555 1_555
H46A C26A 1_555 1_555
C27A C27 1_555 1_555
H47A C27A 1_555 1_555
H48A C27A 1_555 1_555
C28A O7A 1_555 1_555
H49A C28A 1_555 1_555
H50A C28A 1_555 1_555
H51A C28A 1_555 1_555
H52A C6A 1_555 1_555
H53A C17A 1_555 1_555
C6 C7 1_555 1_555
C12 C16 1_555 1_555
C17 C18 1_555 1_555
C24 C25 1_555 1_555
O7A C27A 1_555 1_555
C6A C7A 1_555 1_555
C12A C16A 1_555 1_555
C17A C18A 1_555 1_555
C24A C25A 1_555 1_555

#END
