
#######################################################################
#
#                 Cambridge Crystallographic Data Centre
#                                CCDC 
#
#######################################################################
#
# If this CIF has been generated from an entry in the Cambridge 
# Structural Database, then it will include bibliographic, chemical, 
# crystal, experimental, refinement or atomic coordinate data resulting 
# from the CCDC's data processing and validation procedures.
#
#######################################################################

data_FEGTIU
_chemical_formula_moiety         'C19 H18 N2 O4'
_chemical_name_systematic        '4-Phenylcyclohexanone oxime O-4-nitrobenzoate'
_symmetry_cell_setting           orthorhombic
_symmetry_space_group_name_H-M   'P b c 21'
_symmetry_Int_Tables_number      29
_space_group_name_Hall           'P 2c -2b'
loop_
_symmetry_equiv_pos_site_id
_symmetry_equiv_pos_as_xyz
1 x,y,z
2 -x,1/2+y,z
3 x,1/2-y,1/2+z
4 -x,-y,1/2+z
_cell_length_a                   5.652(2)
_cell_length_b                   12.584(4)
_cell_length_c                   47.625(18)
_cell_angle_alpha                90
_cell_angle_beta                 90
_cell_angle_gamma                90
_cell_volume                     3387.32
_cell_formula_units_Z            8
loop_
_atom_site_label
_atom_site_type_symbol
_atom_site_fract_x
_atom_site_fract_y
_atom_site_fract_z
O1 O -0.7215(5) 0.7487(2) 0.2072
O2 O -0.7511(4) 0.8991(2) 0.1857(1)
N1 N -0.6606(5) 0.8112(2) 0.1894(1)
C1 C -0.4618(5) 0.7788(2) 0.1712(1)
C2 C -0.3891(6) 0.6741(2) 0.1709(1)
C3 C -0.2064(6) 0.6449(2) 0.1533(1)
C4 C -0.0944(4) 0.7220(2) 0.1366(1)
C5 C -0.1717(5) 0.8276(2) 0.1382(1)
C6 C -0.3555(5) 0.8562(2) 0.1551(1)
C7 C 0.0988(5) 0.6878(2) 0.1179(1)
O3 O 0.1591(5) 0.5989(2) 0.1135(1)
O4 O 0.1961(3) 0.7740(1) 0.1057(1)
N2 N 0.3945(4) 0.7527(2) 0.0867(1)
C8 C 0.4744(5) 0.8409(2) 0.0782(1)
C9 C 0.3844(5) 0.9502(2) 0.0847(1)
C10 C 0.3751(5) 1.0188(2) 0.0580(1)
C11 C 0.6144(5) 1.0211(2) 0.0432(1)
C12 C 0.6793(5) 0.9085(2) 0.0345(1)
C13 C 0.6900(5) 0.8341(2) 0.0597(1)
C14 C 0.6253(5) 1.0970(2) 0.0183(1)
C15 C 0.4526(6) 1.1024(2) -0.0018(1)
C16 C 0.4708(7) 1.1718(2) -0.0245(1)
C17 C 0.6619(7) 1.2373(2) -0.0268(1)
C18 C 0.8347(6) 1.2343(6) -0.0067(1)
C19 C 0.8149(5) 1.1657(2) 0.0160(1)
H1 H -0.4733(6) 0.6161(2) 0.1843(1)
H2 H -0.1500(6) 0.5630(2) 0.1522(1)
H3 H -0.0835(5) 0.8876(2) 0.1258(1)
H4 H -0.4164(5) 0.9375(2) 0.1558(1)
H5 H 0.2087(5) 0.9441(2) 0.0934(1)
H6 H 0.5008(5) 0.9873(2) 0.0997(1)
H7 H 0.3259(5) 1.0989(2) 0.0637(1)
H8 H 0.2443(5) 0.9863(2) 0.0439(1)
H9 H 0.7421(5) 1.0519(2) 0.0580(1)
H10 H 0.5479(5) 0.8794(2) 0.0199(1)
H11 H 0.8503(5) 0.9096(2) 0.0244(1)
H12 H 0.8436(5) 0.8543(2) 0.0721(1)
H13 H 0.7066(5) 0.7535(2) 0.0522(1)
H14 H 0.2990(6) 1.0518(2) 0.0000(1)
H15 H 0.3336(7) 1.1737(2) -0.0402(1)
H16 H 0.6769(7) 1.2913(2) -0.0443(1)
H17 H 0.9871(6) 1.2855(3) -0.0084(1)
H18 H 0.9499(5) 1.1659(2) 0.0320(1)
O5 O 1.2173(5) 0.5171(2) 0.2061(1)
O6 O 1.2525(4) 0.3677(2) 0.2281(1)
N3 N 1.1635(2) 0.4539(2) 0.2244(1)
C20 C 0.9607(5) 0.4846(2) 0.2429(1)
C21 C 0.8840(6) 0.5889(2) 0.2429(1)
C22 C 0.7015(5) 0.6162(2) 0.2608(1)
C23 C 0.5958(5) 0.5388(2) 0.2773(1)
C24 C 0.6748(5) 0.4348(2) 0.2760(1)
C25 C 0.8596(5) 0.4064(2) 0.2589(1)
C26 C 0.3993(6) 0.5715(2) 0.2966(1)
O7 O 0.3393(4) 0.6607(2) 0.3009(1)
O8 O 0.3040(3) 0.4846(1) 0.3081(1)
N4 N 0.1086(4) 0.5037(2) 0.3271(1)
C27 C 0.0286(5) 0.4135(2) 0.3351(1)
C28 C -0.1849(5) 0.4159(2) 0.3539(1)
C29 C -0.1542(6) 0.3436(2) 0.3796(1)
C30 C -0.0762(5) 0.2323(2) 0.3713(1)
C31 C 0.1493(5) 0.2383(2) 0.3542(1)
C32 C 0.1196(6) 0.3056(2) 0.3278(1)
C33 C -0.0596(5) 0.1588(2) 0.3964(1)
C34 C -0.2409(5) 0.0854(2) 0.4017(1)
C35 C -0.2302(6) 0.0176(3) 0.4246(1)
C36 C -0.0392(7) 0.0212(2) 0.4420(1)
C37 C 0.1395(7) 0.0934(3) 0.4380(1)
C38 C 0.1272(6) 0.1617(2) 0.4150(1)
H19 H 0.9644(6) 0.6473(2) 0.2293(1)
H20 H 0.6415(5) 0.6976(2) 0.2619(1)
H21 H 0.5897(5) 0.3750(2) 0.2888(1)
H22 H 0.9230(5) 0.3255(2) 0.2581(1)
H23 H -0.2129(5) 0.4696(2) 0.3610(1)
H24 H -0.3373(5) 0.3896(2) 0.3421(1)
H25 H -0.3209(5) 0.3384(2) 0.3906(1)
H26 H -0.0223(5) 0.3777(2) 0.3933(1)
H27 H -0.2099(5) 0.1972(2) 0.3580(1)
H28 H 0.2867(5) 0.2729(2) 0.3671(1)
H29 H 0.2002(5) 0.1588(2) 0.3482(1)
H30 H -0.0042(6) 0.2669(2) 0.3139(1)
H31 H 0.2887(6) 0.3132(2) 0.3175(1)
H32 H -0.3910(5) 0.0816(2) 0.3877(1)
H33 H -0.3723(6) -0.0378(3) 0.4286(1)
H34 H -0.0284(7) -0.0339(2) 0.4594(1)
H35 H 0.2869(7) 0.0973(3) 0.4524(1)
H36 H 0.2678(6) 0.2185(2) 0.4117(1)
loop_
_geom_bond_atom_site_label_1
_geom_bond_atom_site_label_2
_geom_bond_site_symmetry_1
_geom_bond_site_symmetry_2
O1 N1 1_555 1_555
O2 N1 1_555 1_555
N1 C1 1_555 1_555
C1 C2 1_555 1_555
C2 C3 1_555 1_555
C3 C4 1_555 1_555
C4 C5 1_555 1_555
C5 C6 1_555 1_555
C6 C1 1_555 1_555
C7 C4 1_555 1_555
O3 C7 1_555 1_555
O4 C7 1_555 1_555
N2 O4 1_555 1_555
C8 N2 1_555 1_555
C9 C8 1_555 1_555
C10 C9 1_555 1_555
C11 C10 1_555 1_555
C12 C11 1_555 1_555
C13 C8 1_555 1_555
C14 C11 1_555 1_555
C15 C14 1_555 1_555
C16 C15 1_555 1_555
C17 C16 1_555 1_555
C18 C17 1_555 1_555
C19 C14 1_555 1_555
O5 N3 1_555 1_555
O6 N3 1_555 1_555
N3 C20 1_555 1_555
C20 C21 1_555 1_555
C21 C22 1_555 1_555
C22 C23 1_555 1_555
C23 C24 1_555 1_555
C24 C25 1_555 1_555
C25 C20 1_555 1_555
C26 C23 1_555 1_555
O7 C26 1_555 1_555
O8 C26 1_555 1_555
N4 O8 1_555 1_555
C27 N4 1_555 1_555
C28 C27 1_555 1_555
C29 C28 1_555 1_555
C30 C29 1_555 1_555
C31 C30 1_555 1_555
C32 C27 1_555 1_555
C33 C30 1_555 1_555
C34 C33 1_555 1_555
C35 C34 1_555 1_555
C36 C35 1_555 1_555
C37 C36 1_555 1_555
C38 C33 1_555 1_555
H1 C2 1_555 1_555
H2 C3 1_555 1_555
H3 C5 1_555 1_555
H4 C6 1_555 1_555
H5 C9 1_555 1_555
H6 C9 1_555 1_555
H7 C10 1_555 1_555
H8 C10 1_555 1_555
H9 C11 1_555 1_555
H10 C12 1_555 1_555
H11 C12 1_555 1_555
H12 C13 1_555 1_555
H13 C13 1_555 1_555
H14 C15 1_555 1_555
H15 C16 1_555 1_555
H16 C17 1_555 1_555
H17 C18 1_555 1_555
H18 C19 1_555 1_555
H19 C21 1_555 1_555
H20 C22 1_555 1_555
H21 C24 1_555 1_555
H22 C25 1_555 1_555
H23 C28 1_555 1_555
H24 C28 1_555 1_555
H25 C29 1_555 1_555
H26 C29 1_555 1_555
H27 C30 1_555 1_555
H28 C31 1_555 1_555
H29 C31 1_555 1_555
H30 C32 1_555 1_555
H31 C32 1_555 1_555
H32 C34 1_555 1_555
H33 C35 1_555 1_555
H34 C36 1_555 1_555
H35 C37 1_555 1_555
H36 C38 1_555 1_555
C12 C13 1_555 1_555
C18 C19 1_555 1_555
C31 C32 1_555 1_555
C37 C38 1_555 1_555

#END
