
#######################################################################
#
#                 Cambridge Crystallographic Data Centre
#                                CCDC 
#
#######################################################################
#
# If this CIF has been generated from an entry in the Cambridge 
# Structural Database, then it will include bibliographic, chemical, 
# crystal, experimental, refinement or atomic coordinate data resulting 
# from the CCDC's data processing and validation procedures.
#
#######################################################################

data_FEGTUH
_chemical_formula_moiety         'C16 H28 N2'
_chemical_name_systematic        
2,3-dimethyl-N,N'-bis(cyclohexyl)-1,4-diaza-1,3-butadiene
_symmetry_cell_setting           monoclinic
_symmetry_space_group_name_H-M   'P 21/c'
_symmetry_Int_Tables_number      14
_space_group_name_Hall           '-P 2ybc'
loop_
_symmetry_equiv_pos_site_id
_symmetry_equiv_pos_as_xyz
1 x,y,z
2 -x,1/2+y,1/2-z
3 -x,-y,-z
4 x,1/2-y,1/2+z
_cell_length_a                   14.076(5)
_cell_length_b                   5.8507(7)
_cell_length_c                   9.222(2)
_cell_angle_alpha                90
_cell_angle_beta                 93.81(2)
_cell_angle_gamma                90
_cell_volume                     757.794
_exptl_crystal_colour            colorless
_exptl_crystal_description       block
_cell_formula_units_Z            2
_exptl_crystal_recrystallization_method ethanol
loop_
_atom_site_label
_atom_site_type_symbol
_atom_site_fract_x
_atom_site_fract_y
_atom_site_fract_z
N1 N 0.11900(4) 0.56999(11) 0.04752(6)
C1 C 0.20298(5) 0.49758(12) 0.13822(8)
H1 H 0.1869(7) 0.4036(19) 0.2231(12)
C2 C 0.25448(5) 0.71175(13) 0.19738(8)
H2 H 0.2652(8) 0.810(2) 0.1126(13)
H3 H 0.2122(9) 0.797(2) 0.2632(14)
C3 C 0.34832(5) 0.65066(13) 0.28179(8)
H4 H 0.3800(9) 0.794(2) 0.3143(13)
H5 H 0.3351(8) 0.559(2) 0.3720(14)
C4 C 0.41305(5) 0.51401(14) 0.18782(9)
H6 H 0.4322(9) 0.612(2) 0.1055(14)
H7 H 0.4721(9) 0.475(2) 0.2470(14)
C5 C 0.36236(5) 0.29905(14) 0.12827(10)
H8 H 0.4037(10) 0.216(2) 0.0654(16)
H9 H 0.3505(9) 0.198(2) 0.2136(14)
C6 C 0.26784(5) 0.35805(13) 0.04476(8)
H10 H 0.2800(8) 0.449(2) -0.0441(13)
H11 H 0.2347(8) 0.212(2) 0.0109(13)
C7 C 0.04130(4) 0.45611(11) 0.04857(7)
C8 C 0.02512(5) 0.24530(13) 0.13767(9)
H12 H 0.0700(11) 0.125(3) 0.1172(17)
H13 H -0.0400(10) 0.188(2) 0.1201(16)
H14 H 0.0367(10) 0.272(3) 0.2399(17)
N1B N -0.11900(4) 0.43001(11) -0.04752(6)
C1B C -0.20298(5) 0.50242(12) -0.13822(8)
H1B H -0.1869(7) 0.5964(19) -0.2231(12)
C2B C -0.25448(5) 0.28825(13) -0.19738(8)
H2B H -0.2652(8) 0.190(2) -0.1126(13)
H3B H -0.2122(9) 0.203(2) -0.2632(14)
C3B C -0.34832(5) 0.34934(13) -0.28179(8)
H4B H -0.3800(9) 0.206(2) -0.3143(13)
H5B H -0.3351(8) 0.441(2) -0.3720(14)
C4B C -0.41305(5) 0.48599(14) -0.18782(9)
H6B H -0.4322(9) 0.388(2) -0.1055(14)
H7B H -0.4721(9) 0.525(2) -0.2470(14)
C5B C -0.36236(5) 0.70095(14) -0.12827(10)
H8B H -0.4037(10) 0.784(2) -0.0654(16)
H9B H -0.3505(9) 0.802(2) -0.2136(14)
C6B C -0.26784(5) 0.64195(13) -0.04476(8)
H10B H -0.2800(8) 0.551(2) 0.0441(13)
H11B H -0.2347(8) 0.788(2) -0.0109(13)
C7B C -0.04130(4) 0.54389(11) -0.04857(7)
C8B C -0.02512(5) 0.75470(13) -0.13767(9)
H12B H -0.0700(11) 0.875(3) -0.1172(17)
H13B H 0.0400(10) 0.812(2) -0.1201(16)
H14B H -0.0367(10) 0.728(3) -0.2399(17)
loop_
_geom_bond_atom_site_label_1
_geom_bond_atom_site_label_2
_geom_bond_site_symmetry_1
_geom_bond_site_symmetry_2
N1 C1 1_555 1_555
C1 H1 1_555 1_555
C2 C1 1_555 1_555
H2 C2 1_555 1_555
H3 C2 1_555 1_555
C3 C2 1_555 1_555
H4 C3 1_555 1_555
H5 C3 1_555 1_555
C4 C3 1_555 1_555
H6 C4 1_555 1_555
H7 C4 1_555 1_555
C5 C4 1_555 1_555
H8 C5 1_555 1_555
H9 C5 1_555 1_555
C6 C1 1_555 1_555
H10 C6 1_555 1_555
H11 C6 1_555 1_555
C7 N1 1_555 1_555
C8 C7 1_555 1_555
H12 C8 1_555 1_555
H13 C8 1_555 1_555
H14 C8 1_555 1_555
N1B C1B 1_555 1_555
C1B H1B 1_555 1_555
C2B C1B 1_555 1_555
H2B C2B 1_555 1_555
H3B C2B 1_555 1_555
C3B C2B 1_555 1_555
H4B C3B 1_555 1_555
H5B C3B 1_555 1_555
C4B C3B 1_555 1_555
H6B C4B 1_555 1_555
H7B C4B 1_555 1_555
C5B C4B 1_555 1_555
H8B C5B 1_555 1_555
H9B C5B 1_555 1_555
C6B C1B 1_555 1_555
H10B C6B 1_555 1_555
H11B C6B 1_555 1_555
C7B C7 1_555 1_555
C8B C7B 1_555 1_555
H12B C8B 1_555 1_555
H13B C8B 1_555 1_555
H14B C8B 1_555 1_555
C5 C6 1_555 1_555
N1B C7B 1_555 1_555
C5B C6B 1_555 1_555

#END
