
#######################################################################
#
#                 Cambridge Crystallographic Data Centre
#                                CCDC 
#
#######################################################################
#
# If this CIF has been generated from an entry in the Cambridge 
# Structural Database, then it will include bibliographic, chemical, 
# crystal, experimental, refinement or atomic coordinate data resulting 
# from the CCDC's data processing and validation procedures.
#
#######################################################################

data_FEGVET
_chemical_name_common            
N,N'-di(p-methoxyphenyl)acenaphthene-1,2-diimine
_chemical_formula_moiety         'C26 H20 N2 O2'
_chemical_name_systematic        
1,4-bis(4-methoxyphenyl)-2,3-(acenaphtheno)-1,4-diaza-1,3-butadiene
_symmetry_cell_setting           orthorhombic
_symmetry_space_group_name_H-M   'P b c n'
_symmetry_Int_Tables_number      60
_space_group_name_Hall           '-P 2n 2ab'
loop_
_symmetry_equiv_pos_site_id
_symmetry_equiv_pos_as_xyz
1 x,y,z
2 1/2-x,1/2-y,1/2+z
3 -x,y,1/2-z
4 1/2+x,1/2-y,-z
5 -x,-y,-z
6 1/2+x,1/2+y,1/2-z
7 x,-y,1/2+z
8 1/2-x,1/2+y,z
_cell_length_a                   19.851(4)
_cell_length_b                   8.913(1)
_cell_length_c                   10.936(2)
_cell_angle_alpha                90
_cell_angle_beta                 90
_cell_angle_gamma                90
_cell_volume                     1934.93
_exptl_crystal_colour            orange
_exptl_crystal_description       plate
_cell_formula_units_Z            4
loop_
_atom_site_label
_atom_site_type_symbol
_atom_site_fract_x
_atom_site_fract_y
_atom_site_fract_z
O1 O 0.28801(4) 0.41384(10) 0.39306(8)
N1 N 0.04998(5) 0.35759(11) 0.65873(9)
C1 C 0.03928(5) 0.07416(11) 0.66822(10)
C2 C 0.07612(6) 0.00143(13) 0.57925(11)
H1 H 0.1025(7) 0.0573(17) 0.5210(14)
C3 C 0.07509(6) -0.15773(13) 0.57558(11)
H2 H 0.1010(8) -0.2067(17) 0.5121(14)
C4 C 0.03943(6) -0.24245(13) 0.65889(12)
H3 H 0.0413(7) -0.3505(18) 0.6572(13)
C5 C 0.0000 -0.17072(17) 0.7500
C6 C 0.0000 -0.01277(17) 0.7500
C7 C 0.02679(5) 0.23390(12) 0.69989(10)
C8 C 0.10747(6) 0.35998(12) 0.58178(11)
C9 C 0.10770(6) 0.44584(13) 0.47543(11)
H4 H 0.0657(8) 0.4937(18) 0.4478(14)
C10 C 0.16683(6) 0.46343(13) 0.40783(11)
H5 H 0.1660(8) 0.5233(18) 0.3330(14)
C11 C 0.22642(6) 0.39798(13) 0.44862(10)
C12 C 0.22614(6) 0.30931(13) 0.55374(11)
H6 H 0.2688(8) 0.2618(19) 0.5798(14)
C13 C 0.16736(6) 0.29171(13) 0.61996(11)
H7 H 0.1680(8) 0.2338(18) 0.6954(14)
C14 C 0.29314(7) 0.52764(15) 0.30181(13)
H8 H 0.2750(8) 0.6226(19) 0.3321(14)
H9 H 0.2680(8) 0.4987(19) 0.2279(15)
H10 H 0.3408(9) 0.5375(19) 0.2821(16)
O1B O -0.28801(4) 0.41384(10) 1.10694(8)
N1B N -0.04998(5) 0.35759(11) 0.84127(9)
C1B C -0.03928(5) 0.07416(11) 0.83178(10)
C2B C -0.07612(6) 0.00143(13) 0.92075(11)
H1B H -0.1025(7) 0.0573(17) 0.9790(14)
C3B C -0.07509(6) -0.15773(13) 0.92442(11)
H2B H -0.1010(8) -0.2067(17) 0.9879(14)
C4B C -0.03943(6) -0.24245(13) 0.84111(12)
H3B H -0.0413(7) -0.3505(18) 0.8428(13)
C7B C -0.02679(5) 0.23390(12) 0.80011(10)
C8B C -0.10747(6) 0.35998(12) 0.91822(11)
C9B C -0.10770(6) 0.44584(13) 1.02457(11)
H4B H -0.0657(8) 0.4937(18) 1.0522(14)
C10B C -0.16683(6) 0.46343(13) 1.09217(11)
H5B H -0.1660(8) 0.5233(18) 1.1670(14)
C11B C -0.22642(6) 0.39798(13) 1.05138(10)
C12B C -0.22614(6) 0.30931(13) 0.94626(11)
H6B H -0.2688(8) 0.2618(19) 0.9202(14)
C13B C -0.16736(6) 0.29171(13) 0.88004(11)
H7B H -0.1680(8) 0.2338(18) 0.8046(14)
C14B C -0.29314(7) 0.52764(15) 1.19819(13)
H8B H -0.2750(8) 0.6226(19) 1.1679(14)
H9B H -0.2680(8) 0.4987(19) 1.2721(15)
H10B H -0.3408(9) 0.5375(19) 1.2179(16)
loop_
_geom_bond_atom_site_label_1
_geom_bond_atom_site_label_2
_geom_bond_site_symmetry_1
_geom_bond_site_symmetry_2
O1 C11 1_555 1_555
N1 C7 1_555 1_555
C1 C2 1_555 1_555
C2 H1 1_555 1_555
C3 C2 1_555 1_555
H2 C3 1_555 1_555
C4 C3 1_555 1_555
H3 C4 1_555 1_555
C5 C4 1_555 1_555
C6 C1 1_555 1_555
C7 C1 1_555 1_555
C8 N1 1_555 1_555
C9 C8 1_555 1_555
H4 C9 1_555 1_555
C10 C9 1_555 1_555
H5 C10 1_555 1_555
C11 C10 1_555 1_555
C12 C11 1_555 1_555
H6 C12 1_555 1_555
C13 C8 1_555 1_555
H7 C13 1_555 1_555
C14 O1 1_555 1_555
H8 C14 1_555 1_555
H9 C14 1_555 1_555
H10 C14 1_555 1_555
O1B C11B 1_555 1_555
N1B C7B 1_555 1_555
C1B C6 1_555 1_555
C2B C1B 1_555 1_555
H1B C2B 1_555 1_555
C3B C2B 1_555 1_555
H2B C3B 1_555 1_555
C4B C5 1_555 1_555
H3B C4B 1_555 1_555
C7B C7 1_555 1_555
C8B N1B 1_555 1_555
C9B C8B 1_555 1_555
H4B C9B 1_555 1_555
C10B C9B 1_555 1_555
H5B C10B 1_555 1_555
C11B C10B 1_555 1_555
C12B C11B 1_555 1_555
H6B C12B 1_555 1_555
C13B C8B 1_555 1_555
H7B C13B 1_555 1_555
C14B O1B 1_555 1_555
H8B C14B 1_555 1_555
H9B C14B 1_555 1_555
H10B C14B 1_555 1_555
C5 C6 1_555 1_555
C12 C13 1_555 1_555
C1B C7B 1_555 1_555
C3B C4B 1_555 1_555
C12B C13B 1_555 1_555

#END
