
#######################################################################
#
#                 Cambridge Crystallographic Data Centre
#                                CCDC 
#
#######################################################################
#
# If this CIF has been generated from an entry in the Cambridge 
# Structural Database, then it will include bibliographic, chemical, 
# crystal, experimental, refinement or atomic coordinate data resulting 
# from the CCDC's data processing and validation procedures.
#
#######################################################################

data_FEGWAP02
_chemical_compound_source        'Helenium species'
_chemical_name_common            Helenalin
_chemical_formula_moiety         'C15 H18 O4'
_chemical_name_systematic        
'6\a,8\b-Dihydroxy-4-oxoambrosa-2,11(13)-dien-12-oic acid 12,8-lactone'
_symmetry_cell_setting           orthorhombic
_symmetry_space_group_name_H-M   'P 21 21 21'
_symmetry_Int_Tables_number      19
_space_group_name_Hall           'P 2ac 2ab'
loop_
_symmetry_equiv_pos_site_id
_symmetry_equiv_pos_as_xyz
1 x,y,z
2 1/2-x,-y,1/2+z
3 1/2+x,1/2-y,-z
4 -x,1/2+y,1/2-z
_cell_length_a                   7.816(1)
_cell_length_b                   7.847(1)
_cell_length_c                   22.148(4)
_cell_angle_alpha                90
_cell_angle_beta                 90
_cell_angle_gamma                90
_cell_volume                     1358.38
_cell_formula_units_Z            4
loop_
_atom_site_label
_atom_site_type_symbol
_atom_site_fract_x
_atom_site_fract_y
_atom_site_fract_z
C1 C -0.2426(4) 0.3914(4) 0.8492(1)
C2 C -0.3780(5) 0.2556(6) 0.8582(2)
C3 C -0.3275(5) 0.1289(6) 0.8926(2)
C4 C -0.1528(5) 0.1626(5) 0.9149(1)
C5 C -0.1102(4) 0.3486(4) 0.8987(1)
C6 C 0.0736(4) 0.3603(4) 0.8762(1)
C7 C 0.1296(4) 0.5334(4) 0.8504(1)
C8 C 0.0053(4) 0.6513(4) 0.8151(1)
C9 C -0.1593(4) 0.7051(4) 0.8454(2)
C10 C -0.3067(4) 0.5745(5) 0.8441(1)
C11 C 0.2153(4) 0.6597(4) 0.8913(1)
C12 C 0.2106(5) 0.8235(5) 0.8586(2)
C13 C 0.2907(6) 0.6441(7) 0.9436(2)
C14 C -0.4136(5) 0.5987(6) 0.7869(2)
C15 C -0.1373(5) 0.4468(5) 0.9588(1)
O1 O -0.0604(4) 0.0650(4) 0.9420(1)
O2 O 0.0943(3) 0.2398(3) 0.8277(1)
O3 O 0.1078(3) 0.8095(3) 0.8100(1)
O4 O 0.2878(3) 0.9540(3) 0.8692(1)
loop_
_geom_bond_atom_site_label_1
_geom_bond_atom_site_label_2
_geom_bond_site_symmetry_1
_geom_bond_site_symmetry_2
C1 C2 1_555 1_555
C2 C3 1_555 1_555
C3 C4 1_555 1_555
C4 C5 1_555 1_555
C5 C1 1_555 1_555
C6 C5 1_555 1_555
C7 C6 1_555 1_555
C8 C7 1_555 1_555
C9 C8 1_555 1_555
C10 C1 1_555 1_555
C11 C7 1_555 1_555
C12 C11 1_555 1_555
C13 C11 1_555 1_555
C14 C10 1_555 1_555
C15 C5 1_555 1_555
O1 C4 1_555 1_555
O2 C6 1_555 1_555
O3 C8 1_555 1_555
O4 C12 1_555 1_555
C9 C10 1_555 1_555
C12 O3 1_555 1_555

#END
