
#######################################################################
#
#                 Cambridge Crystallographic Data Centre
#                                CCDC 
#
#######################################################################
#
# If this CIF has been generated from an entry in the Cambridge 
# Structural Database, then it will include bibliographic, chemical, 
# crystal, experimental, refinement or atomic coordinate data resulting 
# from the CCDC's data processing and validation procedures.
#
#######################################################################

data_FEGZEY
_chemical_formula_moiety         'C30 H27 B1 F15 O2 P1 S1'
_chemical_name_systematic        
tri-t-butyl-((tris(pentafluorophenyl)borato)oxysulfinyl)phosphonium
_symmetry_cell_setting           monoclinic
_symmetry_space_group_name_H-M   'P 21/c'
_symmetry_Int_Tables_number      14
_space_group_name_Hall           '-P 2ybc'
loop_
_symmetry_equiv_pos_site_id
_symmetry_equiv_pos_as_xyz
1 x,y,z
2 -x,1/2+y,1/2-z
3 -x,-y,-z
4 x,1/2-y,1/2+z
_cell_length_a                   9.4942(4)
_cell_length_b                   29.0008(13)
_cell_length_c                   11.5368(5)
_cell_angle_alpha                90
_cell_angle_beta                 90.018(2)
_cell_angle_gamma                90
_cell_volume                     3176.54
_exptl_crystal_colour            colorless
_exptl_crystal_description       prism
_cell_formula_units_Z            4
loop_
_atom_site_label
_atom_site_type_symbol
_atom_site_fract_x
_atom_site_fract_y
_atom_site_fract_z
P1 P 0.01641(5) 0.155603(15) -0.03917(4)
S1 S 0.00605(5) 0.144841(14) 0.15599(4)
O1 O 0.15937(13) 0.12586(4) 0.17539(10)
B1 B 0.1933(2) 0.10149(7) 0.29320(18)
F1 F 0.25999(13) 0.08341(4) 0.52983(9)
C1 C 0.1763(2) 0.18965(7) -0.08348(17)
O2 O -0.00733(16) 0.19097(4) 0.20673(11)
F2 F 0.43049(14) 0.13178(5) 0.66886(10)
C2 C 0.3073(2) 0.15827(7) -0.07876(19)
H1 H 0.3907 0.1760 -0.1015
H2 H 0.2946 0.1323 -0.1320
H3 H 0.3197 0.1466 0.0003
F3 F 0.56303(14) 0.20862(5) 0.58911(11)
C3 C 0.1627(2) 0.20899(7) -0.20753(18)
H4 H 0.2478 0.2264 -0.2272
H5 H 0.0805 0.2294 -0.2119
H6 H 0.1512 0.1835 -0.2623
F4 F 0.52654(13) 0.23480(4) 0.36440(12)
C4 C 0.1983(2) 0.22909(7) 0.00296(18)
H7 H 0.2816 0.2470 -0.0194
H8 H 0.2121 0.2164 0.0808
H9 H 0.1154 0.2492 0.0028
F5 F 0.35679(12) 0.18945(4) 0.22646(10)
C5 C -0.1528(2) 0.18832(7) -0.06382(19)
F6 F 0.03612(12) 0.15316(4) 0.48352(9)
C6 C -0.1298(2) 0.24011(7) -0.0344(2)
H10 H -0.2178 0.2571 -0.0467
H11 H -0.0563 0.2528 -0.0847
H12 H -0.1009 0.2431 0.0468
F7 F -0.22739(12) 0.13950(4) 0.54475(11)
C7 C -0.2706(2) 0.17131(8) 0.0174(2)
H13 H -0.3570 0.1888 0.0023
H14 H -0.2418 0.1758 0.0982
H15 H -0.2881 0.1385 0.0034
F8 F -0.38012(12) 0.06844(5) 0.45109(12)
C8 C -0.2014(3) 0.18427(8) -0.19046(19)
H16 H -0.2898 0.2013 -0.2007
H17 H -0.2162 0.1517 -0.2098
H18 H -0.1292 0.1972 -0.2416
F9 F -0.25579(12) 0.01151(4) 0.29426(11)
C9 C 0.0110(2) 0.09515(6) -0.10033(15)
F10 F 0.00141(11) 0.02857(3) 0.21833(9)
C10 C 0.1234(2) 0.06403(6) -0.04420(18)
H19 H 0.1164 0.0329 -0.0766
H20 H 0.1079 0.0628 0.0397
H21 H 0.2172 0.0766 -0.0599
F11 F 0.43581(12) 0.10224(4) 0.14095(10)
C11 C -0.1318(2) 0.07319(7) -0.07167(19)
H22 H -0.1357 0.0420 -0.1044
H23 H -0.2075 0.0920 -0.1049
H24 H -0.1433 0.0715 0.0126
F12 F 0.59444(12) 0.03163(4) 0.07472(10)
C12 C 0.0349(3) 0.09557(7) -0.23253(16)
H25 H 0.0280 0.0640 -0.2626
H26 H 0.1287 0.1080 -0.2494
H27 H -0.0367 0.1149 -0.2696
F13 F 0.54259(13) -0.05459(4) 0.15793(11)
C13 C 0.29439(19) 0.13421(6) 0.37223(16)
C14 C 0.3224(2) 0.12162(7) 0.48633(16)
F14 F 0.33116(13) -0.06769(4) 0.31384(10)
F15 F 0.17598(12) 0.00215(4) 0.38646(10)
C15 C 0.4109(2) 0.14570(7) 0.55877(17)
C16 C 0.4803(2) 0.18381(7) 0.51839(18)
C17 C 0.4611(2) 0.19686(7) 0.40595(19)
C18 C 0.3695(2) 0.17267(6) 0.33586(17)
C19 C 0.03808(18) 0.09008(6) 0.35136(15)
C20 C -0.0296(2) 0.11689(6) 0.43363(16)
C21 C -0.1681(2) 0.11056(7) 0.46766(16)
C22 C -0.2460(2) 0.07535(7) 0.42127(17)
C23 C -0.1830(2) 0.04667(7) 0.33998(17)
C24 C -0.04689(19) 0.05519(6) 0.30644(16)
C25 C 0.28951(19) 0.05588(6) 0.26053(15)
C26 C 0.40272(19) 0.06039(6) 0.18478(16)
C27 C 0.4883(2) 0.02457(6) 0.14946(15)
C28 C 0.4636(2) -0.01893(7) 0.19302(17)
C29 C 0.3577(2) -0.02513(6) 0.27193(17)
C30 C 0.27560(19) 0.01175(6) 0.30576(16)
loop_
_geom_bond_atom_site_label_1
_geom_bond_atom_site_label_2
_geom_bond_site_symmetry_1
_geom_bond_site_symmetry_2
P1 S1 1_555 1_555
S1 O1 1_555 1_555
O1 B1 1_555 1_555
B1 C13 1_555 1_555
F1 C14 1_555 1_555
C1 P1 1_555 1_555
O2 S1 1_555 1_555
F2 C15 1_555 1_555
C2 C1 1_555 1_555
H1 C2 1_555 1_555
H2 C2 1_555 1_555
H3 C2 1_555 1_555
F3 C16 1_555 1_555
C3 C1 1_555 1_555
H4 C3 1_555 1_555
H5 C3 1_555 1_555
H6 C3 1_555 1_555
F4 C17 1_555 1_555
C4 C1 1_555 1_555
H7 C4 1_555 1_555
H8 C4 1_555 1_555
H9 C4 1_555 1_555
F5 C18 1_555 1_555
C5 P1 1_555 1_555
F6 C20 1_555 1_555
C6 C5 1_555 1_555
H10 C6 1_555 1_555
H11 C6 1_555 1_555
H12 C6 1_555 1_555
F7 C21 1_555 1_555
C7 C5 1_555 1_555
H13 C7 1_555 1_555
H14 C7 1_555 1_555
H15 C7 1_555 1_555
F8 C22 1_555 1_555
C8 C5 1_555 1_555
H16 C8 1_555 1_555
H17 C8 1_555 1_555
H18 C8 1_555 1_555
F9 C23 1_555 1_555
C9 P1 1_555 1_555
F10 C24 1_555 1_555
C10 C9 1_555 1_555
H19 C10 1_555 1_555
H20 C10 1_555 1_555
H21 C10 1_555 1_555
F11 C26 1_555 1_555
C11 C9 1_555 1_555
H22 C11 1_555 1_555
H23 C11 1_555 1_555
H24 C11 1_555 1_555
F12 C27 1_555 1_555
C12 C9 1_555 1_555
H25 C12 1_555 1_555
H26 C12 1_555 1_555
H27 C12 1_555 1_555
F13 C28 1_555 1_555
C13 C14 1_555 1_555
C14 C15 1_555 1_555
F14 C29 1_555 1_555
F15 C30 1_555 1_555
C15 C16 1_555 1_555
C16 C17 1_555 1_555
C17 C18 1_555 1_555
C18 C13 1_555 1_555
C19 B1 1_555 1_555
C20 C19 1_555 1_555
C21 C20 1_555 1_555
C22 C21 1_555 1_555
C23 C22 1_555 1_555
C24 C19 1_555 1_555
C25 B1 1_555 1_555
C26 C25 1_555 1_555
C27 C26 1_555 1_555
C28 C27 1_555 1_555
C29 C28 1_555 1_555
C30 C25 1_555 1_555
C23 C24 1_555 1_555
C29 C30 1_555 1_555

#END
