
#######################################################################
#
#                 Cambridge Crystallographic Data Centre
#                                CCDC 
#
#######################################################################
#
# If this CIF has been generated from an entry in the Cambridge 
# Structural Database, then it will include bibliographic, chemical, 
# crystal, experimental, refinement or atomic coordinate data resulting 
# from the CCDC's data processing and validation procedures.
#
#######################################################################

data_FEHCED
_chemical_formula_moiety         'C20 H14 F6 O4'
_chemical_name_systematic        
'(Z)-methyl 2-((2S,5S)-2,5-diphenyl-2,5-bis(trifluoromethyl)-1,3-dioxolan-4-ylidene)acetate'
_symmetry_cell_setting           orthorhombic
_symmetry_space_group_name_H-M   'P b c a'
_symmetry_Int_Tables_number      61
_space_group_name_Hall           '-P 2ac 2ab'
loop_
_symmetry_equiv_pos_site_id
_symmetry_equiv_pos_as_xyz
1 x,y,z
2 1/2-x,-y,1/2+z
3 1/2+x,1/2-y,-z
4 -x,1/2+y,1/2-z
5 -x,-y,-z
6 1/2+x,y,1/2-z
7 1/2-x,1/2+y,z
8 x,1/2-y,1/2+z
_cell_length_a                   9.796
_cell_length_b                   18.220
_cell_length_c                   22.120
_cell_angle_alpha                90
_cell_angle_beta                 90
_cell_angle_gamma                90
_cell_volume                     3948.05
_exptl_crystal_colour            colorless
_exptl_crystal_description       block
_cell_formula_units_Z            8
loop_
_atom_site_label
_atom_site_type_symbol
_atom_site_fract_x
_atom_site_fract_y
_atom_site_fract_z
O1 O 0.10449(15) 0.10403(8) 0.07004(6)
F1 F 0.43299(15) 0.15022(9) 0.12501(8)
O2 O 0.16377(16) 0.14007(10) 0.16451(7)
F2 F -0.10145(18) 0.15615(9) 0.00168(7)
F3 F 0.00452(19) 0.24111(9) 0.04876(8)
O3 O -0.04128(19) 0.28566(10) 0.27465(9)
F4 F 0.37229(17) 0.12293(10) 0.03504(8)
F5 F 0.29056(19) 0.21790(9) 0.07841(10)
C1 C 0.2116(2) 0.10252(12) 0.11291(9)
F6 F -0.19675(17) 0.21113(9) 0.07656(8)
C2 C 0.0321(3) 0.23049(13) 0.25203(11)
O4 O 0.13667(19) 0.21013(11) 0.27377(8)
C3 C -0.1176(2) 0.06196(12) 0.10599(10)
C4 C 0.0305(2) 0.15951(11) 0.15762(10)
C5 C 0.2568(2) 0.02560(13) 0.12835(11)
C6 C -0.0193(2) 0.12647(12) 0.09882(9)
C7 C -0.0330(2) 0.20094(12) 0.19731(11)
H1 H -0.1242 0.2122 0.1904
C8 C -0.0902(3) -0.00401(13) 0.07717(10)
H2 H -0.0104 -0.0094 0.0549
C9 C 0.3282(3) 0.14889(14) 0.08721(13)
C10 C 0.2835(3) -0.02409(14) 0.08330(13)
H3 H 0.2732 -0.0101 0.0431
C11 C -0.0789(3) 0.18469(15) 0.05643(13)
C12 C -0.2361(3) 0.06825(16) 0.13946(13)
H4 H -0.2555 0.1120 0.1594
C13 C -0.2981(3) -0.05468(17) 0.11417(14)
H5 H -0.3591 -0.0936 0.1166
C14 C -0.1811(3) -0.06174(14) 0.08147(11)
H6 H -0.1622 -0.1058 0.0619
C15 C -0.3258(3) 0.01014(19) 0.14354(15)
H7 H -0.4053 0.0148 0.1662
C16 C 0.2736(3) 0.00512(18) 0.18706(14)
H8 H 0.2573 0.0382 0.2183
C17 C 0.3255(3) -0.09446(16) 0.09675(19)
H9 H 0.3430 -0.1278 0.0658
C18 C 0.0163(3) 0.32146(17) 0.32718(14)
H10 H 0.0097 0.2894 0.3615
H11 H -0.0330 0.3659 0.3352
H12 H 0.1105 0.3328 0.3197
C19 C 0.3408(4) -0.1144(2) 0.1540(3)
H13 H 0.3690 -0.1619 0.1629
C20 C 0.3160(5) -0.0668(3) 0.1995(2)
H14 H 0.3271 -0.0819 0.2394
loop_
_geom_bond_atom_site_label_1
_geom_bond_atom_site_label_2
_geom_bond_site_symmetry_1
_geom_bond_site_symmetry_2
O1 C1 1_555 1_555
F1 C9 1_555 1_555
O2 C1 1_555 1_555
F2 C11 1_555 1_555
F3 C11 1_555 1_555
O3 C2 1_555 1_555
F4 C9 1_555 1_555
F5 C9 1_555 1_555
C1 C5 1_555 1_555
F6 C11 1_555 1_555
C2 O4 1_555 1_555
C3 C6 1_555 1_555
C4 O2 1_555 1_555
C5 C10 1_555 1_555
C6 O1 1_555 1_555
C7 C2 1_555 1_555
H1 C7 1_555 1_555
C8 C3 1_555 1_555
H2 C8 1_555 1_555
C9 C1 1_555 1_555
C10 H3 1_555 1_555
C11 C6 1_555 1_555
C12 C3 1_555 1_555
H4 C12 1_555 1_555
C13 H5 1_555 1_555
C14 C8 1_555 1_555
H6 C14 1_555 1_555
C15 C12 1_555 1_555
H7 C15 1_555 1_555
C16 C5 1_555 1_555
H8 C16 1_555 1_555
C17 C10 1_555 1_555
H9 C17 1_555 1_555
C18 O3 1_555 1_555
H10 C18 1_555 1_555
H11 C18 1_555 1_555
H12 C18 1_555 1_555
C19 C17 1_555 1_555
H13 C19 1_555 1_555
C20 C16 1_555 1_555
H14 C20 1_555 1_555
C4 C6 1_555 1_555
C4 C7 1_555 1_555
C13 C14 1_555 1_555
C13 C15 1_555 1_555
C19 C20 1_555 1_555

#END
