
#######################################################################
#
#                 Cambridge Crystallographic Data Centre
#                                CCDC 
#
#######################################################################
#
# If this CIF has been generated from an entry in the Cambridge 
# Structural Database, then it will include bibliographic, chemical, 
# crystal, experimental, refinement or atomic coordinate data resulting 
# from the CCDC's data processing and validation procedures.
#
#######################################################################

data_FEHCIH
_chemical_formula_moiety         'C20 H14 F6 O4'
_chemical_name_systematic        
'(Z)-methyl 2-((2S,5R)-2,5-diphenyl-2,5-bis(trifluoromethyl)-1,3-dioxolan-4-ylidene)acetate'
_symmetry_cell_setting           monoclinic
_symmetry_space_group_name_H-M   'P 21/c'
_symmetry_Int_Tables_number      14
_space_group_name_Hall           '-P 2ybc'
loop_
_symmetry_equiv_pos_site_id
_symmetry_equiv_pos_as_xyz
1 x,y,z
2 -x,1/2+y,1/2-z
3 -x,-y,-z
4 x,1/2-y,1/2+z
_cell_length_a                   13.957
_cell_length_b                   8.572
_cell_length_c                   17.061
_cell_angle_alpha                90
_cell_angle_beta                 104.70
_cell_angle_gamma                90
_cell_volume                     1974.36
_exptl_crystal_colour            colorless
_exptl_crystal_description       block
_cell_formula_units_Z            4
loop_
_atom_site_label
_atom_site_type_symbol
_atom_site_fract_x
_atom_site_fract_y
_atom_site_fract_z
O1 O 0.77136(11) 0.70814(15) 0.50169(8)
O2 O 0.72833(11) 0.75513(14) 0.61982(8)
F1 F 0.87530(10) 0.90620(18) 0.42828(9)
F2 F 0.84958(11) 1.10108(16) 0.49847(9)
F3 F 0.63289(12) 0.47021(18) 0.60374(10)
F4 F 0.92997(9) 0.9017(2) 0.55719(9)
F5 F 0.67140(13) 0.42416(18) 0.49324(10)
O3 O 0.73402(14) 0.92434(19) 0.75847(9)
C1 C 0.74139(16) 1.0327(2) 0.71694(13)
C2 C 0.67049(14) 0.9250(2) 0.43534(11)
C3 C 0.74379(13) 0.8970(2) 0.59003(11)
C4 C 0.75258(15) 0.6356(2) 0.57030(12)
F6 F 0.58257(11) 0.62253(19) 0.50254(10)
O4 O 0.74519(17) 1.18017(19) 0.74180(10)
C5 C 0.75654(14) 0.8734(2) 0.50503(11)
C6 C 0.83999(16) 0.5425(2) 0.61702(14)
C7 C 0.65860(18) 0.5368(3) 0.54216(15)
C8 C 0.74816(16) 1.0265(2) 0.63257(12)
H1 H 0.7561 1.1202 0.6074
C9 C 0.66131(18) 0.8570(3) 0.36002(12)
H2 H 0.7056 0.7798 0.3538
C10 C 0.52788(18) 1.0814(3) 0.37757(16)
H3 H 0.4821 1.1564 0.3837
C11 C 0.60310(16) 1.0377(3) 0.44387(13)
H4 H 0.6082 1.0841 0.4940
C12 C 0.85420(16) 0.9462(3) 0.49738(13)
C13 C 0.5870(2) 0.9034(3) 0.29443(15)
H5 H 0.5818 0.8586 0.2439
C14 C 0.5202(2) 1.0159(3) 0.30357(16)
H6 H 0.4701 1.0471 0.2593
C15 C 1.0007(3) 0.3777(4) 0.7045(3)
H7 H 1.0557 0.3237 0.7344
C16 C 0.8546(2) 0.5194(4) 0.69875(16)
H8 H 0.8096 0.5601 0.7252
C17 C 0.9055(3) 0.4804(4) 0.5782(2)
H9 H 0.8959 0.4936 0.5227
C18 C 0.9348(3) 0.4371(5) 0.7416(2)
H10 H 0.9437 0.4221 0.7970
C19 C 0.9872(3) 0.3965(5) 0.6232(3)
H11 H 1.0323 0.3536 0.5974
C20 C 0.7434(3) 1.2022(4) 0.82559(17)
H12 H 0.6891 1.1445 0.8363
H13 H 0.7352 1.3111 0.8355
H14 H 0.8045 1.1658 0.8605
loop_
_geom_bond_atom_site_label_1
_geom_bond_atom_site_label_2
_geom_bond_site_symmetry_1
_geom_bond_site_symmetry_2
O1 C4 1_555 1_555
O2 C3 1_555 1_555
F1 C12 1_555 1_555
F2 C12 1_555 1_555
F3 C7 1_555 1_555
F4 C12 1_555 1_555
F5 C7 1_555 1_555
O3 C1 1_555 1_555
C1 O4 1_555 1_555
C2 C5 1_555 1_555
C3 C5 1_555 1_555
C4 O2 1_555 1_555
F6 C7 1_555 1_555
O4 C20 1_555 1_555
C5 O1 1_555 1_555
C6 C4 1_555 1_555
C7 C4 1_555 1_555
C8 C1 1_555 1_555
H1 C8 1_555 1_555
C9 C2 1_555 1_555
H2 C9 1_555 1_555
C10 H3 1_555 1_555
C11 C2 1_555 1_555
H4 C11 1_555 1_555
C12 C5 1_555 1_555
C13 C9 1_555 1_555
H5 C13 1_555 1_555
C14 C10 1_555 1_555
H6 C14 1_555 1_555
C15 H7 1_555 1_555
C16 C6 1_555 1_555
H8 C16 1_555 1_555
C17 C6 1_555 1_555
H9 C17 1_555 1_555
C18 C15 1_555 1_555
H10 C18 1_555 1_555
C19 C15 1_555 1_555
H11 C19 1_555 1_555
C20 H12 1_555 1_555
H13 C20 1_555 1_555
H14 C20 1_555 1_555
C3 C8 1_555 1_555
C10 C11 1_555 1_555
C13 C14 1_555 1_555
C16 C18 1_555 1_555
C17 C19 1_555 1_555

#END
