
#######################################################################
#
#                 Cambridge Crystallographic Data Centre
#                                CCDC 
#
#######################################################################
#
# If this CIF has been generated from an entry in the Cambridge 
# Structural Database, then it will include bibliographic, chemical, 
# crystal, experimental, refinement or atomic coordinate data resulting 
# from the CCDC's data processing and validation procedures.
#
#######################################################################

data_FEHHAD
_chemical_formula_moiety         '2(C24 H20 B1 1-),C9 H24 N2 2+'
_chemical_name_systematic        
'N-Butyl-N,N-dimethylpropane-1,3-diaminium bis(tetraphenylborate)'
_symmetry_cell_setting           monoclinic
_symmetry_space_group_name_H-M   'P 21/c'
_symmetry_Int_Tables_number      14
_space_group_name_Hall           '-P 2ybc'
loop_
_symmetry_equiv_pos_site_id
_symmetry_equiv_pos_as_xyz
1 x,y,z
2 -x,1/2+y,1/2-z
3 -x,-y,-z
4 x,1/2-y,1/2+z
_cell_length_a                   17.2659(4)
_cell_length_b                   14.8731(4)
_cell_length_c                   18.4787(5)
_cell_angle_alpha                90
_cell_angle_beta                 94.267(3)
_cell_angle_gamma                90
_cell_volume                     4732.13
_exptl_crystal_colour            colorless
_exptl_crystal_description       prism
_cell_formula_units_Z            4
loop_
_atom_site_label
_atom_site_type_symbol
_atom_site_fract_x
_atom_site_fract_y
_atom_site_fract_z
N1 N 0.17221(9) 1.10224(10) 0.30278(9)
H1 H 0.1545 1.1436 0.2692
H2 H 0.2185 1.1210 0.3245
H3 H 0.1372 1.0959 0.3369
N2 N 0.31385(8) 0.91823(9) 0.12602(7)
C1 C 0.18290(10) 1.01447(12) 0.26648(10)
H4 H 0.1318 0.9923 0.2460
H5 H 0.2037 0.9702 0.3030
C2 C 0.23751(9) 1.02092(11) 0.20640(9)
H6 H 0.2873 1.0482 0.2251
H7 H 0.2144 1.0591 0.1666
C3 C 0.25126(9) 0.92663(11) 0.17857(9)
H8 H 0.2650 0.8872 0.2207
H9 H 0.2019 0.9040 0.1545
C4 C 0.39274(9) 0.95124(12) 0.15673(10)
H10 H 0.4320 0.9324 0.1233
H11 H 0.3919 1.0178 0.1571
C5 C 0.41919(10) 0.91935(13) 0.23213(10)
H12 H 0.4133 0.8533 0.2352
H13 H 0.3868 0.9473 0.2680
C6 C 0.50503(13) 0.94538(15) 0.24920(13)
H14 H 0.5383 0.9032 0.2240
H15 H 0.5138 1.0065 0.2303
C7 C 0.52822(15) 0.94354(18) 0.32886(15)
H16 H 0.5840 0.9557 0.3369
H17 H 0.5168 0.8842 0.3484
H18 H 0.4991 0.9895 0.3534
C8 C 0.29213(11) 0.96999(14) 0.05770(10)
H19 H 0.2414 0.9495 0.0367
H20 H 0.3314 0.9600 0.0228
H21 H 0.2895 1.0342 0.0690
C9 C 0.31923(12) 0.82035(12) 0.10661(10)
H22 H 0.3324 0.7852 0.1507
H23 H 0.3596 0.8121 0.0726
H24 H 0.2692 0.8000 0.0839
C10 C 0.29278(9) 0.31880(10) 0.41822(8)
C11 C 0.30290(10) 0.40156(11) 0.38308(9)
H25 H 0.3519 0.4141 0.3651
C12 C 0.24470(10) 0.46570(11) 0.37345(9)
H26 H 0.2543 0.5204 0.3492
C13 C 0.17280(10) 0.45013(11) 0.39911(9)
H27 H 0.1325 0.4935 0.3922
C14 C 0.16042(9) 0.37067(11) 0.43491(9)
H28 H 0.1115 0.3595 0.4535
C15 C 0.21925(9) 0.30670(10) 0.44399(8)
H29 H 0.2090 0.2525 0.4687
C16 C 0.43911(9) 0.27268(10) 0.47249(8)
C17 C 0.49534(10) 0.20961(12) 0.49785(10)
H30 H 0.4872 0.1481 0.4857
C18 C 0.56222(10) 0.23313(13) 0.53985(10)
H31 H 0.5986 0.1880 0.5555
C19 C 0.57612(10) 0.32158(13) 0.55897(9)
H32 H 0.6222 0.3380 0.5871
C20 C 0.52195(10) 0.38578(12) 0.53649(9)
H33 H 0.5302 0.4469 0.5499
C21 C 0.45525(9) 0.36135(11) 0.49419(8)
H34 H 0.4190 0.4069 0.4793
C22 C 0.38536(9) 0.22926(10) 0.33553(8)
C23 C 0.45859(10) 0.20350(11) 0.31559(10)
H35 H 0.4990 0.1938 0.3525
C24 C 0.47429(12) 0.19154(13) 0.24316(11)
H36 H 0.5249 0.1739 0.2319
C25 C 0.41740(12) 0.20498(12) 0.18773(10)
H37 H 0.4285 0.1978 0.1385
C26 C 0.34471(11) 0.22883(12) 0.20525(9)
H38 H 0.3044 0.2372 0.1680
C27 C 0.32960(10) 0.24084(11) 0.27724(8)
H39 H 0.2786 0.2579 0.2876
C28 C 0.33191(8) 0.14496(10) 0.45060(8)
C29 C 0.32937(9) 0.06489(10) 0.41101(9)
H40 H 0.3451 0.0658 0.3628
C30 C 0.30476(11) -0.01633(11) 0.43928(11)
H41 H 0.3037 -0.0691 0.4102
C31 C 0.28190(11) -0.02061(12) 0.50915(11)
H42 H 0.2648 -0.0757 0.5285
C32 C 0.28440(10) 0.05687(12) 0.55050(10)
H43 H 0.2690 0.0552 0.5988
C33 C 0.30933(9) 0.13696(11) 0.52186(9)
H44 H 0.3113 0.1890 0.5518
B1 B 0.36211(10) 0.24209(11) 0.41998(9)
C34 C 0.13271(9) 0.68930(10) 0.22448(8)
C35 C 0.18404(9) 0.63276(12) 0.19033(9)
H45 H 0.1643 0.5974 0.1503
C36 C 0.26252(10) 0.62638(14) 0.21276(10)
H46 H 0.2954 0.5876 0.1880
C37 C 0.29254(10) 0.67630(14) 0.27093(11)
H47 H 0.3461 0.6722 0.2864
C38 C 0.24438(11) 0.73240(13) 0.30667(10)
H48 H 0.2647 0.7667 0.3471
C39 C 0.16590(10) 0.73873(11) 0.28336(9)
H49 H 0.1337 0.7781 0.3084
C40 C 0.05332(8) 0.79376(10) 0.13646(8)
C41 C 0.03919(9) 0.88303(10) 0.15533(9)
H50 H 0.0210 0.8950 0.2016
C42 C 0.05057(9) 0.95501(11) 0.10936(10)
H51 H 0.0393 1.0144 0.1242
C43 C 0.07824(10) 0.94033(12) 0.04229(10)
H52 H 0.0855 0.9892 0.0104
C44 C 0.09529(10) 0.85335(13) 0.02192(9)
H53 H 0.1154 0.8424 -0.0237
C45 C 0.08297(9) 0.78207(11) 0.06836(8)
H54 H 0.0951 0.7229 0.0534
C46 C -0.01619(8) 0.72935(10) 0.25463(8)
C47 C -0.08293(9) 0.78323(11) 0.24233(9)
H55 H -0.0933 0.8095 0.1958
C48 C -0.13435(10) 0.79971(11) 0.29516(9)
H56 H -0.1779 0.8378 0.2846
C49 C -0.12245(10) 0.76088(12) 0.36321(9)
H57 H -0.1573 0.7721 0.3996
C50 C -0.05885(11) 0.70560(11) 0.37698(9)
H58 H -0.0503 0.6775 0.4231
C51 C -0.00720(10) 0.69063(10) 0.32393(8)
H59 H 0.0361 0.6524 0.3352
C52 C 0.00536(8) 0.62096(10) 0.14564(8)
C53 C -0.04468(9) 0.63085(11) 0.08266(9)
H60 H -0.0534 0.6894 0.0633
C54 C -0.08206(10) 0.55841(12) 0.04747(10)
H61 H -0.1155 0.5683 0.0051
C55 C -0.07062(10) 0.47237(12) 0.07402(10)
H62 H -0.0962 0.4228 0.0503
C56 C -0.02130(10) 0.45913(11) 0.13574(10)
H63 H -0.0124 0.4001 0.1542
C57 C 0.01529(9) 0.53229(10) 0.17074(9)
H64 H 0.0483 0.5218 0.2133
B2 B 0.04326(10) 0.70781(11) 0.19101(9)
loop_
_geom_bond_atom_site_label_1
_geom_bond_atom_site_label_2
_geom_bond_site_symmetry_1
_geom_bond_site_symmetry_2
N1 H1 1_555 1_555
H2 N1 1_555 1_555
H3 N1 1_555 1_555
N2 C3 1_555 1_555
C1 N1 1_555 1_555
H4 C1 1_555 1_555
H5 C1 1_555 1_555
C2 C1 1_555 1_555
H6 C2 1_555 1_555
H7 C2 1_555 1_555
C3 C2 1_555 1_555
H8 C3 1_555 1_555
H9 C3 1_555 1_555
C4 N2 1_555 1_555
H10 C4 1_555 1_555
H11 C4 1_555 1_555
C5 C4 1_555 1_555
H12 C5 1_555 1_555
H13 C5 1_555 1_555
C6 C5 1_555 1_555
H14 C6 1_555 1_555
H15 C6 1_555 1_555
C7 C6 1_555 1_555
H16 C7 1_555 1_555
H17 C7 1_555 1_555
H18 C7 1_555 1_555
C8 N2 1_555 1_555
H19 C8 1_555 1_555
H20 C8 1_555 1_555
H21 C8 1_555 1_555
C9 N2 1_555 1_555
H22 C9 1_555 1_555
H23 C9 1_555 1_555
H24 C9 1_555 1_555
C10 C11 1_555 1_555
C11 H25 1_555 1_555
C12 C11 1_555 1_555
H26 C12 1_555 1_555
C13 C12 1_555 1_555
H27 C13 1_555 1_555
C14 C13 1_555 1_555
H28 C14 1_555 1_555
C15 C10 1_555 1_555
H29 C15 1_555 1_555
C16 C17 1_555 1_555
C17 H30 1_555 1_555
C18 C17 1_555 1_555
H31 C18 1_555 1_555
C19 C18 1_555 1_555
H32 C19 1_555 1_555
C20 C19 1_555 1_555
H33 C20 1_555 1_555
C21 C16 1_555 1_555
H34 C21 1_555 1_555
C22 C23 1_555 1_555
C23 H35 1_555 1_555
C24 C23 1_555 1_555
H36 C24 1_555 1_555
C25 C24 1_555 1_555
H37 C25 1_555 1_555
C26 C25 1_555 1_555
H38 C26 1_555 1_555
C27 C22 1_555 1_555
H39 C27 1_555 1_555
C28 C29 1_555 1_555
C29 H40 1_555 1_555
C30 C29 1_555 1_555
H41 C30 1_555 1_555
C31 C30 1_555 1_555
H42 C31 1_555 1_555
C32 C31 1_555 1_555
H43 C32 1_555 1_555
C33 C28 1_555 1_555
H44 C33 1_555 1_555
C34 C35 1_555 1_555
C35 H45 1_555 1_555
C36 C35 1_555 1_555
H46 C36 1_555 1_555
C37 C36 1_555 1_555
H47 C37 1_555 1_555
C38 C37 1_555 1_555
H48 C38 1_555 1_555
C39 C34 1_555 1_555
H49 C39 1_555 1_555
C40 C41 1_555 1_555
C41 H50 1_555 1_555
C42 C41 1_555 1_555
H51 C42 1_555 1_555
C43 C42 1_555 1_555
H52 C43 1_555 1_555
C44 C43 1_555 1_555
H53 C44 1_555 1_555
C45 C40 1_555 1_555
H54 C45 1_555 1_555
C46 C47 1_555 1_555
C47 H55 1_555 1_555
C48 C47 1_555 1_555
H56 C48 1_555 1_555
C49 C48 1_555 1_555
H57 C49 1_555 1_555
C50 C49 1_555 1_555
H58 C50 1_555 1_555
C51 C46 1_555 1_555
H59 C51 1_555 1_555
C52 C53 1_555 1_555
C53 H60 1_555 1_555
C54 C53 1_555 1_555
H61 C54 1_555 1_555
C55 C54 1_555 1_555
H62 C55 1_555 1_555
C56 C55 1_555 1_555
H63 C56 1_555 1_555
C57 C52 1_555 1_555
H64 C57 1_555 1_555
B1 C10 1_555 1_555
B2 C34 1_555 1_555
C14 C15 1_555 1_555
C16 B1 1_555 1_555
C20 C21 1_555 1_555
C22 B1 1_555 1_555
C26 C27 1_555 1_555
C28 B1 1_555 1_555
C32 C33 1_555 1_555
C38 C39 1_555 1_555
C40 B2 1_555 1_555
C44 C45 1_555 1_555
C46 B2 1_555 1_555
C50 C51 1_555 1_555
C52 B2 1_555 1_555
C56 C57 1_555 1_555

#END
