
#######################################################################
#
#                 Cambridge Crystallographic Data Centre
#                                CCDC 
#
#######################################################################
#
# If this CIF has been generated from an entry in the Cambridge 
# Structural Database, then it will include bibliographic, chemical, 
# crystal, experimental, refinement or atomic coordinate data resulting 
# from the CCDC's data processing and validation procedures.
#
#######################################################################

data_FEHMIO
_chemical_formula_moiety         'C24 H40 O4,0.33(C9 H9 F1 O1)'
_chemical_name_systematic        
'Deoxycholic acid p-fluoropropiophenone clathrate'
_symmetry_cell_setting           orthorhombic
_symmetry_space_group_name_H-M   'P 21 21 21'
_symmetry_Int_Tables_number      19
_space_group_name_Hall           'P 2ac 2ab'
loop_
_symmetry_equiv_pos_site_id
_symmetry_equiv_pos_as_xyz
1 x,y,z
2 1/2+x,1/2-y,-z
3 -x,1/2+y,1/2-z
4 1/2-x,-y,1/2+z
_cell_length_a                   25.321(6)
_cell_length_b                   13.596(5)
_cell_length_c                   7.230(2)
_cell_angle_alpha                90
_cell_angle_beta                 90
_cell_angle_gamma                90
_cell_volume                     2489.03
_chemical_melting_point          164deg.C
_cell_formula_units_Z            4
loop_
_atom_site_label
_atom_site_type_symbol
_atom_site_fract_x
_atom_site_fract_y
_atom_site_fract_z
C1 C 0.1249 0.2160 0.3489
C2 C 0.0688 0.1872 0.2946
C3 C 0.0702 0.1159 0.1337
C4 C 0.1000 0.1596 -0.0295
C5 C 0.1562 0.1921 0.0238
C6 C 0.1854 0.2356 -0.1435
C7 C 0.1645 0.3368 -0.1979
C8 C 0.1639 0.4090 -0.0349
C9 C 0.1333 0.3640 0.1297
C10 C 0.1569 0.2635 0.1916
C11 C 0.1262 0.4390 0.2857
C12 C 0.1007 0.5361 0.2222
C13 C 0.1327 0.5827 0.0640
C14 C 0.1375 0.5053 -0.0913
C15 C 0.1610 0.5621 -0.2540
C16 C 0.2136 0.2758 0.2644
O1 O 0.0168 0.0929 0.0851
O2 O 0.0475 0.5163 0.1627
C17 C 0.1353 0.6649 -0.2362
C18 C 0.1063 0.6680 -0.0462
C19 C 0.1868 0.6156 0.1397
C20 C 0.1069 0.7724 0.0358
C21 C 0.0796 0.7795 0.2242
C22 C 0.0839 0.8485 -0.0998
C23 C 0.0257 0.8329 -0.1525
C24 C 0.0074 0.9129 -0.2818
O3 O 0.0066 0.9997 -0.2421
O4 O -0.0073 0.8807 -0.4449
H1 H 0.1455 0.1573 0.3864
H2 H 0.1250 0.2580 0.4608
H3 H 0.0498 0.1569 0.3895
H4 H 0.0477 0.2467 0.2548
H5 H 0.0869 0.0566 0.1631
H6 H 0.0828 0.2152 -0.0763
H7 H 0.1041 0.1120 -0.1151
H8 H 0.1772 0.1339 0.0688
H9 H 0.1822 0.1911 -0.2439
H10 H 0.2269 0.2433 -0.1154
H11 H 0.1287 0.3324 -0.2525
H12 H 0.1859 0.3595 -0.3053
H13 H 0.1995 0.4258 0.0084
H14 H 0.1000 0.3527 0.0782
H15 H 0.1015 0.4147 0.3814
H16 H 0.1598 0.4552 0.3396
H17 H 0.0983 0.5818 0.3206
H18 H 0.1035 0.4897 -0.1249
H19 H 0.1508 0.5316 -0.3774
H20 H 0.1995 0.5629 -0.2442
H21 H 0.2075 0.6582 0.0487
H22 H 0.1850 0.6591 0.2540
H23 H 0.2111 0.5589 0.1739
H24 H 0.2141 0.3174 0.3873
H25 H 0.2221 0.2058 0.2964
H26 H 0.2398 0.3055 0.1685
H27 H 0.0191 0.0619 -0.0223
H28 H 0.0267 0.5354 0.2396
H29 H 0.1614 0.7163 -0.2334
H30 H 0.1110 0.6774 -0.3395
H31 H 0.0704 0.6444 -0.0719
H32 H 0.1431 0.7903 0.0443
H33 H 0.1014 0.7527 0.3202
H34 H 0.0486 0.7417 0.2221
H35 H 0.0713 0.8466 0.2504
H36 H 0.0874 0.9130 -0.0399
H37 H 0.1037 0.8505 -0.2140
H38 H 0.0041 0.8382 -0.0398
H39 H 0.0201 0.7705 -0.2141
H40 H -0.0174 0.9281 -0.5072
loop_
_geom_bond_atom_site_label_1
_geom_bond_atom_site_label_2
_geom_bond_site_symmetry_1
_geom_bond_site_symmetry_2
C1 C2 1_555 1_555
C2 C3 1_555 1_555
C3 C4 1_555 1_555
C4 C5 1_555 1_555
C5 C6 1_555 1_555
C6 C7 1_555 1_555
C7 C8 1_555 1_555
C8 C9 1_555 1_555
C9 C10 1_555 1_555
C10 C1 1_555 1_555
C11 C9 1_555 1_555
C12 C11 1_555 1_555
C13 C12 1_555 1_555
C14 C8 1_555 1_555
C15 C14 1_555 1_555
C16 C10 1_555 1_555
O1 C3 1_555 1_555
O2 C12 1_555 1_555
C17 C15 1_555 1_555
C18 C13 1_555 1_555
C19 C13 1_555 1_555
C20 C18 1_555 1_555
C21 C20 1_555 1_555
C22 C20 1_555 1_555
C23 C22 1_555 1_555
C24 C23 1_555 1_555
O3 C24 1_555 1_555
O4 C24 1_555 1_555
H1 C1 1_555 1_555
H2 C1 1_555 1_555
H3 C2 1_555 1_555
H4 C2 1_555 1_555
H5 C3 1_555 1_555
H6 C4 1_555 1_555
H7 C4 1_555 1_555
H8 C5 1_555 1_555
H9 C6 1_555 1_555
H10 C6 1_555 1_555
H11 C7 1_555 1_555
H12 C7 1_555 1_555
H13 C8 1_555 1_555
H14 C9 1_555 1_555
H15 C11 1_555 1_555
H16 C11 1_555 1_555
H17 C12 1_555 1_555
H18 C14 1_555 1_555
H19 C15 1_555 1_555
H20 C15 1_555 1_555
H21 C19 1_555 1_555
H22 C19 1_555 1_555
H23 C19 1_555 1_555
H24 C16 1_555 1_555
H25 C16 1_555 1_555
H26 C16 1_555 1_555
H27 O1 1_555 1_555
H28 O2 1_555 1_555
H29 C17 1_555 1_555
H30 C17 1_555 1_555
H31 C18 1_555 1_555
H32 C20 1_555 1_555
H33 C21 1_555 1_555
H34 C21 1_555 1_555
H35 C21 1_555 1_555
H36 C22 1_555 1_555
H37 C22 1_555 1_555
H38 C23 1_555 1_555
H39 C23 1_555 1_555
H40 O4 1_555 1_555
C5 C10 1_555 1_555
C13 C14 1_555 1_555
C17 C18 1_555 1_555

#END
