
#######################################################################
#
#                 Cambridge Crystallographic Data Centre
#                                CCDC 
#
#######################################################################
#
# If this CIF has been generated from an entry in the Cambridge 
# Structural Database, then it will include bibliographic, chemical, 
# crystal, experimental, refinement or atomic coordinate data resulting 
# from the CCDC's data processing and validation procedures.
#
#######################################################################

data_FEHWOH
_chemical_formula_moiety         'C24 H14 Cl3 N3'
_chemical_name_systematic        
'3-chloro-2-(1,8-dichloro-5,12-dihydroindolo[3,2-a]carbazol-6-yl)aniline unknown solvate'
_symmetry_cell_setting           triclinic
_symmetry_space_group_name_H-M   'P -1'
_symmetry_Int_Tables_number      2
_space_group_name_Hall           '-P 1'
loop_
_symmetry_equiv_pos_site_id
_symmetry_equiv_pos_as_xyz
1 x,y,z
2 -x,-y,-z
_cell_length_a                   8.9064(8)
_cell_length_b                   11.4166(9)
_cell_length_c                   12.9485(12)
_cell_angle_alpha                108.992(5)
_cell_angle_beta                 90.760(5)
_cell_angle_gamma                104.392(5)
_cell_volume                     1199.49
_exptl_crystal_colour            purple
_exptl_crystal_description       block
_cell_formula_units_Z            2
loop_
_atom_site_label
_atom_site_type_symbol
_atom_site_fract_x
_atom_site_fract_y
_atom_site_fract_z
Cl1 Cl 0.18691(15) 0.53071(10) 0.84507(11)
Cl2 Cl 0.41964(16) 1.29807(11) 0.96380(13)
Cl3 Cl 0.8097(2) 0.71769(17) 0.79261(14)
N1 N 0.3036(4) 1.0060(3) 0.9468(3)
H1 H 0.3041 1.0855 0.9752
N2 N 0.6954(4) 1.0196(3) 0.6980(3)
H2 H 0.7562 0.9923 0.6503
C1 C 0.5117(4) 1.0218(3) 0.8172(3)
C2 C 0.5789(4) 1.1525(3) 0.8176(3)
C3 C 0.3974(4) 0.9594(4) 0.8689(3)
C4 C 0.2408(4) 0.7899(3) 0.9088(3)
C5 C 0.1554(5) 0.6776(4) 0.9222(4)
C6 C 0.3623(4) 0.8244(3) 0.8432(3)
C7 C 0.4434(4) 0.7515(4) 0.7658(3)
H3 H 0.4189 0.6629 0.7494
C8 C 0.6921(5) 1.1439(4) 0.7428(3)
C9 C 0.0436(5) 0.6778(5) 0.9933(4)
H4 H -0.0137 0.6011 1.0000
C10 C 0.2073(4) 0.9050(4) 0.9728(3)
C11 C 0.5548(5) 1.2747(4) 0.8692(3)
C12 C 0.0982(5) 0.9106(5) 1.0482(4)
H5 H 0.0816 0.9883 1.0910
C13 C 0.7840(5) 1.2518(4) 0.7210(4)
H6 H 0.8597 1.2445 0.6722
C14 C 0.5576(5) 0.8091(4) 0.7145(3)
C15 C 0.5876(4) 0.9443(4) 0.7401(3)
C16 C 0.0156(5) 0.7958(5) 1.0568(4)
H7 H -0.0603 0.7956 1.1054
C17 C 0.6398(5) 0.7321(4) 0.6313(4)
N3 N 0.4794(5) 0.7392(5) 0.4793(3)
H8 H 0.4036 0.7372 0.5209
H9 H 0.5170 0.8182 0.4821
C18 C 0.7556(6) 1.3674(4) 0.7756(4)
H10 H 0.8144 1.4406 0.7636
C19 C 0.6424(6) 1.3798(4) 0.8482(4)
H11 H 0.6259 1.4602 0.8829
C20 C 0.7559(7) 0.6854(5) 0.6615(5)
C21 C 0.5945(8) 0.6978(6) 0.5142(5)
C22 C 0.6660(11) 0.6205(7) 0.4391(5)
H12 H 0.6374 0.5979 0.3644
C23 C 0.7749(12) 0.5782(8) 0.4725(8)
H13 H 0.8231 0.5279 0.4191
C24 C 0.8252(10) 0.6034(8) 0.5846(8)
H14 H 0.8990 0.5678 0.6049
loop_
_geom_bond_atom_site_label_1
_geom_bond_atom_site_label_2
_geom_bond_site_symmetry_1
_geom_bond_site_symmetry_2
Cl1 C5 1_555 1_555
Cl2 C11 1_555 1_555
Cl3 C20 1_555 1_555
N1 H1 1_555 1_555
N2 H2 1_555 1_555
C1 C2 1_555 1_555
C2 C8 1_555 1_555
C3 N1 1_555 1_555
C4 C5 1_555 1_555
C5 C9 1_555 1_555
C6 C3 1_555 1_555
C7 C6 1_555 1_555
H3 C7 1_555 1_555
C8 N2 1_555 1_555
C9 H4 1_555 1_555
C10 N1 1_555 1_555
C11 C2 1_555 1_555
C12 C10 1_555 1_555
H5 C12 1_555 1_555
C13 C8 1_555 1_555
H6 C13 1_555 1_555
C14 C7 1_555 1_555
C15 N2 1_555 1_555
C16 C9 1_555 1_555
H7 C16 1_555 1_555
C17 C14 1_555 1_555
N3 H8 1_555 1_555
H9 N3 1_555 1_555
C18 C13 1_555 1_555
H10 C18 1_555 1_555
C19 C11 1_555 1_555
H11 C19 1_555 1_555
C20 C17 1_555 1_555
C21 C17 1_555 1_555
C22 C21 1_555 1_555
H12 C22 1_555 1_555
C23 C22 1_555 1_555
H13 C23 1_555 1_555
C24 C20 1_555 1_555
H14 C24 1_555 1_555
C1 C3 1_555 1_555
C1 C15 1_555 1_555
C4 C6 1_555 1_555
C4 C10 1_555 1_555
C12 C16 1_555 1_555
C14 C15 1_555 1_555
N3 C21 1_555 1_555
C18 C19 1_555 1_555
C23 C24 1_555 1_555

#END
