
#######################################################################
#
#                 Cambridge Crystallographic Data Centre
#                                CCDC 
#
#######################################################################
#
# If this CIF has been generated from an entry in the Cambridge 
# Structural Database, then it will include bibliographic, chemical, 
# crystal, experimental, refinement or atomic coordinate data resulting 
# from the CCDC's data processing and validation procedures.
#
#######################################################################

data_FEHXIC
_chemical_formula_moiety         'C22 H18 N2 O6,C1 H4 O1'
_chemical_name_systematic        
'methyl 4-[(2H-1,3-benzodioxol-5-yl)methylidene]-8b-hydroxy-3-oxo-1,2,3,4,8b,8c-hexahydro-2a,4a-diazapentaleno[1,6-ab]indene-2-carboxylate methanol solvate'
_symmetry_cell_setting           triclinic
_symmetry_space_group_name_H-M   'P 1'
_symmetry_Int_Tables_number      1
_space_group_name_Hall           'P 1'
loop_
_symmetry_equiv_pos_site_id
_symmetry_equiv_pos_as_xyz
1 x,y,z
_cell_length_a                   9.297(7)
_cell_length_b                   11.515(9)
_cell_length_c                   11.957(9)
_cell_angle_alpha                61.974(7)
_cell_angle_beta                 80.333(11)
_cell_angle_gamma                67.602(10)
_cell_volume                     1044.61
_exptl_crystal_colour            colorless
_exptl_crystal_description       needle
_cell_formula_units_Z            2
loop_
_atom_site_label
_atom_site_type_symbol
_atom_site_fract_x
_atom_site_fract_y
_atom_site_fract_z
O1 O -0.5158(5) -0.2645(3) 0.8780(3)
O2 O -0.5070(4) -0.0658(3) 0.8744(3)
O3 O -0.9373(4) 0.5079(3) 0.2291(3)
O4 O -0.8625(4) 0.7131(3) 0.5631(3)
H1 H -0.8047 0.6453 0.6207
O5 O -0.7414(5) 0.7903(4) 0.1478(5)
O6 O -0.9555(4) 0.9724(3) 0.1204(3)
N1 N -0.8726(4) 0.6069(3) 0.3326(3)
N2 N -0.8156(4) 0.4214(3) 0.5322(3)
C1 C -0.8822(5) 0.4989(4) 0.3200(4)
C2 C -0.8196(5) 0.3741(4) 0.4402(4)
C3 C -0.7782(5) 0.2418(4) 0.4599(4)
H2 H -0.7940 0.2322 0.3904
C4 C -0.7127(5) 0.1092(4) 0.5711(4)
C5 C -0.6434(5) 0.1004(4) 0.6710(4)
H3 H -0.6393 0.1797 0.6714
C6 C -0.5814(5) -0.0312(4) 0.7689(4)
C7 C -0.4545(7) -0.2157(5) 0.9408(5)
H4 H -0.3417 -0.2540 0.9419
H5 H -0.4898 -0.2453 1.0277
C8 C -0.5848(6) -0.1495(4) 0.7691(4)
C9 C -0.6550(7) -0.1440(4) 0.6761(5)
H6 H -0.6615 -0.2242 0.6793
C10 C -0.7181(6) -0.0112(4) 0.5739(5)
H7 H -0.7646 -0.0036 0.5066
C11 C -0.8801(8) 1.0655(6) 0.0235(6)
H8 H -0.9547 1.1401 -0.0415
H9 H -0.7972 1.0137 -0.0130
H10 H -0.8388 1.1042 0.0608
C12 C -0.8737(5) 0.8376(4) 0.1746(4)
C13 C -0.9646(5) 0.7541(4) 0.2702(4)
H11 H -1.0554 0.7663 0.2290
C14 C -1.0193(5) 0.7947(4) 0.3825(4)
H12 H -0.9956 0.8766 0.3653
H13 H -1.1307 0.8161 0.3936
C15 C -0.9304(5) 0.6665(4) 0.5038(4)
C16 C -0.8117(5) 0.5654(3) 0.4543(4)
H14 H -0.7068 0.5686 0.4486
C17 C -1.0232(5) 0.5761(4) 0.5939(4)
C18 C -1.1522(6) 0.6096(4) 0.6608(4)
H15 H -1.1986 0.7009 0.6514
C19 C -1.2143(6) 0.5092(5) 0.7421(5)
H16 H -1.3019 0.5321 0.7887
C20 C -1.1471(5) 0.3749(4) 0.7547(4)
H17 H -1.1907 0.3079 0.8097
C21 C -1.0148(5) 0.3363(4) 0.6869(4)
H18 H -0.9702 0.2452 0.6954
C22 C -0.9534(5) 0.4384(4) 0.6070(4)
O7 O -0.2781(4) 0.8848(3) 0.0689(3)
O8 O -0.4705(5) 1.0780(3) 0.0722(3)
O9 O -0.4424(4) 0.2937(3) 0.7075(3)
O10 O -0.0199(4) 0.1005(3) 0.3697(3)
H19 H -0.0185 0.1649 0.2995
O11 O -0.0684(5) -0.1680(3) 0.8126(3)
O12 O -0.0350(5) 0.0156(4) 0.8063(4)
N3 N -0.2661(4) 0.3871(3) 0.4059(3)
N4 N -0.2375(4) 0.1983(3) 0.6036(3)
C23 C -0.3405(5) 0.7116(4) 0.2729(4)
H20 H -0.2614 0.6335 0.2704
C24 C -0.3605(5) 0.8437(4) 0.1772(4)
C25 C -0.3366(6) 1.0354(5) 0.0117(5)
H21 H -0.2599 1.0694 0.0198
H22 H -0.3580 1.0729 -0.0777
C26 C -0.4761(6) 0.9608(4) 0.1792(4)
C27 C -0.5792(8) 0.9498(5) 0.2786(5)
H23 H -0.6591 1.0281 0.2800
C28 C -0.5573(6) 0.8158(4) 0.3760(4)
H24 H -0.6228 0.8051 0.4453
C29 C -0.4420(5) 0.6982(4) 0.3737(4)
C30 C -0.4312(5) 0.5635(4) 0.4822(4)
H25 H -0.4867 0.5706 0.5524
C31 C -0.3560(5) 0.4325(4) 0.4983(4)
C32 C -0.3531(5) 0.3048(4) 0.6161(4)
C33 C 0.0454(8) -0.2568(6) 0.9136(6)
H26 H 0.1331 -0.2260 0.8921
H27 H 0.0787 -0.3518 0.9259
H28 H 0.0002 -0.2517 0.9902
C34 C -0.0954(6) -0.0328(4) 0.7656(4)
C35 C -0.2174(5) 0.0513(4) 0.6617(4)
H29 H -0.3165 0.0393 0.6976
C36 C -0.1763(6) 0.0125(4) 0.5507(4)
H30 H -0.2576 -0.0132 0.5372
H31 H -0.0793 -0.0662 0.5682
C37 C -0.1611(5) 0.2431(4) 0.4833(4)
H32 H -0.0561 0.2394 0.4914
C38 C -0.1605(5) 0.1440(4) 0.4320(4)
C39 C -0.2997(5) 0.2353(4) 0.3439(4)
C40 C -0.3667(6) 0.2006(5) 0.2730(5)
H33 H -0.3310 0.1100 0.2804
C41 C -0.4891(6) 0.3068(5) 0.1906(5)
H34 H -0.5340 0.2866 0.1411
C42 C -0.5452(5) 0.4399(5) 0.1806(4)
H35 H -0.6280 0.5079 0.1256
C43 C -0.4792(5) 0.4745(4) 0.2522(4)
H36 H -0.5175 0.5642 0.2471
C44 C -0.3543(5) 0.3698(4) 0.3313(4)
O13 O 0.0104(5) 0.3307(4) 0.1606(4)
H37 H 0.0262 0.3761 0.1903
C45 C -0.1091(9) 0.4193(7) 0.0674(6)
H38 H -0.0660 0.4697 -0.0114
H39 H -0.1868 0.4847 0.0939
H40 H -0.1555 0.3637 0.0565
O14 O 0.3145(5) 0.4849(4) 0.7624(3)
H41 H 0.3724 0.4386 0.7268
C46 C 0.2626(14) 0.3989(10) 0.8724(8)
H42 H 0.2789 0.3124 0.8702
H43 H 0.1536 0.4440 0.8810
H44 H 0.3188 0.3797 0.9430
loop_
_geom_bond_atom_site_label_1
_geom_bond_atom_site_label_2
_geom_bond_site_symmetry_1
_geom_bond_site_symmetry_2
O1 C7 1_555 1_555
O2 C6 1_555 1_555
O3 C1 1_555 1_555
O4 H1 1_555 1_555
O5 C12 1_555 1_555
O6 C11 1_555 1_555
N1 C1 1_555 1_555
N2 C2 1_555 1_555
C1 C2 1_555 1_555
C2 C3 1_555 1_555
C3 H2 1_555 1_555
C4 C3 1_555 1_555
C5 C4 1_555 1_555
H3 C5 1_555 1_555
C6 C5 1_555 1_555
C7 O2 1_555 1_555
H4 C7 1_555 1_555
H5 C7 1_555 1_555
C8 O1 1_555 1_555
C9 C8 1_555 1_555
H6 C9 1_555 1_555
C10 C4 1_555 1_555
H7 C10 1_555 1_555
C11 H8 1_555 1_555
H9 C11 1_555 1_555
H10 C11 1_555 1_555
C12 O6 1_555 1_555
C13 N1 1_555 1_555
H11 C13 1_555 1_555
C14 C13 1_555 1_555
H12 C14 1_555 1_555
H13 C14 1_555 1_555
C15 O4 1_555 1_555
C16 N1 1_555 1_555
H14 C16 1_555 1_555
C17 C15 1_555 1_555
C18 C17 1_555 1_555
H15 C18 1_555 1_555
C19 C18 1_555 1_555
H16 C19 1_555 1_555
C20 C19 1_555 1_555
H17 C20 1_555 1_555
C21 C20 1_555 1_555
H18 C21 1_555 1_555
C22 N2 1_555 1_555
O7 C24 1_555 1_555
O8 C25 1_555 1_555
O9 C32 1_555 1_555
O10 H19 1_555 1_555
O11 C33 1_555 1_555
O12 C34 1_555 1_555
N3 C31 1_555 1_555
N4 C32 1_555 1_555
C23 H20 1_555 1_555
C24 C23 1_555 1_555
C25 O7 1_555 1_555
H21 C25 1_555 1_555
H22 C25 1_555 1_555
C26 O8 1_555 1_555
C27 C26 1_555 1_555
H23 C27 1_555 1_555
C28 C27 1_555 1_555
H24 C28 1_555 1_555
C29 C23 1_555 1_555
C30 C29 1_555 1_555
H25 C30 1_555 1_555
C31 C30 1_555 1_555
C32 C31 1_555 1_555
C33 H26 1_555 1_555
H27 C33 1_555 1_555
H28 C33 1_555 1_555
C34 O11 1_555 1_555
C35 N4 1_555 1_555
H29 C35 1_555 1_555
C36 C35 1_555 1_555
H30 C36 1_555 1_555
H31 C36 1_555 1_555
C37 N3 1_555 1_555
H32 C37 1_555 1_555
C38 O10 1_555 1_555
C39 C38 1_555 1_555
C40 C39 1_555 1_555
H33 C40 1_555 1_555
C41 C40 1_555 1_555
H34 C41 1_555 1_555
C42 C41 1_555 1_555
H35 C42 1_555 1_555
C43 C42 1_555 1_555
H36 C43 1_555 1_555
C44 N3 1_555 1_555
O13 H37 1_555 1_555
C45 O13 1_555 1_555
H38 C45 1_555 1_555
H39 C45 1_555 1_555
H40 C45 1_555 1_555
O14 H41 1_555 1_555
C46 O14 1_555 1_555
H42 C46 1_555 1_555
H43 C46 1_555 1_555
H44 C46 1_555 1_555
N2 C16 1_555 1_555
C6 C8 1_555 1_555
C9 C10 1_555 1_555
C12 C13 1_555 1_555
C14 C15 1_555 1_555
C15 C16 1_555 1_555
C17 C22 1_555 1_555
C21 C22 1_555 1_555
N4 C37 1_555 1_555
C24 C26 1_555 1_555
C28 C29 1_555 1_555
C34 C35 1_555 1_555
C36 C38 1_555 1_555
C37 C38 1_555 1_555
C39 C44 1_555 1_555
C43 C44 1_555 1_555

#END
