
#######################################################################
#
#                 Cambridge Crystallographic Data Centre
#                                CCDC 
#
#######################################################################
#
# If this CIF has been generated from an entry in the Cambridge 
# Structural Database, then it will include bibliographic, chemical, 
# crystal, experimental, refinement or atomic coordinate data resulting 
# from the CCDC's data processing and validation procedures.
#
#######################################################################

data_FEHXOF
_chemical_formula_moiety         'C56 H72 O8,C3 H6 O1'
_chemical_name_systematic        
'5,11,17,23-Tetra-t-butyl-25,26,27,28-tetrakis(acetylmethoxy) calix(4)arene acetone solvate'
_symmetry_cell_setting           orthorhombic
_symmetry_space_group_name_H-M   'P b c n'
_symmetry_Int_Tables_number      60
_space_group_name_Hall           '-P 2n 2ab'
loop_
_symmetry_equiv_pos_site_id
_symmetry_equiv_pos_as_xyz
1 x,y,z
2 1/2-x,1/2-y,1/2+z
3 1/2+x,1/2-y,-z
4 -x,y,1/2-z
5 -x,-y,-z
6 1/2+x,1/2+y,1/2-z
7 1/2-x,1/2+y,z
8 x,-y,1/2+z
_cell_length_a                   19.644(7)
_cell_length_b                   12.712(3)
_cell_length_c                   22.115(7)
_cell_angle_alpha                90
_cell_angle_beta                 90
_cell_angle_gamma                90
_cell_volume                     5522.44
_chemical_melting_point          185-192deg.C
_cell_formula_units_Z            4
loop_
_atom_site_label
_atom_site_type_symbol
_atom_site_fract_x
_atom_site_fract_y
_atom_site_fract_z
O1 O 0.4303(4) -0.2203(5) 0.1990(3)
O2 O 0.3346(4) -0.3775(6) 0.2295(4)
C1 C 0.3959(5) -0.1437(8) 0.1645(5)
C2 C 0.3396(5) -0.0975(8) 0.1901(5)
C3 C 0.3091(5) -0.0172(9) 0.1590(5)
C4 C 0.3316(5) 0.0158(9) 0.1007(5)
C5 C 0.3879(6) -0.0318(8) 0.0781(5)
C6 C 0.4246(6) -0.1123(8) 0.1088(5)
C7 C 0.3191(5) -0.1265(8) 0.2531(5)
C8 C 0.2974(6) 0.106(1) 0.0677(6)
C9 C 0.3214(8) 0.127(1) 0.0081(7)
C10 C 0.298(1) 0.203(1) 0.1088(9)
C11 C 0.2222(9) 0.082(2) 0.0618(8)
C12 C 0.4365(6) -0.3240(9) 0.1781(6)
C13 C 0.3854(6) -0.4012(8) 0.2053(5)
C14 C 0.4046(7) -0.515(1) 0.1930(7)
O3 O 0.4090(3) -0.2452(5) 0.3340(3)
O4 O 0.4163(4) -0.4521(6) 0.3533(4)
C15 C 0.4076(5) -0.1354(7) 0.3369(4)
C16 C 0.4529(5) -0.0854(8) 0.3766(5)
C17 C 0.4487(5) 0.0227(8) 0.3810(5)
C18 C 0.4036(5) 0.0813(8) 0.3468(5)
C19 C 0.3638(5) 0.0312(8) 0.3065(5)
C20 C 0.3635(5) -0.0772(7) 0.3002(5)
C21 C 0.4942(5) -0.1461(8) 0.0873(5)
C22 C 0.4054(6) 0.2049(9) 0.3541(5)
C23 C 0.3602(7) 0.2591(9) 0.3085(7)
C24 C 0.374(1) 0.232(1) 0.4166(7)
C25 C 0.4764(7) 0.248(1) 0.3505(9)
C26 C 0.3564(6) -0.2936(8) 0.3654(5)
C27 C 0.3633(6) -0.4100(9) 0.3684(5)
C28 C 0.3043(7) -0.466(1) 0.3903(7)
H1 H 0.2717 0.0179 0.1771
H2 H 0.4034 -0.0100 0.0392
H3 H 0.3216 -0.2007 0.2571
H4 H 0.2735 -0.1039 0.25294
H5 H 0.2969 0.1841 -0.0086
H6 H 0.3686 0.1438 0.0096
H7 H 0.3152 0.0662 -0.0164
H8 H 0.2767 0.2599 0.0882
H9 H 0.2739 0.1876 0.1447
H10 H 0.3436 0.2210 0.1180
H11 H 0.2005 0.1381 0.0407
H12 H 0.2165 0.0186 0.0395
H13 H 0.2029 0.0746 0.1006
H14 H 0.4808 -0.3484 0.1874
H15 H 0.4302 -0.3238 0.1354
H16 H 0.4472 -0.5174 0.1726
H17 H 0.4075 -0.5522 0.2299
H18 H 0.3707 -0.5465 0.1679
H19 H 0.4782 0.0580 0.4084
H20 H 0.3348 0.0718 0.2815
H21 H 0.4990 -0.1315 0.0455
H22 H 0.4998 -0.2198 0.0939
H23 H 0.3627 0.3329 0.3142
H24 H 0.3753 0.2420 0.2689
H25 H 0.3147 0.2360 0.3137
H26 H 0.3748 0.3068 0.4218
H27 H 0.3288 0.2078 0.4183
H28 H 0.4004 0.2004 0.4475
H29 H 0.4750 0.3228 0.3552
H30 H 0.5033 0.2189 0.3821
H31 H 0.4958 0.2314 0.3126
H32 H 0.3147 -0.2770 0.3457
H33 H 0.3556 -0.2665 0.4054
H34 H 0.2690 -0.4175 0.3994
H35 H 0.2892 -0.5139 0.3602
H36 H 0.3162 -0.5039 0.4259
C21C C 0.5058(5) -0.1461(8) 0.4127(5)
C16C C 0.5471(5) -0.0854(8) 0.1234(5)
C6C C 0.5754(6) -0.1123(8) 0.3912(5)
H21C H 0.5010 -0.1315 0.4545
H22C H 0.5002 -0.2198 0.4061
C15C C 0.5924(5) -0.1354(7) 0.1631(4)
C17C C 0.5513(5) 0.0227(8) 0.1190(5)
C1C C 0.6041(5) -0.1437(8) 0.3355(5)
C5C C 0.6121(6) -0.0318(8) 0.4219(5)
O3C O 0.5910(3) -0.2452(5) 0.1660(3)
C20C C 0.6365(5) -0.0772(7) 0.1998(5)
C18C C 0.5964(5) 0.0813(8) 0.1532(5)
H19C H 0.5218 0.0580 0.0916
O1C O 0.5697(4) -0.2203(5) 0.3010(3)
C2C C 0.6604(5) -0.0975(8) 0.3099(5)
C4C C 0.6684(5) 0.0158(9) 0.3993(5)
H2C H 0.5966 -0.0100 0.4608
C26C C 0.6436(6) -0.2936(8) 0.1346(5)
C7C C 0.6809(5) -0.1265(8) 0.2469(5)
C19C C 0.6362(5) 0.0312(8) 0.1935(5)
C22C C 0.5946(6) 0.2049(9) 0.1459(5)
C12C C 0.5635(6) -0.3240(9) 0.3219(6)
C3C C 0.6909(5) -0.0172(9) 0.3410(5)
C8C C 0.7026(6) 0.106(1) 0.4323(6)
C27C C 0.6367(6) -0.4100(9) 0.1316(5)
H32C H 0.6853 -0.2770 0.1543
H33C H 0.6444 -0.2665 0.0946
H3C H 0.6784 -0.2007 0.2429
H4C H 0.7265 -0.1039 0.24706
H20C H 0.6652 0.0718 0.2185
C23C C 0.6398(7) 0.2591(9) 0.1915(7)
C24C C 0.626(1) 0.232(1) 0.0834(7)
C25C C 0.5236(7) 0.248(1) 0.1495(9)
C13C C 0.6146(6) -0.4012(8) 0.2947(5)
H14C H 0.5192 -0.3484 0.3126
H15C H 0.5698 -0.3238 0.3646
H1C H 0.7283 0.0179 0.3229
C9C C 0.6786(8) 0.127(1) 0.4919(7)
C10C C 0.702(1) 0.203(1) 0.3912(9)
C11C C 0.7778(9) 0.082(2) 0.4382(8)
O4C O 0.5837(4) -0.4521(6) 0.1467(4)
C28C C 0.6957(7) -0.466(1) 0.1097(7)
H23C H 0.6373 0.3329 0.1858
H24C H 0.6247 0.2420 0.2311
H25C H 0.6853 0.2360 0.1863
H26C H 0.6252 0.3068 0.0782
H27C H 0.6712 0.2078 0.0817
H28C H 0.5996 0.2004 0.0525
H29C H 0.5250 0.3228 0.1448
H30C H 0.4967 0.2189 0.1179
H31C H 0.5042 0.2314 0.1874
O2C O 0.6654(4) -0.3775(6) 0.2705(4)
C14C C 0.5954(7) -0.515(1) 0.3070(7)
H5C H 0.7031 0.1841 0.5086
H6C H 0.6314 0.1438 0.4904
H7C H 0.6848 0.0662 0.5164
H8C H 0.7233 0.2599 0.4118
H9C H 0.7261 0.1876 0.3553
H10C H 0.6564 0.2210 0.3820
H11C H 0.7995 0.1381 0.4593
H12C H 0.7835 0.0186 0.4605
H13C H 0.7971 0.0746 0.3994
H34C H 0.7310 -0.4175 0.1006
H35C H 0.7108 -0.5139 0.1398
H36C H 0.6838 -0.5039 0.0741
H16C H 0.5528 -0.5174 0.3274
H17C H 0.5925 -0.5522 0.2701
H18C H 0.6293 -0.5465 0.3321
loop_
_geom_bond_atom_site_label_1
_geom_bond_atom_site_label_2
_geom_bond_site_symmetry_1
_geom_bond_site_symmetry_2
O1 C1 1_555 1_555
O2 C13 1_555 1_555
C1 C2 1_555 1_555
C2 C3 1_555 1_555
C3 C4 1_555 1_555
C4 C5 1_555 1_555
C5 C6 1_555 1_555
C6 C1 1_555 1_555
C7 C2 1_555 1_555
C8 C4 1_555 1_555
C9 C8 1_555 1_555
C10 C8 1_555 1_555
C11 C8 1_555 1_555
C12 O1 1_555 1_555
C13 C12 1_555 1_555
C14 C13 1_555 1_555
O3 C15 1_555 1_555
O4 C27 1_555 1_555
C15 C16 1_555 1_555
C16 C17 1_555 1_555
C17 C18 1_555 1_555
C18 C19 1_555 1_555
C19 C20 1_555 1_555
C20 C7 1_555 1_555
C21 C6 1_555 1_555
C22 C18 1_555 1_555
C23 C22 1_555 1_555
C24 C22 1_555 1_555
C25 C22 1_555 1_555
C26 O3 1_555 1_555
C27 C26 1_555 1_555
C28 C27 1_555 1_555
H1 C3 1_555 1_555
H2 C5 1_555 1_555
H3 C7 1_555 1_555
H4 C7 1_555 1_555
H5 C9 1_555 1_555
H6 C9 1_555 1_555
H7 C9 1_555 1_555
H8 C10 1_555 1_555
H9 C10 1_555 1_555
H10 C10 1_555 1_555
H11 C11 1_555 1_555
H12 C11 1_555 1_555
H13 C11 1_555 1_555
H14 C12 1_555 1_555
H15 C12 1_555 1_555
H16 C14 1_555 1_555
H17 C14 1_555 1_555
H18 C14 1_555 1_555
H19 C17 1_555 1_555
H20 C19 1_555 1_555
H21 C21 1_555 1_555
H22 C21 1_555 1_555
H23 C23 1_555 1_555
H24 C23 1_555 1_555
H25 C23 1_555 1_555
H26 C24 1_555 1_555
H27 C24 1_555 1_555
H28 C24 1_555 1_555
H29 C25 1_555 1_555
H30 C25 1_555 1_555
H31 C25 1_555 1_555
H32 C26 1_555 1_555
H33 C26 1_555 1_555
H34 C28 1_555 1_555
H35 C28 1_555 1_555
H36 C28 1_555 1_555
C21C C16 1_555 1_555
C16C C21 1_555 1_555
C6C C21C 1_555 1_555
H21C C21C 1_555 1_555
H22C C21C 1_555 1_555
C15C C16C 1_555 1_555
C17C C16C 1_555 1_555
C1C C6C 1_555 1_555
C5C C6C 1_555 1_555
O3C C15C 1_555 1_555
C20C C15C 1_555 1_555
C18C C17C 1_555 1_555
H19C C17C 1_555 1_555
O1C C1C 1_555 1_555
C2C C1C 1_555 1_555
C4C C5C 1_555 1_555
H2C C5C 1_555 1_555
C26C O3C 1_555 1_555
C7C C20C 1_555 1_555
C19C C20C 1_555 1_555
C22C C18C 1_555 1_555
C12C O1C 1_555 1_555
C3C C2C 1_555 1_555
C8C C4C 1_555 1_555
C27C C26C 1_555 1_555
H32C C26C 1_555 1_555
H33C C26C 1_555 1_555
H3C C7C 1_555 1_555
H4C C7C 1_555 1_555
H20C C19C 1_555 1_555
C23C C22C 1_555 1_555
C24C C22C 1_555 1_555
C25C C22C 1_555 1_555
C13C C12C 1_555 1_555
H14C C12C 1_555 1_555
H15C C12C 1_555 1_555
H1C C3C 1_555 1_555
C9C C8C 1_555 1_555
C10C C8C 1_555 1_555
C11C C8C 1_555 1_555
O4C C27C 1_555 1_555
C28C C27C 1_555 1_555
H23C C23C 1_555 1_555
H24C C23C 1_555 1_555
H25C C23C 1_555 1_555
H26C C24C 1_555 1_555
H27C C24C 1_555 1_555
H28C C24C 1_555 1_555
H29C C25C 1_555 1_555
H30C C25C 1_555 1_555
H31C C25C 1_555 1_555
O2C C13C 1_555 1_555
C14C C13C 1_555 1_555
H5C C9C 1_555 1_555
H6C C9C 1_555 1_555
H7C C9C 1_555 1_555
H8C C10C 1_555 1_555
H9C C10C 1_555 1_555
H10C C10C 1_555 1_555
H11C C11C 1_555 1_555
H12C C11C 1_555 1_555
H13C C11C 1_555 1_555
H34C C28C 1_555 1_555
H35C C28C 1_555 1_555
H36C C28C 1_555 1_555
H16C C14C 1_555 1_555
H17C C14C 1_555 1_555
H18C C14C 1_555 1_555
C15 C20 1_555 1_555
C18C C19C 1_555 1_555
C2C C7C 1_555 1_555
C4C C3C 1_555 1_555

#END
