
#######################################################################
#
#                 Cambridge Crystallographic Data Centre
#                                CCDC 
#
#######################################################################
#
# If this CIF has been generated from an entry in the Cambridge 
# Structural Database, then it will include bibliographic, chemical, 
# crystal, experimental, refinement or atomic coordinate data resulting 
# from the CCDC's data processing and validation procedures.
#
#######################################################################

data_FEJLUC
_chemical_formula_moiety         'C24 H24 N2 O4 S1'
_chemical_name_systematic        
1-(2-(3-Indolyl)ethyl)-3-(E)-ethylidene-5-(4-methylphenylsulfonyl)-piperidine-2,6-dione
_symmetry_cell_setting           monoclinic
_symmetry_space_group_name_H-M   'P 21/c'
_symmetry_Int_Tables_number      14
_space_group_name_Hall           '-P 2ybc'
loop_
_symmetry_equiv_pos_site_id
_symmetry_equiv_pos_as_xyz
1 x,y,z
2 -x,1/2+y,1/2-z
3 -x,-y,-z
4 x,1/2-y,1/2+z
_cell_length_a                   12.828(2)
_cell_length_b                   13.496(3)
_cell_length_c                   13.575(2)
_cell_angle_alpha                90
_cell_angle_beta                 112.433(9)
_cell_angle_gamma                90
_cell_volume                     2172.35
_exptl_crystal_colour            colorless
_exptl_crystal_description       prism
_chemical_melting_point          '179-180 deg.C'
_cell_formula_units_Z            4
loop_
_atom_site_label
_atom_site_type_symbol
_atom_site_fract_x
_atom_site_fract_y
_atom_site_fract_z
S1 S 0.97772(5) -0.06556(5) 0.68265(6)
O1 O 0.7745(2) 0.0866(2) 0.5553(2)
O2 O 0.8457(2) 0.1318(2) 0.9040(2)
O3 O 0.9279(2) -0.0973(2) 0.7559(2)
O4 O 0.9322(2) -0.1026(2) 0.5751(2)
N1 N 0.8145(2) 0.1227(2) 0.7285(2)
N2 N 0.3175(2) 0.1123(2) 0.5894(2)
C1 C 0.8439(2) 0.0935(2) 0.6457(2)
C2 C 0.9663(2) 0.0679(2) 0.6721(2)
C3 C 1.0452(2) 0.1251(2) 0.7693(2)
C4 C 1.0092(2) 0.1173(2) 0.8620(2)
C5 C 0.8870(2) 0.1234(2) 0.8370(2)
C6 C 0.6945(2) 0.1478(2) 0.7020(2)
C7 C 0.6229(2) 0.0598(2) 0.7074(2)
C8 C 0.5033(2) 0.0913(2) 0.6784(2)
C9 C 0.4612(2) 0.1568(2) 0.7384(2)
C10 C 0.5112(2) 0.2082(2) 0.8340(2)
C11 C 0.4439(3) 0.2656(3) 0.8700(3)
C12 C 0.3287(3) 0.2724(3) 0.8130(3)
C13 C 0.2776(2) 0.2250(3) 0.7183(3)
C14 C 0.3445(2) 0.1666(2) 0.6807(2)
C15 C 0.4132(2) 0.0662(2) 0.5890(2)
C16 C 1.1233(2) -0.0877(2) 0.7387(2)
C17 C 1.1854(2) -0.0829(2) 0.6747(2)
C18 C 1.3012(2) -0.0904(2) 0.7214(2)
C19 C 1.3566(2) -0.1001(2) 0.8301(2)
C20 C 1.2921(3) -0.1069(2) 0.8920(2)
C21 C 1.1762(2) -0.1009(2) 0.8475(2)
C22 C 1.4829(3) -0.1046(3) 0.8800(3)
C23 C 1.0790(3) 0.1119(3) 0.9627(3)
C24 C 1.2053(3) 0.1101(3) 1.0043(3)
H1 H 0.9842 0.0868 0.6131
H2 H 1.1193 0.0990 0.7897
H3 H 1.0451 0.1929 0.7504
H4 H 0.6907 0.1968 0.7507
H5 H 0.6645 0.1740 0.6317
H6 H 0.6261 0.0101 0.6589
H7 H 0.6512 0.0337 0.7776
H8 H 0.5903 0.2040 0.8734
H9 H 0.4768 0.3008 0.9352
H10 H 0.2840 0.3111 0.8405
H11 H 0.1987 0.2311 0.6787
H12 H 0.4161 0.0235 0.5345
H13 H 1.1488 -0.0743 0.6001
H14 H 1.3435 -0.0891 0.6774
H15 H 1.3289 -0.1155 0.9668
H16 H 1.1334 -0.1059 0.8907
H17 H 1.5061 -0.1111 0.9550
H18 H 1.5086 -0.1598 0.8524
H19 H 1.5132 -0.0453 0.8640
H20 H 1.0458 0.1093 1.0142
H21 H 1.2346 0.1060 1.0799
H22 H 1.2295 0.0539 0.9763
H23 H 1.2322 0.1687 0.9833
H24 H 0.2483 0.0843 0.5422
loop_
_geom_bond_atom_site_label_1
_geom_bond_atom_site_label_2
_geom_bond_site_symmetry_1
_geom_bond_site_symmetry_2
S1 O3 1_555 1_555
O1 C1 1_555 1_555
O2 C5 1_555 1_555
O4 S1 1_555 1_555
N1 C1 1_555 1_555
N2 C14 1_555 1_555
C1 C2 1_555 1_555
C2 S1 1_555 1_555
C3 C2 1_555 1_555
C4 C3 1_555 1_555
C5 N1 1_555 1_555
C6 N1 1_555 1_555
C7 C6 1_555 1_555
C8 C7 1_555 1_555
C9 C8 1_555 1_555
C10 C9 1_555 1_555
C11 C10 1_555 1_555
C12 C11 1_555 1_555
C13 C12 1_555 1_555
C14 C9 1_555 1_555
C15 N2 1_555 1_555
C16 S1 1_555 1_555
C17 C16 1_555 1_555
C18 C17 1_555 1_555
C19 C18 1_555 1_555
C20 C19 1_555 1_555
C21 C16 1_555 1_555
C22 C19 1_555 1_555
C23 C4 1_555 1_555
C24 C23 1_555 1_555
H1 C2 1_555 1_555
H2 C3 1_555 1_555
H3 C3 1_555 1_555
H4 C6 1_555 1_555
H5 C6 1_555 1_555
H6 C7 1_555 1_555
H7 C7 1_555 1_555
H8 C10 1_555 1_555
H9 C11 1_555 1_555
H10 C12 1_555 1_555
H11 C13 1_555 1_555
H12 C15 1_555 1_555
H13 C17 1_555 1_555
H14 C18 1_555 1_555
H15 C20 1_555 1_555
H16 C21 1_555 1_555
H17 C22 1_555 1_555
H18 C22 1_555 1_555
H19 C22 1_555 1_555
H20 C23 1_555 1_555
H21 C24 1_555 1_555
H22 C24 1_555 1_555
H23 C24 1_555 1_555
H24 N2 1_555 1_555
C4 C5 1_555 1_555
C8 C15 1_555 1_555
C13 C14 1_555 1_555
C20 C21 1_555 1_555

#END
