
#######################################################################
#
#                 Cambridge Crystallographic Data Centre
#                                CCDC 
#
#######################################################################
#
# If this CIF has been generated from an entry in the Cambridge 
# Structural Database, then it will include bibliographic, chemical, 
# crystal, experimental, refinement or atomic coordinate data resulting 
# from the CCDC's data processing and validation procedures.
#
#######################################################################

data_FEJNAM
_chemical_formula_moiety         'C30 H28 N3 O1 1+,Br1 1-'
_chemical_name_systematic        
'(S)-1-(1-hydroxy-3-phenylpropan-2-yl)-4,5-diphenyl-3-(pyridin-2-ylmethyl)-1H-imidazol-3-ium bromide'
_symmetry_cell_setting           orthorhombic
_symmetry_space_group_name_H-M   'P 21 21 21'
_symmetry_Int_Tables_number      19
_space_group_name_Hall           'P 2ac 2ab'
loop_
_symmetry_equiv_pos_site_id
_symmetry_equiv_pos_as_xyz
1 x,y,z
2 1/2-x,-y,1/2+z
3 -x,1/2+y,1/2-z
4 1/2+x,1/2-y,-z
_cell_length_a                   10.3952(2)
_cell_length_b                   13.0547(3)
_cell_length_c                   19.9647(5)
_cell_angle_alpha                90
_cell_angle_beta                 90
_cell_angle_gamma                90
_cell_volume                     2709.33
_exptl_crystal_colour            colorless
_chemical_melting_point          '258-259 deg.C'
_cell_formula_units_Z            4
_exptl_crystal_recrystallization_method 'dichloromethane/diethyl ether'
loop_
_atom_site_label
_atom_site_type_symbol
_atom_site_fract_x
_atom_site_fract_y
_atom_site_fract_z
C1 C 0.2667(4) 0.6541(3) 0.52685(18)
H1 H 0.2813 0.7232 0.5181
C2 C 0.2390(3) 0.4881(2) 0.51302(17)
C3 C 0.2305(3) 0.5089(3) 0.57949(17)
C4 C 0.2244(4) 0.3895(3) 0.47793(17)
C5 C 0.1187(6) 0.3721(4) 0.4375(2)
H2 H 0.0581 0.4235 0.4308
C6 C 0.1038(9) 0.2770(5) 0.4068(3)
H3 H 0.0341 0.2652 0.3787
C7 C 0.1911(11) 0.2014(5) 0.4180(4)
H4 H 0.1799 0.1378 0.3978
C8 C 0.2961(10) 0.2179(5) 0.4588(4)
H5 H 0.3547 0.1654 0.4665
C9 C 0.3137(6) 0.3127(4) 0.4881(3)
H6 H 0.3856 0.3248 0.5147
C10 C 0.2073(4) 0.4374(3) 0.63548(17)
C11 C 0.0847(5) 0.4018(4) 0.6478(2)
H7 H 0.0159 0.4258 0.6225
C12 C 0.0642(7) 0.3305(5) 0.6978(3)
H8 H -0.0181 0.3047 0.7050
C13 C 0.1633(8) 0.2979(4) 0.7364(3)
H9 H 0.1482 0.2517 0.7710
C14 C 0.2850(7) 0.3324(4) 0.7248(2)
H10 H 0.3528 0.3090 0.7510
C15 C 0.3080(5) 0.4027(4) 0.6739(2)
H11 H 0.3911 0.4261 0.6659
C16 C 0.2319(4) 0.6730(3) 0.6495(2)
H12 H 0.2164 0.6245 0.6861
C17 C 0.1129(6) 0.7412(4) 0.6430(3)
H13 H 0.1115 0.7899 0.6796
H14 H 0.1182 0.7796 0.6015
C18 C 0.3538(5) 0.7327(4) 0.6659(2)
H15 H 0.3740 0.7780 0.6289
H16 H 0.3384 0.7749 0.7052
C19 C 0.4671(5) 0.6638(4) 0.6791(2)
C20 C 0.5625(6) 0.6498(6) 0.6319(3)
H17 H 0.5587 0.6848 0.5914
C21 C 0.6643(7) 0.5834(8) 0.6447(5)
H18 H 0.7272 0.5737 0.6121
C22 C 0.6736(9) 0.5324(8) 0.7040(6)
H19 H 0.7428 0.4891 0.7123
C23 C 0.5799(9) 0.5456(6) 0.7512(4)
H20 H 0.5846 0.5102 0.7915
C24 C 0.4777(7) 0.6116(5) 0.7390(3)
H21 H 0.4153 0.6208 0.7718
C25 C 0.2913(4) 0.5940(3) 0.41057(18)
H22 H 0.3031 0.6662 0.4008
H23 H 0.2199 0.5692 0.3838
C26 C 0.4113(4) 0.5363(3) 0.39237(19)
C27 C 0.4196(6) 0.4903(4) 0.3310(2)
H24 H 0.3514 0.4934 0.3009
C28 C 0.5303(9) 0.4397(6) 0.3149(3)
H25 H 0.5389 0.4083 0.2733
C29 C 0.6258(7) 0.4357(6) 0.3593(4)
H26 H 0.7012 0.4007 0.3490
C30 C 0.6130(6) 0.4836(5) 0.4208(4)
H27 H 0.6805 0.4801 0.4513
N1 N 0.2618(3) 0.5810(2) 0.48166(14)
N2 N 0.2473(3) 0.6134(2) 0.58701(14)
N3 N 0.5046(4) 0.5355(3) 0.4379(2)
O1 O -0.0023(4) 0.6842(4) 0.6435(2)
H28 H -0.014(6) 0.662(5) 0.6044(17)
Br1 Br -0.07797(5) 0.60345(4) 0.49595(3)
loop_
_geom_bond_atom_site_label_1
_geom_bond_atom_site_label_2
_geom_bond_site_symmetry_1
_geom_bond_site_symmetry_2
C1 H1 1_555 1_555
C2 C3 1_555 1_555
C3 C10 1_555 1_555
C4 C2 1_555 1_555
C5 C4 1_555 1_555
H2 C5 1_555 1_555
C6 C5 1_555 1_555
H3 C6 1_555 1_555
C7 C6 1_555 1_555
H4 C7 1_555 1_555
C8 C7 1_555 1_555
H5 C8 1_555 1_555
C9 C4 1_555 1_555
H6 C9 1_555 1_555
C10 C11 1_555 1_555
C11 H7 1_555 1_555
C12 C11 1_555 1_555
H8 C12 1_555 1_555
C13 C12 1_555 1_555
H9 C13 1_555 1_555
C14 C13 1_555 1_555
H10 C14 1_555 1_555
C15 C10 1_555 1_555
H11 C15 1_555 1_555
C16 H12 1_555 1_555
C17 C16 1_555 1_555
H13 C17 1_555 1_555
H14 C17 1_555 1_555
C18 C16 1_555 1_555
H15 C18 1_555 1_555
H16 C18 1_555 1_555
C19 C18 1_555 1_555
C20 C19 1_555 1_555
H17 C20 1_555 1_555
C21 C20 1_555 1_555
H18 C21 1_555 1_555
C22 C21 1_555 1_555
H19 C22 1_555 1_555
C23 C22 1_555 1_555
H20 C23 1_555 1_555
C24 C19 1_555 1_555
H21 C24 1_555 1_555
C25 H22 1_555 1_555
H23 C25 1_555 1_555
C26 C25 1_555 1_555
C27 C26 1_555 1_555
H24 C27 1_555 1_555
C28 C27 1_555 1_555
H25 C28 1_555 1_555
C29 C28 1_555 1_555
H26 C29 1_555 1_555
C30 C29 1_555 1_555
H27 C30 1_555 1_555
N1 C1 1_555 1_555
N2 C1 1_555 1_555
N3 C26 1_555 1_555
O1 C17 1_555 1_555
H28 O1 1_555 1_555
C2 N1 1_555 1_555
C3 N2 1_555 1_555
C8 C9 1_555 1_555
C14 C15 1_555 1_555
C16 N2 1_555 1_555
C23 C24 1_555 1_555
C25 N1 1_555 1_555
C30 N3 1_555 1_555

#END
