
#######################################################################
#
#                 Cambridge Crystallographic Data Centre
#                                CCDC 
#
#######################################################################
#
# If this CIF has been generated from an entry in the Cambridge 
# Structural Database, then it will include bibliographic, chemical, 
# crystal, experimental, refinement or atomic coordinate data resulting 
# from the CCDC's data processing and validation procedures.
#
#######################################################################

data_FEJQAP
_chemical_formula_moiety         'C28 H23 Br2 N3 S1'
_chemical_name_systematic        
8-(4-bromobenzylidene)-4-(4-bromophenyl)-6-methyl-2-(4-(methylsulfanyl)phenyl)-5,6,7,8-tetrahydropyrido[4,3-d]pyrimidine
_symmetry_cell_setting           monoclinic
_symmetry_space_group_name_H-M   'C 2/c'
_symmetry_Int_Tables_number      15
_space_group_name_Hall           '-C 2yn'
loop_
_symmetry_equiv_pos_site_id
_symmetry_equiv_pos_as_xyz
1 x,y,z
2 -x,y,1/2-z
3 1/2+x,1/2+y,z
4 1/2-x,1/2+y,1/2-z
5 -x,-y,-z
6 x,-y,1/2+z
7 1/2-x,1/2-y,-z
8 1/2+x,1/2-y,1/2+z
_cell_length_a                   51.901(2)
_cell_length_b                   4.4834(2)
_cell_length_c                   22.1299(10)
_cell_angle_alpha                90
_cell_angle_beta                 108.053(2)
_cell_angle_gamma                90
_cell_volume                     4895.96
_exptl_crystal_colour            colorless
_exptl_crystal_description       needle
_cell_formula_units_Z            8
loop_
_atom_site_label
_atom_site_type_symbol
_atom_site_fract_x
_atom_site_fract_y
_atom_site_fract_z
Br1 Br 0.49205(2) -0.04220(14) 0.35845(2)
Br2 Br 0.35007(2) 1.35475(14) 0.86685(3)
S1 S 0.22941(9) 0.1845(11) 0.3504(3)
N1 N 0.43275(7) 0.5035(9) 0.66145(17)
N2 N 0.33813(7) 0.6884(9) 0.58250(18)
N3 N 0.36118(7) 0.4422(9) 0.51925(17)
C1 C 0.46640(9) 0.0674(11) 0.4004(2)
C2 C 0.4757(3) 0.208(3) 0.4586(5)
H1 H 0.4945 0.2469 0.4772
C3 C 0.4574(2) 0.292(3) 0.4897(7)
H2 H 0.4636 0.3927 0.5293
C4 C 0.42949(9) 0.2282(11) 0.4630(2)
C5 C 0.4216(4) 0.090(3) 0.4034(5)
H3 H 0.4028 0.0509 0.3842
C6 C 0.4392(2) 0.007(4) 0.3706(6)
H4 H 0.4330 -0.0862 0.3300
C7 C 0.40832(9) 0.3070(11) 0.4914(2)
H5 H 0.3904 0.2586 0.4661
C8 C 0.41013(9) 0.4366(10) 0.5475(2)
C9 C 0.43629(9) 0.5100(12) 0.5982(2)
H6 H 0.4504 0.3639 0.5966
H7 H 0.4425 0.7106 0.5902
C10 C 0.41354(8) 0.7328(10) 0.6659(2)
H8 H 0.4205 0.9314 0.6591
H9 H 0.4115 0.7299 0.7089
C11 C 0.38640(8) 0.6808(10) 0.6169(2)
C12 C 0.38504(9) 0.5215(10) 0.5617(2)
C13 C 0.45845(9) 0.5459(12) 0.7108(2)
H10 H 0.4661 0.7398 0.7050
H11 H 0.4710 0.3871 0.7081
H12 H 0.4556 0.5394 0.7525
C14 C 0.36156(9) 0.7668(11) 0.6251(2)
C15 C 0.33885(9) 0.5235(11) 0.5323(2)
C16 C 0.35915(9) 0.9264(11) 0.6817(2)
C17 C 0.37771(9) 1.1371(10) 0.7156(2)
H13 H 0.3925 1.1919 0.7012
C18 C 0.37501(10) 1.2680(11) 0.7698(2)
H14 H 0.3878 1.4116 0.7926
C19 C 0.35325(10) 1.1868(12) 0.7907(2)
C20 C 0.33413(11) 0.9905(13) 0.7571(3)
H15 H 0.3191 0.9420 0.7710
C21 C 0.33681(10) 0.8624(14) 0.7025(3)
H16 H 0.3233 0.7286 0.6786
C22 C 0.31229(9) 0.4293(11) 0.4868(2)
C23 C 0.28837(10) 0.5434(14) 0.4921(3)
H17 H 0.2888 0.6818 0.5249
C24 C 0.26396(11) 0.4580(15) 0.4501(3)
H18 H 0.2477 0.5377 0.4546
C25 C 0.26249(10) 0.2597(12) 0.4017(2)
C26 C 0.28650(10) 0.1425(14) 0.3969(2)
H19 H 0.2861 0.0018 0.3645
C27 C 0.31111(10) 0.2307(12) 0.4394(2)
H20 H 0.3275 0.1510 0.4354
C28 C 0.23541(18) -0.051(2) 0.2907(4)
H21 H 0.2181 -0.0999 0.2588
H22 H 0.2443 -0.2348 0.3104
H23 H 0.2471 0.0535 0.2702
S2? S 0.2329(3) 0.103(4) 0.3478(11)
C29? C 0.2075(3) 0.296(6) 0.3746(11)
H24? H 0.1895 0.2659 0.3437
H25? H 0.2116 0.5102 0.3785
H26? H 0.2077 0.2172 0.4160
C30? C 0.4721(4) 0.306(3) 0.4412(6)
H27? H 0.4885 0.4154 0.4484
C31? C 0.4534(2) 0.385(4) 0.4717(8)
H28? H 0.4572 0.5513 0.4996
C32? C 0.4239(4) -0.011(3) 0.4203(7)
H29? H 0.4074 -0.1192 0.4124
C33? C 0.4425(2) -0.091(4) 0.3899(7)
H30? H 0.4388 -0.2558 0.3615
loop_
_geom_bond_atom_site_label_1
_geom_bond_atom_site_label_2
_geom_bond_site_symmetry_1
_geom_bond_site_symmetry_2
Br1 C1 1_555 1_555
Br2 C19 1_555 1_555
S1 C25 1_555 1_555
N1 C9 1_555 1_555
N2 C14 1_555 1_555
N3 C12 1_555 1_555
C1 C2 1_555 1_555
C2 H1 1_555 1_555
C3 C2 1_555 1_555
H2 C3 1_555 1_555
C4 C3 1_555 1_555
C5 C4 1_555 1_555
H3 C5 1_555 1_555
C6 C1 1_555 1_555
H4 C6 1_555 1_555
C7 C4 1_555 1_555
H5 C7 1_555 1_555
C8 C7 1_555 1_555
C9 C8 1_555 1_555
H6 C9 1_555 1_555
H7 C9 1_555 1_555
C10 N1 1_555 1_555
H8 C10 1_555 1_555
H9 C10 1_555 1_555
C11 C10 1_555 1_555
C12 C8 1_555 1_555
C13 N1 1_555 1_555
H10 C13 1_555 1_555
H11 C13 1_555 1_555
H12 C13 1_555 1_555
C14 C11 1_555 1_555
C15 N2 1_555 1_555
C16 C14 1_555 1_555
C17 C16 1_555 1_555
H13 C17 1_555 1_555
C18 C17 1_555 1_555
H14 C18 1_555 1_555
C19 C18 1_555 1_555
C20 C19 1_555 1_555
H15 C20 1_555 1_555
C21 C16 1_555 1_555
H16 C21 1_555 1_555
C22 C15 1_555 1_555
C23 C22 1_555 1_555
H17 C23 1_555 1_555
C24 C23 1_555 1_555
H18 C24 1_555 1_555
C25 C24 1_555 1_555
C26 C25 1_555 1_555
H19 C26 1_555 1_555
C27 C22 1_555 1_555
H20 C27 1_555 1_555
C28 S1 1_555 1_555
H21 C28 1_555 1_555
H22 C28 1_555 1_555
H23 C28 1_555 1_555
N3 C15 1_555 1_555
C5 C6 1_555 1_555
C11 C12 1_555 1_555
C20 C21 1_555 1_555
C26 C27 1_555 1_555

#END
