
#######################################################################
#
#                 Cambridge Crystallographic Data Centre
#                                CCDC 
#
#######################################################################
#
# If this CIF has been generated from an entry in the Cambridge 
# Structural Database, then it will include bibliographic, chemical, 
# crystal, experimental, refinement or atomic coordinate data resulting 
# from the CCDC's data processing and validation procedures.
#
#######################################################################

data_FEJVAU
_chemical_formula_moiety         'C20 H16 Br1 N1 O3'
_chemical_name_systematic        
8'-bromo-1',2',3',3a'-tetrahydro-2H,4H,5'H-spiro[1-benzopyran-3,4'-pyrrolo[1,2-a]quinoline]-2,4-dione
_symmetry_cell_setting           triclinic
_symmetry_space_group_name_H-M   'P -1'
_symmetry_Int_Tables_number      2
_space_group_name_Hall           '-P 1'
loop_
_symmetry_equiv_pos_site_id
_symmetry_equiv_pos_as_xyz
1 x,y,z
2 -x,-y,-z
_cell_length_a                   8.2200(12)
_cell_length_b                   8.7275(7)
_cell_length_c                   13.0899(9)
_cell_angle_alpha                71.212(7)
_cell_angle_beta                 72.443(10)
_cell_angle_gamma                79.120(10)
_cell_volume                     843.244
_exptl_crystal_colour            colorless
_exptl_crystal_description       block
_cell_formula_units_Z            2
loop_
_atom_site_label
_atom_site_type_symbol
_atom_site_fract_x
_atom_site_fract_y
_atom_site_fract_z
Br1 Br 0.21480(7) -0.00527(6) 1.38847(4)
N1 N 0.5308(3) 0.2779(3) 0.9746(2)
O1 O 0.9953(3) 0.1376(3) 0.7857(2)
O2 O 0.9484(3) 0.5754(3) 0.8459(2)
O3 O 0.8440(3) 0.0294(3) 0.9533(2)
C1 C 0.4069(5) 0.0928(4) 1.2762(3)
C2 C 0.3969(4) 0.1450(4) 1.1671(3)
H1 H 0.3006 0.1321 1.1486
C3 C 0.5358(4) 0.2182(3) 1.0844(2)
C4 C 0.6821(4) 0.2323(3) 1.1140(2)
C5 C 0.6832(5) 0.1756(4) 1.2260(3)
H2 H 0.7802 0.1831 1.2460
C6 C 0.5450(6) 0.1084(5) 1.3084(3)
H3 H 0.5457 0.0749 1.3833
C7 C 0.8360(4) 0.3051(4) 1.0283(3)
H4 H 0.9386 0.2401 1.0463
H5 H 0.8376 0.4134 1.0332
C8 C 0.8424(3) 0.3170(3) 0.9068(2)
C9 C 0.6560(3) 0.3792(4) 0.8922(2)
H6 H 0.6273 0.4891 0.9013
C10 C 0.6256(4) 0.3848(5) 0.7817(3)
H7 H 0.6439 0.4908 0.7281
H8 H 0.7022 0.3027 0.7504
C11 C 0.4436(6) 0.3518(6) 0.8099(3)
H9 H 0.4291 0.2952 0.7610
H10 H 0.3687 0.4528 0.8021
C12 C 0.4027(4) 0.2477(4) 0.9291(3)
H11 H 0.2878 0.2792 0.9694
H12 H 0.4120 0.1337 0.9328
C13 C 0.9528(4) 0.4491(4) 0.8253(3)
C14 C 1.0556(4) 0.4198(4) 0.7185(3)
C15 C 1.0701(4) 0.2674(4) 0.7035(3)
C16 C 0.8931(4) 0.1509(4) 0.8871(3)
C17 C 1.1397(5) 0.5418(5) 0.6314(3)
H13 H 1.1296 0.6454 0.6396
C18 C 1.2377(7) 0.5108(6) 0.5332(4)
H14 H 1.2959 0.5921 0.4758
C19 C 1.2489(7) 0.3572(6) 0.5208(4)
H15 H 1.3139 0.3366 0.4541
C20 C 1.1666(6) 0.2356(5) 0.6044(3)
H16 H 1.1752 0.1330 0.5950
loop_
_geom_bond_atom_site_label_1
_geom_bond_atom_site_label_2
_geom_bond_site_symmetry_1
_geom_bond_site_symmetry_2
Br1 C1 1_555 1_555
N1 C3 1_555 1_555
O1 C15 1_555 1_555
O2 C13 1_555 1_555
O3 C16 1_555 1_555
C1 C2 1_555 1_555
C2 H1 1_555 1_555
C3 C2 1_555 1_555
C4 C3 1_555 1_555
C5 C4 1_555 1_555
H2 C5 1_555 1_555
C6 C1 1_555 1_555
H3 C6 1_555 1_555
C7 C4 1_555 1_555
H4 C7 1_555 1_555
H5 C7 1_555 1_555
C8 C7 1_555 1_555
C9 N1 1_555 1_555
H6 C9 1_555 1_555
C10 C9 1_555 1_555
H7 C10 1_555 1_555
H8 C10 1_555 1_555
C11 C10 1_555 1_555
H9 C11 1_555 1_555
H10 C11 1_555 1_555
C12 N1 1_555 1_555
H11 C12 1_555 1_555
H12 C12 1_555 1_555
C13 C8 1_555 1_555
C14 C13 1_555 1_555
C15 C14 1_555 1_555
C16 O1 1_555 1_555
C17 C14 1_555 1_555
H13 C17 1_555 1_555
C18 C17 1_555 1_555
H14 C18 1_555 1_555
C19 C18 1_555 1_555
H15 C19 1_555 1_555
C20 C15 1_555 1_555
H16 C20 1_555 1_555
C5 C6 1_555 1_555
C8 C9 1_555 1_555
C8 C16 1_555 1_555
C11 C12 1_555 1_555
C19 C20 1_555 1_555

#END
