
#######################################################################
#
#                 Cambridge Crystallographic Data Centre
#                                CCDC 
#
#######################################################################
#
# If this CIF has been generated from an entry in the Cambridge 
# Structural Database, then it will include bibliographic, chemical, 
# crystal, experimental, refinement or atomic coordinate data resulting 
# from the CCDC's data processing and validation procedures.
#
#######################################################################

data_FEJVOH
_chemical_formula_moiety         'C40 H32 N4 O6,3(C1 H2 Cl2)'
_chemical_name_systematic        
'6,9,12,19,22,25-Hexaoxa-39,42-diazaheptacyclo-[28.8.4.2^2,5^.2^26,29^.0^13,18^.0^33,41^.0^36,40^]hexatetraconta-1(38),2,4,13,15,17,26,28,30,32,34,36,39,41,43,45-hexadecaene-15,16-dicarbonitrile dichloromethane solvate'
_symmetry_cell_setting           monoclinic
_symmetry_space_group_name_H-M   'P 21/n'
_symmetry_Int_Tables_number      14
_space_group_name_Hall           '-P 2yn'
loop_
_symmetry_equiv_pos_site_id
_symmetry_equiv_pos_as_xyz
1 x,y,z
2 1/2-x,1/2+y,1/2-z
3 -x,-y,-z
4 1/2+x,1/2-y,1/2+z
_cell_length_a                   12.4002(7)
_cell_length_b                   22.2817(12)
_cell_length_c                   16.1477(8)
_cell_angle_alpha                90
_cell_angle_beta                 103.4510(10)
_cell_angle_gamma                90
_cell_volume                     4339.19
_exptl_crystal_colour            yellow
_exptl_crystal_description       prism
_cell_formula_units_Z            4
loop_
_atom_site_label
_atom_site_type_symbol
_atom_site_fract_x
_atom_site_fract_y
_atom_site_fract_z
Cl1 Cl 0.64644(9) 0.17645(6) 0.60429(7)
Cl2 Cl 0.49455(15) 0.21618(7) 0.70249(12)
C41 C 0.5758(4) 0.1557(2) 0.6821(3)
H33 H 0.6298 0.1442 0.7351
H34 H 0.5278 0.1206 0.6621
Cl3 Cl 0.84461(15) 0.16143(9) 0.29600(9)
Cl4 Cl 0.83377(13) 0.14140(7) 0.47004(9)
C42 C 0.9119(4) 0.1354(2) 0.3945(3)
H35 H 0.9816 0.1582 0.4142
H36 H 0.9317 0.0927 0.3894
Cl5 Cl -0.2322(2) -0.14347(19) 0.2092(2)
Cl6 Cl -0.45280(17) -0.11513(11) 0.12988(14)
C43 C -0.3411(6) -0.1611(4) 0.1445(4)
H37 H -0.3642 -0.2008 0.1619
H38 H -0.3230 -0.1665 0.0885
O1 O -0.3786(2) -0.05672(13) 0.42969(19)
O2 O -0.1393(2) -0.01507(12) 0.3533(2)
O3 O 0.04735(19) 0.04219(10) 0.30059(16)
O4 O 0.15408(19) 0.14028(10) 0.35305(15)
O5 O 0.1340(2) 0.22482(14) 0.49256(17)
O6 O 0.0697(2) 0.30510(12) 0.66941(18)
N1 N -0.3087(2) 0.03527(13) 0.8092(2)
N2 N -0.1764(2) 0.12964(13) 0.87515(18)
N3 N 0.0866(3) 0.05578(16) -0.0542(3)
N4 N 0.2685(3) 0.20008(18) 0.0285(2)
C1 C -0.2936(3) 0.04729(17) 0.8932(3)
C2 C -0.3415(3) 0.01196(19) 0.9479(3)
C3 C -0.4071(3) -0.0361(2) 0.9104(3)
H1 H -0.4421 -0.0607 0.9444
C4 C -0.4219(3) -0.04816(18) 0.8261(3)
H2 H -0.4671 -0.0808 0.8011
C5 C -0.3691(3) -0.01145(16) 0.7762(3)
C6 C -0.3746(3) -0.02280(15) 0.6842(3)
C7 C -0.4365(3) -0.06878(18) 0.6376(3)
H3 H -0.4803 -0.0938 0.6644
C8 C -0.4360(3) -0.07878(18) 0.5547(3)
H4 H -0.4787 -0.1108 0.5249
C9 C -0.3138(3) 0.01206(16) 0.6416(3)
H5 H -0.2706 0.0439 0.6716
C10 C -0.3126(3) 0.00307(17) 0.5581(3)
H6 H -0.2696 0.0284 0.5310
C11 C -0.3742(3) -0.04303(17) 0.5133(3)
C12 C -0.3152(3) -0.0232(2) 0.3841(3)
H7 H -0.3159 0.0197 0.3998
H8 H -0.3477 -0.0269 0.3222
C13 C -0.1965(4) -0.04634(19) 0.4045(3)
H9 H -0.1612 -0.0396 0.4654
H10 H -0.1954 -0.0899 0.3928
C14 C -0.0384(3) -0.04193(17) 0.3487(3)
H11 H -0.0487 -0.0858 0.3412
H12 H 0.0176 -0.0347 0.4024
C15 C 0.0009(3) -0.01647(15) 0.2760(3)
H13 H 0.0578 -0.0430 0.2615
H14 H -0.0617 -0.0131 0.2255
C16 C 0.0891(2) 0.07204(14) 0.2422(2)
C17 C 0.0774(3) 0.05349(15) 0.1591(2)
H15 H 0.0379 0.0176 0.1399
C18 C 0.1230(3) 0.08698(15) 0.1033(2)
C19 C 0.1045(3) 0.06898(17) 0.0158(3)
C20 C 0.1830(3) 0.13883(15) 0.1317(2)
C21 C 0.2312(3) 0.17284(17) 0.0744(3)
C22 C 0.1950(3) 0.15789(15) 0.2153(2)
H16 H 0.2355 0.1934 0.2345
C23 C 0.1478(3) 0.12506(14) 0.2706(2)
C24 C 0.2229(3) 0.19021(16) 0.3872(2)
H17 H 0.1916 0.2276 0.3583
H18 H 0.2982 0.1846 0.3775
C25 C 0.2288(3) 0.19472(18) 0.4793(2)
H19 H 0.2329 0.1540 0.5045
H20 H 0.2964 0.2170 0.5076
C26 C 0.1413(3) 0.2378(2) 0.5793(3)
H21 H 0.2170 0.2517 0.6069
H22 H 0.1249 0.2014 0.6094
C27 C 0.0583(3) 0.28611(18) 0.5833(3)
H23 H 0.0702 0.3207 0.5480
H24 H -0.0176 0.2707 0.5604
C28 C 0.0250(3) 0.27027(16) 0.7231(2)
C29 C 0.0582(3) 0.28429(18) 0.8083(3)
H25 H 0.1106 0.3155 0.8261
C30 C 0.0166(3) 0.25379(18) 0.8676(3)
H26 H 0.0402 0.2647 0.9259
C31 C -0.0499(3) 0.22461(17) 0.6985(2)
H27 H -0.0736 0.2144 0.6400
C32 C -0.0907(3) 0.19351(16) 0.7584(2)
H28 H -0.1419 0.1618 0.7403
C33 C -0.0589(3) 0.20741(15) 0.8449(2)
C34 C -0.1062(3) 0.17285(16) 0.9066(2)
C35 C -0.0784(3) 0.18598(18) 0.9952(2)
H29 H -0.0266 0.2168 1.0167
C36 C -0.1260(4) 0.1544(2) 1.0487(3)
H30 H -0.1087 0.1636 1.1078
C37 C -0.2009(3) 0.10810(18) 1.0169(2)
C38 C -0.2221(3) 0.09683(17) 0.9284(2)
C39 C -0.2542(4) 0.0720(2) 1.0686(3)
H31 H -0.2422 0.0809 1.1276
C40 C -0.3197(4) 0.0266(2) 1.0371(3)
H32 H -0.3529 0.0033 1.0739
loop_
_geom_bond_atom_site_label_1
_geom_bond_atom_site_label_2
_geom_bond_site_symmetry_1
_geom_bond_site_symmetry_2
Cl1 C41 1_555 1_555
Cl2 C41 1_555 1_555
Cl3 C42 1_555 1_555
Cl4 C42 1_555 1_555
Cl5 C43 1_555 1_555
Cl6 C43 1_555 1_555
O1 C11 1_555 1_555
O2 C13 1_555 1_555
O3 C15 1_555 1_555
O4 C23 1_555 1_555
O5 C25 1_555 1_555
O6 C27 1_555 1_555
N1 C1 1_555 1_555
N2 C34 1_555 1_555
N3 C19 1_555 1_555
N4 C21 1_555 1_555
C1 C2 1_555 1_555
C2 C3 1_555 1_555
C3 H1 1_555 1_555
C4 C3 1_555 1_555
H2 C4 1_555 1_555
C5 N1 1_555 1_555
C6 C5 1_555 1_555
C7 C6 1_555 1_555
H3 C7 1_555 1_555
C8 C7 1_555 1_555
H4 C8 1_555 1_555
C9 C6 1_555 1_555
H5 C9 1_555 1_555
C10 C9 1_555 1_555
H6 C10 1_555 1_555
C11 C8 1_555 1_555
C12 O1 1_555 1_555
H7 C12 1_555 1_555
H8 C12 1_555 1_555
C13 C12 1_555 1_555
H9 C13 1_555 1_555
H10 C13 1_555 1_555
C14 O2 1_555 1_555
H11 C14 1_555 1_555
H12 C14 1_555 1_555
C15 C14 1_555 1_555
H13 C15 1_555 1_555
H14 C15 1_555 1_555
C16 O3 1_555 1_555
C17 C16 1_555 1_555
H15 C17 1_555 1_555
C18 C17 1_555 1_555
C19 C18 1_555 1_555
C20 C18 1_555 1_555
C21 C20 1_555 1_555
C22 C20 1_555 1_555
H16 C22 1_555 1_555
C23 C16 1_555 1_555
C24 O4 1_555 1_555
H17 C24 1_555 1_555
H18 C24 1_555 1_555
C25 C24 1_555 1_555
H19 C25 1_555 1_555
H20 C25 1_555 1_555
C26 O5 1_555 1_555
H21 C26 1_555 1_555
H22 C26 1_555 1_555
C27 C26 1_555 1_555
H23 C27 1_555 1_555
H24 C27 1_555 1_555
C28 O6 1_555 1_555
C29 C28 1_555 1_555
H25 C29 1_555 1_555
C30 C29 1_555 1_555
H26 C30 1_555 1_555
C31 C28 1_555 1_555
H27 C31 1_555 1_555
C32 C31 1_555 1_555
H28 C32 1_555 1_555
C33 C30 1_555 1_555
C34 C33 1_555 1_555
C35 C34 1_555 1_555
H29 C35 1_555 1_555
C36 C35 1_555 1_555
H30 C36 1_555 1_555
C37 C36 1_555 1_555
C38 N2 1_555 1_555
C39 C37 1_555 1_555
H31 C39 1_555 1_555
C40 C2 1_555 1_555
H32 C40 1_555 1_555
C41 H33 1_555 1_555
H34 C41 1_555 1_555
C42 H35 1_555 1_555
H36 C42 1_555 1_555
C43 H37 1_555 1_555
H38 C43 1_555 1_555
C1 C38 1_555 1_555
C4 C5 1_555 1_555
C10 C11 1_555 1_555
C22 C23 1_555 1_555
C32 C33 1_555 1_555
C37 C38 1_555 1_555
C39 C40 1_555 1_555

#END
