
#######################################################################
#
#                 Cambridge Crystallographic Data Centre
#                                CCDC 
#
#######################################################################
#
# If this CIF has been generated from an entry in the Cambridge 
# Structural Database, then it will include bibliographic, chemical, 
# crystal, experimental, refinement or atomic coordinate data resulting 
# from the CCDC's data processing and validation procedures.
#
#######################################################################

data_FEJWAT
_chemical_formula_moiety         'C16 H30 N2 O3'
_chemical_name_systematic        
(R,R)-N-(2-Methylpropyl)-2-(pivaloylaminoxy)cyclohexanecarboxamide
_symmetry_cell_setting           orthorhombic
_symmetry_space_group_name_H-M   'P 21 21 21'
_symmetry_Int_Tables_number      19
_space_group_name_Hall           'P 2ac 2ab'
loop_
_symmetry_equiv_pos_site_id
_symmetry_equiv_pos_as_xyz
1 x,y,z
2 1/2-x,-y,1/2+z
3 1/2+x,1/2-y,-z
4 -x,1/2+y,1/2-z
_cell_length_a                   6.8220(10)
_cell_length_b                   13.658(3)
_cell_length_c                   20.182(4)
_cell_angle_alpha                90
_cell_angle_beta                 90
_cell_angle_gamma                90
_cell_volume                     1880.46
_exptl_crystal_colour            colorless
_exptl_crystal_description       prism
_chemical_melting_point          170deg.C
_cell_formula_units_Z            4
_exptl_crystal_recrystallization_method chloroform/n-hexane
loop_
_atom_site_label
_atom_site_type_symbol
_atom_site_fract_x
_atom_site_fract_y
_atom_site_fract_z
O1 O 1.0126(4) 0.21474(18) 0.07481(11)
O2 O 0.9371(3) 0.23797(14) 0.20245(9)
O3 O 0.9385(6) -0.0390(2) 0.25499(14)
N1 N 0.9515(4) 0.31833(19) 0.15918(14)
N2 N 0.9654(5) 0.0358(3) 0.1579(2)
C1 C 1.0064(5) 0.2984(3) 0.09627(18)
C2 C 1.0550(6) 0.3886(3) 0.05463(17)
C3 C 1.0291(7) 0.3641(3) -0.01782(18)
H1 H 1.0594 0.4206 -0.0442
H2 H 0.8959 0.3447 -0.0258
H3 H 1.1155 0.3114 -0.0296
C4 C 1.2732(7) 0.4109(3) 0.0679(2)
H4 H 1.3121 0.4673 0.0428
H5 H 1.3514 0.3557 0.0549
H6 H 1.2920 0.4235 0.1143
C5 C 0.9312(8) 0.4766(3) 0.0738(2)
H7 H 0.9663 0.5315 0.0466
H8 H 0.9539 0.4925 0.1195
H9 H 0.7951 0.4614 0.0674
C6 C 0.7399(4) 0.2002(2) 0.20293(15)
H10 H 0.6999 0.1842 0.1576
C7 C 0.7536(5) 0.1073(2) 0.24318(17)
H11 H 0.7959 0.1264 0.2877
C8 C 0.5476(6) 0.0614(3) 0.2505(2)
H12 H 0.5020 0.0395 0.2074
H13 H 0.5555 0.0046 0.2793
C9 C 0.4013(6) 0.1340(4) 0.2791(3)
H14 H 0.2723 0.1043 0.2807
H15 H 0.4391 0.1507 0.3241
C10 C 0.3935(5) 0.2260(4) 0.2376(2)
H16 H 0.3035 0.2724 0.2576
H17 H 0.3454 0.2102 0.1936
C11 C 0.5970(4) 0.2721(3) 0.23235(18)
H18 H 0.5906 0.3301 0.2047
H19 H 0.6415 0.2917 0.2760
C12 C 0.8970(6) 0.0299(3) 0.2192(2)
C13 C 1.0980(6) -0.0369(3) 0.1293(2)
H20 H 1.2119 -0.0035 0.1115
H21 H 1.1428 -0.0803 0.1642
C14 C 1.025(2) -0.1327(9) 0.1086(9)
H24 H 1.0128 -0.1717 0.1491
C15 C 0.813(2) -0.1266(13) 0.0785(9)
H25 H 0.7647 -0.1915 0.0701
H26 H 0.8165 -0.0904 0.0378
H27 H 0.7273 -0.0941 0.1093
C16 C 1.152(3) -0.196(2) 0.0594(18)
H28 H 1.0911 -0.2583 0.0531
H29 H 1.2807 -0.2045 0.0776
H30 H 1.1614 -0.1624 0.0176
H38 H 0.985(6) 0.389(3) 0.1894(19)
H39 H 0.969(5) 0.088(3) 0.1404(16)
H22? H 1.2033 -0.0471 0.1609
H23? H 1.1563 -0.0085 0.0899
C17? C 1.008(2) -0.0949(9) 0.0772(6)
H31? H 0.9689 -0.0572 0.0380
C18? C 0.840(3) -0.1612(12) 0.1076(11)
H32? H 0.7849 -0.2016 0.0734
H33? H 0.7397 -0.1203 0.1260
H34? H 0.8940 -0.2021 0.1417
C19? C 1.189(3) -0.166(2) 0.0654(15)
H35? H 1.1524 -0.2161 0.0347
H36? H 1.2267 -0.1949 0.1068
H37? H 1.2968 -0.1289 0.0478
loop_
_geom_bond_atom_site_label_1
_geom_bond_atom_site_label_2
_geom_bond_site_symmetry_1
_geom_bond_site_symmetry_2
O1 C1 1_555 1_555
O2 N1 1_555 1_555
O3 C12 1_555 1_555
N1 C1 1_555 1_555
N2 C12 1_555 1_555
C1 C2 1_555 1_555
C2 C3 1_555 1_555
C3 H1 1_555 1_555
H2 C3 1_555 1_555
H3 C3 1_555 1_555
C4 C2 1_555 1_555
H4 C4 1_555 1_555
H5 C4 1_555 1_555
H6 C4 1_555 1_555
C5 C2 1_555 1_555
H7 C5 1_555 1_555
H8 C5 1_555 1_555
H9 C5 1_555 1_555
C6 O2 1_555 1_555
H10 C6 1_555 1_555
C7 C6 1_555 1_555
H11 C7 1_555 1_555
C8 C7 1_555 1_555
H12 C8 1_555 1_555
H13 C8 1_555 1_555
C9 C8 1_555 1_555
H14 C9 1_555 1_555
H15 C9 1_555 1_555
C10 C9 1_555 1_555
H16 C10 1_555 1_555
H17 C10 1_555 1_555
C11 C6 1_555 1_555
H18 C11 1_555 1_555
H19 C11 1_555 1_555
C12 C7 1_555 1_555
C13 N2 1_555 1_555
H20 C13 1_555 1_555
H21 C13 1_555 1_555
C14 C13 1_555 1_555
H24 C14 1_555 1_555
C15 C14 1_555 1_555
H25 C15 1_555 1_555
H26 C15 1_555 1_555
H27 C15 1_555 1_555
C16 C14 1_555 1_555
H28 C16 1_555 1_555
H29 C16 1_555 1_555
H30 C16 1_555 1_555
H38 N1 1_555 1_555
H39 N2 1_555 1_555
C10 C11 1_555 1_555

#END
