
#######################################################################
#
#                 Cambridge Crystallographic Data Centre
#                                CCDC 
#
#######################################################################
#
# If this CIF has been generated from an entry in the Cambridge 
# Structural Database, then it will include bibliographic, chemical, 
# crystal, experimental, refinement or atomic coordinate data resulting 
# from the CCDC's data processing and validation procedures.
#
#######################################################################

data_FEJWUN
_chemical_formula_moiety         'C30 H52 N2 O2 Si2'
_chemical_name_systematic        
6-(4-(2-Cyano-3-(t-butyl(dimethyl)siloxy)cyclohex-2-enyl)butyl)-2-(t-butyl(dimethyl)siloxy)cyclohex-1-enecarbonitrile
_symmetry_cell_setting           monoclinic
_symmetry_space_group_name_H-M   'P 21/a'
_symmetry_Int_Tables_number      14
_space_group_name_Hall           '-P 2yab'
loop_
_symmetry_equiv_pos_site_id
_symmetry_equiv_pos_as_xyz
1 x,y,z
2 1/2-x,1/2+y,-z
3 -x,-y,-z
4 1/2+x,1/2-y,z
_cell_length_a                   11.989(9)
_cell_length_b                   7.582(5)
_cell_length_c                   18.967(9)
_cell_angle_alpha                90
_cell_angle_beta                 105.84(4)
_cell_angle_gamma                90
_cell_volume                     1658.64
_exptl_crystal_colour            colorless
_exptl_crystal_description       plate
_cell_formula_units_Z            2
_exptl_crystal_recrystallization_method 'ethyl acetate/hexanes'
loop_
_atom_site_label
_atom_site_type_symbol
_atom_site_fract_x
_atom_site_fract_y
_atom_site_fract_z
Si1 Si -0.0255(2) 0.0299(4) 0.6804(2)
O1 O 0.0707(5) 0.1501(8) 0.7408(4)
N1 N 0.0834(7) 0.552(1) 0.8221(7)
C1 C 0.1918(7) 0.259(1) 0.8469(6)
C2 C 0.1593(8) 0.123(1) 0.8018(6)
C3 C 0.2147(8) -0.054(1) 0.8111(6)
C4 C 0.301(1) -0.075(1) 0.8857(7)
C5 C 0.359(1) 0.083(2) 0.9158(8)
C6 C 0.2957(8) 0.247(2) 0.9165(6)
C7 C 0.3658(7) 0.410(1) 0.9262(5)
C8 C 0.4697(8) 0.417(1) 0.9936(6)
C9 C -0.1201(9) -0.082(2) 0.7247(7)
C10 C 0.0449(8) -0.133(1) 0.6371(6)
C11 C -0.1010(9) 0.204(1) 0.6131(6)
C12 C -0.1943(8) 0.115(1) 0.5514(6)
C13 C -0.016(1) 0.297(2) 0.5809(7)
C14 C -0.1580(8) 0.336(2) 0.6515(7)
C15 C 0.1302(9) 0.420(2) 0.8330(7)
H1 H 0.1584 -0.1465 0.8001
H2 H 0.2605 -0.0705 0.7740
H3 H 0.3545 -0.1685 0.8881
H4 H 0.2542 -0.1116 0.9204
H5 H 0.4101 0.1100 0.8851
H6 H 0.4082 0.0605 0.9642
H7 H 0.2624 0.2355 0.9603
H8 H 0.3925 0.4261 0.8828
H9 H 0.3165 0.5130 0.9276
H10 H 0.5252 0.3202 0.9926
H11 H 0.4442 0.3659 1.0364
H12 H -0.1785 -0.1504 0.6925
H13 H -0.1633 0.0055 0.7473
H14 H -0.0797 -0.1547 0.7650
H15 H -0.0068 -0.2101 0.6030
H16 H 0.0981 -0.0841 0.6117
H17 H 0.0955 -0.2162 0.6737
H18 H -0.2514 0.0537 0.5726
H19 H -0.2398 0.1978 0.5170
H20 H -0.1637 0.0293 0.5265
H21 H -0.0479 0.3882 0.5453
H22 H 0.0244 0.2157 0.5554
H23 H 0.0481 0.3552 0.6176
H24 H -0.1017 0.4001 0.6901
H25 H -0.2117 0.2825 0.6745
H26 H -0.2009 0.4270 0.6188
Si1B Si 1.0255(2) 0.9701(4) 1.3196(2)
O1B O 0.9293(5) 0.8499(8) 1.2592(4)
N1B N 0.9166(7) 0.448(1) 1.1779(7)
C1B C 0.8082(7) 0.741(1) 1.1531(6)
C2B C 0.8407(8) 0.877(1) 1.1982(6)
C3B C 0.7853(8) 1.054(1) 1.1889(6)
C4B C 0.699(1) 1.075(1) 1.1143(7)
C5B C 0.641(1) 0.917(2) 1.0842(8)
C6B C 0.7043(8) 0.753(2) 1.0835(6)
C7B C 0.6342(7) 0.590(1) 1.0738(5)
C8B C 0.5303(8) 0.583(1) 1.0064(6)
C9B C 1.1201(9) 1.082(2) 1.2753(7)
C10B C 0.9551(8) 1.133(1) 1.3629(6)
C11B C 1.1010(9) 0.796(1) 1.3869(6)
C12B C 1.1943(8) 0.885(1) 1.4486(6)
C13B C 1.016(1) 0.703(2) 1.4191(7)
C14B C 1.1580(8) 0.664(2) 1.3485(7)
C15B C 0.8698(9) 0.580(2) 1.1670(7)
H1B H 0.8416 1.1465 1.1999
H2B H 0.7395 1.0705 1.2260
H3B H 0.6455 1.1685 1.1119
H4B H 0.7458 1.1116 1.0796
H5B H 0.5899 0.8900 1.1149
H6B H 0.5918 0.9395 1.0358
H7B H 0.7376 0.7645 1.0397
H8B H 0.6075 0.5739 1.1172
H9B H 0.6835 0.4870 1.0724
H10B H 0.4748 0.6798 1.0074
H11B H 0.5558 0.6341 0.9636
H12B H 1.1785 1.1504 1.3075
H13B H 1.1633 0.9945 1.2527
H14B H 1.0797 1.1547 1.2350
H15B H 1.0068 1.2101 1.3970
H16B H 0.9019 1.0841 1.3883
H17B H 0.9045 1.2162 1.3263
H18B H 1.2514 0.9463 1.4274
H19B H 1.2398 0.8022 1.4830
H20B H 1.1637 0.9707 1.4735
H21B H 1.0479 0.6118 1.4547
H22B H 0.9756 0.7843 1.4446
H23B H 0.9519 0.6448 1.3824
H24B H 1.1017 0.5999 1.3099
H25B H 1.2117 0.7175 1.3255
H26B H 1.2009 0.5730 1.3812
loop_
_geom_bond_atom_site_label_1
_geom_bond_atom_site_label_2
_geom_bond_site_symmetry_1
_geom_bond_site_symmetry_2
Si1 O1 1_555 1_555
O1 C2 1_555 1_555
N1 C15 1_555 1_555
C1 C2 1_555 1_555
C2 C3 1_555 1_555
C3 C4 1_555 1_555
C4 C5 1_555 1_555
C5 C6 1_555 1_555
C6 C1 1_555 1_555
C7 C6 1_555 1_555
C8 C7 1_555 1_555
C9 Si1 1_555 1_555
C10 Si1 1_555 1_555
C11 Si1 1_555 1_555
C12 C11 1_555 1_555
C13 C11 1_555 1_555
C14 C11 1_555 1_555
C15 C1 1_555 1_555
H1 C3 1_555 1_555
H2 C3 1_555 1_555
H3 C4 1_555 1_555
H4 C4 1_555 1_555
H5 C5 1_555 1_555
H6 C5 1_555 1_555
H7 C6 1_555 1_555
H8 C7 1_555 1_555
H9 C7 1_555 1_555
H10 C8 1_555 1_555
H11 C8 1_555 1_555
H12 C9 1_555 1_555
H13 C9 1_555 1_555
H14 C9 1_555 1_555
H15 C10 1_555 1_555
H16 C10 1_555 1_555
H17 C10 1_555 1_555
H18 C12 1_555 1_555
H19 C12 1_555 1_555
H20 C12 1_555 1_555
H21 C13 1_555 1_555
H22 C13 1_555 1_555
H23 C13 1_555 1_555
H24 C14 1_555 1_555
H25 C14 1_555 1_555
H26 C14 1_555 1_555
Si1B O1B 1_555 1_555
O1B C2B 1_555 1_555
N1B C15B 1_555 1_555
C1B C2B 1_555 1_555
C2B C3B 1_555 1_555
C3B C4B 1_555 1_555
C4B C5B 1_555 1_555
C5B C6B 1_555 1_555
C6B C1B 1_555 1_555
C7B C6B 1_555 1_555
C8B C8 1_555 1_555
C9B Si1B 1_555 1_555
C10B Si1B 1_555 1_555
C11B Si1B 1_555 1_555
C12B C11B 1_555 1_555
C13B C11B 1_555 1_555
C14B C11B 1_555 1_555
C15B C1B 1_555 1_555
H1B C3B 1_555 1_555
H2B C3B 1_555 1_555
H3B C4B 1_555 1_555
H4B C4B 1_555 1_555
H5B C5B 1_555 1_555
H6B C5B 1_555 1_555
H7B C6B 1_555 1_555
H8B C7B 1_555 1_555
H9B C7B 1_555 1_555
H10B C8B 1_555 1_555
H11B C8B 1_555 1_555
H12B C9B 1_555 1_555
H13B C9B 1_555 1_555
H14B C9B 1_555 1_555
H15B C10B 1_555 1_555
H16B C10B 1_555 1_555
H17B C10B 1_555 1_555
H18B C12B 1_555 1_555
H19B C12B 1_555 1_555
H20B C12B 1_555 1_555
H21B C13B 1_555 1_555
H22B C13B 1_555 1_555
H23B C13B 1_555 1_555
H24B C14B 1_555 1_555
H25B C14B 1_555 1_555
H26B C14B 1_555 1_555
C7B C8B 1_555 1_555

#END
