
#######################################################################
#
#                 Cambridge Crystallographic Data Centre
#                                CCDC 
#
#######################################################################
#
# If this CIF has been generated from an entry in the Cambridge 
# Structural Database, then it will include bibliographic, chemical, 
# crystal, experimental, refinement or atomic coordinate data resulting 
# from the CCDC's data processing and validation procedures.
#
#######################################################################

data_FEJYOI
_chemical_formula_moiety         'C11 H4 N4 S5,C3 H7 N1 O1'
_chemical_name_systematic        
'14-Thioxo-2,11,13,15-tetrathia-5,8-diazatricyclo(10.3.0.0^4,9^)pentadeca-1(12),4(9),5,7-tetraene-6,7-dicarbonitrile dimethylformamide solvate'
_symmetry_cell_setting           orthorhombic
_symmetry_space_group_name_H-M   'P 21 21 21'
_symmetry_Int_Tables_number      19
_space_group_name_Hall           'P 2ac 2ab'
loop_
_symmetry_equiv_pos_site_id
_symmetry_equiv_pos_as_xyz
1 x,y,z
2 1/2-x,-y,1/2+z
3 -x,1/2+y,1/2-z
4 1/2+x,1/2-y,-z
_cell_length_a                   8.7345(6)
_cell_length_b                   10.6432(7)
_cell_length_c                   20.208(1)
_cell_angle_alpha                90
_cell_angle_beta                 90
_cell_angle_gamma                90
_cell_volume                     1878.6
_exptl_crystal_colour            'light brown'
_exptl_crystal_description       'truncated bipyramid'
_chemical_melting_point          'above 523K'
_cell_formula_units_Z            4
loop_
_atom_site_label
_atom_site_type_symbol
_atom_site_fract_x
_atom_site_fract_y
_atom_site_fract_z
S1 S -0.36669(6) 0.17024(6) 0.28917(3)
S2 S -0.11917(6) 0.03414(5) 0.21638(3)
S3 S -0.11826(6) 0.30524(5) 0.21584(3)
S4 S 0.15568(6) 0.00545(6) 0.12958(3)
S5 S 0.15797(5) 0.33187(6) 0.12908(2)
N1 N 0.5515(2) 0.0328(2) 0.10941(9)
N2 N 0.5555(2) 0.2979(2) 0.10995(9)
N3 N 0.8618(3) -0.0244(2) 0.00912(12)
N4 N 0.8785(2) 0.3481(2) 0.01584(9)
C1 C -0.2103(2) 0.1701(2) 0.24267(9)
C2 C 0.0261(2) 0.1057(2) 0.17011(11)
C3 C 0.0270(2) 0.2327(2) 0.16992(11)
C4 C 0.3306(3) 0.0236(2) 0.17974(12)
H1 H 0.3031(27) 0.0620(22) 0.2199(13)
H2 H 0.3600(29) -0.0626(25) 0.1866(11)
C5 C 0.3325(3) 0.3113(2) 0.17919(12)
H3 H 0.3041(26) 0.2766(20) 0.2206(12)
H4 H 0.3741(29) 0.3981(22) 0.1877(11)
C6 C 0.4474(2) 0.0997(2) 0.14274(11)
C7 C 0.4485(2) 0.2333(2) 0.14254(11)
C8 C 0.6571(3) 0.0996(2) 0.07556(11)
C9 C 0.6595(3) 0.2296(2) 0.07597(10)
C10 C 0.7701(3) 0.0287(2) 0.03817(13)
C11 C 0.7795(3) 0.2980(2) 0.04213(11)
N5 N 0.8336(2) 0.6582(2) 0.08022(8)
O2 O 0.7917(14) 0.6524(15) 0.1882(5)
C15 C 0.7484(6) 0.6476(6) 0.1312(3)
H12 H 0.6426(6) 0.6341(6) 0.1229(3)
C16 C 1.0009(5) 0.6739(6) 0.0885(2)
H13 H 1.0495(5) 0.6807(6) 0.0450(2)
H14 H 1.0427(5) 0.6010(6) 0.1120(2)
H15 H 1.0214(5) 0.7503(6) 0.1141(2)
C17 C 0.7841(7) 0.6501(6) 0.0116(2)
H19 H 0.8477(28) 0.5897(27) -0.0153(5)
H20 H 0.7909(41) 0.7340(9) -0.0114(6)
H21 H 0.6747(16) 0.6212(34) 0.0075(2)
O1? O 0.8351(19) 0.6791(21) 0.1958(9)
C12? C 0.9000(6) 0.6724(7) 0.1376(3)
H5? H 1.0085(6) 0.6786(7) 0.1373(3)
C13? C 0.6624(6) 0.6485(9) 0.0795(3)
H6? H 0.6283(8) 0.6170(50) 0.0363(10)
H7? H 0.6171(6) 0.7315(13) 0.0874(27)
H8? H 0.6292(8) 0.5904(41) 0.1143(19)
C14? C 0.9088(8) 0.6600(7) 0.0178(3)
H9? H 0.8998(8) 0.5773(7) -0.0046(3)
H10? H 1.0193(8) 0.6783(7) 0.0239(3)
H11? H 0.8645(8) 0.7247(7) -0.0121(3)
H16? H 1.0262(5) 0.6739(6) 0.1358(2)
H17? H 1.0330(5) 0.7536(6) 0.0687(2)
H18? H 1.0543(5) 0.6043(6) 0.0666(2)
loop_
_geom_bond_atom_site_label_1
_geom_bond_atom_site_label_2
_geom_bond_site_symmetry_1
_geom_bond_site_symmetry_2
S1 C1 1_555 1_555
S2 C1 1_555 1_555
S3 C1 1_555 1_555
S4 C2 1_555 1_555
S5 C3 1_555 1_555
N1 C6 1_555 1_555
N2 C7 1_555 1_555
N3 C10 1_555 1_555
N4 C11 1_555 1_555
C2 S2 1_555 1_555
C3 S3 1_555 1_555
C4 S4 1_555 1_555
H1 C4 1_555 1_555
H2 C4 1_555 1_555
C5 S5 1_555 1_555
H3 C5 1_555 1_555
H4 C5 1_555 1_555
C6 C4 1_555 1_555
C7 C5 1_555 1_555
C8 N1 1_555 1_555
C9 N2 1_555 1_555
C10 C8 1_555 1_555
C11 C9 1_555 1_555
N5 C15 1_555 1_555
O2 C15 1_555 1_555
C15 H12 1_555 1_555
C16 N5 1_555 1_555
H13 C16 1_555 1_555
H14 C16 1_555 1_555
H15 C16 1_555 1_555
C17 N5 1_555 1_555
H19 C17 1_555 1_555
H20 C17 1_555 1_555
H21 C17 1_555 1_555
C2 C3 1_555 1_555
C6 C7 1_555 1_555
C8 C9 1_555 1_555

#END
