
#######################################################################
#
#                 Cambridge Crystallographic Data Centre
#                                CCDC 
#
#######################################################################
#
# If this CIF has been generated from an entry in the Cambridge 
# Structural Database, then it will include bibliographic, chemical, 
# crystal, experimental, refinement or atomic coordinate data resulting 
# from the CCDC's data processing and validation procedures.
#
#######################################################################

data_FEJZOL
_chemical_formula_moiety         'C17 H13 Cl1 O2'
_chemical_name_systematic        
'Methyl 7-chloro-3-methylphenanthrene-9-carboxylate'
_symmetry_cell_setting           monoclinic
_symmetry_space_group_name_H-M   'P 21/n'
_symmetry_Int_Tables_number      14
_space_group_name_Hall           '-P 2yn'
loop_
_symmetry_equiv_pos_site_id
_symmetry_equiv_pos_as_xyz
1 x,y,z
2 1/2-x,1/2+y,1/2-z
3 -x,-y,-z
4 1/2+x,1/2-y,1/2+z
_cell_length_a                   7.8776(3)
_cell_length_b                   14.6159(6)
_cell_length_c                   11.5112(6)
_cell_angle_alpha                90
_cell_angle_beta                 95.151(4)
_cell_angle_gamma                90
_cell_volume                     1320.03
_exptl_crystal_colour            colorless
_exptl_crystal_description       needle
_cell_formula_units_Z            4
loop_
_atom_site_label
_atom_site_type_symbol
_atom_site_fract_x
_atom_site_fract_y
_atom_site_fract_z
H1 H 0.085(2) 0.1881(15) 0.3038(19)
H2 H 0.225(3) -0.2270(17) 0.515(2)
H3 H 0.099(3) -0.1231(15) 0.3682(19)
H4 H 0.411(3) 0.1533(16) 0.650(2)
H5 H 0.386(3) -0.2477(18) 0.693(2)
H6 H 0.471(2) 0.0226(16) 0.7255(19)
H7 H 0.356(3) 0.2961(16) 0.5818(19)
H8 H -0.237(3) -0.0093(19) 0.092(2)
H9 H -0.103(3) -0.0767(16) 0.046(2)
H10 H -0.260(3) -0.1121(17) 0.1091(19)
C1 C 0.5519(3) -0.12683(16) 0.83998(18)
C2 C 0.2822(2) 0.07874(12) 0.52591(15)
C3 C 0.1491(2) 0.17831(13) 0.37300(16)
C4 C 0.1820(2) 0.08915(13) 0.41667(15)
C5 C 0.2459(2) -0.08842(13) 0.51353(15)
C6 C 0.1144(2) 0.00767(13) 0.35666(15)
C7 C 0.2761(2) -0.17669(14) 0.56115(17)
C8 C 0.1458(2) -0.07631(13) 0.40554(16)
C9 C 0.3435(2) 0.15846(14) 0.58411(17)
C10 C 0.4443(2) -0.11262(14) 0.72678(16)
C11 C 0.3721(2) -0.18844(14) 0.66536(17)
C12 C 0.31649(19) -0.01137(13) 0.57426(15)
C13 C 0.4162(2) -0.02669(13) 0.68054(16)
C14 C 0.3126(2) 0.24447(14) 0.54028(17)
C15 C 0.2151(2) 0.25241(13) 0.43369(16)
C16 C -0.1748(3) -0.06370(16) 0.10327(18)
C17 C 0.0151(2) 0.01282(13) 0.24009(15)
O1 O -0.08003(15) -0.06211(9) 0.21682(10)
O2 O 0.01940(17) 0.07531(9) 0.17136(11)
Cl1 Cl 0.17611(6) 0.36204(3) 0.37580(4)
H11 H 0.494(3) -0.1585(18) 0.893(2)
H12 H 0.588(4) -0.071(3) 0.875(3)
H13 H 0.661(5) -0.150(2) 0.826(3)
loop_
_geom_bond_atom_site_label_1
_geom_bond_atom_site_label_2
_geom_bond_site_symmetry_1
_geom_bond_site_symmetry_2
H1 C3 1_555 1_555
H2 C7 1_555 1_555
H3 C8 1_555 1_555
H4 C9 1_555 1_555
H5 C11 1_555 1_555
H6 C13 1_555 1_555
H7 C14 1_555 1_555
H8 C16 1_555 1_555
H9 C16 1_555 1_555
H10 C16 1_555 1_555
C1 C10 1_555 1_555
C2 C4 1_555 1_555
C3 C4 1_555 1_555
C4 C6 1_555 1_555
C5 C7 1_555 1_555
C6 C8 1_555 1_555
C7 C11 1_555 1_555
C8 C5 1_555 1_555
C9 C2 1_555 1_555
C10 C11 1_555 1_555
C12 C2 1_555 1_555
C13 C10 1_555 1_555
C14 C9 1_555 1_555
C15 C3 1_555 1_555
C16 O1 1_555 1_555
C17 C6 1_555 1_555
O1 C17 1_555 1_555
O2 C17 1_555 1_555
Cl1 C15 1_555 1_555
H11 C1 1_555 1_555
H12 C1 1_555 1_555
H13 C1 1_555 1_555
C5 C12 1_555 1_555
C12 C13 1_555 1_555
C14 C15 1_555 1_555

#END
