
#######################################################################
#
#                 Cambridge Crystallographic Data Centre
#                                CCDC 
#
#######################################################################
#
# If this CIF has been generated from an entry in the Cambridge 
# Structural Database, then it will include bibliographic, chemical, 
# crystal, experimental, refinement or atomic coordinate data resulting 
# from the CCDC's data processing and validation procedures.
#
#######################################################################

data_FEJZIF
_chemical_formula_moiety         'C18 H22 O6'
_chemical_name_systematic        
'rac-Isopropyl 2-hydroxy-3-(2-methoxy-2-oxoethyl)-4-phenyl-3,4-dihydro-2H-pyran-6-carboxylate'
_symmetry_cell_setting           monoclinic
_symmetry_space_group_name_H-M   'P 21/n'
_symmetry_Int_Tables_number      14
_space_group_name_Hall           '-P 2yn'
loop_
_symmetry_equiv_pos_site_id
_symmetry_equiv_pos_as_xyz
1 x,y,z
2 1/2-x,1/2+y,1/2-z
3 -x,-y,-z
4 1/2+x,1/2-y,1/2+z
_cell_length_a                   8.191(4)
_cell_length_b                   11.775(6)
_cell_length_c                   18.813(10)
_cell_angle_alpha                90
_cell_angle_beta                 90.873(10)
_cell_angle_gamma                90
_cell_volume                     1814.28
_exptl_crystal_colour            white
_exptl_crystal_description       plate
_cell_formula_units_Z            4
_exptl_crystal_recrystallization_method 'dichloromethane/petroleum ether'
loop_
_atom_site_label
_atom_site_type_symbol
_atom_site_fract_x
_atom_site_fract_y
_atom_site_fract_z
O1 O 0.3835(5) 0.3975(4) 0.0391(2)
O2 O 0.2705(6) 0.4918(3) -0.0597(2)
O3 O 0.2166(6) 0.4856(5) 0.2017(2)
O4 O 0.4711(6) 0.4889(5) 0.1612(3)
O5 O 0.1895(8) 0.2304(6) -0.2297(3)
O6 O 0.3724(8) 0.1886(6) -0.1450(3)
C1 C -0.0796(7) 0.2425(5) 0.0220(3)
C2 C -0.2343(8) 0.2449(6) -0.0052(4)
H1 H -0.2685 0.3083 -0.0329
C3 C -0.3438(10) 0.1568(7) 0.0067(5)
H2 H -0.4502 0.1594 -0.0141
C4 C -0.2985(11) 0.0667(6) 0.0479(5)
H3 H -0.3740 0.0076 0.0576
C5 C -0.1425(12) 0.0624(7) 0.0755(5)
H4 H -0.1084 -0.0007 0.1035
C6 C -0.0349(10) 0.1504(6) 0.0623(4)
H5 H 0.0727 0.1468 0.0816
C7 C 0.3228(7) 0.3863(5) -0.0336(3)
H6 H 0.4141 0.3588 -0.0638
C8 C 0.1843(7) 0.3014(5) -0.0389(3)
H7 H 0.2252 0.2266 -0.0208
C9 C 0.0419(7) 0.3395(5) 0.0081(3)
H8 H -0.0186 0.4008 -0.0180
C10 C 0.1072(7) 0.3900(4) 0.0770(3)
H9 H 0.0332 0.4048 0.1143
C11 C 0.2611(7) 0.4139(5) 0.0869(3)
C12 C 0.1236(8) 0.2853(6) -0.1152(3)
H10 H 0.0223 0.2395 -0.1147
H11 H 0.0957 0.3606 -0.1354
C13 C 0.2445(9) 0.2282(6) -0.1631(3)
C14 C 0.3318(8) 0.4675(5) 0.1540(3)
C15 C 0.2939(15) 0.1789(12) -0.2832(5)
H12 H 0.2423 0.1869 -0.3303
H13 H 0.3094 0.0982 -0.2724
H14 H 0.4001 0.2173 -0.2829
C16 C 0.2671(10) 0.5392(7) 0.2691(3)
H15 H 0.3890 0.5438 0.2713
C17 C 0.204(4) 0.6466(16) 0.2700(10)
H16 H 0.2353 0.6840 0.3148
H17 H 0.0849 0.6429 0.2659
H18 H 0.2473 0.6900 0.2300
C18 C 0.214(3) 0.4696(18) 0.3238(6)
H19 H 0.2464 0.5028 0.3697
H20 H 0.2634 0.3942 0.3192
H21 H 0.0949 0.4628 0.3212
loop_
_geom_bond_atom_site_label_1
_geom_bond_atom_site_label_2
_geom_bond_site_symmetry_1
_geom_bond_site_symmetry_2
O1 C7 1_555 1_555
O2 C7 1_555 1_555
O3 C14 1_555 1_555
O4 C14 1_555 1_555
O5 C13 1_555 1_555
O6 C13 1_555 1_555
C1 C2 1_555 1_555
C2 H1 1_555 1_555
C3 C2 1_555 1_555
H2 C3 1_555 1_555
C4 C3 1_555 1_555
H3 C4 1_555 1_555
C5 C4 1_555 1_555
H4 C5 1_555 1_555
C6 C1 1_555 1_555
H5 C6 1_555 1_555
C7 H6 1_555 1_555
C8 C7 1_555 1_555
H7 C8 1_555 1_555
C9 C1 1_555 1_555
H8 C9 1_555 1_555
C10 C9 1_555 1_555
H9 C10 1_555 1_555
C11 O1 1_555 1_555
C12 C8 1_555 1_555
H10 C12 1_555 1_555
H11 C12 1_555 1_555
C13 C12 1_555 1_555
C14 C11 1_555 1_555
C15 O5 1_555 1_555
H12 C15 1_555 1_555
H13 C15 1_555 1_555
H14 C15 1_555 1_555
C16 O3 1_555 1_555
H15 C16 1_555 1_555
C17 C16 1_555 1_555
H16 C17 1_555 1_555
H17 C17 1_555 1_555
H18 C17 1_555 1_555
C18 C16 1_555 1_555
H19 C18 1_555 1_555
H20 C18 1_555 1_555
H21 C18 1_555 1_555
C5 C6 1_555 1_555
C8 C9 1_555 1_555
C10 C11 1_555 1_555

#END
