
#######################################################################
#
#                 Cambridge Crystallographic Data Centre
#                                CCDC 
#
#######################################################################
#
# If this CIF has been generated from an entry in the Cambridge 
# Structural Database, then it will include bibliographic, chemical, 
# crystal, experimental, refinement or atomic coordinate data resulting 
# from the CCDC's data processing and validation procedures.
#
#######################################################################

data_FEKCUV
_chemical_formula_moiety         'C29 H23 N3,C4 H10 O1'
_chemical_name_systematic        
'(2-((2-Methyl-1H-indol-3-yl)(phenyl)methyl)-3,4-dihydronaphthalen-1(2H)-ylidene)malononitrile ethoxyethane solvate'
_symmetry_cell_setting           monoclinic
_symmetry_space_group_name_H-M   'P 21/c'
_symmetry_Int_Tables_number      14
_space_group_name_Hall           '-P 2ybc'
loop_
_symmetry_equiv_pos_site_id
_symmetry_equiv_pos_as_xyz
1 x,y,z
2 -x,1/2+y,1/2-z
3 -x,-y,-z
4 x,1/2-y,1/2+z
_cell_length_a                   19.589(5)
_cell_length_b                   8.918(2)
_cell_length_c                   15.944(4)
_cell_angle_alpha                90
_cell_angle_beta                 106.685(3)
_cell_angle_gamma                90
_cell_volume                     2668.06
_exptl_crystal_colour            colorless
_exptl_crystal_description       chunk
_cell_formula_units_Z            4
loop_
_atom_site_label
_atom_site_type_symbol
_atom_site_fract_x
_atom_site_fract_y
_atom_site_fract_z
O1 O 0.50040(6) 0.63384(15) 0.70293(8)
C30 C 0.56831(10) 0.6414(3) 0.68796(15)
H23 H 0.6038 0.5875 0.7351
H24 H 0.5835 0.7474 0.6885
C31 C 0.56454(14) 0.5729(3) 0.60235(18)
H25 H 0.5479 0.4691 0.6014
H26 H 0.6119 0.5741 0.5933
H27 H 0.5313 0.6300 0.5556
C32 C 0.49958(12) 0.7013(3) 0.78320(13)
H28 H 0.5053 0.8112 0.7798
H29 H 0.5396 0.6622 0.8314
C33 C 0.43071(14) 0.6665(3) 0.80055(15)
H30 H 0.3917 0.7137 0.7556
H31 H 0.4314 0.7052 0.8583
H32 H 0.4236 0.5576 0.7992
N1 N 0.12751(11) 1.09024(18) 0.35973(12)
N2 N 0.06569(8) 0.96175(16) 0.58622(9)
N3 N 0.37131(7) 0.65905(16) 0.55730(9)
C1 C 0.12289(7) 0.72633(16) 0.43964(9)
C2 C 0.14010(8) 0.68433(17) 0.35648(9)
H1 H 0.1471 0.7775 0.3250
C3 C 0.20845(8) 0.58596(16) 0.37562(9)
H2 H 0.1970 0.4909 0.4020
C4 C 0.07332(8) 0.60043(19) 0.30148(10)
H3 H 0.0314 0.6673 0.2911
H4 H 0.0797 0.5740 0.2439
C5 C 0.05963(8) 0.45805(19) 0.34705(10)
H5 H 0.0085 0.4318 0.3241
H6 H 0.0874 0.3752 0.3316
C6 C 0.07848(8) 0.46865(17) 0.44556(10)
C7 C 0.06579(8) 0.34713(18) 0.49417(12)
H7 H 0.0442 0.2593 0.4644
C8 C 0.08384(9) 0.35158(19) 0.58415(12)
H8 H 0.0744 0.2676 0.6157
C9 C 0.11585(9) 0.47845(19) 0.62889(11)
H9 H 0.1292 0.4808 0.6911
C10 C 0.12829(8) 0.60144(17) 0.58259(10)
H10 H 0.1496 0.6889 0.6131
C11 C 0.10972(7) 0.59814(16) 0.49102(10)
C12 C 0.11345(8) 0.87126(17) 0.45972(10)
C13 C 0.12211(10) 0.99287(18) 0.40417(11)
C14 C 0.08760(8) 0.91804(16) 0.53164(10)
C15 C 0.27218(8) 0.65285(16) 0.44249(9)
C16 C 0.31372(8) 0.57316(17) 0.51290(10)
C17 C 0.30464(10) 0.41961(19) 0.54502(12)
H11 H 0.3442 0.3974 0.5971
H12 H 0.3042 0.3462 0.4991
H13 H 0.2596 0.4142 0.5600
C18 C 0.36786(8) 0.79577(18) 0.51692(10)
C19 C 0.41405(9) 0.9174(2) 0.53889(11)
H14 H 0.4559 0.9124 0.5870
C20 C 0.39721(10) 1.0449(2) 0.48881(12)
H15 H 0.4280 1.1294 0.5024
C21 C 0.33540(9) 1.05205(19) 0.41806(12)
H16 H 0.3245 1.1421 0.3850
C22 C 0.28986(9) 0.93060(17) 0.39524(10)
H17 H 0.2483 0.9369 0.3467
C23 C 0.30567(8) 0.79768(17) 0.44466(10)
C24 C 0.22578(7) 0.54040(17) 0.29170(10)
C25 C 0.24768(8) 0.64361(18) 0.23931(10)
H18 H 0.2515 0.7465 0.2554
C26 C 0.26412(9) 0.5990(2) 0.16388(11)
H19 H 0.2786 0.6715 0.1288
C27 C 0.25951(9) 0.4497(2) 0.13959(11)
H20 H 0.2709 0.4190 0.0881
C28 C 0.23815(9) 0.3459(2) 0.19116(12)
H21 H 0.2350 0.2430 0.1751
C29 C 0.22131(8) 0.39054(18) 0.26624(11)
H22 H 0.2065 0.3176 0.3008
H33 H 0.4100(12) 0.631(2) 0.6050(14)
H34? H 0.2611 0.3745 0.5070
H35? H 0.3011 0.4257 0.6050
H36? H 0.3457 0.3577 0.5441
loop_
_geom_bond_atom_site_label_1
_geom_bond_atom_site_label_2
_geom_bond_site_symmetry_1
_geom_bond_site_symmetry_2
O1 C30 1_555 1_555
N1 C13 1_555 1_555
N2 C14 1_555 1_555
N3 C16 1_555 1_555
C1 C2 1_555 1_555
C2 H1 1_555 1_555
C3 C2 1_555 1_555
H2 C3 1_555 1_555
C4 C2 1_555 1_555
H3 C4 1_555 1_555
H4 C4 1_555 1_555
C5 C4 1_555 1_555
H5 C5 1_555 1_555
H6 C5 1_555 1_555
C6 C5 1_555 1_555
C7 C6 1_555 1_555
H7 C7 1_555 1_555
C8 C7 1_555 1_555
H8 C8 1_555 1_555
C9 C8 1_555 1_555
H9 C9 1_555 1_555
C10 C9 1_555 1_555
H10 C10 1_555 1_555
C11 C1 1_555 1_555
C12 C1 1_555 1_555
C13 C12 1_555 1_555
C14 C12 1_555 1_555
C15 C3 1_555 1_555
C16 C15 1_555 1_555
C17 C16 1_555 1_555
H11 C17 1_555 1_555
H12 C17 1_555 1_555
H13 C17 1_555 1_555
C18 N3 1_555 1_555
C19 C18 1_555 1_555
H14 C19 1_555 1_555
C20 C19 1_555 1_555
H15 C20 1_555 1_555
C21 C20 1_555 1_555
H16 C21 1_555 1_555
C22 C21 1_555 1_555
H17 C22 1_555 1_555
C23 C15 1_555 1_555
C24 C3 1_555 1_555
C25 C24 1_555 1_555
H18 C25 1_555 1_555
C26 C25 1_555 1_555
H19 C26 1_555 1_555
C27 C26 1_555 1_555
H20 C27 1_555 1_555
C28 C27 1_555 1_555
H21 C28 1_555 1_555
C29 C24 1_555 1_555
H22 C29 1_555 1_555
C30 H23 1_555 1_555
H24 C30 1_555 1_555
C31 C30 1_555 1_555
H25 C31 1_555 1_555
H26 C31 1_555 1_555
H27 C31 1_555 1_555
C32 O1 1_555 1_555
H28 C32 1_555 1_555
H29 C32 1_555 1_555
C33 C32 1_555 1_555
H30 C33 1_555 1_555
H31 C33 1_555 1_555
H32 C33 1_555 1_555
H33 N3 1_555 1_555
C6 C11 1_555 1_555
C10 C11 1_555 1_555
C18 C23 1_555 1_555
C22 C23 1_555 1_555
C28 C29 1_555 1_555

#END
