
#######################################################################
#
#                 Cambridge Crystallographic Data Centre
#                                CCDC 
#
#######################################################################
#
# If this CIF has been generated from an entry in the Cambridge 
# Structural Database, then it will include bibliographic, chemical, 
# crystal, experimental, refinement or atomic coordinate data resulting 
# from the CCDC's data processing and validation procedures.
#
#######################################################################

data_FEKDEH
_chemical_formula_moiety         'C10 H15 N1 O2'
_chemical_name_systematic        
9,9-dimethyl-3-oxa-5-azatricyclo[6.1.1.0^2,6^]decan-4-one
_symmetry_cell_setting           orthorhombic
_symmetry_space_group_name_H-M   'P 21 21 21'
_symmetry_Int_Tables_number      19
_space_group_name_Hall           'P 2ac 2ab'
loop_
_symmetry_equiv_pos_site_id
_symmetry_equiv_pos_as_xyz
1 x,y,z
2 1/2-x,-y,1/2+z
3 -x,1/2+y,1/2-z
4 1/2+x,1/2-y,-z
_cell_length_a                   6.1662(3)
_cell_length_b                   7.0886(4)
_cell_length_c                   20.6897(10)
_cell_angle_alpha                90
_cell_angle_beta                 90
_cell_angle_gamma                90
_cell_volume                     904.341
_exptl_crystal_colour            colorless
_exptl_crystal_description       plate
_cell_formula_units_Z            4
loop_
_atom_site_label
_atom_site_type_symbol
_atom_site_fract_x
_atom_site_fract_y
_atom_site_fract_z
O1 O 0.9252(2) -0.0100(2) 0.73853(6)
O2 O 0.5971(3) -0.0366(3) 0.78468(8)
N1 N 0.6954(3) -0.2152(3) 0.69629(9)
H1 H 0.5745 -0.2796 0.6914
C1 C 0.7238(4) -0.0862(3) 0.74293(11)
C2 C 1.0492(3) -0.1071(3) 0.68860(10)
H2 H 1.1616 -0.1872 0.7100
C3 C 0.8838(3) -0.2385(3) 0.65439(10)
H3 H 0.9361 -0.3717 0.6576
C4 C 0.8421(4) -0.1903(3) 0.58234(10)
H4 H 0.8529 -0.3071 0.5563
H5 H 0.6929 -0.1405 0.5776
C5 C 1.0028(3) -0.0452(3) 0.55639(10)
H6 H 0.9979 -0.0248 0.5086
C6 C 1.2302(3) -0.0897(3) 0.58429(10)
H7 H 1.2551 -0.2249 0.5937
H8 H 1.3518 -0.0350 0.5593
C7 C 1.1616(3) 0.0283(3) 0.64358(10)
H9 H 1.2795 0.1055 0.6636
C8 C 1.0046(3) 0.1386(3) 0.59803(11)
C9 C 1.1288(4) 0.3002(3) 0.56550(11)
H10 H 1.1614 0.3979 0.5976
H11 H 1.0400 0.3542 0.5309
H12 H 1.2646 0.2517 0.5473
C10 C 0.7891(4) 0.2174(3) 0.62317(12)
H13 H 0.7150 0.2852 0.5883
H14 H 0.8170 0.3040 0.6591
H15 H 0.6974 0.1133 0.6382
loop_
_geom_bond_atom_site_label_1
_geom_bond_atom_site_label_2
_geom_bond_site_symmetry_1
_geom_bond_site_symmetry_2
O1 C1 1_555 1_555
O2 C1 1_555 1_555
N1 H1 1_555 1_555
C1 N1 1_555 1_555
C2 O1 1_555 1_555
H2 C2 1_555 1_555
C3 N1 1_555 1_555
H3 C3 1_555 1_555
C4 C3 1_555 1_555
H4 C4 1_555 1_555
H5 C4 1_555 1_555
C5 C4 1_555 1_555
H6 C5 1_555 1_555
C6 C5 1_555 1_555
H7 C6 1_555 1_555
H8 C6 1_555 1_555
C7 C2 1_555 1_555
H9 C7 1_555 1_555
C8 C5 1_555 1_555
C9 C8 1_555 1_555
H10 C9 1_555 1_555
H11 C9 1_555 1_555
H12 C9 1_555 1_555
C10 C8 1_555 1_555
H13 C10 1_555 1_555
H14 C10 1_555 1_555
H15 C10 1_555 1_555
C2 C3 1_555 1_555
C6 C7 1_555 1_555
C7 C8 1_555 1_555

#END
