
#######################################################################
#
#                 Cambridge Crystallographic Data Centre
#                                CCDC 
#
#######################################################################
#
# If this CIF has been generated from an entry in the Cambridge 
# Structural Database, then it will include bibliographic, chemical, 
# crystal, experimental, refinement or atomic coordinate data resulting 
# from the CCDC's data processing and validation procedures.
#
#######################################################################

data_FEKGUX
_chemical_formula_moiety         'C29 H21 N1 O3'
_chemical_name_systematic        
'2-Methoxycarbonyl-1-naphthyl N-(1-naphthyl)benzimidate'
_symmetry_cell_setting           monoclinic
_symmetry_space_group_name_H-M   'C 2/c'
_symmetry_Int_Tables_number      15
_space_group_name_Hall           '-C 2yn'
loop_
_symmetry_equiv_pos_site_id
_symmetry_equiv_pos_as_xyz
1 x,y,z
2 1/2+x,1/2+y,z
3 -x,y,1/2-z
4 1/2-x,1/2+y,1/2-z
5 -x,-y,-z
6 1/2-x,1/2-y,-z
7 x,-y,1/2+z
8 1/2+x,1/2-y,1/2+z
_cell_length_a                   19.536(5)
_cell_length_b                   13.144(1)
_cell_length_c                   17.678(4)
_cell_angle_alpha                90
_cell_angle_beta                 100.28(2)
_cell_angle_gamma                90
_cell_volume                     4466.51
_chemical_melting_point          142-144deg.C
_cell_formula_units_Z            8
loop_
_atom_site_label
_atom_site_type_symbol
_atom_site_fract_x
_atom_site_fract_y
_atom_site_fract_z
C1 C 0.6791(2) 0.1896(3) 0.0848(2)
C2 C 0.7428(2) 0.1826(3) 0.1322(2)
C3 C 0.7543(3) 0.2424(3) 0.2007(2)
C4 C 0.7045(3) 0.3064(3) 0.2175(2)
C5 C 0.6389(2) 0.3143(3) 0.1699(2)
C6 C 0.5851(3) 0.3786(3) 0.1864(3)
C7 C 0.5219(3) 0.3813(4) 0.1401(3)
C8 C 0.5084(3) 0.3204(3) 0.0733(3)
C9 C 0.5590(2) 0.2580(3) 0.0546(2)
C10 C 0.6255(2) 0.2524(3) 0.1017(2)
C11 C 0.7997(2) 0.1139(3) 0.1199(3)
O1 O 0.8394(2) 0.0742(3) 0.1715(2)
O2 O 0.8048(2) 0.1009(2) 0.0459(2)
C12 C 0.8603(3) 0.0361(4) 0.0307(3)
O3 O 0.6644(2) 0.1371(2) 0.0149(2)
C13 C 0.6569(2) 0.0335(3) 0.0173(2)
N1 N 0.6572(2) -0.0093(2) 0.0812(2)
C14 C 0.6581(2) -0.1172(3) 0.0882(2)
C15 C 0.7138(2) -0.1735(3) 0.0785(2)
C16 C 0.7158(2) -0.2798(3) 0.0906(2)
C17 C 0.6604(3) -0.3279(3) 0.1125(2)
C18 C 0.6013(2) -0.2709(3) 0.1235(2)
C19 C 0.5428(3) -0.3179(3) 0.1465(3)
C20 C 0.4875(2) -0.2622(4) 0.1587(3)
C21 C 0.4871(2) -0.1562(4) 0.1499(2)
C22 C 0.5416(2) -0.1075(3) 0.1269(2)
C23 C 0.6006(2) -0.1643(3) 0.1130(2)
C24 C 0.6475(2) -0.0088(3) -0.0615(2)
C25 C 0.6853(2) 0.0311(3) -0.1144(2)
C26 C 0.6737(2) -0.0060(3) -0.1898(2)
C27 C 0.6255(2) -0.0816(3) -0.2117(2)
C28 C 0.5880(2) -0.1210(3) -0.1592(2)
C29 C 0.5993(2) -0.0858(3) -0.0834(2)
H1 H 0.802(2) 0.234(3) 0.236(2)
H2 H 0.715(2) 0.352(3) 0.268(2)
H3 H 0.596(2) 0.427(3) 0.232(2)
H4 H 0.483(2) 0.434(3) 0.153(2)
H5 H 0.456(2) 0.324(3) 0.033(2)
H6 H 0.550(2) 0.211(3) 0.004(2)
H7 H 0.857(2) -0.037(3) 0.049(2)
H8 H 0.858(2) 0.036(3) -0.031(3)
H9 H 0.758(2) -0.136(2) 0.060(2)
H10 H 0.758(2) -0.319(3) 0.082(2)
H11 H 0.661(2) -0.411(3) 0.121(2)
H12 H 0.545(2) -0.402(3) 0.153(2)
H13 H 0.442(2) -0.297(3) 0.174(3)
H14 H 0.444(2) -0.117(3) 0.159(3)
H15 H 0.544(2) -0.027(3) 0.117(2)
H16 H 0.720(2) 0.096(3) -0.098(2)
H17 H 0.703(2) 0.024(3) -0.230(2)
H18 H 0.616(2) -0.108(3) -0.271(2)
H19 H 0.552(2) -0.179(3) -0.174(2)
H20 H 0.570(2) -0.116(3) -0.042(2)
loop_
_geom_bond_atom_site_label_1
_geom_bond_atom_site_label_2
_geom_bond_site_symmetry_1
_geom_bond_site_symmetry_2
C1 C2 1_555 1_555
C2 C3 1_555 1_555
C3 C4 1_555 1_555
C4 C5 1_555 1_555
C5 C6 1_555 1_555
C6 C7 1_555 1_555
C7 C8 1_555 1_555
C8 C9 1_555 1_555
C9 C10 1_555 1_555
C10 C1 1_555 1_555
C11 C2 1_555 1_555
O1 C11 1_555 1_555
O2 C11 1_555 1_555
C12 O2 1_555 1_555
O3 C1 1_555 1_555
C13 O3 1_555 1_555
N1 C13 1_555 1_555
C14 N1 1_555 1_555
C15 C14 1_555 1_555
C16 C15 1_555 1_555
C17 C16 1_555 1_555
C18 C17 1_555 1_555
C19 C18 1_555 1_555
C20 C19 1_555 1_555
C21 C20 1_555 1_555
C22 C21 1_555 1_555
C23 C14 1_555 1_555
C24 C13 1_555 1_555
C25 C24 1_555 1_555
C26 C25 1_555 1_555
C27 C26 1_555 1_555
C28 C27 1_555 1_555
C29 C24 1_555 1_555
H1 C3 1_555 1_555
H2 C4 1_555 1_555
H3 C6 1_555 1_555
H4 C7 1_555 1_555
H5 C8 1_555 1_555
H6 C9 1_555 1_555
H7 C12 1_555 1_555
H8 C12 1_555 1_555
H9 C15 1_555 1_555
H10 C16 1_555 1_555
H11 C17 1_555 1_555
H12 C19 1_555 1_555
H13 C20 1_555 1_555
H14 C21 1_555 1_555
H15 C22 1_555 1_555
H16 C25 1_555 1_555
H17 C26 1_555 1_555
H18 C27 1_555 1_555
H19 C28 1_555 1_555
H20 C29 1_555 1_555
C5 C10 1_555 1_555
C18 C23 1_555 1_555
C22 C23 1_555 1_555
C28 C29 1_555 1_555

#END
