
#######################################################################
#
#                 Cambridge Crystallographic Data Centre
#                                CCDC 
#
#######################################################################
#
# If this CIF has been generated from an entry in the Cambridge 
# Structural Database, then it will include bibliographic, chemical, 
# crystal, experimental, refinement or atomic coordinate data resulting 
# from the CCDC's data processing and validation procedures.
#
#######################################################################

data_FEKJEM
_chemical_formula_moiety         'C11 H10 Br1 N1 O4'
_chemical_name_systematic        
6-Bromo-4-(nitromethyl)chromane-3-carbaldehyde
_symmetry_cell_setting           orthorhombic
_symmetry_space_group_name_H-M   'P 21 21 21'
_symmetry_Int_Tables_number      19
_space_group_name_Hall           'P 2ac 2ab'
loop_
_symmetry_equiv_pos_site_id
_symmetry_equiv_pos_as_xyz
1 x,y,z
2 1/2-x,-y,1/2+z
3 1/2+x,1/2-y,-z
4 -x,1/2+y,1/2-z
_cell_length_a                   6.9478(5)
_cell_length_b                   10.0918(7)
_cell_length_c                   16.0458(11)
_cell_angle_alpha                90
_cell_angle_beta                 90
_cell_angle_gamma                90
_cell_volume                     1125.06
_cell_formula_units_Z            4
loop_
_atom_site_label
_atom_site_type_symbol
_atom_site_fract_x
_atom_site_fract_y
_atom_site_fract_z
Br1 Br 0.07363(18) 0.26834(14) 0.68001(7)
C1 C 0.0841(18) 0.1808(13) 0.5109(8)
C2 C 0.0778(17) 0.4178(11) 0.5314(6)
C3 C 0.0804(16) 0.2887(12) 0.5608(7)
C4 C 0.0766(18) 0.4377(12) 0.4430(7)
C5 C 0.0823(16) 0.2014(12) 0.4259(7)
C6 C 0.0787(19) 0.3325(13) 0.3936(7)
C7 C 0.0628(17) 0.5793(12) 0.4099(6)
C8 C 0.0202(16) 0.5756(12) 0.3149(7)
C9 C 0.1262(19) 0.4658(14) 0.2735(8)
C10 C 0.2531(18) 0.6534(13) 0.4278(8)
O1 O 0.0765(11) 0.3371(8) 0.3074(5)
N1 N 0.2288(18) 0.7959(13) 0.4038(7)
O2 O 0.0810(16) 0.8577(11) 0.4211(7)
C11 C -0.1978(19) 0.5622(14) 0.3041(8)
O3 O -0.3144(16) 0.5830(12) 0.3517(7)
O4 O 0.3614(18) 0.8454(13) 0.3638(8)
H1 H 0.06320 0.65270 0.29110
H2 H 0.27170 0.48160 0.27970
H3 H 0.07040 0.09150 0.54090
H4 H 0.27910 0.65540 0.48190
H5 H 0.07130 0.49750 0.56950
H6 H -0.04000 0.62310 0.43510
H7 H 0.04330 0.12470 0.39290
H8 H -0.23810 0.52560 0.23880
H9 H 0.38380 0.62480 0.41600
H10 H 0.10720 0.47280 0.22090
loop_
_geom_bond_atom_site_label_1
_geom_bond_atom_site_label_2
_geom_bond_site_symmetry_1
_geom_bond_site_symmetry_2
Br1 C3 1_555 1_555
C1 C3 1_555 1_555
C2 C3 1_555 1_555
C4 C2 1_555 1_555
C5 C1 1_555 1_555
C6 C4 1_555 1_555
C7 C4 1_555 1_555
C8 C7 1_555 1_555
C9 C8 1_555 1_555
C10 C7 1_555 1_555
O1 C6 1_555 1_555
N1 C10 1_555 1_555
O2 N1 1_555 1_555
C11 C8 1_555 1_555
O3 C11 1_555 1_555
O4 N1 1_555 1_555
H1 C8 1_555 1_555
H2 C9 1_555 1_555
H3 C1 1_555 1_555
H4 C10 1_555 1_555
H5 C2 1_555 1_555
H6 C7 1_555 1_555
H7 C5 1_555 1_555
H8 C11 1_555 1_555
H9 C10 1_555 1_555
H10 C9 1_555 1_555
C5 C6 1_555 1_555
C9 O1 1_555 1_555

#END
