
#######################################################################
#
#                 Cambridge Crystallographic Data Centre
#                                CCDC 
#
#######################################################################
#
# If this CIF has been generated from an entry in the Cambridge 
# Structural Database, then it will include bibliographic, chemical, 
# crystal, experimental, refinement or atomic coordinate data resulting 
# from the CCDC's data processing and validation procedures.
#
#######################################################################

data_FEKKOX
_chemical_formula_moiety         'C29 H26 Cl1 N1 O1 S1'
_chemical_name_systematic        
1-(4-Chlorophenyl)-6,6-dimethyl-3-((4-methylphenyl)sulfanyl)-2-phenyl-1,5,6,7-tetrahydro-4H-indol-4-one
_symmetry_cell_setting           triclinic
_symmetry_space_group_name_H-M   'P -1'
_symmetry_Int_Tables_number      2
_space_group_name_Hall           '-P 1'
loop_
_symmetry_equiv_pos_site_id
_symmetry_equiv_pos_as_xyz
1 x,y,z
2 -x,-y,-z
_cell_length_a                   11.4766(11)
_cell_length_b                   14.6201(15)
_cell_length_c                   15.6887(18)
_cell_angle_alpha                100.924(2)
_cell_angle_beta                 91.8890(10)
_cell_angle_gamma                99.8270(10)
_cell_volume                     2540.96
_exptl_crystal_colour            colorless
_exptl_crystal_description       block
_cell_formula_units_Z            4
loop_
_atom_site_label
_atom_site_type_symbol
_atom_site_fract_x
_atom_site_fract_y
_atom_site_fract_z
S1 S 0.30051(13) 0.77510(9) 0.42043(7)
Cl1 Cl 0.02810(14) 0.70226(9) -0.17725(7)
N1 N 0.1673(4) 0.8135(3) 0.1992(2)
O1 O 0.1953(3) 0.9713(2) 0.48251(19)
C1 C 0.1586(5) 0.9651(4) 0.4078(3)
C2 C 0.1248(10) 1.0483(6) 0.3738(6)
H1 H 0.0955 1.0891 0.4212
H2 H 0.1960 1.0844 0.3565
C4 C 0.0336(6) 1.0242(5) 0.2984(4)
C5 C 0.0900(12) 0.9669(9) 0.2198(9)
H5 H 0.0306 0.9403 0.1722
H6 H 0.1535 1.0082 0.1991
C7 C 0.1365(5) 0.8906(4) 0.2519(3)
C8 C 0.1768(5) 0.8897(4) 0.3359(3)
C9 C 0.2280(4) 0.8086(3) 0.3338(3)
C10 C 0.2245(5) 0.7610(4) 0.2490(3)
C11 C 0.2696(5) 0.6770(4) 0.2083(3)
C12 C 0.2376(4) 0.5951(4) 0.2406(3)
H9 H 0.1872 0.5938 0.2857
C13 C 0.2820(5) 0.5147(4) 0.2043(3)
H10 H 0.2627 0.4598 0.2265
C14 C 0.3542(5) 0.5154(4) 0.1357(3)
H11 H 0.3821 0.4609 0.1109
C15 C 0.3845(5) 0.5976(5) 0.1046(3)
H12 H 0.4336 0.5988 0.0587
C16 C 0.3430(5) 0.6776(4) 0.1406(3)
H13 H 0.3645 0.7328 0.1193
C17 C 0.1342(5) 0.7858(4) 0.1067(3)
C18 C 0.0574(4) 0.7018(3) 0.0758(3)
H14 H 0.0272 0.6632 0.1136
C19 C 0.0259(4) 0.6759(3) -0.0124(3)
H15 H -0.0252 0.6191 -0.0346
C20 C 0.0701(5) 0.7340(4) -0.0664(3)
C21 C 0.1452(5) 0.8165(4) -0.0374(3)
H16 H 0.1739 0.8550 -0.0758
C22 C 0.1788(5) 0.8432(3) 0.0512(3)
H17 H 0.2312 0.8995 0.0725
C23 C 0.1839(6) 0.7214(3) 0.4736(3)
C24 C 0.0661(6) 0.7230(3) 0.4548(3)
H18 H 0.0454 0.7551 0.4125
C25 C -0.0222(5) 0.6768(4) 0.4986(4)
H19 H -0.1010 0.6786 0.4842
C26 C 0.0029(6) 0.6287(4) 0.5624(3)
C27 C 0.1222(7) 0.6294(4) 0.5800(3)
H20 H 0.1440 0.5984 0.6230
C28 C 0.2093(5) 0.6741(4) 0.5365(3)
H21 H 0.2880 0.6719 0.5506
C29 C -0.0946(5) 0.5788(4) 0.6087(3)
H22 H -0.0633 0.5359 0.6387
H23 H -0.1571 0.5441 0.5669
H24 H -0.1251 0.6247 0.6498
C30 C 0.0022(12) 1.1081(9) 0.2688(9)
H25 H 0.0728 1.1467 0.2551
H26 H -0.0347 1.1444 0.3143
H27 H -0.0517 1.0876 0.2180
C31 C -0.0747(7) 0.9556(6) 0.3196(6)
S2 S 0.21474(12) 0.18038(9) 0.97529(8)
Cl2 Cl 0.43439(17) 0.37608(12) 0.44745(8)
N2 N 0.3408(3) 0.1906(3) 0.7461(3)
O2 O 0.3381(4) -0.0073(3) 0.9410(3)
C34 C 0.3628(6) 0.0081(5) 0.8695(4)
C35 C 0.3838(12) -0.0720(8) 0.7881(9)
H34 H 0.4152 -0.1214 0.8099
H35 H 0.3082 -0.1005 0.7566
C36 C 0.4624(7) -0.0359(4) 0.7302(4)
C37 C 0.425(5) 0.044(4) 0.686(4)
H36 H 0.4927 0.0787 0.6638
H37 H 0.3652 0.0167 0.6388
C38 C 0.3746(5) 0.1084(4) 0.7594(4)
C39 C 0.3395(5) 0.0931(4) 0.8380(4)
C40 C 0.2831(4) 0.1678(4) 0.8776(3)
C41 C 0.2843(4) 0.2272(4) 0.8194(3)
C42 C 0.2332(4) 0.3130(3) 0.8233(3)
C43 C 0.2562(4) 0.3864(4) 0.8964(3)
H38 H 0.3048 0.3815 0.9433
C44 C 0.2068(5) 0.4658(4) 0.8984(3)
H39 H 0.2224 0.5142 0.9474
C45 C 0.1350(5) 0.4762(3) 0.8305(4)
H40 H 0.1029 0.5308 0.8332
C46 C 0.1113(4) 0.4041(4) 0.7579(3)
H41 H 0.0629 0.4102 0.7113
C47 C 0.1591(4) 0.3231(3) 0.7542(3)
H42 H 0.1420 0.2747 0.7052
C48 C 0.3665(4) 0.2350(4) 0.6735(3)
C49 C 0.4321(4) 0.3246(3) 0.6859(3)
H43 H 0.4624 0.3559 0.7415
C50 C 0.4533(4) 0.3683(3) 0.6165(3)
H44 H 0.4982 0.4289 0.6246
C51 C 0.4077(5) 0.3215(4) 0.5354(3)
C52 C 0.3431(5) 0.2332(4) 0.5215(3)
H45 H 0.3134 0.2024 0.4656
C53 C 0.3219(4) 0.1892(3) 0.5912(3)
H46 H 0.2772 0.1284 0.5825
C54 C 0.3345(5) 0.2282(3) 1.0532(3)
C55 C 0.3092(5) 0.2528(4) 1.1393(4)
H47 H 0.2315 0.2422 1.1552
C56 C 0.4006(6) 0.2932(4) 1.2009(3)
H48 H 0.3823 0.3088 1.2586
C57 C 0.5175(6) 0.3120(4) 1.1821(4)
C58 C 0.5423(5) 0.2850(4) 1.0965(4)
H49 H 0.6204 0.2947 1.0810
C59 C 0.4511(6) 0.2432(4) 1.0330(3)
H50 H 0.4694 0.2251 0.9756
C60 C 0.6182(4) 0.3588(3) 1.2508(3)
H51 H 0.6868 0.3305 1.2379
H52 H 0.5940 0.3499 1.3071
H53 H 0.6370 0.4253 1.2506
C61 C 0.504(3) -0.104(3) 0.654(3)
H54 H 0.5388 -0.1506 0.6769
H55 H 0.5613 -0.0689 0.6242
H56 H 0.4370 -0.1353 0.6148
C62 C 0.5901(8) 0.0176(6) 0.7846(6)
H57 H 0.5748 0.0602 0.8359
H58 H 0.6379 0.0526 0.7484
H59 H 0.6312 -0.0290 0.8010
C3? C 0.025(2) 1.0122(12) 0.3958(11)
H3? H -0.0453 0.9680 0.4035
H4? H 0.0272 1.0723 0.4353
C6? C 0.016(2) 0.9376(18) 0.2382(19)
H7? H 0.0076 0.9480 0.1792
H8? H -0.0544 0.8959 0.2494
C32? C -0.077(2) 1.0804(17) 0.2948(19)
H28? H -0.0871 1.0934 0.2376
H29? H -0.0602 1.1389 0.3366
H30? H -0.1476 1.0420 0.3081
C33? C 0.1424(15) 1.1087(9) 0.2937(9)
H31? H 0.2142 1.0945 0.3170
H32? H 0.1270 1.1670 0.3271
H33? H 0.1508 1.1147 0.2343
C63? C 0.4695(13) -0.0343(11) 0.8289(9)
C64? C 0.458(6) 0.057(5) 0.706(4)
C65? C 0.545(4) -0.095(4) 0.684(3)
C66? C 0.3252(10) -0.0993(7) 0.7000(8)
H60? H 0.5437 0.0040 0.8557
H61? H 0.4661 -0.0981 0.8391
H62? H 0.4330 0.0467 0.6452
H63? H 0.5370 0.0950 0.7152
H64? H 0.6218 -0.0771 0.7138
H65? H 0.5501 -0.0837 0.6254
H66? H 0.5147 -0.1603 0.6821
H67? H 0.3175 -0.1585 0.7193
H68? H 0.3127 -0.1112 0.6378
H69? H 0.2673 -0.0643 0.7258
loop_
_geom_bond_atom_site_label_1
_geom_bond_atom_site_label_2
_geom_bond_site_symmetry_1
_geom_bond_site_symmetry_2
S1 C9 1_555 1_555
S2 C40 1_555 1_555
Cl1 C20 1_555 1_555
Cl2 C51 1_555 1_555
N1 C7 1_555 1_555
N2 C38 1_555 1_555
O1 C1 1_555 1_555
O2 C34 1_555 1_555
C1 C2 1_555 1_555
C2 H1 1_555 1_555
H2 C2 1_555 1_555
C4 C2 1_555 1_555
C5 C4 1_555 1_555
H5 C5 1_555 1_555
H6 C5 1_555 1_555
C7 C5 1_555 1_555
C8 C1 1_555 1_555
C9 C8 1_555 1_555
C10 N1 1_555 1_555
C11 C10 1_555 1_555
C12 C11 1_555 1_555
H9 C12 1_555 1_555
C13 C12 1_555 1_555
H10 C13 1_555 1_555
C14 C13 1_555 1_555
H11 C14 1_555 1_555
C15 C14 1_555 1_555
H12 C15 1_555 1_555
C16 C11 1_555 1_555
H13 C16 1_555 1_555
C17 N1 1_555 1_555
C18 C17 1_555 1_555
H14 C18 1_555 1_555
C19 C18 1_555 1_555
H15 C19 1_555 1_555
C20 C19 1_555 1_555
C21 C20 1_555 1_555
H16 C21 1_555 1_555
C22 C17 1_555 1_555
H17 C22 1_555 1_555
C23 S1 1_555 1_555
C24 C23 1_555 1_555
H18 C24 1_555 1_555
C25 C24 1_555 1_555
H19 C25 1_555 1_555
C26 C25 1_555 1_555
C27 C26 1_555 1_555
H20 C27 1_555 1_555
C28 C23 1_555 1_555
H21 C28 1_555 1_555
C29 C26 1_555 1_555
H22 C29 1_555 1_555
H23 C29 1_555 1_555
H24 C29 1_555 1_555
C30 C4 1_555 1_555
H25 C30 1_555 1_555
H26 C30 1_555 1_555
H27 C30 1_555 1_555
C31 C4 1_555 1_555
C34 C35 1_555 1_555
C35 H34 1_555 1_555
H35 C35 1_555 1_555
C36 C35 1_555 1_555
C37 C36 1_555 1_555
H36 C37 1_555 1_555
H37 C37 1_555 1_555
C38 C37 1_555 1_555
C39 C34 1_555 1_555
C40 C39 1_555 1_555
C41 N2 1_555 1_555
C42 C41 1_555 1_555
C43 C42 1_555 1_555
H38 C43 1_555 1_555
C44 C43 1_555 1_555
H39 C44 1_555 1_555
C45 C44 1_555 1_555
H40 C45 1_555 1_555
C46 C45 1_555 1_555
H41 C46 1_555 1_555
C47 C42 1_555 1_555
H42 C47 1_555 1_555
C48 N2 1_555 1_555
C49 C48 1_555 1_555
H43 C49 1_555 1_555
C50 C49 1_555 1_555
H44 C50 1_555 1_555
C51 C50 1_555 1_555
C52 C51 1_555 1_555
H45 C52 1_555 1_555
C53 C48 1_555 1_555
H46 C53 1_555 1_555
C54 S2 1_555 1_555
C55 C54 1_555 1_555
H47 C55 1_555 1_555
C56 C55 1_555 1_555
H48 C56 1_555 1_555
C57 C56 1_555 1_555
C58 C57 1_555 1_555
H49 C58 1_555 1_555
C59 C54 1_555 1_555
H50 C59 1_555 1_555
C60 C57 1_555 1_555
H51 C60 1_555 1_555
H52 C60 1_555 1_555
H53 C60 1_555 1_555
C61 C36 1_555 1_555
H54 C61 1_555 1_555
H55 C61 1_555 1_555
H56 C61 1_555 1_555
C62 C36 1_555 1_555
H57 C62 1_555 1_555
H58 C62 1_555 1_555
H59 C62 1_555 1_555
C7 C8 1_555 1_555
C9 C10 1_555 1_555
C15 C16 1_555 1_555
C21 C22 1_555 1_555
C27 C28 1_555 1_555
C38 C39 1_555 1_555
C40 C41 1_555 1_555
C46 C47 1_555 1_555
C52 C53 1_555 1_555
C58 C59 1_555 1_555

#END
