
#######################################################################
#
#                 Cambridge Crystallographic Data Centre
#                                CCDC 
#
#######################################################################
#
# If this CIF has been generated from an entry in the Cambridge 
# Structural Database, then it will include bibliographic, chemical, 
# crystal, experimental, refinement or atomic coordinate data resulting 
# from the CCDC's data processing and validation procedures.
#
#######################################################################

data_FEKKUD
_chemical_formula_moiety         'C30 H28 Br1 N1 O2 S1'
_chemical_name_systematic        
2-(4-Bromophenyl)-1-(4-methoxyphenyl)-6,6-dimethyl-7-((4-methylphenyl)sulfanyl)-1,5,6,7-tetrahydro-4H-indol-4-one
_symmetry_cell_setting           orthorhombic
_symmetry_space_group_name_H-M   'P b c a'
_symmetry_Int_Tables_number      61
_space_group_name_Hall           '-P 2ac 2ab'
loop_
_symmetry_equiv_pos_site_id
_symmetry_equiv_pos_as_xyz
1 x,y,z
2 1/2-x,-y,1/2+z
3 -x,1/2+y,1/2-z
4 1/2+x,1/2-y,-z
5 -x,-y,-z
6 1/2+x,y,1/2-z
7 x,1/2-y,1/2+z
8 1/2-x,1/2+y,z
_cell_length_a                   16.9968(18)
_cell_length_b                   14.3682(15)
_cell_length_c                   22.05(2)
_cell_angle_alpha                90
_cell_angle_beta                 90
_cell_angle_gamma                90
_cell_volume                     5384.91
_exptl_crystal_colour            colorless
_exptl_crystal_description       block
_cell_formula_units_Z            8
loop_
_atom_site_label
_atom_site_type_symbol
_atom_site_fract_x
_atom_site_fract_y
_atom_site_fract_z
Br1 Br 1.57539(3) 0.32938(4) 1.04441(3)
S1 S 1.28656(7) 0.42141(8) 0.64357(6)
N1 N 1.39188(19) 0.4771(2) 0.77264(17)
O1 O 1.16414(19) 0.6457(2) 0.79477(17)
O2 O 1.63441(19) 0.2693(2) 0.66852(16)
C1 C 1.3343(2) 0.5222(3) 0.7395(2)
C2 C 1.3299(2) 0.5311(3) 0.6723(2)
H1 H 1.3835 0.5370 0.6563
C3 C 1.2833(3) 0.6204(3) 0.6561(2)
C4 C 1.2055(3) 0.6223(3) 0.6921(2)
H2 H 1.1792 0.6809 0.6840
H3 H 1.1719 0.5730 0.6770
C5 C 1.2132(3) 0.6111(3) 0.7598(3)
C6 C 1.2796(3) 0.5574(3) 0.7810(2)
C7 C 1.3052(3) 0.5317(3) 0.8394(2)
H4 H 1.2797 0.5463 0.8755
C8 C 1.3735(3) 0.4820(3) 0.8348(2)
C9 C 1.4236(3) 0.4423(3) 0.8827(2)
C10 C 1.5058(3) 0.4432(3) 0.8804(2)
H5 H 1.5309 0.4667 0.8462
C11 C 1.5506(3) 0.4097(3) 0.9283(2)
H6 H 1.6052 0.4104 0.9258
C12 C 1.5146(3) 0.3755(3) 0.9793(2)
C13 C 1.4340(3) 0.3738(3) 0.9825(2)
H7 H 1.4095 0.3502 1.0169
C14 C 1.3888(3) 0.4068(3) 0.9348(2)
H8 H 1.3343 0.4051 0.9377
C15 C 1.4552(2) 0.4247(3) 0.74482(19)
C16 C 1.5196(2) 0.4706(3) 0.72187(18)
H9 H 1.5219 0.5352 0.7240
C17 C 1.5815(2) 0.4214(3) 0.6954(2)
H10 H 1.6247 0.4527 0.6796
C18 C 1.5777(2) 0.3255(3) 0.6931(2)
C19 C 1.5122(3) 0.2799(3) 0.7165(2)
H11 H 1.5096 0.2153 0.7146
C20 C 1.4510(2) 0.3291(3) 0.7424(2)
H12 H 1.4075 0.2980 0.7580
C21 C 1.7046(3) 0.3125(3) 0.6473(3)
H13 H 1.6919 0.3558 0.6156
H14 H 1.7397 0.2659 0.6319
H15 H 1.7295 0.3450 0.6802
C22 C 1.3401(3) 0.4033(3) 0.5755(2)
C23 C 1.3016(3) 0.3884(3) 0.5210(3)
H16 H 1.2469 0.3897 0.5200
C24 C 1.3425(4) 0.3719(3) 0.4683(2)
H17 H 1.3149 0.3614 0.4326
C25 C 1.4242(3) 0.3705(3) 0.4672(2)
C26 C 1.4614(3) 0.3852(3) 0.5218(3)
H18 H 1.5161 0.3856 0.5227
C27 C 1.4212(3) 0.3994(3) 0.5752(2)
H19 H 1.4489 0.4065 0.6113
C28 C 1.4693(3) 0.3527(3) 0.4099(2)
H20 H 1.4538 0.2938 0.3931
H21 H 1.5246 0.3516 0.4187
H22 H 1.4585 0.4012 0.3812
C29 C 1.3343(3) 0.7047(3) 0.6743(2)
H23 H 1.3063 0.7612 0.6654
H24 H 1.3826 0.7035 0.6518
H25 H 1.3455 0.7019 0.7169
C30 C 1.2660(3) 0.6253(3) 0.5880(2)
H26 H 1.2311 0.5755 0.5769
H27 H 1.3143 0.6194 0.5657
H28 H 1.2418 0.6839 0.5786
loop_
_geom_bond_atom_site_label_1
_geom_bond_atom_site_label_2
_geom_bond_site_symmetry_1
_geom_bond_site_symmetry_2
Br1 C12 1_555 1_555
S1 C2 1_555 1_555
N1 C1 1_555 1_555
O1 C5 1_555 1_555
O2 C18 1_555 1_555
C1 C2 1_555 1_555
C2 H1 1_555 1_555
C3 C2 1_555 1_555
C4 C3 1_555 1_555
H2 C4 1_555 1_555
H3 C4 1_555 1_555
C5 C4 1_555 1_555
C6 C1 1_555 1_555
C7 C6 1_555 1_555
H4 C7 1_555 1_555
C8 N1 1_555 1_555
C9 C8 1_555 1_555
C10 C9 1_555 1_555
H5 C10 1_555 1_555
C11 C10 1_555 1_555
H6 C11 1_555 1_555
C12 C11 1_555 1_555
C13 C12 1_555 1_555
H7 C13 1_555 1_555
C14 C9 1_555 1_555
H8 C14 1_555 1_555
C15 N1 1_555 1_555
C16 C15 1_555 1_555
H9 C16 1_555 1_555
C17 C16 1_555 1_555
H10 C17 1_555 1_555
C18 C17 1_555 1_555
C19 C18 1_555 1_555
H11 C19 1_555 1_555
C20 C15 1_555 1_555
H12 C20 1_555 1_555
C21 O2 1_555 1_555
H13 C21 1_555 1_555
H14 C21 1_555 1_555
H15 C21 1_555 1_555
C22 S1 1_555 1_555
C23 C22 1_555 1_555
H16 C23 1_555 1_555
C24 C23 1_555 1_555
H17 C24 1_555 1_555
C25 C24 1_555 1_555
C26 C25 1_555 1_555
H18 C26 1_555 1_555
C27 C22 1_555 1_555
H19 C27 1_555 1_555
C28 C25 1_555 1_555
H20 C28 1_555 1_555
H21 C28 1_555 1_555
H22 C28 1_555 1_555
C29 C3 1_555 1_555
H23 C29 1_555 1_555
H24 C29 1_555 1_555
H25 C29 1_555 1_555
C30 C3 1_555 1_555
H26 C30 1_555 1_555
H27 C30 1_555 1_555
H28 C30 1_555 1_555
C5 C6 1_555 1_555
C7 C8 1_555 1_555
C13 C14 1_555 1_555
C19 C20 1_555 1_555
C26 C27 1_555 1_555

#END
