
#######################################################################
#
#                 Cambridge Crystallographic Data Centre
#                                CCDC 
#
#######################################################################
#
# If this CIF has been generated from an entry in the Cambridge 
# Structural Database, then it will include bibliographic, chemical, 
# crystal, experimental, refinement or atomic coordinate data resulting 
# from the CCDC's data processing and validation procedures.
#
#######################################################################

data_FEKQET
_chemical_formula_moiety         'C25 H44 N4 O1 S1'
_chemical_name_systematic        
N-Adamantan-1-yl-N^2^-((2-(dimethylamino)cyclohexyl)carbamothioyl)-3-methylvalinamide
_symmetry_cell_setting           orthorhombic
_symmetry_space_group_name_H-M   'P 21 21 21'
_symmetry_Int_Tables_number      19
_space_group_name_Hall           'P 2ac 2ab'
loop_
_symmetry_equiv_pos_site_id
_symmetry_equiv_pos_as_xyz
1 x,y,z
2 1/2-x,-y,1/2+z
3 1/2+x,1/2-y,-z
4 -x,1/2+y,1/2-z
_cell_length_a                   10.6044(12)
_cell_length_b                   12.3433(12)
_cell_length_c                   19.400(2)
_cell_angle_alpha                90
_cell_angle_beta                 90
_cell_angle_gamma                90
_cell_volume                     2539.33
_exptl_crystal_colour            colorless
_exptl_crystal_description       needle
_cell_formula_units_Z            4
loop_
_atom_site_label
_atom_site_type_symbol
_atom_site_fract_x
_atom_site_fract_y
_atom_site_fract_z
C1 C 1.04849(17) 1.12911(12) -0.06991(10)
H1 H 1.1382 1.1163 -0.0563
C2 C 1.04318(18) 1.24463(13) -0.09979(10)
H2 H 0.9568 1.2595 -0.1167
H3 H 1.0625 1.2975 -0.0629
C3 C 1.13601(19) 1.25926(14) -0.15847(11)
H4 H 1.2229 1.2494 -0.1409
H5 H 1.1289 1.3338 -0.1769
C4 C 1.11123(19) 1.17819(14) -0.21616(11)
H6 H 1.1769 1.1856 -0.2521
H7 H 1.0284 1.1936 -0.2376
C5 C 1.11212(18) 1.06181(14) -0.18755(10)
H8 H 1.0900 1.0107 -0.2250
H9 H 1.1982 1.0438 -0.1715
C6 C 1.01913(17) 1.04724(12) -0.12767(10)
H10 H 0.9319 1.0612 -0.1451
C7 C 0.93147(16) 0.86354(13) -0.10254(10)
C8 C 0.87351(16) 0.68958(13) -0.04769(10)
H11 H 0.7968 0.6922 -0.0776
C9 C 0.92315(16) 0.57012(12) -0.04956(10)
C10 C 0.82408(18) 0.49452(13) -0.01773(11)
H12 H 0.7420 0.5078 -0.0394
H13 H 0.8180 0.5085 0.0319
H14 H 0.8490 0.4190 -0.0253
C11 C 1.04642(17) 0.55744(13) -0.00947(11)
H15 H 1.0751 0.4821 -0.0124
H16 H 1.0325 0.5768 0.0389
H17 H 1.1107 0.6053 -0.0293
C12 C 0.94066(18) 0.53876(13) -0.12510(10)
H18 H 0.9972 0.5908 -0.1475
H19 H 0.8587 0.5394 -0.1484
H20 H 0.9773 0.4660 -0.1279
C13 C 0.83240(17) 0.72367(13) 0.02440(10)
C14 C 0.90738(16) 0.80918(13) 0.13537(10)
C15 C 1.02786(17) 0.87242(14) 0.15285(10)
H21 H 1.0329 0.9382 0.1238
H22 H 1.1027 0.8270 0.1430
C16 C 1.02725(18) 0.90483(14) 0.22931(10)
H23 H 1.1057 0.9463 0.2402
C17 C 0.91176(17) 0.97522(15) 0.24437(11)
H24 H 0.9152 1.0420 0.2162
H25 H 0.9113 0.9964 0.2936
C18 C 0.79121(18) 0.91171(14) 0.22740(10)
H26 H 0.7159 0.9579 0.2373
C19 C 0.78610(19) 0.80936(16) 0.27209(11)
H27 H 0.7080 0.7683 0.2620
H28 H 0.7853 0.8296 0.3215
C20 C 0.90174(19) 0.73866(15) 0.25671(11)
H29 H 0.8982 0.6717 0.2857
C21 C 0.90217(18) 0.70677(14) 0.18040(10)
H30 H 0.8250 0.6649 0.1695
H31 H 0.9762 0.6604 0.1706
C22 C 0.79188(17) 0.88024(14) 0.15085(10)
H32 H 0.7946 0.9464 0.1220
H33 H 0.7138 0.8401 0.1395
C23 C 1.02209(19) 0.80183(16) 0.27376(11)
H34 H 1.0970 0.7562 0.2644
H35 H 1.0226 0.8216 0.3232
C24 C 1.0191(2) 1.17151(15) 0.05159(11)
H36 H 1.0029 1.2489 0.0445
H37 H 1.1100 1.1595 0.0566
H38 H 0.9757 1.1471 0.0934
C25 C 0.83748(18) 1.12916(15) -0.01605(12)
H39 H 0.7937 1.1104 0.0268
H40 H 0.8054 1.0840 -0.0537
H41 H 0.8227 1.2057 -0.0269
N1 N 0.97240(15) 1.11050(11) -0.00768(8)
N2 N 1.02581(15) 0.93611(11) -0.10283(8)
N3 N 0.96503(15) 0.76392(11) -0.07758(9)
N4 N 0.91540(16) 0.78026(11) 0.06188(9)
O1 O 0.72671(11) 0.69661(9) 0.04638(7)
S1 S 0.78455(4) 0.88871(3) -0.13142(3)
H42 H 1.095(2) 0.9186(16) -0.0836(12)
H43 H 1.041(2) 0.7581(16) -0.0653(11)
H44 H 0.983(2) 0.7970(16) 0.0418(11)
loop_
_geom_bond_atom_site_label_1
_geom_bond_atom_site_label_2
_geom_bond_site_symmetry_1
_geom_bond_site_symmetry_2
C1 H1 1_555 1_555
C2 C1 1_555 1_555
H2 C2 1_555 1_555
H3 C2 1_555 1_555
C3 C2 1_555 1_555
H4 C3 1_555 1_555
H5 C3 1_555 1_555
C4 C3 1_555 1_555
H6 C4 1_555 1_555
H7 C4 1_555 1_555
C5 C4 1_555 1_555
H8 C5 1_555 1_555
H9 C5 1_555 1_555
C6 C1 1_555 1_555
H10 C6 1_555 1_555
C7 N2 1_555 1_555
C8 H11 1_555 1_555
C9 C8 1_555 1_555
C10 C9 1_555 1_555
H12 C10 1_555 1_555
H13 C10 1_555 1_555
H14 C10 1_555 1_555
C11 C9 1_555 1_555
H15 C11 1_555 1_555
H16 C11 1_555 1_555
H17 C11 1_555 1_555
C12 C9 1_555 1_555
H18 C12 1_555 1_555
H19 C12 1_555 1_555
H20 C12 1_555 1_555
C13 C8 1_555 1_555
C14 C15 1_555 1_555
C15 H21 1_555 1_555
H22 C15 1_555 1_555
C16 C15 1_555 1_555
H23 C16 1_555 1_555
C17 C16 1_555 1_555
H24 C17 1_555 1_555
H25 C17 1_555 1_555
C18 C17 1_555 1_555
H26 C18 1_555 1_555
C19 C18 1_555 1_555
H27 C19 1_555 1_555
H28 C19 1_555 1_555
C20 C19 1_555 1_555
H29 C20 1_555 1_555
C21 C14 1_555 1_555
H30 C21 1_555 1_555
H31 C21 1_555 1_555
C22 C14 1_555 1_555
H32 C22 1_555 1_555
H33 C22 1_555 1_555
C23 C16 1_555 1_555
H34 C23 1_555 1_555
H35 C23 1_555 1_555
C24 H36 1_555 1_555
H37 C24 1_555 1_555
H38 C24 1_555 1_555
C25 H39 1_555 1_555
H40 C25 1_555 1_555
H41 C25 1_555 1_555
N1 C1 1_555 1_555
N2 C6 1_555 1_555
N3 C7 1_555 1_555
N4 C13 1_555 1_555
O1 C13 1_555 1_555
S1 C7 1_555 1_555
H42 N2 1_555 1_555
H43 N3 1_555 1_555
H44 N4 1_555 1_555
C5 C6 1_555 1_555
C8 N3 1_555 1_555
C14 N4 1_555 1_555
C18 C22 1_555 1_555
C20 C21 1_555 1_555
C20 C23 1_555 1_555
C24 N1 1_555 1_555
C25 N1 1_555 1_555

#END
