
#######################################################################
#
#                 Cambridge Crystallographic Data Centre
#                                CCDC 
#
#######################################################################
#
# If this CIF has been generated from an entry in the Cambridge 
# Structural Database, then it will include bibliographic, chemical, 
# crystal, experimental, refinement or atomic coordinate data resulting 
# from the CCDC's data processing and validation procedures.
#
#######################################################################

data_FELBOP
_chemical_formula_moiety         'C28 H28 N2 O2'
_chemical_name_systematic        
4,4'-(3,4-bis(methylene)hexa-1,5-diene-2,5-diyl)bis(2-phenyl-3,6-dihydro-2H-1,2-oxazine)
_symmetry_cell_setting           monoclinic
_symmetry_space_group_name_H-M   'P 21/c'
_symmetry_Int_Tables_number      14
_space_group_name_Hall           '-P 2ybc'
loop_
_symmetry_equiv_pos_site_id
_symmetry_equiv_pos_as_xyz
1 x,y,z
2 -x,1/2+y,1/2-z
3 -x,-y,-z
4 x,1/2-y,1/2+z
_cell_length_a                   9.4094(2)
_cell_length_b                   7.5770(1)
_cell_length_c                   16.8099(4)
_cell_angle_alpha                90
_cell_angle_beta                 106.0362(10)
_cell_angle_gamma                90
_cell_volume                     1151.83
_exptl_crystal_colour            'pale yellow'
_exptl_crystal_description       plate
_cell_formula_units_Z            2
loop_
_atom_site_label
_atom_site_type_symbol
_atom_site_fract_x
_atom_site_fract_y
_atom_site_fract_z
O1 O 0.61217(8) 0.41980(10) 0.21765(5)
N1 N 0.72764(9) 0.54876(11) 0.24793(5)
C1 C 0.77541(11) 0.53371(15) 0.33837(6)
C2 C 0.64345(11) 0.54871(13) 0.37265(6)
C3 C 0.50742(11) 0.53687(14) 0.32144(6)
C4 C 0.48160(11) 0.49229(16) 0.23211(6)
C5 C 0.83778(11) 0.52240(13) 0.20598(6)
C6 C 0.80662(12) 0.43207(15) 0.13091(6)
C7 C 0.91515(14) 0.41598(17) 0.08946(7)
C8 C 1.05427(14) 0.48762(17) 0.12152(7)
C9 C 1.08482(13) 0.57755(16) 0.19590(8)
C10 C 0.97807(12) 0.59540(15) 0.23826(7)
C11 C 0.67086(11) 0.57843(13) 0.46259(6)
C12 C 0.80546(13) 0.60506(19) 0.51368(7)
C13 C 0.53948(11) 0.58348(13) 0.49699(6)
C14 C 0.49908(13) 0.73791(14) 0.52167(7)
H1 H 0.8425(14) 0.6358(18) 0.3581(7)
H2 H 0.8316(14) 0.4246(17) 0.3572(8)
H3 H 0.4200(14) 0.5500(16) 0.3408(8)
H4 H 0.4472(14) 0.5999(18) 0.1959(8)
H5 H 0.4078(15) 0.3968(18) 0.2164(8)
H6 H 0.7100(15) 0.3799(18) 0.1092(8)
H7 H 0.8895(15) 0.347(2) 0.0368(9)
H8 H 1.1297(16) 0.4763(19) 0.0934(9)
H9 H 1.1801(16) 0.6308(19) 0.2189(8)
H10 H 1.0007(14) 0.6608(19) 0.2898(8)
H11 H 0.8210(16) 0.623(2) 0.5748(9)
H12 H 0.8958(17) 0.6073(19) 0.4938(9)
H13 H 0.4138(15) 0.7486(17) 0.5447(8)
H14 H 0.5535(14) 0.845(2) 0.5163(8)
O1B O 0.38783(8) 0.58020(10) 0.78235(5)
N1B N 0.27236(9) 0.45124(11) 0.75207(5)
C1B C 0.22459(11) 0.46629(15) 0.66163(6)
C2B C 0.35655(11) 0.45129(13) 0.62735(6)
C3B C 0.49258(11) 0.46313(14) 0.67856(6)
C4B C 0.51840(11) 0.50771(16) 0.76789(6)
C5B C 0.16222(11) 0.47760(13) 0.79402(6)
C6B C 0.19338(12) 0.56793(15) 0.86909(6)
C7B C 0.08485(14) 0.58402(17) 0.91054(7)
C8B C -0.05427(14) 0.51238(17) 0.87848(7)
C9B C -0.08482(13) 0.42245(16) 0.80410(8)
C10B C 0.02193(12) 0.40460(15) 0.76174(7)
C11B C 0.32914(11) 0.42157(13) 0.53741(6)
C12B C 0.19454(13) 0.39494(19) 0.48632(7)
C13B C 0.46052(11) 0.41652(13) 0.50301(6)
C14B C 0.50092(13) 0.26209(14) 0.47833(7)
H1B H 0.1575(14) 0.3642(18) 0.6419(7)
H2B H 0.1684(14) 0.5754(17) 0.6428(8)
H3B H 0.5800(14) 0.4500(16) 0.6592(8)
H4B H 0.5528(14) 0.4001(18) 0.8041(8)
H5B H 0.5922(15) 0.6032(18) 0.7836(8)
H6B H 0.2900(15) 0.6201(18) 0.8908(8)
H7B H 0.1105(15) 0.653(2) 0.9632(9)
H8B H -0.1297(16) 0.5237(19) 0.9066(9)
H9B H -0.1801(16) 0.3692(19) 0.7811(8)
H10B H -0.0007(14) 0.3392(19) 0.7102(8)
H11B H 0.1790(16) 0.377(2) 0.4252(9)
H12B H 0.1042(17) 0.3927(19) 0.5062(9)
H13B H 0.5862(15) 0.2514(17) 0.4553(8)
H14B H 0.4465(14) 0.155(2) 0.4837(8)
loop_
_geom_bond_atom_site_label_1
_geom_bond_atom_site_label_2
_geom_bond_site_symmetry_1
_geom_bond_site_symmetry_2
O1 N1 1_555 1_555
N1 C1 1_555 1_555
C1 C2 1_555 1_555
C2 C3 1_555 1_555
C3 C4 1_555 1_555
C4 O1 1_555 1_555
C5 N1 1_555 1_555
C6 C5 1_555 1_555
C7 C6 1_555 1_555
C8 C7 1_555 1_555
C9 C8 1_555 1_555
C10 C5 1_555 1_555
C11 C2 1_555 1_555
C12 C11 1_555 1_555
C13 C11 1_555 1_555
C14 C13 1_555 1_555
H1 C1 1_555 1_555
H2 C1 1_555 1_555
H3 C3 1_555 1_555
H4 C4 1_555 1_555
H5 C4 1_555 1_555
H6 C6 1_555 1_555
H7 C7 1_555 1_555
H8 C8 1_555 1_555
H9 C9 1_555 1_555
H10 C10 1_555 1_555
H11 C12 1_555 1_555
H12 C12 1_555 1_555
H13 C14 1_555 1_555
H14 C14 1_555 1_555
O1B N1B 1_555 1_555
N1B C1B 1_555 1_555
C1B C2B 1_555 1_555
C2B C3B 1_555 1_555
C3B C4B 1_555 1_555
C4B O1B 1_555 1_555
C5B N1B 1_555 1_555
C6B C5B 1_555 1_555
C7B C6B 1_555 1_555
C8B C7B 1_555 1_555
C9B C8B 1_555 1_555
C10B C5B 1_555 1_555
C11B C2B 1_555 1_555
C12B C11B 1_555 1_555
C13B C13 1_555 1_555
C14B C13B 1_555 1_555
H1B C1B 1_555 1_555
H2B C1B 1_555 1_555
H3B C3B 1_555 1_555
H4B C4B 1_555 1_555
H5B C4B 1_555 1_555
H6B C6B 1_555 1_555
H7B C7B 1_555 1_555
H8B C8B 1_555 1_555
H9B C9B 1_555 1_555
H10B C10B 1_555 1_555
H11B C12B 1_555 1_555
H12B C12B 1_555 1_555
H13B C14B 1_555 1_555
H14B C14B 1_555 1_555
C9 C10 1_555 1_555
C9B C10B 1_555 1_555
C11B C13B 1_555 1_555

#END
