
#######################################################################
#
#                 Cambridge Crystallographic Data Centre
#                                CCDC 
#
#######################################################################
#
# If this CIF has been generated from an entry in the Cambridge 
# Structural Database, then it will include bibliographic, chemical, 
# crystal, experimental, refinement or atomic coordinate data resulting 
# from the CCDC's data processing and validation procedures.
#
#######################################################################

data_FELBIJ
_chemical_formula_moiety         'C24 H24 N2 O2'
_chemical_name_systematic        
4,4'-Buta-1,3-diene-2,3-diylbis(2-phenyl-3,6-dihydro-2H-1,2-oxazine)
_symmetry_cell_setting           monoclinic
_symmetry_space_group_name_H-M   'C 2/c'
_symmetry_Int_Tables_number      15
_space_group_name_Hall           '-C 2yn'
loop_
_symmetry_equiv_pos_site_id
_symmetry_equiv_pos_as_xyz
1 x,y,z
2 1/2+x,1/2+y,z
3 -x,y,1/2-z
4 1/2-x,1/2+y,1/2-z
5 -x,-y,-z
6 1/2-x,1/2-y,-z
7 x,-y,1/2+z
8 1/2+x,1/2-y,1/2+z
_cell_length_a                   37.1436(6)
_cell_length_b                   10.5638(2)
_cell_length_c                   24.1187(3)
_cell_angle_alpha                90
_cell_angle_beta                 123.8576(8)
_cell_angle_gamma                90
_cell_volume                     7858.84
_exptl_crystal_colour            colorless
_exptl_crystal_description       block
_cell_formula_units_Z            16
loop_
_atom_site_label
_atom_site_type_symbol
_atom_site_fract_x
_atom_site_fract_y
_atom_site_fract_z
O1 O 0.17989(6) 0.07470(17) 0.31316(9)
N1 N 0.18820(6) -0.0485(2) 0.34389(10)
C1 C 0.22854(7) -0.0967(2) 0.35610(11)
C2 C 0.22699(7) -0.0954(2) 0.29196(11)
C3 C 0.19662(7) -0.0270(3) 0.24022(12)
C4 C 0.16544(8) 0.0540(3) 0.24521(12)
C5 C 0.18436(7) -0.0390(2) 0.39893(11)
C6 C 0.14889(8) 0.0238(3) 0.39145(13)
C7 C 0.14263(8) 0.0243(3) 0.44257(14)
C8 C 0.17137(9) -0.0359(3) 0.50252(14)
C9 C 0.20710(9) -0.0951(3) 0.51100(13)
C10 C 0.21408(8) -0.0966(3) 0.46020(12)
C11 C 0.26025(7) -0.1705(2) 0.29099(12)
C12 C 0.29264(8) -0.2282(3) 0.34510(13)
O2 O 0.31449(6) 0.08968(17) 0.17390(9)
N2 N 0.31752(6) -0.0384(2) 0.15623(10)
C13 C 0.28271(7) -0.1115(2) 0.15189(11)
C14 C 0.28471(7) -0.0971(2) 0.21595(11)
C15 C 0.31060(8) -0.0087(3) 0.25982(12)
C16 C 0.33298(9) 0.0865(3) 0.24397(13)
C17 C 0.32065(7) -0.0372(3) 0.10052(11)
C18 C 0.33487(8) 0.0703(3) 0.08452(13)
C19 C 0.34130(9) 0.0651(3) 0.03288(14)
C20 C 0.33315(9) -0.0434(3) -0.00368(14)
C21 C 0.31909(11) -0.1489(3) 0.01211(15)
C22 C 0.31244(10) -0.1474(3) 0.06349(14)
C23 C 0.25747(7) -0.1811(2) 0.22631(12)
C24 C 0.23078(9) -0.2654(3) 0.18057(14)
H1 H 0.2535 -0.0500 0.3920
H2 H 0.2317 -0.1851 0.3717
H3 H 0.1942 -0.0291 0.1994
H4 H 0.1637 0.1379 0.2269
H5 H 0.1366 0.0157 0.2205
H6 H 0.1297 0.0676 0.3508
H7 H 0.1184 0.0670 0.4356
H8 H 0.1662 -0.0359 0.5366
H9 H 0.2279 -0.1361 0.5526
H10 H 0.2387 -0.1359 0.4675
H11 H 0.3140 -0.2747 0.3440
H12 H 0.2953 -0.2249 0.3861
H13 H 0.2875 -0.2016 0.1474
H14 H 0.2541 -0.0869 0.1120
H15 H 0.3143 -0.0035 0.3012
H16 H 0.3639 0.0713 0.2690
H17 H 0.3279 0.1713 0.2556
H18 H 0.3405 0.1442 0.1089
H19 H 0.3511 0.1358 0.0224
H20 H 0.3369 -0.0458 -0.0391
H21 H 0.3139 -0.2252 -0.0123
H22 H 0.3024 -0.2204 0.0736
H23 H 0.2280 -0.2739 0.1393
H24 H 0.2140 -0.3192 0.1884
O3 O 0.42764(5) 0.32940(17) 0.31871(8)
N3 N 0.43597(6) 0.2033(2) 0.34718(9)
C25 C 0.47558(7) 0.1578(2) 0.35575(11)
C26 C 0.47074(7) 0.1604(2) 0.28914(11)
C27 C 0.43910(7) 0.2298(3) 0.23970(11)
C28 C 0.41090(8) 0.3131(3) 0.24953(12)
C29 C 0.43409(7) 0.2096(2) 0.40440(11)
C30 C 0.39783(7) 0.2658(3) 0.39784(12)
C31 C 0.39320(8) 0.2646(3) 0.45079(13)
C32 C 0.42412(8) 0.2082(3) 0.51100(13)
C33 C 0.46003(8) 0.1542(3) 0.51741(12)
C34 C 0.46550(7) 0.1548(2) 0.46485(11)
C35 C 0.50246(8) 0.0876(3) 0.28334(12)
C36 C 0.53556(10) 0.0271(3) 0.33525(15)
H25 H 0.5013 0.2041 0.3905
H26 H 0.4793 0.0706 0.3707
H27 H 0.4344 0.2274 0.1977
H28 H 0.4106 0.3986 0.2331
H29 H 0.3810 0.2804 0.2251
H30 H 0.3765 0.3048 0.3571
H31 H 0.3684 0.3027 0.4453
H32 H 0.4205 0.2064 0.5465
H33 H 0.4816 0.1159 0.5590
H34 H 0.4905 0.1187 0.4711
H35 H 0.5565 -0.0179 0.3324
H36 H 0.5395 0.0260 0.3773
O3B O 0.57236(5) 0.32940(17) 0.18129(8)
N3B N 0.56403(6) 0.2033(2) 0.15282(9)
C25B C 0.52442(7) 0.1578(2) 0.14425(11)
C26B C 0.52926(7) 0.1604(2) 0.21086(11)
C27B C 0.56090(7) 0.2298(3) 0.26030(11)
C28B C 0.58910(8) 0.3131(3) 0.25047(12)
C29B C 0.56591(7) 0.2096(2) 0.09560(11)
C30B C 0.60217(7) 0.2658(3) 0.10216(12)
C31B C 0.60680(8) 0.2646(3) 0.04921(13)
C32B C 0.57588(8) 0.2082(3) -0.01100(13)
C33B C 0.53997(8) 0.1542(3) -0.01741(12)
C34B C 0.53450(7) 0.1548(2) 0.03515(11)
C35B C 0.49754(8) 0.0876(3) 0.21666(12)
C36B C 0.46444(10) 0.0271(3) 0.16475(15)
H25B H 0.4987 0.2041 0.1095
H26B H 0.5207 0.0706 0.1293
H27B H 0.5656 0.2274 0.3023
H28B H 0.5894 0.3986 0.2669
H29B H 0.6190 0.2804 0.2749
H30B H 0.6235 0.3048 0.1429
H31B H 0.6316 0.3027 0.0547
H32B H 0.5795 0.2064 -0.0465
H33B H 0.5184 0.1159 -0.0590
H34B H 0.5095 0.1187 0.0289
H35B H 0.4435 -0.0179 0.1676
H36B H 0.4605 0.0260 0.1227
O4 O 0.43541(6) 0.83523(17) 0.31821(9)
N4 N 0.43193(6) 0.7086(2) 0.33671(10)
C37 C 0.46809(7) 0.6349(3) 0.34582(11)
C38 C 0.47028(7) 0.6471(2) 0.28533(11)
C39 C 0.44631(8) 0.7341(3) 0.23946(12)
C40 C 0.42021(9) 0.8282(3) 0.24943(14)
C41 C 0.42777(7) 0.7143(3) 0.39174(12)
C42 C 0.41526(8) 0.8257(3) 0.40788(14)
C43 C 0.40902(8) 0.8251(3) 0.45944(15)
C44 C 0.41505(9) 0.7167(3) 0.49570(14)
C45 C 0.42680(10) 0.6069(3) 0.47907(14)
C46 C 0.43357(9) 0.6048(3) 0.42770(13)
C47 C 0.49967(8) 0.5596(2) 0.28096(12)
C48 C 0.52466(9) 0.4773(3) 0.32924(13)
H37 H 0.4957 0.6607 0.3867
H38 H 0.4630 0.5452 0.3504
H39 H 0.4450 0.7384 0.2000
H40 H 0.4234 0.9126 0.2363
H41 H 0.3894 0.8057 0.2220
H42 H 0.4109 0.8980 0.3829
H43 H 0.4002 0.8991 0.4695
H44 H 0.4108 0.7192 0.5310
H45 H 0.4306 0.5314 0.5029
H46 H 0.4422 0.5294 0.4176
H47 H 0.5437 0.4223 0.3268
H48 H 0.5246 0.4709 0.3682
O4B O 0.56459(6) 0.83523(17) 0.18179(9)
N4B N 0.56807(6) 0.7086(2) 0.16329(10)
C37B C 0.53191(7) 0.6349(3) 0.15418(11)
C38B C 0.52972(7) 0.6471(2) 0.21467(11)
C39B C 0.55369(8) 0.7341(3) 0.26054(12)
C40B C 0.57979(9) 0.8282(3) 0.25057(14)
C41B C 0.57223(7) 0.7143(3) 0.10826(12)
C42B C 0.58474(8) 0.8257(3) 0.09212(14)
C43B C 0.59098(8) 0.8251(3) 0.04056(15)
C44B C 0.58495(9) 0.7167(3) 0.00430(14)
C45B C 0.57320(10) 0.6069(3) 0.02093(14)
C46B C 0.56643(9) 0.6048(3) 0.07230(13)
C47B C 0.50033(8) 0.5596(2) 0.21904(12)
C48B C 0.47534(9) 0.4773(3) 0.17076(13)
H37B H 0.5043 0.6607 0.1133
H38B H 0.5370 0.5452 0.1496
H39B H 0.5550 0.7384 0.3000
H40B H 0.5766 0.9126 0.2637
H41B H 0.6106 0.8057 0.2780
H42B H 0.5891 0.8980 0.1171
H43B H 0.5998 0.8991 0.0305
H44B H 0.5892 0.7192 -0.0310
H45B H 0.5694 0.5314 -0.0029
H46B H 0.5578 0.5294 0.0824
H47B H 0.4563 0.4223 0.1732
H48B H 0.4754 0.4709 0.1318
loop_
_geom_bond_atom_site_label_1
_geom_bond_atom_site_label_2
_geom_bond_site_symmetry_1
_geom_bond_site_symmetry_2
O1 N1 1_555 1_555
N1 C1 1_555 1_555
C1 C2 1_555 1_555
C2 C3 1_555 1_555
C3 C4 1_555 1_555
C4 O1 1_555 1_555
C5 N1 1_555 1_555
C6 C5 1_555 1_555
C7 C6 1_555 1_555
C8 C7 1_555 1_555
C9 C8 1_555 1_555
C10 C5 1_555 1_555
C11 C2 1_555 1_555
C12 C11 1_555 1_555
O2 N2 1_555 1_555
N2 C13 1_555 1_555
C13 C14 1_555 1_555
C14 C15 1_555 1_555
C15 C16 1_555 1_555
C16 O2 1_555 1_555
C17 N2 1_555 1_555
C18 C17 1_555 1_555
C19 C18 1_555 1_555
C20 C19 1_555 1_555
C21 C20 1_555 1_555
C22 C17 1_555 1_555
C23 C11 1_555 1_555
C24 C23 1_555 1_555
O3 N3 1_555 1_555
N3 C25 1_555 1_555
C25 C26 1_555 1_555
C26 C27 1_555 1_555
C27 C28 1_555 1_555
C28 O3 1_555 1_555
C29 N3 1_555 1_555
C30 C29 1_555 1_555
C31 C30 1_555 1_555
C32 C31 1_555 1_555
C33 C32 1_555 1_555
C34 C29 1_555 1_555
C35 C26 1_555 1_555
C36 C35 1_555 1_555
O4 N4 1_555 1_555
N4 C37 1_555 1_555
C37 C38 1_555 1_555
C38 C39 1_555 1_555
C39 C40 1_555 1_555
C40 O4 1_555 1_555
C41 N4 1_555 1_555
C42 C41 1_555 1_555
C43 C42 1_555 1_555
C44 C43 1_555 1_555
C45 C44 1_555 1_555
C46 C41 1_555 1_555
C47 C38 1_555 1_555
C48 C47 1_555 1_555
H1 C1 1_555 1_555
H2 C1 1_555 1_555
H3 C3 1_555 1_555
H4 C4 1_555 1_555
H5 C4 1_555 1_555
H6 C6 1_555 1_555
H7 C7 1_555 1_555
H8 C8 1_555 1_555
H9 C9 1_555 1_555
H10 C10 1_555 1_555
H11 C12 1_555 1_555
H12 C12 1_555 1_555
H13 C13 1_555 1_555
H14 C13 1_555 1_555
H15 C15 1_555 1_555
H16 C16 1_555 1_555
H17 C16 1_555 1_555
H18 C18 1_555 1_555
H19 C19 1_555 1_555
H20 C20 1_555 1_555
H21 C21 1_555 1_555
H22 C22 1_555 1_555
H23 C24 1_555 1_555
H24 C24 1_555 1_555
H25 C25 1_555 1_555
H26 C25 1_555 1_555
H27 C27 1_555 1_555
H28 C28 1_555 1_555
H29 C28 1_555 1_555
H30 C30 1_555 1_555
H31 C31 1_555 1_555
H32 C32 1_555 1_555
H33 C33 1_555 1_555
H34 C34 1_555 1_555
H35 C36 1_555 1_555
H36 C36 1_555 1_555
H37 C37 1_555 1_555
H38 C37 1_555 1_555
H39 C39 1_555 1_555
H40 C40 1_555 1_555
H41 C40 1_555 1_555
H42 C42 1_555 1_555
H43 C43 1_555 1_555
H44 C44 1_555 1_555
H45 C45 1_555 1_555
H46 C46 1_555 1_555
H47 C48 1_555 1_555
H48 C48 1_555 1_555
O3B N3B 1_555 1_555
N3B C25B 1_555 1_555
C25B C26B 1_555 1_555
C26B C27B 1_555 1_555
C27B C28B 1_555 1_555
C28B O3B 1_555 1_555
C29B N3B 1_555 1_555
C30B C29B 1_555 1_555
C31B C30B 1_555 1_555
C32B C31B 1_555 1_555
C33B C32B 1_555 1_555
C34B C29B 1_555 1_555
C35B C35 1_555 1_555
C36B C35B 1_555 1_555
O4B N4B 1_555 1_555
N4B C37B 1_555 1_555
C37B C38B 1_555 1_555
C38B C39B 1_555 1_555
C39B C40B 1_555 1_555
C40B O4B 1_555 1_555
C41B N4B 1_555 1_555
C42B C41B 1_555 1_555
C43B C42B 1_555 1_555
C44B C43B 1_555 1_555
C45B C44B 1_555 1_555
C46B C41B 1_555 1_555
C47B C47 1_555 1_555
C48B C47B 1_555 1_555
H25B C25B 1_555 1_555
H26B C25B 1_555 1_555
H27B C27B 1_555 1_555
H28B C28B 1_555 1_555
H29B C28B 1_555 1_555
H30B C30B 1_555 1_555
H31B C31B 1_555 1_555
H32B C32B 1_555 1_555
H33B C33B 1_555 1_555
H34B C34B 1_555 1_555
H35B C36B 1_555 1_555
H36B C36B 1_555 1_555
H37B C37B 1_555 1_555
H38B C37B 1_555 1_555
H39B C39B 1_555 1_555
H40B C40B 1_555 1_555
H41B C40B 1_555 1_555
H42B C42B 1_555 1_555
H43B C43B 1_555 1_555
H44B C44B 1_555 1_555
H45B C45B 1_555 1_555
H46B C46B 1_555 1_555
H47B C48B 1_555 1_555
H48B C48B 1_555 1_555
C9 C10 1_555 1_555
C14 C23 1_555 1_555
C21 C22 1_555 1_555
C33 C34 1_555 1_555
C45 C46 1_555 1_555
C26B C35B 1_555 1_555
C33B C34B 1_555 1_555
C38B C47B 1_555 1_555
C45B C46B 1_555 1_555

#END
