
#######################################################################
#
#                 Cambridge Crystallographic Data Centre
#                                CCDC 
#
#######################################################################
#
# If this CIF has been generated from an entry in the Cambridge 
# Structural Database, then it will include bibliographic, chemical, 
# crystal, experimental, refinement or atomic coordinate data resulting 
# from the CCDC's data processing and validation procedures.
#
#######################################################################

data_FELBEF
_chemical_formula_moiety         'C26 H25 N3 O3'
_chemical_name_systematic        
2,6,9-Triphenyl-1,2,4,4a,6a,7,9,10-octahydro-6H-bis[1,2]oxazino[5,4-c:4',5'-e][1,2]oxazine
_symmetry_cell_setting           monoclinic
_symmetry_space_group_name_H-M   'P 21'
_symmetry_Int_Tables_number      4
_space_group_name_Hall           'P 2yb'
loop_
_symmetry_equiv_pos_site_id
_symmetry_equiv_pos_as_xyz
1 x,y,z
2 -x,1/2+y,-z
_cell_length_a                   15.6734(4)
_cell_length_b                   6.1300(1)
_cell_length_c                   22.7367(5)
_cell_angle_alpha                90
_cell_angle_beta                 97.0025(10)
_cell_angle_gamma                90
_cell_volume                     2168.2
_exptl_crystal_colour            colorless
_exptl_crystal_description       needle
_cell_formula_units_Z            4
loop_
_atom_site_label
_atom_site_type_symbol
_atom_site_fract_x
_atom_site_fract_y
_atom_site_fract_z
O1 O 0.05067(9) 0.3944(3) 0.53340(7)
C1 C 0.09964(14) 0.2706(4) 0.49472(10)
C2 C 0.15277(13) 0.4239(4) 0.46103(10)
N1 N 0.20674(11) 0.3140(3) 0.42140(9)
O2 O 0.27810(9) 0.2173(3) 0.45837(7)
C3 C 0.33665(14) 0.3917(4) 0.47609(11)
C4 C 0.40516(14) 0.2890(4) 0.52035(11)
O3 O 0.46228(9) 0.4542(3) 0.54546(7)
N2 N 0.41572(11) 0.5863(3) 0.58407(8)
C5 C 0.35328(14) 0.7155(4) 0.54438(11)
C6 C 0.29235(14) 0.5660(4) 0.50741(10)
C7 C 0.20699(14) 0.5679(4) 0.50428(10)
C8 C 0.15215(15) 0.6813(4) 0.54483(12)
N3 N 0.10614(12) 0.5180(3) 0.57660(9)
C9 C 0.16534(15) 0.1508(4) 0.38332(11)
C10 C 0.08746(15) 0.2035(5) 0.34994(11)
C11 C 0.04703(17) 0.0535(6) 0.31105(12)
C12 C 0.08305(17) -0.1486(5) 0.30406(12)
C13 C 0.15999(17) -0.1997(5) 0.33620(11)
C14 C 0.20184(16) -0.0521(4) 0.37590(11)
C15 C 0.47772(15) 0.7059(4) 0.62217(11)
C16 C 0.55982(15) 0.6262(5) 0.63745(11)
C17 C 0.61818(17) 0.7375(6) 0.67669(12)
C18 C 0.5958(2) 0.9280(6) 0.70145(13)
C19 C 0.5147(2) 1.0072(6) 0.68722(14)
C20 C 0.45487(19) 0.8982(5) 0.64795(13)
C21 C 0.15303(16) 0.3792(4) 0.61859(11)
C22 C 0.23324(16) 0.4351(5) 0.64692(11)
C23 C 0.27601(19) 0.2984(6) 0.68900(13)
C24 C 0.2402(2) 0.1047(6) 0.70352(13)
C25 C 0.1600(2) 0.0484(5) 0.67663(13)
C26 C 0.11625(18) 0.1825(5) 0.63456(12)
H1 H 0.1386 0.1694 0.5183
H2 H 0.0571 0.1860 0.4675
H3 H 0.1124 0.5207 0.4350
H4 H 0.3613 0.4503 0.4397
H5 H 0.3800 0.2133 0.5520
H6 H 0.4422 0.1839 0.5008
H7 H 0.3216 0.8111 0.5694
H8 H 0.3835 0.8066 0.5177
H9 H 0.1854 0.7714 0.5746
H10 H 0.1086 0.7734 0.5217
H11 H 0.0636 0.3443 0.3534
H12 H -0.0058 0.0919 0.2882
H13 H 0.0567 -0.2511 0.2775
H14 H 0.1855 -0.3396 0.3316
H15 H 0.2533 -0.0858 0.3987
H16 H 0.5753 0.4914 0.6209
H17 H 0.6738 0.6770 0.6866
H18 H 0.6361 1.0026 0.7282
H19 H 0.4983 1.1388 0.7044
H20 H 0.3984 0.9536 0.6389
H21 H 0.2574 0.5668 0.6374
H22 H 0.3314 0.3349 0.7071
H23 H 0.2705 0.0119 0.7316
H24 H 0.1338 -0.0840 0.6865
H25 H 0.0619 0.1430 0.6156
O4 O 0.03895(9) 0.7864(3) 0.98508(7)
C27 C 0.10807(13) 0.6638(4) 1.01805(10)
C28 C 0.17751(14) 0.8211(4) 1.04572(10)
N4 N 0.25194(11) 0.7171(3) 1.08003(9)
O5 O 0.30721(9) 0.6354(3) 1.03856(7)
C29 C 0.35114(14) 0.8227(4) 1.01892(10)
C30 C 0.40454(14) 0.7377(4) 0.97269(11)
O6 O 0.44347(9) 0.9178(3) 0.94656(7)
N5 N 0.37648(11) 1.0361(3) 0.90942(8)
C31 C 0.32441(15) 1.1465(4) 0.95065(11)
C32 C 0.28732(14) 0.9828(4) 0.98971(10)
C33 C 0.20541(14) 0.9680(4) 0.99839(10)
C34 C 0.12959(14) 1.0727(4) 0.96212(11)
N6 N 0.06845(11) 0.9053(3) 0.93670(9)
C35 C 0.23378(15) 0.5457(4) 1.11924(10)
C36 C 0.17397(16) 0.5831(5) 1.15823(11)
C37 C 0.15633(18) 0.4233(5) 1.19761(12)
C38 C 0.19773(16) 0.2262(5) 1.19984(11)
C39 C 0.25869(16) 0.1900(5) 1.16201(11)
C40 C 0.27659(15) 0.3483(4) 1.12177(11)
C41 C 0.42028(14) 1.1825(4) 0.87361(10)
C42 C 0.50216(15) 1.1345(5) 0.86029(10)
C43 C 0.54281(16) 1.2794(5) 0.82571(11)
C44 C 0.50364(17) 1.4674(5) 0.80398(12)
C45 C 0.42093(17) 1.5118(5) 0.81592(11)
C46 C 0.37973(16) 1.3690(5) 0.85018(11)
C47 C 0.09150(15) 0.7602(4) 0.89246(11)
C48 C 0.15477(15) 0.8094(5) 0.85687(11)
C49 C 0.17212(17) 0.6649(5) 0.81300(12)
C50 C 0.12790(18) 0.4707(5) 0.80415(12)
C51 C 0.06399(17) 0.4236(5) 0.83863(12)
C52 C 0.04561(15) 0.5655(5) 0.88244(11)
H26 H 0.0809 0.5829 1.0494
H27 H 0.1333 0.5548 0.9915
H28 H 0.1519 0.9147 1.0732
H29 H 0.3896 0.8873 1.0532
H30 H 0.4518 0.6436 0.9918
H31 H 0.3691 0.6566 0.9412
H32 H 0.3624 1.2505 0.9758
H33 H 0.2784 1.2285 0.9261
H34 H 0.0974 1.1664 0.9880
H35 H 0.1453 1.1567 0.9290
H36 H 0.1456 0.7191 1.1576
H37 H 0.1144 0.4501 1.2243
H38 H 0.1848 0.1186 1.2274
H39 H 0.2868 0.0548 1.1625
H40 H 0.3169 0.3218 1.0950
H41 H 0.0022 0.5334 0.9071
H42 H 0.5295 1.0045 0.8753
H43 H 0.5998 1.2467 0.8178
H44 H 0.5317 1.5663 0.7803
H45 H 0.3918 1.6387 0.8014
H46 H 0.3219 1.4006 0.8581
H47 H 0.1852 0.9412 0.8623
H48 H 0.2153 0.7011 0.7888
H49 H 0.1416 0.3753 0.7745
H50 H 0.0339 0.2914 0.8325
loop_
_geom_bond_atom_site_label_1
_geom_bond_atom_site_label_2
_geom_bond_site_symmetry_1
_geom_bond_site_symmetry_2
O1 C1 1_555 1_555
C1 C2 1_555 1_555
C2 N1 1_555 1_555
N1 O2 1_555 1_555
O2 C3 1_555 1_555
C3 C4 1_555 1_555
C4 O3 1_555 1_555
O3 N2 1_555 1_555
N2 C5 1_555 1_555
C5 C6 1_555 1_555
C6 C3 1_555 1_555
C7 C2 1_555 1_555
C8 C7 1_555 1_555
N3 O1 1_555 1_555
C9 N1 1_555 1_555
C10 C9 1_555 1_555
C11 C10 1_555 1_555
C12 C11 1_555 1_555
C13 C12 1_555 1_555
C14 C9 1_555 1_555
C15 N2 1_555 1_555
C16 C15 1_555 1_555
C17 C16 1_555 1_555
C18 C17 1_555 1_555
C19 C18 1_555 1_555
C20 C15 1_555 1_555
C21 N3 1_555 1_555
C22 C21 1_555 1_555
C23 C22 1_555 1_555
C24 C23 1_555 1_555
C25 C24 1_555 1_555
C26 C21 1_555 1_555
O4 C27 1_555 1_555
C27 C28 1_555 1_555
C28 N4 1_555 1_555
N4 O5 1_555 1_555
O5 C29 1_555 1_555
C29 C30 1_555 1_555
C30 O6 1_555 1_555
O6 N5 1_555 1_555
N5 C31 1_555 1_555
C31 C32 1_555 1_555
C32 C29 1_555 1_555
C33 C28 1_555 1_555
C34 C33 1_555 1_555
N6 O4 1_555 1_555
C35 N4 1_555 1_555
C36 C35 1_555 1_555
C37 C36 1_555 1_555
C38 C37 1_555 1_555
C39 C38 1_555 1_555
C40 C35 1_555 1_555
C41 N5 1_555 1_555
C42 C41 1_555 1_555
C43 C42 1_555 1_555
C44 C43 1_555 1_555
C45 C44 1_555 1_555
C46 C41 1_555 1_555
C47 N6 1_555 1_555
C48 C47 1_555 1_555
C49 C48 1_555 1_555
C50 C49 1_555 1_555
C51 C50 1_555 1_555
C52 C47 1_555 1_555
H1 C1 1_555 1_555
H2 C1 1_555 1_555
H3 C2 1_555 1_555
H4 C3 1_555 1_555
H5 C4 1_555 1_555
H6 C4 1_555 1_555
H7 C5 1_555 1_555
H8 C5 1_555 1_555
H9 C8 1_555 1_555
H10 C8 1_555 1_555
H11 C10 1_555 1_555
H12 C11 1_555 1_555
H13 C12 1_555 1_555
H14 C13 1_555 1_555
H15 C14 1_555 1_555
H16 C16 1_555 1_555
H17 C17 1_555 1_555
H18 C18 1_555 1_555
H19 C19 1_555 1_555
H20 C20 1_555 1_555
H21 C22 1_555 1_555
H22 C23 1_555 1_555
H23 C24 1_555 1_555
H24 C25 1_555 1_555
H25 C26 1_555 1_555
H26 C27 1_555 1_555
H27 C27 1_555 1_555
H28 C28 1_555 1_555
H29 C29 1_555 1_555
H30 C30 1_555 1_555
H31 C30 1_555 1_555
H32 C31 1_555 1_555
H33 C31 1_555 1_555
H34 C34 1_555 1_555
H35 C34 1_555 1_555
H36 C36 1_555 1_555
H37 C37 1_555 1_555
H38 C38 1_555 1_555
H39 C39 1_555 1_555
H40 C40 1_555 1_555
H41 C52 1_555 1_555
H42 C42 1_555 1_555
H43 C43 1_555 1_555
H44 C44 1_555 1_555
H45 C45 1_555 1_555
H46 C46 1_555 1_555
H47 C48 1_555 1_555
H48 C49 1_555 1_555
H49 C50 1_555 1_555
H50 C51 1_555 1_555
C6 C7 1_555 1_555
C8 N3 1_555 1_555
C13 C14 1_555 1_555
C19 C20 1_555 1_555
C25 C26 1_555 1_555
C32 C33 1_555 1_555
C34 N6 1_555 1_555
C39 C40 1_555 1_555
C45 C46 1_555 1_555
C51 C52 1_555 1_555

#END
