
#######################################################################
#
#                 Cambridge Crystallographic Data Centre
#                                CCDC 
#
#######################################################################
#
# If this CIF has been generated from an entry in the Cambridge 
# Structural Database, then it will include bibliographic, chemical, 
# crystal, experimental, refinement or atomic coordinate data resulting 
# from the CCDC's data processing and validation procedures.
#
#######################################################################

data_FELCEG
_chemical_formula_moiety         'C22 H24 N2 O8'
_chemical_name_systematic        
'Dibenzyl 4,4a-dihydroxyhexahydro[1,2]oxazino[5,6-d][1,2]oxazine-2,6-dicarboxylate'
_symmetry_cell_setting           triclinic
_symmetry_space_group_name_H-M   'P -1'
_symmetry_Int_Tables_number      2
_space_group_name_Hall           '-P 1'
loop_
_symmetry_equiv_pos_site_id
_symmetry_equiv_pos_as_xyz
1 x,y,z
2 -x,-y,-z
_cell_length_a                   6.1903(2)
_cell_length_b                   11.0001(5)
_cell_length_c                   16.5975(7)
_cell_angle_alpha                71.3193(19)
_cell_angle_beta                 81.706(3)
_cell_angle_gamma                75.698(3)
_cell_volume                     1034.85
_exptl_crystal_colour            colorless
_exptl_crystal_description       plate
_cell_formula_units_Z            2
loop_
_atom_site_label
_atom_site_type_symbol
_atom_site_fract_x
_atom_site_fract_y
_atom_site_fract_z
O1 O 1.0335(2) 0.76824(15) 0.43990(9)
N1 N 0.9372(3) 0.84225(18) 0.36232(11)
C1 C 0.7402(4) 0.7994(2) 0.35204(14)
C2 C 0.5650(3) 0.8156(2) 0.42452(14)
C3 C 0.6620(3) 0.7489(2) 0.51124(13)
C4 C 0.6986(4) 0.6003(2) 0.53321(14)
N2 N 0.8192(3) 0.53458(18) 0.60972(12)
O2 O 1.0297(2) 0.56713(15) 0.60214(10)
C5 C 1.0025(4) 0.7055(2) 0.59117(14)
C6 C 0.8824(3) 0.7891(2) 0.51219(13)
C7 C 0.9567(4) 0.9706(2) 0.33446(14)
O3 O 1.0668(3) 1.01815(16) 0.36645(11)
O4 O 0.8496(3) 1.03520(16) 0.26361(10)
C8 C 0.8636(5) 1.1727(2) 0.22805(16)
C9 C 0.7187(4) 1.2322(2) 0.15478(15)
C10 C 0.8072(5) 1.2469(3) 0.07140(16)
C11 C 0.6693(5) 1.3036(3) 0.00429(17)
C12 C 0.4428(5) 1.3466(3) 0.02032(17)
C13 C 0.3532(5) 1.3338(2) 0.10297(17)
C14 C 0.4905(4) 1.2757(2) 0.17000(16)
O5 O 0.4883(3) 0.95278(15) 0.41620(11)
O6 O 0.5112(2) 0.78540(16) 0.57746(10)
C15 C 0.7220(4) 0.5063(2) 0.69147(15)
O7 O 0.8103(3) 0.49547(17) 0.75416(10)
O8 O 0.5176(3) 0.48412(17) 0.69011(10)
C16 C 0.3893(4) 0.4505(2) 0.77135(15)
C17 C 0.4173(4) 0.3044(2) 0.81003(14)
C18 C 0.2327(4) 0.2548(3) 0.85342(16)
C19 C 0.2531(5) 0.1214(3) 0.89347(17)
C20 C 0.4569(5) 0.0364(3) 0.89034(18)
C21 C 0.6401(5) 0.0843(3) 0.84673(19)
C22 C 0.6209(4) 0.2181(3) 0.80681(17)
H1 H 0.6790 0.8531 0.2973
H2 H 0.7836 0.7073 0.3530
H3 H 0.4365 0.7792 0.4218
H4 H 0.5557 0.5730 0.5437
H5 H 0.7881 0.5708 0.4864
H6 H 1.1529 0.7248 0.5864
H7 H 0.9129 0.7262 0.6411
H8 H 0.8521 0.8813 0.5096
H9 H 0.8108 1.2175 0.2719
H10 H 1.0192 1.1784 0.2096
H11 H 0.9638 1.2194 0.0603
H12 H 0.7294 1.3134 -0.0528
H13 H 0.3483 1.3859 -0.0250
H14 H 0.2004 1.3657 0.1135
H15 H 0.4305 1.2656 0.2268
H16 H 0.350(5) 0.978(3) 0.3994(17)
H17 H 0.479(4) 0.874(3) 0.5640(17)
H18 H 0.4394 0.4873 0.8105
H19 H 0.2294 0.4897 0.7601
H20 H 0.0905 0.3123 0.8545
H21 H 0.1240 0.0885 0.9226
H22 H 0.4696 -0.0544 0.9185
H23 H 0.7826 0.0254 0.8446
H24 H 0.7505 0.2496 0.7778
loop_
_geom_bond_atom_site_label_1
_geom_bond_atom_site_label_2
_geom_bond_site_symmetry_1
_geom_bond_site_symmetry_2
O1 N1 1_555 1_555
N1 C1 1_555 1_555
C1 C2 1_555 1_555
C2 C3 1_555 1_555
C3 C4 1_555 1_555
C4 N2 1_555 1_555
N2 O2 1_555 1_555
O2 C5 1_555 1_555
C5 C6 1_555 1_555
C6 O1 1_555 1_555
C7 N1 1_555 1_555
O3 C7 1_555 1_555
O4 C7 1_555 1_555
C8 O4 1_555 1_555
C9 C8 1_555 1_555
C10 C9 1_555 1_555
C11 C10 1_555 1_555
C12 C11 1_555 1_555
C13 C12 1_555 1_555
C14 C9 1_555 1_555
O5 C2 1_555 1_555
O6 C3 1_555 1_555
C15 N2 1_555 1_555
O7 C15 1_555 1_555
O8 C15 1_555 1_555
C16 O8 1_555 1_555
C17 C16 1_555 1_555
C18 C17 1_555 1_555
C19 C18 1_555 1_555
C20 C19 1_555 1_555
C21 C20 1_555 1_555
C22 C17 1_555 1_555
H1 C1 1_555 1_555
H2 C1 1_555 1_555
H3 C2 1_555 1_555
H4 C4 1_555 1_555
H5 C4 1_555 1_555
H6 C5 1_555 1_555
H7 C5 1_555 1_555
H8 C6 1_555 1_555
H9 C8 1_555 1_555
H10 C8 1_555 1_555
H11 C10 1_555 1_555
H12 C11 1_555 1_555
H13 C12 1_555 1_555
H14 C13 1_555 1_555
H15 C14 1_555 1_555
H16 O5 1_555 1_555
H17 O6 1_555 1_555
H18 C16 1_555 1_555
H19 C16 1_555 1_555
H20 C18 1_555 1_555
H21 C19 1_555 1_555
H22 C20 1_555 1_555
H23 C21 1_555 1_555
H24 C22 1_555 1_555
C3 C6 1_555 1_555
C13 C14 1_555 1_555
C21 C22 1_555 1_555

#END
