
#######################################################################
#
#                 Cambridge Crystallographic Data Centre
#                                CCDC 
#
#######################################################################
#
# If this CIF has been generated from an entry in the Cambridge 
# Structural Database, then it will include bibliographic, chemical, 
# crystal, experimental, refinement or atomic coordinate data resulting 
# from the CCDC's data processing and validation procedures.
#
#######################################################################

data_FELCIK
_chemical_formula_moiety         'C6 H10 N2 O2'
_chemical_name_systematic        
2,3,5,6,8,8a-Hexahydro[1,2]oxazino[5,6-d][1,2]oxazine
_symmetry_cell_setting           orthorhombic
_symmetry_space_group_name_H-M   'P 21 21 21'
_symmetry_Int_Tables_number      19
_space_group_name_Hall           'P 2ac 2ab'
loop_
_symmetry_equiv_pos_site_id
_symmetry_equiv_pos_as_xyz
1 x,y,z
2 1/2+x,1/2-y,-z
3 -x,1/2+y,1/2-z
4 1/2-x,-y,1/2+z
_cell_length_a                   7.7343(2)
_cell_length_b                   8.2695(2)
_cell_length_c                   10.4290(3)
_cell_angle_alpha                90
_cell_angle_beta                 90
_cell_angle_gamma                90
_cell_volume                     667.026
_exptl_crystal_colour            colorless
_exptl_crystal_description       needle
_cell_formula_units_Z            4
loop_
_atom_site_label
_atom_site_type_symbol
_atom_site_fract_x
_atom_site_fract_y
_atom_site_fract_z
O1 O 0.69674(13) 0.37804(12) 0.15432(10)
N1 N 0.80480(17) 0.30947(15) 0.25640(13)
C1 C 0.7657(2) 0.40170(19) 0.37244(15)
C2 C 0.5757(2) 0.39233(18) 0.39894(14)
C3 C 0.46560(18) 0.34649(15) 0.30813(13)
C4 C 0.27332(19) 0.33420(18) 0.32424(15)
N2 N 0.17680(16) 0.42216(17) 0.22477(13)
O2 O 0.23250(14) 0.36506(14) 0.10067(11)
C5 C 0.41143(19) 0.4010(2) 0.07815(14)
C6 C 0.52742(17) 0.31417(16) 0.17377(14)
H1 H 0.905(3) 0.338(3) 0.2306(19)
H2 H 0.801(3) 0.516(2) 0.3657(18)
H3 H 0.839(3) 0.352(2) 0.4408(19)
H4 H 0.531(3) 0.427(2) 0.4848(18)
H5 H 0.239(3) 0.380(2) 0.4044(19)
H6 H 0.240(2) 0.220(2) 0.3185(18)
H7 H 0.202(3) 0.529(2) 0.2274(18)
H8 H 0.434(3) 0.522(2) 0.0865(18)
H9 H 0.433(3) 0.361(2) -0.0107(17)
H10 H 0.527(2) 0.196(2) 0.1573(18)
loop_
_geom_bond_atom_site_label_1
_geom_bond_atom_site_label_2
_geom_bond_site_symmetry_1
_geom_bond_site_symmetry_2
O1 N1 1_555 1_555
N1 C1 1_555 1_555
C1 C2 1_555 1_555
C2 C3 1_555 1_555
C3 C4 1_555 1_555
C4 N2 1_555 1_555
N2 O2 1_555 1_555
O2 C5 1_555 1_555
C5 C6 1_555 1_555
C6 O1 1_555 1_555
H1 N1 1_555 1_555
H2 C1 1_555 1_555
H3 C1 1_555 1_555
H4 C2 1_555 1_555
H5 C4 1_555 1_555
H6 C4 1_555 1_555
H7 N2 1_555 1_555
H8 C5 1_555 1_555
H9 C5 1_555 1_555
H10 C6 1_555 1_555
C3 C6 1_555 1_555

#END
