
#######################################################################
#
#                 Cambridge Crystallographic Data Centre
#                                CCDC 
#
#######################################################################
#
# If this CIF has been generated from an entry in the Cambridge 
# Structural Database, then it will include bibliographic, chemical, 
# crystal, experimental, refinement or atomic coordinate data resulting 
# from the CCDC's data processing and validation procedures.
#
#######################################################################

data_FELDAE
_chemical_formula_moiety         'C11 H13 O2 1-,C7 H10 N1 1+'
_chemical_name_systematic        'phenylmethanaminium 4-t-butylbenzoate'
_symmetry_cell_setting           triclinic
_symmetry_space_group_name_H-M   'P -1'
_symmetry_Int_Tables_number      2
_space_group_name_Hall           '-P 1'
loop_
_symmetry_equiv_pos_site_id
_symmetry_equiv_pos_as_xyz
1 x,y,z
2 -x,-y,-z
_cell_length_a                   6.4472(5)
_cell_length_b                   11.7466(9)
_cell_length_c                   12.4199(11)
_cell_angle_alpha                114.261(2)
_cell_angle_beta                 92.2510(10)
_cell_angle_gamma                100.102(2)
_cell_volume                     837.706
_exptl_crystal_colour            colorless
_exptl_crystal_description       block
_cell_formula_units_Z            2
loop_
_atom_site_label
_atom_site_type_symbol
_atom_site_fract_x
_atom_site_fract_y
_atom_site_fract_z
N1 N 0.2341(3) 0.4947(2) 0.41646(18)
H1 H 0.3600 0.5184 0.3964
H2 H 0.2519 0.4927 0.4870
H3 H 0.1538 0.5503 0.4204
C1 C 0.1287(5) 0.3659(3) 0.3257(3)
H4 H -0.0168 0.3463 0.3407
H5 H 0.2011 0.3031 0.3327
C2 C 0.1292(5) 0.3566(3) 0.2022(3)
C3 C 0.3005(6) 0.3277(3) 0.1422(3)
H6 H 0.4168 0.3142 0.1786
C4 C 0.3005(8) 0.3189(4) 0.0291(4)
H7 H 0.4176 0.3000 -0.0110
C5 C 0.1308(10) 0.3376(4) -0.0257(3)
H8 H 0.1311 0.3301 -0.1032
C6 C -0.0415(8) 0.3675(4) 0.0343(3)
H9 H -0.1577 0.3810 -0.0021
C7 C -0.0401(6) 0.3771(3) 0.1484(3)
H10 H -0.1557 0.3978 0.1894
O1 O 0.3444(3) 0.45381(17) 0.61521(15)
O2 O 0.0148(3) 0.33943(18) 0.57351(18)
C8 C 0.2064(4) 0.3604(3) 0.6108(2)
C9 C 0.2762(4) 0.2657(2) 0.6504(2)
C10 C 0.4792(4) 0.2862(3) 0.7042(2)
H11 H 0.5760 0.3613 0.7192
C11 C 0.5392(4) 0.1951(3) 0.7358(2)
H12 H 0.6765 0.2107 0.7721
C12 C 0.4017(4) 0.0826(2) 0.7150(2)
C13 C 0.1978(4) 0.0630(3) 0.6605(2)
H13 H 0.1011 -0.0124 0.6445
C14 C 0.1367(4) 0.1538(3) 0.6298(2)
H14 H -0.0012 0.1390 0.5945
C15 C 0.4617(5) -0.0217(3) 0.7465(2)
C16 C 0.6794(6) 0.0207(4) 0.8178(4)
H15 H 0.7850 0.0373 0.7707
H16 H 0.7074 -0.0454 0.8392
H17 H 0.6836 0.0971 0.8887
C17 C 0.4555(8) -0.1405(4) 0.6324(3)
H18 H 0.3204 -0.1637 0.5852
H19 H 0.4758 -0.2094 0.6516
H20 H 0.5664 -0.1235 0.5883
C18 C 0.3014(6) -0.0541(4) 0.8235(3)
H21 H 0.2998 0.0217 0.8939
H22 H 0.3421 -0.1172 0.8455
H23 H 0.1625 -0.0870 0.7790
loop_
_geom_bond_atom_site_label_1
_geom_bond_atom_site_label_2
_geom_bond_site_symmetry_1
_geom_bond_site_symmetry_2
N1 H1 1_555 1_555
H2 N1 1_555 1_555
H3 N1 1_555 1_555
C1 N1 1_555 1_555
H4 C1 1_555 1_555
H5 C1 1_555 1_555
C2 C1 1_555 1_555
C3 C2 1_555 1_555
H6 C3 1_555 1_555
C4 C3 1_555 1_555
H7 C4 1_555 1_555
C5 C4 1_555 1_555
H8 C5 1_555 1_555
C6 C5 1_555 1_555
H9 C6 1_555 1_555
C7 C2 1_555 1_555
H10 C7 1_555 1_555
O1 C8 1_555 1_555
O2 C8 1_555 1_555
C8 C9 1_555 1_555
C9 C10 1_555 1_555
C10 H11 1_555 1_555
C11 C10 1_555 1_555
H12 C11 1_555 1_555
C12 C11 1_555 1_555
C13 C12 1_555 1_555
H13 C13 1_555 1_555
C14 C9 1_555 1_555
H14 C14 1_555 1_555
C15 C12 1_555 1_555
C16 C15 1_555 1_555
H15 C16 1_555 1_555
H16 C16 1_555 1_555
H17 C16 1_555 1_555
C17 C15 1_555 1_555
H18 C17 1_555 1_555
H19 C17 1_555 1_555
H20 C17 1_555 1_555
C18 C15 1_555 1_555
H21 C18 1_555 1_555
H22 C18 1_555 1_555
H23 C18 1_555 1_555
C6 C7 1_555 1_555
C13 C14 1_555 1_555

#END
