
#######################################################################
#
#                 Cambridge Crystallographic Data Centre
#                                CCDC 
#
#######################################################################
#
# If this CIF has been generated from an entry in the Cambridge 
# Structural Database, then it will include bibliographic, chemical, 
# crystal, experimental, refinement or atomic coordinate data resulting 
# from the CCDC's data processing and validation procedures.
#
#######################################################################

data_FELDEI
_chemical_formula_moiety         'C7 H10 N1 1+,C7 H3 Cl2 O2 1-'
_chemical_name_systematic        'phenylmethanaminium 3,4-dichlorobenzoate'
_symmetry_cell_setting           monoclinic
_symmetry_space_group_name_H-M   'P 21/c'
_symmetry_Int_Tables_number      14
_space_group_name_Hall           '-P 2ybc'
loop_
_symmetry_equiv_pos_site_id
_symmetry_equiv_pos_as_xyz
1 x,y,z
2 -x,1/2+y,1/2-z
3 -x,-y,-z
4 x,1/2-y,1/2+z
_cell_length_a                   14.7084(13)
_cell_length_b                   6.3323(6)
_cell_length_c                   15.7136(13)
_cell_angle_alpha                90
_cell_angle_beta                 105.615(2)
_cell_angle_gamma                90
_cell_volume                     1409.52
_exptl_crystal_colour            colorless
_exptl_crystal_description       block
_cell_formula_units_Z            4
loop_
_atom_site_label
_atom_site_type_symbol
_atom_site_fract_x
_atom_site_fract_y
_atom_site_fract_z
Cl1 Cl 0.45746(15) 0.3164(4) 0.17338(17)
Cl2 Cl 0.43443(14) 0.7507(4) 0.07420(16)
O1 O 0.8855(3) 0.4256(7) 0.1781(3)
O2 O 0.8195(3) 0.1431(8) 0.2211(3)
C1 C 0.8146(4) 0.3214(12) 0.1878(4)
C2 C 0.7177(4) 0.4271(11) 0.1574(4)
C3 C 0.6418(5) 0.3361(11) 0.1759(4)
H1 H 0.6482 0.2074 0.2054
C4 C 0.5525(4) 0.4381(13) 0.1502(5)
C5 C 0.5453(5) 0.6263(13) 0.1057(5)
C6 C 0.6194(5) 0.7198(13) 0.0849(5)
H2 H 0.6126 0.8463 0.0538
C7 C 0.7062(5) 0.6174(11) 0.1125(4)
H3 H 0.7585 0.6795 0.1002
N1 N 0.0563(3) 0.3478(8) 0.3031(3)
H4 H 0.1011 0.4377 0.2981
H5 H 0.0084 0.3534 0.2545
H6 H 0.0797 0.2174 0.3101
C8 C 0.0222(5) 0.4068(13) 0.3818(4)
H7 H 0.0023 0.5534 0.3762
H8 H -0.0326 0.3215 0.3817
C9 C 0.0943(4) 0.3781(12) 0.4677(4)
C10 C 0.1533(5) 0.5421(13) 0.5067(5)
H9 H 0.1500 0.6714 0.4779
C11 C 0.2168(6) 0.5134(14) 0.5881(5)
H10 H 0.2557 0.6242 0.6146
C12 C 0.2229(6) 0.3235(19) 0.6297(5)
H11 H 0.2656 0.3062 0.6849
C13 C 0.1674(7) 0.1586(14) 0.5917(6)
H12 H 0.1724 0.0288 0.6203
C14 C 0.1040(5) 0.1863(13) 0.5105(5)
H13 H 0.0668 0.0731 0.4839
loop_
_geom_bond_atom_site_label_1
_geom_bond_atom_site_label_2
_geom_bond_site_symmetry_1
_geom_bond_site_symmetry_2
Cl1 C4 1_555 1_555
Cl2 C5 1_555 1_555
O1 C1 1_555 1_555
O2 C1 1_555 1_555
C1 C2 1_555 1_555
C2 C3 1_555 1_555
C3 H1 1_555 1_555
C4 C3 1_555 1_555
C5 C4 1_555 1_555
C6 C5 1_555 1_555
H2 C6 1_555 1_555
C7 C2 1_555 1_555
H3 C7 1_555 1_555
N1 H4 1_555 1_555
H5 N1 1_555 1_555
H6 N1 1_555 1_555
C8 N1 1_555 1_555
H7 C8 1_555 1_555
H8 C8 1_555 1_555
C9 C8 1_555 1_555
C10 C9 1_555 1_555
H9 C10 1_555 1_555
C11 C10 1_555 1_555
H10 C11 1_555 1_555
C12 C11 1_555 1_555
H11 C12 1_555 1_555
C13 C12 1_555 1_555
H12 C13 1_555 1_555
C14 C9 1_555 1_555
H13 C14 1_555 1_555
C6 C7 1_555 1_555
C13 C14 1_555 1_555

#END
