
#######################################################################
#
#                 Cambridge Crystallographic Data Centre
#                                CCDC 
#
#######################################################################
#
# If this CIF has been generated from an entry in the Cambridge 
# Structural Database, then it will include bibliographic, chemical, 
# crystal, experimental, refinement or atomic coordinate data resulting 
# from the CCDC's data processing and validation procedures.
#
#######################################################################

data_FELLOY
_chemical_formula_moiety         'C18 H8 F6'
_chemical_name_systematic        
1,4-bis(p-Trifluoromethylphenyl)buta-1,3-diyne
_symmetry_cell_setting           monoclinic
_symmetry_space_group_name_H-M   'P 21/c'
_symmetry_Int_Tables_number      14
_space_group_name_Hall           '-P 2ybc'
loop_
_symmetry_equiv_pos_site_id
_symmetry_equiv_pos_as_xyz
1 x,y,z
2 -x,1/2+y,1/2-z
3 -x,-y,-z
4 x,1/2-y,1/2+z
_cell_length_a                   13.258(3)
_cell_length_b                   6.215(1)
_cell_length_c                   17.517(13)
_cell_angle_alpha                90
_cell_angle_beta                 94.70(3)
_cell_angle_gamma                90
_cell_volume                     1438.52
_exptl_crystal_colour            colorless
_exptl_crystal_description       plate
_cell_formula_units_Z            4
loop_
_atom_site_label
_atom_site_type_symbol
_atom_site_fract_x
_atom_site_fract_y
_atom_site_fract_z
F1 F 0.00162(8) 1.88769(18) 0.31719(6)
F2 F -0.05907(8) 1.89494(18) 0.42576(6)
F3 F -0.10869(8) 1.65561(18) 0.34397(8)
F4 F 0.69809(7) 0.10313(15) 0.80853(5)
F5 F 0.79597(10) 0.1207(2) 0.71969(7)
F6 F 0.80975(10) 0.3458(2) 0.81274(10)
C1 C 0.05557(11) 1.6155(2) 0.40497(9)
C2 C 0.06811(13) 1.4159(3) 0.37161(9)
H1 H 0.0227(15) 1.375(3) 0.3298(11)
C3 C 0.14537(13) 1.2822(3) 0.40041(9)
H2 H 0.1545(13) 1.144(3) 0.3763(10)
C4 C 0.20996(11) 1.3456(3) 0.46317(9)
C5 C 0.19755(12) 1.5485(3) 0.49563(9)
H3 H 0.2426(13) 1.591(3) 0.5377(10)
C6 C 0.12080(12) 1.6823(3) 0.46651(9)
H4 H 0.1127(13) 1.823(3) 0.4897(10)
C7 C 0.28546(12) 1.2000(3) 0.49601(9)
C8 C 0.34483(12) 1.0728(3) 0.52581(9)
C9 C 0.41069(11) 0.9274(3) 0.56166(9)
C10 C 0.46668(12) 0.8002(3) 0.59541(8)
C11 C 0.53448(11) 0.6569(2) 0.63829(8)
C12 C 0.55448(12) 0.4510(3) 0.61084(9)
H5 H 0.5231(14) 0.405(3) 0.5630(11)
C13 C 0.62288(12) 0.3185(3) 0.65190(9)
H6 H 0.6376(14) 0.177(3) 0.6296(10)
C14 C 0.67103(11) 0.3890(3) 0.72076(9)
C15 C 0.65064(12) 0.5915(3) 0.74951(9)
H7 H 0.6838(13) 0.641(3) 0.7976(11)
C16 C 0.58202(12) 0.7247(3) 0.70829(9)
H8 H 0.5659(13) 0.865(3) 0.7293(10)
C17 C -0.02751(12) 1.7617(3) 0.37293(9)
C18 C 0.74432(12) 0.2427(3) 0.76522(9)
loop_
_geom_bond_atom_site_label_1
_geom_bond_atom_site_label_2
_geom_bond_site_symmetry_1
_geom_bond_site_symmetry_2
F1 C17 1_555 1_555
F2 C17 1_555 1_555
F3 C17 1_555 1_555
F4 C18 1_555 1_555
F5 C18 1_555 1_555
F6 C18 1_555 1_555
C1 C2 1_555 1_555
C2 H1 1_555 1_555
C3 C2 1_555 1_555
H2 C3 1_555 1_555
C4 C3 1_555 1_555
C5 C4 1_555 1_555
H3 C5 1_555 1_555
C6 C1 1_555 1_555
H4 C6 1_555 1_555
C7 C4 1_555 1_555
C8 C7 1_555 1_555
C9 C8 1_555 1_555
C10 C9 1_555 1_555
C11 C10 1_555 1_555
C12 C11 1_555 1_555
H5 C12 1_555 1_555
C13 C12 1_555 1_555
H6 C13 1_555 1_555
C14 C13 1_555 1_555
C15 C14 1_555 1_555
H7 C15 1_555 1_555
C16 C11 1_555 1_555
H8 C16 1_555 1_555
C17 C1 1_555 1_555
C18 C14 1_555 1_555
C5 C6 1_555 1_555
C15 C16 1_555 1_555

#END
