
#######################################################################
#
#                 Cambridge Crystallographic Data Centre
#                                CCDC 
#
#######################################################################
#
# If this CIF has been generated from an entry in the Cambridge 
# Structural Database, then it will include bibliographic, chemical, 
# crystal, experimental, refinement or atomic coordinate data resulting 
# from the CCDC's data processing and validation procedures.
#
#######################################################################

data_FELRAS
_chemical_formula_moiety         'C8 H10 N8 O4'
_chemical_name_systematic        
"2,2'-(ethane-1,2-diylbis(2H-tetrazole-5,2-diyl))diacetic acid"
_symmetry_cell_setting           monoclinic
_symmetry_space_group_name_H-M   'P 21/c'
_symmetry_Int_Tables_number      14
_space_group_name_Hall           '-P 2ybc'
loop_
_symmetry_equiv_pos_site_id
_symmetry_equiv_pos_as_xyz
1 x,y,z
2 -x,1/2+y,1/2-z
3 -x,-y,-z
4 x,1/2-y,1/2+z
_cell_length_a                   14.853(3)
_cell_length_b                   8.7567(18)
_cell_length_c                   9.4502(19)
_cell_angle_alpha                90
_cell_angle_beta                 95.41(3)
_cell_angle_gamma                90
_cell_volume                     1223.65
_cell_formula_units_Z            4
loop_
_atom_site_label
_atom_site_type_symbol
_atom_site_fract_x
_atom_site_fract_y
_atom_site_fract_z
O1 O 0.67989(10) 0.34879(19) 0.35619(19)
H1 H 0.7212 0.4031 0.3338
O2 O -0.17797(10) 0.3227(2) -0.38053(18)
H2 H -0.2187 0.3634 -0.3413
N1 N 0.06302(12) 0.3318(2) -0.31650(19)
N2 N 0.32013(12) 0.5128(2) 0.2857(2)
N3 N 0.43896(11) 0.3832(2) 0.29360(19)
N4 N 0.18084(13) 0.4634(2) -0.2829(2)
N5 N 0.39043(12) 0.4676(2) 0.37144(19)
N6 N 0.10235(13) 0.2759(2) -0.1955(2)
O3 O 0.59322(12) 0.5289(2) 0.2471(2)
N7 N 0.10755(12) 0.4438(2) -0.3713(2)
C1 C -0.09947(15) 0.3551(3) -0.3103(3)
N8 N 0.40563(14) 0.3718(3) 0.1586(2)
C2 C 0.52395(14) 0.3159(2) 0.3493(2)
H3 H 0.5287 0.2136 0.3114
H4 H 0.5258 0.3083 0.4520
O4 O -0.08714(12) 0.4308(3) -0.2054(2)
C3 C 0.60221(14) 0.4105(3) 0.3104(2)
C4 C -0.02422(14) 0.2797(3) -0.3806(2)
H5 H -0.0284 0.1697 -0.3707
H6 H -0.0301 0.3038 -0.4812
C5 C 0.17734(15) 0.3593(3) -0.1780(3)
C6 C 0.33057(16) 0.4559(3) 0.1577(3)
C7 C 0.24784(17) 0.3393(3) -0.0563(3)
H7 H 0.3038 0.3072 -0.0926
H8 H 0.2290 0.2587 0.0049
C8 C 0.26507(19) 0.4803(3) 0.0296(3)
H9 H 0.2083 0.5169 0.0598
H10 H 0.2885 0.5586 -0.0296
loop_
_geom_bond_atom_site_label_1
_geom_bond_atom_site_label_2
_geom_bond_site_symmetry_1
_geom_bond_site_symmetry_2
O1 H1 1_555 1_555
O2 H2 1_555 1_555
N1 N6 1_555 1_555
N2 N5 1_555 1_555
N3 N5 1_555 1_555
N4 N7 1_555 1_555
N6 C5 1_555 1_555
O3 C3 1_555 1_555
N7 N1 1_555 1_555
C1 O2 1_555 1_555
N8 N3 1_555 1_555
C2 N3 1_555 1_555
H3 C2 1_555 1_555
H4 C2 1_555 1_555
O4 C1 1_555 1_555
C3 O1 1_555 1_555
C4 N1 1_555 1_555
H5 C4 1_555 1_555
H6 C4 1_555 1_555
C5 N4 1_555 1_555
C6 N2 1_555 1_555
C7 C5 1_555 1_555
H7 C7 1_555 1_555
H8 C7 1_555 1_555
C8 C6 1_555 1_555
H9 C8 1_555 1_555
H10 C8 1_555 1_555
C1 C4 1_555 1_555
N8 C6 1_555 1_555
C2 C3 1_555 1_555
C7 C8 1_555 1_555

#END
