
#######################################################################
#
#                 Cambridge Crystallographic Data Centre
#                                CCDC 
#
#######################################################################
#
# If this CIF has been generated from an entry in the Cambridge 
# Structural Database, then it will include bibliographic, chemical, 
# crystal, experimental, refinement or atomic coordinate data resulting 
# from the CCDC's data processing and validation procedures.
#
#######################################################################

data_FELSAQ
_chemical_formula_moiety         'C18 H22 O6'
_chemical_name_systematic        2,2',4,4',5,5'-Hexamethoxybiphenyl
_symmetry_cell_setting           monoclinic
_symmetry_space_group_name_H-M   'C 2/c'
_symmetry_Int_Tables_number      15
_space_group_name_Hall           '-C 2yn'
loop_
_symmetry_equiv_pos_site_id
_symmetry_equiv_pos_as_xyz
1 x,y,z
2 1/2+x,1/2+y,z
3 -x,y,1/2-z
4 1/2-x,1/2+y,1/2-z
5 -x,-y,-z
6 1/2-x,1/2-y,-z
7 x,-y,1/2+z
8 1/2+x,1/2-y,1/2+z
_cell_length_a                   24.801(3)
_cell_length_b                   5.3654(5)
_cell_length_c                   15.428(2)
_cell_angle_alpha                90
_cell_angle_beta                 126.18(1)
_cell_angle_gamma                90
_cell_volume                     1657.08
_cell_formula_units_Z            4
loop_
_atom_site_label
_atom_site_type_symbol
_atom_site_fract_x
_atom_site_fract_y
_atom_site_fract_z
O1 O 0.0729(1) -0.5455(3) -0.2426(1)
O2 O 0.2055(1) -0.1959(3) 0.1183(1)
O3 O 0.1119(1) 0.1243(3) 0.0626(1)
C1 C 0.0318(1) -0.2193(3) -0.1952(1)
C2 C 0.0835(1) -0.3828(3) -0.1648(1)
C3 C 0.1422(1) -0.3781(1) -0.0613(1)
C4 C 0.1505(1) -0.2089(4) 0.0138(2)
C5 C 0.0999(1) -0.0373(3) -0.0159(1)
C6 C 0.0420(1) -0.0445(3) -0.1194(1)
C7 C 0.1261(1) -0.7057(4) -0.2151(2)
C8 C 0.2531(1) -0.3902(6) 0.1574(2)
C9 C 0.0610(1) 0.3002(4) 0.0342(2)
H1 H 0.181(1) -0.498(4) -0.040(2)
H2 H 0.005(1) 0.105(6) -0.142(2)
H3 H 0.168(1) -0.589(5) -0.194(2)
H4 H 0.111(3) -0.754(12) -0.285(5)
H5 H 0.150(2) -0.814(8) -0.146(3)
H6 H 0.277(2) -0.353(6) 0.222(3)
H7 H 0.268(2) -0.396(8) 0.116(3)
H8 H 0.228(2) -0.610(9) 0.141(3)
H9 H 0.054(1) 0.428(6) -0.023(2)
H10 H 0.085(1) 0.409(7) 0.102(3)
H11 H 0.016(2) 0.225(6) 0.009(3)
C1B C -0.0318(1) -0.2193(3) -0.3048(1)
C2B C -0.0835(1) -0.3828(3) -0.3352(1)
C6B C -0.0420(1) -0.0445(3) -0.3806(1)
O1B O -0.0729(1) -0.5455(3) -0.2574(1)
C3B C -0.1422(1) -0.3781(1) -0.4387(1)
C5B C -0.0999(1) -0.0373(3) -0.4841(1)
H2B H -0.005(1) 0.105(6) -0.358(2)
C7B C -0.1261(1) -0.7057(4) -0.2849(2)
C4B C -0.1505(1) -0.2089(4) -0.5138(2)
H1B H -0.181(1) -0.498(4) -0.460(2)
O3B O -0.1119(1) 0.1243(3) -0.5626(1)
H3B H -0.168(1) -0.589(5) -0.306(2)
H4B H -0.111(3) -0.754(12) -0.215(5)
H5B H -0.150(2) -0.814(8) -0.354(3)
O2B O -0.2055(1) -0.1959(3) -0.6183(1)
C9B C -0.0610(1) 0.3002(4) -0.5342(2)
C8B C -0.2531(1) -0.3902(6) -0.6574(2)
H9B H -0.054(1) 0.428(6) -0.477(2)
H10B H -0.085(1) 0.409(7) -0.602(3)
H11B H -0.016(2) 0.225(6) -0.509(3)
H6B H -0.277(2) -0.353(6) -0.722(3)
H7B H -0.268(2) -0.396(8) -0.616(3)
H8B H -0.228(2) -0.610(9) -0.641(3)
loop_
_geom_bond_atom_site_label_1
_geom_bond_atom_site_label_2
_geom_bond_site_symmetry_1
_geom_bond_site_symmetry_2
O1 C2 1_555 1_555
O2 C4 1_555 1_555
O3 C5 1_555 1_555
C1 C2 1_555 1_555
C2 C3 1_555 1_555
C3 C4 1_555 1_555
C4 C5 1_555 1_555
C5 C6 1_555 1_555
C6 C1 1_555 1_555
C7 O1 1_555 1_555
C8 O2 1_555 1_555
C9 O3 1_555 1_555
H1 C3 1_555 1_555
H2 C6 1_555 1_555
H3 C7 1_555 1_555
H4 C7 1_555 1_555
H5 C7 1_555 1_555
H6 C8 1_555 1_555
H7 C8 1_555 1_555
H8 C8 1_555 1_555
H9 C9 1_555 1_555
H10 C9 1_555 1_555
H11 C9 1_555 1_555
C1B C1 1_555 1_555
C2B C1B 1_555 1_555
C6B C1B 1_555 1_555
O1B C2B 1_555 1_555
C3B C2B 1_555 1_555
C5B C6B 1_555 1_555
H2B C6B 1_555 1_555
C7B O1B 1_555 1_555
C4B C3B 1_555 1_555
H1B C3B 1_555 1_555
O3B C5B 1_555 1_555
H3B C7B 1_555 1_555
H4B C7B 1_555 1_555
H5B C7B 1_555 1_555
O2B C4B 1_555 1_555
C9B O3B 1_555 1_555
C8B O2B 1_555 1_555
H9B C9B 1_555 1_555
H10B C9B 1_555 1_555
H11B C9B 1_555 1_555
H6B C8B 1_555 1_555
H7B C8B 1_555 1_555
H8B C8B 1_555 1_555
C5B C4B 1_555 1_555

#END
