
#######################################################################
#
#                 Cambridge Crystallographic Data Centre
#                                CCDC 
#
#######################################################################
#
# If this CIF has been generated from an entry in the Cambridge 
# Structural Database, then it will include bibliographic, chemical, 
# crystal, experimental, refinement or atomic coordinate data resulting 
# from the CCDC's data processing and validation procedures.
#
#######################################################################

data_FEMHOX
_chemical_formula_moiety         'C17 H23 F3 N1 O4 P1'
_chemical_name_systematic        
'dipropan-2-yl {2-(acetylamino)-2-[2-(trifluoromethyl)phenyl]ethenyl}phosphonate'
_symmetry_cell_setting           orthorhombic
_symmetry_space_group_name_H-M   'P b c a'
_symmetry_Int_Tables_number      61
_space_group_name_Hall           '-P 2ac 2ab'
loop_
_symmetry_equiv_pos_site_id
_symmetry_equiv_pos_as_xyz
1 x,y,z
2 1/2-x,-y,1/2+z
3 1/2+x,1/2-y,-z
4 -x,1/2+y,1/2-z
5 -x,-y,-z
6 1/2+x,y,1/2-z
7 1/2-x,1/2+y,z
8 x,1/2-y,1/2+z
_cell_length_a                   17.988(2)
_cell_length_b                   10.7198(15)
_cell_length_c                   21.710(3)
_cell_angle_alpha                90
_cell_angle_beta                 90
_cell_angle_gamma                90
_cell_volume                     4186.29
_exptl_crystal_colour            colorless
_exptl_crystal_description       Block
_cell_formula_units_Z            8
loop_
_atom_site_label
_atom_site_type_symbol
_atom_site_fract_x
_atom_site_fract_y
_atom_site_fract_z
C1 C 1.0877(4) 0.3170(6) 0.3274(3)
C2 C 1.0095(3) 0.3559(4) 0.3174(2)
C3 C 0.9576(4) 0.3147(5) 0.3597(3)
H1 H 0.9721 0.2636 0.3921
C4 C 0.8855(4) 0.3490(7) 0.3537(3)
H2 H 0.8508 0.3218 0.3825
C5 C 0.8630(3) 0.4231(6) 0.3060(3)
H3 H 0.8133 0.4464 0.3026
C6 C 0.9143(3) 0.4635(5) 0.2625(2)
H4 H 0.8988 0.5133 0.2298
C7 C 0.9886(2) 0.4300(4) 0.2675(2)
C8 C 1.0425(2) 0.4778(4) 0.2211(2)
C9 C 1.1639(3) 0.5835(5) 0.2260(3)
C10 C 1.2100(3) 0.6625(5) 0.2685(3)
H5 H 1.2344 0.6101 0.2981
H6 H 1.1783 0.7207 0.2896
H7 H 1.2465 0.7074 0.2451
C11 C 1.0417(2) 0.4462(4) 0.1618(2)
H8 H 1.0733 0.4915 0.1364
C12 C 1.0920(4) 0.1805(5) 0.0807(3)
H9 H 1.0737 0.1250 0.1133
C13 C 1.1662(4) 0.2291(7) 0.0982(4)
H10 H 1.1853 0.2800 0.0654
H11 H 1.1994 0.1605 0.1054
H12 H 1.1619 0.2782 0.1350
C14 C 1.0941(5) 0.1113(8) 0.0212(4)
H13 H 1.0465 0.0741 0.0135
H14 H 1.1314 0.0472 0.0232
H15 H 1.1060 0.1680 -0.0116
F1 F 1.12458(19) 0.2924(4) 0.27611(17)
F2 F 1.1278(2) 0.4052(4) 0.35674(18)
F3 F 1.0935(2) 0.2148(3) 0.36269(18)
N1 N 1.09310(19) 0.5629(3) 0.24624(16)
H16 H 1.0783 0.6061 0.2773
O1 O 1.18915(19) 0.5390(3) 0.17896(18)
O2 O 0.95919(18) 0.2307(3) 0.16459(14)
O3 O 0.92923(18) 0.4082(3) 0.09004(15)
O4 O 1.03915(18) 0.2814(3) 0.07147(13)
P1 P 0.98882(7) 0.33061(12) 0.12563(5)
C15 C 0.8776(4) 0.3612(8) 0.0477(4)
H17 H 0.8799 0.2707 0.0417
C16 C 0.8738(6) 0.4331(10) -0.0054(4)
H18 H 0.9127 0.4944 -0.0049
H19 H 0.8796 0.3804 -0.0409
H20 H 0.8264 0.4742 -0.0073
C17 C 0.7976(6) 0.4180(16) 0.0791(6)
H21 H 0.7899 0.3788 0.1183
H22 H 0.7999 0.5068 0.0844
H23 H 0.7571 0.3975 0.0521
H24? H 0.9150 0.3047 0.0303
C18? C 0.8292(8) 0.2710(15) 0.0565(7)
H25? H 0.8382 0.2346 0.0962
H26? H 0.7790 0.3010 0.0546
H27? H 0.8368 0.2093 0.0251
loop_
_geom_bond_atom_site_label_1
_geom_bond_atom_site_label_2
_geom_bond_site_symmetry_1
_geom_bond_site_symmetry_2
C1 C2 1_555 1_555
C2 C3 1_555 1_555
C3 H1 1_555 1_555
C4 C3 1_555 1_555
H2 C4 1_555 1_555
C5 C4 1_555 1_555
H3 C5 1_555 1_555
C6 C5 1_555 1_555
H4 C6 1_555 1_555
C7 C2 1_555 1_555
C8 C7 1_555 1_555
C9 C10 1_555 1_555
C10 H5 1_555 1_555
H6 C10 1_555 1_555
H7 C10 1_555 1_555
C11 C8 1_555 1_555
H8 C11 1_555 1_555
C12 H9 1_555 1_555
C13 C12 1_555 1_555
H10 C13 1_555 1_555
H11 C13 1_555 1_555
H12 C13 1_555 1_555
C14 C12 1_555 1_555
H13 C14 1_555 1_555
H14 C14 1_555 1_555
H15 C14 1_555 1_555
F1 C1 1_555 1_555
F2 C1 1_555 1_555
F3 C1 1_555 1_555
N1 C8 1_555 1_555
H16 N1 1_555 1_555
O1 C9 1_555 1_555
O2 P1 1_555 1_555
O3 P1 1_555 1_555
O4 C12 1_555 1_555
P1 C11 1_555 1_555
C15 O3 1_555 1_555
H17 C15 1_555 1_555
C16 C15 1_555 1_555
H18 C16 1_555 1_555
H19 C16 1_555 1_555
H20 C16 1_555 1_555
C17 C15 1_555 1_555
H21 C17 1_555 1_555
H22 C17 1_555 1_555
H23 C17 1_555 1_555
C6 C7 1_555 1_555
C9 N1 1_555 1_555
O4 P1 1_555 1_555

#END
