
#######################################################################
#
#                 Cambridge Crystallographic Data Centre
#                                CCDC 
#
#######################################################################
#
# If this CIF has been generated from an entry in the Cambridge 
# Structural Database, then it will include bibliographic, chemical, 
# crystal, experimental, refinement or atomic coordinate data resulting 
# from the CCDC's data processing and validation procedures.
#
#######################################################################

data_FEMJUF
_chemical_formula_moiety         'C56 H56 Br2 Mg2 N6'
_chemical_name_systematic        
bis(\m-N-[[(2,6-diethyl-4-methylphenyl)imino](phenyl)methyl]-2-methylquinolin-8-aminido)-dibromo-di-magnesium
_symmetry_cell_setting           triclinic
_symmetry_space_group_name_H-M   'P -1'
_symmetry_Int_Tables_number      2
_space_group_name_Hall           '-P 1'
loop_
_symmetry_equiv_pos_site_id
_symmetry_equiv_pos_as_xyz
1 x,y,z
2 -x,-y,-z
_cell_length_a                   10.081(2)
_cell_length_b                   10.718(2)
_cell_length_c                   12.472(3)
_cell_angle_alpha                88.35(3)
_cell_angle_beta                 86.29(3)
_cell_angle_gamma                66.16(3)
_cell_volume                     1230.01
_exptl_crystal_colour            yellow
_exptl_crystal_description       plate
_cell_formula_units_Z            1
loop_
_atom_site_label
_atom_site_type_symbol
_atom_site_fract_x
_atom_site_fract_y
_atom_site_fract_z
N1 N 0.37596(18) 0.94028(17) 0.17437(13)
C1 C 0.4988(2) 0.8340(2) 0.33769(16)
C2 C 0.2999(2) 1.2925(2) 0.23293(17)
H1 H 0.3588 1.2996 0.1746
N2 N 0.3767(2) 1.31439(17) -0.07077(14)
C3 C 0.1722(3) 1.1733(2) 0.32844(19)
H2 H 0.1455 1.0997 0.3349
C4 C 0.2629(2) 1.1805(2) 0.24096(16)
C5 C 0.1217(3) 1.2751(3) 0.4056(2)
H3 H 0.0614 1.2693 0.4634
C6 C 0.0922(2) 1.2012(2) 0.02133(17)
H4 H 0.0810 1.1347 0.0659
C7 C 0.3286(2) 1.0705(2) 0.15762(16)
C8 C 0.5349(3) 1.4255(3) -0.1365(2)
H5 H 0.5976 1.3638 -0.0861
H6 H 0.5201 1.5173 -0.1199
H7 H 0.5788 1.4032 -0.2079
C9 C 0.2586(2) 0.8408(2) 0.30697(17)
N3 N 0.35253(18) 1.10672(17) 0.05251(13)
C10 C 0.3924(3) 1.4134(2) -0.12976(17)
C11 C 0.1435(3) 1.5021(2) -0.17930(18)
H8 H 0.0679 1.5639 -0.2172
C12 C 0.1217(3) 1.4005(2) -0.11457(17)
C13 C 0.2272(2) 1.2051(2) 0.00658(16)
C14 C 0.6255(2) 0.8714(2) 0.30800(17)
H9 H 0.6255 0.8942 0.2322
H10 H 0.7154 0.7934 0.3201
C15 C 0.2502(3) 1.3937(2) 0.31077(19)
H11 H 0.2772 1.4670 0.3049
C16 C 0.3765(2) 0.87528(19) 0.27660(15)
C17 C 0.6191(3) 0.9922(3) 0.37348(19)
H12 H 0.6958 1.0187 0.3477
H13 H 0.6304 0.9664 0.4478
H14 H 0.5270 1.0674 0.3661
C18 C 0.2640(3) 0.7699(2) 0.40338(18)
H15 H 0.1854 0.7492 0.4259
C19 C 0.3808(3) 0.6579(3) 0.5727(2)
H16 H 0.3392 0.7245 0.6287
H17 H 0.4783 0.5985 0.5885
H18 H 0.3236 0.6053 0.5682
C20 C 0.1313(3) 0.8794(3) 0.23647(18)
H19 H 0.1651 0.8280 0.1702
H20 H 0.0998 0.9752 0.2180
C21 C 0.0007(3) 0.8565(4) 0.2833(2)
H21 H -0.0719 0.8817 0.2313
H22 H -0.0385 0.9114 0.3465
H23 H 0.0295 0.7620 0.3019
C22 C -0.0292(3) 1.2959(2) -0.02962(19)
H24 H -0.1195 1.2922 -0.0173
C23 C 0.2751(3) 1.5088(2) -0.18570(19)
H25 H 0.2889 1.5765 -0.2272
C24 C 0.4987(2) 0.7611(2) 0.43211(17)
H26 H 0.5796 0.7328 0.4733
C25 C 0.2434(2) 1.3078(2) -0.06122(16)
C26 C 0.3828(3) 0.7292(2) 0.46697(17)
C27 C 0.1603(3) 1.3858(3) 0.3973(2)
H27 H 0.1262 1.4538 0.4492
C28 C -0.0147(3) 1.3929(2) -0.09689(19)
H28 H -0.0948 1.4540 -0.1312
Br1 Br 0.29855(3) 0.83805(2) -0.108462(18)
Mg1 Mg 0.45725(7) 0.87460(7) 0.01551(5)
N1A N 0.62404(18) 1.05972(17) -0.17437(13)
C1A C 0.5012(2) 1.1660(2) -0.33769(16)
C2A C 0.7001(2) 0.7075(2) -0.23293(17)
H1A H 0.6412 0.7004 -0.1746
N2A N 0.6233(2) 0.68561(17) 0.07077(14)
C3A C 0.8278(3) 0.8267(2) -0.32844(19)
H2A H 0.8545 0.9003 -0.3349
C4A C 0.7371(2) 0.8195(2) -0.24096(16)
C5A C 0.8783(3) 0.7249(3) -0.4056(2)
H3A H 0.9386 0.7307 -0.4634
C6A C 0.9078(2) 0.7988(2) -0.02133(17)
H4A H 0.9190 0.8653 -0.0659
C7A C 0.6714(2) 0.9295(2) -0.15762(16)
C8A C 0.4651(3) 0.5745(3) 0.1365(2)
H5A H 0.4024 0.6362 0.0861
H6A H 0.4799 0.4827 0.1199
H7A H 0.4212 0.5968 0.2079
C9A C 0.7414(2) 1.1592(2) -0.30697(17)
N3A N 0.64747(18) 0.89328(17) -0.05251(13)
C10A C 0.6076(3) 0.5866(2) 0.12976(17)
C11A C 0.8565(3) 0.4979(2) 0.17930(18)
H8A H 0.9321 0.4361 0.2172
C12A C 0.8783(3) 0.5995(2) 0.11457(17)
C13A C 0.7728(2) 0.7949(2) -0.00658(16)
C14A C 0.3745(2) 1.1286(2) -0.30800(17)
H9A H 0.3745 1.1058 -0.2322
H10A H 0.2846 1.2066 -0.3201
C15A C 0.7498(3) 0.6063(2) -0.31077(19)
H11A H 0.7228 0.5330 -0.3049
C16A C 0.6235(2) 1.12472(19) -0.27660(15)
C17A C 0.3809(3) 1.0078(3) -0.37348(19)
H12A H 0.3042 0.9813 -0.3477
H13A H 0.3696 1.0336 -0.4478
H14A H 0.4730 0.9326 -0.3661
C18A C 0.7360(3) 1.2301(2) -0.40338(18)
H15A H 0.8146 1.2508 -0.4259
C19A C 0.6192(3) 1.3421(3) -0.5727(2)
H16A H 0.6608 1.2755 -0.6287
H17A H 0.5217 1.4015 -0.5885
H18A H 0.6764 1.3947 -0.5682
C20A C 0.8687(3) 1.1206(3) -0.23647(18)
H19A H 0.8349 1.1720 -0.1702
H20A H 0.9002 1.0248 -0.2180
C21A C 0.9993(3) 1.1435(4) -0.2833(2)
H21A H 1.0719 1.1183 -0.2313
H22A H 1.0385 1.0886 -0.3465
H23A H 0.9705 1.2380 -0.3019
C22A C 1.0292(3) 0.7041(2) 0.02962(19)
H24A H 1.1195 0.7078 0.0173
C23A C 0.7249(3) 0.4912(2) 0.18570(19)
H25A H 0.7111 0.4235 0.2272
C24A C 0.5013(2) 1.2389(2) -0.43211(17)
H26A H 0.4204 1.2672 -0.4733
C25A C 0.7566(2) 0.6922(2) 0.06122(16)
C26A C 0.6172(3) 1.2708(2) -0.46697(17)
C27A C 0.8397(3) 0.6142(3) -0.3973(2)
H27A H 0.8738 0.5462 -0.4492
C28A C 1.0147(3) 0.6071(2) 0.09689(19)
H28A H 1.0948 0.5460 0.1312
Br1A Br 0.70145(3) 1.16195(2) 0.108462(18)
Mg1A Mg 0.54275(7) 1.12540(7) -0.01551(5)
loop_
_geom_bond_atom_site_label_1
_geom_bond_atom_site_label_2
_geom_bond_site_symmetry_1
_geom_bond_site_symmetry_2
N1 C7 1_555 1_555
C1 C14 1_555 1_555
C2 H1 1_555 1_555
N2 C10 1_555 1_555
C3 H2 1_555 1_555
C4 C2 1_555 1_555
C5 C3 1_555 1_555
H3 C5 1_555 1_555
C6 H4 1_555 1_555
C7 C4 1_555 1_555
C8 H5 1_555 1_555
H6 C8 1_555 1_555
H7 C8 1_555 1_555
C9 C16 1_555 1_555
N3 C7 1_555 1_555
C10 C8 1_555 1_555
C11 H8 1_555 1_555
C12 C11 1_555 1_555
C13 C6 1_555 1_555
C14 H9 1_555 1_555
H10 C14 1_555 1_555
C15 C2 1_555 1_555
H11 C15 1_555 1_555
C16 N1 1_555 1_555
C17 C14 1_555 1_555
H12 C17 1_555 1_555
H13 C17 1_555 1_555
H14 C17 1_555 1_555
C18 C9 1_555 1_555
H15 C18 1_555 1_555
C19 H16 1_555 1_555
H17 C19 1_555 1_555
H18 C19 1_555 1_555
C20 C9 1_555 1_555
H19 C20 1_555 1_555
H20 C20 1_555 1_555
C21 C20 1_555 1_555
H21 C21 1_555 1_555
H22 C21 1_555 1_555
H23 C21 1_555 1_555
C22 C6 1_555 1_555
H24 C22 1_555 1_555
C23 C10 1_555 1_555
H25 C23 1_555 1_555
C24 C1 1_555 1_555
H26 C24 1_555 1_555
C25 N2 1_555 1_555
C26 C18 1_555 1_555
C27 C5 1_555 1_555
H27 C27 1_555 1_555
C28 C12 1_555 1_555
H28 C28 1_555 1_555
Br1 Mg1 1_555 1_555
Mg1 N1 1_555 1_555
N1A C7A 1_555 1_555
C1A C14A 1_555 1_555
C2A H1A 1_555 1_555
N2A Mg1 1_555 1_555
C3A H2A 1_555 1_555
C4A C2A 1_555 1_555
C5A C3A 1_555 1_555
H3A C5A 1_555 1_555
C6A H4A 1_555 1_555
C7A C4A 1_555 1_555
C8A H5A 1_555 1_555
H6A C8A 1_555 1_555
H7A C8A 1_555 1_555
C9A C16A 1_555 1_555
N3A Mg1 1_555 1_555
C10A N2A 1_555 1_555
C11A H8A 1_555 1_555
C12A C11A 1_555 1_555
C13A C6A 1_555 1_555
C14A H9A 1_555 1_555
H10A C14A 1_555 1_555
C15A C2A 1_555 1_555
H11A C15A 1_555 1_555
C16A N1A 1_555 1_555
C17A C14A 1_555 1_555
H12A C17A 1_555 1_555
H13A C17A 1_555 1_555
H14A C17A 1_555 1_555
C18A C9A 1_555 1_555
H15A C18A 1_555 1_555
C19A H16A 1_555 1_555
H17A C19A 1_555 1_555
H18A C19A 1_555 1_555
C20A C9A 1_555 1_555
H19A C20A 1_555 1_555
H20A C20A 1_555 1_555
C21A C20A 1_555 1_555
H21A C21A 1_555 1_555
H22A C21A 1_555 1_555
H23A C21A 1_555 1_555
C22A C6A 1_555 1_555
H24A C22A 1_555 1_555
C23A C10A 1_555 1_555
H25A C23A 1_555 1_555
C24A C1A 1_555 1_555
H26A C24A 1_555 1_555
C25A N2A 1_555 1_555
C26A C18A 1_555 1_555
C27A C5A 1_555 1_555
H27A C27A 1_555 1_555
C28A C12A 1_555 1_555
H28A C28A 1_555 1_555
Br1A Mg1A 1_555 1_555
Mg1A N2 1_555 1_555
C1 C16 1_555 1_555
C3 C4 1_555 1_555
N3 C13 1_555 1_555
N3 Mg1 1_555 1_555
N3 Mg1A 1_555 1_555
C11 C23 1_555 1_555
C12 C25 1_555 1_555
C13 C25 1_555 1_555
C15 C27 1_555 1_555
C19 C26 1_555 1_555
C22 C28 1_555 1_555
C24 C26 1_555 1_555
N1A Mg1A 1_555 1_555
C1A C16A 1_555 1_555
C3A C4A 1_555 1_555
C7A N3A 1_555 1_555
C8A C10A 1_555 1_555
N3A C13A 1_555 1_555
N3A Mg1A 1_555 1_555
C11A C23A 1_555 1_555
C12A C25A 1_555 1_555
C13A C25A 1_555 1_555
C15A C27A 1_555 1_555
C19A C26A 1_555 1_555
C22A C28A 1_555 1_555
C24A C26A 1_555 1_555

#END
