
#######################################################################
#
#                 Cambridge Crystallographic Data Centre
#                                CCDC 
#
#######################################################################
#
# If this CIF has been generated from an entry in the Cambridge 
# Structural Database, then it will include bibliographic, chemical, 
# crystal, experimental, refinement or atomic coordinate data resulting 
# from the CCDC's data processing and validation procedures.
#
#######################################################################

data_FEMNIX
_chemical_formula_moiety         'C12 H24 O6,F6 P1 1-,H3 O1 1+'
_chemical_name_systematic        'oxonium hexafluorophosphate 18-crown-6'
_symmetry_cell_setting           orthorhombic
_symmetry_space_group_name_H-M   'P b a m'
_symmetry_Int_Tables_number      55
_space_group_name_Hall           '-P 2 2ab'
loop_
_symmetry_equiv_pos_site_id
_symmetry_equiv_pos_as_xyz
1 x,y,z
2 -x,-y,z
3 1/2+x,1/2-y,-z
4 1/2-x,1/2+y,-z
5 -x,-y,-z
6 x,y,-z
7 1/2-x,1/2+y,z
8 1/2+x,1/2-y,z
_cell_length_a                   8.7669(8)
_cell_length_b                   10.0331(10)
_cell_length_c                   10.8764(10)
_cell_angle_alpha                90
_cell_angle_beta                 90
_cell_angle_gamma                90
_cell_volume                     956.679
_exptl_crystal_colour            colorless
_exptl_crystal_description       block
_cell_formula_units_Z            2
loop_
_atom_site_label
_atom_site_type_symbol
_atom_site_fract_x
_atom_site_fract_y
_atom_site_fract_z
C1 C 0.0609(10) 0.4484(8) 0.1800(4)
H1 H 0.0497 0.3914 0.1085
H2 H 0.1602 0.4908 0.1759
C2 C 0.1609(7) 0.2745(9) 0.2828(6)
H3 H 0.2615 0.3146 0.2838
H4 H 0.1504 0.2225 0.2081
C3 C 0.1382(9) 0.1840(7) 0.3982(9)
H5 H 0.0369 0.1451 0.3974
H6 H 0.2125 0.1124 0.3981
O1 O 0.0500(5) 0.3715(5) 0.2882(3)
O2 O 0.1563(7) 0.2613(7) 0.5000
C1A C -0.0609(10) 0.5516(8) 0.1800(4)
H1A H -0.0497 0.6086 0.1085
H2A H -0.1602 0.5092 0.1759
C2A C -0.1609(7) 0.7255(9) 0.2828(6)
H3A H -0.2615 0.6854 0.2838
H4A H -0.1504 0.7775 0.2081
C3A C -0.1382(9) 0.8160(7) 0.3982(9)
H5A H -0.0369 0.8549 0.3974
H6A H -0.2125 0.8876 0.3981
O1A O -0.0500(5) 0.6285(5) 0.2882(3)
O2A O -0.1563(7) 0.7387(7) 0.5000
C1E C 0.0609(10) 0.4484(8) 0.8200(4)
H1E H 0.0497 0.3914 0.8915
H2E H 0.1602 0.4908 0.8241
C2E C 0.1609(7) 0.2745(9) 0.7172(6)
H3E H 0.2615 0.3146 0.7162
H4E H 0.1504 0.2225 0.7919
C3E C 0.1382(9) 0.1840(7) 0.6018(9)
H5E H 0.0369 0.1451 0.6026
H6E H 0.2125 0.1124 0.6019
O1E O 0.0500(5) 0.3715(5) 0.7118(3)
C1D C -0.0609(10) 0.5516(8) 0.8200(4)
H1D H -0.0497 0.6086 0.8915
H2D H -0.1602 0.5092 0.8241
C2D C -0.1609(7) 0.7255(9) 0.7172(6)
H3D H -0.2615 0.6854 0.7162
H4D H -0.1504 0.7775 0.7919
C3D C -0.1382(9) 0.8160(7) 0.6018(9)
H5D H -0.0369 0.8549 0.6026
H6D H -0.2125 0.8876 0.6019
O1D O -0.0500(5) 0.6285(5) 0.7118(3)
F1 F 0.5000 0.5000 0.1453(4)
F2 F 0.4099(6) 0.3651(4) 0.0000
F3 F 0.3451(4) 0.5797(5) 0.0000
P1 P 0.5000 0.5000 0.0000
F2A F 0.5901(6) 0.6349(4) 0.0000
F3A F 0.6549(4) 0.4203(5) 0.0000
F1D F 0.5000 0.5000 -0.1453(4)
O3 O 0.0000 0.5000 0.5000
loop_
_geom_bond_atom_site_label_1
_geom_bond_atom_site_label_2
_geom_bond_site_symmetry_1
_geom_bond_site_symmetry_2
C1 H1 1_555 1_555
H2 C1 1_555 1_555
C2 H3 1_555 1_555
H4 C2 1_555 1_555
C3 C2 1_555 1_555
H5 C3 1_555 1_555
H6 C3 1_555 1_555
O1 C1 1_555 1_555
O2 C3 1_555 1_555
F1 P1 1_555 1_555
F2 P1 1_555 1_555
F3 P1 1_555 1_555
P1 F2A 1_555 1_555
C1A C1 1_555 1_555
H1A C1A 1_555 1_555
H2A C1A 1_555 1_555
C2A H3A 1_555 1_555
H4A C2A 1_555 1_555
C3A C2A 1_555 1_555
H5A C3A 1_555 1_555
H6A C3A 1_555 1_555
O1A C1A 1_555 1_555
O2A C3A 1_555 1_555
C1E H1E 1_555 1_555
H2E C1E 1_555 1_555
C2E H3E 1_555 1_555
H4E C2E 1_555 1_555
C3E O2 1_555 1_555
H5E C3E 1_555 1_555
H6E C3E 1_555 1_555
O1E C1E 1_555 1_555
C1D C1E 1_555 1_555
H1D C1D 1_555 1_555
H2D C1D 1_555 1_555
C2D H3D 1_555 1_555
H4D C2D 1_555 1_555
C3D O2A 1_555 1_555
H5D C3D 1_555 1_555
H6D C3D 1_555 1_555
O1D C1D 1_555 1_555
F3A P1 1_555 1_555
F1D P1 1_555 1_555
C2 O1 1_555 1_555
C2A O1A 1_555 1_555
C2E C3E 1_555 1_555
C2E O1E 1_555 1_555
C2D C3D 1_555 1_555
C2D O1D 1_555 1_555

#END
