
#######################################################################
#
#                 Cambridge Crystallographic Data Centre
#                                CCDC 
#
#######################################################################
#
# If this CIF has been generated from an entry in the Cambridge 
# Structural Database, then it will include bibliographic, chemical, 
# crystal, experimental, refinement or atomic coordinate data resulting 
# from the CCDC's data processing and validation procedures.
#
#######################################################################

data_FEMNIX01
_chemical_formula_moiety         'C12 H24 O6,F6 P1 1-,H3 O1 1+'
_chemical_name_systematic        'oxonium hexafluorophosphate 18-crown-6'
_symmetry_cell_setting           orthorhombic
_symmetry_space_group_name_H-M   'P n m a'
_symmetry_Int_Tables_number      62
_space_group_name_Hall           '-P 2ac 2n'
loop_
_symmetry_equiv_pos_site_id
_symmetry_equiv_pos_as_xyz
1 x,y,z
2 1/2-x,-y,1/2+z
3 1/2+x,1/2-y,1/2-z
4 -x,1/2+y,-z
5 -x,-y,-z
6 1/2+x,y,1/2-z
7 1/2-x,1/2+y,1/2+z
8 x,1/2-y,z
_cell_length_a                   8.6457(3)
_cell_length_b                   43.3551(18)
_cell_length_c                   10.1885(4)
_cell_angle_alpha                90
_cell_angle_beta                 90
_cell_angle_gamma                90
_cell_volume                     3819.01
_exptl_crystal_colour            colorless
_exptl_crystal_description       block
_cell_formula_units_Z            8
loop_
_atom_site_label
_atom_site_type_symbol
_atom_site_fract_x
_atom_site_fract_y
_atom_site_fract_z
C1 C 1.0883(11) 0.7765(3) 0.8339(8)
H1 H 1.1558 0.7768 0.9100
H2 H 0.9820 0.7772 0.8642
C2 C 1.1227(10) 0.8045(2) 0.7447(11)
H3 H 1.1125 0.8235 0.7943
H4 H 1.2277 0.8032 0.7116
C3 C 1.0479(12) 0.82964(19) 0.5587(10)
H5 H 1.1506 0.8280 0.5209
H6 H 1.0428 0.8487 0.6086
C4 C 0.9329(12) 0.83013(19) 0.4550(10)
H7 H 0.8318 0.8342 0.4924
H8 H 0.9572 0.8468 0.3948
C5 C 0.8101(9) 0.8041(2) 0.2918(8)
H9 H 0.8190 0.8228 0.2404
H10 H 0.7094 0.8038 0.3337
C6 C 0.8302(9) 0.77637(19) 0.2060(7)
H11 H 0.7550 0.7768 0.1354
H12 H 0.9328 0.7764 0.1675
O1 O 1.1133(9) 0.7500 0.7610(7)
O2 O 1.0211(5) 0.80437(12) 0.6433(6)
O3 O 0.9288(6) 0.80283(10) 0.3865(5)
O4 O 0.8098(8) 0.7500 0.2803(6)
C1G C 1.0883(11) 0.7235(3) 0.8339(8)
H1G H 1.1558 0.7232 0.9100
H2G H 0.9820 0.7228 0.8642
C2G C 1.1227(10) 0.6955(2) 0.7447(11)
H3G H 1.1125 0.6765 0.7943
H4G H 1.2277 0.6968 0.7116
C3G C 1.0479(12) 0.67036(19) 0.5587(10)
H5G H 1.1506 0.6720 0.5209
H6G H 1.0428 0.6513 0.6086
C4G C 0.9329(12) 0.66987(19) 0.4550(10)
H7G H 0.8318 0.6658 0.4924
H8G H 0.9572 0.6532 0.3948
C5G C 0.8101(9) 0.6959(2) 0.2918(8)
H9G H 0.8190 0.6772 0.2404
H10G H 0.7094 0.6962 0.3337
C6G C 0.8302(9) 0.72363(19) 0.2060(7)
H11G H 0.7550 0.7232 0.1354
H12G H 0.9328 0.7236 0.1675
O2G O 1.0211(5) 0.69563(12) 0.6433(6)
O3G O 0.9288(6) 0.69717(10) 0.3865(5)
C7 C 1.0558(12) 0.9435(2) 0.7512(10)
H13 H 1.1208 0.9334 0.8157
H14 H 0.9524 0.9453 0.7874
C8 C 1.0513(13) 0.92598(18) 0.6370(10)
H15 H 1.0170 0.9052 0.6575
H16 H 1.1542 0.9247 0.5994
C9 C 0.9279(8) 0.92047(14) 0.4333(8)
H17 H 0.8818 0.9010 0.4599
H18 H 1.0277 0.9161 0.3938
C10 C 0.8269(8) 0.93602(16) 0.3372(7)
H19 H 0.8107 0.9228 0.2617
H20 H 0.7271 0.9403 0.3766
C11 C 0.8150(8) 0.97792(19) 0.1938(6)
H21 H 0.7077 0.9808 0.2190
H22 H 0.8179 0.9649 0.1164
C12 C 0.8864(8) 1.0079(2) 0.1649(6)
H23 H 0.9923 1.0049 0.1362
H24 H 0.8301 1.0181 0.0946
O5 O 0.9476(5) 0.93973(9) 0.5442(5)
O6 O 0.8975(4) 0.96371(10) 0.2974(4)
O7 O 0.8841(5) 1.02624(11) 0.2759(4)
C7D C 0.9442(12) 1.0565(2) 0.2488(10)
H13D H 0.8792 1.0666 0.1843
H14D H 1.0476 1.0547 0.2126
C8D C 0.9487(13) 1.07402(18) 0.3630(10)
H15D H 0.9830 1.0948 0.3425
H16D H 0.8458 1.0753 0.4006
C9D C 1.0721(8) 1.07953(14) 0.5667(8)
H17D H 1.1182 1.0990 0.5401
H18D H 0.9723 1.0839 0.6062
C10D C 1.1731(8) 1.06398(16) 0.6628(7)
H19D H 1.1893 1.0772 0.7383
H20D H 1.2729 1.0597 0.6234
C11D C 1.1850(8) 1.02208(19) 0.8062(6)
H21D H 1.2923 1.0192 0.7810
H22D H 1.1821 1.0351 0.8836
C12D C 1.1136(8) 0.9921(2) 0.8351(6)
H23D H 1.0077 0.9951 0.8638
H24D H 1.1699 0.9819 0.9054
O5D O 1.0524(5) 1.06027(9) 0.4558(5)
O6D O 1.1025(4) 1.03629(10) 0.7026(4)
O7D O 1.1159(5) 0.97376(11) 0.7241(4)
F1 F 1.1253(4) 0.87654(8) -0.0607(4)
F2 F 0.8764(5) 0.87550(8) -0.1165(3)
F3 F 0.9689(4) 0.83876(7) 0.0157(3)
F4 F 0.8077(4) 0.87432(7) 0.0947(4)
F5 F 1.0564(5) 0.87526(9) 0.1518(4)
F6 F 0.9625(4) 0.91190(7) 0.0209(3)
P1 P 0.96622(16) 0.87537(3) 0.01774(13)
O8 O 0.9743(8) 0.7500 0.5177(5)
O9 O 0.5000 1.0000 1.0000
loop_
_geom_bond_atom_site_label_1
_geom_bond_atom_site_label_2
_geom_bond_site_symmetry_1
_geom_bond_site_symmetry_2
C1 H1 1_555 1_555
H2 C1 1_555 1_555
C2 C1 1_555 1_555
H3 C2 1_555 1_555
H4 C2 1_555 1_555
C3 H5 1_555 1_555
H6 C3 1_555 1_555
C4 C3 1_555 1_555
H7 C4 1_555 1_555
H8 C4 1_555 1_555
C5 H9 1_555 1_555
H10 C5 1_555 1_555
C6 C5 1_555 1_555
H11 C6 1_555 1_555
H12 C6 1_555 1_555
O1 C1 1_555 1_555
O2 C2 1_555 1_555
O3 C4 1_555 1_555
O4 C6 1_555 1_555
C7 H13 1_555 1_555
H14 C7 1_555 1_555
C8 C7 1_555 1_555
H15 C8 1_555 1_555
H16 C8 1_555 1_555
C9 H17 1_555 1_555
H18 C9 1_555 1_555
C10 C9 1_555 1_555
H19 C10 1_555 1_555
H20 C10 1_555 1_555
C11 H21 1_555 1_555
H22 C11 1_555 1_555
C12 C11 1_555 1_555
H23 C12 1_555 1_555
H24 C12 1_555 1_555
O5 C8 1_555 1_555
O6 C10 1_555 1_555
O7 C12 1_555 1_555
F1 P1 1_555 1_555
F2 P1 1_555 1_555
F3 P1 1_555 1_555
F4 P1 1_555 1_555
F5 P1 1_555 1_555
F6 P1 1_555 1_555
C1G O1 1_555 1_555
H1G C1G 1_555 1_555
H2G C1G 1_555 1_555
C2G C1G 1_555 1_555
H3G C2G 1_555 1_555
H4G C2G 1_555 1_555
C3G H5G 1_555 1_555
H6G C3G 1_555 1_555
C4G C3G 1_555 1_555
H7G C4G 1_555 1_555
H8G C4G 1_555 1_555
C5G H9G 1_555 1_555
H10G C5G 1_555 1_555
C6G O4 1_555 1_555
H11G C6G 1_555 1_555
H12G C6G 1_555 1_555
O2G C2G 1_555 1_555
O3G C4G 1_555 1_555
C7D O7 1_555 1_555
H13D C7D 1_555 1_555
H14D C7D 1_555 1_555
C8D C7D 1_555 1_555
H15D C8D 1_555 1_555
H16D C8D 1_555 1_555
C9D H17D 1_555 1_555
H18D C9D 1_555 1_555
C10D C9D 1_555 1_555
H19D C10D 1_555 1_555
H20D C10D 1_555 1_555
C11D H21D 1_555 1_555
H22D C11D 1_555 1_555
C12D C11D 1_555 1_555
H23D C12D 1_555 1_555
H24D C12D 1_555 1_555
O5D C8D 1_555 1_555
O6D C10D 1_555 1_555
O7D C7 1_555 1_555
C3 O2 1_555 1_555
C5 O3 1_555 1_555
C9 O5 1_555 1_555
C11 O6 1_555 1_555
C3G O2G 1_555 1_555
C5G C6G 1_555 1_555
C5G O3G 1_555 1_555
C9D O5D 1_555 1_555
C11D O6D 1_555 1_555
C12D O7D 1_555 1_555

#END
