
#######################################################################
#
#                 Cambridge Crystallographic Data Centre
#                                CCDC 
#
#######################################################################
#
# If this CIF has been generated from an entry in the Cambridge 
# Structural Database, then it will include bibliographic, chemical, 
# crystal, experimental, refinement or atomic coordinate data resulting 
# from the CCDC's data processing and validation procedures.
#
#######################################################################

data_FEMTIA
_chemical_compound_source        'Neorautanenia mitis'
_chemical_name_common            Neotenone
_chemical_formula_moiety         'C19 H14 O6'
_chemical_name_systematic        
2'-Methoxy-4',5'-methylenedioxy-2,3-dihydrofuro(3'',2''-6,7)-isoflavone
_chemical_properties_biological  'insectidal and acaricidal activity'
_symmetry_cell_setting           monoclinic
_symmetry_space_group_name_H-M   'P 21'
_symmetry_Int_Tables_number      4
_space_group_name_Hall           'P 2yb'
loop_
_symmetry_equiv_pos_site_id
_symmetry_equiv_pos_as_xyz
1 x,y,z
2 -x,1/2+y,-z
_cell_length_a                   10.151(4)
_cell_length_b                   15.209(4)
_cell_length_c                   4.959(1)
_cell_angle_alpha                90
_cell_angle_beta                 98.54(2)
_cell_angle_gamma                90
_cell_volume                     757.114
_exptl_crystal_colour            'light yellow-green'
_chemical_melting_point          152deg.C
_cell_formula_units_Z            2
loop_
_atom_site_label
_atom_site_type_symbol
_atom_site_fract_x
_atom_site_fract_y
_atom_site_fract_z
O1 O 0.5404(2) 0.2695 0.5414(4)
C1 C 0.6439(3) 0.2857(3) 0.7666(6)
C2 C 0.7826(2) 0.2745(2) 0.6883(5)
C3 C 0.7941(3) 0.1806(2) 0.5911(5)
C4 C 0.6825(3) 0.0746(2) 0.2521(6)
C5 C 0.5734(3) 0.0475(2) 0.0703(6)
C6 C 0.4557(3) 0.0955(2) 0.0614(5)
C7 C 0.4400(3) 0.1679(3) 0.2192(6)
C8 C 0.5522(3) 0.1952(2) 0.3945(5)
C9 C 0.6737(3) 0.1483(2) 0.4139(5)
C10 C 0.5437(4) -0.0220(3) -0.1292(7)
C11 C 0.4170(4) -0.0113(3) -0.2372(7)
O2 O 0.3583(2) 0.0598(2) -0.1271(4)
O3 O 0.8936(2) 0.1351(2) 0.6378(4)
C12 C 0.8895(3) 0.3062(2) 0.9115(5)
C13 C 0.9607(3) 0.2484(2) 1.1018(6)
C14 C 1.0580(2) 0.2836(2) 1.2927(5)
O4 O 1.1484(2) 0.2396(2) 1.4826(4)
C15 C 1.2143(3) 0.3069(3) 1.6497(6)
O5 O 1.1891(2) 0.3886(2) 1.5089(5)
C16 C 1.0837(3) 0.3718(2) 1.3059(5)
C17 C 1.0150(3) 0.4314(2) 1.1301(6)
C18 C 0.9168(3) 0.3965(2) 0.9315(6)
O6 O 0.8411(2) 0.4479(2) 0.7412(4)
C19 C 0.8804(4) 0.5381(3) 0.7218(9)
loop_
_geom_bond_atom_site_label_1
_geom_bond_atom_site_label_2
_geom_bond_site_symmetry_1
_geom_bond_site_symmetry_2
O1 C1 1_555 1_555
C1 C2 1_555 1_555
C2 C3 1_555 1_555
C3 C9 1_555 1_555
C4 C5 1_555 1_555
C5 C6 1_555 1_555
C6 C7 1_555 1_555
C7 C8 1_555 1_555
C8 O1 1_555 1_555
C9 C4 1_555 1_555
C10 C5 1_555 1_555
C11 C10 1_555 1_555
O2 C6 1_555 1_555
O3 C3 1_555 1_555
C12 C2 1_555 1_555
C13 C12 1_555 1_555
C14 C13 1_555 1_555
O4 C14 1_555 1_555
C15 O4 1_555 1_555
O5 C15 1_555 1_555
C16 C14 1_555 1_555
C17 C16 1_555 1_555
C18 C12 1_555 1_555
O6 C18 1_555 1_555
C19 O6 1_555 1_555
C8 C9 1_555 1_555
C11 O2 1_555 1_555
O5 C16 1_555 1_555
C17 C18 1_555 1_555

#END
