
#######################################################################
#
#                 Cambridge Crystallographic Data Centre
#                                CCDC 
#
#######################################################################
#
# If this CIF has been generated from an entry in the Cambridge 
# Structural Database, then it will include bibliographic, chemical, 
# crystal, experimental, refinement or atomic coordinate data resulting 
# from the CCDC's data processing and validation procedures.
#
#######################################################################

data_FENHUD
_chemical_compound_source        
'leaves of Eucalyptus robusta Smith (Myrtaceae)'
_chemical_name_common            'Euglobal BI-1'
_chemical_formula_moiety         'C23 H30 O5'
_chemical_name_systematic        
5',7'-Dihydroxy-4'-isobutyl-5-isopropyl-3',4'-dihydrospiro[bicyclo[3.1.0]hexane-2,2'-chromene]-6',8'-dicarbaldehyde
_symmetry_cell_setting           triclinic
_symmetry_space_group_name_H-M   'P -1'
_symmetry_Int_Tables_number      2
_space_group_name_Hall           '-P 1'
loop_
_symmetry_equiv_pos_site_id
_symmetry_equiv_pos_as_xyz
1 x,y,z
2 -x,-y,-z
_cell_length_a                   10.6479(5)
_cell_length_b                   13.4389(7)
_cell_length_c                   16.2500(5)
_cell_angle_alpha                67.880(4)
_cell_angle_beta                 79.841(3)
_cell_angle_gamma                72.756(4)
_cell_volume                     2051.82
_exptl_crystal_colour            yellow
_cell_formula_units_Z            4
loop_
_atom_site_label
_atom_site_type_symbol
_atom_site_fract_x
_atom_site_fract_y
_atom_site_fract_z
O1 O 0.86493(10) 0.34044(8) 0.43966(7)
O2 O 0.49388(13) 0.63515(9) 0.34033(8)
H1 H 0.5522 0.6683 0.3248
O3 O 0.72480(15) 0.66263(10) 0.32058(9)
O4 O 0.44481(12) 0.26894(10) 0.47944(9)
H2 H 0.3687 0.3028 0.4674
C1 C 0.52048(16) 0.34053(13) 0.45360(10)
C2 C 0.46282(15) 0.45498(13) 0.41183(10)
C3 C 0.54654(16) 0.52661(12) 0.38074(9)
C4 C 0.65458(15) 0.29680(12) 0.46792(9)
C5 C 0.68208(16) 0.48678(12) 0.39130(9)
C6 C 0.73361(15) 0.37103(12) 0.43526(9)
C7 C 0.92527(15) 0.23016(12) 0.50163(10)
C8 C 0.71060(15) 0.17296(12) 0.51025(10)
H3 H 0.6804 0.1378 0.4771
O5 O 0.24637(13) 0.43483(13) 0.42661(10)
C9 C 0.92015(15) 0.23300(12) 0.59407(10)
H4 H 0.8407 0.2233 0.6339
C10 C 0.76526(19) 0.56199(14) 0.36071(11)
H5 H 0.8541 0.5338 0.3715
C11 C 1.00591(16) 0.29538(13) 0.60859(12)
H6 H 1.0474 0.3421 0.5564
H7 H 0.9795 0.3233 0.6577
C12 C 0.67281(16) 0.00205(13) 0.64567(11)
H8 H 0.7662 -0.0345 0.6375
C13 C 0.65673(16) 0.12659(12) 0.60789(10)
H9 H 0.7008 0.1464 0.6447
H10 H 0.5636 0.1629 0.6125
C14 C 1.07289(16) 0.20731(15) 0.47189(11)
H11 H 1.0929 0.1674 0.4305
H12 H 1.0997 0.2762 0.4433
C15 C 1.05374(15) 0.17183(13) 0.63072(11)
C16 C 0.86129(15) 0.14635(13) 0.49488(10)
H13 H 0.8977 0.0743 0.5380
H14 H 0.8855 0.1405 0.4362
C17 C 1.06720(18) 0.09666(14) 0.72675(12)
H15 H 1.0051 0.1358 0.7635
C18 C 0.32374(18) 0.49458(16) 0.40149(12)
H16 H 0.2897 0.5704 0.3740
C19 C 0.6325(2) -0.03316(16) 0.74477(12)
H17 H 0.6881 -0.0146 0.7744
H18 H 0.6416 -0.1118 0.7684
H19 H 0.5424 0.0048 0.7543
C20 C 0.5935(2) -0.03560(18) 0.59993(14)
H20 H 0.5015 -0.0019 0.6085
H21 H 0.6088 -0.1149 0.6249
H22 H 0.6199 -0.0140 0.5374
C21 C 1.14273(16) 0.13712(15) 0.55712(11)
H23 H 1.1546 0.0587 0.5687
H24 H 1.2285 0.1511 0.5524
C22 C 1.0308(2) -0.01131(17) 0.74545(15)
H25 H 0.9423 0.0047 0.7298
H26 H 1.0367 -0.0548 0.8076
H27 H 1.0904 -0.0521 0.7107
C23 C 1.2052(2) 0.07423(19) 0.75494(16)
H28 H 1.2682 0.0321 0.7226
H29 H 1.2080 0.0330 0.8176
H30 H 1.2262 0.1435 0.7423
O6 O 0.76891(11) 0.69372(9) -0.01929(7)
O7 O 1.01231(12) 0.53915(11) -0.23332(7)
H31 H 1.0101 0.6049 -0.2600
O8 O 0.87108(12) 0.30599(9) 0.04629(8)
H32 H 0.9150 0.2596 0.0243
C24 C 0.81841(14) 0.60123(12) -0.04070(10)
C25 C 0.80343(14) 0.49781(12) 0.01565(10)
C26 C 0.94127(15) 0.42000(14) -0.09617(11)
C27 C 0.94779(15) 0.52685(14) -0.15272(10)
C28 C 0.72691(15) 0.47933(12) 0.10578(9)
H33 H 0.7866 0.4220 0.1496
C29 C 0.89123(14) 0.61847(13) -0.12516(10)
C30 C 0.87181(15) 0.40779(13) -0.01166(10)
O9 O 0.96778(14) 0.74482(11) -0.25604(8)
C31 C 0.53041(15) 0.72138(12) 0.01560(10)
H34 H 0.4991 0.6609 0.0133
C32 C 0.69353(15) 0.58504(12) 0.12943(10)
H35 H 0.6184 0.5835 0.1730
H36 H 0.7675 0.5836 0.1575
C33 C 0.66214(15) 0.69408(12) 0.05172(10)
C34 C 0.90849(17) 0.72598(15) -0.18116(11)
H37 H 0.8732 0.7848 -0.1601
C35 C 0.51086(16) 0.83961(13) 0.10220(11)
H38 H 0.4898 0.8059 0.1655
H39 H 0.4899 0.9195 0.0871
C36 C 0.60673(15) 0.43414(13) 0.11232(10)
H40 H 0.5361 0.4952 0.0821
H41 H 0.6308 0.3815 0.0811
C37 C 0.55485(17) 0.37743(14) 0.20699(10)
H42 H 0.5501 0.4242 0.2420
C38 C 0.43449(15) 0.80928(12) 0.04824(10)
C39 C 0.48053(18) 0.83704(14) -0.04844(11)
H43 H 0.5415 0.8841 -0.0719
H44 H 0.4181 0.8476 -0.0897
C40 C 0.65630(16) 0.79457(14) 0.07760(12)
H45 H 0.7085 0.7720 0.1278
H46 H 0.6895 0.8505 0.0280
C41 C 0.29220(16) 0.80681(14) 0.07635(11)
H47 H 0.2633 0.7803 0.0361
C42 C 1.00812(17) 0.32353(17) -0.12037(14)
H48 H 1.0507 0.3346 -0.1770
C43 C 0.4166(2) 0.36615(18) 0.20775(15)
H49 H 0.3581 0.4386 0.1853
H50 H 0.3864 0.3284 0.2676
H51 H 0.4181 0.3244 0.1708
C44 C 0.20450(19) 0.92276(17) 0.06578(15)
H52 H 0.2265 0.9495 0.1071
H53 H 0.1138 0.9200 0.0775
H54 H 0.2180 0.9718 0.0061
C45 C 0.6459(2) 0.26433(17) 0.25075(14)
H55 H 0.6556 0.2183 0.2158
H56 H 0.6091 0.2301 0.3095
H57 H 0.7307 0.2732 0.2546
C46 C 0.27613(19) 0.72603(18) 0.17032(13)
H58 H 0.3331 0.6541 0.1748
H59 H 0.1862 0.7210 0.1836
H60 H 0.2989 0.7519 0.2119
O10 O 1.01231(13) 0.22770(11) -0.07074(10)
loop_
_geom_bond_atom_site_label_1
_geom_bond_atom_site_label_2
_geom_bond_site_symmetry_1
_geom_bond_site_symmetry_2
O1 C6 1_555 1_555
O2 H1 1_555 1_555
O3 C10 1_555 1_555
O4 H2 1_555 1_555
C1 O4 1_555 1_555
C2 C1 1_555 1_555
C3 O2 1_555 1_555
C4 C1 1_555 1_555
C5 C3 1_555 1_555
C6 C4 1_555 1_555
C7 O1 1_555 1_555
C8 C4 1_555 1_555
H3 C8 1_555 1_555
O5 C18 1_555 1_555
C9 C7 1_555 1_555
H4 C9 1_555 1_555
C10 C5 1_555 1_555
H5 C10 1_555 1_555
C11 C9 1_555 1_555
H6 C11 1_555 1_555
H7 C11 1_555 1_555
C12 H8 1_555 1_555
C13 C8 1_555 1_555
H9 C13 1_555 1_555
H10 C13 1_555 1_555
C14 C7 1_555 1_555
H11 C14 1_555 1_555
H12 C14 1_555 1_555
C15 C9 1_555 1_555
C16 C7 1_555 1_555
H13 C16 1_555 1_555
H14 C16 1_555 1_555
C17 C15 1_555 1_555
H15 C17 1_555 1_555
C18 C2 1_555 1_555
H16 C18 1_555 1_555
C19 C12 1_555 1_555
H17 C19 1_555 1_555
H18 C19 1_555 1_555
H19 C19 1_555 1_555
C20 C12 1_555 1_555
H20 C20 1_555 1_555
H21 C20 1_555 1_555
H22 C20 1_555 1_555
C21 C14 1_555 1_555
H23 C21 1_555 1_555
H24 C21 1_555 1_555
C22 C17 1_555 1_555
H25 C22 1_555 1_555
H26 C22 1_555 1_555
H27 C22 1_555 1_555
C23 C17 1_555 1_555
H28 C23 1_555 1_555
H29 C23 1_555 1_555
H30 C23 1_555 1_555
O6 C24 1_555 1_555
O7 H31 1_555 1_555
O8 H32 1_555 1_555
C24 C25 1_555 1_555
C25 C28 1_555 1_555
C26 C27 1_555 1_555
C27 O7 1_555 1_555
C28 H33 1_555 1_555
C29 C24 1_555 1_555
C30 O8 1_555 1_555
O9 C34 1_555 1_555
C31 H34 1_555 1_555
C32 C28 1_555 1_555
H35 C32 1_555 1_555
H36 C32 1_555 1_555
C33 O6 1_555 1_555
C34 C29 1_555 1_555
H37 C34 1_555 1_555
C35 H38 1_555 1_555
H39 C35 1_555 1_555
C36 C28 1_555 1_555
H40 C36 1_555 1_555
H41 C36 1_555 1_555
C37 C36 1_555 1_555
H42 C37 1_555 1_555
C38 C31 1_555 1_555
C39 C31 1_555 1_555
H43 C39 1_555 1_555
H44 C39 1_555 1_555
C40 C33 1_555 1_555
H45 C40 1_555 1_555
H46 C40 1_555 1_555
C41 C38 1_555 1_555
H47 C41 1_555 1_555
C42 C26 1_555 1_555
H48 C42 1_555 1_555
C43 C37 1_555 1_555
H49 C43 1_555 1_555
H50 C43 1_555 1_555
H51 C43 1_555 1_555
C44 C41 1_555 1_555
H52 C44 1_555 1_555
H53 C44 1_555 1_555
H54 C44 1_555 1_555
C45 C37 1_555 1_555
H55 C45 1_555 1_555
H56 C45 1_555 1_555
H57 C45 1_555 1_555
C46 C41 1_555 1_555
H58 C46 1_555 1_555
H59 C46 1_555 1_555
H60 C46 1_555 1_555
O10 C42 1_555 1_555
C2 C3 1_555 1_555
C5 C6 1_555 1_555
C8 C16 1_555 1_555
C11 C15 1_555 1_555
C12 C13 1_555 1_555
C15 C21 1_555 1_555
C25 C30 1_555 1_555
C26 C30 1_555 1_555
C27 C29 1_555 1_555
C31 C33 1_555 1_555
C32 C33 1_555 1_555
C35 C38 1_555 1_555
C35 C40 1_555 1_555
C38 C39 1_555 1_555

#END
