
#######################################################################
#
#                 Cambridge Crystallographic Data Centre
#                                CCDC 
#
#######################################################################
#
# If this CIF has been generated from an entry in the Cambridge 
# Structural Database, then it will include bibliographic, chemical, 
# crystal, experimental, refinement or atomic coordinate data resulting 
# from the CCDC's data processing and validation procedures.
#
#######################################################################

data_FENQUN
_chemical_formula_moiety         'C22 H17 O3 P1'
_chemical_name_systematic        
3-(diphenylphosphoryl)-6-methyl-2H-chromen-2-one
_symmetry_cell_setting           monoclinic
_symmetry_space_group_name_H-M   'P 21/n'
_symmetry_Int_Tables_number      14
_space_group_name_Hall           '-P 2yn'
loop_
_symmetry_equiv_pos_site_id
_symmetry_equiv_pos_as_xyz
1 x,y,z
2 1/2-x,1/2+y,1/2-z
3 -x,-y,-z
4 1/2+x,1/2-y,1/2+z
_cell_length_a                   8.6045(3)
_cell_length_b                   21.7424(7)
_cell_length_c                   10.3736(4)
_cell_angle_alpha                90
_cell_angle_beta                 109.450(4)
_cell_angle_gamma                90
_cell_volume                     1829.97
_exptl_crystal_colour            colorless
_exptl_crystal_description       prism
_cell_formula_units_Z            4
loop_
_atom_site_label
_atom_site_type_symbol
_atom_site_fract_x
_atom_site_fract_y
_atom_site_fract_z
C1 C 0.1452(3) 0.33967(10) 0.7594(2)
C2 C 0.1216(2) 0.38376(8) 0.85710(19)
C3 C 0.0179(2) 0.43190(9) 0.8135(2)
H1 H 0.0055 0.4600 0.8770
C4 C -0.0735(3) 0.44050(10) 0.6710(2)
C5 C -0.0514(3) 0.39737(13) 0.5806(2)
C6 C -0.1339(4) 0.40204(18) 0.4422(3)
H2 H -0.1195 0.3726 0.3821
C7 C -0.2379(4) 0.45116(19) 0.3945(3)
H3 H -0.2942 0.4544 0.3012
C8 C -0.2616(3) 0.49605(15) 0.4814(3)
C9 C -0.1792(3) 0.48998(12) 0.6203(2)
H4 H -0.1945 0.5192 0.6804
C10 C -0.3730(4) 0.55046(18) 0.4261(3)
H5 H -0.3217 0.5776 0.3793
H6 H -0.3917 0.5721 0.5003
H7 H -0.4763 0.5363 0.3636
C11 C 0.1995(3) 0.30952(10) 1.1110(2)
C12 C 0.1721(8) 0.2523(3) 1.0500(8)
H8 H 0.1776 0.2468 0.9627
C13 C 0.1355(8) 0.2019(2) 1.1218(8)
H9 H 0.1236 0.1626 1.0843
C14 C 0.1176(6) 0.2116(3) 1.2492(7)
H10 H 0.0829 0.1794 1.2922
C15 C 0.1496(7) 0.2665(2) 1.3101(5)
H11 H 0.1470 0.2712 1.3985
C16 C 0.1868(6) 0.3166(2) 1.2429(4)
H12 H 0.2035 0.3551 1.2846
C17 C 0.4555(2) 0.37492(8) 1.03820(18)
C18 C 0.5647(3) 0.32896(9) 1.1050(2)
H13 H 0.5281 0.2960 1.1443
C19 C 0.7278(3) 0.33236(10) 1.1128(2)
H14 H 0.8010 0.3015 1.1573
C20 C 0.7829(3) 0.38138(11) 1.0549(2)
H15 H 0.8936 0.3841 1.0629
C21 C 0.6741(3) 0.42626(10) 0.9853(2)
H16 H 0.7108 0.4587 0.9446
C22 C 0.5110(3) 0.42287(9) 0.9761(2)
H17 H 0.4374 0.4529 0.9280
O1 O 0.21331(18) 0.43442(6) 1.10741(14)
O2 O 0.2390(2) 0.29685(8) 0.78717(19)
O3 O 0.0535(2) 0.34812(9) 0.62427(17)
P1 P 0.24523(6) 0.37911(2) 1.03617(5)
C23? C 0.111(3) 0.2649(10) 1.035(3)
H18? H 0.0751 0.2685 0.9398
C24? C 0.072(3) 0.2145(10) 1.092(3)
H19? H -0.0114 0.1891 1.0383
C25? C 0.152(2) 0.1989(10) 1.225(3)
H20? H 0.1556 0.1593 1.2605
C26? C 0.224(2) 0.2497(8) 1.3003(18)
H21? H 0.2511 0.2479 1.3947
C27? C 0.260(2) 0.3028(7) 1.2446(13)
H22? H 0.3248 0.3333 1.2997
loop_
_geom_bond_atom_site_label_1
_geom_bond_atom_site_label_2
_geom_bond_site_symmetry_1
_geom_bond_site_symmetry_2
C1 C2 1_555 1_555
C2 C3 1_555 1_555
C3 H1 1_555 1_555
C4 C3 1_555 1_555
C5 C4 1_555 1_555
C6 C5 1_555 1_555
H2 C6 1_555 1_555
C7 C6 1_555 1_555
H3 C7 1_555 1_555
C8 C7 1_555 1_555
C9 C4 1_555 1_555
H4 C9 1_555 1_555
C10 C8 1_555 1_555
H5 C10 1_555 1_555
H6 C10 1_555 1_555
H7 C10 1_555 1_555
C11 C12 1_555 1_555
C12 H8 1_555 1_555
C13 C12 1_555 1_555
H9 C13 1_555 1_555
C14 C13 1_555 1_555
H10 C14 1_555 1_555
C15 C14 1_555 1_555
H11 C15 1_555 1_555
C16 C11 1_555 1_555
H12 C16 1_555 1_555
C17 C18 1_555 1_555
C18 H13 1_555 1_555
C19 C18 1_555 1_555
H14 C19 1_555 1_555
C20 C19 1_555 1_555
H15 C20 1_555 1_555
C21 C20 1_555 1_555
H16 C21 1_555 1_555
C22 C17 1_555 1_555
H17 C22 1_555 1_555
O1 P1 1_555 1_555
O2 C1 1_555 1_555
O3 C1 1_555 1_555
P1 C2 1_555 1_555
C5 O3 1_555 1_555
C8 C9 1_555 1_555
C11 P1 1_555 1_555
C15 C16 1_555 1_555
C17 P1 1_555 1_555
C21 C22 1_555 1_555

#END
