
#######################################################################
#
#                 Cambridge Crystallographic Data Centre
#                                CCDC 
#
#######################################################################
#
# If this CIF has been generated from an entry in the Cambridge 
# Structural Database, then it will include bibliographic, chemical, 
# crystal, experimental, refinement or atomic coordinate data resulting 
# from the CCDC's data processing and validation procedures.
#
#######################################################################

data_FEPBAG
_chemical_formula_moiety         'C25 H27 Cl1 O6 S2'
_chemical_name_systematic        
1-(chloro((4-methylphenyl)sulfonyl)methylidene)-2-((4-methylphenyl)sulfonyl)-7,10-dioxadispiro[2.2.4^6^.2^3^]dodecane
_symmetry_cell_setting           triclinic
_symmetry_space_group_name_H-M   'P -1'
_symmetry_Int_Tables_number      2
_space_group_name_Hall           '-P 1'
loop_
_symmetry_equiv_pos_site_id
_symmetry_equiv_pos_as_xyz
1 x,y,z
2 -x,-y,-z
_cell_length_a                   8.9599(12)
_cell_length_b                   12.0232(17)
_cell_length_c                   13.1879(18)
_cell_angle_alpha                115.061(2)
_cell_angle_beta                 90.697(2)
_cell_angle_gamma                106.200(2)
_cell_volume                     1221.89
_exptl_crystal_colour            colorless
_exptl_crystal_description       block
_cell_formula_units_Z            2
loop_
_atom_site_label
_atom_site_type_symbol
_atom_site_fract_x
_atom_site_fract_y
_atom_site_fract_z
S1 S 0.22638(8) 0.34653(6) 0.29504(5)
Cl1 Cl 0.46233(8) 0.32741(6) 0.43689(6)
S2 S -0.13600(8) 0.23366(7) 0.45460(6)
O1 O 0.3516(2) 0.44211(17) 0.28161(16)
O2 O 0.0712(2) 0.35874(18) 0.29644(15)
O3 O 0.3155(2) 0.3795(2) 0.87546(16)
O4 O 0.0682(2) 0.3569(2) 0.92572(16)
C1 C 0.1655(3) 0.3582(3) 0.6134(2)
O5 O -0.0885(2) 0.1253(2) 0.38198(17)
C2 C 0.2234(3) 0.1937(2) 0.1897(2)
C3 C 0.2407(3) 0.4831(3) 0.7204(2)
H1 H 0.2348 0.5578 0.7085
H2 H 0.3528 0.4936 0.7385
C4 C 0.2787(3) 0.3447(2) 0.4240(2)
C5 C 0.1589(3) 0.2379(3) 0.6269(2)
H3 H 0.2668 0.2330 0.6337
H4 H 0.0967 0.1607 0.5582
C6 C -0.2446(3) 0.1889(3) 0.5495(2)
C7 C 0.1533(4) 0.4784(3) 0.8188(2)
H5 H 0.2032 0.5589 0.8888
H6 H 0.0430 0.4734 0.8021
C8 C -0.3086(3) 0.2745(3) 0.6285(2)
H7 H -0.2935 0.3577 0.6325
C9 C 0.0347(3) 0.3643(3) 0.5388(2)
H8 H 0.0213 0.4517 0.5661
C10 C 0.1558(3) 0.3637(3) 0.8376(2)
C11 C 0.0851(4) 0.2362(3) 0.7315(2)
H9 H -0.0295 0.2191 0.7166
H10 H 0.1017 0.1650 0.7446
C12 C 0.3400(3) 0.1866(3) 0.1221(2)
H11 H 0.4221 0.2625 0.1336
C13 C -0.4175(4) 0.1168(3) 0.6973(3)
C14 C -0.3950(4) 0.2380(3) 0.7018(2)
H12 H -0.4395 0.2966 0.7560
O6 O -0.2247(2) 0.2864(2) 0.40598(18)
C15 C 0.2183(3) -0.0452(3) 0.0208(2)
C16 C 0.3359(4) 0.0673(3) 0.0370(2)
H13 H 0.4146 0.0623 -0.0109
C17 C 0.1892(3) 0.3583(2) 0.5036(2)
C18 C 0.1057(4) 0.0830(3) 0.1763(3)
H14 H 0.0266 0.0886 0.2238
C19 C -0.2662(4) 0.0673(3) 0.5425(3)
H15 H -0.2224 0.0086 0.4878
C20 C 0.1052(4) -0.0355(3) 0.0925(3)
H16 H 0.0261 -0.1117 0.0838
C21 C -0.3527(4) 0.0326(3) 0.6167(3)
H17 H -0.3680 -0.0509 0.6123
C22 C -0.5114(5) 0.0783(4) 0.7783(3)
H18 H -0.4663 0.1423 0.8563
H19 H -0.5082 -0.0068 0.7675
H20 H -0.6207 0.0744 0.7635
C23 C 0.2174(4) -0.1743(3) -0.0708(3)
H21 H 0.2952 -0.2040 -0.0454
H22 H 0.2436 -0.1656 -0.1395
H23 H 0.1128 -0.2374 -0.0870
C24 C 0.1791(4) 0.4105(4) 1.0254(3)
H24 H 0.1386 0.3749 1.0786
H25 H 0.2074 0.5059 1.0644
C25 C 0.3165(4) 0.3679(4) 0.9781(3)
H26 H 0.4160 0.4248 1.0301
H27 H 0.3017 0.2775 0.9638
loop_
_geom_bond_atom_site_label_1
_geom_bond_atom_site_label_2
_geom_bond_site_symmetry_1
_geom_bond_site_symmetry_2
S1 O1 1_555 1_555
Cl1 C4 1_555 1_555
S2 O5 1_555 1_555
O2 S1 1_555 1_555
O3 C10 1_555 1_555
O4 C10 1_555 1_555
C1 C3 1_555 1_555
C2 S1 1_555 1_555
C3 H1 1_555 1_555
H2 C3 1_555 1_555
C4 S1 1_555 1_555
C5 C1 1_555 1_555
H3 C5 1_555 1_555
H4 C5 1_555 1_555
C6 S2 1_555 1_555
C7 C3 1_555 1_555
H5 C7 1_555 1_555
H6 C7 1_555 1_555
C8 C6 1_555 1_555
H7 C8 1_555 1_555
C9 S2 1_555 1_555
H8 C9 1_555 1_555
C10 C7 1_555 1_555
C11 C5 1_555 1_555
H9 C11 1_555 1_555
H10 C11 1_555 1_555
C12 C2 1_555 1_555
H11 C12 1_555 1_555
C13 C14 1_555 1_555
C14 C8 1_555 1_555
H12 C14 1_555 1_555
O6 S2 1_555 1_555
C15 C16 1_555 1_555
C16 C12 1_555 1_555
H13 C16 1_555 1_555
C17 C1 1_555 1_555
C18 C2 1_555 1_555
H14 C18 1_555 1_555
C19 C6 1_555 1_555
H15 C19 1_555 1_555
C20 C15 1_555 1_555
H16 C20 1_555 1_555
C21 C13 1_555 1_555
H17 C21 1_555 1_555
C22 C13 1_555 1_555
H18 C22 1_555 1_555
H19 C22 1_555 1_555
H20 C22 1_555 1_555
C23 C15 1_555 1_555
H21 C23 1_555 1_555
H22 C23 1_555 1_555
H23 C23 1_555 1_555
C24 O4 1_555 1_555
H24 C24 1_555 1_555
H25 C24 1_555 1_555
C25 O3 1_555 1_555
H26 C25 1_555 1_555
H27 C25 1_555 1_555
C1 C9 1_555 1_555
C4 C17 1_555 1_555
C9 C17 1_555 1_555
C10 C11 1_555 1_555
C18 C20 1_555 1_555
C19 C21 1_555 1_555
C24 C25 1_555 1_555

#END
