
#######################################################################
#
#                 Cambridge Crystallographic Data Centre
#                                CCDC 
#
#######################################################################
#
# If this CIF has been generated from an entry in the Cambridge 
# Structural Database, then it will include bibliographic, chemical, 
# crystal, experimental, refinement or atomic coordinate data resulting 
# from the CCDC's data processing and validation procedures.
#
#######################################################################

data_FEPDIQ
_chemical_compound_source        
'Saxifraga umbellulata var. pectinata (Saxifragaceae)'
_chemical_name_common            
'(3R,16R,20S)-3,20-dihydroxy-11-oxo-cucurbita-5,24-diene-16-O-beta-N-acetyl-D-glucosamine dihydrate'
_chemical_formula_moiety         'C38 H61 N1 O9,2(H2 O1)'
_chemical_name_systematic        
'N-(2-((1,20-dihydroxy-9,10,14-trimethyl-11-oxo-4,9-cyclo-9,10-secocholesta-5,24-dien-16-yl)oxy)-4,5-dihydroxy-6-(hydroxymethyl)oxan-3-yl)acetamide dihydrate'
_symmetry_cell_setting           monoclinic
_symmetry_space_group_name_H-M   'P 21'
_symmetry_Int_Tables_number      4
_space_group_name_Hall           'P 2yb'
loop_
_symmetry_equiv_pos_site_id
_symmetry_equiv_pos_as_xyz
1 x,y,z
2 -x,1/2+y,-z
_cell_length_a                   12.9698(4)
_cell_length_b                   10.0309(3)
_cell_length_c                   15.1751(4)
_cell_angle_alpha                90
_cell_angle_beta                 106.685(2)
_cell_angle_gamma                90
_cell_volume                     1891.14
_exptl_crystal_colour            colorless
_exptl_crystal_description       column
_cell_formula_units_Z            2
loop_
_atom_site_label
_atom_site_type_symbol
_atom_site_fract_x
_atom_site_fract_y
_atom_site_fract_z
O1 O 0.2075(4) -0.1183(4) 0.2915(2)
H1 H 0.1746 -0.0476 0.2855
O2 O 0.3610(4) 0.4257(4) 0.4924(3)
O3 O 0.2520(2) 0.2034(3) 0.88980(19)
O4 O 0.2112(3) 0.2514(3) 1.0219(2)
O5 O 0.1541(4) 0.4626(4) 1.1258(3)
H2 H 0.1561 0.4690 1.0725
O6 O 0.0770(3) 0.0654(4) 1.1663(2)
H3 H 0.0137 0.0679 1.1355
O7 O 0.1285(3) -0.1396(4) 1.0478(3)
H4 H 0.1211 -0.1520 1.0991
O8 O 0.2834(3) -0.1526(4) 0.8714(3)
O9 O 0.2892(3) 0.5805(3) 0.8558(2)
H5 H 0.3144 0.6559 0.8598
N1 N 0.1334(3) -0.0416(4) 0.8721(3)
H6 H 0.0666 -0.0284 0.8436
C1 C 0.3087(5) 0.1373(6) 0.3876(4)
H7 H 0.2436 0.1493 0.3372
H8 H 0.3551 0.2133 0.3883
C2 C 0.3653(5) 0.0112(6) 0.3717(4)
H9 H 0.4335 0.0034 0.4191
H10 H 0.3804 0.0174 0.3128
C3 C 0.2985(4) -0.1127(6) 0.3726(3)
H11 H 0.3440 -0.1900 0.3707
C4 C 0.2630(4) -0.1246(6) 0.4601(3)
C5 C 0.2141(4) 0.0064(5) 0.4809(3)
C6 C 0.1215(4) 0.0103(6) 0.5014(3)
H12 H 0.0824 -0.0685 0.4961
C7 C 0.0752(4) 0.1317(6) 0.5323(3)
H13 H 0.0464 0.1069 0.5823
H14 H 0.0156 0.1628 0.4819
C8 C 0.1544(3) 0.2480(5) 0.5647(3)
H15 H 0.1097 0.3284 0.5558
C9 C 0.2275(4) 0.2653(5) 0.5006(3)
C10 C 0.2792(4) 0.1323(5) 0.4792(3)
H16 H 0.3472 0.1218 0.5279
C11 C 0.3231(4) 0.3586(5) 0.5409(3)
C12 C 0.3761(4) 0.3624(6) 0.6449(3)
H17 H 0.4233 0.4391 0.6609
H18 H 0.4187 0.2826 0.6644
C13 C 0.2871(4) 0.3713(5) 0.6936(3)
C14 C 0.2155(3) 0.2449(5) 0.6692(3)
C15 C 0.1432(4) 0.2592(5) 0.7328(3)
H19 H 0.1123 0.1740 0.7418
H20 H 0.0856 0.3223 0.7079
C16 C 0.2212(4) 0.3113(5) 0.8244(3)
H21 H 0.1870 0.3830 0.8497
C17 C 0.3237(4) 0.3641(5) 0.8023(3)
H22 H 0.3770 0.2923 0.8188
C18 C 0.1878(5) -0.2434(6) 0.4509(4)
H23 H 0.1230 -0.2269 0.4024
H24 H 0.1706 -0.2565 0.5077
H25 H 0.2225 -0.3217 0.4368
C19 C 0.3650(5) -0.1571(6) 0.5414(4)
H26 H 0.3956 -0.2398 0.5294
H27 H 0.3450 -0.1645 0.5975
H28 H 0.4169 -0.0870 0.5474
C20 C 0.1566(5) 0.3293(6) 0.4100(3)
H29 H 0.1988 0.3414 0.3680
H30 H 0.1303 0.4141 0.4234
H31 H 0.0968 0.2717 0.3826
C21 C 0.2248(4) 0.5014(5) 0.6613(3)
H32 H 0.2030 0.5048 0.5953
H33 H 0.2703 0.5763 0.6854
H34 H 0.1623 0.5042 0.6831
C22 C 0.2787(4) 0.1136(5) 0.6966(3)
H35 H 0.3156 0.1150 0.7612
H36 H 0.3302 0.1045 0.6624
H37 H 0.2296 0.0397 0.6831
C23 C 0.3735(4) 0.4843(5) 0.8627(3)
C24 C 0.4657(4) 0.5507(6) 0.8335(4)
H38 H 0.4396 0.5793 0.7707
H39 H 0.5231 0.4878 0.8395
H40 H 0.4919 0.6264 0.8722
C25 C 0.4138(4) 0.4394(5) 0.9633(3)
H41 H 0.3538 0.4003 0.9803
H42 H 0.4670 0.3699 0.9679
C26 C 0.4635(4) 0.5485(6) 1.0333(3)
H43 H 0.5374 0.5636 1.0333
H44 H 0.4240 0.6310 1.0153
C27 C 0.4613(4) 0.5111(7) 1.1283(4)
H45 H 0.4946 0.4309 1.1507
C28 C 0.4187(4) 0.5763(6) 1.1841(3)
C29 C 0.3664(5) 0.7082(7) 1.1634(4)
H46 H 0.3687 0.7371 1.1037
H47 H 0.4036 0.7715 1.2089
H48 H 0.2928 0.7016 1.1642
C30 C 0.4195(5) 0.5216(8) 1.2771(4)
H49 H 0.4551 0.4366 1.2864
H50 H 0.3468 0.5112 1.2796
H51 H 0.4571 0.5823 1.3244
C31 C 0.1772(4) 0.1780(5) 0.9377(3)
H52 H 0.1050 0.2060 0.9016
C32 C 0.1792(4) 0.0285(5) 0.9584(3)
H53 H 0.2538 -0.0003 0.9854
C33 C 0.1143(4) -0.0019(5) 1.0253(3)
H54 H 0.0381 0.0129 0.9931
C34 C 0.1446(4) 0.0886(5) 1.1081(3)
H55 H 0.2190 0.0689 1.1433
C35 C 0.1392(4) 0.2329(5) 1.0766(3)
H56 H 0.0655 0.2551 1.0406
C36 C 0.1775(5) 0.3300(6) 1.1563(3)
H57 H 0.1423 0.3099 1.2031
H58 H 0.2545 0.3201 1.1835
C37 C 0.1887(4) -0.1248(5) 0.8344(4)
C38 C 0.1264(5) -0.1840(7) 0.7442(4)
H59 H 0.1724 -0.2417 0.7219
H60 H 0.0999 -0.1139 0.7005
H61 H 0.0668 -0.2344 0.7523
O10 O 0.1366(3) 0.6078(4) 0.9528(3)
H62 H 0.1809 0.6029 0.9211
H63 H 0.1378 0.6916 0.9615
O11 O 0.0777(4) 0.6746(8) 0.1987(4)
H64 H 0.1015 0.6073 0.1768
H65 H 0.1051 0.7094 0.2513
loop_
_geom_bond_atom_site_label_1
_geom_bond_atom_site_label_2
_geom_bond_site_symmetry_1
_geom_bond_site_symmetry_2
O1 H1 1_555 1_555
O2 C11 1_555 1_555
O3 C16 1_555 1_555
O4 C31 1_555 1_555
O5 H2 1_555 1_555
O6 H3 1_555 1_555
O7 H4 1_555 1_555
O8 C37 1_555 1_555
O9 H5 1_555 1_555
N1 H6 1_555 1_555
C1 H7 1_555 1_555
H8 C1 1_555 1_555
C2 C1 1_555 1_555
H9 C2 1_555 1_555
H10 C2 1_555 1_555
C3 O1 1_555 1_555
H11 C3 1_555 1_555
C4 C3 1_555 1_555
C5 C4 1_555 1_555
C6 C5 1_555 1_555
H12 C6 1_555 1_555
C7 C6 1_555 1_555
H13 C7 1_555 1_555
H14 C7 1_555 1_555
C8 C7 1_555 1_555
H15 C8 1_555 1_555
C9 C8 1_555 1_555
C10 C1 1_555 1_555
H16 C10 1_555 1_555
C11 C9 1_555 1_555
C12 C11 1_555 1_555
H17 C12 1_555 1_555
H18 C12 1_555 1_555
C13 C12 1_555 1_555
C14 C8 1_555 1_555
C15 C14 1_555 1_555
H19 C15 1_555 1_555
H20 C15 1_555 1_555
C16 C15 1_555 1_555
H21 C16 1_555 1_555
C17 C13 1_555 1_555
H22 C17 1_555 1_555
C18 C4 1_555 1_555
H23 C18 1_555 1_555
H24 C18 1_555 1_555
H25 C18 1_555 1_555
C19 C4 1_555 1_555
H26 C19 1_555 1_555
H27 C19 1_555 1_555
H28 C19 1_555 1_555
C20 C9 1_555 1_555
H29 C20 1_555 1_555
H30 C20 1_555 1_555
H31 C20 1_555 1_555
C21 C13 1_555 1_555
H32 C21 1_555 1_555
H33 C21 1_555 1_555
H34 C21 1_555 1_555
C22 C14 1_555 1_555
H35 C22 1_555 1_555
H36 C22 1_555 1_555
H37 C22 1_555 1_555
C23 O9 1_555 1_555
C24 C23 1_555 1_555
H38 C24 1_555 1_555
H39 C24 1_555 1_555
H40 C24 1_555 1_555
C25 C23 1_555 1_555
H41 C25 1_555 1_555
H42 C25 1_555 1_555
C26 C25 1_555 1_555
H43 C26 1_555 1_555
H44 C26 1_555 1_555
C27 C26 1_555 1_555
H45 C27 1_555 1_555
C28 C27 1_555 1_555
C29 C28 1_555 1_555
H46 C29 1_555 1_555
H47 C29 1_555 1_555
H48 C29 1_555 1_555
C30 C28 1_555 1_555
H49 C30 1_555 1_555
H50 C30 1_555 1_555
H51 C30 1_555 1_555
C31 O3 1_555 1_555
H52 C31 1_555 1_555
C32 N1 1_555 1_555
H53 C32 1_555 1_555
C33 O7 1_555 1_555
H54 C33 1_555 1_555
C34 O6 1_555 1_555
H55 C34 1_555 1_555
C35 O4 1_555 1_555
H56 C35 1_555 1_555
C36 O5 1_555 1_555
H57 C36 1_555 1_555
H58 C36 1_555 1_555
C37 N1 1_555 1_555
C38 C37 1_555 1_555
H59 C38 1_555 1_555
H60 C38 1_555 1_555
H61 C38 1_555 1_555
O10 H62 1_555 1_555
H63 O10 1_555 1_555
O11 H64 1_555 1_555
H65 O11 1_555 1_555
C2 C3 1_555 1_555
C5 C10 1_555 1_555
C9 C10 1_555 1_555
C13 C14 1_555 1_555
C16 C17 1_555 1_555
C17 C23 1_555 1_555
C31 C32 1_555 1_555
C32 C33 1_555 1_555
C33 C34 1_555 1_555
C34 C35 1_555 1_555
C35 C36 1_555 1_555

#END
