
#######################################################################
#
#                 Cambridge Crystallographic Data Centre
#                                CCDC 
#
#######################################################################
#
# If this CIF has been generated from an entry in the Cambridge 
# Structural Database, then it will include bibliographic, chemical, 
# crystal, experimental, refinement or atomic coordinate data resulting 
# from the CCDC's data processing and validation procedures.
#
#######################################################################

data_FEPDEM
_chemical_compound_source        
'Saxifraga umbellulata var. pectinata (Saxifragaceae)'
_chemical_name_common            
'(2S,3S,15R,22R)-2,15,22-trihydroxy-11,16-dioxo-cucurbita-5,24-diene-3-O-beta-D-xylopyranose hemihydrate'
_chemical_formula_moiety         'C35 H52 O10,0.5(H2 O1)'
_chemical_name_systematic        
'2,15,22-trihydroxy-9,10,14-trimethyl-1-[(3,4,5-trihydroxyoxan-2-yl)oxy]-4,9-cyclo-9,10-secocholesta-5,17,24-triene-11,16-dione hemihydrate'
_symmetry_cell_setting           monoclinic
_symmetry_space_group_name_H-M   'P 21'
_symmetry_Int_Tables_number      4
_space_group_name_Hall           'P 2yb'
loop_
_symmetry_equiv_pos_site_id
_symmetry_equiv_pos_as_xyz
1 x,y,z
2 -x,1/2+y,-z
_cell_length_a                   6.8468(14)
_cell_length_b                   21.674(4)
_cell_length_c                   11.271(2)
_cell_angle_alpha                90
_cell_angle_beta                 98.79(3)
_cell_angle_gamma                90
_cell_volume                     1652.94
_exptl_crystal_colour            colorless
_exptl_crystal_description       column
_cell_formula_units_Z            2
loop_
_atom_site_label
_atom_site_type_symbol
_atom_site_fract_x
_atom_site_fract_y
_atom_site_fract_z
O1 O 0.4541(3) 0.15633(10) 0.64920(18)
H1 H 0.3782 0.1555 0.5855
O2 O 0.5410(3) 0.22271(8) 0.44993(15)
O3 O 0.6620(5) 0.25803(11) 1.0446(2)
O4 O 1.1640(5) 0.54533(11) 1.0473(3)
O5 O 1.3028(4) 0.46002(13) 0.9000(2)
H2 H 1.3716 0.4902 0.9212
O6 O 0.6843(4) 0.60037(12) 1.16004(19)
H3 H 0.6353 0.6116 1.2185
O7 O 0.6610(3) 0.17675(10) 0.29616(16)
O8 O 0.4419(3) 0.06447(9) 0.07040(16)
H4 H 0.4041 0.0747 0.0006
O9 O 0.1070(3) 0.10438(11) 0.1791(2)
H5 H 0.0931 0.0763 0.1297
O10 O 0.2083(3) 0.14736(12) 0.41629(19)
H6 H 0.0905 0.1474 0.3883
C1 C 0.5342(4) 0.16879(12) 0.3828(2)
H7 H 0.5779 0.1337 0.4349
C2 C 0.6869(4) 0.21499(13) 0.7819(2)
H8 H 0.7824 0.1818 0.7843
H9 H 0.6090 0.2082 0.8457
C3 C 0.3220(4) 0.15944(13) 0.3233(2)
H10 H 0.2741 0.1975 0.2816
C4 C 0.5532(4) 0.21483(13) 0.6619(2)
H11 H 0.4555 0.2480 0.6601
C5 C 0.6744(4) 0.22429(11) 0.5615(2)
H12 H 0.7691 0.1903 0.5627
C6 C 0.3064(4) 0.10716(13) 0.2340(2)
H13 H 0.3406 0.0685 0.2773
C7 C 0.7881(4) 0.28585(12) 0.5723(2)
C8 C 0.4491(4) 0.11740(12) 0.1460(2)
H14 H 0.4103 0.1542 0.0974
C9 C 0.9080(4) 0.29030(11) 0.6990(2)
C10 C 0.6553(4) 0.12577(15) 0.2143(2)
H15 H 0.6960 0.0884 0.2586
H16 H 0.7469 0.1332 0.1582
C11 C 1.0951(4) 0.30869(14) 0.7167(3)
H17 H 1.1556 0.3150 0.6492
C12 C 1.2160(4) 0.32002(16) 0.8366(3)
H18 H 1.2961 0.3565 0.8312
H19 H 1.3052 0.2855 0.8558
C13 C 1.0967(4) 0.32883(13) 0.9394(2)
H20 H 1.1871 0.3173 1.0120
C14 C 0.9234(4) 0.28128(12) 0.9313(2)
C15 C 0.7961(4) 0.27719(11) 0.8017(2)
H21 H 0.6939 0.3091 0.7986
C16 C 0.7691(5) 0.29738(13) 1.0126(2)
C17 C 0.7387(4) 0.36388(14) 1.0496(3)
H22 H 0.6724 0.3643 1.1197
H23 H 0.6547 0.3850 0.9851
C18 C 0.9364(4) 0.39812(12) 1.0782(2)
C19 C 1.0351(4) 0.39574(12) 0.9614(2)
C20 C 1.2083(4) 0.44043(14) 0.9945(3)
H24 H 1.3063 0.4208 1.0553
C21 C 1.1109(4) 0.49299(13) 1.0535(2)
C22 C 0.9415(4) 0.46740(12) 1.1074(2)
C23 C 1.0583(6) 0.36630(15) 1.1892(2)
H25 H 0.9889 0.3698 1.2568
H26 H 1.1849 0.3860 1.2077
H27 H 1.0764 0.3235 1.1717
C24 C 1.0151(6) 0.21799(15) 0.9700(3)
H28 H 1.0919 0.2215 1.0485
H29 H 1.0986 0.2049 0.9138
H30 H 0.9116 0.1883 0.9720
C25 C 0.8314(4) 0.49975(13) 1.1745(2)
C26 C 0.6676(5) 0.47238(19) 1.2321(3)
H31 H 0.6927 0.4361 1.2486
H32 H 0.5433 0.4778 1.1806
H33 H 0.6627 0.4924 1.3076
C27 C 0.8649(4) 0.56834(13) 1.1997(2)
H34 H 0.9653 0.5832 1.1532
C28 C 0.9373(4) 0.58088(13) 1.3330(2)
H35 H 0.9522 0.6250 1.3450
H36 H 0.8376 0.5668 1.3793
C29 C 1.1285(4) 0.55028(15) 1.3796(3)
H37 H 1.2339 0.5592 1.3393
C30 C 1.1656(5) 0.51198(15) 1.4715(3)
C31 C 1.0198(7) 0.4924(2) 1.5507(4)
H38 H 0.8944 0.5115 1.5235
H39 H 1.0663 0.5050 1.6318
H40 H 1.0054 0.4484 1.5475
C32 C 1.3673(7) 0.4847(2) 1.5048(4)
H41 H 1.4521 0.4996 1.4506
H42 H 1.3588 0.4406 1.4997
H43 H 1.4205 0.4966 1.5853
C33 C 0.9176(5) 0.28746(17) 0.4730(3)
H44 H 1.0096 0.2538 0.4836
H45 H 0.9888 0.3258 0.4768
H46 H 0.8356 0.2839 0.3962
C34 C 0.6431(5) 0.34051(14) 0.5530(3)
H47 H 0.5598 0.3401 0.6142
H48 H 0.5630 0.3370 0.4756
H49 H 0.7160 0.3785 0.5572
C35 C 0.8999(4) 0.42428(12) 0.8538(2)
H50 H 0.9637 0.4221 0.7838
H51 H 0.8739 0.4666 0.8710
H52 H 0.7775 0.4019 0.8396
O11 O 0.4676(18) 0.3036(6) 1.2299(12)
loop_
_geom_bond_atom_site_label_1
_geom_bond_atom_site_label_2
_geom_bond_site_symmetry_1
_geom_bond_site_symmetry_2
O1 H1 1_555 1_555
O2 C1 1_555 1_555
O3 C16 1_555 1_555
O4 C21 1_555 1_555
O5 H2 1_555 1_555
O6 H3 1_555 1_555
O7 C1 1_555 1_555
O8 H4 1_555 1_555
O9 H5 1_555 1_555
O10 H6 1_555 1_555
C1 H7 1_555 1_555
C2 H8 1_555 1_555
H9 C2 1_555 1_555
C3 O10 1_555 1_555
H10 C3 1_555 1_555
C4 O1 1_555 1_555
H11 C4 1_555 1_555
C5 O2 1_555 1_555
H12 C5 1_555 1_555
C6 O9 1_555 1_555
H13 C6 1_555 1_555
C7 C5 1_555 1_555
C8 O8 1_555 1_555
H14 C8 1_555 1_555
C9 C7 1_555 1_555
C10 O7 1_555 1_555
H15 C10 1_555 1_555
H16 C10 1_555 1_555
C11 C9 1_555 1_555
H17 C11 1_555 1_555
C12 C11 1_555 1_555
H18 C12 1_555 1_555
H19 C12 1_555 1_555
C13 C12 1_555 1_555
H20 C13 1_555 1_555
C14 C13 1_555 1_555
C15 C2 1_555 1_555
H21 C15 1_555 1_555
C16 C14 1_555 1_555
C17 C16 1_555 1_555
H22 C17 1_555 1_555
H23 C17 1_555 1_555
C18 C17 1_555 1_555
C19 C13 1_555 1_555
C20 O5 1_555 1_555
H24 C20 1_555 1_555
C21 C20 1_555 1_555
C22 C18 1_555 1_555
C23 C18 1_555 1_555
H25 C23 1_555 1_555
H26 C23 1_555 1_555
H27 C23 1_555 1_555
C24 C14 1_555 1_555
H28 C24 1_555 1_555
H29 C24 1_555 1_555
H30 C24 1_555 1_555
C25 C22 1_555 1_555
C26 C25 1_555 1_555
H31 C26 1_555 1_555
H32 C26 1_555 1_555
H33 C26 1_555 1_555
C27 O6 1_555 1_555
H34 C27 1_555 1_555
C28 C27 1_555 1_555
H35 C28 1_555 1_555
H36 C28 1_555 1_555
C29 C28 1_555 1_555
H37 C29 1_555 1_555
C30 C29 1_555 1_555
C31 C30 1_555 1_555
H38 C31 1_555 1_555
H39 C31 1_555 1_555
H40 C31 1_555 1_555
C32 C30 1_555 1_555
H41 C32 1_555 1_555
H42 C32 1_555 1_555
H43 C32 1_555 1_555
C33 C7 1_555 1_555
H44 C33 1_555 1_555
H45 C33 1_555 1_555
H46 C33 1_555 1_555
C34 C7 1_555 1_555
H47 C34 1_555 1_555
H48 C34 1_555 1_555
H49 C34 1_555 1_555
C35 C19 1_555 1_555
H50 C35 1_555 1_555
H51 C35 1_555 1_555
H52 C35 1_555 1_555
C1 C3 1_555 1_555
C2 C4 1_555 1_555
C3 C6 1_555 1_555
C4 C5 1_555 1_555
C6 C8 1_555 1_555
C8 C10 1_555 1_555
C9 C15 1_555 1_555
C14 C15 1_555 1_555
C18 C19 1_555 1_555
C19 C20 1_555 1_555
C21 C22 1_555 1_555
C25 C27 1_555 1_555

#END
