
#######################################################################
#
#                 Cambridge Crystallographic Data Centre
#                                CCDC 
#
#######################################################################
#
# If this CIF has been generated from an entry in the Cambridge 
# Structural Database, then it will include bibliographic, chemical, 
# crystal, experimental, refinement or atomic coordinate data resulting 
# from the CCDC's data processing and validation procedures.
#
#######################################################################

data_FEPQOJ
_chemical_compound_source        'Lycopodiastrum casuarinoides'
_chemical_name_common            'Lycocasuarine A monohydrate'
_chemical_formula_moiety         'C17 H24 N2 O3,H2 O1'
_chemical_name_systematic        
'5-(dimethylamino)-10-ethenyl-7-hydroxy-8-(hydroxymethyl)-7-methyl-1,5,6,7,8,9-hexahydro-2H-5,8-methanocyclohepta[b]pyridin-2-one monohydrate'
_chemical_properties_biological  
'tested for acetylcholinesterase inhibitory activity'
_symmetry_cell_setting           monoclinic
_symmetry_space_group_name_H-M   'P 21'
_symmetry_Int_Tables_number      4
_space_group_name_Hall           'P 2yb'
loop_
_symmetry_equiv_pos_site_id
_symmetry_equiv_pos_as_xyz
1 x,y,z
2 -x,1/2+y,-z
_cell_length_a                   8.1854(2)
_cell_length_b                   14.7099(4)
_cell_length_c                   14.4459(3)
_cell_angle_alpha                90
_cell_angle_beta                 101.0700(10)
_cell_angle_gamma                90
_cell_volume                     1707.01
_exptl_crystal_colour            colorless
_exptl_crystal_description       block
_cell_formula_units_Z            4
loop_
_atom_site_label
_atom_site_type_symbol
_atom_site_fract_x
_atom_site_fract_y
_atom_site_fract_z
O1 O 0.4653(2) 0.57777(13) 0.07017(12)
H1 H 0.5467 0.5644 0.0452
O2 O -0.0063(2) 0.21835(13) 0.25200(14)
O3 O 0.1596(2) 0.60488(13) 0.20264(12)
H2 H 0.2621 0.6160 0.2144
N1 N 0.0798(3) 0.33472(14) 0.16897(15)
H3 H 0.1836 0.3187 0.1907
N2 N -0.3032(2) 0.52891(15) -0.04230(14)
C1 C -0.1054(3) 0.43590(16) 0.07206(16)
C2 C 0.0528(3) 0.40851(17) 0.10966(17)
C3 C -0.0440(3) 0.28383(17) 0.19702(17)
C4 C 0.0129(3) 0.53515(17) -0.04181(16)
H4 H -0.0049 0.5938 -0.0772
C5 C -0.1304(3) 0.52374(17) 0.01439(16)
C6 C 0.2064(3) 0.45605(17) 0.09145(17)
H5 H 0.2640 0.4162 0.0527
H6 H 0.2831 0.4669 0.1523
C7 C -0.0952(3) 0.60185(17) 0.08658(17)
H7 H -0.1305 0.5847 0.1460
H8 H -0.1562 0.6574 0.0613
C8 C 0.0333(3) 0.46163(19) -0.11047(18)
H9 H 0.0226 0.4003 -0.0920
C9 C -0.2101(3) 0.31414(17) 0.15936(18)
H10 H -0.3020 0.2824 0.1752
C10 C 0.3163(3) 0.57704(18) -0.00001(17)
H11 H 0.3307 0.5351 -0.0515
H12 H 0.2961 0.6387 -0.0272
C11 C 0.1653(3) 0.54721(16) 0.04038(17)
C12 C -0.2377(3) 0.38753(17) 0.10139(17)
H13 H -0.3490 0.4073 0.0796
C13 C -0.3503(3) 0.4516(2) -0.10652(18)
H14 H -0.2940 0.4569 -0.1603
H15 H -0.4711 0.4518 -0.1291
H16 H -0.3171 0.3947 -0.0729
C14 C 0.1286(3) 0.71728(18) 0.0790(2)
H17 H 0.0736 0.7585 0.1167
H18 H 0.0843 0.7275 0.0118
H19 H 0.2487 0.7289 0.0923
C15 C 0.0958(3) 0.61862(17) 0.10426(16)
C16 C 0.0655(3) 0.4773(2) -0.19577(19)
H20 H 0.0769 0.5379 -0.2162
H21 H 0.0772 0.4278 -0.2363
C17 C -0.3346(3) 0.6127(2) -0.09902(19)
H22 H -0.3186 0.6657 -0.0571
H23 H -0.4491 0.6121 -0.1349
H24 H -0.2568 0.6159 -0.1427
O4 O 0.5926(2) 0.78054(12) 0.74883(13)
O5 O 0.6639(2) 0.61987(13) 0.39092(13)
H25 H 0.7530 0.6294 0.3717
O6 O 1.0342(2) 0.49792(14) 0.45899(14)
H26 H 1.1297 0.4786 0.4824
N3 N 0.6798(3) 0.66708(14) 0.66246(14)
H27 H 0.7825 0.6870 0.6798
N4 N 0.3258(3) 0.41879(15) 0.53052(16)
C18 C 0.5561(3) 0.71377(17) 0.69502(17)
C19 C 0.6552(3) 0.59219(16) 0.60529(16)
C20 C 0.5000(3) 0.55486(17) 0.58025(17)
C21 C 0.3911(3) 0.67972(18) 0.66125(18)
H28 H 0.2983 0.7109 0.6768
C22 C 0.8034(3) 0.55768(17) 0.56902(17)
H29 H 0.8848 0.5318 0.6221
H30 H 0.8576 0.6091 0.5425
C23 C 0.6411(3) 0.52368(18) 0.40064(17)
C24 C 0.4745(3) 0.47128(17) 0.51604(18)
C25 C 0.7551(3) 0.48471(17) 0.49272(18)
C26 C 0.6684(3) 0.47602(19) 0.31021(18)
H31 H 0.5884 0.4994 0.2562
H32 H 0.6522 0.4104 0.3160
H33 H 0.7819 0.4878 0.3008
C27 C 0.9125(3) 0.43542(18) 0.47876(19)
H34 H 0.9589 0.4006 0.5365
H35 H 0.8842 0.3918 0.4259
C28 C 0.7036(3) 0.3767(2) 0.6235(2)
H36 H 0.7085 0.4153 0.6767
C29 C 0.3270(4) 0.3927(2) 0.6298(2)
H37 H 0.4139 0.3472 0.6499
H38 H 0.2184 0.3672 0.6348
H39 H 0.3493 0.4465 0.6702
C30 C 0.3657(3) 0.60308(18) 0.60710(17)
H40 H 0.2554 0.5813 0.5868
C31 C 0.6372(3) 0.41577(17) 0.52764(18)
H41 H 0.6181 0.3643 0.4816
C32 C 0.4593(3) 0.50746(18) 0.41434(17)
H42 H 0.3951 0.5649 0.4061
H43 H 0.4027 0.4624 0.3682
C33 C 0.2996(3) 0.33374(18) 0.4744(2)
H44 H 0.2973 0.3477 0.4078
H45 H 0.1936 0.3061 0.4811
H46 H 0.3907 0.2913 0.4971
C34 C 0.7556(4) 0.2924(2) 0.6384(2)
H47 H 0.7524 0.2521 0.5867
H48 H 0.7964 0.2718 0.7009
O7 O 0.9726(3) 0.64283(16) 0.34731(16)
H49 H 1.0097 0.5973 0.3812
H50 H 1.007(6) 0.637(3) 0.2916(19)
O8 O 0.4668(3) 0.68609(16) 0.22752(16)
H51 H 0.5070 0.6595 0.1847
H52 H 0.5169 0.6677 0.2813
loop_
_geom_bond_atom_site_label_1
_geom_bond_atom_site_label_2
_geom_bond_site_symmetry_1
_geom_bond_site_symmetry_2
O1 H1 1_555 1_555
O2 C3 1_555 1_555
O3 H2 1_555 1_555
N1 H3 1_555 1_555
N2 C5 1_555 1_555
C1 C2 1_555 1_555
C2 N1 1_555 1_555
C3 N1 1_555 1_555
C4 H4 1_555 1_555
C5 C1 1_555 1_555
C6 C2 1_555 1_555
H5 C6 1_555 1_555
H6 C6 1_555 1_555
C7 C5 1_555 1_555
H7 C7 1_555 1_555
H8 C7 1_555 1_555
C8 C4 1_555 1_555
H9 C8 1_555 1_555
C9 C3 1_555 1_555
H10 C9 1_555 1_555
C10 O1 1_555 1_555
H11 C10 1_555 1_555
H12 C10 1_555 1_555
C11 C4 1_555 1_555
C12 C1 1_555 1_555
H13 C12 1_555 1_555
C13 N2 1_555 1_555
H14 C13 1_555 1_555
H15 C13 1_555 1_555
H16 C13 1_555 1_555
C14 H17 1_555 1_555
H18 C14 1_555 1_555
H19 C14 1_555 1_555
C15 O3 1_555 1_555
C16 C8 1_555 1_555
H20 C16 1_555 1_555
H21 C16 1_555 1_555
C17 N2 1_555 1_555
H22 C17 1_555 1_555
H23 C17 1_555 1_555
H24 C17 1_555 1_555
O4 C18 1_555 1_555
O5 H25 1_555 1_555
O6 H26 1_555 1_555
N3 H27 1_555 1_555
N4 C24 1_555 1_555
C18 N3 1_555 1_555
C19 N3 1_555 1_555
C20 C19 1_555 1_555
C21 C18 1_555 1_555
H28 C21 1_555 1_555
C22 C19 1_555 1_555
H29 C22 1_555 1_555
H30 C22 1_555 1_555
C23 O5 1_555 1_555
C24 C20 1_555 1_555
C25 C22 1_555 1_555
C26 C23 1_555 1_555
H31 C26 1_555 1_555
H32 C26 1_555 1_555
H33 C26 1_555 1_555
C27 O6 1_555 1_555
H34 C27 1_555 1_555
H35 C27 1_555 1_555
C28 H36 1_555 1_555
C29 N4 1_555 1_555
H37 C29 1_555 1_555
H38 C29 1_555 1_555
H39 C29 1_555 1_555
C30 C20 1_555 1_555
H40 C30 1_555 1_555
C31 C24 1_555 1_555
H41 C31 1_555 1_555
C32 C23 1_555 1_555
H42 C32 1_555 1_555
H43 C32 1_555 1_555
C33 N4 1_555 1_555
H44 C33 1_555 1_555
H45 C33 1_555 1_555
H46 C33 1_555 1_555
C34 C28 1_555 1_555
H47 C34 1_555 1_555
H48 C34 1_555 1_555
O7 H49 1_555 1_555
H50 O7 1_555 1_555
O8 H51 1_555 1_555
H52 O8 1_555 1_555
C4 C5 1_555 1_555
C6 C11 1_555 1_555
C7 C15 1_555 1_555
C9 C12 1_555 1_555
C10 C11 1_555 1_555
C11 C15 1_555 1_555
C14 C15 1_555 1_555
C21 C30 1_555 1_555
C23 C25 1_555 1_555
C24 C32 1_555 1_555
C25 C27 1_555 1_555
C25 C31 1_555 1_555
C28 C31 1_555 1_555

#END
