
#######################################################################
#
#                 Cambridge Crystallographic Data Centre
#                                CCDC 
#
#######################################################################
#
# If this CIF has been generated from an entry in the Cambridge 
# Structural Database, then it will include bibliographic, chemical, 
# crystal, experimental, refinement or atomic coordinate data resulting 
# from the CCDC's data processing and validation procedures.
#
#######################################################################

data_FEPROK
_chemical_formula_moiety         'C19 H32 O2,0.08(C1 H4 O1)'
_chemical_name_systematic        
'13-(hydroxymethyl)-13-methylpodocarp-8(14)-en-15-ol methanol solvate'
_symmetry_cell_setting           monoclinic
_symmetry_space_group_name_H-M   'I 2'
_symmetry_Int_Tables_number      5
_space_group_name_Hall           'I 2y'
loop_
_symmetry_equiv_pos_site_id
_symmetry_equiv_pos_as_xyz
1 x,y,z
2 -x,y,-z
3 1/2+x,1/2+y,1/2+z
4 1/2-x,1/2+y,1/2-z
_cell_length_a                   14.7969(4)
_cell_length_b                   14.3122(4)
_cell_length_c                   16.9032(4)
_cell_angle_alpha                90
_cell_angle_beta                 101.809(3)
_cell_angle_gamma                90
_cell_volume                     3503.93
_exptl_crystal_colour            colorless
_exptl_crystal_description       block
_cell_formula_units_Z            8
loop_
_atom_site_label
_atom_site_type_symbol
_atom_site_fract_x
_atom_site_fract_y
_atom_site_fract_z
O3 O 0.9503(6) -0.0848(5) 0.9287(3)
H33 H 1.0033 -0.1040 0.9437
O4 O 0.7018(6) 0.4157(4) 0.5161(4)
H34 H 0.6529 0.3870 0.5090
C20 C 0.7620(3) -0.0242(4) 0.6701(3)
H35 H 0.7014 0.0047 0.6584
H36 H 0.7678 -0.0623 0.6239
C21 C 0.7695(3) -0.0865(4) 0.7439(3)
H37 H 0.7604 -0.0493 0.7896
H38 H 0.7215 -0.1337 0.7336
C22 C 0.8630(4) -0.1334(4) 0.7641(3)
H39 H 0.8699 -0.1734 0.7194
H40 H 0.8655 -0.1728 0.8112
C23 C 0.9439(4) -0.0640(4) 0.7811(3)
C24 C 0.9337(3) 0.0065(4) 0.7100(3)
H41 H 0.9421 -0.0315 0.6638
C25 C 1.0117(4) 0.0783(5) 0.7201(5)
H42 H 1.0044 0.1230 0.7615
H43 H 1.0705 0.0469 0.7377
C26 C 1.0119(6) 0.1283(6) 0.6440(6)
H44 H 1.0349 0.0864 0.6075
H45 H 1.0545 0.1805 0.6552
C27 C 0.9151(6) 0.1661(4) 0.6003(4)
C28 C 0.8379(5) 0.0945(4) 0.5976(3)
H46 H 0.8502 0.0431 0.5630
C29 C 0.8354(3) 0.0516(3) 0.6820(2)
C30 C 0.7446(5) 0.1391(5) 0.5558(4)
H47 H 0.7013 0.0893 0.5363
H48 H 0.7202 0.1740 0.5960
C31 C 0.7492(10) 0.2029(6) 0.4866(4)
H49 H 0.6880 0.2268 0.4640
H50 H 0.7708 0.1685 0.4447
C32 C 0.8140(8) 0.2837(4) 0.5147(4)
C33 C 0.9040(6) 0.2475(5) 0.5678(5)
H51 H 0.9544 0.2878 0.5771
C34 C 0.7746(9) 0.3582(5) 0.5609(5)
H52 H 0.7514 0.3281 0.6042
H53 H 0.8248 0.3990 0.5859
C35 C 0.8331(13) 0.3336(8) 0.4394(8)
H54 H 0.7808 0.3264 0.3956
H55 H 0.8867 0.3069 0.4245
H56 H 0.8436 0.3989 0.4510
C36 C 0.9473(6) -0.0184(5) 0.8640(3)
H57 H 1.0014 0.0214 0.8767
H58 H 0.8933 0.0210 0.8608
C37 C 1.0315(5) -0.1232(6) 0.7852(6)
H59 H 1.0289 -0.1769 0.8188
H60 H 1.0848 -0.0865 0.8077
H61 H 1.0353 -0.1433 0.7318
C38 C 0.8159(4) 0.1299(4) 0.7367(3)
H62 H 0.7506 0.1410 0.7275
H63 H 0.8467 0.1858 0.7252
H64 H 0.8381 0.1125 0.7921
O5 O 0.5000 0.159(2) 0.5000
C39 C 0.526(3) 0.194(4) 0.572(3)
C39A C 0.474(3) 0.194(4) 0.428(3)
O1 O 0.7740(3) 0.5712(3) 0.4581(3)
H1 H 0.7415 0.5246 0.4560
O2 O 0.5574(2) 1.0787(2) 0.07262(16)
H2 H 0.5998 1.0574 0.0535
C1 C 0.8052(2) 0.9000(3) 0.3963(2)
H3 H 0.8297 0.9296 0.3535
H4 H 0.8082 0.9451 0.4395
C2 C 0.8653(3) 0.8166(3) 0.4279(2)
H5 H 0.8658 0.7728 0.3842
H6 H 0.9281 0.8373 0.4483
C3 C 0.8287(3) 0.7687(3) 0.4948(2)
H7 H 0.8345 0.8114 0.5401
H8 H 0.8674 0.7149 0.5128
C4 C 0.7273(3) 0.7356(3) 0.4717(2)
C5 C 0.6662(2) 0.8170(3) 0.42918(19)
H9 H 0.6648 0.8623 0.4724
C6 C 0.5655(3) 0.7910(3) 0.3982(2)
H10 H 0.5433 0.7557 0.4394
H11 H 0.5605 0.7516 0.3508
C7 C 0.5057(3) 0.8779(3) 0.3764(2)
H12 H 0.4441 0.8588 0.3498
H13 H 0.5008 0.9104 0.4258
C8 C 0.5433(2) 0.9445(3) 0.32190(19)
C9 C 0.6454(2) 0.9667(2) 0.34790(18)
H14 H 0.6533 0.9989 0.4000
C10 C 0.7034(2) 0.8740(2) 0.36333(18)
C11 C 0.6797(3) 1.0341(3) 0.2897(2)
H15 H 0.7337 1.0672 0.3187
H16 H 0.6980 0.9985 0.2468
C12 C 0.6057(3) 1.1051(3) 0.2526(2)
H17 H 0.5904 1.1435 0.2954
H18 H 0.6304 1.1459 0.2164
C13 C 0.5182(3) 1.0586(3) 0.20615(19)
C14 C 0.4898(2) 0.9824(3) 0.2578(2)
H19 H 0.4295 0.9603 0.2433
C15 C 0.5330(3) 1.0130(3) 0.1286(2)
H20 H 0.5816 0.9666 0.1418
H21 H 0.4768 0.9809 0.1030
C16 C 0.4415(3) 1.1312(4) 0.1861(3)
H22 H 0.3870 1.1024 0.1552
H23 H 0.4610 1.1808 0.1552
H24 H 0.4284 1.1560 0.2353
C17 C 0.7209(3) 0.6463(3) 0.4175(3)
H25 H 0.6569 0.6271 0.4019
H26 H 0.7427 0.6611 0.3686
C18 C 0.6941(4) 0.7088(5) 0.5492(3)
H27 H 0.7373 0.6661 0.5804
H28 H 0.6346 0.6795 0.5351
H29 H 0.6897 0.7639 0.5805
C19 C 0.6954(2) 0.8207(3) 0.28349(17)
H30 H 0.7263 0.8551 0.2481
H31 H 0.6314 0.8135 0.2585
H32 H 0.7234 0.7603 0.2940
loop_
_geom_bond_atom_site_label_1
_geom_bond_atom_site_label_2
_geom_bond_site_symmetry_1
_geom_bond_site_symmetry_2
O1 H1 1_555 1_555
O2 H2 1_555 1_555
C1 H3 1_555 1_555
H4 C1 1_555 1_555
C2 C1 1_555 1_555
H5 C2 1_555 1_555
H6 C2 1_555 1_555
C3 C2 1_555 1_555
H7 C3 1_555 1_555
H8 C3 1_555 1_555
C4 C3 1_555 1_555
C5 C4 1_555 1_555
H9 C5 1_555 1_555
C6 C5 1_555 1_555
H10 C6 1_555 1_555
H11 C6 1_555 1_555
C7 C6 1_555 1_555
H12 C7 1_555 1_555
H13 C7 1_555 1_555
C8 C7 1_555 1_555
C9 C8 1_555 1_555
H14 C9 1_555 1_555
C10 C1 1_555 1_555
C11 C9 1_555 1_555
H15 C11 1_555 1_555
H16 C11 1_555 1_555
C12 C11 1_555 1_555
H17 C12 1_555 1_555
H18 C12 1_555 1_555
C13 C12 1_555 1_555
C14 C8 1_555 1_555
H19 C14 1_555 1_555
C15 O2 1_555 1_555
H20 C15 1_555 1_555
H21 C15 1_555 1_555
C16 C13 1_555 1_555
H22 C16 1_555 1_555
H23 C16 1_555 1_555
H24 C16 1_555 1_555
C17 O1 1_555 1_555
H25 C17 1_555 1_555
H26 C17 1_555 1_555
C18 C4 1_555 1_555
H27 C18 1_555 1_555
H28 C18 1_555 1_555
H29 C18 1_555 1_555
C19 C10 1_555 1_555
H30 C19 1_555 1_555
H31 C19 1_555 1_555
H32 C19 1_555 1_555
O3 H33 1_555 1_555
O4 H34 1_555 1_555
C20 H35 1_555 1_555
H36 C20 1_555 1_555
C21 C20 1_555 1_555
H37 C21 1_555 1_555
H38 C21 1_555 1_555
C22 C21 1_555 1_555
H39 C22 1_555 1_555
H40 C22 1_555 1_555
C23 C22 1_555 1_555
C24 C23 1_555 1_555
H41 C24 1_555 1_555
C25 C24 1_555 1_555
H42 C25 1_555 1_555
H43 C25 1_555 1_555
C26 C25 1_555 1_555
H44 C26 1_555 1_555
H45 C26 1_555 1_555
C27 C26 1_555 1_555
C28 C27 1_555 1_555
H46 C28 1_555 1_555
C29 C20 1_555 1_555
C30 C28 1_555 1_555
H47 C30 1_555 1_555
H48 C30 1_555 1_555
C31 C30 1_555 1_555
H49 C31 1_555 1_555
H50 C31 1_555 1_555
C32 C31 1_555 1_555
C33 C27 1_555 1_555
H51 C33 1_555 1_555
C34 O4 1_555 1_555
H52 C34 1_555 1_555
H53 C34 1_555 1_555
C35 C32 1_555 1_555
H54 C35 1_555 1_555
H55 C35 1_555 1_555
H56 C35 1_555 1_555
C36 O3 1_555 1_555
H57 C36 1_555 1_555
H58 C36 1_555 1_555
C37 C23 1_555 1_555
H59 C37 1_555 1_555
H60 C37 1_555 1_555
H61 C37 1_555 1_555
C38 C29 1_555 1_555
H62 C38 1_555 1_555
H63 C38 1_555 1_555
H64 C38 1_555 1_555
O5 C39 1_555 1_555
C39A O5 1_555 1_555
C4 C17 1_555 1_555
C5 C10 1_555 1_555
C9 C10 1_555 1_555
C13 C14 1_555 1_555
C13 C15 1_555 1_555
C23 C36 1_555 1_555
C24 C29 1_555 1_555
C28 C29 1_555 1_555
C32 C33 1_555 1_555
C32 C34 1_555 1_555

#END
