
#######################################################################
#
#                 Cambridge Crystallographic Data Centre
#                                CCDC 
#
#######################################################################
#
# If this CIF has been generated from an entry in the Cambridge 
# Structural Database, then it will include bibliographic, chemical, 
# crystal, experimental, refinement or atomic coordinate data resulting 
# from the CCDC's data processing and validation procedures.
#
#######################################################################

data_FEPZOP
_chemical_formula_moiety         'C36 H58 N2 O6'
_chemical_name_systematic        
N,N'-Di-n-butyl-29,30-dimethoxy-13,27-dimethyl-6,20-diaza-3,9,17,23-tetraoxatricyclo(23.3.1.1^11,15^)triaconta-1(29),11,13,15(30),25,27-hexaene
_symmetry_cell_setting           triclinic
_symmetry_space_group_name_H-M   'P 1'
_symmetry_Int_Tables_number      1
_space_group_name_Hall           'P 1'
loop_
_symmetry_equiv_pos_site_id
_symmetry_equiv_pos_as_xyz
1 x,y,z
_cell_length_a                   8.730(2)
_cell_length_b                   9.560(4)
_cell_length_c                   11.320(5)
_cell_angle_alpha                68.43(3)
_cell_angle_beta                 89.18(3)
_cell_angle_gamma                86.51(3)
_cell_volume                     876.929
_exptl_crystal_colour            colorless
_cell_formula_units_Z            1
loop_
_atom_site_label
_atom_site_type_symbol
_atom_site_fract_x
_atom_site_fract_y
_atom_site_fract_z
C1 C -0.0976(5) -0.2398(4) 0.0620(4)
C2 C -0.2554(8) -0.2312(6) 0.0187(8)
C3 C -0.3582(5) -0.3377(5) 0.1100(7)
C4 C -0.3084(5) -0.4275(5) 0.2194(5)
C5 C -0.1628(5) -0.4414(4) 0.2673(4)
C6 C -0.0482(5) -0.3404(4) 0.1842(4)
C7 C 0.1367(7) -0.2454(6) 0.2709(6)
C8 C -0.5159(7) -0.3270(6) 0.0591(6)
C9 C -0.1385(7) -0.3115(4) 0.7055(5)
C10 C 0.0043(5) -0.3082(4) 0.7428(3)
C11 C 0.1068(5) -0.2234(5) 0.6730(4)
C12 C 0.0597(6) -0.1127(4) 0.5467(5)
C13 C -0.0926(5) -0.1178(5) 0.5110(5)
C14 C -0.1876(4) -0.2092(6) 0.5879(5)
C15 C -0.3732(8) -0.3142(9) 0.4928(8)
C16 C 0.2767(7) -0.2185(9) 0.7151(8)
C17 C -0.0991(7) -0.5427(7) 0.3967(7)
C18 C -0.1587(6) -0.7534(5) 0.5716(7)
C19 C -0.2853(6) -0.8572(5) 0.6344(5)
C20 C -0.3240(9) -0.8010(5) 0.8242(4)
C21 C -0.3457(5) -0.6508(4) 0.8450(4)
C22 C -0.2527(5) -0.4187(5) 0.7919(4)
C23 C -0.5476(7) -0.8440(7) 0.7093(7)
C24 C -0.6297(9) -0.797(1) 0.5825(8)
C25 C -0.6529(7) -0.630(1) 0.5194(6)
C26 C -0.735(1) -0.546(1) 0.602(1)
C27 C -0.1457(6) -0.0038(5) 0.3856(4)
C28 C -0.0900(7) 0.2093(6) 0.2043(4)
C29 C 0.0455(9) 0.3014(7) 0.1412(7)
C30 C 0.0904(5) 0.2437(4) -0.0453(4)
C31 C 0.1192(7) 0.1028(6) -0.0747(5)
C32 C 0.012(1) -0.1400(5) -0.0278(5)
C33 C 0.2993(7) 0.2859(6) 0.0624(7)
C34 C 0.3925(8) 0.2375(7) 0.1845(6)
C35 C 0.408(1) 0.0634(8) 0.2619(7)
C36 C 0.493(1) -0.007(1) 0.1867(7)
N1 N -0.3921(5) -0.7855(4) 0.6948(4)
N2 N 0.1479(5) 0.2306(5) 0.0717(4)
O1 O 0.0946(4) -0.3551(3) 0.2224(4)
O2 O -0.3433(5) -0.2028(6) 0.5466(6)
O3 O -0.2157(4) -0.6502(4) 0.4539(4)
O4 O -0.2480(5) -0.5541(4) 0.7742(5)
O5 O -0.0327(5) 0.0897(4) 0.3192(5)
O6 O 0.0000 0.0000 0.0000
loop_
_geom_bond_atom_site_label_1
_geom_bond_atom_site_label_2
_geom_bond_site_symmetry_1
_geom_bond_site_symmetry_2
C1 C2 1_555 1_555
C2 C3 1_555 1_555
C3 C4 1_555 1_555
C4 C5 1_555 1_555
C5 C6 1_555 1_555
C6 C1 1_555 1_555
C7 O1 1_555 1_555
C8 C3 1_555 1_555
C9 C10 1_555 1_555
C10 C11 1_555 1_555
C11 C12 1_555 1_555
C12 C13 1_555 1_555
C13 C14 1_555 1_555
C14 C9 1_555 1_555
C15 O2 1_555 1_555
C16 C11 1_555 1_555
C17 C5 1_555 1_555
C18 C19 1_555 1_555
C19 N1 1_555 1_555
C20 C21 1_555 1_555
C21 O4 1_555 1_555
C22 C9 1_555 1_555
C23 C24 1_555 1_555
C24 C25 1_555 1_555
C25 C26 1_555 1_555
C27 C13 1_555 1_555
C28 C29 1_555 1_555
C29 N2 1_555 1_555
C30 C31 1_555 1_555
C31 O6 1_555 1_555
C32 C1 1_555 1_555
C33 C34 1_555 1_555
C34 C35 1_555 1_555
C35 C36 1_555 1_555
N1 C20 1_555 1_555
N2 C30 1_555 1_555
O1 C6 1_555 1_555
O2 C14 1_555 1_555
O3 C17 1_555 1_555
O4 C22 1_555 1_555
O5 C27 1_555 1_555
O6 C32 1_555 1_555
C18 O3 1_555 1_555
C23 N1 1_555 1_555
C28 O5 1_555 1_555
C33 N2 1_555 1_555

#END
