
#######################################################################
#
#                 Cambridge Crystallographic Data Centre
#                                CCDC 
#
#######################################################################
#
# If this CIF has been generated from an entry in the Cambridge 
# Structural Database, then it will include bibliographic, chemical, 
# crystal, experimental, refinement or atomic coordinate data resulting 
# from the CCDC's data processing and validation procedures.
#
#######################################################################

data_FEQFEP
_chemical_formula_moiety         'C18 H19 N1 O6,C1 H4 O1'
_chemical_name_systematic        
'3-(2,6-dimethoxyphenyl)-4-hydroxy-6-(hydroxymethyl)-7-methoxy-2,3-dihydro-1H-isoindol-1-one methanol solvate'
_symmetry_cell_setting           triclinic
_symmetry_space_group_name_H-M   'P -1'
_symmetry_Int_Tables_number      2
_space_group_name_Hall           '-P 1'
loop_
_symmetry_equiv_pos_site_id
_symmetry_equiv_pos_as_xyz
1 x,y,z
2 -x,-y,-z
_cell_length_a                   8.0208(2)
_cell_length_b                   14.3892(3)
_cell_length_c                   16.5012(3)
_cell_angle_alpha                87.252(2)
_cell_angle_beta                 88.333(2)
_cell_angle_gamma                78.209(2)
_cell_volume                     1861.76
_exptl_crystal_description       block
_cell_formula_units_Z            4
loop_
_atom_site_label
_atom_site_type_symbol
_atom_site_fract_x
_atom_site_fract_y
_atom_site_fract_z
O1 O 0.84297(11) 0.65934(7) 0.32356(6)
H1 H 0.7432 0.6776 0.3377
O2 O 1.26444(11) 0.85230(6) 0.48214(5)
O3 O 1.52975(11) 0.72687(7) 0.37909(6)
O4 O 0.74418(13) 0.88126(8) 0.54804(7)
H2 H 0.7008 0.9236 0.5782
C1 C 1.39938(15) 0.69964(9) 0.35987(7)
N1 N 1.39490(13) 0.63103(8) 0.30839(6)
H3 H 1.4849 0.5987 0.2859
C2 C 0.87982(15) 0.77222(8) 0.42253(7)
H4 H 0.7636 0.7847 0.4345
C3 C 1.11793(15) 0.68681(8) 0.34898(7)
C4 C 0.98428(16) 0.82033(8) 0.46320(7)
C5 C 0.94372(15) 0.70601(8) 0.36458(7)
C6 C 1.22250(15) 0.73554(8) 0.38816(7)
C7 C 1.15879(15) 0.80215(8) 0.44541(7)
O5 O 1.25856(17) 0.52508(8) 0.44507(6)
C8 C 1.22325(15) 0.61588(8) 0.29371(7)
H5 H 1.1940 0.6354 0.2373
C9 C 0.90842(17) 0.89361(10) 0.52348(9)
O6 O 1.16471(17) 0.50638(8) 0.16976(7)
C10 C 1.20931(16) 0.51310(9) 0.30823(8)
C11 C 1.22888(19) 0.46846(10) 0.38561(9)
C12 C 1.18124(19) 0.45934(10) 0.24386(10)
C13 C 1.35671(19) 0.80022(11) 0.54927(9)
H6 H 1.4107 0.7379 0.5329
H7 H 1.2791 0.7948 0.5938
H8 H 1.4417 0.8333 0.5658
C14 C 1.2194(3) 0.37337(12) 0.39829(13)
H9 H 1.2314 0.3446 0.4500
C15 C 1.1719(3) 0.36378(12) 0.25658(15)
H10 H 1.1522 0.3284 0.2134
C16 C 1.1316(3) 0.45517(17) 0.10214(13)
H11 H 1.1227 0.4960 0.0540
H12 H 1.0267 0.4337 0.1117
H13 H 1.2230 0.4014 0.0952
C17 C 1.1919(3) 0.32267(12) 0.33339(16)
H14 H 1.1868 0.2589 0.3416
C18 C 1.2647(4) 0.48769(18) 0.52678(12)
H15 H 1.3601 0.4354 0.5325
H16 H 1.1614 0.4661 0.5403
H17 H 1.2769 0.5364 0.5626
H18 H 0.901(2) 0.9584(14) 0.4955(11)
H19 H 0.981(2) 0.8872(13) 0.5677(12)
O7 O 1.31981(11) 1.19364(6) 0.12049(5)
H20 H 1.2320 1.1787 0.1384
O8 O 1.39734(12) 0.96317(7) 0.35993(6)
H21 H 1.3932 0.9186 0.3923
O9 O 1.87545(11) 1.02659(7) 0.30846(6)
O10 O 2.04822(12) 1.14768(7) 0.18599(6)
O11 O 1.76796(15) 1.05717(7) 0.02981(7)
N2 N 1.84222(13) 1.23015(8) 0.10089(6)
H22 H 1.9068 1.2611 0.0730
C19 C 1.61007(15) 1.17460(8) 0.15183(7)
C20 C 1.43871(15) 1.08760(8) 0.23315(7)
H23 H 1.3332 1.0729 0.2461
C21 C 1.73886(15) 1.06760(9) 0.26114(7)
C22 C 1.58045(15) 1.04423(8) 0.27851(7)
C23 C 1.45243(15) 1.15270(8) 0.16873(7)
C24 C 1.75069(15) 1.13382(9) 0.19809(7)
C25 C 1.89870(16) 1.16926(9) 0.16328(8)
C26 C 1.66087(15) 1.23895(9) 0.08461(7)
H24 H 1.6014 1.3045 0.0931
O12 O 1.49444(16) 1.37148(8) -0.02775(7)
C27 C 1.57002(16) 0.96972(9) 0.34500(8)
H25 H 1.6354 0.9087 0.3290
H26 H 1.6182 0.9864 0.3942
C28 C 1.68257(19) 1.11987(11) -0.02627(8)
C29 C 1.62869(16) 1.21292(10) -0.00071(8)
C30 C 1.54301(19) 1.28162(11) -0.05596(9)
C31 C 1.6506(2) 1.09576(14) -0.10411(10)
H27 H 1.6865 1.0337 -0.1203
C32 C 1.5104(2) 1.25770(15) -0.13397(10)
H28 H 1.4524 1.3036 -0.1703
C33 C 1.99595(18) 0.95391(11) 0.26941(10)
H29 H 2.0264 0.9775 0.2168
H30 H 1.9460 0.8994 0.2636
H31 H 2.0960 0.9361 0.3017
C34 C 1.5650(3) 1.16518(16) -0.15678(10)
H32 H 1.5435 1.1494 -0.2089
C35 C 1.8027(3) 0.95835(12) 0.01385(13)
H33 H 1.8793 0.9470 -0.0321
H34 H 1.6982 0.9392 0.0024
H35 H 1.8538 0.9223 0.0605
C36 C 1.4188(3) 1.44511(14) -0.08454(13)
H36 H 1.4975 1.4498 -0.1288
H37 H 1.3916 1.5045 -0.0581
H38 H 1.3167 1.4305 -0.1049
O13 O 2.08976(14) 1.28483(9) -0.01588(7)
H39 H 2.1906 1.2625 -0.0075
C37 C 2.0562(3) 1.27824(14) -0.09916(11)
H40 H 2.0720 1.3351 -0.1285
H41 H 1.9410 1.2707 -0.1047
H42 H 2.1330 1.2245 -0.1206
O14 O 0.70897(14) 0.50051(8) 0.26612(7)
H43 H 0.8009 0.5092 0.2811
C38 C 0.7101(3) 0.40223(14) 0.26946(14)
H44 H 0.7625 0.3747 0.2208
H45 H 0.5952 0.3926 0.2743
H46 H 0.7733 0.3725 0.3156
loop_
_geom_bond_atom_site_label_1
_geom_bond_atom_site_label_2
_geom_bond_site_symmetry_1
_geom_bond_site_symmetry_2
O1 H1 1_555 1_555
O2 C7 1_555 1_555
O3 C1 1_555 1_555
O4 H2 1_555 1_555
C1 N1 1_555 1_555
N1 H3 1_555 1_555
C2 H4 1_555 1_555
C3 C5 1_555 1_555
C4 C2 1_555 1_555
C5 O1 1_555 1_555
C6 C1 1_555 1_555
C7 C4 1_555 1_555
O5 C11 1_555 1_555
C8 N1 1_555 1_555
H5 C8 1_555 1_555
C9 O4 1_555 1_555
O6 C12 1_555 1_555
C10 C8 1_555 1_555
C11 C10 1_555 1_555
C12 C10 1_555 1_555
C13 O2 1_555 1_555
H6 C13 1_555 1_555
H7 C13 1_555 1_555
H8 C13 1_555 1_555
C14 C11 1_555 1_555
H9 C14 1_555 1_555
C15 C12 1_555 1_555
H10 C15 1_555 1_555
C16 O6 1_555 1_555
H11 C16 1_555 1_555
H12 C16 1_555 1_555
H13 C16 1_555 1_555
C17 C14 1_555 1_555
H14 C17 1_555 1_555
C18 O5 1_555 1_555
H15 C18 1_555 1_555
H16 C18 1_555 1_555
H17 C18 1_555 1_555
H18 C9 1_555 1_555
H19 C9 1_555 1_555
O7 H20 1_555 1_555
O8 H21 1_555 1_555
O9 C21 1_555 1_555
O10 C25 1_555 1_555
O11 C28 1_555 1_555
N2 H22 1_555 1_555
C19 C23 1_555 1_555
C20 H23 1_555 1_555
C21 C22 1_555 1_555
C22 C20 1_555 1_555
C23 O7 1_555 1_555
C24 C19 1_555 1_555
C25 N2 1_555 1_555
C26 N2 1_555 1_555
H24 C26 1_555 1_555
O12 C30 1_555 1_555
C27 O8 1_555 1_555
H25 C27 1_555 1_555
H26 C27 1_555 1_555
C28 C29 1_555 1_555
C29 C26 1_555 1_555
C30 C29 1_555 1_555
C31 C28 1_555 1_555
H27 C31 1_555 1_555
C32 C30 1_555 1_555
H28 C32 1_555 1_555
C33 O9 1_555 1_555
H29 C33 1_555 1_555
H30 C33 1_555 1_555
H31 C33 1_555 1_555
C34 C31 1_555 1_555
H32 C34 1_555 1_555
C35 O11 1_555 1_555
H33 C35 1_555 1_555
H34 C35 1_555 1_555
H35 C35 1_555 1_555
C36 O12 1_555 1_555
H36 C36 1_555 1_555
H37 C36 1_555 1_555
H38 C36 1_555 1_555
O13 H39 1_555 1_555
C37 O13 1_555 1_555
H40 C37 1_555 1_555
H41 C37 1_555 1_555
H42 C37 1_555 1_555
O14 H43 1_555 1_555
C38 O14 1_555 1_555
H44 C38 1_555 1_555
H45 C38 1_555 1_555
H46 C38 1_555 1_555
C2 C5 1_555 1_555
C3 C6 1_555 1_555
C3 C8 1_555 1_555
C4 C9 1_555 1_555
C6 C7 1_555 1_555
C15 C17 1_555 1_555
C19 C26 1_555 1_555
C20 C23 1_555 1_555
C21 C24 1_555 1_555
C22 C27 1_555 1_555
C24 C25 1_555 1_555
C32 C34 1_555 1_555

#END
