
#######################################################################
#
#                 Cambridge Crystallographic Data Centre
#                                CCDC 
#
#######################################################################
#
# If this CIF has been generated from an entry in the Cambridge 
# Structural Database, then it will include bibliographic, chemical, 
# crystal, experimental, refinement or atomic coordinate data resulting 
# from the CCDC's data processing and validation procedures.
#
#######################################################################

data_FEQHEQ
_chemical_formula_moiety         'C16 H32 Ca1 O4'
_chemical_name_systematic        
bis(\h^3^-2-Methylallyl)-(2,5,8,11-tetraoxadodecane)-calcium
_symmetry_cell_setting           orthorhombic
_symmetry_space_group_name_H-M   'P 21 21 21'
_symmetry_Int_Tables_number      19
_space_group_name_Hall           'P 2ac 2ab'
loop_
_symmetry_equiv_pos_site_id
_symmetry_equiv_pos_as_xyz
1 x,y,z
2 1/2-x,-y,1/2+z
3 1/2+x,1/2-y,-z
4 -x,1/2+y,1/2-z
_cell_length_a                   8.8825(5)
_cell_length_b                   13.3491(7)
_cell_length_c                   15.8469(8)
_cell_angle_alpha                90
_cell_angle_beta                 90
_cell_angle_gamma                90
_cell_volume                     1879.02
_exptl_crystal_colour            colorless
_cell_formula_units_Z            4
loop_
_atom_site_label
_atom_site_type_symbol
_atom_site_fract_x
_atom_site_fract_y
_atom_site_fract_z
O1 O 0.94750(11) 1.13385(7) 0.87165(6)
O2 O 0.67744(11) 1.07812(7) 0.93555(6)
O3 O 0.68698(11) 0.91441(7) 1.03586(6)
O4 O 0.96615(11) 0.86830(7) 1.09294(6)
Ca1 Ca 0.92432(3) 1.00166(2) 0.982782(15)
C1 C 1.14719(17) 0.91721(11) 0.89186(10)
H1 H 1.2356(19) 0.9496(11) 0.8695(9)
H2 H 1.1640(18) 0.8830(13) 0.9429(10)
C2 C 1.02139(16) 0.89772(10) 0.84275(8)
C3 C 0.89318(18) 0.84903(11) 0.86926(10)
H3 H 0.8964(18) 0.8100(12) 0.9185(10)
H4 H 0.810(2) 0.8389(13) 0.8356(11)
C4 C 1.01840(18) 0.94249(11) 0.75471(9)
H5 H 0.9139 0.9479 0.7353
H6 H 1.0750 0.8993 0.7161
H7 H 1.0643 1.0092 0.7559
C5 C 1.14981(17) 1.08871(12) 1.06742(10)
H8 H 1.2420(19) 1.0577(12) 1.0888(10)
H9 H 1.1649(19) 1.1261(13) 1.0136(10)
C6 C 1.02764(17) 1.10747(10) 1.11990(9)
C7 C 0.8954(2) 1.15449(12) 1.09667(11)
H10 H 0.894(2) 1.1948(13) 1.0459(11)
H11 H 0.817(2) 1.1599(13) 1.1353(10)
C8 C 1.03345(19) 1.06480(12) 1.20878(9)
H12 H 0.9310 1.0590 1.2312
H13 H 1.0925 1.1095 1.2450
H14 H 1.0806 0.9985 1.2075
C9 C 1.08323(18) 1.18839(12) 0.85646(11)
H15 H 1.0880 1.2461 0.8946
H16 H 1.0847 1.2118 0.7978
H17 H 1.1701 1.1447 0.8665
C10 C 0.81814(17) 1.19483(11) 0.85530(10)
H18 H 0.8280 1.2277 0.7996
H19 H 0.8091 1.2475 0.8990
C11 C 0.68199(17) 1.12930(12) 0.85640(9)
H20 H 0.5900 1.1703 0.8492
H21 H 0.6869 1.0803 0.8096
C12 C 0.54584(15) 1.01818(12) 0.94462(9)
H22 H 0.5435 0.9654 0.9008
H23 H 0.4544 1.0600 0.9387
C13 C 0.55155(15) 0.97167(12) 1.03118(9)
H24 H 0.5513 1.0244 1.0751
H25 H 0.4630 0.9279 1.0401
C14 C 0.70177(16) 0.86278(11) 1.11465(9)
H26 H 0.6141 0.8183 1.1239
H27 H 0.7066 0.9114 1.1617
C15 C 0.84368(17) 0.80244(11) 1.11107(10)
H28 H 0.8607 0.7685 1.1658
H29 H 0.8356 0.7507 1.0666
C16 C 1.10709(16) 0.82075(12) 1.10941(10)
H30 H 1.1158 0.7602 1.0748
H31 H 1.1129 0.8025 1.1692
H32 H 1.1893 0.8668 1.0955
loop_
_geom_bond_atom_site_label_1
_geom_bond_atom_site_label_2
_geom_bond_site_symmetry_1
_geom_bond_site_symmetry_2
O1 Ca1 1_555 1_555
O2 Ca1 1_555 1_555
O3 Ca1 1_555 1_555
O4 Ca1 1_555 1_555
Ca1 C1 1_555 1_555
C1 H1 1_555 1_555
H2 C1 1_555 1_555
C2 Ca1 1_555 1_555
C3 Ca1 1_555 1_555
H3 C3 1_555 1_555
H4 C3 1_555 1_555
C4 C2 1_555 1_555
H5 C4 1_555 1_555
H6 C4 1_555 1_555
H7 C4 1_555 1_555
C5 Ca1 1_555 1_555
H8 C5 1_555 1_555
H9 C5 1_555 1_555
C6 Ca1 1_555 1_555
C7 Ca1 1_555 1_555
H10 C7 1_555 1_555
H11 C7 1_555 1_555
C8 C6 1_555 1_555
H12 C8 1_555 1_555
H13 C8 1_555 1_555
H14 C8 1_555 1_555
C9 O1 1_555 1_555
H15 C9 1_555 1_555
H16 C9 1_555 1_555
H17 C9 1_555 1_555
C10 O1 1_555 1_555
H18 C10 1_555 1_555
H19 C10 1_555 1_555
C11 O2 1_555 1_555
H20 C11 1_555 1_555
H21 C11 1_555 1_555
C12 O2 1_555 1_555
H22 C12 1_555 1_555
H23 C12 1_555 1_555
C13 O3 1_555 1_555
H24 C13 1_555 1_555
H25 C13 1_555 1_555
C14 O3 1_555 1_555
H26 C14 1_555 1_555
H27 C14 1_555 1_555
C15 O4 1_555 1_555
H28 C15 1_555 1_555
H29 C15 1_555 1_555
C16 O4 1_555 1_555
H30 C16 1_555 1_555
H31 C16 1_555 1_555
H32 C16 1_555 1_555
C1 C2 1_555 1_555
C2 C3 1_555 1_555
C5 C6 1_555 1_555
C6 C7 1_555 1_555
C10 C11 1_555 1_555
C12 C13 1_555 1_555
C14 C15 1_555 1_555

#END
