
#######################################################################
#
#                 Cambridge Crystallographic Data Centre
#                                CCDC 
#
#######################################################################
#
# If this CIF has been generated from an entry in the Cambridge 
# Structural Database, then it will include bibliographic, chemical, 
# crystal, experimental, refinement or atomic coordinate data resulting 
# from the CCDC's data processing and validation procedures.
#
#######################################################################

data_FEQLOE
_chemical_formula_moiety         'C23 H20 O3'
_chemical_name_systematic        
'Methyl 4-acetyl-5-phenyl-4-(phenylethynyl)cyclopent-1-ene-1-carboxylate'
_symmetry_cell_setting           triclinic
_symmetry_space_group_name_H-M   'P -1'
_symmetry_Int_Tables_number      2
_space_group_name_Hall           '-P 1'
loop_
_symmetry_equiv_pos_site_id
_symmetry_equiv_pos_as_xyz
1 x,y,z
2 -x,-y,-z
_cell_length_a                   8.254(2)
_cell_length_b                   10.640(3)
_cell_length_c                   11.021(3)
_cell_angle_alpha                75.447(7)
_cell_angle_beta                 81.172(7)
_cell_angle_gamma                84.383(7)
_cell_volume                     923.958
_exptl_crystal_colour            colorless
_exptl_crystal_description       block
_cell_formula_units_Z            2
loop_
_atom_site_label
_atom_site_type_symbol
_atom_site_fract_x
_atom_site_fract_y
_atom_site_fract_z
O1 O 0.12813(16) 0.17163(12) 0.42223(11)
O2 O 0.11403(17) 0.36240(12) 0.28149(12)
O3 O -0.44408(18) 0.14685(16) 0.26982(13)
C1 C -0.2370(3) 0.3463(2) -0.32886(16)
H1 H -0.2011 0.4073 -0.2933
C2 C -0.2659(3) 0.3806(2) -0.45312(19)
H2 H -0.2507 0.4651 -0.5007
C3 C -0.3168(3) 0.2915(2) -0.50712(18)
H3 H -0.3356 0.3154 -0.5912
C4 C -0.3398(2) 0.1677(2) -0.43788(18)
H4 H -0.3737 0.1071 -0.4750
C5 C -0.3129(2) 0.13156(18) -0.31238(16)
H5 H -0.3295 0.0470 -0.2654
C6 C -0.26130(19) 0.22094(16) -0.25689(14)
C7 C -0.23842(18) 0.18952(15) -0.12538(14)
C8 C -0.22084(18) 0.17314(14) -0.01740(14)
C9 C -0.20451(18) 0.16685(14) 0.11453(13)
C10 C -0.1492(2) 0.03224(15) 0.19207(15)
H6 H -0.2428 -0.0175 0.2344
H7 H -0.0791 -0.0167 0.1388
C11 C -0.0565(2) 0.06446(15) 0.28551(14)
H8 H -0.0314 0.0056 0.3591
C12 C -0.01458(18) 0.18617(14) 0.25135(13)
C13 C -0.06980(17) 0.25871(13) 0.12657(13)
H9 H -0.1225 0.3435 0.1342
C14 C 0.06678(18) 0.27752(13) 0.01641(13)
C15 C 0.20490(19) 0.19220(16) 0.01422(15)
H10 H 0.2172 0.1233 0.0840
C16 C 0.3245(2) 0.20801(19) -0.09000(17)
H11 H 0.4165 0.1501 -0.0899
C17 C 0.3077(2) 0.30929(19) -0.19399(17)
H12 H 0.3879 0.3200 -0.2643
C18 C 0.1714(2) 0.39447(17) -0.19308(16)
H13 H 0.1595 0.4630 -0.2632
C19 C 0.0520(2) 0.37915(15) -0.08896(14)
H14 H -0.0393 0.4377 -0.0895
C20 C 0.08106(19) 0.25097(15) 0.31770(14)
C21 C 0.2220(3) 0.2283(2) 0.4922(2)
H15 H 0.2509 0.1636 0.5649
H16 H 0.1576 0.2989 0.5193
H17 H 0.3201 0.2603 0.4393
C22 C -0.3732(2) 0.21472(17) 0.17628(15)
C23 C -0.4444(2) 0.3463(2) 0.1167(2)
H18 H -0.5488 0.3629 0.1638
H19 H -0.4590 0.3494 0.0312
H20 H -0.3713 0.4110 0.1168
loop_
_geom_bond_atom_site_label_1
_geom_bond_atom_site_label_2
_geom_bond_site_symmetry_1
_geom_bond_site_symmetry_2
O1 C20 1_555 1_555
O2 C20 1_555 1_555
O3 C22 1_555 1_555
C1 H1 1_555 1_555
C2 C1 1_555 1_555
H2 C2 1_555 1_555
C3 C2 1_555 1_555
H3 C3 1_555 1_555
C4 C3 1_555 1_555
H4 C4 1_555 1_555
C5 C4 1_555 1_555
H5 C5 1_555 1_555
C6 C1 1_555 1_555
C7 C6 1_555 1_555
C8 C7 1_555 1_555
C9 C8 1_555 1_555
C10 C9 1_555 1_555
H6 C10 1_555 1_555
H7 C10 1_555 1_555
C11 C10 1_555 1_555
H8 C11 1_555 1_555
C12 C11 1_555 1_555
C13 C9 1_555 1_555
H9 C13 1_555 1_555
C14 C13 1_555 1_555
C15 C14 1_555 1_555
H10 C15 1_555 1_555
C16 C15 1_555 1_555
H11 C16 1_555 1_555
C17 C16 1_555 1_555
H12 C17 1_555 1_555
C18 C17 1_555 1_555
H13 C18 1_555 1_555
C19 C14 1_555 1_555
H14 C19 1_555 1_555
C20 C12 1_555 1_555
C21 O1 1_555 1_555
H15 C21 1_555 1_555
H16 C21 1_555 1_555
H17 C21 1_555 1_555
C22 C9 1_555 1_555
C23 C22 1_555 1_555
H18 C23 1_555 1_555
H19 C23 1_555 1_555
H20 C23 1_555 1_555
C5 C6 1_555 1_555
C12 C13 1_555 1_555
C18 C19 1_555 1_555

#END
