
#######################################################################
#
#                 Cambridge Crystallographic Data Centre
#                                CCDC 
#
#######################################################################
#
# If this CIF has been generated from an entry in the Cambridge 
# Structural Database, then it will include bibliographic, chemical, 
# crystal, experimental, refinement or atomic coordinate data resulting 
# from the CCDC's data processing and validation procedures.
#
#######################################################################

data_FEQLAQ
_chemical_formula_moiety         'C28 H26 N2 O4'
_chemical_name_systematic        bis(2',5'-dimethoxybiphenyl-4-yl)diazene
_symmetry_cell_setting           monoclinic
_symmetry_space_group_name_H-M   'C 2/c'
_symmetry_Int_Tables_number      15
_space_group_name_Hall           '-C 2yn'
loop_
_symmetry_equiv_pos_site_id
_symmetry_equiv_pos_as_xyz
1 x,y,z
2 -x,y,1/2-z
3 1/2+x,1/2+y,z
4 1/2-x,1/2+y,1/2-z
5 -x,-y,-z
6 x,-y,1/2+z
7 1/2-x,1/2-y,-z
8 1/2+x,1/2-y,1/2+z
_cell_length_a                   23.774(4)
_cell_length_b                   5.8518(6)
_cell_length_c                   17.000(3)
_cell_angle_alpha                90
_cell_angle_beta                 99.191(6)
_cell_angle_gamma                90
_cell_volume                     2334.69
_exptl_crystal_colour            orange
_exptl_crystal_description       needle
_cell_formula_units_Z            4
loop_
_atom_site_label
_atom_site_type_symbol
_atom_site_fract_x
_atom_site_fract_y
_atom_site_fract_z
C1 C 0.05548(11) -0.3589(4) 0.95986(15)
C2 C 0.03313(10) -0.1555(5) 0.92701(16)
H1 H -0.0048 -0.1195 0.9284
C3 C 0.06664(10) -0.0061(5) 0.89233(15)
H2 H 0.0508 0.1291 0.8702
C4 C 0.12403(10) -0.0537(4) 0.88975(14)
C5 C 0.14536(11) -0.2605(4) 0.92208(15)
H3 H 0.1831 -0.2984 0.9201
C6 C 0.11215(11) -0.4109(5) 0.95695(16)
H4 H 0.1277 -0.5474 0.9785
C7 C 0.16261(10) 0.1106(4) 0.85822(14)
C8 C 0.14480(10) 0.2583(4) 0.79326(15)
C9 C 0.18325(11) 0.4094(5) 0.76860(16)
H5 H 0.1712 0.5053 0.7256
C10 C 0.23910(10) 0.4213(5) 0.80618(15)
H6 H 0.2642 0.5241 0.7886
C11 C 0.25740(10) 0.2797(4) 0.87001(15)
C12 C 0.21912(10) 0.1277(4) 0.89501(14)
H7 H 0.2317 0.0332 0.9382
C13 C 0.06778(13) 0.4080(6) 0.6997(2)
H8 H 0.0754 0.5568 0.7228
H9 H 0.0274 0.3883 0.6846
H10 H 0.0860 0.3936 0.6535
C14 C 0.35108(11) 0.4372(5) 0.89136(17)
H11 H 0.3561 0.4155 0.8369
H12 H 0.3870 0.4182 0.9256
H13 H 0.3368 0.5884 0.8978
N1 N 0.02563(8) -0.5245(4) 1.00001(12)
O1 O 0.08920(8) 0.2388(3) 0.75623(12)
O2 O 0.31173(8) 0.2744(3) 0.91153(11)
C1D C -0.05548(11) -0.6411(4) 1.04014(15)
C2D C -0.03313(10) -0.8445(5) 1.07299(16)
H1D H 0.0048 -0.8805 1.0716
C3D C -0.06664(10) -0.9939(5) 1.10767(15)
H2D H -0.0508 -1.1291 1.1298
C4D C -0.12403(10) -0.9463(4) 1.11025(14)
C5D C -0.14536(11) -0.7395(4) 1.07792(15)
H3D H -0.1831 -0.7016 1.0799
C6D C -0.11215(11) -0.5891(5) 1.04305(16)
H4D H -0.1277 -0.4526 1.0215
C7D C -0.16261(10) -1.1106(4) 1.14178(14)
C8D C -0.14480(10) -1.2583(4) 1.20674(15)
C9D C -0.18325(11) -1.4094(5) 1.23140(16)
H5D H -0.1712 -1.5053 1.2744
C10D C -0.23910(10) -1.4213(5) 1.19382(15)
H6D H -0.2642 -1.5241 1.2114
C11D C -0.25740(10) -1.2797(4) 1.12999(15)
C12D C -0.21912(10) -1.1277(4) 1.10499(14)
H7D H -0.2317 -1.0332 1.0618
C13D C -0.06778(13) -1.4080(6) 1.3003(2)
H8D H -0.0754 -1.5568 1.2772
H9D H -0.0274 -1.3883 1.3154
H10D H -0.0860 -1.3936 1.3465
C14D C -0.35108(11) -1.4372(5) 1.10864(17)
H11D H -0.3561 -1.4155 1.1631
H12D H -0.3870 -1.4182 1.0744
H13D H -0.3368 -1.5884 1.1022
N1D N -0.02563(8) -0.4755(4) 0.99999(12)
O1D O -0.08920(8) -1.2388(3) 1.24377(12)
O2D O -0.31173(8) -1.2744(3) 1.08847(11)
loop_
_geom_bond_atom_site_label_1
_geom_bond_atom_site_label_2
_geom_bond_site_symmetry_1
_geom_bond_site_symmetry_2
C1 C2 1_555 1_555
C2 H1 1_555 1_555
C3 C2 1_555 1_555
H2 C3 1_555 1_555
C4 C3 1_555 1_555
C5 C4 1_555 1_555
H3 C5 1_555 1_555
C6 C1 1_555 1_555
H4 C6 1_555 1_555
C7 C4 1_555 1_555
C8 C7 1_555 1_555
C9 C8 1_555 1_555
H5 C9 1_555 1_555
C10 C9 1_555 1_555
H6 C10 1_555 1_555
C11 C10 1_555 1_555
C12 C7 1_555 1_555
H7 C12 1_555 1_555
C13 H8 1_555 1_555
H9 C13 1_555 1_555
H10 C13 1_555 1_555
C14 H11 1_555 1_555
H12 C14 1_555 1_555
H13 C14 1_555 1_555
N1 C1 1_555 1_555
O1 C8 1_555 1_555
O2 C11 1_555 1_555
C1D C2D 1_555 1_555
C2D H1D 1_555 1_555
C3D C2D 1_555 1_555
H2D C3D 1_555 1_555
C4D C3D 1_555 1_555
C5D C4D 1_555 1_555
H3D C5D 1_555 1_555
C6D C1D 1_555 1_555
H4D C6D 1_555 1_555
C7D C4D 1_555 1_555
C8D C7D 1_555 1_555
C9D C8D 1_555 1_555
H5D C9D 1_555 1_555
C10D C9D 1_555 1_555
H6D C10D 1_555 1_555
C11D C10D 1_555 1_555
C12D C7D 1_555 1_555
H7D C12D 1_555 1_555
C13D H8D 1_555 1_555
H9D C13D 1_555 1_555
H10D C13D 1_555 1_555
C14D H11D 1_555 1_555
H12D C14D 1_555 1_555
H13D C14D 1_555 1_555
N1D N1 1_555 1_555
O1D C8D 1_555 1_555
O2D C11D 1_555 1_555
C5 C6 1_555 1_555
C11 C12 1_555 1_555
C13 O1 1_555 1_555
C14 O2 1_555 1_555
C1D N1D 1_555 1_555
C5D C6D 1_555 1_555
C11D C12D 1_555 1_555
C13D O1D 1_555 1_555
C14D O2D 1_555 1_555

#END
