
#######################################################################
#
#                 Cambridge Crystallographic Data Centre
#                                CCDC 
#
#######################################################################
#
# If this CIF has been generated from an entry in the Cambridge 
# Structural Database, then it will include bibliographic, chemical, 
# crystal, experimental, refinement or atomic coordinate data resulting 
# from the CCDC's data processing and validation procedures.
#
#######################################################################

data_FEQQUN
_chemical_formula_moiety         'C16 H12 S4,C12 H2 Br2 N4'
_chemical_name_systematic        
'8,9-bis(Methylsulfanyl)acenaphtho(1,2-b)(1,4)dithiine 2,5-dibromo-7,7,8,8-tetracyano-p-quinodimethane'
_symmetry_cell_setting           triclinic
_symmetry_space_group_name_H-M   'P -1'
_symmetry_Int_Tables_number      2
_space_group_name_Hall           '-P 1'
loop_
_symmetry_equiv_pos_site_id
_symmetry_equiv_pos_as_xyz
1 x,y,z
2 -x,-y,-z
_cell_length_a                   7.848(1)
_cell_length_b                   10.295(1)
_cell_length_c                   17.309(1)
_cell_angle_alpha                77.29(1)
_cell_angle_beta                 83.47(1)
_cell_angle_gamma                89.59(1)
_cell_volume                     1355.13
_exptl_crystal_colour            black
_exptl_crystal_description       plate
_cell_formula_units_Z            2
loop_
_atom_site_label
_atom_site_type_symbol
_atom_site_fract_x
_atom_site_fract_y
_atom_site_fract_z
Br1 Br 0.46545(3) 0.43384(2) 0.38499(2)
Br2 Br 0.58345(4) 1.08612(2) 0.28033(2)
C1 C 0.6155(3) 0.6805(2) 0.2809(2)
C2 C 0.5018(3) 0.6202(2) 0.3518(2)
C3 C 0.4139(3) 0.6950(2) 0.3974(2)
H1 H 0.3390(36) 0.6553(28) 0.4445(18)
C4 C 0.4303(3) 0.8389(2) 0.3812(2)
C5 C 0.5435(3) 0.9002(2) 0.3102(2)
C6 C 0.6276(3) 0.8252(2) 0.2637(2)
H2 H 0.6995(38) 0.8629(30) 0.2194(19)
C7 C 0.7100(3) 0.6146(2) 0.2293(2)
C8 C 0.3413(3) 0.9040(3) 0.4349(2)
C9 C 0.7294(3) 0.4728(3) 0.2375(2)
C10 C 0.8129(3) 0.6899(3) 0.1593(2)
C11 C 0.2314(4) 0.8314(3) 0.5027(2)
C12 C 0.3510(4) 1.0437(3) 0.4355(2)
N1 N 0.7626(3) 0.3644(3) 0.2372(2)
N2 N 0.8974(3) 0.7467(3) 0.1038(2)
N3 N 0.1411(3) 0.7782(2) 0.5574(2)
N4 N 0.3492(4) 1.1488(3) 0.4473(2)
S1 S 0.32361(9) 0.51326(7) 0.17628(4)
S2 S 0.40237(9) 0.82997(7) 0.09321(4)
S3 S 0.27400(11) 0.46394(9) 0.01657(5)
S4 S 0.34917(11) 0.77511(8) -0.06411(5)
C13 C 0.1133(3) 0.6325(3) 0.2891(2)
C14 C 0.0326(3) 0.5299(3) 0.3464(2)
H3 H 0.0420(37) 0.4393(31) 0.3441(18)
C15 C -0.0763(4) 0.5643(3) 0.4106(2)
H4 H -0.1314(45) 0.4893(36) 0.4496(22)
C16 C -0.1022(4) 0.6933(3) 0.4180(2)
H5 H -0.1716(48) 0.7127(38) 0.4629(24)
C17 C -0.0308(4) 0.9411(3) 0.3557(2)
H6 H -0.0956(42) 0.9692(33) 0.4002(21)
C18 C 0.0553(4) 1.0316(3) 0.2927(2)
H7 H 0.0448(44) 1.1245(37) 0.2929(22)
C19 C 0.1595(4) 0.9917(3) 0.2295(2)
H8 H 0.2195(41) 1.0595(33) 0.1865(20)
C20 C 0.1744(3) 0.8580(3) 0.2318(2)
C21 C 0.0841(3) 0.7654(3) 0.2965(2)
C22 C -0.0194(3) 0.8013(3) 0.3592(2)
C23 C 0.2355(3) 0.6434(3) 0.2167(2)
C24 C 0.2697(3) 0.7751(3) 0.1827(2)
C25 C 0.3107(3) 0.5823(3) 0.0729(2)
C26 C 0.3429(3) 0.7110(3) 0.0393(2)
C27 C 0.1115(6) 0.3554(5) 0.0782(3)
H9 H 0.1455(65) 0.3161(51) 0.1243(34)
H10 H 0.0166(78) 0.4066(61) 0.0886(36)
H11 H 0.0899(64) 0.2981(53) 0.0513(33)
C28 C 0.2017(5) 0.9120(4) -0.0666(2)
H12 H 0.2614(46) 0.9934(37) -0.0595(22)
H13 H 0.1025(49) 0.8831(37) -0.0295(24)
H14 H 0.1623(51) 0.9328(40) -0.1200(26)
loop_
_geom_bond_atom_site_label_1
_geom_bond_atom_site_label_2
_geom_bond_site_symmetry_1
_geom_bond_site_symmetry_2
Br1 C2 1_555 1_555
Br2 C5 1_555 1_555
C1 C2 1_555 1_555
C2 C3 1_555 1_555
C3 H1 1_555 1_555
C4 C3 1_555 1_555
C5 C4 1_555 1_555
C6 C1 1_555 1_555
H2 C6 1_555 1_555
C7 C1 1_555 1_555
C8 C4 1_555 1_555
C9 C7 1_555 1_555
C10 C7 1_555 1_555
C11 C8 1_555 1_555
C12 C8 1_555 1_555
N1 C9 1_555 1_555
N2 C10 1_555 1_555
N3 C11 1_555 1_555
N4 C12 1_555 1_555
S1 C23 1_555 1_555
S2 C24 1_555 1_555
S3 C25 1_555 1_555
S4 C26 1_555 1_555
C13 C14 1_555 1_555
C14 H3 1_555 1_555
C15 C14 1_555 1_555
H4 C15 1_555 1_555
C16 C15 1_555 1_555
H5 C16 1_555 1_555
C17 H6 1_555 1_555
C18 C17 1_555 1_555
H7 C18 1_555 1_555
C19 C18 1_555 1_555
H8 C19 1_555 1_555
C20 C19 1_555 1_555
C21 C13 1_555 1_555
C22 C16 1_555 1_555
C23 C13 1_555 1_555
C24 C20 1_555 1_555
C25 S1 1_555 1_555
C26 S2 1_555 1_555
C27 S3 1_555 1_555
H9 C27 1_555 1_555
H10 C27 1_555 1_555
H11 C27 1_555 1_555
C28 S4 1_555 1_555
H12 C28 1_555 1_555
H13 C28 1_555 1_555
H14 C28 1_555 1_555
C5 C6 1_555 1_555
C17 C22 1_555 1_555
C20 C21 1_555 1_555
C21 C22 1_555 1_555
C23 C24 1_555 1_555
C25 C26 1_555 1_555

#END
