
#######################################################################
#
#                 Cambridge Crystallographic Data Centre
#                                CCDC 
#
#######################################################################
#
# If this CIF has been generated from an entry in the Cambridge 
# Structural Database, then it will include bibliographic, chemical, 
# crystal, experimental, refinement or atomic coordinate data resulting 
# from the CCDC's data processing and validation procedures.
#
#######################################################################

data_FEQROJ
_chemical_formula_moiety         
'C72 H112 O8,0.5(C20 H26 N2 2+),Br1 1-,2.5(C2 H6 O1)'
_chemical_name_systematic        
"4,6,10,12,16,18,22,24-Octahydroxy-2,8,14,20-tetrakis(dodecyl)calix(4)arene hemikis(N,N'-dibenzyl-1,4-diazabicyclo(2.2.2)octane dibromide) ethanol solvate"
_symmetry_cell_setting           triclinic
_symmetry_space_group_name_H-M   'P -1'
_symmetry_Int_Tables_number      2
_space_group_name_Hall           '-P 1'
loop_
_symmetry_equiv_pos_site_id
_symmetry_equiv_pos_as_xyz
1 x,y,z
2 -x,-y,-z
_cell_length_a                   9.82460(10)
_cell_length_b                   15.7155(2)
_cell_length_c                   26.8439(4)
_cell_angle_alpha                91.3870(10)
_cell_angle_beta                 91.4380(10)
_cell_angle_gamma                92.6860(10)
_cell_volume                     4137.46
_exptl_crystal_colour            colorless
_exptl_crystal_description       block
_cell_formula_units_Z            2
loop_
_atom_site_label
_atom_site_type_symbol
_atom_site_fract_x
_atom_site_fract_y
_atom_site_fract_z
Br1 Br 0.82285(5) 0.26516(3) -0.049613(18)
N1 N 0.1201(3) 0.03006(18) 0.01326(13)
C73 C 0.0086(9) 0.0969(6) 0.0193(4)
H113 H -0.0124 0.1273 -0.0116
H114 H 0.0265 0.1375 0.0478
C74 C 0.0549(7) -0.0361(4) 0.0549(3)
H115 H 0.0821 -0.0224 0.0900
C77 C 0.1329(7) -0.0622(4) 0.0045(4)
H122 H 0.2193 -0.0767 -0.0111
C78 C 0.0985(7) 0.0625(5) -0.0430(2)
H123 H 0.1152 0.1250 -0.0446
H124 H 0.1592 0.0339 -0.0663
C79 C 0.2658(4) 0.0623(3) 0.03043(19)
H125 H 0.2799 0.0486 0.0659
H126 H 0.3328 0.0312 0.0110
C80 C 0.2927(3) 0.1547(2) 0.02465(14)
C81 C 0.3451(4) 0.1865(3) -0.01932(16)
H127 H 0.3654 0.1478 -0.0455
C82 C 0.3682(4) 0.2731(4) -0.02572(19)
H128 H 0.4042 0.2936 -0.0559
C83 C 0.3387(4) 0.3280(3) 0.01172(19)
H129 H 0.3525 0.3875 0.0071
C84 C 0.2900(4) 0.3004(2) 0.05562(16)
H130 H 0.2719 0.3402 0.0815
C85 C 0.2666(3) 0.2133(2) 0.06258(14)
H131 H 0.2327 0.1938 0.0933
N1A N -0.1201(3) -0.03006(18) -0.01326(13)
C73A C -0.0086(9) -0.0969(6) -0.0193(4)
H113A H 0.0124 -0.1273 0.0116
H114A H -0.0265 -0.1375 -0.0478
C74A C -0.0549(7) 0.0361(4) -0.0549(3)
H115A H -0.0821 0.0224 -0.0900
C77A C -0.1329(7) 0.0622(4) -0.0045(4)
H122A H -0.2193 0.0767 0.0111
C78A C -0.0985(7) -0.0625(5) 0.0430(2)
H123A H -0.1152 -0.1250 0.0446
H124A H -0.1592 -0.0339 0.0663
C79A C -0.2658(4) -0.0623(3) -0.03043(19)
H125A H -0.2799 -0.0486 -0.0659
H126A H -0.3328 -0.0312 -0.0110
C80A C -0.2927(3) -0.1547(2) -0.02465(14)
C81A C -0.3451(4) -0.1865(3) 0.01932(16)
H127A H -0.3654 -0.1478 0.0455
C82A C -0.3682(4) -0.2731(4) 0.02572(19)
H128A H -0.4042 -0.2936 0.0559
C83A C -0.3387(4) -0.3280(3) -0.01172(19)
H129A H -0.3525 -0.3875 -0.0071
C84A C -0.2900(4) -0.3004(2) -0.05562(16)
H130A H -0.2719 -0.3402 -0.0815
C85A C -0.2666(3) -0.2133(2) -0.06258(14)
H131A H -0.2327 -0.1938 -0.0933
O9 O 0.5783(15) 0.2462(11) -0.1281(3)
H132 H 0.6356 0.2587 -0.1050
C86 C 0.6137(12) 0.2934(6) -0.1721(3)
H133 H 0.7138 0.2952 -0.1757
H134 H 0.5852 0.3527 -0.1681
C87 C 0.5464(16) 0.2535(8) -0.2181(3)
H135 H 0.5742 0.2858 -0.2472
H136 H 0.4472 0.2539 -0.2152
H137 H 0.5738 0.1946 -0.2220
O11 O -0.0515(9) -0.1723(6) 0.1179(5)
H144 H -0.0071 -0.2081 0.1022
C90 C -0.1680(9) -0.2146(5) 0.1393(4)
H145 H -0.2510 -0.2008 0.1200
H146 H -0.1774 -0.1927 0.1739
C91 C -0.1586(13) -0.3094(5) 0.1399(6)
H147 H -0.2394 -0.3348 0.1555
H148 H -0.0767 -0.3235 0.1590
H149 H -0.1534 -0.3318 0.1057
O13 O -0.0158(6) 0.5765(4) 0.0441(2)
H156 H 0.0409 0.6098 0.0307
C94 C -0.0637(5) 0.5157(4) 0.0098(2)
O13A O 0.0158(6) 0.4235(4) -0.0441(2)
H156A H -0.0409 0.3902 -0.0307
C94A C 0.0637(5) 0.4843(4) -0.0098(2)
C1 C 0.2648(3) 0.4516(2) 0.16874(12)
C2 C 0.3917(3) 0.4162(2) 0.17185(12)
H1 H 0.4063 0.3760 0.1971
C3 C 0.4986(3) 0.4357(2) 0.14040(12)
C4 C 0.4727(4) 0.4920(2) 0.10215(13)
C5 C 0.3475(4) 0.5288(2) 0.09800(14)
H2 H 0.3315 0.5674 0.0720
O1 O 0.5674(3) 0.51428(16) 0.06747(10)
H3 H 0.619(4) 0.474(2) 0.0631(17)
C6 C 0.2463(4) 0.5103(2) 0.13090(13)
O2 O 0.1197(3) 0.54572(18) 0.12779(10)
H4 H 0.122(5) 0.575(3) 0.1027(12)
C7 C 0.6364(3) 0.3956(2) 0.14715(12)
H5 H 0.7003 0.4264 0.1246
C8 C 0.6271(3) 0.3029(2) 0.12886(12)
C9 C 0.6096(3) 0.2343(2) 0.16039(12)
H6 H 0.6028 0.2460 0.1951
C10 C 0.6015(3) 0.1493(2) 0.14371(12)
C11 C 0.6071(3) 0.1346(2) 0.09241(12)
O3 O 0.5965(2) 0.05347(14) 0.07041(9)
H7 H 0.575(4) 0.017(2) 0.0913(12)
C12 C 0.6268(3) 0.2005(2) 0.05987(12)
H8 H 0.6327 0.1889 0.0251
C13 C 0.6379(3) 0.2835(2) 0.07835(12)
O4 O 0.6614(2) 0.35053(15) 0.04664(9)
H9 H 0.689(4) 0.330(2) 0.0203(10)
C14 C 0.5893(3) 0.0746(2) 0.17841(12)
H10 H 0.6437 0.0287 0.1635
C15 C 0.4423(3) 0.0390(2) 0.17878(12)
C16 C 0.3408(3) 0.0837(2) 0.20159(12)
H11 H 0.3653 0.1380 0.2164
C17 C 0.2059(3) 0.0539(2) 0.20399(12)
C18 C 0.1708(3) -0.0244(2) 0.18017(13)
O5 O 0.0354(2) -0.05239(16) 0.18095(10)
H12 H 0.019(4) -0.0957(19) 0.1630(14)
C19 C 0.2670(3) -0.0700(2) 0.15583(14)
H13 H 0.2413 -0.1228 0.1395
C20 C 0.4010(3) -0.0387(2) 0.15532(13)
O6 O 0.4991(2) -0.08250(15) 0.13076(10)
H14 H 0.486(4) -0.1355(13) 0.1301(16)
C21 C 0.1022(3) 0.1043(2) 0.23213(12)
H15 H 0.0167 0.0673 0.2324
C22 C 0.0676(3) 0.1832(2) 0.20383(12)
C23 C 0.1196(3) 0.2652(2) 0.21694(12)
H16 H 0.1775 0.2720 0.2458
C24 C 0.0914(3) 0.3372(2) 0.19027(12)
C25 C 0.0067(3) 0.3249(2) 0.14727(13)
O7 O -0.0310(3) 0.38973(18) 0.11762(10)
H17 H 0.016(4) 0.436(3) 0.1255(17)
C26 C -0.0464(3) 0.2447(2) 0.13339(13)
H18 H -0.1039 0.2375 0.1045
C27 C -0.0167(3) 0.1752(2) 0.16095(13)
O8 O -0.0736(2) 0.09736(16) 0.14361(9)
H19 H -0.049(4) 0.059(2) 0.1616(14)
C28 C 0.1515(3) 0.4260(2) 0.20415(12)
H20 H 0.0770 0.4662 0.1984
C29 C 0.6962(3) 0.4101(2) 0.20028(12)
H21 H 0.6265 0.3937 0.2247
H22 H 0.7748 0.3738 0.2052
C30 C 0.7424(4) 0.5037(2) 0.20918(14)
H23 H 0.6629 0.5391 0.2038
H24 H 0.8103 0.5194 0.1839
C31 C 0.8049(4) 0.5258(2) 0.26086(14)
H25 H 0.8721 0.4830 0.2691
H26 H 0.8551 0.5818 0.2595
C32 C 0.7039(4) 0.5297(2) 0.30282(14)
H27 H 0.6294 0.5666 0.2929
H28 H 0.6633 0.4718 0.3078
C33 C 0.7681(4) 0.5638(2) 0.35191(13)
H29 H 0.8427 0.5268 0.3616
H30 H 0.8092 0.6215 0.3466
C34 C 0.6708(4) 0.5690(2) 0.39469(14)
H31 H 0.5945 0.6043 0.3846
H32 H 0.6321 0.5110 0.4008
C35 C 0.7343(4) 0.6058(2) 0.44303(13)
H33 H 0.7742 0.6635 0.4369
H34 H 0.8095 0.5699 0.4535
C36 C 0.6348(4) 0.6118(2) 0.48532(14)
H35 H 0.5972 0.5538 0.4920
H36 H 0.5580 0.6460 0.4743
C37 C 0.6958(4) 0.6512(2) 0.53365(13)
H37 H 0.7723 0.6170 0.5449
H38 H 0.7333 0.7093 0.5271
C38 C 0.5951(4) 0.6566(2) 0.57503(14)
H39 H 0.5590 0.5983 0.5819
H40 H 0.5176 0.6897 0.5634
C39 C 0.6538(5) 0.6976(3) 0.62350(15)
H41 H 0.5824 0.6988 0.6483
H42 H 0.6877 0.7560 0.6174
H43 H 0.7289 0.6644 0.6360
C40 C 0.6490(3) 0.0926(2) 0.23113(12)
H44 H 0.7373 0.1252 0.2290
H45 H 0.5864 0.1280 0.2501
C41 C 0.6704(4) 0.0106(2) 0.25866(13)
H46 H 0.7363 -0.0231 0.2402
H47 H 0.5829 -0.0232 0.2587
C42 C 0.7227(4) 0.0243(2) 0.31240(13)
H48 H 0.7540 -0.0305 0.3248
H49 H 0.8027 0.0651 0.3128
C43 C 0.6183(4) 0.0576(2) 0.34783(13)
H50 H 0.5377 0.0173 0.3470
H51 H 0.5883 0.1129 0.3358
C44 C 0.6706(4) 0.0698(2) 0.40168(13)
H52 H 0.7038 0.0150 0.4134
H53 H 0.7488 0.1119 0.4028
C45 C 0.5632(4) 0.0999(2) 0.43680(13)
H54 H 0.4859 0.0571 0.4360
H55 H 0.5286 0.1538 0.4244
C46 C 0.6126(4) 0.1143(2) 0.49054(13)
H56 H 0.6875 0.1587 0.4918
H57 H 0.6498 0.0610 0.5028
C47 C 0.5009(4) 0.1416(2) 0.52491(14)
H58 H 0.4266 0.0967 0.5237
H59 H 0.4628 0.1942 0.5120
C48 C 0.5463(4) 0.1579(2) 0.57901(14)
H60 H 0.5863 0.1059 0.5919
H61 H 0.6185 0.2041 0.5806
C49 C 0.4316(5) 0.1826(3) 0.61221(15)
H62 H 0.3597 0.1362 0.6107
H63 H 0.3913 0.2344 0.5991
C50 C 0.4758(5) 0.1997(3) 0.66633(17)
H64 H 0.3969 0.2151 0.6856
H65 H 0.5452 0.2466 0.6683
H66 H 0.5139 0.1483 0.6799
C51 C 0.1470(3) 0.1205(2) 0.28680(12)
H67 H 0.2355 0.1534 0.2884
H68 H 0.0791 0.1549 0.3037
C52 C 0.1611(4) 0.0370(2) 0.31392(13)
H69 H 0.0732 0.0036 0.3110
H70 H 0.2305 0.0036 0.2972
C53 C 0.2013(4) 0.0484(2) 0.36863(13)
H71 H 0.2842 0.0867 0.3717
H72 H 0.2250 -0.0076 0.3816
C54 C 0.0924(3) 0.0846(2) 0.40083(13)
H73 H 0.0088 0.0470 0.3974
H74 H 0.0702 0.1413 0.3885
C55 C 0.1338(4) 0.0936(2) 0.45565(13)
H75 H 0.1568 0.0370 0.4678
H76 H 0.2172 0.1314 0.4590
C56 C 0.0265(4) 0.1291(2) 0.48872(13)
H77 H -0.0567 0.0911 0.4859
H78 H 0.0028 0.1856 0.4766
C57 C 0.0713(4) 0.1381(2) 0.54300(13)
H79 H 0.0970 0.0816 0.5546
H80 H 0.1539 0.1767 0.5456
C58 C -0.0339(4) 0.1719(3) 0.57752(14)
H81 H -0.1166 0.1333 0.5752
H82 H -0.0597 0.2285 0.5661
C59 C 0.0134(4) 0.1804(3) 0.63158(15)
H83 H 0.0427 0.1242 0.6425
H84 H 0.0942 0.2205 0.6340
C60 C -0.0915(6) 0.2111(3) 0.66696(17)
H85 H -0.1716 0.1704 0.6654
H86 H -0.1221 0.2669 0.6559
C61 C -0.0395(7) 0.2204(4) 0.72062(19)
H87 H -0.1121 0.2406 0.7416
H88 H 0.0387 0.2615 0.7227
H89 H -0.0114 0.1651 0.7322
C62 C 0.1979(3) 0.4388(2) 0.25915(12)
H90 H 0.1227 0.4200 0.2808
H91 H 0.2762 0.4031 0.2661
C63 C 0.2391(4) 0.5316(2) 0.27148(13)
H92 H 0.1583 0.5661 0.2662
H93 H 0.3085 0.5509 0.2476
C64 C 0.2960(4) 0.5502(2) 0.32416(13)
H94 H 0.3675 0.5095 0.3312
H95 H 0.3404 0.6081 0.3253
C65 C 0.1931(4) 0.5450(2) 0.36555(13)
H96 H 0.1622 0.4848 0.3696
H97 H 0.1125 0.5771 0.3559
C66 C 0.2522(4) 0.5809(2) 0.41512(13)
H98 H 0.3291 0.5461 0.4253
H99 H 0.2897 0.6395 0.4099
C67 C 0.1538(4) 0.5839(2) 0.45743(13)
H100 H 0.1208 0.5250 0.4645
H101 H 0.0741 0.6159 0.4469
C68 C 0.2169(4) 0.6253(2) 0.50497(13)
H102 H 0.2965 0.5929 0.5152
H103 H 0.2509 0.6838 0.4974
C69 C 0.1219(4) 0.6305(2) 0.54876(14)
H104 H 0.0419 0.6628 0.5388
H105 H 0.0885 0.5722 0.5568
C70 C 0.1890(4) 0.6728(2) 0.59515(13)
H106 H 0.2698 0.6409 0.6045
H107 H 0.2216 0.7312 0.5869
C71 C 0.0988(4) 0.6784(3) 0.63973(14)
H108 H 0.0645 0.6202 0.6478
H109 H 0.0191 0.7118 0.6309
C72 C 0.1707(4) 0.7193(3) 0.68562(15)
H110 H 0.1071 0.7210 0.7131
H111 H 0.2030 0.7775 0.6782
H112 H 0.2486 0.6859 0.6952
H116? H 0.0601 -0.0975 0.0464
C75? C 0.1068(8) -0.0155(6) -0.0314(3)
H117? H 0.1951 -0.0378 -0.0412
H118? H 0.0724 0.0204 -0.0583
C76? C 0.0273(10) 0.0648(8) 0.0434(4)
H119? H 0.0557 0.1237 0.0545
H120? H 0.0090 0.0296 0.0728
H121? H 0.1169 -0.0964 0.0345
O10? O 0.541(2) 0.249(2) -0.1329(7)
H138? H 0.6180 0.2567 -0.1190
C88? C 0.5433(17) 0.2844(13) -0.1823(8)
H139? H 0.5300 0.3464 -0.1799
H140? H 0.4676 0.2576 -0.2032
C89? C 0.678(2) 0.2690(11) -0.2066(6)
H141? H 0.6789 0.2949 -0.2394
H142? H 0.6888 0.2075 -0.2105
H143? H 0.7527 0.2945 -0.1856
O12? O -0.0135(9) -0.2029(7) 0.1313(6)
H150? H 0.0494 -0.2221 0.1143
C92? C -0.1000(10) -0.2724(6) 0.1478(5)
H151? H -0.0476 -0.3075 0.1708
H152? H -0.1308 -0.3088 0.1187
C93? C -0.2225(10) -0.2405(8) 0.1739(5)
H153? H -0.2796 -0.2892 0.1846
H154? H -0.2753 -0.2064 0.1510
H155? H -0.1922 -0.2052 0.2031
loop_
_geom_bond_atom_site_label_1
_geom_bond_atom_site_label_2
_geom_bond_site_symmetry_1
_geom_bond_site_symmetry_2
C1 C2 1_555 1_555
C2 H1 1_555 1_555
C3 C2 1_555 1_555
C4 C3 1_555 1_555
C5 C4 1_555 1_555
H2 C5 1_555 1_555
O1 C4 1_555 1_555
H3 O1 1_555 1_555
C6 C1 1_555 1_555
O2 C6 1_555 1_555
H4 O2 1_555 1_555
C7 C3 1_555 1_555
H5 C7 1_555 1_555
C8 C7 1_555 1_555
C9 C8 1_555 1_555
H6 C9 1_555 1_555
C10 C9 1_555 1_555
C11 C10 1_555 1_555
O3 C11 1_555 1_555
H7 O3 1_555 1_555
C12 C11 1_555 1_555
H8 C12 1_555 1_555
C13 C8 1_555 1_555
O4 C13 1_555 1_555
H9 O4 1_555 1_555
C14 C10 1_555 1_555
H10 C14 1_555 1_555
C15 C14 1_555 1_555
C16 C15 1_555 1_555
H11 C16 1_555 1_555
C17 C16 1_555 1_555
C18 C17 1_555 1_555
O5 C18 1_555 1_555
H12 O5 1_555 1_555
C19 C18 1_555 1_555
H13 C19 1_555 1_555
C20 C15 1_555 1_555
O6 C20 1_555 1_555
H14 O6 1_555 1_555
C21 C17 1_555 1_555
H15 C21 1_555 1_555
C22 C21 1_555 1_555
C23 C22 1_555 1_555
H16 C23 1_555 1_555
C24 C23 1_555 1_555
C25 C24 1_555 1_555
O7 C25 1_555 1_555
H17 O7 1_555 1_555
C26 C25 1_555 1_555
H18 C26 1_555 1_555
C27 C22 1_555 1_555
O8 C27 1_555 1_555
H19 O8 1_555 1_555
C28 C1 1_555 1_555
H20 C28 1_555 1_555
C29 C7 1_555 1_555
H21 C29 1_555 1_555
H22 C29 1_555 1_555
C30 C29 1_555 1_555
H23 C30 1_555 1_555
H24 C30 1_555 1_555
C31 C30 1_555 1_555
H25 C31 1_555 1_555
H26 C31 1_555 1_555
C32 C31 1_555 1_555
H27 C32 1_555 1_555
H28 C32 1_555 1_555
C33 C32 1_555 1_555
H29 C33 1_555 1_555
H30 C33 1_555 1_555
C34 C33 1_555 1_555
H31 C34 1_555 1_555
H32 C34 1_555 1_555
C35 C34 1_555 1_555
H33 C35 1_555 1_555
H34 C35 1_555 1_555
C36 C35 1_555 1_555
H35 C36 1_555 1_555
H36 C36 1_555 1_555
C37 C36 1_555 1_555
H37 C37 1_555 1_555
H38 C37 1_555 1_555
C38 C37 1_555 1_555
H39 C38 1_555 1_555
H40 C38 1_555 1_555
C39 C38 1_555 1_555
H41 C39 1_555 1_555
H42 C39 1_555 1_555
H43 C39 1_555 1_555
C40 C14 1_555 1_555
H44 C40 1_555 1_555
H45 C40 1_555 1_555
C41 C40 1_555 1_555
H46 C41 1_555 1_555
H47 C41 1_555 1_555
C42 C41 1_555 1_555
H48 C42 1_555 1_555
H49 C42 1_555 1_555
C43 C42 1_555 1_555
H50 C43 1_555 1_555
H51 C43 1_555 1_555
C44 C43 1_555 1_555
H52 C44 1_555 1_555
H53 C44 1_555 1_555
C45 C44 1_555 1_555
H54 C45 1_555 1_555
H55 C45 1_555 1_555
C46 C45 1_555 1_555
H56 C46 1_555 1_555
H57 C46 1_555 1_555
C47 C46 1_555 1_555
H58 C47 1_555 1_555
H59 C47 1_555 1_555
C48 C47 1_555 1_555
H60 C48 1_555 1_555
H61 C48 1_555 1_555
C49 C48 1_555 1_555
H62 C49 1_555 1_555
H63 C49 1_555 1_555
C50 C49 1_555 1_555
H64 C50 1_555 1_555
H65 C50 1_555 1_555
H66 C50 1_555 1_555
C51 C21 1_555 1_555
H67 C51 1_555 1_555
H68 C51 1_555 1_555
C52 C51 1_555 1_555
H69 C52 1_555 1_555
H70 C52 1_555 1_555
C53 C52 1_555 1_555
H71 C53 1_555 1_555
H72 C53 1_555 1_555
C54 C53 1_555 1_555
H73 C54 1_555 1_555
H74 C54 1_555 1_555
C55 C54 1_555 1_555
H75 C55 1_555 1_555
H76 C55 1_555 1_555
C56 C55 1_555 1_555
H77 C56 1_555 1_555
H78 C56 1_555 1_555
C57 C56 1_555 1_555
H79 C57 1_555 1_555
H80 C57 1_555 1_555
C58 C57 1_555 1_555
H81 C58 1_555 1_555
H82 C58 1_555 1_555
C59 C58 1_555 1_555
H83 C59 1_555 1_555
H84 C59 1_555 1_555
C60 C59 1_555 1_555
H85 C60 1_555 1_555
H86 C60 1_555 1_555
C61 C60 1_555 1_555
H87 C61 1_555 1_555
H88 C61 1_555 1_555
H89 C61 1_555 1_555
C62 C28 1_555 1_555
H90 C62 1_555 1_555
H91 C62 1_555 1_555
C63 C62 1_555 1_555
H92 C63 1_555 1_555
H93 C63 1_555 1_555
C64 C63 1_555 1_555
H94 C64 1_555 1_555
H95 C64 1_555 1_555
C65 C64 1_555 1_555
H96 C65 1_555 1_555
H97 C65 1_555 1_555
C66 C65 1_555 1_555
H98 C66 1_555 1_555
H99 C66 1_555 1_555
C67 C66 1_555 1_555
H100 C67 1_555 1_555
H101 C67 1_555 1_555
C68 C67 1_555 1_555
H102 C68 1_555 1_555
H103 C68 1_555 1_555
C69 C68 1_555 1_555
H104 C69 1_555 1_555
H105 C69 1_555 1_555
C70 C69 1_555 1_555
H106 C70 1_555 1_555
H107 C70 1_555 1_555
C71 C70 1_555 1_555
H108 C71 1_555 1_555
H109 C71 1_555 1_555
C72 C71 1_555 1_555
H110 C72 1_555 1_555
H111 C72 1_555 1_555
H112 C72 1_555 1_555
N1 C73 1_555 1_555
C73 H113 1_555 1_555
H114 C73 1_555 1_555
C74 N1 1_555 1_555
H115 C74 1_555 1_555
C77 N1 1_555 1_555
H122 C77 1_555 1_555
C78 N1 1_555 1_555
H123 C78 1_555 1_555
H124 C78 1_555 1_555
C79 N1 1_555 1_555
H125 C79 1_555 1_555
H126 C79 1_555 1_555
C80 C79 1_555 1_555
C81 C80 1_555 1_555
H127 C81 1_555 1_555
C82 C81 1_555 1_555
H128 C82 1_555 1_555
C83 C82 1_555 1_555
H129 C83 1_555 1_555
C84 C83 1_555 1_555
H130 C84 1_555 1_555
C85 C80 1_555 1_555
H131 C85 1_555 1_555
O9 H132 1_555 1_555
C86 O9 1_555 1_555
H133 C86 1_555 1_555
H134 C86 1_555 1_555
C87 C86 1_555 1_555
H135 C87 1_555 1_555
H136 C87 1_555 1_555
H137 C87 1_555 1_555
O11 H144 1_555 1_555
C90 O11 1_555 1_555
H145 C90 1_555 1_555
H146 C90 1_555 1_555
C91 C90 1_555 1_555
H147 C91 1_555 1_555
H148 C91 1_555 1_555
H149 C91 1_555 1_555
O13 H156 1_555 1_555
C94 O13 1_555 1_555
N1A C73A 1_555 1_555
C73A C77 1_555 1_555
H113A C73A 1_555 1_555
H114A C73A 1_555 1_555
C74A C78 1_555 1_555
H115A C74A 1_555 1_555
C77A C73 1_555 1_555
H122A C77A 1_555 1_555
C78A C74 1_555 1_555
H123A C78A 1_555 1_555
H124A C78A 1_555 1_555
C79A N1A 1_555 1_555
H125A C79A 1_555 1_555
H126A C79A 1_555 1_555
C80A C79A 1_555 1_555
C81A C80A 1_555 1_555
H127A C81A 1_555 1_555
C82A C81A 1_555 1_555
H128A C82A 1_555 1_555
C83A C82A 1_555 1_555
H129A C83A 1_555 1_555
C84A C83A 1_555 1_555
H130A C84A 1_555 1_555
C85A C80A 1_555 1_555
H131A C85A 1_555 1_555
O13A H156A 1_555 1_555
C94A C94 1_555 1_555
C5 C6 1_555 1_555
C12 C13 1_555 1_555
C19 C20 1_555 1_555
C24 C28 1_555 1_555
C26 C27 1_555 1_555
C74 C77 1_555 1_555
C84 C85 1_555 1_555
N1A C74A 1_555 1_555
N1A C77A 1_555 1_555
N1A C78A 1_555 1_555
C74A C77A 1_555 1_555
C84A C85A 1_555 1_555
O13A C94A 1_555 1_555

#END
