
#######################################################################
#
#                 Cambridge Crystallographic Data Centre
#                                CCDC 
#
#######################################################################
#
# If this CIF has been generated from an entry in the Cambridge 
# Structural Database, then it will include bibliographic, chemical, 
# crystal, experimental, refinement or atomic coordinate data resulting 
# from the CCDC's data processing and validation procedures.
#
#######################################################################

data_FEQREY
_chemical_formula_moiety         'C54 H58 O9'
_chemical_name_systematic        
'25,27-bis(1-Propyloxy)calix(4)arene dibenzocrown-7 ether'
_symmetry_cell_setting           monoclinic
_symmetry_space_group_name_H-M   'P 21/c'
_symmetry_Int_Tables_number      14
_space_group_name_Hall           '-P 2ybc'
loop_
_symmetry_equiv_pos_site_id
_symmetry_equiv_pos_as_xyz
1 x,y,z
2 x,1/2-y,1/2+z
3 -x,-y,-z
4 -x,1/2+y,1/2-z
_cell_length_a                   20.979(5)
_cell_length_b                   12.7224(11)
_cell_length_c                   17.618(6)
_cell_angle_alpha                90
_cell_angle_beta                 98.88(3)
_cell_angle_gamma                90
_cell_volume                     4645.94
_exptl_crystal_colour            colorless
_exptl_crystal_description       block
_chemical_melting_point          178-181deg.C
_cell_formula_units_Z            4
_exptl_crystal_recrystallization_method 'diethyl ether/hexanes'
loop_
_atom_site_label
_atom_site_type_symbol
_atom_site_fract_x
_atom_site_fract_y
_atom_site_fract_z
O1 O 0.10939(13) -0.1342(2) -0.00085(16)
O2 O 0.20880(14) 0.0260(2) 0.24378(16)
O3 O 0.32342(15) -0.0107(2) -0.04331(17)
O4 O 0.37111(14) -0.2320(2) 0.18747(17)
O5 O 0.4451(3) -0.4020(4) 0.1472(3)
O6 O 0.3526(3) -0.5477(4) 0.1151(3)
O7 O 0.19181(17) -0.5589(3) 0.0425(2)
O8 O 0.07827(15) -0.4628(3) -0.06133(19)
O9 O 0.05048(15) -0.2733(2) -0.12738(18)
C1 C 0.1346(2) -0.0330(3) 0.0115(3)
C2 C 0.1721(2) 0.0067(3) -0.0403(3)
C3 C 0.1941(2) 0.1093(4) -0.0299(3)
H1 H 0.2186 0.1385 -0.0643
C4 C 0.1799(3) 0.1680(4) 0.0306(3)
H2 H 0.1927 0.2380 0.0354
C5 C 0.1467(2) 0.1239(4) 0.0844(3)
H3 H 0.1394 0.1636 0.1265
C6 C 0.1241(2) 0.0213(4) 0.0769(3)
C7 C 0.0954(2) -0.0310(4) 0.1412(3)
H4 H 0.0862 0.0218 0.1777
H5 H 0.0552 -0.0651 0.1203
C8 C 0.1415(2) -0.1114(4) 0.1819(3)
C9 C 0.1981(2) -0.0800(4) 0.2281(2)
C10 C 0.2462(2) -0.1522(4) 0.2566(2)
C11 C 0.2333(2) -0.2578(4) 0.2434(3)
H6 H 0.2641 -0.3074 0.2626
C12 C 0.1757(3) -0.2907(4) 0.2024(3)
H7 H 0.1671 -0.3621 0.1961
C13 C 0.1311(2) -0.2179(4) 0.1708(3)
H8 H 0.0930 -0.2408 0.1413
C14 C 0.1867(3) 0.0589(4) 0.3130(3)
H9 H 0.1400 0.0563 0.3057
H10 H 0.2030 0.0110 0.3542
C15 C 0.2078(5) 0.1634(6) 0.3338(4)
H11 H 0.1802 0.1885 0.3693
H12 H 0.2507 0.1566 0.3633
C16 C 0.2114(4) 0.2456(5) 0.2810(4)
H13 H 0.2281 0.3075 0.3081
H14 H 0.1690 0.2599 0.2537
H15 H 0.2393 0.2252 0.2453
C17 C 0.3114(2) -0.1135(4) 0.2966(2)
H16 H 0.3050 -0.0627 0.3358
H17 H 0.3357 -0.1721 0.3215
C18 C 0.3490(2) -0.0630(4) 0.2395(3)
C19 C 0.3552(2) 0.0450(4) 0.2364(3)
H18 H 0.3399 0.0865 0.2731
C20 C 0.3839(2) 0.0921(4) 0.1795(3)
H19 H 0.3909 0.1643 0.1805
C21 C 0.4020(2) 0.0319(4) 0.1213(3)
H20 H 0.4183 0.0644 0.0810
C22 C 0.3962(2) -0.0772(4) 0.1224(3)
C23 C 0.3724(2) -0.1230(4) 0.1831(3)
C24 C 0.4091(2) -0.1429(4) 0.0542(3)
H21 H 0.4362 -0.2023 0.0724
H22 H 0.4319 -0.1007 0.0212
C25 C 0.3459(2) -0.1826(4) 0.0084(2)
C26 C 0.3265(2) -0.2847(4) 0.0151(3)
H23 H 0.3543 -0.3320 0.0437
C27 C 0.2661(2) -0.3189(4) -0.0201(3)
H24 H 0.2542 -0.3890 -0.0173
C28 C 0.2239(2) -0.2464(4) -0.0595(2)
H25 H 0.1827 -0.2680 -0.0812
C29 C 0.2417(2) -0.1430(4) -0.0673(2)
C30 C 0.1924(2) -0.0624(3) -0.1023(2)
H26 H 0.2109 -0.0192 -0.1388
H27 H 0.1549 -0.0980 -0.1298
C31 C 0.3036(2) -0.1132(4) -0.0354(2)
C32 C 0.3542(3) 0.0068(4) -0.1085(3)
H28 H 0.3236 -0.0029 -0.1551
H29 H 0.3892 -0.0431 -0.1088
C33 C 0.3804(3) 0.1176(5) -0.1052(3)
H30 H 0.3456 0.1657 -0.0996
H31 H 0.4127 0.1244 -0.0597
C34 C 0.4091(4) 0.1497(5) -0.1714(4)
H32 H 0.4235 0.2213 -0.1650
H33 H 0.3777 0.1441 -0.2170
H34 H 0.4452 0.1051 -0.1761
C35 C 0.4242(3) -0.2766(4) 0.2375(3)
H35 H 0.4147 -0.2768 0.2897
H36 H 0.4623 -0.2336 0.2366
C36 C 0.4373(3) -0.3827(5) 0.2153(3)
H37 H 0.4759 -0.4061 0.2486
H38 H 0.4021 -0.4265 0.2265
C37 C 0.4592(4) -0.5000(5) 0.1209(3)
C38 C 0.5202(4) -0.5216(6) 0.1067(4)
H39 H 0.5532 -0.4732 0.1201
C39 C 0.5323(4) -0.6136(7) 0.0732(4)
H40 H 0.5739 -0.6280 0.0643
C40 C 0.4855(4) -0.6845(6) 0.0526(4)
H41 H 0.4946 -0.7473 0.0295
C41 C 0.4247(4) -0.6638(5) 0.0657(4)
H42 H 0.3922 -0.7129 0.0515
C42 C 0.4105(4) -0.5715(5) 0.0996(4)
C43 C 0.3029(3) -0.5869(5) 0.0817(5)
H43 H 0.3044 -0.6621 0.0906
H44 H 0.3009 -0.5755 0.0270
C44 C 0.2411(3) -0.5424(5) 0.1070(3)
H45 H 0.2311 -0.5793 0.1518
H46 H 0.2459 -0.4681 0.1189
C45 C 0.1294(2) -0.5353(4) 0.0559(3)
H47 H 0.1270 -0.4623 0.0709
H48 H 0.1184 -0.5789 0.0971
C46 C 0.0832(2) -0.5555(4) -0.0167(3)
H49 H 0.0987 -0.6130 -0.0450
H50 H 0.0412 -0.5746 -0.0044
C47 C 0.0353(2) -0.4614(4) -0.1285(3)
C48 C 0.0052(2) -0.5496(4) -0.1640(3)
H51 H 0.0131 -0.6156 -0.1417
C49 C -0.0364(2) -0.5396(5) -0.2319(3)
H52 H -0.0561 -0.5990 -0.2557
C50 C -0.0490(2) -0.4434(5) -0.2646(3)
H53 H -0.0771 -0.4375 -0.3108
C51 C -0.0201(2) -0.3542(4) -0.2293(3)
H54 H -0.0287 -0.2884 -0.2516
C52 C 0.0213(2) -0.3638(4) -0.1612(3)
C53 C 0.0234(2) -0.2408(4) -0.0621(3)
H55 H 0.0372 -0.2882 -0.0196
H56 H -0.0233 -0.2435 -0.0738
C54 C 0.0444(2) -0.1314(4) -0.0400(3)
H57 H 0.0419 -0.0879 -0.0856
H58 H 0.0163 -0.1016 -0.0068
loop_
_geom_bond_atom_site_label_1
_geom_bond_atom_site_label_2
_geom_bond_site_symmetry_1
_geom_bond_site_symmetry_2
O1 C1 1_555 1_555
O2 C9 1_555 1_555
O3 C31 1_555 1_555
O4 C23 1_555 1_555
O5 C36 1_555 1_555
O6 C42 1_555 1_555
O7 C44 1_555 1_555
O8 C46 1_555 1_555
O9 C52 1_555 1_555
C1 C2 1_555 1_555
C2 C3 1_555 1_555
C3 H1 1_555 1_555
C4 C3 1_555 1_555
H2 C4 1_555 1_555
C5 C4 1_555 1_555
H3 C5 1_555 1_555
C6 C1 1_555 1_555
C7 C6 1_555 1_555
H4 C7 1_555 1_555
H5 C7 1_555 1_555
C8 C7 1_555 1_555
C9 C8 1_555 1_555
C10 C9 1_555 1_555
C11 C10 1_555 1_555
H6 C11 1_555 1_555
C12 C11 1_555 1_555
H7 C12 1_555 1_555
C13 C8 1_555 1_555
H8 C13 1_555 1_555
C14 O2 1_555 1_555
H9 C14 1_555 1_555
H10 C14 1_555 1_555
C15 C14 1_555 1_555
H11 C15 1_555 1_555
H12 C15 1_555 1_555
C16 C15 1_555 1_555
H13 C16 1_555 1_555
H14 C16 1_555 1_555
H15 C16 1_555 1_555
C17 C10 1_555 1_555
H16 C17 1_555 1_555
H17 C17 1_555 1_555
C18 C17 1_555 1_555
C19 C18 1_555 1_555
H18 C19 1_555 1_555
C20 C19 1_555 1_555
H19 C20 1_555 1_555
C21 C20 1_555 1_555
H20 C21 1_555 1_555
C22 C21 1_555 1_555
C23 C18 1_555 1_555
C24 C22 1_555 1_555
H21 C24 1_555 1_555
H22 C24 1_555 1_555
C25 C24 1_555 1_555
C26 C25 1_555 1_555
H23 C26 1_555 1_555
C27 C26 1_555 1_555
H24 C27 1_555 1_555
C28 C27 1_555 1_555
H25 C28 1_555 1_555
C29 C28 1_555 1_555
C30 C2 1_555 1_555
H26 C30 1_555 1_555
H27 C30 1_555 1_555
C31 C25 1_555 1_555
C32 O3 1_555 1_555
H28 C32 1_555 1_555
H29 C32 1_555 1_555
C33 C32 1_555 1_555
H30 C33 1_555 1_555
H31 C33 1_555 1_555
C34 C33 1_555 1_555
H32 C34 1_555 1_555
H33 C34 1_555 1_555
H34 C34 1_555 1_555
C35 O4 1_555 1_555
H35 C35 1_555 1_555
H36 C35 1_555 1_555
C36 C35 1_555 1_555
H37 C36 1_555 1_555
H38 C36 1_555 1_555
C37 O5 1_555 1_555
C38 C37 1_555 1_555
H39 C38 1_555 1_555
C39 C38 1_555 1_555
H40 C39 1_555 1_555
C40 C39 1_555 1_555
H41 C40 1_555 1_555
C41 C40 1_555 1_555
H42 C41 1_555 1_555
C42 C37 1_555 1_555
C43 O6 1_555 1_555
H43 C43 1_555 1_555
H44 C43 1_555 1_555
C44 C43 1_555 1_555
H45 C44 1_555 1_555
H46 C44 1_555 1_555
C45 O7 1_555 1_555
H47 C45 1_555 1_555
H48 C45 1_555 1_555
C46 C45 1_555 1_555
H49 C46 1_555 1_555
H50 C46 1_555 1_555
C47 O8 1_555 1_555
C48 C47 1_555 1_555
H51 C48 1_555 1_555
C49 C48 1_555 1_555
H52 C49 1_555 1_555
C50 C49 1_555 1_555
H53 C50 1_555 1_555
C51 C50 1_555 1_555
H54 C51 1_555 1_555
C52 C47 1_555 1_555
C53 O9 1_555 1_555
H55 C53 1_555 1_555
H56 C53 1_555 1_555
C54 O1 1_555 1_555
H57 C54 1_555 1_555
H58 C54 1_555 1_555
C5 C6 1_555 1_555
C12 C13 1_555 1_555
C22 C23 1_555 1_555
C29 C30 1_555 1_555
C29 C31 1_555 1_555
C41 C42 1_555 1_555
C51 C52 1_555 1_555
C53 C54 1_555 1_555

#END
