
#######################################################################
#
#                 Cambridge Crystallographic Data Centre
#                                CCDC 
#
#######################################################################
#
# If this CIF has been generated from an entry in the Cambridge 
# Structural Database, then it will include bibliographic, chemical, 
# crystal, experimental, refinement or atomic coordinate data resulting 
# from the CCDC's data processing and validation procedures.
#
#######################################################################

data_FEQRID
_chemical_formula_moiety         
'2(C40 H48 O8),1.5(C20 H26 N2 2+),3(Br1 1-),7(C1 H4 O1),0.5(H2 O1)'
_chemical_name_systematic        
"bis(4,6,10,12,16,18,22,24-Octahydroxy-2,8,14,20-tetrapropylcalix(4)arene) sesquikis(N,N'-dibenzyl-1,4-diazabicyclo(2.2.2)octane dibromide) methanol solvate hemihydrate"
_symmetry_cell_setting           triclinic
_symmetry_space_group_name_H-M   'P -1'
_symmetry_Int_Tables_number      2
_space_group_name_Hall           '-P 1'
loop_
_symmetry_equiv_pos_site_id
_symmetry_equiv_pos_as_xyz
1 x,y,z
2 -x,-y,-z
_cell_length_a                   15.8558(3)
_cell_length_b                   17.8230(4)
_cell_length_c                   20.2560(4)
_cell_angle_alpha                85.6930(10)
_cell_angle_beta                 88.5400(10)
_cell_angle_gamma                86.6320(10)
_cell_volume                     5697
_exptl_crystal_colour            colorless
_exptl_crystal_description       block
_cell_formula_units_Z            2
loop_
_atom_site_label
_atom_site_type_symbol
_atom_site_fract_x
_atom_site_fract_y
_atom_site_fract_z
C41 C -0.0683(4) 0.6929(4) 0.4144(3)
C42 C -0.0335(4) 0.7602(4) 0.4276(3)
H50 H 0.0208 0.7577 0.4466
C43 C -0.0748(3) 0.8311(4) 0.4142(3)
C44 C -0.1522(4) 0.8339(4) 0.3827(3)
O9 O -0.1914(3) 0.9034(3) 0.3681(2)
H51 H -0.238(4) 0.903(4) 0.349(3)
C45 C -0.1883(4) 0.7679(4) 0.3659(3)
H52 H -0.2401 0.7708 0.3431
C46 C -0.1465(4) 0.6974(4) 0.3834(3)
O10 O -0.1795(3) 0.6322(3) 0.3680(2)
H53 H -0.223(4) 0.643(4) 0.349(3)
C47 C -0.0366(3) 0.9023(3) 0.4359(3)
H54 H -0.0824 0.9433 0.4335
C48 C 0.0334(4) 0.9274(3) 0.3880(3)
C49 C 0.1191(4) 0.9095(3) 0.4010(3)
H55 H 0.1327 0.8815 0.4415
C50 C 0.1854(4) 0.9303(3) 0.3583(3)
C51 C 0.1628(4) 0.9696(4) 0.2998(3)
O11 O 0.2277(3) 0.9860(3) 0.2541(3)
H56 H 0.222(5) 1.022(4) 0.244(4)
C52 C 0.0793(4) 0.9901(4) 0.2849(3)
H57 H 0.0659 1.0195 0.2450
C53 C 0.0162(4) 0.9673(4) 0.3285(3)
O12 O -0.0652(3) 0.9882(3) 0.3089(2)
H58 H -0.098(4) 0.962(4) 0.335(3)
C54 C 0.2776(4) 0.9099(4) 0.3732(3)
H59 H 0.3102 0.9516 0.3514
C55 C 0.3097(3) 0.8380(4) 0.3408(3)
C56 C 0.2870(4) 0.7680(4) 0.3677(3)
H60 H 0.2473 0.7665 0.4036
C57 C 0.3191(4) 0.6995(4) 0.3452(3)
C58 C 0.3770(4) 0.7041(4) 0.2928(3)
O13 O 0.4072(3) 0.6365(3) 0.2689(2)
H61 H 0.442(4) 0.638(4) 0.241(3)
C59 C 0.3989(4) 0.7734(4) 0.2626(3)
H62 H 0.4380 0.7752 0.2263
C60 C 0.3643(4) 0.8388(4) 0.2854(3)
O14 O 0.3889(3) 0.9053(3) 0.2531(3)
H63 H 0.356(4) 0.933(4) 0.244(4)
C61 C 0.2928(4) 0.6245(4) 0.3786(3)
H64 H 0.3311 0.5847 0.3595
C62 C 0.2036(4) 0.6082(3) 0.3596(3)
C63 C 0.1341(4) 0.6167(3) 0.4034(3)
H65 H 0.1440 0.6325 0.4462
C64 C 0.0511(4) 0.6032(3) 0.3876(3)
C65 C 0.0392(4) 0.5794(4) 0.3250(3)
O15 O -0.0387(3) 0.5640(3) 0.3026(2)
H66 H -0.0767 0.5825 0.3271
C66 C 0.1066(4) 0.5705(3) 0.2805(3)
H67 H 0.0973 0.5535 0.2381
C67 C 0.1868(4) 0.5861(3) 0.2976(3)
O16 O 0.2483(3) 0.5776(3) 0.2484(3)
H68 H 0.284(5) 0.582(5) 0.260(4)
C68 C -0.0235(3) 0.6176(4) 0.4351(3)
H69 H -0.0642 0.5780 0.4293
C69 C -0.0106(4) 0.8901(4) 0.5085(3)
H70 H 0.0300 0.8457 0.5135
H71 H 0.0186 0.9345 0.5206
C70 C -0.0853(4) 0.8777(4) 0.5560(3)
H72 H -0.1184 0.9262 0.5596
H73 H -0.1225 0.8419 0.5379
C71 C -0.0579(4) 0.8474(4) 0.6238(3)
H74 H -0.1079 0.8396 0.6525
H75 H -0.0228 0.8836 0.6426
H76 H -0.0253 0.7994 0.6206
C72 C 0.2986(4) 0.9057(4) 0.4464(3)
H77 H 0.2723 0.9508 0.4662
H78 H 0.2735 0.8608 0.4690
C73 C 0.3928(4) 0.9012(4) 0.4587(3)
H79 H 0.4194 0.8574 0.4372
H80 H 0.4174 0.9472 0.4377
C74 C 0.4139(5) 0.8938(6) 0.5311(4)
H81 H 0.4754 0.8918 0.5358
H82 H 0.3915 0.8474 0.5520
H83 H 0.3884 0.9373 0.5527
C75 C 0.3090(4) 0.6185(4) 0.4529(3)
H84 H 0.2771 0.6605 0.4734
H85 H 0.2875 0.5707 0.4729
C76 C 0.4016(4) 0.6207(5) 0.4685(4)
H86 H 0.4230 0.6685 0.4485
H87 H 0.4335 0.5788 0.4479
C77 C 0.4177(5) 0.6146(6) 0.5420(4)
H88 H 0.4785 0.6157 0.5492
H89 H 0.3972 0.5671 0.5620
H90 H 0.3880 0.6570 0.5625
C78 C -0.0008(3) 0.6117(4) 0.5077(3)
H91 H 0.0329 0.5638 0.5177
H92 H 0.0351 0.6535 0.5159
C79 C -0.0768(4) 0.6143(4) 0.5546(3)
H93 H -0.1097 0.5696 0.5497
H94 H -0.1135 0.6597 0.5418
C80 C -0.0534(4) 0.6161(4) 0.6267(3)
H95 H -0.1050 0.6184 0.6543
H96 H -0.0215 0.6605 0.6320
H97 H -0.0188 0.5704 0.6402
Br1 Br 0.57531(4) 0.66291(4) 0.17462(3)
Br2 Br 0.97211(5) 0.71821(5) -0.05478(4)
N1 N 0.5027(3) 0.7299(3) -0.0364(2)
N2 N 0.6639(3) 0.7152(3) -0.0242(2)
C81 C 0.5341(4) 0.7927(4) -0.0004(3)
H98 H 0.4993 0.7992 0.0403
H99 H 0.5288 0.8404 -0.0288
C82 C 0.6267(3) 0.7753(3) 0.0180(3)
H100 H 0.6586 0.8214 0.0104
H101 H 0.6304 0.7576 0.0654
C83 C 0.5468(4) 0.7293(4) -0.1035(3)
H102 H 0.5238 0.7719 -0.1332
H103 H 0.5372 0.6818 -0.1238
C84 C 0.6412(4) 0.7363(4) -0.0948(3)
H104 H 0.6737 0.7028 -0.1242
H105 H 0.6560 0.7888 -0.1072
C85 C 0.5287(3) 0.6564(3) 0.0024(3)
H106 H 0.5010 0.6143 -0.0158
H107 H 0.5105 0.6588 0.0493
C86 C 0.6242(3) 0.6428(3) -0.0023(3)
H108 H 0.6461 0.6233 0.0414
H109 H 0.6390 0.6047 -0.0345
C87 C 0.4073(3) 0.7384(4) -0.0457(3)
H110 H 0.3930 0.7874 -0.0703
H111 H 0.3901 0.6981 -0.0727
C88 C 0.3580(4) 0.7345(4) 0.0191(3)
C89 C 0.3410(4) 0.7995(4) 0.0526(3)
H112 H 0.3584 0.8466 0.0335
C90 C 0.2987(4) 0.7959(4) 0.1136(3)
H113 H 0.2888 0.8397 0.1372
C91 C 0.2711(4) 0.7270(4) 0.1393(3)
H114 H 0.2412 0.7238 0.1806
C92 C 0.2868(4) 0.6633(4) 0.1057(3)
H115 H 0.2678 0.6164 0.1238
C93 C 0.3303(4) 0.6673(4) 0.0453(3)
H116 H 0.3409 0.6232 0.0221
C94 C 0.7606(3) 0.7076(4) -0.0193(3)
H117 H 0.7831 0.6681 -0.0480
H118 H 0.7844 0.7557 -0.0358
C95 C 0.7880(4) 0.6875(4) 0.0501(3)
C96 C 0.7954(4) 0.7402(4) 0.0957(4)
H119 H 0.7856 0.7921 0.0822
C97 C 0.8167(4) 0.7196(5) 0.1600(4)
H120 H 0.8187 0.7568 0.1910
C98 C 0.8353(5) 0.6447(6) 0.1798(4)
H121 H 0.8503 0.6298 0.2241
C99 C 0.8314(4) 0.5921(5) 0.1336(5)
H122 H 0.8439 0.5402 0.1459
C100 C 0.8091(3) 0.6151(3) 0.0687(2)
H123 H 0.8089 0.5786 0.0369
N3 N 0.0614(3) 0.9606(3) 0.0237(2)
C101 C 0.0306(3) 1.0025(3) 0.0788(2)
C102 C 0.1277(3) 0.8956(3) 0.0502(2)
C103 C 0.1135(3) 1.0181(3) -0.0232(2)
C104 C -0.0017(3) 0.9337(3) -0.0160(2)
C105 C 0.0970(7) 0.8475(5) 0.1007(5)
C106 C 0.0577(7) 0.7842(6) 0.0837(4)
C107 C 0.0262(8) 0.7342(5) 0.1330(6)
C108 C 0.0340(8) 0.7476(6) 0.1993(5)
C109 C 0.0733(8) 0.8109(7) 0.2162(4)
C110 C 0.1048(8) 0.8609(6) 0.1669(5)
C112 C 0.0480(8) 0.9422(8) -0.0456(7)
N3A N -0.0614(3) 1.0394(3) -0.0237(2)
C101A C -0.0306(3) 0.9975(3) -0.0788(2)
C102A C -0.1277(3) 1.1044(3) -0.0502(2)
C103A C -0.1135(3) 0.9819(3) 0.0232(2)
C104A C 0.0017(3) 1.0663(3) 0.0160(2)
C105A C -0.0970(7) 1.1525(5) -0.1007(5)
C106A C -0.0577(7) 1.2158(6) -0.0837(4)
C107A C -0.0262(8) 1.2658(5) -0.1330(6)
C108A C -0.0340(8) 1.2524(6) -0.1993(5)
C109A C -0.0733(8) 1.1891(7) -0.2162(4)
C110A C -0.1048(8) 1.1391(6) -0.1669(5)
C112A C -0.0480(8) 1.0578(8) 0.0456(7)
Br3 Br 0.3037(8) 1.02583(18) 0.01098(15)
O17 O 0.9640(3) 0.5978(3) -0.1646(3)
H124 H 0.963(6) 0.628(5) -0.136(4)
C121 C 1.0391(4) 0.5985(5) -0.2026(4)
H125 H 1.0415 0.6468 -0.2288
H126 H 1.0408 0.5575 -0.2323
H127 H 1.0876 0.5917 -0.1732
O18 O 0.9528(3) 0.8498(3) -0.1691(3)
H128 H 0.957(4) 0.810(4) -0.129(4)
C122 C 1.0253(4) 0.8318(5) -0.2088(4)
H129 H 1.0451 0.8779 -0.2320
H130 H 1.0107 0.7968 -0.2412
H131 H 1.0702 0.8081 -0.1806
C123 C 0.5824(5) 0.9200(6) 0.3443(5)
H132 H 0.5912 0.9440 0.3853
H133 H 0.5490 0.8757 0.3541
H134 H 0.5521 0.9559 0.3130
O19 O 0.6598(3) 0.8978(3) 0.3167(3)
H135 H 0.6529 0.8662 0.2889
C124 C 0.5987(5) 0.6570(6) 0.3576(4)
H136 H 0.6166 0.6584 0.4034
H137 H 0.5624 0.6148 0.3545
H138 H 0.5672 0.7044 0.3440
O20 O 0.6694(3) 0.6479(3) 0.3163(2)
H139 H 0.659(5) 0.651(5) 0.2759(13)
O21 O 0.6359(4) 0.8290(3) 0.2067(3)
H140 H 0.633(6) 0.788(5) 0.200(5)
C125 C 0.5847(5) 0.8770(5) 0.1660(4)
H141 H 0.5741 0.9251 0.1861
H142 H 0.5308 0.8542 0.1604
H143 H 0.6128 0.8858 0.1227
O22 O -0.1259(4) 0.9919(4) 0.1788(3)
H144 H -0.0994 0.9920 0.2142
C126 C -0.1799(6) 0.9334(6) 0.1838(6)
H145 H -0.2310 0.9483 0.2088
H146 H -0.1516 0.8888 0.2067
H147 H -0.1952 0.9215 0.1393
O23 O 0.8915(3) 0.4169(3) 0.0030(3)
H148 H 0.935(5) 0.379(5) 0.012(4)
C127 C 0.9067(5) 0.4546(5) -0.0580(4)
H149 H 0.8675 0.4991 -0.0637
H150 H 0.8984 0.4210 -0.0931
H151 H 0.9650 0.4703 -0.0603
O24 O 0.7921(6) 0.8883(6) -0.0797(5)
C1 C 0.5855(4) 0.5659(3) -0.2184(3)
C2 C 0.5005(3) 0.5736(3) -0.2316(3)
H1 H 0.4847 0.5920 -0.2750
C3 C 0.4355(3) 0.5563(3) -0.1859(3)
C4 C 0.4602(4) 0.5295(3) -0.1230(3)
O1 O 0.4043(2) 0.5133(3) -0.07086(19)
H2 H 0.3545 0.5196 -0.0843
C5 C 0.5450(4) 0.5179(3) -0.1076(3)
H3 H 0.5606 0.4965 -0.0650
C6 C 0.6072(4) 0.5374(3) -0.1543(3)
O2 O 0.6887(3) 0.5304(3) -0.1315(2)
H4 H 0.720(4) 0.535(4) -0.157(3)
C7 C 0.3424(4) 0.5687(3) -0.2035(3)
H5 H 0.3126 0.5270 -0.1789
C8 C 0.3047(3) 0.6416(4) -0.1776(3)
C9 C 0.3247(3) 0.7113(4) -0.2076(3)
H6 H 0.3868 0.7133 -0.2050
C10 C 0.2907(3) 0.7792(4) -0.1885(3)
C11 C 0.2357(4) 0.7780(4) -0.1335(3)
O3 O 0.1975(3) 0.8410(2) -0.1090(2)
H8 H 0.2343 0.8712 -0.1016
C12 C 0.2151(4) 0.7103(4) -0.1017(3)
H9 H 0.1530 0.7080 -0.1038
C13 C 0.2509(4) 0.6425(4) -0.1223(3)
O4 O 0.2344(3) 0.5738(3) -0.0893(2)
H11 H 0.207(4) 0.584(4) -0.054(3)
C14 C 0.3113(4) 0.8541(4) -0.2280(3)
C15 C 0.4001(4) 0.8773(3) -0.2115(3)
C16 C 0.4734(3) 0.8643(3) -0.2510(3)
H12 H 0.4678 0.8395 -0.2904
C17 C 0.5520(4) 0.8852(3) -0.2361(3)
C18 C 0.5592(4) 0.9207(4) -0.1781(3)
O5 O 0.6384(3) 0.9411(3) -0.1620(2)
H13 H 0.640(5) 0.964(4) -0.134(3)
C19 C 0.4887(4) 0.9358(4) -0.1366(3)
H14 H 0.4942 0.9606 -0.0972
C20 C 0.4117(4) 0.9135(4) -0.1549(3)
O6 O 0.3402(3) 0.9272(3) -0.1154(2)
H15 H 0.346(4) 0.956(4) -0.084(3)
C21 C 0.6316(3) 0.8717(3) -0.2799(3)
H16 H 0.6687 0.9141 -0.2742
C22 C 0.6819(4) 0.7992(4) -0.2570(3)
C23 C 0.6490(4) 0.7290(4) -0.2653(3)
H17 H 0.5928 0.7291 -0.2804
C24 C 0.6917(4) 0.6605(4) -0.2533(3)
C25 C 0.7737(3) 0.6612(4) -0.2283(3)
O7 O 0.8150(3) 0.5928(3) -0.2138(2)
H18 H 0.862(4) 0.599(4) -0.193(3)
C26 C 0.8081(4) 0.7289(4) -0.2171(3)
H19 H 0.8628 0.7287 -0.1989
C27 C 0.7631(4) 0.7967(4) -0.2324(3)
O8 O 0.8000(3) 0.8632(3) -0.2227(2)
H20 H 0.833(4) 0.859(5) -0.202(4)
C28 C 0.6545(4) 0.5881(4) -0.2689(3)
H21 H 0.7010 0.5478 -0.2640
C29 C 0.3257(4) 0.5630(4) -0.2765(3)
H22 H 0.3556 0.5167 -0.2912
H23 H 0.3492 0.6066 -0.3023
C30 C 0.2310(4) 0.5612(4) -0.2913(3)
H24 H 0.2083 0.5159 -0.2676
H25 H 0.2006 0.6060 -0.2740
C31 C 0.2140(4) 0.5602(5) -0.3644(3)
H26 H 0.2309 0.6075 -0.3876
H27 H 0.1536 0.5549 -0.3705
H28 H 0.2466 0.5177 -0.3824
C32 C 0.2992(4) 0.8495(4) -0.3023(3)
H29 H 0.3150 0.8973 -0.3262
H30 H 0.3374 0.8084 -0.3182
C33 C 0.2091(4) 0.8351(5) -0.3181(3)
H31 H 0.1713 0.8774 -0.3039
H32 H 0.1925 0.7886 -0.2925
C34 C 0.1968(5) 0.8267(6) -0.3927(4)
H33 H 0.1375 0.8178 -0.4002
H34 H 0.2329 0.7841 -0.4067
H35 H 0.2122 0.8730 -0.4182
C35 C 0.6120(4) 0.8743(4) -0.3537(3)
H36 H 0.5780 0.8311 -0.3616
H37 H 0.5774 0.9211 -0.3659
C36 C 0.6912(4) 0.8717(4) -0.3982(3)
H38 H 0.7249 0.9152 -0.3906
H39 H 0.7260 0.8251 -0.3857
C37 C 0.6713(4) 0.8737(5) -0.4710(3)
H40 H 0.7242 0.8720 -0.4972
H41 H 0.6378 0.9202 -0.4839
H42 H 0.6392 0.8301 -0.4791
C38 C 0.6261(4) 0.5907(4) -0.3411(3)
H43 H 0.5988 0.5435 -0.3484
H44 H 0.5837 0.6332 -0.3493
C39 C 0.7000(4) 0.6001(4) -0.3901(3)
H45 H 0.7404 0.5558 -0.3837
H46 H 0.7296 0.6453 -0.3805
C40 C 0.6730(4) 0.6082(5) -0.4623(3)
H47 H 0.6379 0.5667 -0.4708
H48 H 0.7233 0.6068 -0.4914
H49 H 0.6406 0.6563 -0.4709
H7? H 0.3121 0.7101 -0.2551
H10? H 0.2287 0.7121 -0.0545
N4? N 0.0365(7) 0.9274(7) 0.0273(6)
C111? C -0.0545(8) 0.9064(8) 0.0377(6)
C113? C 0.0488(11) 1.0068(9) 0.0598(9)
C114? C 0.0991(9) 0.8604(9) 0.0503(8)
C115? C 0.0832(8) 0.8307(6) 0.1210(4)
C116? C 0.0413(7) 0.7641(6) 0.1261(4)
C117? C 0.0276(7) 0.7269(5) 0.1879(5)
C118? C 0.0558(6) 0.7562(5) 0.2445(4)
C119? C 0.0977(7) 0.8228(6) 0.2394(4)
C120? C 0.1114(8) 0.8601(5) 0.1776(5)
Br4? Br 0.3571(5) 1.01757(14) 0.01101(8)
loop_
_geom_bond_atom_site_label_1
_geom_bond_atom_site_label_2
_geom_bond_site_symmetry_1
_geom_bond_site_symmetry_2
C1 C2 1_555 1_555
C2 H1 1_555 1_555
C3 C2 1_555 1_555
C4 C3 1_555 1_555
O1 C4 1_555 1_555
H2 O1 1_555 1_555
C5 C4 1_555 1_555
H3 C5 1_555 1_555
C6 C1 1_555 1_555
O2 C6 1_555 1_555
H4 O2 1_555 1_555
C7 C3 1_555 1_555
H5 C7 1_555 1_555
C8 C7 1_555 1_555
C9 C8 1_555 1_555
H6 C9 1_555 1_555
C10 C9 1_555 1_555
C11 C10 1_555 1_555
O3 C11 1_555 1_555
H8 O3 1_555 1_555
C12 C11 1_555 1_555
H9 C12 1_555 1_555
C13 C8 1_555 1_555
O4 C13 1_555 1_555
H11 O4 1_555 1_555
C14 C10 1_555 1_555
C15 C14 1_555 1_555
C16 C15 1_555 1_555
H12 C16 1_555 1_555
C17 C16 1_555 1_555
C18 C17 1_555 1_555
O5 C18 1_555 1_555
H13 O5 1_555 1_555
C19 C18 1_555 1_555
H14 C19 1_555 1_555
C20 C15 1_555 1_555
O6 C20 1_555 1_555
H15 O6 1_555 1_555
C21 C17 1_555 1_555
H16 C21 1_555 1_555
C22 C21 1_555 1_555
C23 C22 1_555 1_555
H17 C23 1_555 1_555
C24 C23 1_555 1_555
C25 C24 1_555 1_555
O7 C25 1_555 1_555
H18 O7 1_555 1_555
C26 C25 1_555 1_555
H19 C26 1_555 1_555
C27 C22 1_555 1_555
O8 C27 1_555 1_555
H20 O8 1_555 1_555
C28 C1 1_555 1_555
H21 C28 1_555 1_555
C29 C7 1_555 1_555
H22 C29 1_555 1_555
H23 C29 1_555 1_555
C30 C29 1_555 1_555
H24 C30 1_555 1_555
H25 C30 1_555 1_555
C31 C30 1_555 1_555
H26 C31 1_555 1_555
H27 C31 1_555 1_555
H28 C31 1_555 1_555
C32 C14 1_555 1_555
H29 C32 1_555 1_555
H30 C32 1_555 1_555
C33 C32 1_555 1_555
H31 C33 1_555 1_555
H32 C33 1_555 1_555
C34 C33 1_555 1_555
H33 C34 1_555 1_555
H34 C34 1_555 1_555
H35 C34 1_555 1_555
C35 C21 1_555 1_555
H36 C35 1_555 1_555
H37 C35 1_555 1_555
C36 C35 1_555 1_555
H38 C36 1_555 1_555
H39 C36 1_555 1_555
C37 C36 1_555 1_555
H40 C37 1_555 1_555
H41 C37 1_555 1_555
H42 C37 1_555 1_555
C38 C28 1_555 1_555
H43 C38 1_555 1_555
H44 C38 1_555 1_555
C39 C38 1_555 1_555
H45 C39 1_555 1_555
H46 C39 1_555 1_555
C40 C39 1_555 1_555
H47 C40 1_555 1_555
H48 C40 1_555 1_555
H49 C40 1_555 1_555
C41 C42 1_555 1_555
C42 H50 1_555 1_555
C43 C42 1_555 1_555
C44 C43 1_555 1_555
O9 C44 1_555 1_555
H51 O9 1_555 1_555
C45 C44 1_555 1_555
H52 C45 1_555 1_555
C46 C41 1_555 1_555
O10 C46 1_555 1_555
H53 O10 1_555 1_555
C47 C43 1_555 1_555
H54 C47 1_555 1_555
C48 C47 1_555 1_555
C49 C48 1_555 1_555
H55 C49 1_555 1_555
C50 C49 1_555 1_555
C51 C50 1_555 1_555
O11 C51 1_555 1_555
H56 O11 1_555 1_555
C52 C51 1_555 1_555
H57 C52 1_555 1_555
C53 C48 1_555 1_555
O12 C53 1_555 1_555
H58 O12 1_555 1_555
C54 C50 1_555 1_555
H59 C54 1_555 1_555
C55 C54 1_555 1_555
C56 C55 1_555 1_555
H60 C56 1_555 1_555
C57 C56 1_555 1_555
C58 C57 1_555 1_555
O13 C58 1_555 1_555
H61 O13 1_555 1_555
C59 C58 1_555 1_555
H62 C59 1_555 1_555
C60 C55 1_555 1_555
O14 C60 1_555 1_555
H63 O14 1_555 1_555
C61 C57 1_555 1_555
H64 C61 1_555 1_555
C62 C61 1_555 1_555
C63 C62 1_555 1_555
H65 C63 1_555 1_555
C64 C63 1_555 1_555
C65 C64 1_555 1_555
O15 C65 1_555 1_555
H66 O15 1_555 1_555
C66 C65 1_555 1_555
H67 C66 1_555 1_555
C67 C62 1_555 1_555
O16 C67 1_555 1_555
H68 O16 1_555 1_555
C68 C41 1_555 1_555
H69 C68 1_555 1_555
C69 C47 1_555 1_555
H70 C69 1_555 1_555
H71 C69 1_555 1_555
C70 C69 1_555 1_555
H72 C70 1_555 1_555
H73 C70 1_555 1_555
C71 C70 1_555 1_555
H74 C71 1_555 1_555
H75 C71 1_555 1_555
H76 C71 1_555 1_555
C72 C54 1_555 1_555
H77 C72 1_555 1_555
H78 C72 1_555 1_555
C73 C72 1_555 1_555
H79 C73 1_555 1_555
H80 C73 1_555 1_555
C74 C73 1_555 1_555
H81 C74 1_555 1_555
H82 C74 1_555 1_555
H83 C74 1_555 1_555
C75 C61 1_555 1_555
H84 C75 1_555 1_555
H85 C75 1_555 1_555
C76 C75 1_555 1_555
H86 C76 1_555 1_555
H87 C76 1_555 1_555
C77 C76 1_555 1_555
H88 C77 1_555 1_555
H89 C77 1_555 1_555
H90 C77 1_555 1_555
C78 C68 1_555 1_555
H91 C78 1_555 1_555
H92 C78 1_555 1_555
C79 C78 1_555 1_555
H93 C79 1_555 1_555
H94 C79 1_555 1_555
C80 C79 1_555 1_555
H95 C80 1_555 1_555
H96 C80 1_555 1_555
H97 C80 1_555 1_555
N1 C81 1_555 1_555
N2 C82 1_555 1_555
C81 H98 1_555 1_555
H99 C81 1_555 1_555
C82 C81 1_555 1_555
H100 C82 1_555 1_555
H101 C82 1_555 1_555
C83 N1 1_555 1_555
H102 C83 1_555 1_555
H103 C83 1_555 1_555
C84 N2 1_555 1_555
H104 C84 1_555 1_555
H105 C84 1_555 1_555
C85 N1 1_555 1_555
H106 C85 1_555 1_555
H107 C85 1_555 1_555
C86 N2 1_555 1_555
H108 C86 1_555 1_555
H109 C86 1_555 1_555
C87 N1 1_555 1_555
H110 C87 1_555 1_555
H111 C87 1_555 1_555
C88 C87 1_555 1_555
C89 C88 1_555 1_555
H112 C89 1_555 1_555
C90 C89 1_555 1_555
H113 C90 1_555 1_555
C91 C90 1_555 1_555
H114 C91 1_555 1_555
C92 C91 1_555 1_555
H115 C92 1_555 1_555
C93 C88 1_555 1_555
H116 C93 1_555 1_555
C94 N2 1_555 1_555
H117 C94 1_555 1_555
H118 C94 1_555 1_555
C95 C94 1_555 1_555
C96 C95 1_555 1_555
H119 C96 1_555 1_555
C97 C96 1_555 1_555
H120 C97 1_555 1_555
C98 C97 1_555 1_555
H121 C98 1_555 1_555
C99 C98 1_555 1_555
H122 C99 1_555 1_555
C100 C95 1_555 1_555
H123 C100 1_555 1_555
N3 C101 1_555 1_555
C101 C104A 1_555 1_555
C102 N3 1_555 1_555
C103 N3 1_555 1_555
C104 N3 1_555 1_555
C105 C102 1_555 1_555
C106 C105 1_555 1_555
C107 C106 1_555 1_555
C108 C107 1_555 1_555
C109 C108 1_555 1_555
C110 C105 1_555 1_555
C112 N3 1_555 1_555
O17 H124 1_555 1_555
C121 O17 1_555 1_555
H125 C121 1_555 1_555
H126 C121 1_555 1_555
H127 C121 1_555 1_555
O18 H128 1_555 1_555
C122 O18 1_555 1_555
H129 C122 1_555 1_555
H130 C122 1_555 1_555
H131 C122 1_555 1_555
C123 H132 1_555 1_555
H133 C123 1_555 1_555
H134 C123 1_555 1_555
O19 C123 1_555 1_555
H135 O19 1_555 1_555
C124 H136 1_555 1_555
H137 C124 1_555 1_555
H138 C124 1_555 1_555
O20 C124 1_555 1_555
H139 O20 1_555 1_555
O21 H140 1_555 1_555
C125 O21 1_555 1_555
H141 C125 1_555 1_555
H142 C125 1_555 1_555
H143 C125 1_555 1_555
O22 H144 1_555 1_555
C126 O22 1_555 1_555
H145 C126 1_555 1_555
H146 C126 1_555 1_555
H147 C126 1_555 1_555
O23 H148 1_555 1_555
C127 O23 1_555 1_555
H149 C127 1_555 1_555
H150 C127 1_555 1_555
H151 C127 1_555 1_555
N3A C101A 1_555 1_555
C101A C104 1_555 1_555
C102A N3A 1_555 1_555
C103A N3A 1_555 1_555
C104A N3A 1_555 1_555
C105A C102A 1_555 1_555
C106A C105A 1_555 1_555
C107A C106A 1_555 1_555
C108A C107A 1_555 1_555
C109A C108A 1_555 1_555
C110A C105A 1_555 1_555
C112A C101 1_555 1_555
C5 C6 1_555 1_555
C12 C13 1_555 1_555
C19 C20 1_555 1_555
C24 C28 1_555 1_555
C26 C27 1_555 1_555
C45 C46 1_555 1_555
C52 C53 1_555 1_555
C59 C60 1_555 1_555
C64 C68 1_555 1_555
C66 C67 1_555 1_555
C83 C84 1_555 1_555
C85 C86 1_555 1_555
C92 C93 1_555 1_555
C99 C100 1_555 1_555
C104 C112 1_555 1_555
C109 C110 1_555 1_555
C112 C101A 1_555 1_555
N3A C112A 1_555 1_555
C104A C112A 1_555 1_555
C109A C110A 1_555 1_555

#END
