
#######################################################################
#
#                 Cambridge Crystallographic Data Centre
#                                CCDC 
#
#######################################################################
#
# If this CIF has been generated from an entry in the Cambridge 
# Structural Database, then it will include bibliographic, chemical, 
# crystal, experimental, refinement or atomic coordinate data resulting 
# from the CCDC's data processing and validation procedures.
#
#######################################################################

data_FEQXAC
_chemical_formula_moiety         'C158 H140 N12 O6'
_chemical_name_systematic        
tetrakis(triptycenetriamine)hexakis(2-methoxy-5-t-butylbenzene-1,3-dimethylene)
_symmetry_cell_setting           rhombohedral
_symmetry_space_group_name_H-M   'R 3'
_symmetry_Int_Tables_number      146
_space_group_name_Hall           'R 3'
loop_
_symmetry_equiv_pos_site_id
_symmetry_equiv_pos_as_xyz
1 x,y,z
2 -y,x-y,z
3 -x+y,-x,z
4 2/3+x,1/3+y,1/3+z
5 2/3-y,1/3+x-y,1/3+z
6 2/3-x+y,1/3-x,1/3+z
7 1/3+x,2/3+y,2/3+z
8 1/3-y,2/3+x-y,2/3+z
9 1/3-x+y,2/3-x,2/3+z
_cell_length_a                   30.374(4)
_cell_length_b                   30.374(4)
_cell_length_c                   25.851(5)
_cell_angle_alpha                90
_cell_angle_beta                 90
_cell_angle_gamma                120
_cell_volume                     20654.4
_exptl_crystal_colour            orange
_exptl_crystal_description       prism
_cell_formula_units_Z            3
loop_
_atom_site_label
_atom_site_type_symbol
_atom_site_fract_x
_atom_site_fract_y
_atom_site_fract_z
O1 O 0.21755(7) 0.08792(8) 0.27084(8)
O2 O 0.05396(8) -0.13937(8) 0.58699(13)
N1 N 0.20471(7) -0.08931(8) 0.61481(8)
N2 N 0.34319(7) 0.09399(8) 0.33697(8)
N3 N -0.05578(7) -0.28783(8) 0.61427(9)
N4 N 0.18745(7) 0.05650(7) 0.11537(8)
C1 C 0.37014(8) 0.10537(9) 0.55831(9)
H1 H 0.4048 0.1151 0.5715
C2 C 0.27967(7) 0.07994(8) 0.52262(8)
H2 H 0.2452 0.0704 0.5091
C3 C 0.28058(8) 0.03922(8) 0.55586(9)
C4 C 0.32913(8) 0.05353(8) 0.57538(9)
C5 C 0.33458(8) 0.01934(9) 0.60803(9)
H3 H 0.3670 0.0283 0.6217
C6 C 0.29327(9) -0.02674(9) 0.62011(9)
H4 H 0.2976 -0.0496 0.6417
C7 C 0.24420(8) -0.04092(8) 0.60097(9)
C8 C 0.23905(8) -0.00760(9) 0.56867(10)
H5 H 0.2065 -0.0168 0.5550
C9 C 0.31935(7) 0.09030(7) 0.47984(9)
C10 C 0.36605(8) 0.10372(8) 0.49897(8)
C11 C 0.40565(8) 0.11344(8) 0.46400(10)
H6 H 0.4385 0.1227 0.4767
C12 C 0.39659(9) 0.10946(8) 0.41173(9)
H7 H 0.4233 0.1156 0.3885
C13 C 0.34941(8) 0.09676(8) 0.39234(9)
C14 C 0.30933(8) 0.08506(8) 0.42817(9)
H8 H 0.2758 0.0737 0.4160
C15 C 0.30402(8) 0.12863(8) 0.55623(10)
C16 C 0.35157(9) 0.14120(8) 0.57465(8)
C17 C 0.37739(8) 0.18410(9) 0.60659(10)
H9 H 0.4099 0.1931 0.6202
C18 C 0.35503(10) 0.21361(10) 0.61833(11)
H10 H 0.3726 0.2429 0.6395
C19 C 0.30629(9) 0.19979(9) 0.59863(10)
C20 C 0.28026(10) 0.15769(9) 0.56702(9)
H11 H 0.2479 0.1486 0.5531
C21 C 0.0000 0.0000 0.01630(12)
H12 H 0.0000 0.0000 -0.0224
C22 C 0.0000 0.0000 0.11701(15)
H13 H 0.0000 0.0000 0.1557
C23 C 0.05200(8) 0.01665(8) 0.09277(9)
C24 C 0.05296(8) 0.01735(9) 0.03903(9)
C25 C 0.09591(8) 0.03120(9) 0.01069(9)
H14 H 0.0955 0.0313 -0.0261
C26 C 0.14125(9) 0.04548(9) 0.03881(9)
H15 H 0.1720 0.0555 0.0205
C27 C 0.14160(8) 0.04502(8) 0.09281(9)
C28 C 0.09619(8) 0.03011(8) 0.12043(9)
H16 H 0.0958 0.0293 0.1572
C29 C 0.30897(9) 0.10069(9) 0.31608(9)
H17 H 0.2887 0.1090 0.3374
C30 C 0.30024(9) 0.09608(8) 0.26112(10)
C31 C 0.25625(9) 0.09022(8) 0.23841(10)
C32 C 0.18423(16) 0.04004(15) 0.29108(18)
H18 H 0.1662 0.0164 0.2627
H19 H 0.1596 0.0423 0.3138
H20 H 0.2035 0.0278 0.3109
C33 C 0.24621(9) 0.08365(9) 0.18585(10)
C34 C 0.20007(10) 0.07480(10) 0.16297(10)
H21 H 0.1778 0.0821 0.1821
C35 C 0.28658(8) 0.08790(8) 0.15287(11)
H22 H 0.2826 0.0867 0.1164
C36 C 0.33155(9) 0.09377(8) 0.17436(10)
C37 C 0.33733(8) 0.09757(8) 0.22671(10)
H23 H 0.3679 0.1014 0.2410
C38 C 0.37346(9) 0.09564(10) 0.13913(10)
C39 C 0.36049(14) 0.09606(18) 0.08161(10)
H24 H 0.3896 0.1019 0.0603
H25 H 0.3527 0.1233 0.0755
H26 H 0.3309 0.0632 0.0724
C40 C 0.37546(11) 0.04621(11) 0.14859(12)
H27 H 0.3810 0.0432 0.1855
H28 H 0.4034 0.0474 0.1285
H29 H 0.3433 0.0168 0.1377
C41 C 0.42338(11) 0.14257(14) 0.15266(13)
H30 H 0.4182 0.1602 0.1818
H31 H 0.4359 0.1653 0.1227
H32 H 0.4484 0.1326 0.1623
C42 C 0.15877(9) -0.10295(10) 0.60736(11)
H33 H 0.1496 -0.0804 0.5917
C43 C 0.11881(9) -0.15476(9) 0.62334(9)
C44 C 0.06806(10) -0.17196(10) 0.61300(12)
C45 C 0.0457(4) -0.1450(3) 0.5322(3)
H34 H 0.0257 -0.1812 0.5235
H35 H 0.0786 -0.1298 0.5144
H36 H 0.0273 -0.1277 0.5213
C46 C 0.03102(8) -0.22118(10) 0.62393(10)
C47 C -0.02259(9) -0.24148(11) 0.60966(12)
H37 H -0.0327 -0.2187 0.5964
C48 C 0.04534(9) -0.25256(10) 0.64973(10)
H38 H 0.0202 -0.2865 0.6577
C49 C 0.09589(9) -0.23517(10) 0.66417(11)
C50 C 0.13155(9) -0.18709(10) 0.64806(10)
H39 H 0.1665 -0.1757 0.6543
C51 C 0.11297(10) -0.26902(11) 0.68994(13)
C52 C 0.15168(17) -0.2399(2) 0.7311(2)
H40 H 0.1778 -0.2072 0.7170
H41 H 0.1675 -0.2595 0.7425
H42 H 0.1350 -0.2340 0.7605
C53 C 0.06752(13) -0.32075(17) 0.7089(2)
H43 H 0.0470 -0.3142 0.7337
H44 H 0.0807 -0.3408 0.7257
H45 H 0.0464 -0.3396 0.6793
C54 C 0.14186(16) -0.28515(16) 0.6488(2)
H46 H 0.1173 -0.3088 0.6236
H47 H 0.1581 -0.3017 0.6668
H48 H 0.1678 -0.2548 0.6308
O1A O -0.08792(8) 0.12963(11) 0.27084(8)
O2A O 0.13937(8) 0.19333(11) 0.58699(13)
N1A N 0.08931(8) 0.29402(11) 0.61481(8)
N2A N -0.09399(8) 0.24920(11) 0.33697(8)
N3A N 0.28783(8) 0.23205(11) 0.61427(9)
N4A N -0.05650(7) 0.13095(10) 0.11537(8)
C1A C -0.10537(9) 0.26477(12) 0.55831(9)
H1A H -0.1151 0.2897 0.5715
C2A C -0.07994(8) 0.19973(11) 0.52262(8)
H2A H -0.0704 0.1748 0.5091
C3A C -0.03922(8) 0.24136(11) 0.55586(9)
C4A C -0.05353(8) 0.27560(11) 0.57538(9)
C5A C -0.01934(9) 0.31524(12) 0.60803(9)
H3A H -0.0283 0.3387 0.6217
C6A C 0.02674(9) 0.32001(13) 0.62011(9)
H4A H 0.0496 0.3472 0.6417
C7A C 0.04092(8) 0.28512(11) 0.60097(9)
C8A C 0.00760(9) 0.24665(12) 0.56867(10)
H5A H 0.0168 0.2233 0.5550
C9A C -0.09030(7) 0.22905(10) 0.47984(9)
C10A C -0.10372(8) 0.26233(11) 0.49897(8)
C11A C -0.11344(8) 0.29221(11) 0.46400(10)
H6A H -0.1227 0.3158 0.4767
C12A C -0.10946(8) 0.28713(12) 0.41173(9)
H7A H -0.1156 0.3077 0.3885
C13A C -0.09676(8) 0.25265(11) 0.39234(9)
C14A C -0.08506(8) 0.22427(11) 0.42817(9)
H8A H -0.0737 0.2021 0.4160
C15A C -0.12863(8) 0.17539(11) 0.55623(10)
C16A C -0.14120(8) 0.21037(12) 0.57465(8)
C17A C -0.18410(9) 0.19329(12) 0.60659(10)
H9A H -0.1931 0.2168 0.6202
C18A C -0.21361(10) 0.14142(14) 0.61833(11)
H10A H -0.2429 0.1297 0.6395
C19A C -0.19979(9) 0.10650(13) 0.59863(10)
C20A C -0.15769(9) 0.12257(13) 0.56702(9)
H11A H -0.1486 0.0993 0.5531
C23A C -0.01665(8) 0.03535(11) 0.09277(9)
C24A C -0.01735(9) 0.03561(12) 0.03903(9)
C25A C -0.03120(9) 0.06471(12) 0.01069(9)
H14A H -0.0313 0.0642 -0.0261
C26A C -0.04548(9) 0.09577(13) 0.03881(9)
H15A H -0.0555 0.1165 0.0205
C27A C -0.04502(8) 0.09658(11) 0.09281(9)
C28A C -0.03011(8) 0.06608(11) 0.12043(9)
H16A H -0.0293 0.0665 0.1572
C29A C -0.10069(9) 0.20828(13) 0.31608(9)
H17A H -0.1090 0.1797 0.3374
C30A C -0.09608(8) 0.20416(12) 0.26112(10)
C31A C -0.09022(8) 0.16603(12) 0.23841(10)
C32A C -0.04004(15) 0.14419(22) 0.29108(18)
H18A H -0.0164 0.1498 0.2627
H19A H -0.0423 0.1173 0.3138
H20A H -0.0278 0.1757 0.3109
C33A C -0.08365(9) 0.16256(13) 0.18585(10)
C34A C -0.07480(10) 0.12527(14) 0.16297(10)
H21A H -0.0821 0.0957 0.1821
C35A C -0.08790(8) 0.19868(11) 0.15287(11)
H22A H -0.0867 0.1959 0.1164
C36A C -0.09377(8) 0.23778(12) 0.17436(10)
C37A C -0.09757(8) 0.23976(11) 0.22671(10)
H23A H -0.1014 0.2665 0.2410
C38A C -0.09564(10) 0.27782(13) 0.13913(10)
C39A C -0.09606(18) 0.26443(23) 0.08161(10)
H24A H -0.1019 0.2877 0.0603
H25A H -0.1233 0.2294 0.0755
H26A H -0.0632 0.2677 0.0724
C40A C -0.04621(11) 0.32925(16) 0.14859(12)
H27A H -0.0432 0.3378 0.1855
H28A H -0.0474 0.3560 0.1285
H29A H -0.0168 0.3265 0.1377
C41A C -0.14257(14) 0.28081(18) 0.15266(13)
H30A H -0.1602 0.2580 0.1818
H31A H -0.1653 0.2706 0.1227
H32A H -0.1326 0.3158 0.1623
C42A C 0.10295(10) 0.26172(13) 0.60736(11)
H33A H 0.0804 0.2300 0.5917
C43A C 0.15476(9) 0.27357(13) 0.62334(9)
C44A C 0.17196(10) 0.24002(14) 0.61300(12)
C45A C 0.1450(3) 0.1907(5) 0.5322(3)
H34A H 0.1812 0.2069 0.5235
H35A H 0.1298 0.2084 0.5144
H36A H 0.1277 0.1550 0.5213
C46A C 0.22118(10) 0.25220(13) 0.62393(10)
C47A C 0.24148(11) 0.21889(14) 0.60966(12)
H37A H 0.2187 0.1860 0.5964
C48A C 0.25256(10) 0.29790(13) 0.64973(10)
H38A H 0.2865 0.3067 0.6577
C49A C 0.23517(10) 0.33106(13) 0.66417(11)
C50A C 0.18709(10) 0.31864(13) 0.64806(10)
H39A H 0.1757 0.3422 0.6543
C51A C 0.26902(11) 0.38199(15) 0.68994(13)
C52A C 0.2399(2) 0.39158(26) 0.7311(2)
H40A H 0.2072 0.3850 0.7170
H41A H 0.2595 0.4270 0.7425
H42A H 0.2340 0.3690 0.7605
C53A C 0.32075(17) 0.38827(21) 0.7089(2)
H43A H 0.3142 0.3612 0.7337
H44A H 0.3408 0.4215 0.7257
H45A H 0.3396 0.3860 0.6793
C54A C 0.28515(16) 0.42701(23) 0.6488(2)
H46A H 0.3088 0.4261 0.6236
H47A H 0.3017 0.4598 0.6668
H48A H 0.2548 0.4226 0.6308
O1B O -0.12963(11) -0.21755(7) 0.27084(8)
O2B O -0.19333(11) -0.05396(8) 0.58699(13)
N1B N -0.29402(11) -0.20471(7) 0.61481(8)
N2B N -0.24920(11) -0.34319(7) 0.33697(8)
N3B N -0.23205(11) 0.05578(7) 0.61427(9)
N4B N -0.13095(10) -0.18745(7) 0.11537(8)
C1B C -0.26477(12) -0.37014(8) 0.55831(9)
H1B H -0.2897 -0.4048 0.5715
C2B C -0.19973(11) -0.27967(7) 0.52262(8)
H2B H -0.1748 -0.2452 0.5091
C3B C -0.24136(11) -0.28058(8) 0.55586(9)
C4B C -0.27560(11) -0.32913(8) 0.57538(9)
C5B C -0.31524(12) -0.33458(8) 0.60803(9)
H3B H -0.3387 -0.3670 0.6217
C6B C -0.32001(13) -0.29327(9) 0.62011(9)
H4B H -0.3472 -0.2976 0.6417
C7B C -0.28512(11) -0.24420(8) 0.60097(9)
C8B C -0.24665(12) -0.23905(8) 0.56867(10)
H5B H -0.2233 -0.2065 0.5550
C9B C -0.22905(10) -0.31935(7) 0.47984(9)
C10B C -0.26233(11) -0.36605(8) 0.49897(8)
C11B C -0.29221(11) -0.40565(8) 0.46400(10)
H6B H -0.3158 -0.4385 0.4767
C12B C -0.28713(12) -0.39659(9) 0.41173(9)
H7B H -0.3077 -0.4233 0.3885
C13B C -0.25265(11) -0.34941(8) 0.39234(9)
C14B C -0.22427(11) -0.30933(8) 0.42817(9)
H8B H -0.2021 -0.2758 0.4160
C15B C -0.17539(11) -0.30402(8) 0.55623(10)
C16B C -0.21037(12) -0.35157(9) 0.57465(8)
C17B C -0.19329(12) -0.37739(8) 0.60659(10)
H9B H -0.2168 -0.4099 0.6202
C18B C -0.14142(14) -0.35503(10) 0.61833(11)
H10B H -0.1297 -0.3726 0.6395
C19B C -0.10650(13) -0.30629(9) 0.59863(10)
C20B C -0.12257(13) -0.28026(10) 0.56702(9)
H11B H -0.0993 -0.2479 0.5531
C23B C -0.03535(11) -0.05200(8) 0.09277(9)
C24B C -0.03561(12) -0.05296(8) 0.03903(9)
C25B C -0.06471(12) -0.09591(8) 0.01069(9)
H14B H -0.0642 -0.0955 -0.0261
C26B C -0.09577(13) -0.14125(9) 0.03881(9)
H15B H -0.1165 -0.1720 0.0205
C27B C -0.09658(11) -0.14160(8) 0.09281(9)
C28B C -0.06608(11) -0.09619(8) 0.12043(9)
H16B H -0.0665 -0.0958 0.1572
C29B C -0.20828(13) -0.30897(9) 0.31608(9)
H17B H -0.1797 -0.2887 0.3374
C30B C -0.20416(12) -0.30024(9) 0.26112(10)
C31B C -0.16603(12) -0.25625(9) 0.23841(10)
C32B C -0.14419(22) -0.18423(16) 0.29108(18)
H18B H -0.1498 -0.1662 0.2627
H19B H -0.1173 -0.1596 0.3138
H20B H -0.1757 -0.2035 0.3109
C33B C -0.16256(13) -0.24621(9) 0.18585(10)
C34B C -0.12527(14) -0.20007(10) 0.16297(10)
H21B H -0.0957 -0.1778 0.1821
C35B C -0.19868(11) -0.28658(8) 0.15287(11)
H22B H -0.1959 -0.2826 0.1164
C36B C -0.23778(12) -0.33155(9) 0.17436(10)
C37B C -0.23976(11) -0.33733(8) 0.22671(10)
H23B H -0.2665 -0.3679 0.2410
C38B C -0.27782(13) -0.37346(9) 0.13913(10)
C39B C -0.26443(23) -0.36049(14) 0.08161(10)
H24B H -0.2877 -0.3896 0.0603
H25B H -0.2294 -0.3527 0.0755
H26B H -0.2677 -0.3309 0.0724
C40B C -0.32925(16) -0.37546(11) 0.14859(12)
H27B H -0.3378 -0.3810 0.1855
H28B H -0.3560 -0.4034 0.1285
H29B H -0.3265 -0.3433 0.1377
C41B C -0.28081(18) -0.42338(11) 0.15266(13)
H30B H -0.2580 -0.4182 0.1818
H31B H -0.2706 -0.4359 0.1227
H32B H -0.3158 -0.4484 0.1623
C42B C -0.26172(13) -0.15877(9) 0.60736(11)
H33B H -0.2300 -0.1496 0.5917
C43B C -0.27357(13) -0.11881(9) 0.62334(9)
C44B C -0.24002(14) -0.06806(10) 0.61300(12)
C45B C -0.1907(5) -0.0457(4) 0.5322(3)
H34B H -0.2069 -0.0257 0.5235
H35B H -0.2084 -0.0786 0.5144
H36B H -0.1550 -0.0273 0.5213
C46B C -0.25220(13) -0.03102(8) 0.62393(10)
C47B C -0.21889(14) 0.02259(9) 0.60966(12)
H37B H -0.1860 0.0327 0.5964
C48B C -0.29790(13) -0.04534(9) 0.64973(10)
H38B H -0.3067 -0.0202 0.6577
C49B C -0.33106(13) -0.09589(9) 0.66417(11)
C50B C -0.31864(13) -0.13155(9) 0.64806(10)
H39B H -0.3422 -0.1665 0.6543
C51B C -0.38199(15) -0.11297(10) 0.68994(13)
C52B C -0.39158(26) -0.15168(17) 0.7311(2)
H40B H -0.3850 -0.1778 0.7170
H41B H -0.4270 -0.1675 0.7425
H42B H -0.3690 -0.1350 0.7605
C53B C -0.38827(21) -0.06752(13) 0.7089(2)
H43B H -0.3612 -0.0470 0.7337
H44B H -0.4215 -0.0807 0.7257
H45B H -0.3860 -0.0464 0.6793
C54B C -0.42701(23) -0.14186(16) 0.6488(2)
H46B H -0.4261 -0.1173 0.6236
H47B H -0.4598 -0.1581 0.6668
H48B H -0.4226 -0.1678 0.6308
loop_
_geom_bond_atom_site_label_1
_geom_bond_atom_site_label_2
_geom_bond_site_symmetry_1
_geom_bond_site_symmetry_2
O1 C31 1_555 1_555
O2 C44 1_555 1_555
N1 C7 1_555 1_555
N2 C13 1_555 1_555
N3 C47 1_555 1_555
N4 C27 1_555 1_555
C1 H1 1_555 1_555
C2 H2 1_555 1_555
C3 C2 1_555 1_555
C4 C1 1_555 1_555
C5 C4 1_555 1_555
H3 C5 1_555 1_555
C6 C5 1_555 1_555
H4 C6 1_555 1_555
C7 C6 1_555 1_555
C8 C3 1_555 1_555
H5 C8 1_555 1_555
C9 C2 1_555 1_555
C10 C1 1_555 1_555
C11 C10 1_555 1_555
H6 C11 1_555 1_555
C12 C11 1_555 1_555
H7 C12 1_555 1_555
C13 C12 1_555 1_555
C14 C9 1_555 1_555
H8 C14 1_555 1_555
C15 C2 1_555 1_555
C16 C1 1_555 1_555
C17 C16 1_555 1_555
H9 C17 1_555 1_555
C18 C17 1_555 1_555
H10 C18 1_555 1_555
C19 C18 1_555 1_555
C20 C15 1_555 1_555
H11 C20 1_555 1_555
C21 H12 1_555 1_555
C22 H13 1_555 1_555
C23 C22 1_555 1_555
C24 C21 1_555 1_555
C25 C24 1_555 1_555
H14 C25 1_555 1_555
C26 C25 1_555 1_555
H15 C26 1_555 1_555
C27 C26 1_555 1_555
C28 C23 1_555 1_555
H16 C28 1_555 1_555
C29 N2 1_555 1_555
H17 C29 1_555 1_555
C30 C29 1_555 1_555
C31 C30 1_555 1_555
C32 O1 1_555 1_555
H18 C32 1_555 1_555
H19 C32 1_555 1_555
H20 C32 1_555 1_555
C33 C31 1_555 1_555
C34 N4 1_555 1_555
H21 C34 1_555 1_555
C35 C33 1_555 1_555
H22 C35 1_555 1_555
C36 C35 1_555 1_555
C37 C30 1_555 1_555
H23 C37 1_555 1_555
C38 C36 1_555 1_555
C39 C38 1_555 1_555
H24 C39 1_555 1_555
H25 C39 1_555 1_555
H26 C39 1_555 1_555
C40 C38 1_555 1_555
H27 C40 1_555 1_555
H28 C40 1_555 1_555
H29 C40 1_555 1_555
C41 C38 1_555 1_555
H30 C41 1_555 1_555
H31 C41 1_555 1_555
H32 C41 1_555 1_555
C42 N1 1_555 1_555
H33 C42 1_555 1_555
C43 C42 1_555 1_555
C44 C43 1_555 1_555
C45 O2 1_555 1_555
H34 C45 1_555 1_555
H35 C45 1_555 1_555
H36 C45 1_555 1_555
C46 C44 1_555 1_555
C47 C46 1_555 1_555
H37 C47 1_555 1_555
C48 C46 1_555 1_555
H38 C48 1_555 1_555
C49 C48 1_555 1_555
C50 C43 1_555 1_555
H39 C50 1_555 1_555
C51 C49 1_555 1_555
C52 C51 1_555 1_555
H40 C52 1_555 1_555
H41 C52 1_555 1_555
H42 C52 1_555 1_555
C53 C51 1_555 1_555
H43 C53 1_555 1_555
H44 C53 1_555 1_555
H45 C53 1_555 1_555
C54 C51 1_555 1_555
H46 C54 1_555 1_555
H47 C54 1_555 1_555
H48 C54 1_555 1_555
O1A C31A 1_555 1_555
O2A C44A 1_555 1_555
N1A C7A 1_555 1_555
N2A C13A 1_555 1_555
N3A C19 1_555 1_555
N4A C27A 1_555 1_555
C1A H1A 1_555 1_555
C2A H2A 1_555 1_555
C3A C2A 1_555 1_555
C4A C1A 1_555 1_555
C5A C4A 1_555 1_555
H3A C5A 1_555 1_555
C6A C5A 1_555 1_555
H4A C6A 1_555 1_555
C7A C6A 1_555 1_555
C8A C3A 1_555 1_555
H5A C8A 1_555 1_555
C9A C2A 1_555 1_555
C10A C1A 1_555 1_555
C11A C10A 1_555 1_555
H6A C11A 1_555 1_555
C12A C11A 1_555 1_555
H7A C12A 1_555 1_555
C13A C12A 1_555 1_555
C14A C9A 1_555 1_555
H8A C14A 1_555 1_555
C15A C2A 1_555 1_555
C16A C1A 1_555 1_555
C17A C16A 1_555 1_555
H9A C17A 1_555 1_555
C18A C17A 1_555 1_555
H10A C18A 1_555 1_555
C19A C18A 1_555 1_555
C20A C15A 1_555 1_555
H11A C20A 1_555 1_555
C23A C22 1_555 1_555
C24A C21 1_555 1_555
C25A C24A 1_555 1_555
H14A C25A 1_555 1_555
C26A C25A 1_555 1_555
H15A C26A 1_555 1_555
C27A C26A 1_555 1_555
C28A C23A 1_555 1_555
H16A C28A 1_555 1_555
C29A N2A 1_555 1_555
H17A C29A 1_555 1_555
C30A C29A 1_555 1_555
C31A C30A 1_555 1_555
C32A O1A 1_555 1_555
H18A C32A 1_555 1_555
H19A C32A 1_555 1_555
H20A C32A 1_555 1_555
C33A C31A 1_555 1_555
C34A N4A 1_555 1_555
H21A C34A 1_555 1_555
C35A C33A 1_555 1_555
H22A C35A 1_555 1_555
C36A C35A 1_555 1_555
C37A C30A 1_555 1_555
H23A C37A 1_555 1_555
C38A C36A 1_555 1_555
C39A C38A 1_555 1_555
H24A C39A 1_555 1_555
H25A C39A 1_555 1_555
H26A C39A 1_555 1_555
C40A C38A 1_555 1_555
H27A C40A 1_555 1_555
H28A C40A 1_555 1_555
H29A C40A 1_555 1_555
C41A C38A 1_555 1_555
H30A C41A 1_555 1_555
H31A C41A 1_555 1_555
H32A C41A 1_555 1_555
C42A N1A 1_555 1_555
H33A C42A 1_555 1_555
C43A C42A 1_555 1_555
C44A C43A 1_555 1_555
C45A O2A 1_555 1_555
H34A C45A 1_555 1_555
H35A C45A 1_555 1_555
H36A C45A 1_555 1_555
C46A C44A 1_555 1_555
C47A N3A 1_555 1_555
H37A C47A 1_555 1_555
C48A C46A 1_555 1_555
H38A C48A 1_555 1_555
C49A C48A 1_555 1_555
C50A C43A 1_555 1_555
H39A C50A 1_555 1_555
C51A C49A 1_555 1_555
C52A C51A 1_555 1_555
H40A C52A 1_555 1_555
H41A C52A 1_555 1_555
H42A C52A 1_555 1_555
C53A C51A 1_555 1_555
H43A C53A 1_555 1_555
H44A C53A 1_555 1_555
H45A C53A 1_555 1_555
C54A C51A 1_555 1_555
H46A C54A 1_555 1_555
H47A C54A 1_555 1_555
H48A C54A 1_555 1_555
O1B C31B 1_555 1_555
O2B C44B 1_555 1_555
N1B C7B 1_555 1_555
N2B C13B 1_555 1_555
N3B C19A 1_555 1_555
N4B C27B 1_555 1_555
C1B H1B 1_555 1_555
C2B H2B 1_555 1_555
C3B C2B 1_555 1_555
C4B C1B 1_555 1_555
C5B C4B 1_555 1_555
H3B C5B 1_555 1_555
C6B C5B 1_555 1_555
H4B C6B 1_555 1_555
C7B C6B 1_555 1_555
C8B C3B 1_555 1_555
H5B C8B 1_555 1_555
C9B C2B 1_555 1_555
C10B C1B 1_555 1_555
C11B C10B 1_555 1_555
H6B C11B 1_555 1_555
C12B C11B 1_555 1_555
H7B C12B 1_555 1_555
C13B C12B 1_555 1_555
C14B C9B 1_555 1_555
H8B C14B 1_555 1_555
C15B C2B 1_555 1_555
C16B C1B 1_555 1_555
C17B C16B 1_555 1_555
H9B C17B 1_555 1_555
C18B C17B 1_555 1_555
H10B C18B 1_555 1_555
C19B N3 1_555 1_555
C20B C15B 1_555 1_555
H11B C20B 1_555 1_555
C23B C22 1_555 1_555
C24B C21 1_555 1_555
C25B C24B 1_555 1_555
H14B C25B 1_555 1_555
C26B C25B 1_555 1_555
H15B C26B 1_555 1_555
C27B C26B 1_555 1_555
C28B C23B 1_555 1_555
H16B C28B 1_555 1_555
C29B N2B 1_555 1_555
H17B C29B 1_555 1_555
C30B C29B 1_555 1_555
C31B C30B 1_555 1_555
C32B O1B 1_555 1_555
H18B C32B 1_555 1_555
H19B C32B 1_555 1_555
H20B C32B 1_555 1_555
C33B C31B 1_555 1_555
C34B N4B 1_555 1_555
H21B C34B 1_555 1_555
C35B C33B 1_555 1_555
H22B C35B 1_555 1_555
C36B C35B 1_555 1_555
C37B C30B 1_555 1_555
H23B C37B 1_555 1_555
C38B C36B 1_555 1_555
C39B C38B 1_555 1_555
H24B C39B 1_555 1_555
H25B C39B 1_555 1_555
H26B C39B 1_555 1_555
C40B C38B 1_555 1_555
H27B C40B 1_555 1_555
H28B C40B 1_555 1_555
H29B C40B 1_555 1_555
C41B C38B 1_555 1_555
H30B C41B 1_555 1_555
H31B C41B 1_555 1_555
H32B C41B 1_555 1_555
C42B N1B 1_555 1_555
H33B C42B 1_555 1_555
C43B C42B 1_555 1_555
C44B C43B 1_555 1_555
C45B O2B 1_555 1_555
H34B C45B 1_555 1_555
H35B C45B 1_555 1_555
H36B C45B 1_555 1_555
C46B C44B 1_555 1_555
C47B N3B 1_555 1_555
H37B C47B 1_555 1_555
C48B C46B 1_555 1_555
H38B C48B 1_555 1_555
C49B C48B 1_555 1_555
C50B C43B 1_555 1_555
H39B C50B 1_555 1_555
C51B C49B 1_555 1_555
C52B C51B 1_555 1_555
H40B C52B 1_555 1_555
H41B C52B 1_555 1_555
H42B C52B 1_555 1_555
C53B C51B 1_555 1_555
H43B C53B 1_555 1_555
H44B C53B 1_555 1_555
H45B C53B 1_555 1_555
C54B C51B 1_555 1_555
H46B C54B 1_555 1_555
H47B C54B 1_555 1_555
H48B C54B 1_555 1_555
C3 C4 1_555 1_555
C7 C8 1_555 1_555
C9 C10 1_555 1_555
C13 C14 1_555 1_555
C15 C16 1_555 1_555
C19 C20 1_555 1_555
C23 C24 1_555 1_555
C27 C28 1_555 1_555
C33 C34 1_555 1_555
C36 C37 1_555 1_555
C49 C50 1_555 1_555
C3A C4A 1_555 1_555
C7A C8A 1_555 1_555
C9A C10A 1_555 1_555
C13A C14A 1_555 1_555
C15A C16A 1_555 1_555
C19A C20A 1_555 1_555
C23A C24A 1_555 1_555
C27A C28A 1_555 1_555
C33A C34A 1_555 1_555
C36A C37A 1_555 1_555
C46A C47A 1_555 1_555
C49A C50A 1_555 1_555
C3B C4B 1_555 1_555
C7B C8B 1_555 1_555
C9B C10B 1_555 1_555
C13B C14B 1_555 1_555
C15B C16B 1_555 1_555
C18B C19B 1_555 1_555
C19B C20B 1_555 1_555
C23B C24B 1_555 1_555
C27B C28B 1_555 1_555
C33B C34B 1_555 1_555
C36B C37B 1_555 1_555
C46B C47B 1_555 1_555
C49B C50B 1_555 1_555

#END
