
#######################################################################
#
#                 Cambridge Crystallographic Data Centre
#                                CCDC 
#
#######################################################################
#
# If this CIF has been generated from an entry in the Cambridge 
# Structural Database, then it will include bibliographic, chemical, 
# crystal, experimental, refinement or atomic coordinate data resulting 
# from the CCDC's data processing and validation procedures.
#
#######################################################################

data_FEQYAD
_chemical_formula_moiety         'C23 H24 Cl1 N1 O4'
_chemical_name_systematic        
'Methyl 3,4-diacetyl-2-benzyl-5-(4-chlorophenyl)prolinate'
_symmetry_cell_setting           monoclinic
_symmetry_space_group_name_H-M   'P 21/c'
_symmetry_Int_Tables_number      14
_space_group_name_Hall           '-P 2ybc'
loop_
_symmetry_equiv_pos_site_id
_symmetry_equiv_pos_as_xyz
1 x,y,z
2 -x,1/2+y,1/2-z
3 -x,-y,-z
4 x,1/2-y,1/2+z
_cell_length_a                   8.9427(14)
_cell_length_b                   24.682(4)
_cell_length_c                   9.8606(16)
_cell_angle_alpha                90
_cell_angle_beta                 97.843(2)
_cell_angle_gamma                90
_cell_volume                     2156.11
_exptl_crystal_description       block
_cell_formula_units_Z            4
loop_
_atom_site_label
_atom_site_type_symbol
_atom_site_fract_x
_atom_site_fract_y
_atom_site_fract_z
C1 C 0.1729(3) 0.60385(11) 0.7334(3)
H1 H 0.1327 0.6385 0.7211
C2 C 0.1001(4) 0.56077(15) 0.6628(3)
H2 H 0.0108 0.5666 0.6044
C3 C 0.1590(4) 0.50963(14) 0.6786(3)
H3 H 0.1109 0.4808 0.6298
C4 C 0.2882(3) 0.50110(11) 0.7659(3)
H4 H 0.3282 0.4664 0.7771
C5 C 0.3598(3) 0.54367(9) 0.8376(3)
H5 H 0.4473 0.5372 0.8980
C6 C 0.3041(2) 0.59586(9) 0.8215(2)
C7 C 0.3769(2) 0.64273(8) 0.9027(2)
H6 H 0.3741 0.6354 0.9989
H7 H 0.3159 0.6747 0.8791
C8 C 0.5417(2) 0.65619(7) 0.88386(19)
C9 C 0.5531(2) 0.65494(8) 0.7309(2)
C10 C 0.6239(4) 0.60217(12) 0.5509(3)
H8 H 0.5249 0.6052 0.4999
H9 H 0.6647 0.5670 0.5361
H10 H 0.6883 0.6296 0.5210
C11 C 0.5865(2) 0.71260(7) 0.95054(19)
H11 H 0.5247 0.7166 1.0247
C12 C 0.7480(2) 0.70550(7) 1.02147(19)
H12 H 0.7682 0.7301 1.0999
C13 C 0.7398(2) 0.64589(7) 1.07064(19)
H13 H 0.6833 0.6460 1.1491
C14 C 0.5604(2) 0.76412(8) 0.86628(19)
C15 C 0.4015(2) 0.78294(9) 0.8226(2)
H14 H 0.4030 0.8160 0.7714
H15 H 0.3528 0.7892 0.9021
H16 H 0.3472 0.7557 0.7665
C16 C 0.8666(2) 0.71180(8) 0.9275(2)
C17 C 1.0085(3) 0.74087(11) 0.9847(3)
H17 H 1.0621 0.7198 1.0575
H18 H 0.9833 0.7756 1.0193
H19 H 1.0709 0.7458 0.9138
C18 C 0.8894(2) 0.61920(7) 1.11684(19)
C19 C 0.9624(2) 0.63037(9) 1.2470(2)
H20 H 0.9172 0.6536 1.3036
C20 C 1.1006(2) 0.60781(10) 1.2943(2)
H21 H 1.1491 0.6161 1.3813
C21 C 1.1655(2) 0.57303(9) 1.2113(3)
C22 C 1.0969(3) 0.56113(9) 1.0827(3)
H22 H 1.1423 0.5375 1.0272
C23 C 0.9593(2) 0.58454(9) 1.0357(2)
H23 H 0.9129 0.5768 0.9476
Cl1 Cl 1.33777(8) 0.54288(4) 1.27000(10)
N1 N 0.64722(18) 0.61776(6) 0.95907(17)
H24 H 0.6535 0.5839 0.9403
O1 O 0.61480(17) 0.60924(6) 0.69424(14)
O2 O 0.50318(19) 0.68963(6) 0.65212(14)
O3 O 0.66649(17) 0.79168(6) 0.84534(15)
O4 O 0.85185(17) 0.69168(6) 0.81442(16)
loop_
_geom_bond_atom_site_label_1
_geom_bond_atom_site_label_2
_geom_bond_site_symmetry_1
_geom_bond_site_symmetry_2
C1 H1 1_555 1_555
C2 C1 1_555 1_555
H2 C2 1_555 1_555
C3 C2 1_555 1_555
H3 C3 1_555 1_555
C4 C3 1_555 1_555
H4 C4 1_555 1_555
C5 C4 1_555 1_555
H5 C5 1_555 1_555
C6 C1 1_555 1_555
C7 C6 1_555 1_555
H6 C7 1_555 1_555
H7 C7 1_555 1_555
C8 C7 1_555 1_555
C9 C8 1_555 1_555
C10 H8 1_555 1_555
H9 C10 1_555 1_555
H10 C10 1_555 1_555
C11 C8 1_555 1_555
H11 C11 1_555 1_555
C12 C11 1_555 1_555
H12 C12 1_555 1_555
C13 C12 1_555 1_555
H13 C13 1_555 1_555
C14 C11 1_555 1_555
C15 C14 1_555 1_555
H14 C15 1_555 1_555
H15 C15 1_555 1_555
H16 C15 1_555 1_555
C16 C12 1_555 1_555
C17 C16 1_555 1_555
H17 C17 1_555 1_555
H18 C17 1_555 1_555
H19 C17 1_555 1_555
C18 C13 1_555 1_555
C19 C18 1_555 1_555
H20 C19 1_555 1_555
C20 C19 1_555 1_555
H21 C20 1_555 1_555
C21 C20 1_555 1_555
C22 C21 1_555 1_555
H22 C22 1_555 1_555
C23 C18 1_555 1_555
H23 C23 1_555 1_555
Cl1 C21 1_555 1_555
N1 C8 1_555 1_555
H24 N1 1_555 1_555
O1 C9 1_555 1_555
O2 C9 1_555 1_555
O3 C14 1_555 1_555
O4 C16 1_555 1_555
C5 C6 1_555 1_555
C10 O1 1_555 1_555
C13 N1 1_555 1_555
C22 C23 1_555 1_555

#END
