
#######################################################################
#
#                 Cambridge Crystallographic Data Centre
#                                CCDC 
#
#######################################################################
#
# If this CIF has been generated from an entry in the Cambridge 
# Structural Database, then it will include bibliographic, chemical, 
# crystal, experimental, refinement or atomic coordinate data resulting 
# from the CCDC's data processing and validation procedures.
#
#######################################################################

data_FEQYEH
_chemical_formula_moiety         'C27 H22 Cl1 N1 O4'
_chemical_name_systematic        
'Methyl 1-benzyl-3-(4-chlorophenyl)-4,9-dihydroxy-2,3-dihydro-1H-benzo[f]isoindole-1-carboxylate'
_symmetry_cell_setting           tetragonal
_symmetry_space_group_name_H-M   'P 43'
_symmetry_Int_Tables_number      78
_space_group_name_Hall           'P 4cw'
loop_
_symmetry_equiv_pos_site_id
_symmetry_equiv_pos_as_xyz
1 x,y,z
2 -x,-y,1/2+z
3 -y,x,3/4+z
4 y,-x,1/4+z
_cell_length_a                   12.7827(8)
_cell_length_b                   12.7827(8)
_cell_length_c                   13.7419(18)
_cell_angle_alpha                90
_cell_angle_beta                 90
_cell_angle_gamma                90
_cell_volume                     2245.39
_exptl_crystal_description       block
_cell_formula_units_Z            4
loop_
_atom_site_label
_atom_site_type_symbol
_atom_site_fract_x
_atom_site_fract_y
_atom_site_fract_z
C1 C 0.35570(17) 0.76492(17) 0.93703(18)
C2 C 0.38794(19) 0.69801(18) 0.8652(2)
H1 H 0.4427 0.6516 0.8764
C3 C 0.33845(18) 0.70025(18) 0.7764(2)
H2 H 0.3607 0.6555 0.7272
C4 C 0.25595(15) 0.76816(15) 0.75891(16)
C5 C 0.22516(17) 0.83311(17) 0.83369(18)
H3 H 0.1692 0.8784 0.8238
C6 C 0.27479(18) 0.83297(18) 0.92264(18)
H4 H 0.2537 0.8782 0.9718
C7 C 0.20301(15) 0.77235(15) 0.66061(17)
H5 H 0.1523 0.8298 0.6606
C8 C 0.25582(16) 0.71836(16) 0.49759(17)
C9 C 0.17877(14) 0.64269(15) 0.54274(16)
C10 C 0.14831(14) 0.67346(15) 0.63028(16)
C11 C 0.06331(16) 0.62167(16) 0.68357(16)
C12 C 0.01482(14) 0.52967(15) 0.63667(16)
C13 C 0.04627(14) 0.49728(15) 0.54373(17)
C14 C 0.13263(16) 0.55235(15) 0.49202(16)
C15 C -0.06442(16) 0.47627(17) 0.6837(2)
H6 H -0.0852 0.4965 0.7458
C16 C -0.11283(19) 0.3925(2) 0.6383(2)
H7 H -0.1652 0.3559 0.6705
C17 C -0.0838(2) 0.36307(19) 0.5454(2)
H8 H -0.1185 0.3084 0.5145
C18 C -0.00380(18) 0.41425(17) 0.4985(2)
H9 H 0.0167 0.3933 0.4365
C19 C 0.35686(18) 0.66018(18) 0.4719(2)
C20 C 0.4915(2) 0.6356(3) 0.3578(3)
H10 H 0.5438 0.6475 0.4067
H11 H 0.5150 0.6637 0.2968
H12 H 0.4796 0.5618 0.3511
C21 C 0.20846(18) 0.77541(18) 0.40953(18)
H13 H 0.2558 0.8308 0.3899
H14 H 0.2033 0.7264 0.3558
C22 C 0.10213(16) 0.82211(16) 0.42746(16)
C23 C 0.01176(18) 0.76609(17) 0.40821(17)
H15 H 0.0170 0.6975 0.3862
C24 C -0.08590(18) 0.8101(2) 0.42101(19)
H16 H -0.1457 0.7706 0.4093
C25 C -0.0947(2) 0.9125(2) 0.45106(19)
H17 H -0.1603 0.9433 0.4571
C26 C -0.0060(2) 0.96863(19) 0.47206(19)
H18 H -0.0116 1.0373 0.4938
C27 C 0.09132(19) 0.92383(19) 0.46112(18)
H19 H 0.1507 0.9624 0.4766
Cl1 Cl 0.42260(5) 0.76629(6) 1.04793(5)
N1 N 0.27703(13) 0.78823(13) 0.58034(14)
H20 H 0.3271 0.8332 0.5815
O1 O 0.03031(14) 0.65670(13) 0.76033(13)
H21 H 0.0680 0.7048 0.7784
O2 O 0.16348(13) 0.52653(13) 0.41177(13)
H22 H 0.1202 0.4879 0.3862
O3 O 0.39818(15) 0.59996(17) 0.5250(2)
O4 O 0.39508(14) 0.68650(14) 0.38609(16)
loop_
_geom_bond_atom_site_label_1
_geom_bond_atom_site_label_2
_geom_bond_site_symmetry_1
_geom_bond_site_symmetry_2
C1 C2 1_555 1_555
C2 H1 1_555 1_555
C3 C2 1_555 1_555
H2 C3 1_555 1_555
C4 C3 1_555 1_555
C5 C4 1_555 1_555
H3 C5 1_555 1_555
C6 C1 1_555 1_555
H4 C6 1_555 1_555
C7 C4 1_555 1_555
H5 C7 1_555 1_555
C8 C9 1_555 1_555
C9 C10 1_555 1_555
C10 C7 1_555 1_555
C11 C10 1_555 1_555
C12 C11 1_555 1_555
C13 C12 1_555 1_555
C14 C9 1_555 1_555
C15 C12 1_555 1_555
H6 C15 1_555 1_555
C16 C15 1_555 1_555
H7 C16 1_555 1_555
C17 C16 1_555 1_555
H8 C17 1_555 1_555
C18 C13 1_555 1_555
H9 C18 1_555 1_555
C19 C8 1_555 1_555
C20 H10 1_555 1_555
H11 C20 1_555 1_555
H12 C20 1_555 1_555
C21 C8 1_555 1_555
H13 C21 1_555 1_555
H14 C21 1_555 1_555
C22 C21 1_555 1_555
C23 C22 1_555 1_555
H15 C23 1_555 1_555
C24 C23 1_555 1_555
H16 C24 1_555 1_555
C25 C24 1_555 1_555
H17 C25 1_555 1_555
C26 C25 1_555 1_555
H18 C26 1_555 1_555
C27 C22 1_555 1_555
H19 C27 1_555 1_555
Cl1 C1 1_555 1_555
N1 C7 1_555 1_555
H20 N1 1_555 1_555
O1 C11 1_555 1_555
H21 O1 1_555 1_555
O2 C14 1_555 1_555
H22 O2 1_555 1_555
O3 C19 1_555 1_555
O4 C19 1_555 1_555
C5 C6 1_555 1_555
C8 N1 1_555 1_555
C13 C14 1_555 1_555
C17 C18 1_555 1_555
C20 O4 1_555 1_555
C26 C27 1_555 1_555

#END
