
#######################################################################
#
#                 Cambridge Crystallographic Data Centre
#                                CCDC 
#
#######################################################################
#
# If this CIF has been generated from an entry in the Cambridge 
# Structural Database, then it will include bibliographic, chemical, 
# crystal, experimental, refinement or atomic coordinate data resulting 
# from the CCDC's data processing and validation procedures.
#
#######################################################################

data_FEQZIN
_chemical_formula_moiety         'C62 H37 Cl5 N4,0.5(C2 H4 Cl2)'
_chemical_name_systematic        
'2,3,7,12,13-pentachloro-5,8,10,15,17,18,20-heptaphenylporphyrin 1,2-dichloroethane solvate'
_symmetry_cell_setting           monoclinic
_symmetry_space_group_name_H-M   'P 21/c'
_symmetry_Int_Tables_number      14
_space_group_name_Hall           '-P 2ybc'
loop_
_symmetry_equiv_pos_site_id
_symmetry_equiv_pos_as_xyz
1 x,y,z
2 -x,1/2+y,1/2-z
3 -x,-y,-z
4 x,1/2-y,1/2+z
_cell_length_a                   17.7741(12)
_cell_length_b                   18.9230(15)
_cell_length_c                   15.3250(12)
_cell_angle_alpha                90
_cell_angle_beta                 92.152(3)
_cell_angle_gamma                90
_cell_volume                     5150.76
_exptl_crystal_colour            green
_exptl_crystal_description       plate
_cell_formula_units_Z            4
loop_
_atom_site_label
_atom_site_type_symbol
_atom_site_fract_x
_atom_site_fract_y
_atom_site_fract_z
C1 C 0.1062(4) 0.0607(4) 0.3655(5)
C2 C 0.0854(5) 0.0049(5) 0.3062(6)
C3 C 0.1456(5) -0.0112(5) 0.2608(5)
C4 C 0.2050(4) 0.0360(4) 0.2908(5)
C5 C 0.2747(4) 0.0453(4) 0.2521(5)
C6 C 0.3353(4) 0.0802(4) 0.2924(4)
C7 C 0.4043(4) 0.1045(4) 0.2566(5)
C8 C 0.4514(4) 0.1260(4) 0.3236(4)
C9 C 0.4131(4) 0.1163(4) 0.4029(4)
C10 C 0.4409(4) 0.1204(3) 0.4901(5)
C11 C 0.3934(4) 0.1168(4) 0.5618(4)
C12 C 0.4168(4) 0.0993(4) 0.6505(5)
C13 C 0.3556(4) 0.1060(4) 0.6980(5)
C14 C 0.2951(4) 0.1298(4) 0.6413(5)
C15 C 0.2246(4) 0.1542(4) 0.6653(5)
C16 C 0.1634(4) 0.1631(4) 0.6075(5)
C17 C 0.0927(5) 0.1996(4) 0.6176(6)
C18 C 0.0450(4) 0.1850(4) 0.5476(6)
C19 C 0.0841(4) 0.1378(5) 0.4915(6)
C20 C 0.0582(4) 0.0984(5) 0.4186(6)
C21 C 0.2850(4) 0.0153(5) 0.1640(5)
C22 C 0.3294(5) -0.0414(5) 0.1520(6)
H1 H 0.3563 -0.0604 0.1997
C23 C 0.3360(6) -0.0722(6) 0.0711(8)
H2 H 0.3659 -0.1121 0.0650
C24 C 0.2986(7) -0.0442(7) 0.0002(7)
H3 H 0.3028 -0.0647 -0.0545
C25 C 0.2551(6) 0.0138(6) 0.0100(6)
H4 H 0.2309 0.0346 -0.0384
C26 C 0.2468(5) 0.0423(5) 0.0926(6)
H5 H 0.2145 0.0804 0.0994
C27 C 0.4190(4) 0.1148(4) 0.1622(5)
C28 C 0.4705(7) 0.0757(6) 0.1201(7)
H6 H 0.4970 0.0405 0.1504
C29 C 0.4837(10) 0.0868(8) 0.0367(10)
H7 H 0.5173 0.0574 0.0091
C30 C 0.4513(9) 0.1375(9) -0.0078(7)
H8 H 0.4634 0.1452 -0.0656
C31 C 0.4001(7) 0.1788(7) 0.0299(7)
H9 H 0.3762 0.2148 -0.0018
C32 C 0.3832(5) 0.1671(5) 0.1174(5)
H10 H 0.3478 0.1950 0.1442
C33 C 0.5243(4) 0.1638(5) 0.3121(4)
C34 C 0.5850(6) 0.1298(7) 0.2833(8)
H11 H 0.5827 0.0816 0.2719
C35 C 0.6520(7) 0.1671(10) 0.2706(11)
H12 H 0.6950 0.1437 0.2532
C36 C 0.6529(11) 0.2380(16) 0.2841(12)
H13 H 0.6967 0.2638 0.2765
C37 C 0.5913(11) 0.2701(7) 0.3081(9)
H14 H 0.5921 0.3187 0.3173
C38 C 0.5262(7) 0.2336(7) 0.3197(7)
H15 H 0.4826 0.2580 0.3332
C39 C 0.5228(4) 0.1260(4) 0.5072(4)
C40 C 0.5695(4) 0.0722(4) 0.4810(5)
H16 H 0.5493 0.0341 0.4497
C41 C 0.6448(5) 0.0744(5) 0.5008(6)
H17 H 0.6757 0.0376 0.4837
C42 C 0.6754(5) 0.1311(7) 0.5460(7)
H18 H 0.7267 0.1320 0.5605
C43 C 0.6306(5) 0.1860(6) 0.5698(6)
H19 H 0.6515 0.2250 0.5985
C44 C 0.5537(4) 0.1831(5) 0.5507(5)
H20 H 0.5229 0.2201 0.5675
C45 C 0.2119(4) 0.1702(4) 0.7585(5)
C46 C 0.1600(4) 0.1332(5) 0.8044(5)
H21 H 0.1333 0.0963 0.7776
C47 C 0.1473(5) 0.1501(6) 0.8894(7)
H22 H 0.1112 0.1252 0.9193
C48 C 0.1861(6) 0.2025(6) 0.9305(6)
H23 H 0.1782 0.2126 0.9888
C49 C 0.2370(6) 0.2402(5) 0.8856(7)
H24 H 0.2627 0.2775 0.9128
C50 C 0.2507(5) 0.2239(5) 0.8015(6)
H25 H 0.2868 0.2494 0.7723
C51 C -0.0305(5) 0.2167(5) 0.5307(8)
C52 C -0.0809(6) 0.2162(6) 0.6000(10)
H26 H -0.0677 0.1971 0.6543
C53 C -0.1552(7) 0.2476(9) 0.5809(16)
H27 H -0.1921 0.2479 0.6224
C54 C -0.1682(10) 0.2766(12) 0.499(2)
H28 H -0.2152 0.2964 0.4857
C55 C -0.1184(11) 0.2777(11) 0.4403(18)
H29 H -0.1299 0.2993 0.3870
C56 C -0.0492(7) 0.2479(6) 0.4543(10)
H30 H -0.0146 0.2492 0.4103
C57 C -0.0241(4) 0.0937(5) 0.3982(6)
C58 C -0.0713(5) 0.0672(5) 0.4628(7)
H31 H -0.0522 0.0572 0.5187
C59 C -0.1472(5) 0.0563(6) 0.4407(9)
H32 H -0.1790 0.0390 0.4825
C60 C -0.1759(6) 0.0707(8) 0.3584(11)
H33 H -0.2264 0.0618 0.3443
C61 C -0.1296(6) 0.0986(8) 0.2959(9)
H34 H -0.1492 0.1095 0.2405
C62 C -0.0541(5) 0.1101(6) 0.3168(7)
H35 H -0.0233 0.1291 0.2750
N1 N 0.1800(3) 0.0758(3) 0.3573(4)
N2 N 0.3429(3) 0.0922(3) 0.3798(4)
H36 H 0.3078 0.0854 0.4160
N3 N 0.3188(3) 0.1316(3) 0.5579(4)
N4 N 0.1550(3) 0.1304(3) 0.5285(4)
H37 H 0.1905 0.1075 0.5044
Cl1 Cl 0.00463(14) -0.04545(16) 0.30008(18)
Cl2 Cl 0.14949(18) -0.08046(16) 0.1910(2)
Cl3 Cl 0.49973(10) 0.06453(12) 0.68942(12)
Cl4 Cl 0.35196(13) 0.08025(13) 0.80516(13)
Cl5 Cl 0.07757(15) 0.26024(15) 0.69607(18)
C63 C -0.0138(14) 0.4836(11) 0.5345(11)
H38 H -0.0655 0.4718 0.5184
H39 H -0.0159 0.5189 0.5803
Cl6 Cl 0.0221(4) 0.4141(3) 0.5798(4)
C63B C 0.0138(14) 0.5164(11) 0.4655(11)
H38B H 0.0655 0.5282 0.4816
H39B H 0.0159 0.4811 0.4197
Cl6B Cl -0.0221(4) 0.5859(3) 0.4202(4)
loop_
_geom_bond_atom_site_label_1
_geom_bond_atom_site_label_2
_geom_bond_site_symmetry_1
_geom_bond_site_symmetry_2
C1 C2 1_555 1_555
C2 C3 1_555 1_555
C3 C4 1_555 1_555
C4 C5 1_555 1_555
C5 C6 1_555 1_555
C6 C7 1_555 1_555
C7 C8 1_555 1_555
C8 C9 1_555 1_555
C9 C10 1_555 1_555
C10 C11 1_555 1_555
C11 C12 1_555 1_555
C12 C13 1_555 1_555
C13 C14 1_555 1_555
C14 C15 1_555 1_555
C15 C16 1_555 1_555
C16 C17 1_555 1_555
C17 C18 1_555 1_555
C18 C19 1_555 1_555
C19 C20 1_555 1_555
C20 C1 1_555 1_555
C21 C5 1_555 1_555
C22 C21 1_555 1_555
H1 C22 1_555 1_555
C23 C22 1_555 1_555
H2 C23 1_555 1_555
C24 C23 1_555 1_555
H3 C24 1_555 1_555
C25 C24 1_555 1_555
H4 C25 1_555 1_555
C26 C21 1_555 1_555
H5 C26 1_555 1_555
C27 C7 1_555 1_555
C28 C27 1_555 1_555
H6 C28 1_555 1_555
C29 C28 1_555 1_555
H7 C29 1_555 1_555
C30 C29 1_555 1_555
H8 C30 1_555 1_555
C31 C30 1_555 1_555
H9 C31 1_555 1_555
C32 C27 1_555 1_555
H10 C32 1_555 1_555
C33 C8 1_555 1_555
C34 C33 1_555 1_555
H11 C34 1_555 1_555
C35 C34 1_555 1_555
H12 C35 1_555 1_555
C36 C35 1_555 1_555
H13 C36 1_555 1_555
C37 C36 1_555 1_555
H14 C37 1_555 1_555
C38 C33 1_555 1_555
H15 C38 1_555 1_555
C39 C10 1_555 1_555
C40 C39 1_555 1_555
H16 C40 1_555 1_555
C41 C40 1_555 1_555
H17 C41 1_555 1_555
C42 C41 1_555 1_555
H18 C42 1_555 1_555
C43 C42 1_555 1_555
H19 C43 1_555 1_555
C44 C39 1_555 1_555
H20 C44 1_555 1_555
C45 C15 1_555 1_555
C46 C45 1_555 1_555
H21 C46 1_555 1_555
C47 C46 1_555 1_555
H22 C47 1_555 1_555
C48 C47 1_555 1_555
H23 C48 1_555 1_555
C49 C48 1_555 1_555
H24 C49 1_555 1_555
C50 C45 1_555 1_555
H25 C50 1_555 1_555
C51 C18 1_555 1_555
C52 C51 1_555 1_555
H26 C52 1_555 1_555
C53 C52 1_555 1_555
H27 C53 1_555 1_555
C54 C53 1_555 1_555
H28 C54 1_555 1_555
C55 C54 1_555 1_555
H29 C55 1_555 1_555
C56 C51 1_555 1_555
H30 C56 1_555 1_555
C57 C20 1_555 1_555
C58 C57 1_555 1_555
H31 C58 1_555 1_555
C59 C58 1_555 1_555
H32 C59 1_555 1_555
C60 C59 1_555 1_555
H33 C60 1_555 1_555
C61 C60 1_555 1_555
H34 C61 1_555 1_555
C62 C57 1_555 1_555
H35 C62 1_555 1_555
N1 C1 1_555 1_555
N2 C6 1_555 1_555
H36 N2 1_555 1_555
N3 C11 1_555 1_555
N4 C16 1_555 1_555
H37 N4 1_555 1_555
Cl1 C2 1_555 1_555
Cl2 C3 1_555 1_555
Cl3 C12 1_555 1_555
Cl4 C13 1_555 1_555
Cl5 C17 1_555 1_555
C63 H38 1_555 1_555
H39 C63 1_555 1_555
Cl6 C63 1_555 1_555
C63B C63 1_555 1_555
H38B C63B 1_555 1_555
H39B C63B 1_555 1_555
Cl6B C63B 1_555 1_555
C4 N1 1_555 1_555
C9 N2 1_555 1_555
C14 N3 1_555 1_555
C19 N4 1_555 1_555
C25 C26 1_555 1_555
C31 C32 1_555 1_555
C37 C38 1_555 1_555
C43 C44 1_555 1_555
C49 C50 1_555 1_555
C55 C56 1_555 1_555
C61 C62 1_555 1_555

#END
