
#######################################################################
#
#                 Cambridge Crystallographic Data Centre
#                                CCDC 
#
#######################################################################
#
# If this CIF has been generated from an entry in the Cambridge 
# Structural Database, then it will include bibliographic, chemical, 
# crystal, experimental, refinement or atomic coordinate data resulting 
# from the CCDC's data processing and validation procedures.
#
#######################################################################

data_FEQZAC
_chemical_formula_moiety         'C17 H18 Br2 O6'
_chemical_name_systematic        
"(3'R*,3aR*,4S*,5S*,8aR*)-(+-)-Dimethyl decahydro-3,5-(3',5-dibromomethano-2'-oxa-3'-propane-1'-ylidene)-8-oxoazulene-3a,4-dicarboxylate"
_symmetry_cell_setting           monoclinic
_symmetry_space_group_name_H-M   'P 21/c'
_symmetry_Int_Tables_number      14
_space_group_name_Hall           '-P 2ybc'
loop_
_symmetry_equiv_pos_site_id
_symmetry_equiv_pos_as_xyz
1 x,y,z
2 -x,1/2+y,1/2-z
3 -x,-y,-z
4 x,1/2-y,1/2+z
_cell_length_a                   12.465(1)
_cell_length_b                   9.949(1)
_cell_length_c                   14.468(1)
_cell_angle_alpha                90
_cell_angle_beta                 93.37(1)
_cell_angle_gamma                90
_cell_volume                     1791.14
_exptl_crystal_colour            colorless
_exptl_crystal_description       plate
_chemical_melting_point          173-175deg.C
_cell_formula_units_Z            4
_exptl_crystal_recrystallization_method dichloromethane/n-pentane
loop_
_atom_site_label
_atom_site_type_symbol
_atom_site_fract_x
_atom_site_fract_y
_atom_site_fract_z
Br1 Br 0.83557(5) 0.87196(5) 0.11932(5)
Br2 Br 0.62310(5) 0.89675(5) -0.00668(4)
C1 C 0.77277(48) 1.55402(48) -0.04581(41)
H1 H 0.76855(48) 1.62997(48) -0.08679(41)
H2 H 0.82839(48) 1.56889(48) 0.00184(41)
C2 C 0.67037(52) 1.53244(46) 0.00265(41)
H3 H 0.67181(52) 1.57075(46) 0.06361(41)
H4 H 0.61374(52) 1.57326(46) -0.03548(41)
C3 C 0.65623(44) 1.38147(42) 0.00637(36)
C4 C 0.72626(40) 1.17158(40) -0.07651(30)
H5 H 0.65770(40) 1.12864(40) -0.07262(30)
C5 C 0.78338(40) 1.12189(40) 0.01338(32)
C6 C 0.90226(42) 1.15509(47) 0.02978(37)
H6 H 0.92951(42) 1.11553(47) 0.08696(37)
H7 H 0.93923(42) 1.11759(47) -0.02057(37)
C7 C 0.92323(46) 1.30814(48) 0.03194(39)
H8 H 0.99624(46) 1.32352(48) 0.05427(39)
H9 H 0.87543(46) 1.34918(48) 0.07329(39)
C8 C 0.90720(47) 1.36903(46) -0.06291(40)
O1 O 0.98135(38) 1.38063(44) -0.11077(35)
C9 C 0.79767(45) 1.42163(45) -0.09693(36)
H10 H 0.80295(45) 1.43194(45) -0.16248(36)
C10 C 0.70164(41) 1.32511(40) -0.08062(32)
C11 C 0.61763(46) 1.31860(46) 0.07590(36)
H11 H 0.58419(46) 1.37263(46) 0.12106(36)
O2 O 0.61228(29) 1.17781(31) 0.08494(23)
C12 C 0.71791(42) 1.12484(43) 0.09621(34)
H12 H 0.72588(42) 1.16105(43) 0.15774(34)
C13 C 0.73915(41) 0.99369(43) 0.05423(32)
C14 C 0.77889(46) 1.12408(47) -0.16279(34)
O3 O 0.78021(44) 1.18556(39) -0.23254(26)
O4 O 0.82149(38) 1.00267(35) -0.15157(25)
C15 C 0.87076(65) 0.94734(63) -0.22987(41)
H13 H 0.90191(65) 0.86171(63) -0.21352(41)
H14 H 0.92590(65) 1.00708(63) -0.24866(41)
H15 H 0.81755(65) 0.93600(63) -0.27996(41)
C16 C 0.61390(47) 1.35444(47) -0.15752(34)
O5 O 0.60820(40) 1.45601(36) -0.20063(30)
O6 O 0.54135(33) 1.25721(33) -0.16614(27)
C17 C 0.44924(51) 1.28128(55) -0.22933(41)
H16 H 0.40114(51) 1.20588(55) -0.22997(41)
H17 H 0.47331(51) 1.29528(55) -0.29042(41)
H18 H 0.41249(51) 1.36018(55) -0.20975(41)
loop_
_geom_bond_atom_site_label_1
_geom_bond_atom_site_label_2
_geom_bond_site_symmetry_1
_geom_bond_site_symmetry_2
Br1 C13 1_555 1_555
Br2 C13 1_555 1_555
C1 H1 1_555 1_555
H2 C1 1_555 1_555
C2 C1 1_555 1_555
H3 C2 1_555 1_555
H4 C2 1_555 1_555
C3 C2 1_555 1_555
C4 H5 1_555 1_555
C5 C4 1_555 1_555
C6 C5 1_555 1_555
H6 C6 1_555 1_555
H7 C6 1_555 1_555
C7 C6 1_555 1_555
H8 C7 1_555 1_555
H9 C7 1_555 1_555
C8 C7 1_555 1_555
O1 C8 1_555 1_555
C9 C1 1_555 1_555
H10 C9 1_555 1_555
C10 C3 1_555 1_555
C11 C3 1_555 1_555
H11 C11 1_555 1_555
O2 C11 1_555 1_555
C12 C5 1_555 1_555
H12 C12 1_555 1_555
C13 C5 1_555 1_555
C14 C4 1_555 1_555
O3 C14 1_555 1_555
O4 C14 1_555 1_555
C15 O4 1_555 1_555
H13 C15 1_555 1_555
H14 C15 1_555 1_555
H15 C15 1_555 1_555
C16 C10 1_555 1_555
O5 C16 1_555 1_555
O6 C16 1_555 1_555
C17 O6 1_555 1_555
H16 C17 1_555 1_555
H17 C17 1_555 1_555
H18 C17 1_555 1_555
C4 C10 1_555 1_555
C8 C9 1_555 1_555
C9 C10 1_555 1_555
O2 C12 1_555 1_555
C12 C13 1_555 1_555

#END
