
#######################################################################
#
#                 Cambridge Crystallographic Data Centre
#                                CCDC 
#
#######################################################################
#
# If this CIF has been generated from an entry in the Cambridge 
# Structural Database, then it will include bibliographic, chemical, 
# crystal, experimental, refinement or atomic coordinate data resulting 
# from the CCDC's data processing and validation procedures.
#
#######################################################################

data_FEQZEJ
_chemical_formula_moiety         'C20 H20 B1 Cl3 N2 O2'
_chemical_name_systematic        
{3-(hydroxy)-N,N-dimethyl-2-[2,2,2-trichloro-1-(imino)ethyl]but-2-enamidato}(diphenyl)boron
_symmetry_cell_setting           monoclinic
_symmetry_space_group_name_H-M   'P 21/c'
_symmetry_Int_Tables_number      14
_space_group_name_Hall           '-P 2ybc'
loop_
_symmetry_equiv_pos_site_id
_symmetry_equiv_pos_as_xyz
1 x,y,z
2 -x,1/2+y,1/2-z
3 -x,-y,-z
4 x,1/2-y,1/2+z
_cell_length_a                   12.4087(5)
_cell_length_b                   19.7656(14)
_cell_length_c                   8.6917(9)
_cell_angle_alpha                90
_cell_angle_beta                 104.9010(11)
_cell_angle_gamma                90
_cell_volume                     2060.09
_exptl_crystal_colour            yellow
_exptl_crystal_description       Block
_chemical_melting_point          '385-386 K'
_cell_formula_units_Z            4
_exptl_crystal_recrystallization_method n-hexane/toluene
loop_
_atom_site_label
_atom_site_type_symbol
_atom_site_fract_x
_atom_site_fract_y
_atom_site_fract_z
Cl1 Cl 0.55812(2) 0.12128(2) 0.81745(4)
Cl2 Cl 0.71445(2) 0.20460(2) 0.71122(4)
Cl3 Cl 0.76773(3) 0.15141(2) 1.03503(4)
B1 B 0.73976(10) -0.04751(7) 0.66995(16)
O1 O 0.86563(7) -0.04675(4) 0.74130(10)
C1 C 0.91970(9) 0.01014(6) 0.76294(13)
C2 C 0.86854(9) 0.07275(6) 0.76494(13)
C3 C 0.75602(9) 0.07187(6) 0.77567(13)
N1 N 0.69737(8) 0.01665(5) 0.74314(11)
H1 H 0.6317(13) 0.0179(8) 0.7585(18)
C4 C 0.70187(9) 0.13411(6) 0.83246(14)
C5 C 0.94215(9) 0.13472(6) 0.79200(15)
O2 O 0.98199(8) 0.15628(5) 0.92709(11)
N2 N 0.96631(9) 0.16242(5) 0.66314(13)
C6 C 0.91789(13) 0.14282(8) 0.49881(17)
H2 H 0.8687 0.1051 0.4958
H3 H 0.9763 0.1302 0.4503
H4 H 0.8768 0.1802 0.4418
C7 C 1.03956(11) 0.22152(7) 0.68656(19)
H5 H 1.0615 0.2329 0.7976
H6 H 1.1047 0.2114 0.6504
H7 H 1.0007 0.2590 0.6270
C8 C 1.04379(10) 0.00287(7) 0.79445(16)
H8 H 1.0662 -0.0404 0.8422
H9 H 1.0797 0.0381 0.8654
H10 H 1.0649 0.0063 0.6960
C9 C 0.68848(10) -0.11426(6) 0.72867(13)
C10 C 0.74927(10) -0.15548(6) 0.85113(14)
H11 H 0.8240 -0.1459 0.8971
C11 C 0.69989(12) -0.21075(6) 0.90563(15)
H12 H 0.7421 -0.2377 0.9866
C12 C 0.58885(12) -0.22582(7) 0.84043(16)
H13 H 0.5557 -0.2620 0.8790
C13 C 0.52722(12) -0.18641(8) 0.71678(17)
H14 H 0.4526 -0.1964 0.6711
C14 C 0.57733(11) -0.13198(7) 0.66142(16)
H15 H 0.5356 -0.1065 0.5769
C15 C 0.71202(9) -0.04030(6) 0.47877(14)
C16 C 0.73526(11) -0.09523(7) 0.39075(15)
H16 H 0.7686 -0.1336 0.4445
C17 C 0.70998(11) -0.09412(8) 0.22542(16)
H17 H 0.7269 -0.1313 0.1703
C18 C 0.65969(11) -0.03786(8) 0.14298(16)
H18 H 0.6421 -0.0372 0.0323
C19 C 0.63563(11) 0.01738(8) 0.22559(16)
H19 H 0.6019 0.0554 0.1707
C20 C 0.66202(11) 0.01601(7) 0.39170(15)
H20 H 0.6459 0.0536 0.4460
H21? H 1.0497 0.2360 0.5858
H22? H 1.0065 0.2575 0.7330
H23? H 1.1105 0.2099 0.7563
loop_
_geom_bond_atom_site_label_1
_geom_bond_atom_site_label_2
_geom_bond_site_symmetry_1
_geom_bond_site_symmetry_2
Cl1 C4 1_555 1_555
Cl2 C4 1_555 1_555
Cl3 C4 1_555 1_555
B1 O1 1_555 1_555
O1 C1 1_555 1_555
C1 C2 1_555 1_555
C2 C3 1_555 1_555
C3 N1 1_555 1_555
N1 B1 1_555 1_555
H1 N1 1_555 1_555
C4 C3 1_555 1_555
C5 C2 1_555 1_555
O2 C5 1_555 1_555
N2 C5 1_555 1_555
C6 N2 1_555 1_555
H2 C6 1_555 1_555
H3 C6 1_555 1_555
H4 C6 1_555 1_555
C7 N2 1_555 1_555
H5 C7 1_555 1_555
H6 C7 1_555 1_555
H7 C7 1_555 1_555
C8 C1 1_555 1_555
H8 C8 1_555 1_555
H9 C8 1_555 1_555
H10 C8 1_555 1_555
C9 B1 1_555 1_555
C10 C9 1_555 1_555
H11 C10 1_555 1_555
C11 C10 1_555 1_555
H12 C11 1_555 1_555
C12 C11 1_555 1_555
H13 C12 1_555 1_555
C13 C12 1_555 1_555
H14 C13 1_555 1_555
C14 C9 1_555 1_555
H15 C14 1_555 1_555
C15 B1 1_555 1_555
C16 C15 1_555 1_555
H16 C16 1_555 1_555
C17 C16 1_555 1_555
H17 C17 1_555 1_555
C18 C17 1_555 1_555
H18 C18 1_555 1_555
C19 C18 1_555 1_555
H19 C19 1_555 1_555
C20 C15 1_555 1_555
H20 C20 1_555 1_555
C13 C14 1_555 1_555
C19 C20 1_555 1_555

#END
