
#######################################################################
#
#                 Cambridge Crystallographic Data Centre
#                                CCDC 
#
#######################################################################
#
# If this CIF has been generated from an entry in the Cambridge 
# Structural Database, then it will include bibliographic, chemical, 
# crystal, experimental, refinement or atomic coordinate data resulting 
# from the CCDC's data processing and validation procedures.
#
#######################################################################

data_FEQZAF
_chemical_formula_moiety         'C18 H16 B1 Cl3 N2 O2'
_chemical_name_systematic        
'[2-acetyl-3-(amino)-4,4,4-trichloro-1-(hydroxy)but-2-en-1-iminiumato](diphenyl)boron'
_symmetry_cell_setting           monoclinic
_symmetry_space_group_name_H-M   'P 21/c'
_symmetry_Int_Tables_number      14
_space_group_name_Hall           '-P 2ybc'
loop_
_symmetry_equiv_pos_site_id
_symmetry_equiv_pos_as_xyz
1 x,y,z
2 -x,1/2+y,1/2-z
3 -x,-y,-z
4 x,1/2-y,1/2+z
_cell_length_a                   7.1819(3)
_cell_length_b                   21.5346(10)
_cell_length_c                   12.0610(4)
_cell_angle_alpha                90
_cell_angle_beta                 97.864(3)
_cell_angle_gamma                90
_cell_volume                     1847.8
_exptl_crystal_colour            colorless
_exptl_crystal_description       block
_chemical_melting_point          '407-408 K'
_cell_formula_units_Z            4
_exptl_crystal_recrystallization_method n-hexane/toluene
loop_
_atom_site_label
_atom_site_type_symbol
_atom_site_fract_x
_atom_site_fract_y
_atom_site_fract_z
Cl1 Cl 1.12679(7) 0.62062(3) 0.24198(4)
Cl2 Cl 0.84522(8) 0.69737(3) 0.11961(4)
Cl3 Cl 0.87142(7) 0.56605(3) 0.06701(4)
B1 B 0.6838(3) 0.62514(11) 0.45620(17)
O1 O 0.60327(18) 0.55908(7) 0.43752(10)
C1 C 0.5374(3) 0.54125(10) 0.33641(15)
C2 C 0.5931(3) 0.57160(10) 0.23945(15)
C3 C 0.7557(3) 0.60881(10) 0.26159(15)
N1 N 0.8083(2) 0.63155(9) 0.36151(13)
H1 H 0.911(4) 0.6458(13) 0.372(2)
C4 C 0.8900(3) 0.62140(10) 0.17467(15)
C5 C 0.4820(3) 0.55739(11) 0.12936(16)
O2 O 0.3966(2) 0.50830(8) 0.11335(11)
C6 C 0.4480(3) 0.60681(12) 0.04081(16)
H2 H 0.4774 0.5903 -0.0305
H3 H 0.5287 0.6427 0.0628
H4 H 0.3160 0.6196 0.0324
N2 N 0.4259(3) 0.49308(9) 0.32936(16)
H5 H 0.395(4) 0.4809(13) 0.383(2)
H6 H 0.385(3) 0.4793(12) 0.263(2)
C7 C 0.8097(3) 0.62093(10) 0.57773(15)
C8 C 0.7601(3) 0.64905(10) 0.67366(15)
H7 H 0.6579 0.6774 0.6666
C9 C 0.8566(3) 0.63662(11) 0.77954(16)
H8 H 0.8185 0.6559 0.8436
C10 C 1.0071(3) 0.59633(12) 0.79156(16)
H9 H 1.0721 0.5875 0.8638
C11 C 1.0631(3) 0.56874(11) 0.69790(17)
H10 H 1.1684 0.5416 0.7055
C12 C 0.9647(3) 0.58089(11) 0.59239(16)
H11 H 1.0037 0.5615 0.5287
C13 C 0.5136(3) 0.67420(10) 0.44192(15)
C14 C 0.3664(3) 0.66751(10) 0.50635(15)
H12 H 0.3680 0.6332 0.5561
C15 C 0.2187(3) 0.70934(11) 0.49975(17)
H13 H 0.1230 0.7043 0.5461
C16 C 0.2111(3) 0.75842(11) 0.42560(18)
H14 H 0.1094 0.7870 0.4203
C17 C 0.3523(3) 0.76591(11) 0.35895(18)
H15 H 0.3468 0.7992 0.3070
C18 C 0.5018(3) 0.72439(11) 0.36862(16)
H16 H 0.5991 0.7305 0.3237
loop_
_geom_bond_atom_site_label_1
_geom_bond_atom_site_label_2
_geom_bond_site_symmetry_1
_geom_bond_site_symmetry_2
Cl1 C4 1_555 1_555
Cl2 C4 1_555 1_555
Cl3 C4 1_555 1_555
B1 O1 1_555 1_555
O1 C1 1_555 1_555
C1 C2 1_555 1_555
C2 C3 1_555 1_555
C3 N1 1_555 1_555
N1 B1 1_555 1_555
H1 N1 1_555 1_555
C4 C3 1_555 1_555
C5 C2 1_555 1_555
O2 C5 1_555 1_555
C6 C5 1_555 1_555
H2 C6 1_555 1_555
H3 C6 1_555 1_555
H4 C6 1_555 1_555
N2 C1 1_555 1_555
H5 N2 1_555 1_555
H6 N2 1_555 1_555
C7 B1 1_555 1_555
C8 C7 1_555 1_555
H7 C8 1_555 1_555
C9 C8 1_555 1_555
H8 C9 1_555 1_555
C10 C9 1_555 1_555
H9 C10 1_555 1_555
C11 C10 1_555 1_555
H10 C11 1_555 1_555
C12 C7 1_555 1_555
H11 C12 1_555 1_555
C13 B1 1_555 1_555
C14 C13 1_555 1_555
H12 C14 1_555 1_555
C15 C14 1_555 1_555
H13 C15 1_555 1_555
C16 C15 1_555 1_555
H14 C16 1_555 1_555
C17 C16 1_555 1_555
H15 C17 1_555 1_555
C18 C13 1_555 1_555
H16 C18 1_555 1_555
C11 C12 1_555 1_555
C17 C18 1_555 1_555

#END
