
#######################################################################
#
#                 Cambridge Crystallographic Data Centre
#                                CCDC 
#
#######################################################################
#
# If this CIF has been generated from an entry in the Cambridge 
# Structural Database, then it will include bibliographic, chemical, 
# crystal, experimental, refinement or atomic coordinate data resulting 
# from the CCDC's data processing and validation procedures.
#
#######################################################################

data_FERFAM
_chemical_formula_moiety         'C20 H17 N1 O6'
_chemical_name_systematic        
'dimethyl 2-(6H,12H-6,12-epiminodibenzo[b,f][1,5]dioxocin-13-yl)but-2-enedioate'
_symmetry_cell_setting           triclinic
_symmetry_space_group_name_H-M   'P -1'
_symmetry_Int_Tables_number      2
_space_group_name_Hall           '-P 1'
loop_
_symmetry_equiv_pos_site_id
_symmetry_equiv_pos_as_xyz
1 x,y,z
2 -x,-y,-z
_cell_length_a                   9.3656(9)
_cell_length_b                   9.4544(9)
_cell_length_c                   11.5251(12)
_cell_angle_alpha                95.454(3)
_cell_angle_beta                 107.470(3)
_cell_angle_gamma                111.199(3)
_cell_volume                     883.455
_exptl_crystal_colour            white
_exptl_crystal_description       block
_cell_formula_units_Z            2
loop_
_atom_site_label
_atom_site_type_symbol
_atom_site_fract_x
_atom_site_fract_y
_atom_site_fract_z
O1 O 0.33067(12) -0.07345(12) 0.38600(8)
O2 O 0.18111(13) 0.14578(13) 0.16819(9)
O3 O 0.68803(13) 0.01031(12) 0.26309(11)
N1 N 0.38383(14) 0.04365(15) 0.22339(10)
O4 O 0.57877(15) 0.31796(14) -0.05715(10)
C1 C 0.16993(17) -0.15644(16) 0.30757(12)
O5 O 0.77774(13) 0.26634(13) 0.33730(10)
C2 C 0.40889(17) 0.07124(17) 0.35597(12)
H1 H 0.5294 0.1151 0.4054
O6 O 0.74740(16) 0.22603(16) 0.06209(12)
C3 C 0.50886(17) 0.12554(17) 0.18329(13)
C4 C 0.10697(17) -0.12051(17) 0.19440(12)
C5 C 0.0733(2) -0.28110(17) 0.34338(14)
H2 H 0.1177 -0.3054 0.4205
C6 C 0.21491(17) 0.00966(18) 0.15242(13)
H3 H 0.1930 -0.0265 0.0619
C7 C 0.67597(17) 0.14533(17) 0.26884(13)
C8 C 0.23523(18) 0.22079(18) 0.29192(14)
C9 C 0.4881(2) 0.17960(19) 0.07890(14)
H4 H 0.3837 0.1778 0.0347
C10 C 0.34281(17) 0.18764(17) 0.38621(13)
C11 C -0.05529(19) -0.2108(2) 0.11898(14)
H5 H -0.1001 -0.1878 0.0413
C12 C 0.3915(2) 0.26627(19) 0.50904(15)
H6 H 0.4648 0.2444 0.5743
C13 C -0.0870(2) -0.36921(19) 0.26649(15)
H7 H -0.1532 -0.4554 0.2903
C14 C -0.1525(2) -0.3332(2) 0.15482(15)
H8 H -0.2642 -0.3927 0.1030
C15 C 0.6204(2) 0.24132(18) 0.03052(14)
C16 C 0.1783(2) 0.3319(2) 0.3202(2)
H9 H 0.1059 0.3557 0.2557
C17 C 0.3348(2) 0.3750(2) 0.53698(19)
H10 H 0.3690 0.4284 0.6212
C18 C 0.2283(3) 0.4066(2) 0.4428(2)
H11 H 0.1886 0.4815 0.4628
C19 C 0.8399(2) 0.0110(2) 0.3455(2)
H12 H 0.9323 0.0800 0.3260
H13 H 0.8349 -0.0950 0.3336
H14 H 0.8553 0.0485 0.4325
C20 C 0.6919(3) 0.3762(2) -0.12067(19)
H15 H 0.8045 0.4242 -0.0597
H16 H 0.6675 0.4541 -0.1635
H17 H 0.6805 0.2899 -0.1820
loop_
_geom_bond_atom_site_label_1
_geom_bond_atom_site_label_2
_geom_bond_site_symmetry_1
_geom_bond_site_symmetry_2
O1 C1 1_555 1_555
O2 C6 1_555 1_555
O3 C7 1_555 1_555
N1 C2 1_555 1_555
O4 C15 1_555 1_555
C1 C4 1_555 1_555
O5 C7 1_555 1_555
C2 O1 1_555 1_555
H1 C2 1_555 1_555
O6 C15 1_555 1_555
C3 N1 1_555 1_555
C4 C6 1_555 1_555
C5 C1 1_555 1_555
H2 C5 1_555 1_555
C6 N1 1_555 1_555
H3 C6 1_555 1_555
C7 C3 1_555 1_555
C8 O2 1_555 1_555
C9 C3 1_555 1_555
H4 C9 1_555 1_555
C10 C2 1_555 1_555
C11 C4 1_555 1_555
H5 C11 1_555 1_555
C12 C10 1_555 1_555
H6 C12 1_555 1_555
C13 C5 1_555 1_555
H7 C13 1_555 1_555
C14 C11 1_555 1_555
H8 C14 1_555 1_555
C15 C9 1_555 1_555
C16 C8 1_555 1_555
H9 C16 1_555 1_555
C17 C12 1_555 1_555
H10 C17 1_555 1_555
C18 C16 1_555 1_555
H11 C18 1_555 1_555
C19 O3 1_555 1_555
H12 C19 1_555 1_555
H13 C19 1_555 1_555
H14 C19 1_555 1_555
C20 O4 1_555 1_555
H15 C20 1_555 1_555
H16 C20 1_555 1_555
H17 C20 1_555 1_555
C8 C10 1_555 1_555
C13 C14 1_555 1_555
C17 C18 1_555 1_555

#END
