
#######################################################################
#
#                 Cambridge Crystallographic Data Centre
#                                CCDC 
#
#######################################################################
#
# If this CIF has been generated from an entry in the Cambridge 
# Structural Database, then it will include bibliographic, chemical, 
# crystal, experimental, refinement or atomic coordinate data resulting 
# from the CCDC's data processing and validation procedures.
#
#######################################################################

data_FERHUG
_chemical_formula_moiety         'C16 H13 Br1 F1 N1 O3 S1'
_chemical_name_systematic        
'(+)-(8R)-8-(3-Bromo-4-fluorophenyl)-2,3,4,5,6,8-hexahydro-7H-cyclopenta(b)thieno(2,3-e)pyridin-7-one 1,1-dioxide'
_chemical_properties_biological  
'potential potassium ATP channel opening activity'
_symmetry_cell_setting           orthorhombic
_symmetry_space_group_name_H-M   'P 21 21 21'
_symmetry_Int_Tables_number      19
_space_group_name_Hall           'P 2ac 2ab'
loop_
_symmetry_equiv_pos_site_id
_symmetry_equiv_pos_as_xyz
1 x,y,z
2 1/2-x,-y,1/2+z
3 1/2+x,1/2-y,-z
4 -x,1/2+y,1/2-z
_cell_length_a                   7.4976(2)
_cell_length_b                   13.5337(2)
_cell_length_c                   15.3796(3)
_cell_angle_alpha                90
_cell_angle_beta                 90
_cell_angle_gamma                90
_cell_volume                     1560.57
_cell_formula_units_Z            4
loop_
_atom_site_label
_atom_site_type_symbol
_atom_site_fract_x
_atom_site_fract_y
_atom_site_fract_z
Br1 Br -0.73864(9) -0.82149(4) 0.06819(4)
S1 S -1.0815(2) -0.3772(1) -0.07723(10)
F1 F -0.5123(4) -0.6719(2) 0.1663(2)
O1 O -0.5729(6) -0.6549(2) -0.2419(2)
O2 O -1.0594(8) -0.3714(3) 0.0140(3)
O3 O -1.2181(6) -0.4404(3) -0.1099(3)
N1 N -0.6521(6) -0.3111(3) -0.2053(3)
C1 C -0.7975(7) -0.5015(3) -0.1410(3)
C2 C -0.8791(7) -0.4006(3) -0.1289(3)
C3 C -0.6490(7) -0.4889(3) -0.2052(3)
C4 C -0.5457(7) -0.5651(4) -0.2477(3)
C5 C -0.6912(7) -0.6875(3) 0.0402(3)
C6 C -0.7606(7) -0.6451(3) -0.0343(3)
C7 C -0.7252(7) -0.5478(3) -0.0559(2)
C8 C -0.8091(7) -0.3154(3) -0.1589(3)
C9 C -0.5485(8) -0.5336(4) 0.0738(4)
C10 C -0.9148(7) -0.2212(3) -0.1421(3)
C11 C -0.6186(8) -0.4933(3) -0.0007(3)
C12 C -0.4310(8) -0.4062(4) -0.2935(4)
C13 C -0.5854(8) -0.6296(4) 0.0937(3)
C14 C -1.1033(8) -0.2541(4) -0.1190(3)
C15 C -0.3977(9) -0.5180(4) -0.2984(3)
C16 C -0.5823(7) -0.3991(3) -0.2310(3)
H1 H -0.5976 -0.2508 -0.2195
H2 H -0.8861 -0.5439 -0.1656
H3 H -0.8335 -0.6836 -0.0720
H4 H -0.4759 -0.4950 0.1115
H5 H -0.9192 -0.1816 -0.1931
H6 H -0.8643 -0.1844 -0.0959
H7 H -0.5887 -0.4271 -0.0160
H8 H -0.4577 -0.3801 -0.3480
H9 H -0.3254 -0.3748 -0.2705
H10 H -1.1515 -0.2123 -0.0742
H11 H -1.1789 -0.2534 -0.1674
H12 H -0.4045 -0.5389 -0.3575
H13 H -0.2870 -0.5352 -0.2745
loop_
_geom_bond_atom_site_label_1
_geom_bond_atom_site_label_2
_geom_bond_site_symmetry_1
_geom_bond_site_symmetry_2
Br1 C5 1_555 1_555
S1 O2 1_555 1_555
F1 C13 1_555 1_555
O1 C4 1_555 1_555
O3 S1 1_555 1_555
N1 C8 1_555 1_555
C1 C2 1_555 1_555
C2 S1 1_555 1_555
C3 C1 1_555 1_555
C4 C3 1_555 1_555
C5 C6 1_555 1_555
C6 C7 1_555 1_555
C7 C1 1_555 1_555
C8 C2 1_555 1_555
C9 C11 1_555 1_555
C10 C8 1_555 1_555
C11 C7 1_555 1_555
C12 C15 1_555 1_555
C13 C5 1_555 1_555
C14 S1 1_555 1_555
C15 C4 1_555 1_555
C16 N1 1_555 1_555
H1 N1 1_555 1_555
H2 C1 1_555 1_555
H3 C6 1_555 1_555
H4 C9 1_555 1_555
H5 C10 1_555 1_555
H6 C10 1_555 1_555
H7 C11 1_555 1_555
H8 C12 1_555 1_555
H9 C12 1_555 1_555
H10 C14 1_555 1_555
H11 C14 1_555 1_555
H12 C15 1_555 1_555
H13 C15 1_555 1_555
C3 C16 1_555 1_555
C9 C13 1_555 1_555
C10 C14 1_555 1_555
C12 C16 1_555 1_555

#END
