
#######################################################################
#
#                 Cambridge Crystallographic Data Centre
#                                CCDC 
#
#######################################################################
#
# If this CIF has been generated from an entry in the Cambridge 
# Structural Database, then it will include bibliographic, chemical, 
# crystal, experimental, refinement or atomic coordinate data resulting 
# from the CCDC's data processing and validation procedures.
#
#######################################################################

data_FERKAP
_chemical_formula_moiety         'C16 H18 N2 O4,2(C2 H6 O1 S1)'
_chemical_name_systematic        
'1,14-Diethyl-4,10-diazatetracyclo(5.5.2.0^2,6^.0^8,12^)tetradec-13-ene-3,5,9,11-tetraone dimethylsulfoxide solvate'
_symmetry_cell_setting           monoclinic
_symmetry_space_group_name_H-M   'P 21/c'
_symmetry_Int_Tables_number      14
_space_group_name_Hall           '-P 2ybc'
loop_
_symmetry_equiv_pos_site_id
_symmetry_equiv_pos_as_xyz
1 x,y,z
2 -x,1/2+y,1/2-z
3 -x,-y,-z
4 x,1/2-y,1/2+z
_cell_length_a                   11.578(2)
_cell_length_b                   14.992(3)
_cell_length_c                   14.027(3)
_cell_angle_alpha                90
_cell_angle_beta                 113.56(3)
_cell_angle_gamma                90
_cell_volume                     2231.81
_exptl_crystal_colour            colorless
_exptl_crystal_description       prism
_chemical_melting_point          'above 311deg.C.(dec.)'
_cell_formula_units_Z            4
loop_
_atom_site_label
_atom_site_type_symbol
_atom_site_fract_x
_atom_site_fract_y
_atom_site_fract_z
C1 C 0.2693(2) 0.29517(12) 0.51972(14)
C2 C 0.2533(2) 0.34024(12) 0.41889(15)
C3 C 0.1387(2) 0.30224(12) 0.52490(14)
C4 C 0.0544(2) 0.34175(12) 0.42057(15)
C5 C 0.3700(2) 0.34187(12) 0.61387(14)
C6 C 0.3675(2) 0.29392(12) 0.70947(14)
C7 C 0.2370(2) 0.30449(12) 0.71363(14)
C8 C 0.2646(2) 0.34621(11) 0.81851(14)
C9 C 0.1477(2) 0.36095(12) 0.61945(14)
C10 C 0.2163(2) 0.44622(12) 0.61551(14)
C11 C 0.3300(2) 0.43818(12) 0.61346(13)
C12 C 0.4160(2) 0.51212(13) 0.6088(2)
H1 H 0.4767(2) 0.52538(13) 0.6804(2)
H2 H 0.4648(2) 0.49039(13) 0.5694(2)
C13 C 0.3511(2) 0.59741(14) 0.5597(2)
H3 H 0.4141(2) 0.64125(14) 0.5601(2)
H4 H 0.3044(2) 0.62083(14) 0.5991(2)
H5 H 0.2925(2) 0.58577(14) 0.4878(2)
C14 C 0.4593(2) 0.33382(11) 0.81030(14)
C15 C 0.0201(2) 0.38077(12) 0.6242(2)
H6 H 0.0349(2) 0.41940(12) 0.6852(2)
H7 H -0.0317(2) 0.41519(12) 0.5614(2)
C16 C -0.0559(2) 0.2998(2) 0.6314(2)
H8 H -0.1352(2) 0.3197(2) 0.6340(2)
H9 H -0.0072(2) 0.2660(2) 0.6945(2)
H10 H -0.0740(2) 0.2617(2) 0.5703(2)
N1 N 0.12810(14) 0.36380(11) 0.36804(13)
N2 N 0.39286(15) 0.36124(11) 0.86699(13)
O1 O -0.05915(12) 0.35197(9) 0.38656(11)
O2 O 0.33417(12) 0.35352(10) 0.38601(11)
O3 O 0.19047(12) 0.36227(9) 0.85780(10)
O4 O 0.57295(12) 0.34058(9) 0.83743(11)
H11 H 0.2918(17) 0.2338(13) 0.5149(14)
H12 H 0.1050(16) 0.2441(12) 0.5284(14)
H13 H 0.4515(18) 0.3379(12) 0.6091(15)
H14 H 0.3889(17) 0.2310(13) 0.7092(14)
H15 H 0.1951(17) 0.2467(13) 0.7109(14)
H16 H 0.1776(16) 0.5029(13) 0.6151(14)
H17 H 0.0980(23) 0.3903(16) 0.3042(22)
H18 H 0.4291(23) 0.3800(15) 0.9327(22)
S1 S 0.37021(5) 0.60064(3) 0.84335(4)
O5 O 0.50445(13) 0.60705(11) 0.92132(12)
C17 C 0.2753(2) 0.5776(2) 0.9135(2)
H19 H 0.2907(2) 0.5163(2) 0.9400(2)
H20 H 0.1862(2) 0.5844(2) 0.8672(2)
H21 H 0.2966(2) 0.6193(2) 0.9718(2)
C18 C 0.3194(2) 0.71228(15) 0.8086(2)
H22 H 0.3631(2) 0.73757(15) 0.7677(2)
H23 H 0.3387(2) 0.74784(15) 0.8717(2)
H24 H 0.2283(2) 0.71301(15) 0.7671(2)
S2 S 0.16361(5) -0.01491(4) 0.69483(4)
O6 O 0.06057(13) 0.05349(11) 0.67620(11)
C19 C 0.2639(2) 0.03168(15) 0.6401(2)
H25 H 0.3097(2) 0.08242(15) 0.6825(2)
H26 H 0.2134(2) 0.05197(15) 0.5692(2)
H27 H 0.3242(2) -0.01356(15) 0.6385(2)
C20 C 0.0954(2) -0.10257(14) 0.6041(2)
H28 H 0.0357(2) -0.13582(14) 0.6241(2)
H29 H 0.1619(2) -0.14287(14) 0.6039(2)
H30 H 0.0511(2) -0.07733(14) 0.5345(2)
loop_
_geom_bond_atom_site_label_1
_geom_bond_atom_site_label_2
_geom_bond_site_symmetry_1
_geom_bond_site_symmetry_2
C1 C2 1_555 1_555
C2 N1 1_555 1_555
C3 C1 1_555 1_555
C4 C3 1_555 1_555
C5 C1 1_555 1_555
C6 C5 1_555 1_555
C7 C6 1_555 1_555
C8 C7 1_555 1_555
C9 C3 1_555 1_555
C10 C9 1_555 1_555
C11 C5 1_555 1_555
C12 C11 1_555 1_555
H1 C12 1_555 1_555
H2 C12 1_555 1_555
C13 C12 1_555 1_555
H3 C13 1_555 1_555
H4 C13 1_555 1_555
H5 C13 1_555 1_555
C14 C6 1_555 1_555
C15 C9 1_555 1_555
H6 C15 1_555 1_555
H7 C15 1_555 1_555
C16 C15 1_555 1_555
H8 C16 1_555 1_555
H9 C16 1_555 1_555
H10 C16 1_555 1_555
N1 C4 1_555 1_555
N2 C8 1_555 1_555
O1 C4 1_555 1_555
O2 C2 1_555 1_555
O3 C8 1_555 1_555
O4 C14 1_555 1_555
H11 C1 1_555 1_555
H12 C3 1_555 1_555
H13 C5 1_555 1_555
H14 C6 1_555 1_555
H15 C7 1_555 1_555
H16 C10 1_555 1_555
H17 N1 1_555 1_555
H18 N2 1_555 1_555
S1 O5 1_555 1_555
C17 S1 1_555 1_555
H19 C17 1_555 1_555
H20 C17 1_555 1_555
H21 C17 1_555 1_555
C18 S1 1_555 1_555
H22 C18 1_555 1_555
H23 C18 1_555 1_555
H24 C18 1_555 1_555
S2 O6 1_555 1_555
C19 S2 1_555 1_555
H25 C19 1_555 1_555
H26 C19 1_555 1_555
H27 C19 1_555 1_555
C20 S2 1_555 1_555
H28 C20 1_555 1_555
H29 C20 1_555 1_555
H30 C20 1_555 1_555
C7 C9 1_555 1_555
C10 C11 1_555 1_555
C14 N2 1_555 1_555

#END
