
#######################################################################
#
#                 Cambridge Crystallographic Data Centre
#                                CCDC 
#
#######################################################################
#
# If this CIF has been generated from an entry in the Cambridge 
# Structural Database, then it will include bibliographic, chemical, 
# crystal, experimental, refinement or atomic coordinate data resulting 
# from the CCDC's data processing and validation procedures.
#
#######################################################################

data_FERSAX
_chemical_formula_moiety         'C17 H22 O2,0.5(C4 H10 O1)'
_chemical_name_systematic        
'(M)-(-)-(1R,3S,4S,5S,6S,7S,8S,9R)-hexaspiro(2.0.0.0.0.0.2^8^.1^7^.1^6^.1^5^.1^4^.1^3^)pentadecane-1,9-diyldimethanol diethyl ether solvate'
_symmetry_cell_setting           orthorhombic
_symmetry_space_group_name_H-M   'I 2 2 2'
_symmetry_Int_Tables_number      23
_space_group_name_Hall           'I 2 2'
loop_
_symmetry_equiv_pos_site_id
_symmetry_equiv_pos_as_xyz
1 x,y,z
2 -x,-y,z
3 -x,y,-z
4 x,-y,-z
5 1/2+x,1/2+y,1/2+z
6 1/2-x,1/2-y,1/2+z
7 1/2-x,1/2+y,1/2-z
8 1/2+x,1/2-y,1/2-z
_cell_length_a                   7.6776(4)
_cell_length_b                   12.5642(6)
_cell_length_c                   18.6416(9)
_cell_angle_alpha                90
_cell_angle_beta                 90
_cell_angle_gamma                90
_cell_volume                     1798.22
_exptl_crystal_colour            colorless
_exptl_crystal_description       prism
_chemical_melting_point          129-131deg.C
_cell_formula_units_Z            4
loop_
_atom_site_label
_atom_site_type_symbol
_atom_site_fract_x
_atom_site_fract_y
_atom_site_fract_z
O2 O 0.0000 0.8998(11) 0.0000
C11 C -0.003(2) 0.9425(10) 0.0812(7)
C12 C 0.0000 1.0000 0.1219(9)
O2A O 0.0000 1.1002(11) 0.0000
C11A C 0.003(2) 1.0575(10) 0.0812(7)
C11C C -0.003(2) 1.0575(10) -0.0812(7)
C11B C 0.003(2) 0.9425(10) -0.0812(7)
C12B C 0.0000 1.0000 -0.1219(9)
O1 O 0.4769(3) 0.89069(17) 0.07436(14)
H2 H 0.5116 0.8729 0.0256
C1 C 0.5514(3) 0.81733(19) 0.12197(16)
H3 H 0.6308 0.8544 0.1538
H4 H 0.6183 0.7656 0.0949
C2 C 0.4177(3) 0.76054(17) 0.16572(12)
H5 H 0.3428 0.8060 0.1953
C3 C 0.4651(4) 0.65274(19) 0.19823(15)
H6 H 0.5787 0.6233 0.1872
H7 H 0.4217 0.6365 0.2459
C4 C 0.3366(3) 0.66130(15) 0.13907(11)
C5 C 0.3099(3) 0.60948(18) 0.06838(12)
H8 H 0.3595 0.5393 0.0611
H9 H 0.3073 0.6545 0.0261
C6 C 0.1653(3) 0.62056(14) 0.12151(11)
C7 C -0.0197(3) 0.65944(16) 0.12062(13)
H10 H -0.0507 0.7174 0.1525
H11 H -0.0818 0.6583 0.0753
C8 C 0.0302(3) 0.55500(14) 0.15354(11)
C9 C 0.0000 0.5000 0.22422(18)
H12 H 0.101(4) 0.484(3) 0.2522(15)
O1A O -0.4769(3) 0.10931(17) 0.07436(14)
H2A H -0.5116 0.1271 0.0256
C1A C -0.5514(3) 0.18267(19) 0.12197(16)
H3A H -0.6308 0.1456 0.1538
H4A H -0.6183 0.2344 0.0949
C2A C -0.4177(3) 0.23946(17) 0.16572(12)
H5A H -0.3428 0.1940 0.1953
C3A C -0.4651(4) 0.34726(19) 0.19823(15)
H6A H -0.5787 0.3767 0.1872
H7A H -0.4217 0.3635 0.2459
C4A C -0.3366(3) 0.33870(15) 0.13907(11)
C5A C -0.3099(3) 0.39052(18) 0.06838(12)
H8A H -0.3595 0.4607 0.0611
H9A H -0.3073 0.3455 0.0261
C6A C -0.1653(3) 0.37944(14) 0.12151(11)
C7A C 0.0197(3) 0.34056(16) 0.12062(13)
H10A H 0.0507 0.2826 0.1525
H11A H 0.0818 0.3417 0.0753
C8A C -0.0302(3) 0.44500(14) 0.15354(11)
H12A H -0.101(4) 0.516(3) 0.2522(15)
H1? H 0.5090 0.9506 0.0837
C10? C 0.072(2) 1.005(2) 0.0271(8)
loop_
_geom_bond_atom_site_label_1
_geom_bond_atom_site_label_2
_geom_bond_site_symmetry_1
_geom_bond_site_symmetry_2
O1 H2 1_555 1_555
C1 O1 1_555 1_555
H3 C1 1_555 1_555
H4 C1 1_555 1_555
C2 C1 1_555 1_555
H5 C2 1_555 1_555
C3 C2 1_555 1_555
H6 C3 1_555 1_555
H7 C3 1_555 1_555
C4 C2 1_555 1_555
C5 C4 1_555 1_555
H8 C5 1_555 1_555
H9 C5 1_555 1_555
C6 C4 1_555 1_555
C7 C6 1_555 1_555
H10 C7 1_555 1_555
H11 C7 1_555 1_555
C8 C6 1_555 1_555
C9 C8 1_555 1_555
H12 C9 1_555 1_555
O2 C11 1_555 1_555
C11 C12 1_555 1_555
C12 C11A 1_555 1_555
O1A H2A 1_555 1_555
C1A O1A 1_555 1_555
H3A C1A 1_555 1_555
H4A C1A 1_555 1_555
C2A C1A 1_555 1_555
H5A C2A 1_555 1_555
C3A C2A 1_555 1_555
H6A C3A 1_555 1_555
H7A C3A 1_555 1_555
C4A C2A 1_555 1_555
C5A C4A 1_555 1_555
H8A C5A 1_555 1_555
H9A C5A 1_555 1_555
C6A C4A 1_555 1_555
C7A C6A 1_555 1_555
H10A C7A 1_555 1_555
H11A C7A 1_555 1_555
C8A C8 1_555 1_555
H12A C9 1_555 1_555
O2A C11A 1_555 1_555
C11A C11 1_555 1_555
C11C O2A 1_555 1_555
C11B O2 1_555 1_555
C12B C11C 1_555 1_555
C3 C4 1_555 1_555
C5 C6 1_555 1_555
C7 C8 1_555 1_555
C9 C8A 1_555 1_555
C3A C4A 1_555 1_555
C5A C6A 1_555 1_555
C6A C8A 1_555 1_555
C7A C8A 1_555 1_555
C11C C11B 1_555 1_555
C11B C12B 1_555 1_555

#END
