
#######################################################################
#
#                 Cambridge Crystallographic Data Centre
#                                CCDC 
#
#######################################################################
#
# If this CIF has been generated from an entry in the Cambridge 
# Structural Database, then it will include bibliographic, chemical, 
# crystal, experimental, refinement or atomic coordinate data resulting 
# from the CCDC's data processing and validation procedures.
#
#######################################################################

data_FERSOL
_chemical_formula_moiety         'C19 H22'
_chemical_name_systematic        
'(M)-(-)-(3S,4S,5S,6S,7S,8S)-octaspiro(2.0.0.0.0.0.0.0.2^10^.1^9^.1^8^.1^7^.1^6^.1^5^.1^4^.1^3^) nonadecane'
_symmetry_cell_setting           trigonal
_symmetry_space_group_name_H-M   'P 31 2 1'
_symmetry_Int_Tables_number      152
_space_group_name_Hall           'P 31 2"'
loop_
_symmetry_equiv_pos_site_id
_symmetry_equiv_pos_as_xyz
1 x,y,z
2 -y,x-y,1/3+z
3 -x+y,-x,2/3+z
4 y,x,-z
5 x-y,-y,2/3-z
6 -x,-x+y,1/3-z
_cell_length_a                   9.183(1)
_cell_length_b                   9.183(1)
_cell_length_c                   46.985(9)
_cell_angle_alpha                90
_cell_angle_beta                 90
_cell_angle_gamma                120
_cell_volume                     3431.3
_exptl_crystal_colour            colorless
_exptl_crystal_description       cube
_chemical_melting_point          85-87deg.C
_cell_formula_units_Z            9
loop_
_atom_site_label
_atom_site_type_symbol
_atom_site_fract_x
_atom_site_fract_y
_atom_site_fract_z
C1 C 0.6639(3) 0.3289(3) -0.00536(5)
H1 H 0.6760 0.4391 -0.0104
H2 H 0.6101 0.2409 -0.0201
C2 C 0.8011(3) 0.3281(3) 0.01299(5)
H3 H 0.8303 0.2396 0.0093
H4 H 0.8962 0.4379 0.0191
C3 C 0.6315(3) 0.2757(3) 0.02488(4)
C4 C 0.5601(3) 0.3093(3) 0.05006(4)
C5 C 0.6196(3) 0.4125(3) 0.07559(4)
C6 C 0.6593(3) 0.3889(3) 0.10481(4)
C7 C 0.5981(3) 0.3673(3) 0.13378(4)
C8 C 0.6455(3) 0.4661(3) 0.15982(4)
C9 C 0.7495(3) 0.4892(3) 0.18500(4)
C10 C 0.7285(3) 0.4236(3) 0.21356(4)
C11 C 0.5862(3) 0.2996(3) 0.23099(4)
H5 H 0.5905 0.2001 0.2380
H6 H 0.4723 0.2791 0.2264
C12 C 0.7133(3) 0.4710(3) 0.24297(4)
H7 H 0.6766 0.5547 0.2457
H8 H 0.7947 0.4757 0.2573
C13 C 0.8625(3) 0.4241(3) 0.19514(4)
H9 H 0.8428 0.3153 0.1875
H10 H 0.9812 0.5071 0.1994
C14 C 0.7678(3) 0.6409(3) 0.16953(4)
H11 H 0.7222 0.7067 0.1787
H12 H 0.8705 0.7076 0.1580
C15 C 0.4630(3) 0.3684(3) 0.15196(4)
H13 H 0.4090 0.4316 0.1449
H14 H 0.3890 0.2661 0.1631
C16 C 0.6435(3) 0.2437(3) 0.12185(4)
H15 H 0.7480 0.2491 0.1287
H16 H 0.5510 0.1296 0.1170
C17 C 0.7906(3) 0.5324(3) 0.08734(4)
H17 H 0.8160 0.6478 0.0921
H18 H 0.8874 0.5235 0.0803
C18 C 0.4818(3) 0.4125(3) 0.05807(4)
H19 H 0.3661 0.3534 0.0658
H20 H 0.5104 0.5135 0.0465
C19 C 0.5001(3) 0.1307(3) 0.04187(4)
H21 H 0.3861 0.0647 0.0336
H22 H 0.5367 0.0655 0.0537
C20 C -0.0813(3) 0.0273(3) 0.12394(5)
H23 H -0.1683 -0.0918 0.1269
H24 H -0.0819 0.1074 0.1380
C21 C 0.0889(3) 0.0645(3) 0.11166(4)
H25 H 0.1910 0.1668 0.1183
H26 H 0.1047 -0.0322 0.1073
C22 C -0.0320(3) 0.0865(3) 0.09425(5)
C23 C -0.1007(3) 0.0397(3) 0.06549(4)
C24 C -0.0814(3) -0.0478(3) 0.04135(4)
C25 C 0.0148(3) -0.0078(3) 0.01508(4)
C26 C 0.1473(4) 0.1473(4) 0.0000
H27 H 0.152(2) 0.257(2) 0.0053(4)
C27 C 0.0067(3) -0.1437(3) 0.03405(4)
H28 H -0.0629 -0.2619 0.0278
H29 H 0.1085 -0.1190 0.0451
C28 C -0.2555(3) -0.0920(3) 0.05051(4)
H30 H -0.3252 -0.2008 0.0603
H31 H -0.3184 -0.0540 0.0384
C29 C -0.0293(3) 0.2194(3) 0.07508(4)
H32 H 0.0802 0.3050 0.0671
H33 H -0.1089 0.2596 0.0792
C20C C 0.0273(3) -0.0813(3) -0.12394(5)
H23C H -0.0918 -0.1683 -0.1269
H24C H 0.1074 -0.0819 -0.1380
C21C C 0.0645(3) 0.0889(3) -0.11166(4)
H25C H 0.1668 0.1910 -0.1183
H26C H -0.0322 0.1047 -0.1073
C22C C 0.0865(3) -0.0320(3) -0.09425(5)
C23C C 0.0397(3) -0.1007(3) -0.06549(4)
C24C C -0.0478(3) -0.0814(3) -0.04135(4)
C25C C -0.0078(3) 0.0148(3) -0.01508(4)
H27C H 0.257(2) 0.152(2) -0.0053(4)
C27C C -0.1437(3) 0.0067(3) -0.03405(4)
H28C H -0.2619 -0.0629 -0.0278
H29C H -0.1190 0.1085 -0.0451
C28C C -0.0920(3) -0.2555(3) -0.05051(4)
H30C H -0.2008 -0.3252 -0.0603
H31C H -0.0540 -0.3184 -0.0384
C29C C 0.2194(3) -0.0293(3) -0.07508(4)
H32C H 0.3050 0.0802 -0.0671
H33C H 0.2596 -0.1089 -0.0792
loop_
_geom_bond_atom_site_label_1
_geom_bond_atom_site_label_2
_geom_bond_site_symmetry_1
_geom_bond_site_symmetry_2
C1 H1 1_555 1_555
H2 C1 1_555 1_555
C2 C1 1_555 1_555
H3 C2 1_555 1_555
H4 C2 1_555 1_555
C3 C1 1_555 1_555
C4 C3 1_555 1_555
C5 C4 1_555 1_555
C6 C5 1_555 1_555
C7 C6 1_555 1_555
C8 C7 1_555 1_555
C9 C8 1_555 1_555
C10 C9 1_555 1_555
C11 C10 1_555 1_555
H5 C11 1_555 1_555
H6 C11 1_555 1_555
C12 C10 1_555 1_555
H7 C12 1_555 1_555
H8 C12 1_555 1_555
C13 C9 1_555 1_555
H9 C13 1_555 1_555
H10 C13 1_555 1_555
C14 C8 1_555 1_555
H11 C14 1_555 1_555
H12 C14 1_555 1_555
C15 C7 1_555 1_555
H13 C15 1_555 1_555
H14 C15 1_555 1_555
C16 C6 1_555 1_555
H15 C16 1_555 1_555
H16 C16 1_555 1_555
C17 C5 1_555 1_555
H17 C17 1_555 1_555
H18 C17 1_555 1_555
C18 C4 1_555 1_555
H19 C18 1_555 1_555
H20 C18 1_555 1_555
C19 C3 1_555 1_555
H21 C19 1_555 1_555
H22 C19 1_555 1_555
C20 H23 1_555 1_555
H24 C20 1_555 1_555
C21 C20 1_555 1_555
H25 C21 1_555 1_555
H26 C21 1_555 1_555
C22 C20 1_555 1_555
C23 C22 1_555 1_555
C24 C23 1_555 1_555
C25 C24 1_555 1_555
C26 C25 1_555 1_555
H27 C26 1_555 1_555
C27 C24 1_555 1_555
H28 C27 1_555 1_555
H29 C27 1_555 1_555
C28 C23 1_555 1_555
H30 C28 1_555 1_555
H31 C28 1_555 1_555
C29 C22 1_555 1_555
H32 C29 1_555 1_555
H33 C29 1_555 1_555
C20C H23C 1_555 1_555
H24C C20C 1_555 1_555
C21C C20C 1_555 1_555
H25C C21C 1_555 1_555
H26C C21C 1_555 1_555
C22C C20C 1_555 1_555
C23C C22C 1_555 1_555
C24C C23C 1_555 1_555
C25C C25 1_555 1_555
H27C C26 1_555 1_555
C27C C24C 1_555 1_555
H28C C27C 1_555 1_555
H29C C27C 1_555 1_555
C28C C23C 1_555 1_555
H30C C28C 1_555 1_555
H31C C28C 1_555 1_555
C29C C22C 1_555 1_555
H32C C29C 1_555 1_555
H33C C29C 1_555 1_555
C2 C3 1_555 1_555
C4 C19 1_555 1_555
C5 C18 1_555 1_555
C6 C17 1_555 1_555
C7 C16 1_555 1_555
C8 C15 1_555 1_555
C9 C14 1_555 1_555
C10 C13 1_555 1_555
C11 C12 1_555 1_555
C21 C22 1_555 1_555
C23 C29 1_555 1_555
C24 C28 1_555 1_555
C25 C27 1_555 1_555
C26 C25C 1_555 1_555
C21C C22C 1_555 1_555
C23C C29C 1_555 1_555
C24C C25C 1_555 1_555
C24C C28C 1_555 1_555
C25C C27C 1_555 1_555

#END
