
#######################################################################
#
#                 Cambridge Crystallographic Data Centre
#                                CCDC 
#
#######################################################################
#
# If this CIF has been generated from an entry in the Cambridge 
# Structural Database, then it will include bibliographic, chemical, 
# crystal, experimental, refinement or atomic coordinate data resulting 
# from the CCDC's data processing and validation procedures.
#
#######################################################################

data_FESBIR
_chemical_name_common            'Psiguadial B'
_chemical_formula_moiety         'C30 H34 O5'
_chemical_name_systematic        
7,9-dihydroxy-2,2,13-trimethyl-10-phenyl-2,2a,3,4,10,10a,11,12,13,13a-decahydro-1H-4a,13-methanobenzo[b]cyclobuta[5,6]cyclonona[1,2-e]pyran-6,8-dicarbaldehyde
_symmetry_cell_setting           monoclinic
_symmetry_space_group_name_H-M   'P 21'
_symmetry_Int_Tables_number      4
_space_group_name_Hall           'P 2yb'
loop_
_symmetry_equiv_pos_site_id
_symmetry_equiv_pos_as_xyz
1 x,y,z
2 -x,1/2+y,-z
_cell_length_a                   6.1544(4)
_cell_length_b                   31.7483(17)
_cell_length_c                   12.6940(9)
_cell_angle_alpha                90
_cell_angle_beta                 103.762(8)
_cell_angle_gamma                90
_cell_volume                     2409.1
_exptl_crystal_colour            colorless
_exptl_crystal_description       needle
_cell_formula_units_Z            4
loop_
_atom_site_label
_atom_site_type_symbol
_atom_site_fract_x
_atom_site_fract_y
_atom_site_fract_z
O1 O 0.7423(12) 0.4221(2) 0.6789(6)
H1 H 0.782159 0.436038 0.736607
O2 O 0.7366(14) 0.4819(2) 0.8127(6)
O3 O 0.0923(13) 0.5031(2) 0.6663(6)
H2 H -0.028136 0.509243 0.622023
O4 O -0.2382(13) 0.4917(2) 0.5087(6)
O5 O 0.1007(11) 0.4019(2) 0.3931(6)
C1 C 0.5260(17) 0.4308(3) 0.6314(7)
C2 C 0.4209(17) 0.4636(3) 0.6764(7)
C3 C 0.1997(16) 0.4731(3) 0.6232(8)
C4 C 0.0918(18) 0.4520(3) 0.5283(7)
C5 C 0.2101(16) 0.4196(3) 0.4876(8)
C6 C 0.4248(16) 0.4071(3) 0.5416(8)
C7 C 0.5363(17) 0.4882(3) 0.7680(9)
H3 H 0.457641 0.509870 0.794885
C8 C -0.1311(16) 0.4643(3) 0.4724(8)
H4 H -0.198608 0.451008 0.405573
C9 C 0.2356(15) 0.3783(3) 0.3319(7)
C10 C 0.3693(15) 0.4095(3) 0.2816(9)
H5 H 0.513343 0.396036 0.279572
H6 H 0.404281 0.434090 0.330741
C11 C 0.2616(18) 0.4260(3) 0.1666(8)
H7 H 0.364086 0.446724 0.145587
H8 H 0.121233 0.440960 0.168300
C12 C 0.2080(17) 0.3907(3) 0.0784(7)
H9 H 0.041882 0.388831 0.051310
C13 C 0.3152(19) 0.3865(3) -0.0205(7)
C14 C 0.302(2) 0.3371(3) -0.0039(8)
H10 H 0.163852 0.323945 -0.047223
H11 H 0.436842 0.321619 -0.012134
C15 C 0.2973(18) 0.3464(3) 0.1160(8)
H12 H 0.455257 0.349389 0.159086
C16 C 0.166(2) 0.3213(3) 0.1851(8)
C17 C 0.0645(16) 0.3525(3) 0.2531(8)
H13 H -0.037294 0.371812 0.203382
H14 H -0.026218 0.336486 0.294195
C18 C 0.3232(17) 0.2919(3) 0.2628(8)
H15 H 0.405264 0.274358 0.220738
H16 H 0.232908 0.272870 0.297090
C19 C 0.4937(16) 0.3152(3) 0.3524(8)
H17 H 0.575406 0.294348 0.405327
H18 H 0.604017 0.329710 0.319759
C20 C 0.3818(17) 0.3474(3) 0.4117(8)
H19 H 0.277977 0.331170 0.446316
C21 C 0.5475(17) 0.3702(3) 0.5043(8)
H20 H 0.673016 0.381590 0.475200
C22 C 0.544(2) 0.4031(4) -0.0041(9)
H21 H 0.633580 0.394233 0.066984
H22 H 0.539543 0.433981 -0.007500
H23 H 0.612724 0.392300 -0.061015
C23 C 0.1686(17) 0.4021(3) -0.1284(9)
H24 H 0.171708 0.432981 -0.130113
H25 H 0.014492 0.392496 -0.135597
H26 H 0.225878 0.390916 -0.188476
C24 C -0.0239(18) 0.2955(3) 0.1131(9)
H27 H -0.120418 0.284166 0.157565
H28 H 0.039885 0.272249 0.079583
H29 H -0.112099 0.313684 0.056407
C25 C 0.6438(17) 0.3397(3) 0.5957(9)
C26 C 0.8534(18) 0.3233(3) 0.6061(8)
H30 H 0.941671 0.332141 0.558109
C27 C 0.9394(19) 0.2935(3) 0.6875(9)
H31 H 1.084732 0.282114 0.694040
C28 C 0.810(2) 0.2807(3) 0.7587(9)
H32 H 0.868501 0.260913 0.814344
C29 C 0.596(2) 0.2970(3) 0.7481(10)
H33 H 0.504773 0.288008 0.794846
C30 C 0.518(2) 0.3267(3) 0.6673(9)
H34 H 0.373314 0.338456 0.660770
O6 O 0.4524(13) 0.5782(2) 0.0862(5)
H35 H 0.444309 0.562185 0.032665
O7 O 0.3051(13) 0.5199(2) -0.0509(6)
O8 O -0.1924(13) 0.4994(2) 0.1002(6)
H36 H -0.309253 0.502601 0.122612
O9 O -0.3639(13) 0.51090(19) 0.2605(6)
O10 O 0.0864(12) 0.6004(2) 0.3715(5)
C31 C 0.2833(15) 0.5697(3) 0.1330(8)
C32 C 0.1263(17) 0.5378(3) 0.0888(8)
C33 C -0.0451(17) 0.5290(3) 0.1427(8)
C34 C -0.0558(16) 0.5501(3) 0.2370(8)
C35 C 0.1097(18) 0.5818(3) 0.2790(7)
C36 C 0.2679(18) 0.5942(3) 0.2229(7)
C37 C 0.1490(18) 0.5139(3) -0.0045(9)
H37 H 0.041176 0.492807 -0.032122
C38 C -0.2209(17) 0.5379(3) 0.2949(8)
H38 H -0.219485 0.551292 0.361994
C39 C 0.2806(17) 0.6250(3) 0.4299(7)
C40 C 0.4700(17) 0.5935(2) 0.4824(7)
H39 H 0.459794 0.568865 0.433686
H40 H 0.615449 0.607358 0.485271
C41 C 0.472(2) 0.5772(3) 0.5971(8)
H41 H 0.596528 0.556872 0.619713
H42 H 0.330634 0.562035 0.594786
C42 C 0.5000(18) 0.6132(3) 0.6835(8)
H43 H 0.359858 0.614608 0.710136
C43 C 0.7028(18) 0.6183(3) 0.7829(9)
C44 C 0.6749(17) 0.6674(3) 0.7647(8)
H44 H 0.581307 0.681056 0.808455
H45 H 0.817701 0.682680 0.771195
C45 C 0.5475(17) 0.6576(3) 0.6450(7)
H46 H 0.662297 0.654565 0.601425
C46 C 0.3507(17) 0.6822(3) 0.5759(8)
C47 C 0.1842(16) 0.6508(3) 0.5093(8)
H47 H 0.133341 0.631321 0.559557
H48 H 0.051643 0.666388 0.468330
C48 C 0.435(2) 0.7113(3) 0.4951(8)
H49 H 0.312618 0.730610 0.460454
H50 H 0.559957 0.728767 0.536509
C49 C 0.5143(17) 0.6880(3) 0.4073(7)
H51 H 0.658359 0.674064 0.440088
H52 H 0.541707 0.708673 0.353476
C50 C 0.3501(16) 0.6552(3) 0.3492(7)
H53 H 0.211853 0.670752 0.312044
C51 C 0.4272(17) 0.6306(3) 0.2609(7)
H54 H 0.579485 0.618908 0.292759
C52 C 0.9229(18) 0.6018(3) 0.7635(9)
H55 H 0.930483 0.571175 0.774308
H56 H 1.048395 0.615157 0.814566
H57 H 0.931006 0.608280 0.689035
C53 C 0.663(2) 0.6028(3) 0.8909(8)
H58 H 0.526983 0.615817 0.903234
H59 H 0.791082 0.610658 0.949817
H60 H 0.646394 0.572142 0.888722
C54 C 0.2280(19) 0.7073(3) 0.6467(8)
H61 H 0.329334 0.728465 0.688201
H62 H 0.178111 0.688202 0.696868
H63 H 0.098001 0.721397 0.600578
C55 C 0.4430(17) 0.6605(3) 0.1679(7)
C56 C 0.6424(18) 0.6789(3) 0.1613(9)
H64 H 0.775108 0.671569 0.213511
C57 C 0.655(2) 0.7077(3) 0.0808(8)
H65 H 0.793638 0.720499 0.078691
C58 C 0.4583(19) 0.7177(3) 0.0023(8)
H66 H 0.463955 0.737182 -0.053861
C59 C 0.259(2) 0.6995(3) 0.0065(9)
H67 H 0.126639 0.706449 -0.046556
C60 C 0.2482(18) 0.6708(3) 0.0881(7)
H68 H 0.109517 0.658053 0.090062
loop_
_geom_bond_atom_site_label_1
_geom_bond_atom_site_label_2
_geom_bond_site_symmetry_1
_geom_bond_site_symmetry_2
O1 H1 1_555 1_555
O2 C7 1_555 1_555
O3 H2 1_555 1_555
O4 C8 1_555 1_555
O5 C5 1_555 1_555
C1 O1 1_555 1_555
C2 C1 1_555 1_555
C3 O3 1_555 1_555
C4 C3 1_555 1_555
C5 C4 1_555 1_555
C6 C1 1_555 1_555
C7 C2 1_555 1_555
H3 C7 1_555 1_555
C8 C4 1_555 1_555
H4 C8 1_555 1_555
C9 O5 1_555 1_555
C10 C9 1_555 1_555
H5 C10 1_555 1_555
H6 C10 1_555 1_555
C11 C10 1_555 1_555
H7 C11 1_555 1_555
H8 C11 1_555 1_555
C12 C11 1_555 1_555
H9 C12 1_555 1_555
C13 C12 1_555 1_555
C14 C13 1_555 1_555
H10 C14 1_555 1_555
H11 C14 1_555 1_555
C15 C12 1_555 1_555
H12 C15 1_555 1_555
C16 C15 1_555 1_555
C17 C9 1_555 1_555
H13 C17 1_555 1_555
H14 C17 1_555 1_555
C18 C16 1_555 1_555
H15 C18 1_555 1_555
H16 C18 1_555 1_555
C19 C18 1_555 1_555
H17 C19 1_555 1_555
H18 C19 1_555 1_555
C20 C9 1_555 1_555
H19 C20 1_555 1_555
C21 C6 1_555 1_555
H20 C21 1_555 1_555
C22 C13 1_555 1_555
H21 C22 1_555 1_555
H22 C22 1_555 1_555
H23 C22 1_555 1_555
C23 C13 1_555 1_555
H24 C23 1_555 1_555
H25 C23 1_555 1_555
H26 C23 1_555 1_555
C24 C16 1_555 1_555
H27 C24 1_555 1_555
H28 C24 1_555 1_555
H29 C24 1_555 1_555
C25 C21 1_555 1_555
C26 C25 1_555 1_555
H30 C26 1_555 1_555
C27 C26 1_555 1_555
H31 C27 1_555 1_555
C28 C27 1_555 1_555
H32 C28 1_555 1_555
C29 C28 1_555 1_555
H33 C29 1_555 1_555
C30 C25 1_555 1_555
H34 C30 1_555 1_555
O6 H35 1_555 1_555
O7 C37 1_555 1_555
O8 H36 1_555 1_555
O9 C38 1_555 1_555
O10 C35 1_555 1_555
C31 O6 1_555 1_555
C32 C31 1_555 1_555
C33 O8 1_555 1_555
C34 C33 1_555 1_555
C35 C34 1_555 1_555
C36 C31 1_555 1_555
C37 C32 1_555 1_555
H37 C37 1_555 1_555
C38 C34 1_555 1_555
H38 C38 1_555 1_555
C39 O10 1_555 1_555
C40 C39 1_555 1_555
H39 C40 1_555 1_555
H40 C40 1_555 1_555
C41 C40 1_555 1_555
H41 C41 1_555 1_555
H42 C41 1_555 1_555
C42 C41 1_555 1_555
H43 C42 1_555 1_555
C43 C42 1_555 1_555
C44 C43 1_555 1_555
H44 C44 1_555 1_555
H45 C44 1_555 1_555
C45 C42 1_555 1_555
H46 C45 1_555 1_555
C46 C45 1_555 1_555
C47 C39 1_555 1_555
H47 C47 1_555 1_555
H48 C47 1_555 1_555
C48 C46 1_555 1_555
H49 C48 1_555 1_555
H50 C48 1_555 1_555
C49 C48 1_555 1_555
H51 C49 1_555 1_555
H52 C49 1_555 1_555
C50 C39 1_555 1_555
H53 C50 1_555 1_555
C51 C36 1_555 1_555
H54 C51 1_555 1_555
C52 C43 1_555 1_555
H55 C52 1_555 1_555
H56 C52 1_555 1_555
H57 C52 1_555 1_555
C53 C43 1_555 1_555
H58 C53 1_555 1_555
H59 C53 1_555 1_555
H60 C53 1_555 1_555
C54 C46 1_555 1_555
H61 C54 1_555 1_555
H62 C54 1_555 1_555
H63 C54 1_555 1_555
C55 C51 1_555 1_555
C56 C55 1_555 1_555
H64 C56 1_555 1_555
C57 C56 1_555 1_555
H65 C57 1_555 1_555
C58 C57 1_555 1_555
H66 C58 1_555 1_555
C59 C58 1_555 1_555
H67 C59 1_555 1_555
C60 C55 1_555 1_555
H68 C60 1_555 1_555
C2 C3 1_555 1_555
C5 C6 1_555 1_555
C14 C15 1_555 1_555
C16 C17 1_555 1_555
C19 C20 1_555 1_555
C20 C21 1_555 1_555
C29 C30 1_555 1_555
C32 C33 1_555 1_555
C35 C36 1_555 1_555
C44 C45 1_555 1_555
C46 C47 1_555 1_555
C49 C50 1_555 1_555
C50 C51 1_555 1_555
C59 C60 1_555 1_555

#END
