
#######################################################################
#
#                 Cambridge Crystallographic Data Centre
#                                CCDC 
#
#######################################################################
#
# If this CIF has been generated from an entry in the Cambridge 
# Structural Database, then it will include bibliographic, chemical, 
# crystal, experimental, refinement or atomic coordinate data resulting 
# from the CCDC's data processing and validation procedures.
#
#######################################################################

data_FESLEX
_chemical_formula_moiety         'C37 H36 O2'
_chemical_name_systematic        
2,6-di-t-butyl-4-(6-phenyl-7H-benzo[c]xanthen-7-yl)phenol
_symmetry_cell_setting           monoclinic
_symmetry_space_group_name_H-M   'P 21/n'
_symmetry_Int_Tables_number      14
_space_group_name_Hall           '-P 2yn'
loop_
_symmetry_equiv_pos_site_id
_symmetry_equiv_pos_as_xyz
1 x,y,z
2 1/2-x,1/2+y,1/2-z
3 -x,-y,-z
4 1/2+x,1/2-y,1/2+z
_cell_length_a                   12.141(6)
_cell_length_b                   16.578(8)
_cell_length_c                   15.645(8)
_cell_angle_alpha                90
_cell_angle_beta                 111.516(7)
_cell_angle_gamma                90
_cell_volume                     2929.49
_exptl_crystal_colour            white
_exptl_crystal_description       block
_cell_formula_units_Z            4
loop_
_atom_site_label
_atom_site_type_symbol
_atom_site_fract_x
_atom_site_fract_y
_atom_site_fract_z
O1 O 0.40138(17) 0.17305(11) 0.25503(16)
O2 O 0.71754(15) 0.52426(10) 0.16765(15)
H1 H 0.6614 0.5525 0.1661
C1 C 0.5120(3) 0.17651(16) 0.3255(2)
C2 C 0.5120(3) 0.16906(17) 0.4132(3)
H2 H 0.4412 0.1631 0.4227
C3 C 0.6183(3) 0.17059(16) 0.4866(2)
H3 H 0.6200 0.1660 0.5463
C4 C 0.7226(3) 0.17908(16) 0.4706(2)
H4 H 0.7948 0.1795 0.5197
C5 C 0.7195(3) 0.18694(15) 0.3824(2)
H5 H 0.7902 0.1935 0.3729
C6 C 0.6145(3) 0.18542(15) 0.3071(2)
C7 C 0.6101(2) 0.19807(15) 0.2113(2)
H6 H 0.6719 0.1646 0.2031
C8 C 0.4923(2) 0.17148(14) 0.1412(2)
C9 C 0.4776(2) 0.15700(14) 0.0485(2)
C10 C 0.3698(2) 0.13594(14) -0.0148(2)
H7 H 0.3616 0.1271 -0.0755
C11 C 0.2697(2) 0.12737(15) 0.0115(2)
C12 C 0.1570(3) 0.10764(15) -0.0534(2)
H8 H 0.1474 0.0990 -0.1145
C13 C 0.0622(3) 0.10124(18) -0.0269(3)
H9 H -0.0120 0.0888 -0.0702
C14 C 0.0757(3) 0.1132(2) 0.0640(3)
H10 H 0.0102 0.1080 0.0809
C15 C 0.1824(3) 0.13238(17) 0.1290(2)
H11 H 0.1901 0.1401 0.1898
C16 C 0.2820(2) 0.14039(15) 0.1027(2)
C17 C 0.3971(3) 0.16153(15) 0.1668(2)
C18 C 0.6381(2) 0.28601(16) 0.19835(19)
C19 C 0.5585(2) 0.34704(17) 0.19360(18)
H12 H 0.4854 0.3335 0.1961
C20 C 0.5830(2) 0.42727(17) 0.18526(19)
C21 C 0.6932(3) 0.44471(16) 0.1792(2)
C22 C 0.7776(2) 0.38554(17) 0.1853(2)
C23 C 0.7466(2) 0.30709(16) 0.19421(19)
H13 H 0.8008 0.2664 0.1976
C24 C 0.4922(3) 0.49375(18) 0.1811(2)
C25 C 0.4458(3) 0.53386(16) 0.0864(2)
H14 H 0.5110 0.5563 0.0735
H15 H 0.3914 0.5760 0.0858
H16 H 0.4061 0.4944 0.0405
C26 C 0.5470(2) 0.55807(16) 0.2557(2)
H17 H 0.5761 0.5327 0.3150
H18 H 0.4879 0.5973 0.2537
H19 H 0.6112 0.5843 0.2449
C27 C 0.3842(2) 0.45961(15) 0.1990(2)
H20 H 0.3436 0.4214 0.1518
H21 H 0.3314 0.5029 0.1985
H22 H 0.4105 0.4333 0.2578
C28 C 0.8998(3) 0.40595(18) 0.1823(3)
C29 C 0.8869(2) 0.44580(17) 0.0899(2)
H23 H 0.8422 0.4110 0.0403
H24 H 0.9640 0.4548 0.0878
H25 H 0.8465 0.4964 0.0843
C30 C 0.9693(2) 0.46116(17) 0.2635(2)
H26 H 0.9249 0.5096 0.2610
H27 H 1.0443 0.4746 0.2599
H28 H 0.9818 0.4336 0.3203
C31 C 0.9751(2) 0.32971(16) 0.1905(2)
H29 H 0.9857 0.3028 0.2473
H30 H 1.0509 0.3445 0.1893
H31 H 0.9356 0.2942 0.1401
C32 C 0.5773(2) 0.16518(17) 0.0153(2)
C33 C 0.5955(2) 0.23523(17) -0.0236(2)
H32 H 0.5477 0.2796 -0.0257
C34 C 0.6833(3) 0.24177(18) -0.0600(2)
H33 H 0.6931 0.2901 -0.0866
C35 C 0.7554(3) 0.1779(2) -0.0572(2)
H34 H 0.8143 0.1820 -0.0817
C36 C 0.7391(3) 0.1078(2) -0.0175(3)
H35 H 0.7878 0.0638 -0.0147
C37 C 0.6509(2) 0.10160(17) 0.0187(2)
H36 H 0.6415 0.0534 0.0458
loop_
_geom_bond_atom_site_label_1
_geom_bond_atom_site_label_2
_geom_bond_site_symmetry_1
_geom_bond_site_symmetry_2
O1 C1 1_555 1_555
O2 H1 1_555 1_555
C1 C2 1_555 1_555
C2 H2 1_555 1_555
C3 C2 1_555 1_555
H3 C3 1_555 1_555
C4 C3 1_555 1_555
H4 C4 1_555 1_555
C5 C4 1_555 1_555
H5 C5 1_555 1_555
C6 C1 1_555 1_555
C7 C6 1_555 1_555
H6 C7 1_555 1_555
C8 C7 1_555 1_555
C9 C8 1_555 1_555
C10 C9 1_555 1_555
H7 C10 1_555 1_555
C11 C10 1_555 1_555
C12 C11 1_555 1_555
H8 C12 1_555 1_555
C13 C12 1_555 1_555
H9 C13 1_555 1_555
C14 C13 1_555 1_555
H10 C14 1_555 1_555
C15 C14 1_555 1_555
H11 C15 1_555 1_555
C16 C11 1_555 1_555
C17 O1 1_555 1_555
C18 C7 1_555 1_555
C19 C18 1_555 1_555
H12 C19 1_555 1_555
C20 C19 1_555 1_555
C21 O2 1_555 1_555
C22 C21 1_555 1_555
C23 C18 1_555 1_555
H13 C23 1_555 1_555
C24 C20 1_555 1_555
C25 C24 1_555 1_555
H14 C25 1_555 1_555
H15 C25 1_555 1_555
H16 C25 1_555 1_555
C26 C24 1_555 1_555
H17 C26 1_555 1_555
H18 C26 1_555 1_555
H19 C26 1_555 1_555
C27 C24 1_555 1_555
H20 C27 1_555 1_555
H21 C27 1_555 1_555
H22 C27 1_555 1_555
C28 C22 1_555 1_555
C29 C28 1_555 1_555
H23 C29 1_555 1_555
H24 C29 1_555 1_555
H25 C29 1_555 1_555
C30 C28 1_555 1_555
H26 C30 1_555 1_555
H27 C30 1_555 1_555
H28 C30 1_555 1_555
C31 C28 1_555 1_555
H29 C31 1_555 1_555
H30 C31 1_555 1_555
H31 C31 1_555 1_555
C32 C9 1_555 1_555
C33 C32 1_555 1_555
H32 C33 1_555 1_555
C34 C33 1_555 1_555
H33 C34 1_555 1_555
C35 C34 1_555 1_555
H34 C35 1_555 1_555
C36 C35 1_555 1_555
H35 C36 1_555 1_555
C37 C32 1_555 1_555
H36 C37 1_555 1_555
C5 C6 1_555 1_555
C8 C17 1_555 1_555
C15 C16 1_555 1_555
C16 C17 1_555 1_555
C20 C21 1_555 1_555
C22 C23 1_555 1_555
C36 C37 1_555 1_555

#END
