
#######################################################################
#
#                 Cambridge Crystallographic Data Centre
#                                CCDC 
#
#######################################################################
#
# If this CIF has been generated from an entry in the Cambridge 
# Structural Database, then it will include bibliographic, chemical, 
# crystal, experimental, refinement or atomic coordinate data resulting 
# from the CCDC's data processing and validation procedures.
#
#######################################################################

data_FESMUN
_chemical_formula_moiety         'C58 H58 N2 O2 P2 Se2 Sr1,2(C4 H8 O1)'
_chemical_name_systematic        
'bis(N-(diphenylmethyl)-P,P-diphenylphosphinoselenoic amidato)-bis(tetrahydrofuran)-strontium tetrahydrofuran solvate'
_symmetry_cell_setting           triclinic
_symmetry_space_group_name_H-M   'P -1'
_symmetry_Int_Tables_number      2
_space_group_name_Hall           '-P 1'
loop_
_symmetry_equiv_pos_site_id
_symmetry_equiv_pos_as_xyz
1 x,y,z
2 -x,-y,-z
_cell_length_a                   10.191(5)
_cell_length_b                   10.912(5)
_cell_length_c                   14.641(5)
_cell_angle_alpha                99.369(5)
_cell_angle_beta                 101.195(5)
_cell_angle_gamma                103.621(5)
_cell_volume                     1514.66
_exptl_crystal_colour            colorless
_exptl_crystal_description       block
_cell_formula_units_Z            1
loop_
_atom_site_label
_atom_site_type_symbol
_atom_site_fract_x
_atom_site_fract_y
_atom_site_fract_z
Sr1 Sr 0.5000 0.0000 0.0000
Se1 Se 0.34337(4) -0.10138(4) 0.14894(3)
P1 P 0.49265(9) 0.07210(8) 0.23526(6)
O1 O 0.6891(3) -0.1111(3) 0.0519(2)
N1 N 0.5656(3) 0.1544(3) 0.1678(2)
C1 C 0.6621(3) 0.2829(3) 0.2143(2)
H1 H 0.7061 0.2799 0.2793
C2 C 0.8133(4) -0.0525(4) 0.4418(3)
H2 H 0.8777 -0.0790 0.4826
C3 C 0.7506(4) 0.0308(3) 0.3024(3)
H3 H 0.7736 0.0600 0.2497
C4 C 0.7763(4) 0.3103(3) 0.1600(3)
C5 C 0.7487(4) 0.3391(4) 0.0709(3)
H4 H 0.6601 0.3440 0.0440
C6 C 0.6200(4) 0.0275(3) 0.3200(2)
C7 C 0.5917(4) 0.3920(3) 0.2205(3)
C8 C 0.6841(4) -0.0561(4) 0.4596(3)
H5 H 0.6618 -0.0850 0.5126
C9 C 0.5879(4) -0.0170(3) 0.3991(3)
H6 H 0.5011 -0.0205 0.4112
C10 C 0.4957(4) 0.2552(3) 0.3940(3)
H7 H 0.5911 0.2657 0.4097
C11 C 0.8464(4) -0.0096(4) 0.3634(3)
H8 H 0.9330 -0.0076 0.3513
C12 C 0.6733(4) -0.2187(4) 0.0994(3)
H9 H 0.6086 -0.2958 0.0568
H10 H 0.6386 -0.1989 0.1557
C13 C 0.2703(4) 0.1481(4) 0.2919(3)
H11 H 0.2126 0.0860 0.2393
C14 C 0.8523(5) 0.3610(4) 0.0212(3)
H12 H 0.8329 0.3800 -0.0388
C15 C 0.8275(4) -0.0798(5) 0.0365(4)
H13 H 0.8613 0.0120 0.0396
H14 H 0.8285 -0.1271 -0.0254
C16 C 0.4129(4) 0.1630(3) 0.3138(3)
C17 C 0.4638(4) 0.3809(4) 0.1620(3)
H15 H 0.4158 0.3035 0.1188
C18 C 0.6598(5) 0.5079(4) 0.2853(3)
H16 H 0.7456 0.5167 0.3257
C19 C 0.9149(5) -0.1189(5) 0.1147(3)
H17 H 0.9456 -0.0520 0.1728
H18 H 0.9956 -0.1381 0.0964
C20 C 0.6016(6) 0.6112(4) 0.2908(4)
H19 H 0.6482 0.6881 0.3351
C21 C 0.9091(4) 0.3060(5) 0.1994(3)
H20 H 0.9297 0.2891 0.2600
C22 C 0.2139(5) 0.2269(5) 0.3491(4)
H21 H 0.1185 0.2172 0.3341
C23 C 0.8161(6) -0.2387(6) 0.1269(4)
H22 H 0.8222 -0.3153 0.0857
H23 H 0.8371 -0.2480 0.1925
C24 C 0.2984(6) 0.3189(5) 0.4278(4)
H24 H 0.2604 0.3717 0.4650
C25 C 0.4389(5) 0.3319(4) 0.4509(3)
H25 H 0.4959 0.3921 0.5048
C26 C 1.0123(5) 0.3268(5) 0.1498(4)
H26 H 1.1010 0.3219 0.1765
C27 C 0.9833(5) 0.3544(4) 0.0613(4)
H27 H 1.0527 0.3688 0.0282
C28 C 0.4754(6) 0.5999(4) 0.2311(4)
H28 H 0.4371 0.6694 0.2338
C29 C 0.4062(5) 0.4849(5) 0.1673(4)
H29 H 0.3202 0.4765 0.1272
Se1A Se 0.65663(4) 0.10138(4) -0.14894(3)
P1A P 0.50735(9) -0.07210(8) -0.23526(6)
O1A O 0.3109(3) 0.1111(3) -0.0519(2)
N1A N 0.4344(3) -0.1544(3) -0.1678(2)
C1A C 0.3379(3) -0.2829(3) -0.2143(2)
H1A H 0.2939 -0.2799 -0.2793
C2A C 0.1867(4) 0.0525(4) -0.4418(3)
H2A H 0.1223 0.0790 -0.4826
C3A C 0.2494(4) -0.0308(3) -0.3024(3)
H3A H 0.2264 -0.0600 -0.2497
C4A C 0.2237(4) -0.3103(3) -0.1600(3)
C5A C 0.2513(4) -0.3391(4) -0.0709(3)
H4A H 0.3399 -0.3440 -0.0440
C6A C 0.3800(4) -0.0275(3) -0.3200(2)
C7A C 0.4083(4) -0.3920(3) -0.2205(3)
C8A C 0.3159(4) 0.0561(4) -0.4596(3)
H5A H 0.3382 0.0850 -0.5126
C9A C 0.4121(4) 0.0170(3) -0.3991(3)
H6A H 0.4989 0.0205 -0.4112
C10A C 0.5043(4) -0.2552(3) -0.3940(3)
H7A H 0.4089 -0.2657 -0.4097
C11A C 0.1536(4) 0.0096(4) -0.3634(3)
H8A H 0.0670 0.0076 -0.3513
C12A C 0.3267(4) 0.2187(4) -0.0994(3)
H9A H 0.3914 0.2958 -0.0568
H10A H 0.3614 0.1989 -0.1557
C13A C 0.7297(4) -0.1481(4) -0.2919(3)
H11A H 0.7874 -0.0860 -0.2393
C14A C 0.1477(5) -0.3610(4) -0.0212(3)
H12A H 0.1671 -0.3800 0.0388
C15A C 0.1725(4) 0.0798(5) -0.0365(4)
H13A H 0.1387 -0.0120 -0.0396
H14A H 0.1715 0.1271 0.0254
C16A C 0.5871(4) -0.1630(3) -0.3138(3)
C17A C 0.5362(4) -0.3809(4) -0.1620(3)
H15A H 0.5842 -0.3035 -0.1188
C18A C 0.3402(5) -0.5079(4) -0.2853(3)
H16A H 0.2544 -0.5167 -0.3257
C19A C 0.0851(5) 0.1189(5) -0.1147(3)
H17A H 0.0544 0.0520 -0.1728
H18A H 0.0044 0.1381 -0.0964
C20A C 0.3984(6) -0.6112(4) -0.2908(4)
H19A H 0.3518 -0.6881 -0.3351
C21A C 0.0909(4) -0.3060(5) -0.1994(3)
H20A H 0.0703 -0.2891 -0.2600
C22A C 0.7861(5) -0.2269(5) -0.3491(4)
H21A H 0.8815 -0.2172 -0.3341
C23A C 0.1839(6) 0.2387(6) -0.1269(4)
H22A H 0.1778 0.3153 -0.0857
H23A H 0.1629 0.2480 -0.1925
C24A C 0.7016(6) -0.3189(5) -0.4278(4)
H24A H 0.7396 -0.3717 -0.4650
C25A C 0.5611(5) -0.3319(4) -0.4509(3)
H25A H 0.5041 -0.3921 -0.5048
C26A C -0.0123(5) -0.3268(5) -0.1498(4)
H26A H -0.1010 -0.3219 -0.1765
C27A C 0.0167(5) -0.3544(4) -0.0613(4)
H27A H -0.0527 -0.3688 -0.0282
C28A C 0.5246(6) -0.5999(4) -0.2311(4)
H28A H 0.5629 -0.6694 -0.2338
C29A C 0.5938(5) -0.4849(5) -0.1673(4)
H29A H 0.6798 -0.4765 -0.1272
C30 C 0.0761(8) -0.3296(7) 0.4657(5)
H30 H 0.1152 -0.2630 0.5238
H31 H -0.0096 -0.3856 0.4717
O2 O 0.1719(5) -0.4021(5) 0.4508(4)
C31 C 0.0480(7) -0.2701(7) 0.3825(6)
H32 H 0.0893 -0.1773 0.4007
H33 H -0.0514 -0.2871 0.3574
C32 C 0.1118(9) -0.3303(8) 0.3094(6)
H34 H 0.1534 -0.2679 0.2757
H35 H 0.0443 -0.4029 0.2637
C33 C 0.2207(8) -0.3732(8) 0.3719(5)
H36 H 0.2374 -0.4490 0.3366
H37 H 0.3074 -0.3050 0.3926
loop_
_geom_bond_atom_site_label_1
_geom_bond_atom_site_label_2
_geom_bond_site_symmetry_1
_geom_bond_site_symmetry_2
Sr1 Se1 1_555 1_555
Se1 P1 1_555 1_555
P1 N1 1_555 1_555
O1 Sr1 1_555 1_555
N1 Sr1 1_555 1_555
C1 N1 1_555 1_555
H1 C1 1_555 1_555
C2 H2 1_555 1_555
C3 H3 1_555 1_555
C4 C1 1_555 1_555
C5 C4 1_555 1_555
H4 C5 1_555 1_555
C6 P1 1_555 1_555
C7 C1 1_555 1_555
C8 C2 1_555 1_555
H5 C8 1_555 1_555
C9 C6 1_555 1_555
H6 C9 1_555 1_555
C10 H7 1_555 1_555
C11 C2 1_555 1_555
H8 C11 1_555 1_555
C12 O1 1_555 1_555
H9 C12 1_555 1_555
H10 C12 1_555 1_555
C13 H11 1_555 1_555
C14 C5 1_555 1_555
H12 C14 1_555 1_555
C15 O1 1_555 1_555
H13 C15 1_555 1_555
H14 C15 1_555 1_555
C16 P1 1_555 1_555
C17 C7 1_555 1_555
H15 C17 1_555 1_555
C18 C7 1_555 1_555
H16 C18 1_555 1_555
C19 C15 1_555 1_555
H17 C19 1_555 1_555
H18 C19 1_555 1_555
C20 C18 1_555 1_555
H19 C20 1_555 1_555
C21 C4 1_555 1_555
H20 C21 1_555 1_555
C22 C13 1_555 1_555
H21 C22 1_555 1_555
C23 C12 1_555 1_555
H22 C23 1_555 1_555
H23 C23 1_555 1_555
C24 C22 1_555 1_555
H24 C24 1_555 1_555
C25 C10 1_555 1_555
H25 C25 1_555 1_555
C26 C21 1_555 1_555
H26 C26 1_555 1_555
C27 C14 1_555 1_555
H27 C27 1_555 1_555
C28 C20 1_555 1_555
H28 C28 1_555 1_555
C29 C17 1_555 1_555
H29 C29 1_555 1_555
C30 H30 1_555 1_555
H31 C30 1_555 1_555
O2 C30 1_555 1_555
C31 C30 1_555 1_555
H32 C31 1_555 1_555
H33 C31 1_555 1_555
C32 C31 1_555 1_555
H34 C32 1_555 1_555
H35 C32 1_555 1_555
C33 O2 1_555 1_555
H36 C33 1_555 1_555
H37 C33 1_555 1_555
Se1A Sr1 1_555 1_555
P1A Se1A 1_555 1_555
O1A Sr1 1_555 1_555
N1A Sr1 1_555 1_555
C1A N1A 1_555 1_555
H1A C1A 1_555 1_555
C2A H2A 1_555 1_555
C3A H3A 1_555 1_555
C4A C1A 1_555 1_555
C5A C4A 1_555 1_555
H4A C5A 1_555 1_555
C6A P1A 1_555 1_555
C7A C1A 1_555 1_555
C8A C2A 1_555 1_555
H5A C8A 1_555 1_555
C9A C6A 1_555 1_555
H6A C9A 1_555 1_555
C10A H7A 1_555 1_555
C11A C2A 1_555 1_555
H8A C11A 1_555 1_555
C12A O1A 1_555 1_555
H9A C12A 1_555 1_555
H10A C12A 1_555 1_555
C13A H11A 1_555 1_555
C14A C5A 1_555 1_555
H12A C14A 1_555 1_555
C15A O1A 1_555 1_555
H13A C15A 1_555 1_555
H14A C15A 1_555 1_555
C16A P1A 1_555 1_555
C17A C7A 1_555 1_555
H15A C17A 1_555 1_555
C18A C7A 1_555 1_555
H16A C18A 1_555 1_555
C19A C15A 1_555 1_555
H17A C19A 1_555 1_555
H18A C19A 1_555 1_555
C20A C18A 1_555 1_555
H19A C20A 1_555 1_555
C21A C4A 1_555 1_555
H20A C21A 1_555 1_555
C22A C13A 1_555 1_555
H21A C22A 1_555 1_555
C23A C12A 1_555 1_555
H22A C23A 1_555 1_555
H23A C23A 1_555 1_555
C24A C22A 1_555 1_555
H24A C24A 1_555 1_555
C25A C10A 1_555 1_555
H25A C25A 1_555 1_555
C26A C21A 1_555 1_555
H26A C26A 1_555 1_555
C27A C14A 1_555 1_555
H27A C27A 1_555 1_555
C28A C20A 1_555 1_555
H28A C28A 1_555 1_555
C29A C17A 1_555 1_555
H29A C29A 1_555 1_555
C3 C6 1_555 1_555
C3 C11 1_555 1_555
C8 C9 1_555 1_555
C10 C16 1_555 1_555
C13 C16 1_555 1_555
C19 C23 1_555 1_555
C24 C25 1_555 1_555
C26 C27 1_555 1_555
C28 C29 1_555 1_555
C32 C33 1_555 1_555
P1A N1A 1_555 1_555
C3A C6A 1_555 1_555
C3A C11A 1_555 1_555
C8A C9A 1_555 1_555
C10A C16A 1_555 1_555
C13A C16A 1_555 1_555
C19A C23A 1_555 1_555
C24A C25A 1_555 1_555
C26A C27A 1_555 1_555
C28A C29A 1_555 1_555

#END
