
#######################################################################
#
#                 Cambridge Crystallographic Data Centre
#                                CCDC 
#
#######################################################################
#
# If this CIF has been generated from an entry in the Cambridge 
# Structural Database, then it will include bibliographic, chemical, 
# crystal, experimental, refinement or atomic coordinate data resulting 
# from the CCDC's data processing and validation procedures.
#
#######################################################################

data_FESMIB
_chemical_formula_moiety         'C31 H26 N1 P1 Se1,C4 H8 O1'
_chemical_name_systematic        
'P,P-Diphenyl-N-tritylphosphinoselenoic amide tetrahydrofuran solvate'
_symmetry_cell_setting           monoclinic
_symmetry_space_group_name_H-M   'P 21/c'
_symmetry_Int_Tables_number      14
_space_group_name_Hall           '-P 2ybc'
loop_
_symmetry_equiv_pos_site_id
_symmetry_equiv_pos_as_xyz
1 x,y,z
2 -x,1/2+y,1/2-z
3 -x,-y,-z
4 x,1/2-y,1/2+z
_cell_length_a                   12.2406(3)
_cell_length_b                   13.6069(4)
_cell_length_c                   20.4841(6)
_cell_angle_alpha                90
_cell_angle_beta                 121.334(2)
_cell_angle_gamma                90
_cell_volume                     2914.16
_exptl_crystal_colour            colorless
_exptl_crystal_description       plates
_cell_formula_units_Z            4
loop_
_atom_site_label
_atom_site_type_symbol
_atom_site_fract_x
_atom_site_fract_y
_atom_site_fract_z
Se1 Se 0.12948(3) 0.57851(2) 0.85898(2)
P1 P 0.07675(7) 0.71894(6) 0.80724(4)
N1 N 0.1131(2) 0.75107(18) 0.74236(14)
H1 H 0.0498 0.7710 0.6994
C1 C 0.2399(3) 0.7503(2) 0.74796(17)
C2 C 0.2723(3) 0.6470(2) 0.73188(17)
C3 C 0.3994(3) 0.6193(3) 0.7593(2)
H2 H 0.4657 0.6617 0.7909
C4 C 0.4269(4) 0.5290(3) 0.7397(2)
H3 H 0.5116 0.5119 0.7579
C5 C 0.3310(4) 0.4646(3) 0.6936(2)
H4 H 0.3501 0.4041 0.6807
C6 C 0.2057(4) 0.4909(3) 0.6668(2)
H5 H 0.1401 0.4477 0.6355
C7 C 0.1764(3) 0.5804(2) 0.68582(18)
H6 H 0.0914 0.5964 0.6676
C8 C 0.2268(3) 0.8212(2) 0.68522(17)
C9 C 0.3114(3) 0.8159(3) 0.65882(19)
H7 H 0.3756 0.7686 0.6787
C10 C 0.3006(3) 0.8803(3) 0.6032(2)
H8 H 0.3578 0.8755 0.5864
C11 C 0.2068(3) 0.9511(3) 0.57271(19)
H9 H 0.1992 0.9931 0.5348
C12 C 0.1233(3) 0.9588(2) 0.59946(19)
H10 H 0.0600 1.0068 0.5798
C13 C 0.1347(3) 0.8949(2) 0.65545(18)
H11 H 0.0793 0.9015 0.6735
C14 C 0.3431(3) 0.7875(2) 0.82759(18)
C15 C 0.3934(3) 0.7256(3) 0.89035(18)
H12 H 0.3688 0.6600 0.8835
C16 C 0.4801(3) 0.7598(3) 0.9635(2)
H13 H 0.5119 0.7172 1.0049
C17 C 0.5192(3) 0.8564(3) 0.9749(2)
H14 H 0.5761 0.8796 1.0239
C18 C 0.4727(3) 0.9186(3) 0.9124(2)
H15 H 0.5003 0.9835 0.9196
C19 C 0.3848(3) 0.8851(3) 0.8389(2)
H16 H 0.3540 0.9277 0.7974
C20 C -0.0969(3) 0.7332(2) 0.75186(17)
C21 C -0.1527(3) 0.8217(3) 0.71615(19)
H17 H -0.1013 0.8734 0.7183
C22 C -0.2845(3) 0.8334(3) 0.6773(2)
H18 H -0.3212 0.8929 0.6538
C23 C -0.3612(3) 0.7562(3) 0.6736(2)
H19 H -0.4495 0.7637 0.6475
C24 C -0.3066(4) 0.6687(3) 0.7086(2)
H20 H -0.3585 0.6169 0.7056
C25 C -0.1744(3) 0.6563(3) 0.7484(2)
H21 H -0.1383 0.5969 0.7725
C26 C 0.1338(3) 0.8190(2) 0.87663(18)
C27 C 0.1756(3) 0.7998(3) 0.95301(19)
H22 H 0.1783 0.7356 0.9693
C28 C 0.2133(3) 0.8770(3) 1.00474(19)
H23 H 0.2423 0.8640 1.0558
C29 C 0.2080(3) 0.9723(3) 0.9813(2)
H24 H 0.2327 1.0235 1.0162
C30 C 0.1659(3) 0.9923(3) 0.9052(2)
H25 H 0.1621 1.0568 0.8891
C31 C 0.1296(3) 0.9156(2) 0.85312(18)
H26 H 0.1024 0.9289 0.8023
O1 O 0.9151(2) 0.72578(18) 0.57095(13)
C32 C 0.8086(3) 0.7918(3) 0.5333(2)
H27 H 0.8359 0.8591 0.5487
H28 H 0.7439 0.7754 0.5453
C33 C 0.7570(4) 0.7785(3) 0.4488(2)
H29 H 0.7116 0.8366 0.4200
H30 H 0.7005 0.7221 0.4286
C34 C 0.8779(4) 0.7623(3) 0.4471(2)
H31 H 0.8609 0.7240 0.4028
H32 H 0.9168 0.8242 0.4468
C35 C 0.9624(3) 0.7060(3) 0.52072(19)
H33 H 0.9585 0.6361 0.5104
H34 H 1.0505 0.7274 0.5441
loop_
_geom_bond_atom_site_label_1
_geom_bond_atom_site_label_2
_geom_bond_site_symmetry_1
_geom_bond_site_symmetry_2
Se1 P1 1_555 1_555
P1 N1 1_555 1_555
N1 H1 1_555 1_555
C1 N1 1_555 1_555
C2 C1 1_555 1_555
C3 C2 1_555 1_555
H2 C3 1_555 1_555
C4 C3 1_555 1_555
H3 C4 1_555 1_555
C5 C4 1_555 1_555
H4 C5 1_555 1_555
C6 C5 1_555 1_555
H5 C6 1_555 1_555
C7 C2 1_555 1_555
H6 C7 1_555 1_555
C8 C1 1_555 1_555
C9 C8 1_555 1_555
H7 C9 1_555 1_555
C10 C9 1_555 1_555
H8 C10 1_555 1_555
C11 C10 1_555 1_555
H9 C11 1_555 1_555
C12 C11 1_555 1_555
H10 C12 1_555 1_555
C13 C8 1_555 1_555
H11 C13 1_555 1_555
C14 C1 1_555 1_555
C15 C14 1_555 1_555
H12 C15 1_555 1_555
C16 C15 1_555 1_555
H13 C16 1_555 1_555
C17 C16 1_555 1_555
H14 C17 1_555 1_555
C18 C17 1_555 1_555
H15 C18 1_555 1_555
C19 C14 1_555 1_555
H16 C19 1_555 1_555
C20 P1 1_555 1_555
C21 C20 1_555 1_555
H17 C21 1_555 1_555
C22 C21 1_555 1_555
H18 C22 1_555 1_555
C23 C22 1_555 1_555
H19 C23 1_555 1_555
C24 C23 1_555 1_555
H20 C24 1_555 1_555
C25 C20 1_555 1_555
H21 C25 1_555 1_555
C26 P1 1_555 1_555
C27 C26 1_555 1_555
H22 C27 1_555 1_555
C28 C27 1_555 1_555
H23 C28 1_555 1_555
C29 C28 1_555 1_555
H24 C29 1_555 1_555
C30 C29 1_555 1_555
H25 C30 1_555 1_555
C31 C26 1_555 1_555
H26 C31 1_555 1_555
O1 C32 1_555 1_555
C32 H27 1_555 1_555
H28 C32 1_555 1_555
C33 C32 1_555 1_555
H29 C33 1_555 1_555
H30 C33 1_555 1_555
C34 C33 1_555 1_555
H31 C34 1_555 1_555
H32 C34 1_555 1_555
C35 O1 1_555 1_555
H33 C35 1_555 1_555
H34 C35 1_555 1_555
C6 C7 1_555 1_555
C12 C13 1_555 1_555
C18 C19 1_555 1_555
C24 C25 1_555 1_555
C30 C31 1_555 1_555
C34 C35 1_555 1_555

#END
