
#######################################################################
#
#                 Cambridge Crystallographic Data Centre
#                                CCDC 
#
#######################################################################
#
# If this CIF has been generated from an entry in the Cambridge 
# Structural Database, then it will include bibliographic, chemical, 
# crystal, experimental, refinement or atomic coordinate data resulting 
# from the CCDC's data processing and validation procedures.
#
#######################################################################

data_FESMOH
_chemical_formula_moiety         'C66 H74 K2 N2 O4 P2 Se2'
_chemical_name_systematic        
'bis(\m~2~-N-(Diphenylmethyl)-P,P-diphenylphosphinoselenoic amidato)-tetrakis(tetrahydrofuran)-di-potassium'
_symmetry_cell_setting           triclinic
_symmetry_space_group_name_H-M   'P -1'
_symmetry_Int_Tables_number      2
_space_group_name_Hall           '-P 1'
loop_
_symmetry_equiv_pos_site_id
_symmetry_equiv_pos_as_xyz
1 x,y,z
2 -x,-y,-z
_cell_length_a                   10.4891(10)
_cell_length_b                   13.1334(10)
_cell_length_c                   13.4628(8)
_cell_angle_alpha                67.483(6)
_cell_angle_beta                 84.963(6)
_cell_angle_gamma                66.685(8)
_cell_volume                     1568.87
_exptl_crystal_colour            colorless
_exptl_crystal_description       block
_cell_formula_units_Z            1
loop_
_atom_site_label
_atom_site_type_symbol
_atom_site_fract_x
_atom_site_fract_y
_atom_site_fract_z
Se1 Se 0.29681(4) 0.45534(3) 0.56647(3)
P1 P 0.39170(8) 0.31973(7) 0.50031(7)
K1 K 0.37315(8) 0.60961(7) 0.32729(7)
C1 C 0.3812(3) 0.3570(3) 0.2162(3)
C2 C 0.6951(4) 0.3513(3) 0.2806(3)
H1 H 0.6467 0.4177 0.2985
O1 O 0.4499(4) 0.7022(3) 0.1306(3)
C3 C 0.3318(4) 0.1241(3) 0.5145(3)
H2 H 0.4271 0.0792 0.5291
C4 C 0.6308(3) 0.2751(3) 0.2845(3)
C5 C 0.2453(4) 0.0716(3) 0.5012(3)
H3 H 0.2827 -0.0073 0.5059
C6 C 0.5210(4) 0.1239(3) 0.6956(3)
H4 H 0.4324 0.1261 0.7131
C7 C 0.3829(4) 0.4572(3) 0.1303(3)
H5 H 0.4491 0.4870 0.1327
C8 C 0.1036(4) 0.1381(4) 0.4810(3)
H6 H 0.0454 0.1043 0.4708
C9 C 0.9028(4) 0.2317(4) 0.2237(3)
H7 H 0.9935 0.2169 0.2036
C10 C 0.2817(4) 0.3136(4) 0.2114(3)
H8 H 0.2786 0.2463 0.2679
C11 C 0.7655(4) 0.0390(4) 0.7444(3)
H9 H 0.8408 -0.0149 0.7945
C12 C 0.8301(4) 0.3295(3) 0.2504(3)
H10 H 0.8716 0.3810 0.2482
C13 C 0.2888(4) 0.5138(4) 0.0414(3)
H11 H 0.2916 0.5811 -0.0154
C14 C 0.1901(4) 0.4696(4) 0.0373(4)
H12 H 0.1265 0.5066 -0.0224
O2 O 0.1109(4) 0.7113(3) 0.2369(4)
C15 C 0.8405(4) 0.1551(4) 0.2266(4)
H13 H 0.8893 0.0891 0.2083
C16 C 0.6333(4) 0.0431(4) 0.7688(3)
H14 H 0.6200 -0.0089 0.8348
C17 C 0.5852(5) 0.7015(4) 0.1233(4)
H15 H 0.6494 0.6323 0.1092
H16 H 0.6176 0.6983 0.1902
C18 C 0.1870(4) 0.3707(5) 0.1221(4)
H17 H 0.1203 0.3415 0.1197
C19 C 0.396(2) 0.7566(15) 0.0204(11)
H18 H 0.2953 0.7889 0.0156
H19 H 0.4296 0.6981 -0.0131
C20 C 0.4459(7) 0.8532(5) -0.0336(5)
H20 H 0.3776 0.9292 -0.0339
H21 H 0.4648 0.8610 -0.1074
C21 C -0.012(5) 0.828(4) 0.199(4)
H22 H -0.0361 0.8610 0.2550
H23 H 0.0054 0.8857 0.1350
C22 C -0.1185(14) 0.800(2) 0.178(3)
H24 H -0.1659 0.8563 0.1077
H25 H -0.1859 0.8055 0.2316
N1 N 0.4367(3) 0.3717(2) 0.3818(2)
C23 C 0.2774(3) 0.2424(3) 0.5060(3)
C24 C 0.7052(4) 0.1772(3) 0.2568(3)
H26 H 0.6639 0.1256 0.2585
C25 C 0.5770(5) 0.8154(4) 0.0319(4)
H27 H 0.5712 0.8759 0.0586
H28 H 0.6573 0.8009 -0.0103
C26 C 0.0563(5) 0.6233(5) 0.2576(5)
H29 H 0.0269 0.6005 0.3304
H30 H 0.1256 0.5524 0.2490
C27 C 0.4818(3) 0.2973(3) 0.3166(3)
H31 H 0.4773 0.2195 0.3596
C28 C 0.5379(3) 0.2023(3) 0.5959(3)
C29 C 0.6721(3) 0.1959(3) 0.5716(3)
H32 H 0.6863 0.2461 0.5048
C30 C 0.0486(4) 0.2539(4) 0.4759(3)
H33 H -0.0472 0.2973 0.4644
C31 C 0.1341(4) 0.3067(3) 0.4878(3)
H34 H 0.0956 0.3855 0.4835
C32 C 0.7857(4) 0.1145(3) 0.6466(3)
H35 H 0.8747 0.1115 0.6301
C33 C -0.0631(6) 0.6787(6) 0.1783(6)
H36 H -0.0344 0.6774 0.1082
H37 H -0.1292 0.6409 0.2023
Se1A Se 0.70319(4) 0.54466(3) 0.43353(3)
P1A P 0.60830(8) 0.68027(7) 0.49969(7)
K1A K 0.62685(8) 0.39039(7) 0.67271(7)
C1A C 0.6188(3) 0.6430(3) 0.7838(3)
C2A C 0.3049(4) 0.6487(3) 0.7194(3)
H1A H 0.3533 0.5823 0.7015
O1A O 0.5501(4) 0.2978(3) 0.8694(3)
C3A C 0.6682(4) 0.8759(3) 0.4855(3)
H2A H 0.5729 0.9208 0.4709
C4A C 0.3692(3) 0.7249(3) 0.7155(3)
C5A C 0.7547(4) 0.9284(3) 0.4988(3)
H3A H 0.7173 1.0073 0.4941
C6A C 0.4790(4) 0.8761(3) 0.3044(3)
H4A H 0.5676 0.8739 0.2869
C7A C 0.6171(4) 0.5428(3) 0.8697(3)
H5A H 0.5509 0.5130 0.8673
C8A C 0.8964(4) 0.8619(4) 0.5190(3)
H6A H 0.9546 0.8957 0.5292
C9A C 0.0972(4) 0.7683(4) 0.7763(3)
H7A H 0.0065 0.7831 0.7964
C10A C 0.7183(4) 0.6864(4) 0.7886(3)
H8A H 0.7214 0.7537 0.7321
C11A C 0.2345(4) 0.9610(4) 0.2556(3)
H9A H 0.1592 1.0149 0.2055
C12A C 0.1699(4) 0.6705(3) 0.7496(3)
H10A H 0.1284 0.6190 0.7518
C13A C 0.7112(4) 0.4862(4) 0.9586(3)
H11A H 0.7084 0.4189 1.0154
C14A C 0.8099(4) 0.5304(4) 0.9627(4)
H12A H 0.8735 0.4934 1.0224
O2A O 0.8891(4) 0.2887(3) 0.7631(4)
C15A C 0.1595(4) 0.8449(4) 0.7734(4)
H13A H 0.1107 0.9109 0.7917
C16A C 0.3667(4) 0.9569(4) 0.2312(3)
H14A H 0.3800 1.0089 0.1652
C17A C 0.4148(5) 0.2985(4) 0.8767(4)
H15A H 0.3506 0.3677 0.8908
H16A H 0.3824 0.3017 0.8098
C18A C 0.8130(4) 0.6293(5) 0.8779(4)
H17A H 0.8797 0.6585 0.8803
C19A C 0.604(2) 0.2434(15) 0.9796(11)
H18A H 0.7047 0.2111 0.9844
H19A H 0.5704 0.3019 1.0131
C20A C 0.5541(7) 0.1468(5) 1.0336(5)
H20A H 0.6224 0.0708 1.0339
H21A H 0.5352 0.1390 1.1074
C21A C 1.012(5) 0.172(4) 0.801(4)
H22A H 1.0361 0.1390 0.7450
H23A H 0.9946 0.1143 0.8650
C22A C 1.1185(14) 0.200(2) 0.822(3)
H24A H 1.1659 0.1437 0.8923
H25A H 1.1859 0.1945 0.7684
N1A N 0.5633(3) 0.6283(2) 0.6182(2)
C23A C 0.7226(3) 0.7576(3) 0.4940(3)
C24A C 0.2948(4) 0.8228(3) 0.7432(3)
H26A H 0.3361 0.8744 0.7415
C25A C 0.4230(5) 0.1846(4) 0.9681(4)
H27A H 0.4288 0.1241 0.9414
H28A H 0.3427 0.1991 1.0103
C26A C 0.9437(5) 0.3767(5) 0.7424(5)
H29A H 0.9731 0.3995 0.6696
H30A H 0.8744 0.4476 0.7510
C27A C 0.5182(3) 0.7027(3) 0.6834(3)
H31A H 0.5227 0.7805 0.6404
C28A C 0.4621(3) 0.7977(3) 0.4041(3)
C29A C 0.3279(3) 0.8041(3) 0.4284(3)
H32A H 0.3137 0.7539 0.4952
C30A C 0.9514(4) 0.7461(4) 0.5241(3)
H33A H 1.0472 0.7027 0.5356
C31A C 0.8659(4) 0.6933(3) 0.5122(3)
H34A H 0.9044 0.6145 0.5165
C32A C 0.2143(4) 0.8855(3) 0.3534(3)
H35A H 0.1253 0.8885 0.3699
C33A C 1.0631(6) 0.3213(6) 0.8217(6)
H36A H 1.0344 0.3226 0.8918
H37A H 1.1292 0.3591 0.7977
C34? C 0.351(2) 0.806(3) 0.0392(14)
H38? H 0.3001 0.7799 0.0041
H39? H 0.2846 0.8661 0.0643
C35? C 0.014(3) 0.821(2) 0.167(5)
H40? H -0.0484 0.8638 0.2087
H41? H 0.0616 0.8701 0.1219
C36? C -0.063(6) 0.801(3) 0.103(4)
H42? H -0.0180 0.7970 0.0376
H43? H -0.1567 0.8625 0.0838
loop_
_geom_bond_atom_site_label_1
_geom_bond_atom_site_label_2
_geom_bond_site_symmetry_1
_geom_bond_site_symmetry_2
Se1 P1 1_555 1_555
P1 N1 1_555 1_555
K1 Se1 1_555 1_555
C1 C7 1_555 1_555
C2 H1 1_555 1_555
O1 K1 1_555 1_555
C3 H2 1_555 1_555
C4 C2 1_555 1_555
C5 C3 1_555 1_555
H3 C5 1_555 1_555
C6 H4 1_555 1_555
C7 H5 1_555 1_555
C8 C5 1_555 1_555
H6 C8 1_555 1_555
C9 H7 1_555 1_555
C10 C1 1_555 1_555
H8 C10 1_555 1_555
C11 H9 1_555 1_555
C12 C2 1_555 1_555
H10 C12 1_555 1_555
C13 C7 1_555 1_555
H11 C13 1_555 1_555
C14 C13 1_555 1_555
H12 C14 1_555 1_555
O2 K1 1_555 1_555
C15 C9 1_555 1_555
H13 C15 1_555 1_555
C16 C6 1_555 1_555
H14 C16 1_555 1_555
C17 O1 1_555 1_555
H15 C17 1_555 1_555
H16 C17 1_555 1_555
C18 C10 1_555 1_555
H17 C18 1_555 1_555
C19 O1 1_555 1_555
H18 C19 1_555 1_555
H19 C19 1_555 1_555
C20 C19 1_555 1_555
H20 C20 1_555 1_555
H21 C20 1_555 1_555
C21 O2 1_555 1_555
H22 C21 1_555 1_555
H23 C21 1_555 1_555
C22 C21 1_555 1_555
H24 C22 1_555 1_555
H25 C22 1_555 1_555
N1 K1 1_555 1_555
C23 P1 1_555 1_555
C24 C4 1_555 1_555
H26 C24 1_555 1_555
C25 C17 1_555 1_555
H27 C25 1_555 1_555
H28 C25 1_555 1_555
C26 O2 1_555 1_555
H29 C26 1_555 1_555
H30 C26 1_555 1_555
C27 C1 1_555 1_555
H31 C27 1_555 1_555
C28 P1 1_555 1_555
C29 C28 1_555 1_555
H32 C29 1_555 1_555
C30 C8 1_555 1_555
H33 C30 1_555 1_555
C31 C23 1_555 1_555
H34 C31 1_555 1_555
C32 C11 1_555 1_555
H35 C32 1_555 1_555
C33 C22 1_555 1_555
H36 C33 1_555 1_555
H37 C33 1_555 1_555
Se1A K1 1_555 1_555
P1A Se1A 1_555 1_555
K1A Se1 1_555 1_555
C1A C7A 1_555 1_555
C2A H1A 1_555 1_555
O1A K1A 1_555 1_555
C3A H2A 1_555 1_555
C4A C2A 1_555 1_555
C5A C3A 1_555 1_555
H3A C5A 1_555 1_555
C6A H4A 1_555 1_555
C7A H5A 1_555 1_555
C8A C5A 1_555 1_555
H6A C8A 1_555 1_555
C9A H7A 1_555 1_555
C10A C1A 1_555 1_555
H8A C10A 1_555 1_555
C11A H9A 1_555 1_555
C12A C2A 1_555 1_555
H10A C12A 1_555 1_555
C13A C7A 1_555 1_555
H11A C13A 1_555 1_555
C14A C13A 1_555 1_555
H12A C14A 1_555 1_555
O2A K1A 1_555 1_555
C15A C9A 1_555 1_555
H13A C15A 1_555 1_555
C16A C6A 1_555 1_555
H14A C16A 1_555 1_555
C17A O1A 1_555 1_555
H15A C17A 1_555 1_555
H16A C17A 1_555 1_555
C18A C10A 1_555 1_555
H17A C18A 1_555 1_555
C19A O1A 1_555 1_555
H18A C19A 1_555 1_555
H19A C19A 1_555 1_555
C20A C19A 1_555 1_555
H20A C20A 1_555 1_555
H21A C20A 1_555 1_555
C21A O2A 1_555 1_555
H22A C21A 1_555 1_555
H23A C21A 1_555 1_555
C22A C21A 1_555 1_555
H24A C22A 1_555 1_555
H25A C22A 1_555 1_555
N1A P1A 1_555 1_555
C23A P1A 1_555 1_555
C24A C4A 1_555 1_555
H26A C24A 1_555 1_555
C25A C17A 1_555 1_555
H27A C25A 1_555 1_555
H28A C25A 1_555 1_555
C26A O2A 1_555 1_555
H29A C26A 1_555 1_555
H30A C26A 1_555 1_555
C27A C1A 1_555 1_555
H31A C27A 1_555 1_555
C28A P1A 1_555 1_555
C29A C28A 1_555 1_555
H32A C29A 1_555 1_555
C30A C8A 1_555 1_555
H33A C30A 1_555 1_555
C31A C23A 1_555 1_555
H34A C31A 1_555 1_555
C32A C11A 1_555 1_555
H35A C32A 1_555 1_555
C33A C22A 1_555 1_555
H36A C33A 1_555 1_555
H37A C33A 1_555 1_555
C3 C23 1_555 1_555
C4 C27 1_555 1_555
C6 C28 1_555 1_555
C9 C12 1_555 1_555
C11 C16 1_555 1_555
C14 C18 1_555 1_555
C15 C24 1_555 1_555
C20 C25 1_555 1_555
N1 C27 1_555 1_555
C26 C33 1_555 1_555
C29 C32 1_555 1_555
C30 C31 1_555 1_555
Se1A K1A 1_555 1_555
K1A N1A 1_555 1_555
C3A C23A 1_555 1_555
C4A C27A 1_555 1_555
C6A C28A 1_555 1_555
C9A C12A 1_555 1_555
C11A C16A 1_555 1_555
C14A C18A 1_555 1_555
C15A C24A 1_555 1_555
C20A C25A 1_555 1_555
N1A C27A 1_555 1_555
C26A C33A 1_555 1_555
C29A C32A 1_555 1_555
C30A C31A 1_555 1_555

#END
