
#######################################################################
#
#                 Cambridge Crystallographic Data Centre
#                                CCDC 
#
#######################################################################
#
# If this CIF has been generated from an entry in the Cambridge 
# Structural Database, then it will include bibliographic, chemical, 
# crystal, experimental, refinement or atomic coordinate data resulting 
# from the CCDC's data processing and validation procedures.
#
#######################################################################

data_FESNAU
_chemical_formula_moiety         'C66 H74 N2 Na2 O4 P2 Se2'
_chemical_name_systematic        
'(\m~2~-N-(Diphenylmethyl)-P,P-diphenylphosphinoselenoic amidato)-tetrakis(tetrahydrofuran)-di-sodium'
_symmetry_cell_setting           triclinic
_symmetry_space_group_name_H-M   'P -1'
_symmetry_Int_Tables_number      2
_space_group_name_Hall           '-P 1'
loop_
_symmetry_equiv_pos_site_id
_symmetry_equiv_pos_as_xyz
1 x,y,z
2 -x,-y,-z
_cell_length_a                   10.3920(17)
_cell_length_b                   12.981(2)
_cell_length_c                   13.4630(17)
_cell_angle_alpha                109.103(13)
_cell_angle_beta                 107.189(13)
_cell_angle_gamma                104.478(14)
_cell_volume                     1513.73
_exptl_crystal_colour            colorless
_exptl_crystal_description       block
_cell_formula_units_Z            1
loop_
_atom_site_label
_atom_site_type_symbol
_atom_site_fract_x
_atom_site_fract_y
_atom_site_fract_z
Se1 Se 0.25480(3) 0.46324(2) 0.91709(2)
Na1 Na 0.48028(10) 0.51213(8) 1.14385(8)
O1 O 0.5620(2) 0.3853(2) 1.2231(2)
O2 O 0.2906(2) 0.4814(2) 1.21094(18)
P1 P 0.20461(6) 0.29402(5) 0.78303(5)
N1 N 0.3387(2) 0.29264(16) 0.74878(16)
C1 C 0.3467(2) 0.17971(19) 0.68502(19)
H1 H 0.2538 0.1161 0.6610
C2 C 0.4672(3) 0.16051(19) 0.76488(19)
C3 C 0.4360(3) 0.0709(2) 0.7991(2)
H2 H 0.3396 0.0203 0.7718
C4 C 0.5468(3) 0.0554(2) 0.8739(2)
H3 H 0.5241 -0.0050 0.8963
C5 C 0.6901(3) 0.1296(2) 0.9146(2)
H4 H 0.7642 0.1186 0.9635
C6 C 0.7236(3) 0.2205(2) 0.8826(2)
H5 H 0.8200 0.2716 0.9112
C7 C 0.6126(3) 0.2353(2) 0.8074(2)
H6 H 0.6357 0.2959 0.7853
C8 C 0.3698(2) 0.1743(2) 0.57660(19)
C9 C 0.3563(3) 0.0669(2) 0.4969(2)
H7 H 0.3355 0.0008 0.5115
C10 C 0.3733(3) 0.0573(3) 0.3963(2)
H8 H 0.3633 -0.0150 0.3438
C11 C 0.4052(3) 0.1551(3) 0.3741(2)
H9 H 0.4159 0.1489 0.3064
C12 C 0.4210(3) 0.2617(2) 0.4527(2)
H10 H 0.4438 0.3280 0.4385
C13 C 0.0387(2) 0.26443(19) 0.6626(2)
C14 C -0.0865(3) 0.2699(2) 0.6793(2)
H11 H -0.0863 0.2874 0.7521
C15 C -0.2108(3) 0.2496(2) 0.5884(2)
H12 H -0.2930 0.2546 0.6005
C16 C -0.2123(3) 0.2219(2) 0.4796(2)
H13 H -0.2958 0.2076 0.4183
C17 C -0.0891(3) 0.2156(2) 0.4622(2)
H14 H -0.0898 0.1975 0.3892
C18 C 0.0350(3) 0.2361(2) 0.5530(2)
H15 H 0.1169 0.2307 0.5404
C19 C 0.1420(2) 0.1741(2) 0.8219(2)
C20 C 0.2095(3) 0.1867(2) 0.9338(2)
H16 H 0.2819 0.2589 0.9903
C21 C 0.1706(3) 0.0938(3) 0.9620(3)
H17 H 0.2175 0.1036 1.0368
C22 C 0.0628(3) -0.0131(3) 0.8797(3)
H18 H 0.0363 -0.0754 0.8990
C23 C -0.0063(3) -0.0278(2) 0.7682(3)
H19 H -0.0790 -0.1000 0.7124
C24 C 0.0330(3) 0.0655(2) 0.7395(2)
H20 H -0.0141 0.0551 0.6644
C25 C 0.6852(4) 0.4435(3) 1.3328(3)
H21 H 0.6600 0.4222 1.3892
H22 H 0.7177 0.5285 1.3606
C26 C 0.8022(3) 0.4031(3) 1.3135(3)
H23 H 0.8658 0.4028 1.3825
H24 H 0.8602 0.4524 1.2892
C27 C 0.7138(4) 0.2779(3) 1.2172(3)
H25 H 0.7667 0.2544 1.1711
H26 H 0.6912 0.2217 1.2486
C28 C 0.5796(4) 0.2853(3) 1.1479(3)
H27 H 0.5883 0.2968 1.0822
H28 H 0.4961 0.2132 1.1198
C29 C 0.2975(4) 0.4412(4) 1.2986(3)
H29 H 0.3322 0.3773 1.2851
H30 H 0.3645 0.5051 1.3737
C30 C 0.1679(11) 0.3404(12) 1.2544(11)
H31 H 0.1335 0.3395 1.3138
H32 H 0.1833 0.2681 1.2230
C31 C 0.0590(4) 0.3551(4) 1.1586(4)
H33 H 0.0630 0.2824 1.1112
H34 H -0.0417 0.3458 1.1423
C32 C 0.1395(3) 0.4557(3) 1.1485(3)
H35 H 0.1180 0.4378 1.0682
H36 H 0.1148 0.5225 1.1815
C33 C 0.4031(3) 0.2713(2) 0.5537(2)
H37 H 0.4137 0.3439 0.6061
Se1A Se 0.74520(3) 0.53676(2) 1.08291(2)
Na1A Na 0.51972(10) 0.48787(8) 0.85615(8)
O1A O 0.4380(2) 0.6147(2) 0.7769(2)
O2A O 0.7094(2) 0.5186(2) 0.78906(18)
P1A P 0.79539(6) 0.70598(5) 1.21697(5)
N1A N 0.6613(2) 0.70736(16) 1.25122(16)
C1A C 0.6533(2) 0.82029(19) 1.31498(19)
H1A H 0.7462 0.8839 1.3390
C2A C 0.5328(3) 0.83949(19) 1.23512(19)
C3A C 0.5640(3) 0.9291(2) 1.2009(2)
H2A H 0.6604 0.9797 1.2282
C4A C 0.4532(3) 0.9446(2) 1.1261(2)
H3A H 0.4759 1.0050 1.1037
C5A C 0.3099(3) 0.8704(2) 1.0854(2)
H4A H 0.2358 0.8814 1.0365
C6A C 0.2764(3) 0.7795(2) 1.1174(2)
H5A H 0.1800 0.7284 1.0888
C7A C 0.3874(3) 0.7647(2) 1.1926(2)
H6A H 0.3643 0.7041 1.2147
C8A C 0.6302(2) 0.8257(2) 1.42340(19)
C9A C 0.6437(3) 0.9331(2) 1.5031(2)
H7A H 0.6645 0.9992 1.4885
C10A C 0.6267(3) 0.9427(3) 1.6037(2)
H8A H 0.6367 1.0150 1.6562
C11A C 0.5948(3) 0.8449(3) 1.6259(2)
H9A H 0.5841 0.8511 1.6936
C12A C 0.5790(3) 0.7383(2) 1.5473(2)
H10A H 0.5562 0.6720 1.5615
C13A C 0.9613(2) 0.73557(19) 1.3374(2)
C14A C 1.0865(3) 0.7301(2) 1.3207(2)
H11A H 1.0863 0.7126 1.2479
C15A C 1.2108(3) 0.7504(2) 1.4116(2)
H12A H 1.2930 0.7454 1.3995
C16A C 1.2123(3) 0.7781(2) 1.5204(2)
H13A H 1.2958 0.7924 1.5817
C17A C 1.0891(3) 0.7844(2) 1.5378(2)
H14A H 1.0898 0.8025 1.6108
C18A C 0.9650(3) 0.7639(2) 1.4470(2)
H15A H 0.8831 0.7693 1.4596
C19A C 0.8580(2) 0.8259(2) 1.1781(2)
C20A C 0.7905(3) 0.8133(2) 1.0662(2)
H16A H 0.7181 0.7411 1.0097
C21A C 0.8294(3) 0.9062(3) 1.0380(3)
H17A H 0.7825 0.8964 0.9632
C22A C 0.9372(3) 1.0131(3) 1.1203(3)
H18A H 0.9637 1.0754 1.1010
C23A C 1.0063(3) 1.0278(2) 1.2318(3)
H19A H 1.0790 1.1000 1.2876
C24A C 0.9670(3) 0.9345(2) 1.2605(2)
H20A H 1.0141 0.9449 1.3356
C25A C 0.3148(4) 0.5565(3) 0.6672(3)
H21A H 0.3400 0.5778 0.6108
H22A H 0.2823 0.4715 0.6394
C26A C 0.1978(3) 0.5969(3) 0.6865(3)
H23A H 0.1342 0.5972 0.6175
H24A H 0.1398 0.5476 0.7108
C27A C 0.2862(4) 0.7221(3) 0.7828(3)
H25A H 0.2333 0.7456 0.8289
H26A H 0.3088 0.7783 0.7514
C28A C 0.4204(4) 0.7147(3) 0.8521(3)
H27A H 0.4117 0.7032 0.9178
H28A H 0.5039 0.7868 0.8802
C29A C 0.7025(4) 0.5588(4) 0.7014(3)
H29A H 0.6678 0.6227 0.7149
H30A H 0.6355 0.4949 0.6263
C30A C 0.8321(11) 0.6596(12) 0.7456(11)
H31A H 0.8665 0.6605 0.6862
H32A H 0.8167 0.7319 0.7770
C31A C 0.9410(4) 0.6449(4) 0.8414(4)
H33A H 0.9370 0.7176 0.8888
H34A H 1.0417 0.6542 0.8577
C32A C 0.8605(3) 0.5443(3) 0.8515(3)
H35A H 0.8820 0.5622 0.9318
H36A H 0.8852 0.4775 0.8185
C33A C 0.5969(3) 0.7287(2) 1.4463(2)
H37A H 0.5863 0.6561 1.3939
C34? C 0.1574(11) 0.4019(17) 1.2955(11)
H38? H 0.1385 0.4656 1.3430
H39? H 0.1417 0.3386 1.3194
loop_
_geom_bond_atom_site_label_1
_geom_bond_atom_site_label_2
_geom_bond_site_symmetry_1
_geom_bond_site_symmetry_2
Se1 Na1 1_555 1_555
Na1 O1 1_555 1_555
O1 C25 1_555 1_555
O2 Na1 1_555 1_555
P1 Se1 1_555 1_555
N1 P1 1_555 1_555
C1 N1 1_555 1_555
H1 C1 1_555 1_555
C2 C1 1_555 1_555
C3 C2 1_555 1_555
H2 C3 1_555 1_555
C4 C3 1_555 1_555
H3 C4 1_555 1_555
C5 C4 1_555 1_555
H4 C5 1_555 1_555
C6 C5 1_555 1_555
H5 C6 1_555 1_555
C7 C2 1_555 1_555
H6 C7 1_555 1_555
C8 C1 1_555 1_555
C9 C8 1_555 1_555
H7 C9 1_555 1_555
C10 C9 1_555 1_555
H8 C10 1_555 1_555
C11 C10 1_555 1_555
H9 C11 1_555 1_555
C12 C11 1_555 1_555
H10 C12 1_555 1_555
C13 P1 1_555 1_555
C14 C13 1_555 1_555
H11 C14 1_555 1_555
C15 C14 1_555 1_555
H12 C15 1_555 1_555
C16 C15 1_555 1_555
H13 C16 1_555 1_555
C17 C16 1_555 1_555
H14 C17 1_555 1_555
C18 C13 1_555 1_555
H15 C18 1_555 1_555
C19 P1 1_555 1_555
C20 C19 1_555 1_555
H16 C20 1_555 1_555
C21 C20 1_555 1_555
H17 C21 1_555 1_555
C22 C21 1_555 1_555
H18 C22 1_555 1_555
C23 C22 1_555 1_555
H19 C23 1_555 1_555
C24 C19 1_555 1_555
H20 C24 1_555 1_555
C25 H21 1_555 1_555
H22 C25 1_555 1_555
C26 C25 1_555 1_555
H23 C26 1_555 1_555
H24 C26 1_555 1_555
C27 C26 1_555 1_555
H25 C27 1_555 1_555
H26 C27 1_555 1_555
C28 O1 1_555 1_555
H27 C28 1_555 1_555
H28 C28 1_555 1_555
C29 O2 1_555 1_555
H29 C29 1_555 1_555
H30 C29 1_555 1_555
C30 C29 1_555 1_555
H31 C30 1_555 1_555
H32 C30 1_555 1_555
C31 C30 1_555 1_555
H33 C31 1_555 1_555
H34 C31 1_555 1_555
C32 O2 1_555 1_555
H35 C32 1_555 1_555
H36 C32 1_555 1_555
C33 C8 1_555 1_555
H37 C33 1_555 1_555
Se1A Na1 1_555 1_555
Na1A Se1 1_555 1_555
O1A Na1A 1_555 1_555
O2A Na1A 1_555 1_555
P1A Se1A 1_555 1_555
N1A Na1 1_555 1_555
C1A N1A 1_555 1_555
H1A C1A 1_555 1_555
C2A C1A 1_555 1_555
C3A C2A 1_555 1_555
H2A C3A 1_555 1_555
C4A C3A 1_555 1_555
H3A C4A 1_555 1_555
C5A C4A 1_555 1_555
H4A C5A 1_555 1_555
C6A C5A 1_555 1_555
H5A C6A 1_555 1_555
C7A C2A 1_555 1_555
H6A C7A 1_555 1_555
C8A C1A 1_555 1_555
C9A C8A 1_555 1_555
H7A C9A 1_555 1_555
C10A C9A 1_555 1_555
H8A C10A 1_555 1_555
C11A C10A 1_555 1_555
H9A C11A 1_555 1_555
C12A C11A 1_555 1_555
H10A C12A 1_555 1_555
C13A P1A 1_555 1_555
C14A C13A 1_555 1_555
H11A C14A 1_555 1_555
C15A C14A 1_555 1_555
H12A C15A 1_555 1_555
C16A C15A 1_555 1_555
H13A C16A 1_555 1_555
C17A C16A 1_555 1_555
H14A C17A 1_555 1_555
C18A C13A 1_555 1_555
H15A C18A 1_555 1_555
C19A P1A 1_555 1_555
C20A C19A 1_555 1_555
H16A C20A 1_555 1_555
C21A C20A 1_555 1_555
H17A C21A 1_555 1_555
C22A C21A 1_555 1_555
H18A C22A 1_555 1_555
C23A C22A 1_555 1_555
H19A C23A 1_555 1_555
C24A C19A 1_555 1_555
H20A C24A 1_555 1_555
C25A O1A 1_555 1_555
H21A C25A 1_555 1_555
H22A C25A 1_555 1_555
C26A C25A 1_555 1_555
H23A C26A 1_555 1_555
H24A C26A 1_555 1_555
C27A C26A 1_555 1_555
H25A C27A 1_555 1_555
H26A C27A 1_555 1_555
C28A O1A 1_555 1_555
H27A C28A 1_555 1_555
H28A C28A 1_555 1_555
C29A O2A 1_555 1_555
H29A C29A 1_555 1_555
H30A C29A 1_555 1_555
C30A C29A 1_555 1_555
H31A C30A 1_555 1_555
H32A C30A 1_555 1_555
C31A C30A 1_555 1_555
H33A C31A 1_555 1_555
H34A C31A 1_555 1_555
C32A O2A 1_555 1_555
H35A C32A 1_555 1_555
H36A C32A 1_555 1_555
C33A C8A 1_555 1_555
H37A C33A 1_555 1_555
N1 Na1A 1_555 1_555
C6 C7 1_555 1_555
C12 C33 1_555 1_555
C17 C18 1_555 1_555
C23 C24 1_555 1_555
C27 C28 1_555 1_555
C31 C32 1_555 1_555
Se1A Na1A 1_555 1_555
P1A N1A 1_555 1_555
C6A C7A 1_555 1_555
C12A C33A 1_555 1_555
C17A C18A 1_555 1_555
C23A C24A 1_555 1_555
C27A C28A 1_555 1_555
C31A C32A 1_555 1_555

#END
