
#######################################################################
#
#                 Cambridge Crystallographic Data Centre
#                                CCDC 
#
#######################################################################
#
# If this CIF has been generated from an entry in the Cambridge 
# Structural Database, then it will include bibliographic, chemical, 
# crystal, experimental, refinement or atomic coordinate data resulting 
# from the CCDC's data processing and validation procedures.
#
#######################################################################

data_FESNEY
_chemical_formula_moiety         'C58 H58 Ca1 N2 O2 P2 Se2,2(C4 H8 O1)'
_chemical_name_systematic        
'bis(N-(diphenylmethyl)-P,P-diphenylphosphinoselenoic amidato)-bis(tetrahydrofuran)-calcium tetrahydrofuran solvate'
_symmetry_cell_setting           triclinic
_symmetry_space_group_name_H-M   'P -1'
_symmetry_Int_Tables_number      2
_space_group_name_Hall           '-P 1'
loop_
_symmetry_equiv_pos_site_id
_symmetry_equiv_pos_as_xyz
1 x,y,z
2 -x,-y,-z
_cell_length_a                   10.2981(9)
_cell_length_b                   10.9898(9)
_cell_length_c                   14.4141(13)
_cell_angle_alpha                99.955(7)
_cell_angle_beta                 101.789(8)
_cell_angle_gamma                103.034(7)
_cell_volume                     1514.19
_exptl_crystal_colour            colorless
_exptl_crystal_description       block
_cell_formula_units_Z            1
loop_
_atom_site_label
_atom_site_type_symbol
_atom_site_fract_x
_atom_site_fract_y
_atom_site_fract_z
Se1 Se 0.35051(7) 0.39848(7) 0.63964(5)
Ca1 Ca 0.5000 0.5000 0.5000
P1 P 0.49668(17) 0.57085(16) 0.72949(11)
O1 O 0.3192(5) 0.6006(5) 0.4481(4)
N1 N 0.5696(5) 0.6529(5) 0.6609(4)
C1 C 0.6636(7) 0.7791(6) 0.7093(5)
H1 H 0.7082 0.7747 0.7751
C2 C 0.7761(7) 0.8074(7) 0.6551(5)
C3 C 0.9072(9) 0.7948(9) 0.6918(7)
H2 H 0.9273 0.7704 0.7506
C4 C 1.0078(9) 0.8185(10) 0.6417(9)
H3 H 1.0952 0.8102 0.6671
C5 C 0.9796(9) 0.8537(9) 0.5551(8)
H4 H 1.0475 0.8691 0.5215
C6 C 0.8493(9) 0.8667(8) 0.5171(6)
H5 H 0.8294 0.8893 0.4576
C7 C 0.7495(8) 0.8459(7) 0.5682(5)
H6 H 0.6636 0.8580 0.5439
C8 C 0.5961(7) 0.8887(7) 0.7192(5)
C9 C 0.4645(8) 0.8772(8) 0.6654(6)
H7 H 0.4127 0.7988 0.6243
C10 C 0.4086(10) 0.9812(9) 0.6720(7)
H8 H 0.3207 0.9724 0.6343
C11 C 0.4821(10) 1.0964(9) 0.7335(7)
H9 H 0.4441 1.1657 0.7379
C12 C 0.6120(11) 1.1095(8) 0.7887(7)
H10 H 0.6622 1.1875 0.8310
C13 C 0.6684(9) 1.0052(7) 0.7811(6)
H11 H 0.7565 1.0146 0.8186
C14 C 0.4154(7) 0.6607(7) 0.8087(5)
C15 C 0.2738(8) 0.6449(8) 0.7859(6)
H12 H 0.2167 0.5823 0.7323
C16 C 0.2180(11) 0.7231(10) 0.8439(7)
H13 H 0.1233 0.7125 0.8277
C17 C 0.2996(12) 0.8160(9) 0.9249(7)
H14 H 0.2610 0.8680 0.9628
C18 C 0.4399(11) 0.8298(8) 0.9482(7)
H15 H 0.4960 0.8909 1.0030
C19 C 0.4988(9) 0.7543(7) 0.8913(6)
H16 H 0.5935 0.7657 0.9078
C20 C 0.6223(7) 0.5279(6) 0.8179(4)
C21 C 0.5881(7) 0.4838(7) 0.8967(5)
H17 H 0.5018 0.4817 0.9078
C22 C 0.6817(7) 0.4427(7) 0.9591(5)
H18 H 0.6581 0.4131 1.0117
C23 C 0.8119(7) 0.4459(7) 0.9429(5)
H19 H 0.8750 0.4188 0.9847
C24 C 0.8459(7) 0.4895(7) 0.8643(5)
H20 H 0.9323 0.4918 0.8533
C25 C 0.7520(7) 0.5296(6) 0.8020(5)
H21 H 0.7754 0.5580 0.7489
C26 C 0.1818(8) 0.5672(9) 0.4629(6)
H22 H 0.1821 0.6060 0.5287
H23 H 0.1463 0.4748 0.4515
C27 C 0.0959(8) 0.6194(9) 0.3896(6)
H24 H 0.0176 0.6377 0.4112
H25 H 0.0632 0.5600 0.3263
C28 C 0.1975(10) 0.7410(11) 0.3868(9)
H26 H 0.1977 0.8125 0.4370
H27 H 0.1750 0.7621 0.3239
C29 C 0.3359(8) 0.7108(8) 0.4051(6)
H28 H 0.3622 0.6915 0.3445
H29 H 0.4065 0.7833 0.4491
Se1A Se 0.64949(7) 0.60152(7) 0.36036(5)
P1A P 0.50332(17) 0.42915(16) 0.27051(11)
O1A O 0.6808(5) 0.3994(5) 0.5519(4)
N1A N 0.4304(5) 0.3471(5) 0.3391(4)
C1A C 0.3364(7) 0.2209(6) 0.2907(5)
H1A H 0.2918 0.2253 0.2249
C2A C 0.2239(7) 0.1926(7) 0.3449(5)
C3A C 0.0928(9) 0.2052(9) 0.3082(7)
H2A H 0.0727 0.2296 0.2494
C4A C -0.0078(9) 0.1815(10) 0.3583(9)
H3A H -0.0952 0.1898 0.3329
C5A C 0.0204(9) 0.1463(9) 0.4449(8)
H4A H -0.0475 0.1309 0.4785
C6A C 0.1507(9) 0.1333(8) 0.4829(6)
H5A H 0.1706 0.1107 0.5424
C7A C 0.2505(8) 0.1541(7) 0.4318(5)
H6A H 0.3364 0.1420 0.4561
C8A C 0.4039(7) 0.1113(7) 0.2808(5)
C9A C 0.5355(8) 0.1228(8) 0.3346(6)
H7A H 0.5873 0.2012 0.3757
C10A C 0.5914(10) 0.0188(9) 0.3280(7)
H8A H 0.6793 0.0276 0.3657
C11A C 0.5179(10) -0.0964(9) 0.2665(7)
H9A H 0.5559 -0.1657 0.2621
C12A C 0.3880(11) -0.1095(8) 0.2113(7)
H10A H 0.3378 -0.1875 0.1690
C13A C 0.3316(9) -0.0052(7) 0.2189(6)
H11A H 0.2435 -0.0146 0.1814
C14A C 0.5846(7) 0.3393(7) 0.1913(5)
C15A C 0.7262(8) 0.3551(8) 0.2141(6)
H12A H 0.7833 0.4177 0.2677
C16A C 0.7820(11) 0.2769(10) 0.1561(7)
H13A H 0.8767 0.2875 0.1723
C17A C 0.7004(12) 0.1840(9) 0.0751(7)
H14A H 0.7390 0.1320 0.0372
C18A C 0.5601(11) 0.1702(8) 0.0518(7)
H15A H 0.5040 0.1091 -0.0030
C19A C 0.5012(9) 0.2457(7) 0.1087(6)
H16A H 0.4065 0.2343 0.0922
C20A C 0.3777(7) 0.4721(6) 0.1821(4)
C21A C 0.4119(7) 0.5162(7) 0.1033(5)
H17A H 0.4982 0.5183 0.0922
C22A C 0.3183(7) 0.5573(7) 0.0409(5)
H18A H 0.3419 0.5869 -0.0117
C23A C 0.1881(7) 0.5541(7) 0.0571(5)
H19A H 0.1250 0.5812 0.0153
C24A C 0.1541(7) 0.5105(7) 0.1357(5)
H20A H 0.0677 0.5082 0.1467
C25A C 0.2480(7) 0.4704(6) 0.1980(5)
H21A H 0.2246 0.4420 0.2511
C26A C 0.8182(8) 0.4328(9) 0.5371(6)
H22A H 0.8179 0.3940 0.4713
H23A H 0.8537 0.5252 0.5485
C27A C 0.9041(8) 0.3806(9) 0.6104(6)
H24A H 0.9824 0.3623 0.5888
H25A H 0.9368 0.4400 0.6737
C28A C 0.8025(10) 0.2590(11) 0.6132(9)
H26A H 0.8023 0.1875 0.5630
H27A H 0.8250 0.2379 0.6761
C29A C 0.6641(8) 0.2892(8) 0.5949(6)
H28A H 0.6378 0.3085 0.6555
H29A H 0.5935 0.2167 0.5509
O2 O 0.1660(14) 0.1009(14) 0.9423(10)
C30 C 0.219(2) 0.128(2) 0.8629(15)
H30 H 0.3041 0.1209 0.8544
C31 C 0.112(2) 0.170(2) 0.7916(17)
H31 H 0.1546 0.2302 0.7574
H32 H 0.0432 0.0984 0.7454
C32 C 0.053(2) 0.2352(17) 0.8699(18)
H33 H 0.0113 0.3011 0.8638
C33 C 0.072(2) 0.177(2) 0.9603(18)
H34 H 0.1122 0.2440 1.0197
H35 H -0.0146 0.1246 0.9646
loop_
_geom_bond_atom_site_label_1
_geom_bond_atom_site_label_2
_geom_bond_site_symmetry_1
_geom_bond_site_symmetry_2
Se1 Ca1 1_555 1_555
Ca1 O1 1_555 1_555
P1 Se1 1_555 1_555
O1 C26 1_555 1_555
N1 Ca1 1_555 1_555
C1 N1 1_555 1_555
H1 C1 1_555 1_555
C2 C1 1_555 1_555
C3 C2 1_555 1_555
H2 C3 1_555 1_555
C4 C3 1_555 1_555
H3 C4 1_555 1_555
C5 C4 1_555 1_555
H4 C5 1_555 1_555
C6 C5 1_555 1_555
H5 C6 1_555 1_555
C7 C2 1_555 1_555
H6 C7 1_555 1_555
C8 C1 1_555 1_555
C9 C8 1_555 1_555
H7 C9 1_555 1_555
C10 C9 1_555 1_555
H8 C10 1_555 1_555
C11 C10 1_555 1_555
H9 C11 1_555 1_555
C12 C11 1_555 1_555
H10 C12 1_555 1_555
C13 C8 1_555 1_555
H11 C13 1_555 1_555
C14 P1 1_555 1_555
C15 C14 1_555 1_555
H12 C15 1_555 1_555
C16 C15 1_555 1_555
H13 C16 1_555 1_555
C17 C16 1_555 1_555
H14 C17 1_555 1_555
C18 C17 1_555 1_555
H15 C18 1_555 1_555
C19 C14 1_555 1_555
H16 C19 1_555 1_555
C20 P1 1_555 1_555
C21 C20 1_555 1_555
H17 C21 1_555 1_555
C22 C21 1_555 1_555
H18 C22 1_555 1_555
C23 C22 1_555 1_555
H19 C23 1_555 1_555
C24 C23 1_555 1_555
H20 C24 1_555 1_555
C25 C20 1_555 1_555
H21 C25 1_555 1_555
C26 H22 1_555 1_555
H23 C26 1_555 1_555
C27 C26 1_555 1_555
H24 C27 1_555 1_555
H25 C27 1_555 1_555
C28 C27 1_555 1_555
H26 C28 1_555 1_555
H27 C28 1_555 1_555
C29 O1 1_555 1_555
H28 C29 1_555 1_555
H29 C29 1_555 1_555
O2 C30 1_555 1_555
C30 H30 1_555 1_555
C31 C30 1_555 1_555
H31 C31 1_555 1_555
H32 C31 1_555 1_555
C32 C31 1_555 1_555
H33 C32 1_555 1_555
C33 O2 1_555 1_555
H34 C33 1_555 1_555
H35 C33 1_555 1_555
Se1A Ca1 1_555 1_555
P1A Se1A 1_555 1_555
O1A Ca1 1_555 1_555
N1A Ca1 1_555 1_555
C1A N1A 1_555 1_555
H1A C1A 1_555 1_555
C2A C1A 1_555 1_555
C3A C2A 1_555 1_555
H2A C3A 1_555 1_555
C4A C3A 1_555 1_555
H3A C4A 1_555 1_555
C5A C4A 1_555 1_555
H4A C5A 1_555 1_555
C6A C5A 1_555 1_555
H5A C6A 1_555 1_555
C7A C2A 1_555 1_555
H6A C7A 1_555 1_555
C8A C1A 1_555 1_555
C9A C8A 1_555 1_555
H7A C9A 1_555 1_555
C10A C9A 1_555 1_555
H8A C10A 1_555 1_555
C11A C10A 1_555 1_555
H9A C11A 1_555 1_555
C12A C11A 1_555 1_555
H10A C12A 1_555 1_555
C13A C8A 1_555 1_555
H11A C13A 1_555 1_555
C14A P1A 1_555 1_555
C15A C14A 1_555 1_555
H12A C15A 1_555 1_555
C16A C15A 1_555 1_555
H13A C16A 1_555 1_555
C17A C16A 1_555 1_555
H14A C17A 1_555 1_555
C18A C17A 1_555 1_555
H15A C18A 1_555 1_555
C19A C14A 1_555 1_555
H16A C19A 1_555 1_555
C20A P1A 1_555 1_555
C21A C20A 1_555 1_555
H17A C21A 1_555 1_555
C22A C21A 1_555 1_555
H18A C22A 1_555 1_555
C23A C22A 1_555 1_555
H19A C23A 1_555 1_555
C24A C23A 1_555 1_555
H20A C24A 1_555 1_555
C25A C20A 1_555 1_555
H21A C25A 1_555 1_555
C26A O1A 1_555 1_555
H22A C26A 1_555 1_555
H23A C26A 1_555 1_555
C27A C26A 1_555 1_555
H24A C27A 1_555 1_555
H25A C27A 1_555 1_555
C28A C27A 1_555 1_555
H26A C28A 1_555 1_555
H27A C28A 1_555 1_555
C29A O1A 1_555 1_555
H28A C29A 1_555 1_555
H29A C29A 1_555 1_555
P1 N1 1_555 1_555
C6 C7 1_555 1_555
C12 C13 1_555 1_555
C18 C19 1_555 1_555
C24 C25 1_555 1_555
C28 C29 1_555 1_555
C32 C33 1_555 1_555
P1A N1A 1_555 1_555
C6A C7A 1_555 1_555
C12A C13A 1_555 1_555
C18A C19A 1_555 1_555
C24A C25A 1_555 1_555
C28A C29A 1_555 1_555

#END
