
#######################################################################
#
#                 Cambridge Crystallographic Data Centre
#                                CCDC 
#
#######################################################################
#
# If this CIF has been generated from an entry in the Cambridge 
# Structural Database, then it will include bibliographic, chemical, 
# crystal, experimental, refinement or atomic coordinate data resulting 
# from the CCDC's data processing and validation procedures.
#
#######################################################################

data_FESNOI
_chemical_formula_moiety         'C58 H58 Ba1 N2 O2 P2 Se2'
_chemical_name_systematic        
'bis(N-(diphenylmethyl)-P,P-diphenylphosphinoselenoic amidato)-bis(tetrahydrofuran)-barium'
_symmetry_cell_setting           monoclinic
_symmetry_space_group_name_H-M   'P 21'
_symmetry_Int_Tables_number      4
_space_group_name_Hall           'P 2yb'
loop_
_symmetry_equiv_pos_site_id
_symmetry_equiv_pos_as_xyz
1 x,y,z
2 -x,1/2+y,-z
_cell_length_a                   15.7828(7)
_cell_length_b                   11.0357(3)
_cell_length_c                   16.9825(7)
_cell_angle_alpha                90
_cell_angle_beta                 117.366(5)
_cell_angle_gamma                90
_cell_volume                     2626.89
_exptl_crystal_colour            colorless
_exptl_crystal_description       block
_cell_formula_units_Z            2
loop_
_atom_site_label
_atom_site_type_symbol
_atom_site_fract_x
_atom_site_fract_y
_atom_site_fract_z
Ba1 Ba 0.24709(4) 0.62686(5) 0.25380(3)
Se1 Se 0.21367(6) 0.40527(7) 0.10708(5)
Se2 Se 0.28996(6) 0.83203(7) 0.41159(6)
P1 P 0.29902(14) 0.52791(18) 0.07469(12)
P2 P 0.18350(15) 0.72567(18) 0.42588(13)
O1 O 0.1045(5) 0.7769(6) 0.1456(4)
C1 C 0.1198(6) 0.4002(8) 0.3439(5)
C2 C 0.3784(5) 0.8507(7) 0.1632(5)
C3 C 0.1081(6) 0.3628(8) 0.2607(6)
H1 H 0.0760 0.4123 0.2115
C4 C 0.2254(6) 0.5769(8) -0.0406(5)
C5 C 0.3979(7) 0.8813(8) 0.2487(6)
H2 H 0.4277 0.8251 0.2940
C6 C 0.0510(7) 0.7674(9) 0.0514(6)
H3 H -0.0143 0.7432 0.0340
H4 H 0.0798 0.7090 0.0281
C7 C 0.4018(6) 0.7265(8) 0.1415(5)
H5 H 0.3946 0.7288 0.0811
C8 C 0.5068(6) 0.6950(8) 0.2053(6)
C9 C 0.2062(7) 0.2151(8) 0.4052(7)
H6 H 0.2405 0.1663 0.4545
C10 C 0.5805(7) 0.7486(9) 0.1953(6)
H7 H 0.5660 0.8011 0.1480
C11 C 0.0549(7) 0.8955(10) 0.0183(6)
H8 H 0.1135 0.9087 0.0143
H9 H 0.0009 0.9108 -0.0390
C12 C 0.1444(7) 0.2512(8) 0.2516(7)
H10 H 0.1360 0.2266 0.1961
C13 C 0.5312(6) 0.6161(10) 0.2768(6)
H11 H 0.4830 0.5784 0.2848
C14 C 0.1917(6) 0.6936(9) -0.0566(6)
H12 H 0.2121 0.7496 -0.0106
C15 C 0.0902(6) 0.8251(8) 0.4239(5)
C16 C 0.6739(7) 0.7267(10) 0.2530(7)
H13 H 0.7218 0.7646 0.2445
C17 C 0.1921(7) 0.1775(9) 0.3235(7)
H14 H 0.2147 0.1025 0.3168
C18 C 0.0508(8) 0.9734(10) 0.0899(6)
H15 H 0.0908 1.0445 0.1009
H16 H -0.0141 0.9996 0.0723
C19 C -0.0506(7) 0.9750(9) 0.4291(5)
H17 H -0.0977 1.0247 0.4302
C20 C 0.0050(6) 0.7774(8) 0.4175(6)
H18 H -0.0048 0.6941 0.4116
C21 C 0.1701(7) 0.3249(9) 0.4156(6)
H19 H 0.1798 0.3484 0.4717
C22 C 0.0866(10) 0.8955(12) 0.1712(7)
H20 H 0.1448 0.9290 0.2180
H21 H 0.0392 0.8903 0.1925
C23 C 0.1964(6) 0.4918(8) -0.1093(5)
H22 H 0.2198 0.4130 -0.0982
C24 C -0.0648(6) 0.8504(9) 0.4197(5)
H23 H -0.1209 0.8165 0.4148
C25 C 0.1015(7) 0.9491(8) 0.4335(6)
H24 H 0.1573 0.9836 0.4380
C26 C 0.1261(6) 0.7276(10) -0.1428(6)
H25 H 0.1021 0.8062 -0.1542
C27 C 0.1318(7) 0.5276(10) -0.1946(6)
H26 H 0.1116 0.4724 -0.2411
C28 C 0.0322(7) 1.0246(9) 0.4369(6)
H27 H 0.0423 1.1078 0.4443
C29 C 0.6980(7) 0.6495(11) 0.3233(7)
H28 H 0.7617 0.6349 0.3623
C30 C 0.6254(8) 0.5927(11) 0.3359(7)
H29 H 0.6405 0.5401 0.3833
C31 C 0.0974(7) 0.6451(11) -0.2103(6)
H30 H 0.0543 0.6683 -0.2676
N1 N 0.3327(5) 0.6398(7) 0.1431(4)
O2 O 0.3948(5) 0.4851(6) 0.3677(4)
C32 C 0.4538(6) 0.4936(9) 0.4606(6)
H31 H 0.4294 0.5537 0.4867
H32 H 0.5186 0.5149 0.4739
N2 N 0.1490(5) 0.6194(7) 0.3540(4)
C33 C 0.2349(5) 0.6675(7) 0.5392(5)
C34 C 0.2885(6) 0.5620(8) 0.5592(6)
H33 H 0.2982 0.5245 0.5150
C35 C 0.2256(6) 0.7241(8) 0.6078(5)
H34 H 0.1922 0.7967 0.5972
C36 C 0.4500(7) 0.3671(10) 0.4951(6)
H35 H 0.3936 0.3571 0.5035
H36 H 0.5062 0.3510 0.5507
C37 C 0.3992(6) 0.4476(8) 0.0697(5)
C38 C 0.3740(7) 0.9947(8) 0.2687(6)
H37 H 0.3882 1.0135 0.3268
C39 C 0.3333(6) 0.9381(8) 0.0976(5)
H38 H 0.3187 0.9198 0.0392
C40 C 0.3288(7) 1.0799(9) 0.2019(6)
H39 H 0.3117 1.1553 0.2146
C41 C 0.4361(7) 0.3438(9) 0.1168(6)
H40 H 0.4077 0.3080 0.1483
C42 C 0.4414(7) 0.5015(9) 0.0225(6)
H41 H 0.4154 0.5714 -0.0106
C43 C 0.4463(7) 0.2844(9) 0.4211(6)
H42 H 0.5085 0.2494 0.4369
H43 H 0.4005 0.2195 0.4088
C44 C 0.0833(6) 0.5243(8) 0.3539(5)
H44 H 0.0844 0.5261 0.4120
C45 C -0.0443(6) 0.6131(10) 0.2100(5)
H45 H 0.0033 0.6549 0.2036
C46 C -0.0195(6) 0.5404(8) 0.2843(6)
C47 C -0.0919(7) 0.4787(10) 0.2921(7)
H46 H -0.0778 0.4274 0.3400
C48 C -0.1371(8) 0.6247(14) 0.1459(7)
H47 H -0.1511 0.6742 0.0971
C49 C 0.2654(7) 0.6737(10) 0.6919(6)
H48 H 0.2574 0.7118 0.7369
C50 C 0.5233(7) 0.4493(10) 0.0253(7)
H49 H 0.5528 0.4848 -0.0053
C51 C 0.3161(7) 0.5689(9) 0.7090(6)
H50 H 0.3430 0.5360 0.7658
C52 C 0.3100(6) 1.0507(8) 0.1169(6)
H51 H 0.2812 1.1075 0.0718
C53 C 0.5599(7) 0.3461(12) 0.0731(7)
H52 H 0.6150 0.3122 0.0757
C54 C 0.3278(7) 0.5111(9) 0.6427(6)
H53 H 0.3616 0.4388 0.6541
C55 C 0.5165(8) 0.2923(10) 0.1171(7)
H54 H 0.5409 0.2204 0.1477
C56 C -0.2095(8) 0.5649(11) 0.1525(8)
H55 H -0.2721 0.5714 0.1083
C57 C -0.1868(7) 0.4944(11) 0.2269(8)
H56 H -0.2355 0.4564 0.2339
C58 C 0.4161(11) 0.3677(10) 0.3431(7)
H57 H 0.4668 0.3751 0.3262
H58 H 0.3600 0.3355 0.2930
loop_
_geom_bond_atom_site_label_1
_geom_bond_atom_site_label_2
_geom_bond_site_symmetry_1
_geom_bond_site_symmetry_2
Ba1 Se1 1_555 1_555
Se1 P1 1_555 1_555
Se2 Ba1 1_555 1_555
P1 C4 1_555 1_555
P2 Se2 1_555 1_555
O1 Ba1 1_555 1_555
C1 C3 1_555 1_555
C2 C5 1_555 1_555
C3 H1 1_555 1_555
C4 C14 1_555 1_555
C5 H2 1_555 1_555
C6 O1 1_555 1_555
H3 C6 1_555 1_555
H4 C6 1_555 1_555
C7 C2 1_555 1_555
H5 C7 1_555 1_555
C8 C7 1_555 1_555
C9 H6 1_555 1_555
C10 C8 1_555 1_555
H7 C10 1_555 1_555
C11 C6 1_555 1_555
H8 C11 1_555 1_555
H9 C11 1_555 1_555
C12 C3 1_555 1_555
H10 C12 1_555 1_555
C13 C8 1_555 1_555
H11 C13 1_555 1_555
C14 H12 1_555 1_555
C15 P2 1_555 1_555
C16 C10 1_555 1_555
H13 C16 1_555 1_555
C17 C9 1_555 1_555
H14 C17 1_555 1_555
C18 C11 1_555 1_555
H15 C18 1_555 1_555
H16 C18 1_555 1_555
C19 H17 1_555 1_555
C20 C15 1_555 1_555
H18 C20 1_555 1_555
C21 C1 1_555 1_555
H19 C21 1_555 1_555
C22 O1 1_555 1_555
H20 C22 1_555 1_555
H21 C22 1_555 1_555
C23 C4 1_555 1_555
H22 C23 1_555 1_555
C24 C19 1_555 1_555
H23 C24 1_555 1_555
C25 C15 1_555 1_555
H24 C25 1_555 1_555
C26 C14 1_555 1_555
H25 C26 1_555 1_555
C27 C23 1_555 1_555
H26 C27 1_555 1_555
C28 C19 1_555 1_555
H27 C28 1_555 1_555
C29 C16 1_555 1_555
H28 C29 1_555 1_555
C30 C13 1_555 1_555
H29 C30 1_555 1_555
C31 C26 1_555 1_555
H30 C31 1_555 1_555
N1 Ba1 1_555 1_555
O2 Ba1 1_555 1_555
C32 O2 1_555 1_555
H31 C32 1_555 1_555
H32 C32 1_555 1_555
N2 Ba1 1_555 1_555
C33 P2 1_555 1_555
C34 C33 1_555 1_555
H33 C34 1_555 1_555
C35 C33 1_555 1_555
H34 C35 1_555 1_555
C36 C32 1_555 1_555
H35 C36 1_555 1_555
H36 C36 1_555 1_555
C37 P1 1_555 1_555
C38 C5 1_555 1_555
H37 C38 1_555 1_555
C39 C2 1_555 1_555
H38 C39 1_555 1_555
C40 C38 1_555 1_555
H39 C40 1_555 1_555
C41 C37 1_555 1_555
H40 C41 1_555 1_555
C42 C37 1_555 1_555
H41 C42 1_555 1_555
C43 C36 1_555 1_555
H42 C43 1_555 1_555
H43 C43 1_555 1_555
C44 C1 1_555 1_555
H44 C44 1_555 1_555
C45 H45 1_555 1_555
C46 C44 1_555 1_555
C47 C46 1_555 1_555
H46 C47 1_555 1_555
C48 C45 1_555 1_555
H47 C48 1_555 1_555
C49 C35 1_555 1_555
H48 C49 1_555 1_555
C50 C42 1_555 1_555
H49 C50 1_555 1_555
C51 C49 1_555 1_555
H50 C51 1_555 1_555
C52 C39 1_555 1_555
H51 C52 1_555 1_555
C53 C50 1_555 1_555
H52 C53 1_555 1_555
C54 C34 1_555 1_555
H53 C54 1_555 1_555
C55 C41 1_555 1_555
H54 C55 1_555 1_555
C56 C48 1_555 1_555
H55 C56 1_555 1_555
C57 C47 1_555 1_555
H56 C57 1_555 1_555
C58 O2 1_555 1_555
H57 C58 1_555 1_555
H58 C58 1_555 1_555
P1 N1 1_555 1_555
P2 N2 1_555 1_555
C7 N1 1_555 1_555
C9 C21 1_555 1_555
C12 C17 1_555 1_555
C18 C22 1_555 1_555
C20 C24 1_555 1_555
C25 C28 1_555 1_555
C27 C31 1_555 1_555
C29 C30 1_555 1_555
N2 C44 1_555 1_555
C40 C52 1_555 1_555
C43 C58 1_555 1_555
C45 C46 1_555 1_555
C51 C54 1_555 1_555
C53 C55 1_555 1_555
C56 C57 1_555 1_555

#END
