
#######################################################################
#
#                 Cambridge Crystallographic Data Centre
#                                CCDC 
#
#######################################################################
#
# If this CIF has been generated from an entry in the Cambridge 
# Structural Database, then it will include bibliographic, chemical, 
# crystal, experimental, refinement or atomic coordinate data resulting 
# from the CCDC's data processing and validation procedures.
#
#######################################################################

data_FESPUR
_chemical_formula_moiety         'C22 H24 Cl1 N1 O3 S1'
_chemical_name_systematic        
4-(4-chlorophenyl)-2-((4-methylphenyl)sulfonyl)-2-azaspiro[4.5]decan-3-one
_symmetry_cell_setting           monoclinic
_symmetry_space_group_name_H-M   'P 21/c'
_symmetry_Int_Tables_number      14
_space_group_name_Hall           '-P 2ybc'
loop_
_symmetry_equiv_pos_site_id
_symmetry_equiv_pos_as_xyz
1 x,y,z
2 -x,1/2+y,1/2-z
3 -x,-y,-z
4 x,1/2-y,1/2+z
_cell_length_a                   10.3792(8)
_cell_length_b                   21.1918(16)
_cell_length_c                   10.5653(8)
_cell_angle_alpha                90
_cell_angle_beta                 116.235(2)
_cell_angle_gamma                90
_cell_volume                     2084.49
_exptl_crystal_colour            colorless
_exptl_crystal_description       prism
_cell_formula_units_Z            4
loop_
_atom_site_label
_atom_site_type_symbol
_atom_site_fract_x
_atom_site_fract_y
_atom_site_fract_z
C1 C 0.3310(2) 0.38199(12) 0.7377(3)
C2 C 0.2906(2) 0.32779(13) 0.7853(3)
H1 H 0.2693 0.2900 0.7314
C3 C 0.2818(3) 0.32962(15) 0.9120(3)
H2 H 0.2551 0.2926 0.9453
C4 C 0.3115(3) 0.38478(16) 0.9919(3)
C5 C 0.3025(4) 0.3857(2) 1.1311(4)
H3 H 0.2747 0.3438 1.1497
H4 H 0.2307 0.4168 1.1266
H5 H 0.3963 0.3971 1.2072
C6 C 0.3491(3) 0.43836(15) 0.9409(3)
H6 H 0.3683 0.4764 0.9938
C7 C 0.3594(3) 0.43779(13) 0.8145(3)
H7 H 0.3854 0.4749 0.7809
C8 C 0.5678(2) 0.29621(11) 0.6728(2)
C9 C 0.7249(2) 0.29440(11) 0.7007(2)
H8 H 0.7835 0.3011 0.8043
C10 C 0.7714(2) 0.23218(10) 0.6655(2)
C11 C 0.6766(2) 0.19450(11) 0.5547(2)
H9 H 0.5802 0.2080 0.5010
C12 C 0.7212(2) 0.13777(11) 0.5221(2)
H10 H 0.6556 0.1123 0.4475
C13 C 0.8621(2) 0.11855(11) 0.5992(2)
C14 C 0.9585(2) 0.15453(11) 0.7090(2)
H11 H 1.0551 0.1410 0.7614
C15 C 0.9119(2) 0.21087(11) 0.7415(2)
H12 H 0.9776 0.2356 0.8177
C16 C 0.7453(2) 0.35420(11) 0.6254(2)
C17 C 0.8990(2) 0.37984(12) 0.7013(3)
H13 H 0.9196 0.3911 0.7994
H14 H 0.9672 0.3462 0.7057
C18 C 0.9237(3) 0.43776(13) 0.6287(3)
H15 H 0.8637 0.4731 0.6335
H16 H 1.0256 0.4508 0.6785
C19 C 0.8858(3) 0.42353(13) 0.4750(3)
H17 H 0.8964 0.4624 0.4286
H18 H 0.9536 0.3917 0.4707
C20 C 0.7335(3) 0.39901(12) 0.3964(3)
H19 H 0.7152 0.3874 0.2991
H20 H 0.6653 0.4329 0.3902
C21 C 0.7074(2) 0.34152(11) 0.4695(2)
H21 H 0.7659 0.3058 0.4636
H22 H 0.6050 0.3292 0.4192
C22 C 0.6348(2) 0.40010(11) 0.6364(3)
H23 H 0.6769 0.4234 0.7269
H24 H 0.5992 0.4307 0.5575
N1 N 0.51894(19) 0.35744(9) 0.6283(2)
O1 O 0.25787(19) 0.33239(10) 0.49039(19)
O2 O 0.3434(2) 0.44323(9) 0.5294(2)
O3 O 0.49659(17) 0.25425(8) 0.68804(18)
S1 S 0.34970(6) 0.38032(3) 0.58014(7)
Cl1 Cl 0.91688(7) 0.04725(3) 0.55804(8)
loop_
_geom_bond_atom_site_label_1
_geom_bond_atom_site_label_2
_geom_bond_site_symmetry_1
_geom_bond_site_symmetry_2
C1 C2 1_555 1_555
C2 H1 1_555 1_555
C3 C2 1_555 1_555
H2 C3 1_555 1_555
C4 C3 1_555 1_555
C5 C4 1_555 1_555
H3 C5 1_555 1_555
H4 C5 1_555 1_555
H5 C5 1_555 1_555
C6 C4 1_555 1_555
H6 C6 1_555 1_555
C7 C1 1_555 1_555
H7 C7 1_555 1_555
C8 C9 1_555 1_555
C9 H8 1_555 1_555
C10 C9 1_555 1_555
C11 C10 1_555 1_555
H9 C11 1_555 1_555
C12 C11 1_555 1_555
H10 C12 1_555 1_555
C13 C12 1_555 1_555
C14 C13 1_555 1_555
H11 C14 1_555 1_555
C15 C10 1_555 1_555
H12 C15 1_555 1_555
C16 C9 1_555 1_555
C17 C16 1_555 1_555
H13 C17 1_555 1_555
H14 C17 1_555 1_555
C18 C17 1_555 1_555
H15 C18 1_555 1_555
H16 C18 1_555 1_555
C19 C18 1_555 1_555
H17 C19 1_555 1_555
H18 C19 1_555 1_555
C20 C19 1_555 1_555
H19 C20 1_555 1_555
H20 C20 1_555 1_555
C21 C16 1_555 1_555
H21 C21 1_555 1_555
H22 C21 1_555 1_555
C22 C16 1_555 1_555
H23 C22 1_555 1_555
H24 C22 1_555 1_555
N1 C8 1_555 1_555
O1 S1 1_555 1_555
O2 S1 1_555 1_555
O3 C8 1_555 1_555
S1 C1 1_555 1_555
Cl1 C13 1_555 1_555
C6 C7 1_555 1_555
C14 C15 1_555 1_555
C20 C21 1_555 1_555
C22 N1 1_555 1_555
N1 S1 1_555 1_555

#END
