
#######################################################################
#
#                 Cambridge Crystallographic Data Centre
#                                CCDC 
#
#######################################################################
#
# If this CIF has been generated from an entry in the Cambridge 
# Structural Database, then it will include bibliographic, chemical, 
# crystal, experimental, refinement or atomic coordinate data resulting 
# from the CCDC's data processing and validation procedures.
#
#######################################################################

data_FESRIE
_chemical_formula_moiety         'C17 H17 N1 O3'
_chemical_name_systematic        N-Phenylacetyl-L-phenylalanine
_chemical_properties_biological  'antisickling agent'
_symmetry_cell_setting           orthorhombic
_symmetry_space_group_name_H-M   'P 21 21 21'
_symmetry_Int_Tables_number      19
_space_group_name_Hall           'P 2ac 2ab'
loop_
_symmetry_equiv_pos_site_id
_symmetry_equiv_pos_as_xyz
1 x,y,z
2 1/2+x,1/2-y,-z
3 -x,1/2+y,1/2-z
4 1/2-x,-y,1/2+z
_cell_length_a                   8.400(1)
_cell_length_b                   5.423(1)
_cell_length_c                   32.548(3)
_cell_angle_alpha                90
_cell_angle_beta                 90
_cell_angle_gamma                90
_cell_volume                     1482.67
_cell_formula_units_Z            4
loop_
_atom_site_label
_atom_site_type_symbol
_atom_site_fract_x
_atom_site_fract_y
_atom_site_fract_z
N1 N -0.4223(5) 0.3834(8) 0.43177(10)
C1 C -0.5939(5) 0.4211(9) 0.43576(12)
C2 C -0.6840(6) 0.2045(9) 0.41701(12)
C3 C -0.6480(5) 0.1791(8) 0.37170(12)
C4 C -0.5483(6) -0.0042(9) 0.35693(12)
C5 C -0.5123(6) -0.0209(9) 0.31576(13)
C6 C -0.5761(6) 0.1441(10) 0.28857(14)
C7 C -0.6738(6) 0.3293(10) 0.30264(13)
C8 C -0.7099(6) 0.3470(9) 0.34396(14)
C9 C -0.6407(6) 0.4631(9) 0.48062(13)
O1 O -0.5651(5) 0.4093(8) 0.50956(9)
O2 O -0.7798(4) 0.5753(8) 0.48266(9)
C10 C -0.1500(5) 0.5212(12) 0.42328(13)
C11 C -0.3216(6) 0.5741(11) 0.43381(12)
O3 O -0.3689(4) 0.7847(6) 0.44196(9)
C12 C -0.1216(5) 0.5869(9) 0.37882(13)
C13 C -0.1825(6) 0.4411(10) 0.34780(13)
C14 C -0.1570(6) 0.4983(12) 0.30701(15)
C15 C -0.0699(7) 0.7011(12) 0.29664(18)
C16 C -0.0100(7) 0.8481(11) 0.32633(19)
C17 C -0.0359(6) 0.7935(10) 0.36784(18)
H1 H -0.4111(5) 0.1869(8) 0.42720(10)
H2 H -0.6239(5) 0.5852(9) 0.41861(12)
H3 H -0.6491(6) 0.0368(9) 0.43246(12)
H4 H -0.8102(6) 0.2339(9) 0.42110(12)
H5 H -0.4989(6) -0.1377(9) 0.37799(12)
H6 H -0.4328(6) -0.1628(9) 0.30477(13)
H7 H -0.5499(6) 0.1304(10) 0.25616(14)
H8 H -0.7245(6) 0.4598(10) 0.28126(13)
H9 H -0.7858(6) 0.4943(9) 0.35468(14)
H10 H -0.8926(4) 0.6680(8) 0.48650(9)
H11 H -0.0729(5) 0.6284(12) 0.44292(13)
H12 H -0.1262(5) 0.3274(12) 0.42771(13)
H13 H -0.2520(6) 0.2804(10) 0.35573(13)
H14 H -0.2041(6) 0.3808(12) 0.28312(15)
H15 H -0.0506(7) 0.7486(12) 0.26480(18)
H16 H 0.0604(7) 1.0070(11) 0.31796(19)
H17 H 0.0112(6) 0.9150(10) 0.39114(18)
loop_
_geom_bond_atom_site_label_1
_geom_bond_atom_site_label_2
_geom_bond_site_symmetry_1
_geom_bond_site_symmetry_2
N1 C1 1_555 1_555
C1 C2 1_555 1_555
C2 C3 1_555 1_555
C3 C4 1_555 1_555
C4 C5 1_555 1_555
C5 C6 1_555 1_555
C6 C7 1_555 1_555
C7 C8 1_555 1_555
C8 C3 1_555 1_555
C9 C1 1_555 1_555
O1 C9 1_555 1_555
O2 C9 1_555 1_555
C10 C11 1_555 1_555
C11 N1 1_555 1_555
O3 C11 1_555 1_555
C12 C10 1_555 1_555
C13 C12 1_555 1_555
C14 C13 1_555 1_555
C15 C14 1_555 1_555
C16 C15 1_555 1_555
C17 C12 1_555 1_555
H1 N1 1_555 1_555
H2 C1 1_555 1_555
H3 C2 1_555 1_555
H4 C2 1_555 1_555
H5 C4 1_555 1_555
H6 C5 1_555 1_555
H7 C6 1_555 1_555
H8 C7 1_555 1_555
H9 C8 1_555 1_555
H10 O2 1_555 1_555
H11 C10 1_555 1_555
H12 C10 1_555 1_555
H13 C13 1_555 1_555
H14 C14 1_555 1_555
H15 C15 1_555 1_555
H16 C16 1_555 1_555
H17 C17 1_555 1_555
C16 C17 1_555 1_555

#END
