
#######################################################################
#
#                 Cambridge Crystallographic Data Centre
#                                CCDC 
#
#######################################################################
#
# If this CIF has been generated from an entry in the Cambridge 
# Structural Database, then it will include bibliographic, chemical, 
# crystal, experimental, refinement or atomic coordinate data resulting 
# from the CCDC's data processing and validation procedures.
#
#######################################################################

data_FESSEE
_chemical_formula_moiety         'C22 H22 Cl1 N1 O3 S1'
_chemical_name_systematic        
(4R*,4aS*)-4-(4-chlorophenyl)-2-[(4-methylphenyl)sulfonyl]-1,4,4a,5,6,7-hexahydroisoquinolin-3(2H)-one
_symmetry_cell_setting           monoclinic
_symmetry_space_group_name_H-M   'P 21/n'
_symmetry_Int_Tables_number      14
_space_group_name_Hall           '-P 2yn'
loop_
_symmetry_equiv_pos_site_id
_symmetry_equiv_pos_as_xyz
1 x,y,z
2 1/2-x,1/2+y,1/2-z
3 -x,-y,-z
4 1/2+x,1/2-y,1/2+z
_cell_length_a                   13.0445(6)
_cell_length_b                   7.8561(4)
_cell_length_c                   20.2474(12)
_cell_angle_alpha                90
_cell_angle_beta                 107.757(2)
_cell_angle_gamma                90
_cell_volume                     1976.08
_exptl_crystal_colour            colorless
_exptl_crystal_description       prism
_cell_formula_units_Z            4
_exptl_crystal_recrystallization_method dichloromethane/hexanes
loop_
_atom_site_label
_atom_site_type_symbol
_atom_site_fract_x
_atom_site_fract_y
_atom_site_fract_z
C1 C 0.29268(12) 0.1281(2) 0.38298(8)
C2 C 0.29656(14) -0.0303(2) 0.41363(10)
H1 H 0.3454 -0.0515 0.4584
C3 C 0.22820(15) -0.1574(2) 0.37812(11)
H2 H 0.2297 -0.2661 0.3990
C4 C 0.15744(14) -0.1278(3) 0.31227(10)
C5 C 0.08340(18) -0.2678(3) 0.27458(13)
H3 H 0.1245 -0.3733 0.2773
H4 H 0.0511 -0.2356 0.2259
H5 H 0.0264 -0.2854 0.2961
C6 C 0.15562(15) 0.0318(3) 0.28303(9)
H6 H 0.1078 0.0527 0.2379
C7 C 0.22187(14) 0.1615(2) 0.31795(9)
H7 H 0.2188 0.2712 0.2977
C8 C 0.45580(13) 0.2461(2) 0.56417(8)
H8 H 0.4738 0.1277 0.5552
H9 H 0.5215 0.3162 0.5722
C9 C 0.41893(13) 0.2506(2) 0.62689(8)
C10 C 0.43256(14) 0.1200(2) 0.67003(9)
H10 H 0.4679 0.0216 0.6604
C11 C 0.39536(17) 0.1186(3) 0.73315(10)
H11 H 0.4577 0.1383 0.7749
H12 H 0.3649 0.0054 0.7378
C12 C 0.31060(16) 0.2549(3) 0.72885(9)
H13 H 0.2416 0.2196 0.6951
H14 H 0.2991 0.2679 0.7747
C13 C 0.34578(15) 0.4245(2) 0.70659(9)
H15 H 0.4132 0.4615 0.7415
H16 H 0.2899 0.5112 0.7048
C14 C 0.36410(13) 0.4133(2) 0.63559(8)
H17 H 0.4112 0.5105 0.6314
C15 C 0.25839(13) 0.4237(2) 0.57462(8)
H18 H 0.2109 0.3303 0.5820
C16 C 0.19814(13) 0.5883(2) 0.57402(8)
C17 C 0.09411(13) 0.5874(2) 0.57886(9)
H19 H 0.0587 0.4817 0.5789
C18 C 0.04100(13) 0.7371(2) 0.58368(9)
H20 H -0.0302 0.7347 0.5867
C19 C 0.09289(14) 0.8892(2) 0.58394(9)
C20 C 0.19541(14) 0.8955(2) 0.57765(10)
H21 H 0.2298 1.0017 0.5769
C21 C 0.24690(14) 0.7450(2) 0.57246(10)
H22 H 0.3171 0.7486 0.5677
C22 C 0.27440(13) 0.3913(2) 0.50391(8)
Cl1 Cl 0.02902(4) 1.07933(6) 0.59272(3)
N1 N 0.36949(11) 0.31272(17) 0.50237(7)
O1 O 0.36931(11) 0.43585(16) 0.38561(7)
O2 O 0.49314(9) 0.20572(18) 0.44135(6)
O3 O 0.20582(10) 0.42815(16) 0.45035(6)
S1 S 0.38818(3) 0.28187(6) 0.42465(2)
loop_
_geom_bond_atom_site_label_1
_geom_bond_atom_site_label_2
_geom_bond_site_symmetry_1
_geom_bond_site_symmetry_2
C1 C2 1_555 1_555
C2 H1 1_555 1_555
C3 C2 1_555 1_555
H2 C3 1_555 1_555
C4 C3 1_555 1_555
C5 C4 1_555 1_555
H3 C5 1_555 1_555
H4 C5 1_555 1_555
H5 C5 1_555 1_555
C6 C4 1_555 1_555
H6 C6 1_555 1_555
C7 C1 1_555 1_555
H7 C7 1_555 1_555
C8 H8 1_555 1_555
H9 C8 1_555 1_555
C9 C8 1_555 1_555
C10 C9 1_555 1_555
H10 C10 1_555 1_555
C11 C10 1_555 1_555
H11 C11 1_555 1_555
H12 C11 1_555 1_555
C12 C11 1_555 1_555
H13 C12 1_555 1_555
H14 C12 1_555 1_555
C13 C12 1_555 1_555
H15 C13 1_555 1_555
H16 C13 1_555 1_555
C14 C9 1_555 1_555
H17 C14 1_555 1_555
C15 C14 1_555 1_555
H18 C15 1_555 1_555
C16 C15 1_555 1_555
C17 C16 1_555 1_555
H19 C17 1_555 1_555
C18 C17 1_555 1_555
H20 C18 1_555 1_555
C19 C18 1_555 1_555
C20 C19 1_555 1_555
H21 C20 1_555 1_555
C21 C16 1_555 1_555
H22 C21 1_555 1_555
C22 C15 1_555 1_555
Cl1 C19 1_555 1_555
N1 C8 1_555 1_555
O1 S1 1_555 1_555
O2 S1 1_555 1_555
O3 C22 1_555 1_555
S1 C1 1_555 1_555
C6 C7 1_555 1_555
C13 C14 1_555 1_555
C20 C21 1_555 1_555
C22 N1 1_555 1_555
N1 S1 1_555 1_555

#END
