
#######################################################################
#
#                 Cambridge Crystallographic Data Centre
#                                CCDC 
#
#######################################################################
#
# If this CIF has been generated from an entry in the Cambridge 
# Structural Database, then it will include bibliographic, chemical, 
# crystal, experimental, refinement or atomic coordinate data resulting 
# from the CCDC's data processing and validation procedures.
#
#######################################################################

data_FESSOO
_chemical_formula_moiety         'C22 H22 O3 S1'
_chemical_name_systematic        
1-methyl-3-(methylsulfonyl)-4-phenyl-1,2,3,4-tetrahydrophenanthren-9-ol
_symmetry_cell_setting           orthorhombic
_symmetry_space_group_name_H-M   'P 21 21 21'
_symmetry_Int_Tables_number      19
_space_group_name_Hall           'P 2ac 2ab'
loop_
_symmetry_equiv_pos_site_id
_symmetry_equiv_pos_as_xyz
1 x,y,z
2 1/2+x,1/2-y,-z
3 -x,1/2+y,1/2-z
4 1/2-x,-y,1/2+z
_cell_length_a                   8.3650(3)
_cell_length_b                   14.5526(5)
_cell_length_c                   15.0103(4)
_cell_angle_alpha                90
_cell_angle_beta                 90
_cell_angle_gamma                90
_cell_volume                     1827.24
_exptl_crystal_colour            colorless
_cell_formula_units_Z            4
loop_
_atom_site_label
_atom_site_type_symbol
_atom_site_fract_x
_atom_site_fract_y
_atom_site_fract_z
S1 S 0.21018(7) 0.83493(4) 0.29829(3)
O1 O 0.4179(2) 0.55383(14) -0.12828(11)
H1 H 0.453(4) 0.590(2) -0.164(2)
O2 O 0.06733(19) 0.82657(14) 0.24409(10)
O3 O 0.2160(2) 0.77993(13) 0.37780(10)
C1 C 0.8054(4) 0.6294(2) 0.3826(2)
H2 H 0.8953 0.6147 0.4185
C2 C 0.6534(4) 0.6242(2) 0.4173(2)
H3 H 0.6384 0.6055 0.4774
C3 C 0.5224(3) 0.64588(18) 0.36517(16)
H4 H 0.4181 0.6423 0.3899
C4 C 0.5416(3) 0.67283(17) 0.27695(14)
C5 C 0.3957(3) 0.70275(16) 0.22280(13)
H5 H 0.2993 0.6758 0.2522
C6 C 0.4003(2) 0.66628(17) 0.12792(13)
C7 C 0.3606(2) 0.57176(17) 0.11328(14)
C8 C 0.3676(3) 0.53412(17) 0.02560(15)
C9 C 0.3255(3) 0.44127(18) 0.01066(16)
H6 H 0.3315 0.4169 -0.0480
C10 C 0.2767(3) 0.38626(17) 0.07854(16)
H7 H 0.2480 0.3241 0.0674
C11 C 0.4152(3) 0.59270(18) -0.04532(14)
C12 C 0.8264(3) 0.6564(2) 0.2949(2)
H8 H 0.9311 0.6605 0.2707
C13 C 0.6942(3) 0.67761(18) 0.24209(17)
H9 H 0.7093 0.6954 0.1818
C14 C 0.3800(3) 0.80962(16) 0.22891(14)
H10 H 0.4773 0.8333 0.2600
C15 C 0.2346(4) 0.9508(2) 0.32765(19)
H11 H 0.1406 0.9718 0.3609
H12 H 0.2467 0.9879 0.2736
H13 H 0.3302 0.9575 0.3649
C16 C 0.3663(3) 0.86028(17) 0.14038(15)
H14 H 0.3885 0.9264 0.1498
H15 H 0.2557 0.8544 0.1175
C17 C 0.4834(3) 0.82191(17) 0.07121(14)
H16 H 0.5939 0.8265 0.0962
C18 C 0.4452(2) 0.72105(16) 0.05658(14)
C19 C 0.4521(3) 0.68252(17) -0.03008(14)
H17 H 0.4831 0.7203 -0.0787
C20 C 0.4754(3) 0.88089(19) -0.01287(16)
H18 H 0.5564 0.8599 -0.0554
H19 H 0.4958 0.9453 0.0026
H20 H 0.3691 0.8754 -0.0397
C21 C 0.3102(3) 0.51130(16) 0.18269(14)
H21 H 0.3054 0.5336 0.2421
C22 C 0.2688(3) 0.42221(17) 0.16587(16)
H22 H 0.2343 0.3840 0.2134
loop_
_geom_bond_atom_site_label_1
_geom_bond_atom_site_label_2
_geom_bond_site_symmetry_1
_geom_bond_site_symmetry_2
S1 O2 1_555 1_555
O1 H1 1_555 1_555
O3 S1 1_555 1_555
C1 H2 1_555 1_555
C2 C1 1_555 1_555
H3 C2 1_555 1_555
C3 C2 1_555 1_555
H4 C3 1_555 1_555
C4 C3 1_555 1_555
C5 C4 1_555 1_555
H5 C5 1_555 1_555
C6 C5 1_555 1_555
C7 C6 1_555 1_555
C8 C7 1_555 1_555
C9 C8 1_555 1_555
H6 C9 1_555 1_555
C10 C9 1_555 1_555
H7 C10 1_555 1_555
C11 O1 1_555 1_555
C12 C1 1_555 1_555
H8 C12 1_555 1_555
C13 C4 1_555 1_555
H9 C13 1_555 1_555
C14 S1 1_555 1_555
H10 C14 1_555 1_555
C15 S1 1_555 1_555
H11 C15 1_555 1_555
H12 C15 1_555 1_555
H13 C15 1_555 1_555
C16 C14 1_555 1_555
H14 C16 1_555 1_555
H15 C16 1_555 1_555
C17 C16 1_555 1_555
H16 C17 1_555 1_555
C18 C6 1_555 1_555
C19 C11 1_555 1_555
H17 C19 1_555 1_555
C20 C17 1_555 1_555
H18 C20 1_555 1_555
H19 C20 1_555 1_555
H20 C20 1_555 1_555
C21 C7 1_555 1_555
H21 C21 1_555 1_555
C22 C10 1_555 1_555
H22 C22 1_555 1_555
C5 C14 1_555 1_555
C8 C11 1_555 1_555
C12 C13 1_555 1_555
C17 C18 1_555 1_555
C18 C19 1_555 1_555
C21 C22 1_555 1_555

#END
