
#######################################################################
#
#                 Cambridge Crystallographic Data Centre
#                                CCDC 
#
#######################################################################
#
# If this CIF has been generated from an entry in the Cambridge 
# Structural Database, then it will include bibliographic, chemical, 
# crystal, experimental, refinement or atomic coordinate data resulting 
# from the CCDC's data processing and validation procedures.
#
#######################################################################

data_FESSAA
_chemical_formula_moiety         'C22 H23 N1 O3 S1'
_chemical_name_systematic        
2-[(4-methylphenyl)sulfonyl]-4-phenyl-1,4,4a,5,6,7-hexahydroisoquinolin-3(2H)-one
_symmetry_cell_setting           monoclinic
_symmetry_space_group_name_H-M   'P 21/n'
_symmetry_Int_Tables_number      14
_space_group_name_Hall           '-P 2yn'
loop_
_symmetry_equiv_pos_site_id
_symmetry_equiv_pos_as_xyz
1 x,y,z
2 1/2-x,1/2+y,1/2-z
3 -x,-y,-z
4 1/2+x,1/2-y,1/2+z
_cell_length_a                   13.4105(8)
_cell_length_b                   8.0327(4)
_cell_length_c                   18.4137(11)
_cell_angle_alpha                90
_cell_angle_beta                 102.930(2)
_cell_angle_gamma                90
_cell_volume                     1933.28
_exptl_crystal_colour            colorless
_exptl_crystal_description       prism
_cell_formula_units_Z            4
loop_
_atom_site_label
_atom_site_type_symbol
_atom_site_fract_x
_atom_site_fract_y
_atom_site_fract_z
C1 C 0.5702(2) 0.1306(3) 0.66307(16)
C2 C 0.6375(2) 0.1583(4) 0.73045(17)
H1 H 0.6738 0.2604 0.7399
C3 C 0.6511(2) 0.0348(4) 0.78384(19)
H2 H 0.6982 0.0521 0.8300
C4 C 0.5978(2) -0.1131(4) 0.77173(19)
C5 C 0.6121(3) -0.2471(5) 0.8303(2)
H3 H 0.6194 -0.3552 0.8074
H4 H 0.5525 -0.2496 0.8529
H5 H 0.6738 -0.2236 0.8689
C6 C 0.5293(3) -0.1373(4) 0.70401(19)
H6 H 0.4915 -0.2381 0.6952
C7 C 0.5154(2) -0.0167(4) 0.64923(18)
H7 H 0.4689 -0.0344 0.6027
C8 C 0.3833(2) 0.2471(4) 0.48658(15)
H8 H 0.4001 0.3192 0.4474
H9 H 0.4086 0.1336 0.4801
C9 C 0.2708(2) 0.2425(4) 0.47841(17)
C10 C 0.2145(2) 0.1150(4) 0.44920(19)
H10 H 0.2481 0.0230 0.4328
C11 C 0.1008(2) 0.1051(4) 0.4401(2)
H11 H 0.0819 -0.0079 0.4537
H12 H 0.0671 0.1248 0.3872
C12 C 0.0632(2) 0.2327(4) 0.4886(2)
H13 H -0.0122 0.2418 0.4732
H14 H 0.0811 0.1957 0.5412
C13 C 0.1111(2) 0.4014(4) 0.4818(2)
H15 H 0.0855 0.4818 0.5142
H16 H 0.0889 0.4408 0.4298
C14 C 0.2273(2) 0.3994(4) 0.50325(19)
H17 H 0.2532 0.4959 0.4785
C15 C 0.2695(2) 0.4135(4) 0.58665(18)
H18 H 0.2400 0.3182 0.6098
C16 C 0.2356(2) 0.5717(4) 0.62036(18)
C17 C 0.1728(3) 0.5584(4) 0.66976(18)
H19 H 0.1531 0.4513 0.6834
C18 C 0.1382(3) 0.6981(5) 0.69976(19)
H20 H 0.0954 0.6862 0.7342
C19 C 0.1646(2) 0.8532(5) 0.68058(19)
H21 H 0.1405 0.9492 0.7015
C20 C 0.2265(3) 0.8692(4) 0.6307(2)
H22 H 0.2447 0.9766 0.6164
C21 C 0.2624(2) 0.7273(5) 0.60094(19)
H23 H 0.3059 0.7387 0.5670
C22 C 0.3861(2) 0.3954(4) 0.61036(17)
N1 N 0.43510(16) 0.3126(3) 0.56182(12)
O1 O 0.61452(15) 0.4226(3) 0.61752(12)
O2 O 0.58701(15) 0.1921(3) 0.52812(11)
O3 O 0.43386(15) 0.4392(3) 0.67133(11)
S1 S 0.56070(5) 0.27487(9) 0.59025(4)
loop_
_geom_bond_atom_site_label_1
_geom_bond_atom_site_label_2
_geom_bond_site_symmetry_1
_geom_bond_site_symmetry_2
C1 C2 1_555 1_555
C2 H1 1_555 1_555
C3 C2 1_555 1_555
H2 C3 1_555 1_555
C4 C3 1_555 1_555
C5 C4 1_555 1_555
H3 C5 1_555 1_555
H4 C5 1_555 1_555
H5 C5 1_555 1_555
C6 C4 1_555 1_555
H6 C6 1_555 1_555
C7 C1 1_555 1_555
H7 C7 1_555 1_555
C8 H8 1_555 1_555
H9 C8 1_555 1_555
C9 C8 1_555 1_555
C10 C9 1_555 1_555
H10 C10 1_555 1_555
C11 C10 1_555 1_555
H11 C11 1_555 1_555
H12 C11 1_555 1_555
C12 C11 1_555 1_555
H13 C12 1_555 1_555
H14 C12 1_555 1_555
C13 C12 1_555 1_555
H15 C13 1_555 1_555
H16 C13 1_555 1_555
C14 C9 1_555 1_555
H17 C14 1_555 1_555
C15 C14 1_555 1_555
H18 C15 1_555 1_555
C16 C15 1_555 1_555
C17 C16 1_555 1_555
H19 C17 1_555 1_555
C18 C17 1_555 1_555
H20 C18 1_555 1_555
C19 C18 1_555 1_555
H21 C19 1_555 1_555
C20 C19 1_555 1_555
H22 C20 1_555 1_555
C21 C16 1_555 1_555
H23 C21 1_555 1_555
C22 C15 1_555 1_555
N1 C8 1_555 1_555
O1 S1 1_555 1_555
O2 S1 1_555 1_555
O3 C22 1_555 1_555
S1 C1 1_555 1_555
C6 C7 1_555 1_555
C13 C14 1_555 1_555
C20 C21 1_555 1_555
C22 N1 1_555 1_555
N1 S1 1_555 1_555

#END
