
#######################################################################
#
#                 Cambridge Crystallographic Data Centre
#                                CCDC 
#
#######################################################################
#
# If this CIF has been generated from an entry in the Cambridge 
# Structural Database, then it will include bibliographic, chemical, 
# crystal, experimental, refinement or atomic coordinate data resulting 
# from the CCDC's data processing and validation procedures.
#
#######################################################################

data_FESXAF
_chemical_formula_moiety         'C22 H34 O1'
_chemical_name_systematic        2-butyl-11-phenylcyclododecanone
_symmetry_cell_setting           monoclinic
_symmetry_space_group_name_H-M   'P 2/n'
_symmetry_Int_Tables_number      13
_space_group_name_Hall           '-P 2yac'
loop_
_symmetry_equiv_pos_site_id
_symmetry_equiv_pos_as_xyz
1 x,y,z
2 1/2-x,y,1/2-z
3 -x,-y,-z
4 1/2+x,-y,1/2+z
_cell_length_a                   15.910(6)
_cell_length_b                   5.535(2)
_cell_length_c                   23.010(8)
_cell_angle_alpha                90
_cell_angle_beta                 108.65(4)
_cell_angle_gamma                90
_cell_volume                     1919.9
_cell_formula_units_Z            4
loop_
_atom_site_label
_atom_site_type_symbol
_atom_site_fract_x
_atom_site_fract_y
_atom_site_fract_z
O1 O 0.46657(18) 0.2622(5) 0.28808(12)
C1 C 0.2841(3) -0.4193(7) 0.33906(18)
H1 H 0.3064 -0.4856 0.3088
C2 C 0.5235(3) 0.1827(7) 0.18797(17)
H2 H 0.5793 0.2521 0.2156
H3 H 0.4772 0.3091 0.1803
C3 C 0.3182(3) -0.2043(7) 0.36727(17)
C4 C 0.4565(3) 0.0543(7) 0.26868(17)
C5 C 0.4009(3) -0.1248(7) 0.29023(17)
H4 H 0.4270 -0.2878 0.2914
H5 H 0.3405 -0.1286 0.2601
C6 C 0.5371(3) 0.1156(7) 0.12703(17)
H6 H 0.5797 -0.0201 0.1338
H7 H 0.4800 0.0606 0.0978
C7 C 0.2846(3) -0.1110(8) 0.41172(18)
H8 H 0.3076 0.0366 0.4316
C8 C 0.4962(3) -0.0309(7) 0.22024(18)
H9 H 0.4492 -0.1228 0.1886
C9 C 0.1847(3) -0.4474(8) 0.39920(19)
H10 H 0.1400 -0.5312 0.4104
C10 C 0.2168(3) -0.5413(8) 0.35453(19)
H11 H 0.1933 -0.6880 0.3344
C11 C 0.2179(3) -0.2314(8) 0.42739(19)
H12 H 0.1953 -0.1648 0.4574
C12 C 0.4825(3) -0.1060(7) 0.40478(17)
H13 H 0.4786 -0.0317 0.4429
H14 H 0.5297 -0.0201 0.3935
C13 C 0.3939(3) -0.0672(7) 0.35363(17)
H15 H 0.3797 0.1088 0.3536
C14 C 0.5101(3) -0.3721(7) 0.41792(18)
H16 H 0.4691 -0.4513 0.4365
H17 H 0.5039 -0.4545 0.3786
C15 C 0.7178(3) -0.2926(8) 0.3353(2)
H18 H 0.7733 -0.2125 0.3601
H19 H 0.7325 -0.4014 0.3059
C16 C 0.6053(3) -0.4050(8) 0.46073(18)
H20 H 0.6160 -0.5792 0.4698
H21 H 0.6115 -0.3216 0.4999
C17 C 0.6530(3) -0.0998(7) 0.29952(19)
H22 H 0.6847 0.0119 0.2801
H23 H 0.6316 -0.0048 0.3284
C18 C 0.6821(3) -0.4449(7) 0.37804(18)
H24 H 0.7207 -0.5880 0.3916
H25 H 0.6220 -0.5036 0.3546
C19 C 0.5730(3) -0.2071(7) 0.24974(18)
H26 H 0.5495 -0.3432 0.2679
H27 H 0.5939 -0.2744 0.2169
C20 C 0.5717(3) 0.3270(7) 0.09942(18)
H28 H 0.6290 0.3801 0.1288
H29 H 0.5295 0.4631 0.0936
C21 C 0.6769(3) -0.3088(8) 0.43505(19)
H30 H 0.7353 -0.3193 0.4675
H31 H 0.6649 -0.1360 0.4245
C22 C 0.5852(3) 0.2699(8) 0.03781(18)
H32 H 0.5284 0.2235 0.0079
H33 H 0.6275 0.1366 0.0431
H34 H 0.6084 0.4132 0.0230
loop_
_geom_bond_atom_site_label_1
_geom_bond_atom_site_label_2
_geom_bond_site_symmetry_1
_geom_bond_site_symmetry_2
O1 C4 1_555 1_555
C1 H1 1_555 1_555
C2 H2 1_555 1_555
H3 C2 1_555 1_555
C3 C1 1_555 1_555
C4 C5 1_555 1_555
C5 H4 1_555 1_555
H5 C5 1_555 1_555
C6 C2 1_555 1_555
H6 C6 1_555 1_555
H7 C6 1_555 1_555
C7 C3 1_555 1_555
H8 C7 1_555 1_555
C8 C2 1_555 1_555
H9 C8 1_555 1_555
C9 H10 1_555 1_555
C10 C1 1_555 1_555
H11 C10 1_555 1_555
C11 C7 1_555 1_555
H12 C11 1_555 1_555
C12 H13 1_555 1_555
H14 C12 1_555 1_555
C13 C3 1_555 1_555
H15 C13 1_555 1_555
C14 C12 1_555 1_555
H16 C14 1_555 1_555
H17 C14 1_555 1_555
C15 H18 1_555 1_555
H19 C15 1_555 1_555
C16 C14 1_555 1_555
H20 C16 1_555 1_555
H21 C16 1_555 1_555
C17 C15 1_555 1_555
H22 C17 1_555 1_555
H23 C17 1_555 1_555
C18 C15 1_555 1_555
H24 C18 1_555 1_555
H25 C18 1_555 1_555
C19 C8 1_555 1_555
H26 C19 1_555 1_555
H27 C19 1_555 1_555
C20 C6 1_555 1_555
H28 C20 1_555 1_555
H29 C20 1_555 1_555
C21 C16 1_555 1_555
H30 C21 1_555 1_555
H31 C21 1_555 1_555
C22 C20 1_555 1_555
H32 C22 1_555 1_555
H33 C22 1_555 1_555
H34 C22 1_555 1_555
C4 C8 1_555 1_555
C5 C13 1_555 1_555
C9 C10 1_555 1_555
C9 C11 1_555 1_555
C12 C13 1_555 1_555
C17 C19 1_555 1_555
C18 C21 1_555 1_555

#END
