
#######################################################################
#
#                 Cambridge Crystallographic Data Centre
#                                CCDC 
#
#######################################################################
#
# If this CIF has been generated from an entry in the Cambridge 
# Structural Database, then it will include bibliographic, chemical, 
# crystal, experimental, refinement or atomic coordinate data resulting 
# from the CCDC's data processing and validation procedures.
#
#######################################################################

data_FESXEH
_chemical_formula_moiety         'C22 H20 N2 O2'
_chemical_name_systematic        
1-(p-Methoxybenzyl)-2-(p-methoxyphenyl)benzimidazole
_symmetry_cell_setting           orthorhombic
_symmetry_space_group_name_H-M   'P n a 21'
_symmetry_Int_Tables_number      33
_space_group_name_Hall           'P 2c -2n'
loop_
_symmetry_equiv_pos_site_id
_symmetry_equiv_pos_as_xyz
1 x,y,z
2 -x,-y,1/2+z
3 1/2+x,1/2-y,z
4 1/2-x,1/2+y,1/2+z
_cell_length_a                   20.194(7)
_cell_length_b                   15.657(4)
_cell_length_c                   5.498(1)
_cell_angle_alpha                90
_cell_angle_beta                 90
_cell_angle_gamma                90
_cell_volume                     1738.34
_cell_formula_units_Z            4
loop_
_atom_site_label
_atom_site_type_symbol
_atom_site_fract_x
_atom_site_fract_y
_atom_site_fract_z
O1 O 0.03488(11) 0.37790(14) -0.1667(5)
O2 O 0.35563(11) 0.22622(13) 1.0455(5)
N1 N 0.30570(11) 0.53341(15) 0.2660(5)
N2 N 0.41550(12) 0.51356(15) 0.2338(6)
C1 C 0.08786(16) 0.4155(2) -0.0522(7)
C2 C 0.07131(16) 0.4737(2) 0.1237(7)
H1 H 0.0271 0.4865 0.1537
C3 C 0.12063(14) 0.51329(19) 0.2561(8)
H2 H 0.1092 0.5533 0.3739
C4 C 0.18662(15) 0.49455(18) 0.2166(7)
C5 C 0.20153(15) 0.43790(18) 0.0325(7)
H3 H 0.2457 0.4264 -0.0027
C6 C 0.15293(14) 0.39791(18) -0.1004(7)
H4 H 0.1642 0.3592 -0.2220
C7 C 0.23957(13) 0.53710(18) 0.3722(7)
H5 H 0.2276 0.5964 0.3971
H6 H 0.2405 0.5096 0.5303
C8 C 0.32735(15) 0.5871(2) 0.0857(7)
C9 C 0.29266(16) 0.64236(19) -0.0694(7)
H7 H 0.2471 0.6499 -0.0558
C10 C 0.32925(19) 0.6851(2) -0.2435(9)
H8 H 0.3082 0.7233 -0.3478
C11 C 0.39796(17) 0.6717(2) -0.2648(9)
H9 H 0.4215 0.7005 -0.3848
C12 C 0.43109(16) 0.6165(2) -0.1103(8)
H10 H 0.4765 0.6083 -0.1242
C13 C 0.39505(15) 0.5739(2) 0.0644(7)
C14 C 0.36098(15) 0.49033(18) 0.3480(6)
C15 C 0.36010(15) 0.42247(19) 0.5330(7)
C16 C 0.30730(14) 0.36404(18) 0.5474(7)
H11 H 0.2717 0.3681 0.4405
C17 C 0.30879(15) 0.29987(19) 0.7235(7)
H12 H 0.2735 0.2620 0.7349
C18 C 0.36077(16) 0.29168(19) 0.8784(7)
C19 C 0.41344(15) 0.34832(19) 0.8638(7)
H13 H 0.4493 0.3431 0.9690
C20 C 0.41224(15) 0.41335(19) 0.6893(7)
H14 H 0.4477 0.4512 0.6796
C21 C 0.04767(18) 0.3175(2) -0.3532(7)
H15 H 0.0704 0.3450 -0.4849
H16 H 0.0065 0.2944 -0.4111
H17 H 0.0747 0.2722 -0.2898
C22 C 0.40819(16) 0.2131(2) 1.2123(8)
H18 H 0.4480 0.1999 1.1247
H19 H 0.3973 0.1665 1.3187
H20 H 0.4148 0.2640 1.3066
loop_
_geom_bond_atom_site_label_1
_geom_bond_atom_site_label_2
_geom_bond_site_symmetry_1
_geom_bond_site_symmetry_2
O1 C1 1_555 1_555
O2 C18 1_555 1_555
N1 C7 1_555 1_555
N2 C13 1_555 1_555
C1 C2 1_555 1_555
C2 H1 1_555 1_555
C3 C2 1_555 1_555
H2 C3 1_555 1_555
C4 C3 1_555 1_555
C5 C4 1_555 1_555
H3 C5 1_555 1_555
C6 C1 1_555 1_555
H4 C6 1_555 1_555
C7 C4 1_555 1_555
H5 C7 1_555 1_555
H6 C7 1_555 1_555
C8 N1 1_555 1_555
C9 C8 1_555 1_555
H7 C9 1_555 1_555
C10 C9 1_555 1_555
H8 C10 1_555 1_555
C11 C10 1_555 1_555
H9 C11 1_555 1_555
C12 C11 1_555 1_555
H10 C12 1_555 1_555
C13 C8 1_555 1_555
C14 N1 1_555 1_555
C15 C14 1_555 1_555
C16 C15 1_555 1_555
H11 C16 1_555 1_555
C17 C16 1_555 1_555
H12 C17 1_555 1_555
C18 C17 1_555 1_555
C19 C18 1_555 1_555
H13 C19 1_555 1_555
C20 C15 1_555 1_555
H14 C20 1_555 1_555
C21 O1 1_555 1_555
H15 C21 1_555 1_555
H16 C21 1_555 1_555
H17 C21 1_555 1_555
C22 O2 1_555 1_555
H18 C22 1_555 1_555
H19 C22 1_555 1_555
H20 C22 1_555 1_555
N2 C14 1_555 1_555
C5 C6 1_555 1_555
C12 C13 1_555 1_555
C19 C20 1_555 1_555

#END
