
#######################################################################
#
#                 Cambridge Crystallographic Data Centre
#                                CCDC 
#
#######################################################################
#
# If this CIF has been generated from an entry in the Cambridge 
# Structural Database, then it will include bibliographic, chemical, 
# crystal, experimental, refinement or atomic coordinate data resulting 
# from the CCDC's data processing and validation procedures.
#
#######################################################################

data_FESXIN
_chemical_formula_moiety         'C24 H30 O3 S1'
_chemical_name_systematic        11-phenyl-2-(phenylsulfonyl)cyclododecanone
_symmetry_cell_setting           monoclinic
_symmetry_space_group_name_H-M   'P 21/c'
_symmetry_Int_Tables_number      14
_space_group_name_Hall           '-P 2ybc'
loop_
_symmetry_equiv_pos_site_id
_symmetry_equiv_pos_as_xyz
1 x,y,z
2 -x,1/2+y,1/2-z
3 -x,-y,-z
4 x,1/2-y,1/2+z
_cell_length_a                   13.8599(4)
_cell_length_b                   15.0455(5)
_cell_length_c                   9.9769(3)
_cell_angle_alpha                90
_cell_angle_beta                 98.324(3)
_cell_angle_gamma                90
_cell_volume                     2058.56
_cell_formula_units_Z            4
loop_
_atom_site_label
_atom_site_type_symbol
_atom_site_fract_x
_atom_site_fract_y
_atom_site_fract_z
S1 S 0.61187(4) 0.20204(4) 0.02195(6)
O1 O 0.54010(12) 0.26916(11) 0.03934(17)
O2 O 0.76617(12) 0.33051(11) -0.09353(16)
O3 O 0.61933(13) 0.17182(12) -0.11347(16)
C1 C 0.59076(17) 0.10838(16) 0.1207(2)
C2 C 0.73047(16) 0.24515(15) 0.0946(2)
H1 H 0.7311 0.2578 0.1911
C3 C 0.75954(17) 0.55106(16) 0.2254(2)
C4 C 0.91522(17) 0.21175(16) 0.1106(2)
H2 H 0.9594 0.1661 0.0875
H3 H 0.9227 0.2630 0.0541
C5 C 0.73893(17) 0.33259(16) 0.0165(2)
C6 C 0.68025(18) 0.69499(17) 0.1882(3)
H4 H 0.6468 0.7361 0.1292
C7 C 0.81031(17) 0.17722(16) 0.0766(2)
H5 H 0.8028 0.1262 0.1336
H6 H 0.8004 0.1569 -0.0167
C8 C 0.61570(18) 0.02413(17) 0.0793(3)
H7 H 0.6459 0.0171 0.0026
C9 C 0.71013(19) 0.41916(17) 0.0765(3)
H8 H 0.6558 0.4083 0.1256
H9 H 0.6881 0.4602 0.0034
C10 C 0.94537(17) 0.23797(17) 0.2583(2)
H10 H 0.9367 0.1873 0.3154
H11 H 0.9028 0.2851 0.2811
C11 C 0.69943(18) 0.71337(17) 0.3262(3)
H12 H 0.6793 0.7668 0.3599
C12 C 0.77804(18) 0.57088(17) 0.3626(2)
H13 H 0.8106 0.5297 0.4223
C13 C 0.54540(17) 0.12021(16) 0.2350(2)
H14 H 0.5294 0.1768 0.2620
C14 C 0.52447(18) 0.04600(17) 0.3079(2)
H15 H 0.4938 0.0529 0.3843
C15 C 0.71120(18) 0.61489(17) 0.1388(3)
H16 H 0.6994 0.6037 0.0462
C16 C 1.05194(18) 0.26972(18) 0.2886(3)
H17 H 1.0704 0.2732 0.3860
H18 H 1.0935 0.2257 0.2547
C17 C 0.74864(19) 0.65145(18) 0.4124(3)
H19 H 0.7623 0.6636 0.5045
C18 C 0.54868(18) -0.03826(17) 0.2682(3)
H20 H 0.5341 -0.0877 0.3176
C19 C 0.88608(19) 0.47777(17) 0.1055(3)
H21 H 0.9014 0.4226 0.0629
H22 H 0.8713 0.5217 0.0343
C20 C 0.59485(19) -0.04902(17) 0.1542(3)
H23 H 0.6118 -0.1056 0.1283
C21 C 1.0208(2) 0.4388(2) 0.2947(3)
H24 H 0.9712 0.4146 0.3436
H25 H 1.0695 0.4674 0.3604
C22 C 0.79343(18) 0.46293(16) 0.1729(2)
H26 H 0.8107 0.4233 0.2506
C23 C 1.0708(2) 0.35959(18) 0.2270(3)
H27 H 1.0465 0.3584 0.1308
H28 H 1.1406 0.3699 0.2373
C24 C 0.9749(2) 0.5077(2) 0.1982(3)
H29 H 1.0230 0.5279 0.1434
H30 H 0.9573 0.5582 0.2499
loop_
_geom_bond_atom_site_label_1
_geom_bond_atom_site_label_2
_geom_bond_site_symmetry_1
_geom_bond_site_symmetry_2
S1 O1 1_555 1_555
O2 C5 1_555 1_555
O3 S1 1_555 1_555
C1 S1 1_555 1_555
C2 S1 1_555 1_555
H1 C2 1_555 1_555
C3 C12 1_555 1_555
C4 H2 1_555 1_555
H3 C4 1_555 1_555
C5 C2 1_555 1_555
C6 H4 1_555 1_555
C7 C2 1_555 1_555
H5 C7 1_555 1_555
H6 C7 1_555 1_555
C8 C1 1_555 1_555
H7 C8 1_555 1_555
C9 C5 1_555 1_555
H8 C9 1_555 1_555
H9 C9 1_555 1_555
C10 C4 1_555 1_555
H10 C10 1_555 1_555
H11 C10 1_555 1_555
C11 C6 1_555 1_555
H12 C11 1_555 1_555
C12 H13 1_555 1_555
C13 C1 1_555 1_555
H14 C13 1_555 1_555
C14 C13 1_555 1_555
H15 C14 1_555 1_555
C15 C3 1_555 1_555
H16 C15 1_555 1_555
C16 C10 1_555 1_555
H17 C16 1_555 1_555
H18 C16 1_555 1_555
C17 C11 1_555 1_555
H19 C17 1_555 1_555
C18 C14 1_555 1_555
H20 C18 1_555 1_555
C19 H21 1_555 1_555
H22 C19 1_555 1_555
C20 C8 1_555 1_555
H23 C20 1_555 1_555
C21 H24 1_555 1_555
H25 C21 1_555 1_555
C22 C3 1_555 1_555
H26 C22 1_555 1_555
C23 C16 1_555 1_555
H27 C23 1_555 1_555
H28 C23 1_555 1_555
C24 C19 1_555 1_555
H29 C24 1_555 1_555
H30 C24 1_555 1_555
C4 C7 1_555 1_555
C6 C15 1_555 1_555
C9 C22 1_555 1_555
C12 C17 1_555 1_555
C18 C20 1_555 1_555
C19 C22 1_555 1_555
C21 C23 1_555 1_555
C21 C24 1_555 1_555

#END
