
#######################################################################
#
#                 Cambridge Crystallographic Data Centre
#                                CCDC 
#
#######################################################################
#
# If this CIF has been generated from an entry in the Cambridge 
# Structural Database, then it will include bibliographic, chemical, 
# crystal, experimental, refinement or atomic coordinate data resulting 
# from the CCDC's data processing and validation procedures.
#
#######################################################################

data_FETFER
_chemical_formula_moiety         'C28 H19 N1 O2'
_chemical_name_systematic        '2,3,4-Triphenylquinoline-8-carboxylic acid'
_symmetry_cell_setting           monoclinic
_symmetry_space_group_name_H-M   'P 21/c'
_symmetry_Int_Tables_number      14
_space_group_name_Hall           '-P 2ybc'
loop_
_symmetry_equiv_pos_site_id
_symmetry_equiv_pos_as_xyz
1 x,y,z
2 -x,1/2+y,1/2-z
3 -x,-y,-z
4 x,1/2-y,1/2+z
_cell_length_a                   12.022(11)
_cell_length_b                   7.246(7)
_cell_length_c                   23.72(2)
_cell_angle_alpha                90
_cell_angle_beta                 104.207(18)
_cell_angle_gamma                90
_cell_volume                     2003.09
_exptl_crystal_colour            colorless
_exptl_crystal_description       Rod
_cell_formula_units_Z            4
loop_
_atom_site_label
_atom_site_type_symbol
_atom_site_fract_x
_atom_site_fract_y
_atom_site_fract_z
O1 O 1.1989(2) 0.1979(4) 1.01760(13)
H1 H 1.134(4) 0.208(6) 0.983(2)
O2 O 1.2183(2) 0.2138(4) 1.11231(12)
N1 N 1.0012(3) 0.2410(4) 0.94962(14)
C1 C 0.9560(3) 0.2683(5) 0.99624(16)
C2 C 1.0310(3) 0.2643(5) 1.05288(18)
C3 C 0.9865(3) 0.3012(5) 1.09967(17)
H2 H 1.0361 0.3016 1.1376
C4 C 0.8697(3) 0.3384(5) 1.09262(17)
H3 H 0.8413 0.3648 1.1258
C5 C 0.7966(3) 0.3372(5) 1.03927(17)
H4 H 0.7173 0.3600 1.0354
C6 C 0.8379(3) 0.3019(5) 0.98861(17)
C7 C 0.7665(3) 0.2970(5) 0.93192(17)
C8 C 0.8141(3) 0.2750(5) 0.88430(17)
C9 C 0.9365(3) 0.2491(5) 0.89639(17)
C10 C 1.1566(3) 0.2229(5) 1.06417(19)
C11 C 0.6400(3) 0.3081(5) 0.92427(17)
C12 C 0.5841(3) 0.4746(5) 0.92442(17)
H5 H 0.6258 0.5868 0.9265
C13 C 0.4680(3) 0.4791(6) 0.92154(17)
H6 H 0.4298 0.5943 0.9203
C14 C 0.4080(4) 0.3186(6) 0.9205(2)
H7 H 0.3286 0.3228 0.9195
C15 C 0.4619(4) 0.1512(7) 0.9209(2)
H8 H 0.4199 0.0397 0.9200
C16 C 0.5789(4) 0.1461(6) 0.9226(2)
H9 H 0.6165 0.0308 0.9227
C17 C 0.7400(3) 0.2723(5) 0.82441(16)
C18 C 0.6787(3) 0.4289(5) 0.80095(16)
H10 H 0.6859 0.5390 0.8233
C19 C 0.6077(3) 0.4258(6) 0.74570(17)
H11 H 0.5650 0.5327 0.7305
C20 C 0.5983(3) 0.2676(6) 0.71219(18)
H12 H 0.5502 0.2660 0.6739
C21 C 0.6596(3) 0.1114(6) 0.73501(18)
H13 H 0.6523 0.0018 0.7124
C22 C 0.7311(3) 0.1139(5) 0.79009(17)
H14 H 0.7745 0.0073 0.8048
C23 C 1.0023(3) 0.2335(5) 0.85075(17)
C24 C 0.9769(3) 0.3383(5) 0.80067(17)
H15 H 0.9095 0.4122 0.7920
C25 C 1.0488(3) 0.3371(5) 0.76265(18)
H16 H 1.0316 0.4127 0.7289
C26 C 1.1454(3) 0.2256(5) 0.77419(18)
H17 H 1.1944 0.2242 0.7483
C27 C 1.1702(3) 0.1167(5) 0.82335(17)
H18 H 1.2351 0.0375 0.8306
C28 C 1.1012(3) 0.1221(5) 0.86194(17)
H19 H 1.1206 0.0500 0.8964
loop_
_geom_bond_atom_site_label_1
_geom_bond_atom_site_label_2
_geom_bond_site_symmetry_1
_geom_bond_site_symmetry_2
O1 H1 1_555 1_555
O2 C10 1_555 1_555
N1 C1 1_555 1_555
C1 C2 1_555 1_555
C2 C3 1_555 1_555
C3 H2 1_555 1_555
C4 C3 1_555 1_555
H3 C4 1_555 1_555
C5 C4 1_555 1_555
H4 C5 1_555 1_555
C6 C1 1_555 1_555
C7 C6 1_555 1_555
C8 C7 1_555 1_555
C9 N1 1_555 1_555
C10 O1 1_555 1_555
C11 C7 1_555 1_555
C12 C11 1_555 1_555
H5 C12 1_555 1_555
C13 C12 1_555 1_555
H6 C13 1_555 1_555
C14 C13 1_555 1_555
H7 C14 1_555 1_555
C15 C14 1_555 1_555
H8 C15 1_555 1_555
C16 C11 1_555 1_555
H9 C16 1_555 1_555
C17 C8 1_555 1_555
C18 C17 1_555 1_555
H10 C18 1_555 1_555
C19 C18 1_555 1_555
H11 C19 1_555 1_555
C20 C19 1_555 1_555
H12 C20 1_555 1_555
C21 C20 1_555 1_555
H13 C21 1_555 1_555
C22 C17 1_555 1_555
H14 C22 1_555 1_555
C23 C9 1_555 1_555
C24 C23 1_555 1_555
H15 C24 1_555 1_555
C25 C24 1_555 1_555
H16 C25 1_555 1_555
C26 C25 1_555 1_555
H17 C26 1_555 1_555
C27 C26 1_555 1_555
H18 C27 1_555 1_555
C28 C23 1_555 1_555
H19 C28 1_555 1_555
C2 C10 1_555 1_555
C5 C6 1_555 1_555
C8 C9 1_555 1_555
C15 C16 1_555 1_555
C21 C22 1_555 1_555
C27 C28 1_555 1_555

#END
