
#######################################################################
#
#                 Cambridge Crystallographic Data Centre
#                                CCDC 
#
#######################################################################
#
# If this CIF has been generated from an entry in the Cambridge 
# Structural Database, then it will include bibliographic, chemical, 
# crystal, experimental, refinement or atomic coordinate data resulting 
# from the CCDC's data processing and validation procedures.
#
#######################################################################

data_FETNIC
_chemical_formula_moiety         'C18 H18 N8 S2'
_chemical_name_systematic        
1,4-bis(1-Phenyl-1H-tetrazol-5-ylsulfanyl)butane
_symmetry_cell_setting           monoclinic
_symmetry_space_group_name_H-M   'P 21/c'
_symmetry_Int_Tables_number      14
_space_group_name_Hall           '-P 2ybc'
loop_
_symmetry_equiv_pos_site_id
_symmetry_equiv_pos_as_xyz
1 x,y,z
2 -x,1/2+y,1/2-z
3 -x,-y,-z
4 x,1/2-y,1/2+z
_cell_length_a                   9.4630(17)
_cell_length_b                   12.879(2)
_cell_length_c                   16.440(3)
_cell_angle_alpha                90
_cell_angle_beta                 105.802(3)
_cell_angle_gamma                90
_cell_volume                     1927.89
_exptl_crystal_colour            colorless
_exptl_crystal_description       prism
_chemical_melting_point          '415-416 K'
_cell_formula_units_Z            4
_exptl_crystal_recrystallization_method acetonitrile
loop_
_atom_site_label
_atom_site_type_symbol
_atom_site_fract_x
_atom_site_fract_y
_atom_site_fract_z
S1 S 0.41059(5) 1.01832(4) 0.16222(3)
S2 S 0.09992(5) 0.88290(4) -0.13239(4)
N1 N 0.32915(16) 0.81828(12) 0.17635(10)
N2 N 0.20960(19) 0.76171(14) 0.17988(12)
N3 N 0.1052(2) 0.82723(16) 0.17606(13)
N4 N 0.15159(18) 0.92654(14) 0.17043(12)
N5 N 0.37173(18) 0.79459(15) -0.11627(12)
N6 N 0.4265(2) 0.69609(17) -0.10528(13)
N7 N 0.3285(2) 0.63031(15) -0.09803(13)
N8 N 0.20334(17) 0.68626(13) -0.10386(10)
C1 C 0.5942(2) 0.80484(16) 0.22856(13)
H1 H 0.5937 0.8567 0.2678
C2 C 0.7247(2) 0.76109(18) 0.22364(15)
H2 H 0.8131 0.7848 0.2589
C3 C 0.7249(3) 0.6832(2) 0.16747(17)
H3 H 0.8133 0.6541 0.1646
C4 C 0.5946(3) 0.6476(2) 0.11488(18)
H4 H 0.5953 0.5933 0.0777
C5 C 0.4628(3) 0.69213(17) 0.11721(15)
H5 H 0.3747 0.6696 0.0809
C6 C 0.4647(2) 0.77044(14) 0.17439(12)
C7 C 0.2910(2) 0.91939(15) 0.17055(12)
C8 C 0.2820(2) 1.10894(15) 0.09688(13)
H6 H 0.2103 1.1285 0.1266
H7 H 0.3350 1.1712 0.0898
C9 C 0.2002(2) 1.06842(16) 0.00957(13)
H8 H 0.1396 1.0102 0.0165
H9 H 0.1352 1.1226 -0.0202
C10 C 0.2978(2) 1.03395(16) -0.04467(13)
H10 H 0.3599 1.0915 -0.0512
H11 H 0.3611 0.9783 -0.0160
C11 C 0.2116(2) 0.99668(15) -0.13130(13)
H12 H 0.2803 0.9820 -0.1642
H13 H 0.1484 1.0527 -0.1593
C12 C 0.2330(2) 0.78628(15) -0.11573(12)
C13 C 0.0704(2) 0.63758(15) -0.09756(12)
C14 C 0.0193(3) 0.55094(16) -0.14594(14)
H14 H 0.0699 0.5241 -0.1824
C15 C -0.1089(3) 0.50498(19) -0.13890(17)
H15 H -0.1445 0.4459 -0.1703
C16 C -0.1843(3) 0.5461(2) -0.08572(19)
H16 H -0.2710 0.5150 -0.0819
C17 C -0.1330(3) 0.6319(2) -0.03857(17)
H17 H -0.1854 0.6597 -0.0034
C18 C -0.0029(2) 0.67791(17) -0.04296(14)
H18 H 0.0343 0.7352 -0.0095
loop_
_geom_bond_atom_site_label_1
_geom_bond_atom_site_label_2
_geom_bond_site_symmetry_1
_geom_bond_site_symmetry_2
S1 C7 1_555 1_555
S2 C11 1_555 1_555
N1 N2 1_555 1_555
N2 N3 1_555 1_555
N3 N4 1_555 1_555
N4 C7 1_555 1_555
N5 N6 1_555 1_555
N6 N7 1_555 1_555
N7 N8 1_555 1_555
N8 C12 1_555 1_555
C1 H1 1_555 1_555
C2 C1 1_555 1_555
H2 C2 1_555 1_555
C3 C2 1_555 1_555
H3 C3 1_555 1_555
C4 C3 1_555 1_555
H4 C4 1_555 1_555
C5 C4 1_555 1_555
H5 C5 1_555 1_555
C6 N1 1_555 1_555
C7 N1 1_555 1_555
C8 S1 1_555 1_555
H6 C8 1_555 1_555
H7 C8 1_555 1_555
C9 C8 1_555 1_555
H8 C9 1_555 1_555
H9 C9 1_555 1_555
C10 C9 1_555 1_555
H10 C10 1_555 1_555
H11 C10 1_555 1_555
C11 C10 1_555 1_555
H12 C11 1_555 1_555
H13 C11 1_555 1_555
C12 S2 1_555 1_555
C13 N8 1_555 1_555
C14 C13 1_555 1_555
H14 C14 1_555 1_555
C15 C14 1_555 1_555
H15 C15 1_555 1_555
C16 C15 1_555 1_555
H16 C16 1_555 1_555
C17 C16 1_555 1_555
H17 C17 1_555 1_555
C18 C13 1_555 1_555
H18 C18 1_555 1_555
N5 C12 1_555 1_555
C1 C6 1_555 1_555
C5 C6 1_555 1_555
C17 C18 1_555 1_555

#END
