
#######################################################################
#
#                 Cambridge Crystallographic Data Centre
#                                CCDC 
#
#######################################################################
#
# If this CIF has been generated from an entry in the Cambridge 
# Structural Database, then it will include bibliographic, chemical, 
# crystal, experimental, refinement or atomic coordinate data resulting 
# from the CCDC's data processing and validation procedures.
#
#######################################################################

data_FETNOH
_chemical_formula_moiety         'C62 H38 O2,3(C1 H2 Cl2)'
_chemical_name_systematic        
'9,11,20,22-Tetraphenyl-cis-9,22-dihydro-tetrabenzo(a,c,l,n)pentacene-10,21-dione dichloromethane solvate'
_symmetry_cell_setting           triclinic
_symmetry_space_group_name_H-M   'P -1'
_symmetry_Int_Tables_number      2
_space_group_name_Hall           '-P 1'
loop_
_symmetry_equiv_pos_site_id
_symmetry_equiv_pos_as_xyz
1 x,y,z
2 -x,-y,-z
_cell_length_a                   11.5543(9)
_cell_length_b                   15.3293(12)
_cell_length_c                   16.8712(13)
_cell_angle_alpha                100.669(3)
_cell_angle_beta                 106.344(3)
_cell_angle_gamma                109.432(2)
_cell_volume                     2572.63
_exptl_crystal_colour            orange
_exptl_crystal_description       prism
_cell_formula_units_Z            2
loop_
_atom_site_label
_atom_site_type_symbol
_atom_site_fract_x
_atom_site_fract_y
_atom_site_fract_z
O1 O 0.3862(2) 0.86066(11) 0.14827(10)
O2 O 0.4323(2) 0.61625(11) 0.31614(9)
C1 C 0.4123(2) 0.80168(15) 0.18059(13)
C2 C 0.3473(2) 0.69498(14) 0.13441(12)
C3 C 0.2491(2) 0.65537(14) 0.05119(12)
C4 C 0.2152(2) 0.55807(15) 0.00243(13)
C5 C 0.1051(2) 0.50723(14) -0.08239(13)
C6 C -0.0038(2) 0.5328(2) -0.10691(14)
H1 H -0.0091(2) 0.5819(2) -0.06636(14)
C7 C -0.1017(2) 0.4885(2) -0.18775(15)
H2 H -0.1727(2) 0.5081(2) -0.20330(15)
C8 C -0.0969(3) 0.4146(2) -0.2470(2)
H3 H -0.1615(3) 0.3865(2) -0.3043(2)
C9 C 0.0009(3) 0.3828(2) -0.2224(2)
H4 H 0.0005(3) 0.3299(2) -0.2622(2)
C10 C 0.1024(2) 0.4265(2) -0.13954(13)
C11 C 0.2011(2) 0.3881(2) -0.11227(14)
C12 C 0.2055(3) 0.3115(2) -0.1704(2)
H5 H 0.1429(3) 0.2848(2) -0.2283(2)
C13 C 0.2975(3) 0.2748(2) -0.1456(2)
H6 H 0.2970(3) 0.2219(2) -0.1855(2)
C14 C 0.3920(3) 0.3148(2) -0.0618(2)
H7 H 0.4572(3) 0.2900(2) -0.0447(2)
C15 C 0.3911(2) 0.3901(2) -0.0038(2)
H8 H 0.4581(2) 0.4185(2) 0.0527(2)
C16 C 0.2929(2) 0.42631(15) -0.02601(14)
C17 C 0.2923(2) 0.50819(14) 0.03539(13)
C18 C 0.3667(2) 0.54045(14) 0.12674(13)
C19 C 0.3912(2) 0.63307(14) 0.17486(13)
C20 C 0.4530(2) 0.66915(14) 0.27169(13)
C21 C 0.5348(2) 0.77586(14) 0.31297(12)
C22 C 0.6230(2) 0.80917(14) 0.40725(12)
H9 H 0.5733(2) 0.76628(14) 0.43522(12)
C23 C 0.6457(2) 0.91176(14) 0.45242(12)
C24 C 0.6804(2) 0.94064(15) 0.54621(13)
C25 C 0.6996(2) 0.8773(2) 0.59460(13)
H10 H 0.6916(2) 0.8150(2) 0.56568(13)
C26 C 0.7296(2) 0.9041(2) 0.68282(14)
H11 H 0.7403(2) 0.8599(2) 0.71403(14)
C27 C 0.7443(3) 0.9959(2) 0.72631(14)
H12 H 0.7663(3) 1.0147(2) 0.78736(14)
C28 C 0.7271(2) 1.0592(2) 0.68122(14)
H13 H 0.7380(2) 1.1219(2) 0.71165(14)
C29 C 0.6935(2) 1.03309(15) 0.59015(13)
C30 C 0.6728(2) 1.09928(15) 0.54167(13)
C31 C 0.6817(2) 1.1918(2) 0.58181(14)
H14 H 0.7003(2) 1.2115(2) 0.64244(14)
C32 C 0.6643(2) 1.2535(2) 0.53562(14)
H15 H 0.6698(2) 1.3151(2) 0.56402(14)
C33 C 0.6384(2) 1.2264(2) 0.44682(14)
H16 H 0.6279(2) 1.2701(2) 0.41494(14)
C34 C 0.6279(2) 1.1366(2) 0.40544(14)
H17 H 0.6101(2) 1.1187(2) 0.34486(14)
C35 C 0.6431(2) 1.07041(14) 0.45099(12)
C36 C 0.6285(2) 0.97443(14) 0.40730(12)
C37 C 0.5915(2) 0.94604(14) 0.30945(12)
H18 H 0.5291(2) 0.97546(14) 0.28620(12)
C38 C 0.5181(2) 0.83729(14) 0.26881(12)
C39 C 0.1832(2) 0.71629(14) 0.01622(13)
C40 C 0.1016(2) 0.7420(2) 0.05357(14)
H19 H 0.0932(2) 0.7245(2) 0.10351(14)
C41 C 0.0321(3) 0.7929(2) 0.0184(2)
H20 H -0.0240(3) 0.8099(2) 0.0439(2)
C42 C 0.0450(3) 0.8185(2) -0.0538(2)
H21 H -0.0034(3) 0.8526(2) -0.0784(2)
C43 C 0.1272(3) 0.7952(2) -0.0903(2)
H22 H 0.1369(3) 0.8145(2) -0.1392(2)
C44 C 0.1965(2) 0.7437(2) -0.05597(14)
H23 H 0.2527(2) 0.7272(2) -0.08172(14)
C45 C 0.4119(2) 0.4758(2) 0.17095(14)
C46 C 0.3207(3) 0.3846(2) 0.1618(2)
H24 H 0.2300(3) 0.3648(2) 0.1282(2)
C47 C 0.3601(4) 0.3225(2) 0.2009(2)
H25 H 0.2970(4) 0.2604(2) 0.1941(2)
C48 C 0.4912(4) 0.3510(3) 0.2498(2)
H26 H 0.5186(4) 0.3081(3) 0.2765(2)
C49 C 0.5839(4) 0.4419(3) 0.2606(2)
H27 H 0.6743(4) 0.4614(3) 0.2947(2)
C50 C 0.5439(3) 0.5040(2) 0.2213(2)
H28 H 0.6071(3) 0.5664(2) 0.2287(2)
C51 C 0.7480(2) 0.79139(15) 0.41709(12)
C52 C 0.7522(2) 0.7052(2) 0.4290(2)
H29 H 0.6771(2) 0.6574(2) 0.4316(2)
C53 C 0.8650(3) 0.6882(2) 0.4372(2)
H30 H 0.8665(3) 0.6290(2) 0.4458(2)
C54 C 0.9746(2) 0.7559(2) 0.4330(2)
H31 H 1.0515(2) 0.7438(2) 0.4386(2)
C55 C 0.9714(2) 0.8415(2) 0.4205(2)
H32 H 1.0462(2) 0.8885(2) 0.4168(2)
C56 C 0.8599(2) 0.8594(2) 0.41325(15)
H33 H 0.8596(2) 0.9191(2) 0.40551(15)
C57 C 0.7113(2) 0.98728(14) 0.28323(13)
C58 C 0.8344(2) 1.0527(2) 0.34420(14)
H34 H 0.8442(2) 1.0747(2) 0.40314(14)
C59 C 0.9429(2) 1.0865(2) 0.3210(2)
H35 H 1.0261(2) 1.1309(2) 0.3640(2)
C60 C 0.9308(3) 1.0561(2) 0.2358(2)
H36 H 1.0054(3) 1.0784(2) 0.2198(2)
C61 C 0.8089(3) 0.9929(2) 0.1742(2)
H37 H 0.7997(3) 0.9721(2) 0.1152(2)
C62 C 0.6998(2) 0.9592(2) 0.19673(14)
H38 H 0.6163(2) 0.9166(2) 0.15307(14)
C63 C 0.3167(5) 0.4397(3) 0.3847(2)
H39 H 0.3004(5) 0.4749(3) 0.3420(2)
H40 H 0.4003(5) 0.4327(3) 0.3891(2)
Cl1 Cl 0.19130(12) 0.32647(7) 0.34615(9)
Cl2 Cl 0.33652(12) 0.50978(7) 0.48553(7)
C64 C 0.6425(5) 0.9691(3) -0.0706(3)
H41 H 0.6088(5) 0.9771(3) -0.1284(3)
H42 H 0.6809(5) 1.0339(3) -0.0267(3)
Cl3 Cl 0.76827(14) 0.92755(8) -0.06666(6)
Cl4 Cl 0.5088(2) 0.8913(2) -0.0516(2)
C65 C 0.8913(10) 0.3855(7) 0.2876(5)
H43 H 0.8386(10) 0.4074(7) 0.2450(5)
H44 H 0.9633(10) 0.3799(7) 0.2691(5)
Cl5 Cl 0.7977(7) 0.2793(4) 0.2864(5)
Cl6 Cl 0.9604(6) 0.4726(4) 0.3889(2)
H45? H 0.6436(5) 0.9896(3) -0.0111(3)
H46? H 0.6621(5) 1.0271(3) -0.0907(3)
Cl7? Cl 0.4984(4) 0.8912(3) -0.1315(4)
C66? C 0.8924(13) 0.3188(8) 0.3431(10)
H47? H 0.9083(13) 0.2788(8) 0.3813(10)
H48? H 0.9625(13) 0.3327(8) 0.3186(10)
Cl8? Cl 0.7462(5) 0.2529(3) 0.2612(3)
Cl9? Cl 0.9067(8) 0.4221(5) 0.4028(6)
C67? C 0.8924(13) 0.3188(8) 0.3431(10)
H49? H 0.8835(13) 0.3035(8) 0.3962(10)
H50? H 0.9574(13) 0.2955(8) 0.3303(10)
Cl10? Cl 0.7462(5) 0.2529(3) 0.2612(3)
Cl11? Cl 0.9571(13) 0.4393(8) 0.3668(13)
loop_
_geom_bond_atom_site_label_1
_geom_bond_atom_site_label_2
_geom_bond_site_symmetry_1
_geom_bond_site_symmetry_2
O1 C1 1_555 1_555
O2 C20 1_555 1_555
C1 C2 1_555 1_555
C2 C3 1_555 1_555
C3 C4 1_555 1_555
C4 C5 1_555 1_555
C5 C6 1_555 1_555
C6 H1 1_555 1_555
C7 C6 1_555 1_555
H2 C7 1_555 1_555
C8 C7 1_555 1_555
H3 C8 1_555 1_555
C9 C8 1_555 1_555
H4 C9 1_555 1_555
C10 C5 1_555 1_555
C11 C10 1_555 1_555
C12 C11 1_555 1_555
H5 C12 1_555 1_555
C13 C12 1_555 1_555
H6 C13 1_555 1_555
C14 C13 1_555 1_555
H7 C14 1_555 1_555
C15 C14 1_555 1_555
H8 C15 1_555 1_555
C16 C11 1_555 1_555
C17 C4 1_555 1_555
C18 C17 1_555 1_555
C19 C2 1_555 1_555
C20 C19 1_555 1_555
C21 C20 1_555 1_555
C22 C21 1_555 1_555
H9 C22 1_555 1_555
C23 C22 1_555 1_555
C24 C23 1_555 1_555
C25 C24 1_555 1_555
H10 C25 1_555 1_555
C26 C25 1_555 1_555
H11 C26 1_555 1_555
C27 C26 1_555 1_555
H12 C27 1_555 1_555
C28 C27 1_555 1_555
H13 C28 1_555 1_555
C29 C24 1_555 1_555
C30 C29 1_555 1_555
C31 C30 1_555 1_555
H14 C31 1_555 1_555
C32 C31 1_555 1_555
H15 C32 1_555 1_555
C33 C32 1_555 1_555
H16 C33 1_555 1_555
C34 C33 1_555 1_555
H17 C34 1_555 1_555
C35 C30 1_555 1_555
C36 C23 1_555 1_555
C37 C36 1_555 1_555
H18 C37 1_555 1_555
C38 C1 1_555 1_555
C39 C3 1_555 1_555
C40 C39 1_555 1_555
H19 C40 1_555 1_555
C41 C40 1_555 1_555
H20 C41 1_555 1_555
C42 C41 1_555 1_555
H21 C42 1_555 1_555
C43 C42 1_555 1_555
H22 C43 1_555 1_555
C44 C39 1_555 1_555
H23 C44 1_555 1_555
C45 C18 1_555 1_555
C46 C45 1_555 1_555
H24 C46 1_555 1_555
C47 C46 1_555 1_555
H25 C47 1_555 1_555
C48 C47 1_555 1_555
H26 C48 1_555 1_555
C49 C48 1_555 1_555
H27 C49 1_555 1_555
C50 C45 1_555 1_555
H28 C50 1_555 1_555
C51 C22 1_555 1_555
C52 C51 1_555 1_555
H29 C52 1_555 1_555
C53 C52 1_555 1_555
H30 C53 1_555 1_555
C54 C53 1_555 1_555
H31 C54 1_555 1_555
C55 C54 1_555 1_555
H32 C55 1_555 1_555
C56 C51 1_555 1_555
H33 C56 1_555 1_555
C57 C37 1_555 1_555
C58 C57 1_555 1_555
H34 C58 1_555 1_555
C59 C58 1_555 1_555
H35 C59 1_555 1_555
C60 C59 1_555 1_555
H36 C60 1_555 1_555
C61 C60 1_555 1_555
H37 C61 1_555 1_555
C62 C57 1_555 1_555
H38 C62 1_555 1_555
C63 H39 1_555 1_555
H40 C63 1_555 1_555
Cl1 C63 1_555 1_555
Cl2 C63 1_555 1_555
C64 H41 1_555 1_555
H42 C64 1_555 1_555
Cl3 C64 1_555 1_555
Cl4 C64 1_555 1_555
C65 H43 1_555 1_555
H44 C65 1_555 1_555
Cl5 C65 1_555 1_555
Cl6 C65 1_555 1_555
C9 C10 1_555 1_555
C15 C16 1_555 1_555
C16 C17 1_555 1_555
C18 C19 1_555 1_555
C21 C38 1_555 1_555
C28 C29 1_555 1_555
C34 C35 1_555 1_555
C35 C36 1_555 1_555
C37 C38 1_555 1_555
C43 C44 1_555 1_555
C49 C50 1_555 1_555
C55 C56 1_555 1_555
C61 C62 1_555 1_555

#END
