
#######################################################################
#
#                 Cambridge Crystallographic Data Centre
#                                CCDC 
#
#######################################################################
#
# If this CIF has been generated from an entry in the Cambridge 
# Structural Database, then it will include bibliographic, chemical, 
# crystal, experimental, refinement or atomic coordinate data resulting 
# from the CCDC's data processing and validation procedures.
#
#######################################################################

data_FETPIF
_chemical_formula_moiety         'C14 H16 N2 O1'
_chemical_name_systematic        3,3-bis(1H-pyrrol-2-yl)cyclohexanone
_symmetry_cell_setting           orthorhombic
_symmetry_space_group_name_H-M   'P b c n'
_symmetry_Int_Tables_number      60
_space_group_name_Hall           '-P 2n 2ab'
loop_
_symmetry_equiv_pos_site_id
_symmetry_equiv_pos_as_xyz
1 x,y,z
2 1/2-x,1/2-y,1/2+z
3 -x,y,1/2-z
4 1/2+x,1/2-y,-z
5 -x,-y,-z
6 1/2+x,1/2+y,1/2-z
7 x,-y,1/2+z
8 1/2-x,1/2+y,z
_cell_length_a                   16.4455(8)
_cell_length_b                   7.7792(3)
_cell_length_c                   18.8199(9)
_cell_angle_alpha                90
_cell_angle_beta                 90
_cell_angle_gamma                90
_cell_volume                     2407.68
_exptl_crystal_colour            colorless
_exptl_crystal_description       block
_cell_formula_units_Z            8
loop_
_atom_site_label
_atom_site_type_symbol
_atom_site_fract_x
_atom_site_fract_y
_atom_site_fract_z
N1 N 1.10048(11) 0.7294(2) 0.11236(10)
C1 C 0.92567(12) 0.8626(2) 0.14655(10)
C2 C 1.03056(12) 0.6380(2) 0.12437(10)
O1 O 0.86089(10) 0.93335(17) -0.04589(8)
N2 N 0.90792(13) 0.8469(2) 0.21696(10)
C3 C 0.94840(12) 0.7071(2) 0.10223(10)
C4 C 0.86893(13) 0.8086(2) -0.00723(11)
C5 C 0.95042(12) 0.7603(2) 0.02282(10)
H1 H 0.9870 0.8572 0.0175
H2 H 0.9724 0.6657 -0.0047
C6 C 0.88279(12) 0.5669(2) 0.11062(11)
H3 H 0.8979 0.4673 0.0826
H4 H 0.8801 0.5316 0.1600
C7 C 0.89100(14) 1.1188(2) 0.19240(12)
H5 H 0.8797 1.2356 0.1963
C8 C 1.13780(14) 0.4946(3) 0.16900(13)
H6 H 1.1691 0.4111 0.1914
C9 C 0.79996(13) 0.6294(2) 0.08720(11)
H7 H 0.7829 0.7230 0.1178
H8 H 0.7609 0.5368 0.0923
C10 C 0.91489(13) 1.0320(2) 0.13015(11)
H9 H 0.9221 1.0815 0.0856
C11 C 1.16564(14) 0.6431(3) 0.13943(12)
H10 H 1.2195 0.6792 0.1380
C12 C 1.05302(14) 0.4907(2) 0.15954(12)
H11 H 1.0182 0.4037 0.1745
C13 C 0.80002(14) 0.6913(3) 0.01000(12)
H12 H 0.8025 0.5921 -0.0211
H13 H 0.7493 0.7506 0.0005
C14 C 0.88748(15) 1.0038(2) 0.24473(12)
H14 H 0.8736 1.0261 0.2917
H15 H 1.1022(12) 0.832(2) 0.0918(11)
H16 H 0.9103(13) 0.751(3) 0.2409(14)
loop_
_geom_bond_atom_site_label_1
_geom_bond_atom_site_label_2
_geom_bond_site_symmetry_1
_geom_bond_site_symmetry_2
N1 C2 1_555 1_555
C1 N2 1_555 1_555
C2 C3 1_555 1_555
O1 C4 1_555 1_555
N2 C14 1_555 1_555
C3 C1 1_555 1_555
C4 C5 1_555 1_555
C5 C3 1_555 1_555
H1 C5 1_555 1_555
H2 C5 1_555 1_555
C6 C3 1_555 1_555
H3 C6 1_555 1_555
H4 C6 1_555 1_555
C7 H5 1_555 1_555
C8 H6 1_555 1_555
C9 C6 1_555 1_555
H7 C9 1_555 1_555
H8 C9 1_555 1_555
C10 C1 1_555 1_555
H9 C10 1_555 1_555
C11 N1 1_555 1_555
H10 C11 1_555 1_555
C12 C2 1_555 1_555
H11 C12 1_555 1_555
C13 C4 1_555 1_555
H12 C13 1_555 1_555
H13 C13 1_555 1_555
C14 C7 1_555 1_555
H14 C14 1_555 1_555
H15 N1 1_555 1_555
H16 N2 1_555 1_555
C7 C10 1_555 1_555
C8 C11 1_555 1_555
C8 C12 1_555 1_555
C9 C13 1_555 1_555

#END
