
#######################################################################
#
#                 Cambridge Crystallographic Data Centre
#                                CCDC 
#
#######################################################################
#
# If this CIF has been generated from an entry in the Cambridge 
# Structural Database, then it will include bibliographic, chemical, 
# crystal, experimental, refinement or atomic coordinate data resulting 
# from the CCDC's data processing and validation procedures.
#
#######################################################################

data_FETPUR
_chemical_formula_moiety         'C22 H28 N4'
_chemical_name_systematic        
2,2',2'',2'''-Cyclohexane-1,1,3,3-tetrayltetrakis(1H-pyrrole)
_symmetry_cell_setting           monoclinic
_symmetry_space_group_name_H-M   'P 21/n'
_symmetry_Int_Tables_number      14
_space_group_name_Hall           '-P 2yn'
loop_
_symmetry_equiv_pos_site_id
_symmetry_equiv_pos_as_xyz
1 x,y,z
2 1/2-x,1/2+y,1/2-z
3 -x,-y,-z
4 1/2+x,1/2-y,1/2+z
_cell_length_a                   8.531(3)
_cell_length_b                   18.801(7)
_cell_length_c                   11.864(5)
_cell_angle_alpha                90
_cell_angle_beta                 108.015(6)
_cell_angle_gamma                90
_cell_volume                     1809.6
_exptl_crystal_colour            colorless
_exptl_crystal_description       block
_cell_formula_units_Z            4
loop_
_atom_site_label
_atom_site_type_symbol
_atom_site_fract_x
_atom_site_fract_y
_atom_site_fract_z
N1 N 0.5826(7) 0.1456(3) 0.4478(6)
C1 C 0.4434(8) 0.1253(3) 0.4734(6)
N2 N -0.0231(6) 0.1840(3) 0.0783(5)
C2 C 0.3406(7) 0.0788(4) 0.2701(5)
C3 C -0.0165(7) 0.1424(3) 0.2797(5)
C4 C 0.2214(7) 0.0371(3) 0.4286(5)
H1 H 0.2958 -0.0030 0.4388
H2 H 0.2153 0.0502 0.5062
C5 C 0.1638(7) 0.1613(3) 0.3487(5)
H3 H 0.1649 0.1831 0.4231
H4 H 0.2008 0.1970 0.3037
N3 N 0.4192(8) 0.0158(4) 0.2677(6)
C6 C 0.2920(7) 0.0998(3) 0.3772(5)
N4 N -0.2831(8) 0.2075(4) 0.2252(6)
C7 C -0.0648(8) 0.1631(4) -0.0370(6)
H5 H -0.0580 0.1906 -0.1004
C8 C -0.0697(7) 0.0761(3) 0.3348(6)
H6 H -0.0807 0.0888 0.4113
H7 H -0.1770 0.0607 0.2843
C9 C 0.3455(7) 0.1147(4) 0.1723(6)
H8 H 0.3017 0.1597 0.1502
C10 C -0.1223(8) 0.2049(4) 0.2876(6)
C11 C -0.0467(7) 0.1299(4) 0.1483(6)
C12 C 0.4279(9) 0.0728(5) 0.1086(6)
H9 H 0.4466 0.0847 0.0378
C13 C -0.1074(8) 0.0747(4) 0.0739(6)
H10 H -0.1372 0.0306 0.0964
C14 C 0.7025(9) 0.1651(4) 0.5475(7)
H11 H 0.8077 0.1807 0.5519
C15 C 0.6432(9) 0.1580(4) 0.6378(6)
H12 H 0.7000 0.1675 0.7168
C16 C 0.4780(9) 0.1335(3) 0.5930(6)
H13 H 0.4068 0.1246 0.6370
C17 C 0.0515(8) 0.0147(3) 0.3511(6)
H14 H 0.0134 -0.0252 0.3873
H15 H 0.0574 -0.0005 0.2743
C18 C 0.4731(10) 0.0130(5) 0.1708(7)
H16 H 0.5316 -0.0243 0.1514
C19 C -0.1183(9) 0.0947(4) -0.0428(7)
H17 H -0.1548 0.0666 -0.1104
C20 C -0.3544(10) 0.2700(5) 0.2433(8)
H18 H -0.4632 0.2839 0.2074
C21 C -0.0924(9) 0.2672(4) 0.3514(6)
H19 H 0.0081 0.2806 0.4050
C22 C -0.2377(10) 0.3072(4) 0.3226(7)
H20 H -0.2507 0.3517 0.3530
H21 H 0.024(6) 0.227(3) 0.108(5)
H22 H 0.590(7) 0.144(3) 0.378(5)
H23 H -0.322(7) 0.179(3) 0.171(5)
H24 H 0.433(8) -0.019(3) 0.318(6)
loop_
_geom_bond_atom_site_label_1
_geom_bond_atom_site_label_2
_geom_bond_site_symmetry_1
_geom_bond_site_symmetry_2
N1 C1 1_555 1_555
C1 C6 1_555 1_555
N2 C7 1_555 1_555
C2 N3 1_555 1_555
C3 C5 1_555 1_555
C4 H1 1_555 1_555
H2 C4 1_555 1_555
C5 H3 1_555 1_555
H4 C5 1_555 1_555
N3 C18 1_555 1_555
C6 C2 1_555 1_555
N4 C10 1_555 1_555
C7 H5 1_555 1_555
C8 C3 1_555 1_555
H6 C8 1_555 1_555
H7 C8 1_555 1_555
C9 C2 1_555 1_555
H8 C9 1_555 1_555
C10 C3 1_555 1_555
C11 N2 1_555 1_555
C12 C9 1_555 1_555
H9 C12 1_555 1_555
C13 C11 1_555 1_555
H10 C13 1_555 1_555
C14 N1 1_555 1_555
H11 C14 1_555 1_555
C15 C14 1_555 1_555
H12 C15 1_555 1_555
C16 C1 1_555 1_555
H13 C16 1_555 1_555
C17 C4 1_555 1_555
H14 C17 1_555 1_555
H15 C17 1_555 1_555
C18 C12 1_555 1_555
H16 C18 1_555 1_555
C19 C7 1_555 1_555
H17 C19 1_555 1_555
C20 N4 1_555 1_555
H18 C20 1_555 1_555
C21 C10 1_555 1_555
H19 C21 1_555 1_555
C22 C20 1_555 1_555
H20 C22 1_555 1_555
H21 N2 1_555 1_555
H22 N1 1_555 1_555
H23 N4 1_555 1_555
H24 N3 1_555 1_555
C3 C11 1_555 1_555
C4 C6 1_555 1_555
C5 C6 1_555 1_555
C8 C17 1_555 1_555
C13 C19 1_555 1_555
C15 C16 1_555 1_555
C21 C22 1_555 1_555

#END
