
#######################################################################
#
#                 Cambridge Crystallographic Data Centre
#                                CCDC 
#
#######################################################################
#
# If this CIF has been generated from an entry in the Cambridge 
# Structural Database, then it will include bibliographic, chemical, 
# crystal, experimental, refinement or atomic coordinate data resulting 
# from the CCDC's data processing and validation procedures.
#
#######################################################################

data_FETPEB
_chemical_formula_moiety         'C10 H11 N1 O1'
_chemical_name_systematic        3-(1H-Pyrrol-2-yl)cyclohex-2-en-1-one
_symmetry_cell_setting           monoclinic
_symmetry_space_group_name_H-M   'P 21/n'
_symmetry_Int_Tables_number      14
_space_group_name_Hall           '-P 2yn'
loop_
_symmetry_equiv_pos_site_id
_symmetry_equiv_pos_as_xyz
1 x,y,z
2 1/2-x,1/2+y,1/2-z
3 -x,-y,-z
4 1/2+x,1/2-y,1/2+z
_cell_length_a                   10.0240(10)
_cell_length_b                   5.3217(5)
_cell_length_c                   16.2081(16)
_cell_angle_alpha                90
_cell_angle_beta                 94.059(9)
_cell_angle_gamma                90
_cell_volume                     862.448
_exptl_crystal_colour            colorless
_exptl_crystal_description       block
_cell_formula_units_Z            4
loop_
_atom_site_label
_atom_site_type_symbol
_atom_site_fract_x
_atom_site_fract_y
_atom_site_fract_z
C1 C 0.3717(2) 0.0759(4) 0.38166(15)
C2 C 0.3178(3) 0.2159(5) 0.52033(17)
O1 O 0.3397(2) 0.3591(4) 0.57926(12)
C3 C 0.3913(2) 0.2305(5) 0.44694(15)
H1 H 0.4562 0.3547 0.4447
C4 C 0.4519(3) 0.0850(5) 0.31110(16)
N1 N 0.5520(2) 0.2572(5) 0.30284(14)
C5 C 0.2645(3) -0.1220(5) 0.38085(19)
H2 H 0.2178 -0.1261 0.3264
H3 H 0.3063 -0.2846 0.3906
C6 C 0.4520(3) -0.0697(5) 0.24289(18)
H4 H 0.3945 -0.2042 0.2313
C7 C 0.2177(3) 0.0116(7) 0.5236(2)
H5 H 0.2583 -0.1276 0.5548
H6 H 0.1436 0.0722 0.5534
C8 C 0.6137(3) 0.2115(6) 0.23279(17)
H7 H 0.6851 0.3020 0.2142
C9 C 0.1656(4) -0.0807(8) 0.4434(2)
H8 H 0.0992 0.0379 0.4208
H9 H 0.1199 -0.2384 0.4518
C10 C 0.5533(3) 0.0101(6) 0.19429(19)
H10 H 0.5755 -0.0612 0.1447
H11 H 0.579(3) 0.370(5) 0.3364(18)
loop_
_geom_bond_atom_site_label_1
_geom_bond_atom_site_label_2
_geom_bond_site_symmetry_1
_geom_bond_site_symmetry_2
C1 C3 1_555 1_555
C2 O1 1_555 1_555
C3 C2 1_555 1_555
H1 C3 1_555 1_555
C4 C1 1_555 1_555
N1 C4 1_555 1_555
C5 C1 1_555 1_555
H2 C5 1_555 1_555
H3 C5 1_555 1_555
C6 C4 1_555 1_555
H4 C6 1_555 1_555
C7 C2 1_555 1_555
H5 C7 1_555 1_555
H6 C7 1_555 1_555
C8 N1 1_555 1_555
H7 C8 1_555 1_555
C9 C5 1_555 1_555
H8 C9 1_555 1_555
H9 C9 1_555 1_555
C10 C6 1_555 1_555
H10 C10 1_555 1_555
H11 N1 1_555 1_555
C7 C9 1_555 1_555
C8 C10 1_555 1_555

#END
