
#######################################################################
#
#                 Cambridge Crystallographic Data Centre
#                                CCDC 
#
#######################################################################
#
# If this CIF has been generated from an entry in the Cambridge 
# Structural Database, then it will include bibliographic, chemical, 
# crystal, experimental, refinement or atomic coordinate data resulting 
# from the CCDC's data processing and validation procedures.
#
#######################################################################

data_FETTOO02
_chemical_formula_moiety         'C3 H7 N6 1+,C7 H5 O2 1-,2(H2 O1)'
_chemical_name_systematic        'Melaminium benzoate dihydrate'
_symmetry_cell_setting           monoclinic
_symmetry_space_group_name_H-M   'C 2/c'
_symmetry_Int_Tables_number      15
_space_group_name_Hall           '-C 2yn'
loop_
_symmetry_equiv_pos_site_id
_symmetry_equiv_pos_as_xyz
1 x,y,z
2 -x,y,1/2-z
3 1/2+x,1/2+y,z
4 1/2-x,1/2+y,1/2-z
5 -x,-y,-z
6 x,-y,1/2+z
7 1/2-x,1/2-y,-z
8 1/2+x,1/2-y,1/2+z
_cell_length_a                   21.477(3)
_cell_length_b                   10.2253(14)
_cell_length_c                   12.3312(17)
_cell_angle_alpha                90
_cell_angle_beta                 98.717(3)
_cell_angle_gamma                90
_cell_volume                     2676.76
_exptl_crystal_colour            colorless
_exptl_crystal_description       block
_cell_formula_units_Z            8
loop_
_atom_site_label
_atom_site_type_symbol
_atom_site_fract_x
_atom_site_fract_y
_atom_site_fract_z
C1 C 0.23533(6) 0.91352(13) 0.01828(11)
C2 C 0.30499(6) 0.92831(13) 0.05514(11)
C3 C 0.34512(7) 0.95400(16) -0.01965(13)
H1 H 0.3293 0.9595 -0.0940
C4 C 0.40901(7) 0.97172(18) 0.01595(15)
H2 H 0.4358 0.9893 -0.0348
C5 C 0.43263(7) 0.96358(18) 0.12436(15)
H3 H 0.4753 0.9774 0.1480
C6 C 0.39318(8) 0.9348(2) 0.19901(15)
H4 H 0.4095 0.9268 0.2730
C7 C 0.32950(7) 0.91780(16) 0.16463(13)
H5 H 0.3030 0.8991 0.2157
O1 O 0.21423(5) 0.92208(12) -0.08163(8)
O2 O 0.20097(4) 0.89786(11) 0.09096(8)
C8 C 0.04671(6) 0.86417(12) -0.07952(11)
C9 C 0.04721(6) 0.82262(13) 0.10748(10)
C10 C -0.04364(6) 0.81810(12) -0.01273(11)
N1 N 0.07862(5) 0.85544(11) 0.02436(9)
H6 H 0.1184 0.8707 0.0370
N2 N -0.01447(5) 0.80314(11) 0.09147(9)
N3 N -0.01532(5) 0.84673(11) -0.10047(9)
N4 N 0.07994(5) 0.81054(14) 0.20610(10)
H7 H 0.0613 0.7899 0.2607
H8 H 0.1200 0.8233 0.2160
N5 N -0.10543(5) 0.80279(12) -0.03005(10)
H9 H -0.1251 0.7842 0.0238
H10 H -0.1260 0.8114 -0.0951
N6 N 0.07953(5) 0.89183(13) -0.15821(10)
H11 H 0.0609 0.8990 -0.2248
H12 H 0.1196 0.9028 -0.1431
O3 O 0.21071(5) 0.85873(12) 0.70241(9)
H13 H 0.2118(10) 0.9393(16) 0.6779(14)
H14 H 0.2196(10) 0.8668(17) 0.7742(12)
O4 O 0.19328(5) 0.80367(14) 0.36365(10)
H15 H 0.2103(11) 0.8805(14) 0.379(2)
H16 H 0.2229(9) 0.7538(16) 0.3479(17)
loop_
_geom_bond_atom_site_label_1
_geom_bond_atom_site_label_2
_geom_bond_site_symmetry_1
_geom_bond_site_symmetry_2
C1 C2 1_555 1_555
C2 C3 1_555 1_555
C3 H1 1_555 1_555
C4 C3 1_555 1_555
H2 C4 1_555 1_555
C5 C4 1_555 1_555
H3 C5 1_555 1_555
C6 C5 1_555 1_555
H4 C6 1_555 1_555
C7 C2 1_555 1_555
H5 C7 1_555 1_555
O1 C1 1_555 1_555
O2 C1 1_555 1_555
C8 N1 1_555 1_555
C9 N1 1_555 1_555
C10 N2 1_555 1_555
N1 H6 1_555 1_555
N2 C9 1_555 1_555
N3 C8 1_555 1_555
N4 C9 1_555 1_555
H7 N4 1_555 1_555
H8 N4 1_555 1_555
N5 C10 1_555 1_555
H9 N5 1_555 1_555
H10 N5 1_555 1_555
N6 C8 1_555 1_555
H11 N6 1_555 1_555
H12 N6 1_555 1_555
O3 H13 1_555 1_555
H14 O3 1_555 1_555
O4 H15 1_555 1_555
H16 O4 1_555 1_555
C6 C7 1_555 1_555
C10 N3 1_555 1_555

#END
