
#######################################################################
#
#                 Cambridge Crystallographic Data Centre
#                                CCDC 
#
#######################################################################
#
# If this CIF has been generated from an entry in the Cambridge 
# Structural Database, then it will include bibliographic, chemical, 
# crystal, experimental, refinement or atomic coordinate data resulting 
# from the CCDC's data processing and validation procedures.
#
#######################################################################

data_FETTAA
_chemical_formula_moiety         'C29 H26 N1 O2 P1'
_chemical_name_systematic        
'(Z)-Ethyl 3-phenyl-2-((triphenylphosphoranylidene)amino)prop-2-enoate'
_symmetry_cell_setting           monoclinic
_symmetry_space_group_name_H-M   'P 21/n'
_symmetry_Int_Tables_number      14
_space_group_name_Hall           '-P 2yn'
loop_
_symmetry_equiv_pos_site_id
_symmetry_equiv_pos_as_xyz
1 x,y,z
2 1/2-x,1/2+y,1/2-z
3 -x,-y,-z
4 1/2+x,1/2-y,1/2+z
_cell_length_a                   10.1918(9)
_cell_length_b                   17.7185(16)
_cell_length_c                   14.1563(13)
_cell_angle_alpha                90
_cell_angle_beta                 106.000(2)
_cell_angle_gamma                90
_cell_volume                     2457.36
_exptl_crystal_colour            colorless
_exptl_crystal_description       block
_chemical_melting_point          '435-436 K'
_cell_formula_units_Z            4
_exptl_crystal_recrystallization_method ethanol
loop_
_atom_site_label
_atom_site_type_symbol
_atom_site_fract_x
_atom_site_fract_y
_atom_site_fract_z
P1 P 0.79316(5) 0.18677(3) 0.85497(4)
O1 O 0.90051(16) 0.18463(10) 0.69043(11)
O2 O 0.77025(16) 0.16356(10) 0.53807(11)
N1 N 0.69189(17) 0.14060(10) 0.77117(12)
C1 C 0.6462(2) 0.11897(13) 0.96965(16)
H1 H 0.6244 0.0827 0.9203
C2 C 0.6031(3) 0.11021(16) 1.05292(19)
H2 H 0.5529 0.0678 1.0599
C3 C 0.6338(3) 0.16358(19) 1.12559(19)
H3 H 0.6049 0.1572 1.1819
C4 C 0.7067(3) 0.22606(18) 1.11538(19)
H4 H 0.7264 0.2626 1.1645
C5 C 0.7513(3) 0.23538(14) 1.03276(16)
H5 H 0.8015 0.2780 1.0265
C6 C 0.7221(2) 0.18175(11) 0.95898(14)
C7 C 0.6850(3) 0.32639(13) 0.80195(19)
H6 H 0.6032 0.3027 0.8008
C8 C 0.6855(3) 0.40155(15) 0.7756(2)
H7 H 0.6038 0.4283 0.7573
C9 C 0.8056(3) 0.43708(13) 0.77638(17)
H8 H 0.8052 0.4875 0.7581
C10 C 0.9255(3) 0.39802(13) 0.80403(17)
H9 H 1.0070 0.4221 0.8050
C11 C 0.9266(2) 0.32274(12) 0.83067(16)
H10 H 1.0088 0.2966 0.8491
C12 C 0.8068(2) 0.28633(11) 0.83007(14)
C13 C 1.0550(2) 0.17980(13) 0.98709(17)
H11 H 1.0368 0.2267 1.0102
C14 C 1.1755(3) 0.14302(15) 1.0318(2)
H12 H 1.2390 0.1658 1.0841
C15 C 1.2020(3) 0.07342(16) 0.9999(2)
H13 H 1.2829 0.0487 1.0309
C16 C 1.1096(3) 0.03988(14) 0.9221(2)
H14 H 1.1276 -0.0076 0.9007
C17 C 0.9896(2) 0.07664(12) 0.87560(17)
H15 H 0.9276 0.0540 0.8224
C18 C 0.9612(2) 0.14700(11) 0.90777(14)
C19 C 0.8305(4) 0.1973(3) 0.3934(2)
H16 H 0.7936 0.1501 0.3648
H17 H 0.9036 0.2124 0.3669
H18 H 0.7602 0.2351 0.3787
C20 C 0.8831(3) 0.18858(19) 0.50134(19)
H19 H 0.9563 0.1517 0.5172
H20 H 0.9185 0.2363 0.5313
C21 C 0.7940(2) 0.16401(12) 0.63596(15)
C22 C 0.6761(2) 0.13873(11) 0.67161(14)
C23 C 0.5623(2) 0.11266(11) 0.60597(14)
H21 H 0.5656 0.1113 0.5410
C24 C 0.4350(2) 0.08636(12) 0.62304(15)
C25 C 0.3390(2) 0.05129(15) 0.54653(18)
H22 H 0.3585 0.0447 0.4866
C26 C 0.2162(3) 0.02604(18) 0.5567(2)
H23 H 0.1541 0.0026 0.5043
C27 C 0.1854(3) 0.0355(2) 0.6443(3)
H24 H 0.1025 0.0184 0.6516
C28 C 0.2773(3) 0.0704(2) 0.7209(2)
H25 H 0.2560 0.0774 0.7801
C29 C 0.4011(3) 0.09512(15) 0.71123(18)
H26 H 0.4629 0.1180 0.7643
loop_
_geom_bond_atom_site_label_1
_geom_bond_atom_site_label_2
_geom_bond_site_symmetry_1
_geom_bond_site_symmetry_2
P1 N1 1_555 1_555
O1 C21 1_555 1_555
O2 C20 1_555 1_555
N1 C22 1_555 1_555
C1 H1 1_555 1_555
C2 C1 1_555 1_555
H2 C2 1_555 1_555
C3 C2 1_555 1_555
H3 C3 1_555 1_555
C4 C3 1_555 1_555
H4 C4 1_555 1_555
C5 C4 1_555 1_555
H5 C5 1_555 1_555
C6 P1 1_555 1_555
C7 H6 1_555 1_555
C8 C7 1_555 1_555
H7 C8 1_555 1_555
C9 C8 1_555 1_555
H8 C9 1_555 1_555
C10 C9 1_555 1_555
H9 C10 1_555 1_555
C11 C10 1_555 1_555
H10 C11 1_555 1_555
C12 P1 1_555 1_555
C13 H11 1_555 1_555
C14 C13 1_555 1_555
H12 C14 1_555 1_555
C15 C14 1_555 1_555
H13 C15 1_555 1_555
C16 C15 1_555 1_555
H14 C16 1_555 1_555
C17 C16 1_555 1_555
H15 C17 1_555 1_555
C18 P1 1_555 1_555
C19 H16 1_555 1_555
H17 C19 1_555 1_555
H18 C19 1_555 1_555
C20 C19 1_555 1_555
H19 C20 1_555 1_555
H20 C20 1_555 1_555
C21 O2 1_555 1_555
C22 C21 1_555 1_555
C23 C22 1_555 1_555
H21 C23 1_555 1_555
C24 C23 1_555 1_555
C25 C24 1_555 1_555
H22 C25 1_555 1_555
C26 C25 1_555 1_555
H23 C26 1_555 1_555
C27 C26 1_555 1_555
H24 C27 1_555 1_555
C28 C27 1_555 1_555
H25 C28 1_555 1_555
C29 C24 1_555 1_555
H26 C29 1_555 1_555
C1 C6 1_555 1_555
C5 C6 1_555 1_555
C7 C12 1_555 1_555
C11 C12 1_555 1_555
C13 C18 1_555 1_555
C17 C18 1_555 1_555
C28 C29 1_555 1_555

#END
