
#######################################################################
#
#                 Cambridge Crystallographic Data Centre
#                                CCDC 
#
#######################################################################
#
# If this CIF has been generated from an entry in the Cambridge 
# Structural Database, then it will include bibliographic, chemical, 
# crystal, experimental, refinement or atomic coordinate data resulting 
# from the CCDC's data processing and validation procedures.
#
#######################################################################

data_FETWAF
_chemical_formula_moiety         'C26 H38 B20'
_chemical_name_systematic        
9,10-bis((2-ethyl-1,2-dicarba-closo-dodecaborane(10))ethynyl)anthracene
_symmetry_cell_setting           triclinic
_symmetry_space_group_name_H-M   'P -1'
_symmetry_Int_Tables_number      2
_space_group_name_Hall           '-P 1'
loop_
_symmetry_equiv_pos_site_id
_symmetry_equiv_pos_as_xyz
1 x,y,z
2 -x,-y,-z
_cell_length_a                   6.8517(4)
_cell_length_b                   7.8881(6)
_cell_length_c                   16.0370(11)
_cell_angle_alpha                83.056(2)
_cell_angle_beta                 86.331(2)
_cell_angle_gamma                76.6190(10)
_cell_volume                     836.453
_exptl_crystal_colour            yellow
_exptl_crystal_description       block
_cell_formula_units_Z            1
loop_
_atom_site_label
_atom_site_type_symbol
_atom_site_fract_x
_atom_site_fract_y
_atom_site_fract_z
C1 C 0.5953(4) 1.0153(3) 0.25282(13)
C2 C 0.7421(4) 0.9650(3) 0.16668(14)
C3 C 0.5717(4) 0.8751(3) 0.31517(15)
C4 C 0.5481(4) 0.7662(3) 0.37012(14)
C5 C 0.5224(4) 0.6325(3) 0.43607(12)
C6 C 0.8124(8) 0.2018(8) 0.5437(3)
H1 H 0.7914 0.1172 0.5869
C7 C 0.6553(7) 0.3493(6) 0.5230(2)
C8 C 0.6883(7) 0.4791(6) 0.4559(2)
C9 C 0.8808(8) 0.4493(7) 0.4138(3)
H2 H 0.9065 0.5302 0.3697
C10 C 1.0267(19) 0.3068(19) 0.4362(9)
H3 H 1.1510 0.2918 0.4077
C11 C 0.9934(8) 0.1813(9) 0.5018(3)
H4 H 1.0954 0.0838 0.5167
C12 C 0.8287(5) 0.7723(4) 0.1613(2)
H5 H 0.9104 0.7294 0.2099
H6 H 0.7168 0.7151 0.1682
C13 C 1.023(2) 0.7244(13) 0.1249(17)
H7 H 1.0606 0.5993 0.1252
H8 H 1.1157 0.7624 0.1567
H9 H 1.0244 0.7788 0.0681
B1 B 0.8280(5) 1.0656(4) 0.24197(19)
H10 H 0.9549 1.0018 0.2819
B2 B 0.6129(6) 1.2122(4) 0.2801(2)
H11 H 0.6000 1.2459 0.3451
B3 B 0.4003(5) 1.1888(4) 0.2279(2)
H12 H 0.2502 1.2072 0.2590
B4 B 0.4837(4) 1.0282(4) 0.15849(17)
H13 H 0.3899 0.9399 0.1447
B5 B 0.8616(5) 1.1286(4) 0.13396(19)
H14 H 1.0118 1.1077 0.1030
B6 B 0.7793(6) 1.2878(4) 0.2041(2)
H15 H 0.8760 1.3725 0.2192
B7 B 0.5163(6) 1.3656(4) 0.1949(3)
H16 H 0.4413 1.5018 0.2037
B8 B 0.4350(5) 1.2505(4) 0.1202(2)
H17 H 0.3069 1.3104 0.0803
B9 B 0.6490(5) 1.1065(4) 0.08282(17)
H18 H 0.6613 1.0711 0.0181
B10 B 0.6688(5) 1.3146(4) 0.1051(2)
H19 H 0.6930 1.4172 0.0553
C1A C 0.4047(4) -0.0153(3) 0.74718(13)
C2A C 0.2579(4) 0.0350(3) 0.83332(14)
C3A C 0.4283(4) 0.1249(3) 0.68483(15)
C4A C 0.4519(4) 0.2338(3) 0.62988(14)
C5A C 0.4776(4) 0.3675(3) 0.56393(12)
C6A C 0.1876(8) 0.7982(8) 0.4563(3)
H1A H 0.2086 0.8828 0.4131
C7A C 0.3447(7) 0.6507(6) 0.4770(2)
C8A C 0.3117(7) 0.5209(6) 0.5441(2)
C9A C 0.1192(8) 0.5507(7) 0.5862(3)
H2A H 0.0935 0.4698 0.6303
C10A C -0.0267(19) 0.6932(19) 0.5638(9)
H3A H -0.1510 0.7082 0.5923
C11A C 0.0066(8) 0.8187(9) 0.4982(3)
H4A H -0.0954 0.9162 0.4833
C12A C 0.1713(5) 0.2277(4) 0.8387(2)
H5A H 0.0896 0.2706 0.7901
H6A H 0.2832 0.2849 0.8318
C13A C -0.023(2) 0.2756(13) 0.8751(17)
H7A H -0.0606 0.4007 0.8748
H8A H -0.1157 0.2376 0.8433
H9A H -0.0244 0.2212 0.9319
B1A B 0.1720(5) -0.0656(4) 0.75803(19)
H10A H 0.0451 -0.0018 0.7181
B2A B 0.3871(6) -0.2122(4) 0.7199(2)
H11A H 0.4000 -0.2459 0.6549
B3A B 0.5997(5) -0.1888(4) 0.7721(2)
H12A H 0.7498 -0.2072 0.7410
B4A B 0.5163(4) -0.0282(4) 0.84151(17)
H13A H 0.6101 0.0601 0.8553
B5A B 0.1384(5) -0.1286(4) 0.86604(19)
H14A H -0.0118 -0.1077 0.8970
B6A B 0.2207(6) -0.2878(4) 0.7959(2)
H15A H 0.1240 -0.3725 0.7808
B7A B 0.4837(6) -0.3656(4) 0.8051(3)
H16A H 0.5587 -0.5018 0.7963
B8A B 0.5650(5) -0.2505(4) 0.8798(2)
H17A H 0.6931 -0.3104 0.9197
B9A B 0.3510(5) -0.1065(4) 0.91718(17)
H18A H 0.3387 -0.0711 0.9819
B10A B 0.3312(5) -0.3146(4) 0.8949(2)
H19A H 0.3070 -0.4172 0.9447
C14? C 0.2241(8) 0.5755(7) 0.3681(3)
H20? H 0.2259 0.6689 0.3268
C15? C 0.3650(7) 0.5388(6) 0.4330(3)
C16? C 0.3572(7) 0.3966(6) 0.4964(3)
C17? C 0.2141(8) 0.2938(7) 0.4896(3)
H21? H 0.2100 0.1980 0.5291
C18? C 0.085(2) 0.3342(19) 0.4265(10)
H22? H -0.0081 0.2661 0.4235
C19? C 0.0874(9) 0.4769(8) 0.3653(4)
H23? H -0.0047 0.5038 0.3229
C20? C 0.948(3) 0.7080(17) 0.0891(8)
H24? H 0.9863 0.5823 0.0973
H25? H 1.0667 0.7546 0.0825
H26? H 0.8712 0.7446 0.0395
loop_
_geom_bond_atom_site_label_1
_geom_bond_atom_site_label_2
_geom_bond_site_symmetry_1
_geom_bond_site_symmetry_2
C1 C2 1_555 1_555
C2 C12 1_555 1_555
C3 C1 1_555 1_555
C4 C3 1_555 1_555
C5 C4 1_555 1_555
C6 H1 1_555 1_555
C7 C6 1_555 1_555
C8 C5 1_555 1_555
C9 C8 1_555 1_555
H2 C9 1_555 1_555
C10 C9 1_555 1_555
H3 C10 1_555 1_555
C11 C6 1_555 1_555
H4 C11 1_555 1_555
C12 H5 1_555 1_555
H6 C12 1_555 1_555
C13 C12 1_555 1_555
H7 C13 1_555 1_555
H8 C13 1_555 1_555
H9 C13 1_555 1_555
B1 C1 1_555 1_555
H10 B1 1_555 1_555
B2 C1 1_555 1_555
H11 B2 1_555 1_555
B3 C1 1_555 1_555
H12 B3 1_555 1_555
B4 C1 1_555 1_555
H13 B4 1_555 1_555
B5 C2 1_555 1_555
H14 B5 1_555 1_555
B6 B1 1_555 1_555
H15 B6 1_555 1_555
B7 B2 1_555 1_555
H16 B7 1_555 1_555
B8 B3 1_555 1_555
H17 B8 1_555 1_555
B9 C2 1_555 1_555
H18 B9 1_555 1_555
B10 B5 1_555 1_555
H19 B10 1_555 1_555
C1A C2A 1_555 1_555
C2A C12A 1_555 1_555
C3A C1A 1_555 1_555
C4A C3A 1_555 1_555
C5A C7 1_555 1_555
C6A H1A 1_555 1_555
C7A C5 1_555 1_555
C8A C5A 1_555 1_555
C9A C8A 1_555 1_555
H2A C9A 1_555 1_555
C10A C9A 1_555 1_555
H3A C10A 1_555 1_555
C11A C6A 1_555 1_555
H4A C11A 1_555 1_555
C12A H5A 1_555 1_555
H6A C12A 1_555 1_555
C13A C12A 1_555 1_555
H7A C13A 1_555 1_555
H8A C13A 1_555 1_555
H9A C13A 1_555 1_555
B1A C1A 1_555 1_555
H10A B1A 1_555 1_555
B2A C1A 1_555 1_555
H11A B2A 1_555 1_555
B3A C1A 1_555 1_555
H12A B3A 1_555 1_555
B4A C1A 1_555 1_555
H13A B4A 1_555 1_555
B5A C2A 1_555 1_555
H14A B5A 1_555 1_555
B6A B1A 1_555 1_555
H15A B6A 1_555 1_555
B7A B2A 1_555 1_555
H16A B7A 1_555 1_555
B8A B3A 1_555 1_555
H17A B8A 1_555 1_555
B9A C2A 1_555 1_555
H18A B9A 1_555 1_555
B10A B5A 1_555 1_555
H19A B10A 1_555 1_555
C2 B1 1_555 1_555
C2 B4 1_555 1_555
C7 C8 1_555 1_555
C10 C11 1_555 1_555
B1 B2 1_555 1_555
B1 B5 1_555 1_555
B2 B3 1_555 1_555
B2 B6 1_555 1_555
B3 B4 1_555 1_555
B3 B7 1_555 1_555
B4 B8 1_555 1_555
B4 B9 1_555 1_555
B5 B6 1_555 1_555
B5 B9 1_555 1_555
B6 B7 1_555 1_555
B6 B10 1_555 1_555
B7 B8 1_555 1_555
B7 B10 1_555 1_555
B8 B9 1_555 1_555
B8 B10 1_555 1_555
B9 B10 1_555 1_555
C2A B1A 1_555 1_555
C2A B4A 1_555 1_555
C4A C5A 1_555 1_555
C6A C7A 1_555 1_555
C7A C8A 1_555 1_555
C10A C11A 1_555 1_555
B1A B2A 1_555 1_555
B1A B5A 1_555 1_555
B2A B3A 1_555 1_555
B2A B6A 1_555 1_555
B3A B4A 1_555 1_555
B3A B7A 1_555 1_555
B4A B8A 1_555 1_555
B4A B9A 1_555 1_555
B5A B6A 1_555 1_555
B5A B9A 1_555 1_555
B6A B7A 1_555 1_555
B6A B10A 1_555 1_555
B7A B8A 1_555 1_555
B7A B10A 1_555 1_555
B8A B9A 1_555 1_555
B8A B10A 1_555 1_555
B9A B10A 1_555 1_555

#END
