
#######################################################################
#
#                 Cambridge Crystallographic Data Centre
#                                CCDC 
#
#######################################################################
#
# If this CIF has been generated from an entry in the Cambridge 
# Structural Database, then it will include bibliographic, chemical, 
# crystal, experimental, refinement or atomic coordinate data resulting 
# from the CCDC's data processing and validation procedures.
#
#######################################################################

data_FETWEJ
_chemical_formula_moiety         'C24 H34 B20'
_chemical_name_systematic        
9,10-bis((2-methyl-1,2-dicarba-closo-dodecaborane(10))ethynyl)anthracene
_symmetry_cell_setting           monoclinic
_symmetry_space_group_name_H-M   'P 21/c'
_symmetry_Int_Tables_number      14
_space_group_name_Hall           '-P 2ybc'
loop_
_symmetry_equiv_pos_site_id
_symmetry_equiv_pos_as_xyz
1 x,y,z
2 -x,1/2+y,1/2-z
3 -x,-y,-z
4 x,1/2-y,1/2+z
_cell_length_a                   13.1826(13)
_cell_length_b                   20.410(2)
_cell_length_c                   13.5543(14)
_cell_angle_alpha                90
_cell_angle_beta                 118.359(2)
_cell_angle_gamma                90
_cell_volume                     3209.21
_cell_formula_units_Z            4
loop_
_atom_site_label
_atom_site_type_symbol
_atom_site_fract_x
_atom_site_fract_y
_atom_site_fract_z
C1 C -0.0815(2) 0.2879(1) 0.0900(2)
C2 C -0.0758(2) 0.3668(1) 0.1295(2)
B1 B 0.4628(3) 0.3251(1) 1.0868(2)
C3 C 0.3781(2) 0.3924(1) 1.0394(2)
C4 C -0.0307(3) 0.2370(1) 0.1825(2)
H1 H -0.0928 0.2099 0.1811
H2 H 0.0101 0.2590 0.2553
H3 H 0.0233 0.2092 0.1710
C5 C -0.0240(2) 0.3799(1) 0.2474(2)
C6 C 0.0221(2) 0.3910(1) 0.3458(2)
C7 C 0.0829(2) 0.4020(1) 0.4650(2)
C8 C 0.0211(2) 0.4139(1) 0.5245(2)
C9 C -0.1014(2) 0.4192(1) 0.4706(2)
H4 H -0.1444 0.4132 0.3918
C10 C -0.1577(2) 0.4327(1) 0.5303(2)
H5 H -0.2393 0.4362 0.4926
C11 C -0.0958(2) 0.4417(1) 0.6479(2)
H6 H -0.1361 0.4519 0.6884
C12 C 0.0214(2) 0.4357(1) 0.7033(2)
H7 H 0.0618 0.4413 0.7824
C13 C 0.0838(2) 0.4211(1) 0.6444(2)
C14 C 0.2048(2) 0.4127(1) 0.7002(2)
C15 C 0.2667(2) 0.4039(1) 0.6400(2)
C16 C 0.3894(2) 0.4000(1) 0.6944(2)
H8 H 0.4313 0.4009 0.7740
C17 C 0.4474(2) 0.3950(1) 0.6345(2)
H9 H 0.5292 0.3931 0.6723
C18 C 0.3865(2) 0.3925(2) 0.5160(2)
H10 H 0.4279 0.3898 0.4748
C19 C 0.2689(2) 0.3939(1) 0.4603(2)
H11 H 0.2293 0.3912 0.3808
C20 C 0.2049(2) 0.3995(1) 0.5199(2)
C21 C 0.2663(2) 0.4094(1) 0.8205(2)
C22 C 0.3169(2) 0.4026(1) 0.9203(2)
B2 B 0.0145(2) 0.3405(2) 0.0786(2)
H12 H 0.1104 0.3366 0.1306
B3 B -0.0671(3) 0.2830(2) -0.0278(2)
H13 H -0.0250 0.2410 -0.0475
B4 B -0.2030(3) 0.2744(2) -0.0330(3)
H14 H -0.2507 0.2267 -0.0562
B5 B -0.2062(2) 0.3267(2) 0.0701(2)
H15 H -0.2547 0.3138 0.1164
B6 B -0.0571(3) 0.4180(2) 0.0393(2)
H16 H -0.0087 0.4655 0.0640
B7 B -0.0534(3) 0.3651(2) -0.0637(3)
H17 H -0.0023 0.3776 -0.1077
B8 B -0.1893(3) 0.3245(2) -0.1340(2)
H18 H -0.2284 0.3107 -0.2247
B9 B -0.2751(3) 0.3507(2) -0.0716(3)
H19 H -0.3713 0.3537 -0.1210
B10 B -0.1935(3) 0.4088(2) 0.0343(2)
H20 H -0.2348 0.4504 0.0559
B11 B -0.1830(3) 0.4073(2) -0.0915(2)
H21 H -0.2182 0.4480 -0.1544
B12 B 0.4609(3) 0.2961(2) 1.2048(3)
H22 H 0.4701 0.2430 1.2285
B13 B 0.5799(3) 0.3430(2) 1.2148(3)
H23 H 0.6674 0.3208 1.2451
B14 B 0.5261(3) 0.4025(2) 1.1069(2)
H24 H 0.5768 0.4193 1.0647
B15 B 0.3144(2) 0.4099(2) 1.1211(2)
H25 H 0.2266 0.4320 1.0889
B16 B 0.3685(3) 0.3493(2) 1.2290(2)
H26 H 0.3164 0.3315 1.2692
B17 B 0.5213(2) 0.3595(2) 1.3065(2)
H27 H 0.5704 0.3486 1.3984
B18 B 0.5614(3) 0.4253(2) 1.2452(2)
H28 H 0.6370 0.4577 1.2963
B19 B 0.4336(2) 0.4565(1) 1.1314(2)
H29 H 0.4240 0.5093 1.1063
B20 B 0.4306(3) 0.4297(2) 1.2547(2)
H30 H 0.4197 0.4649 1.3123
C23 C 0.2557(10) 0.2889(6) 1.0162(10)
H31 H 0.1848 0.2916 1.0226
H32 H 0.2835 0.2436 1.0286
H33 H 0.2398 0.3030 0.9411
C24 C 0.3351(3) 0.3273(2) 1.0920(3)
C25? C 0.4628(3) 0.3251(1) 1.0868(2)
C26? C 0.4662(4) 0.2799(2) 1.0011(3)
H34? H 0.5179 0.2431 1.0390
H35? H 0.4944 0.3039 0.9562
H36? H 0.3885 0.2633 0.9519
B21? B 0.3351(3) 0.3273(2) 1.0920(3)
loop_
_geom_bond_atom_site_label_1
_geom_bond_atom_site_label_2
_geom_bond_site_symmetry_1
_geom_bond_site_symmetry_2
C1 C2 1_555 1_555
C2 C5 1_555 1_555
B1 C3 1_555 1_555
C3 C22 1_555 1_555
C4 C1 1_555 1_555
H1 C4 1_555 1_555
H2 C4 1_555 1_555
H3 C4 1_555 1_555
C5 C6 1_555 1_555
C6 C7 1_555 1_555
C7 C8 1_555 1_555
C8 C9 1_555 1_555
C9 H4 1_555 1_555
C10 C9 1_555 1_555
H5 C10 1_555 1_555
C11 C10 1_555 1_555
H6 C11 1_555 1_555
C12 C11 1_555 1_555
H7 C12 1_555 1_555
C13 C8 1_555 1_555
C14 C13 1_555 1_555
C15 C14 1_555 1_555
C16 C15 1_555 1_555
H8 C16 1_555 1_555
C17 C16 1_555 1_555
H9 C17 1_555 1_555
C18 C17 1_555 1_555
H10 C18 1_555 1_555
C19 C18 1_555 1_555
H11 C19 1_555 1_555
C20 C7 1_555 1_555
C21 C14 1_555 1_555
C22 C21 1_555 1_555
B2 C1 1_555 1_555
H12 B2 1_555 1_555
B3 C1 1_555 1_555
H13 B3 1_555 1_555
B4 C1 1_555 1_555
H14 B4 1_555 1_555
B5 C1 1_555 1_555
H15 B5 1_555 1_555
B6 C2 1_555 1_555
H16 B6 1_555 1_555
B7 B2 1_555 1_555
H17 B7 1_555 1_555
B8 B3 1_555 1_555
H18 B8 1_555 1_555
B9 B4 1_555 1_555
H19 B9 1_555 1_555
B10 C2 1_555 1_555
H20 B10 1_555 1_555
B11 B6 1_555 1_555
H21 B11 1_555 1_555
B12 B1 1_555 1_555
H22 B12 1_555 1_555
B13 B1 1_555 1_555
H23 B13 1_555 1_555
B14 B1 1_555 1_555
H24 B14 1_555 1_555
B15 C3 1_555 1_555
H25 B15 1_555 1_555
B16 B12 1_555 1_555
H26 B16 1_555 1_555
B17 B12 1_555 1_555
H27 B17 1_555 1_555
B18 B13 1_555 1_555
H28 B18 1_555 1_555
B19 C3 1_555 1_555
H29 B19 1_555 1_555
B20 B15 1_555 1_555
H30 B20 1_555 1_555
C23 H31 1_555 1_555
H32 C23 1_555 1_555
H33 C23 1_555 1_555
C24 B1 1_555 1_555
C2 B2 1_555 1_555
C2 B5 1_555 1_555
C3 B14 1_555 1_555
C3 C24 1_555 1_555
C12 C13 1_555 1_555
C15 C20 1_555 1_555
C19 C20 1_555 1_555
B2 B3 1_555 1_555
B2 B6 1_555 1_555
B3 B4 1_555 1_555
B3 B7 1_555 1_555
B4 B5 1_555 1_555
B4 B8 1_555 1_555
B5 B9 1_555 1_555
B5 B10 1_555 1_555
B6 B7 1_555 1_555
B6 B10 1_555 1_555
B7 B8 1_555 1_555
B7 B11 1_555 1_555
B8 B9 1_555 1_555
B8 B11 1_555 1_555
B9 B10 1_555 1_555
B9 B11 1_555 1_555
B10 B11 1_555 1_555
B12 B13 1_555 1_555
B12 C24 1_555 1_555
B13 B14 1_555 1_555
B13 B17 1_555 1_555
B14 B18 1_555 1_555
B14 B19 1_555 1_555
B15 B16 1_555 1_555
B15 B19 1_555 1_555
B15 C24 1_555 1_555
B16 B17 1_555 1_555
B16 B20 1_555 1_555
B16 C24 1_555 1_555
B17 B18 1_555 1_555
B17 B20 1_555 1_555
B18 B19 1_555 1_555
B18 B20 1_555 1_555
B19 B20 1_555 1_555
C23 C24 1_555 1_555

#END
