
#######################################################################
#
#                 Cambridge Crystallographic Data Centre
#                                CCDC 
#
#######################################################################
#
# If this CIF has been generated from an entry in the Cambridge 
# Structural Database, then it will include bibliographic, chemical, 
# crystal, experimental, refinement or atomic coordinate data resulting 
# from the CCDC's data processing and validation procedures.
#
#######################################################################

data_FETWAD01
_chemical_formula_moiety         'C12 H13 N3 O2'
_chemical_name_systematic        
1-(4-Methoxyphenyl)-3-(1H-1,2,4-triazol-1-yl)propan-1-one
_symmetry_cell_setting           monoclinic
_symmetry_space_group_name_H-M   'P 21/c'
_symmetry_Int_Tables_number      14
_space_group_name_Hall           '-P 2ybc'
loop_
_symmetry_equiv_pos_site_id
_symmetry_equiv_pos_as_xyz
1 x,y,z
2 -x,1/2+y,1/2-z
3 -x,-y,-z
4 x,1/2-y,1/2+z
_cell_length_a                   12.382(3)
_cell_length_b                   9.852(3)
_cell_length_c                   9.481(2)
_cell_angle_alpha                90
_cell_angle_beta                 92.542(4)
_cell_angle_gamma                90
_cell_volume                     1155.43
_exptl_crystal_colour            colorless
_exptl_crystal_description       block
_cell_formula_units_Z            4
_exptl_crystal_recrystallization_method ethanol
loop_
_atom_site_label
_atom_site_type_symbol
_atom_site_fract_x
_atom_site_fract_y
_atom_site_fract_z
O1 O 0.82431(11) 0.39787(12) 0.08465(14)
N1 N 1.04168(12) 0.22834(13) 0.08435(14)
C1 C 0.79559(14) 0.28218(16) 0.11083(17)
C2 C 0.70459(14) 0.25647(15) 0.20236(17)
N2 N 1.16341(13) 0.32367(15) 0.22615(18)
O2 O 0.44700(12) 0.18628(13) 0.45845(15)
N3 N 1.08202(14) 0.12623(15) 0.16777(16)
C3 C 0.63630(15) 0.36228(16) 0.2358(2)
H1 H 0.6490 0.4482 0.1995
C4 C 0.53102(15) 0.21624(17) 0.37627(18)
C5 C 0.68374(16) 0.12889(16) 0.26002(18)
H2 H 0.7280 0.0559 0.2395
C6 C 0.59902(16) 0.10994(16) 0.34628(19)
H3 H 0.5872 0.0247 0.3849
C7 C 0.55067(16) 0.34386(17) 0.3208(2)
H4 H 0.5060 0.4165 0.3412
C8 C 1.15354(16) 0.18920(19) 0.2493(2)
H5 H 1.1950 0.1442 0.3189
C9 C 1.09170(17) 0.34256(17) 0.1218(2)
H6 H 1.0777 0.4262 0.0793
C10 C 0.95636(16) 0.20091(18) -0.02167(19)
H7 H 0.9785 0.1273 -0.0819
H8 H 0.9447 0.2808 -0.0802
C11 C 0.85212(15) 0.16316(18) 0.04473(19)
H9 H 0.8672 0.0950 0.1168
H10 H 0.8037 0.1230 -0.0268
C12 C 0.38215(19) 0.2934(2) 0.5066(3)
H11 H 0.3267 0.2571 0.5634
H12 H 0.3494 0.3405 0.4270
H13 H 0.4263 0.3553 0.5620
loop_
_geom_bond_atom_site_label_1
_geom_bond_atom_site_label_2
_geom_bond_site_symmetry_1
_geom_bond_site_symmetry_2
O1 C1 1_555 1_555
N1 N3 1_555 1_555
C1 C2 1_555 1_555
C2 C3 1_555 1_555
N2 C8 1_555 1_555
O2 C4 1_555 1_555
N3 C8 1_555 1_555
C3 H1 1_555 1_555
C4 C6 1_555 1_555
C5 C2 1_555 1_555
H2 C5 1_555 1_555
C6 C5 1_555 1_555
H3 C6 1_555 1_555
C7 C3 1_555 1_555
H4 C7 1_555 1_555
C8 H5 1_555 1_555
C9 N1 1_555 1_555
H6 C9 1_555 1_555
C10 N1 1_555 1_555
H7 C10 1_555 1_555
H8 C10 1_555 1_555
C11 C1 1_555 1_555
H9 C11 1_555 1_555
H10 C11 1_555 1_555
C12 O2 1_555 1_555
H11 C12 1_555 1_555
H12 C12 1_555 1_555
H13 C12 1_555 1_555
N2 C9 1_555 1_555
C4 C7 1_555 1_555
C10 C11 1_555 1_555

#END
