
#######################################################################
#
#                 Cambridge Crystallographic Data Centre
#                                CCDC 
#
#######################################################################
#
# If this CIF has been generated from an entry in the Cambridge 
# Structural Database, then it will include bibliographic, chemical, 
# crystal, experimental, refinement or atomic coordinate data resulting 
# from the CCDC's data processing and validation procedures.
#
#######################################################################

data_FETXOU
_chemical_formula_moiety         'C24 H12,C10 F8'
_chemical_name_systematic        'coronene octafluoronaphthalene'
_symmetry_cell_setting           monoclinic
_symmetry_space_group_name_H-M   'C m'
_symmetry_Int_Tables_number      8
_space_group_name_Hall           'C -2y'
loop_
_symmetry_equiv_pos_site_id
_symmetry_equiv_pos_as_xyz
1 x,y,z
2 x,-y,z
3 1/2+x,1/2+y,z
4 1/2+x,1/2-y,z
_cell_length_a                   11.403(11)
_cell_length_b                   16.99(2)
_cell_length_c                   6.872(6)
_cell_angle_alpha                90
_cell_angle_beta                 115.524(10)
_cell_angle_gamma                90
_cell_volume                     1201.43
_exptl_crystal_colour            yellow
_exptl_crystal_description       prism
_cell_formula_units_Z            2
loop_
_atom_site_label
_atom_site_type_symbol
_atom_site_fract_x
_atom_site_fract_y
_atom_site_fract_z
C1 C 0.62224(14) 0.64116(2) 0.8469(7)
C2 C 0.5540(2) 0.57059(5) 0.7960(9)
C3 C 0.4189(2) 0.57109(14) 0.6994(12)
C4 C 0.35208(14) 0.64217(18) 0.6537(13)
C5 C 0.42034(14) 0.71275(14) 0.7047(14)
H1 H 0.3756 0.7603 0.6741
C6 C 0.55542(14) 0.71224(5) 0.8013(11)
H2 H 0.6011 0.7595 0.8354
C7 C 0.21703(14) 0.64121(2) 0.561(2)
H3 H 0.1715 0.6884 0.5338
C8 C 0.6224(4) 0.5000 0.8365(16)
C9 C 0.7558(3) 0.5000 0.928(2)
C10 C 0.82420(18) 0.5708(2) 0.9772(15)
H4 H 0.9144 0.5701 1.0344
C11 C 0.7601(11) 0.64113(5) 0.942(3)
H5 H 0.8062 0.6882 0.9802
C12 C 0.3521(2) 0.5000 0.6498(13)
C13 C 0.2170(2) 0.5000 0.5564(14)
C14 C 0.1496(7) 0.4291(3) 0.509(2)
H6 H 0.0593 0.4290 0.4420
C1A C 0.62224(14) 0.35884(2) 0.8469(7)
C2A C 0.5540(2) 0.42941(5) 0.7960(9)
C3A C 0.4189(2) 0.42891(14) 0.6994(12)
C4A C 0.35208(14) 0.35783(18) 0.6537(13)
C5A C 0.42034(14) 0.28725(14) 0.7047(14)
H1A H 0.3756 0.2397 0.6741
C6A C 0.55542(14) 0.28776(5) 0.8013(11)
H2A H 0.6011 0.2405 0.8354
C7A C 0.21703(14) 0.35879(2) 0.561(2)
H3A H 0.1715 0.3116 0.5338
C10A C 0.82420(18) 0.4292(2) 0.9772(15)
H4A H 0.9144 0.4299 1.0344
C11A C 0.7601(11) 0.35887(5) 0.942(3)
H5A H 0.8062 0.3118 0.9802
C14A C 0.1496(7) 0.5709(3) 0.509(2)
H6A H 0.0593 0.5710 0.4420
F1 F 0.1451(10) 0.5734(10) 0.0049(18)
F2 F 0.8375(10) 0.5850(10) 0.4955(19)
F3 F 0.6190(13) 0.6557(7) 0.3487(17)
F4 F 0.3686(13) 0.6616(6) 0.1724(18)
C15 C 0.7244(2) 0.54089(5) 0.4128(11)
C16 C 0.6074(2) 0.58177(17) 0.3336(13)
C17 C 0.4912(2) 0.5401(3) 0.2489(11)
C18 C 0.3695(10) 0.5801(10) 0.1656(19)
C19 C 0.2528(11) 0.5386(8) 0.0821(16)
F1A F 0.1451(10) 0.4266(10) 0.0049(18)
F2A F 0.8375(10) 0.4150(10) 0.4955(19)
F3A F 0.6190(13) 0.3443(7) 0.3487(17)
F4A F 0.3686(13) 0.3384(6) 0.1724(18)
C15A C 0.7244(2) 0.45911(5) 0.4128(11)
C16A C 0.6074(2) 0.41823(17) 0.3336(13)
C17A C 0.4912(2) 0.4599(3) 0.2489(11)
C18A C 0.3695(10) 0.4199(10) 0.1656(19)
C19A C 0.2528(11) 0.4614(8) 0.0821(16)
loop_
_geom_bond_atom_site_label_1
_geom_bond_atom_site_label_2
_geom_bond_site_symmetry_1
_geom_bond_site_symmetry_2
C1 C2 1_555 1_555
C2 C3 1_555 1_555
C3 C4 1_555 1_555
C4 C5 1_555 1_555
C5 H1 1_555 1_555
C6 C1 1_555 1_555
H2 C6 1_555 1_555
C7 C4 1_555 1_555
H3 C7 1_555 1_555
C8 C2 1_555 1_555
C9 C8 1_555 1_555
C10 C9 1_555 1_555
H4 C10 1_555 1_555
C11 C1 1_555 1_555
H5 C11 1_555 1_555
C12 C3 1_555 1_555
C13 C12 1_555 1_555
C14 C13 1_555 1_555
H6 C14 1_555 1_555
F1 C19 1_555 1_555
F2 C15 1_555 1_555
F3 C16 1_555 1_555
F4 C18 1_555 1_555
C15 C16 1_555 1_555
C16 C17 1_555 1_555
C17 C18 1_555 1_555
C18 C19 1_555 1_555
C19 C19A 1_555 1_555
C1A C2A 1_555 1_555
C2A C8 1_555 1_555
C3A C12 1_555 1_555
C4A C3A 1_555 1_555
C5A C4A 1_555 1_555
H1A C5A 1_555 1_555
C6A C1A 1_555 1_555
H2A C6A 1_555 1_555
C7A C14 1_555 1_555
H3A C7A 1_555 1_555
C10A C9 1_555 1_555
H4A C10A 1_555 1_555
C11A C1A 1_555 1_555
H5A C11A 1_555 1_555
C14A C7 1_555 1_555
H6A C14A 1_555 1_555
F1A C19A 1_555 1_555
F2A C15A 1_555 1_555
F3A C16A 1_555 1_555
F4A C18A 1_555 1_555
C15A C15 1_555 1_555
C16A C15A 1_555 1_555
C17A C17 1_555 1_555
C18A C17A 1_555 1_555
C19A C18A 1_555 1_555
C5 C6 1_555 1_555
C10 C11 1_555 1_555
C13 C14A 1_555 1_555
C2A C3A 1_555 1_555
C4A C7A 1_555 1_555
C5A C6A 1_555 1_555
C10A C11A 1_555 1_555
C16A C17A 1_555 1_555

#END
