
#######################################################################
#
#                 Cambridge Crystallographic Data Centre
#                                CCDC 
#
#######################################################################
#
# If this CIF has been generated from an entry in the Cambridge 
# Structural Database, then it will include bibliographic, chemical, 
# crystal, experimental, refinement or atomic coordinate data resulting 
# from the CCDC's data processing and validation procedures.
#
#######################################################################

data_FETYAH
_chemical_formula_moiety         'C27 H23 N1 O3'
_chemical_name_systematic        
1,5-dibenzyl-6,7-dioxo-2-phenyl-5-azaspiro[2.4]heptane-1-carbaldehyde
_symmetry_cell_setting           monoclinic
_symmetry_space_group_name_H-M   'P 21'
_symmetry_Int_Tables_number      4
_space_group_name_Hall           'P 2yb'
loop_
_symmetry_equiv_pos_site_id
_symmetry_equiv_pos_as_xyz
1 x,y,z
2 -x,1/2+y,-z
_cell_length_a                   13.2241(3)
_cell_length_b                   6.09193(9)
_cell_length_c                   13.9718(3)
_cell_angle_alpha                90
_cell_angle_beta                 106.686(2)
_cell_angle_gamma                90
_cell_volume                     1078.18
_exptl_crystal_colour            colorless
_exptl_crystal_description       needle
_cell_formula_units_Z            2
loop_
_atom_site_label
_atom_site_type_symbol
_atom_site_fract_x
_atom_site_fract_y
_atom_site_fract_z
O1 O 0.44107(16) 0.0684(3) 0.46345(14)
O2 O 0.36113(17) 0.7224(4) 0.20594(15)
N1 N 0.28269(16) 0.5148(4) 0.46749(15)
O3 O 0.32472(19) 0.2530(5) 0.59133(15)
C1 C 0.36528(17) 0.3735(4) 0.35379(17)
C2 C 0.31089(19) 0.5776(4) 0.37735(17)
H1 H 0.3583 0.7027 0.3899
H2 H 0.2486 0.6128 0.3231
C3 C 0.11104(19) 0.7013(5) 0.43701(18)
C4 C 0.5823(2) 0.2496(5) 0.21697(19)
C5 C 0.2328(2) 0.3069(4) 0.17266(19)
C6 C 0.33057(19) 0.2520(4) 0.25426(17)
H3 H 0.3425 0.0934 0.2620
C7 C 0.39093(18) 0.2343(4) 0.44465(17)
C8 C 0.33000(19) 0.3338(5) 0.51304(18)
C9 C 0.4343(2) 0.6015(5) 0.2348(2)
H4 H 0.4988 0.6495 0.2284
C10 C 0.53816(19) 0.2624(5) 0.30546(18)
H5 H 0.5881 0.3387 0.3598
H6 H 0.5295 0.1149 0.3281
C11 C 0.43261(18) 0.3807(4) 0.28028(17)
C12 C 0.1367(2) 0.3374(6) 0.1933(2)
H7 H 0.1335 0.3314 0.2589
C13 C 0.5405(2) 0.1078(5) 0.1383(2)
H8 H 0.4853 0.0149 0.1402
C14 C 0.2190(2) 0.6626(5) 0.50913(19)
H9 H 0.2554 0.8020 0.5254
H10 H 0.2112 0.6001 0.5704
C15 C 0.2348(3) 0.3116(6) 0.0744(2)
H11 H 0.2981 0.2885 0.0593
C16 C 0.0335(2) 0.5421(6) 0.4253(2)
H12 H 0.0484 0.4114 0.4610
C17 C 0.6641(2) 0.3882(7) 0.2115(2)
H13 H 0.6922 0.4866 0.2632
C18 C 0.0869(2) 0.8919(6) 0.3834(3)
H14 H 0.1384 0.9998 0.3908
C19 C -0.0666(3) 0.5779(8) 0.3604(3)
H15 H -0.1183 0.4706 0.3523
C20 C 0.6622(3) 0.2392(8) 0.0529(2)
H16 H 0.6891 0.2349 -0.0017
C21 C 0.1435(3) 0.3502(7) -0.0015(2)
H17 H 0.1460 0.3543 -0.0673
C22 C -0.0892(2) 0.7712(8) 0.3081(3)
H18 H -0.1566 0.7964 0.2658
C23 C 0.5801(3) 0.1028(7) 0.0566(3)
H19 H 0.5511 0.0071 0.0041
C24 C 0.0465(3) 0.3764(8) 0.1162(3)
H20 H -0.0173 0.3988 0.1303
C25 C 0.0496(3) 0.3826(7) 0.0187(3)
H21 H -0.0116 0.4085 -0.0329
C26 C -0.0119(3) 0.9270(8) 0.3187(3)
H22 H -0.0263 1.0565 0.2820
C27 C 0.7040(3) 0.3820(9) 0.1309(3)
H23 H 0.7593 0.4744 0.1289
loop_
_geom_bond_atom_site_label_1
_geom_bond_atom_site_label_2
_geom_bond_site_symmetry_1
_geom_bond_site_symmetry_2
O1 C7 1_555 1_555
O2 C9 1_555 1_555
N1 C2 1_555 1_555
O3 C8 1_555 1_555
C1 C2 1_555 1_555
C2 H1 1_555 1_555
H2 C2 1_555 1_555
C3 C14 1_555 1_555
C4 C10 1_555 1_555
C5 C6 1_555 1_555
C6 C1 1_555 1_555
H3 C6 1_555 1_555
C7 C1 1_555 1_555
C8 N1 1_555 1_555
C9 H4 1_555 1_555
C10 H5 1_555 1_555
H6 C10 1_555 1_555
C11 C1 1_555 1_555
C12 C5 1_555 1_555
H7 C12 1_555 1_555
C13 C4 1_555 1_555
H8 C13 1_555 1_555
C14 N1 1_555 1_555
H9 C14 1_555 1_555
H10 C14 1_555 1_555
C15 C5 1_555 1_555
H11 C15 1_555 1_555
C16 C3 1_555 1_555
H12 C16 1_555 1_555
C17 C4 1_555 1_555
H13 C17 1_555 1_555
C18 C3 1_555 1_555
H14 C18 1_555 1_555
C19 C16 1_555 1_555
H15 C19 1_555 1_555
C20 H16 1_555 1_555
C21 C15 1_555 1_555
H17 C21 1_555 1_555
C22 C19 1_555 1_555
H18 C22 1_555 1_555
C23 C13 1_555 1_555
H19 C23 1_555 1_555
C24 C12 1_555 1_555
H20 C24 1_555 1_555
C25 C21 1_555 1_555
H21 C25 1_555 1_555
C26 C18 1_555 1_555
H22 C26 1_555 1_555
C27 C17 1_555 1_555
H23 C27 1_555 1_555
C6 C11 1_555 1_555
C7 C8 1_555 1_555
C9 C11 1_555 1_555
C10 C11 1_555 1_555
C20 C23 1_555 1_555
C20 C27 1_555 1_555
C22 C26 1_555 1_555
C24 C25 1_555 1_555

#END
