
#######################################################################
#
#                 Cambridge Crystallographic Data Centre
#                                CCDC 
#
#######################################################################
#
# If this CIF has been generated from an entry in the Cambridge 
# Structural Database, then it will include bibliographic, chemical, 
# crystal, experimental, refinement or atomic coordinate data resulting 
# from the CCDC's data processing and validation procedures.
#
#######################################################################

data_FETYOT
_chemical_formula_moiety         'C18 H16 N4 O2 S3'
_chemical_name_systematic        
N,N'-Diphenyl-2,2'-(1,3,4-thiadiazolyl-2,5-dithio)diacetamide
_symmetry_cell_setting           monoclinic
_symmetry_space_group_name_H-M   'P 21/c'
_symmetry_Int_Tables_number      14
_space_group_name_Hall           '-P 2ybc'
loop_
_symmetry_equiv_pos_site_id
_symmetry_equiv_pos_as_xyz
1 x,y,z
2 -x,1/2+y,1/2-z
3 -x,-y,-z
4 x,1/2-y,1/2+z
_cell_length_a                   20.6438(19)
_cell_length_b                   5.3153(5)
_cell_length_c                   16.7247(15)
_cell_angle_alpha                90
_cell_angle_beta                 97.039(2)
_cell_angle_gamma                90
_cell_volume                     1821.34
_exptl_crystal_colour            colorless
_exptl_crystal_description       plate
_cell_formula_units_Z            4
_exptl_crystal_recrystallization_method ethanol
loop_
_atom_site_label
_atom_site_type_symbol
_atom_site_fract_x
_atom_site_fract_y
_atom_site_fract_z
S1 S 0.55902(3) 0.47970(9) 0.59588(4)
S2 S 0.45090(3) 0.61224(10) 0.68858(3)
S3 S 0.33143(3) 0.45974(10) 0.75858(3)
O1 O 0.66758(9) 0.4573(3) 0.51929(13)
O2 O 0.20424(8) 0.4410(3) 0.79382(11)
N1 N 0.68082(8) 0.0379(3) 0.50498(10)
H1 H 0.6637 -0.1060 0.5129
N2 N 0.45648(8) 0.1781(3) 0.62318(10)
N3 N 0.40152(8) 0.1731(3) 0.66421(11)
N4 N 0.18838(8) 0.0197(3) 0.80319(10)
H2 H 0.2065 -0.1243 0.7985
C1 C 0.78479(10) -0.1611(4) 0.49590(13)
H3 H 0.7734 -0.2861 0.5305
C2 C 0.84416(11) -0.1719(4) 0.46553(14)
H4 H 0.8727 -0.3043 0.4800
C3 C 0.86132(11) 0.0121(4) 0.41400(14)
H5 H 0.9011 0.0036 0.3934
C4 C 0.81910(11) 0.2088(4) 0.39324(13)
H6 H 0.8307 0.3331 0.3585
C5 C 0.75958(11) 0.2240(4) 0.42350(13)
H7 H 0.7316 0.3582 0.4096
C6 C 0.74230(10) 0.0371(4) 0.47462(11)
C7 C 0.64716(10) 0.2426(4) 0.52232(13)
C8 C 0.58009(10) 0.1941(4) 0.54700(12)
H8 H 0.5812 0.0525 0.5837
H9 H 0.5488 0.1589 0.5002
C9 C 0.48660(9) 0.3923(4) 0.63193(11)
C10 C 0.39363(9) 0.3830(4) 0.70079(11)
C11 C 0.28605(10) 0.1697(4) 0.75285(14)
H10 H 0.2780 0.1120 0.6975
H11 H 0.3101 0.0405 0.7849
C12 C 0.22222(10) 0.2246(4) 0.78528(12)
C13 C 0.12534(10) 0.0205(4) 0.82923(12)
C14 C 0.11001(10) -0.1682(4) 0.88065(13)
H12 H 0.1408 -0.2905 0.8978
C15 C 0.04883(11) -0.1751(4) 0.90658(14)
H13 H 0.0386 -0.3024 0.9411
C16 C 0.00308(11) 0.0056(4) 0.88142(15)
H14 H -0.0379 0.0016 0.8992
C17 C 0.01831(11) 0.1924(5) 0.82974(15)
H15 H -0.0126 0.3142 0.8126
C18 C 0.07908(11) 0.2008(4) 0.80310(14)
H16 H 0.0888 0.3268 0.7679
loop_
_geom_bond_atom_site_label_1
_geom_bond_atom_site_label_2
_geom_bond_site_symmetry_1
_geom_bond_site_symmetry_2
S1 C8 1_555 1_555
S2 C9 1_555 1_555
S3 C10 1_555 1_555
O1 C7 1_555 1_555
O2 C12 1_555 1_555
N1 H1 1_555 1_555
N2 N3 1_555 1_555
N3 C10 1_555 1_555
N4 H2 1_555 1_555
C1 H3 1_555 1_555
C2 C1 1_555 1_555
H4 C2 1_555 1_555
C3 C2 1_555 1_555
H5 C3 1_555 1_555
C4 C3 1_555 1_555
H6 C4 1_555 1_555
C5 C4 1_555 1_555
H7 C5 1_555 1_555
C6 N1 1_555 1_555
C7 N1 1_555 1_555
C8 C7 1_555 1_555
H8 C8 1_555 1_555
H9 C8 1_555 1_555
C9 S1 1_555 1_555
C10 S2 1_555 1_555
C11 S3 1_555 1_555
H10 C11 1_555 1_555
H11 C11 1_555 1_555
C12 N4 1_555 1_555
C13 N4 1_555 1_555
C14 C13 1_555 1_555
H12 C14 1_555 1_555
C15 C14 1_555 1_555
H13 C15 1_555 1_555
C16 C15 1_555 1_555
H14 C16 1_555 1_555
C17 C16 1_555 1_555
H15 C17 1_555 1_555
C18 C13 1_555 1_555
H16 C18 1_555 1_555
N2 C9 1_555 1_555
C1 C6 1_555 1_555
C5 C6 1_555 1_555
C11 C12 1_555 1_555
C17 C18 1_555 1_555

#END
