
#######################################################################
#
#                 Cambridge Crystallographic Data Centre
#                                CCDC 
#
#######################################################################
#
# If this CIF has been generated from an entry in the Cambridge 
# Structural Database, then it will include bibliographic, chemical, 
# crystal, experimental, refinement or atomic coordinate data resulting 
# from the CCDC's data processing and validation procedures.
#
#######################################################################

data_FETZEK
_chemical_formula_moiety         'C14 H11 Cl1 N2 O2'
_chemical_name_systematic        
N'-(2-Chlorobenzylidene)-2-hydroxybenzohydrazide
_chemical_properties_biological  'potential biological activity'
_symmetry_cell_setting           monoclinic
_symmetry_space_group_name_H-M   'P 21/c'
_symmetry_Int_Tables_number      14
_space_group_name_Hall           '-P 2ybc'
loop_
_symmetry_equiv_pos_site_id
_symmetry_equiv_pos_as_xyz
1 x,y,z
2 -x,1/2+y,1/2-z
3 -x,-y,-z
4 x,1/2-y,1/2+z
_cell_length_a                   16.884(3)
_cell_length_b                   5.873(2)
_cell_length_c                   13.135(3)
_cell_angle_alpha                90
_cell_angle_beta                 108.380(10)
_cell_angle_gamma                90
_cell_volume                     1236.02
_exptl_crystal_colour            colorless
_exptl_crystal_description       parallelepiped
_cell_formula_units_Z            4
_exptl_crystal_recrystallization_method DMF
loop_
_atom_site_label
_atom_site_type_symbol
_atom_site_fract_x
_atom_site_fract_y
_atom_site_fract_z
Cl1 Cl 0.11762(8) -0.5614(2) 0.47605(8)
O1 O 0.34252(19) 0.3519(5) 0.36494(19)
O2 O 0.30118(19) 0.2774(5) 0.6605(2)
N1 N 0.2453(2) -0.0028(6) 0.3794(2)
N2 N 0.2854(2) 0.1341(6) 0.4641(3)
C1 C 0.1161(2) -0.5099(7) 0.3441(3)
C2 C 0.0703(3) -0.6628(8) 0.2679(3)
H1 H 0.0438 -0.7863 0.2874
C3 C 0.0651(3) -0.6269(8) 0.1625(3)
H2 H 0.0341 -0.7255 0.1095
C4 C 0.1060(3) -0.4450(9) 0.1353(3)
H3 H 0.1024 -0.4222 0.0639
C5 C 0.1522(3) -0.2960(8) 0.2128(3)
H4 H 0.1794 -0.1742 0.1932
C6 C 0.1583(3) -0.3269(7) 0.3205(3)
C7 C 0.2057(3) -0.1700(8) 0.4028(3)
H5 H 0.2074 -0.1916 0.4736
C8 C 0.3307(2) 0.3141(7) 0.4502(3)
C9 C 0.3645(2) 0.4679(7) 0.5443(3)
C10 C 0.4144(2) 0.6446(8) 0.5310(3)
H6 H 0.4270 0.6547 0.4672
C11 C 0.4460(3) 0.8059(8) 0.6091(3)
H7 H 0.4802 0.9217 0.5985
C12 C 0.4263(3) 0.7937(8) 0.7042(3)
H8 H 0.4459 0.9044 0.7568
C13 C 0.3785(3) 0.6200(8) 0.7200(3)
H9 H 0.3657 0.6132 0.7838
C14 C 0.3482(2) 0.4525(7) 0.6431(3)
H10 H 0.282(2) 0.111(7) 0.523(3)
H11 H 0.308(4) 0.269(11) 0.726(4)
loop_
_geom_bond_atom_site_label_1
_geom_bond_atom_site_label_2
_geom_bond_site_symmetry_1
_geom_bond_site_symmetry_2
Cl1 C1 1_555 1_555
O1 C8 1_555 1_555
O2 C14 1_555 1_555
N1 N2 1_555 1_555
N2 C8 1_555 1_555
C1 C2 1_555 1_555
C2 H1 1_555 1_555
C3 C2 1_555 1_555
H2 C3 1_555 1_555
C4 C3 1_555 1_555
H3 C4 1_555 1_555
C5 C4 1_555 1_555
H4 C5 1_555 1_555
C6 C1 1_555 1_555
C7 N1 1_555 1_555
H5 C7 1_555 1_555
C8 C9 1_555 1_555
C9 C10 1_555 1_555
C10 H6 1_555 1_555
C11 C10 1_555 1_555
H7 C11 1_555 1_555
C12 C11 1_555 1_555
H8 C12 1_555 1_555
C13 C12 1_555 1_555
H9 C13 1_555 1_555
C14 C9 1_555 1_555
H10 N2 1_555 1_555
H11 O2 1_555 1_555
C5 C6 1_555 1_555
C6 C7 1_555 1_555
C13 C14 1_555 1_555

#END
