
#######################################################################
#
#                 Cambridge Crystallographic Data Centre
#                                CCDC 
#
#######################################################################
#
# If this CIF has been generated from an entry in the Cambridge 
# Structural Database, then it will include bibliographic, chemical, 
# crystal, experimental, refinement or atomic coordinate data resulting 
# from the CCDC's data processing and validation procedures.
#
#######################################################################

data_FEVBOY
_chemical_formula_moiety         'C17 H20 N2 O3'
_chemical_name_systematic        
'Ethyl 2-acetyl-3-(2-(1H-indol-3-yl)ethylamino)propenoate'
_symmetry_cell_setting           triclinic
_symmetry_space_group_name_H-M   'P -1'
_symmetry_Int_Tables_number      2
_space_group_name_Hall           '-P 1'
loop_
_symmetry_equiv_pos_site_id
_symmetry_equiv_pos_as_xyz
1 x,y,z
2 -x,-y,-z
_cell_length_a                   8.4342(18)
_cell_length_b                   9.391(2)
_cell_length_c                   10.360(2)
_cell_angle_alpha                79.941(3)
_cell_angle_beta                 71.597(3)
_cell_angle_gamma                89.332(3)
_cell_volume                     765.806
_exptl_crystal_colour            colorless
_exptl_crystal_description       block
_cell_formula_units_Z            2
_exptl_crystal_recrystallization_method ethanol
loop_
_atom_site_label
_atom_site_type_symbol
_atom_site_fract_x
_atom_site_fract_y
_atom_site_fract_z
O1 O 0.06078(13) 0.61983(13) 0.36769(12)
O2 O 0.46298(15) 0.82821(13) 0.03923(12)
O3 O 0.60063(15) 0.62634(12) 0.06465(12)
N1 N 0.40414(17) -0.04562(14) 0.78771(13)
H1 H 0.4528 -0.0584 0.8523
N2 N 0.28535(16) 0.43809(14) 0.41933(13)
H2 H 0.1776 0.4533 0.4450
C1 C 0.25980(19) -0.08463(17) 0.64843(15)
C2 C 0.1666(2) -0.16850(19) 0.59696(17)
H3 H 0.1292 -0.1273 0.5218
C3 C 0.1301(2) -0.31164(19) 0.65694(18)
H4 H 0.0666 -0.3696 0.6227
C4 C 0.1841(2) -0.37327(19) 0.76675(18)
H5 H 0.1562 -0.4725 0.8064
C5 C 0.2772(2) -0.29412(18) 0.81940(17)
H6 H 0.3147 -0.3369 0.8940
C6 C 0.3140(2) -0.14922(17) 0.75912(16)
C7 C 0.31928(19) 0.06404(17) 0.61249(15)
C8 C 0.4058(2) 0.08124(17) 0.69889(16)
H7 H 0.4605 0.1694 0.6981
C9 C 0.2874(2) 0.17564(17) 0.50269(16)
H8 H 0.1662 0.1742 0.5150
H9 H 0.3465 0.1510 0.4110
C10 C 0.3451(2) 0.32607(17) 0.50645(17)
H10 H 0.3046 0.3430 0.6030
H11 H 0.4689 0.3330 0.4754
C11 C 0.3809(2) 0.51711(17) 0.30607(16)
H12 H 0.4937 0.4903 0.2744
C12 C 0.3377(2) 0.63612(17) 0.22580(16)
C13 C 0.1716(2) 0.69010(18) 0.26918(17)
C14 C 0.1296(2) 0.8319(2) 0.19874(19)
H13 H 0.0102 0.8470 0.2389
H14 H 0.1557 0.8311 0.0998
H15 H 0.1955 0.9105 0.2115
C15 C 0.4675(2) 0.70816(18) 0.10318(17)
C16 C 0.7388(2) 0.6907(2) -0.05471(19)
H16 H 0.6946 0.7461 -0.1253
H17 H 0.8064 0.6132 -0.0955
C17 C 0.8469(2) 0.7888(2) -0.0164(2)
H18 H 0.7828 0.8706 0.0158
H19 H 0.9438 0.8248 -0.0974
H20 H 0.8853 0.7355 0.0575
loop_
_geom_bond_atom_site_label_1
_geom_bond_atom_site_label_2
_geom_bond_site_symmetry_1
_geom_bond_site_symmetry_2
O1 C13 1_555 1_555
O2 C15 1_555 1_555
O3 C15 1_555 1_555
N1 H1 1_555 1_555
N2 H2 1_555 1_555
C1 C2 1_555 1_555
C2 H3 1_555 1_555
C3 C2 1_555 1_555
H4 C3 1_555 1_555
C4 C3 1_555 1_555
H5 C4 1_555 1_555
C5 C4 1_555 1_555
H6 C5 1_555 1_555
C6 N1 1_555 1_555
C7 C1 1_555 1_555
C8 N1 1_555 1_555
H7 C8 1_555 1_555
C9 C7 1_555 1_555
H8 C9 1_555 1_555
H9 C9 1_555 1_555
C10 N2 1_555 1_555
H10 C10 1_555 1_555
H11 C10 1_555 1_555
C11 N2 1_555 1_555
H12 C11 1_555 1_555
C12 C11 1_555 1_555
C13 C12 1_555 1_555
C14 C13 1_555 1_555
H13 C14 1_555 1_555
H14 C14 1_555 1_555
H15 C14 1_555 1_555
C15 C12 1_555 1_555
C16 O3 1_555 1_555
H16 C16 1_555 1_555
H17 C16 1_555 1_555
C17 C16 1_555 1_555
H18 C17 1_555 1_555
H19 C17 1_555 1_555
H20 C17 1_555 1_555
C1 C6 1_555 1_555
C5 C6 1_555 1_555
C7 C8 1_555 1_555
C9 C10 1_555 1_555

#END
