
#######################################################################
#
#                 Cambridge Crystallographic Data Centre
#                                CCDC 
#
#######################################################################
#
# If this CIF has been generated from an entry in the Cambridge 
# Structural Database, then it will include bibliographic, chemical, 
# crystal, experimental, refinement or atomic coordinate data resulting 
# from the CCDC's data processing and validation procedures.
#
#######################################################################

data_FEVDEQ
_chemical_formula_moiety         'C22 H22 N2 O7'
_chemical_name_systematic        
3',5'-Di-O-acetyl-3-(2'-deoxy-\b-D-ribofuranosyl)-6-(4-methylphenyl)-2,3-dihydrofuro[2,3-d]pyrimidin-2-one
_symmetry_cell_setting           monoclinic
_symmetry_space_group_name_H-M   'P 21'
_symmetry_Int_Tables_number      4
_space_group_name_Hall           'P 2yb'
loop_
_symmetry_equiv_pos_site_id
_symmetry_equiv_pos_as_xyz
1 x,y,z
2 -x,1/2+y,-z
_cell_length_a                   6.6660(10)
_cell_length_b                   12.2250(10)
_cell_length_c                   24.676(2)
_cell_angle_alpha                90.000(10)
_cell_angle_beta                 90.240(10)
_cell_angle_gamma                90.000(10)
_cell_volume                     2010.88
_exptl_crystal_colour            colorless
_exptl_crystal_description       needles
_cell_formula_units_Z            4
_exptl_crystal_recrystallization_method chloroform/methanol
loop_
_atom_site_label
_atom_site_type_symbol
_atom_site_fract_x
_atom_site_fract_y
_atom_site_fract_z
O1 O 0.9005(2) 0.40494(15) 0.19715(7)
O2 O 0.6377(2) 0.08622(15) 0.10069(7)
O3 O 0.4116(2) 0.32545(14) 0.11037(7)
O4 O 0.0067(2) 0.27118(15) 0.08081(7)
O5 O 0.3862(3) -0.01993(15) 0.06984(8)
O6 O 0.5332(2) 0.67084(15) 0.28440(7)
O7 O 0.0264(3) 0.15083(16) 0.01155(8)
N1 N 0.7364(3) 0.54249(19) 0.24267(9)
N2 N 0.5618(3) 0.42100(17) 0.18238(8)
C1 C 0.5842(3) 0.3280(2) 0.14428(10)
H1 H 0.7069 0.3387 0.1217
C2 C 0.5942(3) 0.2179(2) 0.17259(10)
H2 H 0.7352 0.1952 0.1784
H3 H 0.5255 0.2208 0.2081
C3 C 0.4881(3) 0.1405(2) 0.13446(10)
H4 H 0.4075 0.0857 0.1551
C4 C 0.3518(3) 0.2138(2) 0.10017(10)
H5 H 0.3730 0.1967 0.0610
C5 C 0.1315(3) 0.2001(2) 0.11337(11)
H6 H 0.0918 0.1231 0.1070
H7 H 0.1100 0.2166 0.1522
C6 C 0.5623(4) 0.0024(2) 0.07053(11)
C7 C -0.0391(4) 0.2348(2) 0.03027(11)
C8 C -0.1814(4) 0.3112(3) 0.00270(11)
H8 H -0.1820 0.2965 -0.0363
H9 H -0.1389 0.3868 0.0092
H10 H -0.3166 0.3004 0.0172
C9 C 0.7237(4) -0.0555(2) 0.03941(12)
H11 H 0.7834 -0.1127 0.0622
H12 H 0.8275 -0.0029 0.0290
H13 H 0.6655 -0.0887 0.0068
C10 C 0.7445(4) 0.4552(2) 0.20756(11)
C11 C 0.3792(3) 0.4656(2) 0.19358(10)
H14 H 0.2603 0.4375 0.1774
C12 C 0.3717(3) 0.5515(2) 0.22848(10)
C13 C 0.2225(4) 0.6242(2) 0.25121(10)
H15 H 0.0822 0.6233 0.2443
C14 C 0.3225(3) 0.6933(2) 0.28412(10)
C15 C 0.5580(3) 0.5844(2) 0.25038(10)
C16 C 0.2619(3) 0.7834(2) 0.31917(10)
C17 C 0.4044(4) 0.8503(2) 0.34450(10)
H16 H 0.5431 0.8393 0.3377
C18 C 0.3444(4) 0.9328(2) 0.37957(11)
H17 H 0.4428 0.9782 0.3961
C19 C 0.1414(4) 0.9501(2) 0.39105(10)
C20 C 0.0006(4) 0.8850(2) 0.36466(11)
H18 H -0.1381 0.8967 0.3712
C21 C 0.0584(3) 0.8033(2) 0.32905(10)
H19 H -0.0407 0.7605 0.3112
C22 C 0.0760(4) 1.0351(2) 0.43157(11)
H20 H -0.0582 1.0616 0.4219
H21 H 0.1709 1.0963 0.4313
H22 H 0.0729 1.0025 0.4678
O8 O 1.4004(2) 0.21779(16) 0.30273(7)
O9 O 1.1380(2) 0.53650(14) 0.39923(7)
O10 O 0.9115(2) 0.29725(14) 0.38961(7)
O11 O 0.5066(2) 0.35123(15) 0.41925(7)
O12 O 0.8858(3) 0.64258(15) 0.43022(8)
O13 O 1.0328(2) -0.04788(15) 0.21549(7)
O14 O 0.5262(3) 0.47207(17) 0.48834(8)
N3 N 1.2368(3) 0.07990(19) 0.25725(8)
N4 N 1.0620(3) 0.20153(17) 0.31764(9)
C23 C 1.0848(3) 0.2945(2) 0.35582(10)
H23 H 1.2076 0.2838 0.3786
C24 C 1.0947(3) 0.4048(2) 0.32758(10)
H24 H 1.2356 0.4277 0.3221
H25 H 1.0260 0.4021 0.2919
C25 C 0.9884(3) 0.4820(2) 0.36553(10)
H26 H 0.9075 0.5367 0.3447
C26 C 0.8517(3) 0.4089(2) 0.39982(10)
H27 H 0.8740 0.4260 0.4390
C27 C 0.6316(3) 0.4224(2) 0.38660(11)
H28 H 0.5921 0.4994 0.3929
H29 H 0.6092 0.4058 0.3478
C28 C 1.0622(4) 0.6202(2) 0.42933(11)
C29 C 0.4610(4) 0.3880(2) 0.46971(11)
C30 C 0.3188(4) 0.3115(3) 0.49725(11)
H30 H 0.3199 0.3257 0.5363
H31 H 0.3605 0.2358 0.4905
H32 H 0.1831 0.3227 0.4829
C31 C 1.2238(4) 0.6783(2) 0.46056(12)
H33 H 1.2888 0.7323 0.4371
H34 H 1.3236 0.6251 0.4731
H35 H 1.1646 0.7154 0.4918
C32 C 1.2438(4) 0.1675(2) 0.29250(11)
C33 C 0.8796(3) 0.1561(2) 0.30642(10)
H36 H 0.7611 0.1835 0.3228
C34 C 0.8717(3) 0.0711(2) 0.27137(10)
C35 C 0.7236(3) -0.0014(2) 0.24869(10)
H37 H 0.5834 -0.0005 0.2555
C36 C 0.8231(3) -0.0712(2) 0.21588(10)
C37 C 1.0579(3) 0.0384(2) 0.24963(10)
C38 C 0.7620(3) -0.1604(2) 0.18073(10)
C39 C 0.9049(3) -0.2274(2) 0.15552(10)
H38 H 1.0436 -0.2162 0.1625
C40 C 0.8443(4) -0.3100(2) 0.12029(11)
H39 H 0.9427 -0.3549 0.1036
C41 C 0.6414(4) -0.3281(2) 0.10893(11)
C42 C 0.5003(4) -0.2622(2) 0.13555(11)
H40 H 0.3614 -0.2741 0.1291
C43 C 0.5585(3) -0.1808(2) 0.17087(10)
H41 H 0.4596 -0.1382 0.1887
C44 C 0.5755(4) -0.4125(2) 0.06830(12)
H42 H 0.5535 -0.3774 0.0331
H43 H 0.4504 -0.4465 0.0805
H44 H 0.6797 -0.4686 0.0649
loop_
_geom_bond_atom_site_label_1
_geom_bond_atom_site_label_2
_geom_bond_site_symmetry_1
_geom_bond_site_symmetry_2
O1 C10 1_555 1_555
O2 C3 1_555 1_555
O3 C1 1_555 1_555
O4 C5 1_555 1_555
O5 C6 1_555 1_555
O6 C14 1_555 1_555
O7 C7 1_555 1_555
O8 C32 1_555 1_555
O9 C25 1_555 1_555
O10 C23 1_555 1_555
O11 C27 1_555 1_555
O12 C28 1_555 1_555
O13 C36 1_555 1_555
O14 C29 1_555 1_555
N1 C10 1_555 1_555
N2 C1 1_555 1_555
N3 C32 1_555 1_555
N4 C23 1_555 1_555
C1 H1 1_555 1_555
C2 C1 1_555 1_555
H2 C2 1_555 1_555
H3 C2 1_555 1_555
C3 C2 1_555 1_555
H4 C3 1_555 1_555
C4 O3 1_555 1_555
H5 C4 1_555 1_555
C5 C4 1_555 1_555
H6 C5 1_555 1_555
H7 C5 1_555 1_555
C6 O2 1_555 1_555
C7 O4 1_555 1_555
C8 C7 1_555 1_555
H8 C8 1_555 1_555
H9 C8 1_555 1_555
H10 C8 1_555 1_555
C9 C6 1_555 1_555
H11 C9 1_555 1_555
H12 C9 1_555 1_555
H13 C9 1_555 1_555
C10 N2 1_555 1_555
C11 N2 1_555 1_555
H14 C11 1_555 1_555
C12 C11 1_555 1_555
C13 C12 1_555 1_555
H15 C13 1_555 1_555
C14 C13 1_555 1_555
C15 O6 1_555 1_555
C16 C14 1_555 1_555
C17 C16 1_555 1_555
H16 C17 1_555 1_555
C18 C17 1_555 1_555
H17 C18 1_555 1_555
C19 C18 1_555 1_555
C20 C19 1_555 1_555
H18 C20 1_555 1_555
C21 C16 1_555 1_555
H19 C21 1_555 1_555
C22 C19 1_555 1_555
H20 C22 1_555 1_555
H21 C22 1_555 1_555
H22 C22 1_555 1_555
C23 H23 1_555 1_555
C24 C23 1_555 1_555
H24 C24 1_555 1_555
H25 C24 1_555 1_555
C25 C24 1_555 1_555
H26 C25 1_555 1_555
C26 O10 1_555 1_555
H27 C26 1_555 1_555
C27 C26 1_555 1_555
H28 C27 1_555 1_555
H29 C27 1_555 1_555
C28 O9 1_555 1_555
C29 O11 1_555 1_555
C30 C29 1_555 1_555
H30 C30 1_555 1_555
H31 C30 1_555 1_555
H32 C30 1_555 1_555
C31 C28 1_555 1_555
H33 C31 1_555 1_555
H34 C31 1_555 1_555
H35 C31 1_555 1_555
C32 N4 1_555 1_555
C33 N4 1_555 1_555
H36 C33 1_555 1_555
C34 C33 1_555 1_555
C35 C34 1_555 1_555
H37 C35 1_555 1_555
C36 C35 1_555 1_555
C37 O13 1_555 1_555
C38 C36 1_555 1_555
C39 C38 1_555 1_555
H38 C39 1_555 1_555
C40 C39 1_555 1_555
H39 C40 1_555 1_555
C41 C40 1_555 1_555
C42 C41 1_555 1_555
H40 C42 1_555 1_555
C43 C38 1_555 1_555
H41 C43 1_555 1_555
C44 C41 1_555 1_555
H42 C44 1_555 1_555
H43 C44 1_555 1_555
H44 C44 1_555 1_555
N1 C15 1_555 1_555
N3 C37 1_555 1_555
C3 C4 1_555 1_555
C12 C15 1_555 1_555
C20 C21 1_555 1_555
C25 C26 1_555 1_555
C34 C37 1_555 1_555
C42 C43 1_555 1_555

#END
