
#######################################################################
#
#                 Cambridge Crystallographic Data Centre
#                                CCDC 
#
#######################################################################
#
# If this CIF has been generated from an entry in the Cambridge 
# Structural Database, then it will include bibliographic, chemical, 
# crystal, experimental, refinement or atomic coordinate data resulting 
# from the CCDC's data processing and validation procedures.
#
#######################################################################

data_FEVGOE
_chemical_formula_moiety         'C15 H5 N5'
_chemical_name_systematic        
3-Phenylbuta-1,3-diene-1,1,2,4,4-pentacarbonitrile
_symmetry_cell_setting           triclinic
_symmetry_space_group_name_H-M   'P -1'
_symmetry_Int_Tables_number      2
_space_group_name_Hall           '-P 1'
loop_
_symmetry_equiv_pos_site_id
_symmetry_equiv_pos_as_xyz
1 x,y,z
2 -x,-y,-z
_cell_length_a                   7.5305(3)
_cell_length_b                   9.0678(3)
_cell_length_c                   10.3948(4)
_cell_angle_alpha                97.799(2)
_cell_angle_beta                 110.071(2)
_cell_angle_gamma                101.2940(10)
_cell_volume                     637.73
_exptl_crystal_colour            yellow
_exptl_crystal_description       prism
_cell_formula_units_Z            2
loop_
_atom_site_label
_atom_site_type_symbol
_atom_site_fract_x
_atom_site_fract_y
_atom_site_fract_z
N1 N 0.67474(13) 0.40673(10) 0.54848(10)
N2 N 0.38177(13) 0.50914(10) 0.84104(10)
N3 N 0.85387(14) 0.86697(10) 1.07454(9)
N4 N 1.47084(13) 0.90761(10) 0.81795(10)
N5 N 1.26150(14) 0.70395(11) 1.11578(10)
C1 C 0.67773(14) 0.58028(11) 0.76845(10)
C2 C 0.82905(14) 0.70558(11) 0.84150(10)
C3 C 0.98703(14) 0.76104(11) 0.79005(10)
C4 C 1.17680(14) 0.78366(11) 0.87685(10)
C5 C 0.67519(14) 0.48368(11) 0.64538(10)
C6 C 0.51471(14) 0.53765(11) 0.81014(10)
C7 C 0.83812(14) 0.79314(11) 0.97084(10)
C8 C 0.92267(14) 0.79059(11) 0.64783(10)
C9 C 1.01302(15) 0.74942(11) 0.55598(11)
C10 C 0.94511(16) 0.77453(12) 0.42156(11)
C11 C 0.78993(16) 0.84089(12) 0.37764(11)
C12 C 0.70041(15) 0.88231(12) 0.46828(11)
C13 C 0.76465(15) 0.85629(11) 0.60282(10)
C14 C 1.33834(14) 0.85246(11) 0.84189(10)
C15 C 1.22704(14) 0.74067(11) 1.01063(11)
H1 H 0.6971(17) 0.8849(13) 0.6676(12)
H2 H 0.5927(19) 0.9280(14) 0.4382(13)
H3 H 0.7429(18) 0.8603(14) 0.2843(13)
H4 H 1.1177(18) 0.7000(13) 0.5853(12)
H5 H 1.0046(18) 0.7414(13) 0.3564(13)
loop_
_geom_bond_atom_site_label_1
_geom_bond_atom_site_label_2
_geom_bond_site_symmetry_1
_geom_bond_site_symmetry_2
N1 C5 1_555 1_555
N2 C6 1_555 1_555
N3 C7 1_555 1_555
N4 C14 1_555 1_555
N5 C15 1_555 1_555
C1 C2 1_555 1_555
C2 C3 1_555 1_555
C3 C4 1_555 1_555
C4 C14 1_555 1_555
C5 C1 1_555 1_555
C6 C1 1_555 1_555
C7 C2 1_555 1_555
C8 C3 1_555 1_555
C9 C8 1_555 1_555
C10 C9 1_555 1_555
C11 C10 1_555 1_555
C12 C11 1_555 1_555
C13 C8 1_555 1_555
C15 C4 1_555 1_555
H1 C13 1_555 1_555
H2 C12 1_555 1_555
H3 C11 1_555 1_555
H4 C9 1_555 1_555
H5 C10 1_555 1_555
C12 C13 1_555 1_555

#END
