
#######################################################################
#
#                 Cambridge Crystallographic Data Centre
#                                CCDC 
#
#######################################################################
#
# If this CIF has been generated from an entry in the Cambridge 
# Structural Database, then it will include bibliographic, chemical, 
# crystal, experimental, refinement or atomic coordinate data resulting 
# from the CCDC's data processing and validation procedures.
#
#######################################################################

data_FEVGEU
_chemical_formula_moiety         'C30 H19 N5'
_chemical_name_systematic        
2-(4-((4-(Dimethylamino)phenyl)ethynyl)phenyl)-3-phenylbuta-1,3-diene-1,1,4,4-tetracarbonitrile
_symmetry_cell_setting           monoclinic
_symmetry_space_group_name_H-M   'C 2/n'
_symmetry_Int_Tables_number      15
_space_group_name_Hall           '-C 2yac'
loop_
_symmetry_equiv_pos_site_id
_symmetry_equiv_pos_as_xyz
1 x,y,z
2 -x,1/2+y,1/2-z
3 1/2+x,1/2+y,z
4 1/2-x,y,1/2-z
5 -x,-y,-z
6 x,1/2-y,1/2+z
7 1/2-x,1/2-y,-z
8 1/2+x,-y,1/2+z
_cell_length_a                   33.467(6)
_cell_length_b                   7.681(2)
_cell_length_c                   22.456(4)
_cell_angle_alpha                90
_cell_angle_beta                 125.265(9)
_cell_angle_gamma                90
_cell_volume                     4713.22
_exptl_crystal_colour            red
_exptl_crystal_description       plate
_cell_formula_units_Z            8
loop_
_atom_site_label
_atom_site_type_symbol
_atom_site_fract_x
_atom_site_fract_y
_atom_site_fract_z
N1 N 0.18955(5) 1.26293(18) 0.32566(7)
N2 N 0.57853(5) -0.22392(19) 0.78310(8)
N3 N 0.54676(5) -0.0362(2) 0.58127(8)
N4 N 0.48271(6) -0.5368(2) 0.55892(8)
N5 N 0.37091(5) -0.30718(18) 0.35729(8)
C1 C 0.51052(6) -0.1396(2) 0.65042(8)
C2 C 0.46175(5) -0.15561(19) 0.61893(8)
C3 C 0.42736(5) -0.1332(2) 0.53732(8)
C4 C 0.39785(5) 0.0259(2) 0.51111(8)
C5 C 0.36372(6) 0.0650(2) 0.43722(9)
H1 H 0.3574(6) -0.016(2) 0.3994(10)
C6 C 0.33725(6) 0.2166(2) 0.41603(9)
H2 H 0.3133(6) 0.2390(19) 0.3651(9)
C7 C 0.34306(6) 0.3373(2) 0.46713(8)
C8 C 0.37656(6) 0.2981(2) 0.54092(9)
H3 H 0.3806(6) 0.380(2) 0.5781(10)
C9 C 0.40334(6) 0.1468(2) 0.56175(9)
H4 H 0.4258(6) 0.1295(18) 0.6133(8)
C10 C 0.31563(6) 0.4957(2) 0.44439(8)
C11 C 0.29322(6) 0.6303(2) 0.42481(9)
C12 C 0.26663(6) 0.7902(2) 0.40018(8)
C13 C 0.23989(6) 0.8371(2) 0.32649(9)
H5 H 0.2383(6) 0.753(2) 0.2909(9)
C14 C 0.21518(6) 0.9924(2) 0.30177(9)
H6 H 0.1967(6) 1.0212(19) 0.2506(9)
C15 C 0.21493(6) 1.1106(2) 0.34973(9)
C16 C 0.24185(6) 1.0621(2) 0.42400(9)
H7 H 0.2427(5) 1.1418(19) 0.4589(8)
C17 C 0.26684(6) 0.9076(2) 0.44805(9)
H8 H 0.2855(6) 0.8811(19) 0.4995(9)
C18 C 0.16699(9) 1.3200(3) 0.25125(11)
H9 H 0.1933(8) 1.342(2) 0.2430(11)
H10 H 0.1428(7) 1.227(3) 0.2139(11)
H11 H 0.1493(7) 1.425(3) 0.2438(11)
C19 C 0.18878(7) 1.3800(3) 0.37591(11)
H12 H 0.2222(7) 1.432(2) 0.4128(9)
H13 H 0.1776(6) 1.317(2) 0.4027(10)
H14 H 0.1659(7) 1.472(3) 0.3476(11)
C20 C 0.54767(6) -0.1844(2) 0.72493(9)
C21 C 0.52951(6) -0.0827(2) 0.61021(9)
C22 C 0.43985(5) -0.19902(18) 0.65840(8)
C23 C 0.39349(6) -0.27509(19) 0.61994(9)
H15 H 0.3767(6) -0.2987(18) 0.5694(9)
C24 C 0.37163(6) -0.3170(2) 0.65474(9)
H16 H 0.3400(6) -0.3693(19) 0.6275(9)
C25 C 0.39525(6) -0.2815(2) 0.72833(9)
H17 H 0.3799(6) -0.3097(19) 0.7532(8)
C26 C 0.44043(6) -0.2020(2) 0.76667(9)
H18 H 0.4569(6) -0.175(2) 0.8164(9)
C27 C 0.46274(6) -0.1602(2) 0.73231(9)
H19 H 0.4947(6) -0.101(2) 0.7607(9)
C28 C 0.42686(6) -0.2680(2) 0.49727(8)
C29 C 0.45822(6) -0.4173(2) 0.53231(9)
C30 C 0.39544(6) -0.2843(2) 0.41900(9)
loop_
_geom_bond_atom_site_label_1
_geom_bond_atom_site_label_2
_geom_bond_site_symmetry_1
_geom_bond_site_symmetry_2
N1 C15 1_555 1_555
N2 C20 1_555 1_555
N3 C21 1_555 1_555
N4 C29 1_555 1_555
N5 C30 1_555 1_555
C1 C2 1_555 1_555
C2 C3 1_555 1_555
C3 C4 1_555 1_555
C4 C5 1_555 1_555
C5 H1 1_555 1_555
C6 C5 1_555 1_555
H2 C6 1_555 1_555
C7 C6 1_555 1_555
C8 C7 1_555 1_555
H3 C8 1_555 1_555
C9 C4 1_555 1_555
H4 C9 1_555 1_555
C10 C7 1_555 1_555
C11 C10 1_555 1_555
C12 C11 1_555 1_555
C13 C12 1_555 1_555
H5 C13 1_555 1_555
C14 C13 1_555 1_555
H6 C14 1_555 1_555
C15 C14 1_555 1_555
C16 C15 1_555 1_555
H7 C16 1_555 1_555
C17 C12 1_555 1_555
H8 C17 1_555 1_555
C18 N1 1_555 1_555
H9 C18 1_555 1_555
H10 C18 1_555 1_555
H11 C18 1_555 1_555
C19 N1 1_555 1_555
H12 C19 1_555 1_555
H13 C19 1_555 1_555
H14 C19 1_555 1_555
C20 C1 1_555 1_555
C21 C1 1_555 1_555
C22 C2 1_555 1_555
C23 C22 1_555 1_555
H15 C23 1_555 1_555
C24 C23 1_555 1_555
H16 C24 1_555 1_555
C25 C24 1_555 1_555
H17 C25 1_555 1_555
C26 C25 1_555 1_555
H18 C26 1_555 1_555
C27 C22 1_555 1_555
H19 C27 1_555 1_555
C28 C3 1_555 1_555
C29 C28 1_555 1_555
C30 C28 1_555 1_555
C8 C9 1_555 1_555
C16 C17 1_555 1_555
C26 C27 1_555 1_555

#END
