
#######################################################################
#
#                 Cambridge Crystallographic Data Centre
#                                CCDC 
#
#######################################################################
#
# If this CIF has been generated from an entry in the Cambridge 
# Structural Database, then it will include bibliographic, chemical, 
# crystal, experimental, refinement or atomic coordinate data resulting 
# from the CCDC's data processing and validation procedures.
#
#######################################################################

data_FEVHAS
_chemical_formula_moiety         'C12 H11 N3 O1'
_chemical_name_systematic        
2-((2-(pyridin-2-yl)hydrazinylidene)methyl)phenol
_symmetry_cell_setting           monoclinic
_symmetry_space_group_name_H-M   'P 21/n'
_symmetry_Int_Tables_number      14
_space_group_name_Hall           '-P 2yn'
loop_
_symmetry_equiv_pos_site_id
_symmetry_equiv_pos_as_xyz
1 x,y,z
2 1/2-x,1/2+y,1/2-z
3 -x,-y,-z
4 1/2+x,1/2-y,1/2+z
_cell_length_a                   4.6609(7)
_cell_length_b                   21.102(3)
_cell_length_c                   10.9035(16)
_cell_angle_alpha                90
_cell_angle_beta                 94.147(2)
_cell_angle_gamma                90
_cell_volume                     1069.6
_exptl_crystal_colour            colorless
_exptl_crystal_description       block
_cell_formula_units_Z            4
loop_
_atom_site_label
_atom_site_type_symbol
_atom_site_fract_x
_atom_site_fract_y
_atom_site_fract_z
C1 C 0.6925(4) -0.09800(8) 0.71520(16)
H1 H 0.8231 -0.1246 0.6803
C2 C 0.6442(4) -0.10723(8) 0.83612(17)
H2 H 0.7384 -0.1392 0.8817
C3 C 0.4532(4) -0.06801(9) 0.88797(16)
H3 H 0.4160 -0.0729 0.9701
C4 C 0.3169(4) -0.02144(8) 0.81818(15)
H4 H 0.1867 0.0057 0.8521
C5 C 0.3773(3) -0.01555(7) 0.69561(14)
C6 C -0.0690(3) 0.11034(7) 0.58764(14)
H5 H -0.0244 0.1101 0.5059
C7 C -0.2736(3) 0.15645(7) 0.62688(14)
C8 C -0.3525(4) 0.15996(8) 0.74827(15)
C9 C -0.5490(4) 0.20475(9) 0.78124(17)
H6 H -0.6026 0.2062 0.8617
C10 C -0.6655(4) 0.24710(9) 0.6962(2)
H7 H -0.7962 0.2773 0.7194
C11 C -0.5898(4) 0.24509(9) 0.57655(19)
H8 H -0.6678 0.2741 0.5191
C12 C -0.3980(4) 0.19995(8) 0.54249(16)
H9 H -0.3501 0.1984 0.4612
N1 N 0.5638(3) -0.05304(6) 0.64348(11)
N2 N 0.2452(3) 0.02888(6) 0.61824(11)
H10 H 0.2844 0.0307 0.5424
N3 N 0.0524(3) 0.06990(6) 0.66217(11)
O1 O -0.2388(3) 0.12007(6) 0.83645(10)
H11 H -0.1246 0.0960 0.8065
loop_
_geom_bond_atom_site_label_1
_geom_bond_atom_site_label_2
_geom_bond_site_symmetry_1
_geom_bond_site_symmetry_2
C1 H1 1_555 1_555
C2 C1 1_555 1_555
H2 C2 1_555 1_555
C3 C2 1_555 1_555
H3 C3 1_555 1_555
C4 C3 1_555 1_555
H4 C4 1_555 1_555
C5 C4 1_555 1_555
C6 H5 1_555 1_555
C7 C6 1_555 1_555
C8 C7 1_555 1_555
C9 C8 1_555 1_555
H6 C9 1_555 1_555
C10 C9 1_555 1_555
H7 C10 1_555 1_555
C11 C10 1_555 1_555
H8 C11 1_555 1_555
C12 C7 1_555 1_555
H9 C12 1_555 1_555
N1 C1 1_555 1_555
N2 C5 1_555 1_555
H10 N2 1_555 1_555
N3 C6 1_555 1_555
O1 C8 1_555 1_555
H11 O1 1_555 1_555
C5 N1 1_555 1_555
C11 C12 1_555 1_555
N2 N3 1_555 1_555

#END
