
#######################################################################
#
#                 Cambridge Crystallographic Data Centre
#                                CCDC 
#
#######################################################################
#
# If this CIF has been generated from an entry in the Cambridge 
# Structural Database, then it will include bibliographic, chemical, 
# crystal, experimental, refinement or atomic coordinate data resulting 
# from the CCDC's data processing and validation procedures.
#
#######################################################################

data_FEVKEY
_chemical_formula_moiety         'C49 H24 F8'
_chemical_name_systematic        
2,2',7,7'-tetrakis(2,4-difluorophenyl)-9,9'-spirobi[fluorene]
_symmetry_cell_setting           monoclinic
_symmetry_space_group_name_H-M   'P 21/n'
_symmetry_Int_Tables_number      14
_space_group_name_Hall           '-P 2yn'
loop_
_symmetry_equiv_pos_site_id
_symmetry_equiv_pos_as_xyz
1 x,y,z
2 1/2-x,1/2+y,1/2-z
3 -x,-y,-z
4 1/2+x,1/2-y,1/2+z
_cell_length_a                   13.8049(17)
_cell_length_b                   12.2389(16)
_cell_length_c                   25.979(4)
_cell_angle_alpha                90
_cell_angle_beta                 102.745(3)
_cell_angle_gamma                90
_cell_volume                     4281.18
_exptl_crystal_colour            colorless
_exptl_crystal_description       block
_cell_formula_units_Z            4
loop_
_atom_site_label
_atom_site_type_symbol
_atom_site_fract_x
_atom_site_fract_y
_atom_site_fract_z
C1 C 0.3849(4) 0.1639(4) 0.2006(2)
C2 C 0.3028(5) 0.2260(5) 0.2028(3)
C3 C 0.2154(5) 0.1852(6) 0.2085(3)
H1 H 0.1615 0.2304 0.2092
C4 C 0.2092(6) 0.0738(7) 0.2132(4)
C5 C 0.2858(6) 0.0070(6) 0.2126(3)
H2 H 0.2785 -0.0681 0.2158
C6 C 0.3763(5) 0.0504(5) 0.2073(3)
H3 H 0.4306 0.0049 0.2081
C7 C 0.4794(4) 0.2096(4) 0.1900(2)
C8 C 0.5242(4) 0.1576(4) 0.1539(2)
H4 H 0.4955 0.0945 0.1373
C9 C 0.6103(4) 0.1970(4) 0.1420(2)
H5 H 0.6387 0.1617 0.1173
C10 C 0.6536(3) 0.2901(4) 0.16760(19)
C11 C 0.6102(4) 0.3406(4) 0.20620(18)
C12 C 0.5242(4) 0.3020(4) 0.21670(19)
H6 H 0.4955 0.3368 0.2415
C13 C 0.7390(3) 0.3547(4) 0.16187(19)
C14 C 0.8004(4) 0.3420(4) 0.1261(2)
H7 H 0.7905 0.2851 0.1018
C15 C 0.8772(4) 0.4174(4) 0.1279(2)
H8 H 0.9183 0.4099 0.1042
C16 C 0.8941(4) 0.5022(4) 0.1636(2)
C17 C 0.8302(4) 0.5135(4) 0.19964(19)
H9 H 0.8409 0.5693 0.2245
C18 C 0.7531(3) 0.4418(4) 0.19744(18)
C19 C 0.9772(4) 0.5781(5) 0.1630(2)
C20 C 1.0683(5) 0.5428(6) 0.1602(3)
C21 C 1.1465(6) 0.6113(9) 0.1549(3)
H10 H 1.2084 0.5837 0.1531
C22 C 1.1274(6) 0.7201(8) 0.1526(3)
C23 C 1.0357(6) 0.7634(6) 0.1556(3)
H11 H 1.0247 0.8384 0.1543
C24 C 0.9612(4) 0.6906(5) 0.1605(2)
H12 H 0.8990 0.7176 0.1622
C25 C 0.8277(4) 0.3081(4) 0.41644(19)
C26 C 0.8937(5) 0.3448(6) 0.4608(2)
C27 C 0.9436(5) 0.2751(8) 0.5002(3)
H13 H 0.9857 0.3027 0.5304
C28 C 0.9293(6) 0.1667(8) 0.4934(3)
C29 C 0.8675(5) 0.1256(6) 0.4500(3)
H14 H 0.8598 0.0504 0.4460
C30 C 0.8155(4) 0.1950(5) 0.4115(2)
H15 H 0.7721 0.1660 0.3821
C31 C 0.7691(4) 0.3851(4) 0.3775(2)
C32 C 0.7203(4) 0.4737(4) 0.3955(2)
H16 H 0.7255 0.4821 0.4316
C33 C 0.6655(4) 0.5478(4) 0.3616(2)
H17 H 0.6346 0.6062 0.3744
C34 C 0.6568(3) 0.5344(4) 0.3078(2)
C35 C 0.6998(3) 0.4453(4) 0.28830(19)
C36 C 0.7586(3) 0.3712(4) 0.32292(19)
H18 H 0.7901 0.3136 0.3099
C37 C 0.6005(3) 0.5986(4) 0.26358(19)
C38 C 0.5454(4) 0.6933(4) 0.2625(2)
H19 H 0.5441 0.7314 0.2933
C39 C 0.4917(4) 0.7297(4) 0.2134(2)
H20 H 0.4552 0.7940 0.2120
C40 C 0.4906(4) 0.6742(4) 0.16700(19)
C41 C 0.5490(4) 0.5804(4) 0.1687(2)
H21 H 0.5500 0.5421 0.1379
C42 C 0.6051(3) 0.5450(4) 0.21662(19)
C43 C 0.4270(4) 0.7122(4) 0.1170(2)
C44 C 0.4205(5) 0.8216(5) 0.1024(2)
C45 C 0.3573(5) 0.8590(5) 0.0581(3)
H22 H 0.3532 0.9330 0.0499
C46 C 0.3003(6) 0.7842(7) 0.0263(3)
C47 C 0.3013(5) 0.6757(6) 0.0364(2)
H23 H 0.2607 0.6275 0.0137
C48 C 0.6703(3) 0.4420(4) 0.22824(18)
F1 F 0.3094(3) 0.3339(4) 0.1991(2)
F2 F 0.1204(3) 0.0294(4) 0.2181(3)
F3 F 1.0887(3) 0.4350(4) 0.16391(19)
F4 F 1.2020(4) 0.7891(4) 0.1475(2)
F5 F 0.9110(3) 0.4524(4) 0.46692(15)
F6 F 0.9782(4) 0.1002(4) 0.53132(17)
F7 F 0.4767(4) 0.8924(4) 0.1302(2)
F8 F 0.2368(4) 0.8207(4) -0.01868(16)
C49 C 0.3657(4) 0.6390(6) 0.0823(2)
F9? F 0.3651(6) 0.5411(8) 0.0923(4)
loop_
_geom_bond_atom_site_label_1
_geom_bond_atom_site_label_2
_geom_bond_site_symmetry_1
_geom_bond_site_symmetry_2
C1 C2 1_555 1_555
C2 C3 1_555 1_555
C3 H1 1_555 1_555
C4 C3 1_555 1_555
C5 C4 1_555 1_555
H2 C5 1_555 1_555
C6 C1 1_555 1_555
H3 C6 1_555 1_555
C7 C1 1_555 1_555
C8 C7 1_555 1_555
H4 C8 1_555 1_555
C9 C8 1_555 1_555
H5 C9 1_555 1_555
C10 C9 1_555 1_555
C11 C10 1_555 1_555
C12 C7 1_555 1_555
H6 C12 1_555 1_555
C13 C10 1_555 1_555
C14 C13 1_555 1_555
H7 C14 1_555 1_555
C15 C14 1_555 1_555
H8 C15 1_555 1_555
C16 C15 1_555 1_555
C17 C16 1_555 1_555
H9 C17 1_555 1_555
C18 C13 1_555 1_555
C19 C16 1_555 1_555
C20 C19 1_555 1_555
C21 C20 1_555 1_555
H10 C21 1_555 1_555
C22 C21 1_555 1_555
C23 C22 1_555 1_555
H11 C23 1_555 1_555
C24 C19 1_555 1_555
H12 C24 1_555 1_555
C25 C26 1_555 1_555
C26 C27 1_555 1_555
C27 H13 1_555 1_555
C28 C27 1_555 1_555
C29 C28 1_555 1_555
H14 C29 1_555 1_555
C30 C25 1_555 1_555
H15 C30 1_555 1_555
C31 C25 1_555 1_555
C32 C31 1_555 1_555
H16 C32 1_555 1_555
C33 C32 1_555 1_555
H17 C33 1_555 1_555
C34 C33 1_555 1_555
C35 C34 1_555 1_555
C36 C31 1_555 1_555
H18 C36 1_555 1_555
C37 C34 1_555 1_555
C38 C37 1_555 1_555
H19 C38 1_555 1_555
C39 C38 1_555 1_555
H20 C39 1_555 1_555
C40 C39 1_555 1_555
C41 C40 1_555 1_555
H21 C41 1_555 1_555
C42 C37 1_555 1_555
C43 C40 1_555 1_555
C44 C43 1_555 1_555
C45 C44 1_555 1_555
H22 C45 1_555 1_555
C46 C45 1_555 1_555
C47 C46 1_555 1_555
H23 C47 1_555 1_555
C48 C11 1_555 1_555
F1 C2 1_555 1_555
F2 C4 1_555 1_555
F3 C20 1_555 1_555
F4 C22 1_555 1_555
F5 C26 1_555 1_555
F6 C28 1_555 1_555
F7 C44 1_555 1_555
F8 C46 1_555 1_555
C49 C43 1_555 1_555
C5 C6 1_555 1_555
C11 C12 1_555 1_555
C17 C18 1_555 1_555
C18 C48 1_555 1_555
C23 C24 1_555 1_555
C29 C30 1_555 1_555
C35 C36 1_555 1_555
C35 C48 1_555 1_555
C41 C42 1_555 1_555
C42 C48 1_555 1_555
C47 C49 1_555 1_555

#END
