
#######################################################################
#
#                 Cambridge Crystallographic Data Centre
#                                CCDC 
#
#######################################################################
#
# If this CIF has been generated from an entry in the Cambridge 
# Structural Database, then it will include bibliographic, chemical, 
# crystal, experimental, refinement or atomic coordinate data resulting 
# from the CCDC's data processing and validation procedures.
#
#######################################################################

data_FEVVAF
_chemical_formula_moiety         'C14 H11 Br1 S1'
_chemical_name_systematic        (2-Bromo-2-(phenylsulfanyl)vinyl)benzene
_symmetry_cell_setting           orthorhombic
_symmetry_space_group_name_H-M   'P 21 21 21'
_symmetry_Int_Tables_number      19
_space_group_name_Hall           'P 2ac 2ab'
loop_
_symmetry_equiv_pos_site_id
_symmetry_equiv_pos_as_xyz
1 x,y,z
2 1/2-x,-y,1/2+z
3 1/2+x,1/2-y,-z
4 -x,1/2+y,1/2-z
_cell_length_a                   6.0206(4)
_cell_length_b                   10.2488(7)
_cell_length_c                   20.3688(13)
_cell_angle_alpha                90
_cell_angle_beta                 90
_cell_angle_gamma                90
_cell_volume                     1256.83
_exptl_crystal_colour            colorless
_exptl_crystal_description       block
_cell_formula_units_Z            4
loop_
_atom_site_label
_atom_site_type_symbol
_atom_site_fract_x
_atom_site_fract_y
_atom_site_fract_z
Br1 Br 0.51960(8) 0.33829(4) 0.52981(2)
S1 S 0.1114(2) 0.46911(12) 0.59242(7)
C1 C 0.3780(11) 0.9972(5) 0.6156(2)
H1 H 0.3572 1.0839 0.6277
C2 C 0.2141(10) 0.9076(5) 0.6262(3)
H2 H 0.0817 0.9331 0.6459
C3 C 0.2443(8) 0.7790(5) 0.6078(2)
H3 H 0.1303 0.7191 0.6142
C4 C 0.4422(7) 0.7381(4) 0.57971(18)
C5 C 0.6065(8) 0.8312(5) 0.5708(2)
H4 H 0.7427 0.8061 0.5534
C6 C 0.5729(10) 0.9587(5) 0.5870(2)
H5 H 0.6833 1.0200 0.5786
C7 C 0.4951(8) 0.6030(4) 0.55945(17)
H6 H 0.6321 0.5944 0.5388
C8 C 0.3841(8) 0.4919(4) 0.5652(2)
C9 C 0.1469(8) 0.3584(4) 0.6589(2)
C10 C -0.0244(9) 0.2718(4) 0.6703(2)
H7 H -0.1473 0.2713 0.6426
C11 C -0.0146(11) 0.1856(5) 0.7226(3)
H8 H -0.1306 0.1280 0.7309
C12 C 0.1728(12) 0.1874(6) 0.7621(3)
H9 H 0.1835 0.1298 0.7973
C13 C 0.3430(11) 0.2737(6) 0.7499(3)
H10 H 0.4688 0.2735 0.7764
C14 C 0.3272(9) 0.3597(5) 0.6987(2)
H11 H 0.4408 0.4194 0.6912
loop_
_geom_bond_atom_site_label_1
_geom_bond_atom_site_label_2
_geom_bond_site_symmetry_1
_geom_bond_site_symmetry_2
Br1 C8 1_555 1_555
S1 C8 1_555 1_555
C1 H1 1_555 1_555
C2 C1 1_555 1_555
H2 C2 1_555 1_555
C3 C2 1_555 1_555
H3 C3 1_555 1_555
C4 C3 1_555 1_555
C5 C4 1_555 1_555
H4 C5 1_555 1_555
C6 C1 1_555 1_555
H5 C6 1_555 1_555
C7 C4 1_555 1_555
H6 C7 1_555 1_555
C8 C7 1_555 1_555
C9 S1 1_555 1_555
C10 C9 1_555 1_555
H7 C10 1_555 1_555
C11 C10 1_555 1_555
H8 C11 1_555 1_555
C12 C11 1_555 1_555
H9 C12 1_555 1_555
C13 C12 1_555 1_555
H10 C13 1_555 1_555
C14 C9 1_555 1_555
H11 C14 1_555 1_555
C5 C6 1_555 1_555
C13 C14 1_555 1_555

#END
