
#######################################################################
#
#                 Cambridge Crystallographic Data Centre
#                                CCDC 
#
#######################################################################
#
# If this CIF has been generated from an entry in the Cambridge 
# Structural Database, then it will include bibliographic, chemical, 
# crystal, experimental, refinement or atomic coordinate data resulting 
# from the CCDC's data processing and validation procedures.
#
#######################################################################

data_FEWDAP
_chemical_formula_moiety         'C14 H15 N3 O2'
_chemical_name_systematic        
N-acetyl-N-(5,7-dimethyl-1,8-naphthyridin-2-yl)acetamide
_symmetry_cell_setting           monoclinic
_symmetry_space_group_name_H-M   'P 21/c'
_symmetry_Int_Tables_number      14
_space_group_name_Hall           '-P 2ybc'
loop_
_symmetry_equiv_pos_site_id
_symmetry_equiv_pos_as_xyz
1 x,y,z
2 -x,1/2+y,1/2-z
3 -x,-y,-z
4 x,1/2-y,1/2+z
_cell_length_a                   4.3413(9)
_cell_length_b                   14.042(3)
_cell_length_c                   21.417(4)
_cell_angle_alpha                90
_cell_angle_beta                 90.59(3)
_cell_angle_gamma                90
_cell_volume                     1305.52
_exptl_crystal_colour            colorless
_exptl_crystal_description       block
_cell_formula_units_Z            4
loop_
_atom_site_label
_atom_site_type_symbol
_atom_site_fract_x
_atom_site_fract_y
_atom_site_fract_z
C1 C 0.0708(5) 0.68500(15) 0.42460(9)
C2 C -0.0699(5) 0.62551(15) 0.46865(9)
H1 H -0.2106 0.5791 0.4563
C3 C 0.0057(5) 0.63774(15) 0.53010(9)
H2 H -0.0790 0.5983 0.5603
C4 C 0.2139(4) 0.71087(14) 0.54768(8)
C5 C 0.3299(5) 0.76945(15) 0.49955(9)
C6 C 0.5953(5) 0.86419(15) 0.56877(9)
C7 C 0.5003(5) 0.80639(16) 0.61950(9)
H3 H 0.5686 0.8208 0.6597
C8 C 0.3095(5) 0.72963(15) 0.61018(8)
C9 C 0.7879(6) 0.95124(17) 0.58067(11)
H4 H 0.9559 0.9527 0.5519
H5 H 0.8676 0.9495 0.6226
H6 H 0.6635 1.0072 0.5751
C10 C 0.2138(6) 0.66660(18) 0.66336(9)
H7 H 0.3044 0.6896 0.7016
H8 H 0.2825 0.6027 0.6558
H9 H -0.0066 0.6673 0.6667
C11 C -0.1746(5) 0.73617(18) 0.32450(10)
C12 C -0.1923(6) 0.83478(17) 0.34919(11)
H10 H -0.3319 0.8715 0.3238
H11 H 0.0085 0.8634 0.3484
H12 H -0.2649 0.8333 0.3914
C13 C 0.1322(6) 0.58552(18) 0.33436(10)
C14 C 0.0798(8) 0.5601(2) 0.26686(12)
H13 H 0.2055 0.5063 0.2563
H14 H 0.1337 0.6133 0.2410
H15 H -0.1332 0.5443 0.2602
N1 N 0.2636(4) 0.75326(13) 0.43785(7)
N2 N 0.5188(4) 0.84584(12) 0.51014(7)
N3 N 0.0040(4) 0.66870(13) 0.35894(7)
O1 O -0.2999(5) 0.71303(15) 0.27637(8)
O2 O 0.2918(4) 0.53632(12) 0.36797(8)
loop_
_geom_bond_atom_site_label_1
_geom_bond_atom_site_label_2
_geom_bond_site_symmetry_1
_geom_bond_site_symmetry_2
C1 C2 1_555 1_555
C2 H1 1_555 1_555
C3 C2 1_555 1_555
H2 C3 1_555 1_555
C4 C3 1_555 1_555
C5 C4 1_555 1_555
C6 C7 1_555 1_555
C7 H3 1_555 1_555
C8 C4 1_555 1_555
C9 C6 1_555 1_555
H4 C9 1_555 1_555
H5 C9 1_555 1_555
H6 C9 1_555 1_555
C10 C8 1_555 1_555
H7 C10 1_555 1_555
H8 C10 1_555 1_555
H9 C10 1_555 1_555
C11 C12 1_555 1_555
C12 H10 1_555 1_555
H11 C12 1_555 1_555
H12 C12 1_555 1_555
C13 C14 1_555 1_555
C14 H13 1_555 1_555
H14 C14 1_555 1_555
H15 C14 1_555 1_555
N1 C1 1_555 1_555
N2 C5 1_555 1_555
N3 C1 1_555 1_555
O1 C11 1_555 1_555
O2 C13 1_555 1_555
C5 N1 1_555 1_555
C6 N2 1_555 1_555
C7 C8 1_555 1_555
C11 N3 1_555 1_555
C13 N3 1_555 1_555

#END
