
#######################################################################
#
#                 Cambridge Crystallographic Data Centre
#                                CCDC 
#
#######################################################################
#
# If this CIF has been generated from an entry in the Cambridge 
# Structural Database, then it will include bibliographic, chemical, 
# crystal, experimental, refinement or atomic coordinate data resulting 
# from the CCDC's data processing and validation procedures.
#
#######################################################################

data_FEWHEW
_chemical_formula_moiety         'C16 H10 N4 O4,2(C2 H6 O1 S1)'
_chemical_name_systematic        
"3,3'-(1,2,4,5-Tetrazine-3,6-diyl)dibenzoic acid dimethyl sulfoxide solvate"
_symmetry_cell_setting           triclinic
_symmetry_space_group_name_H-M   'P -1'
_symmetry_Int_Tables_number      2
_space_group_name_Hall           '-P 1'
loop_
_symmetry_equiv_pos_site_id
_symmetry_equiv_pos_as_xyz
1 x,y,z
2 -x,-y,-z
_cell_length_a                   6.3054(6)
_cell_length_b                   8.0715(9)
_cell_length_c                   11.4005(13)
_cell_angle_alpha                73.397(7)
_cell_angle_beta                 82.195(7)
_cell_angle_gamma                85.851(7)
_cell_volume                     550.532
_exptl_crystal_colour            colorless
_exptl_crystal_description       prism
_cell_formula_units_Z            1
loop_
_atom_site_label
_atom_site_type_symbol
_atom_site_fract_x
_atom_site_fract_y
_atom_site_fract_z
O1 O 1.3861(3) 0.8621(3) 0.1850(2)
H1 H 1.437(5) 0.855(4) 0.260(3)
O2 O 1.1459(3) 0.6763(3) 0.30614(19)
C1 C 1.2178(4) 0.7639(4) 0.2049(3)
C2 C 1.1274(4) 0.7720(4) 0.0891(3)
C3 C 0.9424(4) 0.6827(4) 0.0960(3)
H2 H 0.8771 0.6191 0.1721
C4 C 0.8559(4) 0.6892(4) -0.0115(3)
C5 C 0.9531(5) 0.7850(4) -0.1247(3)
H3 H 0.8949 0.7895 -0.1963
C6 C 1.1368(4) 0.8743(4) -0.1319(3)
H4 H 1.2017 0.9382 -0.208
C7 C 1.2227(4) 0.8678(4) -0.0254(3)
H5 H 1.3453 0.9281 -0.0302
C8 C 0.6647(4) 0.5895(4) -0.0053(3)
N1 N 0.5708(4) 0.5030(3) 0.1066(2)
N2 N 0.5976(4) 0.5893(3) -0.1121(2)
O1A O -0.3861(3) 0.1379(3) -0.1850(2)
H1A H -0.437(5) 0.145(4) -0.260(3)
O2A O -0.1459(3) 0.3237(3) -0.30614(19)
C1A C -0.2178(4) 0.2361(4) -0.2049(3)
C2A C -0.1274(4) 0.2280(4) -0.0891(3)
C3A C 0.0576(4) 0.3173(4) -0.0960(3)
H2A H 0.1229 0.3809 -0.1721
C4A C 0.1441(4) 0.3108(4) 0.0115(3)
C5A C 0.0469(5) 0.2150(4) 0.1247(3)
H3A H 0.1051 0.2105 0.1963
C6A C -0.1368(4) 0.1257(4) 0.1319(3)
H4A H -0.2017 0.0618 0.208
C7A C -0.2227(4) 0.1322(4) 0.0254(3)
H5A H -0.3453 0.0719 0.0302
C8A C 0.3353(4) 0.4105(4) 0.0053(3)
N1A N 0.4292(4) 0.4970(3) -0.1066(2)
N2A N 0.4024(4) 0.4107(3) 0.1121(2)
S1 S 0.59591(12) 0.71771(10) 0.47221(7)
O3 O 0.5398(3) 0.8840(3) 0.37692(19)
C9 C 0.8089(5) 0.7702(4) 0.5409(3)
H6 H 0.9335 0.7947 0.481
H7 H 0.841 0.6743 0.6091
H8 H 0.7674 0.87 0.5696
C10 C 0.3924(5) 0.6995(4) 0.5982(3)
H9 H 0.3745 0.8069 0.6194
H10 H 0.4321 0.6089 0.6677
H11 H 0.2603 0.6727 0.5757
loop_
_geom_bond_atom_site_label_1
_geom_bond_atom_site_label_2
_geom_bond_site_symmetry_1
_geom_bond_site_symmetry_2
O1 H1 1_555 1_555
O2 C1 1_555 1_555
C1 O1 1_555 1_555
C2 C1 1_555 1_555
C3 C2 1_555 1_555
H2 C3 1_555 1_555
C4 C3 1_555 1_555
C5 C4 1_555 1_555
H3 C5 1_555 1_555
C6 C5 1_555 1_555
H4 C6 1_555 1_555
C7 C2 1_555 1_555
H5 C7 1_555 1_555
C8 C4 1_555 1_555
N1 C8 1_555 1_555
N2 C8 1_555 1_555
S1 O3 1_555 1_555
C9 S1 1_555 1_555
H6 C9 1_555 1_555
H7 C9 1_555 1_555
H8 C9 1_555 1_555
C10 S1 1_555 1_555
H9 C10 1_555 1_555
H10 C10 1_555 1_555
H11 C10 1_555 1_555
O1A H1A 1_555 1_555
O2A C1A 1_555 1_555
C1A O1A 1_555 1_555
C2A C1A 1_555 1_555
C3A C2A 1_555 1_555
H2A C3A 1_555 1_555
C4A C3A 1_555 1_555
C5A C4A 1_555 1_555
H3A C5A 1_555 1_555
C6A C5A 1_555 1_555
H4A C6A 1_555 1_555
C7A C2A 1_555 1_555
H5A C7A 1_555 1_555
C8A C4A 1_555 1_555
N1A N2 1_555 1_555
N2A N1 1_555 1_555
C6 C7 1_555 1_555
C6A C7A 1_555 1_555
C8A N1A 1_555 1_555
C8A N2A 1_555 1_555

#END
