
#######################################################################
#
#                 Cambridge Crystallographic Data Centre
#                                CCDC 
#
#######################################################################
#
# If this CIF has been generated from an entry in the Cambridge 
# Structural Database, then it will include bibliographic, chemical, 
# crystal, experimental, refinement or atomic coordinate data resulting 
# from the CCDC's data processing and validation procedures.
#
#######################################################################

data_FEWJEZ
_chemical_formula_moiety         'C17 H17 N1 O1'
_chemical_name_systematic        
N-methyl-2-(4-phenyl-2,5-dihydrofuran-2-yl)aniline
_symmetry_cell_setting           monoclinic
_symmetry_space_group_name_H-M   'P 21/c'
_symmetry_Int_Tables_number      14
_space_group_name_Hall           '-P 2ybc'
loop_
_symmetry_equiv_pos_site_id
_symmetry_equiv_pos_as_xyz
1 x,y,z
2 -x,1/2+y,1/2-z
3 -x,-y,-z
4 x,1/2-y,1/2+z
_cell_length_a                   6.431(2)
_cell_length_b                   26.246(8)
_cell_length_c                   8.291(3)
_cell_angle_alpha                90
_cell_angle_beta                 101.926(4)
_cell_angle_gamma                90
_cell_volume                     1369.22
_exptl_crystal_colour            colorless
_exptl_crystal_description       Block
_cell_formula_units_Z            4
loop_
_atom_site_label
_atom_site_type_symbol
_atom_site_fract_x
_atom_site_fract_y
_atom_site_fract_z
C1 C 0.5757(3) 0.66215(6) 0.2487(2)
H1 H 0.4685 0.6440 0.1797
C2 C 0.5358(3) 0.71098(6) 0.2955(3)
H2 H 0.4025 0.7254 0.2578
C3 C 0.6904(4) 0.73837(6) 0.3968(3)
H3 H 0.6629 0.7713 0.4283
C4 C 0.8854(4) 0.71697(6) 0.4512(3)
H4 H 0.9910 0.7354 0.5207
C5 C 0.9282(3) 0.66786(6) 0.4040(2)
H5 H 1.0626 0.6540 0.4410
C6 C 0.7730(2) 0.63952(5) 0.30256(16)
C7 C 0.8146(2) 0.58683(5) 0.25625(15)
C8 C 0.6825(2) 0.55526(5) 0.16150(17)
H6 H 0.5443 0.5636 0.1098
C9 C 0.7822(2) 0.50473(5) 0.14782(17)
H7 H 0.7827 0.4982 0.0315
C10 C 1.0216(2) 0.55985(5) 0.3148(2)
H8 H 1.1373 0.5789 0.2849
H9 H 1.0503 0.5558 0.4337
C11 C 0.68032(19) 0.45990(5) 0.21534(15)
C12 C 0.5201(2) 0.46637(6) 0.30243(17)
H10 H 0.4768 0.4992 0.3221
C13 C 0.4230(2) 0.42536(7) 0.3608(2)
H11 H 0.3159 0.4305 0.4191
C14 C 0.4863(3) 0.37701(6) 0.3318(2)
H12 H 0.4213 0.3492 0.3706
C15 C 0.6459(2) 0.36907(5) 0.24538(18)
H13 H 0.6866 0.3360 0.2262
C16 C 0.7463(2) 0.41005(5) 0.18682(15)
C17 C 0.9876(3) 0.35274(6) 0.0764(2)
H14 H 1.0935 0.3550 0.0103
H15 H 1.0506 0.3392 0.1828
H16 H 0.8749 0.3307 0.0233
H17 H 0.998(3) 0.4289(6) 0.106(2)
N1 N 0.9031(2) 0.40299(5) 0.09567(17)
O1 O 0.99916(15) 0.51150(4) 0.23578(15)
loop_
_geom_bond_atom_site_label_1
_geom_bond_atom_site_label_2
_geom_bond_site_symmetry_1
_geom_bond_site_symmetry_2
C1 H1 1_555 1_555
C2 C1 1_555 1_555
H2 C2 1_555 1_555
C3 C2 1_555 1_555
H3 C3 1_555 1_555
C4 C3 1_555 1_555
H4 C4 1_555 1_555
C5 C4 1_555 1_555
H5 C5 1_555 1_555
C6 C1 1_555 1_555
C7 C6 1_555 1_555
C8 C7 1_555 1_555
H6 C8 1_555 1_555
C9 C8 1_555 1_555
H7 C9 1_555 1_555
C10 C7 1_555 1_555
H8 C10 1_555 1_555
H9 C10 1_555 1_555
C11 C9 1_555 1_555
C12 C11 1_555 1_555
H10 C12 1_555 1_555
C13 C12 1_555 1_555
H11 C13 1_555 1_555
C14 C13 1_555 1_555
H12 C14 1_555 1_555
C15 C14 1_555 1_555
H13 C15 1_555 1_555
C16 C11 1_555 1_555
C17 H14 1_555 1_555
H15 C17 1_555 1_555
H16 C17 1_555 1_555
H17 N1 1_555 1_555
N1 C16 1_555 1_555
O1 C9 1_555 1_555
C5 C6 1_555 1_555
C10 O1 1_555 1_555
C15 C16 1_555 1_555
C17 N1 1_555 1_555

#END
