
#######################################################################
#
#                 Cambridge Crystallographic Data Centre
#                                CCDC 
#
#######################################################################
#
# If this CIF has been generated from an entry in the Cambridge 
# Structural Database, then it will include bibliographic, chemical, 
# crystal, experimental, refinement or atomic coordinate data resulting 
# from the CCDC's data processing and validation procedures.
#
#######################################################################

data_FEWMEB
_chemical_name_common            
5-((Ethoxycarbonyl)oxy)-10,14,19,24,26,28,30,33,35-nonamethoxypillar[5]arene
_chemical_formula_moiety         'C48 H54 O12'
_chemical_name_systematic        
'Ethyl ((9,14,19,24,26,28,30,32,34-nonamethoxyhexacyclo[21.2.2.2^3,6^.2^8,11^.2^13,16^.2^18,21^]pentatriaconta-1(25),3,5,8,10,13,15,18,20,23,26,28,30,32,34-pentadecaen-4-yl)oxy)acetate'
_symmetry_cell_setting           triclinic
_symmetry_space_group_name_H-M   'P -1'
_symmetry_Int_Tables_number      2
_space_group_name_Hall           '-P 1'
loop_
_symmetry_equiv_pos_site_id
_symmetry_equiv_pos_as_xyz
1 x,y,z
2 -x,-y,-z
_cell_length_a                   12.2595(19)
_cell_length_b                   19.237(3)
_cell_length_c                   19.563(3)
_cell_angle_alpha                104.191(2)
_cell_angle_beta                 94.060(3)
_cell_angle_gamma                95.975(2)
_cell_volume                     4426.32
_exptl_crystal_colour            colorless
_exptl_crystal_description       block
_cell_formula_units_Z            4
loop_
_atom_site_label
_atom_site_type_symbol
_atom_site_fract_x
_atom_site_fract_y
_atom_site_fract_z
C1 C -0.1870(2) 0.44688(15) 0.23205(16)
C2 C -0.0991(2) 0.50140(15) 0.24949(17)
H1 H -0.0893 0.5333 0.2956
C3 C -0.0247(2) 0.51037(15) 0.20088(17)
C4 C -0.0420(2) 0.46329(16) 0.13319(17)
C5 C -0.1317(2) 0.40977(15) 0.11526(16)
H2 H -0.1435 0.3790 0.0686
C6 C -0.2047(2) 0.40040(14) 0.16473(15)
O1 O 0.03363(19) 0.47372(13) 0.08649(13)
C7 C 0.0293(4) 0.4198(2) 0.0229(2)
H3 H -0.0410 0.4171 -0.0053
H4 H 0.0359 0.3732 0.0335
H5 H 0.0901 0.4317 -0.0039
O2 O -0.26183(17) 0.43478(11) 0.27844(11)
C8 C -0.2348(3) 0.4706(2) 0.35118(18)
H6 H -0.2352 0.5227 0.3578
H7 H -0.1613 0.4611 0.3668
H8 H -0.2892 0.4527 0.3792
C9 C -0.2977(2) 0.33860(15) 0.14583(15)
H9 H -0.3153 0.3237 0.0937
H10 H -0.3642 0.3554 0.1671
C10 C -0.2689(2) 0.27396(14) 0.17148(14)
C11 C -0.3084(2) 0.26083(14) 0.23227(14)
H11 H -0.3557 0.2921 0.2571
C12 C -0.2804(2) 0.20296(14) 0.25790(14)
C13 C -0.2155(2) 0.15462(13) 0.22051(14)
C14 C -0.1757(2) 0.16776(13) 0.15926(13)
H12 H -0.1309 0.1354 0.1333
C15 C -0.2002(2) 0.22710(14) 0.13562(13)
O3 O -0.15988(15) 0.24355(10) 0.07646(9)
C16 C -0.0804(3) 0.20186(19) 0.04405(16)
H13 H -0.1135 0.1515 0.0254
H14 H -0.0180 0.2043 0.0791
H15 H -0.0545 0.2209 0.0051
O4 O -0.31399(18) 0.18963(11) 0.31962(11)
C17 C -0.3524(3) 0.24696(18) 0.36796(17)
H16 H -0.4228 0.2569 0.3478
H17 H -0.2983 0.2903 0.3771
H18 H -0.3627 0.2335 0.4125
C18 C -0.1819(2) 0.09120(14) 0.24622(15)
H19 H -0.1971 0.0465 0.2072
H20 H -0.2251 0.0844 0.2855
C19 C -0.0602(2) 0.10521(13) 0.27156(14)
C20 C 0.0185(2) 0.07451(13) 0.23010(13)
C21 C 0.1297(2) 0.09257(13) 0.25363(13)
H21 H 0.1827 0.0704 0.2253
C22 C 0.1650(2) 0.14237(13) 0.31767(13)
C23 C 0.0862(2) 0.17381(13) 0.35867(13)
C24 C -0.0251(2) 0.15456(14) 0.33602(14)
H22 H -0.0782 0.1755 0.3651
O5 O -0.02079(15) 0.02621(10) 0.16630(10)
C25 C 0.0585(3) -0.00559(19) 0.12320(16)
H23 H 0.1014 -0.0332 0.1488
H24 H 0.1080 0.0325 0.1118
H25 H 0.0209 -0.0380 0.0793
O6 O 0.12665(17) 0.22397(11) 0.42071(10)
C26 C 0.0557(3) 0.2697(2) 0.45489(19)
H26 H 0.0944 0.3009 0.4998
H27 H -0.0083 0.2405 0.4666
C27 C 0.0139(4) 0.3181(2) 0.4073(2)
O7 O 0.0661(2) 0.31786(15) 0.34984(15)
O8 O -0.0621(3) 0.3520(2) 0.4228(2)
C28 C 0.0201(4) 0.3486(2) 0.2979(2)
H28 H 0.0280 0.4018 0.3159
H29 H -0.0594 0.3306 0.2868
C29 C 0.0770(4) 0.3290(3) 0.2339(2)
H30 H 0.1514 0.3556 0.2424
H31 H 0.0359 0.3414 0.1946
H32 H 0.0819 0.2769 0.2217
C30 C 0.2860(2) 0.16240(13) 0.34289(13)
H33 H 0.2969 0.1631 0.3937
H34 H 0.3273 0.1246 0.3165
C31 C 0.3335(2) 0.23460(13) 0.33360(13)
C32 C 0.3527(2) 0.24361(14) 0.26701(13)
C33 C 0.3955(2) 0.31009(14) 0.25847(13)
H35 H 0.4076 0.3151 0.2124
C34 C 0.4208(2) 0.36965(14) 0.31632(14)
C35 C 0.4031(2) 0.36057(15) 0.38319(14)
C36 C 0.3601(2) 0.29364(14) 0.39154(13)
H36 H 0.3489 0.2883 0.4376
O9 O 0.4294(2) 0.42130(12) 0.43911(11)
C37 C 0.4182(6) 0.4124(3) 0.5070(2)
H37 H 0.4625 0.3752 0.5154
H38 H 0.3406 0.3976 0.5113
H39 H 0.4436 0.4583 0.5421
O10 O 0.32681(19) 0.18242(11) 0.21195(10)
C38 C 0.3278(5) 0.1909(2) 0.14233(17)
H40 H 0.4035 0.2055 0.1337
H41 H 0.2815 0.2280 0.1365
H42 H 0.2991 0.1449 0.1084
C39 C 0.4604(2) 0.44259(15) 0.30492(15)
H43 H 0.5116 0.4366 0.2676
H44 H 0.5009 0.4738 0.3492
C40 C 0.3642(2) 0.47826(13) 0.28325(14)
C41 C 0.3437(2) 0.48512(15) 0.21515(15)
C42 C 0.2515(2) 0.51544(16) 0.19599(16)
H45 H 0.2396 0.5206 0.1491
C43 C 0.1770(2) 0.53820(14) 0.24431(17)
C44 C 0.1971(2) 0.53066(14) 0.31270(16)
C45 C 0.2898(2) 0.50183(15) 0.33188(15)
H46 H 0.3030 0.4980 0.3792
O11 O 0.41951(19) 0.46067(14) 0.16883(11)
C46 C 0.3954(4) 0.4577(3) 0.0973(2)
H47 H 0.3823 0.5057 0.0923
H48 H 0.3294 0.4232 0.0781
H49 H 0.4577 0.4422 0.0712
O12 O 0.12003(19) 0.55304(13) 0.35855(13)
C47 C 0.1321(4) 0.5394(2) 0.4269(2)
H50 H 0.2051 0.5612 0.4507
H51 H 0.1245 0.4871 0.4219
H52 H 0.0752 0.5605 0.4551
C48 C 0.0741(3) 0.56771(16) 0.2220(2)
H53 H 0.0577 0.6070 0.2616
H54 H 0.0880 0.5886 0.1815
C50 C 0.5629(2) 0.04572(14) 0.61506(13)
C51 C 0.4970(2) 0.07488(15) 0.57178(14)
H60 H 0.4248 0.0513 0.5543
C52 C 0.5342(2) 0.13788(14) 0.55330(13)
C53 C 0.6402(2) 0.17040(14) 0.57788(15)
C54 C 0.7068(2) 0.14077(15) 0.62121(14)
H61 H 0.7796 0.1636 0.6377
C55 C 0.6689(2) 0.07889(13) 0.64065(13)
O13 O 0.6744(2) 0.23217(13) 0.55739(14)
C56 C 0.7778(5) 0.2690(3) 0.5844(4)
H62 H 0.7794 0.2880 0.6358
H63 H 0.7936 0.3090 0.5624
H64 H 0.8336 0.2359 0.5741
O14 O 0.52962(17) -0.01672(10) 0.63521(11)
C57 C 0.4155(3) -0.04186(17) 0.62366(17)
H65 H 0.4017 -0.0861 0.6398
H66 H 0.3911 -0.0522 0.5730
H67 H 0.3746 -0.0047 0.6502
C58 C 0.7407(2) 0.04817(15) 0.68903(14)
H68 H 0.8188 0.0665 0.6878
H69 H 0.7322 -0.0051 0.6713
C59 C 0.7122(2) 0.06780(14) 0.76506(13)
C60 C 0.6439(2) 0.02036(13) 0.79118(13)
H70 H 0.6154 -0.0256 0.7611
C61 C 0.6162(2) 0.03876(13) 0.86042(13)
C62 C 0.65690(19) 0.10617(13) 0.90549(13)
C63 C 0.7274(2) 0.15263(14) 0.87983(14)
H71 H 0.7578 0.1980 0.9103
C64 C 0.7547(2) 0.13442(14) 0.81042(14)
O15 O 0.82356(16) 0.17888(11) 0.78225(11)
C65 C 0.8568(3) 0.25048(17) 0.8232(2)
H72 H 0.7916 0.2753 0.8332
H73 H 0.9044 0.2763 0.7968
H74 H 0.8974 0.2495 0.8679
O16 O 0.54913(15) -0.00656(10) 0.88902(9)
C66 C 0.4776(3) -0.06302(17) 0.84101(16)
H75 H 0.4343 -0.0428 0.8083
H76 H 0.4278 -0.0871 0.8675
H77 H 0.5213 -0.0981 0.8141
C67 C 0.6190(2) 0.12991(14) 0.97868(13)
H78 H 0.6739 0.1687 1.0088
H79 H 0.6137 0.0886 1.0007
C68 C 0.5080(2) 0.15733(14) 0.97479(12)
C69 C 0.4993(2) 0.22701(14) 0.96801(13)
C70 C 0.3967(2) 0.25079(15) 0.96291(14)
H80 H 0.3922 0.2988 0.9595
C71 C 0.3004(2) 0.20574(15) 0.96274(13)
C72 C 0.3092(2) 0.13576(14) 0.96860(12)
C73 C 0.4122(2) 0.11275(14) 0.97545(12)
H81 H 0.4169 0.0653 0.9807
O17 O 0.21230(15) 0.09255(10) 0.96908(10)
C74 C 0.2198(2) 0.01980(15) 0.97061(16)
H82 H 0.2565 -0.0040 0.9300
H83 H 0.1456 -0.0057 0.9683
H84 H 0.2624 0.0189 1.0146
O18 O 0.59682(16) 0.26924(10) 0.96716(11)
C75 C 0.5918(3) 0.33339(19) 0.9460(2)
H85 H 0.6664 0.3605 0.9511
H86 H 0.5441 0.3643 0.9755
C76 C 0.5434(6) 0.3115(4) 0.8675(4)
O19 O 0.5052(6) 0.3573(3) 0.8418(4)
O20 O 0.5513(6) 0.2456(3) 0.8310(3)
C77 C 0.4995(8) 0.2175(5) 0.7594(4)
H87 H 0.5524 0.1928 0.7290
H88 H 0.4785 0.2580 0.7403
C78 C 0.3988(11) 0.1653(11) 0.7578(9)
H89 H 0.4202 0.1241 0.7745
H90 H 0.3632 0.1481 0.7092
H91 H 0.3472 0.1896 0.7887
C79 C 0.1901(2) 0.23319(16) 0.95524(15)
H92 H 0.1902 0.2792 0.9916
H93 H 0.1314 0.1977 0.9637
C80 C 0.1650(2) 0.24536(15) 0.88209(14)
C81 C 0.1899(2) 0.31247(14) 0.86805(14)
C82 C 0.1663(2) 0.32080(14) 0.80015(14)
H94 H 0.1815 0.3671 0.7915
C83 C 0.1208(2) 0.26252(14) 0.74473(14)
C84 C 0.0983(2) 0.19479(14) 0.75816(15)
C85 C 0.1192(2) 0.18700(15) 0.82647(15)
H95 H 0.1019 0.1410 0.8354
O21 O 0.05569(17) 0.13944(11) 0.70130(11)
C86 C 0.0469(3) 0.06836(17) 0.7110(2)
H96 H 0.1194 0.0584 0.7280
H97 H 0.0205 0.0334 0.6659
H98 H -0.0052 0.0642 0.7460
O22 O 0.23858(18) 0.36827(11) 0.92391(10)
C87 C 0.2798(3) 0.43327(17) 0.90755(18)
H99 H 0.3308 0.4227 0.8711
H100 H 0.3187 0.4670 0.9503
H101 H 0.2183 0.4550 0.8900
C88 C 0.1003(2) 0.27181(15) 0.67031(14)
H102 H 0.0289 0.2438 0.6478
H103 H 0.0955 0.3234 0.6728
C89 C 0.1911(2) 0.24654(14) 0.62529(13)
C90 C 0.2919(2) 0.28855(14) 0.63342(14)
C91 C 0.3762(2) 0.26310(15) 0.59434(14)
H104 H 0.4452 0.2926 0.6005
C92 C 0.3621(2) 0.19555(15) 0.54652(13)
C93 C 0.2608(2) 0.15359(15) 0.53812(13)
C94 C 0.1763(2) 0.17879(15) 0.57687(13)
H105 H 0.1072 0.1495 0.5704
O23 O 0.3003(2) 0.35574(12) 0.67991(13)
C95 C 0.4051(4) 0.3928(2) 0.7041(2)
H106 H 0.4502 0.3619 0.7239
H107 H 0.3991 0.4368 0.7409
H108 H 0.4397 0.4059 0.6646
O24 O 0.25162(18) 0.08632(11) 0.49074(11)
C96 C 0.1500(3) 0.0427(2) 0.4807(2)
H109 H 0.1326 0.0327 0.5258
H110 H 0.1539 -0.0029 0.4457
H111 H 0.0923 0.0678 0.4637
C97 C 0.4578(2) 0.16856(17) 0.50739(14)
H112 H 0.4293 0.1307 0.4638
H113 H 0.4993 0.2089 0.4933
H55? H 0.0536 0.3363 0.2526
H56? H -0.0613 0.3384 0.2898
C49? C 0.0577(12) 0.4179(7) 0.3394(8)
H57? H 0.1304 0.4337 0.3267
H58? H 0.0631 0.4176 0.3895
H59? H 0.0059 0.4512 0.3311
H114? H 0.4010 -0.0860 0.6407
H115? H 0.3911 -0.0542 0.5723
H116? H 0.6666 0.3579 0.9480
H117? H 0.5489 0.3650 0.9778
H118? H 0.5564 0.3222 0.8974
C98? C 0.3539(6) 0.0141(4) 0.6615(4)
O25? O 0.2582(5) 0.0164(4) 0.6435(3)
O26? O 0.4107(4) 0.0577(3) 0.7199(3)
C99? C 0.3636(10) 0.1195(6) 0.7603(7)
H119? H 0.3615 0.1162 0.8099
H120? H 0.2868 0.1183 0.7401
C100? C 0.4285(16) 0.1895(8) 0.7595(10)
H121? H 0.5026 0.1928 0.7833
H122? H 0.3914 0.2298 0.7842
H123? H 0.4339 0.1919 0.7103
loop_
_geom_bond_atom_site_label_1
_geom_bond_atom_site_label_2
_geom_bond_site_symmetry_1
_geom_bond_site_symmetry_2
C1 C2 1_555 1_555
C2 H1 1_555 1_555
C3 C2 1_555 1_555
C4 C3 1_555 1_555
C5 C4 1_555 1_555
H2 C5 1_555 1_555
C6 C1 1_555 1_555
O1 C4 1_555 1_555
C7 O1 1_555 1_555
H3 C7 1_555 1_555
H4 C7 1_555 1_555
H5 C7 1_555 1_555
O2 C1 1_555 1_555
C8 O2 1_555 1_555
H6 C8 1_555 1_555
H7 C8 1_555 1_555
H8 C8 1_555 1_555
C9 C6 1_555 1_555
H9 C9 1_555 1_555
H10 C9 1_555 1_555
C10 C9 1_555 1_555
C11 C10 1_555 1_555
H11 C11 1_555 1_555
C12 C11 1_555 1_555
C13 C12 1_555 1_555
C14 C13 1_555 1_555
H12 C14 1_555 1_555
C15 C10 1_555 1_555
O3 C15 1_555 1_555
C16 O3 1_555 1_555
H13 C16 1_555 1_555
H14 C16 1_555 1_555
H15 C16 1_555 1_555
O4 C12 1_555 1_555
C17 O4 1_555 1_555
H16 C17 1_555 1_555
H17 C17 1_555 1_555
H18 C17 1_555 1_555
C18 C13 1_555 1_555
H19 C18 1_555 1_555
H20 C18 1_555 1_555
C19 C18 1_555 1_555
C20 C19 1_555 1_555
C21 C20 1_555 1_555
H21 C21 1_555 1_555
C22 C21 1_555 1_555
C23 C22 1_555 1_555
C24 C19 1_555 1_555
H22 C24 1_555 1_555
O5 C20 1_555 1_555
C25 O5 1_555 1_555
H23 C25 1_555 1_555
H24 C25 1_555 1_555
H25 C25 1_555 1_555
O6 C23 1_555 1_555
C26 O6 1_555 1_555
H26 C26 1_555 1_555
H27 C26 1_555 1_555
C27 C26 1_555 1_555
O7 C27 1_555 1_555
O8 C27 1_555 1_555
C28 O7 1_555 1_555
H28 C28 1_555 1_555
H29 C28 1_555 1_555
C29 C28 1_555 1_555
H30 C29 1_555 1_555
H31 C29 1_555 1_555
H32 C29 1_555 1_555
C30 C22 1_555 1_555
H33 C30 1_555 1_555
H34 C30 1_555 1_555
C31 C30 1_555 1_555
C32 C31 1_555 1_555
C33 C32 1_555 1_555
H35 C33 1_555 1_555
C34 C33 1_555 1_555
C35 C34 1_555 1_555
C36 C31 1_555 1_555
H36 C36 1_555 1_555
O9 C35 1_555 1_555
C37 O9 1_555 1_555
H37 C37 1_555 1_555
H38 C37 1_555 1_555
H39 C37 1_555 1_555
O10 C32 1_555 1_555
C38 O10 1_555 1_555
H40 C38 1_555 1_555
H41 C38 1_555 1_555
H42 C38 1_555 1_555
C39 C34 1_555 1_555
H43 C39 1_555 1_555
H44 C39 1_555 1_555
C40 C39 1_555 1_555
C41 C40 1_555 1_555
C42 C41 1_555 1_555
H45 C42 1_555 1_555
C43 C42 1_555 1_555
C44 C43 1_555 1_555
C45 C40 1_555 1_555
H46 C45 1_555 1_555
O11 C41 1_555 1_555
C46 O11 1_555 1_555
H47 C46 1_555 1_555
H48 C46 1_555 1_555
H49 C46 1_555 1_555
O12 C44 1_555 1_555
C47 O12 1_555 1_555
H50 C47 1_555 1_555
H51 C47 1_555 1_555
H52 C47 1_555 1_555
C48 C3 1_555 1_555
H53 C48 1_555 1_555
H54 C48 1_555 1_555
C50 C51 1_555 1_555
C51 H60 1_555 1_555
C52 C51 1_555 1_555
C53 C52 1_555 1_555
C54 C53 1_555 1_555
H61 C54 1_555 1_555
C55 C50 1_555 1_555
O13 C53 1_555 1_555
C56 O13 1_555 1_555
H62 C56 1_555 1_555
H63 C56 1_555 1_555
H64 C56 1_555 1_555
O14 C50 1_555 1_555
C57 O14 1_555 1_555
H65 C57 1_555 1_555
H66 C57 1_555 1_555
H67 C57 1_555 1_555
C58 C55 1_555 1_555
H68 C58 1_555 1_555
H69 C58 1_555 1_555
C59 C58 1_555 1_555
C60 C59 1_555 1_555
H70 C60 1_555 1_555
C61 C60 1_555 1_555
C62 C61 1_555 1_555
C63 C62 1_555 1_555
H71 C63 1_555 1_555
C64 C59 1_555 1_555
O15 C64 1_555 1_555
C65 O15 1_555 1_555
H72 C65 1_555 1_555
H73 C65 1_555 1_555
H74 C65 1_555 1_555
O16 C61 1_555 1_555
C66 O16 1_555 1_555
H75 C66 1_555 1_555
H76 C66 1_555 1_555
H77 C66 1_555 1_555
C67 C62 1_555 1_555
H78 C67 1_555 1_555
H79 C67 1_555 1_555
C68 C67 1_555 1_555
C69 C68 1_555 1_555
C70 C69 1_555 1_555
H80 C70 1_555 1_555
C71 C70 1_555 1_555
C72 C71 1_555 1_555
C73 C68 1_555 1_555
H81 C73 1_555 1_555
O17 C72 1_555 1_555
C74 O17 1_555 1_555
H82 C74 1_555 1_555
H83 C74 1_555 1_555
H84 C74 1_555 1_555
O18 C69 1_555 1_555
C75 O18 1_555 1_555
H85 C75 1_555 1_555
H86 C75 1_555 1_555
C76 C75 1_555 1_555
O19 C76 1_555 1_555
O20 C76 1_555 1_555
C77 O20 1_555 1_555
H87 C77 1_555 1_555
H88 C77 1_555 1_555
C78 C77 1_555 1_555
H89 C78 1_555 1_555
H90 C78 1_555 1_555
H91 C78 1_555 1_555
C79 C71 1_555 1_555
H92 C79 1_555 1_555
H93 C79 1_555 1_555
C80 C79 1_555 1_555
C81 C80 1_555 1_555
C82 C81 1_555 1_555
H94 C82 1_555 1_555
C83 C82 1_555 1_555
C84 C83 1_555 1_555
C85 C80 1_555 1_555
H95 C85 1_555 1_555
O21 C84 1_555 1_555
C86 O21 1_555 1_555
H96 C86 1_555 1_555
H97 C86 1_555 1_555
H98 C86 1_555 1_555
O22 C81 1_555 1_555
C87 O22 1_555 1_555
H99 C87 1_555 1_555
H100 C87 1_555 1_555
H101 C87 1_555 1_555
C88 C83 1_555 1_555
H102 C88 1_555 1_555
H103 C88 1_555 1_555
C89 C88 1_555 1_555
C90 C89 1_555 1_555
C91 C90 1_555 1_555
H104 C91 1_555 1_555
C92 C91 1_555 1_555
C93 C92 1_555 1_555
C94 C89 1_555 1_555
H105 C94 1_555 1_555
O23 C90 1_555 1_555
C95 O23 1_555 1_555
H106 C95 1_555 1_555
H107 C95 1_555 1_555
H108 C95 1_555 1_555
O24 C93 1_555 1_555
C96 O24 1_555 1_555
H109 C96 1_555 1_555
H110 C96 1_555 1_555
H111 C96 1_555 1_555
C97 C52 1_555 1_555
H112 C97 1_555 1_555
H113 C97 1_555 1_555
C5 C6 1_555 1_555
C14 C15 1_555 1_555
C23 C24 1_555 1_555
C35 C36 1_555 1_555
C43 C48 1_555 1_555
C44 C45 1_555 1_555
C54 C55 1_555 1_555
C63 C64 1_555 1_555
C72 C73 1_555 1_555
C84 C85 1_555 1_555
C92 C97 1_555 1_555
C93 C94 1_555 1_555

#END
