
#######################################################################
#
#                 Cambridge Crystallographic Data Centre
#                                CCDC 
#
#######################################################################
#
# If this CIF has been generated from an entry in the Cambridge 
# Structural Database, then it will include bibliographic, chemical, 
# crystal, experimental, refinement or atomic coordinate data resulting 
# from the CCDC's data processing and validation procedures.
#
#######################################################################

data_FEWMIF
_chemical_formula_moiety         'C21 H15 N1 O2'
_chemical_name_systematic        
(2-(1,3-Benzoxazol-2-yl)-4-methylphenyl)(phenyl)methanone
_symmetry_cell_setting           triclinic
_symmetry_space_group_name_H-M   'P -1'
_symmetry_Int_Tables_number      2
_space_group_name_Hall           '-P 1'
loop_
_symmetry_equiv_pos_site_id
_symmetry_equiv_pos_as_xyz
1 x,y,z
2 -x,-y,-z
_cell_length_a                   8.1890(7)
_cell_length_b                   9.9514(5)
_cell_length_c                   11.5319(9)
_cell_angle_alpha                78.067(5)
_cell_angle_beta                 70.628(7)
_cell_angle_gamma                68.915(6)
_cell_volume                     823.105
_cell_formula_units_Z            2
loop_
_atom_site_label
_atom_site_type_symbol
_atom_site_fract_x
_atom_site_fract_y
_atom_site_fract_z
O1 O -0.18735(17) 1.33058(16) 0.71494(14)
O2 O 0.38853(16) 0.86918(12) 0.60929(11)
N1 N 0.16055(17) 1.00638(14) 0.74852(13)
C1 C 0.0618(3) 1.3599(2) 0.8212(2)
H1 H -0.0521 1.3621 0.8752
C2 C 0.1838(4) 1.3945(3) 0.8594(3)
H2 H 0.1530 1.4173 0.9397
C3 C 0.3511(3) 1.3951(3) 0.7786(3)
H3 H 0.4318 1.4205 0.8040
C4 C 0.3982(3) 1.3584(2) 0.6616(2)
H4 H 0.5110 1.3590 0.6072
C5 C 0.2790(2) 1.32050(19) 0.62358(19)
H5 H 0.3131 1.2937 0.5442
C6 C 0.1089(2) 1.32202(17) 0.70281(16)
C7 C -0.0250(2) 1.28808(17) 0.66179(17)
C8 C 0.0403(2) 1.21316(18) 0.54717(16)
C9 C -0.0292(3) 1.2869(2) 0.4492(2)
H6 H -0.1214 1.3754 0.4598
C10 C 0.0353(3) 1.2320(2) 0.3362(2)
H7 H -0.0140 1.2843 0.2723
C11 C 0.1719(3) 1.1006(2) 0.31609(18)
C12 C 0.2357(2) 1.02332(19) 0.41548(17)
H8 H 0.3238 0.9329 0.4052
C13 C 0.1727(2) 1.07629(17) 0.52959(15)
C14 C 0.2373(2) 0.98658(16) 0.63262(16)
C15 C 0.2696(2) 0.89336(17) 0.81065(16)
C16 C 0.4090(2) 0.80953(17) 0.72478(15)
C17 C 0.5411(2) 0.68924(19) 0.75625(18)
H9 H 0.6344 0.6331 0.6972
C18 C 0.5271(3) 0.6567(2) 0.88035(19)
H10 H 0.6145 0.5769 0.9060
C19 C 0.3876(3) 0.7389(2) 0.96748(19)
H11 H 0.3824 0.7125 1.0505
C20 C 0.2553(3) 0.8591(2) 0.93503(17)
H12 H 0.1610 0.9146 0.9941
C21 C 0.2500(4) 1.0423(3) 0.1927(2)
H13 H 0.1858 1.1063 0.1362
H14 H 0.2375 0.9482 0.2010
H15 H 0.3768 1.0350 0.1617
loop_
_geom_bond_atom_site_label_1
_geom_bond_atom_site_label_2
_geom_bond_site_symmetry_1
_geom_bond_site_symmetry_2
O1 C7 1_555 1_555
O2 C14 1_555 1_555
N1 C14 1_555 1_555
C1 H1 1_555 1_555
C2 C1 1_555 1_555
H2 C2 1_555 1_555
C3 C2 1_555 1_555
H3 C3 1_555 1_555
C4 C3 1_555 1_555
H4 C4 1_555 1_555
C5 C4 1_555 1_555
H5 C5 1_555 1_555
C6 C1 1_555 1_555
C7 C6 1_555 1_555
C8 C7 1_555 1_555
C9 C8 1_555 1_555
H6 C9 1_555 1_555
C10 C9 1_555 1_555
H7 C10 1_555 1_555
C11 C10 1_555 1_555
C12 C11 1_555 1_555
H8 C12 1_555 1_555
C13 C8 1_555 1_555
C14 C13 1_555 1_555
C15 N1 1_555 1_555
C16 O2 1_555 1_555
C17 C16 1_555 1_555
H9 C17 1_555 1_555
C18 C17 1_555 1_555
H10 C18 1_555 1_555
C19 C18 1_555 1_555
H11 C19 1_555 1_555
C20 C15 1_555 1_555
H12 C20 1_555 1_555
C21 C11 1_555 1_555
H13 C21 1_555 1_555
H14 C21 1_555 1_555
H15 C21 1_555 1_555
C5 C6 1_555 1_555
C12 C13 1_555 1_555
C15 C16 1_555 1_555
C19 C20 1_555 1_555

#END
