
#######################################################################
#
#                 Cambridge Crystallographic Data Centre
#                                CCDC 
#
#######################################################################
#
# If this CIF has been generated from an entry in the Cambridge 
# Structural Database, then it will include bibliographic, chemical, 
# crystal, experimental, refinement or atomic coordinate data resulting 
# from the CCDC's data processing and validation procedures.
#
#######################################################################

data_FEWNUS
_chemical_formula_moiety         'C19 H16 N2 O3'
_chemical_name_systematic        
'Methyl (2-(4-benzoyl-1H-pyrrol-3-yl)phenyl)carbamate'
_symmetry_cell_setting           monoclinic
_symmetry_space_group_name_H-M   'P 21/n'
_symmetry_Int_Tables_number      14
_space_group_name_Hall           '-P 2yn'
loop_
_symmetry_equiv_pos_site_id
_symmetry_equiv_pos_as_xyz
1 x,y,z
2 1/2-x,1/2+y,1/2-z
3 -x,-y,-z
4 1/2+x,1/2-y,1/2+z
_cell_length_a                   13.611(4)
_cell_length_b                   7.2333(16)
_cell_length_c                   17.110(5)
_cell_angle_alpha                90
_cell_angle_beta                 110.804(6)
_cell_angle_gamma                90
_cell_volume                     1574.69
_exptl_crystal_colour            colorless
_exptl_crystal_description       block
_cell_formula_units_Z            4
loop_
_atom_site_label
_atom_site_type_symbol
_atom_site_fract_x
_atom_site_fract_y
_atom_site_fract_z
O1 O 0.6462(2) 0.3092(3) 0.01918(15)
O2 O 0.9801(2) 0.4073(3) 0.21750(16)
O3 O 1.0344(2) 0.2068(4) 0.14025(19)
N1 N 0.6916(2) 0.9257(3) 0.00310(16)
N2 N 0.9044(2) 0.4186(4) 0.0815(2)
H1 H 0.879(3) 0.516(3) 0.096(2)
C1 C 0.6865(2) 0.6261(4) 0.03119(18)
C2 C 0.6560(3) 0.8010(4) 0.04583(19)
H2 H 0.6173 0.8286 0.0795
C3 C 0.7464(3) 0.8335(4) -0.0387(2)
H3 H 0.7796 0.8885 -0.0718
C4 C 0.7445(3) 0.6475(4) -0.02381(19)
C5 C 0.6547(2) 0.4532(4) 0.05981(19)
C6 C 0.6355(2) 0.4511(4) 0.13995(19)
C7 C 0.6944(2) 0.5581(4) 0.20771(19)
H4 H 0.7440 0.6402 0.2020
C8 C 0.6802(3) 0.5437(5) 0.2834(2)
H5 H 0.7215 0.6137 0.3287
C9 C 0.6050(3) 0.4263(5) 0.2922(2)
H6 H 0.5955 0.4171 0.3432
C10 C 0.5442(3) 0.3230(5) 0.2251(2)
H7 H 0.4923 0.2461 0.2305
C11 C 0.5595(3) 0.3325(4) 0.1495(2)
H8 H 0.5192 0.2596 0.1049
C12 C 0.7952(3) 0.5031(4) -0.0572(2)
C13 C 0.7658(3) 0.4794(5) -0.1430(2)
H9 H 0.7146 0.5563 -0.1786
C14 C 0.8105(4) 0.3445(6) -0.1773(3)
H10 H 0.7903 0.3317 -0.2350
C15 C 0.8850(4) 0.2307(6) -0.1247(3)
H11 H 0.9140 0.1375 -0.1471
C16 C 0.9179(3) 0.2511(5) -0.0392(3)
H12 H 0.9694 0.1734 -0.0044
C17 C 0.8739(3) 0.3886(4) -0.0052(2)
C18 C 0.9791(3) 0.3325(5) 0.1454(3)
C19 C 1.0540(3) 0.3320(6) 0.2934(3)
H13 H 1.0443 0.2006 0.2943
H14 H 1.0429 0.3871 0.3406
H15 H 1.1243 0.3579 0.2959
loop_
_geom_bond_atom_site_label_1
_geom_bond_atom_site_label_2
_geom_bond_site_symmetry_1
_geom_bond_site_symmetry_2
O1 C5 1_555 1_555
O2 C18 1_555 1_555
O3 C18 1_555 1_555
N1 C2 1_555 1_555
N2 H1 1_555 1_555
C1 C2 1_555 1_555
C2 H2 1_555 1_555
C3 N1 1_555 1_555
H3 C3 1_555 1_555
C4 C1 1_555 1_555
C5 C1 1_555 1_555
C6 C5 1_555 1_555
C7 C6 1_555 1_555
H4 C7 1_555 1_555
C8 C7 1_555 1_555
H5 C8 1_555 1_555
C9 C8 1_555 1_555
H6 C9 1_555 1_555
C10 C9 1_555 1_555
H7 C10 1_555 1_555
C11 C6 1_555 1_555
H8 C11 1_555 1_555
C12 C4 1_555 1_555
C13 C12 1_555 1_555
H9 C13 1_555 1_555
C14 C13 1_555 1_555
H10 C14 1_555 1_555
C15 C14 1_555 1_555
H11 C15 1_555 1_555
C16 C15 1_555 1_555
H12 C16 1_555 1_555
C17 N2 1_555 1_555
C18 N2 1_555 1_555
C19 O2 1_555 1_555
H13 C19 1_555 1_555
H14 C19 1_555 1_555
H15 C19 1_555 1_555
C3 C4 1_555 1_555
C10 C11 1_555 1_555
C12 C17 1_555 1_555
C16 C17 1_555 1_555

#END
