
#######################################################################
#
#                 Cambridge Crystallographic Data Centre
#                                CCDC 
#
#######################################################################
#
# If this CIF has been generated from an entry in the Cambridge 
# Structural Database, then it will include bibliographic, chemical, 
# crystal, experimental, refinement or atomic coordinate data resulting 
# from the CCDC's data processing and validation procedures.
#
#######################################################################

data_FEWRUX
_chemical_formula_moiety         'C21 H20 B1 F2 N1 O2'
_chemical_name_systematic        
3-(2,2-difluoro-5,6,7,8-tetrahydro-2H-2,3-benzo[d][1,3,2]dioxaborinin-4-yl)-9-ethyl-9H-carbazole
_symmetry_cell_setting           triclinic
_symmetry_space_group_name_H-M   'P -1'
_symmetry_Int_Tables_number      2
_space_group_name_Hall           '-P 1'
loop_
_symmetry_equiv_pos_site_id
_symmetry_equiv_pos_as_xyz
1 x,y,z
2 -x,-y,-z
_cell_length_a                   8.6624(10)
_cell_length_b                   8.9851(11)
_cell_length_c                   12.5275(17)
_cell_angle_alpha                78.987(6)
_cell_angle_beta                 69.872(4)
_cell_angle_gamma                81.545(4)
_cell_volume                     895.134
_exptl_crystal_colour            yellow
_exptl_crystal_description       block
_cell_formula_units_Z            2
loop_
_atom_site_label
_atom_site_type_symbol
_atom_site_fract_x
_atom_site_fract_y
_atom_site_fract_z
B1 B -0.1181(3) 0.3263(2) 0.85691(19)
F1 F -0.08135(16) 0.21696(13) 0.78677(10)
F2 F -0.26365(14) 0.40872(14) 0.85904(11)
O1 O -0.12996(16) 0.25280(15) 0.97462(11)
O2 O 0.01482(14) 0.42975(13) 0.81260(10)
N1 N 0.61614(17) 0.79222(16) 0.54747(12)
C1 C -0.0048(2) 0.24202(19) 1.01238(15)
C2 C -0.0332(3) 0.1431(2) 1.12694(16)
H1 H -0.0406 0.0397 1.1182
H2 H -0.1382 0.1777 1.1795
C3 C 0.1003(3) 0.1423(2) 1.17955(17)
H3 H 0.0840 0.2336 1.2141
H4 H 0.0950 0.0548 1.2392
C4 C 0.2667(3) 0.1355(2) 1.08688(17)
H5 H 0.2795 0.0480 1.0486
H6 H 0.3535 0.1243 1.1210
C5 C 0.2811(2) 0.2811(2) 0.99946(16)
H7 H 0.2854 0.3660 1.0356
H8 H 0.3833 0.2714 0.9361
C6 C 0.1376(2) 0.31406(18) 0.95298(14)
C7 C 0.1401(2) 0.41511(17) 0.85076(14)
C8 C 0.2701(2) 0.51201(17) 0.77775(14)
C9 C 0.2759(2) 0.56304(17) 0.66345(14)
H9 H 0.1993 0.5338 0.6363
C10 C 0.39469(19) 0.65642(17) 0.59103(14)
C11 C 0.43413(19) 0.72785(17) 0.47215(14)
C12 C 0.3669(2) 0.73049(19) 0.38537(15)
H10 H 0.2780 0.6748 0.3985
C13 C 0.4341(2) 0.8170(2) 0.27976(16)
H11 H 0.3887 0.8209 0.2218
C14 C 0.5686(2) 0.8984(2) 0.25888(16)
H12 H 0.6113 0.9562 0.1870
C15 C 0.6406(2) 0.8958(2) 0.34206(16)
H13 H 0.7320 0.9489 0.3272
C16 C 0.5710(2) 0.81056(18) 0.44863(15)
C17 C 0.5111(2) 0.70020(18) 0.63346(14)
C18 C 0.5063(2) 0.65202(19) 0.74664(15)
H14 H 0.5821 0.6820 0.7741
C19 C 0.3871(2) 0.55916(19) 0.81704(15)
H15 H 0.3832 0.5263 0.8929
C20 C 0.7556(2) 0.8552(2) 0.55653(18)
H16 H 0.7291 0.8763 0.6343
H17 H 0.7744 0.9509 0.5048
C21 C 0.9104(3) 0.7503(4) 0.5281(2)
H18 H 0.8933 0.6563 0.5801
H19 H 0.9986 0.7968 0.5352
H20 H 0.9385 0.7307 0.4506
loop_
_geom_bond_atom_site_label_1
_geom_bond_atom_site_label_2
_geom_bond_site_symmetry_1
_geom_bond_site_symmetry_2
B1 F1 1_555 1_555
F2 B1 1_555 1_555
O1 B1 1_555 1_555
O2 B1 1_555 1_555
N1 C16 1_555 1_555
C1 O1 1_555 1_555
C2 C1 1_555 1_555
H1 C2 1_555 1_555
H2 C2 1_555 1_555
C3 C2 1_555 1_555
H3 C3 1_555 1_555
H4 C3 1_555 1_555
C4 C3 1_555 1_555
H5 C4 1_555 1_555
H6 C4 1_555 1_555
C5 C4 1_555 1_555
H7 C5 1_555 1_555
H8 C5 1_555 1_555
C6 C1 1_555 1_555
C7 O2 1_555 1_555
C8 C7 1_555 1_555
C9 C8 1_555 1_555
H9 C9 1_555 1_555
C10 C9 1_555 1_555
C11 C10 1_555 1_555
C12 C11 1_555 1_555
H10 C12 1_555 1_555
C13 C12 1_555 1_555
H11 C13 1_555 1_555
C14 C13 1_555 1_555
H12 C14 1_555 1_555
C15 C14 1_555 1_555
H13 C15 1_555 1_555
C16 C11 1_555 1_555
C17 N1 1_555 1_555
C18 C17 1_555 1_555
H14 C18 1_555 1_555
C19 C8 1_555 1_555
H15 C19 1_555 1_555
C20 N1 1_555 1_555
H16 C20 1_555 1_555
H17 C20 1_555 1_555
C21 C20 1_555 1_555
H18 C21 1_555 1_555
H19 C21 1_555 1_555
H20 C21 1_555 1_555
C5 C6 1_555 1_555
C6 C7 1_555 1_555
C10 C17 1_555 1_555
C15 C16 1_555 1_555
C18 C19 1_555 1_555

#END
