
#######################################################################
#
#                 Cambridge Crystallographic Data Centre
#                                CCDC 
#
#######################################################################
#
# If this CIF has been generated from an entry in the Cambridge 
# Structural Database, then it will include bibliographic, chemical, 
# crystal, experimental, refinement or atomic coordinate data resulting 
# from the CCDC's data processing and validation procedures.
#
#######################################################################

data_FEWSAE
_chemical_formula_moiety         'C14 H15 N1 O3 S1'
_chemical_name_systematic        
6-[(4-methylphenyl)sulfonyl]-6-azabicyclo[3.2.1]oct-3-en-7-one
_symmetry_cell_setting           triclinic
_symmetry_space_group_name_H-M   'P -1'
_symmetry_Int_Tables_number      2
_space_group_name_Hall           '-P 1'
loop_
_symmetry_equiv_pos_site_id
_symmetry_equiv_pos_as_xyz
1 x,y,z
2 -x,-y,-z
_cell_length_a                   5.9518(2)
_cell_length_b                   7.8628(3)
_cell_length_c                   15.4677(5)
_cell_angle_alpha                86.5960(10)
_cell_angle_beta                 86.9480(10)
_cell_angle_gamma                68.8200(10)
_cell_volume                     673.374
_exptl_crystal_colour            colorless
_exptl_crystal_description       prismatic
_cell_formula_units_Z            2
loop_
_atom_site_label
_atom_site_type_symbol
_atom_site_fract_x
_atom_site_fract_y
_atom_site_fract_z
S1 S 0.17945(8) 0.35592(6) 0.78561(3)
N1 N 0.2020(3) 0.5567(2) 0.79832(9)
O1 O -0.0758(2) 0.72987(19) 0.69958(9)
O2 O 0.3374(3) 0.23481(19) 0.84714(9)
O3 O -0.0670(2) 0.3743(2) 0.78797(10)
C1 C 0.0582(3) 0.7193(2) 0.75689(11)
C2 C 0.1071(4) 0.8710(3) 0.79900(12)
H1 H 0.1003 0.9720 0.7577
C3 C -0.0733(4) 0.9334(3) 0.87512(15)
H2 H -0.0684 1.0465 0.8952
H3 H -0.2346 0.9574 0.8556
C4 C -0.0222(5) 0.7960(4) 0.94776(14)
H4 H -0.1272 0.8206 0.9960
C5 C 0.1607(5) 0.6428(4) 0.94841(13)
H5 H 0.1863 0.5624 0.9966
C6 C 0.3297(4) 0.5969(3) 0.87084(13)
H6 H 0.4839 0.4992 0.8831
C7 C 0.3587(4) 0.7728(3) 0.83226(14)
H7 H 0.3970 0.8405 0.8760
H8 H 0.4806 0.7481 0.7857
C8 C 0.3008(3) 0.3034(2) 0.68030(11)
C9 C 0.5470(4) 0.2324(3) 0.66675(13)
H9 H 0.6492 0.2077 0.7131
C10 C 0.6397(4) 0.1984(3) 0.58300(15)
H10 H 0.8060 0.1502 0.5736
C11 C 0.4929(4) 0.2340(3) 0.51325(12)
C12 C 0.2471(4) 0.3003(3) 0.52929(13)
H11 H 0.1447 0.3211 0.4833
C13 C 0.1496(3) 0.3365(3) 0.61204(12)
H12 H -0.0167 0.3829 0.6216
C14 C 0.5967(5) 0.2035(4) 0.42210(15)
H13 H 0.5105 0.1457 0.3910
H14 H 0.7638 0.1266 0.4236
H15 H 0.5819 0.3187 0.3936
loop_
_geom_bond_atom_site_label_1
_geom_bond_atom_site_label_2
_geom_bond_site_symmetry_1
_geom_bond_site_symmetry_2
S1 N1 1_555 1_555
N1 C1 1_555 1_555
O1 C1 1_555 1_555
O2 S1 1_555 1_555
O3 S1 1_555 1_555
C1 C2 1_555 1_555
C2 H1 1_555 1_555
C3 C2 1_555 1_555
H2 C3 1_555 1_555
H3 C3 1_555 1_555
C4 C3 1_555 1_555
H4 C4 1_555 1_555
C5 C4 1_555 1_555
H5 C5 1_555 1_555
C6 N1 1_555 1_555
H6 C6 1_555 1_555
C7 C2 1_555 1_555
H7 C7 1_555 1_555
H8 C7 1_555 1_555
C8 S1 1_555 1_555
C9 C8 1_555 1_555
H9 C9 1_555 1_555
C10 C9 1_555 1_555
H10 C10 1_555 1_555
C11 C10 1_555 1_555
C12 C11 1_555 1_555
H11 C12 1_555 1_555
C13 C8 1_555 1_555
H12 C13 1_555 1_555
C14 C11 1_555 1_555
H13 C14 1_555 1_555
H14 C14 1_555 1_555
H15 C14 1_555 1_555
C5 C6 1_555 1_555
C6 C7 1_555 1_555
C12 C13 1_555 1_555

#END
