
#######################################################################
#
#                 Cambridge Crystallographic Data Centre
#                                CCDC 
#
#######################################################################
#
# If this CIF has been generated from an entry in the Cambridge 
# Structural Database, then it will include bibliographic, chemical, 
# crystal, experimental, refinement or atomic coordinate data resulting 
# from the CCDC's data processing and validation procedures.
#
#######################################################################

data_FEXCIV
_chemical_formula_moiety         'C14 H7 I1 N2 O4'
_chemical_name_systematic        N-(3-Iodophenyl)-4-nitrophthalimide
_symmetry_cell_setting           monoclinic
_symmetry_space_group_name_H-M   'P 21/c'
_symmetry_Int_Tables_number      14
_space_group_name_Hall           '-P 2ybc'
loop_
_symmetry_equiv_pos_site_id
_symmetry_equiv_pos_as_xyz
1 x,y,z
2 -x,1/2+y,1/2-z
3 -x,-y,-z
4 x,1/2-y,1/2+z
_cell_length_a                   7.9592(9)
_cell_length_b                   6.5708(7)
_cell_length_c                   25.648(3)
_cell_angle_alpha                90
_cell_angle_beta                 97.960(3)
_cell_angle_gamma                90
_cell_volume                     1328.42
_exptl_crystal_colour            brown
_exptl_crystal_description       plate
_cell_formula_units_Z            4
loop_
_atom_site_label
_atom_site_type_symbol
_atom_site_fract_x
_atom_site_fract_y
_atom_site_fract_z
N1 N 0.2572(4) 0.3057(5) 0.23850(13)
C1 C 0.3679(6) 0.3800(7) 0.28155(19)
O1 O 0.4498(4) 0.5353(6) 0.28135(13)
C2 C 0.1811(5) 0.1229(7) 0.25127(18)
O2 O 0.0761(4) 0.0303(5) 0.22220(12)
C3 C 0.2518(5) 0.0768(7) 0.30601(17)
C4 C 0.2227(6) -0.0859(7) 0.3380(2)
C5 C 0.3031(6) -0.0746(8) 0.3891(2)
N2 N 0.2700(6) -0.2417(8) 0.4253(2)
O3 O 0.3144(5) -0.2137(7) 0.47317(17)
O4 O 0.2001(6) -0.3948(7) 0.40603(19)
C6 C 0.4063(6) 0.0804(9) 0.4095(2)
C7 C 0.4379(6) 0.2369(8) 0.3764(2)
C8 C 0.3598(6) 0.2327(7) 0.32509(18)
C9 C 0.2265(5) 0.3960(7) 0.18761(18)
C10 C 0.2393(5) 0.2767(7) 0.14373(17)
C11 C 0.1986(5) 0.3555(7) 0.09433(17)
C12 C 0.1423(6) 0.5562(8) 0.0878(2)
C13 C 0.1326(5) 0.6747(8) 0.1317(2)
C14 C 0.1756(5) 0.5957(7) 0.1812(2)
I1 I 0.21726(5) 0.16750(6) 0.029415(13)
H1 H 0.1537 -0.1950 0.3259
H2 H 0.4538 0.0803 0.4447
H3 H 0.5104 0.3429 0.3885
H4 H 0.2758 0.1425 0.1480
H5 H 0.1117 0.6094 0.0543
H6 H 0.0966 0.8092 0.1276
H7 H 0.1704 0.6773 0.2106
loop_
_geom_bond_atom_site_label_1
_geom_bond_atom_site_label_2
_geom_bond_site_symmetry_1
_geom_bond_site_symmetry_2
N1 C1 1_555 1_555
C1 O1 1_555 1_555
C2 N1 1_555 1_555
O2 C2 1_555 1_555
C3 C2 1_555 1_555
C4 C3 1_555 1_555
C5 C4 1_555 1_555
N2 C5 1_555 1_555
O3 N2 1_555 1_555
O4 N2 1_555 1_555
C6 C5 1_555 1_555
C7 C6 1_555 1_555
C8 C1 1_555 1_555
C9 N1 1_555 1_555
C10 C9 1_555 1_555
C11 C10 1_555 1_555
C12 C11 1_555 1_555
C13 C12 1_555 1_555
C14 C9 1_555 1_555
I1 C11 1_555 1_555
H1 C4 1_555 1_555
H2 C6 1_555 1_555
H3 C7 1_555 1_555
H4 C10 1_555 1_555
H5 C12 1_555 1_555
H6 C13 1_555 1_555
H7 C14 1_555 1_555
C3 C8 1_555 1_555
C7 C8 1_555 1_555
C13 C14 1_555 1_555

#END
