
#######################################################################
#
#                 Cambridge Crystallographic Data Centre
#                                CCDC 
#
#######################################################################
#
# If this CIF has been generated from an entry in the Cambridge 
# Structural Database, then it will include bibliographic, chemical, 
# crystal, experimental, refinement or atomic coordinate data resulting 
# from the CCDC's data processing and validation procedures.
#
#######################################################################

data_FEXCUH
_chemical_formula_moiety         'C14 H7 I1 N2 O4'
_chemical_name_systematic        N-(4-Iodophenyl)-3-nitrophthalimide
_symmetry_cell_setting           monoclinic
_symmetry_space_group_name_H-M   'P 21/n'
_symmetry_Int_Tables_number      14
_space_group_name_Hall           '-P 2yn'
loop_
_symmetry_equiv_pos_site_id
_symmetry_equiv_pos_as_xyz
1 x,y,z
2 1/2-x,1/2+y,1/2-z
3 -x,-y,-z
4 1/2+x,1/2-y,1/2+z
_cell_length_a                   7.52380(10)
_cell_length_b                   22.6556(5)
_cell_length_c                   7.92010(10)
_cell_angle_alpha                90
_cell_angle_beta                 107.3824(16)
_cell_angle_gamma                90
_cell_volume                     1288.38
_exptl_crystal_colour            colorless
_exptl_crystal_description       block
_cell_formula_units_Z            4
loop_
_atom_site_label
_atom_site_type_symbol
_atom_site_fract_x
_atom_site_fract_y
_atom_site_fract_z
N1 N 0.7013(3) 0.41402(8) 0.7885(2)
C1 C 0.6825(3) 0.42127(10) 0.6070(3)
O1 O 0.6930(2) 0.46729(7) 0.5338(2)
C2 C 0.6808(3) 0.35442(10) 0.8304(3)
O2 O 0.6996(3) 0.33590(7) 0.9774(2)
C3 C 0.6392(3) 0.32144(10) 0.6588(3)
C4 C 0.6124(3) 0.26236(10) 0.6137(3)
C5 C 0.5953(3) 0.24378(11) 0.4426(3)
C6 C 0.6048(3) 0.28490(11) 0.3142(3)
C7 C 0.6310(3) 0.34455(11) 0.3560(3)
C8 C 0.6477(3) 0.36109(10) 0.5278(3)
N2 N 0.5986(3) 0.21700(9) 0.7425(3)
O3 O 0.6615(3) 0.16801(8) 0.7276(2)
O4 O 0.5241(3) 0.23050(8) 0.8548(2)
C9 C 0.7376(3) 0.46076(10) 0.9164(3)
C10 C 0.8596(3) 0.45087(10) 1.0842(3)
C11 C 0.8872(3) 0.49513(10) 1.2114(3)
C12 C 0.7969(3) 0.54861(10) 1.1675(3)
I1 I 0.83436(2) 0.613750(6) 1.364074(18)
C13 C 0.6807(3) 0.55929(10) 0.9972(3)
C14 C 0.6491(3) 0.51487(10) 0.8710(3)
H1 H 0.5772 0.2031 0.4129
H2 H 0.5932 0.2720 0.1972
H3 H 0.6372 0.3729 0.2695
H4 H 0.9235 0.4143 1.1119
H5 H 0.9677 0.4886 1.3276
H6 H 0.6233 0.5968 0.9675
H7 H 0.5680 0.5214 0.7550
loop_
_geom_bond_atom_site_label_1
_geom_bond_atom_site_label_2
_geom_bond_site_symmetry_1
_geom_bond_site_symmetry_2
N1 C1 1_555 1_555
C1 O1 1_555 1_555
C2 N1 1_555 1_555
O2 C2 1_555 1_555
C3 C2 1_555 1_555
C4 C3 1_555 1_555
C5 C4 1_555 1_555
C6 C5 1_555 1_555
C7 C6 1_555 1_555
C8 C1 1_555 1_555
N2 C4 1_555 1_555
O3 N2 1_555 1_555
O4 N2 1_555 1_555
C9 N1 1_555 1_555
C10 C9 1_555 1_555
C11 C10 1_555 1_555
C12 C11 1_555 1_555
I1 C12 1_555 1_555
C13 C12 1_555 1_555
C14 C9 1_555 1_555
H1 C5 1_555 1_555
H2 C6 1_555 1_555
H3 C7 1_555 1_555
H4 C10 1_555 1_555
H5 C11 1_555 1_555
H6 C13 1_555 1_555
H7 C14 1_555 1_555
C3 C8 1_555 1_555
C7 C8 1_555 1_555
C13 C14 1_555 1_555

#END
