
#######################################################################
#
#                 Cambridge Crystallographic Data Centre
#                                CCDC 
#
#######################################################################
#
# If this CIF has been generated from an entry in the Cambridge 
# Structural Database, then it will include bibliographic, chemical, 
# crystal, experimental, refinement or atomic coordinate data resulting 
# from the CCDC's data processing and validation procedures.
#
#######################################################################

data_FEXCOB
_chemical_formula_moiety         'C14 H7 I1 N2 O4'
_chemical_name_systematic        N-(2-Iodophenyl)-4-nitrophthalimide
_symmetry_cell_setting           monoclinic
_symmetry_space_group_name_H-M   'P 21/n'
_symmetry_Int_Tables_number      14
_space_group_name_Hall           '-P 2yn'
loop_
_symmetry_equiv_pos_site_id
_symmetry_equiv_pos_as_xyz
1 x,y,z
2 1/2-x,1/2+y,1/2-z
3 -x,-y,-z
4 1/2+x,1/2-y,1/2+z
_cell_length_a                   13.4591(6)
_cell_length_b                   7.6018(3)
_cell_length_c                   14.7086(7)
_cell_angle_alpha                90
_cell_angle_beta                 110.5920(10)
_cell_angle_gamma                90
_cell_volume                     1408.74
_exptl_crystal_colour            orange
_exptl_crystal_description       block
_cell_formula_units_Z            4
loop_
_atom_site_label
_atom_site_type_symbol
_atom_site_fract_x
_atom_site_fract_y
_atom_site_fract_z
N1 N 0.32614(19) 0.8958(3) 0.08810(18)
C1 C 0.2475(2) 1.0301(4) 0.0551(2)
C2 C 0.1692(3) 1.0496(5) 0.0946(3)
I1 I 0.16016(2) 0.87293(4) 0.20105(2)
C3 C 0.0947(4) 1.1824(6) 0.0614(3)
C4 C 0.0993(4) 1.2932(6) -0.0105(4)
C5 C 0.1754(4) 1.2727(5) -0.0520(3)
C6 C 0.2498(4) 1.1426(4) -0.0200(3)
C7 C 0.4182(2) 0.9115(4) 0.1710(2)
O1 O 0.44132(18) 1.0368(3) 0.22369(17)
C8 C 0.3212(2) 0.7340(4) 0.0415(2)
O2 O 0.2517(2) 0.6906(3) -0.03262(17)
C9 C 0.4768(2) 0.7430(4) 0.17745(19)
C10 C 0.4178(2) 0.6368(4) 0.1007(2)
C11 C 0.4513(2) 0.4701(4) 0.0880(2)
C12 C 0.5474(2) 0.4168(4) 0.1560(2)
N2 N 0.5869(2) 0.2388(4) 0.1454(2)
O3 O 0.6652(2) 0.1855(5) 0.2106(2)
O4 O 0.5389(2) 0.1557(3) 0.0722(2)
C13 C 0.6075(2) 0.5207(5) 0.2319(2)
C14 C 0.5729(2) 0.6873(5) 0.2439(2)
H1 H 0.0418 1.1963 0.0879
H2 H 0.0501 1.3838 -0.0316
H3 H 0.1764 1.3471 -0.1019
H4 H 0.3016 1.1287 -0.0477
H5 H 0.4120 0.3979 0.0369
H6 H 0.6716 0.4788 0.2752
H7 H 0.6127 0.7594 0.2948
loop_
_geom_bond_atom_site_label_1
_geom_bond_atom_site_label_2
_geom_bond_site_symmetry_1
_geom_bond_site_symmetry_2
N1 C1 1_555 1_555
C1 C2 1_555 1_555
C2 I1 1_555 1_555
C3 C2 1_555 1_555
C4 C3 1_555 1_555
C5 C4 1_555 1_555
C6 C1 1_555 1_555
C7 N1 1_555 1_555
O1 C7 1_555 1_555
C8 N1 1_555 1_555
O2 C8 1_555 1_555
C9 C7 1_555 1_555
C10 C8 1_555 1_555
C11 C10 1_555 1_555
C12 C11 1_555 1_555
N2 C12 1_555 1_555
O3 N2 1_555 1_555
O4 N2 1_555 1_555
C13 C12 1_555 1_555
C14 C9 1_555 1_555
H1 C3 1_555 1_555
H2 C4 1_555 1_555
H3 C5 1_555 1_555
H4 C6 1_555 1_555
H5 C11 1_555 1_555
H6 C13 1_555 1_555
H7 C14 1_555 1_555
C5 C6 1_555 1_555
C9 C10 1_555 1_555
C13 C14 1_555 1_555

#END
