
#######################################################################
#
#                 Cambridge Crystallographic Data Centre
#                                CCDC 
#
#######################################################################
#
# If this CIF has been generated from an entry in the Cambridge 
# Structural Database, then it will include bibliographic, chemical, 
# crystal, experimental, refinement or atomic coordinate data resulting 
# from the CCDC's data processing and validation procedures.
#
#######################################################################

data_FEXGOH
_chemical_formula_moiety         'C23 H17 N1 O2'
_chemical_name_systematic        
4-(benzenecarbonyl)-3-benzylidene-1-phenylazetidin-2-one
_symmetry_cell_setting           monoclinic
_symmetry_space_group_name_H-M   'C 2/c'
_symmetry_Int_Tables_number      15
_space_group_name_Hall           '-C 2yn'
loop_
_symmetry_equiv_pos_site_id
_symmetry_equiv_pos_as_xyz
1 x,y,z
2 -x,y,1/2-z
3 1/2+x,1/2+y,z
4 1/2-x,1/2+y,1/2-z
5 -x,-y,-z
6 x,-y,1/2+z
7 1/2-x,1/2-y,-z
8 1/2+x,1/2-y,1/2+z
_cell_length_a                   30.550(10)
_cell_length_b                   5.8652(18)
_cell_length_c                   22.697(7)
_cell_angle_alpha                90
_cell_angle_beta                 121.224(5)
_cell_angle_gamma                90
_cell_volume                     3477.79
_exptl_crystal_colour            colorless
_exptl_crystal_description       prism
_cell_formula_units_Z            8
loop_
_atom_site_label
_atom_site_type_symbol
_atom_site_fract_x
_atom_site_fract_y
_atom_site_fract_z
N1 N 0.31469(7) 0.7999(3) 0.11065(9)
O1 O 0.24981(6) 0.5175(3) 0.06976(9)
O2 O 0.41181(6) 0.5870(3) 0.17347(9)
C1 C 0.28605(9) 0.6143(4) 0.07233(11)
C2 C 0.31600(8) 0.5992(4) 0.03766(11)
C3 C 0.34781(8) 0.8041(4) 0.08134(11)
H1 H 0.3437 0.9426 0.0540
C4 C 0.31505(8) 0.9418(4) 0.16075(11)
C5 C 0.34398(9) 1.1410(4) 0.18003(12)
H2 H 0.3628 1.1802 0.1593
C6 C 0.34504(10) 1.2796(4) 0.22925(13)
H3 H 0.3647 1.4138 0.2422
C7 C 0.31756(10) 1.2248(5) 0.26011(13)
H4 H 0.3183 1.3211 0.2937
C8 C 0.28901(12) 1.0269(5) 0.24100(15)
H5 H 0.2707 0.9878 0.2624
C9 C 0.28688(10) 0.8847(4) 0.19074(13)
H6 H 0.2667 0.7521 0.1772
C10 C 0.31419(9) 0.4603(4) -0.00979(11)
H7 H 0.2881 0.3501 -0.0277
C11 C 0.34797(9) 0.4585(4) -0.03747(11)
C12 C 0.34794(11) 0.2697(4) -0.07492(13)
H8 H 0.3239 0.1527 -0.0860
C13 C 0.38297(11) 0.2533(5) -0.09587(14)
H9 H 0.3830 0.1233 -0.1201
C14 C 0.41766(12) 0.4234(5) -0.08195(14)
H10 H 0.4416 0.4097 -0.0959
C15 C 0.41714(11) 0.6153(5) -0.04714(13)
H11 H 0.4406 0.7337 -0.0377
C16 C 0.38226(10) 0.6338(4) -0.02625(12)
H12 H 0.3816 0.7676 -0.0039
C17 C 0.40376(9) 0.7453(4) 0.13468(11)
C18 C 0.44612(8) 0.8771(4) 0.13737(11)
C19 C 0.43903(10) 1.0886(4) 0.10568(12)
H13 H 0.4061 1.1533 0.0812
C20 C 0.48018(11) 1.2042(5) 0.11002(14)
H14 H 0.4751 1.3461 0.0882
C21 C 0.52827(10) 1.1110(5) 0.14626(13)
H15 H 0.5561 1.1897 0.1492
C22 C 0.53602(9) 0.9025(5) 0.17838(12)
H16 H 0.5691 0.8401 0.2032
C23 C 0.49543(9) 0.7858(4) 0.17410(11)
H17 H 0.5009 0.6438 0.1960
loop_
_geom_bond_atom_site_label_1
_geom_bond_atom_site_label_2
_geom_bond_site_symmetry_1
_geom_bond_site_symmetry_2
N1 C1 1_555 1_555
O1 C1 1_555 1_555
O2 C17 1_555 1_555
C1 C2 1_555 1_555
C2 C3 1_555 1_555
C3 N1 1_555 1_555
H1 C3 1_555 1_555
C4 N1 1_555 1_555
C5 C4 1_555 1_555
H2 C5 1_555 1_555
C6 C5 1_555 1_555
H3 C6 1_555 1_555
C7 C6 1_555 1_555
H4 C7 1_555 1_555
C8 C7 1_555 1_555
H5 C8 1_555 1_555
C9 C4 1_555 1_555
H6 C9 1_555 1_555
C10 C2 1_555 1_555
H7 C10 1_555 1_555
C11 C10 1_555 1_555
C12 C11 1_555 1_555
H8 C12 1_555 1_555
C13 C12 1_555 1_555
H9 C13 1_555 1_555
C14 C13 1_555 1_555
H10 C14 1_555 1_555
C15 C14 1_555 1_555
H11 C15 1_555 1_555
C16 C11 1_555 1_555
H12 C16 1_555 1_555
C17 C3 1_555 1_555
C18 C17 1_555 1_555
C19 C18 1_555 1_555
H13 C19 1_555 1_555
C20 C19 1_555 1_555
H14 C20 1_555 1_555
C21 C20 1_555 1_555
H15 C21 1_555 1_555
C22 C21 1_555 1_555
H16 C22 1_555 1_555
C23 C18 1_555 1_555
H17 C23 1_555 1_555
C8 C9 1_555 1_555
C15 C16 1_555 1_555
C22 C23 1_555 1_555

#END
