
#######################################################################
#
#                 Cambridge Crystallographic Data Centre
#                                CCDC 
#
#######################################################################
#
# If this CIF has been generated from an entry in the Cambridge 
# Structural Database, then it will include bibliographic, chemical, 
# crystal, experimental, refinement or atomic coordinate data resulting 
# from the CCDC's data processing and validation procedures.
#
#######################################################################

data_FEXHAU
_chemical_formula_moiety         'C22 H20 S6 Si2,1.5(H2 O1)'
_chemical_name_systematic        
"(1,12:6,7-diepithiocycloocta[1,2-c:3,4-c':5,6-c'':7,8-c''']tetrakisthiene-3,4-diyl)bis(trimethylsilane) sesquihydrate"
_symmetry_cell_setting           monoclinic
_symmetry_space_group_name_H-M   'P 21/c'
_symmetry_Int_Tables_number      14
_space_group_name_Hall           '-P 2ybc'
loop_
_symmetry_equiv_pos_site_id
_symmetry_equiv_pos_as_xyz
1 x,y,z
2 -x,1/2+y,1/2-z
3 -x,-y,-z
4 x,1/2-y,1/2+z
_cell_length_a                   8.919(5)
_cell_length_b                   34.72(2)
_cell_length_c                   18.247(10)
_cell_angle_alpha                90
_cell_angle_beta                 92.246(12)
_cell_angle_gamma                90
_cell_volume                     5646.17
_cell_formula_units_Z            8
loop_
_atom_site_label
_atom_site_type_symbol
_atom_site_fract_x
_atom_site_fract_y
_atom_site_fract_z
Si1 Si 0.12624(9) 0.13157(3) 0.68079(5)
Si2 Si 0.47744(10) 0.07076(3) 0.59417(5)
C1 C 0.0890(4) 0.08799(13) 0.6219(3)
H1 H -0.0103 0.0896 0.5999
H2 H 0.0972 0.0652 0.6516
H3 H 0.1609 0.0869 0.5842
C2 C -0.0122(4) 0.13025(14) 0.7546(2)
H4 H -0.0021 0.1531 0.7840
H5 H 0.0061 0.1080 0.7849
H6 H -0.1119 0.1290 0.7330
C3 C 0.0970(4) 0.17487(14) 0.6225(2)
H7 H 0.1836 0.1790 0.5939
H8 H 0.0817 0.1969 0.6531
H9 H 0.0104 0.1712 0.5904
C4 C 0.3176(3) 0.13544(8) 0.72922(14)
C5 C 0.4501(3) 0.15286(8) 0.70874(14)
C6 C 0.4930(3) 0.15041(9) 0.83565(15)
C7 C 0.5428(3) 0.16550(8) 0.77067(14)
C8 C 0.6714(3) 0.19047(8) 0.78469(14)
C9 C 0.7194(3) 0.18754(9) 0.85786(15)
C10 C 0.8607(3) 0.23518(9) 0.79405(15)
H10 H 0.9269 0.2541 0.7792
C11 C 0.7505(3) 0.22051(8) 0.74743(14)
C12 C 0.7228(3) 0.23685(8) 0.67405(14)
C13 C 0.7894(4) 0.27041(9) 0.65460(16)
H11 H 0.8437 0.2856 0.6882
C14 C 0.6388(3) 0.22071(8) 0.61200(14)
C15 C 0.6601(3) 0.24226(9) 0.54860(15)
C16 C 0.5561(3) 0.18600(8) 0.59382(14)
C17 C 0.5357(3) 0.18237(9) 0.51825(15)
C18 C 0.4865(3) 0.15421(8) 0.63105(14)
C19 C 0.4448(3) 0.12400(8) 0.58387(15)
C20 C 0.4408(5) 0.04910(11) 0.6852(2)
H12 H 0.4810 0.0235 0.6874
H13 H 0.3347 0.0482 0.6918
H14 H 0.4880 0.0645 0.7232
C21 C 0.3754(4) 0.04561(10) 0.5158(2)
H15 H 0.3795 0.0183 0.5235
H16 H 0.4219 0.0519 0.4708
H17 H 0.2726 0.0538 0.5132
C22 C 0.6814(4) 0.06547(13) 0.5825(2)
H18 H 0.7352 0.0787 0.6215
H19 H 0.7072 0.0763 0.5363
H20 H 0.7075 0.0386 0.5837
S1 S 0.32239(9) 0.12804(3) 0.82485(4)
S2 S 0.60755(9) 0.15958(3) 0.91278(4)
S3 S 0.86929(9) 0.21666(3) 0.88116(4)
S4 S 0.46040(10) 0.13877(2) 0.49181(4)
S5 S 0.59379(11) 0.22124(3) 0.46729(4)
S6 S 0.76616(11) 0.28280(3) 0.56358(4)
Si3 Si -0.01485(11) 0.05184(3) 0.31666(5)
Si4 Si -0.38326(10) 0.11735(3) 0.24866(5)
C23 C -0.0732(5) 0.02964(11) 0.4045(2)
H21 H -0.0557 0.0024 0.4032
H22 H -0.1779 0.0344 0.4107
H23 H -0.0158 0.0407 0.4448
C24 C 0.1893(4) 0.04325(15) 0.3075(3)
H24 H 0.2093 0.0161 0.3102
H25 H 0.2444 0.0562 0.3465
H26 H 0.2197 0.0530 0.2612
C25 C -0.1104(4) 0.02830(11) 0.2357(2)
H27 H -0.0746 0.0394 0.1915
H28 H -0.2168 0.0322 0.2375
H29 H -0.0892 0.0012 0.2365
C26 C -0.0317(3) 0.10620(9) 0.32382(16)
C27 C -0.0041(3) 0.13433(8) 0.27205(14)
C28 C 0.0803(3) 0.16670(8) 0.30168(14)
C29 C 0.0904(4) 0.16476(9) 0.37673(17)
C30 C 0.1638(3) 0.19903(8) 0.27536(15)
C31 C 0.2129(3) 0.22207(9) 0.33425(17)
C32 C 0.3054(4) 0.24628(9) 0.22081(18)
H30 H 0.3504 0.2598 0.1836
C33 C 0.2226(3) 0.21288(8) 0.20741(16)
C34 C 0.2123(3) 0.19575(9) 0.13389(16)
C35 C 0.2985(4) 0.21004(11) 0.07769(18)
H31 H 0.3726 0.2286 0.0858
C36 C 0.1136(3) 0.16583(8) 0.10487(15)
C37 C 0.1238(3) 0.16200(10) 0.02935(16)
C38 C -0.0073(3) 0.14195(8) 0.12995(15)
C39 C -0.0903(3) 0.12641(9) 0.07046(16)
C40 C -0.0739(3) 0.13104(8) 0.19779(15)
C41 C -0.2162(3) 0.11477(9) 0.18773(16)
C42 C -0.3777(5) 0.16451(11) 0.2969(2)
H32 H -0.4695 0.1682 0.3217
H33 H -0.3659 0.1848 0.2618
H34 H -0.2947 0.1649 0.3320
C43 C -0.4087(4) 0.07940(12) 0.3182(2)
H35 H -0.3221 0.0786 0.3511
H36 H -0.4211 0.0549 0.2942
H37 H -0.4962 0.0850 0.3453
C44 C -0.5516(4) 0.11483(14) 0.1852(2)
H38 H -0.6403 0.1189 0.2123
H39 H -0.5563 0.0899 0.1623
H40 H -0.5449 0.1344 0.1482
S7 S 0.02088(12) 0.12307(3) 0.41258(5)
S8 S 0.17030(11) 0.20502(3) 0.42029(5)
S9 S 0.31863(10) 0.26066(3) 0.31033(5)
S10 S -0.25517(9) 0.10575(3) 0.09449(4)
S11 S -0.01399(11) 0.13402(3) -0.01433(4)
S12 S 0.25774(11) 0.19082(3) -0.00746(5)
O1 O -0.3753(7) -0.07427(19) 0.0102(3)
O2 O -0.7615(10) -0.0544(3) 0.1389(5)
O3 O -0.5166(11) -0.0024(3) 0.1358(5)
loop_
_geom_bond_atom_site_label_1
_geom_bond_atom_site_label_2
_geom_bond_site_symmetry_1
_geom_bond_site_symmetry_2
Si1 C1 1_555 1_555
Si2 C19 1_555 1_555
C1 H1 1_555 1_555
H2 C1 1_555 1_555
H3 C1 1_555 1_555
C2 Si1 1_555 1_555
H4 C2 1_555 1_555
H5 C2 1_555 1_555
H6 C2 1_555 1_555
C3 Si1 1_555 1_555
H7 C3 1_555 1_555
H8 C3 1_555 1_555
H9 C3 1_555 1_555
C4 Si1 1_555 1_555
C5 C4 1_555 1_555
C6 C7 1_555 1_555
C7 C5 1_555 1_555
C8 C7 1_555 1_555
C9 C8 1_555 1_555
C10 H10 1_555 1_555
C11 C8 1_555 1_555
C12 C11 1_555 1_555
C13 C12 1_555 1_555
H11 C13 1_555 1_555
C14 C12 1_555 1_555
C15 C14 1_555 1_555
C16 C14 1_555 1_555
C17 C16 1_555 1_555
C18 C5 1_555 1_555
C19 C18 1_555 1_555
C20 Si2 1_555 1_555
H12 C20 1_555 1_555
H13 C20 1_555 1_555
H14 C20 1_555 1_555
C21 Si2 1_555 1_555
H15 C21 1_555 1_555
H16 C21 1_555 1_555
H17 C21 1_555 1_555
C22 Si2 1_555 1_555
H18 C22 1_555 1_555
H19 C22 1_555 1_555
H20 C22 1_555 1_555
S1 C4 1_555 1_555
S2 C6 1_555 1_555
S3 C9 1_555 1_555
S4 C17 1_555 1_555
S5 C15 1_555 1_555
S6 C13 1_555 1_555
Si3 C23 1_555 1_555
Si4 C41 1_555 1_555
C23 H21 1_555 1_555
H22 C23 1_555 1_555
H23 C23 1_555 1_555
C24 Si3 1_555 1_555
H24 C24 1_555 1_555
H25 C24 1_555 1_555
H26 C24 1_555 1_555
C25 Si3 1_555 1_555
H27 C25 1_555 1_555
H28 C25 1_555 1_555
H29 C25 1_555 1_555
C26 Si3 1_555 1_555
C27 C26 1_555 1_555
C28 C27 1_555 1_555
C29 C28 1_555 1_555
C30 C28 1_555 1_555
C31 C30 1_555 1_555
C32 H30 1_555 1_555
C33 C30 1_555 1_555
C34 C33 1_555 1_555
C35 C34 1_555 1_555
H31 C35 1_555 1_555
C36 C34 1_555 1_555
C37 C36 1_555 1_555
C38 C36 1_555 1_555
C39 C38 1_555 1_555
C40 C27 1_555 1_555
C41 C40 1_555 1_555
C42 Si4 1_555 1_555
H32 C42 1_555 1_555
H33 C42 1_555 1_555
H34 C42 1_555 1_555
C43 Si4 1_555 1_555
H35 C43 1_555 1_555
H36 C43 1_555 1_555
H37 C43 1_555 1_555
C44 Si4 1_555 1_555
H38 C44 1_555 1_555
H39 C44 1_555 1_555
H40 C44 1_555 1_555
S7 C26 1_555 1_555
S8 C29 1_555 1_555
S9 C31 1_555 1_555
S10 C39 1_555 1_555
S11 C37 1_555 1_555
S12 C35 1_555 1_555
C6 S1 1_555 1_555
C9 S2 1_555 1_555
C10 C11 1_555 1_555
C10 S3 1_555 1_555
C15 S6 1_555 1_555
C16 C18 1_555 1_555
C17 S5 1_555 1_555
C19 S4 1_555 1_555
C29 S7 1_555 1_555
C31 S8 1_555 1_555
C32 C33 1_555 1_555
C32 S9 1_555 1_555
C37 S12 1_555 1_555
C38 C40 1_555 1_555
C39 S11 1_555 1_555
C41 S10 1_555 1_555

#END
