
#######################################################################
#
#                 Cambridge Crystallographic Data Centre
#                                CCDC 
#
#######################################################################
#
# If this CIF has been generated from an entry in the Cambridge 
# Structural Database, then it will include bibliographic, chemical, 
# crystal, experimental, refinement or atomic coordinate data resulting 
# from the CCDC's data processing and validation procedures.
#
#######################################################################

data_FEXHOH
_chemical_formula_moiety         '2(C8 H8 N2 O1 S1),C10 H18 O4'
_chemical_name_systematic        
'bis(6-methoxy-1,3-benzothiazol-2-amine) decanedioic acid'
_symmetry_cell_setting           monoclinic
_symmetry_space_group_name_H-M   'P 21/n'
_symmetry_Int_Tables_number      14
_space_group_name_Hall           '-P 2yn'
loop_
_symmetry_equiv_pos_site_id
_symmetry_equiv_pos_as_xyz
1 x,y,z
2 1/2-x,1/2+y,1/2-z
3 -x,-y,-z
4 1/2+x,1/2-y,1/2+z
_cell_length_a                   12.234(2)
_cell_length_b                   9.017(4)
_cell_length_c                   13.423(3)
_cell_angle_alpha                90
_cell_angle_beta                 107.322(4)
_cell_angle_gamma                90
_cell_volume                     1413.59
_cell_formula_units_Z            2
loop_
_atom_site_label
_atom_site_type_symbol
_atom_site_fract_x
_atom_site_fract_y
_atom_site_fract_z
S1 S 0.89342(9) 0.13838(11) 0.18130(8)
O1 O 0.9900(3) 0.3909(3) -0.1254(3)
C1 C 0.9415(4) 0.2709(4) -0.0907(4)
N1 N 0.8070(3) -0.0703(3) 0.0462(3)
C2 C 0.8509(3) 0.0386(4) -0.0064(3)
C3 C 0.8466(3) 0.0347(4) -0.1101(3)
H1 H 0.8141 -0.0462 -0.1514
C4 C 0.9010(3) 0.1605(4) 0.0539(3)
C5 C 0.8913(3) 0.1525(4) -0.1529(3)
H2 H 0.8873 0.1513 -0.2232
C6 C 0.9472(3) 0.2776(4) 0.0138(3)
H3 H 0.9807 0.3578 0.0552
N2 N 0.7878(3) -0.1111(4) 0.2126(3)
H4 H 0.7529 -0.1941 0.1946
H5 H 0.8008 -0.0790 0.2754
C7 C 0.8222(3) -0.0317(4) 0.1428(4)
C8 C 0.9869(4) 0.3931(5) -0.2319(4)
H6 H 1.0227 0.4821 -0.2460
H7 H 0.9088 0.3902 -0.2753
H8 H 1.0271 0.3084 -0.2465
O2 O 0.7097(2) 0.5922(3) 0.1047(2)
O3 O 0.7238(2) 0.6778(3) -0.0475(2)
H9 H 0.7488 0.7515 -0.0123
C9 C 0.6093(3) 0.3234(4) 0.0159(3)
H10 H 0.5514 0.3691 0.0419
H11 H 0.6730 0.2961 0.0758
C10 C 0.5209(3) 0.0736(4) 0.0264(3)
H12 H 0.5844 0.0550 0.0885
H13 H 0.4598 0.1185 0.0483
C11 C 0.6508(3) 0.4374(4) -0.0479(3)
H14 H 0.7103 0.3930 -0.0725
H15 H 0.5878 0.4634 -0.1087
C12 C 0.6971(3) 0.5768(4) 0.0112(3)
C13 C 0.5595(3) 0.1829(4) -0.0429(3)
H16 H 0.6168 0.1361 -0.0693
H17 H 0.4947 0.2087 -0.1023
O2B O 0.2903(2) -0.5922(3) -0.1047(2)
O3B O 0.2762(2) -0.6778(3) 0.0475(2)
H9B H 0.2512 -0.7515 0.0123
C9B C 0.3907(3) -0.3234(4) -0.0159(3)
H10B H 0.4486 -0.3691 -0.0419
H11B H 0.3270 -0.2961 -0.0758
C10B C 0.4791(3) -0.0736(4) -0.0264(3)
H12B H 0.4156 -0.0550 -0.0885
H13B H 0.5402 -0.1185 -0.0483
C11B C 0.3492(3) -0.4374(4) 0.0479(3)
H14B H 0.2897 -0.3930 0.0725
H15B H 0.4122 -0.4634 0.1087
C12B C 0.3029(3) -0.5768(4) -0.0112(3)
C13B C 0.4405(3) -0.1829(4) 0.0429(3)
H16B H 0.3832 -0.1361 0.0693
H17B H 0.5053 -0.2087 0.1023
loop_
_geom_bond_atom_site_label_1
_geom_bond_atom_site_label_2
_geom_bond_site_symmetry_1
_geom_bond_site_symmetry_2
S1 C4 1_555 1_555
O1 C1 1_555 1_555
C1 C5 1_555 1_555
N1 C2 1_555 1_555
C2 C3 1_555 1_555
C3 H1 1_555 1_555
C4 C2 1_555 1_555
C5 C3 1_555 1_555
H2 C5 1_555 1_555
C6 C1 1_555 1_555
H3 C6 1_555 1_555
N2 H4 1_555 1_555
H5 N2 1_555 1_555
C7 S1 1_555 1_555
C8 O1 1_555 1_555
H6 C8 1_555 1_555
H7 C8 1_555 1_555
H8 C8 1_555 1_555
O2 C12 1_555 1_555
O3 H9 1_555 1_555
C9 H10 1_555 1_555
H11 C9 1_555 1_555
C10 H12 1_555 1_555
H13 C10 1_555 1_555
C11 C9 1_555 1_555
H14 C11 1_555 1_555
H15 C11 1_555 1_555
C12 O3 1_555 1_555
C13 C9 1_555 1_555
H16 C13 1_555 1_555
H17 C13 1_555 1_555
O2B C12B 1_555 1_555
O3B H9B 1_555 1_555
C9B H10B 1_555 1_555
H11B C9B 1_555 1_555
C10B C10 1_555 1_555
H12B C10B 1_555 1_555
H13B C10B 1_555 1_555
C11B C9B 1_555 1_555
H14B C11B 1_555 1_555
H15B C11B 1_555 1_555
C12B O3B 1_555 1_555
C13B C9B 1_555 1_555
H16B C13B 1_555 1_555
H17B C13B 1_555 1_555
N1 C7 1_555 1_555
C4 C6 1_555 1_555
N2 C7 1_555 1_555
C10 C13 1_555 1_555
C11 C12 1_555 1_555
C10B C13B 1_555 1_555
C11B C12B 1_555 1_555

#END
