
#######################################################################
#
#                 Cambridge Crystallographic Data Centre
#                                CCDC 
#
#######################################################################
#
# If this CIF has been generated from an entry in the Cambridge 
# Structural Database, then it will include bibliographic, chemical, 
# crystal, experimental, refinement or atomic coordinate data resulting 
# from the CCDC's data processing and validation procedures.
#
#######################################################################

data_FEXKOI
_chemical_formula_moiety         'C9 H14 O2'
_chemical_name_systematic        
(anti-8)-Tricyclo(4.2.1.0^3,7^)nonane-3,8-diol
_symmetry_cell_setting           monoclinic
_symmetry_space_group_name_H-M   'P 21/n'
_symmetry_Int_Tables_number      14
_space_group_name_Hall           '-P 2yn'
loop_
_symmetry_equiv_pos_site_id
_symmetry_equiv_pos_as_xyz
1 x,y,z
2 1/2-x,1/2+y,1/2-z
3 -x,-y,-z
4 1/2+x,1/2-y,1/2+z
_cell_length_a                   7.154(2)
_cell_length_b                   18.896(6)
_cell_length_c                   6.373(2)
_cell_angle_alpha                90
_cell_angle_beta                 110.49(3)
_cell_angle_gamma                90
_cell_volume                     807.01
_exptl_crystal_colour            colorless
_chemical_melting_point          254-255deg.C
_cell_formula_units_Z            4
loop_
_atom_site_label
_atom_site_type_symbol
_atom_site_fract_x
_atom_site_fract_y
_atom_site_fract_z
C1 C 0.9146(3) 0.0946(1) 0.8955(3)
C2 C 0.8478(3) 0.0914(1) 1.0989(3)
O1 O 0.7333(2) 0.1954(1) 1.2352(2)
C3 C 0.6816(2) 0.1482(1) 1.0491(2)
C4 C 0.4709(3) 0.1184(1) 0.9860(3)
C5 C 0.4072(3) 0.1002(1) 0.7370(3)
C6 C 0.5781(3) 0.1252(1) 0.6607(3)
C7 C 0.6890(3) 0.1822(1) 0.8326(3)
O2 O 0.9627(2) 0.1982(1) 0.6752(3)
C8 C 0.9072(3) 0.1744(1) 0.8571(3)
C9 C 0.7434(3) 0.0691(1) 0.6895(3)
H1 H 0.6464(34) 0.2287(13) 1.2105(37)
H2 H 0.8775(34) 0.1861(12) 0.5555(37)
H3 H 1.0356 0.0692 0.9155
H4 H 0.7968 0.0454 1.1133
H5 H 0.9569 0.1027 1.2341
H6 H 0.3822 0.1531 1.0102
H7 H 0.4703 0.0769 1.0727
H8 H 0.3886 0.0497 0.7166
H9 H 0.2852 0.1238 0.6544
H10 H 0.5194 0.1384 0.5057
H11 H 0.6400 0.2296 0.7992
H12 H 1.0016 0.2029 0.9687
H13 H 0.7832 0.0678 0.5608
H14 H 0.6993 0.0230 0.7152
loop_
_geom_bond_atom_site_label_1
_geom_bond_atom_site_label_2
_geom_bond_site_symmetry_1
_geom_bond_site_symmetry_2
C1 C2 1_555 1_555
C2 C3 1_555 1_555
O1 C3 1_555 1_555
C3 C4 1_555 1_555
C4 C5 1_555 1_555
C5 C6 1_555 1_555
C6 C7 1_555 1_555
C7 C3 1_555 1_555
O2 C8 1_555 1_555
C8 C1 1_555 1_555
C9 C1 1_555 1_555
H1 O1 1_555 1_555
H2 O2 1_555 1_555
H3 C1 1_555 1_555
H4 C2 1_555 1_555
H5 C2 1_555 1_555
H6 C4 1_555 1_555
H7 C4 1_555 1_555
H8 C5 1_555 1_555
H9 C5 1_555 1_555
H10 C6 1_555 1_555
H11 C7 1_555 1_555
H12 C8 1_555 1_555
H13 C9 1_555 1_555
H14 C9 1_555 1_555
C6 C9 1_555 1_555
C7 C8 1_555 1_555

#END
