
#######################################################################
#
#                 Cambridge Crystallographic Data Centre
#                                CCDC 
#
#######################################################################
#
# If this CIF has been generated from an entry in the Cambridge 
# Structural Database, then it will include bibliographic, chemical, 
# crystal, experimental, refinement or atomic coordinate data resulting 
# from the CCDC's data processing and validation procedures.
#
#######################################################################

data_FEXMED
_chemical_formula_moiety         'C15 H23 N1 O1'
_chemical_name_systematic        
N-hydroxy-2,2,7,7-tetramethyltricyclo[6.2.1.0^1,6^]undec-5-en-4-imine
_symmetry_cell_setting           monoclinic
_symmetry_space_group_name_H-M   'P 21/n'
_symmetry_Int_Tables_number      14
_space_group_name_Hall           '-P 2yn'
loop_
_symmetry_equiv_pos_site_id
_symmetry_equiv_pos_as_xyz
1 x,y,z
2 1/2-x,1/2+y,1/2-z
3 -x,-y,-z
4 1/2+x,1/2-y,1/2+z
_cell_length_a                   8.9128(10)
_cell_length_b                   12.3686(13)
_cell_length_c                   13.7592(15)
_cell_angle_alpha                90
_cell_angle_beta                 108.313(3)
_cell_angle_gamma                90
_cell_volume                     1439.98
_cell_formula_units_Z            4
loop_
_atom_site_label
_atom_site_type_symbol
_atom_site_fract_x
_atom_site_fract_y
_atom_site_fract_z
O1 O 0.93154(17) 0.01380(10) 0.09488(10)
H1 H 0.9298 -0.0392 0.0588
N1 N 1.0015(2) 0.10125(11) 0.05980(11)
C1 C 0.9577(2) 0.19594(14) 0.20351(14)
H2 H 0.9011 0.1400 0.2208
C2 C 0.99232(19) 0.28398(14) 0.26144(13)
C3 C 1.0802(2) 0.38036(14) 0.23847(14)
C4 C 1.0077(2) 0.18680(14) 0.11379(13)
C5 C 1.1775(2) 0.35236(15) 0.16834(16)
C6 C 1.0720(3) 0.28678(16) 0.07865(15)
H3 H 0.9847 0.3316 0.0394
H4 H 1.1324 0.2660 0.0340
C7 C 0.9548(3) 0.30507(19) 0.3602(2)
C8 C 1.3203(3) 0.2829(2) 0.2262(2)
H5 H 1.2844 0.2192 0.2522
H6 H 1.3884 0.3237 0.2821
H7 H 1.3774 0.2622 0.1805
C9 C 1.2381(4) 0.4533(2) 0.1272(2)
H8 H 1.3052 0.4942 0.1835
H9 H 1.1500 0.4971 0.0897
H10 H 1.2970 0.4317 0.0829
C10 C 0.9509(3) 0.46905(19) 0.2030(2)
H11 H 0.9903 0.5314 0.1758
H12 H 0.8579 0.4414 0.1512
C11 C 1.1648(3) 0.4209(2) 0.34767(18)
H13 H 1.2432 0.3703 0.3876
H14 H 1.2114 0.4920 0.3488
C12 C 0.7813(4) 0.2904(3) 0.3484(3)
H15 H 0.7536 0.2154 0.3367
H16 H 0.7188 0.3324 0.2913
H17 H 0.7614 0.3141 0.4096
C13 C 1.0157(5) 0.4230(2) 0.3792(3)
H18 H 1.0345 0.4471 0.4499
C14 C 1.0544(5) 0.2293(3) 0.4467(2)
H19 H 1.0152 0.1567 0.4335
H20 H 1.0465 0.2532 0.5113
H21 H 1.1629 0.2313 0.4486
C15 C 0.9139(5) 0.4980(2) 0.3020(3)
H22 H 0.9406 0.5728 0.3211
H23 H 0.8031 0.4864 0.2940
loop_
_geom_bond_atom_site_label_1
_geom_bond_atom_site_label_2
_geom_bond_site_symmetry_1
_geom_bond_site_symmetry_2
O1 H1 1_555 1_555
N1 O1 1_555 1_555
C1 H2 1_555 1_555
C2 C1 1_555 1_555
C3 C2 1_555 1_555
C4 N1 1_555 1_555
C5 C3 1_555 1_555
C6 C4 1_555 1_555
H3 C6 1_555 1_555
H4 C6 1_555 1_555
C7 C2 1_555 1_555
C8 C5 1_555 1_555
H5 C8 1_555 1_555
H6 C8 1_555 1_555
H7 C8 1_555 1_555
C9 C5 1_555 1_555
H8 C9 1_555 1_555
H9 C9 1_555 1_555
H10 C9 1_555 1_555
C10 C3 1_555 1_555
H11 C10 1_555 1_555
H12 C10 1_555 1_555
C11 C3 1_555 1_555
H13 C11 1_555 1_555
H14 C11 1_555 1_555
C12 C7 1_555 1_555
H15 C12 1_555 1_555
H16 C12 1_555 1_555
H17 C12 1_555 1_555
C13 C7 1_555 1_555
H18 C13 1_555 1_555
C14 C7 1_555 1_555
H19 C14 1_555 1_555
H20 C14 1_555 1_555
H21 C14 1_555 1_555
C15 C10 1_555 1_555
H22 C15 1_555 1_555
H23 C15 1_555 1_555
C1 C4 1_555 1_555
C5 C6 1_555 1_555
C11 C13 1_555 1_555
C13 C15 1_555 1_555

#END
