
#######################################################################
#
#                 Cambridge Crystallographic Data Centre
#                                CCDC 
#
#######################################################################
#
# If this CIF has been generated from an entry in the Cambridge 
# Structural Database, then it will include bibliographic, chemical, 
# crystal, experimental, refinement or atomic coordinate data resulting 
# from the CCDC's data processing and validation procedures.
#
#######################################################################

data_FEXQOP
_chemical_formula_moiety         'C6 H13 N2 O1 1+,C16 H16 N1 O4 S1 1-'
_chemical_name_systematic        
'(R)-\a-Ammonio-\e-caprolactam N-p-tosyl-(S)-phenylalaninate'
_symmetry_cell_setting           monoclinic
_symmetry_space_group_name_H-M   'P 21'
_symmetry_Int_Tables_number      4
_space_group_name_Hall           'P 2yb'
loop_
_symmetry_equiv_pos_site_id
_symmetry_equiv_pos_as_xyz
1 x,y,z
2 -x,1/2+y,-z
_cell_length_a                   11.2302(4)
_cell_length_b                   5.5390(2)
_cell_length_c                   17.850(1)
_cell_angle_alpha                90
_cell_angle_beta                 95.444(2)
_cell_angle_gamma                90
_cell_volume                     1105.33
_exptl_crystal_colour            colorless
_exptl_crystal_description       platelet
_cell_formula_units_Z            2
loop_
_atom_site_label
_atom_site_type_symbol
_atom_site_fract_x
_atom_site_fract_y
_atom_site_fract_z
S1 S 0.9761(1) 0.5346(4) 0.22420(7)
O2 O 0.7582(3) 0.8278(8) 0.3991(2)
O3 O 0.8967(3) 0.5435(7) 0.4220(1)
O4 O 0.9731(3) 0.7913(7) 0.2329(2)
O5 O 1.0887(3) 0.4099(6) 0.2368(1)
N3 N 0.8849(4) 0.4067(8) 0.2767(2)
C7 C 0.7838(4) 0.542(1) 0.3031(3)
C8 C 0.8168(5) 0.650(1) 0.3822(3)
C9 C 0.6753(5) 0.378(1) 0.3044(3)
C10 C 0.6170(5) 0.318(1) 0.2275(3)
C11 C 0.5290(6) 0.459(1) 0.1926(4)
C12 C 0.4782(6) 0.406(1) 0.1205(4)
C13 C 0.5122(5) 0.216(1) 0.0841(3)
C14 C 0.5998(5) 0.080(1) 0.1161(3)
C15 C 0.6512(5) 0.131(1) 0.1884(3)
C16 C 0.9155(4) 0.473(1) 0.1316(2)
C17 C 0.8445(4) 0.6424(9) 0.0924(3)
C18 C 0.7998(4) 0.598(1) 0.0187(3)
C19 C 0.8255(5) 0.389(1) -0.0177(3)
C20 C 0.8974(4) 0.223(1) 0.0219(3)
C21 C 0.9411(4) 0.262(1) 0.0962(3)
C22 C 0.7797(4) 0.350(1) -0.0997(3)
H1 H 0.5083 0.6067 0.2150
H2 H 0.4132 0.5006 0.0987
H3 H 0.4738 0.1718 0.0363
H4 H 0.700(3) 0.223(8) 0.340(2)
H5 H 0.617(3) 0.469(7) 0.333(2)
H6 H 0.772(3) 0.676(8) 0.266(2)
H7 H 0.6302 -0.0491 0.0887
H8 H 0.7125 0.0265 0.2099
H14 H 0.8264 0.7889 0.1165
H15 H 0.9882 0.1428 0.1235
H16 H 0.9188 0.0796 -0.0025
H22 H 0.7501 0.7155 -0.0072
H23 H 0.913(4) 0.30(1) 0.306(3)
H24 H 0.6949 0.3600 -0.1061
H25 H 0.8127 0.4740 -0.1283
H26 H 0.8046 0.1973 -0.1164
O1 O 1.0534(3) 1.0231(8) 0.4028(1)
N1 N 1.2104(4) 1.020(1) 0.3331(2)
N2 N 1.1190(3) 0.6491(7) 0.4886(2)
C1 C 1.1483(5) 0.934(1) 0.3884(3)
C2 C 1.2038(4) 0.721(1) 0.4331(3)
C3 C 1.3267(3) 0.7729(9) 0.4746(2)
C4 C 1.4303(4) 0.7546(9) 0.4248(2)
C5 C 1.4278(4) 0.9335(9) 0.3618(3)
C6 C 1.3174(4) 0.923(1) 0.3049(3)
H9 H 1.173(4) 1.130(9) 0.305(2)
H10 H 1.3020 0.7575 0.2937
H11 H 1.3330 1.0055 0.2602
H12 H 1.4314 1.0918 0.3824
H13 H 1.4962 0.9059 0.3355
H17 H 1.202(3) 0.595(7) 0.401(2)
H18 H 1.5021 0.7805 0.4564
H19 H 1.4309 0.5966 0.4042
H20 H 1.3258 0.9312 0.4950
H21 H 1.3407 0.6592 0.5143
H27 H 1.1180 0.7732 0.5253
H28 H 1.0410 0.6299 0.4637
H29 H 1.1440 0.5019 0.5125
loop_
_geom_bond_atom_site_label_1
_geom_bond_atom_site_label_2
_geom_bond_site_symmetry_1
_geom_bond_site_symmetry_2
S1 O4 1_555 1_555
O1 C1 1_555 1_555
O2 C8 1_555 1_555
O3 C8 1_555 1_555
O5 S1 1_555 1_555
N1 C1 1_555 1_555
N2 C2 1_555 1_555
N3 S1 1_555 1_555
C1 C2 1_555 1_555
C2 C3 1_555 1_555
C3 C4 1_555 1_555
C4 C5 1_555 1_555
C5 C6 1_555 1_555
C6 N1 1_555 1_555
C7 N3 1_555 1_555
C8 C7 1_555 1_555
C9 C7 1_555 1_555
C10 C9 1_555 1_555
C11 C10 1_555 1_555
C12 C11 1_555 1_555
C13 C12 1_555 1_555
C14 C13 1_555 1_555
C15 C10 1_555 1_555
C16 S1 1_555 1_555
C17 C16 1_555 1_555
C18 C17 1_555 1_555
C19 C18 1_555 1_555
C20 C19 1_555 1_555
C21 C16 1_555 1_555
C22 C19 1_555 1_555
H1 C11 1_555 1_555
H2 C12 1_555 1_555
H3 C13 1_555 1_555
H4 C9 1_555 1_555
H5 C9 1_555 1_555
H6 C7 1_555 1_555
H7 C14 1_555 1_555
H8 C15 1_555 1_555
H9 N1 1_555 1_555
H10 C6 1_555 1_555
H11 C6 1_555 1_555
H12 C5 1_555 1_555
H13 C5 1_555 1_555
H14 C17 1_555 1_555
H15 C21 1_555 1_555
H16 C20 1_555 1_555
H17 C2 1_555 1_555
H18 C4 1_555 1_555
H19 C4 1_555 1_555
H20 C3 1_555 1_555
H21 C3 1_555 1_555
H22 C18 1_555 1_555
H23 N3 1_555 1_555
H24 C22 1_555 1_555
H25 C22 1_555 1_555
H26 C22 1_555 1_555
H27 N2 1_555 1_555
H28 N2 1_555 1_555
H29 N2 1_555 1_555
C14 C15 1_555 1_555
C20 C21 1_555 1_555

#END
