
#######################################################################
#
#                 Cambridge Crystallographic Data Centre
#                                CCDC 
#
#######################################################################
#
# If this CIF has been generated from an entry in the Cambridge 
# Structural Database, then it will include bibliographic, chemical, 
# crystal, experimental, refinement or atomic coordinate data resulting 
# from the CCDC's data processing and validation procedures.
#
#######################################################################

data_FEXQUV
_chemical_formula_moiety         'C6 H13 N2 O1 1+,C16 H16 N1 O4 S1 1-,H2 O1'
_chemical_name_systematic        
'(S)-\a-Ammonio-\e-caprolactam N-p-tosyl-(S)-phenylalaninate monohydrate'
_symmetry_cell_setting           monoclinic
_symmetry_space_group_name_H-M   'P 21'
_symmetry_Int_Tables_number      4
_space_group_name_Hall           'P 2yb'
loop_
_symmetry_equiv_pos_site_id
_symmetry_equiv_pos_as_xyz
1 x,y,z
2 -x,1/2+y,-z
_cell_length_a                   12.723(1)
_cell_length_b                   5.3119(3)
_cell_length_c                   17.908(1)
_cell_angle_alpha                90
_cell_angle_beta                 100.305(3)
_cell_angle_gamma                90
_cell_volume                     1190.76
_exptl_crystal_colour            colorless
_cell_formula_units_Z            2
loop_
_atom_site_label
_atom_site_type_symbol
_atom_site_fract_x
_atom_site_fract_y
_atom_site_fract_z
S1 S 0.3809(2) 0.7097(5) 0.2747(1)
O3 O 0.2101(4) 0.0783(9) 0.1230(3)
O4 O 0.2945(5) 0.412(1) 0.0914(3)
O5 O 0.4576(4) 0.535(1) 0.2585(3)
O6 O 0.4040(4) 0.972(1) 0.2693(3)
N3 N 0.2664(4) 0.670(1) 0.2219(3)
C7 C 0.2180(5) 0.427(1) 0.2054(4)
C8 C 0.2448(6) 0.296(1) 0.1331(5)
C9 C 0.0979(6) 0.449(1) 0.1977(4)
C10 C 0.0569(7) 0.487(2) 0.2709(5)
C11 C 0.077(1) 0.3241(2) 0.3281(8)
C12 C 0.044(1) 0.3736(2) 0.3977(9)
C13 C -0.024(1) 0.5192(1) 0.4026(9)
C14 C -0.047(1) 0.6894(2) 0.350(1)
C15 C -0.007(1) 0.6701(2) 0.2793(7)
C16 C 0.3633(6) 0.644(1) 0.3676(4)
C17 C 0.4073(7) 0.444(2) 0.4065(5)
C18 C 0.3927(8) 0.406(1) 0.4804(5)
C19 C 0.3329(8) 0.560(1) 0.5150(5)
C20 C 0.2857(8) 0.7490(6) 0.4759(5)
C21 C 0.3005(8) 0.804(1) 0.4012(5)
C22 C 0.3198(8) 0.5178(2) 0.5968(5)
H1 H 0.1154 0.1744 0.3213
H2 H 0.0773 0.2862 0.4421
H3 H -0.0616 0.5093 0.4436
H4 H -0.0893 0.8284 0.3605
H5 H -0.0284 0.7890 0.2398
H6 H 0.2415 0.8552 0.4997
H7 H 0.2675 0.9459 0.3745
H8 H 0.4486 0.3311 0.3826
H9 H 0.4263 0.2644 0.5073
H18 H 0.0673 0.2977 0.1751
H19 H 0.0747 0.5869 0.1653
H23 H 0.2430 0.3199 0.2473
H25 H 0.2605 0.4113 0.5992
H27 H 0.2515 0.7590 0.1900
H29 H 0.3086 0.6769 0.6182
H30 H 0.3830 0.4435 0.6243
O1 O 0.5544(4) 0.625(1) 0.0533(3)
N1 N 0.5759(5) 0.341(1) 0.1466(4)
N2 N 0.6450(4) 0.356(1) -0.0411(3)
C1 C 0.5914(6) 0.427(2) 0.0799(5)
C2 C 0.6619(5) 0.266(1) 0.0394(4)
C3 C 0.7769(5) 0.271(1) 0.0762(4)
C4 C 0.8049(7) 0.0968(9) 0.1424(5)
C5 C 0.7434(8) 0.1465(3) 0.2081(5)
C6 C 0.6234(7) 0.118(1) 0.1866(4)
H10 H 0.7949 0.4370 0.0933
H11 H 0.8179 0.2250 0.0389
H12 H 0.8793 0.1105 0.1615
H13 H 0.7887 -0.0702 0.1251
H14 H 0.7676 0.0334 0.2486
H15 H 0.7583 0.3145 0.2249
H16 H 0.6094 -0.0231 0.1537
H17 H 0.5930 0.0901 0.2306
H20 H 0.5681 0.3434 -0.0615
H21 H 0.6844 0.2520 -0.0693
H22 H 0.6597 0.5265 -0.0590
H24 H 0.6374 0.0971 0.0398
H28 H 0.5200 0.4577 0.1719
O2 O 1.0131(5) 0.001(1) 0.0305(3)
H26 H 0.9853 -0.1587 0.0250
H31 H 1.0776 0.0163 0.0811
loop_
_geom_bond_atom_site_label_1
_geom_bond_atom_site_label_2
_geom_bond_site_symmetry_1
_geom_bond_site_symmetry_2
S1 O5 1_555 1_555
O1 C1 1_555 1_555
O2 H26 1_555 1_555
O3 C8 1_555 1_555
O4 C8 1_555 1_555
O6 S1 1_555 1_555
N1 C1 1_555 1_555
N2 C2 1_555 1_555
N3 S1 1_555 1_555
C1 C2 1_555 1_555
C2 C3 1_555 1_555
C3 C4 1_555 1_555
C4 C5 1_555 1_555
C5 C6 1_555 1_555
C6 N1 1_555 1_555
C7 N3 1_555 1_555
C8 C7 1_555 1_555
C9 C7 1_555 1_555
C10 C9 1_555 1_555
C11 C10 1_555 1_555
C12 C11 1_555 1_555
C13 C12 1_555 1_555
C14 C13 1_555 1_555
C15 C10 1_555 1_555
C16 S1 1_555 1_555
C17 C16 1_555 1_555
C18 C17 1_555 1_555
C19 C18 1_555 1_555
C20 C19 1_555 1_555
C21 C16 1_555 1_555
C22 C19 1_555 1_555
H1 C11 1_555 1_555
H2 C12 1_555 1_555
H3 C13 1_555 1_555
H4 C14 1_555 1_555
H5 C15 1_555 1_555
H6 C20 1_555 1_555
H7 C21 1_555 1_555
H8 C17 1_555 1_555
H9 C18 1_555 1_555
H10 C3 1_555 1_555
H11 C3 1_555 1_555
H12 C4 1_555 1_555
H13 C4 1_555 1_555
H14 C5 1_555 1_555
H15 C5 1_555 1_555
H16 C6 1_555 1_555
H17 C6 1_555 1_555
H18 C9 1_555 1_555
H19 C9 1_555 1_555
H20 N2 1_555 1_555
H21 N2 1_555 1_555
H22 N2 1_555 1_555
H23 C7 1_555 1_555
H24 C2 1_555 1_555
H25 C22 1_555 1_555
H27 N3 1_555 1_555
H28 N1 1_555 1_555
H29 C22 1_555 1_555
H30 C22 1_555 1_555
H31 O2 1_555 1_555
C14 C15 1_555 1_555
C20 C21 1_555 1_555

#END
