
#######################################################################
#
#                 Cambridge Crystallographic Data Centre
#                                CCDC 
#
#######################################################################
#
# If this CIF has been generated from an entry in the Cambridge 
# Structural Database, then it will include bibliographic, chemical, 
# crystal, experimental, refinement or atomic coordinate data resulting 
# from the CCDC's data processing and validation procedures.
#
#######################################################################

data_FEXXIQ
_chemical_formula_moiety         'C17 H25 I2 N1 O1'
_chemical_name_systematic        
N-(2,5-Di-iodo-4-methylbenzyloxy)-2,2,6,6-tetramethylpiperidine
_symmetry_cell_setting           triclinic
_symmetry_space_group_name_H-M   'P -1'
_symmetry_Int_Tables_number      2
_space_group_name_Hall           '-P 1'
loop_
_symmetry_equiv_pos_site_id
_symmetry_equiv_pos_as_xyz
1 x,y,z
2 -x,-y,-z
_cell_length_a                   8.0000(5)
_cell_length_b                   11.5696(7)
_cell_length_c                   11.8431(7)
_cell_angle_alpha                62.9210(10)
_cell_angle_beta                 76.8720(10)
_cell_angle_gamma                76.0130(10)
_cell_volume                     938.321
_exptl_crystal_colour            colorless
_exptl_crystal_description       irregular
_chemical_melting_point          126-128deg.C
_cell_formula_units_Z            2
loop_
_atom_site_label
_atom_site_type_symbol
_atom_site_fract_x
_atom_site_fract_y
_atom_site_fract_z
I1 I 0.01593(2) 0.361073(16) 0.900252(16)
I2 I 0.38831(2) 0.698974(17) 0.274562(15)
C1 C 0.1318(3) 0.4644(2) 0.7121(2)
C2 C 0.1579(3) 0.4081(2) 0.6271(3)
H1 H 0.1227 0.3254 0.6553
C3 C 0.2347(3) 0.4700(2) 0.5008(2)
C4 C 0.2788(3) 0.5928(2) 0.4638(2)
C5 C 0.2522(3) 0.6505(2) 0.5480(2)
H2 H 0.2840 0.7345 0.5190
C6 C 0.1791(3) 0.5861(2) 0.6751(2)
C7 C 0.2698(4) 0.4021(3) 0.4133(3)
H3 H 0.2347 0.4649 0.3297
H4 H 0.2034 0.3291 0.4507
H5 H 0.3942 0.3680 0.4027
C8 C 0.1544(4) 0.6452(3) 0.7687(3)
H6 H 0.0290 0.6655 0.7972
H7 H 0.2117 0.5824 0.8448
C9 C 0.0995(3) 0.9516(2) 0.7432(3)
C10 C 0.0913(4) 1.0146(3) 0.8333(3)
H8 H 0.0235 1.1043 0.7988
H9 H 0.0287 0.9629 0.9176
C11 C 0.2681(4) 1.0232(3) 0.8518(3)
H10 H 0.2547 1.0610 0.9141
H11 H 0.3283 1.0813 0.7695
C12 C 0.3748(4) 0.8861(3) 0.9010(3)
H12 H 0.3196 0.8319 0.9874
H13 H 0.4923 0.8925 0.9090
C13 C 0.3922(3) 0.8166(3) 0.8137(3)
C14 C -0.0825(4) 0.9258(3) 0.7494(3)
H14 H -0.0793 0.8902 0.6878
H15 H -0.1646 1.0083 0.7283
H16 H -0.1198 0.8623 0.8359
C15 C 0.1571(4) 1.0425(3) 0.6038(3)
H17 H 0.2613 1.0757 0.5991
H18 H 0.0636 1.1166 0.5720
H19 H 0.1831 0.9934 0.5512
C16 C 0.4683(4) 0.6728(3) 0.8858(3)
H20 H 0.3888 0.6316 0.9635
H21 H 0.5809 0.6672 0.9091
H22 H 0.4842 0.6269 0.8310
C17 C 0.5158(4) 0.8767(3) 0.6895(3)
H23 H 0.4928 0.8549 0.6242
H24 H 0.6364 0.8410 0.7061
H25 H 0.4968 0.9724 0.6591
N1 N 0.2113(3) 0.8199(2) 0.79633(19)
O1 O 0.2298(2) 0.76298(17) 0.70632(17)
loop_
_geom_bond_atom_site_label_1
_geom_bond_atom_site_label_2
_geom_bond_site_symmetry_1
_geom_bond_site_symmetry_2
I1 C1 1_555 1_555
I2 C4 1_555 1_555
C1 C2 1_555 1_555
C2 H1 1_555 1_555
C3 C2 1_555 1_555
C4 C3 1_555 1_555
C5 C4 1_555 1_555
H2 C5 1_555 1_555
C6 C1 1_555 1_555
C7 C3 1_555 1_555
H3 C7 1_555 1_555
H4 C7 1_555 1_555
H5 C7 1_555 1_555
C8 C6 1_555 1_555
H6 C8 1_555 1_555
H7 C8 1_555 1_555
C9 C10 1_555 1_555
C10 H8 1_555 1_555
H9 C10 1_555 1_555
C11 C10 1_555 1_555
H10 C11 1_555 1_555
H11 C11 1_555 1_555
C12 C11 1_555 1_555
H12 C12 1_555 1_555
H13 C12 1_555 1_555
C13 C12 1_555 1_555
C14 C9 1_555 1_555
H14 C14 1_555 1_555
H15 C14 1_555 1_555
H16 C14 1_555 1_555
C15 C9 1_555 1_555
H17 C15 1_555 1_555
H18 C15 1_555 1_555
H19 C15 1_555 1_555
C16 C13 1_555 1_555
H20 C16 1_555 1_555
H21 C16 1_555 1_555
H22 C16 1_555 1_555
C17 C13 1_555 1_555
H23 C17 1_555 1_555
H24 C17 1_555 1_555
H25 C17 1_555 1_555
N1 C9 1_555 1_555
O1 C8 1_555 1_555
C5 C6 1_555 1_555
C13 N1 1_555 1_555
N1 O1 1_555 1_555

#END
