
#######################################################################
#
#                 Cambridge Crystallographic Data Centre
#                                CCDC 
#
#######################################################################
#
# If this CIF has been generated from an entry in the Cambridge 
# Structural Database, then it will include bibliographic, chemical, 
# crystal, experimental, refinement or atomic coordinate data resulting 
# from the CCDC's data processing and validation procedures.
#
#######################################################################

data_FEXXAJ
_chemical_formula_moiety         'C13 H10 Cl1 N5'
_chemical_name_systematic        
3-(4-Chlorophenyl)-5-(pyridin-2-yl)-4H-1,2,4-triazol-4-amine
_symmetry_cell_setting           monoclinic
_symmetry_space_group_name_H-M   'C 2/c'
_symmetry_Int_Tables_number      15
_space_group_name_Hall           '-C 2yn'
loop_
_symmetry_equiv_pos_site_id
_symmetry_equiv_pos_as_xyz
1 x,y,z
2 -x,y,1/2-z
3 1/2+x,1/2+y,z
4 1/2-x,1/2+y,1/2-z
5 -x,-y,-z
6 x,-y,1/2+z
7 1/2-x,1/2-y,-z
8 1/2+x,1/2-y,1/2+z
_cell_length_a                   28.68(7)
_cell_length_b                   6.041(16)
_cell_length_c                   14.68(4)
_cell_angle_alpha                90
_cell_angle_beta                 103.90(3)
_cell_angle_gamma                90
_cell_volume                     2468.92
_exptl_crystal_colour            colorless
_exptl_crystal_description       Block
_cell_formula_units_Z            8
loop_
_atom_site_label
_atom_site_type_symbol
_atom_site_fract_x
_atom_site_fract_y
_atom_site_fract_z
Cl1 Cl 0.45629(5) 0.0569(2) 0.07164(10)
N1 N 0.22238(11) 0.1321(4) 0.12300(19)
N2 N 0.25266(13) 0.4553(5) 0.1649(2)
C1 C 0.26162(14) 0.2590(6) 0.1320(2)
C2 C 0.30833(14) 0.2018(5) 0.1137(2)
N3 N 0.21826(14) -0.0891(5) 0.0911(3)
H1 H 0.2379(10) -0.170(6) 0.137(2)
H2 H 0.1882(6) -0.125(7) 0.089(3)
N4 N 0.12184(14) 0.0037(5) 0.1105(2)
C3 C 0.18824(15) 0.2575(5) 0.1499(2)
C4 C 0.36301(17) -0.0389(7) 0.0601(3)
H3 H 0.3689 -0.1727 0.0336
C5 C 0.13932(15) 0.1973(6) 0.1501(2)
C6 C 0.31834(15) 0.0047(6) 0.0734(3)
H4 H 0.2941 -0.0999 0.0551
C7 C 0.39905(15) 0.1136(7) 0.0857(3)
C8 C 0.11120(16) 0.3386(7) 0.1901(3)
H5 H 0.1237 0.4719 0.2170
C9 C 0.34536(17) 0.3547(7) 0.1369(3)
H6 H 0.3395 0.4904 0.1620
C10 C 0.07677(19) -0.0449(8) 0.1110(4)
H7 H 0.0646 -0.1776 0.0831
C11 C 0.0458(2) 0.0850(9) 0.1497(3)
H8 H 0.0145 0.0422 0.1484
C12 C 0.39002(17) 0.3128(7) 0.1240(3)
H9 H 0.4143 0.4178 0.1410
C13 C 0.06502(19) 0.2786(9) 0.1892(3)
H10 H 0.0464 0.3723 0.2162
N5 N 0.20671(13) 0.4549(5) 0.1751(2)
loop_
_geom_bond_atom_site_label_1
_geom_bond_atom_site_label_2
_geom_bond_site_symmetry_1
_geom_bond_site_symmetry_2
Cl1 C7 1_555 1_555
N1 C1 1_555 1_555
N2 C1 1_555 1_555
C1 C2 1_555 1_555
C2 C6 1_555 1_555
N3 N1 1_555 1_555
H1 N3 1_555 1_555
H2 N3 1_555 1_555
N4 C5 1_555 1_555
C3 N1 1_555 1_555
C4 H3 1_555 1_555
C5 C3 1_555 1_555
C6 C4 1_555 1_555
H4 C6 1_555 1_555
C7 C4 1_555 1_555
C8 C5 1_555 1_555
H5 C8 1_555 1_555
C9 C2 1_555 1_555
H6 C9 1_555 1_555
C10 N4 1_555 1_555
H7 C10 1_555 1_555
C11 C10 1_555 1_555
H8 C11 1_555 1_555
C12 C7 1_555 1_555
H9 C12 1_555 1_555
C13 C8 1_555 1_555
H10 C13 1_555 1_555
N5 N2 1_555 1_555
C3 N5 1_555 1_555
C9 C12 1_555 1_555
C11 C13 1_555 1_555

#END
