
#######################################################################
#
#                 Cambridge Crystallographic Data Centre
#                                CCDC 
#
#######################################################################
#
# If this CIF has been generated from an entry in the Cambridge 
# Structural Database, then it will include bibliographic, chemical, 
# crystal, experimental, refinement or atomic coordinate data resulting 
# from the CCDC's data processing and validation procedures.
#
#######################################################################

data_FEYBOD
_chemical_formula_moiety         'C16 H36 N1 1+,C10 H5 F3 O3,C10 H4 F3 O3 1-'
_chemical_name_systematic        
'tetrabutylammonium 2-oxo-4-(trifluoromethyl)-2H-1-benzopyran-7-olate 7-hydroxy-4-(trifluoromethyl)-2H-1-benzopyran-2-one'
_symmetry_cell_setting           triclinic
_symmetry_space_group_name_H-M   'P -1'
_symmetry_Int_Tables_number      2
_space_group_name_Hall           '-P 1'
loop_
_symmetry_equiv_pos_site_id
_symmetry_equiv_pos_as_xyz
1 x,y,z
2 -x,-y,-z
_cell_length_a                   8.1003(13)
_cell_length_b                   9.5979(16)
_cell_length_c                   23.523(4)
_cell_angle_alpha                93.413(4)
_cell_angle_beta                 91.345(5)
_cell_angle_gamma                108.661(4)
_cell_volume                     1727.85
_exptl_crystal_colour            green
_exptl_crystal_description       needle
_cell_formula_units_Z            2
loop_
_atom_site_label
_atom_site_type_symbol
_atom_site_fract_x
_atom_site_fract_y
_atom_site_fract_z
F1 F 0.0996(3) -0.2497(3) 1.00374(11)
O1 O 0.3654(4) -0.4830(3) 0.85680(11)
F2 F 0.3688(3) -0.1740(3) 1.03328(10)
O2 O 0.4577(4) -0.0473(3) 0.76248(12)
F3 F 0.2018(4) -0.3874(3) 1.05229(11)
O3 O 0.3517(4) -0.6860(3) 0.89840(13)
C1 C 0.3628(5) -0.3387(4) 0.85841(18)
C2 C 0.3827(5) -0.0483(4) 0.85936(18)
H1 H 0.3928 0.0511 0.8603
C3 C 0.2880(5) -0.3574(4) 0.95672(17)
C4 C 0.4042(5) -0.2696(4) 0.80914(18)
H2 H 0.4248 -0.3207 0.7767
C5 C 0.3374(5) -0.1211(4) 0.90686(17)
H3 H 0.3138 -0.0715 0.9392
C6 C 0.3248(5) -0.2720(4) 0.90869(17)
C7 C 0.4157(5) -0.1188(4) 0.80783(18)
C8 C 0.3388(5) -0.5644(5) 0.90401(19)
C9 C 0.2970(6) -0.4956(5) 0.9551(2)
C10 C 0.2395(6) -0.2929(5) 1.0115(2)
H4 H 0.268(4) -0.550(3) 0.9840(13)
O4 O 0.5128(4) -0.1828(3) 0.67388(14)
F4 F 0.5750(3) 0.3669(3) 0.51012(10)
F5 F 0.8212(3) 0.4447(3) 0.55717(11)
O5 O 0.7712(4) -0.0711(3) 0.49807(12)
F6 F 0.8124(3) 0.4430(3) 0.46590(11)
O6 O 0.8991(4) -0.0293(4) 0.41611(13)
C11 C 0.6412(5) -0.1249(5) 0.58559(18)
H5 H 0.6542 -0.2177 0.5808
C12 C 0.7518(6) 0.2134(5) 0.50568(18)
C13 C 0.5647(5) -0.0856(5) 0.63375(18)
C14 C 0.6845(5) 0.1182(5) 0.55067(18)
C15 C 0.5488(5) 0.0558(5) 0.63999(18)
H6 H 0.4986 0.0830 0.6721
C16 C 0.6064(5) 0.1539(5) 0.59939(17)
H7 H 0.5935 0.2466 0.6042
C17 C 0.7397(6) 0.3678(5) 0.50915(19)
C18 C 0.6971(5) -0.0240(5) 0.54532(17)
C19 C 0.8363(6) 0.0200(6) 0.4553(2)
C20 C 0.8247(6) 0.1677(6) 0.46103(19)
H8 H 0.8690 0.2322 0.4330
H9 H 0.483(7) -0.136(6) 0.711(2)
N1 N -0.0046(4) 0.1133(3) 0.77037(13)
C21 C 0.0160(5) 0.0681(4) 0.83023(16)
H10 H 0.0970 0.0123 0.8292
H11 H 0.0700 0.1571 0.8546
C22 C 0.1900(5) 0.2776(4) 0.69871(17)
H12 H 0.1504 0.2014 0.6678
H13 H 0.1157 0.3393 0.6980
C23 C -0.1333(5) 0.1989(4) 0.76845(17)
H14 H -0.2455 0.1355 0.7796
H15 H -0.1476 0.2211 0.7293
C24 C -0.1467(5) -0.0223(4) 0.85824(17)
H16 H -0.2086 -0.1091 0.8337
H17 H -0.2238 0.0357 0.8649
C25 C 0.0294(5) -0.1231(4) 0.72322(17)
H18 H 0.0543 -0.1492 0.7609
H19 H 0.1395 -0.0734 0.7067
C26 C -0.0900(5) -0.0675(4) 0.91483(16)
H20 H -0.0158 -0.1276 0.9072
H21 H -0.0215 0.0204 0.9377
C27 C -0.0788(5) -0.0198(4) 0.72800(17)
H22 H -0.1948 -0.0753 0.7390
H23 H -0.0904 0.0149 0.6907
C28 C 0.1762(5) 0.2070(4) 0.75534(17)
H24 H 0.2513 0.1460 0.7551
H25 H 0.2213 0.2848 0.7854
C29 C -0.0842(5) 0.3425(4) 0.80595(17)
H26 H 0.0265 0.4087 0.7950
H27 H -0.0718 0.3226 0.8455
C30 C 0.3765(5) 0.3699(4) 0.69041(18)
H28 H 0.4501 0.3077 0.6914
H29 H 0.4156 0.4451 0.7216
C31 C -0.1736(6) 0.5674(4) 0.83134(19)
H30 H -0.0672 0.6297 0.8170
H31 H -0.1566 0.5580 0.8713
H32 H -0.2644 0.6102 0.8258
C32 C 0.3974(6) 0.4437(5) 0.63425(19)
H33 H 0.3567 0.3698 0.6032
H34 H 0.5181 0.4977 0.6301
H35 H 0.3303 0.5100 0.6340
C33 C 0.0360(6) -0.3688(4) 0.68126(18)
H36 H -0.0305 -0.4564 0.6587
H37 H 0.0610 -0.3942 0.7186
H38 H 0.1434 -0.3229 0.6634
C34 C -0.0679(6) -0.2630(4) 0.68611(18)
H39 H -0.1788 -0.3114 0.7024
H40 H -0.0916 -0.2365 0.6483
C35 C -0.2420(5) -0.1529(4) 0.94872(17)
H41 H -0.3041 -0.2447 0.9279
H42 H -0.3192 -0.0961 0.9549
H43 H -0.1990 -0.1719 0.9848
C36 C -0.2255(6) 0.4147(4) 0.79935(19)
H44 H -0.3331 0.3522 0.8139
H45 H -0.2464 0.4242 0.7592
loop_
_geom_bond_atom_site_label_1
_geom_bond_atom_site_label_2
_geom_bond_site_symmetry_1
_geom_bond_site_symmetry_2
F1 C10 1_555 1_555
O1 C1 1_555 1_555
F2 C10 1_555 1_555
O2 C7 1_555 1_555
F3 C10 1_555 1_555
O3 C8 1_555 1_555
C1 C4 1_555 1_555
C2 H1 1_555 1_555
C3 C6 1_555 1_555
C4 H2 1_555 1_555
C5 C2 1_555 1_555
H3 C5 1_555 1_555
C6 C1 1_555 1_555
C7 C2 1_555 1_555
C8 O1 1_555 1_555
C9 C3 1_555 1_555
C10 C3 1_555 1_555
H4 C9 1_555 1_555
O4 C13 1_555 1_555
F4 C17 1_555 1_555
F5 C17 1_555 1_555
O5 C18 1_555 1_555
F6 C17 1_555 1_555
O6 C19 1_555 1_555
C11 H5 1_555 1_555
C12 C14 1_555 1_555
C13 C11 1_555 1_555
C14 C16 1_555 1_555
C15 C13 1_555 1_555
H6 C15 1_555 1_555
C16 C15 1_555 1_555
H7 C16 1_555 1_555
C17 C12 1_555 1_555
C18 C11 1_555 1_555
C19 O5 1_555 1_555
C20 C12 1_555 1_555
H8 C20 1_555 1_555
H9 O4 1_555 1_555
N1 C21 1_555 1_555
C21 H10 1_555 1_555
H11 C21 1_555 1_555
C22 H12 1_555 1_555
H13 C22 1_555 1_555
C23 N1 1_555 1_555
H14 C23 1_555 1_555
H15 C23 1_555 1_555
C24 C21 1_555 1_555
H16 C24 1_555 1_555
H17 C24 1_555 1_555
C25 H18 1_555 1_555
H19 C25 1_555 1_555
C26 C24 1_555 1_555
H20 C26 1_555 1_555
H21 C26 1_555 1_555
C27 N1 1_555 1_555
H22 C27 1_555 1_555
H23 C27 1_555 1_555
C28 N1 1_555 1_555
H24 C28 1_555 1_555
H25 C28 1_555 1_555
C29 C23 1_555 1_555
H26 C29 1_555 1_555
H27 C29 1_555 1_555
C30 C22 1_555 1_555
H28 C30 1_555 1_555
H29 C30 1_555 1_555
C31 H30 1_555 1_555
H31 C31 1_555 1_555
H32 C31 1_555 1_555
C32 C30 1_555 1_555
H33 C32 1_555 1_555
H34 C32 1_555 1_555
H35 C32 1_555 1_555
C33 H36 1_555 1_555
H37 C33 1_555 1_555
H38 C33 1_555 1_555
C34 C25 1_555 1_555
H39 C34 1_555 1_555
H40 C34 1_555 1_555
C35 C26 1_555 1_555
H41 C35 1_555 1_555
H42 C35 1_555 1_555
H43 C35 1_555 1_555
C36 C29 1_555 1_555
H44 C36 1_555 1_555
H45 C36 1_555 1_555
C4 C7 1_555 1_555
C5 C6 1_555 1_555
C8 C9 1_555 1_555
C14 C18 1_555 1_555
C19 C20 1_555 1_555
C22 C28 1_555 1_555
C25 C27 1_555 1_555
C31 C36 1_555 1_555
C33 C34 1_555 1_555

#END
