
#######################################################################
#
#                 Cambridge Crystallographic Data Centre
#                                CCDC 
#
#######################################################################
#
# If this CIF has been generated from an entry in the Cambridge 
# Structural Database, then it will include bibliographic, chemical, 
# crystal, experimental, refinement or atomic coordinate data resulting 
# from the CCDC's data processing and validation procedures.
#
#######################################################################

data_FEYBIX
_chemical_formula_moiety         'C16 H9 F3 O5 S1'
_chemical_name_systematic        
'2-oxo-4-(trifluoromethyl)-2H-chromen-7-yl benzenesulfonate'
_symmetry_cell_setting           monoclinic
_symmetry_space_group_name_H-M   'C 2/c'
_symmetry_Int_Tables_number      15
_space_group_name_Hall           '-C 2yn'
loop_
_symmetry_equiv_pos_site_id
_symmetry_equiv_pos_as_xyz
1 x,y,z
2 -x,y,1/2-z
3 1/2+x,1/2+y,z
4 1/2-x,1/2+y,1/2-z
5 -x,-y,-z
6 x,-y,1/2+z
7 1/2-x,1/2-y,-z
8 1/2+x,1/2-y,1/2+z
_cell_length_a                   31.1523(16)
_cell_length_b                   5.3502(3)
_cell_length_c                   17.6835(9)
_cell_angle_alpha                90
_cell_angle_beta                 91.452(2)
_cell_angle_gamma                90
_cell_volume                     2946.38
_exptl_crystal_colour            colorless
_exptl_crystal_description       needle
_cell_formula_units_Z            8
loop_
_atom_site_label
_atom_site_type_symbol
_atom_site_fract_x
_atom_site_fract_y
_atom_site_fract_z
S1 S 0.276852(14) 0.51835(9) 0.37684(3)
F1 F 0.00580(4) 0.9862(3) 0.36199(8)
O1 O 0.11698(4) 0.4641(3) 0.48783(8)
O2 O 0.25536(4) 0.4431(3) 0.30836(8)
O3 O 0.05587(4) 0.3222(3) 0.53102(8)
F2 F 0.06072(4) 1.2225(2) 0.34999(7)
F3 F 0.05165(4) 0.9062(3) 0.27647(7)
O4 O 0.28232(4) 0.3408(3) 0.43594(9)
O5 O 0.25250(4) 0.7586(3) 0.40899(8)
C1 C 0.32617(6) 0.6611(4) 0.35799(11)
C2 C 0.32712(6) 0.8715(4) 0.31233(11)
H1 H 0.3018 0.9427 0.2934
C3 C 0.07312(6) 0.4752(4) 0.49227(11)
C4 C 0.07253(6) 0.8172(4) 0.40136(11)
C5 C 0.20743(6) 0.7637(4) 0.40418(11)
C6 C 0.18880(6) 0.9441(4) 0.35772(11)
H2 H 0.2057 1.0485 0.3289
C7 C 0.14473(6) 0.9662(4) 0.35501(11)
H3 H 0.1318 1.0865 0.3240
C8 C 0.36338(6) 0.5495(4) 0.38696(11)
H4 H 0.3620 0.4095 0.4180
C9 C 0.40270(6) 0.6520(4) 0.36849(11)
H5 H 0.4280 0.5783 0.3862
C10 C 0.18392(6) 0.6024(4) 0.44744(11)
H6 H 0.1972 0.4816 0.4778
C11 C 0.05111(6) 0.6657(4) 0.44752(11)
H7 H 0.0215 0.6829 0.4510
C12 C 0.04762(6) 0.9830(4) 0.34818(12)
C13 C 0.11900(6) 0.8083(4) 0.39876(11)
C14 C 0.13970(6) 0.6281(4) 0.44373(11)
C15 C 0.36661(6) 0.9730(4) 0.29560(11)
H8 H 0.3680 1.1150 0.2654
C16 C 0.40418(6) 0.8633(4) 0.32375(12)
H9 H 0.4306 0.9329 0.3123
loop_
_geom_bond_atom_site_label_1
_geom_bond_atom_site_label_2
_geom_bond_site_symmetry_1
_geom_bond_site_symmetry_2
S1 O2 1_555 1_555
F1 C12 1_555 1_555
O1 C3 1_555 1_555
O3 C3 1_555 1_555
F2 C12 1_555 1_555
F3 C12 1_555 1_555
O4 S1 1_555 1_555
O5 S1 1_555 1_555
C1 S1 1_555 1_555
C2 C1 1_555 1_555
H1 C2 1_555 1_555
C3 C11 1_555 1_555
C4 C11 1_555 1_555
C5 O5 1_555 1_555
C6 C5 1_555 1_555
H2 C6 1_555 1_555
C7 C6 1_555 1_555
H3 C7 1_555 1_555
C8 C1 1_555 1_555
H4 C8 1_555 1_555
C9 C8 1_555 1_555
H5 C9 1_555 1_555
C10 C5 1_555 1_555
H6 C10 1_555 1_555
C11 H7 1_555 1_555
C12 C4 1_555 1_555
C13 C4 1_555 1_555
C14 O1 1_555 1_555
C15 C2 1_555 1_555
H8 C15 1_555 1_555
C16 C9 1_555 1_555
H9 C16 1_555 1_555
C7 C13 1_555 1_555
C10 C14 1_555 1_555
C13 C14 1_555 1_555
C15 C16 1_555 1_555

#END
