
#######################################################################
#
#                 Cambridge Crystallographic Data Centre
#                                CCDC 
#
#######################################################################
#
# If this CIF has been generated from an entry in the Cambridge 
# Structural Database, then it will include bibliographic, chemical, 
# crystal, experimental, refinement or atomic coordinate data resulting 
# from the CCDC's data processing and validation procedures.
#
#######################################################################

data_FEYCAP
_chemical_formula_moiety         'C23 H20 Br1 N1 O3'
_chemical_name_systematic        
7-(4-Bromophenyl)-1',3-dimethyl-4a,5,7,7a-tetrahydro-1H-spiro[cyclopenta[c]pyran-6,3'-indole]-1,2'(1'H)-dione
_symmetry_cell_setting           monoclinic
_symmetry_space_group_name_H-M   'P 21/c'
_symmetry_Int_Tables_number      14
_space_group_name_Hall           '-P 2ybc'
loop_
_symmetry_equiv_pos_site_id
_symmetry_equiv_pos_as_xyz
1 x,y,z
2 -x,1/2+y,1/2-z
3 -x,-y,-z
4 x,1/2-y,1/2+z
_cell_length_a                   8.3402(7)
_cell_length_b                   16.2461(14)
_cell_length_c                   14.7136(12)
_cell_angle_alpha                90
_cell_angle_beta                 95.388(2)
_cell_angle_gamma                90
_cell_volume                     1984.82
_exptl_crystal_colour            yellow
_exptl_crystal_description       prismatic
_cell_formula_units_Z            4
loop_
_atom_site_label
_atom_site_type_symbol
_atom_site_fract_x
_atom_site_fract_y
_atom_site_fract_z
Br1 Br 0.23548(5) 0.90011(3) 1.04711(3)
N1 N 0.5545(3) 1.01144(15) 0.67185(16)
O1 O 0.8037(3) 0.99097(15) 0.74639(16)
O2 O 0.8692(3) 0.64959(15) 0.78525(14)
O3 O 0.9003(3) 0.72873(16) 0.90561(15)
C1 C 0.2628(5) 0.8533(2) 0.5114(2)
H1 H 0.2008 0.8155 0.4759
C2 C 0.2063(4) 0.9311(3) 0.5217(2)
H2 H 0.1064 0.9456 0.4928
C3 C 0.2951(4) 0.9892(2) 0.5744(2)
H3 H 0.2561 1.0422 0.5816
C4 C 0.4423(4) 0.96548(19) 0.61538(18)
C5 C 0.5022(4) 0.88626(18) 0.60535(19)
C6 C 0.4112(4) 0.8299(2) 0.5531(2)
H4 H 0.4492 0.7767 0.5459
C7 C 0.6860(4) 0.9654(2) 0.6989(2)
C8 C 0.6616(4) 0.87857(18) 0.65982(19)
C9 C 0.6620(3) 0.81372(18) 0.73861(17)
H5 H 0.6168 0.7628 0.7111
C10 C 0.8433(3) 0.79821(19) 0.76255(18)
H6 H 0.8913 0.8471 0.7932
C11 C 0.9074(4) 0.7902(2) 0.66824(19)
H7 H 1.0216 0.8053 0.6722
C12 C 0.8071(4) 0.8521(2) 0.6079(2)
H8 H 0.7694 0.8270 0.5501
H9 H 0.8720 0.8998 0.5959
C13 C 0.8748(4) 0.7255(2) 0.8238(2)
C14 C 0.8665(4) 0.6408(2) 0.6889(2)
C15 C 0.8859(4) 0.7032(2) 0.6359(2)
H10 H 0.8864 0.6931 0.5737
C16 C 0.8428(5) 0.5523(2) 0.6650(3)
H11 H 0.8471 0.5452 0.6005
H12 H 0.7398 0.5345 0.6817
H13 H 0.9263 0.5202 0.6974
C17 C 0.5405(5) 1.0984(2) 0.6928(3)
H14 H 0.6433 1.1190 0.7176
H15 H 0.4634 1.1056 0.7367
H16 H 0.5055 1.1280 0.6381
C18 C 0.5607(3) 0.83596(17) 0.81465(18)
C19 C 0.3976(3) 0.81813(19) 0.8060(2)
H17 H 0.3528 0.7921 0.7533
C20 C 0.2999(4) 0.83793(19) 0.8733(2)
H18 H 0.1904 0.8261 0.8655
C21 C 0.3652(4) 0.8750(2) 0.9516(2)
C22 C 0.5261(4) 0.8942(2) 0.9625(2)
H19 H 0.5698 0.9201 1.0155
C23 C 0.6229(4) 0.8746(2) 0.8942(2)
H20 H 0.7319 0.8877 0.9019
loop_
_geom_bond_atom_site_label_1
_geom_bond_atom_site_label_2
_geom_bond_site_symmetry_1
_geom_bond_site_symmetry_2
Br1 C21 1_555 1_555
N1 C4 1_555 1_555
O1 C7 1_555 1_555
O2 C13 1_555 1_555
O3 C13 1_555 1_555
C1 H1 1_555 1_555
C2 C1 1_555 1_555
H2 C2 1_555 1_555
C3 C2 1_555 1_555
H3 C3 1_555 1_555
C4 C3 1_555 1_555
C5 C4 1_555 1_555
C6 C1 1_555 1_555
H4 C6 1_555 1_555
C7 N1 1_555 1_555
C8 C5 1_555 1_555
C9 C8 1_555 1_555
H5 C9 1_555 1_555
C10 C9 1_555 1_555
H6 C10 1_555 1_555
C11 C10 1_555 1_555
H7 C11 1_555 1_555
C12 C8 1_555 1_555
H8 C12 1_555 1_555
H9 C12 1_555 1_555
C13 C10 1_555 1_555
C14 O2 1_555 1_555
C15 C11 1_555 1_555
H10 C15 1_555 1_555
C16 C14 1_555 1_555
H11 C16 1_555 1_555
H12 C16 1_555 1_555
H13 C16 1_555 1_555
C17 N1 1_555 1_555
H14 C17 1_555 1_555
H15 C17 1_555 1_555
H16 C17 1_555 1_555
C18 C9 1_555 1_555
C19 C18 1_555 1_555
H17 C19 1_555 1_555
C20 C19 1_555 1_555
H18 C20 1_555 1_555
C21 C20 1_555 1_555
C22 C21 1_555 1_555
H19 C22 1_555 1_555
C23 C18 1_555 1_555
H20 C23 1_555 1_555
C5 C6 1_555 1_555
C7 C8 1_555 1_555
C11 C12 1_555 1_555
C14 C15 1_555 1_555
C22 C23 1_555 1_555

#END
