
#######################################################################
#
#                 Cambridge Crystallographic Data Centre
#                                CCDC 
#
#######################################################################
#
# If this CIF has been generated from an entry in the Cambridge 
# Structural Database, then it will include bibliographic, chemical, 
# crystal, experimental, refinement or atomic coordinate data resulting 
# from the CCDC's data processing and validation procedures.
#
#######################################################################

data_FEYDES
_chemical_compound_source        'Jaspis sponge'
_chemical_name_common            'Jaspamide acetate'
_chemical_formula_moiety         'C38 H47 Br1 N4 O7'
_chemical_name_systematic        
4-(4-Acetoxyphenyl)-7-((2-bromoindol-3-yl)methyl)-8,10,13,15,17,19-hexamethyl-1-oxa-5,8,11-triazacyclononadec-15-ene-2,6,9,12-tetraone
_chemical_properties_biological  
'antimicrobial and potent insecticidal activity'
_symmetry_cell_setting           tetragonal
_symmetry_space_group_name_H-M   'I 4'
_symmetry_Int_Tables_number      79
_space_group_name_Hall           'I 4'
loop_
_symmetry_equiv_pos_site_id
_symmetry_equiv_pos_as_xyz
1 x,y,z
2 1/2+x,1/2+y,1/2+z
3 -y,x,z
4 1/2-y,1/2+x,1/2+z
5 -x,-y,z
6 1/2-x,1/2-y,1/2+z
7 y,-x,z
8 1/2+y,1/2-x,1/2+z
_cell_length_a                   24.9053(46)
_cell_length_b                   24.9053(46)
_cell_length_c                   15.0165(4)
_cell_angle_alpha                90
_cell_angle_beta                 90
_cell_angle_gamma                90
_cell_volume                     9314.34
_chemical_melting_point          145-147deg.C
_cell_formula_units_Z            8
loop_
_atom_site_label
_atom_site_type_symbol
_atom_site_fract_x
_atom_site_fract_y
_atom_site_fract_z
C1 C -0.2439(12) -0.4001(14) 0.0264
C2 C -0.2159(13) -0.3925(12) 0.1098(28)
C3 C -0.1660(17) -0.4281(12) 0.1193(27)
C4 C -0.1178(16) -0.4166(18) 0.0706(32)
C5 C -0.1119(15) -0.3787(14) 0.0099(31)
C6 C -0.0647(14) -0.3620(17) -0.0430(40)
C7 C -0.0764(15) -0.3545(15) -0.1439(38)
C8 C -0.0960(14) -0.4023(16) -0.1925(40)
O1 O -0.1146(10) -0.3939(9) -0.2756(24)
C9 C -0.1622(14) -0.3799(12) -0.2899(31)
C10 C -0.1772(16) -0.3621(14) -0.3826(29)
C11 C -0.1924(15) -0.3077(14) -0.3886(32)
N1 N -0.2403(10) -0.2989(10) -0.3334(26)
C12 C -0.2779(12) -0.2667(13) -0.3461(28)
C13 C -0.3199(11) -0.2641(10) -0.2717(25)
N2 N -0.3233(7) -0.3116(8) -0.2239(23)
C14 C -0.3041(11) -0.3098(10) -0.1388(28)
C15 C -0.3033(11) -0.3621(11) -0.0852(25)
N3 N -0.2655(9) -0.3573(9) -0.0104(22)
O2 O -0.2499(9) -0.4457(10) -0.0074(22)
C16 C -0.2562(15) -0.4020(17) 0.1845(29)
C17 C -0.0700(22) -0.4515(20) 0.1016(50)
C18 C -0.0412(16) -0.3127(18) 0.0115(38)
C19 C -0.0522(15) -0.4528(13) -0.1930(30)
O3 O -0.1938(10) -0.3770(10) -0.2284(25)
C20 C -0.1527(12) -0.2662(17) -0.3580(33)
C21 C -0.1512(22) -0.2363(20) -0.2866(38)
C22 C -0.1111(24) -0.1948(28) -0.2621(58)
C23 C -0.0741(62) -0.1987(31) -0.3058(71)
C24 C -0.0661(16) -0.2199(20) -0.3854(63)
C25 C -0.1101(18) -0.2607(16) -0.4144(47)
O4 O -0.0198(12) -0.1641(20) -0.2979(40)
O5 O -0.2814(8) -0.2376(8) -0.4112(25)
C26 C -0.3785(12) -0.2481(11) -0.3097(29)
N4 N -0.4829(13) -0.2292(13) -0.1459(29)
C27 C -0.4572(13) -0.2539(11) -0.2110(29)
C28 C -0.4138(10) -0.2259(12) -0.2360(30)
C29 C -0.4113(13) -0.1820(12) -0.1826(26)
C30 C -0.3723(14) -0.1422(12) -0.1790(32)
C31 C -0.3817(16) -0.1012(14) -0.1173(34)
C32 C -0.4304(19) -0.1049(18) -0.0623(31)
C33 C -0.4638(14) -0.1485(15) -0.0710(34)
C34 C -0.4556(14) -0.1856(17) -0.1276(27)
Br1 Br -0.4893(2) -0.3191(2) -0.2462(19)
C35 C -0.3410(11) -0.3601(10) -0.2657(28)
O6 O -0.2898(9) -0.2701(10) -0.1013(24)
C36 C -0.3614(16) -0.3772(18) -0.0547(30)
C37 C -0.0031(28) -0.1252(27) -0.3419(48)
C38 C -0.0406(22) -0.0805(23) -0.3806(43)
O7 O 0.0380(21) -0.0969(20) -0.3108(37)
H1 H -0.2036 -0.3560 0.1128
H2 H -0.1785 -0.4618 0.0961
H3 H -0.1581 -0.4335 0.1812
H4 H -0.1437 -0.3590 -0.0059
H5 H -0.0383 -0.3899 -0.0365
H6 H -0.0427 -0.3452 -0.1709
H7 H -0.1003 -0.3247 -0.1523
H8 H -0.1263 -0.4151 -0.1592
H9 H -0.2048 -0.3848 -0.4068
H10 H -0.1450 -0.3683 -0.4162
H11 H -0.2015 -0.3005 -0.4496
H12 H -0.2433 -0.3195 -0.2845
H13 H -0.3095 -0.2358 -0.2318
H14 H -0.2909 -0.3909 -0.1224
H15 H -0.2572 -0.3244 0.0100
H16 H -0.2847 -0.3763 0.1794
H17 H -0.2702 -0.4374 0.1749
H18 H -0.2408 -0.3999 0.2430
H19 H -0.0810 -0.4771 0.1458
H20 H -0.0556 -0.4702 0.0509
H21 H -0.0430 -0.4284 0.1261
H22 H -0.0368 -0.3211 0.0735
H23 H -0.0071 -0.3025 -0.0132
H24 H -0.0660 -0.2834 0.0054
H25 H -0.0665 -0.4835 -0.2237
H26 H -0.0208 -0.4402 -0.2235
H27 H -0.0429 -0.4628 -0.1332
H28 H -0.1819 -0.2398 -0.2484
H29 H -0.1129 -0.1743 -0.2080
H30 H -0.0374 -0.2112 -0.4255
H31 H -0.1104 -0.2812 -0.4685
H32 H -0.3943 -0.2788 -0.3381
H33 H -0.3746 -0.2201 -0.3532
H34 H -0.5122 -0.2399 -0.1157
H35 H -0.3413 -0.1429 -0.2170
H36 H -0.3565 -0.0721 -0.1143
H37 H -0.4356 -0.0766 -0.0197
H38 H -0.4943 -0.1512 -0.0321
H39 H -0.3404 -0.3891 -0.2236
H40 H -0.3771 -0.3549 -0.2867
H41 H -0.3180 -0.3685 -0.3150
H42 H -0.3626 -0.4099 -0.0208
H43 H -0.3736 -0.3479 -0.0184
H44 H -0.3842 -0.3805 -0.1060
H45 H -0.0720 -0.1028 -0.3794
H46 H -0.0496 -0.0452 -0.3600
H47 H -0.0271 -0.0784 -0.4404
loop_
_geom_bond_atom_site_label_1
_geom_bond_atom_site_label_2
_geom_bond_site_symmetry_1
_geom_bond_site_symmetry_2
C1 C2 1_555 1_555
C2 C3 1_555 1_555
C3 C4 1_555 1_555
C4 C5 1_555 1_555
C5 C6 1_555 1_555
C6 C7 1_555 1_555
C7 C8 1_555 1_555
C8 O1 1_555 1_555
O1 C9 1_555 1_555
C9 C10 1_555 1_555
C10 C11 1_555 1_555
C11 N1 1_555 1_555
N1 C12 1_555 1_555
C12 C13 1_555 1_555
C13 N2 1_555 1_555
N2 C14 1_555 1_555
C14 C15 1_555 1_555
C15 N3 1_555 1_555
N3 C1 1_555 1_555
O2 C1 1_555 1_555
C16 C2 1_555 1_555
C17 C4 1_555 1_555
C18 C6 1_555 1_555
C19 C8 1_555 1_555
O3 C9 1_555 1_555
C20 C11 1_555 1_555
C21 C20 1_555 1_555
C22 C21 1_555 1_555
C23 C22 1_555 1_555
C24 C23 1_555 1_555
C25 C20 1_555 1_555
O4 C23 1_555 1_555
O5 C12 1_555 1_555
C26 C13 1_555 1_555
N4 C27 1_555 1_555
C27 C28 1_555 1_555
C28 C26 1_555 1_555
C29 C28 1_555 1_555
C30 C29 1_555 1_555
C31 C30 1_555 1_555
C32 C31 1_555 1_555
C33 C32 1_555 1_555
C34 N4 1_555 1_555
Br1 C27 1_555 1_555
C35 N2 1_555 1_555
O6 C14 1_555 1_555
C36 C15 1_555 1_555
C37 O4 1_555 1_555
C38 C37 1_555 1_555
O7 C37 1_555 1_555
H1 C2 1_555 1_555
H2 C3 1_555 1_555
H3 C3 1_555 1_555
H4 C5 1_555 1_555
H5 C6 1_555 1_555
H6 C7 1_555 1_555
H7 C7 1_555 1_555
H8 C8 1_555 1_555
H9 C10 1_555 1_555
H10 C10 1_555 1_555
H11 C11 1_555 1_555
H12 N1 1_555 1_555
H13 C13 1_555 1_555
H14 C15 1_555 1_555
H15 N3 1_555 1_555
H16 C16 1_555 1_555
H17 C16 1_555 1_555
H18 C16 1_555 1_555
H19 C17 1_555 1_555
H20 C17 1_555 1_555
H21 C17 1_555 1_555
H22 C18 1_555 1_555
H23 C18 1_555 1_555
H24 C18 1_555 1_555
H25 C19 1_555 1_555
H26 C19 1_555 1_555
H27 C19 1_555 1_555
H28 C21 1_555 1_555
H29 C22 1_555 1_555
H30 C24 1_555 1_555
H31 C25 1_555 1_555
H32 C26 1_555 1_555
H33 C26 1_555 1_555
H34 N4 1_555 1_555
H35 C30 1_555 1_555
H36 C31 1_555 1_555
H37 C32 1_555 1_555
H38 C33 1_555 1_555
H39 C35 1_555 1_555
H40 C35 1_555 1_555
H41 C35 1_555 1_555
H42 C36 1_555 1_555
H43 C36 1_555 1_555
H44 C36 1_555 1_555
H45 C38 1_555 1_555
H46 C38 1_555 1_555
H47 C38 1_555 1_555
C24 C25 1_555 1_555
C29 C34 1_555 1_555
C33 C34 1_555 1_555

#END
