
#######################################################################
#
#                 Cambridge Crystallographic Data Centre
#                                CCDC 
#
#######################################################################
#
# If this CIF has been generated from an entry in the Cambridge 
# Structural Database, then it will include bibliographic, chemical, 
# crystal, experimental, refinement or atomic coordinate data resulting 
# from the CCDC's data processing and validation procedures.
#
#######################################################################

data_FEYDUJ
_chemical_formula_moiety         'C5 H8 S2'
_chemical_name_systematic        2,6-dithiaspiro(3.3)heptane
_symmetry_cell_setting           monoclinic
_symmetry_space_group_name_H-M   'P 21/c'
_symmetry_Int_Tables_number      14
_space_group_name_Hall           '-P 2ybc'
loop_
_symmetry_equiv_pos_site_id
_symmetry_equiv_pos_as_xyz
1 x,y,z
2 -x,1/2+y,1/2-z
3 -x,-y,-z
4 x,1/2-y,1/2+z
_cell_length_a                   5.8013(4)
_cell_length_b                   19.2532(12)
_cell_length_c                   5.8183(4)
_cell_angle_alpha                90
_cell_angle_beta                 109.7090(10)
_cell_angle_gamma                90
_cell_volume                     611.796
_exptl_crystal_colour            colorless
_exptl_crystal_description       block
_chemical_melting_point          '304 K'
_cell_formula_units_Z            4
loop_
_atom_site_label
_atom_site_type_symbol
_atom_site_fract_x
_atom_site_fract_y
_atom_site_fract_z
S1 S 0.34421(5) 0.424708(16) 0.59029(6)
S2 S -0.29987(6) 0.303784(17) 0.02130(6)
C1 C 0.1550(2) 0.45228(6) 0.2820(2)
H1 H 0.057(3) 0.4915(9) 0.281(3)
H2 H 0.254(3) 0.4615(9) 0.182(3)
C2 C 0.2202(2) 0.34250(6) 0.4420(2)
H3 H 0.158(3) 0.3110(9) 0.539(3)
H4 H 0.338(3) 0.3182(9) 0.398(3)
C3 C 0.0291(2) 0.38105(6) 0.2300(2)
C4 C -0.0361(2) 0.34719(7) -0.0222(2)
H5 H -0.091(3) 0.3803(8) -0.152(3)
H6 H 0.083(3) 0.3174(8) -0.046(3)
C5 C -0.2302(2) 0.37538(7) 0.2431(2)
H7 H -0.328(3) 0.4151(10) 0.168(3)
H8 H -0.242(3) 0.3639(8) 0.400(3)
loop_
_geom_bond_atom_site_label_1
_geom_bond_atom_site_label_2
_geom_bond_site_symmetry_1
_geom_bond_site_symmetry_2
S1 C1 1_555 1_555
S2 C4 1_555 1_555
C1 H1 1_555 1_555
H2 C1 1_555 1_555
C2 S1 1_555 1_555
H3 C2 1_555 1_555
H4 C2 1_555 1_555
C3 C1 1_555 1_555
C4 C3 1_555 1_555
H5 C4 1_555 1_555
H6 C4 1_555 1_555
C5 S2 1_555 1_555
H7 C5 1_555 1_555
H8 C5 1_555 1_555
C2 C3 1_555 1_555
C3 C5 1_555 1_555

#END
