
#######################################################################
#
#                 Cambridge Crystallographic Data Centre
#                                CCDC 
#
#######################################################################
#
# If this CIF has been generated from an entry in the Cambridge 
# Structural Database, then it will include bibliographic, chemical, 
# crystal, experimental, refinement or atomic coordinate data resulting 
# from the CCDC's data processing and validation procedures.
#
#######################################################################

data_FEYLAY
_chemical_formula_moiety         'C38 H40 Br1 F3 N2 O5'
_chemical_name_systematic        
'bis(2,2-dimethylpropyl) 3-(4-bromophenyl)-4-(2-(trifluoromethyl)benzoyl)-3,4-dihydro-2H-pyridazino[6,1-a]isoquinoline-1,1(11bH)-dicarboxylate'
_symmetry_cell_setting           orthorhombic
_symmetry_space_group_name_H-M   'P 21 21 21'
_symmetry_Int_Tables_number      19
_space_group_name_Hall           'P 2ac 2ab'
loop_
_symmetry_equiv_pos_site_id
_symmetry_equiv_pos_as_xyz
1 x,y,z
2 1/2-x,-y,1/2+z
3 -x,1/2+y,1/2-z
4 1/2+x,1/2-y,-z
_cell_length_a                   12.6062(11)
_cell_length_b                   15.5895(14)
_cell_length_c                   19.0236(17)
_cell_angle_alpha                90
_cell_angle_beta                 90
_cell_angle_gamma                90
_cell_volume                     3738.6
_exptl_crystal_colour            colorless
_exptl_crystal_description       prismatic
_cell_formula_units_Z            4
loop_
_atom_site_label
_atom_site_type_symbol
_atom_site_fract_x
_atom_site_fract_y
_atom_site_fract_z
Br1 Br -0.08162(6) 0.69270(4) -0.11819(3)
F1 F -0.2510(3) 0.4077(3) 0.2519(3)
F2 F -0.1638(5) 0.3750(4) 0.1624(3)
F3 F -0.1404(3) 0.4913(3) 0.2079(3)
N1 N 0.1079(3) 0.4989(2) 0.18653(18)
N2 N 0.1153(3) 0.5383(2) 0.25283(17)
O1 O 0.0789(3) 0.37506(19) 0.12991(17)
O2 O 0.3857(3) 0.4330(2) 0.2306(2)
O3 O 0.4366(3) 0.5220(2) 0.14628(17)
O4 O 0.3342(3) 0.7203(2) 0.25153(16)
O5 O 0.4584(3) 0.6247(2) 0.27917(18)
C1 C 0.1711(3) 0.5354(3) 0.1288(2)
H1 H 0.2160 0.4899 0.1095
C2 C 0.2427(4) 0.6048(3) 0.1590(2)
H2 H 0.2000 0.6540 0.1724
H3 H 0.2925 0.6233 0.1232
C3 C 0.3042(4) 0.5722(3) 0.2235(2)
C4 C 0.2229(4) 0.5381(3) 0.2801(2)
H4 H 0.2414 0.4781 0.2892
C5 C 0.2285(6) 0.5835(4) 0.3490(3)
C6 C 0.3088(6) 0.5651(4) 0.3957(3)
H5 H 0.3550 0.5201 0.3862
C7 C 0.3218(9) 0.6120(6) 0.4561(4)
H6 H 0.3768 0.5982 0.4866
C8 C 0.2588(10) 0.6754(7) 0.4715(4)
H7 H 0.2707 0.7070 0.5122
C9 C 0.1727(7) 0.6969(5) 0.4274(4)
H8 H 0.1265 0.7413 0.4387
C10 C 0.1595(7) 0.6469(4) 0.3644(3)
C11 C 0.0700(6) 0.6627(3) 0.3173(3)
H9 H 0.0259 0.7096 0.3249
C12 C 0.0514(4) 0.6099(3) 0.2633(3)
H10 H -0.0043 0.6211 0.2326
C13 C 0.0731(4) 0.4154(3) 0.1838(3)
C14 C 0.0329(5) 0.3770(3) 0.2511(3)
C15 C 0.1068(6) 0.3364(3) 0.2930(3)
H11 H 0.1779 0.3366 0.2798
C16 C 0.0767(7) 0.2952(4) 0.3542(3)
H12 H 0.1266 0.2680 0.3825
C17 C -0.0291(7) 0.2957(5) 0.3720(3)
H13 H -0.0502 0.2693 0.4136
C18 C -0.1036(7) 0.3335(4) 0.3310(4)
H14 H -0.1748 0.3323 0.3437
C19 C -0.0716(6) 0.3737(3) 0.2699(3)
C20 C -0.1538(7) 0.4113(4) 0.2279(5)
C21 C 0.1027(4) 0.5718(3) 0.0691(2)
C22 C -0.0037(4) 0.5704(3) 0.0673(3)
H15 H -0.0409 0.5454 0.1042
C23 C -0.0588(4) 0.6053(3) 0.0116(3)
H16 H -0.1325 0.6027 0.0111
C24 C -0.0073(5) 0.6430(4) -0.0422(3)
C25 C 0.0996(5) 0.6468(4) -0.0418(3)
H17 H 0.1357 0.6741 -0.0781
C26 C 0.1552(4) 0.6096(4) 0.0133(3)
H18 H 0.2290 0.6101 0.0127
C27 C 0.3813(4) 0.5010(3) 0.2024(3)
C28 C 0.5087(5) 0.4591(4) 0.1176(3)
H19 H 0.4713 0.4054 0.1106
H20 H 0.5658 0.4489 0.1508
C29 C 0.5541(5) 0.4889(4) 0.0491(3)
C30 C 0.4645(5) 0.5102(5) -0.0014(3)
H21 H 0.4302 0.5621 0.0135
H22 H 0.4140 0.4641 -0.0016
H23 H 0.4927 0.5178 -0.0478
C31 C 0.6194(7) 0.4168(5) 0.0200(4)
H24 H 0.6373 0.4289 -0.0281
H25 H 0.5795 0.3644 0.0222
H26 H 0.6832 0.4110 0.0471
C32 C 0.6201(6) 0.5676(6) 0.0596(4)
H27 H 0.5768 0.6125 0.0789
H28 H 0.6486 0.5858 0.0152
H29 H 0.6771 0.5550 0.0914
C33 C 0.3661(4) 0.6479(3) 0.2526(2)
C34 C 0.5196(5) 0.6910(4) 0.3126(3)
H30 H 0.4886 0.7053 0.3577
H31 H 0.5198 0.7422 0.2836
C35 C 0.6315(6) 0.6589(4) 0.3226(4)
C36 C 0.6929(6) 0.7294(5) 0.3609(4)
H32 H 0.6649 0.7362 0.4075
H33 H 0.6859 0.7824 0.3357
H34 H 0.7665 0.7139 0.3637
C37 C 0.6350(8) 0.5761(6) 0.3632(5)
H35 H 0.6131 0.5863 0.4109
H36 H 0.7060 0.5539 0.3629
H37 H 0.5880 0.5352 0.3419
C38 C 0.6808(6) 0.6479(6) 0.2492(5)
H38 H 0.7563 0.6418 0.2536
H39 H 0.6651 0.6975 0.2210
H40 H 0.6518 0.5977 0.2271
loop_
_geom_bond_atom_site_label_1
_geom_bond_atom_site_label_2
_geom_bond_site_symmetry_1
_geom_bond_site_symmetry_2
Br1 C24 1_555 1_555
F1 C20 1_555 1_555
F2 C20 1_555 1_555
F3 C20 1_555 1_555
N1 N2 1_555 1_555
N2 C4 1_555 1_555
O1 C13 1_555 1_555
O2 C27 1_555 1_555
O3 C27 1_555 1_555
O4 C33 1_555 1_555
O5 C33 1_555 1_555
C1 N1 1_555 1_555
H1 C1 1_555 1_555
C2 C1 1_555 1_555
H2 C2 1_555 1_555
H3 C2 1_555 1_555
C3 C2 1_555 1_555
C4 C3 1_555 1_555
H4 C4 1_555 1_555
C5 C4 1_555 1_555
C6 C5 1_555 1_555
H5 C6 1_555 1_555
C7 C6 1_555 1_555
H6 C7 1_555 1_555
C8 C7 1_555 1_555
H7 C8 1_555 1_555
C9 C8 1_555 1_555
H8 C9 1_555 1_555
C10 C5 1_555 1_555
C11 C10 1_555 1_555
H9 C11 1_555 1_555
C12 N2 1_555 1_555
H10 C12 1_555 1_555
C13 N1 1_555 1_555
C14 C13 1_555 1_555
C15 C14 1_555 1_555
H11 C15 1_555 1_555
C16 C15 1_555 1_555
H12 C16 1_555 1_555
C17 C16 1_555 1_555
H13 C17 1_555 1_555
C18 C17 1_555 1_555
H14 C18 1_555 1_555
C19 C14 1_555 1_555
C20 C19 1_555 1_555
C21 C1 1_555 1_555
C22 C21 1_555 1_555
H15 C22 1_555 1_555
C23 C22 1_555 1_555
H16 C23 1_555 1_555
C24 C23 1_555 1_555
C25 C24 1_555 1_555
H17 C25 1_555 1_555
C26 C21 1_555 1_555
H18 C26 1_555 1_555
C27 C3 1_555 1_555
C28 O3 1_555 1_555
H19 C28 1_555 1_555
H20 C28 1_555 1_555
C29 C28 1_555 1_555
C30 C29 1_555 1_555
H21 C30 1_555 1_555
H22 C30 1_555 1_555
H23 C30 1_555 1_555
C31 C29 1_555 1_555
H24 C31 1_555 1_555
H25 C31 1_555 1_555
H26 C31 1_555 1_555
C32 C29 1_555 1_555
H27 C32 1_555 1_555
H28 C32 1_555 1_555
H29 C32 1_555 1_555
C33 C3 1_555 1_555
C34 O5 1_555 1_555
H30 C34 1_555 1_555
H31 C34 1_555 1_555
C35 C34 1_555 1_555
C36 C35 1_555 1_555
H32 C36 1_555 1_555
H33 C36 1_555 1_555
H34 C36 1_555 1_555
C37 C35 1_555 1_555
H35 C37 1_555 1_555
H36 C37 1_555 1_555
H37 C37 1_555 1_555
C38 C35 1_555 1_555
H38 C38 1_555 1_555
H39 C38 1_555 1_555
H40 C38 1_555 1_555
C9 C10 1_555 1_555
C11 C12 1_555 1_555
C18 C19 1_555 1_555
C25 C26 1_555 1_555

#END
