
#######################################################################
#
#                 Cambridge Crystallographic Data Centre
#                                CCDC 
#
#######################################################################
#
# If this CIF has been generated from an entry in the Cambridge 
# Structural Database, then it will include bibliographic, chemical, 
# crystal, experimental, refinement or atomic coordinate data resulting 
# from the CCDC's data processing and validation procedures.
#
#######################################################################

data_FEYPAD
_chemical_formula_moiety         'C28 H24 N6 O5,H2 O1'
_chemical_name_systematic        
"1,1',3,3'-tetramethyl-6,6'-diphenyl-6',7'-dihydro-1H,1'H-[5,6'-bipyrrolo[2,3-d]pyrimidine]-2,2',4,4',5'(3H,3'H,7H)-pentone monohydrate"
_symmetry_cell_setting           orthorhombic
_symmetry_space_group_name_H-M   'P b c a'
_symmetry_Int_Tables_number      61
_space_group_name_Hall           '-P 2ac 2ab'
loop_
_symmetry_equiv_pos_site_id
_symmetry_equiv_pos_as_xyz
1 x,y,z
2 1/2-x,-y,1/2+z
3 -x,1/2+y,1/2-z
4 1/2+x,1/2-y,-z
5 -x,-y,-z
6 1/2+x,y,1/2-z
7 x,1/2-y,1/2+z
8 1/2-x,1/2+y,z
_cell_length_a                   13.760(2)
_cell_length_b                   17.664(3)
_cell_length_c                   21.128(4)
_cell_angle_alpha                90
_cell_angle_beta                 90
_cell_angle_gamma                90
_cell_volume                     5135.3
_exptl_crystal_colour            colorless
_exptl_crystal_description       block
_cell_formula_units_Z            8
loop_
_atom_site_label
_atom_site_type_symbol
_atom_site_fract_x
_atom_site_fract_y
_atom_site_fract_z
C1 C 0.4422(3) 0.6232(3) 0.5666(2)
H1 H 0.4380 0.6775 0.5658
H2 H 0.4942 0.6081 0.5941
H3 H 0.3820 0.6026 0.5819
C2 C 0.3821(4) 0.5650(2) 0.4675(2)
C3 C 0.5557(4) 0.6027(3) 0.4801(2)
C4 C 0.6731(3) 0.5847(3) 0.3942(2)
H4 H 0.7069 0.6239 0.4168
H5 H 0.6698 0.5975 0.3501
H6 H 0.7073 0.5376 0.3991
C5 C 0.4994(3) 0.5510(2) 0.3838(2)
C6 C 0.4045(3) 0.5459(2) 0.4038(2)
C7 C 0.3488(3) 0.5171(2) 0.3508(2)
C8 C 0.4134(3) 0.5057(2) 0.3020(2)
C9 C 0.4024(3) 0.4808(3) 0.2361(2)
C10 C 0.4359(3) 0.5256(3) 0.1870(2)
H7 H 0.4656 0.5716 0.1960
C11 C 0.4258(4) 0.5027(4) 0.1246(3)
H8 H 0.4494 0.5331 0.0921
C12 C 0.3812(5) 0.4354(5) 0.1108(3)
H9 H 0.3725 0.4209 0.0689
C13 C 0.3492(4) 0.3891(3) 0.1590(3)
H10 H 0.3203 0.3428 0.1498
C14 C 0.3604(3) 0.4120(3) 0.2209(2)
H11 H 0.3391 0.3805 0.2533
C15 C 0.2386(3) 0.5172(2) 0.35234(19)
C16 C 0.2028(3) 0.5990(2) 0.3585(2)
C17 C 0.2320(3) 0.6509(3) 0.3124(2)
H12 H 0.2713 0.6350 0.2792
C18 C 0.2032(4) 0.7257(3) 0.3156(3)
H13 H 0.2226 0.7597 0.2845
C19 C 0.1458(4) 0.7495(3) 0.3649(3)
H14 H 0.1269 0.8000 0.3673
C20 C 0.1161(4) 0.6995(3) 0.4102(3)
H15 H 0.0771 0.7161 0.4434
C21 C 0.1439(3) 0.6240(3) 0.4070(3)
H16 H 0.1227 0.5901 0.4377
C22 C 0.1879(3) 0.4799(2) 0.2940(2)
C23 C 0.1472(3) 0.4107(2) 0.3154(2)
C24 C 0.1590(3) 0.4069(3) 0.3807(2)
C25 C 0.1356(4) 0.3472(3) 0.4843(2)
H17 H 0.1066 0.3018 0.5005
H18 H 0.2034 0.3481 0.4951
H19 H 0.1039 0.3904 0.5025
C26 C 0.0728(4) 0.2903(3) 0.3873(3)
C27 C 0.0975(3) 0.3522(3) 0.2817(3)
C28 C 0.0117(4) 0.2294(3) 0.2920(3)
H20 H 0.0503 0.1843 0.2956
H21 H 0.0005 0.2405 0.2482
H22 H -0.0495 0.2218 0.3130
N1 N 0.4611(3) 0.59475(19) 0.50202(16)
N2 N 0.5742(3) 0.57687(19) 0.41975(18)
N3 N 0.5057(3) 0.52704(19) 0.32322(17)
H23 H 0.5582 0.5252 0.3012
N4 N 0.2046(2) 0.4676(2) 0.40405(17)
H24 H 0.2131 0.4765 0.4437
N5 N 0.1249(3) 0.3494(2) 0.41595(19)
N6 N 0.0634(3) 0.2931(2) 0.3218(2)
O1 O 0.6200(2) 0.62894(18) 0.51340(15)
O2 O 0.3027(2) 0.55677(18) 0.49388(14)
O3 O 0.1820(2) 0.51056(16) 0.24214(14)
O4 O 0.0841(2) 0.34885(19) 0.22430(17)
O5 O 0.0384(3) 0.2398(2) 0.41858(18)
O6 O 0.8328(8) 0.7238(6) 0.3478(5)
O7 O 0.2757(9) 0.2213(7) 0.5385(6)
loop_
_geom_bond_atom_site_label_1
_geom_bond_atom_site_label_2
_geom_bond_site_symmetry_1
_geom_bond_site_symmetry_2
C1 H1 1_555 1_555
H2 C1 1_555 1_555
H3 C1 1_555 1_555
C2 C6 1_555 1_555
C3 N1 1_555 1_555
C4 H4 1_555 1_555
H5 C4 1_555 1_555
H6 C4 1_555 1_555
C5 C6 1_555 1_555
C6 C7 1_555 1_555
C7 C8 1_555 1_555
C8 C9 1_555 1_555
C9 C10 1_555 1_555
C10 H7 1_555 1_555
C11 C10 1_555 1_555
H8 C11 1_555 1_555
C12 C11 1_555 1_555
H9 C12 1_555 1_555
C13 C12 1_555 1_555
H10 C13 1_555 1_555
C14 C9 1_555 1_555
H11 C14 1_555 1_555
C15 C7 1_555 1_555
C16 C15 1_555 1_555
C17 C16 1_555 1_555
H12 C17 1_555 1_555
C18 C17 1_555 1_555
H13 C18 1_555 1_555
C19 C18 1_555 1_555
H14 C19 1_555 1_555
C20 C19 1_555 1_555
H15 C20 1_555 1_555
C21 C16 1_555 1_555
H16 C21 1_555 1_555
C22 C15 1_555 1_555
C23 C22 1_555 1_555
C24 C23 1_555 1_555
C25 H17 1_555 1_555
H18 C25 1_555 1_555
H19 C25 1_555 1_555
C26 N5 1_555 1_555
C27 C23 1_555 1_555
C28 H20 1_555 1_555
H21 C28 1_555 1_555
H22 C28 1_555 1_555
N1 C1 1_555 1_555
N2 C3 1_555 1_555
N3 C5 1_555 1_555
H23 N3 1_555 1_555
N4 C15 1_555 1_555
H24 N4 1_555 1_555
N5 C24 1_555 1_555
N6 C26 1_555 1_555
O1 C3 1_555 1_555
O2 C2 1_555 1_555
O3 C22 1_555 1_555
O4 C27 1_555 1_555
O5 C26 1_555 1_555
C2 N1 1_555 1_555
C4 N2 1_555 1_555
C5 N2 1_555 1_555
C8 N3 1_555 1_555
C13 C14 1_555 1_555
C20 C21 1_555 1_555
C24 N4 1_555 1_555
C25 N5 1_555 1_555
C27 N6 1_555 1_555
C28 N6 1_555 1_555

#END
