
#######################################################################
#
#                 Cambridge Crystallographic Data Centre
#                                CCDC 
#
#######################################################################
#
# If this CIF has been generated from an entry in the Cambridge 
# Structural Database, then it will include bibliographic, chemical, 
# crystal, experimental, refinement or atomic coordinate data resulting 
# from the CCDC's data processing and validation procedures.
#
#######################################################################

data_FEYXEP
_chemical_formula_moiety         'C36 H28 N2'
_chemical_name_systematic        
1,1',2,2',10,10',11,11'-octahydro-6,6'-bibenzo[de]isoquinolino[8,1,2-hij]quinoline
_symmetry_cell_setting           orthorhombic
_symmetry_space_group_name_H-M   'P b c n'
_symmetry_Int_Tables_number      60
_space_group_name_Hall           '-P 2n 2ab'
loop_
_symmetry_equiv_pos_site_id
_symmetry_equiv_pos_as_xyz
1 x,y,z
2 1/2-x,1/2-y,1/2+z
3 1/2+x,1/2-y,-z
4 -x,y,1/2-z
5 -x,-y,-z
6 1/2+x,1/2+y,1/2-z
7 1/2-x,1/2+y,z
8 x,-y,1/2+z
_cell_length_a                   14.7747(3)
_cell_length_b                   11.8462(3)
_cell_length_c                   13.9054(3)
_cell_angle_alpha                90
_cell_angle_beta                 90
_cell_angle_gamma                90
_cell_volume                     2433.78
_exptl_crystal_colour            yellow
_exptl_crystal_description       block
_cell_formula_units_Z            4
loop_
_atom_site_label
_atom_site_type_symbol
_atom_site_fract_x
_atom_site_fract_y
_atom_site_fract_z
N1 N 0.32023(7) 0.81095(9) 0.14361(8)
C1 C 0.20748(8) 0.91320(10) 0.23761(9)
C2 C 0.04686(8) 0.85624(10) 0.23027(9)
C3 C 0.16050(8) 0.76573(10) 0.12490(9)
C4 C 0.06879(8) 0.78050(10) 0.15575(8)
C5 C 0.27544(9) 0.98702(11) 0.27576(9)
C6 C 0.11528(8) 0.92551(10) 0.26855(9)
C7 C 0.11196(9) 0.63009(11) 0.00480(9)
H1 H 0.1252 0.5804 -0.0450
C8 C 0.18058(9) 0.68778(11) 0.04925(9)
C9 C 0.00022(8) 0.71649(10) 0.10757(9)
H2 H -0.0598 0.7237 0.1269
C10 C 0.25234(10) 1.06771(11) 0.34073(10)
H3 H 0.2967 1.1160 0.3644
C11 C 0.37027(9) 0.97309(12) 0.23828(10)
H4 H 0.4132 0.9970 0.2870
H5 H 0.3787 1.0204 0.1820
C12 C 0.23052(8) 0.82957(10) 0.16907(9)
C13 C 0.02115(10) 0.64542(11) 0.03404(9)
H6 H -0.0248 0.6065 0.0026
C14 C 0.09542(9) 1.01015(11) 0.33879(10)
H7 H 0.0365 1.0180 0.3615
C15 C 0.16180(10) 1.07958(11) 0.37298(11)
H8 H 0.1475 1.1351 0.4178
C16 C 0.27806(10) 0.67481(12) 0.01943(10)
H9 H 0.2912 0.7262 -0.0331
H10 H 0.2884 0.5984 -0.0031
C17 C 0.38770(9) 0.85104(12) 0.21206(10)
H11 H 0.4476 0.8440 0.1841
H12 H 0.3857 0.8049 0.2696
C18 C 0.34062(9) 0.69972(12) 0.10310(10)
H13 H 0.3332 0.6424 0.1523
H14 H 0.4030 0.6979 0.0814
N1C N -0.32023(7) 0.81095(9) 0.35639(8)
C1C C -0.20748(8) 0.91320(10) 0.26239(9)
C2C C -0.04686(8) 0.85624(10) 0.26973(9)
C3C C -0.16050(8) 0.76573(10) 0.37510(9)
C4C C -0.06879(8) 0.78050(10) 0.34425(8)
C5C C -0.27544(9) 0.98702(11) 0.22424(9)
C6C C -0.11528(8) 0.92551(10) 0.23145(9)
C7C C -0.11196(9) 0.63009(11) 0.49520(9)
H1C H -0.1252 0.5804 0.5450
C8C C -0.18058(9) 0.68778(11) 0.45075(9)
C9C C -0.00022(8) 0.71649(10) 0.39243(9)
H2C H 0.0598 0.7237 0.3731
C10C C -0.25234(10) 1.06771(11) 0.15927(10)
H3C H -0.2967 1.1160 0.1356
C11C C -0.37027(9) 0.97309(12) 0.26172(10)
H4C H -0.4132 0.9970 0.2130
H5C H -0.3787 1.0204 0.3180
C12C C -0.23052(8) 0.82957(10) 0.33093(9)
C13C C -0.02115(10) 0.64542(11) 0.46596(9)
H6C H 0.0248 0.6065 0.4974
C14C C -0.09542(9) 1.01015(11) 0.16121(10)
H7C H -0.0365 1.0180 0.1385
C15C C -0.16180(10) 1.07958(11) 0.12702(11)
H8C H -0.1475 1.1351 0.0822
C16C C -0.27806(10) 0.67481(12) 0.48057(10)
H9C H -0.2912 0.7262 0.5331
H10C H -0.2884 0.5984 0.5031
C17C C -0.38770(9) 0.85104(12) 0.28794(10)
H11C H -0.4476 0.8440 0.3159
H12C H -0.3857 0.8049 0.2304
C18C C -0.34062(9) 0.69972(12) 0.39690(10)
H13C H -0.3332 0.6424 0.3477
H14C H -0.4030 0.6979 0.4186
loop_
_geom_bond_atom_site_label_1
_geom_bond_atom_site_label_2
_geom_bond_site_symmetry_1
_geom_bond_site_symmetry_2
N1 C12 1_555 1_555
C1 C5 1_555 1_555
C2 C4 1_555 1_555
C3 C4 1_555 1_555
C4 C9 1_555 1_555
C5 C10 1_555 1_555
C6 C1 1_555 1_555
C7 H1 1_555 1_555
C8 C3 1_555 1_555
C9 H2 1_555 1_555
C10 H3 1_555 1_555
C11 C5 1_555 1_555
H4 C11 1_555 1_555
H5 C11 1_555 1_555
C12 C1 1_555 1_555
C13 C7 1_555 1_555
H6 C13 1_555 1_555
C14 C6 1_555 1_555
H7 C14 1_555 1_555
C15 C10 1_555 1_555
H8 C15 1_555 1_555
C16 C8 1_555 1_555
H9 C16 1_555 1_555
H10 C16 1_555 1_555
C17 N1 1_555 1_555
H11 C17 1_555 1_555
H12 C17 1_555 1_555
C18 N1 1_555 1_555
H13 C18 1_555 1_555
H14 C18 1_555 1_555
N1C C12C 1_555 1_555
C1C C5C 1_555 1_555
C2C C2 1_555 1_555
C3C C4C 1_555 1_555
C4C C2C 1_555 1_555
C5C C10C 1_555 1_555
C6C C1C 1_555 1_555
C7C H1C 1_555 1_555
C8C C3C 1_555 1_555
C9C C4C 1_555 1_555
H2C C9C 1_555 1_555
C10C H3C 1_555 1_555
C11C C5C 1_555 1_555
H4C C11C 1_555 1_555
H5C C11C 1_555 1_555
C12C C1C 1_555 1_555
C13C C7C 1_555 1_555
H6C C13C 1_555 1_555
C14C C6C 1_555 1_555
H7C C14C 1_555 1_555
C15C C10C 1_555 1_555
H8C C15C 1_555 1_555
C16C C8C 1_555 1_555
H9C C16C 1_555 1_555
H10C C16C 1_555 1_555
C17C N1C 1_555 1_555
H11C C17C 1_555 1_555
H12C C17C 1_555 1_555
C18C N1C 1_555 1_555
H13C C18C 1_555 1_555
H14C C18C 1_555 1_555
C2 C6 1_555 1_555
C3 C12 1_555 1_555
C7 C8 1_555 1_555
C9 C13 1_555 1_555
C11 C17 1_555 1_555
C14 C15 1_555 1_555
C16 C18 1_555 1_555
C2C C6C 1_555 1_555
C3C C12C 1_555 1_555
C7C C8C 1_555 1_555
C9C C13C 1_555 1_555
C11C C17C 1_555 1_555
C14C C15C 1_555 1_555
C16C C18C 1_555 1_555

#END
