
#######################################################################
#
#                 Cambridge Crystallographic Data Centre
#                                CCDC 
#
#######################################################################
#
# If this CIF has been generated from an entry in the Cambridge 
# Structural Database, then it will include bibliographic, chemical, 
# crystal, experimental, refinement or atomic coordinate data resulting 
# from the CCDC's data processing and validation procedures.
#
#######################################################################

data_FEYZEO
_chemical_formula_moiety         'C22 H26 N4 O5,3(H2 O1)'
_chemical_name_systematic        
'L-Phenylalanyl-glycyl-glycyl-D-phenylalanine trihydrate'
_chemical_properties_biological  'antigelling agent'
_symmetry_cell_setting           monoclinic
_symmetry_space_group_name_H-M   'P 21'
_symmetry_Int_Tables_number      4
_space_group_name_Hall           'P 2yb'
loop_
_symmetry_equiv_pos_site_id
_symmetry_equiv_pos_as_xyz
1 x,y,z
2 -x,1/2+y,-z
_cell_length_a                   5.787(1)
_cell_length_b                   11.787(2)
_cell_length_c                   17.610(2)
_cell_angle_alpha                90
_cell_angle_beta                 104.52(1)
_cell_angle_gamma                90
_cell_volume                     1162.84
_cell_formula_units_Z            2
loop_
_atom_site_label
_atom_site_type_symbol
_atom_site_fract_x
_atom_site_fract_y
_atom_site_fract_z
N1 N 0.5048(12) 0.0568(9) 0.1565(4)
C1 C 0.4465(17) 0.1759 0.1780(5)
C2 C 0.5428(17) 0.1901(10) 0.2666(5)
C3 C 0.5225(16) 0.3119(11) 0.2925(5)
C4 C 0.7243(18) 0.3690(12) 0.3329(6)
C5 C 0.706(2) 0.4827(13) 0.3562(7)
C6 C 0.494(2) 0.5387(12) 0.3380(7)
C7 C 0.292(2) 0.4842(12) 0.2966(7)
C8 C 0.3011(17) 0.3694(11) 0.2744(6)
C9 C 0.582(2) 0.2596(11) 0.1359(5)
O1 O 0.7960(13) 0.2571(9) 0.1476(4)
N2 N 0.4334(17) 0.3290(9) 0.0878(5)
C10 C 0.521(3) 0.4046(10) 0.0341(6)
C11 C 0.525(2) 0.5317(11) 0.0560(6)
O2 O 0.5498(20) 0.6001(9) 0.0066(4)
N3 N 0.4965(14) 0.5570(9) 0.1264(4)
C12 C 0.5005(15) 0.6768(10) 0.1520(5)
C13 C 0.7558(15) 0.7106(10) 0.1959(5)
O3 O 0.9301(12) 0.6712(9) 0.1777(4)
N4 N 0.7684(11) 0.7892(9) 0.2509(4)
C14 C 1.0056(13) 0.8338(10) 0.2926(5)
C15 C 0.9821(16) 0.9042(11) 0.3629(5)
C16 C 0.8955(14) 0.8346(11) 0.4245(5)
C17 C 0.7035(17) 0.8756(12) 0.4520(6)
C18 C 0.632(2) 0.8143(16) 0.5103(7)
C19 C 0.745(3) 0.7180(15) 0.5386(7)
C20 C 0.933(3) 0.6757(13) 0.5128(7)
C21 C 1.0104(19) 0.7349(11) 0.4555(6)
C22 C 1.1111(15) 0.9141(11) 0.2395(5)
O4 O 0.9725(12) 0.9752(9) 0.1908(4)
O5 O 1.3303(9) 0.9097(9) 0.2500(4)
H1 H 0.4381(12) 0.0455(9) 0.0940(4)
H2 H 0.4213(12) -0.0043(9) 0.1869(4)
H3 H 0.6958(12) 0.0443(9) 0.1728(4)
H4 H 0.2568(17) 0.1922 0.1622(5)
H5 H 0.4419(17) 0.1360(10) 0.2959(5)
H6 H 0.7283(17) 0.1652(10) 0.2828(5)
H7 H 0.8953(18) 0.3266(12) 0.3467(6)
H8 H 0.865(2) 0.5262(13) 0.3886(7)
H9 H 0.485(2) 0.6255(12) 0.3566(7)
H10 H 0.125(2) 0.5301(12) 0.2806(7)
H11 H 0.1399(17) 0.3257(11) 0.2445(6)
H12 H 0.2450(17) 0.3484(9) 0.0725(5)
H13 H 0.703(3) 0.3801(10) 0.0364(6)
H14 H 0.412(3) 0.3935(10) -0.0249(6)
H15 H 0.4676(14) 0.5116(9) 0.1765(4)
H16 H 0.4413(15) 0.7310(10) 0.1015(5)
H17 H 0.3837(15) 0.6872(10) 0.1907(5)
H18 H 0.6439(11) 0.8344(9) 0.2764(4)
H19 H 1.1217(13) 0.7615(10) 0.3097(5)
H20 H 1.1548(16) 0.9396(11) 0.3906(5)
H21 H 0.8565(16) 0.9720(11) 0.3424(5)
H22 H 0.6145(17) 0.9535(12) 0.4291(6)
H23 H 0.484(2) 0.8443(16) 0.5321(7)
H24 H 0.687(3) 0.6723(15) 0.5838(7)
H25 H 1.019(3) 0.5973(13) 0.5360(7)
H26 H 1.1603(19) 0.7041(11) 0.4353(6)
O6 O 0.0171(15) 0.7349(11) 0.0075(6)
O7 O 0.975(2) 0.496(19) 0.9504(7)
O8 O 0.023(4) 0.453(2) 0.1116(12)
loop_
_geom_bond_atom_site_label_1
_geom_bond_atom_site_label_2
_geom_bond_site_symmetry_1
_geom_bond_site_symmetry_2
N1 C1 1_555 1_555
C1 C2 1_555 1_555
C2 C3 1_555 1_555
C3 C4 1_555 1_555
C4 C5 1_555 1_555
C5 C6 1_555 1_555
C6 C7 1_555 1_555
C7 C8 1_555 1_555
C8 C3 1_555 1_555
C9 C1 1_555 1_555
O1 C9 1_555 1_555
N2 C9 1_555 1_555
C10 N2 1_555 1_555
C11 C10 1_555 1_555
O2 C11 1_555 1_555
N3 C11 1_555 1_555
C12 N3 1_555 1_555
C13 C12 1_555 1_555
O3 C13 1_555 1_555
N4 C13 1_555 1_555
C14 N4 1_555 1_555
C15 C14 1_555 1_555
C16 C15 1_555 1_555
C17 C16 1_555 1_555
C18 C17 1_555 1_555
C19 C18 1_555 1_555
C20 C19 1_555 1_555
C21 C16 1_555 1_555
C22 C14 1_555 1_555
O4 C22 1_555 1_555
O5 C22 1_555 1_555
H1 N1 1_555 1_555
H2 N1 1_555 1_555
H3 N1 1_555 1_555
H4 C1 1_555 1_555
H5 C2 1_555 1_555
H6 C2 1_555 1_555
H7 C4 1_555 1_555
H8 C5 1_555 1_555
H9 C6 1_555 1_555
H10 C7 1_555 1_555
H11 C8 1_555 1_555
H12 N2 1_555 1_555
H13 C10 1_555 1_555
H14 C10 1_555 1_555
H15 N3 1_555 1_555
H16 C12 1_555 1_555
H17 C12 1_555 1_555
H18 N4 1_555 1_555
H19 C14 1_555 1_555
H20 C15 1_555 1_555
H21 C15 1_555 1_555
H22 C17 1_555 1_555
H23 C18 1_555 1_555
H24 C19 1_555 1_555
H25 C20 1_555 1_555
H26 C21 1_555 1_555
C20 C21 1_555 1_555

#END
