
#######################################################################
#
#                 Cambridge Crystallographic Data Centre
#                                CCDC 
#
#######################################################################
#
# If this CIF has been generated from an entry in the Cambridge 
# Structural Database, then it will include bibliographic, chemical, 
# crystal, experimental, refinement or atomic coordinate data resulting 
# from the CCDC's data processing and validation procedures.
#
#######################################################################

data_FEYZUE
_chemical_formula_moiety         'C14 H17 N3 O1 2+,2(Cl1 1-),H2 O1'
_chemical_name_systematic        
'L-Phenylalanyl-3-aminopyridinium dichloride monohydrate'
_chemical_properties_biological  'antisickling agent'
_symmetry_cell_setting           orthorhombic
_symmetry_space_group_name_H-M   'P 21 21 21'
_symmetry_Int_Tables_number      19
_space_group_name_Hall           'P 2ac 2ab'
loop_
_symmetry_equiv_pos_site_id
_symmetry_equiv_pos_as_xyz
1 x,y,z
2 1/2+x,1/2-y,-z
3 -x,1/2+y,1/2-z
4 1/2-x,-y,1/2+z
_cell_length_a                   7.335(2)
_cell_length_b                   18.824(4)
_cell_length_c                   11.685(4)
_cell_angle_alpha                90
_cell_angle_beta                 90
_cell_angle_gamma                90
_cell_volume                     1613.4
_cell_formula_units_Z            4
loop_
_atom_site_label
_atom_site_type_symbol
_atom_site_fract_x
_atom_site_fract_y
_atom_site_fract_z
Cl1 Cl 0.5948(3) 0.32906(8) 0.93875(14)
Cl2 Cl 0.8508(2) 0.15540(7) 0.48964(12)
N1 N 0.9745(7) -0.2295(2) 0.8418(4)
C1 C 0.9142(8) -0.2449(3) 0.7223(5)
C2 C 0.7270(8) -0.2807(3) 0.7216(5)
C3 C 0.7268(8) -0.3520(3) 0.7818(5)
C4 C 0.6554(10) -0.3591(3) 0.8911(5)
C5 C 0.6454(12) -0.4247(4) 0.9439(6)
C6 C 0.7096(11) -0.4838(4) 0.8874(7)
C7 C 0.7819(10) -0.4781(3) 0.7789(7)
C8 C 0.7930(9) -0.4118(3) 0.7278(6)
C9 C 0.9030(8) -0.1722(3) 0.6632(5)
O1 O 0.8978(6) -0.11734(19) 0.7153(3)
N2 N 0.8939(6) -0.1790(2) 0.5462(4)
C10 C 0.8652(9) -0.1222(3) 0.4706(5)
C11 C 0.8797(9) -0.0521(3) 0.5008(5)
N3 N 0.8492(8) -0.0020(2) 0.4201(5)
C12 C 0.8116(10) -0.0164(3) 0.3109(6)
C13 C 0.7983(9) -0.0861(3) 0.2775(6)
C14 C 0.8267(8) -0.1390(3) 0.3564(5)
H1 H 0.9854(7) -0.2786(2) 0.8891(4)
H2 H 0.8763(7) -0.1952(2) 0.8829(4)
H3 H 1.1057(7) -0.2035(2) 0.8398(4)
H4 H 1.0072(8) -0.2806(3) 0.6795(5)
H5 H 0.6855(8) -0.2885(3) 0.6339(5)
H6 H 0.6306(8) -0.2462(3) 0.7640(5)
H7 H 0.6063(10) -0.3126(3) 0.9357(5)
H8 H 0.5884(12) -0.4295(4) 1.0288(6)
H9 H 0.7032(11) -0.5352(4) 0.9284(7)
H10 H 0.8293(10) -0.5248(3) 0.7341(7)
H11 H 0.8540(9) -0.4068(3) 0.6440(6)
H12 H 0.9010(6) -0.2215(2) 0.4843(4)
H13 H 0.9144(9) -0.0372(3) 0.5874(5)
H14 H 0.8551(8) 0.0530(2) 0.4457(5)
H15 H 0.7932(10) 0.0259(3) 0.2496(6)
H16 H 0.7656(9) -0.0992(3) 0.1899(6)
H17 H 0.8192(8) -0.1939(3) 0.3302(5)
O2 O 0.1920(6) 0.1694(3) 0.3163(4)
loop_
_geom_bond_atom_site_label_1
_geom_bond_atom_site_label_2
_geom_bond_site_symmetry_1
_geom_bond_site_symmetry_2
N1 C1 1_555 1_555
C1 C2 1_555 1_555
C2 C3 1_555 1_555
C3 C4 1_555 1_555
C4 C5 1_555 1_555
C5 C6 1_555 1_555
C6 C7 1_555 1_555
C7 C8 1_555 1_555
C8 C3 1_555 1_555
C9 C1 1_555 1_555
O1 C9 1_555 1_555
N2 C9 1_555 1_555
C10 N2 1_555 1_555
C11 C10 1_555 1_555
N3 C11 1_555 1_555
C12 N3 1_555 1_555
C13 C12 1_555 1_555
C14 C10 1_555 1_555
H1 N1 1_555 1_555
H2 N1 1_555 1_555
H3 N1 1_555 1_555
H4 C1 1_555 1_555
H5 C2 1_555 1_555
H6 C2 1_555 1_555
H7 C4 1_555 1_555
H8 C5 1_555 1_555
H9 C6 1_555 1_555
H10 C7 1_555 1_555
H11 C8 1_555 1_555
H12 N2 1_555 1_555
H13 C11 1_555 1_555
H14 N3 1_555 1_555
H15 C12 1_555 1_555
H16 C13 1_555 1_555
H17 C14 1_555 1_555
C13 C14 1_555 1_555

#END
