
#######################################################################
#
#                 Cambridge Crystallographic Data Centre
#                                CCDC 
#
#######################################################################
#
# If this CIF has been generated from an entry in the Cambridge 
# Structural Database, then it will include bibliographic, chemical, 
# crystal, experimental, refinement or atomic coordinate data resulting 
# from the CCDC's data processing and validation procedures.
#
#######################################################################

data_FEZBAO
_chemical_formula_moiety         'C16 H23 N5 O3 S1'
_chemical_name_systematic        
"Ethyl 5-amino-1-((5'-methyl-1'-t-butyl-4'-pyrazolyl)carbonyl)-3-methylthio-1H-pyrazole-4-carboxylate"
_chemical_properties_biological  'antifungal activity'
_symmetry_cell_setting           monoclinic
_symmetry_space_group_name_H-M   'P 21/c'
_symmetry_Int_Tables_number      14
_space_group_name_Hall           '-P 2ybc'
loop_
_symmetry_equiv_pos_site_id
_symmetry_equiv_pos_as_xyz
1 x,y,z
2 -x,1/2+y,1/2-z
3 -x,-y,-z
4 x,1/2-y,1/2+z
_cell_length_a                   12.194(4)
_cell_length_b                   12.909(4)
_cell_length_c                   11.607(4)
_cell_angle_alpha                90
_cell_angle_beta                 90.183(5)
_cell_angle_gamma                90
_cell_volume                     1827.08
_cell_formula_units_Z            4
loop_
_atom_site_label
_atom_site_type_symbol
_atom_site_fract_x
_atom_site_fract_y
_atom_site_fract_z
S1 S 0.54506(7) 1.23524(6) 0.02669(8)
O1 O 0.74427(17) 0.80616(16) 0.07232(18)
O2 O 0.40037(19) 1.15942(17) 0.2173(2)
N1 N 0.9591(2) 1.00341(19) -0.1605(2)
N2 N 0.96122(18) 0.89989(18) -0.1859(2)
N3 N 0.67529(18) 0.96721(17) 0.06497(19)
N4 N 0.66619(18) 1.06336(18) 0.00877(19)
N5 N 0.5956(2) 0.8773(2) 0.2235(2)
H1 H 0.6393 0.8258 0.2138
H2 H 0.5480 0.8759 0.2780
C1 C 0.8798(2) 1.0139(2) -0.0860(3)
H3 H 0.8591 1.0769 -0.0539
C2 C 0.8295(2) 0.9188(2) -0.0599(2)
C3 C 0.8842(2) 0.8466(2) -0.1271(2)
C4 C 0.8589(3) 0.7349(2) -0.1417(3)
H4 H 0.8527 0.7191 -0.2223
H5 H 0.7910 0.7191 -0.1040
H6 H 0.9168 0.6942 -0.1083
C5 C 1.0491(2) 0.8620(3) -0.2658(3)
C6 C 1.1233(4) 0.9495(4) -0.2946(5)
H7 H 1.0856 0.9973 -0.3442
H8 H 1.1871 0.9234 -0.3331
H9 H 1.1450 0.9843 -0.2251
C7 C 1.0015(4) 0.8126(5) -0.3689(4)
H10 H 0.9569 0.8619 -0.4096
H11 H 0.9572 0.7547 -0.3461
H12 H 1.0594 0.7890 -0.4183
C8 C 1.1206(4) 0.7824(4) -0.2002(4)
H13 H 1.1510 0.8144 -0.1325
H14 H 1.1789 0.7592 -0.2491
H15 H 1.0762 0.7243 -0.1781
C9 C 0.7491(2) 0.8913(2) 0.0278(2)
C10 C 0.5881(2) 1.1110(2) 0.0646(2)
C11 C 0.5433(2) 1.0514(2) 0.1561(2)
C12 C 0.6015(2) 0.9590(2) 0.1542(2)
C13 C 0.4522(2) 1.0807(2) 0.2279(3)
O3 O 0.4451(4) 1.0187(4) 0.3239(5)
C14 C 0.3582(6) 1.0406(6) 0.4045(6)
H16 H 0.3413 1.1140 0.4025
H17 H 0.3826 1.0236 0.4818
C15 C 0.2579(5) 0.9803(8) 0.3769(8)
H18 H 0.2020 0.9958 0.4323
H19 H 0.2744 0.9077 0.3792
H20 H 0.2324 0.9986 0.3012
C18 C 0.6379(3) 1.2599(3) -0.0894(3)
H26 H 0.6231 1.3271 -0.1213
H27 H 0.6283 1.2081 -0.1479
H28 H 0.7119 1.2577 -0.0611
O4? O 0.4122(7) 0.9965(5) 0.2871(6)
C16? C 0.3113(7) 1.0141(10) 0.3488(7)
H21? H 0.2673 0.9515 0.3472
H22? H 0.2700 1.0686 0.3109
C17? C 0.3335(10) 1.0444(11) 0.4716(8)
H23? H 0.2653 1.0500 0.5123
H24? H 0.3707 1.1099 0.4734
H25? H 0.3786 0.9926 0.5076
loop_
_geom_bond_atom_site_label_1
_geom_bond_atom_site_label_2
_geom_bond_site_symmetry_1
_geom_bond_site_symmetry_2
S1 C10 1_555 1_555
O1 C9 1_555 1_555
O2 C13 1_555 1_555
N1 N2 1_555 1_555
N2 C3 1_555 1_555
N3 N4 1_555 1_555
N4 C10 1_555 1_555
N5 H1 1_555 1_555
H2 N5 1_555 1_555
C1 N1 1_555 1_555
H3 C1 1_555 1_555
C2 C1 1_555 1_555
C3 C2 1_555 1_555
C4 C3 1_555 1_555
H4 C4 1_555 1_555
H5 C4 1_555 1_555
H6 C4 1_555 1_555
C5 N2 1_555 1_555
C6 C5 1_555 1_555
H7 C6 1_555 1_555
H8 C6 1_555 1_555
H9 C6 1_555 1_555
C7 C5 1_555 1_555
H10 C7 1_555 1_555
H11 C7 1_555 1_555
H12 C7 1_555 1_555
C8 C5 1_555 1_555
H13 C8 1_555 1_555
H14 C8 1_555 1_555
H15 C8 1_555 1_555
C9 N3 1_555 1_555
C10 C11 1_555 1_555
C11 C12 1_555 1_555
C12 N3 1_555 1_555
C13 C11 1_555 1_555
O3 C13 1_555 1_555
C14 O3 1_555 1_555
H16 C14 1_555 1_555
H17 C14 1_555 1_555
C15 C14 1_555 1_555
H18 C15 1_555 1_555
H19 C15 1_555 1_555
H20 C15 1_555 1_555
C18 S1 1_555 1_555
H26 C18 1_555 1_555
H27 C18 1_555 1_555
H28 C18 1_555 1_555
N5 C12 1_555 1_555
C2 C9 1_555 1_555

#END
