
#######################################################################
#
#                 Cambridge Crystallographic Data Centre
#                                CCDC 
#
#######################################################################
#
# If this CIF has been generated from an entry in the Cambridge 
# Structural Database, then it will include bibliographic, chemical, 
# crystal, experimental, refinement or atomic coordinate data resulting 
# from the CCDC's data processing and validation procedures.
#
#######################################################################

data_FEZDAS
_chemical_formula_moiety         'C17 H15 N1 O4 S1'
_chemical_name_systematic        
2-acetyl-3-((phenylsulfonyl)methyl)-2,3-dihydro-1H-isoindol-1-one
_symmetry_cell_setting           triclinic
_symmetry_space_group_name_H-M   'P -1'
_symmetry_Int_Tables_number      2
_space_group_name_Hall           '-P 1'
loop_
_symmetry_equiv_pos_site_id
_symmetry_equiv_pos_as_xyz
1 x,y,z
2 -x,-y,-z
_cell_length_a                   7.083(2)
_cell_length_b                   9.054(3)
_cell_length_c                   13.208(4)
_cell_angle_alpha                98.259(5)
_cell_angle_beta                 99.321(5)
_cell_angle_gamma                112.044(4)
_cell_volume                     755.135
_exptl_crystal_colour            colorless
_exptl_crystal_description       block
_cell_formula_units_Z            2
loop_
_atom_site_label
_atom_site_type_symbol
_atom_site_fract_x
_atom_site_fract_y
_atom_site_fract_z
S1 S 0.65017(9) 0.01025(7) 0.17908(4)
N1 N 1.1433(3) 0.2934(2) 0.19729(16)
O1 O 0.6831(3) -0.0565(2) 0.26911(14)
O2 O 0.4538(3) -0.0732(2) 0.10145(15)
O3 O 1.2801(3) 0.4946(2) 0.35403(17)
O4 O 1.1135(4) 0.3076(2) 0.02660(16)
C1 C 1.0787(4) 0.1147(3) 0.16671(17)
H1 H 1.1648 0.0937 0.1202
C2 C 1.1435(4) 0.0756(3) 0.27015(18)
C3 C 1.1388(4) -0.0724(3) 0.2899(2)
H2 H 1.0895 -0.1650 0.2357
C4 C 1.2099(5) -0.0772(4) 0.3926(3)
H3 H 1.2070 -0.1751 0.4078
C5 C 1.2857(5) 0.0619(5) 0.4737(2)
H4 H 1.3295 0.0549 0.5425
C6 C 1.2966(5) 0.2094(4) 0.4536(2)
H5 H 1.3515 0.3032 0.5073
C7 C 1.2225(4) 0.2137(3) 0.34982(19)
C8 C 1.2224(4) 0.3534(3) 0.3072(2)
C9 C 0.8483(4) 0.0206(3) 0.10898(17)
H6 H 0.8277 -0.0906 0.0804
H7 H 0.8237 0.0683 0.0496
C10 C 0.6839(4) 0.2149(3) 0.22351(19)
C11 C 0.6519(4) 0.3015(3) 0.1483(2)
H8 H 0.6139 0.2539 0.0767
C12 C 0.6791(5) 0.4629(4) 0.1844(3)
H9 H 0.6601 0.5246 0.1363
C13 C 0.7334(5) 0.5304(4) 0.2896(3)
H10 H 0.7495 0.6375 0.3124
C14 C 0.7645(5) 0.4426(4) 0.3628(3)
H11 H 0.8006 0.4902 0.4342
C15 C 0.7421(4) 0.2829(4) 0.3297(2)
H12 H 0.7660 0.2233 0.3784
C16 C 1.1545(4) 0.3816(3) 0.1180(2)
C17 C 1.2151(5) 0.5614(3) 0.1498(3)
H13 H 1.2049 0.6049 0.0880
H14 H 1.3566 0.6135 0.1914
H15 H 1.1228 0.5811 0.1904
loop_
_geom_bond_atom_site_label_1
_geom_bond_atom_site_label_2
_geom_bond_site_symmetry_1
_geom_bond_site_symmetry_2
S1 O1 1_555 1_555
N1 C1 1_555 1_555
O2 S1 1_555 1_555
O3 C8 1_555 1_555
O4 C16 1_555 1_555
C1 H1 1_555 1_555
C2 C1 1_555 1_555
C3 C2 1_555 1_555
H2 C3 1_555 1_555
C4 C3 1_555 1_555
H3 C4 1_555 1_555
C5 C4 1_555 1_555
H4 C5 1_555 1_555
C6 C5 1_555 1_555
H5 C6 1_555 1_555
C7 C2 1_555 1_555
C8 N1 1_555 1_555
C9 S1 1_555 1_555
H6 C9 1_555 1_555
H7 C9 1_555 1_555
C10 S1 1_555 1_555
C11 C10 1_555 1_555
H8 C11 1_555 1_555
C12 C11 1_555 1_555
H9 C12 1_555 1_555
C13 C12 1_555 1_555
H10 C13 1_555 1_555
C14 C13 1_555 1_555
H11 C14 1_555 1_555
C15 C10 1_555 1_555
H12 C15 1_555 1_555
C16 N1 1_555 1_555
C17 C16 1_555 1_555
H13 C17 1_555 1_555
H14 C17 1_555 1_555
H15 C17 1_555 1_555
C1 C9 1_555 1_555
C6 C7 1_555 1_555
C7 C8 1_555 1_555
C14 C15 1_555 1_555

#END
