
#######################################################################
#
#                 Cambridge Crystallographic Data Centre
#                                CCDC 
#
#######################################################################
#
# If this CIF has been generated from an entry in the Cambridge 
# Structural Database, then it will include bibliographic, chemical, 
# crystal, experimental, refinement or atomic coordinate data resulting 
# from the CCDC's data processing and validation procedures.
#
#######################################################################

data_FEZGEZ
_chemical_formula_moiety         'C59 H15 F25 N6,2(C1 H1 Cl3)'
_chemical_name_systematic        
"4,9,14-tris(pentafluorophenyl)-2,16-bis[(pentafluorophenyl)(1H-pyrrol-2-yl)methylidene]-2,16-dihydro-5,8-(azeno)-10,13-epiminocyclopentadeca[1,15-b:2,3-b']dipyrrole chloroform solvate"
_symmetry_cell_setting           monoclinic
_symmetry_space_group_name_H-M   'I 2/a'
_symmetry_Int_Tables_number      15
_space_group_name_Hall           '-I 2ya'
loop_
_symmetry_equiv_pos_site_id
_symmetry_equiv_pos_as_xyz
1 x,y,z
2 1/2-x,y,-z
3 1/2+x,1/2+y,1/2+z
4 -x,1/2+y,1/2-z
5 -x,-y,-z
6 1/2+x,-y,z
7 1/2-x,1/2-y,1/2-z
8 x,1/2-y,1/2+z
_cell_length_a                   19.9438(12)
_cell_length_b                   13.2946(5)
_cell_length_c                   21.7930(12)
_cell_angle_alpha                90
_cell_angle_beta                 104.159(6)
_cell_angle_gamma                90
_cell_volume                     5602.76
_exptl_crystal_colour            violet
_exptl_crystal_description       plate
_cell_formula_units_Z            4
loop_
_atom_site_label
_atom_site_type_symbol
_atom_site_fract_x
_atom_site_fract_y
_atom_site_fract_z
F1 F 0.57739(15) 0.5614(2) 0.65365(13)
F2 F 0.64723(15) 0.6360(3) 0.76560(14)
F3 F 0.59660(16) 0.7982(3) 0.81751(14)
F4 F 0.47683(17) 0.8869(2) 0.75421(15)
F5 F 0.40832(15) 0.8170(2) 0.63996(14)
F6 F 0.32543(15) 0.4200(2) 0.75357(13)
F7 F 0.31769(15) 0.5078(2) 0.86249(12)
F8 F 0.23380(16) 0.6688(2) 0.86235(13)
F9 F 0.15341(15) 0.7392(2) 0.75063(13)
F10 F 0.16168(14) 0.6538(2) 0.64041(13)
N1 N 0.4583(2) 0.6173(3) 0.46825(19)
H1 H 0.416944 0.590038 0.455980
N2 N 0.33994(19) 0.5938(3) 0.51277(17)
N3 N 0.2448(2) 0.3593(3) 0.55607(18)
C1 C 0.5037(3) 0.6289(4) 0.4313(2)
H2 H 0.495921 0.609697 0.388121
C2 C 0.5635(3) 0.6735(4) 0.4674(2)
H3 H 0.603890 0.689366 0.453581
C3 C 0.5532(3) 0.6907(4) 0.5282(2)
H4 H 0.585114 0.720883 0.562878
C4 C 0.4869(2) 0.6550(4) 0.5280(2)
C5 C 0.4519(2) 0.6501(3) 0.5777(2)
C6 C 0.3851(2) 0.6154(3) 0.5718(2)
C7 C 0.3517(2) 0.5935(3) 0.6216(2)
H5 H 0.370549 0.604498 0.665525
C8 C 0.2879(2) 0.5538(3) 0.5946(2)
C9 C 0.2819(2) 0.5622(3) 0.5256(2)
C10 C 0.2497(2) 0.4920(3) 0.6304(2)
C11 C 0.2354(2) 0.3938(3) 0.6129(2)
C12 C 0.2214(2) 0.3054(3) 0.6482(2)
H6 H 0.211231 0.305995 0.688517
C13 C 0.2257(2) 0.2233(3) 0.6131(2)
H7 H 0.220354 0.155448 0.624659
C14 C 0.2402(2) 0.2581(3) 0.5533(2)
C15 C 0.250000 0.2041(4) 0.500000
C16 C 0.4904(2) 0.6872(4) 0.6419(2)
C17 C 0.5516(2) 0.6437(4) 0.6762(2)
C18 C 0.5876(2) 0.6800(4) 0.7343(2)
C19 C 0.5631(3) 0.7625(4) 0.7609(2)
C20 C 0.5019(3) 0.8072(4) 0.7286(2)
C21 C 0.4669(3) 0.7695(4) 0.6701(2)
C22 C 0.2432(2) 0.5331(3) 0.6925(2)
C23 C 0.2815(2) 0.4981(3) 0.7505(2)
C24 C 0.2783(2) 0.5427(3) 0.8074(2)
C25 C 0.2354(2) 0.6236(3) 0.8078(2)
C26 C 0.1958(3) 0.6603(3) 0.7507(2)
C27 C 0.2004(2) 0.6155(3) 0.6942(2)
C28 C 0.250000 0.0910(5) 0.500000
C29 C 0.1932(3) 0.0368(3) 0.5070(2)
C30 C 0.1926(3) -0.0687(4) 0.5062(2)
C31 C 0.250000 -0.1192(5) 0.500000
F11 F 0.13621(16) 0.0851(2) 0.51381(15)
F12 F 0.13617(19) -0.1181(2) 0.51364(16)
F13 F 0.250000 -0.2202(3) 0.500000
F1A F -0.07739(15) 0.5614(2) 0.34635(13)
F2A F -0.14723(15) 0.6360(3) 0.23440(14)
F3A F -0.09660(16) 0.7982(3) 0.18249(14)
F4A F 0.02317(17) 0.8869(2) 0.24579(15)
F5A F 0.09168(15) 0.8170(2) 0.36004(14)
F6A F 0.17457(15) 0.4200(2) 0.24643(13)
F7A F 0.18231(15) 0.5078(2) 0.13751(12)
F8A F 0.26620(16) 0.6688(2) 0.13765(13)
F9A F 0.34659(15) 0.7392(2) 0.24937(13)
F10A F 0.33832(14) 0.6538(2) 0.35959(13)
N1A N 0.0417(2) 0.6173(3) 0.53175(19)
H1A H 0.083056 0.590038 0.544020
N2A N 0.16006(19) 0.5938(3) 0.48723(17)
N3A N 0.2552(2) 0.3593(3) 0.44393(18)
C1A C -0.0037(3) 0.6289(4) 0.5687(2)
H2A H 0.004079 0.609697 0.611879
C2A C -0.0635(3) 0.6735(4) 0.5326(2)
H3A H -0.103890 0.689366 0.546419
C3A C -0.0532(3) 0.6907(4) 0.4718(2)
H4A H -0.085114 0.720883 0.437122
C4A C 0.0131(2) 0.6550(4) 0.4720(2)
C5A C 0.0481(2) 0.6501(3) 0.4223(2)
C6A C 0.1149(2) 0.6154(3) 0.4282(2)
C7A C 0.1483(2) 0.5935(3) 0.3784(2)
H5A H 0.129451 0.604498 0.334475
C8A C 0.2121(2) 0.5538(3) 0.4054(2)
C9A C 0.2181(2) 0.5622(3) 0.4744(2)
C10A C 0.2503(2) 0.4920(3) 0.3696(2)
C11A C 0.2646(2) 0.3938(3) 0.3871(2)
C12A C 0.2786(2) 0.3054(3) 0.3518(2)
H6A H 0.288769 0.305995 0.311483
C13A C 0.2743(2) 0.2233(3) 0.3869(2)
H7A H 0.279646 0.155448 0.375341
C14A C 0.2598(2) 0.2581(3) 0.4467(2)
C16A C 0.0096(2) 0.6872(4) 0.3581(2)
C17A C -0.0516(2) 0.6437(4) 0.3238(2)
C18A C -0.0876(2) 0.6800(4) 0.2657(2)
C19A C -0.0631(3) 0.7625(4) 0.2391(2)
C20A C -0.0019(3) 0.8072(4) 0.2714(2)
C21A C 0.0331(3) 0.7695(4) 0.3299(2)
C22A C 0.2568(2) 0.5331(3) 0.3075(2)
C23A C 0.2185(2) 0.4981(3) 0.2495(2)
C24A C 0.2217(2) 0.5427(3) 0.1926(2)
C25A C 0.2646(2) 0.6236(3) 0.1922(2)
C26A C 0.3042(3) 0.6603(3) 0.2493(2)
C27A C 0.2996(2) 0.6155(3) 0.3058(2)
C29A C 0.3068(3) 0.0368(3) 0.4930(2)
C30A C 0.3074(3) -0.0687(4) 0.4938(2)
F11A F 0.36379(16) 0.0851(2) 0.48619(15)
F12A F 0.36383(19) -0.1181(2) 0.48636(16)
Cl1 Cl -0.08443(8) 0.93580(12) 0.63216(7)
Cl2 Cl 0.05565(9) 0.86065(13) 0.65992(9)
Cl3 Cl 0.01981(9) 1.04387(12) 0.58580(8)
C32 C -0.0089(3) 0.9244(5) 0.6035(3)
H8 H -0.020353 0.883666 0.563733
H9? H 0.252729 0.397916 0.525788
loop_
_geom_bond_atom_site_label_1
_geom_bond_atom_site_label_2
_geom_bond_site_symmetry_1
_geom_bond_site_symmetry_2
F1 C17 1_555 1_555
F2 C18 1_555 1_555
F3 C19 1_555 1_555
F4 C20 1_555 1_555
F5 C21 1_555 1_555
F6 C23 1_555 1_555
F7 C24 1_555 1_555
F8 C25 1_555 1_555
F9 C26 1_555 1_555
F10 C27 1_555 1_555
N1 H1 1_555 1_555
N2 C6 1_555 1_555
N3 C11 1_555 1_555
C1 N1 1_555 1_555
H2 C1 1_555 1_555
C2 C1 1_555 1_555
H3 C2 1_555 1_555
C3 C2 1_555 1_555
H4 C3 1_555 1_555
C4 N1 1_555 1_555
C5 C4 1_555 1_555
C6 C5 1_555 1_555
C7 C6 1_555 1_555
H5 C7 1_555 1_555
C8 C7 1_555 1_555
C9 N2 1_555 1_555
C10 C8 1_555 1_555
C11 C10 1_555 1_555
C12 C11 1_555 1_555
H6 C12 1_555 1_555
C13 C12 1_555 1_555
H7 C13 1_555 1_555
C14 N3 1_555 1_555
C15 C14 1_555 1_555
C16 C5 1_555 1_555
C17 C16 1_555 1_555
C18 C17 1_555 1_555
C19 C18 1_555 1_555
C20 C19 1_555 1_555
C21 C16 1_555 1_555
C22 C10 1_555 1_555
C23 C22 1_555 1_555
C24 C23 1_555 1_555
C25 C24 1_555 1_555
C26 C25 1_555 1_555
C27 C22 1_555 1_555
C28 C15 1_555 1_555
C29 C28 1_555 1_555
C30 C29 1_555 1_555
C31 C30 1_555 1_555
F11 C29 1_555 1_555
F12 C30 1_555 1_555
F13 C31 1_555 1_555
Cl1 C32 1_555 1_555
Cl2 C32 1_555 1_555
Cl3 C32 1_555 1_555
C32 H8 1_555 1_555
F1A C17A 1_555 1_555
F2A C18A 1_555 1_555
F3A C19A 1_555 1_555
F4A C20A 1_555 1_555
F5A C21A 1_555 1_555
F6A C23A 1_555 1_555
F7A C24A 1_555 1_555
F8A C25A 1_555 1_555
F9A C26A 1_555 1_555
F10A C27A 1_555 1_555
N1A H1A 1_555 1_555
N2A C6A 1_555 1_555
N3A C11A 1_555 1_555
C1A N1A 1_555 1_555
H2A C1A 1_555 1_555
C2A C1A 1_555 1_555
H3A C2A 1_555 1_555
C3A C2A 1_555 1_555
H4A C3A 1_555 1_555
C4A N1A 1_555 1_555
C5A C4A 1_555 1_555
C6A C5A 1_555 1_555
C7A C6A 1_555 1_555
H5A C7A 1_555 1_555
C8A C7A 1_555 1_555
C9A C9 1_555 1_555
C10A C8A 1_555 1_555
C11A C10A 1_555 1_555
C12A C11A 1_555 1_555
H6A C12A 1_555 1_555
C13A C12A 1_555 1_555
H7A C13A 1_555 1_555
C14A C15 1_555 1_555
C16A C5A 1_555 1_555
C17A C16A 1_555 1_555
C18A C17A 1_555 1_555
C19A C18A 1_555 1_555
C20A C19A 1_555 1_555
C21A C16A 1_555 1_555
C22A C10A 1_555 1_555
C23A C22A 1_555 1_555
C24A C23A 1_555 1_555
C25A C24A 1_555 1_555
C26A C25A 1_555 1_555
C27A C22A 1_555 1_555
C29A C28 1_555 1_555
C30A C31 1_555 1_555
F11A C29A 1_555 1_555
F12A C30A 1_555 1_555
C3 C4 1_555 1_555
C8 C9 1_555 1_555
C13 C14 1_555 1_555
C20 C21 1_555 1_555
C26 C27 1_555 1_555
N2A C9A 1_555 1_555
N3A C14A 1_555 1_555
C3A C4A 1_555 1_555
C8A C9A 1_555 1_555
C13A C14A 1_555 1_555
C20A C21A 1_555 1_555
C26A C27A 1_555 1_555
C29A C30A 1_555 1_555

#END
