
#######################################################################
#
#                 Cambridge Crystallographic Data Centre
#                                CCDC 
#
#######################################################################
#
# If this CIF has been generated from an entry in the Cambridge 
# Structural Database, then it will include bibliographic, chemical, 
# crystal, experimental, refinement or atomic coordinate data resulting 
# from the CCDC's data processing and validation procedures.
#
#######################################################################

data_FEZLIH
_chemical_formula_moiety         'C20 H20 O2 S1'
_chemical_name_systematic        
3-(Ethylsulfanyl)-2-(4-methoxyphenyl)-4-phenylcyclopent-2-en-1-one
_symmetry_cell_setting           monoclinic
_symmetry_space_group_name_H-M   'P 21/c'
_symmetry_Int_Tables_number      14
_space_group_name_Hall           '-P 2ybc'
loop_
_symmetry_equiv_pos_site_id
_symmetry_equiv_pos_as_xyz
1 x,y,z
2 -x,1/2+y,1/2-z
3 -x,-y,-z
4 x,1/2-y,1/2+z
_cell_length_a                   19.0155(8)
_cell_length_b                   8.2100(3)
_cell_length_c                   11.6450(5)
_cell_angle_alpha                90
_cell_angle_beta                 107.291(4)
_cell_angle_gamma                90
_cell_volume                     1735.83
_exptl_crystal_colour            colorless
_exptl_crystal_description       block
_cell_formula_units_Z            4
loop_
_atom_site_label
_atom_site_type_symbol
_atom_site_fract_x
_atom_site_fract_y
_atom_site_fract_z
S1 S 0.19022(3) 0.43768(8) 0.89183(4)
C1 C 0.26840(11) 0.5327(2) 0.87779(15)
C2 C 0.33990(11) 0.5417(2) 0.97971(16)
H1 H 0.3316 0.5998 1.0480
C3 C 0.27382(10) 0.5996(2) 0.77424(15)
C4 C 0.37255(10) 0.3752(2) 1.02028(15)
C5 C 0.36993(11) 0.2520(2) 0.93830(16)
H2 H 0.3455 0.2690 0.8573
C6 C 0.21826(10) 0.6043(2) 0.65465(15)
C7 C 0.40934(11) 0.3474(2) 1.14002(16)
H3 H 0.4118 0.4293 1.1962
O1 O 0.36766(9) 0.7567(2) 0.72735(14)
O2 O 0.07069(9) 0.6061(2) 0.30954(12)
C8 C 0.34590(12) 0.6758(2) 0.79747(18)
C9 C 0.14657(11) 0.6533(3) 0.63728(17)
H4 H 0.1319 0.6848 0.7034
C10 C 0.40319(12) 0.1041(2) 0.97543(19)
H5 H 0.4011 0.0221 0.9194
C11 C 0.18773(11) 0.5616(3) 0.44077(18)
H6 H 0.2021 0.5302 0.3744
C12 C 0.11657(11) 0.6096(3) 0.42557(17)
C13 C 0.43929(11) 0.0773(2) 1.0944(2)
H7 H 0.4615 -0.0228 1.1192
C14 C 0.44259(11) 0.1985(3) 1.17710(18)
H8 H 0.4671 0.1807 1.2580
C15 C 0.09575(11) 0.6568(3) 0.52419(18)
H9 H 0.0477 0.6910 0.5148
C16 C 0.23805(11) 0.5594(3) 0.55346(17)
H10 H 0.2862 0.5272 0.5621
C17 C 0.20787(14) 0.4086(3) 1.05199(19)
H11 H 0.2465 0.3284 1.0813
H12 H 0.2239 0.5102 1.0941
C18 C 0.39013(13) 0.6434(3) 0.92630(18)
H13 H 0.4035 0.7449 0.9700
H14 H 0.4348 0.5839 0.9297
C19 C 0.13831(15) 0.3514(4) 1.0751(2)
H15 H 0.1012 0.4340 1.0501
H16 H 0.1477 0.3303 1.1594
H17 H 0.1216 0.2533 1.0304
C20 C -0.00084(14) 0.6733(5) 0.2878(2)
H18 H -0.0285 0.6089 0.3281
H19 H -0.0255 0.6734 0.2029
H20 H 0.0031 0.7829 0.3177
loop_
_geom_bond_atom_site_label_1
_geom_bond_atom_site_label_2
_geom_bond_site_symmetry_1
_geom_bond_site_symmetry_2
S1 C1 1_555 1_555
C1 C2 1_555 1_555
C2 H1 1_555 1_555
C3 C1 1_555 1_555
C4 C2 1_555 1_555
C5 C4 1_555 1_555
H2 C5 1_555 1_555
C6 C3 1_555 1_555
C7 C4 1_555 1_555
H3 C7 1_555 1_555
O1 C8 1_555 1_555
O2 C12 1_555 1_555
C8 C3 1_555 1_555
C9 C6 1_555 1_555
H4 C9 1_555 1_555
C10 C5 1_555 1_555
H5 C10 1_555 1_555
C11 H6 1_555 1_555
C12 C11 1_555 1_555
C13 C10 1_555 1_555
H7 C13 1_555 1_555
C14 C7 1_555 1_555
H8 C14 1_555 1_555
C15 C9 1_555 1_555
H9 C15 1_555 1_555
C16 C6 1_555 1_555
H10 C16 1_555 1_555
C17 S1 1_555 1_555
H11 C17 1_555 1_555
H12 C17 1_555 1_555
C18 C2 1_555 1_555
H13 C18 1_555 1_555
H14 C18 1_555 1_555
C19 C17 1_555 1_555
H15 C19 1_555 1_555
H16 C19 1_555 1_555
H17 C19 1_555 1_555
C20 O2 1_555 1_555
H18 C20 1_555 1_555
H19 C20 1_555 1_555
H20 C20 1_555 1_555
C8 C18 1_555 1_555
C11 C16 1_555 1_555
C12 C15 1_555 1_555
C13 C14 1_555 1_555

#END
