
#######################################################################
#
#                 Cambridge Crystallographic Data Centre
#                                CCDC 
#
#######################################################################
#
# If this CIF has been generated from an entry in the Cambridge 
# Structural Database, then it will include bibliographic, chemical, 
# crystal, experimental, refinement or atomic coordinate data resulting 
# from the CCDC's data processing and validation procedures.
#
#######################################################################

data_FEZLII
_chemical_formula_moiety         'C33 H37 B1 N2,C6 H6'
_chemical_name_systematic        
'4-[bis(2,4,6-trimethylphenyl)boranyl]-N,N-dimethyl-3-[2-(pyridin-2-yl)ethenyl]aniline benzene solvate'
_symmetry_cell_setting           triclinic
_symmetry_space_group_name_H-M   'P -1'
_symmetry_Int_Tables_number      2
_space_group_name_Hall           '-P 1'
loop_
_symmetry_equiv_pos_site_id
_symmetry_equiv_pos_as_xyz
1 x,y,z
2 -x,-y,-z
_cell_length_a                   8.1029(4)
_cell_length_b                   11.3778(6)
_cell_length_c                   18.5298(11)
_cell_angle_alpha                87.821(2)
_cell_angle_beta                 85.222(2)
_cell_angle_gamma                71.032(2)
_cell_volume                     1609.84
_exptl_crystal_colour            yellow
_exptl_crystal_description       block
_cell_formula_units_Z            2
loop_
_atom_site_label
_atom_site_type_symbol
_atom_site_fract_x
_atom_site_fract_y
_atom_site_fract_z
N1 N 0.2893(2) 0.63991(15) 0.50348(9)
N2 N 0.0742(2) 0.10095(15) 0.61231(10)
C1 C 0.2829(2) 0.52622(16) 0.72373(9)
C2 C 0.3218(2) 0.63336(16) 0.69945(10)
H1 H 0.3461 0.6829 0.7346
C3 C 0.3271(2) 0.67124(17) 0.62822(10)
H2 H 0.3583 0.7433 0.6153
C4 C 0.2863(2) 0.60334(16) 0.57463(10)
C5 C 0.3318(3) 0.7503(2) 0.48118(12)
H3 H 0.4503 0.7413 0.4938
H4 H 0.2481 0.8226 0.5059
H5 H 0.3257 0.7620 0.4287
C6 C 0.2469(3) 0.5693(2) 0.44837(11)
H6 H 0.2558 0.6087 0.4009
H7 H 0.1273 0.5674 0.4591
H8 H 0.3290 0.4842 0.4479
C7 C 0.2385(2) 0.49909(16) 0.59752(10)
H9 H 0.2057 0.4537 0.5625
C8 C 0.2372(2) 0.45966(15) 0.66936(10)
C9 C 0.1802(2) 0.35165(16) 0.68958(10)
H10 H 0.1436 0.3443 0.7391
C10 C 0.1746(2) 0.26363(17) 0.64587(11)
H11 H 0.2110 0.2704 0.5962
C11 C 0.1175(2) 0.15702(16) 0.66719(11)
C12 C 0.1097(2) 0.11439(18) 0.73824(12)
H12 H 0.1419 0.1549 0.7760
C13 C 0.0547(3) 0.0124(2) 0.75358(14)
H13 H 0.0495 -0.0185 0.8018
C14 C 0.0076(3) -0.04339(19) 0.69744(15)
H14 H -0.0328 -0.1126 0.7062
C15 C 0.0205(3) 0.0035(2) 0.62895(14)
H15 H -0.0110 -0.0360 0.5906
C16 C 0.3664(2) 0.34424(16) 0.82882(9)
C17 C 0.2731(2) 0.30321(16) 0.88672(10)
C18 C 0.1197(3) 0.39182(19) 0.92933(12)
H16 H 0.0314 0.4372 0.8963
H17 H 0.1592 0.4509 0.9545
H18 H 0.0686 0.3451 0.9649
C19 C 0.3166(2) 0.17733(17) 0.90398(10)
H19 H 0.2501 0.1517 0.9423
C20 C 0.4538(2) 0.08764(17) 0.86724(10)
C21 C 0.4965(3) -0.04805(18) 0.88690(13)
H20 H 0.3975 -0.0757 0.8780
H21 H 0.5193 -0.0603 0.9382
H22 H 0.6006 -0.0965 0.8573
C22 C 0.5484(2) 0.12845(17) 0.81214(10)
H23 H 0.6443 0.0690 0.7869
C23 C 0.5085(2) 0.25322(17) 0.79222(10)
C24 C 0.6249(3) 0.2856(2) 0.73249(11)
H24 H 0.5586 0.3148 0.6898
H25 H 0.7253 0.2118 0.7200
H26 H 0.6664 0.3513 0.7488
C25 C 0.2885(2) 0.59062(16) 0.86131(9)
C26 C 0.1249(2) 0.68282(16) 0.87603(10)
C27 C -0.0337(2) 0.68966(19) 0.83635(11)
H27 H -0.0017 0.6236 0.8003
H28 H -0.0761 0.7707 0.8120
H29 H -0.1261 0.6791 0.8710
C28 C 0.1020(3) 0.76729(17) 0.93112(10)
H30 H -0.0095 0.8282 0.9405
C29 C 0.2369(3) 0.76551(18) 0.97285(10)
C30 C 0.2056(3) 0.8532(2) 1.03543(13)
H31 H 0.1766 0.9388 1.0170
H32 H 0.3116 0.8325 1.0618
H33 H 0.1084 0.8451 1.0682
C31 C 0.4281(2) 0.59251(17) 0.90152(10)
C32 C 0.3997(3) 0.67867(18) 0.95608(10)
H34 H 0.4951 0.6781 0.9828
C33 C 0.6109(2) 0.50405(19) 0.88443(12)
H35 H 0.6083 0.4185 0.8858
H36 H 0.6879 0.5132 0.9203
H37 H 0.6549 0.5231 0.8360
B1 B 0.3112(2) 0.48590(19) 0.80397(11)
C34 C 0.1885(3) 0.2304(3) 0.42387(15)
H38 H 0.0974 0.2726 0.4585
C35 C 0.3020(3) 0.1161(3) 0.44024(14)
H39 H 0.2907 0.0791 0.4864
C36 C 0.4325(3) 0.0548(2) 0.38970(15)
H40 H 0.5105 -0.0251 0.4009
C37 C 0.4508(3) 0.1081(2) 0.32324(14)
H41 H 0.5419 0.0657 0.2886
C38 C 0.3368(3) 0.2234(2) 0.30691(14)
H42 H 0.3484 0.2607 0.2608
C39 C 0.2060(3) 0.2844(2) 0.35749(15)
H43 H 0.1275 0.3642 0.3464
loop_
_geom_bond_atom_site_label_1
_geom_bond_atom_site_label_2
_geom_bond_site_symmetry_1
_geom_bond_site_symmetry_2
N1 C4 1_555 1_555
N2 C11 1_555 1_555
C1 C2 1_555 1_555
C2 H1 1_555 1_555
C3 C2 1_555 1_555
H2 C3 1_555 1_555
C4 C3 1_555 1_555
C5 N1 1_555 1_555
H3 C5 1_555 1_555
H4 C5 1_555 1_555
H5 C5 1_555 1_555
C6 N1 1_555 1_555
H6 C6 1_555 1_555
H7 C6 1_555 1_555
H8 C6 1_555 1_555
C7 C4 1_555 1_555
H9 C7 1_555 1_555
C8 C1 1_555 1_555
C9 C8 1_555 1_555
H10 C9 1_555 1_555
C10 C9 1_555 1_555
H11 C10 1_555 1_555
C11 C10 1_555 1_555
C12 C11 1_555 1_555
H12 C12 1_555 1_555
C13 C12 1_555 1_555
H13 C13 1_555 1_555
C14 C13 1_555 1_555
H14 C14 1_555 1_555
C15 N2 1_555 1_555
H15 C15 1_555 1_555
C16 C17 1_555 1_555
C17 C18 1_555 1_555
C18 H16 1_555 1_555
H17 C18 1_555 1_555
H18 C18 1_555 1_555
C19 C17 1_555 1_555
H19 C19 1_555 1_555
C20 C19 1_555 1_555
C21 C20 1_555 1_555
H20 C21 1_555 1_555
H21 C21 1_555 1_555
H22 C21 1_555 1_555
C22 C20 1_555 1_555
H23 C22 1_555 1_555
C23 C16 1_555 1_555
C24 C23 1_555 1_555
H24 C24 1_555 1_555
H25 C24 1_555 1_555
H26 C24 1_555 1_555
C25 C26 1_555 1_555
C26 C27 1_555 1_555
C27 H27 1_555 1_555
H28 C27 1_555 1_555
H29 C27 1_555 1_555
C28 C26 1_555 1_555
H30 C28 1_555 1_555
C29 C28 1_555 1_555
C30 C29 1_555 1_555
H31 C30 1_555 1_555
H32 C30 1_555 1_555
H33 C30 1_555 1_555
C31 C25 1_555 1_555
C32 C29 1_555 1_555
H34 C32 1_555 1_555
C33 C31 1_555 1_555
H35 C33 1_555 1_555
H36 C33 1_555 1_555
H37 C33 1_555 1_555
B1 C1 1_555 1_555
C34 H38 1_555 1_555
C35 C34 1_555 1_555
H39 C35 1_555 1_555
C36 C35 1_555 1_555
H40 C36 1_555 1_555
C37 C36 1_555 1_555
H41 C37 1_555 1_555
C38 C37 1_555 1_555
H42 C38 1_555 1_555
C39 C34 1_555 1_555
H43 C39 1_555 1_555
C7 C8 1_555 1_555
C14 C15 1_555 1_555
C16 B1 1_555 1_555
C22 C23 1_555 1_555
C25 B1 1_555 1_555
C31 C32 1_555 1_555
C38 C39 1_555 1_555

#END
