
#######################################################################
#
#                 Cambridge Crystallographic Data Centre
#                                CCDC 
#
#######################################################################
#
# If this CIF has been generated from an entry in the Cambridge 
# Structural Database, then it will include bibliographic, chemical, 
# crystal, experimental, refinement or atomic coordinate data resulting 
# from the CCDC's data processing and validation procedures.
#
#######################################################################

data_FEZMUV
_chemical_formula_moiety         'C32 H36 B1 N1 S1'
_chemical_name_systematic        
4-[bis(2,4,6-trimethylphenyl)boranyl]-N,N-dimethyl-3-[2-(thiophen-3-yl)ethenyl]aniline
_symmetry_cell_setting           monoclinic
_symmetry_space_group_name_H-M   'P 21/c'
_symmetry_Int_Tables_number      14
_space_group_name_Hall           '-P 2ybc'
loop_
_symmetry_equiv_pos_site_id
_symmetry_equiv_pos_as_xyz
1 x,y,z
2 -x,1/2+y,1/2-z
3 -x,-y,-z
4 x,1/2-y,1/2+z
_cell_length_a                   7.9779(4)
_cell_length_b                   21.8456(11)
_cell_length_c                   15.7662(8)
_cell_angle_alpha                90
_cell_angle_beta                 98.411(2)
_cell_angle_gamma                90
_cell_volume                     2718.21
_exptl_crystal_colour            yellow
_exptl_crystal_description       Block
_cell_formula_units_Z            4
loop_
_atom_site_label
_atom_site_type_symbol
_atom_site_fract_x
_atom_site_fract_y
_atom_site_fract_z
S1 S 0.2841(6) 0.5037(2) 0.1722(3)
C1 C 0.6644(3) 0.68693(10) 0.51204(14)
N1 N 1.0068(3) 0.57474(9) 0.67492(13)
B1 B 0.5447(3) 0.73340(11) 0.45907(16)
C2 C 0.6904(3) 0.62433(10) 0.49197(14)
C3 C 0.7560(3) 0.70742(10) 0.59009(15)
H1 H 0.7427 0.7485 0.6055
C4 C 0.8629(3) 0.67156(10) 0.64495(15)
H2 H 0.9166 0.6878 0.6971
C5 C 0.8924(3) 0.61056(10) 0.62348(14)
C6 C 0.8033(3) 0.58861(10) 0.54637(15)
H3 H 0.8207 0.5478 0.5307
C7 C 0.6034(3) 0.59730(10) 0.41206(15)
H4 H 0.5694 0.6244 0.3665
C8 C 0.4779(3) 0.51308(10) 0.31845(14)
C9 C 0.5680(3) 0.53847(10) 0.39787(15)
H5 H 0.6039 0.5109 0.4427
C10 C 0.3815(4) 0.54626(13) 0.25331(18)
H6 H 0.361(3) 0.5875(12) 0.2519(16)
C11 C 0.4726(4) 0.45109(12) 0.2978(2)
H7 H 0.521(3) 0.4213(12) 0.3339(17)
C12 C 0.367(3) 0.4381(12) 0.2083(14)
H8 H 0.3525 0.4001 0.1803
C13 C 1.0195(4) 0.51023(12) 0.65821(19)
H9 H 1.0524 0.5043 0.6019
H10 H 0.9107 0.4909 0.6601
H11 H 1.1041 0.4920 0.7013
C14 C 1.0954(3) 0.59815(13) 0.75467(18)
H12 H 1.1412 0.6383 0.7452
H13 H 1.1870 0.5706 0.7762
H14 H 1.0173 0.6013 0.7962
C15 C 0.5987(3) 0.80304(10) 0.47397(14)
C16 C 0.4973(3) 0.84458(11) 0.51188(16)
C17 C 0.3204(4) 0.82825(14) 0.5277(2)
H15 H 0.2704 0.8630 0.5531
H16 H 0.3255 0.7936 0.5664
H17 H 0.2516 0.8177 0.4737
C18 C 0.5614(3) 0.90182(11) 0.53865(16)
H18 H 0.4925 0.9285 0.5651
C19 C 0.7214(3) 0.92084(10) 0.52798(15)
C20 C 0.7896(4) 0.98198(12) 0.5625(2)
H19 H 0.7021 1.0037 0.5870
H20 H 0.8240 1.0060 0.5163
H21 H 0.8865 0.9754 0.6064
C21 C 0.8177(3) 0.88100(10) 0.48689(15)
H22 H 0.9256 0.8935 0.4765
C22 C 0.7602(3) 0.82312(10) 0.46043(14)
C23 C 0.3759(3) 0.71329(9) 0.39943(14)
C24 C 0.2543(3) 0.67535(10) 0.43068(14)
C25 C 0.2728(3) 0.65395(13) 0.52258(16)
H23 H 0.1666 0.6599 0.5445
H24 H 0.3614 0.6773 0.5569
H25 H 0.3024 0.6109 0.5254
C26 C 0.1093(3) 0.65713(10) 0.37703(15)
H26 H 0.0304 0.6321 0.3994
C27 C 0.0768(3) 0.67438(10) 0.29198(16)
C28 C -0.0807(4) 0.65346(14) 0.2350(2)
H27 H -0.0614 0.6543 0.1756
H28 H -0.1740 0.6805 0.2421
H29 H -0.1082 0.6121 0.2503
C29 C 0.1945(3) 0.71200(11) 0.26118(15)
H30 H 0.1745 0.7246 0.2036
C30 C 0.3413(3) 0.73164(10) 0.31291(15)
C31 C 0.4638(3) 0.77073(13) 0.27245(17)
H31 H 0.4098 0.7848 0.2167
H32 H 0.5634 0.7468 0.2657
H33 H 0.4969 0.8058 0.3089
C32 C 0.8752(3) 0.78310(12) 0.41638(19)
H34 H 0.9376 0.8083 0.3811
H35 H 0.8079 0.7533 0.3806
H36 H 0.9543 0.7620 0.4591
S2? S 0.3667(3) 0.43400(8) 0.20955(14)
C33? C 0.320(2) 0.5071(10) 0.1843(13)
H37? H 0.2617 0.5203 0.1314
loop_
_geom_bond_atom_site_label_1
_geom_bond_atom_site_label_2
_geom_bond_site_symmetry_1
_geom_bond_site_symmetry_2
S1 C10 1_555 1_555
C1 B1 1_555 1_555
N1 C5 1_555 1_555
B1 C15 1_555 1_555
C2 C1 1_555 1_555
C3 C1 1_555 1_555
H1 C3 1_555 1_555
C4 C3 1_555 1_555
H2 C4 1_555 1_555
C5 C4 1_555 1_555
C6 C2 1_555 1_555
H3 C6 1_555 1_555
C7 C2 1_555 1_555
H4 C7 1_555 1_555
C8 C9 1_555 1_555
C9 C7 1_555 1_555
H5 C9 1_555 1_555
C10 C8 1_555 1_555
H6 C10 1_555 1_555
C11 C8 1_555 1_555
H7 C11 1_555 1_555
C12 S1 1_555 1_555
H8 C12 1_555 1_555
C13 N1 1_555 1_555
H9 C13 1_555 1_555
H10 C13 1_555 1_555
H11 C13 1_555 1_555
C14 N1 1_555 1_555
H12 C14 1_555 1_555
H13 C14 1_555 1_555
H14 C14 1_555 1_555
C15 C16 1_555 1_555
C16 C17 1_555 1_555
C17 H15 1_555 1_555
H16 C17 1_555 1_555
H17 C17 1_555 1_555
C18 C16 1_555 1_555
H18 C18 1_555 1_555
C19 C18 1_555 1_555
C20 C19 1_555 1_555
H19 C20 1_555 1_555
H20 C20 1_555 1_555
H21 C20 1_555 1_555
C21 C19 1_555 1_555
H22 C21 1_555 1_555
C22 C15 1_555 1_555
C23 B1 1_555 1_555
C24 C23 1_555 1_555
C25 C24 1_555 1_555
H23 C25 1_555 1_555
H24 C25 1_555 1_555
H25 C25 1_555 1_555
C26 C24 1_555 1_555
H26 C26 1_555 1_555
C27 C26 1_555 1_555
C28 C27 1_555 1_555
H27 C28 1_555 1_555
H28 C28 1_555 1_555
H29 C28 1_555 1_555
C29 C27 1_555 1_555
H30 C29 1_555 1_555
C30 C23 1_555 1_555
C31 C30 1_555 1_555
H31 C31 1_555 1_555
H32 C31 1_555 1_555
H33 C31 1_555 1_555
C32 C22 1_555 1_555
H34 C32 1_555 1_555
H35 C32 1_555 1_555
H36 C32 1_555 1_555
C5 C6 1_555 1_555
C11 C12 1_555 1_555
C21 C22 1_555 1_555
C29 C30 1_555 1_555

#END
