
#######################################################################
#
#                 Cambridge Crystallographic Data Centre
#                                CCDC 
#
#######################################################################
#
# If this CIF has been generated from an entry in the Cambridge 
# Structural Database, then it will include bibliographic, chemical, 
# crystal, experimental, refinement or atomic coordinate data resulting 
# from the CCDC's data processing and validation procedures.
#
#######################################################################

data_FEZMOP
_chemical_formula_moiety         'C32 H36 B1 N1 S1'
_chemical_name_systematic        
4-[bis(2,4,6-trimethylphenyl)boranyl]-N,N-dimethyl-3-[2-(thiophen-2-yl)ethenyl]aniline
_symmetry_cell_setting           monoclinic
_symmetry_space_group_name_H-M   'P 21/c'
_symmetry_Int_Tables_number      14
_space_group_name_Hall           '-P 2ybc'
loop_
_symmetry_equiv_pos_site_id
_symmetry_equiv_pos_as_xyz
1 x,y,z
2 -x,1/2+y,1/2-z
3 -x,-y,-z
4 x,1/2-y,1/2+z
_cell_length_a                   7.9250(4)
_cell_length_b                   21.8524(8)
_cell_length_c                   16.0075(6)
_cell_angle_alpha                90
_cell_angle_beta                 98.766(2)
_cell_angle_gamma                90
_cell_volume                     2739.8
_exptl_crystal_colour            yellow
_exptl_crystal_description       Block
_cell_formula_units_Z            4
loop_
_atom_site_label
_atom_site_type_symbol
_atom_site_fract_x
_atom_site_fract_y
_atom_site_fract_z
B1 B 0.4588(4) 0.73267(15) 0.5382(2)
S1 S 0.6085(2) 0.55619(5) 0.75854(7)
N1 N -0.0057(4) 0.57439(13) 0.32242(18)
C1 C 0.3375(4) 0.68637(13) 0.48542(18)
C2 C 0.3097(4) 0.62403(13) 0.50509(18)
C3 C 0.1962(4) 0.58790(13) 0.4507(2)
H1 H 0.1773 0.5472 0.4661
C4 C 0.1091(4) 0.61037(14) 0.37355(19)
C5 C 0.1400(4) 0.67138(14) 0.3529(2)
H2 H 0.0870 0.6878 0.3012
C6 C 0.2473(4) 0.70693(14) 0.4078(2)
H3 H 0.2618 0.7480 0.3928
C7 C 0.3955(4) 0.59679(13) 0.58435(19)
H4 H 0.4327 0.6240 0.6288
C8 C 0.4257(4) 0.53781(14) 0.5996(2)
H5 H 0.3878 0.5102 0.5556
C9 C 0.5125(4) 0.51219(14) 0.67840(19)
C10 C 0.5214(4) 0.44530(12) 0.70148(18)
H6 H 0.4697 0.4125 0.6692
C11 C 0.6254(5) 0.44227(18) 0.7832(3)
H7 H 0.6567 0.4048 0.8099
C12 C 0.6749(6) 0.4960(2) 0.8187(2)
H8 H 0.7408 0.4994 0.8726
C13 C -0.0159(6) 0.50971(17) 0.3379(3)
H9 H -0.0995 0.4913 0.2946
H10 H -0.0499 0.5031 0.3929
H11 H 0.0948 0.4911 0.3367
C14 C -0.0919(5) 0.59747(19) 0.2425(3)
H12 H -0.0097 0.6031 0.2040
H13 H -0.1455 0.6363 0.2514
H14 H -0.1784 0.5684 0.2184
C15 C 0.6277(4) 0.71289(13) 0.59813(18)
C16 C 0.6629(4) 0.73220(14) 0.68373(19)
C17 C 0.5391(5) 0.7716(2) 0.7227(2)
H15 H 0.5092 0.8072 0.6873
H16 H 0.5918 0.7847 0.7785
H17 H 0.4369 0.7482 0.7272
C18 C 0.8102(4) 0.71251(14) 0.73525(19)
H18 H 0.8302 0.7255 0.7919
C19 C 0.9287(4) 0.67444(14) 0.7060(2)
C20 C 1.0881(5) 0.65373(19) 0.7630(3)
H19 H 1.1349 0.6181 0.7385
H20 H 1.0601 0.6433 0.8181
H21 H 1.1718 0.6865 0.7688
C21 C 0.8955(4) 0.65667(14) 0.6218(2)
H22 H 0.9751 0.6315 0.6004
C22 C 0.7503(4) 0.67445(13) 0.56824(19)
C23 C 0.7316(5) 0.65261(18) 0.4780(2)
H23 H 0.6538 0.6794 0.4423
H24 H 0.6868 0.6112 0.4744
H25 H 0.8423 0.6532 0.4591
C24 C 0.4038(4) 0.80270(13) 0.52376(18)
C25 C 0.2413(4) 0.82260(13) 0.53778(19)
C26 C 0.1251(5) 0.78189(16) 0.5811(3)
H26 H 0.0436 0.7616 0.5388
H27 H 0.0645 0.8067 0.6171
H28 H 0.1933 0.7515 0.6152
C27 C 0.1821(4) 0.88077(14) 0.5123(2)
H29 H 0.0741 0.8934 0.5230
C28 C 0.2786(5) 0.92026(14) 0.4717(2)
C29 C 0.2085(6) 0.98145(16) 0.4375(3)
H30 H 0.3023 1.0094 0.4344
H31 H 0.1346 0.9982 0.4749
H32 H 0.1438 0.9758 0.3816
C30 C 0.4393(5) 0.90136(15) 0.4603(2)
H33 H 0.5077 0.9283 0.4342
C31 C 0.5048(4) 0.84386(15) 0.4858(2)
C32 C 0.6805(5) 0.8275(2) 0.4685(3)
H34 H 0.6741 0.7909 0.4339
H35 H 0.7546 0.8200 0.5216
H36 H 0.7259 0.8609 0.4389
loop_
_geom_bond_atom_site_label_1
_geom_bond_atom_site_label_2
_geom_bond_site_symmetry_1
_geom_bond_site_symmetry_2
B1 C1 1_555 1_555
S1 C9 1_555 1_555
N1 C4 1_555 1_555
C1 C2 1_555 1_555
C2 C3 1_555 1_555
C3 H1 1_555 1_555
C4 C3 1_555 1_555
C5 C4 1_555 1_555
H2 C5 1_555 1_555
C6 C1 1_555 1_555
H3 C6 1_555 1_555
C7 C2 1_555 1_555
H4 C7 1_555 1_555
C8 C7 1_555 1_555
H5 C8 1_555 1_555
C9 C8 1_555 1_555
C10 C9 1_555 1_555
H6 C10 1_555 1_555
C11 C10 1_555 1_555
H7 C11 1_555 1_555
C12 S1 1_555 1_555
H8 C12 1_555 1_555
C13 N1 1_555 1_555
H9 C13 1_555 1_555
H10 C13 1_555 1_555
H11 C13 1_555 1_555
C14 N1 1_555 1_555
H12 C14 1_555 1_555
H13 C14 1_555 1_555
H14 C14 1_555 1_555
C15 B1 1_555 1_555
C16 C15 1_555 1_555
C17 C16 1_555 1_555
H15 C17 1_555 1_555
H16 C17 1_555 1_555
H17 C17 1_555 1_555
C18 C16 1_555 1_555
H18 C18 1_555 1_555
C19 C18 1_555 1_555
C20 C19 1_555 1_555
H19 C20 1_555 1_555
H20 C20 1_555 1_555
H21 C20 1_555 1_555
C21 C19 1_555 1_555
H22 C21 1_555 1_555
C22 C15 1_555 1_555
C23 C22 1_555 1_555
H23 C23 1_555 1_555
H24 C23 1_555 1_555
H25 C23 1_555 1_555
C24 B1 1_555 1_555
C25 C24 1_555 1_555
C26 C25 1_555 1_555
H26 C26 1_555 1_555
H27 C26 1_555 1_555
H28 C26 1_555 1_555
C27 C25 1_555 1_555
H29 C27 1_555 1_555
C28 C27 1_555 1_555
C29 C28 1_555 1_555
H30 C29 1_555 1_555
H31 C29 1_555 1_555
H32 C29 1_555 1_555
C30 C28 1_555 1_555
H33 C30 1_555 1_555
C31 C24 1_555 1_555
C32 C31 1_555 1_555
H34 C32 1_555 1_555
H35 C32 1_555 1_555
H36 C32 1_555 1_555
C5 C6 1_555 1_555
C11 C12 1_555 1_555
C21 C22 1_555 1_555
C30 C31 1_555 1_555

#END
