
#######################################################################
#
#                 Cambridge Crystallographic Data Centre
#                                CCDC 
#
#######################################################################
#
# If this CIF has been generated from an entry in the Cambridge 
# Structural Database, then it will include bibliographic, chemical, 
# crystal, experimental, refinement or atomic coordinate data resulting 
# from the CCDC's data processing and validation procedures.
#
#######################################################################

data_FEZMAB
_chemical_formula_moiety         'C34 H38 B1 N1'
_chemical_name_systematic        
4-[bis(2,4,6-trimethylphenyl)boranyl]-N,N-dimethyl-3-(2-phenylethenyl)aniline
_symmetry_cell_setting           triclinic
_symmetry_space_group_name_H-M   'P -1'
_symmetry_Int_Tables_number      2
_space_group_name_Hall           '-P 1'
loop_
_symmetry_equiv_pos_site_id
_symmetry_equiv_pos_as_xyz
1 x,y,z
2 -x,-y,-z
_cell_length_a                   7.868(2)
_cell_length_b                   12.043(4)
_cell_length_c                   16.695(5)
_cell_angle_alpha                69.575(8)
_cell_angle_beta                 77.359(8)
_cell_angle_gamma                76.219(9)
_cell_volume                     1423.7
_exptl_crystal_colour            yellow
_exptl_crystal_description       Block
_cell_formula_units_Z            2
loop_
_atom_site_label
_atom_site_type_symbol
_atom_site_fract_x
_atom_site_fract_y
_atom_site_fract_z
B1 B 0.2672(5) 0.3675(3) 0.2494(3)
N1 N 0.4113(4) 0.3599(3) 0.57673(19)
C1 C 0.3223(4) 0.3644(3) 0.3335(2)
C2 C 0.2269(4) 0.4485(3) 0.3757(2)
H1 H 0.1397 0.5101 0.3470
C3 C 0.2500(4) 0.4486(3) 0.4546(2)
H2 H 0.1773 0.5067 0.4797
C4 C 0.3824(4) 0.3620(3) 0.4984(2)
C5 C 0.4859(4) 0.2800(3) 0.4572(2)
H3 H 0.5792 0.2231 0.4843
C6 C 0.4579(4) 0.2782(3) 0.3785(2)
C7 C 0.5756(4) 0.1878(3) 0.3399(2)
H4 H 0.5984 0.2104 0.2786
C8 C 0.6519(4) 0.0784(3) 0.3830(2)
H5 H 0.6325 0.0571 0.4443
C9 C 0.7634(4) -0.0130(3) 0.3453(2)
C10 C 0.8481(5) -0.1189(3) 0.3986(2)
H6 H 0.8361 -0.1304 0.4587
C11 C 0.9506(5) -0.2087(3) 0.3651(3)
H7 H 1.0081 -0.2806 0.4024
C12 C 0.9686(5) -0.1941(3) 0.2796(3)
H8 H 1.0378 -0.2559 0.2571
C13 C 0.8870(6) -0.0905(4) 0.2258(3)
H9 H 0.9009 -0.0802 0.1658
C14 C 0.7841(5) -0.0001(3) 0.2578(2)
H10 H 0.7272 0.0711 0.2196
C15 C 0.5296(6) 0.2608(4) 0.6266(3)
H11 H 0.5340 0.2745 0.6805
H12 H 0.4864 0.1855 0.6399
H13 H 0.6485 0.2553 0.5930
C16 C 0.3077(5) 0.4448(4) 0.6201(2)
H14 H 0.3495 0.4279 0.6750
H15 H 0.3208 0.5268 0.5834
H16 H 0.1828 0.4371 0.6312
C17 C 0.1701(4) 0.4904(3) 0.1899(2)
C18 C 0.2474(4) 0.5946(3) 0.1576(2)
C19 C 0.1701(5) 0.6975(3) 0.0975(2)
H17 H 0.2259 0.7662 0.0758
C20 C 0.0161(5) 0.7035(4) 0.0683(2)
C21 C -0.0622(5) 0.6027(4) 0.1021(3)
H18 H -0.1699 0.6051 0.0841
C22 C 0.0097(5) 0.4971(3) 0.1616(3)
C23 C -0.0889(5) 0.3923(4) 0.1950(3)
H19 H -0.0238 0.3247 0.2360
H20 H -0.2072 0.4168 0.2241
H21 H -0.0996 0.3677 0.1464
C24 C 0.4189(5) 0.5997(3) 0.1808(2)
H22 H 0.4603 0.5231 0.2231
H23 H 0.5076 0.6144 0.1287
H24 H 0.4005 0.6651 0.2056
C25 C -0.0619(7) 0.8160(4) 0.0020(3)
H25 H 0.0129 0.8771 -0.0138
H26 H -0.0678 0.7967 -0.0496
H27 H -0.1813 0.8471 0.0265
C26 C 0.3034(4) 0.2515(3) 0.2202(2)
C27 C 0.4026(5) 0.2509(3) 0.1384(2)
C28 C 0.4347(5) 0.1487(3) 0.1130(2)
H28 H 0.5043 0.1495 0.0586
C29 C 0.3688(5) 0.0462(3) 0.1640(2)
C30 C 0.2697(5) 0.0472(3) 0.2430(2)
H29 H 0.2207 -0.0220 0.2784
C31 C 0.2390(5) 0.1459(3) 0.2727(2)
C32 C 0.1335(6) 0.1349(4) 0.3612(2)
H30 H 0.1214 0.2099 0.3742
H31 H 0.0159 0.1196 0.3625
H32 H 0.1947 0.0681 0.4043
C33 C 0.4019(7) -0.0635(3) 0.1345(3)
H33 H 0.3449 -0.1269 0.1793
H34 H 0.3527 -0.0420 0.0809
H35 H 0.5296 -0.0927 0.1243
C34 C 0.4811(6) 0.3589(3) 0.0785(2)
H36 H 0.4477 0.4238 0.1047
H37 H 0.6103 0.3367 0.0687
H38 H 0.4362 0.3864 0.0232
loop_
_geom_bond_atom_site_label_1
_geom_bond_atom_site_label_2
_geom_bond_site_symmetry_1
_geom_bond_site_symmetry_2
B1 C1 1_555 1_555
N1 C4 1_555 1_555
C1 C2 1_555 1_555
C2 H1 1_555 1_555
C3 C2 1_555 1_555
H2 C3 1_555 1_555
C4 C3 1_555 1_555
C5 C4 1_555 1_555
H3 C5 1_555 1_555
C6 C1 1_555 1_555
C7 C6 1_555 1_555
H4 C7 1_555 1_555
C8 C7 1_555 1_555
H5 C8 1_555 1_555
C9 C8 1_555 1_555
C10 C9 1_555 1_555
H6 C10 1_555 1_555
C11 C10 1_555 1_555
H7 C11 1_555 1_555
C12 C11 1_555 1_555
H8 C12 1_555 1_555
C13 C12 1_555 1_555
H9 C13 1_555 1_555
C14 C9 1_555 1_555
H10 C14 1_555 1_555
C15 N1 1_555 1_555
H11 C15 1_555 1_555
H12 C15 1_555 1_555
H13 C15 1_555 1_555
C16 N1 1_555 1_555
H14 C16 1_555 1_555
H15 C16 1_555 1_555
H16 C16 1_555 1_555
C17 B1 1_555 1_555
C18 C17 1_555 1_555
C19 C18 1_555 1_555
H17 C19 1_555 1_555
C20 C19 1_555 1_555
C21 C20 1_555 1_555
H18 C21 1_555 1_555
C22 C17 1_555 1_555
C23 C22 1_555 1_555
H19 C23 1_555 1_555
H20 C23 1_555 1_555
H21 C23 1_555 1_555
C24 C18 1_555 1_555
H22 C24 1_555 1_555
H23 C24 1_555 1_555
H24 C24 1_555 1_555
C25 C20 1_555 1_555
H25 C25 1_555 1_555
H26 C25 1_555 1_555
H27 C25 1_555 1_555
C26 B1 1_555 1_555
C27 C26 1_555 1_555
C28 C27 1_555 1_555
H28 C28 1_555 1_555
C29 C28 1_555 1_555
C30 C29 1_555 1_555
H29 C30 1_555 1_555
C31 C26 1_555 1_555
C32 C31 1_555 1_555
H30 C32 1_555 1_555
H31 C32 1_555 1_555
H32 C32 1_555 1_555
C33 C29 1_555 1_555
H33 C33 1_555 1_555
H34 C33 1_555 1_555
H35 C33 1_555 1_555
C34 C27 1_555 1_555
H36 C34 1_555 1_555
H37 C34 1_555 1_555
H38 C34 1_555 1_555
C5 C6 1_555 1_555
C13 C14 1_555 1_555
C21 C22 1_555 1_555
C30 C31 1_555 1_555

#END
