
#######################################################################
#
#                 Cambridge Crystallographic Data Centre
#                                CCDC 
#
#######################################################################
#
# If this CIF has been generated from an entry in the Cambridge 
# Structural Database, then it will include bibliographic, chemical, 
# crystal, experimental, refinement or atomic coordinate data resulting 
# from the CCDC's data processing and validation procedures.
#
#######################################################################

data_FEZMII
_chemical_formula_moiety         'C48 H39 Br3 O13'
_chemical_name_systematic        
'9-(1-((4-Bromobenzoyl)oxy)-2-methoxy-2-oxoethyl)-15-(3-furyl)-8,10,14-trimethyl-3,17-dioxo-2,16-dioxahexacyclo[9.8.0.0^1,5^.0^4,8^.0^6,10^.0^14,19^]nonadec-18-ene-4,6-diyl bis(4-bromobenzoate)'
_symmetry_cell_setting           monoclinic
_symmetry_space_group_name_H-M   'P 21'
_symmetry_Int_Tables_number      4
_space_group_name_Hall           'P 2yb'
loop_
_symmetry_equiv_pos_site_id
_symmetry_equiv_pos_as_xyz
1 x,y,z
2 -x,1/2+y,-z
_cell_length_a                   11.446(2)
_cell_length_b                   14.770(3)
_cell_length_c                   14.492(2)
_cell_angle_alpha                90
_cell_angle_beta                 96.015(3)
_cell_angle_gamma                90
_cell_volume                     2436.49
_exptl_crystal_colour            colorless
_exptl_crystal_description       prism
_cell_formula_units_Z            2
loop_
_atom_site_label
_atom_site_type_symbol
_atom_site_fract_x
_atom_site_fract_y
_atom_site_fract_z
Br1 Br 0.29817(11) 0.62609(7) 1.15461(6)
Br2 Br 0.64451(7) 1.47394(5) 0.73950(7)
Br3 Br 0.51670(6) 0.53012(4) 0.38292(6)
O1 O 0.0033(4) 0.8943(4) 0.8321(3)
O2 O 0.2222(4) 1.1536(3) 0.6538(4)
O3 O -0.0499(7) 0.9692(6) 0.9566(5)
O4 O -0.2639(4) 0.9368(5) 0.6884(4)
O5 O -0.2062(5) 0.8328(5) 0.7940(5)
O6 O 0.2155(4) 0.8670(3) 0.5728(3)
O7 O 0.2901(8) 0.7992(5) 0.7048(5)
O8 O -0.0387(4) 1.1006(3) 0.5149(4)
O9 O -0.0147(5) 1.2214(3) 0.6048(5)
O10 O 0.1643(5) 1.1031(5) 0.1921(5)
O11 O -0.0237(4) 1.0768(4) 0.1971(4)
C1 C -0.1896(5) 0.9901(4) 0.3944(4)
H1 H -0.2590 0.9629 0.3582
H2 H -0.2114 1.0522 0.4118
O12 O 0.2261(5) 1.2011(3) 0.5083(5)
C2 C -0.2241(6) 1.0465(5) 0.1893(5)
C3 C -0.1206(6) 1.0669(4) 0.2554(5)
H3 H -0.1334 1.1265 0.2856
C4 C -0.0886(5) 0.9961(4) 0.3317(5)
C5 C 0.0228(5) 1.0311(5) 0.3869(5)
C6 C 0.0298(5) 1.0207(4) 0.4893(5)
C7 C -0.0307(5) 0.9333(4) 0.5154(5)
H4 H 0.0027 0.8847 0.4779
C8 C 0.0158(5) 0.9127(4) 0.6164(5)
C9 C -0.0177(5) 0.9857(4) 0.6863(5)
H5 H -0.0750 1.0276 0.6513
C10 C -0.0751(6) 0.9529(5) 0.7726(5)
H6 H -0.0904 1.0078 0.8098
C11 C 0.0000(7) 0.9081(7) 0.9238(6)
C12 C 0.0705(7) 0.8368(6) 0.9780(5)
C13 C 0.2032(8) 0.7118(6) 1.0855(5)
C14 C 0.5324(6) 1.3862(5) 0.6943(6)
C15 C 0.4794(8) 1.3329(6) 0.7580(8)
H7 H 0.5021 1.3375 0.8228
C16 C 0.3907(8) 1.2721(6) 0.7222(8)
H8 H 0.3522 1.2351 0.7633
C17 C 0.3598(6) 1.2662(4) 0.6278(7)
C18 C 0.4134(6) 1.3184(4) 0.5653(6)
H9 H 0.3914 1.3127 0.5005
C19 C 0.5014(6) 1.3805(5) 0.5992(6)
H10 H 0.5388 1.4178 0.5577
C20 C 0.2643(6) 1.2040(4) 0.5872(7)
C21 C 0.1244(5) 1.0960(4) 0.6237(5)
C22 C 0.0968(5) 1.0413(5) 0.7138(5)
C23 C 0.0948(7) 1.1027(5) 0.7973(6)
H11 H 0.0843 1.0662 0.8523
H12 H 0.0296 1.1457 0.7863
H13 H 0.1691 1.1359 0.8073
C24 C 0.1837(10) 0.7959(9) 1.1210(6)
H14 H 0.2149 0.8097 1.1828
C25 C 0.1184(12) 0.8626(9) 1.0681(7)
H15 H 0.1072 0.9216 1.0917
C26 C -0.1926(6) 0.9074(5) 0.7463(6)
C27 C -0.0050(5) 0.8138(4) 0.6394(5)
H16 H -0.0895 0.8026 0.6379
H17 H 0.0335 0.8001 0.7015
H18 H 0.0278 0.7750 0.5937
C28 C 0.1527(5) 0.9355(4) 0.6162(5)
C29 C 0.2807(6) 0.8055(5) 0.6209(6)
C30 C 0.3375(5) 0.7406(4) 0.5600(5)
C31 C 0.2916(5) 0.7242(4) 0.4697(5)
H19 H 0.2246 0.7565 0.4432
C32 C 0.3447(5) 0.6597(4) 0.4180(5)
H20 H 0.3135 0.6473 0.3559
C33 C 0.4412(5) 0.6144(4) 0.4561(5)
C34 C 0.4895(6) 0.6299(5) 0.5466(5)
H21 H 0.5580 0.5984 0.5716
C35 C 0.4354(6) 0.6926(4) 0.5997(5)
H22 H 0.4648 0.7027 0.6626
C36 C 0.1913(5) 0.9692(4) 0.7144(5)
H23 H 0.1842 0.9222 0.7622
H24 H 0.2716 0.9948 0.7209
C37 C 0.1466(5) 1.0220(4) 0.5554(5)
H25 H 0.2183 1.0322 0.5228
C38 C 0.0207(6) 1.1491(4) 0.5826(6)
C39 C 0.1030(6) 1.0742(5) 0.3400(6)
H26 H 0.1725 1.0967 0.3738
C40 C 0.0869(5) 1.0873(5) 0.2402(7)
C41 C -0.1600(5) 0.9339(4) 0.4843(5)
H27 H -0.2026 0.9595 0.5343
H28 H -0.1873 0.8709 0.4732
C42 C -0.0661(8) 0.9027(4) 0.2876(6)
H29 H -0.0081 0.9095 0.2429
H30 H -0.1398 0.8795 0.2557
H31 H -0.0363 0.8601 0.3364
C43 C -0.3465(9) 0.9907(8) 0.0699(6)
H32 H -0.3784 0.9558 0.0182
C44 C -0.2388(10) 0.9875(7) 0.1101(7)
H33 H -0.1782 0.9510 0.0896
C45 C -0.3319(10) 1.0791(13) 0.1871(8)
H34 H -0.3568 1.1187 0.2328
O13 O -0.4012(7) 1.0506(10) 0.1144(6)
C46 C -0.3224(10) 0.7888(12) 0.7680(14)
H35 H -0.3853 0.8292 0.7837
H36 H -0.3263 0.7318 0.8020
H37 H -0.3319 0.7766 0.7011
C47 C 0.1492(12) 0.6902(8) 0.9989(7)
H38 H 0.1574 0.6307 0.9753
C48 C 0.0815(11) 0.7550(7) 0.9442(7)
H39 H 0.0449 0.7396 0.8844
loop_
_geom_bond_atom_site_label_1
_geom_bond_atom_site_label_2
_geom_bond_site_symmetry_1
_geom_bond_site_symmetry_2
Br1 C13 1_555 1_555
Br2 C14 1_555 1_555
Br3 C33 1_555 1_555
O1 C10 1_555 1_555
O2 C20 1_555 1_555
O3 C11 1_555 1_555
O4 C26 1_555 1_555
O5 C26 1_555 1_555
O6 C28 1_555 1_555
O7 C29 1_555 1_555
O8 C6 1_555 1_555
O9 C38 1_555 1_555
O10 C40 1_555 1_555
O11 C3 1_555 1_555
C1 H1 1_555 1_555
H2 C1 1_555 1_555
O12 C20 1_555 1_555
C2 C3 1_555 1_555
C3 H3 1_555 1_555
C4 C1 1_555 1_555
C5 C4 1_555 1_555
C6 C5 1_555 1_555
C7 C6 1_555 1_555
H4 C7 1_555 1_555
C8 C7 1_555 1_555
C9 C8 1_555 1_555
H5 C9 1_555 1_555
C10 C9 1_555 1_555
H6 C10 1_555 1_555
C11 O1 1_555 1_555
C12 C11 1_555 1_555
C13 C24 1_555 1_555
C14 C15 1_555 1_555
C15 H7 1_555 1_555
C16 C15 1_555 1_555
H8 C16 1_555 1_555
C17 C16 1_555 1_555
C18 C17 1_555 1_555
H9 C18 1_555 1_555
C19 C14 1_555 1_555
H10 C19 1_555 1_555
C20 C17 1_555 1_555
C21 O2 1_555 1_555
C22 C9 1_555 1_555
C23 C22 1_555 1_555
H11 C23 1_555 1_555
H12 C23 1_555 1_555
H13 C23 1_555 1_555
C24 H14 1_555 1_555
C25 C12 1_555 1_555
H15 C25 1_555 1_555
C26 C10 1_555 1_555
C27 C8 1_555 1_555
H16 C27 1_555 1_555
H17 C27 1_555 1_555
H18 C27 1_555 1_555
C28 C8 1_555 1_555
C29 O6 1_555 1_555
C30 C29 1_555 1_555
C31 C30 1_555 1_555
H19 C31 1_555 1_555
C32 C31 1_555 1_555
H20 C32 1_555 1_555
C33 C32 1_555 1_555
C34 C33 1_555 1_555
H21 C34 1_555 1_555
C35 C30 1_555 1_555
H22 C35 1_555 1_555
C36 C22 1_555 1_555
H23 C36 1_555 1_555
H24 C36 1_555 1_555
C37 C6 1_555 1_555
H25 C37 1_555 1_555
C38 O8 1_555 1_555
C39 C5 1_555 1_555
H26 C39 1_555 1_555
C40 O11 1_555 1_555
C41 C1 1_555 1_555
H27 C41 1_555 1_555
H28 C41 1_555 1_555
C42 C4 1_555 1_555
H29 C42 1_555 1_555
H30 C42 1_555 1_555
H31 C42 1_555 1_555
C43 H32 1_555 1_555
C44 C2 1_555 1_555
H33 C44 1_555 1_555
C45 C2 1_555 1_555
H34 C45 1_555 1_555
O13 C43 1_555 1_555
C46 O5 1_555 1_555
H35 C46 1_555 1_555
H36 C46 1_555 1_555
H37 C46 1_555 1_555
C47 C13 1_555 1_555
H38 C47 1_555 1_555
C48 C12 1_555 1_555
H39 C48 1_555 1_555
C3 C4 1_555 1_555
C7 C41 1_555 1_555
C18 C19 1_555 1_555
C21 C22 1_555 1_555
C21 C37 1_555 1_555
C21 C38 1_555 1_555
C24 C25 1_555 1_555
C28 C36 1_555 1_555
C28 C37 1_555 1_555
C34 C35 1_555 1_555
C39 C40 1_555 1_555
C43 C44 1_555 1_555
C45 O13 1_555 1_555
C47 C48 1_555 1_555

#END
