
#######################################################################
#
#                 Cambridge Crystallographic Data Centre
#                                CCDC 
#
#######################################################################
#
# If this CIF has been generated from an entry in the Cambridge 
# Structural Database, then it will include bibliographic, chemical, 
# crystal, experimental, refinement or atomic coordinate data resulting 
# from the CCDC's data processing and validation procedures.
#
#######################################################################

data_FEZNOQ
_chemical_formula_moiety         
'C29 H46 N3 1+,C32 H36 N4,C32 H12 B1 F24 1-,H2 O1'
_chemical_name_systematic        
'bis[(3,5-di-t-butylphenyl)amino]methaniminium tetrakis[3,5-bis(trifluoromethyl)phenyl]borate 3,11,18,26-tetraazapentacyclo[26.2.2.2^13,16^.1^5,9^.1^20,24^]hexatriaconta-1(30),5(36),6,8,13,15,20(33),21,23,28,31,34-dodecaene monohydrate'
_symmetry_cell_setting           triclinic
_symmetry_space_group_name_H-M   'P -1'
_symmetry_Int_Tables_number      2
_space_group_name_Hall           '-P 1'
loop_
_symmetry_equiv_pos_site_id
_symmetry_equiv_pos_as_xyz
1 x,y,z
2 -x,-y,-z
_cell_length_a                   13.0395(4)
_cell_length_b                   17.9211(5)
_cell_length_c                   20.6685(6)
_cell_angle_alpha                106.478(2)
_cell_angle_beta                 96.931(2)
_cell_angle_gamma                100.156(2)
_cell_volume                     4483.76
_exptl_crystal_colour            colorless
_exptl_crystal_description       column
_cell_formula_units_Z            2
loop_
_atom_site_label
_atom_site_type_symbol
_atom_site_fract_x
_atom_site_fract_y
_atom_site_fract_z
N1 N 0.6644(2) 0.01708(17) 0.78595(13)
H1 H 0.697(3) -0.011(2) 0.8111(18)
N2 N 0.39502(17) 0.16793(14) 0.59088(10)
H2 H 0.418(2) 0.2097(19) 0.6261(15)
N3 N -0.04149(18) -0.01369(14) 0.58293(11)
H3 H 0.015(3) -0.0271(19) 0.5590(15)
N4 N 0.2678(2) -0.12895(16) 0.80459(12)
H4 H 0.231(3) -0.0922(19) 0.8222(17)
C1 C 0.4975(2) -0.02513(19) 0.85458(13)
H5 H 0.5133 -0.0633 0.8169
C2 C 0.4184(2) -0.04930(19) 0.88900(14)
C3 C 0.3983(2) 0.0062(2) 0.94526(15)
H6 H 0.3452 -0.0095 0.9694
C4 C 0.4552(3) 0.0843(2) 0.96631(16)
H7 H 0.4415 0.1220 1.0051
C5 C 0.5315(3) 0.1075(2) 0.93123(15)
H8 H 0.5700 0.1614 0.9460
C6 C 0.5533(2) 0.05326(19) 0.87427(14)
C7 C 0.6318(2) 0.08148(19) 0.83366(15)
H9 H 0.5999 0.1129 0.8076
H10 H 0.6953 0.1173 0.8659
C8 C 0.7393(2) 0.0450(2) 0.74571(17)
H11 H 0.7723 0.0011 0.7233
H12 H 0.7962 0.0895 0.7765
C9 C 0.6826(2) 0.07314(19) 0.69166(15)
C10 C 0.7009(2) 0.1527(2) 0.69654(16)
H13 H 0.7548 0.1898 0.7317
C11 C 0.6419(2) 0.17978(19) 0.65086(15)
H14 H 0.6564 0.2350 0.6550
C12 C 0.5628(2) 0.12772(17) 0.59982(13)
C13 C 0.5477(2) 0.04688(18) 0.59333(13)
H15 H 0.4956 0.0094 0.5572
C14 C 0.6068(2) 0.02012(18) 0.63836(14)
H16 H 0.5953 -0.0354 0.6326
C15 C 0.4864(2) 0.15648(19) 0.55656(13)
H17 H 0.5218 0.2074 0.5512
H18 H 0.4623 0.1167 0.5104
C16 C 0.3040(2) 0.17797(18) 0.54743(13)
H19 H 0.2817 0.1315 0.5053
H20 H 0.3246 0.2264 0.5338
C17 C 0.2129(2) 0.18540(16) 0.58599(12)
C18 C 0.1930(2) 0.25966(18) 0.61765(15)
H21 H 0.2340 0.3063 0.6126
C19 C 0.1143(3) 0.2658(2) 0.65628(17)
H22 H 0.1020 0.3169 0.6780
C20 C 0.0536(2) 0.19954(19) 0.66394(14)
H23 H -0.0006 0.2051 0.6907
C21 C 0.0703(2) 0.12405(17) 0.63308(12)
C22 C 0.1509(2) 0.11838(16) 0.59411(12)
H24 H 0.1636 0.0673 0.5726
C23 C 0.0088(2) 0.05194(18) 0.64573(13)
H25 H 0.0573 0.0324 0.6745
H26 H -0.0467 0.0680 0.6719
C24 C -0.0922(2) -0.08700(18) 0.59684(13)
H27 H -0.1191 -0.1294 0.5523
H28 H -0.1543 -0.0762 0.6181
C25 C -0.0243(2) -0.11933(17) 0.64232(13)
C26 C 0.0514(2) -0.15953(18) 0.61811(13)
H29 H 0.0603 -0.1674 0.5719
C27 C 0.1145(2) -0.18851(18) 0.65906(14)
H30 H 0.1657 -0.2158 0.6406
C28 C 0.1042(2) -0.17844(18) 0.72676(14)
C29 C 0.0265(2) -0.1396(2) 0.75083(15)
H31 H 0.0166 -0.1327 0.7968
C30 C -0.0366(2) -0.1108(2) 0.70955(14)
H32 H -0.0892 -0.0846 0.7275
C31 C 0.1824(2) -0.19923(19) 0.77492(15)
H33 H 0.1483 -0.2135 0.8113
H34 H 0.2098 -0.2451 0.7497
C32 C 0.3497(2) -0.1319(2) 0.85988(15)
H35 H 0.3922 -0.1708 0.8411
H36 H 0.3161 -0.1478 0.8958
N5 N 0.34832(16) -0.02772(13) 0.72630(10)
H37 H 0.3600 0.0069 0.7677
H38 H 0.3442 -0.0787 0.7211
N6 N 0.31922(16) -0.05489(12) 0.60780(9)
H39 H 0.2952 -0.0378 0.5742
N7 N 0.34310(16) 0.07365(12) 0.67924(9)
H40 H 0.3448 0.0894 0.6427
C33 C 0.33703(18) -0.00318(15) 0.67196(11)
C34 C 0.33538(19) -0.13447(15) 0.58882(11)
C35 C 0.26887(19) -0.18938(15) 0.53092(11)
H41 H 0.2164 -0.1729 0.5056
C36 C 0.27867(19) -0.26775(15) 0.51003(11)
C37 C 0.3595(2) -0.28917(16) 0.54696(12)
H42 H 0.3673 -0.3428 0.5325
C38 C 0.4287(2) -0.23518(16) 0.60375(12)
C39 C 0.4152(2) -0.15654(15) 0.62466(12)
H43 H 0.4610 -0.1182 0.6636
C40 C 0.1988(2) -0.33239(16) 0.45180(12)
C41 C 0.1241(2) -0.29710(19) 0.41243(14)
H44 H 0.0876 -0.2644 0.4444
H45 H 0.0718 -0.3404 0.3778
H46 H 0.1649 -0.2639 0.3899
C42 C 0.2548(2) -0.38334(17) 0.40102(13)
H47 H 0.2018 -0.4240 0.3646
H48 H 0.2993 -0.4094 0.4251
H49 H 0.2992 -0.3492 0.3808
C43 C 0.1329(3) -0.38565(19) 0.48513(15)
H50 H 0.0972 -0.3533 0.5179
H51 H 0.1795 -0.4104 0.5092
H52 H 0.0798 -0.4273 0.4496
C44 C 0.5162(2) -0.25916(17) 0.64464(14)
C45 C 0.5268(3) -0.34378(19) 0.60964(19)
H53 H 0.4593 -0.3812 0.6040
H54 H 0.5823 -0.3572 0.6379
H55 H 0.5457 -0.3474 0.5645
C46 C 0.4884(3) -0.2548(2) 0.71541(16)
H56 H 0.4205 -0.2917 0.7099
H57 H 0.4830 -0.2003 0.7392
H58 H 0.5439 -0.2696 0.7424
C47 C 0.6226(2) -0.2017(2) 0.65355(17)
H59 H 0.6167 -0.1470 0.6760
H60 H 0.6417 -0.2057 0.6085
H61 H 0.6773 -0.2157 0.6818
C48 C 0.34703(19) 0.13210(15) 0.74385(11)
C49 C 0.26791(19) 0.12273(15) 0.78174(11)
H62 H 0.2103 0.0776 0.7647
C50 C 0.2727(2) 0.17953(15) 0.84496(11)
C51 C 0.3565(2) 0.24591(15) 0.86612(12)
H63 H 0.3602 0.2852 0.9088
C52 C 0.4355(2) 0.25783(15) 0.82790(12)
C53 C 0.4306(2) 0.19841(15) 0.76667(12)
H64 H 0.4847 0.2032 0.7403
C54 C 0.1839(2) 0.16920(16) 0.88586(12)
C55 C 0.1582(3) 0.08464(19) 0.89021(16)
H65 H 0.1372 0.0465 0.8438
H66 H 0.1001 0.0792 0.9156
H67 H 0.2210 0.0738 0.9140
C56 C 0.2146(3) 0.2262(2) 0.95957(14)
H68 H 0.2771 0.2149 0.9831
H69 H 0.1556 0.2188 0.9840
H70 H 0.2308 0.2814 0.9587
C57 C 0.0865(3) 0.1867(3) 0.84993(17)
H71 H 0.0661 0.1501 0.8029
H72 H 0.1024 0.2419 0.8489
H73 H 0.0280 0.1795 0.8748
C58 C 0.5257(2) 0.33234(17) 0.85502(14)
C59 C 0.6018(3) 0.3223(2) 0.91368(17)
H74 H 0.5631 0.3152 0.9501
H75 H 0.6596 0.3699 0.9323
H76 H 0.6312 0.2754 0.8959
C60 C 0.4824(4) 0.4061(2) 0.8816(3)
H77 H 0.4342 0.4122 0.8441
H78 H 0.5411 0.4531 0.8993
H79 H 0.4438 0.4006 0.9184
C61 C 0.5918(3) 0.3432(2) 0.80097(17)
H80 H 0.5471 0.3503 0.7625
H81 H 0.6209 0.2958 0.7844
H82 H 0.6500 0.3903 0.8212
B1 B 0.1782(2) 0.38876(17) 0.19256(13)
F1 F 0.2142(11) 0.3042(12) 0.4217(9)
F2 F 0.2509(12) 0.4286(13) 0.4687(10)
F3 F 0.1065(7) 0.3554(4) 0.4789(5)
F4 F -0.1903(6) 0.4164(6) 0.3581(3)
F5 F -0.1265(5) 0.5169(4) 0.3270(5)
F6 F -0.1975(5) 0.4059(4) 0.2553(4)
F7 F 0.13782(15) 0.68520(9) 0.25466(7)
F8 F -0.01976(14) 0.64032(11) 0.19844(8)
F9 F 0.09510(16) 0.71135(10) 0.16126(8)
F10 F 0.14246(18) 0.52891(12) -0.05165(8)
F11 F 0.11540(15) 0.40619(11) -0.06016(8)
F12 F 0.27147(14) 0.47710(14) -0.02585(8)
F13 F -0.1934(5) 0.2371(5) 0.0437(3)
F14 F -0.1162(3) 0.2238(4) -0.0402(2)
F15 F -0.1851(7) 0.1207(4) -0.0113(4)
F16 F 0.2072(6) 0.0974(3) 0.1712(2)
F17 F 0.2336(6) 0.0785(4) 0.0715(4)
F18 F 0.0916(4) 0.0196(3) 0.0910(4)
F19 F 0.52901(18) 0.62130(11) 0.34978(10)
F20 F 0.49031(15) 0.53978(11) 0.40387(8)
F21 F 0.63341(14) 0.54601(13) 0.36507(10)
F22 F 0.4822(4) 0.2979(6) 0.0715(4)
F23 F 0.6106(6) 0.3218(5) 0.1505(3)
F24 F 0.5970(7) 0.4049(4) 0.1018(4)
C62 C 0.12216(19) 0.39625(14) 0.26051(12)
C63 C 0.16683(19) 0.38084(15) 0.31873(12)
H83 H 0.2339 0.3669 0.3200
C64 C 0.1173(2) 0.38500(16) 0.37509(13)
C65 C 0.0191(2) 0.40443(17) 0.37497(13)
H84 H -0.0144 0.4087 0.4138
C66 C -0.0292(2) 0.41747(16) 0.31708(13)
C67 C 0.02097(19) 0.41300(15) 0.26102(13)
H85 H -0.0143 0.4216 0.2217
C68 C 0.1727(3) 0.3716(2) 0.43678(15)
C69 C -0.1338(2) 0.4408(2) 0.31702(16)
C70 C 0.15480(18) 0.45332(15) 0.15370(11)
C71 C 0.12881(18) 0.52549(15) 0.18584(12)
H86 H 0.1215 0.5374 0.2326
C72 C 0.11329(19) 0.58031(15) 0.15207(12)
C73 C 0.12539(19) 0.56665(15) 0.08422(12)
H87 H 0.1148 0.6042 0.0610
C74 C 0.15344(19) 0.49620(16) 0.05139(12)
C75 C 0.16765(19) 0.44177(15) 0.08560(12)
H88 H 0.1871 0.3942 0.0617
C76 C 0.0814(2) 0.65381(16) 0.19051(13)
C77 C 0.1712(2) 0.47824(18) -0.02112(13)
C78 C 0.12421(18) 0.29816(14) 0.14198(11)
C79 C 0.02705(19) 0.28198(15) 0.09770(12)
H89 H -0.0042 0.3252 0.0946
C80 C -0.0250(2) 0.20494(16) 0.05820(12)
C81 C 0.0190(2) 0.14086(16) 0.06072(12)
H90 H -0.0158 0.0881 0.0333
C82 C 0.1146(2) 0.15509(15) 0.10392(12)
C83 C 0.1654(2) 0.23220(15) 0.14411(11)
H91 H 0.2304 0.2401 0.1740
C84 C -0.1268(2) 0.1923(2) 0.01069(16)
C85 C 0.1645(2) 0.08734(17) 0.10665(14)
C86 C 0.30795(18) 0.40687(14) 0.21097(11)
C87 C 0.36574(19) 0.46476(15) 0.27090(12)
H92 H 0.3286 0.4910 0.3040
C88 C 0.4761(2) 0.48533(15) 0.28389(12)
C89 C 0.5332(2) 0.44955(16) 0.23629(13)
H93 H 0.6084 0.4634 0.2449
C90 C 0.4778(2) 0.39330(16) 0.17608(13)
C91 C 0.3682(2) 0.37251(15) 0.16388(12)
H94 H 0.3326 0.3334 0.1219
C92 C 0.5327(2) 0.54748(17) 0.34951(14)
C93 C 0.5373(2) 0.3545(2) 0.12311(16)
O1 O 0.78407(16) 0.03682(13) 0.52180(9)
H95 H 0.8090(19) 0.012(2) 0.5485(16)
H96 H 0.8558(15) 0.0434(19) 0.5289(16)
F25? F 0.2724(14) 0.4219(16) 0.4622(12)
F26? F 0.1277(10) 0.3923(6) 0.4923(5)
F27? F 0.1878(12) 0.3006(13) 0.4242(11)
F28? F -0.1752(7) 0.4500(7) 0.2613(5)
F29? F -0.1320(6) 0.5040(6) 0.3676(4)
F30? F -0.2056(7) 0.3860(5) 0.3285(6)
F31? F -0.1156(4) 0.1607(6) -0.0546(2)
F32? F -0.1708(8) 0.2470(6) 0.0186(5)
F33? F -0.1940(8) 0.1297(7) 0.0142(5)
F34? F 0.1615(6) 0.0357(3) 0.0430(2)
F35? F 0.2709(4) 0.1079(3) 0.1302(4)
F36? F 0.1266(6) 0.0422(4) 0.1399(4)
F37? F 0.5021(7) 0.3633(6) 0.0632(3)
F38? F 0.6347(4) 0.3786(7) 0.1351(4)
F39? F 0.5144(8) 0.2755(4) 0.1093(4)
loop_
_geom_bond_atom_site_label_1
_geom_bond_atom_site_label_2
_geom_bond_site_symmetry_1
_geom_bond_site_symmetry_2
N1 H1 1_555 1_555
N2 H2 1_555 1_555
N3 H3 1_555 1_555
N4 H4 1_555 1_555
C1 H5 1_555 1_555
C2 C1 1_555 1_555
C3 C2 1_555 1_555
H6 C3 1_555 1_555
C4 C3 1_555 1_555
H7 C4 1_555 1_555
C5 C4 1_555 1_555
H8 C5 1_555 1_555
C6 C1 1_555 1_555
C7 N1 1_555 1_555
H9 C7 1_555 1_555
H10 C7 1_555 1_555
C8 N1 1_555 1_555
H11 C8 1_555 1_555
H12 C8 1_555 1_555
C9 C8 1_555 1_555
C10 C9 1_555 1_555
H13 C10 1_555 1_555
C11 C10 1_555 1_555
H14 C11 1_555 1_555
C12 C11 1_555 1_555
C13 C12 1_555 1_555
H15 C13 1_555 1_555
C14 C9 1_555 1_555
H16 C14 1_555 1_555
C15 N2 1_555 1_555
H17 C15 1_555 1_555
H18 C15 1_555 1_555
C16 N2 1_555 1_555
H19 C16 1_555 1_555
H20 C16 1_555 1_555
C17 C16 1_555 1_555
C18 C17 1_555 1_555
H21 C18 1_555 1_555
C19 C18 1_555 1_555
H22 C19 1_555 1_555
C20 C19 1_555 1_555
H23 C20 1_555 1_555
C21 C20 1_555 1_555
C22 C17 1_555 1_555
H24 C22 1_555 1_555
C23 N3 1_555 1_555
H25 C23 1_555 1_555
H26 C23 1_555 1_555
C24 N3 1_555 1_555
H27 C24 1_555 1_555
H28 C24 1_555 1_555
C25 C24 1_555 1_555
C26 C25 1_555 1_555
H29 C26 1_555 1_555
C27 C26 1_555 1_555
H30 C27 1_555 1_555
C28 C27 1_555 1_555
C29 C28 1_555 1_555
H31 C29 1_555 1_555
C30 C25 1_555 1_555
H32 C30 1_555 1_555
C31 N4 1_555 1_555
H33 C31 1_555 1_555
H34 C31 1_555 1_555
C32 N4 1_555 1_555
H35 C32 1_555 1_555
H36 C32 1_555 1_555
N5 H37 1_555 1_555
H38 N5 1_555 1_555
N6 H39 1_555 1_555
N7 H40 1_555 1_555
C33 N5 1_555 1_555
C34 N6 1_555 1_555
C35 C34 1_555 1_555
H41 C35 1_555 1_555
C36 C35 1_555 1_555
C37 C36 1_555 1_555
H42 C37 1_555 1_555
C38 C37 1_555 1_555
C39 C34 1_555 1_555
H43 C39 1_555 1_555
C40 C36 1_555 1_555
C41 C40 1_555 1_555
H44 C41 1_555 1_555
H45 C41 1_555 1_555
H46 C41 1_555 1_555
C42 C40 1_555 1_555
H47 C42 1_555 1_555
H48 C42 1_555 1_555
H49 C42 1_555 1_555
C43 C40 1_555 1_555
H50 C43 1_555 1_555
H51 C43 1_555 1_555
H52 C43 1_555 1_555
C44 C38 1_555 1_555
C45 C44 1_555 1_555
H53 C45 1_555 1_555
H54 C45 1_555 1_555
H55 C45 1_555 1_555
C46 C44 1_555 1_555
H56 C46 1_555 1_555
H57 C46 1_555 1_555
H58 C46 1_555 1_555
C47 C44 1_555 1_555
H59 C47 1_555 1_555
H60 C47 1_555 1_555
H61 C47 1_555 1_555
C48 N7 1_555 1_555
C49 C48 1_555 1_555
H62 C49 1_555 1_555
C50 C49 1_555 1_555
C51 C50 1_555 1_555
H63 C51 1_555 1_555
C52 C51 1_555 1_555
C53 C48 1_555 1_555
H64 C53 1_555 1_555
C54 C50 1_555 1_555
C55 C54 1_555 1_555
H65 C55 1_555 1_555
H66 C55 1_555 1_555
H67 C55 1_555 1_555
C56 C54 1_555 1_555
H68 C56 1_555 1_555
H69 C56 1_555 1_555
H70 C56 1_555 1_555
C57 C54 1_555 1_555
H71 C57 1_555 1_555
H72 C57 1_555 1_555
H73 C57 1_555 1_555
C58 C52 1_555 1_555
C59 C58 1_555 1_555
H74 C59 1_555 1_555
H75 C59 1_555 1_555
H76 C59 1_555 1_555
C60 C58 1_555 1_555
H77 C60 1_555 1_555
H78 C60 1_555 1_555
H79 C60 1_555 1_555
C61 C58 1_555 1_555
H80 C61 1_555 1_555
H81 C61 1_555 1_555
H82 C61 1_555 1_555
B1 C62 1_555 1_555
F1 C68 1_555 1_555
F2 C68 1_555 1_555
F3 C68 1_555 1_555
F4 C69 1_555 1_555
F5 C69 1_555 1_555
F6 C69 1_555 1_555
F7 C76 1_555 1_555
F8 C76 1_555 1_555
F9 C76 1_555 1_555
F10 C77 1_555 1_555
F11 C77 1_555 1_555
F12 C77 1_555 1_555
F13 C84 1_555 1_555
F14 C84 1_555 1_555
F15 C84 1_555 1_555
F16 C85 1_555 1_555
F17 C85 1_555 1_555
F18 C85 1_555 1_555
F19 C92 1_555 1_555
F20 C92 1_555 1_555
F21 C92 1_555 1_555
F22 C93 1_555 1_555
F23 C93 1_555 1_555
F24 C93 1_555 1_555
C62 C63 1_555 1_555
C63 H83 1_555 1_555
C64 C63 1_555 1_555
C65 C64 1_555 1_555
H84 C65 1_555 1_555
C66 C65 1_555 1_555
C67 C62 1_555 1_555
H85 C67 1_555 1_555
C68 C64 1_555 1_555
C69 C66 1_555 1_555
C70 B1 1_555 1_555
C71 C70 1_555 1_555
H86 C71 1_555 1_555
C72 C71 1_555 1_555
C73 C72 1_555 1_555
H87 C73 1_555 1_555
C74 C73 1_555 1_555
C75 C70 1_555 1_555
H88 C75 1_555 1_555
C76 C72 1_555 1_555
C77 C74 1_555 1_555
C78 B1 1_555 1_555
C79 C78 1_555 1_555
H89 C79 1_555 1_555
C80 C79 1_555 1_555
C81 C80 1_555 1_555
H90 C81 1_555 1_555
C82 C81 1_555 1_555
C83 C78 1_555 1_555
H91 C83 1_555 1_555
C84 C80 1_555 1_555
C85 C82 1_555 1_555
C86 B1 1_555 1_555
C87 C86 1_555 1_555
H92 C87 1_555 1_555
C88 C87 1_555 1_555
C89 C88 1_555 1_555
H93 C89 1_555 1_555
C90 C89 1_555 1_555
C91 C86 1_555 1_555
H94 C91 1_555 1_555
C92 C88 1_555 1_555
C93 C90 1_555 1_555
O1 H95 1_555 1_555
H96 O1 1_555 1_555
C2 C32 1_555 1_555
C5 C6 1_555 1_555
C6 C7 1_555 1_555
C12 C15 1_555 1_555
C13 C14 1_555 1_555
C21 C22 1_555 1_555
C21 C23 1_555 1_555
C28 C31 1_555 1_555
C29 C30 1_555 1_555
N6 C33 1_555 1_555
N7 C33 1_555 1_555
C38 C39 1_555 1_555
C52 C53 1_555 1_555
C66 C67 1_555 1_555
C74 C75 1_555 1_555
C82 C83 1_555 1_555
C90 C91 1_555 1_555

#END
