
#######################################################################
#
#                 Cambridge Crystallographic Data Centre
#                                CCDC 
#
#######################################################################
#
# If this CIF has been generated from an entry in the Cambridge 
# Structural Database, then it will include bibliographic, chemical, 
# crystal, experimental, refinement or atomic coordinate data resulting 
# from the CCDC's data processing and validation procedures.
#
#######################################################################

data_FEZNIK
_chemical_formula_moiety         'C34 H39 B1 N2'
_chemical_name_systematic        
3-[bis(2,4,6-trimethylphenyl)boranyl]-N,N-dimethyl-4-[2-(6-methylpyridin-2-yl)ethenyl]aniline
_symmetry_cell_setting           monoclinic
_symmetry_space_group_name_H-M   'P 21/n'
_symmetry_Int_Tables_number      14
_space_group_name_Hall           '-P 2yn'
loop_
_symmetry_equiv_pos_site_id
_symmetry_equiv_pos_as_xyz
1 x,y,z
2 1/2-x,1/2+y,1/2-z
3 -x,-y,-z
4 1/2+x,1/2-y,1/2+z
_cell_length_a                   8.410(5)
_cell_length_b                   34.22(2)
_cell_length_c                   10.140(7)
_cell_angle_alpha                90
_cell_angle_beta                 97.87(2)
_cell_angle_gamma                90
_cell_volume                     2890.71
_exptl_crystal_colour            yellow
_exptl_crystal_description       Block
_cell_formula_units_Z            4
loop_
_atom_site_label
_atom_site_type_symbol
_atom_site_fract_x
_atom_site_fract_y
_atom_site_fract_z
B1 B 0.7298(3) 0.39356(8) 0.4501(3)
N1 N 0.8197(3) 0.26302(6) -0.0114(2)
N2 N 1.0796(3) 0.33477(7) 0.8339(3)
C1 C 0.8293(3) 0.35679(7) 0.5070(3)
C2 C 0.8960(3) 0.35879(7) 0.6413(3)
H1 H 0.8653 0.3798 0.6936
C3 C 1.0072(3) 0.33099(7) 0.7030(3)
C4 C 1.0395(3) 0.29943(8) 0.6239(3)
H2 H 1.1120 0.2798 0.6609
C5 C 0.9688(3) 0.29604(8) 0.4932(3)
H3 H 0.9917 0.2735 0.4445
C6 C 0.8650(3) 0.32432(7) 0.4291(3)
C7 C 0.7965(3) 0.32031(7) 0.2896(3)
H4 H 0.7149 0.3386 0.2583
C8 C 0.8330(3) 0.29450(7) 0.2001(3)
H5 H 0.9095 0.2750 0.2312
C9 C 0.7671(3) 0.29304(7) 0.0580(3)
C10 C 0.6608(3) 0.32040(8) -0.0046(3)
H6 H 0.6234 0.3411 0.0455
C11 C 0.6093(3) 0.31766(9) -0.1396(3)
H7 H 0.5384 0.3367 -0.1833
C12 C 0.6620(3) 0.28698(8) -0.2100(3)
H8 H 0.6270 0.2843 -0.3026
C13 C 0.7668(3) 0.26019(8) -0.1434(3)
C14 C 0.8259(4) 0.22596(9) -0.2155(3)
H9 H 0.7593 0.2030 -0.2039
H10 H 0.9376 0.2204 -0.1792
H11 H 0.8193 0.2321 -0.3105
C15 C 1.1823(4) 0.30423(10) 0.8983(3)
H12 H 1.2623 0.2969 0.8411
H13 H 1.1170 0.2814 0.9136
H14 H 1.2369 0.3138 0.9837
C16 C 1.0374(4) 0.36544(10) 0.9169(3)
H15 H 1.0640 0.3907 0.8797
H16 H 1.0972 0.3625 1.0063
H17 H 0.9220 0.3644 0.9221
C17 C 0.6088(3) 0.41236(7) 0.5387(2)
C18 C 0.4782(3) 0.39058(7) 0.5755(2)
C19 C 0.4423(3) 0.34992(7) 0.5244(3)
H18 H 0.3817 0.3512 0.4348
H19 H 0.3786 0.3362 0.5839
H20 H 0.5432 0.3358 0.5211
C20 C 0.3734(3) 0.40733(8) 0.6545(3)
H21 H 0.2877 0.3920 0.6787
C21 C 0.3903(3) 0.44551(8) 0.6989(3)
C22 C 0.2721(4) 0.46286(10) 0.7823(3)
H22 H 0.1632 0.4606 0.7343
H23 H 0.2980 0.4905 0.7998
H24 H 0.2787 0.4487 0.8669
C23 C 0.5174(3) 0.46647(8) 0.6621(3)
H25 H 0.5309 0.4928 0.6909
C24 C 0.6268(3) 0.45097(7) 0.5849(3)
C25 C 0.7671(3) 0.47594(7) 0.5580(3)
H26 H 0.7704 0.4772 0.4619
H27 H 0.8672 0.4645 0.6022
H28 H 0.7547 0.5024 0.5924
C26 C 0.7578(3) 0.41182(7) 0.3110(2)
C27 C 0.6286(3) 0.41991(7) 0.2079(3)
C28 C 0.4553(3) 0.41096(10) 0.2250(3)
H29 H 0.3837 0.4208 0.1478
H30 H 0.4293 0.4236 0.3060
H31 H 0.4414 0.3826 0.2321
C29 C 0.6592(3) 0.43478(8) 0.0874(3)
H32 H 0.5715 0.4388 0.0192
C30 C 0.8137(3) 0.44412(8) 0.0613(3)
C31 C 0.8414(4) 0.46194(10) -0.0701(3)
H33 H 0.7912 0.4455 -0.1433
H34 H 0.9570 0.4637 -0.0739
H35 H 0.7941 0.4881 -0.0783
C32 C 0.9388(3) 0.43672(8) 0.1624(3)
H36 H 1.0450 0.4431 0.1480
C33 C 0.9155(3) 0.42037(7) 0.2839(3)
C34 C 1.0629(3) 0.41336(9) 0.3857(3)
H37 H 1.0869 0.3853 0.3908
H38 H 1.0423 0.4227 0.4731
H39 H 1.1547 0.4275 0.3589
loop_
_geom_bond_atom_site_label_1
_geom_bond_atom_site_label_2
_geom_bond_site_symmetry_1
_geom_bond_site_symmetry_2
B1 C1 1_555 1_555
N1 C9 1_555 1_555
N2 C3 1_555 1_555
C1 C2 1_555 1_555
C2 H1 1_555 1_555
C3 C2 1_555 1_555
C4 C3 1_555 1_555
H2 C4 1_555 1_555
C5 C4 1_555 1_555
H3 C5 1_555 1_555
C6 C1 1_555 1_555
C7 C6 1_555 1_555
H4 C7 1_555 1_555
C8 C7 1_555 1_555
H5 C8 1_555 1_555
C9 C8 1_555 1_555
C10 C9 1_555 1_555
H6 C10 1_555 1_555
C11 C10 1_555 1_555
H7 C11 1_555 1_555
C12 C11 1_555 1_555
H8 C12 1_555 1_555
C13 N1 1_555 1_555
C14 C13 1_555 1_555
H9 C14 1_555 1_555
H10 C14 1_555 1_555
H11 C14 1_555 1_555
C15 N2 1_555 1_555
H12 C15 1_555 1_555
H13 C15 1_555 1_555
H14 C15 1_555 1_555
C16 N2 1_555 1_555
H15 C16 1_555 1_555
H16 C16 1_555 1_555
H17 C16 1_555 1_555
C17 B1 1_555 1_555
C18 C17 1_555 1_555
C19 C18 1_555 1_555
H18 C19 1_555 1_555
H19 C19 1_555 1_555
H20 C19 1_555 1_555
C20 C18 1_555 1_555
H21 C20 1_555 1_555
C21 C20 1_555 1_555
C22 C21 1_555 1_555
H22 C22 1_555 1_555
H23 C22 1_555 1_555
H24 C22 1_555 1_555
C23 C21 1_555 1_555
H25 C23 1_555 1_555
C24 C17 1_555 1_555
C25 C24 1_555 1_555
H26 C25 1_555 1_555
H27 C25 1_555 1_555
H28 C25 1_555 1_555
C26 B1 1_555 1_555
C27 C26 1_555 1_555
C28 C27 1_555 1_555
H29 C28 1_555 1_555
H30 C28 1_555 1_555
H31 C28 1_555 1_555
C29 C27 1_555 1_555
H32 C29 1_555 1_555
C30 C29 1_555 1_555
C31 C30 1_555 1_555
H33 C31 1_555 1_555
H34 C31 1_555 1_555
H35 C31 1_555 1_555
C32 C30 1_555 1_555
H36 C32 1_555 1_555
C33 C26 1_555 1_555
C34 C33 1_555 1_555
H37 C34 1_555 1_555
H38 C34 1_555 1_555
H39 C34 1_555 1_555
C5 C6 1_555 1_555
C12 C13 1_555 1_555
C23 C24 1_555 1_555
C32 C33 1_555 1_555

#END
