
#######################################################################
#
#                 Cambridge Crystallographic Data Centre
#                                CCDC 
#
#######################################################################
#
# If this CIF has been generated from an entry in the Cambridge 
# Structural Database, then it will include bibliographic, chemical, 
# crystal, experimental, refinement or atomic coordinate data resulting 
# from the CCDC's data processing and validation procedures.
#
#######################################################################

data_FEZPUY
_chemical_formula_moiety         'C68 H44 N4'
_chemical_name_systematic        
2,2'-((2,2-diphenylethene-1,1-diyl)bis(3,1-phenylene))bis(1-phenyl-1H-phenanthro[9,10-d]imidazole)
_symmetry_cell_setting           monoclinic
_symmetry_space_group_name_H-M   'P 21/n'
_symmetry_Int_Tables_number      14
_space_group_name_Hall           '-P 2yn'
loop_
_symmetry_equiv_pos_site_id
_symmetry_equiv_pos_as_xyz
1 x,y,z
2 1/2-x,1/2+y,1/2-z
3 -x,-y,-z
4 1/2+x,1/2-y,1/2+z
_cell_length_a                   10.1234(19)
_cell_length_b                   16.138(3)
_cell_length_c                   34.216(6)
_cell_angle_alpha                90
_cell_angle_beta                 95.582(3)
_cell_angle_gamma                90
_cell_volume                     5563.41
_cell_formula_units_Z            4
loop_
_atom_site_label
_atom_site_type_symbol
_atom_site_fract_x
_atom_site_fract_y
_atom_site_fract_z
C1 C 1.0273(2) 0.01927(14) 0.26672(6)
C2 C 1.0579(2) -0.06427(15) 0.26806(7)
H1 H 1.0938 -0.0874 0.2916
C3 C 1.0365(3) -0.11393(17) 0.23540(8)
H2 H 1.0578 -0.1700 0.2370
C4 C 0.9841(3) -0.08071(19) 0.20073(8)
H3 H 0.9694 -0.1141 0.1786
C5 C 0.9531(3) 0.00133(19) 0.19844(8)
H4 H 0.9184 0.0239 0.1746
C6 C 0.9728(3) 0.05153(17) 0.23136(7)
H5 H 0.9491 0.1072 0.2296
C7 C 1.0237(2) 0.02879(14) 0.33967(6)
C8 C 0.8969(3) 0.00375(18) 0.34403(8)
H6 H 0.8298 0.0136 0.3240
C9 C 0.8678(3) -0.0358(2) 0.37770(9)
H7 H 0.7806 -0.0503 0.3809
C10 C 0.9664(4) -0.0539(2) 0.40622(9)
H8 H 0.9470 -0.0821 0.4287
C11 C 1.0930(3) -0.03095(18) 0.40203(8)
H9 H 1.1606 -0.0443 0.4214
C12 C 1.1217(3) 0.01196(16) 0.36924(7)
H10 H 1.2080 0.0298 0.3671
C13 C 1.0557(2) 0.07081(14) 0.30278(6)
C14 C 1.1116(2) 0.14664(14) 0.30318(6)
C15 C 1.1580(2) 0.18509(14) 0.26739(6)
C16 C 1.1036(2) 0.25884(14) 0.25303(6)
H11 H 1.0394 0.2848 0.2664
C17 C 1.1422(2) 0.29506(14) 0.21935(6)
C18 C 1.2378(3) 0.25515(16) 0.19966(7)
H12 H 1.2633 0.2774 0.1765
C19 C 1.2943(3) 0.18350(16) 0.21431(7)
H13 H 1.3599 0.1581 0.2013
C20 C 1.2563(2) 0.14842(15) 0.24772(7)
H14 H 1.2965 0.0997 0.2573
C21 C 1.0863(2) 0.37202(15) 0.20163(6)
C22 C 1.0217(2) 0.44011(14) 0.26334(7)
C23 C 0.9022(3) 0.42894(16) 0.27880(8)
H15 H 0.8245 0.4203 0.2625
C24 C 0.9005(3) 0.43083(18) 0.31899(9)
H16 H 0.8208 0.4231 0.3299
C25 C 1.0130(4) 0.44378(19) 0.34279(9)
H17 H 1.0105 0.4449 0.3699
C26 C 1.1301(4) 0.45519(19) 0.32709(8)
H18 H 1.2072 0.4646 0.3436
C27 C 1.1361(3) 0.45306(16) 0.28716(7)
H19 H 1.2165 0.4603 0.2766
C28 C 0.9891(2) 0.49603(15) 0.19386(7)
C29 C 1.0266(2) 0.46477(16) 0.15907(7)
C30 C 1.0039(2) 0.50974(17) 0.12331(7)
C31 C 1.0459(3) 0.4786(2) 0.08815(8)
H20 H 1.0864 0.4269 0.0880
C32 C 1.0277(4) 0.5236(3) 0.05444(9)
H21 H 1.0569 0.5032 0.0314
C33 C 0.9662(4) 0.5991(3) 0.05466(12)
H22 H 0.9538 0.6296 0.0315
C34 C 0.9223(4) 0.6308(2) 0.08844(11)
H23 H 0.8786 0.6816 0.0877
C35 C 0.9431(3) 0.58705(18) 0.12388(9)
C36 C 0.9024(3) 0.61985(16) 0.16085(9)
C37 C 0.8371(3) 0.6955(2) 0.16223(12)
H24 H 0.8195 0.7258 0.1392
C38 C 0.7982(3) 0.7265(2) 0.19623(14)
H25 H 0.7546 0.7772 0.1961
C39 C 0.8227(3) 0.68356(19) 0.23084(12)
H26 H 0.7956 0.7050 0.2540
C40 C 0.8875(3) 0.60893(16) 0.23099(9)
H27 H 0.9050 0.5804 0.2545
C41 C 0.9275(2) 0.57492(15) 0.19660(8)
C42 C 1.1375(2) 0.19625(14) 0.33966(6)
C43 C 1.2642(2) 0.22529(16) 0.35099(7)
H28 H 1.3316 0.2160 0.3349
C44 C 1.2919(3) 0.26743(18) 0.38556(8)
H29 H 1.3781 0.2851 0.3930
C45 C 1.1937(3) 0.28379(17) 0.40927(7)
H30 H 1.2134 0.3124 0.4327
C46 C 1.0649(2) 0.25776(15) 0.39837(6)
C47 C 1.0383(2) 0.21443(14) 0.36372(6)
H31 H 0.9519 0.1970 0.3563
C48 C 0.9555(2) 0.27880(15) 0.42176(6)
C49 C 0.7750(2) 0.32683(14) 0.44020(6)
C50 C 0.8323(2) 0.28530(14) 0.47178(7)
C51 C 0.7708(3) 0.27872(15) 0.50774(7)
C52 C 0.8250(3) 0.23420(19) 0.54123(8)
H32 H 0.9053 0.2065 0.5405
C53 C 0.7618(4) 0.2313(2) 0.57425(9)
H33 H 0.7992 0.2023 0.5961
C54 C 0.6427(4) 0.2711(2) 0.57564(10)
H34 H 0.6001 0.2690 0.5985
C55 C 0.5858(3) 0.3138(2) 0.54383(8)
H35 H 0.5046 0.3400 0.5454
C56 C 0.6473(3) 0.31910(16) 0.50881(7)
C57 C 0.5882(2) 0.36625(16) 0.47529(7)
C58 C 0.4683(3) 0.40940(19) 0.47531(9)
H36 H 0.4213 0.4062 0.4973
C59 C 0.4181(3) 0.4562(2) 0.44400(9)
H37 H 0.3389 0.4849 0.4451
C60 C 0.4848(3) 0.4607(2) 0.41065(9)
H38 H 0.4508 0.4928 0.3894
C61 C 0.6000(3) 0.41840(18) 0.40902(8)
H39 H 0.6441 0.4212 0.3864
C62 C 0.6531(2) 0.37068(15) 0.44082(7)
C63 C 1.0517(3) 0.20555(18) 0.48193(7)
C64 C 1.1404(4) 0.2427(2) 0.50823(10)
H40 H 1.1340 0.2991 0.5133
C65 C 1.2414(4) 0.1959(4) 0.52755(13)
H41 H 1.3046 0.2206 0.5454
C66 C 1.2468(5) 0.1131(5) 0.52014(13)
H42 H 1.3140 0.0812 0.5331
C67 C 1.1575(6) 0.0774(3) 0.49472(13)
H43 H 1.1621 0.0207 0.4902
C68 C 1.0579(4) 0.1236(2) 0.47495(9)
H44 H 0.9956 0.0985 0.4570
N1 N 1.0856(2) 0.38840(13) 0.16421(5)
N2 N 1.02870(19) 0.43538(12) 0.22157(5)
N3 N 0.85062(19) 0.32278(13) 0.40868(5)
N4 N 0.9502(2) 0.25507(12) 0.46018(5)
loop_
_geom_bond_atom_site_label_1
_geom_bond_atom_site_label_2
_geom_bond_site_symmetry_1
_geom_bond_site_symmetry_2
C1 C2 1_555 1_555
C2 H1 1_555 1_555
C3 C2 1_555 1_555
H2 C3 1_555 1_555
C4 C3 1_555 1_555
H3 C4 1_555 1_555
C5 C4 1_555 1_555
H4 C5 1_555 1_555
C6 C1 1_555 1_555
H5 C6 1_555 1_555
C7 C8 1_555 1_555
C8 H6 1_555 1_555
C9 C8 1_555 1_555
H7 C9 1_555 1_555
C10 C9 1_555 1_555
H8 C10 1_555 1_555
C11 C10 1_555 1_555
H9 C11 1_555 1_555
C12 C7 1_555 1_555
H10 C12 1_555 1_555
C13 C1 1_555 1_555
C14 C13 1_555 1_555
C15 C14 1_555 1_555
C16 C15 1_555 1_555
H11 C16 1_555 1_555
C17 C16 1_555 1_555
C18 C17 1_555 1_555
H12 C18 1_555 1_555
C19 C18 1_555 1_555
H13 C19 1_555 1_555
C20 C15 1_555 1_555
H14 C20 1_555 1_555
C21 C17 1_555 1_555
C22 C23 1_555 1_555
C23 H15 1_555 1_555
C24 C23 1_555 1_555
H16 C24 1_555 1_555
C25 C24 1_555 1_555
H17 C25 1_555 1_555
C26 C25 1_555 1_555
H18 C26 1_555 1_555
C27 C22 1_555 1_555
H19 C27 1_555 1_555
C28 C29 1_555 1_555
C29 C30 1_555 1_555
C30 C31 1_555 1_555
C31 H20 1_555 1_555
C32 C31 1_555 1_555
H21 C32 1_555 1_555
C33 C32 1_555 1_555
H22 C33 1_555 1_555
C34 C33 1_555 1_555
H23 C34 1_555 1_555
C35 C30 1_555 1_555
C36 C35 1_555 1_555
C37 C36 1_555 1_555
H24 C37 1_555 1_555
C38 C37 1_555 1_555
H25 C38 1_555 1_555
C39 C38 1_555 1_555
H26 C39 1_555 1_555
C40 C39 1_555 1_555
H27 C40 1_555 1_555
C41 C28 1_555 1_555
C42 C14 1_555 1_555
C43 C42 1_555 1_555
H28 C43 1_555 1_555
C44 C43 1_555 1_555
H29 C44 1_555 1_555
C45 C44 1_555 1_555
H30 C45 1_555 1_555
C46 C45 1_555 1_555
C47 C42 1_555 1_555
H31 C47 1_555 1_555
C48 C46 1_555 1_555
C49 C50 1_555 1_555
C50 C51 1_555 1_555
C51 C52 1_555 1_555
C52 H32 1_555 1_555
C53 C52 1_555 1_555
H33 C53 1_555 1_555
C54 C53 1_555 1_555
H34 C54 1_555 1_555
C55 C54 1_555 1_555
H35 C55 1_555 1_555
C56 C51 1_555 1_555
C57 C56 1_555 1_555
C58 C57 1_555 1_555
H36 C58 1_555 1_555
C59 C58 1_555 1_555
H37 C59 1_555 1_555
C60 C59 1_555 1_555
H38 C60 1_555 1_555
C61 C60 1_555 1_555
H39 C61 1_555 1_555
C62 C49 1_555 1_555
C63 C64 1_555 1_555
C64 H40 1_555 1_555
C65 C64 1_555 1_555
H41 C65 1_555 1_555
C66 C65 1_555 1_555
H42 C66 1_555 1_555
C67 C66 1_555 1_555
H43 C67 1_555 1_555
C68 C63 1_555 1_555
H44 C68 1_555 1_555
N1 C21 1_555 1_555
N2 C21 1_555 1_555
N3 C48 1_555 1_555
N4 C48 1_555 1_555
C5 C6 1_555 1_555
C7 C13 1_555 1_555
C11 C12 1_555 1_555
C19 C20 1_555 1_555
C22 N2 1_555 1_555
C26 C27 1_555 1_555
C28 N2 1_555 1_555
C29 N1 1_555 1_555
C34 C35 1_555 1_555
C36 C41 1_555 1_555
C40 C41 1_555 1_555
C46 C47 1_555 1_555
C49 N3 1_555 1_555
C50 N4 1_555 1_555
C55 C56 1_555 1_555
C57 C62 1_555 1_555
C61 C62 1_555 1_555
C63 N4 1_555 1_555
C67 C68 1_555 1_555

#END
