
#######################################################################
#
#                 Cambridge Crystallographic Data Centre
#                                CCDC 
#
#######################################################################
#
# If this CIF has been generated from an entry in the Cambridge 
# Structural Database, then it will include bibliographic, chemical, 
# crystal, experimental, refinement or atomic coordinate data resulting 
# from the CCDC's data processing and validation procedures.
#
#######################################################################

data_FEZZEQ
_chemical_formula_moiety         'C25 H29 N1 O3'
_chemical_name_systematic        
(3R)-3-Methyl-2-((((1R,2S)-2-(1-methyl-1-phenylethyl)cyclohexyl)oxy)carbonyl)-2,3-dihydro-isoindol-1-one
_symmetry_cell_setting           orthorhombic
_symmetry_space_group_name_H-M   'P 21 21 21'
_symmetry_Int_Tables_number      19
_space_group_name_Hall           'P 2ac 2ab'
loop_
_symmetry_equiv_pos_site_id
_symmetry_equiv_pos_as_xyz
1 x,y,z
2 1/2+x,1/2-y,-z
3 -x,1/2+y,1/2-z
4 1/2-x,-y,1/2+z
_cell_length_a                   8.2443(5)
_cell_length_b                   16.1149(7)
_cell_length_c                   15.7912(7)
_cell_angle_alpha                90
_cell_angle_beta                 90
_cell_angle_gamma                90
_cell_volume                     2097.96
_exptl_crystal_colour            colorless
_exptl_crystal_description       prism
_cell_formula_units_Z            4
loop_
_atom_site_label
_atom_site_type_symbol
_atom_site_fract_x
_atom_site_fract_y
_atom_site_fract_z
O1 O 0.69890(13) 0.99771(7) 0.68845(8)
O2 O 0.53977(15) 1.02342(7) 0.84292(8)
O3 O 0.38952(13) 0.91145(7) 0.88119(7)
N1 N 0.55169(17) 0.90053(8) 0.76840(8)
C1 C 0.63958(20) 0.92934(10) 0.69712(10)
C2 C 0.6427(2) 0.85883(10) 0.63741(10)
C3 C 0.7122(2) 0.85473(12) 0.55718(11)
C4 C 0.7011(2) 0.78064(12) 0.51351(12)
C5 C 0.6240(3) 0.71201(12) 0.54985(12)
C6 C 0.5541(2) 0.71647(11) 0.62986(11)
C7 C 0.56338(20) 0.79130(10) 0.67281(10)
C8 C 0.5003(2) 0.81202(10) 0.75980(11)
C9 C 0.5729(2) 0.75585(11) 0.82787(12)
C10 C 0.49703(19) 0.95251(10) 0.83281(11)
C11 C 0.33271(19) 0.95561(10) 0.95693(10)
C12 C 0.1779(2) 0.91311(11) 0.98882(11)
C13 C 0.1274(2) 0.95913(11) 1.07037(11)
C14 C 0.2598(2) 0.95961(12) 1.13771(11)
C15 C 0.4165(2) 0.99753(11) 1.10423(11)
C16 C 0.4675(2) 0.95421(12) 1.02261(11)
C17 C 0.03868(20) 0.90656(10) 0.92122(10)
C18 C 0.0109(2) 0.99120(11) 0.87822(12)
C19 C -0.1213(2) 0.88114(12) 0.96604(12)
C20 C 0.07083(20) 0.83691(10) 0.85560(10)
C21 C 0.0314(2) 0.84656(11) 0.77025(11)
C22 C 0.0474(2) 0.78154(11) 0.71280(12)
C23 C 0.1052(2) 0.70475(12) 0.73930(12)
C24 C 0.1446(2) 0.69360(11) 0.82372(11)
C25 C 0.1257(2) 0.75850(10) 0.88121(11)
H1 H 0.764(2) 0.9040(11) 0.5335(11)
H2 H 0.749(2) 0.7761(10) 0.4574(11)
H3 H 0.612(3) 0.6587(13) 0.5164(12)
H4 H 0.501(2) 0.6693(12) 0.6548(12)
H5 H 0.386(2) 0.8109(12) 0.7636(11)
H6 H 0.537(2) 0.6970(12) 0.8154(11)
H7 H 0.695(3) 0.7573(12) 0.8235(12)
H8 H 0.538(2) 0.7741(9) 0.8850(11)
H9 H 0.3120(20) 1.0117(10) 0.9390(10)
H10 H 0.206(2) 0.8571(10) 1.0063(10)
H11 H 0.030(3) 0.9325(11) 1.0940(12)
H12 H 0.100(2) 1.0175(12) 1.0571(11)
H13 H 0.222(2) 0.9892(12) 1.1886(12)
H14 H 0.281(2) 0.9017(11) 1.1562(11)
H15 H 0.394(2) 1.0598(11) 1.0936(10)
H16 H 0.508(2) 0.9945(11) 1.1454(12)
H17 H 0.490(2) 0.8950(11) 1.0368(10)
H18 H 0.567(3) 0.9857(12) 0.9963(11)
H19 H 0.098(2) 1.0080(11) 0.8355(12)
H20 H -0.089(2) 0.9897(11) 0.8458(12)
H21 H 0.002(2) 1.0358(11) 0.9203(11)
H22 H -0.104(2) 0.8286(12) 1.0015(11)
H23 H -0.160(3) 0.9292(12) 1.0036(12)
H24 H -0.200(2) 0.8700(11) 0.9218(12)
H25 H -0.010(2) 0.8994(10) 0.7506(10)
H26 H 0.020(2) 0.7930(10) 0.6555(11)
H27 H 0.117(3) 0.6593(13) 0.6983(12)
H28 H 0.180(2) 0.6406(11) 0.8438(11)
H29 H 0.147(2) 0.7490(10) 0.9422(11)
loop_
_geom_bond_atom_site_label_1
_geom_bond_atom_site_label_2
_geom_bond_site_symmetry_1
_geom_bond_site_symmetry_2
O1 C1 1_555 1_555
O2 C10 1_555 1_555
O3 C10 1_555 1_555
N1 C1 1_555 1_555
C1 C2 1_555 1_555
C2 C3 1_555 1_555
C3 C4 1_555 1_555
C4 C5 1_555 1_555
C5 C6 1_555 1_555
C6 C7 1_555 1_555
C7 C2 1_555 1_555
C8 N1 1_555 1_555
C9 C8 1_555 1_555
C10 N1 1_555 1_555
C11 O3 1_555 1_555
C12 C11 1_555 1_555
C13 C12 1_555 1_555
C14 C13 1_555 1_555
C15 C14 1_555 1_555
C16 C11 1_555 1_555
C17 C12 1_555 1_555
C18 C17 1_555 1_555
C19 C17 1_555 1_555
C20 C17 1_555 1_555
C21 C20 1_555 1_555
C22 C21 1_555 1_555
C23 C22 1_555 1_555
C24 C23 1_555 1_555
C25 C20 1_555 1_555
H1 C3 1_555 1_555
H2 C4 1_555 1_555
H3 C5 1_555 1_555
H4 C6 1_555 1_555
H5 C8 1_555 1_555
H6 C9 1_555 1_555
H7 C9 1_555 1_555
H8 C9 1_555 1_555
H9 C11 1_555 1_555
H10 C12 1_555 1_555
H11 C13 1_555 1_555
H12 C13 1_555 1_555
H13 C14 1_555 1_555
H14 C14 1_555 1_555
H15 C15 1_555 1_555
H16 C15 1_555 1_555
H17 C16 1_555 1_555
H18 C16 1_555 1_555
H19 C18 1_555 1_555
H20 C18 1_555 1_555
H21 C18 1_555 1_555
H22 C19 1_555 1_555
H23 C19 1_555 1_555
H24 C19 1_555 1_555
H25 C21 1_555 1_555
H26 C22 1_555 1_555
H27 C23 1_555 1_555
H28 C24 1_555 1_555
H29 C25 1_555 1_555
C7 C8 1_555 1_555
C15 C16 1_555 1_555
C24 C25 1_555 1_555

#END
