
#######################################################################
#
#                 Cambridge Crystallographic Data Centre
#                                CCDC 
#
#######################################################################
#
# If this CIF has been generated from an entry in the Cambridge 
# Structural Database, then it will include bibliographic, chemical, 
# crystal, experimental, refinement or atomic coordinate data resulting 
# from the CCDC's data processing and validation procedures.
#
#######################################################################

data_FIBBAU
_chemical_formula_moiety         'C23 H20 N2 O8'
_chemical_name_systematic        
'(2S*,3R*)-Methyl 2-(benzyloxy)-2-phenyl-3-hydroxy-3-(2,4-dinitrophenyl)propionate'
_symmetry_cell_setting           triclinic
_symmetry_space_group_name_H-M   'P -1'
_symmetry_Int_Tables_number      2
_space_group_name_Hall           '-P 1'
loop_
_symmetry_equiv_pos_site_id
_symmetry_equiv_pos_as_xyz
1 x,y,z
2 -x,-y,-z
_cell_length_a                   8.245(2)
_cell_length_b                   9.070(2)
_cell_length_c                   15.501(4)
_cell_angle_alpha                93.34(2)
_cell_angle_beta                 91.41(2)
_cell_angle_gamma                110.26(2)
_cell_volume                     1084.39
_cell_formula_units_Z            2
loop_
_atom_site_label
_atom_site_type_symbol
_atom_site_fract_x
_atom_site_fract_y
_atom_site_fract_z
O1 O 0.38243(14) 0.59984(12) 0.21337(6)
O2 O 0.62353(15) 0.56311(15) 0.30622(9)
O3 O 0.46613(19) 0.32728(18) 0.34471(11)
O4 O 0.23002(17) 0.49008(15) 0.42571(7)
H1 H 0.1296 0.4292 0.4200
O5 O 0.9268(2) 1.14560(19) 0.52690(12)
O6 O 0.87849(19) 1.25707(18) 0.41527(11)
O7 O 0.4177(2) 0.96708(19) 0.20704(9)
O8 O 0.18838(19) 0.82234(19) 0.26456(10)
N1 N 0.8442(2) 1.14618(19) 0.46082(11)
N2 N 0.3448(2) 0.88843(18) 0.26431(10)
C1 C 0.1279(3) 0.1960(2) 0.25925(13)
H2 H 0.2084 0.1677 0.2910
C2 C -0.0260(3) 0.0805(2) 0.22719(15)
H3 H -0.0471 -0.0242 0.2379
C3 C -0.1454(3) 0.1184(3) 0.18064(14)
H4 H -0.2475 0.0402 0.1594
C4 C -0.1147(3) 0.2723(3) 0.16515(14)
H5 H -0.1962 0.2993 0.1334
C5 C 0.0380(2) 0.3883(2) 0.19678(12)
H6 H 0.0578 0.4927 0.1859
C6 C 0.1616(2) 0.35148(19) 0.24423(10)
C7 C 0.3235(2) 0.49016(18) 0.27739(9)
C8 C 0.2696(2) 0.58285(19) 0.35372(10)
H7 H 0.1665 0.6049 0.3348
C9 C 0.4120(2) 0.73714(18) 0.38235(10)
C10 C 0.5170(2) 0.74236(19) 0.45476(10)
H8 H 0.4923 0.6536 0.4863
C11 C 0.6569(2) 0.8751(2) 0.48151(11)
H9 H 0.7252 0.8761 0.5304
C12 C 0.6929(2) 1.00506(19) 0.43457(11)
C13 C 0.5921(2) 1.00854(19) 0.36304(11)
H10 H 0.6175 1.0980 0.3321
C14 C 0.4523(2) 0.87465(19) 0.33911(10)
C15 C 0.4276(3) 0.5316(2) 0.13515(11)
H11 H 0.3231 0.4735 0.1003
H12 H 0.4840 0.4581 0.1500
C16 C 0.5448(3) 0.6548(2) 0.08410(10)
C17 C 0.7188(3) 0.6817(3) 0.08398(15)
H13 H 0.7672 0.6287 0.1206
C18 C 0.8236(4) 0.7871(4) 0.0297(2)
H14 H 0.9417 0.8050 0.0300
C19 C 0.7525(6) 0.8641(4) -0.0238(2)
H15 H 0.8222 0.9323 -0.0614
C20 C 0.5832(6) 0.8431(3) -0.02321(15)
H16 H 0.5368 0.8993 -0.0586
C21 C 0.4781(3) 0.7373(3) 0.03043(13)
H17 H 0.3606 0.7218 0.0302
C22 C 0.4756(2) 0.4453(2) 0.31226(11)
C23 C 0.7763(3) 0.5459(3) 0.34538(15)
H18 H 0.7622 0.5350 0.4062
H19 H 0.8754 0.6373 0.3368
H20 H 0.7929 0.4540 0.3191
loop_
_geom_bond_atom_site_label_1
_geom_bond_atom_site_label_2
_geom_bond_site_symmetry_1
_geom_bond_site_symmetry_2
O1 C7 1_555 1_555
O2 C22 1_555 1_555
O3 C22 1_555 1_555
O4 H1 1_555 1_555
O5 N1 1_555 1_555
O6 N1 1_555 1_555
O7 N2 1_555 1_555
O8 N2 1_555 1_555
N1 C12 1_555 1_555
N2 C14 1_555 1_555
C1 H2 1_555 1_555
C2 C1 1_555 1_555
H3 C2 1_555 1_555
C3 C2 1_555 1_555
H4 C3 1_555 1_555
C4 C3 1_555 1_555
H5 C4 1_555 1_555
C5 C4 1_555 1_555
H6 C5 1_555 1_555
C6 C1 1_555 1_555
C7 C6 1_555 1_555
C8 O4 1_555 1_555
H7 C8 1_555 1_555
C9 C8 1_555 1_555
C10 C9 1_555 1_555
H8 C10 1_555 1_555
C11 C10 1_555 1_555
H9 C11 1_555 1_555
C12 C11 1_555 1_555
C13 C12 1_555 1_555
H10 C13 1_555 1_555
C14 C9 1_555 1_555
C15 O1 1_555 1_555
H11 C15 1_555 1_555
H12 C15 1_555 1_555
C16 C15 1_555 1_555
C17 C16 1_555 1_555
H13 C17 1_555 1_555
C18 C17 1_555 1_555
H14 C18 1_555 1_555
C19 C18 1_555 1_555
H15 C19 1_555 1_555
C20 C19 1_555 1_555
H16 C20 1_555 1_555
C21 C16 1_555 1_555
H17 C21 1_555 1_555
C22 C7 1_555 1_555
C23 O2 1_555 1_555
H18 C23 1_555 1_555
H19 C23 1_555 1_555
H20 C23 1_555 1_555
C5 C6 1_555 1_555
C7 C8 1_555 1_555
C13 C14 1_555 1_555
C20 C21 1_555 1_555

#END
