
#######################################################################
#
#                 Cambridge Crystallographic Data Centre
#                                CCDC 
#
#######################################################################
#
# If this CIF has been generated from an entry in the Cambridge 
# Structural Database, then it will include bibliographic, chemical, 
# crystal, experimental, refinement or atomic coordinate data resulting 
# from the CCDC's data processing and validation procedures.
#
#######################################################################

data_FIBBAV
_chemical_formula_moiety         'C18 H16 N2 O2'
_chemical_name_systematic        
2-(2-Methyl-2,3-dihydro-1H-perimidin-2-yl)benzene-1,3-diol
_symmetry_cell_setting           monoclinic
_symmetry_space_group_name_H-M   'P 21/c'
_symmetry_Int_Tables_number      14
_space_group_name_Hall           '-P 2ybc'
loop_
_symmetry_equiv_pos_site_id
_symmetry_equiv_pos_as_xyz
1 x,y,z
2 -x,1/2+y,1/2-z
3 -x,-y,-z
4 x,1/2-y,1/2+z
_cell_length_a                   9.141(2)
_cell_length_b                   8.104(1)
_cell_length_c                   19.119(2)
_cell_angle_alpha                90
_cell_angle_beta                 92.78(1)
_cell_angle_gamma                90
_cell_volume                     1414.64
_exptl_crystal_colour            'pale yellow'
_exptl_crystal_description       needle
_cell_formula_units_Z            4
loop_
_atom_site_label
_atom_site_type_symbol
_atom_site_fract_x
_atom_site_fract_y
_atom_site_fract_z
C1 C -0.0296(3) 0.1967(3) 0.06929(13)
C2 C -0.1683(3) 0.2563(3) 0.07057(14)
H1 H -0.2227 0.2388 0.1097
C3 C -0.2296(3) 0.3437(3) 0.01339(15)
H2 H -0.3250 0.3829 0.0147
C4 C -0.1519(3) 0.3721(3) -0.04388(15)
H3 H -0.1937 0.4333 -0.0809
C5 C -0.0090(3) 0.3104(3) -0.04819(13)
C6 C 0.0735(4) 0.3260(4) -0.10771(13)
H4 H 0.0355 0.3860 -0.1459
C7 C 0.2073(4) 0.2556(4) -0.11073(14)
H5 H 0.2593 0.2667 -0.1511
C8 C 0.2687(3) 0.1655(3) -0.05352(14)
H6 H 0.3609 0.1182 -0.0561
C9 C 0.1929(3) 0.1480(3) 0.00558(13)
C10 C 0.0530(3) 0.2202(3) 0.00997(13)
C11 C 0.1935(3) 0.0949(3) 0.13198(13)
C12 C 0.2629(3) 0.2591(3) 0.15697(12)
C13 C 0.1937(3) 0.3625(3) 0.20376(13)
C14 C 0.2623(4) 0.5023(3) 0.23082(14)
H7 H 0.2140 0.5699 0.2615
C15 C 0.4014(4) 0.5415(4) 0.21256(15)
H8 H 0.4467 0.6363 0.2305
C16 C 0.4734(3) 0.4418(3) 0.16813(16)
H9 H 0.5675 0.4687 0.1556
C17 C 0.4064(3) 0.3011(3) 0.14182(14)
C18 C 0.2367(3) -0.0414(3) 0.18341(14)
H10 H 0.1944 -0.1438 0.1673
H11 H 0.2017 -0.0151 0.2286
H12 H 0.3415 -0.0515 0.1868
O1 O 0.0574(2) 0.3321(3) 0.22605(10)
H13 H 0.020(3) 0.240(4) 0.1983(14)
O2 O 0.4903(2) 0.2037(3) 0.10171(12)
H14 H 0.424(3) 0.123(4) 0.0808(15)
N1 N 0.0329(2) 0.1085(3) 0.12813(11)
H15 H -0.008(3) 0.013(3) 0.1339(13)
N2 N 0.2511(2) 0.0521(3) 0.06346(12)
H16 H 0.242(3) -0.048(3) 0.0548(14)
loop_
_geom_bond_atom_site_label_1
_geom_bond_atom_site_label_2
_geom_bond_site_symmetry_1
_geom_bond_site_symmetry_2
C1 C2 1_555 1_555
C2 H1 1_555 1_555
C3 C2 1_555 1_555
H2 C3 1_555 1_555
C4 C3 1_555 1_555
H3 C4 1_555 1_555
C5 C4 1_555 1_555
C6 C5 1_555 1_555
H4 C6 1_555 1_555
C7 C6 1_555 1_555
H5 C7 1_555 1_555
C8 C7 1_555 1_555
H6 C8 1_555 1_555
C9 C8 1_555 1_555
C10 C1 1_555 1_555
C11 C12 1_555 1_555
C12 C13 1_555 1_555
C13 C14 1_555 1_555
C14 H7 1_555 1_555
C15 C14 1_555 1_555
H8 C15 1_555 1_555
C16 C15 1_555 1_555
H9 C16 1_555 1_555
C17 C12 1_555 1_555
C18 C11 1_555 1_555
H10 C18 1_555 1_555
H11 C18 1_555 1_555
H12 C18 1_555 1_555
O1 C13 1_555 1_555
H13 O1 1_555 1_555
O2 C17 1_555 1_555
H14 O2 1_555 1_555
N1 C1 1_555 1_555
H15 N1 1_555 1_555
N2 C9 1_555 1_555
H16 N2 1_555 1_555
C5 C10 1_555 1_555
C9 C10 1_555 1_555
C11 N1 1_555 1_555
C11 N2 1_555 1_555
C16 C17 1_555 1_555

#END
