
#######################################################################
#
#                 Cambridge Crystallographic Data Centre
#                                CCDC 
#
#######################################################################
#
# If this CIF has been generated from an entry in the Cambridge 
# Structural Database, then it will include bibliographic, chemical, 
# crystal, experimental, refinement or atomic coordinate data resulting 
# from the CCDC's data processing and validation procedures.
#
#######################################################################

data_FIBSEQ
_chemical_formula_moiety         'C16 H13 N1 O1 S1'
_chemical_name_systematic        
1-(((2-Thienylmethyl)iminio)methyl)naphthalen-2-olate
_symmetry_cell_setting           monoclinic
_symmetry_space_group_name_H-M   'P 21/c'
_symmetry_Int_Tables_number      14
_space_group_name_Hall           '-P 2ybc'
loop_
_symmetry_equiv_pos_site_id
_symmetry_equiv_pos_as_xyz
1 x,y,z
2 -x,1/2+y,1/2-z
3 -x,-y,-z
4 x,1/2-y,1/2+z
_cell_length_a                   9.8568(12)
_cell_length_b                   9.8036(10)
_cell_length_c                   13.8407(19)
_cell_angle_alpha                90
_cell_angle_beta                 108.520(10)
_cell_angle_gamma                90
_cell_volume                     1268.19
_exptl_crystal_colour            colorless
_exptl_crystal_description       plate
_cell_formula_units_Z            4
loop_
_atom_site_label
_atom_site_type_symbol
_atom_site_fract_x
_atom_site_fract_y
_atom_site_fract_z
O1 O 0.64540(17) 0.65605(19) 0.26735(14)
N1 N 0.3978(2) 0.5419(2) 0.18528(15)
H1 H 0.468(4) 0.602(4) 0.184(3)
C1 C 0.4325(2) 0.4660(2) 0.26718(17)
H2 H 0.3664 0.3977 0.2718
C2 C 0.2646(2) 0.5249(3) 0.10000(18)
H3 H 0.2574 0.4289 0.0767
H4 H 0.2690 0.5831 0.0426
C3 C 0.5601(2) 0.4778(2) 0.34870(17)
C4 C 0.6641(2) 0.5771(2) 0.34268(18)
C5 C 0.7956(2) 0.5841(3) 0.42741(19)
H5 H 0.8673 0.6476 0.4250
C6 C 0.8188(2) 0.5029(3) 0.50941(18)
H6 H 0.9065 0.5115 0.5634
C7 C 0.7171(2) 0.4046(2) 0.51856(17)
C8 C 0.7445(2) 0.3228(3) 0.60637(18)
H7 H 0.8326 0.3328 0.6598
C9 C 0.6475(3) 0.2297(3) 0.61631(19)
H8 H 0.6669 0.1754 0.6760
C10 C 0.5185(3) 0.2155(3) 0.5369(2)
H9 H 0.4503 0.1503 0.5428
C11 C 0.4885(2) 0.2937(3) 0.45062(17)
H10 H 0.3997 0.2820 0.3982
C12 C 0.5863(2) 0.3908(2) 0.43810(16)
C13 C 0.1322(2) 0.5606(3) 0.12615(17)
S1 S 0.06735(11) 0.71283(11) 0.11964(8)
C14 C -0.0638(3) 0.6789(4) 0.1534(3)
H11 H -0.1309 0.7465 0.1573
C15 C -0.0768(3) 0.5499(5) 0.1766(2)
H12 H -0.1527 0.5196 0.1997
C16 C 0.03805(13) 0.45209(13) 0.16413(9)
H13 H 0.0498 0.3566 0.1754
C17? C 0.06735(11) 0.71283(11) 0.11964(8)
H14? H 0.0998 0.7970 0.1009
S2? S 0.03805(13) 0.45209(13) 0.16413(9)
loop_
_geom_bond_atom_site_label_1
_geom_bond_atom_site_label_2
_geom_bond_site_symmetry_1
_geom_bond_site_symmetry_2
O1 C4 1_555 1_555
N1 H1 1_555 1_555
C1 N1 1_555 1_555
H2 C1 1_555 1_555
C2 N1 1_555 1_555
H3 C2 1_555 1_555
H4 C2 1_555 1_555
C3 C1 1_555 1_555
C4 C3 1_555 1_555
C5 C4 1_555 1_555
H5 C5 1_555 1_555
C6 C5 1_555 1_555
H6 C6 1_555 1_555
C7 C6 1_555 1_555
C8 C7 1_555 1_555
H7 C8 1_555 1_555
C9 C8 1_555 1_555
H8 C9 1_555 1_555
C10 C9 1_555 1_555
H9 C10 1_555 1_555
C11 C10 1_555 1_555
H10 C11 1_555 1_555
C12 C3 1_555 1_555
C13 C2 1_555 1_555
S1 C13 1_555 1_555
C14 S1 1_555 1_555
H11 C14 1_555 1_555
C15 C14 1_555 1_555
H12 C15 1_555 1_555
C16 C13 1_555 1_555
H13 C16 1_555 1_555
C7 C12 1_555 1_555
C11 C12 1_555 1_555
C15 C16 1_555 1_555

#END
