
#######################################################################
#
#                 Cambridge Crystallographic Data Centre
#                                CCDC 
#
#######################################################################
#
# If this CIF has been generated from an entry in the Cambridge 
# Structural Database, then it will include bibliographic, chemical, 
# crystal, experimental, refinement or atomic coordinate data resulting 
# from the CCDC's data processing and validation procedures.
#
#######################################################################

data_FIBVEU
_chemical_formula_moiety         'C33 H33 Br1 O4 S1 Se1'
_chemical_name_systematic        
'1-(4-t-butylphenyl)-3-[(4-methylphenyl)sulfonyl]-2-(phenylselanyl)propyl 4-bromobenzoate'
_symmetry_cell_setting           monoclinic
_symmetry_space_group_name_H-M   'P 21'
_symmetry_Int_Tables_number      4
_space_group_name_Hall           'P 2yb'
loop_
_symmetry_equiv_pos_site_id
_symmetry_equiv_pos_as_xyz
1 x,y,z
2 -x,1/2+y,-z
_cell_length_a                   7.9327(4)
_cell_length_b                   18.8397(9)
_cell_length_c                   22.3499(16)
_cell_angle_alpha                90
_cell_angle_beta                 100.199(5)
_cell_angle_gamma                90
_cell_volume                     3287.41
_exptl_crystal_description       block
_cell_formula_units_Z            4
loop_
_atom_site_label
_atom_site_type_symbol
_atom_site_fract_x
_atom_site_fract_y
_atom_site_fract_z
Br1 Br -0.7027(3) 1.01892(10) 0.90851(13)
Se1 Se -0.22698(15) 0.61480(7) 0.91331(7)
S1 S 0.2618(4) 0.65265(17) 0.84482(17)
O1 O -0.0997(9) 0.7586(4) 0.9427(4)
O2 O 0.0668(13) 0.8519(6) 0.9418(8)
O3 O 0.2693(14) 0.6701(5) 0.7832(4)
O4 O 0.3643(11) 0.6914(5) 0.8931(5)
C1 C -0.1908(15) 0.5226(7) 0.8846(7)
C2 C -0.2525(18) 0.5038(9) 0.8261(7)
H1 H -0.3081 0.5377 0.7995
C3 C -0.235(3) 0.4352(13) 0.8051(11)
H2 H -0.2817 0.4234 0.7652
C4 C -0.150(3) 0.3863(14) 0.8421(16)
H3 H -0.1294 0.3415 0.8274
C5 C -0.093(3) 0.4031(12) 0.9025(13)
H4 H -0.0407 0.3685 0.9293
C6 C -0.113(2) 0.4700(8) 0.9227(8)
H5 H -0.0736 0.4806 0.9634
C7 C 0.0118(12) 0.6481(5) 0.9177(5)
H6 H 0.0882 0.6100 0.9359
C8 C 0.0429(14) 0.6595(6) 0.8521(5)
H7 H 0.0009 0.7062 0.8384
H8 H -0.0228 0.6246 0.8258
C9 C 0.0479(14) 0.7117(5) 0.9572(5)
H9 H 0.1465 0.7362 0.9458
C10 C 0.0877(18) 0.6983(6) 1.0237(6)
C11 C 0.255(2) 0.6946(7) 1.0512(7)
H10 H 0.3381 0.7012 1.0273
C12 C 0.308(3) 0.6816(8) 1.1119(9)
H11 H 0.4230 0.6806 1.1293
C13 C 0.179(5) 0.6699(9) 1.1466(8)
C14 C 0.013(4) 0.6745(11) 1.1201(12)
H12 H -0.0726 0.6677 1.1431
C15 C -0.030(3) 0.6891(9) 1.0591(9)
H13 H -0.1451 0.6927 1.0418
C16 C 0.251(6) 0.6536(11) 1.2186(10)
C17 C 0.370(4) 0.7168(14) 1.2477(12)
H14 H 0.4773 0.7148 1.2337
H15 H 0.3892 0.7128 1.2912
H16 H 0.3144 0.7612 1.2359
C18 C 0.083(4) 0.6710(14) 1.2538(12)
H17 H 0.0383 0.7173 1.2423
H18 H 0.1198 0.6692 1.2970
H19 H -0.0051 0.6361 1.2419
C19 C 0.289(5) 0.5844(14) 1.2276(12)
H20 H 0.2061 0.5564 1.2011
H21 H 0.2858 0.5723 1.2691
H22 H 0.4010 0.5752 1.2189
C20 C -0.0746(16) 0.8274(7) 0.9374(6)
C21 C -0.2307(15) 0.8715(6) 0.9302(5)
C22 C -0.3903(15) 0.8430(7) 0.9279(6)
H23 H -0.4015 0.7941 0.9308
C23 C -0.5331(17) 0.8844(8) 0.9217(6)
H24 H -0.6411 0.8648 0.9210
C24 C -0.5101(19) 0.9578(8) 0.9163(6)
C25 C -0.351(2) 0.9877(7) 0.9190(6)
H25 H -0.3388 1.0366 0.9167
C26 C -0.2126(18) 0.9443(7) 0.9250(6)
H26 H -0.1043 0.9636 0.9257
C27 C 0.3045(14) 0.5607(6) 0.8561(6)
C28 C 0.2615(16) 0.5155(8) 0.8067(7)
H27 H 0.2177 0.5337 0.7684
C29 C 0.2833(18) 0.4465(8) 0.8146(8)
H28 H 0.2476 0.4163 0.7818
C30 C 0.356(2) 0.4181(8) 0.8689(9)
C31 C 0.4011(19) 0.4611(10) 0.9171(8)
H29 H 0.4486 0.4420 0.9547
C32 C 0.3764(16) 0.5360(8) 0.9107(7)
H30 H 0.4091 0.5665 0.9434
C33 C 0.387(6) 0.3380(14) 0.8789(12)
H31 H 0.2793 0.3140 0.8755
H32 H 0.4532 0.3302 0.9187
H33 H 0.4487 0.3200 0.8488
Br2 Br 0.0079(3) -0.01948(10) 0.63096(13)
Se2 Se 0.42165(14) 0.38812(7) 0.58240(7)
S2 S 0.9846(4) 0.35183(17) 0.62478(18)
O5 O 0.5113(9) 0.2413(3) 0.5531(3)
O6 O 0.7104(12) 0.1567(5) 0.5693(6)
O7 O 1.0218(10) 0.3125(5) 0.5749(5)
O8 O 1.0801(12) 0.3364(5) 0.6845(5)
C34 C 0.4847(13) 0.4834(6) 0.6028(6)
C35 C 0.5455(17) 0.5286(7) 0.5651(6)
H34 H 0.5640 0.5118 0.5276
C36 C 0.5813(17) 0.5981(7) 0.5795(7)
H35 H 0.6277 0.6273 0.5530
C37 C 0.5486(17) 0.6237(7) 0.6321(7)
H36 H 0.5680 0.6716 0.6411
C38 C 0.4876(18) 0.5813(8) 0.6729(7)
H37 H 0.4654 0.5992 0.7095
C39 C 0.4593(16) 0.5090(7) 0.6573(6)
H38 H 0.4225 0.4784 0.6850
C40 C 0.6465(13) 0.3549(5) 0.5677(5)
H39 H 0.6965 0.3921 0.5457
C41 C 0.7627(14) 0.3435(6) 0.6283(5)
H40 H 0.7420 0.2965 0.6432
H41 H 0.7336 0.3777 0.6572
C42 C 0.6221(12) 0.2888(5) 0.5280(5)
H42 H 0.7336 0.2657 0.5298
C43 C 0.5471(17) 0.3030(5) 0.4624(6)
C44 C 0.657(2) 0.3131(6) 0.4217(7)
H43 H 0.7753 0.3125 0.4341
C45 C 0.580(4) 0.3245(7) 0.3593(8)
H44 H 0.6541 0.3315 0.3319
C46 C 0.417(3) 0.3260(8) 0.3375(8)
C47 C 0.311(3) 0.3160(7) 0.3806(8)
H45 H 0.1927 0.3173 0.3675
C48 C 0.3718(19) 0.3047(7) 0.4406(6)
H46 H 0.2955 0.2979 0.4672
C49 C 0.357(4) 0.3349(9) 0.2728(9)
C50 C 0.393(5) 0.3978(13) 0.2483(9)
H47 H 0.3718 0.4359 0.2746
H48 H 0.3212 0.4036 0.2092
H49 H 0.5109 0.3986 0.2437
C51 C 0.144(5) 0.3432(13) 0.2581(10)
H50 H 0.0923 0.2979 0.2624
H51 H 0.1087 0.3602 0.2174
H52 H 0.1090 0.3763 0.2862
C52 C 0.370(5) 0.2704(12) 0.2379(9)
H53 H 0.4888 0.2597 0.2383
H54 H 0.3131 0.2773 0.1967
H55 H 0.3176 0.2318 0.2557
C53 C 0.5674(14) 0.1756(5) 0.5685(5)
C54 C 0.4319(15) 0.1315(5) 0.5875(5)
C55 C 0.4648(18) 0.0596(6) 0.5985(6)
H56 H 0.5725 0.0414 0.5963
C56 C 0.340(2) 0.0158(6) 0.6124(6)
H57 H 0.3626 -0.0323 0.6196
C57 C 0.184(2) 0.0430(7) 0.6157(7)
C58 C 0.1453(18) 0.1140(8) 0.6064(7)
H58 H 0.0380 0.1318 0.6098
C59 C 0.2719(16) 0.1580(6) 0.5918(6)
H59 H 0.2491 0.2060 0.5847
C60 C 1.0061(14) 0.4439(7) 0.6119(7)
C61 C 1.0291(14) 0.4659(7) 0.5545(7)
H60 H 1.0316 0.4332 0.5234
C62 C 1.0482(17) 0.5384(8) 0.5449(8)
H61 H 1.0689 0.5536 0.5073
C63 C 1.0379(19) 0.5859(8) 0.5873(10)
C64 C 1.0095(18) 0.5634(8) 0.6421(10)
H62 H 1.0013 0.5972 0.6719
C65 C 0.9916(16) 0.4909(7) 0.6564(7)
H63 H 0.9710 0.4764 0.6942
C66 C 1.062(2) 0.6642(8) 0.5761(10)
H64 H 0.9855 0.6913 0.5960
H65 H 1.0374 0.6735 0.5332
H66 H 1.1781 0.6775 0.5920
loop_
_geom_bond_atom_site_label_1
_geom_bond_atom_site_label_2
_geom_bond_site_symmetry_1
_geom_bond_site_symmetry_2
Br1 C24 1_555 1_555
Se1 C1 1_555 1_555
S1 O3 1_555 1_555
O1 C9 1_555 1_555
O2 C20 1_555 1_555
O4 S1 1_555 1_555
C1 C2 1_555 1_555
C2 H1 1_555 1_555
C3 C2 1_555 1_555
H2 C3 1_555 1_555
C4 C3 1_555 1_555
H3 C4 1_555 1_555
C5 C4 1_555 1_555
H4 C5 1_555 1_555
C6 C1 1_555 1_555
H5 C6 1_555 1_555
C7 Se1 1_555 1_555
H6 C7 1_555 1_555
C8 S1 1_555 1_555
H7 C8 1_555 1_555
H8 C8 1_555 1_555
C9 C7 1_555 1_555
H9 C9 1_555 1_555
C10 C9 1_555 1_555
C11 C10 1_555 1_555
H10 C11 1_555 1_555
C12 C11 1_555 1_555
H11 C12 1_555 1_555
C13 C12 1_555 1_555
C14 C13 1_555 1_555
H12 C14 1_555 1_555
C15 C10 1_555 1_555
H13 C15 1_555 1_555
C16 C13 1_555 1_555
C17 C16 1_555 1_555
H14 C17 1_555 1_555
H15 C17 1_555 1_555
H16 C17 1_555 1_555
C18 C16 1_555 1_555
H17 C18 1_555 1_555
H18 C18 1_555 1_555
H19 C18 1_555 1_555
C19 C16 1_555 1_555
H20 C19 1_555 1_555
H21 C19 1_555 1_555
H22 C19 1_555 1_555
C20 O1 1_555 1_555
C21 C20 1_555 1_555
C22 C21 1_555 1_555
H23 C22 1_555 1_555
C23 C22 1_555 1_555
H24 C23 1_555 1_555
C24 C23 1_555 1_555
C25 C24 1_555 1_555
H25 C25 1_555 1_555
C26 C21 1_555 1_555
H26 C26 1_555 1_555
C27 S1 1_555 1_555
C28 C27 1_555 1_555
H27 C28 1_555 1_555
C29 C28 1_555 1_555
H28 C29 1_555 1_555
C30 C29 1_555 1_555
C31 C30 1_555 1_555
H29 C31 1_555 1_555
C32 C27 1_555 1_555
H30 C32 1_555 1_555
C33 C30 1_555 1_555
H31 C33 1_555 1_555
H32 C33 1_555 1_555
H33 C33 1_555 1_555
Br2 C57 1_555 1_555
Se2 C34 1_555 1_555
S2 O7 1_555 1_555
O5 C42 1_555 1_555
O6 C53 1_555 1_555
O8 S2 1_555 1_555
C34 C35 1_555 1_555
C35 H34 1_555 1_555
C36 C35 1_555 1_555
H35 C36 1_555 1_555
C37 C36 1_555 1_555
H36 C37 1_555 1_555
C38 C37 1_555 1_555
H37 C38 1_555 1_555
C39 C34 1_555 1_555
H38 C39 1_555 1_555
C40 Se2 1_555 1_555
H39 C40 1_555 1_555
C41 S2 1_555 1_555
H40 C41 1_555 1_555
H41 C41 1_555 1_555
C42 C40 1_555 1_555
H42 C42 1_555 1_555
C43 C42 1_555 1_555
C44 C43 1_555 1_555
H43 C44 1_555 1_555
C45 C44 1_555 1_555
H44 C45 1_555 1_555
C46 C45 1_555 1_555
C47 C46 1_555 1_555
H45 C47 1_555 1_555
C48 C43 1_555 1_555
H46 C48 1_555 1_555
C49 C46 1_555 1_555
C50 C49 1_555 1_555
H47 C50 1_555 1_555
H48 C50 1_555 1_555
H49 C50 1_555 1_555
C51 C49 1_555 1_555
H50 C51 1_555 1_555
H51 C51 1_555 1_555
H52 C51 1_555 1_555
C52 C49 1_555 1_555
H53 C52 1_555 1_555
H54 C52 1_555 1_555
H55 C52 1_555 1_555
C53 O5 1_555 1_555
C54 C53 1_555 1_555
C55 C54 1_555 1_555
H56 C55 1_555 1_555
C56 C55 1_555 1_555
H57 C56 1_555 1_555
C57 C56 1_555 1_555
C58 C57 1_555 1_555
H58 C58 1_555 1_555
C59 C54 1_555 1_555
H59 C59 1_555 1_555
C60 S2 1_555 1_555
C61 C60 1_555 1_555
H60 C61 1_555 1_555
C62 C61 1_555 1_555
H61 C62 1_555 1_555
C63 C62 1_555 1_555
C64 C63 1_555 1_555
H62 C64 1_555 1_555
C65 C60 1_555 1_555
H63 C65 1_555 1_555
C66 C63 1_555 1_555
H64 C66 1_555 1_555
H65 C66 1_555 1_555
H66 C66 1_555 1_555
C5 C6 1_555 1_555
C7 C8 1_555 1_555
C14 C15 1_555 1_555
C25 C26 1_555 1_555
C31 C32 1_555 1_555
C38 C39 1_555 1_555
C40 C41 1_555 1_555
C47 C48 1_555 1_555
C58 C59 1_555 1_555
C64 C65 1_555 1_555

#END
