
#######################################################################
#
#                 Cambridge Crystallographic Data Centre
#                                CCDC 
#
#######################################################################
#
# If this CIF has been generated from an entry in the Cambridge 
# Structural Database, then it will include bibliographic, chemical, 
# crystal, experimental, refinement or atomic coordinate data resulting 
# from the CCDC's data processing and validation procedures.
#
#######################################################################

data_FICBIE
_chemical_formula_moiety         'C6 H10 O4,2(C8 H8 N2 S1)'
_chemical_name_systematic        
'Hexanedioic acid 4-methyl-1,3-benzothiazol-2-amine'
_symmetry_cell_setting           monoclinic
_symmetry_space_group_name_H-M   'P 21/n'
_symmetry_Int_Tables_number      14
_space_group_name_Hall           '-P 2yn'
loop_
_symmetry_equiv_pos_site_id
_symmetry_equiv_pos_as_xyz
1 x,y,z
2 1/2-x,1/2+y,1/2-z
3 -x,-y,-z
4 1/2+x,1/2-y,1/2+z
_cell_length_a                   15.218(2)
_cell_length_b                   7.235(4)
_cell_length_c                   21.282(3)
_cell_angle_alpha                90
_cell_angle_beta                 95.068(4)
_cell_angle_gamma                90
_cell_volume                     2334.04
_cell_formula_units_Z            4
loop_
_atom_site_label
_atom_site_type_symbol
_atom_site_fract_x
_atom_site_fract_y
_atom_site_fract_z
S1 S 0.79712(3) -0.47788(7) 0.36091(2)
N1 N 0.76119(9) -0.1544(3) 0.30180(7)
H1 H 0.7345 -0.0500 0.2966
H2 H 0.7988 -0.1881 0.2762
C1 C 0.74422(11) -0.2642(3) 0.34983(8)
N2 N 0.68747(9) -0.2215(2) 0.39091(7)
C2 C 0.68232(11) -0.3653(3) 0.43470(8)
C3 C 0.62817(12) -0.3640(3) 0.48495(8)
C4 C 0.68201(14) -0.6744(3) 0.51212(10)
H3 H 0.6806 -0.7768 0.5384
C5 C 0.73575(12) -0.5185(3) 0.42509(9)
C6 C 0.73601(13) -0.6752(3) 0.46312(10)
H4 H 0.7712 -0.7767 0.4558
C7 C 0.57155(13) -0.1997(3) 0.49640(9)
H5 H 0.6076 -0.0906 0.5002
H6 H 0.5435 -0.2178 0.5346
H7 H 0.5273 -0.1855 0.4617
C8 C 0.62958(13) -0.5207(3) 0.52238(10)
H8 H 0.5941 -0.5237 0.5558
S2 S 0.24036(3) 1.59273(8) 0.14153(2)
N3 N 0.37418(9) 1.3660(2) 0.14513(7)
C9 C 0.47962(12) 1.5498(3) 0.08702(8)
C10 C 0.29425(12) 1.3858(3) 0.16329(9)
N4 N 0.25302(10) 1.2567(3) 0.19534(8)
H9 H 0.2790 1.1538 0.2052
H10 H 0.2007 1.2771 0.2060
C11 C 0.39757(12) 1.5225(3) 0.11183(8)
C12 C 0.33395(12) 1.6619(3) 0.10565(9)
C13 C 0.49220(13) 1.7179(3) 0.05808(9)
H11 H 0.5457 1.7393 0.0414
C14 C 0.55040(12) 1.4043(3) 0.09373(9)
H12 H 0.5248 1.2854 0.0838
H13 H 0.5771 1.4037 0.1363
H14 H 0.5944 1.4310 0.0654
C15 C 0.34763(13) 1.8295(3) 0.07614(9)
H15 H 0.3040 1.9198 0.0723
C16 C 0.42821(14) 1.8570(3) 0.05275(10)
H16 H 0.4400 1.9684 0.0334
O1 O 0.48283(8) 1.0931(2) 0.18963(7)
H17 H 0.4453 1.1730 0.1816
O2 O 0.65208(8) 0.17311(19) 0.30118(6)
O3 O 0.37570(9) 0.9651(2) 0.23992(7)
C17 C 0.48272(12) 0.6534(3) 0.27896(9)
H18 H 0.4242 0.6106 0.2638
H19 H 0.4796 0.7049 0.3208
C18 C 0.58924(11) 0.1848(3) 0.33332(8)
C19 C 0.54666(11) 0.4911(3) 0.28249(8)
H20 H 0.5453 0.4339 0.2412
H21 H 0.6059 0.5375 0.2931
C20 C 0.51223(11) 0.8022(3) 0.23499(9)
H22 H 0.5682 0.8513 0.2529
H23 H 0.5223 0.7449 0.1951
C21 C 0.44971(12) 0.9600(3) 0.22220(8)
C22 C 0.52674(12) 0.3447(3) 0.33051(9)
H24 H 0.5287 0.4015 0.3719
H25 H 0.4673 0.2990 0.3202
O4 O 0.57097(8) 0.0576(2) 0.37404(6)
H26 H 0.6082 -0.0245 0.3747
loop_
_geom_bond_atom_site_label_1
_geom_bond_atom_site_label_2
_geom_bond_site_symmetry_1
_geom_bond_site_symmetry_2
S1 C1 1_555 1_555
N1 H1 1_555 1_555
H2 N1 1_555 1_555
C1 N1 1_555 1_555
N2 C1 1_555 1_555
C2 N2 1_555 1_555
C3 C2 1_555 1_555
C4 H3 1_555 1_555
C5 S1 1_555 1_555
C6 C4 1_555 1_555
H4 C6 1_555 1_555
C7 C3 1_555 1_555
H5 C7 1_555 1_555
H6 C7 1_555 1_555
H7 C7 1_555 1_555
C8 C3 1_555 1_555
H8 C8 1_555 1_555
S2 C10 1_555 1_555
N3 C10 1_555 1_555
C9 C11 1_555 1_555
C10 N4 1_555 1_555
N4 H9 1_555 1_555
H10 N4 1_555 1_555
C11 N3 1_555 1_555
C12 S2 1_555 1_555
C13 C9 1_555 1_555
H11 C13 1_555 1_555
C14 C9 1_555 1_555
H12 C14 1_555 1_555
H13 C14 1_555 1_555
H14 C14 1_555 1_555
C15 C12 1_555 1_555
H15 C15 1_555 1_555
C16 C13 1_555 1_555
H16 C16 1_555 1_555
O1 H17 1_555 1_555
O2 C18 1_555 1_555
O3 C21 1_555 1_555
C17 H18 1_555 1_555
H19 C17 1_555 1_555
C18 C22 1_555 1_555
C19 C17 1_555 1_555
H20 C19 1_555 1_555
H21 C19 1_555 1_555
C20 C17 1_555 1_555
H22 C20 1_555 1_555
H23 C20 1_555 1_555
C21 O1 1_555 1_555
C22 C19 1_555 1_555
H24 C22 1_555 1_555
H25 C22 1_555 1_555
O4 C18 1_555 1_555
H26 O4 1_555 1_555
C2 C5 1_555 1_555
C4 C8 1_555 1_555
C5 C6 1_555 1_555
C11 C12 1_555 1_555
C15 C16 1_555 1_555
C20 C21 1_555 1_555

#END
