
#######################################################################
#
#                 Cambridge Crystallographic Data Centre
#                                CCDC 
#
#######################################################################
#
# If this CIF has been generated from an entry in the Cambridge 
# Structural Database, then it will include bibliographic, chemical, 
# crystal, experimental, refinement or atomic coordinate data resulting 
# from the CCDC's data processing and validation procedures.
#
#######################################################################

data_FICBEB
_chemical_formula_moiety         'C16 H18 N1 1+,B1 F4 1-'
_chemical_name_systematic        
'4-(cyclohexylidenemethyl)quinolizin-5-ium tetrafluoroborate'
_symmetry_cell_setting           monoclinic
_symmetry_space_group_name_H-M   'P 21/n'
_symmetry_Int_Tables_number      14
_space_group_name_Hall           '-P 2yn'
loop_
_symmetry_equiv_pos_site_id
_symmetry_equiv_pos_as_xyz
1 x,y,z
2 1/2-x,1/2+y,1/2-z
3 -x,-y,-z
4 1/2+x,1/2-y,1/2+z
_cell_length_a                   12.9618(6)
_cell_length_b                   9.9513(4)
_cell_length_c                   13.2243(7)
_cell_angle_alpha                90
_cell_angle_beta                 118.4200(10)
_cell_angle_gamma                90
_cell_volume                     1500.19
_exptl_crystal_colour            colorless
_exptl_crystal_description       block
_cell_formula_units_Z            4
loop_
_atom_site_label
_atom_site_type_symbol
_atom_site_fract_x
_atom_site_fract_y
_atom_site_fract_z
N1 N 1.1732(2) -0.1975(3) 0.4836(2)
C1 C 1.2845(3) -0.2542(4) 0.5484(3)
C2 C 1.2932(3) -0.3904(4) 0.5615(3)
H1 H 1.3682 -0.4300 0.6063
C3 C 1.0737(3) -0.2780(4) 0.4352(3)
C4 C 1.1615(3) -0.0594(4) 0.4642(3)
H2 H 1.2298 -0.0047 0.4950
C5 C 1.0564(3) -0.0021(4) 0.4032(3)
H3 H 1.0509 0.0922 0.3908
C6 C 0.9632(3) -0.2161(5) 0.3729(3)
H4 H 0.8945 -0.2701 0.3415
C7 C 1.1945(3) -0.4730(4) 0.5108(3)
H5 H 1.2028 -0.5677 0.5197
C8 C 1.0868(3) -0.4177(4) 0.4488(3)
H6 H 1.0197 -0.4741 0.4142
C9 C 1.6951(3) -0.1623(4) 0.7262(3)
H7 H 1.7636 -0.1015 0.7628
H8 H 1.6874 -0.2095 0.7882
C10 C 1.4807(3) -0.1699(3) 0.5892(3)
C11 C 1.7167(3) -0.2640(4) 0.6541(4)
H9 H 1.7851 -0.3202 0.7044
H10 H 1.7352 -0.2168 0.5989
C12 C 1.3857(3) -0.1624(3) 0.6018(3)
H11 H 1.3824 -0.0923 0.6490
C13 C 1.5846(3) -0.0787(4) 0.6557(3)
H12 H 1.5690 -0.0206 0.7077
H13 H 1.5966 -0.0201 0.6018
C14 C 1.5015(3) -0.2676(4) 0.5150(3)
H14 H 1.5135 -0.2183 0.4564
H15 H 1.4320 -0.3263 0.4747
C15 C 1.6098(3) -0.3538(4) 0.5885(4)
H16 H 1.5957 -0.4079 0.6435
H17 H 1.6245 -0.4162 0.5385
C16 C 0.9526(3) -0.0814(5) 0.3567(3)
H18 H 0.8776 -0.0408 0.3152
F1 F 1.3228(2) 0.2935(3) 0.7814(2)
F2 F 1.3338(3) 0.0724(4) 0.7530(3)
F3 F 1.4852(3) 0.1963(4) 0.7920(4)
F4 F 1.3074(4) 0.2034(5) 0.6170(3)
B1 B 1.3682(4) 0.2082(6) 0.7323(5)
F5? F 1.4140(11) 0.3252(10) 0.6818(9)
loop_
_geom_bond_atom_site_label_1
_geom_bond_atom_site_label_2
_geom_bond_site_symmetry_1
_geom_bond_site_symmetry_2
N1 C1 1_555 1_555
C1 C2 1_555 1_555
C2 H1 1_555 1_555
C3 N1 1_555 1_555
C4 N1 1_555 1_555
H2 C4 1_555 1_555
C5 C4 1_555 1_555
H3 C5 1_555 1_555
C6 C3 1_555 1_555
H4 C6 1_555 1_555
C7 C2 1_555 1_555
H5 C7 1_555 1_555
C8 C3 1_555 1_555
H6 C8 1_555 1_555
C9 H7 1_555 1_555
H8 C9 1_555 1_555
C10 C12 1_555 1_555
C11 C9 1_555 1_555
H9 C11 1_555 1_555
H10 C11 1_555 1_555
C12 C1 1_555 1_555
H11 C12 1_555 1_555
C13 C9 1_555 1_555
H12 C13 1_555 1_555
H13 C13 1_555 1_555
C14 C10 1_555 1_555
H14 C14 1_555 1_555
H15 C14 1_555 1_555
C15 C11 1_555 1_555
H16 C15 1_555 1_555
H17 C15 1_555 1_555
C16 C5 1_555 1_555
H18 C16 1_555 1_555
F1 B1 1_555 1_555
F2 B1 1_555 1_555
F3 B1 1_555 1_555
F4 B1 1_555 1_555
C6 C16 1_555 1_555
C7 C8 1_555 1_555
C10 C13 1_555 1_555
C14 C15 1_555 1_555

#END
