
#######################################################################
#
#                 Cambridge Crystallographic Data Centre
#                                CCDC 
#
#######################################################################
#
# If this CIF has been generated from an entry in the Cambridge 
# Structural Database, then it will include bibliographic, chemical, 
# crystal, experimental, refinement or atomic coordinate data resulting 
# from the CCDC's data processing and validation procedures.
#
#######################################################################

data_FICDOL
_chemical_formula_moiety         'C22 H22 Cl1 N1 O3 S1'
_chemical_name_systematic        
"(1S,2S)-2-amino-2-(4'-chlorophenyl)-1-phenylethyl-N-tosyl methyl ether"
_symmetry_cell_setting           orthorhombic
_symmetry_space_group_name_H-M   'P 21 21 21'
_symmetry_Int_Tables_number      19
_space_group_name_Hall           'P 2ac 2ab'
loop_
_symmetry_equiv_pos_site_id
_symmetry_equiv_pos_as_xyz
1 x,y,z
2 1/2-x,-y,1/2+z
3 -x,1/2+y,1/2-z
4 1/2+x,1/2-y,-z
_cell_length_a                   9.5309(3)
_cell_length_b                   14.7548(5)
_cell_length_c                   15.0496(4)
_cell_angle_alpha                90
_cell_angle_beta                 90
_cell_angle_gamma                90
_cell_volume                     2116.37
_chemical_melting_point          186-189deg.C
_cell_formula_units_Z            4
loop_
_atom_site_label
_atom_site_type_symbol
_atom_site_fract_x
_atom_site_fract_y
_atom_site_fract_z
Cl1 Cl -0.01897(19) -1.23239(10) -0.02147(12)
S1 S -0.07723(14) -0.73029(9) -0.03180(9)
O1 O -0.1818(3) -0.6641(2) -0.0563(2)
O2 O 0.0590(3) -0.70070(18) -0.0043(2)
O3 O -0.2674(4) -0.8667(2) 0.1916(2)
N1 N -0.1431(4) -0.7858(2) 0.0494(2)
H1 H -0.2312 -0.7794 0.0602
C1 C 0.0143(6) -0.9648(3) -0.3568(3)
H2 H 0.1003 -0.9982 -0.3505
H3 H 0.0212 -0.9251 -0.4072
H4 H -0.0620 -1.0063 -0.3655
C2 C -0.0115(7) -0.9096(4) -0.2739(4)
C3 C -0.1302(6) -0.8549(4) -0.2657(4)
H5 H -0.1957 -0.8537 -0.3115
C4 C -0.1522(5) -0.8031(4) -0.1919(4)
H6 H -0.2328 -0.7680 -0.1871
C5 C -0.0536(5) -0.8031(3) -0.1240(3)
C6 C 0.0645(6) -0.8563(3) -0.1294(3)
H7 H 0.1305 -0.8569 -0.0839
C7 C 0.0821(6) -0.9092(3) -0.2051(4)
H8 H 0.1611 -0.9460 -0.2091
C8 C -0.0623(5) -0.8467(3) 0.1064(3)
H9 H 0.0339 -0.8234 0.1086
C9 C -0.0546(6) -0.9441(3) 0.0738(3)
C10 C 0.0673(6) -0.9940(4) 0.0874(3)
H10 H 0.1437 -0.9673 0.1155
C11 C 0.0755(7) -1.0829(4) 0.0597(3)
H11 H 0.1567 -1.1162 0.0700
C12 C -0.0359(7) -1.1220(4) 0.0169(4)
C13 C -0.1580(6) -1.0757(4) 0.0024(4)
H12 H -0.2340 -1.1032 -0.0254
C14 C -0.1648(5) -0.9859(4) 0.0308(3)
H13 H -0.2465 -0.9531 0.0203
C15 C -0.1253(6) -0.8373(4) 0.2014(3)
H14 H -0.1245 -0.7733 0.2187
C16 C -0.3541(6) -0.8416(4) 0.2664(4)
H15 H -0.4477 -0.8639 0.2574
H16 H -0.3562 -0.7768 0.2718
H17 H -0.3161 -0.8675 0.3197
C17 C -0.0470(6) -0.8913(4) 0.2697(4)
C18 C 0.0683(7) -0.8535(4) 0.3104(4)
H18 H 0.0948 -0.7946 0.2964
C19 C 0.1456(8) -0.9025(6) 0.3724(5)
H19 H 0.2244 -0.8765 0.3985
C20 C 0.1072(9) -0.9874(6) 0.3947(5)
H20 H 0.1581 -1.0200 0.4366
C21 C -0.0068(9) -1.0242(5) 0.3553(5)
H21 H -0.0345 -1.0824 0.3713
C22 C -0.0826(6) -0.9784(4) 0.2923(4)
H22 H -0.1584 -1.0064 0.2647
loop_
_geom_bond_atom_site_label_1
_geom_bond_atom_site_label_2
_geom_bond_site_symmetry_1
_geom_bond_site_symmetry_2
Cl1 C12 1_555 1_555
S1 O1 1_555 1_555
O2 S1 1_555 1_555
O3 C15 1_555 1_555
N1 S1 1_555 1_555
H1 N1 1_555 1_555
C1 H2 1_555 1_555
H3 C1 1_555 1_555
H4 C1 1_555 1_555
C2 C1 1_555 1_555
C3 C2 1_555 1_555
H5 C3 1_555 1_555
C4 C3 1_555 1_555
H6 C4 1_555 1_555
C5 S1 1_555 1_555
C6 C5 1_555 1_555
H7 C6 1_555 1_555
C7 C2 1_555 1_555
H8 C7 1_555 1_555
C8 N1 1_555 1_555
H9 C8 1_555 1_555
C9 C8 1_555 1_555
C10 C9 1_555 1_555
H10 C10 1_555 1_555
C11 C10 1_555 1_555
H11 C11 1_555 1_555
C12 C11 1_555 1_555
C13 C12 1_555 1_555
H12 C13 1_555 1_555
C14 C9 1_555 1_555
H13 C14 1_555 1_555
C15 C8 1_555 1_555
H14 C15 1_555 1_555
C16 O3 1_555 1_555
H15 C16 1_555 1_555
H16 C16 1_555 1_555
H17 C16 1_555 1_555
C17 C15 1_555 1_555
C18 C17 1_555 1_555
H18 C18 1_555 1_555
C19 C18 1_555 1_555
H19 C19 1_555 1_555
C20 C19 1_555 1_555
H20 C20 1_555 1_555
C21 C20 1_555 1_555
H21 C21 1_555 1_555
C22 C17 1_555 1_555
H22 C22 1_555 1_555
C4 C5 1_555 1_555
C6 C7 1_555 1_555
C13 C14 1_555 1_555
C21 C22 1_555 1_555

#END
