
#######################################################################
#
#                 Cambridge Crystallographic Data Centre
#                                CCDC 
#
#######################################################################
#
# If this CIF has been generated from an entry in the Cambridge 
# Structural Database, then it will include bibliographic, chemical, 
# crystal, experimental, refinement or atomic coordinate data resulting 
# from the CCDC's data processing and validation procedures.
#
#######################################################################

data_FICNUD
_chemical_formula_moiety         'C23 H9 F5 O1'
_chemical_name_systematic        (pentafluorophenyl)(pyren-1-yl)methanone
_symmetry_cell_setting           orthorhombic
_symmetry_space_group_name_H-M   'P 21 21 21'
_symmetry_Int_Tables_number      19
_space_group_name_Hall           'P 2ac 2ab'
loop_
_symmetry_equiv_pos_site_id
_symmetry_equiv_pos_as_xyz
1 x,y,z
2 1/2-x,-y,1/2+z
3 -x,1/2+y,1/2-z
4 1/2+x,1/2-y,-z
_cell_length_a                   7.9511(5)
_cell_length_b                   8.4125(7)
_cell_length_c                   24.0545(18)
_cell_angle_alpha                90
_cell_angle_beta                 90
_cell_angle_gamma                90
_cell_volume                     1608.97
_exptl_crystal_description       block
_cell_formula_units_Z            4
loop_
_atom_site_label
_atom_site_type_symbol
_atom_site_fract_x
_atom_site_fract_y
_atom_site_fract_z
C1 C 0.6111(4) 0.7737(4) 0.91931(14)
C2 C 0.6945(5) 0.6347(5) 0.90265(16)
H1 H 0.6976 0.5460 0.9271
C3 C 0.7718(5) 0.6243(4) 0.85157(16)
H2 H 0.8286 0.5292 0.8415
C4 C 0.7680(4) 0.7513(5) 0.81434(15)
C5 C 0.8408(5) 0.7418(5) 0.75957(15)
H3 H 0.8916 0.6450 0.7481
C6 C 0.8390(5) 0.8645(5) 0.72462(16)
H4 H 0.8881 0.8532 0.6888
C7 C 0.7641(5) 1.0134(5) 0.73997(16)
C8 C 0.7625(5) 1.1433(5) 0.70382(17)
H5 H 0.8120 1.1339 0.6680
C9 C 0.6899(5) 1.2848(5) 0.71964(17)
H6 H 0.6915 1.3727 0.6949
C10 C 0.6144(5) 1.3006(5) 0.77130(17)
H7 H 0.5649 1.3992 0.7815
C11 C 0.6102(5) 1.1730(4) 0.80855(16)
C12 C 0.5275(5) 1.1800(4) 0.86107(16)
H8 H 0.4718 1.2757 0.8712
C13 C 0.5246(5) 1.0568(4) 0.89707(16)
H9 H 0.4669 1.0674 0.9315
C14 C 0.6090(5) 0.9077(4) 0.88369(14)
C15 C 0.6887(4) 0.8963(4) 0.83055(14)
C16 C 0.6894(4) 1.0276(4) 0.79314(15)
C17 C 0.5331(5) 0.7757(4) 0.97530(15)
C18 C 0.5009(5) 0.6170(4) 1.00437(14)
C19 C 0.4006(5) 0.4968(4) 0.98262(15)
C20 C 0.3628(4) 0.3617(4) 1.01191(16)
C21 C 0.4266(4) 0.3414(4) 1.06460(16)
C22 C 0.5262(5) 0.4576(5) 1.08756(16)
C23 C 0.5613(4) 0.5925(4) 1.05782(15)
F1 F 0.3367(3) 0.5109(3) 0.93097(9)
F2 F 0.2640(3) 0.2482(3) 0.98983(10)
F3 F 0.3950(3) 0.2078(3) 1.09322(10)
F4 F 0.5909(3) 0.4376(3) 1.13873(9)
F5 F 0.6631(3) 0.7013(3) 1.08099(9)
O1 O 0.4951(4) 0.8950(3) 1.00087(11)
loop_
_geom_bond_atom_site_label_1
_geom_bond_atom_site_label_2
_geom_bond_site_symmetry_1
_geom_bond_site_symmetry_2
C1 C2 1_555 1_555
C2 H1 1_555 1_555
C3 C2 1_555 1_555
H2 C3 1_555 1_555
C4 C3 1_555 1_555
C5 C4 1_555 1_555
H3 C5 1_555 1_555
C6 C5 1_555 1_555
H4 C6 1_555 1_555
C7 C6 1_555 1_555
C8 C7 1_555 1_555
H5 C8 1_555 1_555
C9 C8 1_555 1_555
H6 C9 1_555 1_555
C10 C9 1_555 1_555
H7 C10 1_555 1_555
C11 C10 1_555 1_555
C12 C11 1_555 1_555
H8 C12 1_555 1_555
C13 C12 1_555 1_555
H9 C13 1_555 1_555
C14 C1 1_555 1_555
C15 C4 1_555 1_555
C16 C7 1_555 1_555
C17 C1 1_555 1_555
C18 C17 1_555 1_555
C19 C18 1_555 1_555
C20 C19 1_555 1_555
C21 C20 1_555 1_555
C22 C21 1_555 1_555
C23 C18 1_555 1_555
F1 C19 1_555 1_555
F2 C20 1_555 1_555
F3 C21 1_555 1_555
F4 C22 1_555 1_555
F5 C23 1_555 1_555
O1 C17 1_555 1_555
C11 C16 1_555 1_555
C13 C14 1_555 1_555
C14 C15 1_555 1_555
C15 C16 1_555 1_555
C22 C23 1_555 1_555

#END
