
#######################################################################
#
#                 Cambridge Crystallographic Data Centre
#                                CCDC 
#
#######################################################################
#
# If this CIF has been generated from an entry in the Cambridge 
# Structural Database, then it will include bibliographic, chemical, 
# crystal, experimental, refinement or atomic coordinate data resulting 
# from the CCDC's data processing and validation procedures.
#
#######################################################################

data_FICQOY
_chemical_formula_moiety         'C16 H19 P1 Se2'
_chemical_name_systematic        
'P-t-Butyl-P-phenylphosphinodiselenoic acid phenyl ester'
_symmetry_cell_setting           monoclinic
_symmetry_space_group_name_H-M   'P 21/n'
_symmetry_Int_Tables_number      14
_space_group_name_Hall           '-P 2yn'
loop_
_symmetry_equiv_pos_site_id
_symmetry_equiv_pos_as_xyz
1 x,y,z
2 1/2-x,1/2+y,1/2-z
3 -x,-y,-z
4 1/2+x,1/2-y,1/2+z
_cell_length_a                   7.510(1)
_cell_length_b                   13.032(2)
_cell_length_c                   17.576(2)
_cell_angle_alpha                90
_cell_angle_beta                 99.495(8)
_cell_angle_gamma                90
_cell_volume                     1696.6
_exptl_crystal_colour            colorless
_exptl_crystal_description       block
_chemical_melting_point          95-98deg.C.(dec.)
_cell_formula_units_Z            4
loop_
_atom_site_label
_atom_site_type_symbol
_atom_site_fract_x
_atom_site_fract_y
_atom_site_fract_z
Se1 Se 0.35075(7) 0.46214(3) 0.83213(3)
Se2 Se 0.17618(6) 0.66927(3) 0.69878(2)
P1 P 0.2419(2) 0.61078(8) 0.82121(6)
C1 C 0.0171(6) 0.6247(3) 0.8519(2)
C2 C -0.0559(7) 0.7338(4) 0.8388(3)
C3 C 0.0408(8) 0.5982(5) 0.9375(3)
C4 C -0.1150(7) 0.5496(4) 0.8060(3)
C5 C 0.3875(5) 0.7050(3) 0.8765(2)
C6 C 0.4958(6) 0.6742(3) 0.9451(2)
C7 C 0.5994(6) 0.7442(4) 0.9909(2)
C8 C 0.6001(6) 0.8448(3) 0.9694(2)
C9 C 0.4976(6) 0.8764(3) 0.9016(2)
C10 C 0.3918(6) 0.8075(3) 0.8550(2)
C11 C 0.4023(5) 0.6479(3) 0.6635(2)
C12 C 0.5090(7) 0.7319(4) 0.6556(2)
C13 C 0.6575(7) 0.7204(4) 0.6183(3)
C14 C 0.6961(7) 0.6262(6) 0.5909(3)
C15 C 0.5906(8) 0.5430(4) 0.6012(3)
C16 C 0.4444(7) 0.5526(4) 0.6374(3)
H1 H 0.0375 0.7798 0.8574
H2 H -0.0968 0.7436 0.7858
H3 H -0.1535 0.7417 0.8667
H4 H 0.1568 0.6218 0.9619
H5 H -0.0498 0.6308 0.9601
H6 H 0.0344 0.5260 0.9439
H7 H -0.1003 0.5512 0.7508
H8 H -0.2347 0.5625 0.8085
H9 H -0.0855 0.4790 0.8218
H10 H 0.4982 0.6046 0.9602
H11 H 0.6719 0.7230 1.0377
H12 H 0.6718 0.8937 1.0012
H13 H 0.4987 0.9470 0.8870
H14 H 0.3216 0.8306 0.8084
H15 H 0.4796 0.7975 0.6746
H16 H 0.7326 0.7768 0.6124
H17 H 0.7945 0.6171 0.5638
H18 H 0.6199 0.4760 0.5839
H19 H 0.3704 0.4948 0.6441
loop_
_geom_bond_atom_site_label_1
_geom_bond_atom_site_label_2
_geom_bond_site_symmetry_1
_geom_bond_site_symmetry_2
Se1 P1 1_555 1_555
Se2 P1 1_555 1_555
P1 C1 1_555 1_555
C1 C2 1_555 1_555
C2 H1 1_555 1_555
C3 C1 1_555 1_555
C4 C1 1_555 1_555
C5 P1 1_555 1_555
C6 C5 1_555 1_555
C7 C6 1_555 1_555
C8 C7 1_555 1_555
C9 C8 1_555 1_555
C10 C5 1_555 1_555
C11 Se2 1_555 1_555
C12 C11 1_555 1_555
C13 C12 1_555 1_555
C14 C13 1_555 1_555
C15 C14 1_555 1_555
C16 C11 1_555 1_555
H2 C2 1_555 1_555
H3 C2 1_555 1_555
H4 C3 1_555 1_555
H5 C3 1_555 1_555
H6 C3 1_555 1_555
H7 C4 1_555 1_555
H8 C4 1_555 1_555
H9 C4 1_555 1_555
H10 C6 1_555 1_555
H11 C7 1_555 1_555
H12 C8 1_555 1_555
H13 C9 1_555 1_555
H14 C10 1_555 1_555
H15 C12 1_555 1_555
H16 C13 1_555 1_555
H17 C14 1_555 1_555
H18 C15 1_555 1_555
H19 C16 1_555 1_555
C9 C10 1_555 1_555
C15 C16 1_555 1_555

#END
