
#######################################################################
#
#                 Cambridge Crystallographic Data Centre
#                                CCDC 
#
#######################################################################
#
# If this CIF has been generated from an entry in the Cambridge 
# Structural Database, then it will include bibliographic, chemical, 
# crystal, experimental, refinement or atomic coordinate data resulting 
# from the CCDC's data processing and validation procedures.
#
#######################################################################

data_FICQIS
_chemical_formula_moiety         'C15 H27 P1 S1 Se1 Si1'
_chemical_name_systematic        
'P-t-Butyl-P-phenylphosphinoselenothioic acid S-(2-(trimethylsilyl)ethyl) ester'
_symmetry_cell_setting           monoclinic
_symmetry_space_group_name_H-M   'P 21/c'
_symmetry_Int_Tables_number      14
_space_group_name_Hall           '-P 2ybc'
loop_
_symmetry_equiv_pos_site_id
_symmetry_equiv_pos_as_xyz
1 x,y,z
2 -x,1/2+y,1/2-z
3 -x,-y,-z
4 x,1/2-y,1/2+z
_cell_length_a                   7.542(4)
_cell_length_b                   17.893(9)
_cell_length_c                   14.607(8)
_cell_angle_alpha                90
_cell_angle_beta                 96.622(6)
_cell_angle_gamma                90
_cell_volume                     1958.05
_exptl_crystal_colour            colorless
_exptl_crystal_description       block
_chemical_melting_point          45-47deg.C.(dec.)
_cell_formula_units_Z            4
loop_
_atom_site_label
_atom_site_type_symbol
_atom_site_fract_x
_atom_site_fract_y
_atom_site_fract_z
Se1 Se -0.03142(6) -0.41769(2) -0.13711(3)
S1 S 0.0554(1) -0.46793(5) -0.36142(6)
P1 P 0.0815(1) -0.49575(5) -0.22115(6)
Si1 Si -0.3830(1) -0.31286(6) -0.47269(7)
C1 C 0.3271(4) -0.5067(2) -0.1950(3)
C2 C 0.4011(5) -0.5580(2) -0.2643(3)
C3 C 0.3632(5) -0.5409(2) -0.0987(3)
C4 C 0.4126(6) -0.4294(2) -0.1973(4)
C5 C -0.0138(4) -0.5882(2) -0.2123(2)
C6 C -0.0289(5) -0.6376(2) -0.2855(2)
C7 C -0.0919(5) -0.7096(2) -0.2742(3)
C8 C -0.1404(5) -0.7314(2) -0.1907(4)
C9 C -0.1287(5) -0.6828(3) -0.1185(3)
C10 C -0.0663(4) -0.6111(2) -0.1291(2)
C11 C -0.1619(4) -0.4222(2) -0.3771(3)
C12 C -0.1794(4) -0.3736(2) -0.4604(2)
C13 C -0.5860(5) -0.3706(2) -0.4989(3)
C14 C -0.3891(5) -0.2627(2) -0.3623(3)
C15 C -0.3617(6) -0.2473(2) -0.5691(3)
H1 H 0.5159 -0.5765 -0.2406
H2 H 0.3229 -0.6029 -0.2730
H3 H 0.4031 -0.5355 -0.3208
H4 H 0.2983 -0.5181 -0.0560
H5 H 0.4889 -0.5392 -0.0771
H6 H 0.3320 -0.5944 -0.1014
H7 H 0.3520 -0.4009 -0.2509
H8 H 0.3884 -0.3996 -0.1442
H9 H 0.5326 -0.4299 -0.2023
H10 H 0.0072 -0.6221 -0.3457
H11 H -0.1008 -0.7449 -0.3252
H12 H -0.1870 -0.7822 -0.1830
H13 H -0.1622 -0.6990 -0.0576
H14 H -0.0596 -0.5757 -0.0782
H15 H -0.1771 -0.3918 -0.3227
H16 H -0.2560 -0.4587 -0.3815
H17 H -0.0725 -0.3422 -0.4582
H18 H -0.1777 -0.4049 -0.5142
H19 H -0.6113 -0.3969 -0.4444
H20 H -0.5689 -0.4066 -0.5452
H21 H -0.6856 -0.3401 -0.5195
H22 H -0.2738 -0.2523 -0.3332
H23 H -0.4538 -0.2909 -0.3210
H24 H -0.4523 -0.2153 -0.3730
H25 H -0.2555 -0.2555 -0.5966
H26 H -0.4619 -0.2515 -0.6160
H27 H -0.3601 -0.1958 -0.5475
loop_
_geom_bond_atom_site_label_1
_geom_bond_atom_site_label_2
_geom_bond_site_symmetry_1
_geom_bond_site_symmetry_2
Se1 P1 1_555 1_555
S1 P1 1_555 1_555
P1 C1 1_555 1_555
Si1 C12 1_555 1_555
C1 C2 1_555 1_555
C2 H1 1_555 1_555
C3 C1 1_555 1_555
C4 C1 1_555 1_555
C5 P1 1_555 1_555
C6 C5 1_555 1_555
C7 C6 1_555 1_555
C8 C7 1_555 1_555
C9 C8 1_555 1_555
C10 C5 1_555 1_555
C11 S1 1_555 1_555
C12 C11 1_555 1_555
C13 Si1 1_555 1_555
C14 Si1 1_555 1_555
C15 Si1 1_555 1_555
H2 C2 1_555 1_555
H3 C2 1_555 1_555
H4 C3 1_555 1_555
H5 C3 1_555 1_555
H6 C3 1_555 1_555
H7 C4 1_555 1_555
H8 C4 1_555 1_555
H9 C4 1_555 1_555
H10 C6 1_555 1_555
H11 C7 1_555 1_555
H12 C8 1_555 1_555
H13 C9 1_555 1_555
H14 C10 1_555 1_555
H15 C11 1_555 1_555
H16 C11 1_555 1_555
H17 C12 1_555 1_555
H18 C12 1_555 1_555
H19 C13 1_555 1_555
H20 C13 1_555 1_555
H21 C13 1_555 1_555
H22 C14 1_555 1_555
H23 C14 1_555 1_555
H24 C14 1_555 1_555
H25 C15 1_555 1_555
H26 C15 1_555 1_555
H27 C15 1_555 1_555
C9 C10 1_555 1_555

#END
