
#######################################################################
#
#                 Cambridge Crystallographic Data Centre
#                                CCDC 
#
#######################################################################
#
# If this CIF has been generated from an entry in the Cambridge 
# Structural Database, then it will include bibliographic, chemical, 
# crystal, experimental, refinement or atomic coordinate data resulting 
# from the CCDC's data processing and validation procedures.
#
#######################################################################

data_FICTOD
_chemical_formula_moiety         'C46 H51 N3 O1 1+,C24 B1 F20 1-'
_chemical_name_systematic        
'1,3-bis[2,6-bis(propan-2-yl)phenyl]-N-(triphenylmethoxy)-1,3-dihydro-2H-imidazol-2-iminium tetrakis(pentafluorophenyl)borate'
_symmetry_cell_setting           monoclinic
_symmetry_space_group_name_H-M   'P 21/c'
_symmetry_Int_Tables_number      14
_space_group_name_Hall           '-P 2ybc'
loop_
_symmetry_equiv_pos_site_id
_symmetry_equiv_pos_as_xyz
1 x,y,z
2 -x,1/2+y,1/2-z
3 -x,-y,-z
4 x,1/2-y,1/2+z
_cell_length_a                   18.811(4)
_cell_length_b                   12.397(3)
_cell_length_c                   27.524(6)
_cell_angle_alpha                90
_cell_angle_beta                 107.76(3)
_cell_angle_gamma                90
_cell_volume                     6112.7
_exptl_crystal_colour            'dark red'
_exptl_crystal_description       block
_cell_formula_units_Z            4
loop_
_atom_site_label
_atom_site_type_symbol
_atom_site_fract_x
_atom_site_fract_y
_atom_site_fract_z
F1 F 0.12990(4) 0.11252(5) 0.64048(3)
F2 F 0.08062(4) 0.31423(6) 0.59237(3)
F3 F 0.09377(4) 0.45226(5) 0.67720(3)
F4 F 0.21725(4) 0.38956(5) 0.76283(3)
F5 F 0.06895(4) 0.01480(5) 0.70322(3)
F6 F 0.33489(4) 0.24785(6) 0.60707(3)
F7 F 0.28756(4) 0.10483(5) 0.67549(3)
F8 F 0.35171(4) 0.45914(6) 0.73862(3)
F9 F 0.07664(4) 0.10290(7) 0.79560(3)
F10 F 0.32017(4) 0.47108(6) 0.63555(3)
F11 F 0.15046(5) 0.29391(7) 0.82377(3)
F12 F 0.04389(5) 0.27733(6) 0.49237(3)
F13 F 0.07037(5) 0.65964(6) 0.65439(3)
F14 F 0.29669(5) 0.21482(6) 0.50776(3)
F15 F 0.48426(4) 0.38728(7) 0.79412(3)
F16 F 0.41919(5) 0.03480(6) 0.73352(4)
F17 F 0.15352(6) 0.22975(7) 0.44827(3)
F18 F 0.16985(6) 0.77729(6) 0.62343(3)
F19 F 0.29692(6) 0.68148(7) 0.61567(3)
F20 F 0.52069(4) 0.17548(8) 0.79364(4)
C1 C 0.17850(6) 0.29778(8) 0.74559(4)
C2 C 0.20920(6) 0.28107(8) 0.60601(4)
C3 C 0.13621(6) 0.28761(8) 0.57320(4)
C4 C 0.21035(6) 0.45025(8) 0.65928(4)
C5 C 0.17627(6) 0.25872(8) 0.69767(4)
C6 C 0.13729(6) 0.16216(8) 0.68531(4)
C7 C 0.26129(7) 0.25648(8) 0.58132(5)
C8 C 0.31266(6) 0.28680(9) 0.70158(4)
C9 C 0.10424(6) 0.10929(8) 0.71736(4)
C10 C 0.10790(6) 0.15323(9) 0.76414(4)
C11 C 0.14521(6) 0.24985(9) 0.77826(4)
C12 C 0.14697(6) 0.50381(8) 0.66252(4)
C13 C 0.33498(6) 0.17916(9) 0.70389(5)
C14 C 0.25840(7) 0.51547(9) 0.64228(4)
C15 C 0.36582(6) 0.35367(9) 0.73387(5)
C16 C 0.11575(7) 0.27067(9) 0.52093(4)
C17 C 0.24318(8) 0.23942(9) 0.52913(5)
C18 C 0.17030(8) 0.24680(9) 0.49869(4)
C19 C 0.13296(7) 0.61257(9) 0.65074(4)
C20 C 0.43547(7) 0.31808(10) 0.76407(5)
C21 C 0.40299(7) 0.14019(9) 0.73359(5)
C22 C 0.24729(8) 0.62426(10) 0.63102(5)
C23 C 0.18341(8) 0.67290(9) 0.63512(5)
C24 C 0.45440(6) 0.21083(11) 0.76406(5)
B1 B 0.22691(7) 0.31921(9) 0.66620(5)
O1 O 0.27779(4) 0.66064(6) 0.40887(3)
N1 N 0.26839(5) 0.74578(7) 0.43755(3)
N2 N 0.25918(5) 0.93336(7) 0.43448(3)
N3 N 0.27538(5) 0.86097(7) 0.36561(3)
C25 C 0.26725(5) 0.83799(8) 0.41199(4)
C26 C 0.29877(5) 0.47359(8) 0.40309(4)
C27 C 0.21060(6) 0.54271(8) 0.44991(4)
C28 C 0.27287(6) 0.78793(8) 0.32363(4)
C29 C 0.32248(6) 0.37138(8) 0.42264(4)
H1 H 0.3297 0.3565 0.4577
C30 C 0.35409(6) 0.56907(8) 0.48562(4)
C31 C 0.28484(6) 0.55879(8) 0.43922(4)
C32 C 0.16856(6) 0.95425(8) 0.48088(5)
C33 C 0.19558(6) 0.59264(9) 0.49133(4)
H2 H 0.2338 0.6316 0.5156
C34 C 0.24361(6) 0.94466(8) 0.48257(4)
C35 C 0.41627(6) 0.62379(9) 0.48028(4)
H3 H 0.4134 0.6579 0.4488
C36 C 0.35976(6) 0.51820(9) 0.53165(4)
H4 H 0.3184 0.4793 0.5356
C37 C 0.26299(7) 1.01612(9) 0.40235(5)
H5 H 0.2593 1.0909 0.4087
C38 C 0.33978(6) 0.76001(9) 0.31510(4)
C39 C 0.20212(6) 0.75382(8) 0.29317(4)
C40 C 0.27305(7) 0.97166(9) 0.35986(4)
H6 H 0.2777 1.0101 0.3311
C41 C 0.28779(6) 0.49356(9) 0.35155(4)
H7 H 0.2713 0.5626 0.3377
C42 C 0.20036(7) 0.69225(9) 0.25021(4)
H8 H 0.1538 0.6676 0.2282
C43 C 0.15343(6) 0.48592(9) 0.41497(5)
H9 H 0.1630 0.4505 0.3870
C44 C 0.33444(7) 0.69884(10) 0.27142(5)
H10 H 0.3786 0.6791 0.2637
C45 C 0.48211(6) 0.62879(10) 0.52046(5)
H11 H 0.5239 0.6664 0.5164
C46 C 0.12479(7) 0.58541(10) 0.49710(5)
H12 H 0.1151 0.6185 0.5256
C47 C 0.33554(6) 0.29118(8) 0.39113(5)
H13 H 0.3518 0.2219 0.4048
C48 C 0.48713(6) 0.57910(10) 0.56656(5)
H14 H 0.5321 0.5829 0.5941
C49 C 0.30385(7) 0.94762(8) 0.52752(4)
C50 C 0.42594(6) 0.52390(10) 0.57206(4)
H15 H 0.4291 0.4897 0.6035
C51 C 0.13159(6) 0.78152(9) 0.30636(4)
H16 H 0.1461 0.7900 0.3443
C52 C 0.26558(8) 0.66662(10) 0.23927(5)
H17 H 0.2630 0.6265 0.2094
C53 C 0.30092(7) 0.41277(10) 0.32019(5)
H18 H 0.2933 0.4271 0.2851
C54 C 0.28661(8) 0.96417(9) 0.57277(5)
H19 H 0.3258 0.9679 0.6042
C55 C 0.21351(8) 0.97516(9) 0.57269(5)
H20 H 0.2030 0.9868 0.6039
C56 C 0.15523(7) 0.96940(9) 0.52749(5)
H21 H 0.1053 0.9759 0.5283
C57 C 0.38434(7) 0.93493(10) 0.52788(5)
H22 H 0.3838 0.8972 0.4957
C58 C 0.32506(6) 0.31145(9) 0.33993(5)
H23 H 0.3343 0.2566 0.3185
C59 C 0.08265(7) 0.48064(11) 0.42068(5)
H24 H 0.0440 0.4427 0.3963
C60 C 0.41549(6) 0.79223(10) 0.35122(5)
H25 H 0.4086 0.8111 0.3848
C61 C 0.06825(7) 0.53009(11) 0.46142(5)
H26 H 0.0197 0.5264 0.4651
C62 C 0.10422(6) 0.94311(9) 0.43155(5)
H27 H 0.1235 0.9607 0.4024
C63 C 0.09874(7) 0.88938(10) 0.28290(6)
H28 H 0.1378 0.9447 0.2915
H29 H 0.0583 0.9105 0.2965
H30 H 0.0791 0.8820 0.2457
C64 C 0.07587(8) 0.82664(10) 0.42518(6)
H31 H 0.1173 0.7778 0.4262
H32 H 0.0368 0.8191 0.3924
H33 H 0.0554 0.8085 0.4529
C65 C 0.07253(7) 0.69253(11) 0.29181(6)
H34 H 0.0527 0.6875 0.2546
H35 H 0.0319 0.7096 0.3059
H36 H 0.0952 0.6235 0.3057
C66 C 0.47220(7) 0.69977(13) 0.36016(6)
H37 H 0.4499 0.6339 0.3689
H38 H 0.5168 0.7187 0.3882
H39 H 0.4861 0.6875 0.3291
C67 C 0.44569(8) 0.89232(12) 0.33138(6)
H40 H 0.4467 0.8791 0.2965
H41 H 0.4964 0.9077 0.3534
H42 H 0.4133 0.9542 0.3316
C68 C 0.42992(9) 0.86600(13) 0.57252(6)
H43 H 0.4354 0.9042 0.6046
H44 H 0.4794 0.8523 0.5689
H45 H 0.4043 0.7973 0.5727
C69 C 0.42138(8) 1.04540(13) 0.52816(7)
H46 H 0.3964 1.0836 0.4963
H47 H 0.4742 1.0353 0.5311
H48 H 0.4172 1.0878 0.5572
C70 C 0.03889(8) 1.01884(13) 0.42901(7)
H49 H 0.0166 0.9991 0.4556
H50 H 0.0013 1.0126 0.3955
H51 H 0.0570 1.0934 0.4343
loop_
_geom_bond_atom_site_label_1
_geom_bond_atom_site_label_2
_geom_bond_site_symmetry_1
_geom_bond_site_symmetry_2
F1 C6 1_555 1_555
F2 C3 1_555 1_555
F3 C12 1_555 1_555
F4 C1 1_555 1_555
F5 C9 1_555 1_555
F6 C7 1_555 1_555
F7 C13 1_555 1_555
F8 C15 1_555 1_555
F9 C10 1_555 1_555
F10 C14 1_555 1_555
F11 C11 1_555 1_555
F12 C16 1_555 1_555
F13 C19 1_555 1_555
F14 C17 1_555 1_555
F15 C20 1_555 1_555
F16 C21 1_555 1_555
F17 C18 1_555 1_555
F18 C23 1_555 1_555
F19 C22 1_555 1_555
F20 C24 1_555 1_555
C1 C5 1_555 1_555
C2 C3 1_555 1_555
C3 C16 1_555 1_555
C4 C12 1_555 1_555
C5 C6 1_555 1_555
C6 C9 1_555 1_555
C7 C2 1_555 1_555
C8 C13 1_555 1_555
C9 C10 1_555 1_555
C10 C11 1_555 1_555
C11 C1 1_555 1_555
C12 C19 1_555 1_555
C13 C21 1_555 1_555
C14 C4 1_555 1_555
C15 C8 1_555 1_555
C16 C18 1_555 1_555
C17 C7 1_555 1_555
C18 C17 1_555 1_555
C19 C23 1_555 1_555
C20 C15 1_555 1_555
C21 C24 1_555 1_555
C22 C14 1_555 1_555
C23 C22 1_555 1_555
C24 C20 1_555 1_555
B1 C2 1_555 1_555
O1 N1 1_555 1_555
N1 C25 1_555 1_555
N2 C25 1_555 1_555
N3 C25 1_555 1_555
C26 C29 1_555 1_555
C27 C31 1_555 1_555
C28 N3 1_555 1_555
C29 H1 1_555 1_555
C30 C31 1_555 1_555
C31 O1 1_555 1_555
C32 C34 1_555 1_555
C33 C27 1_555 1_555
H2 C33 1_555 1_555
C34 N2 1_555 1_555
C35 C30 1_555 1_555
H3 C35 1_555 1_555
C36 C30 1_555 1_555
H4 C36 1_555 1_555
C37 N2 1_555 1_555
H5 C37 1_555 1_555
C38 C28 1_555 1_555
C39 C28 1_555 1_555
C40 N3 1_555 1_555
H6 C40 1_555 1_555
C41 C26 1_555 1_555
H7 C41 1_555 1_555
C42 C39 1_555 1_555
H8 C42 1_555 1_555
C43 C27 1_555 1_555
H9 C43 1_555 1_555
C44 C38 1_555 1_555
H10 C44 1_555 1_555
C45 C35 1_555 1_555
H11 C45 1_555 1_555
C46 C33 1_555 1_555
H12 C46 1_555 1_555
C47 C29 1_555 1_555
H13 C47 1_555 1_555
C48 C45 1_555 1_555
H14 C48 1_555 1_555
C49 C34 1_555 1_555
C50 C36 1_555 1_555
H15 C50 1_555 1_555
C51 C39 1_555 1_555
H16 C51 1_555 1_555
C52 C42 1_555 1_555
H17 C52 1_555 1_555
C53 C41 1_555 1_555
H18 C53 1_555 1_555
C54 C49 1_555 1_555
H19 C54 1_555 1_555
C55 C54 1_555 1_555
H20 C55 1_555 1_555
C56 C32 1_555 1_555
H21 C56 1_555 1_555
C57 C49 1_555 1_555
H22 C57 1_555 1_555
C58 C47 1_555 1_555
H23 C58 1_555 1_555
C59 C43 1_555 1_555
H24 C59 1_555 1_555
C60 C38 1_555 1_555
H25 C60 1_555 1_555
C61 C46 1_555 1_555
H26 C61 1_555 1_555
C62 C32 1_555 1_555
H27 C62 1_555 1_555
C63 C51 1_555 1_555
H28 C63 1_555 1_555
H29 C63 1_555 1_555
H30 C63 1_555 1_555
C64 C62 1_555 1_555
H31 C64 1_555 1_555
H32 C64 1_555 1_555
H33 C64 1_555 1_555
C65 C51 1_555 1_555
H34 C65 1_555 1_555
H35 C65 1_555 1_555
H36 C65 1_555 1_555
C66 C60 1_555 1_555
H37 C66 1_555 1_555
H38 C66 1_555 1_555
H39 C66 1_555 1_555
C67 C60 1_555 1_555
H40 C67 1_555 1_555
H41 C67 1_555 1_555
H42 C67 1_555 1_555
C68 C57 1_555 1_555
H43 C68 1_555 1_555
H44 C68 1_555 1_555
H45 C68 1_555 1_555
C69 C57 1_555 1_555
H46 C69 1_555 1_555
H47 C69 1_555 1_555
H48 C69 1_555 1_555
C70 C62 1_555 1_555
H49 C70 1_555 1_555
H50 C70 1_555 1_555
H51 C70 1_555 1_555
C4 B1 1_555 1_555
C5 B1 1_555 1_555
C8 B1 1_555 1_555
C26 C31 1_555 1_555
C37 C40 1_555 1_555
C44 C52 1_555 1_555
C48 C50 1_555 1_555
C53 C58 1_555 1_555
C55 C56 1_555 1_555
C59 C61 1_555 1_555

#END
