
#######################################################################
#
#                 Cambridge Crystallographic Data Centre
#                                CCDC 
#
#######################################################################
#
# If this CIF has been generated from an entry in the Cambridge 
# Structural Database, then it will include bibliographic, chemical, 
# crystal, experimental, refinement or atomic coordinate data resulting 
# from the CCDC's data processing and validation procedures.
#
#######################################################################

data_FICTIX
_chemical_formula_moiety         'C45 H36 B1 F15 N3 O1,C5 H12'
_chemical_name_systematic        
'({1,3-bis[2,6-bis(propan-2-yl)phenyl]-1,3-dihydro-2H-imidazol-2-ylidene}ammoniumolato)[tris(pentafluorophenyl)]boron pentane solvate'
_symmetry_cell_setting           monoclinic
_symmetry_space_group_name_H-M   'P 21/n'
_symmetry_Int_Tables_number      14
_space_group_name_Hall           '-P 2yn'
loop_
_symmetry_equiv_pos_site_id
_symmetry_equiv_pos_as_xyz
1 x,y,z
2 1/2-x,1/2+y,1/2-z
3 -x,-y,-z
4 1/2+x,1/2-y,1/2+z
_cell_length_a                   14.812(3)
_cell_length_b                   20.438(4)
_cell_length_c                   15.737(3)
_cell_angle_alpha                90
_cell_angle_beta                 94.18(3)
_cell_angle_gamma                90
_cell_volume                     4751.35
_exptl_crystal_colour            'dark brown'
_exptl_crystal_description       block
_cell_formula_units_Z            4
loop_
_atom_site_label
_atom_site_type_symbol
_atom_site_fract_x
_atom_site_fract_y
_atom_site_fract_z
F1 F 0.94083(6) 0.21489(5) 0.61897(7)
F2 F 0.71081(7) 0.21387(5) 0.55917(6)
F3 F 0.80130(7) 0.46659(5) 0.50223(7)
F4 F 0.84389(7) 0.41388(5) 0.65477(7)
F5 F 0.91987(7) 0.37905(6) 0.82957(7)
F6 F 0.84646(7) 0.26251(6) 0.89076(6)
F7 F 0.71123(7) 0.39395(6) 0.37665(7)
O1 O 0.79797(6) 0.20949(5) 0.71620(7)
F8 F 0.66734(7) 0.26786(6) 0.40882(7)
F9 F 0.63999(7) 0.36861(6) 0.69212(7)
F10 F 1.12124(7) 0.21997(7) 0.64256(9)
F11 F 1.20224(7) 0.30291(7) 0.75974(9)
F12 F 1.09785(8) 0.38156(7) 0.85336(8)
F13 F 0.74920(8) 0.30157(7) 1.01727(7)
F14 F 0.59357(9) 0.37031(8) 0.98258(9)
F15 F 0.54213(8) 0.40386(7) 0.81895(10)
N1 N 0.75619(8) 0.07624(6) 0.71350(8)
N2 N 0.71368(8) 0.19260(7) 0.73399(8)
N3 N 0.62022(8) 0.10207(7) 0.74884(8)
C1 C 0.70222(9) 0.12763(7) 0.73179(9)
C2 C 0.78073(9) 0.31106(8) 0.61527(9)
C3 C 0.97691(10) 0.25547(8) 0.67958(10)
C4 C 0.92043(9) 0.29295(8) 0.72709(9)
C5 C 0.62253(10) 0.03557(8) 0.73991(10)
H1 H 0.5741 0.0061 0.7474
C6 C 0.80138(10) 0.37522(8) 0.59461(10)
C7 C 0.86610(10) 0.06784(8) 0.60597(10)
C8 C 0.95620(10) 0.05975(9) 0.58720(11)
H2 H 0.9700 0.0525 0.5299
C9 C 1.07080(10) 0.25775(9) 0.68976(12)
C10 C 0.73563(10) 0.27655(8) 0.54909(10)
C11 C 0.70678(10) 0.01938(8) 0.71843(11)
H3 H 0.7280 -0.0236 0.7085
C12 C 0.77317(10) 0.29993(9) 0.87004(10)
C13 C 0.96563(10) 0.33629(8) 0.78314(10)
C14 C 0.54254(9) 0.14065(8) 0.76980(10)
C15 C 0.84986(9) 0.07595(8) 0.69146(9)
C16 C 1.11184(10) 0.30020(10) 0.74877(12)
C17 C 0.75124(9) 0.31557(8) 0.78518(10)
C18 C 0.71175(10) 0.30362(9) 0.46973(10)
C19 C 0.89760(10) 0.09019(9) 0.84974(10)
H4 H 0.8390 0.1145 0.8495
C20 C 0.48903(10) 0.16820(9) 0.70217(11)
C21 C 1.00709(10) 0.07300(9) 0.73479(11)
H5 H 1.0557 0.0758 0.7775
C22 C 0.73369(10) 0.36752(9) 0.45297(10)
C23 C 0.91818(10) 0.07993(8) 0.75776(10)
C24 C 0.79127(10) 0.07086(8) 0.53431(10)
H6 H 0.7375 0.0921 0.5575
C25 C 1.05932(11) 0.33957(10) 0.79584(12)
C26 C 0.52516(10) 0.14643(8) 0.85570(10)
C27 C 0.58481(10) 0.11401(9) 0.92672(10)
H7 H 0.6120 0.0740 0.9024
C28 C 0.67178(10) 0.35117(8) 0.77154(11)
C29 C 0.77922(10) 0.40411(8) 0.51644(10)
C30 C 0.53215(12) 0.09248(10) 1.00166(12)
H8 H 0.5105 0.1312 1.0309
H9 H 0.5718 0.0668 1.0415
H10 H 0.4804 0.0657 0.9807
C31 C 1.02552(10) 0.06220(9) 0.65101(11)
H11 H 1.0864 0.0564 0.6371
C32 C 0.76217(14) 0.00260(10) 0.50235(13)
H12 H 0.8137 -0.0194 0.4790
H13 H 0.7127 0.0068 0.4578
H14 H 0.7415 -0.0231 0.5498
C33 C 0.50870(11) 0.15826(9) 0.60960(11)
H15 H 0.5732 0.1440 0.6086
C34 C 0.41380(11) 0.20427(10) 0.72420(13)
H16 H 0.3746 0.2233 0.6805
B1 B 0.81047(10) 0.28397(8) 0.71141(10)
C35 C 0.72323(11) 0.31829(10) 0.93666(11)
C36 C 0.64441(12) 0.35348(10) 0.91922(13)
C37 C 0.96968(12) 0.13152(11) 0.89931(12)
H17 H 1.0267 0.1071 0.9054
H18 H 0.9497 0.1416 0.9559
H19 H 0.9788 0.1724 0.8684
C38 C 0.45024(11) 0.18433(10) 0.87365(12)
H20 H 0.4367 0.1907 0.9311
C39 C 0.49755(12) 0.22114(10) 0.55778(12)
H21 H 0.4336 0.2338 0.5525
H22 H 0.5187 0.2140 0.5009
H23 H 0.5333 0.2561 0.5866
C40 C 0.66246(13) 0.15921(12) 0.95785(13)
H24 H 0.6979 0.1709 0.9099
H25 H 0.7015 0.1367 1.0015
H26 H 0.6378 0.1990 0.9822
C41 C 0.61866(11) 0.37006(10) 0.83643(13)
C42 C 0.81951(12) 0.11293(10) 0.46001(11)
H27 H 0.8454 0.1542 0.4821
H28 H 0.7664 0.1221 0.4210
H29 H 0.8648 0.0894 0.4294
C43 C 0.88486(17) 0.02478(12) 0.89403(13)
H30 H 0.8371 -0.0003 0.8623
H31 H 0.8676 0.0326 0.9521
H32 H 0.9416 0.0000 0.8962
C44 C 0.44907(15) 0.10355(12) 0.56926(14)
H33 H 0.4608 0.0628 0.6010
H34 H 0.4631 0.0973 0.5099
H35 H 0.3852 0.1156 0.5711
C45 C 0.39554(12) 0.21265(11) 0.80838(14)
H36 H 0.3449 0.2382 0.8217
C46 C 0.22298(12) 0.48629(10) 0.74528(12)
H37 H 0.2632 0.5244 0.7573
H38 H 0.2207 0.4610 0.7987
C47 C 0.35413(12) 0.41426(10) 0.70823(13)
H39 H 0.3957 0.4498 0.7284
H40 H 0.3464 0.3846 0.7569
C48 C 0.26284(13) 0.44355(10) 0.67863(12)
H41 H 0.2698 0.4700 0.6268
H42 H 0.2200 0.4076 0.6630
C49 C 0.12806(14) 0.51079(12) 0.71765(14)
H43 H 0.1287 0.5322 0.6620
H44 H 0.1085 0.5422 0.7597
H45 H 0.0860 0.4737 0.7135
C50 C 0.39632(18) 0.37650(14) 0.63805(16)
H46 H 0.4087 0.4065 0.5917
H47 H 0.3544 0.3423 0.6162
H48 H 0.4530 0.3564 0.6609
loop_
_geom_bond_atom_site_label_1
_geom_bond_atom_site_label_2
_geom_bond_site_symmetry_1
_geom_bond_site_symmetry_2
F1 C3 1_555 1_555
F2 C10 1_555 1_555
F3 C29 1_555 1_555
F4 C6 1_555 1_555
F5 C13 1_555 1_555
F6 C12 1_555 1_555
F7 C22 1_555 1_555
O1 N2 1_555 1_555
F8 C18 1_555 1_555
F9 C28 1_555 1_555
F10 C9 1_555 1_555
F11 C16 1_555 1_555
F12 C25 1_555 1_555
F13 C35 1_555 1_555
F14 C36 1_555 1_555
F15 C41 1_555 1_555
N1 C1 1_555 1_555
N2 C1 1_555 1_555
N3 C1 1_555 1_555
C2 C6 1_555 1_555
C3 C4 1_555 1_555
C4 C13 1_555 1_555
C5 N3 1_555 1_555
H1 C5 1_555 1_555
C6 C29 1_555 1_555
C7 C8 1_555 1_555
C8 H2 1_555 1_555
C9 C3 1_555 1_555
C10 C2 1_555 1_555
C11 N1 1_555 1_555
H3 C11 1_555 1_555
C12 C17 1_555 1_555
C13 C25 1_555 1_555
C14 N3 1_555 1_555
C15 N1 1_555 1_555
C16 C9 1_555 1_555
C17 C28 1_555 1_555
C18 C10 1_555 1_555
C19 H4 1_555 1_555
C20 C14 1_555 1_555
C21 H5 1_555 1_555
C22 C18 1_555 1_555
C23 C15 1_555 1_555
C24 C7 1_555 1_555
H6 C24 1_555 1_555
C25 C16 1_555 1_555
C26 C14 1_555 1_555
C27 C26 1_555 1_555
H7 C27 1_555 1_555
C28 C41 1_555 1_555
C29 C22 1_555 1_555
C30 C27 1_555 1_555
H8 C30 1_555 1_555
H9 C30 1_555 1_555
H10 C30 1_555 1_555
C31 C8 1_555 1_555
H11 C31 1_555 1_555
C32 C24 1_555 1_555
H12 C32 1_555 1_555
H13 C32 1_555 1_555
H14 C32 1_555 1_555
C33 C20 1_555 1_555
H15 C33 1_555 1_555
C34 C20 1_555 1_555
H16 C34 1_555 1_555
B1 O1 1_555 1_555
C35 C12 1_555 1_555
C36 C35 1_555 1_555
C37 C19 1_555 1_555
H17 C37 1_555 1_555
H18 C37 1_555 1_555
H19 C37 1_555 1_555
C38 C26 1_555 1_555
H20 C38 1_555 1_555
C39 C33 1_555 1_555
H21 C39 1_555 1_555
H22 C39 1_555 1_555
H23 C39 1_555 1_555
C40 C27 1_555 1_555
H24 C40 1_555 1_555
H25 C40 1_555 1_555
H26 C40 1_555 1_555
C41 C36 1_555 1_555
C42 C24 1_555 1_555
H27 C42 1_555 1_555
H28 C42 1_555 1_555
H29 C42 1_555 1_555
C43 C19 1_555 1_555
H30 C43 1_555 1_555
H31 C43 1_555 1_555
H32 C43 1_555 1_555
C44 C33 1_555 1_555
H33 C44 1_555 1_555
H34 C44 1_555 1_555
H35 C44 1_555 1_555
C45 C34 1_555 1_555
H36 C45 1_555 1_555
C46 H37 1_555 1_555
H38 C46 1_555 1_555
C47 H39 1_555 1_555
H40 C47 1_555 1_555
C48 C46 1_555 1_555
H41 C48 1_555 1_555
H42 C48 1_555 1_555
C49 C46 1_555 1_555
H43 C49 1_555 1_555
H44 C49 1_555 1_555
H45 C49 1_555 1_555
C50 C47 1_555 1_555
H46 C50 1_555 1_555
H47 C50 1_555 1_555
H48 C50 1_555 1_555
C2 B1 1_555 1_555
C4 B1 1_555 1_555
C5 C11 1_555 1_555
C7 C15 1_555 1_555
C17 B1 1_555 1_555
C19 C23 1_555 1_555
C21 C23 1_555 1_555
C21 C31 1_555 1_555
C38 C45 1_555 1_555
C47 C48 1_555 1_555

#END
