
#######################################################################
#
#                 Cambridge Crystallographic Data Centre
#                                CCDC 
#
#######################################################################
#
# If this CIF has been generated from an entry in the Cambridge 
# Structural Database, then it will include bibliographic, chemical, 
# crystal, experimental, refinement or atomic coordinate data resulting 
# from the CCDC's data processing and validation procedures.
#
#######################################################################

data_FICWOF
_chemical_name_common            'L-Histidinium dipicrate dihydrate'
_chemical_formula_moiety         'C6 H11 N3 O2 2+,2(C6 H2 N3 O7 1-),2(H2 O1)'
_chemical_name_systematic        
'5-(2-Ammonio-2-carboxyethyl)-1H-imidazol-3-ium 2,4,6-trinitrophenolate dihydrate'
_symmetry_cell_setting           monoclinic
_symmetry_space_group_name_H-M   'P 21'
_symmetry_Int_Tables_number      4
_space_group_name_Hall           'P 2yb'
loop_
_symmetry_equiv_pos_site_id
_symmetry_equiv_pos_as_xyz
1 x,y,z
2 -x,1/2+y,-z
_cell_length_a                   6.6060(4)
_cell_length_b                   25.7003(13)
_cell_length_c                   7.9627(5)
_cell_angle_alpha                90
_cell_angle_beta                 107.532(7)
_cell_angle_gamma                90
_cell_volume                     1289.08
_exptl_crystal_colour            yellow
_exptl_crystal_description       square
_cell_formula_units_Z            2
loop_
_atom_site_label
_atom_site_type_symbol
_atom_site_fract_x
_atom_site_fract_y
_atom_site_fract_z
O1 O 1.1170(5) -0.00275(12) 1.2736(5)
O2 O 0.8469(5) -0.04330(11) 1.3342(4)
H1 H 0.9346 -0.0664 1.3719
N1 N 0.8717(5) 0.07237(10) 1.0875(4)
H2 H 0.7843 0.0987 1.0431
H3 H 0.8912 0.0535 1.0000
H4 H 0.9959 0.0848 1.1535
N2 N 0.4952(5) 0.00857(12) 0.7727(4)
N3 N 0.4987(6) -0.07402(13) 0.7471(5)
H5 H 0.4956 -0.1045 0.7020
C1 C 0.9350(6) -0.00520(14) 1.2718(5)
C2 C 0.7771(6) 0.03902(13) 1.1981(4)
C3 C 0.5503(5) 0.02145(14) 1.0983(4)
H6 H 0.4943 0.0022 1.1793
H7 H 0.4629 0.0522 1.0624
C4 C 0.5280(5) -0.01146(13) 0.9395(4)
C5 C 0.4757(6) -0.03046(16) 0.6596(5)
C6 C 0.5283(7) -0.06396(16) 0.9212(5)
H8 H 0.763(6) 0.0623(16) 1.296(5)
H9 H 0.539(7) -0.0916(19) 0.999(6)
H10 H 0.455(7) -0.029(2) 0.536(6)
H11 H 0.479(7) 0.0432(19) 0.751(5)
O3 O 0.9237(4) 0.37442(9) 0.5194(3)
O4 O 1.1711(5) 0.33930(12) 1.0182(3)
O5 O 0.9113(6) 0.38681(13) 0.8677(4)
O6 O 1.0105(5) 0.15561(11) 0.8787(3)
O7 O 0.9511(5) 0.13208(10) 0.6075(3)
O8 O 0.9119(4) 0.26246(10) 0.1693(3)
O9 O 0.7415(5) 0.33288(10) 0.1914(3)
N4 N 1.0229(5) 0.34810(12) 0.8865(4)
N5 N 0.9722(4) 0.16635(11) 0.7214(4)
N6 N 0.8457(5) 0.29442(11) 0.2552(3)
C7 C 0.9258(5) 0.32737(12) 0.5650(4)
C8 C 0.9775(5) 0.30948(13) 0.7450(4)
C9 C 0.9939(5) 0.25863(13) 0.7963(4)
H12 H 1.0308 0.2500 0.9151
C10 C 0.9549(5) 0.22013(12) 0.6693(4)
C11 C 0.9070(4) 0.23282(12) 0.4924(4)
H13 H 0.8856 0.2068 0.4077
C12 C 0.8915(5) 0.28421(11) 0.4435(4)
O10 O 0.5060(4) 0.11319(9) 0.8159(3)
O11 O 0.4555(4) 0.23048(10) 1.1305(3)
O12 O 0.6326(5) 0.16004(10) 1.1346(3)
O13 O 0.4413(5) 0.35254(9) 0.6731(4)
O14 O 0.3963(5) 0.32377(10) 0.4098(3)
O15 O 0.2242(5) 0.14022(12) 0.3056(3)
O16 O 0.4623(6) 0.09005(11) 0.4743(4)
N7 N 0.5317(4) 0.19734(11) 1.0568(3)
N8 N 0.4235(4) 0.31696(11) 0.5679(4)
N9 N 0.3649(5) 0.13122(11) 0.4434(3)
C13 C 0.4825(5) 0.15872(12) 0.7585(4)
C14 C 0.5012(5) 0.20440(12) 0.8692(4)
C15 C 0.4816(5) 0.25485(12) 0.8099(4)
H14 H 0.4977 0.2825 0.8884
C16 C 0.4375(5) 0.26384(12) 0.6310(4)
C17 C 0.3974(4) 0.22294(12) 0.5116(4)
H15 H 0.3562 0.2293 0.3910
C18 C 0.4195(5) 0.17329(12) 0.5740(4)
O17 O 1.0107(7) 0.43238(13) 0.2418(5)
H16 H 1.006(14) 0.415(3) 0.150(7)
H17 H 1.04(2) 0.411(3) 0.325(9)
O18 O 1.0051(8) 0.03423(14) 0.8230(5)
H18 H 1.001(9) 0.0022(8) 0.808(7)
H19 H 0.977(15) 0.049(2) 0.726(5)
loop_
_geom_bond_atom_site_label_1
_geom_bond_atom_site_label_2
_geom_bond_site_symmetry_1
_geom_bond_site_symmetry_2
O1 C1 1_555 1_555
O2 H1 1_555 1_555
N1 H2 1_555 1_555
H3 N1 1_555 1_555
H4 N1 1_555 1_555
N2 C4 1_555 1_555
N3 H5 1_555 1_555
C1 O2 1_555 1_555
C2 N1 1_555 1_555
C3 C2 1_555 1_555
H6 C3 1_555 1_555
H7 C3 1_555 1_555
C4 C3 1_555 1_555
C5 N2 1_555 1_555
C6 N3 1_555 1_555
H8 C2 1_555 1_555
H9 C6 1_555 1_555
H10 C5 1_555 1_555
H11 N2 1_555 1_555
O3 C7 1_555 1_555
O4 N4 1_555 1_555
O5 N4 1_555 1_555
O6 N5 1_555 1_555
O7 N5 1_555 1_555
O8 N6 1_555 1_555
O9 N6 1_555 1_555
N4 C8 1_555 1_555
N5 C10 1_555 1_555
N6 C12 1_555 1_555
C7 C8 1_555 1_555
C8 C9 1_555 1_555
C9 H12 1_555 1_555
C10 C9 1_555 1_555
C11 C10 1_555 1_555
H13 C11 1_555 1_555
C12 C7 1_555 1_555
O10 C13 1_555 1_555
O11 N7 1_555 1_555
O12 N7 1_555 1_555
O13 N8 1_555 1_555
O14 N8 1_555 1_555
O15 N9 1_555 1_555
O16 N9 1_555 1_555
N7 C14 1_555 1_555
N8 C16 1_555 1_555
N9 C18 1_555 1_555
C13 C14 1_555 1_555
C14 C15 1_555 1_555
C15 H14 1_555 1_555
C16 C15 1_555 1_555
C17 C16 1_555 1_555
H15 C17 1_555 1_555
C18 C13 1_555 1_555
O17 H16 1_555 1_555
H17 O17 1_555 1_555
O18 H18 1_555 1_555
H19 O18 1_555 1_555
N3 C5 1_555 1_555
C1 C2 1_555 1_555
C4 C6 1_555 1_555
C11 C12 1_555 1_555
C17 C18 1_555 1_555

#END
