
#######################################################################
#
#                 Cambridge Crystallographic Data Centre
#                                CCDC 
#
#######################################################################
#
# If this CIF has been generated from an entry in the Cambridge 
# Structural Database, then it will include bibliographic, chemical, 
# crystal, experimental, refinement or atomic coordinate data resulting 
# from the CCDC's data processing and validation procedures.
#
#######################################################################

data_FICWUL
_chemical_formula_moiety         'C17 H14 F2 O3'
_chemical_name_systematic        
(E)-3-(3,4-Difluorophenyl)-1-(3,4-dimethoxyphenyl)prop-2-en-1-one
_symmetry_cell_setting           monoclinic
_symmetry_space_group_name_H-M   'P 21/n'
_symmetry_Int_Tables_number      14
_space_group_name_Hall           '-P 2yn'
loop_
_symmetry_equiv_pos_site_id
_symmetry_equiv_pos_as_xyz
1 x,y,z
2 1/2-x,1/2+y,1/2-z
3 -x,-y,-z
4 1/2+x,1/2-y,1/2+z
_cell_length_a                   8.7444(9)
_cell_length_b                   8.4832(9)
_cell_length_c                   19.829(2)
_cell_angle_alpha                90
_cell_angle_beta                 94.053(2)
_cell_angle_gamma                90
_cell_volume                     1467.25
_exptl_crystal_colour            colorless
_exptl_crystal_description       prismatic
_cell_formula_units_Z            4
loop_
_atom_site_label
_atom_site_type_symbol
_atom_site_fract_x
_atom_site_fract_y
_atom_site_fract_z
F1 F -0.0102(2) -0.0304(3) 0.14625(12)
F2 F -0.21164(11) 0.07757(14) 0.05038(6)
O1 O 0.67825(13) 0.44604(16) 0.07214(6)
O2 O 1.05520(12) 0.37085(16) 0.35153(5)
O3 O 1.13490(13) 0.49922(18) 0.24315(6)
C1 C 0.12377(18) 0.3023(2) 0.01589(8)
H1 H 0.1536 0.3772 -0.0148
C2 C -0.02383(9) 0.24437(11) 0.01024(4)
H2 H -0.0955 0.2809 -0.0253
C3 C -0.06758(9) 0.13470(11) 0.05544(4)
C4 C 0.03440(9) 0.08176(11) 0.10642(4)
C5 C 0.18143(9) 0.13853(11) 0.11244(4)
H3 H 0.2498 0.1023 0.1471
C6 C 0.22850(16) 0.24987(19) 0.06709(8)
C7 C 0.38359(17) 0.3175(2) 0.07232(8)
H4 H 0.4064 0.3889 0.0389
C8 C 0.49391(17) 0.2877(2) 0.11943(8)
H5 H 0.4769 0.2139 0.1528
C9 C 0.64366(17) 0.3684(2) 0.12068(8)
C10 C 0.74973(16) 0.35850(19) 0.18235(8)
C11 C 0.71003(19) 0.2904(2) 0.24136(9)
H6 H 0.6145 0.2429 0.2426
C12 C 0.80881(19) 0.2909(2) 0.29899(9)
H7 H 0.7792 0.2439 0.3384
C13 C 0.95050(17) 0.36056(19) 0.29820(8)
C14 C 0.99356(16) 0.42987(19) 0.23785(8)
C15 C 0.89489(17) 0.42856(18) 0.18126(8)
H8 H 0.9242 0.4746 0.1416
C16 C 1.0133(2) 0.3151(3) 0.41527(9)
H9 H 0.9196 0.3648 0.4263
H10 H 1.0931 0.3399 0.4494
H11 H 0.9990 0.2030 0.4132
C17 C 1.1804(2) 0.5882(3) 0.18825(10)
H12 H 1.1838 0.5214 0.1493
H13 H 1.2802 0.6320 0.1993
H14 H 1.1083 0.6719 0.1786
F3? F -0.1205(3) 0.2840(4) -0.03983(14)
H15? H 0.0024 0.0047 0.1379
loop_
_geom_bond_atom_site_label_1
_geom_bond_atom_site_label_2
_geom_bond_site_symmetry_1
_geom_bond_site_symmetry_2
F1 C4 1_555 1_555
F2 C3 1_555 1_555
O1 C9 1_555 1_555
O2 C13 1_555 1_555
O3 C14 1_555 1_555
C1 H1 1_555 1_555
C2 C1 1_555 1_555
H2 C2 1_555 1_555
C3 C2 1_555 1_555
C4 C3 1_555 1_555
C5 C4 1_555 1_555
H3 C5 1_555 1_555
C6 C1 1_555 1_555
C7 C6 1_555 1_555
H4 C7 1_555 1_555
C8 C7 1_555 1_555
H5 C8 1_555 1_555
C9 C8 1_555 1_555
C10 C9 1_555 1_555
C11 C10 1_555 1_555
H6 C11 1_555 1_555
C12 C11 1_555 1_555
H7 C12 1_555 1_555
C13 C12 1_555 1_555
C14 C13 1_555 1_555
C15 C10 1_555 1_555
H8 C15 1_555 1_555
C16 O2 1_555 1_555
H9 C16 1_555 1_555
H10 C16 1_555 1_555
H11 C16 1_555 1_555
C17 O3 1_555 1_555
H12 C17 1_555 1_555
H13 C17 1_555 1_555
H14 C17 1_555 1_555
C5 C6 1_555 1_555
C14 C15 1_555 1_555

#END
