
#######################################################################
#
#                 Cambridge Crystallographic Data Centre
#                                CCDC 
#
#######################################################################
#
# If this CIF has been generated from an entry in the Cambridge 
# Structural Database, then it will include bibliographic, chemical, 
# crystal, experimental, refinement or atomic coordinate data resulting 
# from the CCDC's data processing and validation procedures.
#
#######################################################################

data_FICXIB
_chemical_formula_moiety         'C18 H12 N2 O2'
_chemical_name_systematic        
9,10,11,12-tetrahydrophenanthro[4,5-fgh]quinoxaline-1,8-dione
_symmetry_cell_setting           monoclinic
_symmetry_space_group_name_H-M   'C 2/c'
_symmetry_Int_Tables_number      15
_space_group_name_Hall           '-C 2yn'
loop_
_symmetry_equiv_pos_site_id
_symmetry_equiv_pos_as_xyz
1 x,y,z
2 -x,y,1/2-z
3 1/2+x,1/2+y,z
4 1/2-x,1/2+y,1/2-z
5 -x,-y,-z
6 x,-y,1/2+z
7 1/2-x,1/2-y,-z
8 1/2+x,1/2-y,1/2+z
_cell_length_a                   13.3145(4)
_cell_length_b                   13.4792(4)
_cell_length_c                   7.0709(2)
_cell_angle_alpha                90
_cell_angle_beta                 93.9420(10)
_cell_angle_gamma                90
_cell_volume                     1266
_exptl_crystal_colour            red
_exptl_crystal_description       'thin plate'
_cell_formula_units_Z            4
loop_
_atom_site_label
_atom_site_type_symbol
_atom_site_fract_x
_atom_site_fract_y
_atom_site_fract_z
N1 N 0.40261(6) 0.25271(6) 0.67574(11)
O1 O 0.23872(5) 0.35378(5) 0.59045(10)
C1 C 0.45915(6) 0.16060(7) 0.67003(12)
H1 H 0.4897 0.1545 0.5468
H2 H 0.4136 0.1034 0.6838
C2 C 0.44689(7) 0.34036(7) 0.71346(13)
C3 C 0.39557(7) 0.43091(7) 0.68617(12)
C4 C 0.28903(7) 0.43160(7) 0.62080(13)
C5 C 0.24171(7) 0.52804(8) 0.59275(13)
H3 H 0.1729 0.5310 0.5479
C6 C 0.29218(7) 0.61339(7) 0.62826(13)
H4 H 0.2576 0.6747 0.6109
C7 C 0.39742(7) 0.61407(7) 0.69188(13)
C8 C 0.44771(7) 0.52240(7) 0.71981(13)
C9 C 0.44903(7) 0.70391(7) 0.72250(13)
H5 H 0.4140 0.7650 0.7055
H6 H 0.3385(12) 0.2578(11) 0.617(2)
N1A N 0.59739(6) 0.25271(6) 0.82426(11)
O1A O 0.76128(5) 0.35378(5) 0.90955(10)
C1A C 0.54085(6) 0.16060(7) 0.82997(12)
H1A H 0.5103 0.1545 0.9532
H2A H 0.5864 0.1034 0.8162
C2A C 0.55311(7) 0.34036(7) 0.78654(13)
C3A C 0.60443(7) 0.43091(7) 0.81383(12)
C4A C 0.71097(7) 0.43160(7) 0.87920(13)
C5A C 0.75829(7) 0.52804(8) 0.90725(13)
H3A H 0.8271 0.5310 0.9521
C6A C 0.70782(7) 0.61339(7) 0.87174(13)
H4A H 0.7424 0.6747 0.8891
C7A C 0.60258(7) 0.61407(7) 0.80812(13)
C8A C 0.55229(7) 0.52240(7) 0.78019(13)
C9A C 0.55097(7) 0.70391(7) 0.77750(13)
H5A H 0.5860 0.7650 0.7945
H6A H 0.6615(12) 0.2578(11) 0.883(2)
loop_
_geom_bond_atom_site_label_1
_geom_bond_atom_site_label_2
_geom_bond_site_symmetry_1
_geom_bond_site_symmetry_2
N1 C1 1_555 1_555
O1 C4 1_555 1_555
C1 H1 1_555 1_555
H2 C1 1_555 1_555
C2 N1 1_555 1_555
C3 C2 1_555 1_555
C4 C3 1_555 1_555
C5 C4 1_555 1_555
H3 C5 1_555 1_555
C6 C5 1_555 1_555
H4 C6 1_555 1_555
C7 C6 1_555 1_555
C8 C3 1_555 1_555
C9 C7 1_555 1_555
H5 C9 1_555 1_555
H6 N1 1_555 1_555
N1A C1A 1_555 1_555
O1A C4A 1_555 1_555
C1A C1 1_555 1_555
H1A C1A 1_555 1_555
H2A C1A 1_555 1_555
C2A C2 1_555 1_555
C3A C2A 1_555 1_555
C4A C3A 1_555 1_555
C5A C4A 1_555 1_555
H3A C5A 1_555 1_555
C6A C5A 1_555 1_555
H4A C6A 1_555 1_555
C7A C6A 1_555 1_555
C8A C8 1_555 1_555
C9A C9 1_555 1_555
H5A C9A 1_555 1_555
H6A N1A 1_555 1_555
C7 C8 1_555 1_555
N1A C2A 1_555 1_555
C3A C8A 1_555 1_555
C7A C8A 1_555 1_555
C7A C9A 1_555 1_555

#END
