
#######################################################################
#
#                 Cambridge Crystallographic Data Centre
#                                CCDC 
#
#######################################################################
#
# If this CIF has been generated from an entry in the Cambridge 
# Structural Database, then it will include bibliographic, chemical, 
# crystal, experimental, refinement or atomic coordinate data resulting 
# from the CCDC's data processing and validation procedures.
#
#######################################################################

data_FICXAT
_chemical_formula_moiety         'C32 H22 N2 O2'
_chemical_name_systematic        
2,5-diphenyl-3,4-dihydro-1,6-dioxa-2a,4a-diazacoronene
_symmetry_cell_setting           triclinic
_symmetry_space_group_name_H-M   'P -1'
_symmetry_Int_Tables_number      2
_space_group_name_Hall           '-P 1'
loop_
_symmetry_equiv_pos_site_id
_symmetry_equiv_pos_as_xyz
1 x,y,z
2 -x,-y,-z
_cell_length_a                   5.3397(5)
_cell_length_b                   12.5882(10)
_cell_length_c                   17.1650(13)
_cell_angle_alpha                95.560(3)
_cell_angle_beta                 94.461(3)
_cell_angle_gamma                101.447(3)
_cell_volume                     1119.93
_exptl_crystal_colour            'pale yellow'
_exptl_crystal_description       Block
_cell_formula_units_Z            2
loop_
_atom_site_label
_atom_site_type_symbol
_atom_site_fract_x
_atom_site_fract_y
_atom_site_fract_z
C1 C 0.8519(18) 0.6414(7) 0.6356(4)
H1 H 0.9884 0.6398 0.5999
H2 H 0.7116 0.5772 0.6186
C2 C 0.9599(17) 0.6357(9) 0.7196(5)
H3 H 1.0187 0.5662 0.7224
H4 H 1.1097 0.6964 0.7350
C3 C 0.8305(12) 0.6190(6) 0.8517(3)
H5 H 1.0025 0.6648 0.8722
C4 C 0.8410(15) 0.4979(6) 0.8518(5)
C5 C 1.0449(14) 0.4650(6) 0.8914(4)
H6 H 1.1880 0.5176 0.9166
C6 C 1.0362(14) 0.3519(6) 0.8935(4)
H7 H 1.1731 0.3282 0.9208
C7 C 0.8310(14) 0.2776(6) 0.8564(4)
H8 H 0.8245 0.2020 0.8582
C8 C 0.6322(13) 0.3111(6) 0.8160(4)
H9 H 0.4911 0.2584 0.7898
C9 C 0.6370(14) 0.4209(6) 0.8136(4)
H10 H 0.4997 0.4434 0.7857
C10 C 0.8246(12) 0.8126(5) 0.5746(3)
H11 H 0.9908 0.8630 0.5952
C11 C 0.8571(14) 0.7569(7) 0.4944(4)
C12 C 0.6667(15) 0.6735(7) 0.4566(4)
H12 H 0.5146 0.6505 0.4810
C13 C 0.6943(15) 0.6218(7) 0.3822(4)
H13 H 0.5644 0.5630 0.3571
C14 C 0.9118(14) 0.6577(7) 0.3466(4)
H14 H 0.9345 0.6233 0.2966
C15 C 1.0956(15) 0.7429(7) 0.3833(5)
H15 H 1.2452 0.7686 0.3584
C16 C 1.0642(15) 0.7918(7) 0.4563(4)
H16 H 1.1923 0.8520 0.4805
O1 O 0.6473(6) 0.6373(3) 0.90537(16)
O2 O 0.6386(6) 0.8766(3) 0.55840(16)
N1 N 0.7644(7) 0.6425(3) 0.7745(2)
N2 N 0.7558(7) 0.7392(3) 0.63067(19)
C17 C 0.5541(8) 0.7318(4) 0.9017(2)
C18 C 0.4433(9) 0.7713(4) 0.9665(3)
H17 H 0.4457 0.7373 1.0135
C19 C 0.3305(10) 0.8599(4) 0.9616(3)
H18 H 0.2541 0.8863 1.0057
C20 C 0.3252(10) 0.9124(4) 0.8935(3)
C21 C 0.4450(8) 0.8721(4) 0.8286(2)
C22 C 0.5611(8) 0.7812(4) 0.8334(2)
C23 C 0.6702(7) 0.7375(3) 0.7676(2)
C24 C 0.6667(8) 0.7838(4) 0.6988(2)
C25 C 0.5549(8) 0.8773(4) 0.6933(2)
C26 C 0.4416(8) 0.9213(3) 0.7573(2)
C27 C 0.3156(10) 1.0081(4) 0.7497(3)
C28 C 0.1954(12) 1.0467(4) 0.8151(3)
H19 H 0.1104 1.1057 0.8105
C29 C 0.1992(11) 1.0018(4) 0.8832(3)
H20 H 0.1170 1.0298 0.9254
C30 C 0.3143(11) 1.0527(4) 0.6776(3)
H21 H 0.2363 1.1134 0.6720
C31 C 0.4243(11) 1.0098(4) 0.6147(3)
H22 H 0.4185 1.0399 0.5661
C32 C 0.5437(9) 0.9222(4) 0.6231(2)
C33? C 0.960(2) 0.6801(10) 0.6531(7)
H23? H 1.1146 0.7341 0.6770
H24? H 1.0073 0.6422 0.6048
C34? C 0.889(3) 0.5981(10) 0.7094(7)
H25? H 0.7710 0.5327 0.6810
H26? H 1.0452 0.5754 0.7307
C35? C 0.662(2) 0.5778(6) 0.8319(4)
H27? H 0.4851 0.5380 0.8110
C36? C 0.814(2) 0.4957(7) 0.8545(7)
C37? C 1.0379(19) 0.5046(6) 0.9038(6)
H28? H 1.1305 0.5744 0.9269
C38? C 1.1266(16) 0.4115(8) 0.9194(5)
H29? H 1.2797 0.4176 0.9531
C39? C 0.991(2) 0.3094(7) 0.8856(6)
H30? H 1.0518 0.2457 0.8962
C40? C 0.7671(19) 0.3005(7) 0.8362(6)
H31? H 0.6746 0.2307 0.8131
C41? C 0.6785(17) 0.3936(9) 0.8207(6)
H32? H 0.5253 0.3876 0.7870
C42? C 0.646(2) 0.7644(6) 0.5590(4)
H33? H 0.4650 0.7219 0.5500
C43? C 0.785(3) 0.7302(11) 0.4911(6)
C44? C 0.677(2) 0.6263(11) 0.4539(7)
H34? H 0.5415 0.5813 0.4756
C45? C 0.767(3) 0.5883(9) 0.3850(7)
H35? H 0.6935 0.5173 0.3595
C46? C 0.965(3) 0.6543(10) 0.3533(6)
H36? H 1.0270 0.6283 0.3062
C47? C 1.073(2) 0.7582(10) 0.3905(8)
H37? H 1.2084 0.8032 0.3688
C48? C 0.983(3) 0.7961(9) 0.4594(7)
H38? H 1.0563 0.8672 0.4849
loop_
_geom_bond_atom_site_label_1
_geom_bond_atom_site_label_2
_geom_bond_site_symmetry_1
_geom_bond_site_symmetry_2
C1 H1 1_555 1_555
H2 C1 1_555 1_555
C2 C1 1_555 1_555
H3 C2 1_555 1_555
H4 C2 1_555 1_555
C3 H5 1_555 1_555
C4 C3 1_555 1_555
C5 C4 1_555 1_555
H6 C5 1_555 1_555
C6 C5 1_555 1_555
H7 C6 1_555 1_555
C7 C6 1_555 1_555
H8 C7 1_555 1_555
C8 C7 1_555 1_555
H9 C8 1_555 1_555
C9 C4 1_555 1_555
H10 C9 1_555 1_555
C10 H11 1_555 1_555
C11 C10 1_555 1_555
C12 C11 1_555 1_555
H12 C12 1_555 1_555
C13 C12 1_555 1_555
H13 C13 1_555 1_555
C14 C13 1_555 1_555
H14 C14 1_555 1_555
C15 C14 1_555 1_555
H15 C15 1_555 1_555
C16 C11 1_555 1_555
H16 C16 1_555 1_555
O1 C3 1_555 1_555
O2 C10 1_555 1_555
N1 C2 1_555 1_555
N2 C1 1_555 1_555
C17 O1 1_555 1_555
C18 C17 1_555 1_555
H17 C18 1_555 1_555
C19 C18 1_555 1_555
H18 C19 1_555 1_555
C20 C19 1_555 1_555
C21 C20 1_555 1_555
C22 C17 1_555 1_555
C23 N1 1_555 1_555
C24 N2 1_555 1_555
C25 C24 1_555 1_555
C26 C21 1_555 1_555
C27 C26 1_555 1_555
C28 C27 1_555 1_555
H19 C28 1_555 1_555
C29 C20 1_555 1_555
H20 C29 1_555 1_555
C30 C27 1_555 1_555
H21 C30 1_555 1_555
C31 C30 1_555 1_555
H22 C31 1_555 1_555
C32 O2 1_555 1_555
C3 N1 1_555 1_555
C8 C9 1_555 1_555
C10 N2 1_555 1_555
C15 C16 1_555 1_555
C21 C22 1_555 1_555
C22 C23 1_555 1_555
C23 C24 1_555 1_555
C25 C26 1_555 1_555
C25 C32 1_555 1_555
C28 C29 1_555 1_555
C31 C32 1_555 1_555

#END
