
#######################################################################
#
#                 Cambridge Crystallographic Data Centre
#                                CCDC 
#
#######################################################################
#
# If this CIF has been generated from an entry in the Cambridge 
# Structural Database, then it will include bibliographic, chemical, 
# crystal, experimental, refinement or atomic coordinate data resulting 
# from the CCDC's data processing and validation procedures.
#
#######################################################################

data_FICZUP
_chemical_formula_moiety         'C23 H13 Br1 O1'
_chemical_name_systematic        (4-bromophenyl)(pyren-1-yl)methanone
_symmetry_cell_setting           triclinic
_symmetry_space_group_name_H-M   'P -1'
_symmetry_Int_Tables_number      2
_space_group_name_Hall           '-P 1'
loop_
_symmetry_equiv_pos_site_id
_symmetry_equiv_pos_as_xyz
1 x,y,z
2 -x,-y,-z
_cell_length_a                   7.9050(5)
_cell_length_b                   9.5802(5)
_cell_length_c                   10.6200(6)
_cell_angle_alpha                94.977(2)
_cell_angle_beta                 101.008(2)
_cell_angle_gamma                93.532(2)
_cell_volume                     783.977
_exptl_crystal_description       block
_cell_formula_units_Z            2
loop_
_atom_site_label
_atom_site_type_symbol
_atom_site_fract_x
_atom_site_fract_y
_atom_site_fract_z
Br1 Br 0.33994(4) 1.31412(4) 0.51075(3)
C1 C 0.8228(4) 0.4549(3) 0.0635(3)
C2 C 0.7666(4) 0.5939(3) 0.0630(3)
C3 C 0.8241(4) 0.6930(3) 0.1724(3)
C4 C 0.7673(4) 0.8297(3) 0.1687(3)
C5 C 0.6555(4) 0.8637(3) 0.0596(3)
H1 H 0.6161 0.9554 0.0586
C6 C 0.6007(4) 0.7675(3) -0.0471(3)
H2 H 0.5254 0.7939 -0.1205
C7 C 0.6550(4) 0.6319(3) -0.0479(3)
C8 C 0.6046(4) 0.5297(3) -0.1582(3)
H3 H 0.5294 0.5539 -0.2327
C9 C 0.6618(4) 0.4004(3) -0.1582(3)
H4 H 0.6275 0.3361 -0.2334
C10 C 0.7723(4) 0.3570(3) -0.0485(3)
C11 C 0.8323(4) 0.2231(3) -0.0456(3)
H5 H 0.8005 0.1572 -0.1199
C12 C 0.9371(4) 0.1850(3) 0.0633(3)
H6 H 0.9754 0.0929 0.0633
C13 C 0.9870(4) 0.2789(3) 0.1724(3)
H7 H 1.0596 0.2511 0.2466
C14 C 0.9312(4) 0.4145(3) 0.1744(3)
C15 C 0.9830(4) 0.5166(3) 0.2844(3)
H8 H 1.0533 0.4902 0.3602
C16 C 0.9343(4) 0.6491(3) 0.2830(3)
H9 H 0.9739 0.7146 0.3567
C17 C 0.8343(4) 0.9432(3) 0.2763(3)
C18 C 0.4885(4) 1.2011(3) 0.4328(3)
C19 C 0.4206(4) 1.0767(3) 0.3603(3)
H10 H 0.3007 1.0485 0.3471
C20 C 0.5327(4) 0.9938(3) 0.3069(3)
H11 H 0.4882 0.9085 0.2556
C21 C 0.7092(4) 1.0337(3) 0.3274(3)
C22 C 0.7728(4) 1.1593(3) 0.4021(3)
H12 H 0.8930 1.1872 0.4175
C23 C 0.6624(4) 1.2436(3) 0.4539(3)
H13 H 0.7059 1.3301 0.5035
O1 O 0.9890(3) 0.9638(2) 0.3220(2)
loop_
_geom_bond_atom_site_label_1
_geom_bond_atom_site_label_2
_geom_bond_site_symmetry_1
_geom_bond_site_symmetry_2
Br1 C18 1_555 1_555
C1 C2 1_555 1_555
C2 C3 1_555 1_555
C3 C4 1_555 1_555
C4 C5 1_555 1_555
C5 H1 1_555 1_555
C6 C5 1_555 1_555
H2 C6 1_555 1_555
C7 C2 1_555 1_555
C8 C7 1_555 1_555
H3 C8 1_555 1_555
C9 C8 1_555 1_555
H4 C9 1_555 1_555
C10 C1 1_555 1_555
C11 C10 1_555 1_555
H5 C11 1_555 1_555
C12 C11 1_555 1_555
H6 C12 1_555 1_555
C13 C12 1_555 1_555
H7 C13 1_555 1_555
C14 C1 1_555 1_555
C15 C14 1_555 1_555
H8 C15 1_555 1_555
C16 C3 1_555 1_555
H9 C16 1_555 1_555
C17 C4 1_555 1_555
C18 C19 1_555 1_555
C19 H10 1_555 1_555
C20 C19 1_555 1_555
H11 C20 1_555 1_555
C21 C17 1_555 1_555
C22 C21 1_555 1_555
H12 C22 1_555 1_555
C23 C18 1_555 1_555
H13 C23 1_555 1_555
O1 C17 1_555 1_555
C6 C7 1_555 1_555
C9 C10 1_555 1_555
C13 C14 1_555 1_555
C15 C16 1_555 1_555
C20 C21 1_555 1_555
C22 C23 1_555 1_555

#END
