
#######################################################################
#
#                 Cambridge Crystallographic Data Centre
#                                CCDC 
#
#######################################################################
#
# If this CIF has been generated from an entry in the Cambridge 
# Structural Database, then it will include bibliographic, chemical, 
# crystal, experimental, refinement or atomic coordinate data resulting 
# from the CCDC's data processing and validation procedures.
#
#######################################################################

data_FIDBOL
_chemical_formula_moiety         'C19 H19 N3 O4'
_chemical_name_systematic        
'[6-(Furan-2-yl)-7-nitro-2,3,4,6,7,8-hexahydro-1H-piyrido[1,2-a]pyrimidin-9-yl](phenyl)methanone'
_symmetry_cell_setting           monoclinic
_symmetry_space_group_name_H-M   'P 21/c'
_symmetry_Int_Tables_number      14
_space_group_name_Hall           '-P 2ybc'
loop_
_symmetry_equiv_pos_site_id
_symmetry_equiv_pos_as_xyz
1 x,y,z
2 -x,1/2+y,1/2-z
3 -x,-y,-z
4 x,1/2-y,1/2+z
_cell_length_a                   13.506(3)
_cell_length_b                   17.675(4)
_cell_length_c                   14.755(3)
_cell_angle_alpha                90
_cell_angle_beta                 105.12(3)
_cell_angle_gamma                90
_cell_volume                     3400.36
_exptl_crystal_colour            yellow
_exptl_crystal_description       block
_chemical_melting_point          '457-458 K'
_cell_formula_units_Z            8
loop_
_atom_site_label
_atom_site_type_symbol
_atom_site_fract_x
_atom_site_fract_y
_atom_site_fract_z
O1 O 0.55143(11) 0.64789(9) 0.96144(10)
O2 O 0.26198(16) 0.64416(12) 0.65380(14)
O3 O 0.36728(16) 0.63894(12) 0.56801(15)
N1 N 0.63716(13) 0.62164(11) 0.82954(13)
H1 H 0.6354 0.6458 0.8813
N2 N 0.54886(13) 0.55555(11) 0.69830(12)
N3 N 0.32970(16) 0.61309(12) 0.62734(13)
C1 C 0.73214(18) 0.62515(15) 0.80068(18)
H2 H 0.7915 0.6205 0.8563
H3 H 0.7370 0.6744 0.7703
C2 C 0.73418(19) 0.56157(17) 0.73265(18)
H4 H 0.7922 0.5691 0.7042
H5 H 0.7443 0.5127 0.7666
C3 C 0.63701(18) 0.55976(17) 0.65830(17)
H6 H 0.6315 0.6059 0.6192
H7 H 0.6367 0.5153 0.6173
C4 C 0.55271(16) 0.58496(12) 0.78425(14)
C5 C 0.46227(17) 0.51183(13) 0.64412(14)
H8 H 0.4545 0.5232 0.5762
C6 C 0.36290(16) 0.53476(13) 0.66721(14)
H9 H 0.3083 0.4976 0.6372
C7 C 0.37489(16) 0.53393(13) 0.77222(14)
H10 H 0.3804 0.4809 0.7946
H11 H 0.3130 0.5563 0.7855
C8 C 0.46871(15) 0.57758(12) 0.82560(13)
C9 C 0.47556(16) 0.60980(12) 0.91401(14)
C10 C 0.38851(16) 0.60200(12) 0.95995(13)
C11 C 0.34535(17) 0.53268(13) 0.97289(14)
H12 H 0.3696 0.4876 0.9509
C12 C 0.26713(18) 0.52905(15) 1.01778(15)
H13 H 0.2379 0.4815 1.0263
C13 C 0.23158(18) 0.59423(16) 1.05003(16)
H14 H 0.1767 0.5917 1.0791
C14 C 0.27549(19) 0.66288(15) 1.04015(16)
H15 H 0.2519 0.7076 1.0635
C15 C 0.35421(17) 0.66683(13) 0.99604(15)
H16 H 0.3851 0.7143 0.9904
C16 C 0.48366(18) 0.42951(14) 0.65825(17)
C17 C 0.5364(2) 0.38770(16) 0.7306(2)
H17 H 0.5708 0.4048 0.7917
C18 C 0.5296(3) 0.31100(17) 0.6957(3)
H18 H 0.5592 0.2674 0.7298
C19 C 0.4745(3) 0.31298(19) 0.6076(3)
H19 H 0.4578 0.2700 0.5678
O4 O 0.44496(14) 0.38476(11) 0.58157(13)
O5 O 0.20201(12) 0.49311(9) 0.48209(10)
O6 O 0.04702(15) 0.49215(12) 0.10899(13)
O7 O 0.00216(17) 0.38763(12) 0.16041(15)
O8 O -0.24369(11) 0.62772(9) 0.13117(10)
N4 N 0.17129(14) 0.60783(11) 0.37285(13)
H20 H 0.2053 0.5863 0.4256
N5 N 0.02541(14) 0.61336(11) 0.25015(12)
N6 N -0.00221(15) 0.45606(13) 0.15228(13)
C20 C 0.2157(2) 0.67467(16) 0.3425(2)
H21 H 0.2212 0.7144 0.3908
H22 H 0.2862 0.6622 0.3394
C21 C 0.0542(2) 0.68725(16) 0.2204(2)
H23 H 0.0364 0.6888 0.1509
H24 H 0.0136 0.7269 0.2417
C22 C 0.1329(4) 0.7263(3) 0.2906(4)
H25 H 0.1008 0.7512 0.3360
H26 H 0.1635 0.7663 0.2595
C23 C 0.08267(16) 0.57667(13) 0.32670(14)
C24 C -0.06863(16) 0.58213(14) 0.18796(14)
H27 H -0.0684 0.5933 0.1216
C25 C -0.07479(16) 0.49688(13) 0.19890(14)
H28 H -0.1464 0.4804 0.1677
C26 C -0.05028(16) 0.47362(13) 0.30167(14)
H29 H -0.1052 0.4919 0.3294
H30 H -0.0482 0.4177 0.3062
C27 C 0.05145(16) 0.50557(12) 0.35655(14)
C28 C 0.11666(16) 0.46693(13) 0.43265(14)
C29 C 0.09194(16) 0.38818(13) 0.45760(13)
C30 C -0.00181(17) 0.36644(14) 0.47148(14)
H31 H -0.0561 0.4021 0.4625
C31 C -0.0166(2) 0.29339(15) 0.49820(15)
H32 H -0.0808 0.2792 0.5080
C32 C 0.0618(2) 0.24065(15) 0.51081(15)
H33 H 0.0510 0.1903 0.5286
C33 C 0.1552(2) 0.26133(14) 0.49747(15)
H34 H 0.2090 0.2253 0.5059
C34 C 0.17047(18) 0.33420(14) 0.47193(14)
H35 H 0.2355 0.3483 0.4638
C35 C -0.16076(16) 0.61908(13) 0.20724(14)
C36 C -0.18188(19) 0.64543(15) 0.28504(16)
H36 H -0.1372 0.6460 0.3466
C37 C -0.28476(18) 0.67257(14) 0.25721(16)
H37 H -0.3220 0.6948 0.2968
C38 C -0.31867(17) 0.66084(13) 0.16511(16)
H38 H -0.3853 0.6736 0.1282
C39? C 0.1630(9) 0.7045(8) 0.2566(8)
H39? H 0.1983 0.6874 0.2093
H40? H 0.1700 0.7602 0.2609
loop_
_geom_bond_atom_site_label_1
_geom_bond_atom_site_label_2
_geom_bond_site_symmetry_1
_geom_bond_site_symmetry_2
O1 C9 1_555 1_555
O2 N3 1_555 1_555
O3 N3 1_555 1_555
N1 H1 1_555 1_555
N2 C3 1_555 1_555
N3 C6 1_555 1_555
C1 N1 1_555 1_555
H2 C1 1_555 1_555
H3 C1 1_555 1_555
C2 C1 1_555 1_555
H4 C2 1_555 1_555
H5 C2 1_555 1_555
C3 C2 1_555 1_555
H6 C3 1_555 1_555
H7 C3 1_555 1_555
C4 N1 1_555 1_555
C5 N2 1_555 1_555
H8 C5 1_555 1_555
C6 C5 1_555 1_555
H9 C6 1_555 1_555
C7 C6 1_555 1_555
H10 C7 1_555 1_555
H11 C7 1_555 1_555
C8 C4 1_555 1_555
C9 C8 1_555 1_555
C10 C9 1_555 1_555
C11 C10 1_555 1_555
H12 C11 1_555 1_555
C12 C11 1_555 1_555
H13 C12 1_555 1_555
C13 C12 1_555 1_555
H14 C13 1_555 1_555
C14 C13 1_555 1_555
H15 C14 1_555 1_555
C15 C10 1_555 1_555
H16 C15 1_555 1_555
C16 C5 1_555 1_555
C17 C16 1_555 1_555
H17 C17 1_555 1_555
C18 C17 1_555 1_555
H18 C18 1_555 1_555
C19 C18 1_555 1_555
H19 C19 1_555 1_555
O4 C16 1_555 1_555
O5 C28 1_555 1_555
O6 N6 1_555 1_555
O7 N6 1_555 1_555
O8 C35 1_555 1_555
N4 H20 1_555 1_555
N5 C21 1_555 1_555
N6 C25 1_555 1_555
C20 N4 1_555 1_555
H21 C20 1_555 1_555
H22 C20 1_555 1_555
C21 H23 1_555 1_555
H24 C21 1_555 1_555
C22 C20 1_555 1_555
H25 C22 1_555 1_555
H26 C22 1_555 1_555
C23 N4 1_555 1_555
C24 N5 1_555 1_555
H27 C24 1_555 1_555
C25 C24 1_555 1_555
H28 C25 1_555 1_555
C26 C25 1_555 1_555
H29 C26 1_555 1_555
H30 C26 1_555 1_555
C27 C23 1_555 1_555
C28 C27 1_555 1_555
C29 C28 1_555 1_555
C30 C29 1_555 1_555
H31 C30 1_555 1_555
C31 C30 1_555 1_555
H32 C31 1_555 1_555
C32 C31 1_555 1_555
H33 C32 1_555 1_555
C33 C32 1_555 1_555
H34 C33 1_555 1_555
C34 C29 1_555 1_555
H35 C34 1_555 1_555
C35 C24 1_555 1_555
C36 C35 1_555 1_555
H36 C36 1_555 1_555
C37 C36 1_555 1_555
H37 C37 1_555 1_555
C38 O8 1_555 1_555
H38 C38 1_555 1_555
N2 C4 1_555 1_555
C7 C8 1_555 1_555
C14 C15 1_555 1_555
C19 O4 1_555 1_555
N5 C23 1_555 1_555
C21 C22 1_555 1_555
C26 C27 1_555 1_555
C33 C34 1_555 1_555
C37 C38 1_555 1_555

#END
