
#######################################################################
#
#                 Cambridge Crystallographic Data Centre
#                                CCDC 
#
#######################################################################
#
# If this CIF has been generated from an entry in the Cambridge 
# Structural Database, then it will include bibliographic, chemical, 
# crystal, experimental, refinement or atomic coordinate data resulting 
# from the CCDC's data processing and validation procedures.
#
#######################################################################

data_FIDBAY
_chemical_formula_moiety         'C29 H18 O1'
_chemical_name_systematic        ([1,1'-biphenyl]-4-yl)(pyren-1-yl)methanone
_symmetry_cell_setting           orthorhombic
_symmetry_space_group_name_H-M   'P 21 21 21'
_symmetry_Int_Tables_number      19
_space_group_name_Hall           'P 2ac 2ab'
loop_
_symmetry_equiv_pos_site_id
_symmetry_equiv_pos_as_xyz
1 x,y,z
2 1/2-x,-y,1/2+z
3 -x,1/2+y,1/2-z
4 1/2+x,1/2-y,-z
_cell_length_a                   5.2858(7)
_cell_length_b                   8.2060(11)
_cell_length_c                   42.862(6)
_cell_angle_alpha                90
_cell_angle_beta                 90
_cell_angle_gamma                90
_cell_volume                     1859.15
_exptl_crystal_description       needle
_cell_formula_units_Z            4
loop_
_atom_site_label
_atom_site_type_symbol
_atom_site_fract_x
_atom_site_fract_y
_atom_site_fract_z
C1 C 0.4194(13) 0.9280(7) 0.94039(13)
C2 C 0.6163(12) 0.9187(7) 0.91793(12)
C3 C 0.6653(11) 0.7678(7) 0.90228(12)
C4 C 0.8609(12) 0.7637(7) 0.88001(12)
C5 C 1.0069(14) 0.9030(7) 0.87408(13)
H1 H 1.1409 0.8982 0.8593
C6 C 0.9568(12) 1.0478(7) 0.88962(13)
H2 H 1.0567 1.1413 0.8853
C7 C 0.7641(12) 1.0581(7) 0.91127(12)
C8 C 0.7052(14) 1.2075(7) 0.92682(13)
H3 H 0.8013 1.3024 0.9223
C9 C 0.5167(14) 1.2160(7) 0.94772(14)
H4 H 0.4805 1.3175 0.9574
C10 C 0.3695(14) 1.0769(8) 0.95569(13)
C11 C 0.1768(14) 1.0839(8) 0.97766(13)
H5 H 0.1421 1.1838 0.9880
C12 C 0.0350(13) 0.9473(9) 0.98464(14)
H6 H -0.0923 0.9535 1.0002
C13 C 0.0758(14) 0.8017(9) 0.96920(13)
H7 H -0.0287 0.7101 0.9734
C14 C 0.2705(12) 0.7899(7) 0.94750(13)
C15 C 0.3200(13) 0.6433(8) 0.93080(14)
H8 H 0.2175 0.5503 0.9347
C16 C 0.5092(13) 0.6325(7) 0.90952(14)
H9 H 0.5378 0.5317 0.8992
C17 C 0.9418(13) 0.6107(7) 0.86437(12)
C18 C 1.0377(12) 0.6226(6) 0.83139(13)
C19 C 0.9192(12) 0.7193(7) 0.80963(13)
H10 H 0.7812 0.7864 0.8157
C20 C 1.0009(12) 0.7190(7) 0.77895(13)
H11 H 0.9145 0.7841 0.7640
C21 C 1.2061(12) 0.6258(7) 0.76947(13)
C22 C 1.3231(12) 0.5301(8) 0.79171(13)
H12 H 1.4640 0.4651 0.7859
C23 C 1.2393(13) 0.5265(7) 0.82258(13)
H13 H 1.3206 0.4583 0.8374
C24 C 1.2935(12) 0.6275(7) 0.73657(12)
C25 C 1.1640(13) 0.7102(8) 0.71340(13)
H14 H 1.0164 0.7698 0.7189
C26 C 1.2409(14) 0.7095(8) 0.68281(14)
H15 H 1.1461 0.7666 0.6675
C27 C 1.4569(13) 0.6253(8) 0.67438(14)
H16 H 1.5119 0.6247 0.6533
C28 C 1.5901(13) 0.5432(9) 0.69660(14)
H17 H 1.7380 0.4844 0.6909
C29 C 1.5112(13) 0.5450(8) 0.72748(14)
H18 H 1.6078 0.4886 0.7427
O1 O 0.9417(9) 0.4798(5) 0.87744(9)
loop_
_geom_bond_atom_site_label_1
_geom_bond_atom_site_label_2
_geom_bond_site_symmetry_1
_geom_bond_site_symmetry_2
C1 C2 1_555 1_555
C2 C3 1_555 1_555
C3 C4 1_555 1_555
C4 C5 1_555 1_555
C5 H1 1_555 1_555
C6 C5 1_555 1_555
H2 C6 1_555 1_555
C7 C2 1_555 1_555
C8 C7 1_555 1_555
H3 C8 1_555 1_555
C9 C8 1_555 1_555
H4 C9 1_555 1_555
C10 C1 1_555 1_555
C11 C10 1_555 1_555
H5 C11 1_555 1_555
C12 C11 1_555 1_555
H6 C12 1_555 1_555
C13 C12 1_555 1_555
H7 C13 1_555 1_555
C14 C1 1_555 1_555
C15 C14 1_555 1_555
H8 C15 1_555 1_555
C16 C3 1_555 1_555
H9 C16 1_555 1_555
C17 C4 1_555 1_555
C18 C17 1_555 1_555
C19 C18 1_555 1_555
H10 C19 1_555 1_555
C20 C19 1_555 1_555
H11 C20 1_555 1_555
C21 C20 1_555 1_555
C22 C21 1_555 1_555
H12 C22 1_555 1_555
C23 C18 1_555 1_555
H13 C23 1_555 1_555
C24 C21 1_555 1_555
C25 C24 1_555 1_555
H14 C25 1_555 1_555
C26 C25 1_555 1_555
H15 C26 1_555 1_555
C27 C26 1_555 1_555
H16 C27 1_555 1_555
C28 C27 1_555 1_555
H17 C28 1_555 1_555
C29 C24 1_555 1_555
H18 C29 1_555 1_555
O1 C17 1_555 1_555
C6 C7 1_555 1_555
C9 C10 1_555 1_555
C13 C14 1_555 1_555
C15 C16 1_555 1_555
C22 C23 1_555 1_555
C28 C29 1_555 1_555

#END
