
#######################################################################
#
#                 Cambridge Crystallographic Data Centre
#                                CCDC 
#
#######################################################################
#
# If this CIF has been generated from an entry in the Cambridge 
# Structural Database, then it will include bibliographic, chemical, 
# crystal, experimental, refinement or atomic coordinate data resulting 
# from the CCDC's data processing and validation procedures.
#
#######################################################################

data_FIDCIF
_chemical_formula_moiety         'C12 H10 N2 O3'
_chemical_name_systematic        2-Benzyloxy-3-nitropyridine
_symmetry_cell_setting           triclinic
_symmetry_space_group_name_H-M   'P -1'
_symmetry_Int_Tables_number      2
_space_group_name_Hall           '-P 1'
loop_
_symmetry_equiv_pos_site_id
_symmetry_equiv_pos_as_xyz
1 x,y,z
2 -x,-y,-z
_cell_length_a                   7.374(2)
_cell_length_b                   7.707(2)
_cell_length_c                   10.928(3)
_cell_angle_alpha                83.340(4)
_cell_angle_beta                 82.215(4)
_cell_angle_gamma                63.269(3)
_cell_volume                     548.504
_exptl_crystal_colour            colorless
_exptl_crystal_description       block
_chemical_melting_point          '315-316 K'
_cell_formula_units_Z            2
loop_
_atom_site_label
_atom_site_type_symbol
_atom_site_fract_x
_atom_site_fract_y
_atom_site_fract_z
O1 O 0.2283(3) 0.9807(2) 0.46337(14)
O2 O 0.0715(3) 1.1262(2) 0.30251(13)
O3 O 0.22889(16) 0.89737(15) 0.11471(10)
N1 N 0.2686(2) 0.58574(19) 0.16285(12)
N2 N 0.1680(3) 0.9794(2) 0.36496(16)
C1 C 0.2087(3) 0.7911(2) 0.32423(16)
C2 C 0.2217(3) 0.6454(3) 0.41177(17)
H1 H 0.2087 0.6653 0.4955
C3 C 0.2540(3) 0.4698(3) 0.37434(18)
H2 H 0.2615 0.3682 0.4317
C4 C 0.2750(3) 0.4479(3) 0.25048(18)
H3 H 0.2952 0.3288 0.2254
C5 C 0.2342(2) 0.7559(2) 0.19901(14)
C6 C 0.2687(2) 0.8538(2) -0.01309(13)
H4 H 0.1654 0.8219 -0.0363
H5 H 0.4008 0.7432 -0.0271
C7 C 0.2656(2) 1.0302(2) -0.08875(14)
C8 C 0.2916(3) 1.0260(3) -0.21614(15)
H6 H 0.3094 0.9156 -0.2526
C9 C 0.2912(3) 1.1832(3) -0.28926(18)
H7 H 0.3098 1.1781 -0.3749
C10 C 0.2638(3) 1.3481(3) -0.2371(2)
H8 H 0.2644 1.4542 -0.2870
C11 C 0.2356(3) 1.3546(3) -0.11118(19)
H9 H 0.2153 1.4663 -0.0752
C12 C 0.2371(3) 1.1962(2) -0.03724(16)
H10 H 0.2187 1.2018 0.0484
loop_
_geom_bond_atom_site_label_1
_geom_bond_atom_site_label_2
_geom_bond_site_symmetry_1
_geom_bond_site_symmetry_2
O1 N2 1_555 1_555
O2 N2 1_555 1_555
O3 C5 1_555 1_555
N1 C4 1_555 1_555
N2 C1 1_555 1_555
C1 C2 1_555 1_555
C2 H1 1_555 1_555
C3 C2 1_555 1_555
H2 C3 1_555 1_555
C4 C3 1_555 1_555
H3 C4 1_555 1_555
C5 N1 1_555 1_555
C6 O3 1_555 1_555
H4 C6 1_555 1_555
H5 C6 1_555 1_555
C7 C6 1_555 1_555
C8 C7 1_555 1_555
H6 C8 1_555 1_555
C9 C8 1_555 1_555
H7 C9 1_555 1_555
C10 C9 1_555 1_555
H8 C10 1_555 1_555
C11 C10 1_555 1_555
H9 C11 1_555 1_555
C12 C7 1_555 1_555
H10 C12 1_555 1_555
C1 C5 1_555 1_555
C11 C12 1_555 1_555

#END
