
#######################################################################
#
#                 Cambridge Crystallographic Data Centre
#                                CCDC 
#
#######################################################################
#
# If this CIF has been generated from an entry in the Cambridge 
# Structural Database, then it will include bibliographic, chemical, 
# crystal, experimental, refinement or atomic coordinate data resulting 
# from the CCDC's data processing and validation procedures.
#
#######################################################################

data_FIDJAE
_chemical_formula_moiety         'C22 H22 Cl1 N1 O3 S1'
_chemical_name_systematic        
"(1S,2R)-2-amino-2-(4'-chlorophenyl)-1-phenylethyl-N-tosyl methyl ether"
_symmetry_cell_setting           orthorhombic
_symmetry_space_group_name_H-M   'P 21 21 21'
_symmetry_Int_Tables_number      19
_space_group_name_Hall           'P 2ac 2ab'
loop_
_symmetry_equiv_pos_site_id
_symmetry_equiv_pos_as_xyz
1 x,y,z
2 1/2-x,-y,1/2+z
3 -x,1/2+y,1/2-z
4 1/2+x,1/2-y,-z
_cell_length_a                   9.7248(3)
_cell_length_b                   14.0714(4)
_cell_length_c                   15.8290(4)
_cell_angle_alpha                90
_cell_angle_beta                 90
_cell_angle_gamma                90
_cell_volume                     2166.06
_chemical_melting_point          151-152deg.C
_cell_formula_units_Z            4
loop_
_atom_site_label
_atom_site_type_symbol
_atom_site_fract_x
_atom_site_fract_y
_atom_site_fract_z
Cl1 Cl -0.7879(3) -0.17858(15) 0.44695(12)
S1 S -0.7947(2) -0.19060(13) -0.02499(11)
O1 O -0.6575(4) -0.2132(3) -0.0515(3)
O2 O -0.8990(4) -0.1713(3) -0.0874(3)
O3 O -0.7755(6) -0.4662(3) 0.0062(3)
N1 N -0.8512(5) -0.2775(3) 0.0310(3)
H1 H -0.9355 -0.2942 0.0240
C1 C -0.7607(8) 0.1509(4) 0.2056(4)
H2 H -0.6685 0.1586 0.2261
H3 H -0.8221 0.1427 0.2525
H4 H -0.7870 0.2064 0.1741
C2 C -0.7678(11) 0.0650(5) 0.1493(5)
C3 C -0.6541(9) 0.0128(6) 0.1319(5)
H5 H -0.5706 0.0294 0.1564
C4 C -0.6602(8) -0.0643(6) 0.0786(5)
H6 H -0.5812 -0.0993 0.0670
C5 C -0.7830(10) -0.0895(4) 0.0427(4)
C6 C -0.9003(8) -0.0392(5) 0.0593(4)
H7 H -0.9836 -0.0573 0.0352
C7 C -0.8936(9) 0.0394(5) 0.1126(5)
H8 H -0.9723 0.0748 0.1238
C8 C -0.7690(6) -0.3307(4) 0.0934(4)
H9 H -0.6726 -0.3290 0.0755
C9 C -0.7782(9) -0.2885(4) 0.1816(4)
C10 C -0.8960(8) -0.2500(5) 0.2137(5)
H10 H -0.9738 -0.2457 0.1798
C11 C -0.9010(8) -0.2171(5) 0.2965(5)
H11 H -0.9815 -0.1917 0.3188
C12 C -0.7832(11) -0.2231(5) 0.3446(4)
C13 C -0.6651(9) -0.2625(5) 0.3145(5)
H12 H -0.5879 -0.2667 0.3490
C14 C -0.6605(7) -0.2956(5) 0.2342(5)
H13 H -0.5803 -0.3231 0.2136
C15 C -0.8199(8) -0.4356(4) 0.0880(4)
H14 H -0.9205 -0.4377 0.0915
C16 C -0.8212(8) -0.5589(4) -0.0144(4)
H15 H -0.7876 -0.5761 -0.0693
H16 H -0.9199 -0.5603 -0.0146
H17 H -0.7872 -0.6032 0.0267
C17 C -0.7577(9) -0.4958(5) 0.1573(5)
C18 C -0.8393(8) -0.5255(5) 0.2244(5)
H18 H -0.9313 -0.5076 0.2267
C19 C -0.7851(12) -0.5807(6) 0.2868(6)
H19 H -0.8409 -0.6002 0.3312
C20 C -0.6516(12) -0.6079(7) 0.2853(7)
H20 H -0.6149 -0.6448 0.3285
C21 C -0.5706(9) -0.5791(6) 0.2174(7)
H21 H -0.4791 -0.5982 0.2150
C22 C -0.6219(9) -0.5241(5) 0.1551(5)
H22 H -0.5657 -0.5053 0.1106
loop_
_geom_bond_atom_site_label_1
_geom_bond_atom_site_label_2
_geom_bond_site_symmetry_1
_geom_bond_site_symmetry_2
Cl1 C12 1_555 1_555
S1 O1 1_555 1_555
O2 S1 1_555 1_555
O3 C15 1_555 1_555
N1 S1 1_555 1_555
H1 N1 1_555 1_555
C1 H2 1_555 1_555
H3 C1 1_555 1_555
H4 C1 1_555 1_555
C2 C1 1_555 1_555
C3 C2 1_555 1_555
H5 C3 1_555 1_555
C4 C3 1_555 1_555
H6 C4 1_555 1_555
C5 S1 1_555 1_555
C6 C5 1_555 1_555
H7 C6 1_555 1_555
C7 C2 1_555 1_555
H8 C7 1_555 1_555
C8 N1 1_555 1_555
H9 C8 1_555 1_555
C9 C8 1_555 1_555
C10 C9 1_555 1_555
H10 C10 1_555 1_555
C11 C10 1_555 1_555
H11 C11 1_555 1_555
C12 C11 1_555 1_555
C13 C12 1_555 1_555
H12 C13 1_555 1_555
C14 C9 1_555 1_555
H13 C14 1_555 1_555
C15 C8 1_555 1_555
H14 C15 1_555 1_555
C16 O3 1_555 1_555
H15 C16 1_555 1_555
H16 C16 1_555 1_555
H17 C16 1_555 1_555
C17 C15 1_555 1_555
C18 C17 1_555 1_555
H18 C18 1_555 1_555
C19 C18 1_555 1_555
H19 C19 1_555 1_555
C20 C19 1_555 1_555
H20 C20 1_555 1_555
C21 C20 1_555 1_555
H21 C21 1_555 1_555
C22 C17 1_555 1_555
H22 C22 1_555 1_555
C4 C5 1_555 1_555
C6 C7 1_555 1_555
C13 C14 1_555 1_555
C21 C22 1_555 1_555

#END
