
#######################################################################
#
#                 Cambridge Crystallographic Data Centre
#                                CCDC 
#
#######################################################################
#
# If this CIF has been generated from an entry in the Cambridge 
# Structural Database, then it will include bibliographic, chemical, 
# crystal, experimental, refinement or atomic coordinate data resulting 
# from the CCDC's data processing and validation procedures.
#
#######################################################################

data_FIDKIO
_chemical_formula_moiety         'C29 H23 N3 O5'
_chemical_name_systematic        
"Methyl 1-benzyl-5'-cyano-1'-(4-methoxyphenyl)-2,6'-dioxo-1,2,5',6'-tetrahydro-1'H-spiro[indole-3,4'-pyridine]-3'-carboxylate"
_symmetry_cell_setting           monoclinic
_symmetry_space_group_name_H-M   'P 21/c'
_symmetry_Int_Tables_number      14
_space_group_name_Hall           '-P 2ybc'
loop_
_symmetry_equiv_pos_site_id
_symmetry_equiv_pos_as_xyz
1 x,y,z
2 -x,1/2+y,1/2-z
3 -x,-y,-z
4 x,1/2-y,1/2+z
_cell_length_a                   11.4573(16)
_cell_length_b                   16.752(2)
_cell_length_c                   13.8134(19)
_cell_angle_alpha                90
_cell_angle_beta                 112.383(2)
_cell_angle_gamma                90
_cell_volume                     2451.5
_cell_formula_units_Z            4
loop_
_atom_site_label
_atom_site_type_symbol
_atom_site_fract_x
_atom_site_fract_y
_atom_site_fract_z
C1 C 0.4075(3) -0.0084(2) 0.7403(2)
H1 H 0.4434 0.0442 0.7540
H2 H 0.4485 -0.0419 0.8001
H3 H 0.3189 -0.0055 0.7266
C2 C 0.3548(2) -0.00928(14) 0.55542(16)
C3 C 0.2813(2) 0.05811(13) 0.53925(17)
H4 H 0.2752 0.0852 0.5959
C4 C 0.21590(19) 0.08566(13) 0.43767(16)
H5 H 0.1684 0.1322 0.4266
C5 C 0.22166(17) 0.04407(11) 0.35409(15)
C6 C 0.29483(18) -0.02409(12) 0.37024(16)
H6 H 0.2982 -0.0525 0.3135
C7 C 0.3628(2) -0.04973(13) 0.47098(17)
H7 H 0.4143 -0.0945 0.4821
C8 C 0.01829(18) 0.07356(11) 0.21565(16)
C9 C -0.05107(16) 0.08732(11) 0.09867(15)
H8 H -0.0515 0.0359 0.0647
C10 C 0.01584(16) 0.14710(11) 0.05157(14)
C11 C 0.14939(16) 0.11568(11) 0.08350(14)
C12 C 0.20629(17) 0.08157(11) 0.17715(15)
H9 H 0.2893 0.0646 0.1960
C13 C -0.18343(18) 0.10719(12) 0.07596(16)
C14 C 0.21635(17) 0.13257(12) 0.01334(15)
C15 C 0.3874(2) 0.09654(18) -0.0343(2)
H10 H 0.3309 0.1133 -0.1025
H11 H 0.4264 0.0470 -0.0400
H12 H 0.4513 0.1364 -0.0049
C16 C 0.00947(15) 0.23424(11) 0.07962(14)
C17 C 0.06185(17) 0.27462(12) 0.17355(15)
H13 H 0.1080 0.2474 0.2349
C18 C 0.04428(19) 0.35691(13) 0.17466(17)
H14 H 0.0783 0.3849 0.2373
C19 C -0.0235(2) 0.39697(13) 0.08284(18)
H15 H -0.0332 0.4520 0.0847
C20 C -0.07738(19) 0.35731(12) -0.01183(17)
H16 H -0.1237 0.3845 -0.0732
C21 C -0.05962(16) 0.27572(11) -0.01152(14)
C22 C -0.05876(16) 0.14720(12) -0.06787(15)
C23 C -0.17946(18) 0.24420(13) -0.20509(15)
H17 H -0.1599 0.2082 -0.2518
H18 H -0.1565 0.2977 -0.2182
C24 C -0.32001(18) 0.24184(12) -0.23133(16)
C25 C -0.3717(2) 0.25238(16) -0.1574(2)
H19 H -0.3192 0.2600 -0.0877
C26 C -0.5025(2) 0.25179(17) -0.1860(3)
H20 H -0.5366 0.2595 -0.1355
C27 C -0.5803(2) 0.23982(16) -0.2880(3)
H21 H -0.6674 0.2389 -0.3071
C28 C -0.5294(2) 0.22923(17) -0.3621(2)
H22 H -0.5823 0.2210 -0.4316
C29 C -0.4001(2) 0.23063(14) -0.33438(18)
H23 H -0.3667 0.2240 -0.3856
N1 N 0.14821(13) 0.06990(9) 0.24829(12)
N2 N -0.28627(17) 0.12253(14) 0.05633(17)
N3 N -0.10250(14) 0.22248(9) -0.09744(12)
O1 O 0.42474(17) -0.04093(11) 0.65194(12)
O2 O -0.03778(13) 0.06411(9) 0.27361(11)
O3 O 0.18279(13) 0.18227(9) -0.05483(11)
O4 O 0.31749(13) 0.08589(9) 0.03285(12)
O5 O -0.07860(12) 0.08869(8) -0.12475(10)
loop_
_geom_bond_atom_site_label_1
_geom_bond_atom_site_label_2
_geom_bond_site_symmetry_1
_geom_bond_site_symmetry_2
C1 H1 1_555 1_555
H2 C1 1_555 1_555
H3 C1 1_555 1_555
C2 C3 1_555 1_555
C3 H4 1_555 1_555
C4 C3 1_555 1_555
H5 C4 1_555 1_555
C5 C4 1_555 1_555
C6 C5 1_555 1_555
H6 C6 1_555 1_555
C7 C2 1_555 1_555
H7 C7 1_555 1_555
C8 C9 1_555 1_555
C9 H8 1_555 1_555
C10 C9 1_555 1_555
C11 C10 1_555 1_555
C12 C11 1_555 1_555
H9 C12 1_555 1_555
C13 C9 1_555 1_555
C14 C11 1_555 1_555
C15 H10 1_555 1_555
H11 C15 1_555 1_555
H12 C15 1_555 1_555
C16 C10 1_555 1_555
C17 C16 1_555 1_555
H13 C17 1_555 1_555
C18 C17 1_555 1_555
H14 C18 1_555 1_555
C19 C18 1_555 1_555
H15 C19 1_555 1_555
C20 C19 1_555 1_555
H16 C20 1_555 1_555
C21 C16 1_555 1_555
C22 C10 1_555 1_555
C23 H17 1_555 1_555
H18 C23 1_555 1_555
C24 C23 1_555 1_555
C25 C24 1_555 1_555
H19 C25 1_555 1_555
C26 C25 1_555 1_555
H20 C26 1_555 1_555
C27 C26 1_555 1_555
H21 C27 1_555 1_555
C28 C27 1_555 1_555
H22 C28 1_555 1_555
C29 C24 1_555 1_555
H23 C29 1_555 1_555
N1 C5 1_555 1_555
N2 C13 1_555 1_555
N3 C21 1_555 1_555
O1 C1 1_555 1_555
O2 C8 1_555 1_555
O3 C14 1_555 1_555
O4 C14 1_555 1_555
O5 C22 1_555 1_555
C2 O1 1_555 1_555
C6 C7 1_555 1_555
C8 N1 1_555 1_555
C12 N1 1_555 1_555
C15 O4 1_555 1_555
C20 C21 1_555 1_555
C22 N3 1_555 1_555
C23 N3 1_555 1_555
C28 C29 1_555 1_555

#END
