
#######################################################################
#
#                 Cambridge Crystallographic Data Centre
#                                CCDC 
#
#######################################################################
#
# If this CIF has been generated from an entry in the Cambridge 
# Structural Database, then it will include bibliographic, chemical, 
# crystal, experimental, refinement or atomic coordinate data resulting 
# from the CCDC's data processing and validation procedures.
#
#######################################################################

data_FIDLOW
_chemical_formula_moiety         'C13 H13 Cl1 F1 N1 O4 S1'
_chemical_name_systematic        
'ethyl 6-chloro-7-fluoro-1,1-dioxo-3-(prop-2-en-1-yl)-2,3-dihydro-1H-1\l^6^,2-benzothiazole-3-carboxylate'
_symmetry_cell_setting           orthorhombic
_symmetry_space_group_name_H-M   'P 21 21 21'
_symmetry_Int_Tables_number      19
_space_group_name_Hall           'P 2ac 2ab'
loop_
_symmetry_equiv_pos_site_id
_symmetry_equiv_pos_as_xyz
1 x,y,z
2 1/2-x,-y,1/2+z
3 -x,1/2+y,1/2-z
4 1/2+x,1/2-y,-z
_cell_length_a                   14.6771(3)
_cell_length_b                   17.8393(4)
_cell_length_c                   22.9811(6)
_cell_angle_alpha                90
_cell_angle_beta                 90
_cell_angle_gamma                90
_cell_volume                     6017.12
_exptl_crystal_colour            colorless
_exptl_crystal_description       block
_cell_formula_units_Z            16
loop_
_atom_site_label
_atom_site_type_symbol
_atom_site_fract_x
_atom_site_fract_y
_atom_site_fract_z
S1 S 0.93626(5) 0.78910(5) 0.45239(4)
C1 C 1.1095(2) 0.76165(17) 0.45173(13)
O1 O 0.89831(17) 0.79366(19) 0.50946(13)
N1 N 1.00148(18) 0.86190(16) 0.43882(13)
H1 H 0.9797 0.9061 0.4291
F1 F 0.93993(16) 0.61493(13) 0.46436(13)
Cl1 Cl 1.09532(9) 0.51161(6) 0.47590(6)
C2 C 1.1890(2) 0.72119(19) 0.45838(15)
H2 H 1.2464 0.7459 0.4581
O2 O 0.87453(17) 0.77705(17) 0.40529(13)
C3 C 1.1008(3) 0.6078(2) 0.46635(18)
O3 O 1.23393(16) 0.86112(14) 0.38969(11)
C4 C 1.1843(2) 0.6442(2) 0.46546(17)
H3 H 1.2388 0.6161 0.4697
O4 O 1.10528(17) 0.90574(14) 0.35031(11)
C5 C 1.1036(3) 0.8669(2) 0.55418(16)
H4 H 1.0415 0.8782 0.5616
C6 C 1.1425(2) 0.88938(19) 0.49683(15)
H5 H 1.2090 0.8802 0.4973
H6 H 1.1328 0.9438 0.4912
C7 C 1.0997(2) 0.84640(17) 0.44445(14)
C8 C 1.0265(2) 0.72500(19) 0.45390(15)
C9 C 1.0212(2) 0.6485(2) 0.46156(18)
C10 C 1.1495(3) 0.8327(3) 0.59462(18)
H7 H 1.2118 0.8206 0.5885
H8 H 1.1207 0.8199 0.6303
C11 C 1.1460(2) 0.87398(18) 0.38837(14)
C12 C 1.2861(3) 0.8821(2) 0.33787(17)
H9 H 1.2659 0.9315 0.3232
H10 H 1.2772 0.8445 0.3067
C13 C 1.3844(3) 0.8852(3) 0.3553(2)
H11 H 1.4049 0.8350 0.3667
H12 H 1.3917 0.9197 0.3881
H13 H 1.4210 0.9028 0.3223
S2 S 1.05463(5) 0.75903(4) 0.24709(4)
N2 N 0.99355(17) 0.83569(14) 0.25379(13)
H14 H 1.0172 0.8808 0.2573
F2 F 1.04667(14) 0.58582(12) 0.26754(12)
Cl2 Cl 0.89035(7) 0.48707(5) 0.28756(5)
O5 O 0.76379(16) 0.86050(13) 0.30411(12)
O6 O 0.89653(18) 0.91345(13) 0.33019(11)
O7 O 1.07989(18) 0.74778(16) 0.18783(14)
O8 O 1.12551(17) 0.75817(15) 0.28962(16)
C14 C 0.8825(2) 0.73740(17) 0.26557(14)
C15 C 0.9638(2) 0.69838(18) 0.26377(15)
C16 C 0.9668(2) 0.62174(19) 0.27046(16)
C17 C 0.8864(2) 0.58324(18) 0.27997(16)
C18 C 0.8045(2) 0.62202(19) 0.28179(16)
H15 H 0.7494 0.5953 0.2881
C19 C 0.8020(2) 0.69883(18) 0.27456(16)
H16 H 0.7455 0.7249 0.2758
C20 C 0.8944(2) 0.82076(16) 0.25325(15)
C21 C 0.8597(3) 0.9237(2) 0.18106(17)
H17 H 0.9186 0.9435 0.1734
C22 C 0.8524(2) 0.84125(19) 0.19390(16)
H18 H 0.8838 0.8127 0.1629
H19 H 0.7874 0.8264 0.1936
C23 C 0.7188(3) 0.9051(3) 0.3495(2)
H20 H 0.7484 0.8958 0.3875
H21 H 0.7244 0.9591 0.3403
C24 C 0.8529(2) 0.87034(17) 0.30077(16)
C25 C 0.7907(3) 0.9699(2) 0.17964(18)
H22 H 0.7308 0.9520 0.1871
H23 H 0.8004 1.0215 0.1712
C26 C 0.6253(4) 0.8849(4) 0.3525(3)
H24 H 0.6017 0.8475 0.3272
H25 H 0.5864 0.9087 0.3798
S3 S 0.45072(5) 0.73107(4) 0.00882(3)
N3 N 0.51155(16) 0.65435(15) 0.01433(12)
H26 H 0.4880 0.6090 0.0151
F3 F 0.45484(13) 0.90259(11) 0.04007(10)
Cl3 Cl 0.60933(7) 0.99924(5) 0.07216(5)
O9 O 0.43245(16) 0.74779(15) -0.05046(11)
O10 O 0.37463(14) 0.72771(14) 0.04818(11)
O11 O 0.60306(17) 0.57036(13) 0.08926(11)
O12 O 0.73788(15) 0.62352(13) 0.06877(11)
C27 C 0.62028(19) 0.75168(16) 0.03610(12)
C28 C 0.53874(19) 0.79060(17) 0.03351(13)
C29 C 0.5346(2) 0.86618(19) 0.04469(15)
C30 C 0.6130(2) 0.90390(17) 0.05953(15)
C31 C 0.6957(2) 0.86531(18) 0.06282(14)
H27 H 0.7496 0.8915 0.0733
C32 C 0.69981(19) 0.78961(18) 0.05102(13)
H28 H 0.7562 0.7637 0.0531
C33 C 0.6103(2) 0.66965(17) 0.01786(14)
C34 C 0.6571(2) 0.65671(18) -0.04165(14)
H29 H 0.6274 0.6885 -0.0714
H30 H 0.7218 0.6721 -0.0390
C35 C 0.6522(2) 0.5759(2) -0.06041(16)
H31 H 0.5937 0.5553 -0.0682
C36 C 0.7226(3) 0.5322(2) -0.06661(18)
H32 H 0.7821 0.5510 -0.0591
H33 H 0.7146 0.4817 -0.0786
C37 C 0.6490(2) 0.61523(17) 0.06313(14)
C38 C 0.7795(3) 0.5737(2) 0.11248(18)
H34 H 0.7503 0.5812 0.1509
H35 H 0.7715 0.5206 0.1010
C39 C 0.8771(3) 0.5922(3) 0.1158(2)
H36 H 0.9046 0.5872 0.0771
H37 H 0.9073 0.5580 0.1429
H38 H 0.8843 0.6439 0.1295
S4 S 0.55553(5) 0.70135(4) 0.20851(3)
N4 N 0.49035(17) 0.62809(15) 0.19538(12)
H39 H 0.5118 0.5827 0.1893
F4 F 0.55838(14) 0.87636(12) 0.20082(11)
Cl4 Cl 0.40738(8) 0.98360(5) 0.18691(6)
O13 O 0.58063(16) 0.70456(16) 0.26843(10)
O14 O 0.62729(15) 0.70455(14) 0.16661(11)
O15 O 0.39571(16) 0.57609(13) 0.10528(11)
O16 O 0.26231(15) 0.61965(14) 0.13885(10)
C40 C 0.46881(19) 0.76720(18) 0.19642(13)
C41 C 0.3850(2) 0.73180(17) 0.19170(13)
C42 C 0.3992(3) 0.88707(19) 0.18834(16)
C43 C 0.3146(2) 0.8518(2) 0.18334(16)
H40 H 0.2613 0.8814 0.1785
C44 C 0.3070(2) 0.77501(19) 0.18527(14)
H41 H 0.2489 0.7518 0.1822
C45 C 0.3921(2) 0.64648(17) 0.19491(13)
C46 C 0.3420(2) 0.6137(2) 0.24893(15)
H42 H 0.2773 0.6293 0.2477
H43 H 0.3438 0.5583 0.2469
C47 C 0.3825(2) 0.63832(19) 0.30561(14)
H44 H 0.4437 0.6247 0.3140
C48 C 0.3379(3) 0.6775(2) 0.34402(17)
H45 H 0.2767 0.6918 0.3367
H46 H 0.3667 0.6917 0.3794
C49 C 0.3511(2) 0.61035(18) 0.14040(14)
C50 C 0.2145(2) 0.5917(2) 0.08743(16)
H47 H 0.2368 0.5410 0.0771
H48 H 0.2251 0.6255 0.0539
C51 C 0.1155(3) 0.5890(2) 0.10199(18)
H49 H 0.0823 0.5639 0.0706
H50 H 0.0923 0.6402 0.1066
H51 H 0.1069 0.5612 0.1384
C52 C 0.4762(2) 0.8444(2) 0.19523(15)
loop_
_geom_bond_atom_site_label_1
_geom_bond_atom_site_label_2
_geom_bond_site_symmetry_1
_geom_bond_site_symmetry_2
S1 O1 1_555 1_555
C1 C2 1_555 1_555
N1 S1 1_555 1_555
H1 N1 1_555 1_555
F1 C9 1_555 1_555
Cl1 C3 1_555 1_555
C2 H2 1_555 1_555
O2 S1 1_555 1_555
C3 C4 1_555 1_555
O3 C11 1_555 1_555
C4 C2 1_555 1_555
H3 C4 1_555 1_555
O4 C11 1_555 1_555
C5 H4 1_555 1_555
C6 C5 1_555 1_555
H5 C6 1_555 1_555
H6 C6 1_555 1_555
C7 C1 1_555 1_555
C8 S1 1_555 1_555
C9 C3 1_555 1_555
C10 C5 1_555 1_555
H7 C10 1_555 1_555
H8 C10 1_555 1_555
C11 C7 1_555 1_555
C12 O3 1_555 1_555
H9 C12 1_555 1_555
H10 C12 1_555 1_555
C13 C12 1_555 1_555
H11 C13 1_555 1_555
H12 C13 1_555 1_555
H13 C13 1_555 1_555
S2 N2 1_555 1_555
N2 H14 1_555 1_555
F2 C16 1_555 1_555
Cl2 C17 1_555 1_555
O5 C23 1_555 1_555
O6 C24 1_555 1_555
O7 S2 1_555 1_555
O8 S2 1_555 1_555
C14 C15 1_555 1_555
C15 S2 1_555 1_555
C16 C15 1_555 1_555
C17 C16 1_555 1_555
C18 C17 1_555 1_555
H15 C18 1_555 1_555
C19 C14 1_555 1_555
H16 C19 1_555 1_555
C20 N2 1_555 1_555
C21 H17 1_555 1_555
C22 C20 1_555 1_555
H18 C22 1_555 1_555
H19 C22 1_555 1_555
C23 H20 1_555 1_555
H21 C23 1_555 1_555
C24 O5 1_555 1_555
C25 C21 1_555 1_555
H22 C25 1_555 1_555
H23 C25 1_555 1_555
C26 C23 1_555 1_555
H24 C26 1_555 1_555
H25 C26 1_555 1_555
S3 N3 1_555 1_555
N3 H26 1_555 1_555
F3 C29 1_555 1_555
Cl3 C30 1_555 1_555
O9 S3 1_555 1_555
O10 S3 1_555 1_555
O11 C37 1_555 1_555
O12 C37 1_555 1_555
C27 C28 1_555 1_555
C28 S3 1_555 1_555
C29 C28 1_555 1_555
C30 C29 1_555 1_555
C31 C30 1_555 1_555
H27 C31 1_555 1_555
C32 C27 1_555 1_555
H28 C32 1_555 1_555
C33 N3 1_555 1_555
C34 C33 1_555 1_555
H29 C34 1_555 1_555
H30 C34 1_555 1_555
C35 C34 1_555 1_555
H31 C35 1_555 1_555
C36 C35 1_555 1_555
H32 C36 1_555 1_555
H33 C36 1_555 1_555
C37 C33 1_555 1_555
C38 O12 1_555 1_555
H34 C38 1_555 1_555
H35 C38 1_555 1_555
C39 C38 1_555 1_555
H36 C39 1_555 1_555
H37 C39 1_555 1_555
H38 C39 1_555 1_555
S4 N4 1_555 1_555
N4 H39 1_555 1_555
F4 C52 1_555 1_555
Cl4 C42 1_555 1_555
O13 S4 1_555 1_555
O14 S4 1_555 1_555
O15 C49 1_555 1_555
O16 C49 1_555 1_555
C40 S4 1_555 1_555
C41 C40 1_555 1_555
C42 C43 1_555 1_555
C43 H40 1_555 1_555
C44 C41 1_555 1_555
H41 C44 1_555 1_555
C45 N4 1_555 1_555
C46 C45 1_555 1_555
H42 C46 1_555 1_555
H43 C46 1_555 1_555
C47 C46 1_555 1_555
H44 C47 1_555 1_555
C48 C47 1_555 1_555
H45 C48 1_555 1_555
H46 C48 1_555 1_555
C49 C45 1_555 1_555
C50 O16 1_555 1_555
H47 C50 1_555 1_555
H48 C50 1_555 1_555
C51 C50 1_555 1_555
H49 C51 1_555 1_555
H50 C51 1_555 1_555
H51 C51 1_555 1_555
C52 C40 1_555 1_555
C1 C8 1_555 1_555
N1 C7 1_555 1_555
C6 C7 1_555 1_555
C8 C9 1_555 1_555
C14 C20 1_555 1_555
C18 C19 1_555 1_555
C20 C24 1_555 1_555
C21 C22 1_555 1_555
C27 C33 1_555 1_555
C31 C32 1_555 1_555
C41 C45 1_555 1_555
C42 C52 1_555 1_555
C43 C44 1_555 1_555

#END
