
#######################################################################
#
#                 Cambridge Crystallographic Data Centre
#                                CCDC 
#
#######################################################################
#
# If this CIF has been generated from an entry in the Cambridge 
# Structural Database, then it will include bibliographic, chemical, 
# crystal, experimental, refinement or atomic coordinate data resulting 
# from the CCDC's data processing and validation procedures.
#
#######################################################################

data_FIDLIO
_chemical_formula_moiety         'C13 H14 N2,C13 H12 O2'
_chemical_name_systematic        
'4-(4-Hydroxybenzyl)phenol 4-(4-aminobenzyl)aniline'
_symmetry_cell_setting           monoclinic
_symmetry_space_group_name_H-M   'P 21/n'
_symmetry_Int_Tables_number      14
_space_group_name_Hall           '-P 2yn'
loop_
_symmetry_equiv_pos_site_id
_symmetry_equiv_pos_as_xyz
1 x,y,z
2 1/2-x,1/2+y,1/2-z
3 -x,-y,-z
4 1/2+x,1/2-y,1/2+z
_cell_length_a                   11.401(4)
_cell_length_b                   9.943(3)
_cell_length_c                   19.681(6)
_cell_angle_alpha                90
_cell_angle_beta                 103.500(10)
_cell_angle_gamma                90
_cell_volume                     2169.4
_exptl_crystal_colour            colorless
_exptl_crystal_description       block
_chemical_melting_point          '408 K'
_cell_formula_units_Z            4
loop_
_atom_site_label
_atom_site_type_symbol
_atom_site_fract_x
_atom_site_fract_y
_atom_site_fract_z
N1 N 0.95494(10) 0.14276(11) 0.91774(7)
N2 N 0.55863(10) 0.96427(11) 0.90121(6)
H2 H 0.5963(16) 1.0119(18) 0.8732(9)
H3 H 0.4948(18) 1.0076(19) 0.9066(9)
C14 C 0.84066(10) 0.20764(12) 0.89859(6)
C15 C 0.78848(12) 0.26622(15) 0.94855(7)
H15 H 0.8315(16) 0.2657(18) 0.9969(9)
C16 C 0.67488(12) 0.32501(15) 0.92866(7)
H16 H 0.6382(16) 0.3660(18) 0.9628(9)
C17 C 0.61051(10) 0.32721(12) 0.85929(6)
C18 C 0.66275(12) 0.26677(14) 0.81015(7)
H17 H 0.6202(15) 0.2677(17) 0.7628(9)
C19 C 0.77633(12) 0.20677(14) 0.82968(7)
H18 H 0.8114(15) 0.1623(18) 0.7948(9)
C20 C 0.49012(11) 0.39976(13) 0.83885(7)
H19 H 0.4536(14) 0.3832(16) 0.7877(8)
H20 H 0.4311(15) 0.3624(17) 0.8654(8)
C21 C 0.50354(10) 0.55044(12) 0.85211(6)
C22 C 0.58940(11) 0.62512(13) 0.82831(6)
H21 H 0.6432(14) 0.5800(16) 0.8031(8)
C23 C 0.60514(11) 0.76196(13) 0.84169(7)
H22 H 0.6659(15) 0.8113(17) 0.8264(8)
C24 C 0.53502(10) 0.82862(12) 0.88046(6)
C25 C 0.44731(11) 0.75607(13) 0.90357(7)
H23 H 0.4002(15) 0.8016(17) 0.9306(8)
C26 C 0.43272(11) 0.61865(13) 0.88956(7)
H24 H 0.3716(15) 0.5700(17) 0.9068(8)
H25 H 0.9986(15) 0.1669(18) 0.9611(9)
H26 H 0.9962(17) 0.1552(19) 0.8853(9)
O1 O 0.17769(9) -0.47790(9) 0.54265(5)
H1 H 0.1536(17) -0.462(2) 0.4978(10)
C1 C 0.22863(10) -0.36559(12) 0.57755(6)
O2 O 0.61159(9) 0.37683(10) 0.57028(5)
H4 H 0.5806(19) 0.459(2) 0.5741(11)
C2 C 0.26932(11) -0.37607(13) 0.65002(6)
H5 H 0.2608(14) -0.4630(16) 0.6726(8)
C3 C 0.32068(11) -0.26498(13) 0.68885(6)
H6 H 0.3486(13) -0.2714(14) 0.7393(7)
C4 C 0.33243(10) -0.14198(12) 0.65688(6)
C5 C 0.29331(10) -0.13430(12) 0.58421(6)
H7 H 0.3014(13) -0.0509(15) 0.5610(7)
C6 C 0.24114(10) -0.24437(12) 0.54459(6)
H8 H 0.2142(13) -0.2354(15) 0.4951(8)
C7 C 0.37904(13) -0.01957(13) 0.70113(6)
H9 H 0.3083(15) 0.0235(17) 0.7165(8)
H10 H 0.4339(15) -0.0521(18) 0.7437(9)
C8 C 0.43889(11) 0.08668(12) 0.66588(6)
C9 C 0.53885(11) 0.05547(13) 0.63909(7)
H11 H 0.5713(15) -0.0352(18) 0.6421(8)
C10 C 0.59518(11) 0.15236(13) 0.60730(7)
H12 H 0.6638(14) 0.1308(16) 0.5892(8)
C11 C 0.55312(11) 0.28497(12) 0.60225(6)
C12 C 0.45284(11) 0.31741(13) 0.62795(6)
H13 H 0.4247(14) 0.4085(17) 0.6235(8)
C13 C 0.39661(11) 0.21843(13) 0.65900(6)
H14 H 0.3264(14) 0.2406(15) 0.6757(8)
loop_
_geom_bond_atom_site_label_1
_geom_bond_atom_site_label_2
_geom_bond_site_symmetry_1
_geom_bond_site_symmetry_2
N1 C14 1_555 1_555
O1 H1 1_555 1_555
C1 O1 1_555 1_555
N2 H2 1_555 1_555
H3 N2 1_555 1_555
O2 H4 1_555 1_555
C2 C1 1_555 1_555
H5 C2 1_555 1_555
C3 C2 1_555 1_555
H6 C3 1_555 1_555
C4 C3 1_555 1_555
C5 C4 1_555 1_555
H7 C5 1_555 1_555
C6 C1 1_555 1_555
H8 C6 1_555 1_555
C7 C4 1_555 1_555
H9 C7 1_555 1_555
H10 C7 1_555 1_555
C8 C7 1_555 1_555
C9 C8 1_555 1_555
H11 C9 1_555 1_555
C10 C9 1_555 1_555
H12 C10 1_555 1_555
C11 O2 1_555 1_555
C12 C11 1_555 1_555
H13 C12 1_555 1_555
C13 C8 1_555 1_555
H14 C13 1_555 1_555
C14 C15 1_555 1_555
C15 H15 1_555 1_555
C16 C15 1_555 1_555
H16 C16 1_555 1_555
C17 C16 1_555 1_555
C18 C17 1_555 1_555
H17 C18 1_555 1_555
C19 C14 1_555 1_555
H18 C19 1_555 1_555
C20 C17 1_555 1_555
H19 C20 1_555 1_555
H20 C20 1_555 1_555
C21 C20 1_555 1_555
C22 C21 1_555 1_555
H21 C22 1_555 1_555
C23 C22 1_555 1_555
H22 C23 1_555 1_555
C24 N2 1_555 1_555
C25 C24 1_555 1_555
H23 C25 1_555 1_555
C26 C21 1_555 1_555
H24 C26 1_555 1_555
H25 N1 1_555 1_555
H26 N1 1_555 1_555
C5 C6 1_555 1_555
C10 C11 1_555 1_555
C12 C13 1_555 1_555
C18 C19 1_555 1_555
C23 C24 1_555 1_555
C25 C26 1_555 1_555

#END
