
#######################################################################
#
#                 Cambridge Crystallographic Data Centre
#                                CCDC 
#
#######################################################################
#
# If this CIF has been generated from an entry in the Cambridge 
# Structural Database, then it will include bibliographic, chemical, 
# crystal, experimental, refinement or atomic coordinate data resulting 
# from the CCDC's data processing and validation procedures.
#
#######################################################################

data_FIDMUC
_chemical_formula_moiety         'C22 H18 N4 O4,C3 H7 N1 O1'
_chemical_name_systematic        
"Methyl 6'-amino-5'-cyano-1'-(4-methoxyphenyl)-2-oxo-1,2-dihydro-1'H-spiro[indole-3,4'-pyridine]-3'-carboxylate N,N-dimethylformamide"
_symmetry_cell_setting           monoclinic
_symmetry_space_group_name_H-M   'P 21/c'
_symmetry_Int_Tables_number      14
_space_group_name_Hall           '-P 2ybc'
loop_
_symmetry_equiv_pos_site_id
_symmetry_equiv_pos_as_xyz
1 x,y,z
2 -x,1/2+y,1/2-z
3 -x,-y,-z
4 x,1/2-y,1/2+z
_cell_length_a                   9.2636(13)
_cell_length_b                   21.388(3)
_cell_length_c                   14.1216(16)
_cell_angle_alpha                90
_cell_angle_beta                 117.420(7)
_cell_angle_gamma                90
_cell_volume                     2483.58
_cell_formula_units_Z            4
loop_
_atom_site_label
_atom_site_type_symbol
_atom_site_fract_x
_atom_site_fract_y
_atom_site_fract_z
C1 C 0.1703(3) 0.83136(11) 0.60626(17)
H1 H 0.2780 0.8440 0.6329
C2 C 0.1008(3) 0.82566(12) 0.67374(17)
H2 H 0.1625 0.8339 0.7461
C3 C -0.0588(3) 0.80784(11) 0.63487(17)
C4 C -0.2838(3) 0.79041(16) 0.6707(2)
H3 H -0.3494 0.8190 0.6151
H4 H -0.3111 0.7937 0.7284
H5 H -0.3038 0.7485 0.6433
C5 C -0.1488(3) 0.79414(12) 0.52866(18)
H6 H -0.2566 0.7816 0.5021
C6 C -0.0786(3) 0.79903(11) 0.46087(17)
H7 H -0.1392 0.7892 0.3890
C7 C 0.0792(2) 0.81828(9) 0.49913(15)
C8 C 0.2567(2) 0.78674(9) 0.41768(15)
C9 C 0.3282(2) 0.80222(9) 0.35484(15)
C10 C 0.4312(2) 0.75784(9) 0.34140(15)
C11 C 0.3117(2) 0.86591(8) 0.30241(15)
C12 C 0.1645(2) 0.89850(8) 0.29931(15)
C13 C 0.0988(2) 0.87957(9) 0.36130(16)
H8 H 0.0132 0.9030 0.3598
C14 C 0.1027(2) 0.95374(9) 0.23096(18)
C15 C -0.0966(3) 1.03330(12) 0.1642(3)
H9 H -0.0205 1.0671 0.1937
H10 H -0.1978 1.0446 0.1628
H11 H -0.1142 1.0249 0.0928
C16 C 0.2944(2) 0.85613(9) 0.18813(16)
C17 C 0.5317(2) 0.90938(9) 0.28258(18)
C18 C 0.6749(3) 0.94098(11) 0.3078(2)
H12 H 0.7160 0.9445 0.2591
C19 C 0.7539(3) 0.96698(13) 0.4075(3)
H13 H 0.8504 0.9887 0.4265
C20 C 0.6946(3) 0.96195(12) 0.4805(3)
H14 H 0.7513 0.9800 0.5477
C21 C 0.5489(3) 0.92972(11) 0.4540(2)
H15 H 0.5082 0.9260 0.5029
C22 C 0.4681(2) 0.90395(9) 0.35417(17)
N1 N 0.14822(19) 0.82828(8) 0.42681(13)
N2 N 0.2833(2) 0.73289(8) 0.47198(14)
H16 H 0.3487 0.7055 0.4685
H17 H 0.2348 0.7258 0.5102
N3 N 0.5151(2) 0.72298(9) 0.32904(15)
N4 N 0.4293(2) 0.87959(8) 0.18684(14)
H18 H 0.4495 0.8765 0.1334
O1 O -0.1175(2) 0.80518(10) 0.70822(13)
O2 O 0.16493(18) 0.97554(7) 0.17987(14)
O3 O -0.03222(18) 0.97806(7) 0.22905(15)
O4 O 0.18203(17) 0.82959(7) 0.11505(11)
C23 C 0.6379(4) 0.62151(14) 0.5182(2)
H19 H 0.7147 0.6452 0.5739
C24 C 0.5659(4) 0.56023(17) 0.3633(3)
H20 H 0.4727 0.5510 0.3737
H21 H 0.6154 0.5219 0.3578
H22 H 0.5326 0.5840 0.2990
C25 C 0.8375(3) 0.60848(14) 0.4563(2)
H23 H 0.9004 0.6354 0.5155
H24 H 0.8208 0.6285 0.3911
H25 H 0.8946 0.5698 0.4643
N5 N 0.6821(2) 0.59613(9) 0.45310(15)
O5 O 0.4993(3) 0.61675(11) 0.51242(19)
loop_
_geom_bond_atom_site_label_1
_geom_bond_atom_site_label_2
_geom_bond_site_symmetry_1
_geom_bond_site_symmetry_2
C1 H1 1_555 1_555
C2 C1 1_555 1_555
H2 C2 1_555 1_555
C3 C2 1_555 1_555
C4 H3 1_555 1_555
H4 C4 1_555 1_555
H5 C4 1_555 1_555
C5 C3 1_555 1_555
H6 C5 1_555 1_555
C6 C5 1_555 1_555
H7 C6 1_555 1_555
C7 C1 1_555 1_555
C8 C9 1_555 1_555
C9 C10 1_555 1_555
C10 N3 1_555 1_555
C11 C9 1_555 1_555
C12 C11 1_555 1_555
C13 C12 1_555 1_555
H8 C13 1_555 1_555
C14 C12 1_555 1_555
C15 H9 1_555 1_555
H10 C15 1_555 1_555
H11 C15 1_555 1_555
C16 C11 1_555 1_555
C17 C18 1_555 1_555
C18 H12 1_555 1_555
C19 C18 1_555 1_555
H13 C19 1_555 1_555
C20 C19 1_555 1_555
H14 C20 1_555 1_555
C21 C20 1_555 1_555
H15 C21 1_555 1_555
C22 C11 1_555 1_555
N1 C7 1_555 1_555
N2 C8 1_555 1_555
H16 N2 1_555 1_555
H17 N2 1_555 1_555
N4 C16 1_555 1_555
H18 N4 1_555 1_555
O1 C3 1_555 1_555
O2 C14 1_555 1_555
O3 C14 1_555 1_555
O4 C16 1_555 1_555
C23 H19 1_555 1_555
C24 H20 1_555 1_555
H21 C24 1_555 1_555
H22 C24 1_555 1_555
C25 H23 1_555 1_555
H24 C25 1_555 1_555
H25 C25 1_555 1_555
N5 C23 1_555 1_555
O5 C23 1_555 1_555
C4 O1 1_555 1_555
C6 C7 1_555 1_555
C8 N1 1_555 1_555
C13 N1 1_555 1_555
C15 O3 1_555 1_555
C17 C22 1_555 1_555
C17 N4 1_555 1_555
C21 C22 1_555 1_555
C24 N5 1_555 1_555
C25 N5 1_555 1_555

#END
