
#######################################################################
#
#                 Cambridge Crystallographic Data Centre
#                                CCDC 
#
#######################################################################
#
# If this CIF has been generated from an entry in the Cambridge 
# Structural Database, then it will include bibliographic, chemical, 
# crystal, experimental, refinement or atomic coordinate data resulting 
# from the CCDC's data processing and validation procedures.
#
#######################################################################

data_FIDQAL
_chemical_formula_moiety         'C10 H8 N2 O1,0.17(C6 H6)'
_chemical_name_systematic        "(1H-(2,2')-Bipyridinyl-6-one) benzene solvate"
_symmetry_cell_setting           rhombohedral
_symmetry_space_group_name_H-M   'R -3'
_symmetry_Int_Tables_number      148
_space_group_name_Hall           '-R 3'
loop_
_symmetry_equiv_pos_site_id
_symmetry_equiv_pos_as_xyz
1 x,y,z
2 -y,x-y,z
3 -x+y,-x,z
4 2/3+x,1/3+y,1/3+z
5 2/3-y,1/3+x-y,1/3+z
6 2/3-x+y,1/3-x,1/3+z
7 1/3+x,2/3+y,2/3+z
8 1/3-y,2/3+x-y,2/3+z
9 1/3-x+y,2/3-x,2/3+z
10 -x,-y,-z
11 y,-x+y,-z
12 x-y,x,-z
13 1/3-x,2/3-y,2/3-z
14 1/3+y,2/3-x+y,2/3-z
15 1/3+x-y,2/3+x,2/3-z
16 2/3-x,1/3-y,1/3-z
17 2/3+y,1/3-x+y,1/3-z
18 2/3+x-y,1/3+x,1/3-z
_cell_length_a                   30.2067(13)
_cell_length_b                   30.2067(13)
_cell_length_c                   5.1177(4)
_cell_angle_alpha                90
_cell_angle_beta                 90
_cell_angle_gamma                120.00
_cell_volume                     4044.01
_exptl_crystal_colour            yellow
_exptl_crystal_description       needle
_chemical_melting_point          115-116deg.C
_cell_formula_units_Z            18
loop_
_atom_site_label
_atom_site_type_symbol
_atom_site_fract_x
_atom_site_fract_y
_atom_site_fract_z
O1 O 0.55293(5) 0.54008(5) 0.1687(3)
N1 N 0.52265(5) 0.56580(5) -0.1716(3)
H1 H 0.4981 0.5340 -0.1944
N2 N 0.48539(6) 0.62577(6) -0.6734(3)
C1 C 0.55727(6) 0.57554(6) 0.0264(3)
C2 C 0.59684(6) 0.62774(6) 0.0517(3)
H2 H 0.6220 0.6370 0.1842
C3 C 0.59887(6) 0.66419(6) -0.1114(3)
H3 H 0.6255 0.6986 -0.0916
C4 C 0.56216(6) 0.65181(6) -0.3091(3)
H4 H 0.5640 0.6776 -0.4226
C5 C 0.52372(6) 0.60224(6) -0.3359(3)
C6 C 0.48339(6) 0.58669(7) -0.5389(3)
C7 C 0.44683(7) 0.53617(7) -0.5895(4)
H5 H 0.4462 0.5091 -0.4916
C8 C 0.41137(7) 0.52602(7) -0.7852(4)
H6 H 0.3858 0.4918 -0.8222
C9 C 0.41339(7) 0.56584(7) -0.9259(4)
H7 H 0.3896 0.5598 -1.0620
C10 C 0.45104(8) 0.61477(8) -0.8628(4)
H8 H 0.4526 0.6423 -0.9599
C11 C 0.3717(3) 0.6552(4) -1.3338(4)
H9 H 0.3987 0.6472 -1.3351
C11P C 0.3219(4) 0.6168(5) -1.3329(4)
C11B C 0.2835(5) 0.6283(3) -1.3338(4)
C11O C 0.2950(3) 0.6781(4) -1.3329(4)
C11A C 0.3448(4) 0.7165(5) -1.3338(4)
C11Q C 0.3832(5) 0.7050(3) -1.3329(4)
H9Q H 0.4182 0.7320 -1.3316
H9A H 0.3528 0.7515 -1.3351
H9O H 0.2680 0.6861 -1.3316
H9B H 0.2485 0.6013 -1.3351
H9P H 0.3139 0.5818 -1.3316
C12? C 0.36272(7) 0.6757(3) -1.5512(4)
H10? H 0.3862 0.6897 -1.6947
loop_
_geom_bond_atom_site_label_1
_geom_bond_atom_site_label_2
_geom_bond_site_symmetry_1
_geom_bond_site_symmetry_2
O1 C1 1_555 1_555
N1 H1 1_555 1_555
N2 C6 1_555 1_555
C1 N1 1_555 1_555
C2 C1 1_555 1_555
H2 C2 1_555 1_555
C3 C2 1_555 1_555
H3 C3 1_555 1_555
C4 C3 1_555 1_555
H4 C4 1_555 1_555
C5 N1 1_555 1_555
C6 C5 1_555 1_555
C7 C6 1_555 1_555
H5 C7 1_555 1_555
C8 C7 1_555 1_555
H6 C8 1_555 1_555
C9 C8 1_555 1_555
H7 C9 1_555 1_555
C10 N2 1_555 1_555
H8 C10 1_555 1_555
C11 H9 1_555 1_555
C11P C11 1_555 1_555
C11B C11P 1_555 1_555
C11O C11B 1_555 1_555
C11A C11O 1_555 1_555
C11Q C11 1_555 1_555
H9Q C11Q 1_555 1_555
H9A C11A 1_555 1_555
H9O C11O 1_555 1_555
H9B C11B 1_555 1_555
H9P C11P 1_555 1_555
C4 C5 1_555 1_555
C9 C10 1_555 1_555
C11A C11Q 1_555 1_555

#END
