
#######################################################################
#
#                 Cambridge Crystallographic Data Centre
#                                CCDC 
#
#######################################################################
#
# If this CIF has been generated from an entry in the Cambridge 
# Structural Database, then it will include bibliographic, chemical, 
# crystal, experimental, refinement or atomic coordinate data resulting 
# from the CCDC's data processing and validation procedures.
#
#######################################################################

data_FIFBEE
_chemical_formula_moiety         
'2(C42 H40 N12 O2 4+),3(C10 H8 O6 2-),2(C2 H6 O1),2(H1 O1 1-),26.5(H2 O1)'
_chemical_name_systematic        
"bis(15,36-dioxo-1,8,13,14,16,17,22,29,34,35,37,38-dodecaazaheptacyclo[38.2.2.2^3,6^.2^8,11^.2^19,22^.2^24,27^.2^29,32^]tetrapentaconta-1(42),3,5,8,10,12,17,19,21,24,26,29,31,33,38,40,43,45,47,49,51,53-docosaene-1,8,22,29-tetraium) (2,2'-[1,4-phenylenebis(oxy)]diacetate) clathrate bis(2,2'-[1,4-phenylenebis(oxy)]diacetate) dihydroxide ethanol solvate hydrate"
_symmetry_cell_setting           triclinic
_symmetry_space_group_name_H-M   'P -1'
_symmetry_Int_Tables_number      2
_space_group_name_Hall           '-P 1'
loop_
_symmetry_equiv_pos_site_id
_symmetry_equiv_pos_as_xyz
1 x,y,z
2 -x,-y,-z
_cell_length_a                   14.4616(3)
_cell_length_b                   14.9601(3)
_cell_length_c                   17.9034(4)
_cell_angle_alpha                112.9150(10)
_cell_angle_beta                 102.0040(10)
_cell_angle_gamma                101.4980(10)
_cell_volume                     3316.46
_exptl_crystal_colour            yellow
_exptl_crystal_description       block
_cell_formula_units_Z            1
loop_
_atom_site_label
_atom_site_type_symbol
_atom_site_fract_x
_atom_site_fract_y
_atom_site_fract_z
O3 O 0.58391(18) 0.68304(18) 1.48827(17)
O4 O 0.55006(14) 0.79760(14) 1.44616(12)
O5 O 0.67337(13) 0.76751(15) 1.34754(12)
O6 O 0.36604(15) 0.63769(14) 1.05056(12)
O7 O 0.15351(13) 0.41538(15) 0.94935(13)
O8 O 0.31357(12) 0.42480(13) 0.98230(11)
C43 C 0.59343(19) 0.73461(19) 1.44801(16)
C44 C 0.66986(18) 0.7181(2) 1.40069(17)
H41 H 0.736518 0.742910 1.443306
H42 H 0.654618 0.643886 1.365150
C45 C 0.59326(18) 0.72936(19) 1.27502(15)
C46 C 0.50777(18) 0.65077(17) 1.25324(15)
H43 H 0.501986 0.619520 1.289902
C47 C 0.43060(18) 0.61744(17) 1.17829(15)
H44 H 0.372749 0.562925 1.163463
C48 C 0.43789(19) 0.66345(18) 1.12537(15)
C49 C 0.5242(2) 0.7425(2) 1.14704(18)
H45 H 0.530038 0.773810 1.110399
C50 C 0.6003(2) 0.7750(2) 1.22108(18)
H46 H 0.658406 0.829163 1.235636
C51 C 0.2683(2) 0.57801(19) 1.03507(17)
H47 H 0.220437 0.599789 1.003250
H48 H 0.256992 0.592837 1.090753
C52 C 0.24567(17) 0.46312(17) 0.98525(14)
O9 O 0.73133(15) 1.05660(19) 1.28516(13)
O10 O 0.78953(13) 1.11106(14) 1.42524(11)
O11 O 0.98040(13) 1.12200(15) 1.41847(13)
C53 C 0.79906(18) 1.08497(19) 1.35260(16)
C54 C 0.9018(2) 1.0880(2) 1.34206(19)
H49 H 0.898425 1.018526 1.302156
H50 H 0.917848 1.133309 1.315283
C55 C 0.98630(17) 1.05739(19) 1.45560(16)
C56 C 1.06836(17) 1.09292(18) 1.52734(17)
H51 H 1.115957 1.157317 1.546064
C57 C 0.91722(17) 0.96281(18) 1.42766(16)
H52 H 0.860850 0.936780 1.378320
O9A O 1.26867(15) 0.94340(19) 1.71484(13)
O10A O 1.21047(13) 0.88894(14) 1.57476(11)
O11A O 1.01960(13) 0.87800(15) 1.58153(13)
C53A C 1.20094(18) 0.91503(19) 1.64740(16)
C54A C 1.0982(2) 0.9120(2) 1.65794(19)
H49A H 1.101575 0.981474 1.697844
H50A H 1.082152 0.866691 1.684717
C55A C 1.01370(17) 0.94261(19) 1.54440(16)
C56A C 0.93164(17) 0.90708(18) 1.47266(17)
H51A H 0.884043 0.842683 1.453936
C57A C 1.08278(17) 1.03719(18) 1.57234(16)
H52A H 1.139150 1.063220 1.621680
O12 O 0.45172(14) 1.22331(15) 1.28517(13)
O13 O 0.56507(15) 1.34623(17) 1.45079(14)
O14 O 0.87078(16) 1.34728(19) 1.43986(15)
O15 O 0.71746(15) 1.27634(16) 1.49240(13)
O16 O 0.54504(13) 1.07168(15) 1.27571(12)
O17 O 0.49883(18) 1.08186(19) 1.41718(15)
O18 O 0.62744(16) 0.98031(16) 1.44356(15)
O19 O 0.8869(2) 0.9240(2) 1.0345(2)
O20 O 1.04860(15) 0.84626(17) 1.04938(14)
O21 O 0.8928(2) 0.7594(2) 1.19281(17)
O22 O 1.01353(15) 0.64499(18) 1.00706(14)
O23 O 0.95107(13) 0.48916(15) 1.13032(13)
O24 O 0.82204(19) 0.5129(2) 1.43516(19)
O25 O 0.6668(3) 0.5379(3) 1.4914(3)
O26 O 0.6655(2) 0.92669(18) 1.11760(15)
C58 C 0.7619(2) 0.7898(2) 1.07633(19)
C59 C 0.7287(8) 0.8984(8) 1.1094(6)
O1 O 0.98080(14) 0.64061(14) 1.42195(13)
O2 O 0.20894(12) 0.94999(14) 1.02099(12)
N1 N 0.48229(13) 0.36445(14) 1.15757(13)
N2 N 0.82994(14) 0.59488(14) 1.28558(13)
N3 N 0.91568(14) 0.67090(15) 1.30972(13)
H1 H 0.923936 0.706024 1.280680
N4 N 1.07304(14) 0.76823(15) 1.40599(13)
H2 H 1.123716 0.782651 1.450281
N5 N 1.07780(14) 0.82354(14) 1.36096(13)
N6 N 1.19049(14) 1.08624(15) 1.26613(13)
N7 N 0.80842(14) 1.30753(15) 1.20385(13)
N8 N 0.45442(14) 1.08258(13) 1.07734(12)
N9 N 0.35816(14) 1.04185(14) 1.02837(13)
H3 H 0.334782 1.050988 0.983321
N10 N 0.34694(14) 0.96700(15) 1.12144(13)
H4 H 0.411120 0.996994 1.148325
N11 N 0.29370(14) 0.90304(14) 1.14497(12)
N12 N 0.21482(14) 0.67464(14) 1.28168(12)
C1 C 0.35788(17) 0.43171(18) 1.27330(16)
H5 H 0.415117 0.427970 1.307803
C2 C 0.30937(17) 0.49979(18) 1.31086(15)
H6 H 0.333669 0.542535 1.370774
C3 C 0.22518(16) 0.50550(16) 1.26083(15)
C4 C 0.18806(16) 0.43927(17) 1.17380(15)
H7 H 0.128795 0.440382 1.139759
C5 C 0.23687(16) 0.37156(17) 1.13625(15)
H8 H 0.211125 0.326917 1.076707
C6 C 0.32338(16) 0.36899(16) 1.18565(15)
C7 C 0.38053(16) 0.30046(17) 1.14329(17)
H9 H 0.385808 0.251904 1.167705
H10 H 0.344746 0.260633 1.081210
C8 C 0.49563(17) 0.40993(18) 1.10726(15)
H11 H 0.442100 0.395025 1.058819
C9 C 0.58638(17) 0.47796(18) 1.12556(15)
H12 H 0.595702 0.508878 1.089185
C10 C 0.66443(16) 0.50143(16) 1.19726(14)
C11 C 0.64909(16) 0.45067(17) 1.24713(15)
H13 H 0.701750 0.463320 1.295339
C12 C 0.55765(17) 0.38262(17) 1.22596(15)
H14 H 0.547210 0.348031 1.259594
C13 C 0.75887(17) 0.58027(17) 1.22177(15)
H15 H 0.766970 0.619271 1.191171
C14 C 0.98806(17) 0.68986(17) 1.38109(15)
C15 C 1.15531(16) 0.90196(17) 1.39224(15)
H16 H 1.205127 0.918886 1.443739
C16 C 1.16556(16) 0.96470(16) 1.34725(15)
C17 C 1.08939(17) 0.94972(18) 1.27724(16)
H17 H 1.028113 0.897060 1.256899
C18 C 1.10333(18) 1.01107(19) 1.23815(16)
H18 H 1.051231 1.001016 1.190638
C19 C 1.26576(17) 1.10101(18) 1.33216(16)
H19 H 1.326978 1.152880 1.350178
C20 C 1.25475(17) 1.04121(19) 1.37413(16)
H20 H 1.308041 1.052358 1.421262
C21 C 1.20065(18) 1.1532(2) 1.22263(17)
H21 H 1.189776 1.110976 1.161224
H22 H 1.268771 1.202122 1.248040
C22 C 1.12588(16) 1.21095(18) 1.23211(16)
C23 C 1.0445(2) 1.1842(2) 1.16257(17)
H23 H 1.036861 1.130816 1.108659
C24 C 0.9741(2) 1.2346(2) 1.17091(17)
H24 H 0.918240 1.215444 1.122794
C25 C 0.98450(16) 1.31303(17) 1.24919(15)
C26 C 1.06503(19) 1.33873(19) 1.31868(17)
H25 H 1.071792 1.390989 1.372913
C27 C 1.13652(19) 1.2888(2) 1.31009(17)
H26 H 1.192752 1.308355 1.358006
C28 C 0.91104(17) 1.37270(18) 1.25954(16)
H27 H 0.912417 1.402242 1.319930
H28 H 0.931148 1.429755 1.245276
C29 C 0.75378(17) 1.24615(18) 1.22877(17)
H29 H 0.781895 1.244827 1.281093
C30 C 0.65840(17) 1.18612(18) 1.17895(16)
H30 H 0.620828 1.143531 1.197061
C31 C 0.61573(16) 1.18693(16) 1.10156(15)
C32 C 0.67610(17) 1.24790(17) 1.07618(15)
H31 H 0.651245 1.247705 1.022624
C33 C 0.77099(17) 1.30781(18) 1.12856(16)
H32 H 0.810741 1.350013 1.111438
C34 C 0.51277(17) 1.13303(17) 1.05110(15)
H33 H 0.487378 1.134399 0.998303
C35 C 0.30085(17) 0.98533(16) 1.05539(15)
C36 C 0.34348(17) 0.89092(17) 1.20669(15)
H34 H 0.412135 0.928365 1.234303
C37 C 0.29518(16) 0.82001(16) 1.23462(14)
C38 C 0.34952(17) 0.81123(17) 1.30427(15)
H35 H 0.415443 0.855718 1.336131
C39 C 0.30830(17) 0.73881(18) 1.32693(15)
H36 H 0.345610 0.733700 1.374654
C40 C 0.15900(16) 0.68414(17) 1.21652(14)
H37 H 0.092492 0.640173 1.187069
C41 C 0.19643(16) 0.75615(17) 1.19189(15)
H38 H 0.155921 0.762682 1.146393
C42 C 0.17723(17) 0.58587(17) 1.29909(15)
H39 H 0.103989 0.557086 1.273371
H40 H 0.194052 0.608833 1.361492
O27? O 0.8499(7) 0.7880(8) 1.1734(7)
loop_
_geom_bond_atom_site_label_1
_geom_bond_atom_site_label_2
_geom_bond_site_symmetry_1
_geom_bond_site_symmetry_2
O1 C14 1_555 1_555
O2 C35 1_555 1_555
N1 C7 1_555 1_555
N2 N3 1_555 1_555
N3 H1 1_555 1_555
N4 H2 1_555 1_555
N5 N4 1_555 1_555
N6 C18 1_555 1_555
N7 C28 1_555 1_555
N8 N9 1_555 1_555
N9 H3 1_555 1_555
N10 H4 1_555 1_555
N11 N10 1_555 1_555
N12 C39 1_555 1_555
C1 H5 1_555 1_555
C2 C1 1_555 1_555
H6 C2 1_555 1_555
C3 C2 1_555 1_555
C4 C3 1_555 1_555
H7 C4 1_555 1_555
C5 C4 1_555 1_555
H8 C5 1_555 1_555
C6 C1 1_555 1_555
C7 C6 1_555 1_555
H9 C7 1_555 1_555
H10 C7 1_555 1_555
C8 N1 1_555 1_555
H11 C8 1_555 1_555
C9 C8 1_555 1_555
H12 C9 1_555 1_555
C10 C9 1_555 1_555
C11 C10 1_555 1_555
H13 C11 1_555 1_555
C12 N1 1_555 1_555
H14 C12 1_555 1_555
C13 N2 1_555 1_555
H15 C13 1_555 1_555
C14 N3 1_555 1_555
C15 N5 1_555 1_555
H16 C15 1_555 1_555
C16 C15 1_555 1_555
C17 C16 1_555 1_555
H17 C17 1_555 1_555
C18 C17 1_555 1_555
H18 C18 1_555 1_555
C19 N6 1_555 1_555
H19 C19 1_555 1_555
C20 C16 1_555 1_555
H20 C20 1_555 1_555
C21 N6 1_555 1_555
H21 C21 1_555 1_555
H22 C21 1_555 1_555
C22 C21 1_555 1_555
C23 C22 1_555 1_555
H23 C23 1_555 1_555
C24 C23 1_555 1_555
H24 C24 1_555 1_555
C25 C24 1_555 1_555
C26 C25 1_555 1_555
H25 C26 1_555 1_555
C27 C22 1_555 1_555
H26 C27 1_555 1_555
C28 C25 1_555 1_555
H27 C28 1_555 1_555
H28 C28 1_555 1_555
C29 N7 1_555 1_555
H29 C29 1_555 1_555
C30 C29 1_555 1_555
H30 C30 1_555 1_555
C31 C30 1_555 1_555
C32 C31 1_555 1_555
H31 C32 1_555 1_555
C33 N7 1_555 1_555
H32 C33 1_555 1_555
C34 N8 1_555 1_555
H33 C34 1_555 1_555
C35 N9 1_555 1_555
C36 N11 1_555 1_555
H34 C36 1_555 1_555
C37 C36 1_555 1_555
C38 C37 1_555 1_555
H35 C38 1_555 1_555
C39 C38 1_555 1_555
H36 C39 1_555 1_555
C40 N12 1_555 1_555
H37 C40 1_555 1_555
C41 C37 1_555 1_555
H38 C41 1_555 1_555
C42 N12 1_555 1_555
H39 C42 1_555 1_555
H40 C42 1_555 1_555
O3 C43 1_555 1_555
O4 C43 1_555 1_555
O5 C44 1_555 1_555
O6 C48 1_555 1_555
O7 C52 1_555 1_555
O8 C52 1_555 1_555
C43 C44 1_555 1_555
C44 H41 1_555 1_555
H42 C44 1_555 1_555
C45 O5 1_555 1_555
C46 C45 1_555 1_555
H43 C46 1_555 1_555
C47 C46 1_555 1_555
H44 C47 1_555 1_555
C48 C47 1_555 1_555
C49 C48 1_555 1_555
H45 C49 1_555 1_555
C50 C45 1_555 1_555
H46 C50 1_555 1_555
C51 O6 1_555 1_555
H47 C51 1_555 1_555
H48 C51 1_555 1_555
C52 C51 1_555 1_555
O9 C53 1_555 1_555
O10 C53 1_555 1_555
O11 C54 1_555 1_555
C53 C54 1_555 1_555
C54 H49 1_555 1_555
H50 C54 1_555 1_555
C55 O11 1_555 1_555
C56 C55 1_555 1_555
H51 C56 1_555 1_555
C57 C55 1_555 1_555
H52 C57 1_555 1_555
O26 C59 1_555 1_555
C58 C59 1_555 1_555
O9A C53A 1_555 1_555
O10A C53A 1_555 1_555
O11A C54A 1_555 1_555
C53A C54A 1_555 1_555
C54A H49A 1_555 1_555
H50A C54A 1_555 1_555
C55A O11A 1_555 1_555
C56A C57 1_555 1_555
H51A C56A 1_555 1_555
C57A C56 1_555 1_555
H52A C57A 1_555 1_555
N4 C14 1_555 1_555
N10 C35 1_555 1_555
C3 C42 1_555 1_555
C5 C6 1_555 1_555
C10 C13 1_555 1_555
C11 C12 1_555 1_555
C19 C20 1_555 1_555
C26 C27 1_555 1_555
C31 C34 1_555 1_555
C32 C33 1_555 1_555
C40 C41 1_555 1_555
C49 C50 1_555 1_555
C55A C56A 1_555 1_555
C55A C57A 1_555 1_555

#END
