
#######################################################################
#
#                 Cambridge Crystallographic Data Centre
#                                CCDC 
#
#######################################################################
#
# If this CIF has been generated from an entry in the Cambridge 
# Structural Database, then it will include bibliographic, chemical, 
# crystal, experimental, refinement or atomic coordinate data resulting 
# from the CCDC's data processing and validation procedures.
#
#######################################################################

data_FIFCUU
_chemical_formula_moiety         'C24 H14 B1 Br2 F4 N4 Na1'
_chemical_name_systematic        
bis(3-Bromo-1,10-phenanthroline)-(tetrafluoroborate-F,F')-sodium
_symmetry_cell_setting           monoclinic
_symmetry_space_group_name_H-M   'C 2/c'
_symmetry_Int_Tables_number      15
_space_group_name_Hall           '-C 2yn'
loop_
_symmetry_equiv_pos_site_id
_symmetry_equiv_pos_as_xyz
1 x,y,z
2 -x,y,1/2-z
3 1/2+x,1/2+y,z
4 1/2-x,1/2+y,1/2-z
5 -x,-y,-z
6 x,-y,1/2+z
7 1/2-x,1/2-y,-z
8 1/2+x,1/2-y,1/2+z
_cell_length_a                   17.636(4)
_cell_length_b                   13.429(3)
_cell_length_c                   11.648(2)
_cell_angle_alpha                90
_cell_angle_beta                 118.06(3)
_cell_angle_gamma                90
_cell_volume                     2434.38
_exptl_crystal_colour            colorless
_exptl_crystal_description       needle
_cell_formula_units_Z            4
loop_
_atom_site_label
_atom_site_type_symbol
_atom_site_fract_x
_atom_site_fract_y
_atom_site_fract_z
Na1 Na 1.0000 0.33580(19) 0.7500
B1 B 1.0000 0.5566(7) 0.7500
Br1 Br 0.91788(4) 0.03851(6) 0.30484(6)
C1 C 0.9332(3) 0.1656(4) 0.5085(5)
H1 H 0.9829 0.1884 0.5046
C2 C 0.8836(3) 0.0903(4) 0.4226(5)
C3 C 0.8104(3) 0.0574(4) 0.4248(5)
H2 H 0.7757 0.0071 0.3664
C4 C 0.7880(3) 0.0992(3) 0.5146(5)
C5 C 0.7122(3) 0.0693(4) 0.5231(5)
H3 H 0.6753 0.0203 0.4648
C6 C 0.6925(3) 0.1097(4) 0.6128(5)
H4 H 0.6426 0.0883 0.6173
C7 C 0.7465(3) 0.1839(4) 0.7001(5)
C8 C 0.7300(4) 0.2274(4) 0.7966(6)
H5 H 0.6812 0.2070 0.8050
C9 C 0.7838(4) 0.2987(4) 0.8777(6)
H6 H 0.7732 0.3279 0.9430
C10 C 0.8544(4) 0.3276(4) 0.8631(5)
H7 H 0.8910 0.3779 0.9191
C11 C 0.8217(3) 0.2176(3) 0.6938(4)
C12 C 0.8417(3) 0.1738(3) 0.5992(4)
F1 F 1.0712(3) 0.6139(3) 0.8159(5)
F2 F 1.0068(3) 0.4937(3) 0.6604(4)
N1 N 0.9138(2) 0.2062(3) 0.5941(4)
N2 N 0.8737(3) 0.2884(3) 0.7739(4)
F1A F 0.9288(3) 0.6139(3) 0.6841(5)
F2A F 0.9932(3) 0.4937(3) 0.8396(4)
Br1A Br 1.08212(4) 0.03851(6) 1.19516(6)
C1A C 1.0668(3) 0.1656(4) 0.9915(5)
H1A H 1.0171 0.1884 0.9954
C2A C 1.1164(3) 0.0903(4) 1.0774(5)
C3A C 1.1896(3) 0.0574(4) 1.0752(5)
H2A H 1.2243 0.0071 1.1336
C4A C 1.2120(3) 0.0992(3) 0.9854(5)
C5A C 1.2878(3) 0.0693(4) 0.9769(5)
H3A H 1.3247 0.0203 1.0352
C6A C 1.3075(3) 0.1097(4) 0.8872(5)
H4A H 1.3574 0.0883 0.8827
C7A C 1.2535(3) 0.1839(4) 0.7999(5)
C8A C 1.2700(4) 0.2274(4) 0.7034(6)
H5A H 1.3188 0.2070 0.6950
C9A C 1.2162(4) 0.2987(4) 0.6223(6)
H6A H 1.2268 0.3279 0.5570
C10A C 1.1456(4) 0.3276(4) 0.6369(5)
H7A H 1.1090 0.3779 0.5809
C11A C 1.1783(3) 0.2176(3) 0.8062(4)
C12A C 1.1583(3) 0.1738(3) 0.9008(4)
N1A N 1.0862(2) 0.2062(3) 0.9059(4)
N2A N 1.1263(3) 0.2884(3) 0.7261(4)
loop_
_geom_bond_atom_site_label_1
_geom_bond_atom_site_label_2
_geom_bond_site_symmetry_1
_geom_bond_site_symmetry_2
Na1 F2 1_555 1_555
B1 F1 1_555 1_555
Br1 C2 1_555 1_555
C1 H1 1_555 1_555
C2 C1 1_555 1_555
C3 C2 1_555 1_555
H2 C3 1_555 1_555
C4 C3 1_555 1_555
C5 C4 1_555 1_555
H3 C5 1_555 1_555
C6 C5 1_555 1_555
H4 C6 1_555 1_555
C7 C6 1_555 1_555
C8 C7 1_555 1_555
H5 C8 1_555 1_555
C9 C8 1_555 1_555
H6 C9 1_555 1_555
C10 C9 1_555 1_555
H7 C10 1_555 1_555
C11 C7 1_555 1_555
C12 C4 1_555 1_555
F2 B1 1_555 1_555
N1 Na1 1_555 1_555
N2 Na1 1_555 1_555
F1A B1 1_555 1_555
F2A Na1 1_555 1_555
Br1A C2A 1_555 1_555
C1A H1A 1_555 1_555
C2A C1A 1_555 1_555
C3A C2A 1_555 1_555
H2A C3A 1_555 1_555
C4A C3A 1_555 1_555
C5A C4A 1_555 1_555
H3A C5A 1_555 1_555
C6A C5A 1_555 1_555
H4A C6A 1_555 1_555
C7A C6A 1_555 1_555
C8A C7A 1_555 1_555
H5A C8A 1_555 1_555
C9A C8A 1_555 1_555
H6A C9A 1_555 1_555
C10A C9A 1_555 1_555
H7A C10A 1_555 1_555
C11A C7A 1_555 1_555
C12A C4A 1_555 1_555
N1A Na1 1_555 1_555
N2A Na1 1_555 1_555
B1 F2A 1_555 1_555
C1 N1 1_555 1_555
C10 N2 1_555 1_555
C11 C12 1_555 1_555
C11 N2 1_555 1_555
C12 N1 1_555 1_555
C1A N1A 1_555 1_555
C10A N2A 1_555 1_555
C11A C12A 1_555 1_555
C11A N2A 1_555 1_555
C12A N1A 1_555 1_555

#END
