
#######################################################################
#
#                 Cambridge Crystallographic Data Centre
#                                CCDC 
#
#######################################################################
#
# If this CIF has been generated from an entry in the Cambridge 
# Structural Database, then it will include bibliographic, chemical, 
# crystal, experimental, refinement or atomic coordinate data resulting 
# from the CCDC's data processing and validation procedures.
#
#######################################################################

data_FIFCOO
_chemical_formula_moiety         'C48 H28 B4 Br4 F16 N8 Na4'
_chemical_name_systematic        
bis(\m~3~-Tetrafluoroborate)-tetrakis(3-bromo-1,10-phenanthroline-N^10^)-bis(tetrafluoroborate-F)-tetra-sodium
_symmetry_cell_setting           monoclinic
_symmetry_space_group_name_H-M   'P 21/c'
_symmetry_Int_Tables_number      14
_space_group_name_Hall           '-P 2ybc'
loop_
_symmetry_equiv_pos_site_id
_symmetry_equiv_pos_as_xyz
1 x,y,z
2 -x,1/2+y,1/2-z
3 -x,-y,-z
4 x,1/2-y,1/2+z
_cell_length_a                   7.1267(14)
_cell_length_b                   22.640(5)
_cell_length_c                   17.917(4)
_cell_angle_alpha                90
_cell_angle_beta                 108.39(3)
_cell_angle_gamma                90
_cell_volume                     2743.25
_exptl_crystal_colour            colorless
_exptl_crystal_description       needle
_cell_formula_units_Z            2
loop_
_atom_site_label
_atom_site_type_symbol
_atom_site_fract_x
_atom_site_fract_y
_atom_site_fract_z
B1 B 0.2023(14) 0.4279(4) -0.0949(5)
Br1 Br 1.26963(11) 0.53346(3) 0.39517(5)
C1 C 1.0661(10) 0.4595(3) 0.2666(4)
H1 H 1.0170 0.4960 0.2420
C2 C 1.1980(9) 0.4602(3) 0.3437(4)
C3 C 1.2708(9) 0.4081(3) 0.3821(4)
H2 H 1.3582 0.4081 0.4346
C4 C 1.2114(8) 0.3552(3) 0.3409(4)
C5 C 1.2780(10) 0.2982(3) 0.3764(5)
H3 H 1.3650 0.2962 0.4289
C6 C 1.2163(11) 0.2476(4) 0.3350(5)
H4 H 1.2636 0.2105 0.3581
C7 C 1.0814(9) 0.2498(3) 0.2571(4)
C8 C 1.0102(11) 0.1985(3) 0.2149(5)
H5 H 1.0561 0.1610 0.2367
C9 C 0.8728(13) 0.2027(4) 0.1413(5)
H6 H 0.8204 0.1678 0.1128
C10 C 0.8108(10) 0.2572(3) 0.1086(4)
H7 H 0.7176 0.2597 0.0574
C11 C 1.0158(9) 0.3046(3) 0.2230(4)
C12 C 1.0806(9) 0.3585(3) 0.2645(4)
F1 F 0.0636(6) 0.4215(2) -0.0534(3)
F2 F 0.3464(7) 0.3851(2) -0.0675(3)
F3 F 0.2784(9) 0.4828(2) -0.0836(4)
F4 F 0.1048(8) 0.4180(2) -0.1732(3)
N1 N 1.0079(8) 0.4101(2) 0.2272(3)
N2 N 0.8805(8) 0.3064(2) 0.1483(3)
Na1 Na 0.7068(9) 0.3955(3) 0.0520(4)
B2 B 0.3191(14) 0.1649(4) 0.0838(5)
Br2 Br 0.80950(10) 0.19775(3) 0.39820(4)
C13 C 0.6052(9) 0.2750(3) 0.2750(4)
H8 H 0.5634 0.2390 0.2476
C14 C 0.7340(8) 0.2725(3) 0.3529(4)
C15 C 0.7981(8) 0.3234(3) 0.3947(4)
H9 H 0.8847 0.3220 0.4472
C16 C 0.7326(8) 0.3774(3) 0.3577(4)
C17 C 0.7875(9) 0.4335(3) 0.3966(4)
H10 H 0.8730 0.4345 0.4494
C18 C 0.7191(9) 0.4849(3) 0.3590(4)
H11 H 0.7596 0.5214 0.3853
C19 C 0.5856(9) 0.4848(3) 0.2796(4)
C20 C 0.5059(10) 0.5367(3) 0.2386(5)
H12 H 0.5435 0.5742 0.2625
C21 C 0.3728(11) 0.5329(3) 0.1636(5)
H13 H 0.3156 0.5678 0.1363
C22 C 0.3233(10) 0.4788(3) 0.1283(4)
H14 H 0.2335 0.4764 0.0764
C23 C 0.5313(8) 0.4306(3) 0.2415(4)
C24 C 0.6026(8) 0.3762(3) 0.2792(3)
F5 F 0.2518(12) 0.2207(2) 0.0614(4)
F6 F 0.3886(8) 0.1607(2) 0.1641(3)
F7 F 0.1651(7) 0.1252(3) 0.0538(3)
F8 F 0.4690(7) 0.1499(2) 0.0524(3)
N3 N 0.5403(7) 0.3249(2) 0.2387(3)
N4 N 0.4007(7) 0.4293(2) 0.1667(3)
Na2 Na 0.2131(9) 0.3410(2) 0.0750(3)
B1B B 0.7977(14) 0.5721(4) 0.0949(5)
Br1B Br -0.26963(11) 0.46654(3) -0.39517(5)
C1B C -0.0661(10) 0.5405(3) -0.2666(4)
H1B H -0.0170 0.5040 -0.2420
C2B C -0.1980(9) 0.5398(3) -0.3437(4)
C3B C -0.2708(9) 0.5919(3) -0.3821(4)
H2B H -0.3582 0.5919 -0.4346
C4B C -0.2114(8) 0.6448(3) -0.3409(4)
C5B C -0.2780(10) 0.7018(3) -0.3764(5)
H3B H -0.3650 0.7038 -0.4289
C6B C -0.2163(11) 0.7524(4) -0.3350(5)
H4B H -0.2636 0.7895 -0.3581
C7B C -0.0814(9) 0.7502(3) -0.2571(4)
C8B C -0.0102(11) 0.8015(3) -0.2149(5)
H5B H -0.0561 0.8390 -0.2367
C9B C 0.1272(13) 0.7973(4) -0.1413(5)
H6B H 0.1796 0.8322 -0.1128
C10B C 0.1892(10) 0.7428(3) -0.1086(4)
H7B H 0.2824 0.7403 -0.0574
C11B C -0.0158(9) 0.6954(3) -0.2230(4)
C12B C -0.0806(9) 0.6415(3) -0.2645(4)
F1B F 0.9364(6) 0.5785(2) 0.0534(3)
F2B F 0.6536(7) 0.6149(2) 0.0675(3)
F3B F 0.7216(9) 0.5172(2) 0.0836(4)
F4B F 0.8952(8) 0.5820(2) 0.1732(3)
N1B N -0.0079(8) 0.5899(2) -0.2272(3)
N2B N 0.1195(8) 0.6936(2) -0.1483(3)
Na1B Na 0.2932(9) 0.6045(3) -0.0520(4)
B2B B 0.6809(14) 0.8351(4) -0.0838(5)
Br2B Br 0.19050(10) 0.80225(3) -0.39820(4)
C13B C 0.3948(9) 0.7250(3) -0.2750(4)
H8B H 0.4366 0.7610 -0.2476
C14B C 0.2660(8) 0.7275(3) -0.3529(4)
C15B C 0.2019(8) 0.6766(3) -0.3947(4)
H9B H 0.1153 0.6780 -0.4472
C16B C 0.2674(8) 0.6226(3) -0.3577(4)
C17B C 0.2125(9) 0.5665(3) -0.3966(4)
H10B H 0.1270 0.5655 -0.4494
C18B C 0.2809(9) 0.5151(3) -0.3590(4)
H11B H 0.2404 0.4786 -0.3853
C19B C 0.4144(9) 0.5152(3) -0.2796(4)
C20B C 0.4941(10) 0.4633(3) -0.2386(5)
H12B H 0.4565 0.4258 -0.2625
C21B C 0.6272(11) 0.4671(3) -0.1636(5)
H13B H 0.6844 0.4322 -0.1363
C22B C 0.6767(10) 0.5212(3) -0.1283(4)
H14B H 0.7665 0.5236 -0.0764
C23B C 0.4687(8) 0.5694(3) -0.2415(4)
C24B C 0.3974(8) 0.6238(3) -0.2792(3)
F5B F 0.7482(12) 0.7793(2) -0.0614(4)
F6B F 0.6114(8) 0.8393(2) -0.1641(3)
F7B F 0.8349(7) 0.8748(3) -0.0538(3)
F8B F 0.5310(7) 0.8501(2) -0.0524(3)
N3B N 0.4597(7) 0.6751(2) -0.2387(3)
N4B N 0.5993(7) 0.5707(2) -0.1667(3)
Na2B Na 0.7869(9) 0.6590(2) -0.0750(3)
loop_
_geom_bond_atom_site_label_1
_geom_bond_atom_site_label_2
_geom_bond_site_symmetry_1
_geom_bond_site_symmetry_2
B1 F1 1_555 1_555
Br1 C2 1_555 1_555
C1 H1 1_555 1_555
C2 C1 1_555 1_555
C3 C2 1_555 1_555
H2 C3 1_555 1_555
C4 C3 1_555 1_555
C5 C4 1_555 1_555
H3 C5 1_555 1_555
C6 C5 1_555 1_555
H4 C6 1_555 1_555
C7 C6 1_555 1_555
C8 C7 1_555 1_555
H5 C8 1_555 1_555
C9 C8 1_555 1_555
H6 C9 1_555 1_555
C10 C9 1_555 1_555
H7 C10 1_555 1_555
C11 C7 1_555 1_555
C12 C4 1_555 1_555
F1 Na2 1_555 1_555
F2 B1 1_555 1_555
F3 B1 1_555 1_555
F4 B1 1_555 1_555
N1 C1 1_555 1_555
N2 C10 1_555 1_555
Na1 F2 1_555 1_555
B2 F5 1_555 1_555
Br2 C14 1_555 1_555
C13 H8 1_555 1_555
C14 C13 1_555 1_555
C15 C14 1_555 1_555
H9 C15 1_555 1_555
C16 C15 1_555 1_555
C17 C16 1_555 1_555
H10 C17 1_555 1_555
C18 C17 1_555 1_555
H11 C18 1_555 1_555
C19 C18 1_555 1_555
C20 C19 1_555 1_555
H12 C20 1_555 1_555
C21 C20 1_555 1_555
H13 C21 1_555 1_555
C22 C21 1_555 1_555
H14 C22 1_555 1_555
C23 C19 1_555 1_555
C24 C16 1_555 1_555
F5 Na2 1_555 1_555
F6 B2 1_555 1_555
F7 B2 1_555 1_555
F8 B2 1_555 1_555
N3 C13 1_555 1_555
N4 C22 1_555 1_555
Na2 N4 1_555 1_555
B1B F1B 1_555 1_555
Br1B C2B 1_555 1_555
C1B H1B 1_555 1_555
C2B C1B 1_555 1_555
C3B C2B 1_555 1_555
H2B C3B 1_555 1_555
C4B C3B 1_555 1_555
C5B C4B 1_555 1_555
H3B C5B 1_555 1_555
C6B C5B 1_555 1_555
H4B C6B 1_555 1_555
C7B C6B 1_555 1_555
C8B C7B 1_555 1_555
H5B C8B 1_555 1_555
C9B C8B 1_555 1_555
H6B C9B 1_555 1_555
C10B C9B 1_555 1_555
H7B C10B 1_555 1_555
C11B C7B 1_555 1_555
C12B C4B 1_555 1_555
F1B Na2B 1_555 1_555
F2B B1B 1_555 1_555
F3B Na1 1_555 1_555
F4B B1B 1_555 1_555
N1B C1B 1_555 1_555
N2B C10B 1_555 1_555
Na1B F3 1_555 1_555
B2B F5B 1_555 1_555
Br2B C14B 1_555 1_555
C13B H8B 1_555 1_555
C14B C13B 1_555 1_555
C15B C14B 1_555 1_555
H9B C15B 1_555 1_555
C16B C15B 1_555 1_555
C17B C16B 1_555 1_555
H10B C17B 1_555 1_555
C18B C17B 1_555 1_555
H11B C18B 1_555 1_555
C19B C18B 1_555 1_555
C20B C19B 1_555 1_555
H12B C20B 1_555 1_555
C21B C20B 1_555 1_555
H13B C21B 1_555 1_555
C22B C21B 1_555 1_555
H14B C22B 1_555 1_555
C23B C19B 1_555 1_555
C24B C16B 1_555 1_555
F5B Na2B 1_555 1_555
F6B B2B 1_555 1_555
F7B B2B 1_555 1_555
F8B B2B 1_555 1_555
N3B C13B 1_555 1_555
N4B C22B 1_555 1_555
Na2B N4B 1_555 1_555
C11 C12 1_555 1_555
C11 N2 1_555 1_555
C12 N1 1_555 1_555
N2 Na1 1_555 1_555
C23 C24 1_555 1_555
C23 N4 1_555 1_555
C24 N3 1_555 1_555
B1B F3B 1_555 1_555
C11B C12B 1_555 1_555
C11B N2B 1_555 1_555
C12B N1B 1_555 1_555
F2B Na1B 1_555 1_555
N2B Na1B 1_555 1_555
C23B C24B 1_555 1_555
C23B N4B 1_555 1_555
C24B N3B 1_555 1_555

#END
