
#######################################################################
#
#                 Cambridge Crystallographic Data Centre
#                                CCDC 
#
#######################################################################
#
# If this CIF has been generated from an entry in the Cambridge 
# Structural Database, then it will include bibliographic, chemical, 
# crystal, experimental, refinement or atomic coordinate data resulting 
# from the CCDC's data processing and validation procedures.
#
#######################################################################

data_FIFDEF
_chemical_formula_moiety         'C19 H23 N1'
_chemical_name_systematic        
N-(4,4-Dimethyl-1-phenylpent-2-en-1-yl)aniline
_symmetry_cell_setting           monoclinic
_symmetry_space_group_name_H-M   'P 21/c'
_symmetry_Int_Tables_number      14
_space_group_name_Hall           '-P 2ybc'
loop_
_symmetry_equiv_pos_site_id
_symmetry_equiv_pos_as_xyz
1 x,y,z
2 -x,1/2+y,1/2-z
3 -x,-y,-z
4 x,1/2-y,1/2+z
_cell_length_a                   11.416(3)
_cell_length_b                   5.8646(14)
_cell_length_c                   24.576(6)
_cell_angle_alpha                90
_cell_angle_beta                 96.541(6)
_cell_angle_gamma                90
_cell_volume                     1634.66
_exptl_crystal_colour            colorless
_exptl_crystal_description       prismatic
_cell_formula_units_Z            4
loop_
_atom_site_label
_atom_site_type_symbol
_atom_site_fract_x
_atom_site_fract_y
_atom_site_fract_z
H1 H 0.616(5) 0.650(10) 0.306(2)
N1 N 0.6643(3) 0.5353(7) 0.29655(14)
C1 C 0.7188(3) 0.3893(7) 0.33927(14)
H2 H 0.6748 0.2455 0.3372
C2 C 0.7028(3) 0.4984(9) 0.39328(17)
H3 H 0.6259 0.5387 0.3980
C3 C 0.7799(4) 0.5434(7) 0.43346(16)
H4 H 0.8569 0.5035 0.4286
C4 C 0.7644(4) 0.6525(9) 0.48800(16)
C5 C 0.6515(11) 0.802(2) 0.4846(5)
H5 H 0.6437 0.8657 0.5200
H6 H 0.5838 0.7099 0.4730
H7 H 0.6574 0.9231 0.4588
C6 C 0.8743(10) 0.830(4) 0.5002(7)
H8 H 0.8624 0.9580 0.4759
H9 H 0.9464 0.7540 0.4944
H10 H 0.8789 0.8814 0.5374
C7 C 0.7744(14) 0.488(2) 0.5314(5)
H11 H 0.8427 0.3946 0.5290
H12 H 0.7052 0.3934 0.5283
H13 H 0.7819 0.5651 0.5661
C8 C 0.8466(3) 0.3325(6) 0.33357(13)
C9 C 0.9188(3) 0.4854(8) 0.31094(15)
H14 H 0.8887 0.6252 0.2981
C10 C 1.0352(3) 0.4331(10) 0.30709(17)
H15 H 1.0829 0.5376 0.2916
C11 C 1.0814(4) 0.2268(10) 0.32596(19)
H16 H 1.1601 0.1919 0.3235
C12 C 1.0103(4) 0.0745(9) 0.34831(18)
H17 H 1.0407 -0.0647 0.3614
C13 C 0.8943(4) 0.1258(8) 0.35160(15)
H18 H 0.8465 0.0191 0.3663
C14 C 0.6439(3) 0.4729(6) 0.24231(15)
C15 C 0.6783(3) 0.2661(7) 0.22234(14)
H19 H 0.7149 0.1590 0.2465
C16 C 0.6593(4) 0.2162(8) 0.16768(15)
H20 H 0.6846 0.0769 0.1552
C17 C 0.6035(4) 0.3683(9) 0.13090(17)
H21 H 0.5908 0.3330 0.0938
C18 C 0.5670(4) 0.5734(9) 0.14992(18)
H22 H 0.5291 0.6781 0.1255
C19 C 0.5860(3) 0.6251(8) 0.20482(18)
H23 H 0.5597 0.7639 0.2171
C20? C 0.6394(17) 0.621(4) 0.5027(7)
H24? H 0.6330 0.6869 0.5379
H25? H 0.6216 0.4608 0.5037
H26? H 0.5848 0.6940 0.4756
C21? C 0.8136(17) 0.867(6) 0.4936(12)
H27? H 0.8156 0.9157 0.5309
H28? H 0.7671 0.9715 0.4701
H29? H 0.8924 0.8621 0.4835
C22? C 0.8384(17) 0.497(5) 0.5320(9)
H30? H 0.9210 0.5185 0.5294
H31? H 0.8180 0.3403 0.5252
H32? H 0.8213 0.5393 0.5680
loop_
_geom_bond_atom_site_label_1
_geom_bond_atom_site_label_2
_geom_bond_site_symmetry_1
_geom_bond_site_symmetry_2
H1 N1 1_555 1_555
N1 C1 1_555 1_555
C1 H2 1_555 1_555
C2 C1 1_555 1_555
H3 C2 1_555 1_555
C3 C2 1_555 1_555
H4 C3 1_555 1_555
C4 C3 1_555 1_555
C5 C4 1_555 1_555
H5 C5 1_555 1_555
H6 C5 1_555 1_555
H7 C5 1_555 1_555
C6 C4 1_555 1_555
H8 C6 1_555 1_555
H9 C6 1_555 1_555
H10 C6 1_555 1_555
C7 C4 1_555 1_555
H11 C7 1_555 1_555
H12 C7 1_555 1_555
H13 C7 1_555 1_555
C8 C1 1_555 1_555
C9 C8 1_555 1_555
H14 C9 1_555 1_555
C10 C9 1_555 1_555
H15 C10 1_555 1_555
C11 C10 1_555 1_555
H16 C11 1_555 1_555
C12 C11 1_555 1_555
H17 C12 1_555 1_555
C13 C8 1_555 1_555
H18 C13 1_555 1_555
C14 N1 1_555 1_555
C15 C14 1_555 1_555
H19 C15 1_555 1_555
C16 C15 1_555 1_555
H20 C16 1_555 1_555
C17 C16 1_555 1_555
H21 C17 1_555 1_555
C18 C17 1_555 1_555
H22 C18 1_555 1_555
C19 C14 1_555 1_555
H23 C19 1_555 1_555
C12 C13 1_555 1_555
C18 C19 1_555 1_555

#END
