
#######################################################################
#
#                 Cambridge Crystallographic Data Centre
#                                CCDC 
#
#######################################################################
#
# If this CIF has been generated from an entry in the Cambridge 
# Structural Database, then it will include bibliographic, chemical, 
# crystal, experimental, refinement or atomic coordinate data resulting 
# from the CCDC's data processing and validation procedures.
#
#######################################################################

data_FIFFAC
_chemical_formula_moiety         'C17 H17 Br1 O5'
_chemical_name_systematic        
'2-(4-Bromophenyl)-2-oxoethyl (1S,6R)-5-ethyl-1,6-dihydroxycyclohexa-2,4-diene-1-carboxylate'
_symmetry_cell_setting           orthorhombic
_symmetry_space_group_name_H-M   'P 21 21 21'
_symmetry_Int_Tables_number      19
_space_group_name_Hall           'P 2ac 2ab'
loop_
_symmetry_equiv_pos_site_id
_symmetry_equiv_pos_as_xyz
1 x,y,z
2 1/2-x,-y,1/2+z
3 1/2+x,1/2-y,-z
4 -x,1/2+y,1/2-z
_cell_length_a                   5.34660(10)
_cell_length_b                   15.8093(3)
_cell_length_c                   18.8706(4)
_cell_angle_alpha                90
_cell_angle_beta                 90
_cell_angle_gamma                90
_cell_volume                     1595.06
_exptl_crystal_colour            colorless
_exptl_crystal_description       prism
_chemical_melting_point          124-130deg.C
_cell_formula_units_Z            4
_exptl_crystal_recrystallization_method ethanol/water
loop_
_atom_site_label
_atom_site_type_symbol
_atom_site_fract_x
_atom_site_fract_y
_atom_site_fract_z
Br1 Br 1.10743(6) -0.343727(18) -0.148099(15)
O1 O 0.9849(4) 0.22998(13) 0.22595(10)
O2 O 0.4881(4) 0.18117(13) 0.20596(10)
O3 O 0.9456(3) 0.10403(11) 0.08364(10)
O4 O 0.7102(4) 0.03894(12) 0.16643(11)
O5 O 0.6469(3) 0.02010(12) -0.00260(10)
C1 C 0.7848(6) 0.49486(18) 0.21052(19)
C2 C 0.8937(6) 0.40561(16) 0.21138(15)
C3 C 0.7614(4) 0.34340(17) 0.16418(12)
C4 C 0.8611(4) 0.25376(14) 0.16215(12)
C5 C 0.6550(4) 0.18880(14) 0.14663(14)
C6 C 0.5026(5) 0.21694(17) 0.08343(14)
C7 C 0.4630(5) 0.29944(17) 0.07374(14)
C8 C 0.5745(5) 0.36321(15) 0.11935(14)
C9 C 0.7699(5) 0.10186(16) 0.13475(13)
C10 C 1.0341(5) 0.02356(16) 0.05904(15)
C11 C 0.8497(5) -0.01287(16) 0.00595(13)
C12 C 0.9270(5) -0.08961(15) -0.03420(13)
C13 C 1.1465(5) -0.13381(15) -0.01860(14)
C14 C 1.2018(5) -0.20811(17) -0.05399(15)
C15 C 1.0392(5) -0.23809(16) -0.10562(13)
C16 C 0.8257(5) -0.19353(17) -0.12416(14)
C17 C 0.7701(5) -0.11970(18) -0.08766(14)
H1 H 0.8826(6) 0.53203(18) 0.24325(19)
H2 H 0.7922(6) 0.51840(18) 0.16137(19)
H3 H 0.6067(6) 0.49240(18) 0.22659(19)
H4 H 1.143(9) 0.220(2) 0.217(2)
H5 H 0.521(9) 0.143(3) 0.224(2)
H6 H 1.0720(6) 0.40925(16) 0.19570(15)
H7 H 0.8866(6) 0.38325(16) 0.26091(15)
H8 H 0.9839(4) 0.25316(14) 0.12216(12)
H9 H 0.4330(5) 0.17434(17) 0.04958(14)
H10 H 0.3533(5) 0.31753(17) 0.03360(14)
H11 H 0.5094(5) 0.42247(15) 0.11767(14)
H12 H 1.2003(5) 0.03129(16) 0.03557(15)
H13 H 1.0522(5) -0.01607(16) 0.10003(15)
H14 H 1.2615(5) -0.11131(15) 0.01869(14)
H15 H 1.3579(5) -0.24011(17) -0.04244(15)
H16 H 0.7132(5) -0.21475(17) -0.16259(14)
H17 H 0.6161(5) -0.08700(18) -0.10011(14)
loop_
_geom_bond_atom_site_label_1
_geom_bond_atom_site_label_2
_geom_bond_site_symmetry_1
_geom_bond_site_symmetry_2
Br1 C15 1_555 1_555
O1 C4 1_555 1_555
O2 C5 1_555 1_555
O3 C9 1_555 1_555
O4 C9 1_555 1_555
O5 C11 1_555 1_555
C1 C2 1_555 1_555
C2 C3 1_555 1_555
C3 C4 1_555 1_555
C4 C5 1_555 1_555
C5 C6 1_555 1_555
C6 C7 1_555 1_555
C7 C8 1_555 1_555
C8 C3 1_555 1_555
C9 C5 1_555 1_555
C10 O3 1_555 1_555
C11 C10 1_555 1_555
C12 C11 1_555 1_555
C13 C12 1_555 1_555
C14 C13 1_555 1_555
C15 C14 1_555 1_555
C16 C15 1_555 1_555
C17 C12 1_555 1_555
H1 C1 1_555 1_555
H2 C1 1_555 1_555
H3 C1 1_555 1_555
H4 O1 1_555 1_555
H5 O2 1_555 1_555
H6 C2 1_555 1_555
H7 C2 1_555 1_555
H8 C4 1_555 1_555
H9 C6 1_555 1_555
H10 C7 1_555 1_555
H11 C8 1_555 1_555
H12 C10 1_555 1_555
H13 C10 1_555 1_555
H14 C13 1_555 1_555
H15 C14 1_555 1_555
H16 C16 1_555 1_555
H17 C17 1_555 1_555
C16 C17 1_555 1_555

#END
