
#######################################################################
#
#                 Cambridge Crystallographic Data Centre
#                                CCDC 
#
#######################################################################
#
# If this CIF has been generated from an entry in the Cambridge 
# Structural Database, then it will include bibliographic, chemical, 
# crystal, experimental, refinement or atomic coordinate data resulting 
# from the CCDC's data processing and validation procedures.
#
#######################################################################

data_FIFKOW
_chemical_formula_moiety         'C12 H14 B1 N3 S2'
_chemical_name_systematic        
(1,3-Dimethyl-1H-imidazol-3-ium-2-yl)(dihydrido)(2-thioxo-1,3-benzothiazol-3(2H)-yl)borate
_symmetry_cell_setting           monoclinic
_symmetry_space_group_name_H-M   'P 21/n'
_symmetry_Int_Tables_number      14
_space_group_name_Hall           '-P 2yn'
loop_
_symmetry_equiv_pos_site_id
_symmetry_equiv_pos_as_xyz
1 x,y,z
2 1/2-x,1/2+y,1/2-z
3 -x,-y,-z
4 1/2+x,1/2-y,1/2+z
_cell_length_a                   8.6258(18)
_cell_length_b                   8.0293(17)
_cell_length_c                   19.050(4)
_cell_angle_alpha                90
_cell_angle_beta                 96.216(8)
_cell_angle_gamma                90
_cell_volume                     1311.63
_exptl_crystal_colour            colorless
_exptl_crystal_description       plate
_cell_formula_units_Z            4
loop_
_atom_site_label
_atom_site_type_symbol
_atom_site_fract_x
_atom_site_fract_y
_atom_site_fract_z
B1 B 0.8162(3) 0.4556(5) 0.19066(18)
H1 H 0.824(4) 0.364(4) 0.2357(14)
H2 H 0.912(3) 0.556(4) 0.2022(17)
S1 S 0.41953(8) 0.72480(11) 0.13234(4)
N1 N 0.7413(3) 0.2247(3) 0.09366(13)
C1 C 0.8373(3) 0.3442(4) 0.12324(16)
S2 S 0.70127(8) 0.68842(11) 0.05717(4)
N2 N 0.9609(3) 0.3430(4) 0.08519(13)
C2 C 0.8023(3) 0.1527(4) 0.03681(15)
H3 H 0.7548 0.0685 0.0067
N3 N 0.6514(2) 0.5441(4) 0.18179(12)
C3 C 0.9419(4) 0.2246(4) 0.03217(16)
H4 H 1.0132 0.1990 -0.0009
C4 C 0.5922(3) 0.1782(5) 0.11820(17)
H5 H 0.5740 0.2467 0.1591
H6 H 0.5949 0.0604 0.1317
H7 H 0.5079 0.1965 0.0802
C5 C 1.0966(3) 0.4523(5) 0.09712(15)
H8 H 1.0847 0.5258 0.1372
H9 H 1.1051 0.5196 0.0548
H10 H 1.1910 0.3848 0.1073
C6 C 0.6048(3) 0.6412(5) 0.12634(15)
C7 C 0.4090(3) 0.6301(4) 0.21377(15)
C8 C 0.2914(3) 0.6420(4) 0.25819(15)
H11 H 0.2016 0.7087 0.2458
C9 C 0.3094(3) 0.5541(4) 0.32061(16)
H12 H 0.2305 0.5595 0.3517
C10 C 0.4409(3) 0.4578(4) 0.33879(15)
H13 H 0.4498 0.3972 0.3819
C11 C 0.5594(3) 0.4481(4) 0.29570(15)
H14 H 0.6499 0.3832 0.3091
C12 C 0.5432(3) 0.5352(4) 0.23237(15)
loop_
_geom_bond_atom_site_label_1
_geom_bond_atom_site_label_2
_geom_bond_site_symmetry_1
_geom_bond_site_symmetry_2
B1 H1 1_555 1_555
H2 B1 1_555 1_555
S1 C6 1_555 1_555
N1 C1 1_555 1_555
C1 B1 1_555 1_555
S2 C6 1_555 1_555
N2 C1 1_555 1_555
C2 N1 1_555 1_555
H3 C2 1_555 1_555
N3 B1 1_555 1_555
C3 N2 1_555 1_555
H4 C3 1_555 1_555
C4 N1 1_555 1_555
H5 C4 1_555 1_555
H6 C4 1_555 1_555
H7 C4 1_555 1_555
C5 N2 1_555 1_555
H8 C5 1_555 1_555
H9 C5 1_555 1_555
H10 C5 1_555 1_555
C6 N3 1_555 1_555
C7 S1 1_555 1_555
C8 C7 1_555 1_555
H11 C8 1_555 1_555
C9 C8 1_555 1_555
H12 C9 1_555 1_555
C10 C9 1_555 1_555
H13 C10 1_555 1_555
C11 C10 1_555 1_555
H14 C11 1_555 1_555
C12 N3 1_555 1_555
C2 C3 1_555 1_555
C7 C12 1_555 1_555
C11 C12 1_555 1_555

#END
