
#######################################################################
#
#                 Cambridge Crystallographic Data Centre
#                                CCDC 
#
#######################################################################
#
# If this CIF has been generated from an entry in the Cambridge 
# Structural Database, then it will include bibliographic, chemical, 
# crystal, experimental, refinement or atomic coordinate data resulting 
# from the CCDC's data processing and validation procedures.
#
#######################################################################

data_FIFKUC
_chemical_formula_moiety         'C12 H15 B1 N6 S1'
_chemical_name_systematic        
(1,3-Dimethyl-1H-imidazol-3-ium-2-yl)(dihydrido)(4-phenyl-5-thioxo-4,5-dihydro-1H-tetrazol-1-yl)borate
_symmetry_cell_setting           monoclinic
_symmetry_space_group_name_H-M   'P 21/c'
_symmetry_Int_Tables_number      14
_space_group_name_Hall           '-P 2ybc'
loop_
_symmetry_equiv_pos_site_id
_symmetry_equiv_pos_as_xyz
1 x,y,z
2 -x,1/2+y,1/2-z
3 -x,-y,-z
4 x,1/2-y,1/2+z
_cell_length_a                   16.3754(10)
_cell_length_b                   7.8232(4)
_cell_length_c                   12.4708(8)
_cell_angle_alpha                90
_cell_angle_beta                 112.055(4)
_cell_angle_gamma                90
_cell_volume                     1480.7
_exptl_crystal_colour            colorless
_exptl_crystal_description       plate
_cell_formula_units_Z            4
loop_
_atom_site_label
_atom_site_type_symbol
_atom_site_fract_x
_atom_site_fract_y
_atom_site_fract_z
S1 S 0.25244(4) 0.65762(6) 0.04303(5)
B1 B 0.40281(18) 0.9641(3) 0.1650(2)
H1 H 0.4519(19) 0.853(4) 0.207(2)
H2 H 0.4305(17) 1.097(4) 0.202(2)
N1 N 0.18839(13) 0.8495(2) 0.17664(16)
C1 C 0.25096(15) 0.8148(2) 0.13293(18)
N2 N 0.21260(14) 0.9874(2) 0.24969(18)
C2 C 0.10693(15) 0.7631(3) 0.1573(2)
N3 N 0.28737(15) 1.0377(2) 0.25191(18)
C3 C 0.04026(18) 0.7692(3) 0.0498(2)
H3 H 0.0459(19) 0.823(4) -0.009(3)
N4 N 0.31317(13) 0.9356(2) 0.18190(15)
C4 C -0.03855(19) 0.6871(4) 0.0321(3)
H4 H -0.083(2) 0.694(4) -0.039(3)
N5 N 0.32938(14) 1.0800(2) -0.04786(17)
C5 C -0.04919(19) 0.5986(4) 0.1219(3)
H5 H -0.104(2) 0.537(4) 0.109(3)
N6 N 0.41522(12) 0.8673(2) -0.03273(16)
C6 C 0.0178(2) 0.5933(4) 0.2288(3)
H6 H 0.007(3) 0.530(5) 0.286(3)
C7 C 0.09696(19) 0.6758(3) 0.2479(2)
H7 H 0.145(2) 0.680(4) 0.324(3)
C8 C 0.38248(14) 0.9682(2) 0.02929(19)
C9 C 0.32815(19) 1.0472(3) -0.1568(2)
H8 H 0.297(2) 1.107(4) -0.222(3)
C10 C 0.38206(16) 0.9142(3) -0.1471(2)
H9 H 0.3998(19) 0.858(4) -0.202(3)
C11 C 0.2804(3) 1.2159(4) -0.0183(3)
H10 H 0.2232 1.1719 -0.0227
H11 H 0.2713 1.3110 -0.0728
H12 H 0.3140 1.2562 0.0605
C12 C 0.46960(17) 0.7160(3) 0.0110(2)
H13 H 0.5180 0.7439 0.0839
H14 H 0.4938 0.6778 -0.0459
H15 H 0.4336 0.6246 0.0243
loop_
_geom_bond_atom_site_label_1
_geom_bond_atom_site_label_2
_geom_bond_site_symmetry_1
_geom_bond_site_symmetry_2
S1 C1 1_555 1_555
B1 H1 1_555 1_555
H2 B1 1_555 1_555
N1 C1 1_555 1_555
C1 N4 1_555 1_555
N2 N1 1_555 1_555
C2 N1 1_555 1_555
N3 N2 1_555 1_555
C3 C2 1_555 1_555
H3 C3 1_555 1_555
N4 B1 1_555 1_555
C4 C3 1_555 1_555
H4 C4 1_555 1_555
N5 C8 1_555 1_555
C5 C4 1_555 1_555
H5 C5 1_555 1_555
N6 C8 1_555 1_555
C6 C5 1_555 1_555
H6 C6 1_555 1_555
C7 C2 1_555 1_555
H7 C7 1_555 1_555
C8 B1 1_555 1_555
C9 N5 1_555 1_555
H8 C9 1_555 1_555
C10 N6 1_555 1_555
H9 C10 1_555 1_555
C11 N5 1_555 1_555
H10 C11 1_555 1_555
H11 C11 1_555 1_555
H12 C11 1_555 1_555
C12 N6 1_555 1_555
H13 C12 1_555 1_555
H14 C12 1_555 1_555
H15 C12 1_555 1_555
N3 N4 1_555 1_555
C6 C7 1_555 1_555
C9 C10 1_555 1_555

#END
