
#######################################################################
#
#                 Cambridge Crystallographic Data Centre
#                                CCDC 
#
#######################################################################
#
# If this CIF has been generated from an entry in the Cambridge 
# Structural Database, then it will include bibliographic, chemical, 
# crystal, experimental, refinement or atomic coordinate data resulting 
# from the CCDC's data processing and validation procedures.
#
#######################################################################

data_FIFSIY
_chemical_formula_moiety         'C12 H6 S3'
_chemical_name_systematic        
1,10-Epithiothieno[3',2':3,4]cycloocta[1,2-b]thiophene
_symmetry_cell_setting           monoclinic
_symmetry_space_group_name_H-M   'P 21/c'
_symmetry_Int_Tables_number      14
_space_group_name_Hall           '-P 2ybc'
loop_
_symmetry_equiv_pos_site_id
_symmetry_equiv_pos_as_xyz
1 x,y,z
2 -x,1/2+y,1/2-z
3 -x,-y,-z
4 x,1/2-y,1/2+z
_cell_length_a                   10.8338(11)
_cell_length_b                   12.0646(12)
_cell_length_c                   16.1691(16)
_cell_angle_alpha                90
_cell_angle_beta                 108.033(2)
_cell_angle_gamma                90
_cell_volume                     2009.58
_exptl_crystal_colour            black
_exptl_crystal_description       block
_cell_formula_units_Z            8
loop_
_atom_site_label
_atom_site_type_symbol
_atom_site_fract_x
_atom_site_fract_y
_atom_site_fract_z
S1 S 0.29840(5) 0.18254(4) 0.22132(4)
S2 S 0.30950(5) 0.30292(4) 0.47198(3)
S3 S 0.04681(5) 0.57498(4) 0.39743(3)
C1 C 0.20018(19) 0.41236(16) 0.43143(13)
C2 C -0.01594(19) 0.50840(17) 0.14269(14)
H1 H -0.0744 0.5511 0.1004
C3 C 0.0426(2) 0.42135(17) 0.10374(14)
H2 H 0.0126 0.4250 0.0433
C4 C 0.15254(18) 0.41747(15) 0.33894(13)
C5 C 0.19960(19) 0.29694(16) 0.21705(13)
C6 C 0.15194(19) 0.49232(17) 0.47267(14)
H3 H 0.1731 0.5005 0.5326
C7 C 0.06621(18) 0.50355(16) 0.30930(13)
C8 C -0.00760(19) 0.54297(17) 0.22333(13)
H4 H -0.0593 0.6042 0.2242
C9 C 0.3500(2) 0.17803(17) 0.33227(14)
H5 H 0.4081 0.1264 0.3657
C10 C 0.20789(18) 0.32940(16) 0.29986(13)
C11 C 0.29342(19) 0.26145(17) 0.36457(13)
C12 C 0.1275(2) 0.33775(17) 0.13095(13)
H6 H 0.1432 0.2982 0.0859
S4 S -0.35502(5) 0.17339(4) 0.11509(3)
S5 S -0.55443(5) -0.09273(4) 0.19265(4)
S6 S -0.12641(5) 0.29037(4) 0.36478(4)
C13 C -0.2457(2) 0.15951(18) 0.45449(14)
H7 H -0.2024 0.2091 0.4978
C14 C -0.29735(18) 0.14917(16) 0.28698(13)
C15 C -0.39398(18) 0.06467(16) 0.24873(13)
C16 C -0.1715(2) 0.28923(17) 0.25399(15)
H8 H -0.1377 0.3355 0.2203
C17 C -0.45174(18) -0.02060(16) 0.27954(13)
C18 C -0.3081(2) 0.07836(18) 0.48279(14)
H9 H -0.3032 0.0882 0.5408
C19 C -0.23285(19) 0.18480(16) 0.37011(14)
C20 C -0.4399(2) -0.06218(17) 0.36600(14)
H10 H -0.4805 -0.1300 0.3661
C21 C -0.52083(19) -0.01097(17) 0.11634(14)
H11 H -0.5568 -0.0194 0.0565
C22 C -0.3814(2) -0.02128(18) 0.44581(14)
H12 H -0.3897 -0.0689 0.4890
C23 C -0.43303(19) 0.06885(16) 0.15642(13)
C24 C -0.26441(19) 0.21031(16) 0.22205(14)
loop_
_geom_bond_atom_site_label_1
_geom_bond_atom_site_label_2
_geom_bond_site_symmetry_1
_geom_bond_site_symmetry_2
S1 C5 1_555 1_555
S2 C1 1_555 1_555
S3 C6 1_555 1_555
C1 C4 1_555 1_555
C2 H1 1_555 1_555
C3 C2 1_555 1_555
H2 C3 1_555 1_555
C4 C7 1_555 1_555
C5 C10 1_555 1_555
C6 C1 1_555 1_555
H3 C6 1_555 1_555
C7 S3 1_555 1_555
C8 C2 1_555 1_555
H4 C8 1_555 1_555
C9 S1 1_555 1_555
H5 C9 1_555 1_555
C10 C4 1_555 1_555
C11 S2 1_555 1_555
C12 C3 1_555 1_555
H6 C12 1_555 1_555
S4 C23 1_555 1_555
S5 C17 1_555 1_555
S6 C16 1_555 1_555
C13 H7 1_555 1_555
C14 C15 1_555 1_555
C15 C17 1_555 1_555
C16 H8 1_555 1_555
C17 C20 1_555 1_555
C18 C13 1_555 1_555
H9 C18 1_555 1_555
C19 S6 1_555 1_555
C20 H10 1_555 1_555
C21 S5 1_555 1_555
H11 C21 1_555 1_555
C22 C18 1_555 1_555
H12 C22 1_555 1_555
C23 C15 1_555 1_555
C24 S4 1_555 1_555
C5 C12 1_555 1_555
C7 C8 1_555 1_555
C9 C11 1_555 1_555
C10 C11 1_555 1_555
C13 C19 1_555 1_555
C14 C19 1_555 1_555
C14 C24 1_555 1_555
C16 C24 1_555 1_555
C20 C22 1_555 1_555
C21 C23 1_555 1_555

#END
