
#######################################################################
#
#                 Cambridge Crystallographic Data Centre
#                                CCDC 
#
#######################################################################
#
# If this CIF has been generated from an entry in the Cambridge 
# Structural Database, then it will include bibliographic, chemical, 
# crystal, experimental, refinement or atomic coordinate data resulting 
# from the CCDC's data processing and validation procedures.
#
#######################################################################

data_FIFTOF
_chemical_formula_moiety         'C96 H132 Br12 N12 O12,12(C1 H1 Cl3),H2 O1'
_chemical_name_systematic        
'5,8,16,19,27,30,38,41,46,49,54,57-dodecakis(2-Bromo-2-methylpropanoyl)-5,8,16,19,27,30,38,41,46,49,54,57-dodecaazaheptacyclo[21.21.6.6^12,34^.1^3,43^.1^10,14^.1^21,25^.1^32,36^]hexaconta-1,3(51),10(60),11,13,21(59),22,24,32(52),33,35,43-dodecaene chloroform solvate monohydrate'
_symmetry_cell_setting           cubic
_symmetry_space_group_name_H-M   'P -4 3 n'
_symmetry_Int_Tables_number      218
_space_group_name_Hall           'P -4n 2 3'
loop_
_symmetry_equiv_pos_site_id
_symmetry_equiv_pos_as_xyz
1 x,y,z
2 -x,-y,z
3 -x,y,-z
4 x,-y,-z
5 z,x,y
6 z,-x,-y
7 -z,-x,y
8 -z,x,-y
9 y,z,x
10 -y,z,-x
11 y,-z,-x
12 -y,-z,x
13 1/2+y,1/2+x,1/2+z
14 1/2-y,1/2-x,1/2+z
15 1/2+y,1/2-x,1/2-z
16 1/2-y,1/2+x,1/2-z
17 1/2+x,1/2+z,1/2+y
18 1/2-x,1/2+z,1/2-y
19 1/2-x,1/2-z,1/2+y
20 1/2+x,1/2-z,1/2-y
21 1/2+z,1/2+y,1/2+x
22 1/2+z,1/2-y,1/2-x
23 1/2-z,1/2+y,1/2-x
24 1/2-z,1/2-y,1/2+x
_cell_length_a                   20.3301(7)
_cell_length_b                   20.3301(7)
_cell_length_c                   20.3301(7)
_cell_angle_alpha                90
_cell_angle_beta                 90
_cell_angle_gamma                90
_cell_volume                     8402.69
_exptl_crystal_colour            colorless
_exptl_crystal_description       'trigonal plate'
_cell_formula_units_Z            2
loop_
_atom_site_label
_atom_site_type_symbol
_atom_site_fract_x
_atom_site_fract_y
_atom_site_fract_z
N1 N 0.52753(15) 0.23897(15) 0.56889(15)
O1 O 0.42670(15) 0.19652(17) 0.58145(15)
Br1 Br 0.57224(7) 0.08034(4) 0.57038(5)
C1 C 0.59086(18) 0.32087(18) 0.66760(17)
H1 H 0.5531 0.2977 0.6826
C2 C 0.62423(17) 0.29880(18) 0.61192(17)
C3 C 0.59942(19) 0.23985(18) 0.5730(2)
H2 H 0.6181 0.2413 0.5281
H3 H 0.6148 0.1989 0.5944
C4 C 0.4971(2) 0.29649(19) 0.5373(2)
H4 H 0.5181 0.3369 0.5547
H5 H 0.4500 0.2979 0.5494
C5 C 0.4864(2) 0.1909(2) 0.59013(19)
C6 C 0.5113(3) 0.1300(2) 0.6258(2)
C7 C 0.4524(3) 0.0873(2) 0.6453(3)
H6 H 0.4262 0.0773 0.6061
H7 H 0.4251 0.1111 0.6772
H8 H 0.4681 0.0463 0.6650
C8 C 0.5515(14) 0.1389(15) 0.6932(10)
H9 H 0.5647 0.0957 0.7099
H10 H 0.5235 0.1608 0.7258
H11 H 0.5907 0.1658 0.6851
N1B N 0.47247(15) 0.23897(15) 0.43111(15)
O1B O 0.57330(15) 0.19652(17) 0.41855(15)
Br1B Br 0.42776(7) 0.08034(4) 0.42962(5)
C1B C 0.40914(18) 0.32087(18) 0.33240(17)
H1B H 0.4469 0.2977 0.3174
C2B C 0.37577(17) 0.29880(18) 0.38808(17)
C3B C 0.40058(19) 0.23985(18) 0.4270(2)
H2B H 0.3819 0.2413 0.4719
H3B H 0.3852 0.1989 0.4056
C4B C 0.5029(2) 0.29649(19) 0.4627(2)
H4B H 0.4819 0.3369 0.4453
H5B H 0.5500 0.2979 0.4506
C5B C 0.5136(2) 0.1909(2) 0.40987(19)
C6B C 0.4887(3) 0.1300(2) 0.3742(2)
C7B C 0.5476(3) 0.0873(2) 0.3547(3)
H6B H 0.5738 0.0773 0.3939
H7B H 0.5749 0.1111 0.3228
H8B H 0.5319 0.0463 0.3350
C8B C 0.4485(14) 0.1389(15) 0.3068(10)
H9B H 0.4353 0.0957 0.2901
H10B H 0.4765 0.1608 0.2742
H11B H 0.4093 0.1658 0.3149
N1E N 0.56889(15) 0.47247(15) 0.76103(15)
O1E O 0.58145(15) 0.57330(15) 0.80348(17)
Br1E Br 0.57038(5) 0.42776(7) 0.91966(4)
C1E C 0.66760(17) 0.40914(18) 0.67913(18)
H1E H 0.6826 0.4469 0.7023
C2E C 0.61192(17) 0.37577(17) 0.70120(18)
C3E C 0.5730(2) 0.40058(19) 0.76015(18)
H2E H 0.5281 0.3819 0.7587
H3E H 0.5944 0.3852 0.8011
C4E C 0.5373(2) 0.5029(2) 0.70351(19)
H4E H 0.5547 0.4819 0.6631
H5E H 0.5494 0.5500 0.7021
C5E C 0.59013(19) 0.5136(2) 0.8091(2)
C6E C 0.6258(2) 0.4887(3) 0.8700(2)
C7E C 0.6453(3) 0.5476(3) 0.9127(2)
H6E H 0.6061 0.5738 0.9227
H7E H 0.6772 0.5749 0.8889
H8E H 0.6650 0.5319 0.9537
C8E C 0.6932(10) 0.4485(14) 0.8611(15)
H9E H 0.7099 0.4353 0.9043
H10E H 0.7258 0.4765 0.8392
H11E H 0.6851 0.4093 0.8342
N1G N 0.43111(15) 0.52753(15) 0.76103(15)
O1G O 0.41855(15) 0.42670(15) 0.80348(17)
Br1G Br 0.42962(5) 0.57224(7) 0.91966(4)
C1G C 0.33240(17) 0.59086(18) 0.67913(18)
H1G H 0.3174 0.5531 0.7023
C2G C 0.38808(17) 0.62423(17) 0.70120(18)
C3G C 0.4270(2) 0.59942(19) 0.76015(18)
H2G H 0.4719 0.6181 0.7587
H3G H 0.4056 0.6148 0.8011
C4G C 0.4627(2) 0.4971(2) 0.70351(19)
H4G H 0.4453 0.5181 0.6631
H5G H 0.4506 0.4500 0.7021
C5G C 0.40987(19) 0.4864(2) 0.8091(2)
C6G C 0.3742(2) 0.5113(3) 0.8700(2)
C7G C 0.3547(3) 0.4524(3) 0.9127(2)
H6G H 0.3939 0.4262 0.9227
H7G H 0.3228 0.4251 0.8889
H8G H 0.3350 0.4681 0.9537
C8G C 0.3068(10) 0.5515(14) 0.8611(15)
H9G H 0.2901 0.5647 0.9043
H10G H 0.2742 0.5235 0.8392
H11G H 0.3149 0.5907 0.8342
N1J N 0.23897(15) 0.43111(15) 0.47247(15)
O1J O 0.19652(17) 0.41855(15) 0.57330(15)
Br1J Br 0.08034(4) 0.42962(5) 0.42776(7)
C1J C 0.32087(18) 0.33240(17) 0.40914(18)
H1J H 0.2977 0.3174 0.4469
C2J C 0.29880(18) 0.38808(17) 0.37577(17)
C3J C 0.23985(18) 0.4270(2) 0.40058(19)
H2J H 0.2413 0.4719 0.3819
H3J H 0.1989 0.4056 0.3852
C4J C 0.29649(19) 0.4627(2) 0.5029(2)
H4J H 0.3369 0.4453 0.4819
H5J H 0.2979 0.4506 0.5500
C5J C 0.1909(2) 0.40987(19) 0.5136(2)
C6J C 0.1300(2) 0.3742(2) 0.4887(3)
C7J C 0.0873(2) 0.3547(3) 0.5476(3)
H6J H 0.0773 0.3939 0.5738
H7J H 0.1111 0.3228 0.5749
H8J H 0.0463 0.3350 0.5319
C8J C 0.1389(15) 0.3068(10) 0.4485(14)
H9J H 0.0957 0.2901 0.4353
H10J H 0.1608 0.2742 0.4765
H11J H 0.1658 0.3149 0.4093
N1K N 0.76103(15) 0.43111(15) 0.52753(15)
O1K O 0.80348(17) 0.41855(15) 0.42670(15)
Br1K Br 0.91966(4) 0.42962(5) 0.57224(7)
C1K C 0.67913(18) 0.33240(17) 0.59086(18)
H1K H 0.7023 0.3174 0.5531
C2K C 0.70120(18) 0.38808(17) 0.62423(17)
C3K C 0.76015(18) 0.4270(2) 0.59942(19)
H2K H 0.7587 0.4719 0.6181
H3K H 0.8011 0.4056 0.6148
C4K C 0.70351(19) 0.4627(2) 0.4971(2)
H4K H 0.6631 0.4453 0.5181
H5K H 0.7021 0.4506 0.4500
C5K C 0.8091(2) 0.40987(19) 0.4864(2)
C6K C 0.8700(2) 0.3742(2) 0.5113(3)
C7K C 0.9127(2) 0.3547(3) 0.4524(3)
H6K H 0.9227 0.3939 0.4262
H7K H 0.8889 0.3228 0.4251
H8K H 0.9537 0.3350 0.4681
C8K C 0.8611(15) 0.3068(10) 0.5515(14)
H9K H 0.9043 0.2901 0.5647
H10K H 0.8392 0.2742 0.5235
H11K H 0.8342 0.3149 0.5907
N1A N 0.47247(15) 0.76103(15) 0.56889(15)
O1A O 0.57330(15) 0.80348(17) 0.58145(15)
Br1A Br 0.42776(7) 0.91966(4) 0.57038(5)
C1A C 0.40914(18) 0.67913(18) 0.66760(17)
H1A H 0.4469 0.7023 0.6826
C2A C 0.37577(17) 0.70120(18) 0.61192(17)
C3A C 0.40058(19) 0.76015(18) 0.5730(2)
H2A H 0.3819 0.7587 0.5281
H3A H 0.3852 0.8011 0.5944
C4A C 0.5029(2) 0.70351(19) 0.5373(2)
H4A H 0.4819 0.6631 0.5547
H5A H 0.5500 0.7021 0.5494
C5A C 0.5136(2) 0.8091(2) 0.59013(19)
C6A C 0.4887(3) 0.8700(2) 0.6258(2)
C7A C 0.5476(3) 0.9127(2) 0.6453(3)
H6A H 0.5738 0.9227 0.6061
H7A H 0.5749 0.8889 0.6772
H8A H 0.5319 0.9537 0.6650
C8A C 0.4485(14) 0.8611(15) 0.6932(10)
H9A H 0.4353 0.9043 0.7099
H10A H 0.4765 0.8392 0.7258
H11A H 0.4093 0.8342 0.6851
N1C N 0.52753(15) 0.76103(15) 0.43111(15)
O1C O 0.42670(15) 0.80348(17) 0.41855(15)
Br1C Br 0.57224(7) 0.91966(4) 0.42962(5)
C1C C 0.59086(18) 0.67913(18) 0.33240(17)
H1C H 0.5531 0.7023 0.3174
C2C C 0.62423(17) 0.70120(18) 0.38808(17)
C3C C 0.59942(19) 0.76015(18) 0.4270(2)
H2C H 0.6181 0.7587 0.4719
H3C H 0.6148 0.8011 0.4056
C4C C 0.4971(2) 0.70351(19) 0.4627(2)
H4C H 0.5181 0.6631 0.4453
H5C H 0.4500 0.7021 0.4506
C5C C 0.4864(2) 0.8091(2) 0.40987(19)
C6C C 0.5113(3) 0.8700(2) 0.3742(2)
C7C C 0.4524(3) 0.9127(2) 0.3547(3)
H6C H 0.4262 0.9227 0.3939
H7C H 0.4251 0.8889 0.3228
H8C H 0.4681 0.9537 0.3350
C8C C 0.5515(14) 0.8611(15) 0.3068(10)
H9C H 0.5647 0.9043 0.2901
H10C H 0.5235 0.8392 0.2742
H11C H 0.5907 0.8342 0.3149
N1D N 0.56889(15) 0.52753(15) 0.23897(15)
O1D O 0.58145(15) 0.42670(15) 0.19652(17)
Br1D Br 0.57038(5) 0.57224(7) 0.08034(4)
C1D C 0.66760(17) 0.59086(18) 0.32087(18)
H1D H 0.6826 0.5531 0.2977
C2D C 0.61192(17) 0.62423(17) 0.29880(18)
C3D C 0.5730(2) 0.59942(19) 0.23985(18)
H2D H 0.5281 0.6181 0.2413
H3D H 0.5944 0.6148 0.1989
C4D C 0.5373(2) 0.4971(2) 0.29649(19)
H4D H 0.5547 0.5181 0.3369
H5D H 0.5494 0.4500 0.2979
C5D C 0.59013(19) 0.4864(2) 0.1909(2)
C6D C 0.6258(2) 0.5113(3) 0.1300(2)
C7D C 0.6453(3) 0.4524(3) 0.0873(2)
H6D H 0.6061 0.4262 0.0773
H7D H 0.6772 0.4251 0.1111
H8D H 0.6650 0.4681 0.0463
C8D C 0.6932(10) 0.5515(14) 0.1389(15)
H9D H 0.7099 0.5647 0.0957
H10D H 0.7258 0.5235 0.1608
H11D H 0.6851 0.5907 0.1658
N1F N 0.43111(15) 0.47247(15) 0.23897(15)
O1F O 0.41855(15) 0.57330(15) 0.19652(17)
Br1F Br 0.42962(5) 0.42776(7) 0.08034(4)
C1F C 0.33240(17) 0.40914(18) 0.32087(18)
H1F H 0.3174 0.4469 0.2977
C2F C 0.38808(17) 0.37577(17) 0.29880(18)
C3F C 0.4270(2) 0.40058(19) 0.23985(18)
H2F H 0.4719 0.3819 0.2413
H3F H 0.4056 0.3852 0.1989
C4F C 0.4627(2) 0.5029(2) 0.29649(19)
H4F H 0.4453 0.4819 0.3369
H5F H 0.4506 0.5500 0.2979
C5F C 0.40987(19) 0.5136(2) 0.1909(2)
C6F C 0.3742(2) 0.4887(3) 0.1300(2)
C7F C 0.3547(3) 0.5476(3) 0.0873(2)
H6F H 0.3939 0.5738 0.0773
H7F H 0.3228 0.5749 0.1111
H8F H 0.3350 0.5319 0.0463
C8F C 0.3068(10) 0.4485(14) 0.1389(15)
H9F H 0.2901 0.4353 0.0957
H10F H 0.2742 0.4765 0.1608
H11F H 0.3149 0.4093 0.1658
N1H N 0.23897(15) 0.56889(15) 0.52753(15)
O1H O 0.19652(17) 0.58145(15) 0.42670(15)
Br1H Br 0.08034(4) 0.57038(5) 0.57224(7)
C1H C 0.32087(18) 0.66760(17) 0.59086(18)
H1H H 0.2977 0.6826 0.5531
C2H C 0.29880(18) 0.61192(17) 0.62423(17)
C3H C 0.23985(18) 0.5730(2) 0.59942(19)
H2H H 0.2413 0.5281 0.6181
H3H H 0.1989 0.5944 0.6148
C4H C 0.29649(19) 0.5373(2) 0.4971(2)
H4H H 0.3369 0.5547 0.5181
H5H H 0.2979 0.5494 0.4500
C5H C 0.1909(2) 0.59013(19) 0.4864(2)
C6H C 0.1300(2) 0.6258(2) 0.5113(3)
C7H C 0.0873(2) 0.6453(3) 0.4524(3)
H6H H 0.0773 0.6061 0.4262
H7H H 0.1111 0.6772 0.4251
H8H H 0.0463 0.6650 0.4681
C8H C 0.1389(15) 0.6932(10) 0.5515(14)
H9H H 0.0957 0.7099 0.5647
H10H H 0.1608 0.7258 0.5235
H11H H 0.1658 0.6851 0.5907
N1I N 0.76103(15) 0.56889(15) 0.47247(15)
O1I O 0.80348(17) 0.58145(15) 0.57330(15)
Br1I Br 0.91966(4) 0.57038(5) 0.42776(7)
C1I C 0.67913(18) 0.66760(17) 0.40914(18)
H1I H 0.7023 0.6826 0.4469
C2I C 0.70120(18) 0.61192(17) 0.37577(17)
C3I C 0.76015(18) 0.5730(2) 0.40058(19)
H2I H 0.7587 0.5281 0.3819
H3I H 0.8011 0.5944 0.3852
C4I C 0.70351(19) 0.5373(2) 0.5029(2)
H4I H 0.6631 0.5547 0.4819
H5I H 0.7021 0.5494 0.5500
C5I C 0.8091(2) 0.59013(19) 0.5136(2)
C6I C 0.8700(2) 0.6258(2) 0.4887(3)
C7I C 0.9127(2) 0.6453(3) 0.5476(3)
H6I H 0.9227 0.6061 0.5738
H7I H 0.8889 0.6772 0.5749
H8I H 0.9537 0.6650 0.5319
C8I C 0.8611(15) 0.6932(10) 0.4485(14)
H9I H 0.9043 0.7099 0.4353
H10I H 0.8392 0.7258 0.4765
H11I H 0.8342 0.6851 0.4093
C10 C 0.2804(3) 0.1860(3) 0.6072(3)
H15 H 0.3294 0.1826 0.6095
Cl1 Cl 0.25986(9) 0.27049(9) 0.59785(8)
Cl2 Cl 0.24860(7) 0.15487(9) 0.68057(9)
Cl3 Cl 0.25457(11) 0.14202(12) 0.53858(10)
O2 O 0.5000 0.5000 0.5000
Br2? Br 0.55757(12) 0.14643(10) 0.70133(8)
C9? C 0.5483(12) 0.0872(12) 0.5731(11)
H12? H 0.5653 0.0472 0.5939
H13? H 0.5849 0.1125 0.5546
H14? H 0.5177 0.0751 0.5378
loop_
_geom_bond_atom_site_label_1
_geom_bond_atom_site_label_2
_geom_bond_site_symmetry_1
_geom_bond_site_symmetry_2
N1 C3 1_555 1_555
O1 C5 1_555 1_555
Br1 C6 1_555 1_555
C1 H1 1_555 1_555
C2 C1 1_555 1_555
C3 C2 1_555 1_555
H2 C3 1_555 1_555
H3 C3 1_555 1_555
C4 N1 1_555 1_555
H4 C4 1_555 1_555
H5 C4 1_555 1_555
C5 N1 1_555 1_555
C6 C5 1_555 1_555
C7 C6 1_555 1_555
H6 C7 1_555 1_555
H7 C7 1_555 1_555
H8 C7 1_555 1_555
C8 C6 1_555 1_555
H9 C8 1_555 1_555
H10 C8 1_555 1_555
H11 C8 1_555 1_555
C10 H15 1_555 1_555
Cl1 C10 1_555 1_555
Cl2 C10 1_555 1_555
Cl3 C10 1_555 1_555
N1B C3B 1_555 1_555
O1B C5B 1_555 1_555
Br1B C6B 1_555 1_555
C1B H1B 1_555 1_555
C2B C1B 1_555 1_555
C3B C2B 1_555 1_555
H2B C3B 1_555 1_555
H3B C3B 1_555 1_555
C4B C4 1_555 1_555
H4B C4B 1_555 1_555
H5B C4B 1_555 1_555
C5B N1B 1_555 1_555
C6B C5B 1_555 1_555
C7B C6B 1_555 1_555
H6B C7B 1_555 1_555
H7B C7B 1_555 1_555
H8B C7B 1_555 1_555
C8B C6B 1_555 1_555
H9B C8B 1_555 1_555
H10B C8B 1_555 1_555
H11B C8B 1_555 1_555
N1E C3E 1_555 1_555
O1E C5E 1_555 1_555
Br1E C6E 1_555 1_555
C1E H1E 1_555 1_555
C2E C1 1_555 1_555
C3E C2E 1_555 1_555
H2E C3E 1_555 1_555
H3E C3E 1_555 1_555
C4E N1E 1_555 1_555
H4E C4E 1_555 1_555
H5E C4E 1_555 1_555
C5E N1E 1_555 1_555
C6E C5E 1_555 1_555
C7E C6E 1_555 1_555
H6E C7E 1_555 1_555
H7E C7E 1_555 1_555
H8E C7E 1_555 1_555
C8E C6E 1_555 1_555
H9E C8E 1_555 1_555
H10E C8E 1_555 1_555
H11E C8E 1_555 1_555
N1G C3G 1_555 1_555
O1G C5G 1_555 1_555
Br1G C6G 1_555 1_555
C1G H1G 1_555 1_555
C2G C1G 1_555 1_555
C3G C2G 1_555 1_555
H2G C3G 1_555 1_555
H3G C3G 1_555 1_555
C4G C4E 1_555 1_555
H4G C4G 1_555 1_555
H5G C4G 1_555 1_555
C5G N1G 1_555 1_555
C6G C5G 1_555 1_555
C7G C6G 1_555 1_555
H6G C7G 1_555 1_555
H7G C7G 1_555 1_555
H8G C7G 1_555 1_555
C8G C6G 1_555 1_555
H9G C8G 1_555 1_555
H10G C8G 1_555 1_555
H11G C8G 1_555 1_555
N1J C3J 1_555 1_555
O1J C5J 1_555 1_555
Br1J C6J 1_555 1_555
C1J C2B 1_555 1_555
H1J C1J 1_555 1_555
C2J C1J 1_555 1_555
C3J C2J 1_555 1_555
H2J C3J 1_555 1_555
H3J C3J 1_555 1_555
C4J N1J 1_555 1_555
H4J C4J 1_555 1_555
H5J C4J 1_555 1_555
C5J N1J 1_555 1_555
C6J C5J 1_555 1_555
C7J C6J 1_555 1_555
H6J C7J 1_555 1_555
H7J C7J 1_555 1_555
H8J C7J 1_555 1_555
C8J C6J 1_555 1_555
H9J C8J 1_555 1_555
H10J C8J 1_555 1_555
H11J C8J 1_555 1_555
N1K C3K 1_555 1_555
O1K C5K 1_555 1_555
Br1K C6K 1_555 1_555
C1K C2 1_555 1_555
H1K C1K 1_555 1_555
C2K C1E 1_555 1_555
C3K C2K 1_555 1_555
H2K C3K 1_555 1_555
H3K C3K 1_555 1_555
C4K N1K 1_555 1_555
H4K C4K 1_555 1_555
H5K C4K 1_555 1_555
C5K N1K 1_555 1_555
C6K C5K 1_555 1_555
C7K C6K 1_555 1_555
H6K C7K 1_555 1_555
H7K C7K 1_555 1_555
H8K C7K 1_555 1_555
C8K C6K 1_555 1_555
H9K C8K 1_555 1_555
H10K C8K 1_555 1_555
H11K C8K 1_555 1_555
N1A C3A 1_555 1_555
O1A C5A 1_555 1_555
Br1A C6A 1_555 1_555
C1A C2G 1_555 1_555
H1A C1A 1_555 1_555
C2A C1A 1_555 1_555
C3A C2A 1_555 1_555
H2A C3A 1_555 1_555
H3A C3A 1_555 1_555
C4A N1A 1_555 1_555
H4A C4A 1_555 1_555
H5A C4A 1_555 1_555
C5A N1A 1_555 1_555
C6A C5A 1_555 1_555
C7A C6A 1_555 1_555
H6A C7A 1_555 1_555
H7A C7A 1_555 1_555
H8A C7A 1_555 1_555
C8A C6A 1_555 1_555
H9A C8A 1_555 1_555
H10A C8A 1_555 1_555
H11A C8A 1_555 1_555
N1C C3C 1_555 1_555
O1C C5C 1_555 1_555
Br1C C6C 1_555 1_555
C1C H1C 1_555 1_555
C2C C1C 1_555 1_555
C3C C2C 1_555 1_555
H2C C3C 1_555 1_555
H3C C3C 1_555 1_555
C4C C4A 1_555 1_555
H4C C4C 1_555 1_555
H5C C4C 1_555 1_555
C5C N1C 1_555 1_555
C6C C5C 1_555 1_555
C7C C6C 1_555 1_555
H6C C7C 1_555 1_555
H7C C7C 1_555 1_555
H8C C7C 1_555 1_555
C8C C6C 1_555 1_555
H9C C8C 1_555 1_555
H10C C8C 1_555 1_555
H11C C8C 1_555 1_555
N1D C3D 1_555 1_555
O1D C5D 1_555 1_555
Br1D C6D 1_555 1_555
C1D H1D 1_555 1_555
C2D C1C 1_555 1_555
C3D C2D 1_555 1_555
H2D C3D 1_555 1_555
H3D C3D 1_555 1_555
C4D N1D 1_555 1_555
H4D C4D 1_555 1_555
H5D C4D 1_555 1_555
C5D N1D 1_555 1_555
C6D C5D 1_555 1_555
C7D C6D 1_555 1_555
H6D C7D 1_555 1_555
H7D C7D 1_555 1_555
H8D C7D 1_555 1_555
C8D C6D 1_555 1_555
H9D C8D 1_555 1_555
H10D C8D 1_555 1_555
H11D C8D 1_555 1_555
N1F C3F 1_555 1_555
O1F C5F 1_555 1_555
Br1F C6F 1_555 1_555
C1F C2J 1_555 1_555
H1F C1F 1_555 1_555
C2F C1B 1_555 1_555
C3F C2F 1_555 1_555
H2F C3F 1_555 1_555
H3F C3F 1_555 1_555
C4F C4D 1_555 1_555
H4F C4F 1_555 1_555
H5F C4F 1_555 1_555
C5F N1F 1_555 1_555
C6F C5F 1_555 1_555
C7F C6F 1_555 1_555
H6F C7F 1_555 1_555
H7F C7F 1_555 1_555
H8F C7F 1_555 1_555
C8F C6F 1_555 1_555
H9F C8F 1_555 1_555
H10F C8F 1_555 1_555
H11F C8F 1_555 1_555
N1H C3H 1_555 1_555
O1H C5H 1_555 1_555
Br1H C6H 1_555 1_555
C1H C2A 1_555 1_555
H1H C1H 1_555 1_555
C2H C1G 1_555 1_555
C3H C2H 1_555 1_555
H2H C3H 1_555 1_555
H3H C3H 1_555 1_555
C4H C4J 1_555 1_555
H4H C4H 1_555 1_555
H5H C4H 1_555 1_555
C5H N1H 1_555 1_555
C6H C5H 1_555 1_555
C7H C6H 1_555 1_555
H6H C7H 1_555 1_555
H7H C7H 1_555 1_555
H8H C7H 1_555 1_555
C8H C6H 1_555 1_555
H9H C8H 1_555 1_555
H10H C8H 1_555 1_555
H11H C8H 1_555 1_555
N1I C3I 1_555 1_555
O1I C5I 1_555 1_555
Br1I C6I 1_555 1_555
C1I C2C 1_555 1_555
H1I C1I 1_555 1_555
C2I C1D 1_555 1_555
C3I C2I 1_555 1_555
H2I C3I 1_555 1_555
H3I C3I 1_555 1_555
C4I C4K 1_555 1_555
H4I C4I 1_555 1_555
H5I C4I 1_555 1_555
C5I N1I 1_555 1_555
C6I C5I 1_555 1_555
C7I C6I 1_555 1_555
H6I C7I 1_555 1_555
H7I C7I 1_555 1_555
H8I C7I 1_555 1_555
C8I C6I 1_555 1_555
H9I C8I 1_555 1_555
H10I C8I 1_555 1_555
H11I C8I 1_555 1_555
N1B C4B 1_555 1_555
C1E C2E 1_555 1_555
N1G C4G 1_555 1_555
C1K C2K 1_555 1_555
N1C C4C 1_555 1_555
C1D C2D 1_555 1_555
N1F C4F 1_555 1_555
C1F C2F 1_555 1_555
N1H C4H 1_555 1_555
C1H C2H 1_555 1_555
N1I C4I 1_555 1_555
C1I C2I 1_555 1_555

#END
