
#######################################################################
#
#                 Cambridge Crystallographic Data Centre
#                                CCDC 
#
#######################################################################
#
# If this CIF has been generated from an entry in the Cambridge 
# Structural Database, then it will include bibliographic, chemical, 
# crystal, experimental, refinement or atomic coordinate data resulting 
# from the CCDC's data processing and validation procedures.
#
#######################################################################

data_FIFTAS
_chemical_name_common            'Baefrutone A'
_chemical_formula_moiety         'C35 H48 O7'
_chemical_name_systematic        
2-{1-[4,6-dihydroxy-1b-methyl-5-(2-methylpropanoyl)-8a-(propan-2-yl)-1a,1b,7,7a,8,8a-hexahydro-1H-benzo[b]cyclopropa[3,4]cyclopenta[1,2-e]pyran-3-yl]-2-methylpropyl}-3-hydroxy-5-methoxy-4,4,6-trimethylcyclohexa-2,5-dien-1-one
_symmetry_cell_setting           orthorhombic
_symmetry_space_group_name_H-M   'P 21 21 21'
_symmetry_Int_Tables_number      19
_space_group_name_Hall           'P 2ac 2ab'
loop_
_symmetry_equiv_pos_site_id
_symmetry_equiv_pos_as_xyz
1 x,y,z
2 1/2-x,-y,1/2+z
3 -x,1/2+y,1/2-z
4 1/2+x,1/2-y,-z
_cell_length_a                   11.27460(10)
_cell_length_b                   16.1738(2)
_cell_length_c                   18.2342(2)
_cell_angle_alpha                90
_cell_angle_beta                 90
_cell_angle_gamma                90
_cell_volume                     3325.06
_exptl_crystal_colour            yellowish
_exptl_crystal_description       block
_cell_formula_units_Z            4
loop_
_atom_site_label
_atom_site_type_symbol
_atom_site_fract_x
_atom_site_fract_y
_atom_site_fract_z
O1 O 0.62512(15) 0.63508(9) 0.68637(8)
O2 O 0.77136(15) 0.55676(10) 0.42646(9)
O3 O 0.84228(16) 0.46159(12) 0.52825(9)
H1 H 0.8148 0.4923 0.4968
O4 O 0.96665(16) 0.50050(14) 0.77641(10)
H2 H 1.0133 0.4636 0.7655
O5 O 0.6251(3) 0.80598(11) 0.33148(11)
O6 O 1.07586(19) 0.40505(15) 0.69482(12)
O7 O 0.5180(3) 0.71854(16) 0.57141(11)
H3 H 0.5448 0.6918 0.6059
C1 C 0.7990(2) 0.56831(14) 0.73321(11)
C2 C 0.71988(19) 0.58328(12) 0.67695(11)
C3 C 0.70344(18) 0.61704(12) 0.43436(12)
C4 C 0.72689(18) 0.54494(12) 0.60779(11)
C5 C 0.8922(2) 0.51454(15) 0.71948(12)
C6 C 0.63336(19) 0.62620(13) 0.50003(11)
C7 C 0.82585(18) 0.49539(13) 0.59483(12)
C8 C 0.6988(2) 0.67750(13) 0.37476(13)
C9 C 0.62338(19) 0.55491(13) 0.55451(11)
H4 H 0.5572 0.5713 0.5862
C10 C 0.91032(19) 0.47667(14) 0.65066(13)
C11 C 0.6327(3) 0.74511(14) 0.38405(14)
C12 C 1.0114(2) 0.42051(17) 0.64132(15)
C13 C 0.7838(2) 0.60601(18) 0.80832(13)
H5 H 0.8394 0.6513 0.8141
H6 H 0.8017 0.5648 0.8454
C14 C 0.5784(2) 0.47375(15) 0.51769(13)
H7 H 0.6384 0.4550 0.4825
C15 C 0.4773(3) 0.68185(17) 0.76401(14)
H8 H 0.4266 0.6929 0.7214
C16 C 0.6587(3) 0.63773(16) 0.81975(12)
H9 H 0.6603 0.6759 0.8615
C17 C 0.4468(3) 0.60980(19) 0.81253(14)
C18 C 0.5768(3) 0.69869(17) 0.50970(13)
C19 C 0.5645(2) 0.57223(17) 0.83561(14)
H10 H 0.5804 0.5223 0.8079
H11 H 0.5635 0.5586 0.8874
C20 C 0.6087(3) 0.68492(14) 0.75390(13)
C21 C 0.5675(4) 0.76648(17) 0.45280(16)
C22 C 0.4264(4) 0.6960(2) 0.83965(17)
H12 H 0.4792 0.7171 0.8773
H13 H 0.3451 0.7153 0.8431
C23 C 0.5602(3) 0.40634(18) 0.57431(18)
H14 H 0.6340 0.3949 0.5985
H15 H 0.5321 0.3571 0.5505
H16 H 0.5027 0.4243 0.6098
C24 C 0.3416(3) 0.5546(3) 0.7967(2)
H17 H 0.2735 0.5908 0.7874
C25 C 0.7717(3) 0.65911(19) 0.30830(17)
H18 H 0.8507 0.6443 0.3230
H19 H 0.7747 0.7072 0.2774
H20 H 0.7367 0.6141 0.2818
C26 C 0.4632(3) 0.4898(2) 0.47652(19)
H21 H 0.4056 0.5128 0.5095
H22 H 0.4336 0.4388 0.4568
H23 H 0.4776 0.5280 0.4372
C27 C 1.0408(3) 0.3756(2) 0.57081(18)
H24 H 1.0230 0.4124 0.5296
C28 C 0.5670(4) 0.7856(3) 0.26543(19)
H25 H 0.5613 0.8339 0.2351
H26 H 0.4888 0.7653 0.2761
H27 H 0.6113 0.7436 0.2402
C29 C 0.6641(5) 0.76838(19) 0.7404(2)
H28 H 0.7474 0.7617 0.7314
H29 H 0.6527 0.8029 0.7826
H30 H 0.6274 0.7937 0.6985
C30 C 0.4333(5) 0.7768(3) 0.4355(2)
H31 H 0.4229 0.8200 0.4000
H32 H 0.3915 0.7909 0.4796
H33 H 0.4025 0.7259 0.4162
C31 C 0.9615(6) 0.2999(3) 0.5650(2)
H34 H 0.9827 0.2609 0.6024
H35 H 0.9715 0.2749 0.5176
H36 H 0.8802 0.3161 0.5712
C32 C 0.3603(4) 0.5038(3) 0.7287(3)
H37 H 0.3739 0.5398 0.6877
H38 H 0.2912 0.4706 0.7196
H39 H 0.4279 0.4684 0.7353
C33 C 0.3098(4) 0.5006(4) 0.8617(3)
H40 H 0.3773 0.4679 0.8754
H41 H 0.2451 0.4649 0.8487
H42 H 0.2868 0.5349 0.9023
C34 C 0.6188(8) 0.8474(2) 0.4842(3)
H43 H 0.7010 0.8395 0.4961
H44 H 0.5759 0.8625 0.5277
H45 H 0.6115 0.8906 0.4484
C35 C 1.1713(5) 0.3524(6) 0.5672(3)
H46 H 1.2187 0.4017 0.5671
H47 H 1.1861 0.3215 0.5232
H48 H 1.1915 0.3192 0.6091
loop_
_geom_bond_atom_site_label_1
_geom_bond_atom_site_label_2
_geom_bond_site_symmetry_1
_geom_bond_site_symmetry_2
O1 C2 1_555 1_555
O2 C3 1_555 1_555
O3 H1 1_555 1_555
O4 H2 1_555 1_555
O5 C11 1_555 1_555
O6 C12 1_555 1_555
O7 H3 1_555 1_555
C1 C2 1_555 1_555
C2 C4 1_555 1_555
C3 C6 1_555 1_555
C4 C7 1_555 1_555
C5 O4 1_555 1_555
C6 C9 1_555 1_555
C7 O3 1_555 1_555
C8 C3 1_555 1_555
C9 C4 1_555 1_555
H4 C9 1_555 1_555
C10 C5 1_555 1_555
C11 C8 1_555 1_555
C12 C10 1_555 1_555
C13 C1 1_555 1_555
H5 C13 1_555 1_555
H6 C13 1_555 1_555
C14 C9 1_555 1_555
H7 C14 1_555 1_555
C15 H8 1_555 1_555
C16 C13 1_555 1_555
H9 C16 1_555 1_555
C17 C15 1_555 1_555
C18 O7 1_555 1_555
C19 C16 1_555 1_555
H10 C19 1_555 1_555
H11 C19 1_555 1_555
C20 O1 1_555 1_555
C21 C11 1_555 1_555
C22 C15 1_555 1_555
H12 C22 1_555 1_555
H13 C22 1_555 1_555
C23 C14 1_555 1_555
H14 C23 1_555 1_555
H15 C23 1_555 1_555
H16 C23 1_555 1_555
C24 C17 1_555 1_555
H17 C24 1_555 1_555
C25 C8 1_555 1_555
H18 C25 1_555 1_555
H19 C25 1_555 1_555
H20 C25 1_555 1_555
C26 C14 1_555 1_555
H21 C26 1_555 1_555
H22 C26 1_555 1_555
H23 C26 1_555 1_555
C27 C12 1_555 1_555
H24 C27 1_555 1_555
C28 O5 1_555 1_555
H25 C28 1_555 1_555
H26 C28 1_555 1_555
H27 C28 1_555 1_555
C29 C20 1_555 1_555
H28 C29 1_555 1_555
H29 C29 1_555 1_555
H30 C29 1_555 1_555
C30 C21 1_555 1_555
H31 C30 1_555 1_555
H32 C30 1_555 1_555
H33 C30 1_555 1_555
C31 C27 1_555 1_555
H34 C31 1_555 1_555
H35 C31 1_555 1_555
H36 C31 1_555 1_555
C32 C24 1_555 1_555
H37 C32 1_555 1_555
H38 C32 1_555 1_555
H39 C32 1_555 1_555
C33 C24 1_555 1_555
H40 C33 1_555 1_555
H41 C33 1_555 1_555
H42 C33 1_555 1_555
C34 C21 1_555 1_555
H43 C34 1_555 1_555
H44 C34 1_555 1_555
H45 C34 1_555 1_555
C35 C27 1_555 1_555
H46 C35 1_555 1_555
H47 C35 1_555 1_555
H48 C35 1_555 1_555
C1 C5 1_555 1_555
C6 C18 1_555 1_555
C7 C10 1_555 1_555
C15 C20 1_555 1_555
C16 C20 1_555 1_555
C17 C19 1_555 1_555
C17 C22 1_555 1_555
C18 C21 1_555 1_555

#END
