
#######################################################################
#
#                 Cambridge Crystallographic Data Centre
#                                CCDC 
#
#######################################################################
#
# If this CIF has been generated from an entry in the Cambridge 
# Structural Database, then it will include bibliographic, chemical, 
# crystal, experimental, refinement or atomic coordinate data resulting 
# from the CCDC's data processing and validation procedures.
#
#######################################################################

data_FIFTEV
_chemical_formula_moiety         'C180 H144 N12 O12,7(C1 H1 Cl3)'
_chemical_name_systematic        
'5,8,16,19,27,30,38,41,46,49,54,57-dodecakis(2-Naphthoyl)-5,8,16,19,27,30,38,41,46,49,54,57-dodecaazaheptacyclo[21.21.6.6^12,34^.1^3,43^.1^10,14^.1^21,25^.1^32,36^]hexaconta-1,3(51),10(60),11,13,21(59),22,24,32(52),33,35,43-dodecaene chloroform solvate'
_symmetry_cell_setting           cubic
_symmetry_space_group_name_H-M   'P n -3'
_symmetry_Int_Tables_number      201
_space_group_name_Hall           '-P 2ab 2bc 3'
loop_
_symmetry_equiv_pos_site_id
_symmetry_equiv_pos_as_xyz
1 x,y,z
2 1/2-x,1/2-y,z
3 1/2-x,y,1/2-z
4 x,1/2-y,1/2-z
5 z,x,y
6 z,1/2-x,1/2-y
7 1/2-z,1/2-x,y
8 1/2-z,x,1/2-y
9 y,z,x
10 1/2-y,z,1/2-x
11 y,1/2-z,1/2-x
12 1/2-y,1/2-z,x
13 -x,-y,-z
14 1/2+x,1/2+y,-z
15 1/2+x,-y,1/2+z
16 -x,1/2+y,1/2+z
17 -z,-x,-y
18 -z,1/2+x,1/2+y
19 1/2+z,1/2+x,-y
20 1/2+z,-x,1/2+y
21 -y,-z,-x
22 1/2+y,-z,1/2+x
23 -y,1/2+z,1/2+x
24 1/2+y,1/2+z,-x
_cell_length_a                   20.3289(13)
_cell_length_b                   20.3289(13)
_cell_length_c                   20.3289(13)
_cell_angle_alpha                90
_cell_angle_beta                 90
_cell_angle_gamma                90
_cell_volume                     8401.21
_exptl_crystal_colour            colorless
_exptl_crystal_description       block
_cell_formula_units_Z            2
loop_
_atom_site_label
_atom_site_type_symbol
_atom_site_fract_x
_atom_site_fract_y
_atom_site_fract_z
N1 N 0.77958(19) 0.67924(19) 1.01824(19)
O1 O 0.6893(2) 0.67820(19) 1.0794(2)
C1 C 0.8396(2) 0.5832(2) 0.9280(2)
H1 H 0.8015 0.5684 0.9505
C2 C 0.8727(2) 0.63850(19) 0.95078(19)
C3 C 0.8516(2) 0.6747(2) 1.0120(2)
H2 H 0.8695 0.6518 1.0510
H3 H 0.8703 0.7197 1.0111
C4 C 0.7453(3) 0.7141(3) 0.9644(2)
H4 H 0.7610 0.6964 0.9219
H5 H 0.6976 0.7047 0.9676
C5 C 0.7467(3) 0.6642(2) 1.0728(3)
C6 C 0.7829(7) 0.6373(4) 1.1316(6)
C7 C 0.7930(4) 0.5732(4) 1.1372(4)
H6 H 0.7790 0.5448 1.1029
C8 C 0.8252(11) 0.5453(6) 1.1954(6)
C9 C 0.8362(5) 0.4773(5) 1.2027(5)
H7 H 0.8206 0.4476 1.1702
C10 C 0.8677(8) 0.4549(6) 1.2539(7)
H8 H 0.8736 0.4088 1.2580
C11 C 0.8916(17) 0.4933(15) 1.3002(12)
H9 H 0.9169 0.4749 1.3350
C12 C 0.8805(10) 0.5587(8) 1.2985(6)
H10 H 0.8961 0.5862 1.3329
C13 C 0.8449(7) 0.5866(6) 1.2443(7)
C14 C 0.8338(5) 0.6540(4) 1.2384(5)
H11 H 0.8473 0.6830 1.2725
C15 C 0.8032(4) 0.6787(5) 1.1828(5)
H12 H 0.7957 0.7247 1.1793
N1A N 0.72042(19) 0.82076(19) 1.01824(19)
O1A O 0.8107(2) 0.82180(19) 1.0794(2)
C1A C 0.6604(2) 0.9168(2) 0.9280(2)
H1A H 0.6985 0.9316 0.9505
C2A C 0.6273(2) 0.86150(19) 0.95078(19)
C3A C 0.6484(2) 0.8253(2) 1.0120(2)
H2A H 0.6305 0.8482 1.0510
H3A H 0.6297 0.7803 1.0111
C4A C 0.7547(3) 0.7859(3) 0.9644(2)
H4A H 0.7390 0.8036 0.9219
H5A H 0.8024 0.7953 0.9676
C5A C 0.7533(3) 0.8358(2) 1.0728(3)
C6A C 0.7171(7) 0.8627(4) 1.1316(6)
C7A C 0.7070(4) 0.9268(4) 1.1372(4)
H6A H 0.7210 0.9552 1.1029
C8A C 0.6748(11) 0.9547(6) 1.1954(6)
C9A C 0.6638(5) 1.0227(5) 1.2027(5)
H7A H 0.6794 1.0524 1.1702
C10A C 0.6323(8) 1.0451(6) 1.2539(7)
H8A H 0.6264 1.0912 1.2580
C11A C 0.6084(17) 1.0067(15) 1.3002(12)
H9A H 0.5831 1.0251 1.3350
C12A C 0.6195(10) 0.9413(8) 1.2985(6)
H10A H 0.6039 0.9138 1.3329
C13A C 0.6551(7) 0.9134(6) 1.2443(7)
C14A C 0.6662(5) 0.8460(4) 1.2384(5)
H11A H 0.6527 0.8170 1.2725
C15A C 0.6968(4) 0.8213(5) 1.1828(5)
H12A H 0.7043 0.7753 1.1793
N1E N 1.01824(19) 0.72042(19) 0.82076(19)
O1E O 1.0794(2) 0.8107(2) 0.82180(19)
C1E C 0.9280(2) 0.6604(2) 0.9168(2)
H1E H 0.9505 0.6985 0.9316
C2E C 0.95078(19) 0.6273(2) 0.86150(19)
C3E C 1.0120(2) 0.6484(2) 0.8253(2)
H2E H 1.0510 0.6305 0.8482
H3E H 1.0111 0.6297 0.7803
C4E C 0.9644(2) 0.7547(3) 0.7859(3)
H4E H 0.9219 0.7390 0.8036
H5E H 0.9676 0.8024 0.7953
C5E C 1.0728(3) 0.7533(3) 0.8358(2)
C6E C 1.1316(6) 0.7171(7) 0.8627(4)
C7E C 1.1372(4) 0.7070(4) 0.9268(4)
H6E H 1.1029 0.7210 0.9552
C8E C 1.1954(6) 0.6748(11) 0.9547(6)
C9E C 1.2027(5) 0.6638(5) 1.0227(5)
H7E H 1.1702 0.6794 1.0524
C10E C 1.2539(7) 0.6323(8) 1.0451(6)
H8E H 1.2580 0.6264 1.0912
C11E C 1.3002(12) 0.6084(17) 1.0067(15)
H9E H 1.3350 0.5831 1.0251
C12E C 1.2985(6) 0.6195(10) 0.9413(8)
H10E H 1.3329 0.6039 0.9138
C13E C 1.2443(7) 0.6551(7) 0.9134(6)
C14E C 1.2384(5) 0.6662(5) 0.8460(4)
H11E H 1.2725 0.6527 0.8170
C15E C 1.1828(5) 0.6968(4) 0.8213(5)
H12E H 1.1793 0.7043 0.7753
N1K N 0.82076(19) 0.48176(19) 0.77958(19)
O1K O 0.82180(19) 0.4206(2) 0.6893(2)
C1K C 0.9168(2) 0.5720(2) 0.8396(2)
H1K H 0.9316 0.5495 0.8015
C2K C 0.86150(19) 0.54922(19) 0.8727(2)
C3K C 0.8253(2) 0.4880(2) 0.8516(2)
H2K H 0.8482 0.4490 0.8695
H3K H 0.7803 0.4889 0.8703
C4K C 0.7859(3) 0.5356(2) 0.7453(3)
H4K H 0.8036 0.5781 0.7610
H5K H 0.7953 0.5324 0.6976
C5K C 0.8358(2) 0.4272(3) 0.7467(3)
C6K C 0.8627(4) 0.3684(6) 0.7829(7)
C7K C 0.9268(4) 0.3628(4) 0.7930(4)
H6K H 0.9552 0.3971 0.7790
C8K C 0.9547(6) 0.3046(6) 0.8252(11)
C9K C 1.0227(5) 0.2973(5) 0.8362(5)
H7K H 1.0524 0.3298 0.8206
C10K C 1.0451(6) 0.2461(7) 0.8677(8)
H8K H 1.0912 0.2420 0.8736
C11K C 1.0067(15) 0.1998(12) 0.8916(17)
H9K H 1.0251 0.1650 0.9169
C12K C 0.9413(8) 0.2015(6) 0.8805(10)
H10K H 0.9138 0.1671 0.8961
C13K C 0.9134(6) 0.2557(7) 0.8449(7)
C14K C 0.8460(4) 0.2616(5) 0.8338(5)
H11K H 0.8170 0.2275 0.8473
C15K C 0.8213(5) 0.3172(5) 0.8032(4)
H12K H 0.7753 0.3207 0.7957
N1D N 1.01824(19) 0.77958(19) 0.67924(19)
O1D O 1.0794(2) 0.6893(2) 0.67820(19)
C1D C 0.9280(2) 0.8396(2) 0.5832(2)
H1D H 0.9505 0.8015 0.5684
C2D C 0.95078(19) 0.8727(2) 0.63850(19)
C3D C 1.0120(2) 0.8516(2) 0.6747(2)
H2D H 1.0510 0.8695 0.6518
H3D H 1.0111 0.8703 0.7197
C4D C 0.9644(2) 0.7453(3) 0.7141(3)
H4D H 0.9219 0.7610 0.6964
H5D H 0.9676 0.6976 0.7047
C5D C 1.0728(3) 0.7467(3) 0.6642(2)
C6D C 1.1316(6) 0.7829(7) 0.6373(4)
C7D C 1.1372(4) 0.7930(4) 0.5732(4)
H6D H 1.1029 0.7790 0.5448
C8D C 1.1954(6) 0.8252(11) 0.5453(6)
C9D C 1.2027(5) 0.8362(5) 0.4773(5)
H7D H 1.1702 0.8206 0.4476
C10D C 1.2539(7) 0.8677(8) 0.4549(6)
H8D H 1.2580 0.8736 0.4088
C11D C 1.3002(12) 0.8916(17) 0.4933(15)
H9D H 1.3350 0.9169 0.4749
C12D C 1.2985(6) 0.8805(10) 0.5587(8)
H10D H 1.3329 0.8961 0.5862
C13D C 1.2443(7) 0.8449(7) 0.5866(6)
C14D C 1.2384(5) 0.8338(5) 0.6540(4)
H11D H 1.2725 0.8473 0.6830
C15D C 1.1828(5) 0.8032(4) 0.6787(5)
H12D H 1.1793 0.7957 0.7247
N1G N 0.48176(19) 0.77958(19) 0.82076(19)
O1G O 0.4206(2) 0.6893(2) 0.82180(19)
C1G C 0.5720(2) 0.8396(2) 0.9168(2)
H1G H 0.5495 0.8015 0.9316
C2G C 0.54922(19) 0.8727(2) 0.86150(19)
C3G C 0.4880(2) 0.8516(2) 0.8253(2)
H2G H 0.4490 0.8695 0.8482
H3G H 0.4889 0.8703 0.7803
C4G C 0.5356(2) 0.7453(3) 0.7859(3)
H4G H 0.5781 0.7610 0.8036
H5G H 0.5324 0.6976 0.7953
C5G C 0.4272(3) 0.7467(3) 0.8358(2)
C6G C 0.3684(6) 0.7829(7) 0.8627(4)
C7G C 0.3628(4) 0.7930(4) 0.9268(4)
H6G H 0.3971 0.7790 0.9552
C8G C 0.3046(6) 0.8252(11) 0.9547(6)
C9G C 0.2973(5) 0.8362(5) 1.0227(5)
H7G H 0.3298 0.8206 1.0524
C10G C 0.2461(7) 0.8677(8) 1.0451(6)
H8G H 0.2420 0.8736 1.0912
C11G C 0.1998(12) 0.8916(17) 1.0067(15)
H9G H 0.1650 0.9169 1.0251
C12G C 0.2015(6) 0.8805(10) 0.9413(8)
H10G H 0.1671 0.8961 0.9138
C13G C 0.2557(7) 0.8449(7) 0.9134(6)
C14G C 0.2616(5) 0.8338(5) 0.8460(4)
H11G H 0.2275 0.8473 0.8170
C15G C 0.3172(5) 0.8032(4) 0.8213(5)
H12G H 0.3207 0.7957 0.7753
N1H N 0.67924(19) 1.01824(19) 0.77958(19)
O1H O 0.67820(19) 1.0794(2) 0.6893(2)
C1H C 0.5832(2) 0.9280(2) 0.8396(2)
H1H H 0.5684 0.9505 0.8015
C2H C 0.63850(19) 0.95078(19) 0.8727(2)
C3H C 0.6747(2) 1.0120(2) 0.8516(2)
H2H H 0.6518 1.0510 0.8695
H3H H 0.7197 1.0111 0.8703
C4H C 0.7141(3) 0.9644(2) 0.7453(3)
H4H H 0.6964 0.9219 0.7610
H5H H 0.7047 0.9676 0.6976
C5H C 0.6642(2) 1.0728(3) 0.7467(3)
C6H C 0.6373(4) 1.1316(6) 0.7829(7)
C7H C 0.5732(4) 1.1372(4) 0.7930(4)
H6H H 0.5448 1.1029 0.7790
C8H C 0.5453(6) 1.1954(6) 0.8252(11)
C9H C 0.4773(5) 1.2027(5) 0.8362(5)
H7H H 0.4476 1.1702 0.8206
C10H C 0.4549(6) 1.2539(7) 0.8677(8)
H8H H 0.4088 1.2580 0.8736
C11H C 0.4933(15) 1.3002(12) 0.8916(17)
H9H H 0.4749 1.3350 0.9169
C12H C 0.5587(8) 1.2985(6) 0.8805(10)
H10H H 0.5862 1.3329 0.8961
C13H C 0.5866(6) 1.2443(7) 0.8449(7)
C14H C 0.6540(4) 1.2384(5) 0.8338(5)
H11H H 0.6830 1.2725 0.8473
C15H C 0.6787(5) 1.1828(5) 0.8032(4)
H12H H 0.7247 1.1793 0.7957
N1I N 0.82076(19) 1.01824(19) 0.72042(19)
O1I O 0.82180(19) 1.0794(2) 0.8107(2)
C1I C 0.9168(2) 0.9280(2) 0.6604(2)
H1I H 0.9316 0.9505 0.6985
C2I C 0.86150(19) 0.95078(19) 0.6273(2)
C3I C 0.8253(2) 1.0120(2) 0.6484(2)
H2I H 0.8482 1.0510 0.6305
H3I H 0.7803 1.0111 0.6297
C4I C 0.7859(3) 0.9644(2) 0.7547(3)
H4I H 0.8036 0.9219 0.7390
H5I H 0.7953 0.9676 0.8024
C5I C 0.8358(2) 1.0728(3) 0.7533(3)
C6I C 0.8627(4) 1.1316(6) 0.7171(7)
C7I C 0.9268(4) 1.1372(4) 0.7070(4)
H6I H 0.9552 1.1029 0.7210
C8I C 0.9547(6) 1.1954(6) 0.6748(11)
C9I C 1.0227(5) 1.2027(5) 0.6638(5)
H7I H 1.0524 1.1702 0.6794
C10I C 1.0451(6) 1.2539(7) 0.6323(8)
H8I H 1.0912 1.2580 0.6264
C11I C 1.0067(15) 1.3002(12) 0.6084(17)
H9I H 1.0251 1.3350 0.5831
C12I C 0.9413(8) 1.2985(6) 0.6195(10)
H10I H 0.9138 1.3329 0.6039
C13I C 0.9134(6) 1.2443(7) 0.6551(7)
C14I C 0.8460(4) 1.2384(5) 0.6662(5)
H11I H 0.8170 1.2725 0.6527
C15I C 0.8213(5) 1.1828(5) 0.6968(4)
H12I H 0.7753 1.1793 0.7043
N1J N 0.67924(19) 0.48176(19) 0.72042(19)
O1J O 0.67820(19) 0.4206(2) 0.8107(2)
C1J C 0.5832(2) 0.5720(2) 0.6604(2)
H1J H 0.5684 0.5495 0.6985
C2J C 0.63850(19) 0.54922(19) 0.6273(2)
C3J C 0.6747(2) 0.4880(2) 0.6484(2)
H2J H 0.6518 0.4490 0.6305
H3J H 0.7197 0.4889 0.6297
C4J C 0.7141(3) 0.5356(2) 0.7547(3)
H4J H 0.6964 0.5781 0.7390
H5J H 0.7047 0.5324 0.8024
C5J C 0.6642(2) 0.4272(3) 0.7533(3)
C6J C 0.6373(4) 0.3684(6) 0.7171(7)
C7J C 0.5732(4) 0.3628(4) 0.7070(4)
H6J H 0.5448 0.3971 0.7210
C8J C 0.5453(6) 0.3046(6) 0.6748(11)
C9J C 0.4773(5) 0.2973(5) 0.6638(5)
H7J H 0.4476 0.3298 0.6794
C10J C 0.4549(6) 0.2461(7) 0.6323(8)
H8J H 0.4088 0.2420 0.6264
C11J C 0.4933(15) 0.1998(12) 0.6084(17)
H9J H 0.4749 0.1650 0.5831
C12J C 0.5587(8) 0.2015(6) 0.6195(10)
H10J H 0.5862 0.1671 0.6039
C13J C 0.5866(6) 0.2557(7) 0.6551(7)
C14J C 0.6540(4) 0.2616(5) 0.6662(5)
H11J H 0.6830 0.2275 0.6527
C15J C 0.6787(5) 0.3172(5) 0.6968(4)
H12J H 0.7247 0.3207 0.7043
N1B N 0.72042(19) 0.67924(19) 0.48176(19)
O1B O 0.8107(2) 0.67820(19) 0.4206(2)
C1B C 0.6604(2) 0.5832(2) 0.5720(2)
H1B H 0.6985 0.5684 0.5495
C2B C 0.6273(2) 0.63850(19) 0.54922(19)
C3B C 0.6484(2) 0.6747(2) 0.4880(2)
H2B H 0.6305 0.6518 0.4490
H3B H 0.6297 0.7197 0.4889
C4B C 0.7547(3) 0.7141(3) 0.5356(2)
H4B H 0.7390 0.6964 0.5781
H5B H 0.8024 0.7047 0.5324
C5B C 0.7533(3) 0.6642(2) 0.4272(3)
C6B C 0.7171(7) 0.6373(4) 0.3684(6)
C7B C 0.7070(4) 0.5732(4) 0.3628(4)
H6B H 0.7210 0.5448 0.3971
C8B C 0.6748(11) 0.5453(6) 0.3046(6)
C9B C 0.6638(5) 0.4773(5) 0.2973(5)
H7B H 0.6794 0.4476 0.3298
C10B C 0.6323(8) 0.4549(6) 0.2461(7)
H8B H 0.6264 0.4088 0.2420
C11B C 0.6084(17) 0.4933(15) 0.1998(12)
H9B H 0.5831 0.4749 0.1650
C12B C 0.6195(10) 0.5587(8) 0.2015(6)
H10B H 0.6039 0.5862 0.1671
C13B C 0.6551(7) 0.5866(6) 0.2557(7)
C14B C 0.6662(5) 0.6540(4) 0.2616(5)
H11B H 0.6527 0.6830 0.2275
C15B C 0.6968(4) 0.6787(5) 0.3172(5)
H12B H 0.7043 0.7247 0.3207
N1C N 0.77958(19) 0.82076(19) 0.48176(19)
O1C O 0.6893(2) 0.82180(19) 0.4206(2)
C1C C 0.8396(2) 0.9168(2) 0.5720(2)
H1C H 0.8015 0.9316 0.5495
C2C C 0.8727(2) 0.86150(19) 0.54922(19)
C3C C 0.8516(2) 0.8253(2) 0.4880(2)
H2C H 0.8695 0.8482 0.4490
H3C H 0.8703 0.7803 0.4889
C4C C 0.7453(3) 0.7859(3) 0.5356(2)
H4C H 0.7610 0.8036 0.5781
H5C H 0.6976 0.7953 0.5324
C5C C 0.7467(3) 0.8358(2) 0.4272(3)
C6C C 0.7829(7) 0.8627(4) 0.3684(6)
C7C C 0.7930(4) 0.9268(4) 0.3628(4)
H6C H 0.7790 0.9552 0.3971
C8C C 0.8252(11) 0.9547(6) 0.3046(6)
C9C C 0.8362(5) 1.0227(5) 0.2973(5)
H7C H 0.8206 1.0524 0.3298
C10C C 0.8677(8) 1.0451(6) 0.2461(7)
H8C H 0.8736 1.0912 0.2420
C11C C 0.8916(17) 1.0067(15) 0.1998(12)
H9C H 0.9169 1.0251 0.1650
C12C C 0.8805(10) 0.9413(8) 0.2015(6)
H10C H 0.8961 0.9138 0.1671
C13C C 0.8449(7) 0.9134(6) 0.2557(7)
C14C C 0.8338(5) 0.8460(4) 0.2616(5)
H11C H 0.8473 0.8170 0.2275
C15C C 0.8032(4) 0.8213(5) 0.3172(5)
H12C H 0.7957 0.7753 0.3207
N1F N 0.48176(19) 0.72042(19) 0.67924(19)
O1F O 0.4206(2) 0.8107(2) 0.67820(19)
C1F C 0.5720(2) 0.6604(2) 0.5832(2)
H1F H 0.5495 0.6985 0.5684
C2F C 0.54922(19) 0.6273(2) 0.63850(19)
C3F C 0.4880(2) 0.6484(2) 0.6747(2)
H2F H 0.4490 0.6305 0.6518
H3F H 0.4889 0.6297 0.7197
C4F C 0.5356(2) 0.7547(3) 0.7141(3)
H4F H 0.5781 0.7390 0.6964
H5F H 0.5324 0.8024 0.7047
C5F C 0.4272(3) 0.7533(3) 0.6642(2)
C6F C 0.3684(6) 0.7171(7) 0.6373(4)
C7F C 0.3628(4) 0.7070(4) 0.5732(4)
H6F H 0.3971 0.7210 0.5448
C8F C 0.3046(6) 0.6748(11) 0.5453(6)
C9F C 0.2973(5) 0.6638(5) 0.4773(5)
H7F H 0.3298 0.6794 0.4476
C10F C 0.2461(7) 0.6323(8) 0.4549(6)
H8F H 0.2420 0.6264 0.4088
C11F C 0.1998(12) 0.6084(17) 0.4933(15)
H9F H 0.1650 0.5831 0.4749
C12F C 0.2015(6) 0.6195(10) 0.5587(8)
H10F H 0.1671 0.6039 0.5862
C13F C 0.2557(7) 0.6551(7) 0.5866(6)
C14F C 0.2616(5) 0.6662(5) 0.6540(4)
H11F H 0.2275 0.6527 0.6830
C15F C 0.3172(5) 0.6968(4) 0.6787(5)
H12F H 0.3207 0.7043 0.7247
C16? C 0.7806(14) 0.6130(8) 1.1124(9)
C17? C 0.8040(7) 0.6323(7) 1.1688(8)
H13? H 0.8044 0.6781 1.1785
C18? C 0.8301(15) 0.5860(9) 1.2181(10)
C19? C 0.8610(11) 0.6063(8) 1.2767(10)
H14? H 0.8716 0.6512 1.2838
C20? C 0.8747(13) 0.5620(13) 1.3211(11)
H15? H 0.8819 0.5762 1.3650
C21? C 0.879(3) 0.499(2) 1.3082(18)
H16? H 0.8950 0.4685 1.3402
C22? C 0.861(2) 0.4781(12) 1.2481(14)
H17? H 0.8633 0.4326 1.2380
C23? C 0.837(2) 0.5223(11) 1.1991(13)
C24? C 0.8116(12) 0.5014(6) 1.1390(7)
H18? H 0.8138 0.4563 1.1271
C25? C 0.7835(13) 0.5462(7) 1.0967(9)
H19? H 0.7658 0.5313 1.0561
C26? C 0.7500 0.7500 0.7500
H20? H 0.7215 0.7779 0.7779
H21? H 0.7215 0.7779 0.7779
H22? H 0.7221 0.7785 0.7779
H23? H 0.7221 0.7785 0.7779
H24? H 0.7221 0.7779 0.7785
H25? H 0.7221 0.7779 0.7785
Cl1? Cl 0.7004(3) 0.7004(3) 0.7996(3)
Cl2? Cl 0.79782(19) 0.70218(19) 0.79782(19)
C27? C 0.7500 0.7500 0.7500
H26? H 0.7785 0.7779 0.7779
H27? H 0.7779 0.7785 0.7779
H28? H 0.7779 0.7779 0.7785
H29? H 0.5826 0.5249 0.8903
H30? H 0.6617 0.5199 0.8876
Cl3? Cl 0.6283(5) 0.6283(5) 0.8717(5)
Cl4? Cl 0.6277(4) 0.5581(3) 0.9837(4)
C28? C 0.6242(8) 0.5467(7) 0.9032(5)
C29? C 0.6123(19) 0.4673(14) 0.933(4)
H31? H 0.6440 0.4551 0.9674
H32? H 0.6126 0.4339 0.8971
Cl5? Cl 0.5337(10) 0.4828(9) 0.9631(13)
Cl6? Cl 0.6242(8) 0.5467(7) 0.9032(5)
C30? C 1.0116(5) 0.4884(5) 1.0116(5)
H33? H 0.9993 0.4674 0.9694
H34? H 1.0394 0.4571 1.0363
Cl7? Cl 0.93994(14) 0.50457(15) 1.05692(16)
loop_
_geom_bond_atom_site_label_1
_geom_bond_atom_site_label_2
_geom_bond_site_symmetry_1
_geom_bond_site_symmetry_2
N1 C3 1_555 1_555
O1 C5 1_555 1_555
C1 H1 1_555 1_555
C2 C1 1_555 1_555
C3 C2 1_555 1_555
H2 C3 1_555 1_555
H3 C3 1_555 1_555
C4 N1 1_555 1_555
H4 C4 1_555 1_555
H5 C4 1_555 1_555
C5 N1 1_555 1_555
C6 C5 1_555 1_555
C7 C6 1_555 1_555
H6 C7 1_555 1_555
C8 C7 1_555 1_555
C9 C8 1_555 1_555
H7 C9 1_555 1_555
C10 C9 1_555 1_555
H8 C10 1_555 1_555
C11 C10 1_555 1_555
H9 C11 1_555 1_555
C12 C11 1_555 1_555
H10 C12 1_555 1_555
C13 C8 1_555 1_555
C14 C13 1_555 1_555
H11 C14 1_555 1_555
C15 C6 1_555 1_555
H12 C15 1_555 1_555
N1A C3A 1_555 1_555
O1A C5A 1_555 1_555
C1A H1A 1_555 1_555
C2A C1A 1_555 1_555
C3A C2A 1_555 1_555
H2A C3A 1_555 1_555
H3A C3A 1_555 1_555
C4A C4 1_555 1_555
H4A C4A 1_555 1_555
H5A C4A 1_555 1_555
C5A N1A 1_555 1_555
C6A C5A 1_555 1_555
C7A C6A 1_555 1_555
H6A C7A 1_555 1_555
C8A C7A 1_555 1_555
C9A C8A 1_555 1_555
H7A C9A 1_555 1_555
C10A C9A 1_555 1_555
H8A C10A 1_555 1_555
C11A C10A 1_555 1_555
H9A C11A 1_555 1_555
C12A C11A 1_555 1_555
H10A C12A 1_555 1_555
C13A C8A 1_555 1_555
C14A C13A 1_555 1_555
H11A C14A 1_555 1_555
C15A C6A 1_555 1_555
H12A C15A 1_555 1_555
N1E C3E 1_555 1_555
O1E C5E 1_555 1_555
C1E C2 1_555 1_555
H1E C1E 1_555 1_555
C2E C1E 1_555 1_555
C3E C2E 1_555 1_555
H2E C3E 1_555 1_555
H3E C3E 1_555 1_555
C4E N1E 1_555 1_555
H4E C4E 1_555 1_555
H5E C4E 1_555 1_555
C5E N1E 1_555 1_555
C6E C5E 1_555 1_555
C7E C6E 1_555 1_555
H6E C7E 1_555 1_555
C8E C7E 1_555 1_555
C9E C8E 1_555 1_555
H7E C9E 1_555 1_555
C10E C9E 1_555 1_555
H8E C10E 1_555 1_555
C11E C10E 1_555 1_555
H9E C11E 1_555 1_555
C12E C11E 1_555 1_555
H10E C12E 1_555 1_555
C13E C8E 1_555 1_555
C14E C13E 1_555 1_555
H11E C14E 1_555 1_555
C15E C6E 1_555 1_555
H12E C15E 1_555 1_555
N1K C3K 1_555 1_555
O1K C5K 1_555 1_555
C1K C2E 1_555 1_555
H1K C1K 1_555 1_555
C2K C1 1_555 1_555
C3K C2K 1_555 1_555
H2K C3K 1_555 1_555
H3K C3K 1_555 1_555
C4K N1K 1_555 1_555
H4K C4K 1_555 1_555
H5K C4K 1_555 1_555
C5K N1K 1_555 1_555
C6K C5K 1_555 1_555
C7K C6K 1_555 1_555
H6K C7K 1_555 1_555
C8K C7K 1_555 1_555
C9K C8K 1_555 1_555
H7K C9K 1_555 1_555
C10K C9K 1_555 1_555
H8K C10K 1_555 1_555
C11K C10K 1_555 1_555
H9K C11K 1_555 1_555
C12K C11K 1_555 1_555
H10K C12K 1_555 1_555
C13K C8K 1_555 1_555
C14K C13K 1_555 1_555
H11K C14K 1_555 1_555
C15K C6K 1_555 1_555
H12K C15K 1_555 1_555
N1D C3D 1_555 1_555
O1D C5D 1_555 1_555
C1D H1D 1_555 1_555
C2D C1D 1_555 1_555
C3D C2D 1_555 1_555
H2D C3D 1_555 1_555
H3D C3D 1_555 1_555
C4D C4E 1_555 1_555
H4D C4D 1_555 1_555
H5D C4D 1_555 1_555
C5D N1D 1_555 1_555
C6D C5D 1_555 1_555
C7D C6D 1_555 1_555
H6D C7D 1_555 1_555
C8D C7D 1_555 1_555
C9D C8D 1_555 1_555
H7D C9D 1_555 1_555
C10D C9D 1_555 1_555
H8D C10D 1_555 1_555
C11D C10D 1_555 1_555
H9D C11D 1_555 1_555
C12D C11D 1_555 1_555
H10D C12D 1_555 1_555
C13D C8D 1_555 1_555
C14D C13D 1_555 1_555
H11D C14D 1_555 1_555
C15D C6D 1_555 1_555
H12D C15D 1_555 1_555
N1G C3G 1_555 1_555
O1G C5G 1_555 1_555
C1G C2A 1_555 1_555
H1G C1G 1_555 1_555
C2G C1G 1_555 1_555
C3G C2G 1_555 1_555
H2G C3G 1_555 1_555
H3G C3G 1_555 1_555
C4G N1G 1_555 1_555
H4G C4G 1_555 1_555
H5G C4G 1_555 1_555
C5G N1G 1_555 1_555
C6G C5G 1_555 1_555
C7G C6G 1_555 1_555
H6G C7G 1_555 1_555
C8G C7G 1_555 1_555
C9G C8G 1_555 1_555
H7G C9G 1_555 1_555
C10G C9G 1_555 1_555
H8G C10G 1_555 1_555
C11G C10G 1_555 1_555
H9G C11G 1_555 1_555
C12G C11G 1_555 1_555
H10G C12G 1_555 1_555
C13G C8G 1_555 1_555
C14G C13G 1_555 1_555
H11G C14G 1_555 1_555
C15G C6G 1_555 1_555
H12G C15G 1_555 1_555
N1H C3H 1_555 1_555
O1H C5H 1_555 1_555
C1H C2G 1_555 1_555
H1H C1H 1_555 1_555
C2H C1A 1_555 1_555
C3H C2H 1_555 1_555
H2H C3H 1_555 1_555
H3H C3H 1_555 1_555
C4H N1H 1_555 1_555
H4H C4H 1_555 1_555
H5H C4H 1_555 1_555
C5H N1H 1_555 1_555
C6H C5H 1_555 1_555
C7H C6H 1_555 1_555
H6H C7H 1_555 1_555
C8H C7H 1_555 1_555
C9H C8H 1_555 1_555
H7H C9H 1_555 1_555
C10H C9H 1_555 1_555
H8H C10H 1_555 1_555
C11H C10H 1_555 1_555
H9H C11H 1_555 1_555
C12H C11H 1_555 1_555
H10H C12H 1_555 1_555
C13H C8H 1_555 1_555
C14H C13H 1_555 1_555
H11H C14H 1_555 1_555
C15H C6H 1_555 1_555
H12H C15H 1_555 1_555
N1I C3I 1_555 1_555
O1I C5I 1_555 1_555
C1I C2D 1_555 1_555
H1I C1I 1_555 1_555
C2I C1I 1_555 1_555
C3I C2I 1_555 1_555
H2I C3I 1_555 1_555
H3I C3I 1_555 1_555
C4I C4H 1_555 1_555
H4I C4I 1_555 1_555
H5I C4I 1_555 1_555
C5I N1I 1_555 1_555
C6I C5I 1_555 1_555
C7I C6I 1_555 1_555
H6I C7I 1_555 1_555
C8I C7I 1_555 1_555
C9I C8I 1_555 1_555
H7I C9I 1_555 1_555
C10I C9I 1_555 1_555
H8I C10I 1_555 1_555
C11I C10I 1_555 1_555
H9I C11I 1_555 1_555
C12I C11I 1_555 1_555
H10I C12I 1_555 1_555
C13I C8I 1_555 1_555
C14I C13I 1_555 1_555
H11I C14I 1_555 1_555
C15I C6I 1_555 1_555
H12I C15I 1_555 1_555
N1J C3J 1_555 1_555
O1J C5J 1_555 1_555
C1J H1J 1_555 1_555
C2J C1J 1_555 1_555
C3J C2J 1_555 1_555
H2J C3J 1_555 1_555
H3J C3J 1_555 1_555
C4J C4K 1_555 1_555
H4J C4J 1_555 1_555
H5J C4J 1_555 1_555
C5J N1J 1_555 1_555
C6J C5J 1_555 1_555
C7J C6J 1_555 1_555
H6J C7J 1_555 1_555
C8J C7J 1_555 1_555
C9J C8J 1_555 1_555
H7J C9J 1_555 1_555
C10J C9J 1_555 1_555
H8J C10J 1_555 1_555
C11J C10J 1_555 1_555
H9J C11J 1_555 1_555
C12J C11J 1_555 1_555
H10J C12J 1_555 1_555
C13J C8J 1_555 1_555
C14J C13J 1_555 1_555
H11J C14J 1_555 1_555
C15J C6J 1_555 1_555
H12J C15J 1_555 1_555
N1B C3B 1_555 1_555
O1B C5B 1_555 1_555
C1B C2J 1_555 1_555
H1B C1B 1_555 1_555
C2B C1B 1_555 1_555
C3B C2B 1_555 1_555
H2B C3B 1_555 1_555
H3B C3B 1_555 1_555
C4B N1B 1_555 1_555
H4B C4B 1_555 1_555
H5B C4B 1_555 1_555
C5B N1B 1_555 1_555
C6B C5B 1_555 1_555
C7B C6B 1_555 1_555
H6B C7B 1_555 1_555
C8B C7B 1_555 1_555
C9B C8B 1_555 1_555
H7B C9B 1_555 1_555
C10B C9B 1_555 1_555
H8B C10B 1_555 1_555
C11B C10B 1_555 1_555
H9B C11B 1_555 1_555
C12B C11B 1_555 1_555
H10B C12B 1_555 1_555
C13B C8B 1_555 1_555
C14B C13B 1_555 1_555
H11B C14B 1_555 1_555
C15B C6B 1_555 1_555
H12B C15B 1_555 1_555
N1C C3C 1_555 1_555
O1C C5C 1_555 1_555
C1C C2I 1_555 1_555
H1C C1C 1_555 1_555
C2C C1D 1_555 1_555
C3C C2C 1_555 1_555
H2C C3C 1_555 1_555
H3C C3C 1_555 1_555
C4C C4B 1_555 1_555
H4C C4C 1_555 1_555
H5C C4C 1_555 1_555
C5C N1C 1_555 1_555
C6C C5C 1_555 1_555
C7C C6C 1_555 1_555
H6C C7C 1_555 1_555
C8C C7C 1_555 1_555
C9C C8C 1_555 1_555
H7C C9C 1_555 1_555
C10C C9C 1_555 1_555
H8C C10C 1_555 1_555
C11C C10C 1_555 1_555
H9C C11C 1_555 1_555
C12C C11C 1_555 1_555
H10C C12C 1_555 1_555
C13C C8C 1_555 1_555
C14C C13C 1_555 1_555
H11C C14C 1_555 1_555
C15C C6C 1_555 1_555
H12C C15C 1_555 1_555
N1F C3F 1_555 1_555
O1F C5F 1_555 1_555
C1F C2B 1_555 1_555
H1F C1F 1_555 1_555
C2F C1J 1_555 1_555
C3F C2F 1_555 1_555
H2F C3F 1_555 1_555
H3F C3F 1_555 1_555
C4F C4G 1_555 1_555
H4F C4F 1_555 1_555
H5F C4F 1_555 1_555
C5F N1F 1_555 1_555
C6F C5F 1_555 1_555
C7F C6F 1_555 1_555
H6F C7F 1_555 1_555
C8F C7F 1_555 1_555
C9F C8F 1_555 1_555
H7F C9F 1_555 1_555
C10F C9F 1_555 1_555
H8F C10F 1_555 1_555
C11F C10F 1_555 1_555
H9F C11F 1_555 1_555
C12F C11F 1_555 1_555
H10F C12F 1_555 1_555
C13F C8F 1_555 1_555
C14F C13F 1_555 1_555
H11F C14F 1_555 1_555
C15F C6F 1_555 1_555
H12F C15F 1_555 1_555
C12 C13 1_555 1_555
C14 C15 1_555 1_555
N1A C4A 1_555 1_555
C12A C13A 1_555 1_555
C14A C15A 1_555 1_555
C12E C13E 1_555 1_555
C14E C15E 1_555 1_555
C1K C2K 1_555 1_555
C12K C13K 1_555 1_555
C14K C15K 1_555 1_555
N1D C4D 1_555 1_555
C12D C13D 1_555 1_555
C14D C15D 1_555 1_555
C12G C13G 1_555 1_555
C14G C15G 1_555 1_555
C1H C2H 1_555 1_555
C12H C13H 1_555 1_555
C14H C15H 1_555 1_555
N1I C4I 1_555 1_555
C12I C13I 1_555 1_555
C14I C15I 1_555 1_555
N1J C4J 1_555 1_555
C12J C13J 1_555 1_555
C14J C15J 1_555 1_555
C12B C13B 1_555 1_555
C14B C15B 1_555 1_555
N1C C4C 1_555 1_555
C1C C2C 1_555 1_555
C12C C13C 1_555 1_555
C14C C15C 1_555 1_555
N1F C4F 1_555 1_555
C1F C2F 1_555 1_555
C12F C13F 1_555 1_555
C14F C15F 1_555 1_555

#END
