
#######################################################################
#
#                 Cambridge Crystallographic Data Centre
#                                CCDC 
#
#######################################################################
#
# If this CIF has been generated from an entry in the Cambridge 
# Structural Database, then it will include bibliographic, chemical, 
# crystal, experimental, refinement or atomic coordinate data resulting 
# from the CCDC's data processing and validation procedures.
#
#######################################################################

data_FIFZID
_chemical_formula_moiety         'C7 H11 N5 O2 S1'
_chemical_name_systematic        
trans-6,7-Dihydroxy-5-methyl-3-methylthio-6,7,8-trihydropyrazino(2,3-e)-as-triazine
_symmetry_cell_setting           triclinic
_symmetry_space_group_name_H-M   'P -1'
_symmetry_Int_Tables_number      2
_space_group_name_Hall           '-P 1'
loop_
_symmetry_equiv_pos_site_id
_symmetry_equiv_pos_as_xyz
1 x,y,z
2 -x,-y,-z
_cell_length_a                   7.925(2)
_cell_length_b                   13.590(5)
_cell_length_c                   4.784(2)
_cell_angle_alpha                97.33(3)
_cell_angle_beta                 106.22(2)
_cell_angle_gamma                90.20(2)
_cell_volume                     490.274
_exptl_crystal_colour            colorless
_cell_formula_units_Z            2
loop_
_atom_site_label
_atom_site_type_symbol
_atom_site_fract_x
_atom_site_fract_y
_atom_site_fract_z
S1 S 0.8426(1) 0.40950(8) 0.2174(3)
O1 O 0.0353(3) 0.2038(2) -0.2721(5)
O2 O 0.2825(3) 0.0080(2) -0.5088(5)
N1 N 0.6095(4) 0.1609(2) 0.2409(6)
N2 N 0.7293(4) 0.2392(2) 0.2940(6)
N3 N 0.5509(3) 0.3089(2) -0.1149(6)
N4 N 0.2955(4) 0.2262(2) -0.4037(6)
N5 N 0.3387(4) 0.0875(2) -0.0195(6)
C1 C 0.6918(4) 0.3077(2) 0.1186(7)
C2 C 0.2637(5) 0.3060(3) -0.5848(8)
C3 C 0.1481(4) 0.1591(3) -0.4240(7)
C4 C 0.2131(4) 0.0644(2) -0.3017(7)
C5 C 0.4662(4) 0.1580(2) 0.0228(7)
C6 C 0.4387(4) 0.2327(2) -0.1714(7)
C7 C 0.7510(5) 0.4886(3) -0.0458(9)
H1 H -0.0624(4) 0.218(2) -0.389(6)
H2 H 0.324(5) -0.051(3) -0.425(8)
H3 H 0.174(4) 0.281(2) -0.775(7)
H4 H 0.211(4) 0.360(2) -0.508(6)
H5 H 0.371(4) 0.324(2) -0.612(7)
H6 H 0.089(3) 0.142(2) -0.623(5)
H7 H 0.114(3) 0.027(2) -0.268(6)
H8 H 0.342(3) 0.049(2) 0.113(6)
H9 H 0.835(4) 0.545(2) -0.009(7)
H10 H 0.757(5) 0.459(3) -0.237(9)
H11 H 0.648(4) 0.511(3) -0.020(7)
loop_
_geom_bond_atom_site_label_1
_geom_bond_atom_site_label_2
_geom_bond_site_symmetry_1
_geom_bond_site_symmetry_2
S1 C1 1_555 1_555
O1 C3 1_555 1_555
O2 C4 1_555 1_555
N1 N2 1_555 1_555
N2 C1 1_555 1_555
N3 C1 1_555 1_555
N4 C2 1_555 1_555
N5 C4 1_555 1_555
C2 H3 1_555 1_555
C3 N4 1_555 1_555
C4 C3 1_555 1_555
C5 N1 1_555 1_555
C6 N3 1_555 1_555
C7 S1 1_555 1_555
H1 O1 1_555 1_555
H2 O2 1_555 1_555
H4 C2 1_555 1_555
H5 C2 1_555 1_555
H6 C3 1_555 1_555
H7 C4 1_555 1_555
H8 N5 1_555 1_555
H9 C7 1_555 1_555
H10 C7 1_555 1_555
H11 C7 1_555 1_555
N4 C6 1_555 1_555
N5 C5 1_555 1_555
C5 C6 1_555 1_555

#END
