
#######################################################################
#
#                 Cambridge Crystallographic Data Centre
#                                CCDC 
#
#######################################################################
#
# If this CIF has been generated from an entry in the Cambridge 
# Structural Database, then it will include bibliographic, chemical, 
# crystal, experimental, refinement or atomic coordinate data resulting 
# from the CCDC's data processing and validation procedures.
#
#######################################################################

data_FIGDOR
_chemical_formula_moiety         'C16 H17 N4 O3'
_chemical_name_systematic        
"8-oxy-7,7,9,9-tetramethyl-7,8,9,11-tetrahydropyrimido[4',5':5,6][1,4]oxazino[2,3-f]isoindol-2(3H)-one radical"
_symmetry_cell_setting           monoclinic
_symmetry_space_group_name_H-M   'P 21/n'
_symmetry_Int_Tables_number      14
_space_group_name_Hall           '-P 2yn'
loop_
_symmetry_equiv_pos_site_id
_symmetry_equiv_pos_as_xyz
1 x,y,z
2 1/2-x,1/2+y,1/2-z
3 -x,-y,-z
4 1/2+x,1/2-y,1/2+z
_cell_length_a                   5.731(2)
_cell_length_b                   9.162(4)
_cell_length_c                   31.739(12)
_cell_angle_alpha                90
_cell_angle_beta                 91.230(12)
_cell_angle_gamma                90
_cell_volume                     1666.15
_exptl_crystal_colour            yellow
_cell_formula_units_Z            4
loop_
_atom_site_label
_atom_site_type_symbol
_atom_site_fract_x
_atom_site_fract_y
_atom_site_fract_z
O1 O -0.9162(6) -0.4009(3) 0.26927(9)
C1 C -0.7338(9) -0.4017(5) 0.24815(14)
N1 N -0.6463(7) -0.5281(4) 0.23177(11)
C2 C -0.4517(9) -0.5278(5) 0.20696(14)
H1 H -0.3951 -0.6169 0.1958
C3 C -0.3428(8) -0.4032(5) 0.19854(13)
O2 O -0.1448(6) -0.3993(3) 0.17413(9)
C4 C -0.0791(8) -0.2633(5) 0.15902(13)
C5 C 0.0664(8) -0.2582(5) 0.12426(14)
H2 H 0.1209 -0.3454 0.1116
C6 C 0.1301(8) -0.1208(5) 0.10850(14)
C7 C 0.2708(8) -0.0918(5) 0.06964(15)
O3 O 0.3551(6) 0.1460(4) 0.04000(11)
N2 N 0.2562(7) 0.0702(5) 0.06883(12)
C8 C 0.1315(8) 0.1392(5) 0.10423(14)
C9 C 0.0541(8) 0.0069(5) 0.12767(13)
C10 C -0.0910(8) -0.0005(5) 0.16193(14)
H3 H -0.1427 0.0868 0.1749
C11 C -0.1608(8) -0.1337(5) 0.17728(13)
N3 N -0.3262(7) -0.1415(4) 0.20976(11)
C12 C -0.4294(8) -0.2731(5) 0.21686(13)
N4 N -0.6177(7) -0.2732(4) 0.24145(11)
C13 C 0.1605(9) -0.1520(6) 0.02924(14)
H4 H -0.0027 -0.1205 0.0270
H5 H 0.1673 -0.2589 0.0297
H6 H 0.2458 -0.1155 0.0050
C14 C 0.5216(9) -0.1386(6) 0.07349(16)
H7 H 0.5914 -0.0983 0.0994
H8 H 0.6071 -0.1025 0.0492
H9 H 0.5300 -0.2453 0.0743
C15 C -0.0717(10) 0.2347(6) 0.08716(16)
H10 H -0.1797 0.1742 0.0704
H11 H -0.0096 0.3127 0.0695
H12 H -0.1546 0.2777 0.1108
C16 C 0.3009(10) 0.2352(6) 0.13065(16)
H13 H 0.4302 0.1751 0.1415
H14 H 0.2176 0.2782 0.1543
H15 H 0.3625 0.3132 0.1129
loop_
_geom_bond_atom_site_label_1
_geom_bond_atom_site_label_2
_geom_bond_site_symmetry_1
_geom_bond_site_symmetry_2
O1 C1 1_555 1_555
C1 N1 1_555 1_555
N1 C2 1_555 1_555
C2 H1 1_555 1_555
C3 C2 1_555 1_555
O2 C3 1_555 1_555
C4 O2 1_555 1_555
C5 C4 1_555 1_555
H2 C5 1_555 1_555
C6 C5 1_555 1_555
C7 C6 1_555 1_555
O3 N2 1_555 1_555
N2 C7 1_555 1_555
C8 N2 1_555 1_555
C9 C6 1_555 1_555
C10 C9 1_555 1_555
H3 C10 1_555 1_555
C11 C4 1_555 1_555
N3 C11 1_555 1_555
C12 C3 1_555 1_555
N4 C1 1_555 1_555
C13 C7 1_555 1_555
H4 C13 1_555 1_555
H5 C13 1_555 1_555
H6 C13 1_555 1_555
C14 C7 1_555 1_555
H7 C14 1_555 1_555
H8 C14 1_555 1_555
H9 C14 1_555 1_555
C15 C8 1_555 1_555
H10 C15 1_555 1_555
H11 C15 1_555 1_555
H12 C15 1_555 1_555
C16 C8 1_555 1_555
H13 C16 1_555 1_555
H14 C16 1_555 1_555
H15 C16 1_555 1_555
C8 C9 1_555 1_555
C10 C11 1_555 1_555
N3 C12 1_555 1_555
C12 N4 1_555 1_555

#END
