
#######################################################################
#
#                 Cambridge Crystallographic Data Centre
#                                CCDC 
#
#######################################################################
#
# If this CIF has been generated from an entry in the Cambridge 
# Structural Database, then it will include bibliographic, chemical, 
# crystal, experimental, refinement or atomic coordinate data resulting 
# from the CCDC's data processing and validation procedures.
#
#######################################################################

data_FIGJOW
_chemical_formula_moiety         'C17 H12 B1 F2 N1 O1'
_chemical_name_systematic        
1,1-Difluoro-3-phenyl-1H-11\l^5^,1\l^5^-[1,3,2]oxazaborinino[3,4-a]quinoline
_symmetry_cell_setting           monoclinic
_symmetry_space_group_name_H-M   'P 21/n'
_symmetry_Int_Tables_number      14
_space_group_name_Hall           '-P 2yn'
loop_
_symmetry_equiv_pos_site_id
_symmetry_equiv_pos_as_xyz
1 x,y,z
2 1/2-x,1/2+y,1/2-z
3 -x,-y,-z
4 1/2+x,1/2-y,1/2+z
_cell_length_a                   7.7221(1)
_cell_length_b                   12.0575(4)
_cell_length_c                   14.4182(4)
_cell_angle_alpha                90
_cell_angle_beta                 95.069(2)
_cell_angle_gamma                90
_cell_volume                     1337.22
_exptl_crystal_colour            colorless
_exptl_crystal_description       prism
_cell_formula_units_Z            4
loop_
_atom_site_label
_atom_site_type_symbol
_atom_site_fract_x
_atom_site_fract_y
_atom_site_fract_z
B1 B 0.31385(16) 0.02190(10) 0.23874(8)
F1 F 0.24069(8) 0.00654(6) 0.14859(4)
F2 F 0.40619(9) -0.07152(5) 0.26908(5)
O1 O 0.17573(11) 0.04203(7) 0.29804(6)
N1 N 0.44622(11) 0.12309(7) 0.24106(6)
C1 C 0.16041(14) 0.13080(9) 0.35089(7)
C2 C 0.27987(15) 0.21292(9) 0.35269(8)
H1 H 0.2666 0.2746 0.3913
C3 C 0.42477(14) 0.20970(8) 0.29838(7)
C4 C 0.54781(15) 0.29776(10) 0.30541(8)
H2 H 0.5298 0.3590 0.3437
C5 C 0.69002(15) 0.29418(10) 0.25760(8)
H3 H 0.7733 0.3511 0.2651
C6 C 0.71460(14) 0.20492(9) 0.19612(8)
C7 C 0.85905(15) 0.20025(11) 0.14279(9)
H4 H 0.9445 0.2559 0.1497
C8 C 0.87588(15) 0.11578(12) 0.08131(9)
H5 H 0.9721 0.1135 0.0457
C9 C 0.74931(16) 0.03268(11) 0.07156(8)
H6 H 0.7605 -0.0247 0.0284
C10 C 0.60866(15) 0.03321(10) 0.12386(8)
H7 H 0.5261 -0.0242 0.1171
C11 C 0.58852(13) 0.11990(9) 0.18745(7)
C12 C 0.00568(14) 0.13044(9) 0.40413(7)
C13 C -0.11756(16) 0.04703(10) 0.38841(8)
H8 H -0.1013 -0.0085 0.3443
C14 C -0.26430(17) 0.04505(12) 0.43725(9)
H9 H -0.3477 -0.0112 0.4255
C15 C -0.28838(16) 0.12522(12) 0.50297(9)
H10 H -0.3872 0.1231 0.5366
C16 C -0.16723(17) 0.20854(12) 0.51935(9)
H11 H -0.1838 0.2633 0.5641
C17 C -0.02132(15) 0.21173(11) 0.47012(8)
H12 H 0.0602 0.2691 0.4813
loop_
_geom_bond_atom_site_label_1
_geom_bond_atom_site_label_2
_geom_bond_site_symmetry_1
_geom_bond_site_symmetry_2
B1 F1 1_555 1_555
F2 B1 1_555 1_555
O1 B1 1_555 1_555
N1 B1 1_555 1_555
C1 O1 1_555 1_555
C2 C1 1_555 1_555
H1 C2 1_555 1_555
C3 N1 1_555 1_555
C4 C3 1_555 1_555
H2 C4 1_555 1_555
C5 C4 1_555 1_555
H3 C5 1_555 1_555
C6 C5 1_555 1_555
C7 C6 1_555 1_555
H4 C7 1_555 1_555
C8 C7 1_555 1_555
H5 C8 1_555 1_555
C9 C8 1_555 1_555
H6 C9 1_555 1_555
C10 C9 1_555 1_555
H7 C10 1_555 1_555
C11 N1 1_555 1_555
C12 C1 1_555 1_555
C13 C12 1_555 1_555
H8 C13 1_555 1_555
C14 C13 1_555 1_555
H9 C14 1_555 1_555
C15 C14 1_555 1_555
H10 C15 1_555 1_555
C16 C15 1_555 1_555
H11 C16 1_555 1_555
C17 C12 1_555 1_555
H12 C17 1_555 1_555
C2 C3 1_555 1_555
C6 C11 1_555 1_555
C10 C11 1_555 1_555
C16 C17 1_555 1_555

#END
