
#######################################################################
#
#                 Cambridge Crystallographic Data Centre
#                                CCDC 
#
#######################################################################
#
# If this CIF has been generated from an entry in the Cambridge 
# Structural Database, then it will include bibliographic, chemical, 
# crystal, experimental, refinement or atomic coordinate data resulting 
# from the CCDC's data processing and validation procedures.
#
#######################################################################

data_FIGJIP
_chemical_formula_moiety         'C50 H48 B2 K2 N12 O2'
_chemical_name_systematic        
'bis((\m~2~-Hydrogen tris(7-azaindolyl)borate)-(tetrahydrofuran))-di-potassium'
_symmetry_cell_setting           triclinic
_symmetry_space_group_name_H-M   'P -1'
_symmetry_Int_Tables_number      2
_space_group_name_Hall           '-P 1'
loop_
_symmetry_equiv_pos_site_id
_symmetry_equiv_pos_as_xyz
1 x,y,z
2 -x,-y,-z
_cell_length_a                   10.240(6)
_cell_length_b                   10.399(6)
_cell_length_c                   12.075(7)
_cell_angle_alpha                109.010(14)
_cell_angle_beta                 97.068(11)
_cell_angle_gamma                96.520(14)
_cell_volume                     1190.17
_exptl_crystal_colour            colorless
_chemical_melting_point          136-138deg.C
_cell_formula_units_Z            1
_exptl_crystal_recrystallization_method hexanes/thf
_exptl_crystal_preparation       luminescent
loop_
_atom_site_label
_atom_site_type_symbol
_atom_site_fract_x
_atom_site_fract_y
_atom_site_fract_z
K1 K -0.18398(5) -0.09380(5) -0.06307(4)
B1 B -0.0977(2) 0.2250(2) 0.1744(2)
H1 H -0.0753(15) 0.1626(14) 0.0832(14)
O1 O -0.32643(19) -0.1620(2) -0.28140(15)
N1 N -0.21525(16) 0.30097(15) 0.15666(14)
N2 N -0.34936(18) 0.12419(17) -0.01376(16)
N3 N 0.02550(16) 0.33111(15) 0.24807(14)
N4 N -0.09688(18) -0.39821(18) -0.09105(15)
N5 N -0.13657(16) 0.12857(15) 0.24308(14)
N6 N 0.00789(17) 0.04764(16) -0.16473(14)
C1 C -0.2324(2) 0.4316(2) 0.22508(19)
H2 H -0.1705 0.4909 0.2895
C2 C -0.3507(2) 0.4618(2) 0.1861(2)
H3 H -0.3834 0.5434 0.2183
C3 C -0.4154(2) 0.3462(2) 0.0870(2)
C4 C -0.5346(2) 0.3109(3) 0.0070(2)
H4 H -0.5959 0.3712 0.0130
C5 C -0.5584(2) 0.1841(3) -0.0809(2)
H5 H -0.6371 0.1571 -0.1359
C6 C -0.4654(2) 0.0964(2) -0.0878(2)
H6 H -0.4852 0.0113 -0.1488
C7 C -0.3280(2) 0.2481(2) 0.07117(19)
C8 C 0.0632(2) 0.3830(2) 0.36989(19)
H7 H 0.0257 0.3460 0.4215
C9 C 0.1610(2) 0.4935(2) 0.4055(2)
H8 H 0.2014 0.5442 0.4833
C10 C 0.1902(2) 0.5176(2) 0.30219(19)
C11 C 0.2747(2) 0.6115(2) 0.2728(2)
H9 H 0.3344 0.6818 0.3316
C12 C 0.2680(2) 0.5982(3) 0.1563(2)
H10 H 0.3232 0.6603 0.1349
C13 C -0.1796(2) -0.4930(3) -0.0697(2)
H11 H -0.1776 -0.4877 0.0089
C14 C -0.1040(2) -0.4151(2) -0.20618(18)
C15 C -0.2109(2) 0.1549(2) 0.3327(2)
H12 H -0.2578 0.2284 0.3527
C16 C -0.2079(2) 0.0616(2) 0.3884(2)
H13 H -0.2509 0.0594 0.4514
C17 C -0.1263(2) -0.0324(2) 0.33187(19)
C18 C -0.0845(2) -0.1506(2) 0.3414(2)
H14 H -0.1079 -0.1852 0.3995
C19 C -0.0073(2) -0.2150(2) 0.2624(2)
H15 H 0.0218 -0.2952 0.2662
C20 C -0.0276(2) 0.1621(2) -0.1777(2)
H16 H -0.0798 0.2096 -0.1256
C21 C 0.0844(2) -0.01265(19) -0.24210(18)
C22 C -0.3059(3) -0.1034(3) -0.3690(3)
H17 H -0.2152 -0.1055 -0.3844
H18 H -0.3198 -0.0081 -0.3423
C23 C -0.4003(4) -0.1833(4) -0.4768(3)
H19 H -0.4675 -0.1296 -0.4919
H20 H -0.3545 -0.2090 -0.5445
C24 C -0.4596(3) -0.3008(3) -0.4587(3)
H21 H -0.4268 -0.3815 -0.5058
H22 H -0.5557 -0.3146 -0.4820
C25 C -0.4248(3) -0.2792(3) -0.3310(3)
H23 H -0.5027 -0.2657 -0.2930
H24 H -0.3914 -0.3588 -0.3203
K1A K 0.18398(5) 0.09380(5) 0.06307(4)
B1A B 0.0977(2) -0.2250(2) -0.1744(2)
H1A H 0.0753(15) -0.1626(14) -0.0832(14)
O1A O 0.32643(19) 0.1620(2) 0.28140(15)
N1A N 0.21525(16) -0.30097(15) -0.15666(14)
N2A N 0.34936(18) -0.12419(17) 0.01376(16)
N3A N -0.02550(16) -0.33111(15) -0.24807(14)
N4A N 0.09688(18) 0.39821(18) 0.09105(15)
N5A N 0.13657(16) -0.12857(15) -0.24308(14)
N6A N -0.00789(17) -0.04764(16) 0.16473(14)
C1A C 0.2324(2) -0.4316(2) -0.22508(19)
H2A H 0.1705 -0.4909 -0.2895
C2A C 0.3507(2) -0.4618(2) -0.1861(2)
H3A H 0.3834 -0.5434 -0.2183
C3A C 0.4154(2) -0.3462(2) -0.0870(2)
C4A C 0.5346(2) -0.3109(3) -0.0070(2)
H4A H 0.5959 -0.3712 -0.0130
C5A C 0.5584(2) -0.1841(3) 0.0809(2)
H5A H 0.6371 -0.1571 0.1359
C6A C 0.4654(2) -0.0964(2) 0.0878(2)
H6A H 0.4852 -0.0113 0.1488
C7A C 0.3280(2) -0.2481(2) -0.07117(19)
C8A C -0.0632(2) -0.3830(2) -0.36989(19)
H7A H -0.0257 -0.3460 -0.4215
C9A C -0.1610(2) -0.4935(2) -0.4055(2)
H8A H -0.2014 -0.5442 -0.4833
C10A C -0.1902(2) -0.5176(2) -0.30219(19)
C11A C -0.2747(2) -0.6115(2) -0.2728(2)
H9A H -0.3344 -0.6818 -0.3316
C12A C -0.2680(2) -0.5982(3) -0.1563(2)
H10A H -0.3232 -0.6603 -0.1349
C13A C 0.1796(2) 0.4930(3) 0.0697(2)
H11A H 0.1776 0.4877 -0.0089
C14A C 0.1040(2) 0.4151(2) 0.20618(18)
C15A C 0.2109(2) -0.1549(2) -0.3327(2)
H12A H 0.2578 -0.2284 -0.3527
C16A C 0.2079(2) -0.0616(2) -0.3884(2)
H13A H 0.2509 -0.0594 -0.4514
C17A C 0.1263(2) 0.0324(2) -0.33187(19)
C18A C 0.0845(2) 0.1506(2) -0.3414(2)
H14A H 0.1079 0.1852 -0.3995
C19A C 0.0073(2) 0.2150(2) -0.2624(2)
H15A H -0.0218 0.2952 -0.2662
C20A C 0.0276(2) -0.1621(2) 0.1777(2)
H16A H 0.0798 -0.2096 0.1256
C21A C -0.0844(2) 0.01265(19) 0.24210(18)
C22A C 0.3059(3) 0.1034(3) 0.3690(3)
H17A H 0.2152 0.1055 0.3844
H18A H 0.3198 0.0081 0.3423
C23A C 0.4003(4) 0.1833(4) 0.4768(3)
H19A H 0.4675 0.1296 0.4919
H20A H 0.3545 0.2090 0.5445
C24A C 0.4596(3) 0.3008(3) 0.4587(3)
H21A H 0.4268 0.3815 0.5058
H22A H 0.5557 0.3146 0.4820
C25A C 0.4248(3) 0.2792(3) 0.3310(3)
H23A H 0.5027 0.2657 0.2930
H24A H 0.3914 0.3588 0.3203
loop_
_geom_bond_atom_site_label_1
_geom_bond_atom_site_label_2
_geom_bond_site_symmetry_1
_geom_bond_site_symmetry_2
K1 O1 1_555 1_555
B1 H1 1_555 1_555
O1 C22 1_555 1_555
N1 B1 1_555 1_555
N2 K1 1_555 1_555
N3 B1 1_555 1_555
N4 K1 1_555 1_555
N5 B1 1_555 1_555
N6 K1 1_555 1_555
C1 N1 1_555 1_555
H2 C1 1_555 1_555
C2 C1 1_555 1_555
H3 C2 1_555 1_555
C3 C2 1_555 1_555
C4 C3 1_555 1_555
H4 C4 1_555 1_555
C5 C4 1_555 1_555
H5 C5 1_555 1_555
C6 N2 1_555 1_555
H6 C6 1_555 1_555
C7 N1 1_555 1_555
C8 N3 1_555 1_555
H7 C8 1_555 1_555
C9 C8 1_555 1_555
H8 C9 1_555 1_555
C10 C9 1_555 1_555
C11 C10 1_555 1_555
H9 C11 1_555 1_555
C12 C11 1_555 1_555
H10 C12 1_555 1_555
C13 N4 1_555 1_555
H11 C13 1_555 1_555
C14 N4 1_555 1_555
C15 N5 1_555 1_555
H12 C15 1_555 1_555
C16 C15 1_555 1_555
H13 C16 1_555 1_555
C17 C16 1_555 1_555
C18 C17 1_555 1_555
H14 C18 1_555 1_555
C19 C18 1_555 1_555
H15 C19 1_555 1_555
C20 N6 1_555 1_555
H16 C20 1_555 1_555
C21 N6 1_555 1_555
C22 H17 1_555 1_555
H18 C22 1_555 1_555
C23 C22 1_555 1_555
H19 C23 1_555 1_555
H20 C23 1_555 1_555
C24 C23 1_555 1_555
H21 C24 1_555 1_555
H22 C24 1_555 1_555
C25 O1 1_555 1_555
H23 C25 1_555 1_555
H24 C25 1_555 1_555
K1A N6 1_555 1_555
B1A H1A 1_555 1_555
O1A K1A 1_555 1_555
N1A B1A 1_555 1_555
N2A K1A 1_555 1_555
N3A C14 1_555 1_555
N4A K1A 1_555 1_555
N5A C21 1_555 1_555
N6A K1 1_555 1_555
C1A N1A 1_555 1_555
H2A C1A 1_555 1_555
C2A C1A 1_555 1_555
H3A C2A 1_555 1_555
C3A C2A 1_555 1_555
C4A C3A 1_555 1_555
H4A C4A 1_555 1_555
C5A C4A 1_555 1_555
H5A C5A 1_555 1_555
C6A N2A 1_555 1_555
H6A C6A 1_555 1_555
C7A N1A 1_555 1_555
C8A N3A 1_555 1_555
H7A C8A 1_555 1_555
C9A C8A 1_555 1_555
H8A C9A 1_555 1_555
C10A C14 1_555 1_555
C11A C10A 1_555 1_555
H9A C11A 1_555 1_555
C12A C13 1_555 1_555
H10A C12A 1_555 1_555
C13A C12 1_555 1_555
H11A C13A 1_555 1_555
C14A N3 1_555 1_555
C15A N5A 1_555 1_555
H12A C15A 1_555 1_555
C16A C15A 1_555 1_555
H13A C16A 1_555 1_555
C17A C21 1_555 1_555
C18A C17A 1_555 1_555
H14A C18A 1_555 1_555
C19A C20 1_555 1_555
H15A C19A 1_555 1_555
C20A C19 1_555 1_555
H16A C20A 1_555 1_555
C21A N5 1_555 1_555
C22A O1A 1_555 1_555
H17A C22A 1_555 1_555
H18A C22A 1_555 1_555
C23A C22A 1_555 1_555
H19A C23A 1_555 1_555
H20A C23A 1_555 1_555
C24A C23A 1_555 1_555
H21A C24A 1_555 1_555
H22A C24A 1_555 1_555
C25A O1A 1_555 1_555
H23A C25A 1_555 1_555
H24A C25A 1_555 1_555
N2 C7 1_555 1_555
C3 C7 1_555 1_555
C5 C6 1_555 1_555
C10 C14A 1_555 1_555
C17 C21A 1_555 1_555
C24 C25 1_555 1_555
K1A N6A 1_555 1_555
B1A N3A 1_555 1_555
B1A N5A 1_555 1_555
N2A C7A 1_555 1_555
N4A C13A 1_555 1_555
N4A C14A 1_555 1_555
N6A C20A 1_555 1_555
N6A C21A 1_555 1_555
C3A C7A 1_555 1_555
C5A C6A 1_555 1_555
C9A C10A 1_555 1_555
C11A C12A 1_555 1_555
C16A C17A 1_555 1_555
C18A C19A 1_555 1_555
C24A C25A 1_555 1_555

#END
