
#######################################################################
#
#                 Cambridge Crystallographic Data Centre
#                                CCDC 
#
#######################################################################
#
# If this CIF has been generated from an entry in the Cambridge 
# Structural Database, then it will include bibliographic, chemical, 
# crystal, experimental, refinement or atomic coordinate data resulting 
# from the CCDC's data processing and validation procedures.
#
#######################################################################

data_FIGPUJ
_chemical_formula_moiety         'C30 H24 B1 N1 S2,C6 H14'
_chemical_name_systematic        
'6-(1-benzothiophen-2-yl)-6-(2,4,6-trimethylphenyl)-6H-[2,1]benzazaborolo[3,2-b][1,3]benzothiazole hexane solvate'
_symmetry_cell_setting           tetragonal
_symmetry_space_group_name_H-M   'P 4/n'
_symmetry_Int_Tables_number      85
_space_group_name_Hall           '-P 4a'
loop_
_symmetry_equiv_pos_site_id
_symmetry_equiv_pos_as_xyz
1 x,y,z
2 1/2-y,x,z
3 y,1/2-x,z
4 1/2-x,1/2-y,z
5 -x,-y,-z
6 1/2+y,-x,-z
7 -y,1/2+x,-z
8 1/2+x,1/2+y,-z
_cell_length_a                   23.9636(7)
_cell_length_b                   23.9636(7)
_cell_length_c                   8.7514(2)
_cell_angle_alpha                90
_cell_angle_beta                 90
_cell_angle_gamma                90
_cell_volume                     5025.53
_exptl_crystal_colour            colorless
_exptl_crystal_description       Block
_cell_formula_units_Z            8
loop_
_atom_site_label
_atom_site_type_symbol
_atom_site_fract_x
_atom_site_fract_y
_atom_site_fract_z
B1 B 0.47079(16) 0.82617(15) 0.4594(4)
N1 N 0.45910(12) 0.89124(11) 0.4174(3)
S1 S 0.58935(4) 0.85624(4) 0.52709(10)
S2 S 0.40355(4) 0.98096(4) 0.46631(10)
C1 C 0.52294(13) 0.83072(13) 0.5786(4)
C2 C 0.51949(13) 0.81849(11) 0.7354(3)
H1 H 0.4871 0.8049 0.7857
C3 C 0.57384(13) 0.82985(12) 0.8110(3)
C4 C 0.58618(15) 0.82326(14) 0.9660(4)
H2 H 0.5587 0.8100 1.0352
C5 C 0.63918(17) 0.83638(15) 1.0163(4)
H3 H 0.6480 0.8323 1.1216
C6 C 0.67951(17) 0.85522(18) 0.9171(5)
H4 H 0.7157 0.8635 0.9550
C7 C 0.66830(15) 0.86235(16) 0.7633(4)
H5 H 0.6962 0.8755 0.6952
C8 C 0.61507(14) 0.84978(13) 0.7112(4)
C9 C 0.41378(14) 0.81792(14) 0.5585(4)
C10 C 0.38971(14) 0.77033(14) 0.6199(4)
H6 H 0.4064 0.7349 0.6031
C11 C 0.34109(16) 0.77449(17) 0.7064(4)
H7 H 0.3251 0.7418 0.7493
C12 C 0.31527(15) 0.82689(18) 0.7309(4)
H8 H 0.2822 0.8295 0.7902
C13 C 0.33887(16) 0.87428(16) 0.6672(4)
H9 H 0.3224 0.9099 0.6826
C14 C 0.38648(14) 0.86875(14) 0.5817(4)
C15 C 0.41597(13) 0.91122(13) 0.4944(4)
C16 C 0.46023(14) 0.98480(14) 0.3415(4)
C17 C 0.48178(18) 1.02942(14) 0.2597(4)
H10 H 0.4656 1.0655 0.2684
C18 C 0.52616(18) 1.02085(16) 0.1674(4)
H11 H 0.5413 1.0514 0.1120
C19 C 0.54988(16) 0.96893(16) 0.1519(4)
H12 H 0.5804 0.9643 0.0836
C20 C 0.53095(14) 0.92378(14) 0.2316(3)
H13 H 0.5480 0.8882 0.2206
C21 C 0.48579(14) 0.93150(13) 0.3297(3)
C22 C 0.47642(12) 0.78682(13) 0.3074(3)
C23 C 0.51371(13) 0.74074(12) 0.2984(3)
C24 C 0.51473(14) 0.70676(12) 0.1688(4)
H14 H 0.5404 0.6766 0.1655
C25 C 0.48012(14) 0.71521(13) 0.0458(3)
C26 C 0.44216(13) 0.75846(13) 0.0549(3)
H15 H 0.4169 0.7643 -0.0271
C27 C 0.44001(13) 0.79380(13) 0.1815(3)
C28 C 0.39477(16) 0.83813(15) 0.1773(4)
H16 H 0.4118 0.8748 0.1618
H17 H 0.3743 0.8380 0.2743
H18 H 0.3689 0.8302 0.0933
C29 C 0.55222(15) 0.72359(14) 0.4259(4)
H19 H 0.5653 0.6854 0.4082
H20 H 0.5322 0.7253 0.5234
H21 H 0.5843 0.7489 0.4293
C30 C 0.48270(18) 0.67843(17) -0.0954(4)
H22 H 0.5218 0.6719 -0.1232
H23 H 0.4635 0.6970 -0.1803
H24 H 0.4645 0.6427 -0.0740
loop_
_geom_bond_atom_site_label_1
_geom_bond_atom_site_label_2
_geom_bond_site_symmetry_1
_geom_bond_site_symmetry_2
B1 N1 1_555 1_555
N1 C15 1_555 1_555
S1 C1 1_555 1_555
S2 C15 1_555 1_555
C1 B1 1_555 1_555
C2 C1 1_555 1_555
H1 C2 1_555 1_555
C3 C2 1_555 1_555
C4 C3 1_555 1_555
H2 C4 1_555 1_555
C5 C4 1_555 1_555
H3 C5 1_555 1_555
C6 C5 1_555 1_555
H4 C6 1_555 1_555
C7 C6 1_555 1_555
H5 C7 1_555 1_555
C8 S1 1_555 1_555
C9 B1 1_555 1_555
C10 C9 1_555 1_555
H6 C10 1_555 1_555
C11 C10 1_555 1_555
H7 C11 1_555 1_555
C12 C11 1_555 1_555
H8 C12 1_555 1_555
C13 C12 1_555 1_555
H9 C13 1_555 1_555
C14 C9 1_555 1_555
C15 C14 1_555 1_555
C16 S2 1_555 1_555
C17 C16 1_555 1_555
H10 C17 1_555 1_555
C18 C17 1_555 1_555
H11 C18 1_555 1_555
C19 C18 1_555 1_555
H12 C19 1_555 1_555
C20 C19 1_555 1_555
H13 C20 1_555 1_555
C21 N1 1_555 1_555
C22 B1 1_555 1_555
C23 C22 1_555 1_555
C24 C23 1_555 1_555
H14 C24 1_555 1_555
C25 C24 1_555 1_555
C26 C25 1_555 1_555
H15 C26 1_555 1_555
C27 C22 1_555 1_555
C28 C27 1_555 1_555
H16 C28 1_555 1_555
H17 C28 1_555 1_555
H18 C28 1_555 1_555
C29 C23 1_555 1_555
H19 C29 1_555 1_555
H20 C29 1_555 1_555
H21 C29 1_555 1_555
C30 C25 1_555 1_555
H22 C30 1_555 1_555
H23 C30 1_555 1_555
H24 C30 1_555 1_555
C3 C8 1_555 1_555
C7 C8 1_555 1_555
C13 C14 1_555 1_555
C16 C21 1_555 1_555
C20 C21 1_555 1_555
C26 C27 1_555 1_555

#END
