
#######################################################################
#
#                 Cambridge Crystallographic Data Centre
#                                CCDC 
#
#######################################################################
#
# If this CIF has been generated from an entry in the Cambridge 
# Structural Database, then it will include bibliographic, chemical, 
# crystal, experimental, refinement or atomic coordinate data resulting 
# from the CCDC's data processing and validation procedures.
#
#######################################################################

data_FIGPOD
_chemical_formula_moiety         'C31 H27 B1 N2 S1'
_chemical_name_systematic        
6-(1-benzothiophen-2-yl)-5-methyl-6-(2,4,6-trimethylphenyl)-6H-benzimidazo[1,2-a][1,3]benzazaborole
_symmetry_cell_setting           monoclinic
_symmetry_space_group_name_H-M   'P 21/n'
_symmetry_Int_Tables_number      14
_space_group_name_Hall           '-P 2yn'
loop_
_symmetry_equiv_pos_site_id
_symmetry_equiv_pos_as_xyz
1 x,y,z
2 1/2-x,1/2+y,1/2-z
3 -x,-y,-z
4 1/2+x,1/2-y,1/2+z
_cell_length_a                   12.2018(8)
_cell_length_b                   14.4852(11)
_cell_length_c                   15.0257(11)
_cell_angle_alpha                90
_cell_angle_beta                 109.227(3)
_cell_angle_gamma                90
_cell_volume                     2507.59
_exptl_crystal_colour            colorless
_exptl_crystal_description       Block
_cell_formula_units_Z            4
loop_
_atom_site_label
_atom_site_type_symbol
_atom_site_fract_x
_atom_site_fract_y
_atom_site_fract_z
B1 B 0.3809(4) 0.5076(4) 0.7405(4)
N1 N 0.1710(3) 0.5170(3) 0.7198(3)
S1 S 0.42999(11) 0.45031(9) 0.57136(9)
C1 C 0.4011(4) 0.4243(3) 0.6746(3)
C2 C 0.3957(4) 0.3283(3) 0.6879(3)
H1 H 0.3833 0.3003 0.7409
N2 N 0.1933(3) 0.5897(3) 0.6008(3)
C3 C 0.4118(4) 0.2777(3) 0.6091(3)
C4 C 0.4085(5) 0.1825(4) 0.5951(4)
H2 H 0.3961 0.1423 0.6408
C5 C 0.4234(5) 0.1469(4) 0.5148(4)
H3 H 0.4214 0.0819 0.5056
C6 C 0.4415(5) 0.2050(4) 0.4467(4)
H4 H 0.4515 0.1794 0.3917
C7 C 0.4449(4) 0.2995(4) 0.4590(3)
H5 H 0.4562 0.3393 0.4125
C8 C 0.4315(4) 0.3354(3) 0.5404(3)
C9 C 0.2508(4) 0.5449(3) 0.6803(3)
C10 C 0.0751(4) 0.5938(3) 0.5904(3)
C11 C -0.0164(4) 0.6359(4) 0.5226(4)
H6 H -0.0058 0.6673 0.4705
C12 C -0.1239(5) 0.6301(4) 0.5340(4)
H7 H -0.1889 0.6582 0.4888
C13 C -0.1387(4) 0.5840(4) 0.6101(4)
H8 H -0.2140 0.5815 0.6156
C14 C -0.0478(4) 0.5418(4) 0.6779(4)
H9 H -0.0588 0.5102 0.7297
C15 C 0.0608(4) 0.5478(3) 0.6670(3)
C16 C 0.2235(4) 0.4709(3) 0.8081(3)
C17 C 0.1657(4) 0.4383(3) 0.8667(3)
H10 H 0.0839 0.4440 0.8506
C18 C 0.2326(5) 0.3969(4) 0.9501(3)
H11 H 0.1962 0.3726 0.9921
C19 C 0.3517(5) 0.3908(3) 0.9727(3)
H12 H 0.3966 0.3637 1.0309
C20 C 0.4065(4) 0.4236(3) 0.9117(3)
H13 H 0.4884 0.4180 0.9281
C21 C 0.3431(4) 0.4647(3) 0.8268(3)
C22 C 0.2448(4) 0.6340(4) 0.5371(3)
H14 H 0.3292 0.6374 0.5673
H15 H 0.2133 0.6965 0.5223
H16 H 0.2267 0.5980 0.4788
C23 C 0.4821(4) 0.5863(3) 0.7687(3)
C24 C 0.6006(4) 0.5620(3) 0.7874(3)
C25 C 0.6858(4) 0.6305(4) 0.8018(3)
H17 H 0.7635 0.6124 0.8109
C26 C 0.6610(4) 0.7231(4) 0.8034(3)
C27 C 0.5479(4) 0.7466(3) 0.7941(3)
H18 H 0.5294 0.8098 0.7984
C28 C 0.4597(4) 0.6805(3) 0.7787(3)
C29 C 0.3431(4) 0.7158(3) 0.7786(4)
H19 H 0.3536 0.7746 0.8127
H20 H 0.3080 0.6707 0.8097
H21 H 0.2923 0.7251 0.7135
C30 C 0.6441(5) 0.4639(4) 0.7976(4)
H22 H 0.7272 0.4630 0.8338
H23 H 0.6315 0.4373 0.7351
H24 H 0.6018 0.4274 0.8307
C31 C 0.7548(5) 0.7942(4) 0.8153(4)
H25 H 0.8199 0.7809 0.8727
H26 H 0.7239 0.8557 0.8201
H27 H 0.7819 0.7922 0.7607
loop_
_geom_bond_atom_site_label_1
_geom_bond_atom_site_label_2
_geom_bond_site_symmetry_1
_geom_bond_site_symmetry_2
B1 C1 1_555 1_555
N1 C9 1_555 1_555
S1 C1 1_555 1_555
C1 C2 1_555 1_555
C2 H1 1_555 1_555
N2 C9 1_555 1_555
C3 C2 1_555 1_555
C4 C3 1_555 1_555
H2 C4 1_555 1_555
C5 C4 1_555 1_555
H3 C5 1_555 1_555
C6 C5 1_555 1_555
H4 C6 1_555 1_555
C7 C6 1_555 1_555
H5 C7 1_555 1_555
C8 S1 1_555 1_555
C9 B1 1_555 1_555
C10 N2 1_555 1_555
C11 C10 1_555 1_555
H6 C11 1_555 1_555
C12 C11 1_555 1_555
H7 C12 1_555 1_555
C13 C12 1_555 1_555
H8 C13 1_555 1_555
C14 C13 1_555 1_555
H9 C14 1_555 1_555
C15 N1 1_555 1_555
C16 N1 1_555 1_555
C17 C16 1_555 1_555
H10 C17 1_555 1_555
C18 C17 1_555 1_555
H11 C18 1_555 1_555
C19 C18 1_555 1_555
H12 C19 1_555 1_555
C20 C19 1_555 1_555
H13 C20 1_555 1_555
C21 B1 1_555 1_555
C22 N2 1_555 1_555
H14 C22 1_555 1_555
H15 C22 1_555 1_555
H16 C22 1_555 1_555
C23 B1 1_555 1_555
C24 C23 1_555 1_555
C25 C24 1_555 1_555
H17 C25 1_555 1_555
C26 C25 1_555 1_555
C27 C26 1_555 1_555
H18 C27 1_555 1_555
C28 C23 1_555 1_555
C29 C28 1_555 1_555
H19 C29 1_555 1_555
H20 C29 1_555 1_555
H21 C29 1_555 1_555
C30 C24 1_555 1_555
H22 C30 1_555 1_555
H23 C30 1_555 1_555
H24 C30 1_555 1_555
C31 C26 1_555 1_555
H25 C31 1_555 1_555
H26 C31 1_555 1_555
H27 C31 1_555 1_555
C3 C8 1_555 1_555
C7 C8 1_555 1_555
C10 C15 1_555 1_555
C14 C15 1_555 1_555
C16 C21 1_555 1_555
C20 C21 1_555 1_555
C27 C28 1_555 1_555

#END
