
#######################################################################
#
#                 Cambridge Crystallographic Data Centre
#                                CCDC 
#
#######################################################################
#
# If this CIF has been generated from an entry in the Cambridge 
# Structural Database, then it will include bibliographic, chemical, 
# crystal, experimental, refinement or atomic coordinate data resulting 
# from the CCDC's data processing and validation procedures.
#
#######################################################################

data_FIGQIY
_chemical_formula_moiety         'C31 H27 B1 N2 S1,C1 H2 Cl2'
_chemical_name_systematic        
'16-methyl-6-(2,4,6-trimethylphenyl)-6H-benzimidazo[1,2-a][1,2]benzothiaborinino[3,2-c][1,4]benzazaborinine dichloromethane solvate'
_symmetry_cell_setting           monoclinic
_symmetry_space_group_name_H-M   'P 21/n'
_symmetry_Int_Tables_number      14
_space_group_name_Hall           '-P 2yn'
loop_
_symmetry_equiv_pos_site_id
_symmetry_equiv_pos_as_xyz
1 x,y,z
2 1/2-x,1/2+y,1/2-z
3 -x,-y,-z
4 1/2+x,1/2-y,1/2+z
_cell_length_a                   14.3331(6)
_cell_length_b                   10.0621(4)
_cell_length_c                   20.1276(8)
_cell_angle_alpha                90
_cell_angle_beta                 109.418(2)
_cell_angle_gamma                90
_cell_volume                     2737.71
_exptl_crystal_colour            yellow
_exptl_crystal_description       Block
_cell_formula_units_Z            4
loop_
_atom_site_label
_atom_site_type_symbol
_atom_site_fract_x
_atom_site_fract_y
_atom_site_fract_z
B1 B 0.4805(2) 0.1372(3) 0.28795(15)
N1 N 0.60547(16) 0.2931(2) 0.40173(11)
N2 N 0.53438(17) 0.4818(2) 0.35935(11)
S1 S 0.44752(6) 0.03936(7) 0.19916(4)
C1 C 0.51514(19) 0.2866(2) 0.27574(13)
C2 C 0.5274(2) 0.3403(3) 0.21830(14)
H1 H 0.5552 0.4269 0.2231
C3 C 0.5021(2) 0.2782(3) 0.14951(14)
C4 C 0.5166(2) 0.3501(3) 0.09432(15)
H2 H 0.5428 0.4375 0.1033
C5 C 0.4940(2) 0.2986(3) 0.02719(15)
H3 H 0.5045 0.3499 -0.0093
C6 C 0.4560(2) 0.1713(3) 0.01400(15)
H4 H 0.4398 0.1348 -0.0320
C7 C 0.4415(2) 0.0972(3) 0.06741(15)
H5 H 0.4147 0.0102 0.0574
C8 C 0.4653(2) 0.1468(3) 0.13579(14)
C9 C 0.55044(19) 0.3568(2) 0.34230(13)
C10 C 0.5807(2) 0.5000(3) 0.43152(14)
C11 C 0.5837(2) 0.6099(3) 0.47374(15)
H6 H 0.5526 0.6912 0.4546
C12 C 0.6340(2) 0.5955(3) 0.54465(15)
H7 H 0.6376 0.6686 0.5753
C13 C 0.6799(2) 0.4757(3) 0.57257(15)
H8 H 0.7143 0.4696 0.6218
C14 C 0.6767(2) 0.3662(3) 0.53069(14)
H9 H 0.7075 0.2848 0.5500
C15 C 0.62632(19) 0.3800(3) 0.45874(14)
C16 C 0.4759(2) 0.5832(3) 0.31232(15)
H10 H 0.5199 0.6512 0.3043
H11 H 0.4306 0.6242 0.3336
H12 H 0.4376 0.5424 0.2673
C17 C 0.5831(2) 0.0783(3) 0.34381(14)
C18 C 0.6236(2) -0.0470(3) 0.34017(16)
H13 H 0.5878 -0.1068 0.3042
C19 C 0.7141(2) -0.0870(3) 0.38727(16)
H14 H 0.7381 -0.1740 0.3840
C20 C 0.7692(2) -0.0012(3) 0.43872(16)
H15 H 0.8315 -0.0285 0.4706
C21 C 0.7337(2) 0.1253(3) 0.44389(14)
H16 H 0.7718 0.1864 0.4782
C22 C 0.6412(2) 0.1604(2) 0.39781(14)
C23 C 0.38317(19) 0.1379(2) 0.31415(13)
C24 C 0.3013(2) 0.2204(2) 0.27935(14)
C25 C 0.2209(2) 0.2319(3) 0.30325(14)
H17 H 0.1682 0.2898 0.2791
C26 C 0.2152(2) 0.1617(3) 0.36104(15)
C27 C 0.2924(2) 0.0752(3) 0.39323(14)
H18 H 0.2893 0.0234 0.4319
C28 C 0.3742(2) 0.0614(2) 0.37114(13)
C29 C 0.4471(2) -0.0460(3) 0.40748(15)
H19 H 0.4210 -0.0965 0.4391
H20 H 0.5103 -0.0053 0.4348
H21 H 0.4571 -0.1060 0.3721
C30 C 0.1289(3) 0.1790(4) 0.38738(19)
H22 H 0.1514 0.2233 0.4333
H23 H 0.1014 0.0917 0.3921
H24 H 0.0778 0.2332 0.3538
C31 C 0.2915(2) 0.2975(3) 0.21304(15)
H25 H 0.2214 0.3063 0.1849
H26 H 0.3262 0.2502 0.1856
H27 H 0.3206 0.3860 0.2256
C32 C 0.7254(3) 0.0567(5) 0.2236(2)
H28 H 0.7369 -0.0296 0.2487
H29 H 0.6585 0.0879 0.2202
Cl1 Cl 0.81383(10) 0.17266(11) 0.27264(6)
Cl2 Cl 0.73065(8) 0.03386(12) 0.13908(6)
loop_
_geom_bond_atom_site_label_1
_geom_bond_atom_site_label_2
_geom_bond_site_symmetry_1
_geom_bond_site_symmetry_2
B1 S1 1_555 1_555
N1 C9 1_555 1_555
N2 C9 1_555 1_555
S1 C8 1_555 1_555
C1 B1 1_555 1_555
C2 C1 1_555 1_555
H1 C2 1_555 1_555
C3 C2 1_555 1_555
C4 C3 1_555 1_555
H2 C4 1_555 1_555
C5 C4 1_555 1_555
H3 C5 1_555 1_555
C6 C5 1_555 1_555
H4 C6 1_555 1_555
C7 C6 1_555 1_555
H5 C7 1_555 1_555
C8 C3 1_555 1_555
C9 C1 1_555 1_555
C10 N2 1_555 1_555
C11 C10 1_555 1_555
H6 C11 1_555 1_555
C12 C11 1_555 1_555
H7 C12 1_555 1_555
C13 C12 1_555 1_555
H8 C13 1_555 1_555
C14 C13 1_555 1_555
H9 C14 1_555 1_555
C15 N1 1_555 1_555
C16 N2 1_555 1_555
H10 C16 1_555 1_555
H11 C16 1_555 1_555
H12 C16 1_555 1_555
C17 B1 1_555 1_555
C18 C17 1_555 1_555
H13 C18 1_555 1_555
C19 C18 1_555 1_555
H14 C19 1_555 1_555
C20 C19 1_555 1_555
H15 C20 1_555 1_555
C21 C20 1_555 1_555
H16 C21 1_555 1_555
C22 N1 1_555 1_555
C23 B1 1_555 1_555
C24 C23 1_555 1_555
C25 C24 1_555 1_555
H17 C25 1_555 1_555
C26 C25 1_555 1_555
C27 C26 1_555 1_555
H18 C27 1_555 1_555
C28 C23 1_555 1_555
C29 C28 1_555 1_555
H19 C29 1_555 1_555
H20 C29 1_555 1_555
H21 C29 1_555 1_555
C30 C26 1_555 1_555
H22 C30 1_555 1_555
H23 C30 1_555 1_555
H24 C30 1_555 1_555
C31 C24 1_555 1_555
H25 C31 1_555 1_555
H26 C31 1_555 1_555
H27 C31 1_555 1_555
C32 H28 1_555 1_555
H29 C32 1_555 1_555
Cl1 C32 1_555 1_555
Cl2 C32 1_555 1_555
C7 C8 1_555 1_555
C10 C15 1_555 1_555
C14 C15 1_555 1_555
C17 C22 1_555 1_555
C21 C22 1_555 1_555
C27 C28 1_555 1_555

#END
