
#######################################################################
#
#                 Cambridge Crystallographic Data Centre
#                                CCDC 
#
#######################################################################
#
# If this CIF has been generated from an entry in the Cambridge 
# Structural Database, then it will include bibliographic, chemical, 
# crystal, experimental, refinement or atomic coordinate data resulting 
# from the CCDC's data processing and validation procedures.
#
#######################################################################

data_FIGQAQ
_chemical_formula_moiety         'C28 H24 B1 N1 S1'
_chemical_name_systematic        
10-(2,4,6-trimethylphenyl)-10H-[1,2]benzothiaborinino[2,3-c]pyrido[2,1-a][2,3]benzazaborinine
_symmetry_cell_setting           monoclinic
_symmetry_space_group_name_H-M   'P 21/n'
_symmetry_Int_Tables_number      14
_space_group_name_Hall           '-P 2yn'
loop_
_symmetry_equiv_pos_site_id
_symmetry_equiv_pos_as_xyz
1 x,y,z
2 1/2-x,1/2+y,1/2-z
3 -x,-y,-z
4 1/2+x,1/2-y,1/2+z
_cell_length_a                   9.2686(3)
_cell_length_b                   19.7065(6)
_cell_length_c                   13.6153(5)
_cell_angle_alpha                90
_cell_angle_beta                 92.1350(10)
_cell_angle_gamma                90
_cell_volume                     2485.13
_exptl_crystal_colour            yellow
_exptl_crystal_description       Block
_cell_formula_units_Z            4
loop_
_atom_site_label
_atom_site_type_symbol
_atom_site_fract_x
_atom_site_fract_y
_atom_site_fract_z
B1 B 0.65732(17) 0.22180(8) 0.38345(12)
N1 N 0.81563(13) 0.21278(6) 0.44125(9)
S1 S 0.62513(4) 0.15067(2) 0.28880(3)
C1 C 0.55669(15) 0.21380(7) 0.47484(11)
C2 C 0.47284(16) 0.16058(7) 0.49599(12)
H1 H 0.4266 0.1617 0.5571
C3 C 0.44599(15) 0.10124(7) 0.43419(11)
C4 C 0.35316(16) 0.05072(8) 0.46724(13)
H2 H 0.3106 0.0563 0.5291
C5 C 0.32142(17) -0.00683(8) 0.41286(14)
H3 H 0.2578 -0.0402 0.4370
C6 C 0.38326(17) -0.01547(8) 0.32274(15)
H4 H 0.3618 -0.0548 0.2845
C7 C 0.47651(17) 0.03327(8) 0.28825(13)
H5 H 0.5190 0.0268 0.2265
C8 C 0.50912(15) 0.09178(7) 0.34276(11)
C9 C 0.58192(16) 0.26937(7) 0.54656(11)
C10 C 0.47228(18) 0.30301(8) 0.59371(12)
H6 H 0.3750 0.2890 0.5827
C11 C 0.5033(2) 0.35674(9) 0.65644(13)
H7 H 0.4271 0.3796 0.6876
C12 C 0.6444(2) 0.37736(9) 0.67408(13)
H8 H 0.6651 0.4143 0.7172
C13 C 0.75490(19) 0.34437(8) 0.62905(12)
H9 H 0.8519 0.3583 0.6418
C14 C 0.72539(16) 0.29044(8) 0.56468(11)
C15 C 0.84310(16) 0.25024(7) 0.52414(11)
C16 C 0.97846(17) 0.24589(8) 0.57184(12)
H10 H 0.9991 0.2726 0.6287
C17 C 1.08230(18) 0.20328(9) 0.53735(13)
H11 H 1.1746 0.2007 0.5699
C18 C 1.05152(18) 0.16407(9) 0.45488(13)
H12 H 1.1215 0.1339 0.4303
C19 C 0.91694(17) 0.16988(8) 0.40937(12)
H13 H 0.8946 0.1426 0.3533
C20 C 0.64687(15) 0.29398(7) 0.32410(10)
C21 C 0.50679(16) 0.32012(8) 0.29997(11)
C22 C 0.48969(17) 0.38148(8) 0.25040(12)
H14 H 0.3947 0.3976 0.2359
C23 C 0.60521(18) 0.41987(8) 0.22147(12)
C24 C 0.74137(16) 0.39400(7) 0.24192(11)
H15 H 0.8227 0.4190 0.2217
C25 C 0.76482(16) 0.33247(7) 0.29118(11)
C26 C 0.92191(16) 0.31148(9) 0.30331(13)
H16 H 0.9814 0.3416 0.2643
H17 H 0.9329 0.2646 0.2807
H18 H 0.9529 0.3147 0.3728
C27 C 0.36885(16) 0.28323(9) 0.32330(13)
H19 H 0.3474 0.2906 0.3924
H20 H 0.3808 0.2346 0.3113
H21 H 0.2891 0.3007 0.2813
C28 C 0.5837(2) 0.48627(8) 0.16814(15)
H22 H 0.6723 0.5133 0.1746
H23 H 0.5039 0.5112 0.1967
H24 H 0.5608 0.4775 0.0984
loop_
_geom_bond_atom_site_label_1
_geom_bond_atom_site_label_2
_geom_bond_site_symmetry_1
_geom_bond_site_symmetry_2
B1 N1 1_555 1_555
N1 C15 1_555 1_555
S1 B1 1_555 1_555
C1 B1 1_555 1_555
C2 C1 1_555 1_555
H1 C2 1_555 1_555
C3 C2 1_555 1_555
C4 C3 1_555 1_555
H2 C4 1_555 1_555
C5 C4 1_555 1_555
H3 C5 1_555 1_555
C6 C5 1_555 1_555
H4 C6 1_555 1_555
C7 C6 1_555 1_555
H5 C7 1_555 1_555
C8 S1 1_555 1_555
C9 C1 1_555 1_555
C10 C9 1_555 1_555
H6 C10 1_555 1_555
C11 C10 1_555 1_555
H7 C11 1_555 1_555
C12 C11 1_555 1_555
H8 C12 1_555 1_555
C13 C12 1_555 1_555
H9 C13 1_555 1_555
C14 C9 1_555 1_555
C15 C14 1_555 1_555
C16 C15 1_555 1_555
H10 C16 1_555 1_555
C17 C16 1_555 1_555
H11 C17 1_555 1_555
C18 C17 1_555 1_555
H12 C18 1_555 1_555
C19 N1 1_555 1_555
H13 C19 1_555 1_555
C20 B1 1_555 1_555
C21 C20 1_555 1_555
C22 C21 1_555 1_555
H14 C22 1_555 1_555
C23 C22 1_555 1_555
C24 C23 1_555 1_555
H15 C24 1_555 1_555
C25 C20 1_555 1_555
C26 C25 1_555 1_555
H16 C26 1_555 1_555
H17 C26 1_555 1_555
H18 C26 1_555 1_555
C27 C21 1_555 1_555
H19 C27 1_555 1_555
H20 C27 1_555 1_555
H21 C27 1_555 1_555
C28 C23 1_555 1_555
H22 C28 1_555 1_555
H23 C28 1_555 1_555
H24 C28 1_555 1_555
C3 C8 1_555 1_555
C7 C8 1_555 1_555
C13 C14 1_555 1_555
C18 C19 1_555 1_555
C24 C25 1_555 1_555

#END
