
#######################################################################
#
#                 Cambridge Crystallographic Data Centre
#                                CCDC 
#
#######################################################################
#
# If this CIF has been generated from an entry in the Cambridge 
# Structural Database, then it will include bibliographic, chemical, 
# crystal, experimental, refinement or atomic coordinate data resulting 
# from the CCDC's data processing and validation procedures.
#
#######################################################################

data_FIHDUX
_chemical_formula_moiety         'C31 H44 N2 O7'
_chemical_name_systematic        
't-Butyl 3-(((t-butoxycarbonyl)oxy)methyl)-22-oxo-23-oxa-4,18-diazapentacyclo[16.3.1.1^6,9^.0^1,5^.0^7,21^]tricosa-6,8,12-triene-4-carboxylate'
_symmetry_cell_setting           monoclinic
_symmetry_space_group_name_H-M   'P 21'
_symmetry_Int_Tables_number      4
_space_group_name_Hall           'P 2yb'
loop_
_symmetry_equiv_pos_site_id
_symmetry_equiv_pos_as_xyz
1 x,y,z
2 -x,1/2+y,-z
_cell_length_a                   10.342(3)
_cell_length_b                   9.907(3)
_cell_length_c                   14.462(5)
_cell_angle_alpha                90
_cell_angle_beta                 93.895(12)
_cell_angle_gamma                90
_cell_volume                     1478.33
_exptl_crystal_colour            colorless
_exptl_crystal_description       plate
_chemical_melting_point          '184-187 deg.C'
_cell_formula_units_Z            2
_exptl_crystal_recrystallization_method 'diethyl ether/hexane'
loop_
_atom_site_label
_atom_site_type_symbol
_atom_site_fract_x
_atom_site_fract_y
_atom_site_fract_z
O1 O 0.45272(12) 0.86734(13) 0.86443(8)
O2 O 0.44473(13) 0.61173(14) 0.56944(8)
O3 O 0.18828(13) 0.77716(14) 0.83897(9)
O4 O 0.10690(14) 0.57816(15) 0.88992(9)
O5 O 0.12299(14) 0.40693(14) 0.66955(9)
O6 O -0.02221(14) 0.23762(15) 0.66624(9)
O7 O -0.00906(14) 0.38940(15) 0.54899(9)
N1 N 0.64778(15) 0.65049(16) 0.63115(9)
N2 N 0.27472(15) 0.58516(16) 0.79530(10)
C1 C 0.6779(2) 0.7403(2) 0.55405(12)
H1 H 0.6087 0.7326 0.5036
H2 H 0.7605 0.7116 0.5293
C2 C 0.6893(2) 0.8881(2) 0.58602(12)
H3 H 0.7678 0.8983 0.6285
H4 H 0.6997 0.9465 0.5315
C3 C 0.5723(2) 0.9348(2) 0.63487(13)
H5 H 0.5628 0.8751 0.6889
H6 H 0.4944 0.9221 0.5921
C4 C 0.5740(2) 1.0823(2) 0.66907(13)
H7 H 0.5774 1.1433 0.6151
H8 H 0.4924 1.1010 0.6988
C5 C 0.6858(2) 1.1124(2) 0.73629(13)
H9 H 0.7685 1.1149 0.7115
C6 C 0.6840(2) 1.1362(2) 0.82696(13)
H10 H 0.7661 1.1551 0.8577
C7 C 0.5721(2) 1.1376(2) 0.88780(13)
H11 H 0.4903 1.1276 0.8487
H12 H 0.5696 1.2259 0.9197
C8 C 0.5813(2) 1.0236(2) 0.96105(12)
H13 H 0.6662 1.0293 0.9968
H14 H 0.5128 1.0369 1.0048
C9 C 0.56701(18) 0.8874(2) 0.91910(11)
C10 C 0.46439(18) 0.74096(19) 0.82831(11)
C11 C 0.38028(18) 0.66485(19) 0.75845(11)
H15 H 0.3487 0.7231 0.7051
C12 C 0.29435(19) 0.4399(2) 0.78828(12)
H16 H 0.3313 0.4057 0.8496
C13 C 0.3983(2) 0.4279(2) 0.71771(12)
H17 H 0.4527 0.3470 0.7306
H18 H 0.3577 0.4214 0.6539
C14 C 0.47927(18) 0.55587(19) 0.72928(11)
C15 C 0.52586(19) 0.6058(2) 0.63580(11)
C16 C 0.75026(18) 0.6364(2) 0.70498(12)
H19 H 0.7599 0.7224 0.7396
H20 H 0.8333 0.6173 0.6774
C17 C 0.72132(19) 0.5242(2) 0.77122(12)
H21 H 0.7896 0.5211 0.8226
H22 H 0.7210 0.4364 0.7384
C18 C 0.58985(18) 0.54771(19) 0.81001(11)
H23 H 0.5707 0.4733 0.8538
C19 C 0.57608(19) 0.68251(19) 0.85675(11)
C20 C 0.64361(18) 0.7770(2) 0.91802(11)
H24 H 0.7253 0.7644 0.9510
C21 C 0.18262(18) 0.6417(2) 0.84566(12)
C22 C 0.10494(18) 0.8661(2) 0.89082(12)
C23 C 0.1480(2) 1.0064(2) 0.86513(15)
H25 H 0.1343 1.0188 0.7979
H26 H 0.2401 1.0177 0.8840
H27 H 0.0973 1.0736 0.8969
C24 C 0.1278(3) 0.8410(3) 0.99428(15)
H28 H 0.2200 0.8531 1.0128
H29 H 0.1018 0.7486 1.0085
H30 H 0.0765 0.9050 1.0282
C25 C -0.0350(2) 0.8446(3) 0.85674(17)
H31 H -0.0445 0.8580 0.7895
H32 H -0.0900 0.9094 0.8870
H33 H -0.0613 0.7525 0.8716
C26 C 0.1735(2) 0.3589(2) 0.75957(12)
H34 H 0.1951 0.2617 0.7562
H35 H 0.1078 0.3707 0.8056
C27 C 0.02361(19) 0.3339(2) 0.63089(12)
C28 C -0.11803(19) 0.3327(2) 0.48800(12)
C29 C -0.2425(2) 0.3474(2) 0.53512(14)
H36 H -0.2577 0.4430 0.5480
H37 H -0.2364 0.2968 0.5935
H38 H -0.3145 0.3121 0.4946
C30 C -0.0902(2) 0.1884(2) 0.46367(16)
H39 H -0.0912 0.1323 0.5194
H40 H -0.0047 0.1827 0.4385
H41 H -0.1565 0.1562 0.4172
C31 C -0.1173(2) 0.4238(3) 0.40378(14)
H42 H -0.0329 0.4178 0.3771
H43 H -0.1330 0.5173 0.4223
H44 H -0.1856 0.3953 0.3576
loop_
_geom_bond_atom_site_label_1
_geom_bond_atom_site_label_2
_geom_bond_site_symmetry_1
_geom_bond_site_symmetry_2
O1 C9 1_555 1_555
O2 C15 1_555 1_555
O3 C21 1_555 1_555
O4 C21 1_555 1_555
O5 C26 1_555 1_555
O6 C27 1_555 1_555
O7 C27 1_555 1_555
N1 C1 1_555 1_555
N2 C11 1_555 1_555
C1 H1 1_555 1_555
H2 C1 1_555 1_555
C2 C1 1_555 1_555
H3 C2 1_555 1_555
H4 C2 1_555 1_555
C3 C2 1_555 1_555
H5 C3 1_555 1_555
H6 C3 1_555 1_555
C4 C3 1_555 1_555
H7 C4 1_555 1_555
H8 C4 1_555 1_555
C5 C4 1_555 1_555
H9 C5 1_555 1_555
C6 C5 1_555 1_555
H10 C6 1_555 1_555
C7 C6 1_555 1_555
H11 C7 1_555 1_555
H12 C7 1_555 1_555
C8 C7 1_555 1_555
H13 C8 1_555 1_555
H14 C8 1_555 1_555
C9 C8 1_555 1_555
C10 O1 1_555 1_555
C11 C10 1_555 1_555
H15 C11 1_555 1_555
C12 N2 1_555 1_555
H16 C12 1_555 1_555
C13 C12 1_555 1_555
H17 C13 1_555 1_555
H18 C13 1_555 1_555
C14 C11 1_555 1_555
C15 N1 1_555 1_555
C16 N1 1_555 1_555
H19 C16 1_555 1_555
H20 C16 1_555 1_555
C17 C16 1_555 1_555
H21 C17 1_555 1_555
H22 C17 1_555 1_555
C18 C14 1_555 1_555
H23 C18 1_555 1_555
C19 C10 1_555 1_555
C20 C9 1_555 1_555
H24 C20 1_555 1_555
C21 N2 1_555 1_555
C22 O3 1_555 1_555
C23 C22 1_555 1_555
H25 C23 1_555 1_555
H26 C23 1_555 1_555
H27 C23 1_555 1_555
C24 C22 1_555 1_555
H28 C24 1_555 1_555
H29 C24 1_555 1_555
H30 C24 1_555 1_555
C25 C22 1_555 1_555
H31 C25 1_555 1_555
H32 C25 1_555 1_555
H33 C25 1_555 1_555
C26 C12 1_555 1_555
H34 C26 1_555 1_555
H35 C26 1_555 1_555
C27 O5 1_555 1_555
C28 O7 1_555 1_555
C29 C28 1_555 1_555
H36 C29 1_555 1_555
H37 C29 1_555 1_555
H38 C29 1_555 1_555
C30 C28 1_555 1_555
H39 C30 1_555 1_555
H40 C30 1_555 1_555
H41 C30 1_555 1_555
C31 C28 1_555 1_555
H42 C31 1_555 1_555
H43 C31 1_555 1_555
H44 C31 1_555 1_555
C13 C14 1_555 1_555
C14 C15 1_555 1_555
C17 C18 1_555 1_555
C18 C19 1_555 1_555
C19 C20 1_555 1_555

#END
