
#######################################################################
#
#                 Cambridge Crystallographic Data Centre
#                                CCDC 
#
#######################################################################
#
# If this CIF has been generated from an entry in the Cambridge 
# Structural Database, then it will include bibliographic, chemical, 
# crystal, experimental, refinement or atomic coordinate data resulting 
# from the CCDC's data processing and validation procedures.
#
#######################################################################

data_FIHDOS
_chemical_formula_moiety         '2(C24 H20 P1 1+),Be1 Cl4 2-,C1 H2 Cl2,C6 H6'
_chemical_name_systematic        
'bis(tetraphenylphosphonium) tetrachloroberyllate benzene dichloromethane solvate'
_symmetry_cell_setting           monoclinic
_symmetry_space_group_name_H-M   'P 21/n'
_symmetry_Int_Tables_number      14
_space_group_name_Hall           '-P 2yn'
loop_
_symmetry_equiv_pos_site_id
_symmetry_equiv_pos_as_xyz
1 x,y,z
2 1/2-x,1/2+y,1/2-z
3 -x,-y,-z
4 1/2+x,1/2-y,1/2+z
_cell_length_a                   9.6971(19)
_cell_length_b                   13.262(3)
_cell_length_c                   37.921(8)
_cell_angle_alpha                90
_cell_angle_beta                 96.53(3)
_cell_angle_gamma                90
_cell_volume                     4845.11
_exptl_crystal_colour            colorless
_exptl_crystal_description       block
_cell_formula_units_Z            4
_chemical_properties_physical    Air-sensitive,Moisture-sensitive,Hygroscopic
loop_
_atom_site_label
_atom_site_type_symbol
_atom_site_fract_x
_atom_site_fract_y
_atom_site_fract_z
P1 P 1.12517(6) 0.33189(5) 0.23062(2)
C1 C 1.0878(3) 0.2282(2) 0.20061(7)
C2 C 1.1868(3) 0.1966(2) 0.17912(8)
H1 H 1.2729 0.2312 0.1799
C3 C 1.1602(3) 0.1151(2) 0.15670(8)
H2 H 1.2291 0.0925 0.1426
C4 C 1.0329(3) 0.0661(2) 0.15463(8)
H3 H 1.0139 0.0112 0.1387
C5 C 0.9342(3) 0.0973(2) 0.17568(8)
H4 H 0.8474 0.0634 0.1742
C6 C 0.9598(3) 0.1778(2) 0.19900(7)
H5 H 0.8918 0.1985 0.2136
C7 C 1.2092(2) 0.42853(19) 0.20745(7)
C8 C 1.3202(3) 0.4825(2) 0.22511(7)
H6 H 1.3511 0.4684 0.2493
C9 C 1.3852(3) 0.5569(2) 0.20710(7)
H7 H 1.4621 0.5923 0.2189
C10 C 1.3390(3) 0.5799(2) 0.17209(7)
H8 H 1.3834 0.6312 0.1600
C11 C 1.2265(3) 0.5268(2) 0.15481(7)
H9 H 1.1930 0.5433 0.1310
C12 C 1.1634(3) 0.4508(2) 0.17196(7)
H10 H 1.0890 0.4137 0.1597
C13 C 1.2425(3) 0.2948(2) 0.26832(7)
C14 C 1.2428(3) 0.3437(2) 0.30084(7)
H11 H 1.1731 0.3920 0.3042
C15 C 1.3454(3) 0.3216(2) 0.32839(8)
H12 H 1.3442 0.3531 0.3509
C16 C 1.4498(3) 0.2533(2) 0.32301(8)
H13 H 1.5216 0.2398 0.3416
C17 C 1.4494(3) 0.2052(2) 0.29082(8)
H14 H 1.5211 0.1587 0.2873
C18 C 1.3454(3) 0.2242(2) 0.26350(8)
H15 H 1.3440 0.1894 0.2416
C19 C 0.9644(2) 0.37734(19) 0.24392(6)
C20 C 0.9104(3) 0.3364(2) 0.27359(7)
H16 H 0.9616 0.2874 0.2879
C21 C 0.7813(3) 0.3683(2) 0.28186(7)
H17 H 0.7444 0.3418 0.3021
C22 C 0.7066(3) 0.4386(2) 0.26053(7)
H18 H 0.6182 0.4599 0.2662
C23 C 0.7591(3) 0.4784(2) 0.23092(7)
H19 H 0.7065 0.5263 0.2164
C24 C 0.8881(3) 0.4481(2) 0.22254(7)
H20 H 0.9246 0.4754 0.2024
P2 P 0.57690(7) 0.20963(5) 0.53758(2)
C25 C 0.4821(3) 0.1976(2) 0.49423(7)
C26 C 0.3393(4) 0.1874(4) 0.49073(10)
H21 H 0.2929 0.1800 0.5113
C27 C 0.2631(4) 0.1877(4) 0.45749(10)
H22 H 0.1649 0.1815 0.4555
C28 C 0.3279(3) 0.1969(2) 0.42793(8)
H23 H 0.2755 0.1963 0.4052
C29 C 0.4693(3) 0.2070(3) 0.43080(8)
H24 H 0.5147 0.2135 0.4100
C30 C 0.5465(3) 0.2079(3) 0.46382(7)
H25 H 0.6444 0.2156 0.4655
C31 C 0.4732(3) 0.1570(2) 0.56941(7)
C32 C 0.4289(3) 0.2160(2) 0.59600(7)
H26 H 0.4545 0.2850 0.5979
C33 C 0.3464(3) 0.1736(2) 0.62000(7)
H27 H 0.3148 0.2144 0.6381
C34 C 0.3109(3) 0.0737(2) 0.61765(7)
H28 H 0.2551 0.0453 0.6342
C35 C 0.3557(3) 0.0141(3) 0.59142(9)
H29 H 0.3310 -0.0552 0.5899
C36 C 0.4368(3) 0.0554(3) 0.56716(9)
H30 H 0.4673 0.0144 0.5490
C37 C 0.6055(3) 0.3405(2) 0.54737(7)
C38 C 0.4977(4) 0.4079(2) 0.54013(8)
H31 H 0.4111 0.3869 0.5281
C39 C 0.5198(6) 0.5097(3) 0.55115(10)
H32 H 0.4477 0.5583 0.5473
C40 C 0.6518(6) 0.5362(4) 0.56799(11)
H33 H 0.6679 0.6042 0.5751
C41 C 0.7548(6) 0.4701(3) 0.57438(13)
H34 H 0.8424 0.4911 0.5858
C42 C 0.7339(4) 0.3726(3) 0.56451(11)
H35 H 0.8072 0.3253 0.5693
C43 C 0.7417(3) 0.1469(2) 0.54116(7)
C44 C 0.7786(4) 0.0806(3) 0.56777(10)
H36 H 0.7144 0.0649 0.5841
C45 C 0.9081(4) 0.0353(3) 0.57161(11)
H37 H 0.9319 -0.0107 0.5905
C46 C 1.0008(3) 0.0564(3) 0.54851(9)
H38 H 1.0884 0.0236 0.5505
C47 C 0.9663(4) 0.1254(5) 0.52235(10)
H39 H 1.0311 0.1410 0.5062
C48 C 0.8384(4) 0.1735(5) 0.51887(10)
H40 H 0.8178 0.2240 0.5013
Cl1 Cl 0.71013(7) 0.37312(5) 0.37886(2)
Cl2 Cl 0.80791(7) 0.15777(5) 0.34306(2)
Cl3 Cl 1.04337(7) 0.33155(6) 0.37149(2)
Cl4 Cl 0.88357(7) 0.20036(6) 0.42942(2)
Be1 Be 0.8613(3) 0.2665(3) 0.38079(8)
loop_
_geom_bond_atom_site_label_1
_geom_bond_atom_site_label_2
_geom_bond_site_symmetry_1
_geom_bond_site_symmetry_2
Cl1 Be1 1_555 1_555
Cl2 Be1 1_555 1_555
Cl3 Be1 1_555 1_555
Cl4 Be1 1_555 1_555
P1 C1 1_555 1_555
C1 C2 1_555 1_555
C2 H1 1_555 1_555
C3 C2 1_555 1_555
H2 C3 1_555 1_555
C4 C3 1_555 1_555
H3 C4 1_555 1_555
C5 C4 1_555 1_555
H4 C5 1_555 1_555
C6 C1 1_555 1_555
H5 C6 1_555 1_555
C7 P1 1_555 1_555
C8 C7 1_555 1_555
H6 C8 1_555 1_555
C9 C8 1_555 1_555
H7 C9 1_555 1_555
C10 C9 1_555 1_555
H8 C10 1_555 1_555
C11 C10 1_555 1_555
H9 C11 1_555 1_555
C12 C7 1_555 1_555
H10 C12 1_555 1_555
C13 P1 1_555 1_555
C14 C13 1_555 1_555
H11 C14 1_555 1_555
C15 C14 1_555 1_555
H12 C15 1_555 1_555
C16 C15 1_555 1_555
H13 C16 1_555 1_555
C17 C16 1_555 1_555
H14 C17 1_555 1_555
C18 C13 1_555 1_555
H15 C18 1_555 1_555
C19 P1 1_555 1_555
C20 C19 1_555 1_555
H16 C20 1_555 1_555
C21 C20 1_555 1_555
H17 C21 1_555 1_555
C22 C21 1_555 1_555
H18 C22 1_555 1_555
C23 C22 1_555 1_555
H19 C23 1_555 1_555
C24 C19 1_555 1_555
H20 C24 1_555 1_555
P2 C25 1_555 1_555
C25 C26 1_555 1_555
C26 H21 1_555 1_555
C27 C26 1_555 1_555
H22 C27 1_555 1_555
C28 C27 1_555 1_555
H23 C28 1_555 1_555
C29 C28 1_555 1_555
H24 C29 1_555 1_555
C30 C25 1_555 1_555
H25 C30 1_555 1_555
C31 P2 1_555 1_555
C32 C31 1_555 1_555
H26 C32 1_555 1_555
C33 C32 1_555 1_555
H27 C33 1_555 1_555
C34 C33 1_555 1_555
H28 C34 1_555 1_555
C35 C34 1_555 1_555
H29 C35 1_555 1_555
C36 C31 1_555 1_555
H30 C36 1_555 1_555
C37 P2 1_555 1_555
C38 C37 1_555 1_555
H31 C38 1_555 1_555
C39 C38 1_555 1_555
H32 C39 1_555 1_555
C40 C39 1_555 1_555
H33 C40 1_555 1_555
C41 C40 1_555 1_555
H34 C41 1_555 1_555
C42 C37 1_555 1_555
H35 C42 1_555 1_555
C43 P2 1_555 1_555
C44 C43 1_555 1_555
H36 C44 1_555 1_555
C45 C44 1_555 1_555
H37 C45 1_555 1_555
C46 C45 1_555 1_555
H38 C46 1_555 1_555
C47 C46 1_555 1_555
H39 C47 1_555 1_555
C48 C43 1_555 1_555
H40 C48 1_555 1_555
C5 C6 1_555 1_555
C11 C12 1_555 1_555
C17 C18 1_555 1_555
C23 C24 1_555 1_555
C29 C30 1_555 1_555
C35 C36 1_555 1_555
C41 C42 1_555 1_555
C47 C48 1_555 1_555

#END
