
#######################################################################
#
#                 Cambridge Crystallographic Data Centre
#                                CCDC 
#
#######################################################################
#
# If this CIF has been generated from an entry in the Cambridge 
# Structural Database, then it will include bibliographic, chemical, 
# crystal, experimental, refinement or atomic coordinate data resulting 
# from the CCDC's data processing and validation procedures.
#
#######################################################################

data_FIHNUH02
_chemical_formula_moiety         'C10 H13 N3 O1'
_chemical_name_systematic        5-Benzyl-1,3,5-triazinan-2-one
_symmetry_cell_setting           monoclinic
_symmetry_space_group_name_H-M   'P 21/n'
_symmetry_Int_Tables_number      14
_space_group_name_Hall           '-P 2yn'
loop_
_symmetry_equiv_pos_site_id
_symmetry_equiv_pos_as_xyz
1 x,y,z
2 1/2-x,1/2+y,1/2-z
3 -x,-y,-z
4 1/2+x,1/2-y,1/2+z
_cell_length_a                   16.5990(10)
_cell_length_b                   7.096(2)
_cell_length_c                   17.293(2)
_cell_angle_alpha                90
_cell_angle_beta                 108.112(4)
_cell_angle_gamma                90
_cell_volume                     1935.96
_exptl_crystal_colour            colorless
_exptl_crystal_description       block
_cell_formula_units_Z            8
loop_
_atom_site_label
_atom_site_type_symbol
_atom_site_fract_x
_atom_site_fract_y
_atom_site_fract_z
O1 O 0.8782(5) 0.3479(9) 0.3604(3)
N1 N 0.9141(3) 0.1713(6) 0.4751(2)
N2 N 0.8912(3) 0.4930(6) 0.4791(2)
N3 N 0.8789(3) 0.2991(6) 0.5890(2)
C1 C 0.8949(4) 0.3393(7) 0.4357(3)
C2 C 0.9011(5) 0.4819(8) 0.5649(4)
C3 C 0.9292(4) 0.1633(10) 0.5623(3)
C4 C 0.7896(4) 0.2637(9) 0.5572(4)
C5 C 0.7656(3) 0.0740(8) 0.5839(3)
C6 C 0.7177(4) -0.0558(9) 0.5281(3)
C7 C 0.6961(5) -0.2264(9) 0.5533(4)
C8 C 0.7199(5) -0.2717(9) 0.6346(4)
C9 C 0.7681(4) -0.1439(9) 0.6906(3)
C10 C 0.7917(4) 0.0252(10) 0.6658(4)
H1 H 0.8976(8) 0.053(2) 0.4406(7)
H2 H 0.8591(9) 0.5941(19) 0.5785(7)
H3 H 0.7572(10) 0.373(2) 0.5801(10)
H4 H 0.7902(11) -0.186(2) 0.7554(8)
H5 H 0.8761(8) 0.6164(18) 0.4468(7)
H6 H 0.7020(11) -0.4060(19) 0.6539(8)
H7 H 0.7641(9) 0.2712(19) 0.4910(7)
H8 H 0.9953(9) 0.190(2) 0.5965(7)
H9 H 0.8279(9) 0.121(2) 0.7088(7)
H10 H 0.9130(10) 0.025(2) 0.5762(8)
H11 H 0.6556(13) -0.327(2) 0.5080(9)
H12 H 0.9658(11) 0.5122(19) 0.6025(7)
H13 H 0.6967(11) -0.022(2) 0.4630(7)
O2 O 0.8536(5) 0.8389(9) 0.3832(3)
N4 N 0.8362(3) 1.0075(6) 0.2687(3)
N5 N 0.8530(3) 0.6851(6) 0.2693(2)
N6 N 0.8775(3) 0.8668(5) 0.1613(2)
C11 C 0.8467(4) 0.8440(7) 0.3097(3)
C12 C 0.8291(4) 1.0152(9) 0.1832(3)
C13 C 0.8480(4) 0.6891(9) 0.1838(3)
C14 C 0.9693(4) 0.8901(9) 0.2000(4)
C15 C 1.0008(4) 1.0728(8) 0.1780(3)
C16 C 1.0180(5) 1.0920(9) 0.1063(4)
C17 C 1.0488(6) 1.2607(11) 0.0848(5)
C18 C 1.0626(5) 1.4114(11) 0.1388(4)
C19 C 1.0480(4) 1.3936(9) 0.2116(4)
C20 C 1.0164(5) 1.2262(8) 0.2311(5)
H14 H 0.8614(9) 0.562(2) 0.3000(7)
H15 H 0.8451(8) 1.1286(18) 0.3007(7)
H16 H 0.7824(9) 0.6615(17) 0.1449(7)
H17 H 1.0071(13) 0.970(3) 0.0647(8)
H18 H 0.9867(9) 0.876(2) 0.2649(8)
H19 H 0.8499(8) 1.153(2) 0.1696(6)
H20 H 0.9966(10) 0.773(2) 0.1781(9)
H21 H 0.8881(10) 0.5739(17) 0.1736(7)
H22 H 1.0883(13) 1.541(3) 0.1247(11)
H23 H 1.0607(12) 1.510(2) 0.2540(10)
H24 H 1.0074(12) 1.209(2) 0.2878(10)
H25 H 0.7615(8) 0.9981(16) 0.1465(7)
H26 H 1.0642(15) 1.275(3) 0.0283(12)
loop_
_geom_bond_atom_site_label_1
_geom_bond_atom_site_label_2
_geom_bond_site_symmetry_1
_geom_bond_site_symmetry_2
O1 C1 1_555 1_555
N1 C1 1_555 1_555
N2 C1 1_555 1_555
N3 C2 1_555 1_555
C2 N2 1_555 1_555
C3 N1 1_555 1_555
C4 N3 1_555 1_555
C5 C4 1_555 1_555
C6 C5 1_555 1_555
C7 C6 1_555 1_555
C8 C7 1_555 1_555
C9 C8 1_555 1_555
C10 C5 1_555 1_555
H1 N1 1_555 1_555
H2 C2 1_555 1_555
H3 C4 1_555 1_555
H4 C9 1_555 1_555
H5 N2 1_555 1_555
H6 C8 1_555 1_555
H7 C4 1_555 1_555
H8 C3 1_555 1_555
H9 C10 1_555 1_555
H10 C3 1_555 1_555
H11 C7 1_555 1_555
H12 C2 1_555 1_555
H13 C6 1_555 1_555
O2 C11 1_555 1_555
N4 C11 1_555 1_555
N5 C11 1_555 1_555
N6 C12 1_555 1_555
C12 N4 1_555 1_555
C13 N5 1_555 1_555
C14 N6 1_555 1_555
C15 C14 1_555 1_555
C16 C15 1_555 1_555
C17 C16 1_555 1_555
C18 C17 1_555 1_555
C19 C18 1_555 1_555
C20 C15 1_555 1_555
H14 N5 1_555 1_555
H15 N4 1_555 1_555
H16 C13 1_555 1_555
H17 C16 1_555 1_555
H18 C14 1_555 1_555
H19 C12 1_555 1_555
H20 C14 1_555 1_555
H21 C13 1_555 1_555
H22 C18 1_555 1_555
H23 C19 1_555 1_555
H24 C20 1_555 1_555
H25 C12 1_555 1_555
H26 C17 1_555 1_555
N3 C3 1_555 1_555
C9 C10 1_555 1_555
N6 C13 1_555 1_555
C19 C20 1_555 1_555

#END
