
#######################################################################
#
#                 Cambridge Crystallographic Data Centre
#                                CCDC 
#
#######################################################################
#
# If this CIF has been generated from an entry in the Cambridge 
# Structural Database, then it will include bibliographic, chemical, 
# crystal, experimental, refinement or atomic coordinate data resulting 
# from the CCDC's data processing and validation procedures.
#
#######################################################################

data_FIHNUH01
_chemical_formula_moiety         'C10 H13 N3 O1'
_chemical_name_systematic        5-Benzyl-1,3,5-triazinan-2-one
_symmetry_cell_setting           monoclinic
_symmetry_space_group_name_H-M   'P 21/n'
_symmetry_Int_Tables_number      14
_space_group_name_Hall           '-P 2yn'
loop_
_symmetry_equiv_pos_site_id
_symmetry_equiv_pos_as_xyz
1 x,y,z
2 1/2-x,1/2+y,1/2-z
3 -x,-y,-z
4 1/2+x,1/2-y,1/2+z
_cell_length_a                   16.777(4)
_cell_length_b                   7.104(4)
_cell_length_c                   17.413(5)
_cell_angle_alpha                90
_cell_angle_beta                 108.318(6)
_cell_angle_gamma                90
_cell_volume                     1970.18
_exptl_crystal_colour            colorless
_exptl_crystal_description       needle
_cell_formula_units_Z            8
loop_
_atom_site_label
_atom_site_type_symbol
_atom_site_fract_x
_atom_site_fract_y
_atom_site_fract_z
O1 O 0.85351(6) 0.33918(12) 0.38353(5)
N1 N 0.85311(7) 0.18652(14) 0.26899(6)
H1 H 0.8585(10) 0.079(2) 0.2965(9)
N2 N 0.83563(7) 0.50760(14) 0.26826(6)
H2 H 0.8435(10) 0.615(2) 0.2980(9)
N3 N 0.87730(7) 0.36685(14) 0.16080(6)
C1 C 0.84687(7) 0.34401(15) 0.30961(7)
C2 C 0.82820(8) 0.51450(17) 0.18252(7)
H3 H 0.7685 0.5003 0.1498
H4 H 0.8477 0.6387 0.1698
C3 C 0.84840(8) 0.18850(16) 0.18364(7)
H5 H 0.8833 0.0850 0.1734
H6 H 0.7896 0.1663 0.1497
C4 C 0.96886(8) 0.38948(17) 0.19992(8)
H7 H 0.9985 0.2844 0.1832
H8 H 0.9816 0.3825 0.2593
C5 C 1.00120(8) 0.57299(17) 0.17846(8)
C6 C 1.01655(9) 0.72518(19) 0.23119(8)
H9 H 1.0058 0.7138 0.2814
C7 C 1.04727(9) 0.8932(2) 0.21160(10)
H10 H 1.0577 0.9960 0.2483
C8 C 1.06270(10) 0.9110(2) 0.13887(11)
H11 H 1.0831 1.0266 0.1250
C9 C 1.04859(12) 0.7610(3) 0.08632(11)
H12 H 1.0597 0.7730 0.0363
C10 C 1.01816(10) 0.5921(2) 0.10614(9)
H13 H 1.0089 0.4889 0.0697
O2 O 0.87763(6) 0.84641(11) 0.35989(5)
N4 N 0.91429(7) 0.67297(14) 0.47523(6)
H14 H 0.9008(10) 0.571(2) 0.4453(9)
N5 N 0.89171(7) 0.99280(14) 0.47920(6)
H15 H 0.8801(10) 1.098(2) 0.4533(9)
N6 N 0.87916(7) 0.79937(15) 0.58934(6)
C11 C 0.89430(8) 0.83835(15) 0.43529(7)
C12 C 0.90083(9) 0.98395(18) 0.56600(8)
H16 H 0.9596 1.0139 0.5978
H17 H 0.8640 1.0798 0.5787
C13 C 0.92888(8) 0.66226(18) 0.56234(7)
H18 H 0.9147 0.5342 0.5763
H19 H 0.9892 0.6843 0.5911
C14 C 0.78822(8) 0.76174(18) 0.55695(8)
H20 H 0.7706 0.7652 0.4971
H21 H 0.7574 0.8620 0.5752
C15 C 0.76528(8) 0.57322(17) 0.58391(7)
C16 C 0.79035(8) 0.52556(19) 0.66562(8)
H22 H 0.8232 0.6115 0.7047
C17 C 0.76785(9) 0.3538(2) 0.69050(9)
H23 H 0.7855 0.3225 0.7464
C18 C 0.71980(9) 0.22810(19) 0.63435(9)
H24 H 0.7039 0.1112 0.6516
C19 C 0.69501(11) 0.2725(2) 0.55334(10)
H25 H 0.6623 0.1859 0.5146
C20 C 0.71793(10) 0.4443(2) 0.52835(8)
H26 H 0.7009 0.4738 0.4723
loop_
_geom_bond_atom_site_label_1
_geom_bond_atom_site_label_2
_geom_bond_site_symmetry_1
_geom_bond_site_symmetry_2
O1 C1 1_555 1_555
N1 H1 1_555 1_555
N2 H2 1_555 1_555
N3 C2 1_555 1_555
C1 N1 1_555 1_555
C2 N2 1_555 1_555
H3 C2 1_555 1_555
H4 C2 1_555 1_555
C3 N1 1_555 1_555
H5 C3 1_555 1_555
H6 C3 1_555 1_555
C4 N3 1_555 1_555
H7 C4 1_555 1_555
H8 C4 1_555 1_555
C5 C4 1_555 1_555
C6 C5 1_555 1_555
H9 C6 1_555 1_555
C7 C6 1_555 1_555
H10 C7 1_555 1_555
C8 C7 1_555 1_555
H11 C8 1_555 1_555
C9 C8 1_555 1_555
H12 C9 1_555 1_555
C10 C5 1_555 1_555
H13 C10 1_555 1_555
O2 C11 1_555 1_555
N4 H14 1_555 1_555
N5 H15 1_555 1_555
N6 C12 1_555 1_555
C11 N4 1_555 1_555
C12 N5 1_555 1_555
H16 C12 1_555 1_555
H17 C12 1_555 1_555
C13 N4 1_555 1_555
H18 C13 1_555 1_555
H19 C13 1_555 1_555
C14 N6 1_555 1_555
H20 C14 1_555 1_555
H21 C14 1_555 1_555
C15 C14 1_555 1_555
C16 C15 1_555 1_555
H22 C16 1_555 1_555
C17 C16 1_555 1_555
H23 C17 1_555 1_555
C18 C17 1_555 1_555
H24 C18 1_555 1_555
C19 C18 1_555 1_555
H25 C19 1_555 1_555
C20 C15 1_555 1_555
H26 C20 1_555 1_555
N2 C1 1_555 1_555
N3 C3 1_555 1_555
C9 C10 1_555 1_555
N5 C11 1_555 1_555
N6 C13 1_555 1_555
C19 C20 1_555 1_555

#END
