
#######################################################################
#
#                 Cambridge Crystallographic Data Centre
#                                CCDC 
#
#######################################################################
#
# If this CIF has been generated from an entry in the Cambridge 
# Structural Database, then it will include bibliographic, chemical, 
# crystal, experimental, refinement or atomic coordinate data resulting 
# from the CCDC's data processing and validation procedures.
#
#######################################################################

data_FIHNOB
_chemical_formula_moiety         'C9 H20 N4 O1'
_chemical_name_systematic        
5-(2-(Diethylamino)ethyl)-1,3,5-triazinan-2-one
_symmetry_cell_setting           orthorhombic
_symmetry_space_group_name_H-M   'P b c a'
_symmetry_Int_Tables_number      61
_space_group_name_Hall           '-P 2ac 2ab'
loop_
_symmetry_equiv_pos_site_id
_symmetry_equiv_pos_as_xyz
1 x,y,z
2 1/2-x,-y,1/2+z
3 1/2+x,1/2-y,-z
4 -x,1/2+y,1/2-z
5 -x,-y,-z
6 1/2+x,y,1/2-z
7 1/2-x,1/2+y,z
8 x,1/2-y,1/2+z
_cell_length_a                   9.4440(10)
_cell_length_b                   7.2150(10)
_cell_length_c                   32.751(2)
_cell_angle_alpha                90
_cell_angle_beta                 90
_cell_angle_gamma                90
_cell_volume                     2231.6
_exptl_crystal_colour            colorless
_exptl_crystal_description       rod
_cell_formula_units_Z            8
loop_
_atom_site_label
_atom_site_type_symbol
_atom_site_fract_x
_atom_site_fract_y
_atom_site_fract_z
O1 O 0.22517(8) 0.30650(10) 0.21339(3)
N1 N 0.42962(9) 0.46176(12) 0.19992(3)
H1 H 0.3842(16) 0.570(2) 0.2019(4)
N2 N 0.42885(9) 0.14379(12) 0.20506(3)
H2 H 0.3783(16) 0.041(2) 0.2060(4)
N3 N 0.62129(9) 0.29097(11) 0.16903(3)
N4 N 0.54555(10) 0.07198(13) 0.06583(3)
C1 C 0.35625(10) 0.30439(13) 0.20665(3)
C2 C 0.58052(10) 0.13829(14) 0.19559(3)
H3 H 0.6355 0.1451 0.2213
H4 H 0.6034 0.0193 0.1821
C3 C 0.58174(10) 0.45996(14) 0.19028(3)
H5 H 0.6050 0.5683 0.1730
H6 H 0.6370 0.4701 0.2159
C4 C 0.55590(11) 0.27982(15) 0.12824(3)
H7 H 0.5645 0.4014 0.1145
H8 H 0.4539 0.2514 0.1312
C5 C 0.62606(11) 0.13048(15) 0.10186(3)
H9 H 0.7193 0.1774 0.0927
H10 H 0.6436 0.0202 0.1191
C6 C 0.41807(14) -0.03347(18) 0.07580(5)
H11 H 0.3621 -0.0525 0.0506
H12 H 0.3594 0.0396 0.0950
C7 C 0.4503(2) -0.2203(3) 0.09478(8)
H13 H 0.5128 -0.2907 0.0766
H14 H 0.3618 -0.2890 0.0988
H15 H 0.4970 -0.2022 0.1212
C8 C 0.51323(14) 0.22454(19) 0.03774(4)
H16 H 0.4523 0.3158 0.0519
H17 H 0.4594 0.1752 0.0142
C9 C 0.64458(18) 0.3219(2) 0.02220(4)
H18 H 0.6891 0.3904 0.0446
H19 H 0.6183 0.4084 0.0004
H20 H 0.7113 0.2299 0.0115
loop_
_geom_bond_atom_site_label_1
_geom_bond_atom_site_label_2
_geom_bond_site_symmetry_1
_geom_bond_site_symmetry_2
O1 C1 1_555 1_555
N1 H1 1_555 1_555
N2 H2 1_555 1_555
N3 C2 1_555 1_555
N4 C5 1_555 1_555
C1 N1 1_555 1_555
C2 N2 1_555 1_555
H3 C2 1_555 1_555
H4 C2 1_555 1_555
C3 N1 1_555 1_555
H5 C3 1_555 1_555
H6 C3 1_555 1_555
C4 N3 1_555 1_555
H7 C4 1_555 1_555
H8 C4 1_555 1_555
C5 C4 1_555 1_555
H9 C5 1_555 1_555
H10 C5 1_555 1_555
C6 N4 1_555 1_555
H11 C6 1_555 1_555
H12 C6 1_555 1_555
C7 C6 1_555 1_555
H13 C7 1_555 1_555
H14 C7 1_555 1_555
H15 C7 1_555 1_555
C8 N4 1_555 1_555
H16 C8 1_555 1_555
H17 C8 1_555 1_555
C9 C8 1_555 1_555
H18 C9 1_555 1_555
H19 C9 1_555 1_555
H20 C9 1_555 1_555
N2 C1 1_555 1_555
N3 C3 1_555 1_555

#END
