
#######################################################################
#
#                 Cambridge Crystallographic Data Centre
#                                CCDC 
#
#######################################################################
#
# If this CIF has been generated from an entry in the Cambridge 
# Structural Database, then it will include bibliographic, chemical, 
# crystal, experimental, refinement or atomic coordinate data resulting 
# from the CCDC's data processing and validation procedures.
#
#######################################################################

data_FIHRUL
_chemical_formula_moiety         'C34 H20 Cl2 S4'
_chemical_name_systematic        
2,13-bis(4-chlorophenyl)-23,24,25,26-tetrathiapentacyclo[18.2.1.1^3,6^.1^9,12^.1^14,17^]hexacosa-1,3,5,7,9,11,13,15,17,19,21-undecaene
_symmetry_cell_setting           triclinic
_symmetry_space_group_name_H-M   'P -1'
_symmetry_Int_Tables_number      2
_space_group_name_Hall           '-P 1'
loop_
_symmetry_equiv_pos_site_id
_symmetry_equiv_pos_as_xyz
1 x,y,z
2 -x,-y,-z
_cell_length_a                   11.102(3)
_cell_length_b                   11.949(3)
_cell_length_c                   12.195(3)
_cell_angle_alpha                108.950(2)
_cell_angle_beta                 112.420(2)
_cell_angle_gamma                95.820(2)
_cell_volume                     1366.68
_exptl_crystal_colour            black
_exptl_crystal_description       plate
_cell_formula_units_Z            2
loop_
_atom_site_label
_atom_site_type_symbol
_atom_site_fract_x
_atom_site_fract_y
_atom_site_fract_z
Cl1 Cl 1.08843(6) -0.43957(6) 0.42273(5)
Cl2 Cl -0.29692(5) 0.45209(5) -0.10630(5)
S1 S 0.25924(5) 0.01069(5) -0.01880(5)
S2 S 0.46438(5) -0.13919(5) 0.07090(5)
S3 S 0.57284(5) 0.04091(5) 0.34932(4)
S4 S 0.33802(5) 0.16676(5) 0.26280(5)
C1 C 0.13067(19) 0.0864(2) -0.03947(19)
C2 C 0.0286(2) 0.0253(2) -0.1677(2)
H1 H -0.0525 0.0494 -0.1993
C3 C 0.0568(2) -0.0710(2) -0.2421(2)
H2 H -0.0025 -0.1186 -0.3304
C4 C 0.1807(2) -0.0945(2) -0.17803(18)
C5 C 0.2269(2) -0.1890(2) -0.24015(19)
H3 H 0.1706 -0.2271 -0.3304
C6 C 0.3336(2) -0.24062(19) -0.20319(19)
H4 H 0.3406 -0.2959 -0.2754
C7 C 0.4348(2) -0.23185(19) -0.08521(18)
C8 C 0.5267(2) -0.3044(2) -0.07871(19)
H5 H 0.5277 -0.3617 -0.1534
C9 C 0.6153(2) -0.2862(2) 0.0444(2)
H6 H 0.6828 -0.3294 0.0622
C10 C 0.5972(2) -0.19771(19) 0.14184(19)
C11 C 0.67396(19) -0.16103(19) 0.27605(19)
C12 C 0.66506(19) -0.06603(19) 0.37411(19)
C13 C 0.72741(19) -0.0408(2) 0.50790(19)
H7 H 0.7831 -0.0877 0.5429
C14 C 0.70028(19) 0.0570(2) 0.58215(19)
H8 H 0.7358 0.0837 0.6733
C15 C 0.61551(19) 0.11486(19) 0.51289(18)
C16 C 0.5819(2) 0.2200(2) 0.57320(19)
H9 H 0.6242 0.2474 0.6646
C17 C 0.5021(2) 0.2939(2) 0.53219(19)
H10 H 0.5160 0.3672 0.6018
C18 C 0.4059(2) 0.28767(19) 0.41375(19)
C19 C 0.3428(2) 0.3826(2) 0.4022(2)
H11 H 0.3642 0.4571 0.4737
C20 C 0.2481(2) 0.3594(2) 0.2800(2)
H12 H 0.1999 0.4168 0.2595
C21 C 0.22841(19) 0.2428(2) 0.18750(19)
C22 C 0.13437(19) 0.19365(19) 0.05626(19)
C23 C 0.7759(2) -0.2296(2) 0.31732(18)
C24 C 0.7377(2) -0.3526(2) 0.2947(2)
H13 H 0.6446 -0.3933 0.2551
C25 C 0.8334(2) -0.4172(2) 0.3290(2)
H14 H 0.8063 -0.5009 0.3140
C26 C 0.9680(2) -0.3579(2) 0.38518(19)
C27 C 1.0099(2) -0.2357(2) 0.41001(19)
H15 H 1.1031 -0.1957 0.4496
C28 C 0.9133(2) -0.1725(2) 0.37610(18)
H16 H 0.9414 -0.0883 0.3933
C29 C 0.02979(19) 0.25963(19) 0.01558(19)
C30 C -0.0476(2) 0.2904(2) 0.0826(2)
H17 H -0.0316 0.2700 0.1551
C31 C -0.1468(2) 0.3497(2) 0.0459(2)
H18 H -0.1989 0.3697 0.0923
C32 C -0.16920(19) 0.37952(19) -0.05946(19)
C33 C -0.0932(2) 0.35335(19) -0.12699(18)
H19 H -0.1089 0.3756 -0.1983
C34 C 0.0064(2) 0.29394(19) -0.08888(18)
H20 H 0.0597 0.2762 -0.1344
loop_
_geom_bond_atom_site_label_1
_geom_bond_atom_site_label_2
_geom_bond_site_symmetry_1
_geom_bond_site_symmetry_2
Cl1 C26 1_555 1_555
Cl2 C32 1_555 1_555
S1 C1 1_555 1_555
S2 C7 1_555 1_555
S3 C12 1_555 1_555
S4 C18 1_555 1_555
C1 C2 1_555 1_555
C2 H1 1_555 1_555
C3 C2 1_555 1_555
H2 C3 1_555 1_555
C4 S1 1_555 1_555
C5 C4 1_555 1_555
H3 C5 1_555 1_555
C6 C5 1_555 1_555
H4 C6 1_555 1_555
C7 C6 1_555 1_555
C8 C7 1_555 1_555
H5 C8 1_555 1_555
C9 C8 1_555 1_555
H6 C9 1_555 1_555
C10 S2 1_555 1_555
C11 C10 1_555 1_555
C12 C11 1_555 1_555
C13 C12 1_555 1_555
H7 C13 1_555 1_555
C14 C13 1_555 1_555
H8 C14 1_555 1_555
C15 S3 1_555 1_555
C16 C15 1_555 1_555
H9 C16 1_555 1_555
C17 C16 1_555 1_555
H10 C17 1_555 1_555
C18 C17 1_555 1_555
C19 C18 1_555 1_555
H11 C19 1_555 1_555
C20 C19 1_555 1_555
H12 C20 1_555 1_555
C21 S4 1_555 1_555
C22 C1 1_555 1_555
C23 C11 1_555 1_555
C24 C23 1_555 1_555
H13 C24 1_555 1_555
C25 C24 1_555 1_555
H14 C25 1_555 1_555
C26 C25 1_555 1_555
C27 C26 1_555 1_555
H15 C27 1_555 1_555
C28 C23 1_555 1_555
H16 C28 1_555 1_555
C29 C22 1_555 1_555
C30 C29 1_555 1_555
H17 C30 1_555 1_555
C31 C30 1_555 1_555
H18 C31 1_555 1_555
C32 C31 1_555 1_555
C33 C32 1_555 1_555
H19 C33 1_555 1_555
C34 C29 1_555 1_555
H20 C34 1_555 1_555
C3 C4 1_555 1_555
C9 C10 1_555 1_555
C14 C15 1_555 1_555
C20 C21 1_555 1_555
C21 C22 1_555 1_555
C27 C28 1_555 1_555
C33 C34 1_555 1_555

#END
