
#######################################################################
#
#                 Cambridge Crystallographic Data Centre
#                                CCDC 
#
#######################################################################
#
# If this CIF has been generated from an entry in the Cambridge 
# Structural Database, then it will include bibliographic, chemical, 
# crystal, experimental, refinement or atomic coordinate data resulting 
# from the CCDC's data processing and validation procedures.
#
#######################################################################

data_FIHSOH
_chemical_formula_moiety         'C27 H32 N6 O8,C3 H6 O1'
_chemical_name_systematic        
'ethyl 2,7-bis{[(4-nitrophenyl)carbamoyl]amino}octahydronaphthalene-4a(2H)-carboxylate acetone solvate'
_symmetry_cell_setting           triclinic
_symmetry_space_group_name_H-M   'P -1'
_symmetry_Int_Tables_number      2
_space_group_name_Hall           '-P 1'
loop_
_symmetry_equiv_pos_site_id
_symmetry_equiv_pos_as_xyz
1 x,y,z
2 -x,-y,-z
_cell_length_a                   7.0007(7)
_cell_length_b                   14.5563(14)
_cell_length_c                   15.2431(12)
_cell_angle_alpha                88.980(7)
_cell_angle_beta                 87.912(7)
_cell_angle_gamma                89.368(8)
_cell_volume                     1551.98
_cell_formula_units_Z            2
loop_
_atom_site_label
_atom_site_type_symbol
_atom_site_fract_x
_atom_site_fract_y
_atom_site_fract_z
O1 O 0.6897(5) 0.7145(2) -0.2219(2)
O2 O 0.8237(6) 0.6192(3) -0.3131(2)
O3 O 0.9814(5) 0.2546(2) -0.0308(2)
O4 O 0.5809(4) -0.1109(2) 0.1638(2)
O5 O 0.8163(5) -0.0798(2) 0.2536(2)
O6 O 0.5098(5) 0.1962(2) 0.5431(2)
O7 O 0.3478(5) 0.5706(3) 0.7991(2)
O8 O 0.2351(6) 0.6659(3) 0.7020(3)
N1 N 0.7669(5) 0.6396(3) -0.2379(3)
N2 N 0.8147(5) 0.3757(2) 0.0310(2)
H1 H 0.7597 0.3929 0.0794
N3 N 0.8630(5) 0.2418(3) 0.1105(3)
H2 H 0.8053 0.2694 0.1535
N4 N 0.4185(5) 0.1781(2) 0.4025(2)
H3 H 0.3549 0.2003 0.3597
N5 N 0.3618(5) 0.3156(2) 0.4712(2)
H4 H 0.3175 0.3313 0.4212
N6 N 0.2978(6) 0.5894(3) 0.7222(3)
C1 C 0.7877(6) 0.5714(3) -0.1686(3)
C2 C 0.8689(6) 0.4881(3) -0.1879(3)
H5 H 0.9146 0.4765 -0.2447
C3 C 0.8832(6) 0.4205(3) -0.1227(3)
H6 H 0.9380 0.3635 -0.1354
C4 C 0.8135(5) 0.4397(3) -0.0370(3)
C5 C 0.7338(6) 0.5261(3) -0.0198(3)
H7 H 0.6879 0.5389 0.0367
C6 C 0.7219(6) 0.5924(3) -0.0845(3)
H8 H 0.6707 0.6502 -0.0722
C7 C 0.8924(6) 0.2876(3) 0.0320(3)
C8 C 0.9280(7) 0.1469(3) 0.1224(3)
H9 H 1.0607 0.1420 0.1001
C9 C 0.8080(7) 0.0810(3) 0.0725(3)
H10 H 0.8665 0.0203 0.0745
H11 H 0.8057 0.1008 0.0114
C10 C 0.6005(7) 0.0752(3) 0.1105(3)
H12 H 0.5386 0.1350 0.1054
H13 H 0.5293 0.0319 0.0772
C11 C 0.5993(6) 0.0443(3) 0.2074(3)
C12 C 0.7172(6) 0.1125(3) 0.2588(3)
H14 H 0.6551 0.1727 0.2514
C13 C 0.9218(6) 0.1229(3) 0.2205(3)
H15 H 0.9853 0.1708 0.2516
H16 H 0.9918 0.0659 0.2298
C14 C 0.6811(6) -0.0533(3) 0.2126(3)
C15 C 0.6466(7) -0.2051(3) 0.1617(3)
H17 H 0.6299 -0.2340 0.2192
H18 H 0.7810 -0.2081 0.1440
C16 C 0.5274(8) -0.2531(4) 0.0956(4)
H19 H 0.5433 -0.2230 0.0393
H20 H 0.3952 -0.2506 0.1145
H21 H 0.5682 -0.3161 0.0912
C17 C 0.7141(6) 0.0923(3) 0.3577(3)
H22 H 0.7818 0.1402 0.3868
H23 H 0.7795 0.0344 0.3688
C18 C 0.3954(6) 0.0441(3) 0.2477(3)
H24 H 0.3372 0.1040 0.2377
H25 H 0.3211 -0.0008 0.2178
C19 C 0.3861(7) 0.0223(3) 0.3444(3)
H26 H 0.4303 -0.0403 0.3541
H27 H 0.2542 0.0264 0.3660
C20 C 0.5072(7) 0.0873(3) 0.3962(3)
H28 H 0.5136 0.0619 0.4560
C21 C 0.4371(6) 0.2279(3) 0.4771(3)
C22 C 0.3155(6) 0.5178(3) 0.6582(3)
C23 C 0.2443(6) 0.5355(3) 0.5745(3)
H29 H 0.1877 0.5916 0.5603
C24 C 0.2620(6) 0.4656(3) 0.5140(3)
H30 H 0.2156 0.4750 0.4581
C25 C 0.3483(6) 0.3813(3) 0.5352(3)
C26 C 0.4185(7) 0.3667(3) 0.6203(3)
H31 H 0.4758 0.3110 0.6355
C27 C 0.4010(7) 0.4354(3) 0.6797(3)
H32 H 0.4476 0.4265 0.7356
O9 O 0.0941(6) 0.6591(3) 0.4016(4)
C28 C 0.1776(8) 0.7696(4) 0.2926(4)
H33 H 0.2828 0.8099 0.3010
H34 H 0.0812 0.8017 0.2605
H35 H 0.2218 0.7171 0.2601
C29 C 0.0957(7) 0.7389(4) 0.3793(4)
C30 C 0.0192(8) 0.8129(5) 0.4379(4)
H36 H -0.0980 0.8368 0.4156
H37 H 0.1108 0.8613 0.4398
H38 H -0.0042 0.7880 0.4960
loop_
_geom_bond_atom_site_label_1
_geom_bond_atom_site_label_2
_geom_bond_site_symmetry_1
_geom_bond_site_symmetry_2
O1 N1 1_555 1_555
O2 N1 1_555 1_555
O3 C7 1_555 1_555
O4 C14 1_555 1_555
O5 C14 1_555 1_555
O6 C21 1_555 1_555
O7 N6 1_555 1_555
O8 N6 1_555 1_555
N1 C1 1_555 1_555
N2 H1 1_555 1_555
N3 H2 1_555 1_555
N4 H3 1_555 1_555
N5 H4 1_555 1_555
N6 C22 1_555 1_555
C1 C2 1_555 1_555
C2 H5 1_555 1_555
C3 C2 1_555 1_555
H6 C3 1_555 1_555
C4 N2 1_555 1_555
C5 C4 1_555 1_555
H7 C5 1_555 1_555
C6 C1 1_555 1_555
H8 C6 1_555 1_555
C7 N2 1_555 1_555
C8 N3 1_555 1_555
H9 C8 1_555 1_555
C9 C8 1_555 1_555
H10 C9 1_555 1_555
H11 C9 1_555 1_555
C10 C9 1_555 1_555
H12 C10 1_555 1_555
H13 C10 1_555 1_555
C11 C10 1_555 1_555
C12 C11 1_555 1_555
H14 C12 1_555 1_555
C13 C8 1_555 1_555
H15 C13 1_555 1_555
H16 C13 1_555 1_555
C14 C11 1_555 1_555
C15 O4 1_555 1_555
H17 C15 1_555 1_555
H18 C15 1_555 1_555
C16 C15 1_555 1_555
H19 C16 1_555 1_555
H20 C16 1_555 1_555
H21 C16 1_555 1_555
C17 C12 1_555 1_555
H22 C17 1_555 1_555
H23 C17 1_555 1_555
C18 C11 1_555 1_555
H24 C18 1_555 1_555
H25 C18 1_555 1_555
C19 C18 1_555 1_555
H26 C19 1_555 1_555
H27 C19 1_555 1_555
C20 N4 1_555 1_555
H28 C20 1_555 1_555
C21 N4 1_555 1_555
C22 C23 1_555 1_555
C23 H29 1_555 1_555
C24 C23 1_555 1_555
H30 C24 1_555 1_555
C25 N5 1_555 1_555
C26 C25 1_555 1_555
H31 C26 1_555 1_555
C27 C22 1_555 1_555
H32 C27 1_555 1_555
O9 C29 1_555 1_555
C28 H33 1_555 1_555
H34 C28 1_555 1_555
H35 C28 1_555 1_555
C29 C28 1_555 1_555
C30 C29 1_555 1_555
H36 C30 1_555 1_555
H37 C30 1_555 1_555
H38 C30 1_555 1_555
N3 C7 1_555 1_555
N5 C21 1_555 1_555
C3 C4 1_555 1_555
C5 C6 1_555 1_555
C12 C13 1_555 1_555
C17 C20 1_555 1_555
C19 C20 1_555 1_555
C24 C25 1_555 1_555
C26 C27 1_555 1_555

#END
