
#######################################################################
#
#                 Cambridge Crystallographic Data Centre
#                                CCDC 
#
#######################################################################
#
# If this CIF has been generated from an entry in the Cambridge 
# Structural Database, then it will include bibliographic, chemical, 
# crystal, experimental, refinement or atomic coordinate data resulting 
# from the CCDC's data processing and validation procedures.
#
#######################################################################

data_FIHSAS
_chemical_formula_moiety         'C36 H26 S4'
_chemical_name_systematic        
2,13-bis(4-methylphenyl)-23,24,25,26-tetrathiapentacyclo[18.2.1.1^3,6^.1^9,12^.1^14,17^]hexacosa-1,3,5,7,9,11,13,15,17,19,21-undecaene
_symmetry_cell_setting           triclinic
_symmetry_space_group_name_H-M   'P -1'
_symmetry_Int_Tables_number      2
_space_group_name_Hall           '-P 1'
loop_
_symmetry_equiv_pos_site_id
_symmetry_equiv_pos_as_xyz
1 x,y,z
2 -x,-y,-z
_cell_length_a                   7.262(3)
_cell_length_b                   9.148(5)
_cell_length_c                   11.131(5)
_cell_angle_alpha                102.635(8)
_cell_angle_beta                 94.961(7)
_cell_angle_gamma                106.756(5)
_cell_volume                     682.013
_exptl_crystal_colour            black
_exptl_crystal_description       plate
_cell_formula_units_Z            1
loop_
_atom_site_label
_atom_site_type_symbol
_atom_site_fract_x
_atom_site_fract_y
_atom_site_fract_z
S1 S 0.13085(6) 0.31345(5) 0.47879(4)
S2 S 0.23825(6) 0.64082(5) 0.65208(4)
C1 C 0.9998(3) 0.2635(3) 0.98348(19)
H1 H 1.1289 0.2882 0.9582
H2 H 0.9470 0.1495 0.9743
H3 H 1.0107 0.3199 1.0708
C2 C 0.8655(3) 0.3140(2) 0.90210(17)
C3 C 0.6930(3) 0.3320(2) 0.93982(17)
H4 H 0.6624 0.3147 1.0179
C4 C 0.5661(3) 0.3749(2) 0.86468(17)
H5 H 0.4503 0.3876 0.8926
C5 C 0.6050(3) 0.3998(2) 0.74891(17)
C6 C 0.7788(3) 0.3846(2) 0.71198(17)
H6 H 0.8098 0.4024 0.6341
C7 C 0.9078(3) 0.3435(2) 0.78876(17)
H7 H 1.0266 0.3355 0.7629
C8 C 0.4549(3) 0.4357(2) 0.66898(17)
C9 C 0.3385(3) 0.3101(2) 0.56975(17)
C10 C 0.3655(3) 0.1620(2) 0.52772(18)
H8 H 0.4691 0.1343 0.5648
C11 C 0.2290(3) 0.0608(2) 0.42831(19)
H9 H 0.2326 -0.0416 0.3898
C12 C 0.0833(3) 0.1214(2) 0.38832(17)
C13 C -0.0738(3) 0.0306(2) 0.29332(18)
H10 H -0.0612 -0.0693 0.2565
C14 C 0.4346(3) 0.5862(2) 0.70700(17)
C15 C 0.5679(3) 0.7174(2) 0.79531(17)
H11 H 0.6863 0.7140 0.8362
C16 C 0.5111(3) 0.8502(2) 0.81679(18)
H12 H 0.5877 0.9468 0.8737
C17 C 0.3302(3) 0.8321(2) 0.74781(17)
C18 C 0.2429(3) 0.9517(2) 0.76113(18)
H13 H 0.3185 1.0440 0.8231
S1A S -0.13085(6) 0.68655(5) 0.52121(4)
S2A S -0.23825(6) 0.35918(5) 0.34792(4)
C1A C -0.9998(3) 0.7365(3) 0.01652(19)
H1A H -1.1289 0.7118 0.0418
H2A H -0.9470 0.8505 0.0257
H3A H -1.0107 0.6801 -0.0708
C2A C -0.8655(3) 0.6860(2) 0.09790(17)
C3A C -0.6930(3) 0.6680(2) 0.06018(17)
H4A H -0.6624 0.6853 -0.0179
C4A C -0.5661(3) 0.6251(2) 0.13532(17)
H5A H -0.4503 0.6124 0.1074
C5A C -0.6050(3) 0.6002(2) 0.25109(17)
C6A C -0.7788(3) 0.6154(2) 0.28802(17)
H6A H -0.8098 0.5976 0.3659
C7A C -0.9078(3) 0.6565(2) 0.21124(17)
H7A H -1.0266 0.6645 0.2371
C8A C -0.4549(3) 0.5643(2) 0.33102(17)
C9A C -0.3385(3) 0.6899(2) 0.43025(17)
C10A C -0.3655(3) 0.8380(2) 0.47228(18)
H8A H -0.4691 0.8657 0.4352
C11A C -0.2290(3) 0.9392(2) 0.57169(19)
H9A H -0.2326 1.0416 0.6102
C12A C -0.0833(3) 0.8786(2) 0.61168(17)
C13A C 0.0738(3) 0.9694(2) 0.70668(18)
H10A H 0.0612 1.0693 0.7435
C14A C -0.4346(3) 0.4138(2) 0.29300(17)
C15A C -0.5679(3) 0.2826(2) 0.20469(17)
H11A H -0.6863 0.2860 0.1638
C16A C -0.5111(3) 0.1498(2) 0.18321(18)
H12A H -0.5877 0.0532 0.1263
C17A C -0.3302(3) 0.1679(2) 0.25219(17)
C18A C -0.2429(3) 0.0483(2) 0.23887(18)
H13A H -0.3185 -0.0440 0.1769
loop_
_geom_bond_atom_site_label_1
_geom_bond_atom_site_label_2
_geom_bond_site_symmetry_1
_geom_bond_site_symmetry_2
S1 C9 1_555 1_555
S2 C14 1_555 1_555
C1 H1 1_555 1_555
H2 C1 1_555 1_555
H3 C1 1_555 1_555
C2 C1 1_555 1_555
C3 C2 1_555 1_555
H4 C3 1_555 1_555
C4 C3 1_555 1_555
H5 C4 1_555 1_555
C5 C4 1_555 1_555
C6 C5 1_555 1_555
H6 C6 1_555 1_555
C7 C2 1_555 1_555
H7 C7 1_555 1_555
C8 C5 1_555 1_555
C9 C8 1_555 1_555
C10 C9 1_555 1_555
H8 C10 1_555 1_555
C11 C10 1_555 1_555
H9 C11 1_555 1_555
C12 S1 1_555 1_555
C13 C12 1_555 1_555
H10 C13 1_555 1_555
C14 C8 1_555 1_555
C15 C14 1_555 1_555
H11 C15 1_555 1_555
C16 C15 1_555 1_555
H12 C16 1_555 1_555
C17 S2 1_555 1_555
C18 C17 1_555 1_555
H13 C18 1_555 1_555
S1A C9A 1_555 1_555
S2A C14A 1_555 1_555
C1A H1A 1_555 1_555
H2A C1A 1_555 1_555
H3A C1A 1_555 1_555
C2A C1A 1_555 1_555
C3A C2A 1_555 1_555
H4A C3A 1_555 1_555
C4A C3A 1_555 1_555
H5A C4A 1_555 1_555
C5A C4A 1_555 1_555
C6A C5A 1_555 1_555
H6A C6A 1_555 1_555
C7A C2A 1_555 1_555
H7A C7A 1_555 1_555
C8A C5A 1_555 1_555
C9A C8A 1_555 1_555
C10A C9A 1_555 1_555
H8A C10A 1_555 1_555
C11A C10A 1_555 1_555
H9A C11A 1_555 1_555
C12A S1A 1_555 1_555
C13A C18 1_555 1_555
H10A C13A 1_555 1_555
C14A C8A 1_555 1_555
C15A C14A 1_555 1_555
H11A C15A 1_555 1_555
C16A C15A 1_555 1_555
H12A C16A 1_555 1_555
C17A S2A 1_555 1_555
C18A C13 1_555 1_555
H13A C18A 1_555 1_555
C6 C7 1_555 1_555
C11 C12 1_555 1_555
C16 C17 1_555 1_555
C6A C7A 1_555 1_555
C11A C12A 1_555 1_555
C12A C13A 1_555 1_555
C16A C17A 1_555 1_555
C17A C18A 1_555 1_555

#END
