
#######################################################################
#
#                 Cambridge Crystallographic Data Centre
#                                CCDC 
#
#######################################################################
#
# If this CIF has been generated from an entry in the Cambridge 
# Structural Database, then it will include bibliographic, chemical, 
# crystal, experimental, refinement or atomic coordinate data resulting 
# from the CCDC's data processing and validation procedures.
#
#######################################################################

data_FIHTOI
_chemical_formula_moiety         
'2(C27 H32 N6 O8),2(C4 H12 N1 1+),O4 S1 2-,2(H2 O1)'
_chemical_name_systematic        
'bis(tetramethylammonium) bis(ethyl 2,7-bis{[(4-nitrophenyl)carbamoyl]amino}octahydronaphthalene-4a(2H)-carboxylate) sulfate dihydrate'
_symmetry_cell_setting           orthorhombic
_symmetry_space_group_name_H-M   'F d d d'
_symmetry_Int_Tables_number      70
_space_group_name_Hall           '-F 2uv 2vw'
loop_
_symmetry_equiv_pos_site_id
_symmetry_equiv_pos_as_xyz
1 x,y,z
2 1/4-x,1/4-y,z
3 x,1/4-y,1/4-z
4 1/4-x,y,1/4-z
5 x,1/2+y,1/2+z
6 1/4-x,3/4-y,1/2+z
7 x,3/4-y,3/4-z
8 1/4-x,1/2+y,3/4-z
9 1/2+x,y,1/2+z
10 3/4-x,1/4-y,1/2+z
11 1/2+x,1/4-y,3/4-z
12 3/4-x,y,3/4-z
13 1/2+x,1/2+y,z
14 3/4-x,3/4-y,z
15 1/2+x,3/4-y,1/4-z
16 3/4-x,1/2+y,1/4-z
17 -x,-y,-z
18 3/4+x,3/4+y,-z
19 -x,3/4+y,3/4+z
20 3/4+x,-y,3/4+z
21 -x,1/2-y,1/2-z
22 3/4+x,1/4+y,1/2-z
23 -x,1/4+y,1/4+z
24 3/4+x,1/2-y,1/4+z
25 1/2-x,-y,1/2-z
26 1/4+x,3/4+y,1/2-z
27 1/2-x,3/4+y,1/4+z
28 1/4+x,-y,1/4+z
29 1/2-x,1/2-y,-z
30 1/4+x,1/4+y,-z
31 1/2-x,1/4+y,3/4+z
32 1/4+x,1/2-y,3/4+z
_cell_length_a                   24.2871(15)
_cell_length_b                   25.8633(8)
_cell_length_c                   44.6306(17)
_cell_angle_alpha                90
_cell_angle_beta                 90
_cell_angle_gamma                90
_cell_volume                     28034.5
_exptl_crystal_colour            colorless
_exptl_crystal_description       plate
_cell_formula_units_Z            16
loop_
_atom_site_label
_atom_site_type_symbol
_atom_site_fract_x
_atom_site_fract_y
_atom_site_fract_z
S1 S 0.1250 0.6250 0.32449(4)
O1 O 0.1679(2) 0.64608(14) 0.30564(10)
O2 O 0.1067(3) 0.66621(16) 0.34460(11)
O1A O 0.0821(2) 0.60392(14) 0.30564(10)
O2A O 0.1433(3) 0.58379(16) 0.34460(11)
O3 O 0.0614(2) 0.74889(16) 0.22998(9)
C1 C 0.0715(3) 0.7211(2) 0.25166(14)
N1 N 0.1920(3) 0.62962(19) 0.40072(12)
H1 H 0.1842 0.6186 0.3830
O4 O 0.1977(3) 0.88865(17) 0.32667(13)
N2 N 0.0907(3) 0.7399(2) 0.27832(12)
H2 H 0.0954 0.7193 0.2932
N3 N 0.1983(3) 0.70853(17) 0.37808(13)
H3 H 0.1842 0.6943 0.3624
N4 N 0.0633(2) 0.66751(18) 0.25106(11)
H4 H 0.0657 0.6518 0.2680
O5 O 0.0391(3) 0.4887(2) 0.15770(13)
C2 C 0.1077(3) 0.8085(2) 0.31529(13)
H5 H 0.1088 0.8457 0.3178
H6 H 0.0753 0.7956 0.3256
O6 O 0.2348(3) 0.6969(2) 0.42469(13)
C3 C 0.1613(4) 0.7944(2) 0.36350(14)
H7 H 0.1655 0.8312 0.3672
H8 H 0.1269 0.7833 0.3725
C4 C 0.1594(4) 0.7846(2) 0.32929(13)
H9 H 0.1551 0.7472 0.3270
C5 C 0.2048(4) 0.7834(2) 0.27970(14)
H10 H 0.2377 0.7927 0.2686
H11 H 0.2006 0.7461 0.2783
C6 C 0.1559(4) 0.5100(2) 0.43836(14)
H12 H 0.1434 0.4771 0.4334
C7 C 0.1573(4) 0.8078(2) 0.26552(14)
H13 H 0.1549 0.7964 0.2449
H14 H 0.1626 0.8450 0.2654
O7 O 0.1374(4) 0.4421(2) 0.48427(14)
C8 C 0.1847(4) 0.5949(2) 0.42376(14)
C9 C 0.1923(4) 0.6076(2) 0.45416(14)
H15 H 0.2056 0.6400 0.4595
O8 O 0.2741(3) 0.86643(18) 0.30029(12)
C10 C 0.0516(3) 0.6365(2) 0.22630(13)
C11 C 0.0336(4) 0.5698(3) 0.17986(15)
O9 O 0.0009(4) 0.5509(3) 0.13236(14)
N5 N 0.0263(4) 0.5333(3) 0.15508(14)
C12 C 0.0440(3) 0.5490(2) 0.20783(15)
H16 H 0.0457 0.5134 0.2109
C13 C 0.2268(4) 0.8568(3) 0.31468(15)
C14 C 0.2587(4) 0.7673(3) 0.32811(17)
H17 H 0.2937 0.7764 0.3190
H18 H 0.2524 0.7308 0.3245
C15 C 0.2133(4) 0.7983(2) 0.31324(16)
O10 O 0.1487(3) 0.5016(3) 0.51755(12)
C16 C 0.1034(4) 0.7953(2) 0.28150(14)
H19 H 0.0736 0.8156 0.2725
C17 C 0.0516(3) 0.5835(2) 0.23085(14)
H20 H 0.0570 0.5709 0.2501
N6 N 0.1485(3) 0.4863(3) 0.49150(14)
C18 C 0.1803(3) 0.5724(2) 0.47569(14)
H21 H 0.1843 0.5811 0.4958
C19 C 0.2096(4) 0.7649(2) 0.37829(15)
H22 H 0.2131 0.7764 0.3991
C20 C 0.1622(3) 0.5238(2) 0.46793(14)
C21 C 0.2101(4) 0.6793(2) 0.40270(15)
C22 C 0.2908(5) 0.9205(3) 0.29977(19)
H23 H 0.3301 0.9228 0.2961
H24 H 0.2832 0.9363 0.3190
C23 C 0.1679(4) 0.5448(2) 0.41639(14)
H25 H 0.1649 0.5351 0.3964
C24 C 0.2620(5) 0.7769(3) 0.36219(19)
H26 H 0.2913 0.7557 0.3705
H27 H 0.2715 0.8128 0.3657
C25 C 0.2611(6) 0.9483(3) 0.2762(2)
H28 H 0.2725 0.9357 0.2570
H29 H 0.2690 0.9845 0.2777
H30 H 0.2222 0.9428 0.2786
C26 C 0.0287(6) 0.6222(3) 0.17518(18)
H31 H 0.0170 0.6347 0.1567
C27 C 0.0412(5) 0.6557(3) 0.19795(17)
H32 H 0.0427 0.6911 0.1944
N7 N 0.3091(3) 0.5925(2) 0.32601(13)
C28 C 0.3005(3) 0.6205(2) 0.29583(14)
H33 H 0.3293 0.6455 0.2930
H34 H 0.2655 0.6378 0.2960
H35 H 0.3014 0.5958 0.2798
C29 C 0.3051(5) 0.6311(3) 0.35045(18)
H36 H 0.2704 0.6486 0.3492
H37 H 0.3344 0.6558 0.3485
H38 H 0.3080 0.6139 0.3695
C30 C 0.3650(4) 0.5671(4) 0.32671(18)
H39 H 0.3923 0.5912 0.3198
H40 H 0.3649 0.5373 0.3139
H41 H 0.3735 0.5568 0.3468
C31 C 0.2649(4) 0.5524(3) 0.3303(2)
H42 H 0.2628 0.5308 0.3129
H43 H 0.2301 0.5693 0.3334
H44 H 0.2735 0.5316 0.3475
O11 O 0.0944(5) 0.4462(4) 0.5699(2)
H45 H 0.0601 0.4446 0.5725
H46 H 0.1098 0.4619 0.5547
loop_
_geom_bond_atom_site_label_1
_geom_bond_atom_site_label_2
_geom_bond_site_symmetry_1
_geom_bond_site_symmetry_2
S1 O1 1_555 1_555
O2 S1 1_555 1_555
O3 C1 1_555 1_555
C1 N2 1_555 1_555
N1 H1 1_555 1_555
O4 C13 1_555 1_555
N2 H2 1_555 1_555
N3 H3 1_555 1_555
N4 C1 1_555 1_555
H4 N4 1_555 1_555
O5 N5 1_555 1_555
C2 H5 1_555 1_555
H6 C2 1_555 1_555
O6 C21 1_555 1_555
C3 H7 1_555 1_555
H8 C3 1_555 1_555
C4 C2 1_555 1_555
H9 C4 1_555 1_555
C5 H10 1_555 1_555
H11 C5 1_555 1_555
C6 H12 1_555 1_555
C7 C5 1_555 1_555
H13 C7 1_555 1_555
H14 C7 1_555 1_555
O7 N6 1_555 1_555
C8 N1 1_555 1_555
C9 C8 1_555 1_555
H15 C9 1_555 1_555
O8 C13 1_555 1_555
C10 N4 1_555 1_555
C11 N5 1_555 1_555
O9 N5 1_555 1_555
C12 C11 1_555 1_555
H16 C12 1_555 1_555
C13 C15 1_555 1_555
C14 H17 1_555 1_555
H18 C14 1_555 1_555
C15 C4 1_555 1_555
O10 N6 1_555 1_555
C16 N2 1_555 1_555
H19 C16 1_555 1_555
C17 C10 1_555 1_555
H20 C17 1_555 1_555
N6 C20 1_555 1_555
C18 C9 1_555 1_555
H21 C18 1_555 1_555
C19 N3 1_555 1_555
H22 C19 1_555 1_555
C20 C6 1_555 1_555
C21 N1 1_555 1_555
C22 O8 1_555 1_555
H23 C22 1_555 1_555
H24 C22 1_555 1_555
C23 C6 1_555 1_555
H25 C23 1_555 1_555
C24 C14 1_555 1_555
H26 C24 1_555 1_555
H27 C24 1_555 1_555
C25 C22 1_555 1_555
H28 C25 1_555 1_555
H29 C25 1_555 1_555
H30 C25 1_555 1_555
C26 C11 1_555 1_555
H31 C26 1_555 1_555
C27 C10 1_555 1_555
H32 C27 1_555 1_555
N7 C28 1_555 1_555
C28 H33 1_555 1_555
H34 C28 1_555 1_555
H35 C28 1_555 1_555
C29 N7 1_555 1_555
H36 C29 1_555 1_555
H37 C29 1_555 1_555
H38 C29 1_555 1_555
C30 N7 1_555 1_555
H39 C30 1_555 1_555
H40 C30 1_555 1_555
H41 C30 1_555 1_555
C31 N7 1_555 1_555
H42 C31 1_555 1_555
H43 C31 1_555 1_555
H44 C31 1_555 1_555
O11 H45 1_555 1_555
H46 O11 1_555 1_555
O1A S1 1_555 1_555
O2A S1 1_555 1_555
N3 C21 1_555 1_555
C2 C16 1_555 1_555
C3 C4 1_555 1_555
C3 C19 1_555 1_555
C5 C15 1_555 1_555
C7 C16 1_555 1_555
C8 C23 1_555 1_555
C12 C17 1_555 1_555
C14 C15 1_555 1_555
C18 C20 1_555 1_555
C19 C24 1_555 1_555
C26 C27 1_555 1_555

#END
