
#######################################################################
#
#                 Cambridge Crystallographic Data Centre
#                                CCDC 
#
#######################################################################
#
# If this CIF has been generated from an entry in the Cambridge 
# Structural Database, then it will include bibliographic, chemical, 
# crystal, experimental, refinement or atomic coordinate data resulting 
# from the CCDC's data processing and validation procedures.
#
#######################################################################

data_FIHTUO
_chemical_formula_moiety         'C27 H32 N6 O8,H2 O1'
_chemical_name_systematic        
'ethyl 2,7-bis{[(4-nitrophenyl)carbamoyl]amino}octahydronaphthalene-4a(2H)-carboxylate monohydrate'
_symmetry_cell_setting           rhombohedral
_symmetry_space_group_name_H-M   'R -3'
_symmetry_Int_Tables_number      148
_space_group_name_Hall           '-R 3'
loop_
_symmetry_equiv_pos_site_id
_symmetry_equiv_pos_as_xyz
1 x,y,z
2 -y,x-y,z
3 -x+y,-x,z
4 2/3+x,1/3+y,1/3+z
5 2/3-y,1/3+x-y,1/3+z
6 2/3-x+y,1/3-x,1/3+z
7 1/3+x,2/3+y,2/3+z
8 1/3-y,2/3+x-y,2/3+z
9 1/3-x+y,2/3-x,2/3+z
10 -x,-y,-z
11 y,-x+y,-z
12 x-y,x,-z
13 1/3-x,2/3-y,2/3-z
14 1/3+y,2/3-x+y,2/3-z
15 1/3+x-y,2/3+x,2/3-z
16 2/3-x,1/3-y,1/3-z
17 2/3+y,1/3-x+y,1/3-z
18 2/3+x-y,1/3+x,1/3-z
_cell_length_a                   46.5005(10)
_cell_length_b                   46.5005(10)
_cell_length_c                   6.79920(16)
_cell_angle_alpha                90
_cell_angle_beta                 90
_cell_angle_gamma                120
_cell_volume                     12732.2
_exptl_crystal_colour            yellow
_exptl_crystal_description       plate
_cell_formula_units_Z            18
loop_
_atom_site_label
_atom_site_type_symbol
_atom_site_fract_x
_atom_site_fract_y
_atom_site_fract_z
O1 O 0.13534(9) 0.26055(7) 0.6926(4)
O2 O 0.23482(8) 0.17926(7) -0.1509(4)
O3 O 0.30766(8) 0.30100(7) -0.9854(4)
O4 O 0.31947(8) 0.26151(8) -0.9935(4)
O5 O 0.12828(12) 0.40262(12) 0.7146(8)
O6 O 0.12216(9) 0.40841(8) 0.4037(7)
O7 O 0.08883(7) 0.09113(7) 0.2702(4)
O8 O 0.11700(7) 0.11399(7) 0.5463(4)
N1 N 0.12420(8) 0.22627(8) 0.4315(4)
H1 H 0.1252 0.2255 0.3055
N2 N 0.12954(7) 0.27714(7) 0.3848(4)
H2 H 0.1294 0.2727 0.2619
N3 N 0.24123(8) 0.23090(8) -0.1917(4)
H3 H 0.2331(11) 0.2434(11) -0.152(6)
N4 N 0.20869(8) 0.19720(8) 0.0548(5)
H4 H 0.2109(10) 0.2149(11) 0.088(6)
N5 N 0.12579(10) 0.39317(10) 0.5411(8)
N6 N 0.30741(8) 0.27697(8) -0.9127(5)
C1 C 0.12732(9) 0.36366(10) 0.5014(7)
C2 C 0.13733(10) 0.35025(10) 0.6499(6)
H5 H 0.1430 0.3603 0.7729
C3 C 0.13883(10) 0.32218(10) 0.6146(6)
H6 H 0.1461 0.3135 0.7132
C4 C 0.12948(8) 0.30616(9) 0.4300(5)
C5 C 0.11973(9) 0.32069(9) 0.2822(6)
H7 H 0.1138 0.3107 0.1591
C6 C 0.11881(9) 0.34910(10) 0.3157(6)
H8 H 0.1126 0.3586 0.2162
C7 C 0.12984(9) 0.25460(9) 0.5147(5)
C8 C 0.11626(10) 0.19626(9) 0.5448(5)
H9 H 0.1103 0.1991 0.6787
C9 C 0.08600(10) 0.16644(10) 0.4512(6)
H10 H 0.0779 0.1476 0.5394
H11 H 0.0684 0.1717 0.4348
C10 C 0.09382(10) 0.15685(10) 0.2520(6)
H12 H 0.0997 0.1748 0.1595
H13 H 0.0741 0.1374 0.2027
C11 C 0.12265(8) 0.14937(8) 0.2642(5)
C12 C 0.15298(8) 0.17952(8) 0.3599(5)
H14 H 0.1594 0.1982 0.2701
C13 C 0.14538(9) 0.19012(9) 0.5575(5)
H15 H 0.1404 0.1729 0.6543
H16 H 0.1649 0.2102 0.6017
C14 C 0.18295(9) 0.17461(9) 0.3734(5)
H17 H 0.1778 0.1565 0.4635
H18 H 0.2015 0.1946 0.4279
C15 C 0.19339(9) 0.16704(9) 0.1765(5)
H19 H 0.2098 0.1600 0.2000
C16 C 0.16325(10) 0.13896(9) 0.0700(5)
H20 H 0.1697 0.1367 -0.0623
H21 H 0.1563 0.1182 0.1385
C17 C 0.13401(9) 0.14518(9) 0.0591(5)
H22 H 0.1156 0.1267 -0.0075
H23 H 0.1404 0.1651 -0.0178
C18 C 0.11002(9) 0.11711(9) 0.3801(5)
C19 C 0.07636(10) 0.05796(9) 0.3475(6)
H24 H 0.0537 0.0490 0.3935
H25 H 0.0900 0.0584 0.4567
C20 C 0.07759(19) 0.03767(14) 0.1878(8)
H26 H 0.0630 0.0364 0.0838
H27 H 0.0706 0.0157 0.2358
H28 H 0.0999 0.0475 0.1387
C21 C 0.22861(9) 0.20103(9) -0.0979(5)
C22 C 0.25980(8) 0.24171(9) -0.3671(5)
C23 C 0.26628(9) 0.22134(9) -0.4853(5)
H29 H 0.2597 0.1998 -0.4459
C24 C 0.28272(9) 0.23339(9) -0.6631(5)
H30 H 0.2877 0.2202 -0.7423
C25 C 0.29146(9) 0.26512(9) -0.7205(5)
C26 C 0.28604(10) 0.28601(9) -0.6032(5)
H31 H 0.2929 0.3077 -0.6422
C27 C 0.27016(9) 0.27385(9) -0.4262(5)
H32 H 0.2663 0.2876 -0.3444
O9 O 0.11046(7) 0.23419(8) 0.0404(4)
H33 H 0.0918 0.2332 0.0354
H34 H 0.1223 0.2453 -0.0566
loop_
_geom_bond_atom_site_label_1
_geom_bond_atom_site_label_2
_geom_bond_site_symmetry_1
_geom_bond_site_symmetry_2
O1 C7 1_555 1_555
O2 C21 1_555 1_555
O3 N6 1_555 1_555
O4 N6 1_555 1_555
O5 N5 1_555 1_555
O6 N5 1_555 1_555
O7 C18 1_555 1_555
O8 C18 1_555 1_555
N1 H1 1_555 1_555
N2 H2 1_555 1_555
N3 H3 1_555 1_555
N4 H4 1_555 1_555
N5 C1 1_555 1_555
N6 C25 1_555 1_555
C1 C2 1_555 1_555
C2 H5 1_555 1_555
C3 C2 1_555 1_555
H6 C3 1_555 1_555
C4 N2 1_555 1_555
C5 C4 1_555 1_555
H7 C5 1_555 1_555
C6 C1 1_555 1_555
H8 C6 1_555 1_555
C7 N1 1_555 1_555
C8 N1 1_555 1_555
H9 C8 1_555 1_555
C9 C8 1_555 1_555
H10 C9 1_555 1_555
H11 C9 1_555 1_555
C10 C9 1_555 1_555
H12 C10 1_555 1_555
H13 C10 1_555 1_555
C11 C10 1_555 1_555
C12 C11 1_555 1_555
H14 C12 1_555 1_555
C13 C8 1_555 1_555
H15 C13 1_555 1_555
H16 C13 1_555 1_555
C14 C12 1_555 1_555
H17 C14 1_555 1_555
H18 C14 1_555 1_555
C15 N4 1_555 1_555
H19 C15 1_555 1_555
C16 C15 1_555 1_555
H20 C16 1_555 1_555
H21 C16 1_555 1_555
C17 C11 1_555 1_555
H22 C17 1_555 1_555
H23 C17 1_555 1_555
C18 C11 1_555 1_555
C19 O7 1_555 1_555
H24 C19 1_555 1_555
H25 C19 1_555 1_555
C20 C19 1_555 1_555
H26 C20 1_555 1_555
H27 C20 1_555 1_555
H28 C20 1_555 1_555
C21 N3 1_555 1_555
C22 N3 1_555 1_555
C23 C22 1_555 1_555
H29 C23 1_555 1_555
C24 C23 1_555 1_555
H30 C24 1_555 1_555
C25 C24 1_555 1_555
C26 C25 1_555 1_555
H31 C26 1_555 1_555
C27 C22 1_555 1_555
H32 C27 1_555 1_555
O9 H33 1_555 1_555
H34 O9 1_555 1_555
N2 C7 1_555 1_555
N4 C21 1_555 1_555
C3 C4 1_555 1_555
C5 C6 1_555 1_555
C12 C13 1_555 1_555
C14 C15 1_555 1_555
C16 C17 1_555 1_555
C26 C27 1_555 1_555

#END
