
#######################################################################
#
#                 Cambridge Crystallographic Data Centre
#                                CCDC 
#
#######################################################################
#
# If this CIF has been generated from an entry in the Cambridge 
# Structural Database, then it will include bibliographic, chemical, 
# crystal, experimental, refinement or atomic coordinate data resulting 
# from the CCDC's data processing and validation procedures.
#
#######################################################################

data_FIHWAX
_chemical_formula_moiety         'C25 H21 N3 O2'
_chemical_name_systematic        
2'-(N-hydroxyethanimidoyl)-3-methyl-N-(quinolin-8-yl)[1,1'-biphenyl]-2-carboxamide
_symmetry_cell_setting           orthorhombic
_symmetry_space_group_name_H-M   'P n a 21'
_symmetry_Int_Tables_number      33
_space_group_name_Hall           'P 2c -2n'
loop_
_symmetry_equiv_pos_site_id
_symmetry_equiv_pos_as_xyz
1 x,y,z
2 -x,-y,1/2+z
3 1/2-x,1/2+y,1/2+z
4 1/2+x,1/2-y,z
_cell_length_a                   8.3711(5)
_cell_length_b                   13.4125(9)
_cell_length_c                   18.3318(11)
_cell_angle_alpha                90
_cell_angle_beta                 90
_cell_angle_gamma                90
_cell_volume                     2058.25
_exptl_crystal_colour            'light yellow'
_exptl_crystal_description       block
_cell_formula_units_Z            4
loop_
_atom_site_label
_atom_site_type_symbol
_atom_site_fract_x
_atom_site_fract_y
_atom_site_fract_z
O1 O 0.2105(3) 0.59387(18) 0.42241(12)
O2 O -0.2093(3) 0.3572(2) 0.77346(13)
H1 H -0.226582 0.360062 0.817445
N1 N 0.0769(3) 0.2496(2) 0.48013(16)
N2 N 0.1120(3) 0.4420(2) 0.45388(15)
H2 H 0.047374 0.413938 0.483992
N3 N -0.0595(3) 0.4014(2) 0.75801(14)
C1 C 0.0555(5) 0.1541(3) 0.4941(2)
H3 H -0.008852 0.136794 0.533493
C2 C 0.1241(6) 0.0774(3) 0.4532(3)
H4 H 0.107180 0.011113 0.465920
C3 C 0.2146(6) 0.1004(4) 0.3953(3)
H5 H 0.259860 0.049878 0.367372
C4 C 0.2413(4) 0.2009(3) 0.3765(2)
C5 C 0.1703(4) 0.2734(3) 0.42161(19)
C6 C 0.1928(4) 0.3765(3) 0.40608(18)
C7 C 0.2831(4) 0.4041(3) 0.3479(2)
H6 H 0.298194 0.471291 0.337449
C8 C 0.3541(5) 0.3301(4) 0.3033(2)
H7 H 0.416043 0.349607 0.263648
C9 C 0.3342(5) 0.2322(4) 0.3168(2)
H8 H 0.381931 0.185139 0.286552
C10 C 0.1213(4) 0.5422(2) 0.45926(17)
C11 C 0.0079(4) 0.5878(2) 0.51402(16)
C12 C -0.1165(4) 0.6479(2) 0.48708(17)
C13 C -0.2222(4) 0.6901(3) 0.5359(2)
H9 H -0.306743 0.728224 0.518446
C14 C -0.2052(4) 0.6769(3) 0.6101(2)
H10 H -0.276348 0.707214 0.642106
C15 C -0.0829(4) 0.6188(3) 0.63659(18)
H11 H -0.072387 0.609946 0.686675
C16 C 0.0259(4) 0.5730(2) 0.58946(16)
C17 C 0.1620(4) 0.5158(2) 0.62194(16)
C18 C 0.1366(4) 0.4398(3) 0.67260(16)
C19 C 0.2671(4) 0.3971(3) 0.70763(19)
H12 H 0.250338 0.345863 0.740937
C20 C 0.4203(4) 0.4290(3) 0.6941(2)
H13 H 0.505939 0.400509 0.718819
C21 C 0.4461(4) 0.5037(3) 0.6436(2)
H14 H 0.549549 0.525001 0.633577
C22 C 0.3176(4) 0.5467(3) 0.6079(2)
H15 H 0.335658 0.597006 0.573999
C23 C -0.1389(5) 0.6674(3) 0.40662(19)
H16 H -0.074855 0.723445 0.392314
H17 H -0.249303 0.681420 0.396993
H18 H -0.106644 0.609620 0.379399
C24 C -0.0266(4) 0.3999(2) 0.68994(17)
C25 C -0.1308(4) 0.3584(3) 0.63208(18)
H19 H -0.225238 0.330670 0.653805
H20 H -0.074318 0.307103 0.606200
H21 H -0.160338 0.410427 0.598763
loop_
_geom_bond_atom_site_label_1
_geom_bond_atom_site_label_2
_geom_bond_site_symmetry_1
_geom_bond_site_symmetry_2
O1 C10 1_555 1_555
O2 H1 1_555 1_555
N1 C1 1_555 1_555
N2 H2 1_555 1_555
N3 O2 1_555 1_555
C1 H3 1_555 1_555
C2 C1 1_555 1_555
H4 C2 1_555 1_555
C3 C2 1_555 1_555
H5 C3 1_555 1_555
C4 C3 1_555 1_555
C5 N1 1_555 1_555
C6 N2 1_555 1_555
C7 C6 1_555 1_555
H6 C7 1_555 1_555
C8 C7 1_555 1_555
H7 C8 1_555 1_555
C9 C4 1_555 1_555
H8 C9 1_555 1_555
C10 N2 1_555 1_555
C11 C10 1_555 1_555
C12 C11 1_555 1_555
C13 C12 1_555 1_555
H9 C13 1_555 1_555
C14 C13 1_555 1_555
H10 C14 1_555 1_555
C15 C14 1_555 1_555
H11 C15 1_555 1_555
C16 C11 1_555 1_555
C17 C16 1_555 1_555
C18 C17 1_555 1_555
C19 C18 1_555 1_555
H12 C19 1_555 1_555
C20 C19 1_555 1_555
H13 C20 1_555 1_555
C21 C20 1_555 1_555
H14 C21 1_555 1_555
C22 C17 1_555 1_555
H15 C22 1_555 1_555
C23 C12 1_555 1_555
H16 C23 1_555 1_555
H17 C23 1_555 1_555
H18 C23 1_555 1_555
C24 N3 1_555 1_555
C25 C24 1_555 1_555
H19 C25 1_555 1_555
H20 C25 1_555 1_555
H21 C25 1_555 1_555
C4 C5 1_555 1_555
C5 C6 1_555 1_555
C8 C9 1_555 1_555
C15 C16 1_555 1_555
C18 C24 1_555 1_555
C21 C22 1_555 1_555

#END
