
#######################################################################
#
#                 Cambridge Crystallographic Data Centre
#                                CCDC 
#
#######################################################################
#
# If this CIF has been generated from an entry in the Cambridge 
# Structural Database, then it will include bibliographic, chemical, 
# crystal, experimental, refinement or atomic coordinate data resulting 
# from the CCDC's data processing and validation procedures.
#
#######################################################################

data_FIHYAZ
_chemical_formula_moiety         'C18 H22 N2 O4 S2'
_chemical_name_systematic        
N,N'-(ethene-1,2-diyl)bis(N,4-dimethylbenzene-1-sulfonamide)
_symmetry_cell_setting           monoclinic
_symmetry_space_group_name_H-M   'P 21/c'
_symmetry_Int_Tables_number      14
_space_group_name_Hall           '-P 2ybc'
loop_
_symmetry_equiv_pos_site_id
_symmetry_equiv_pos_as_xyz
1 x,y,z
2 -x,1/2+y,1/2-z
3 -x,-y,-z
4 x,1/2-y,1/2+z
_cell_length_a                   14.2015(5)
_cell_length_b                   8.2920(3)
_cell_length_c                   16.3406(6)
_cell_angle_alpha                90
_cell_angle_beta                 98.594(3)
_cell_angle_gamma                90
_cell_volume                     1902.64
_exptl_crystal_colour            colorless
_exptl_crystal_description       needle
_cell_formula_units_Z            4
loop_
_atom_site_label
_atom_site_type_symbol
_atom_site_fract_x
_atom_site_fract_y
_atom_site_fract_z
S1 S 0.35707(3) 1.18855(6) 0.21196(3)
S2 S 0.07270(3) 0.73370(6) 0.15719(3)
O1 O 0.30852(11) 1.33899(18) 0.20024(10)
O2 O 0.41372(11) 1.1323(2) 0.15292(9)
O3 O 0.08624(11) 0.87145(17) 0.10818(9)
O4 O -0.01394(10) 0.71498(19) 0.19001(11)
N1 N 0.27500(11) 1.04990(18) 0.21792(10)
N2 N 0.15842(11) 0.74034(18) 0.23802(10)
C1 C 0.42859(13) 1.1942(2) 0.30956(12)
C2 C 0.50819(14) 1.0963(3) 0.32573(13)
H1 H 0.5246 1.0280 0.2850
C3 C 0.56278(14) 1.1012(3) 0.40281(13)
H2 H 0.6163 1.0356 0.4136
C4 C 0.53982(15) 1.2016(3) 0.46440(13)
C5 C 0.45981(17) 1.2967(3) 0.44749(15)
H3 H 0.4429 1.3634 0.4887
C6 C 0.40410(16) 1.2948(3) 0.37045(14)
H4 H 0.3507 1.3607 0.3597
C7 C 0.60190(19) 1.2104(4) 0.54740(16)
H5 H 0.6321 1.1080 0.5600
H6 H 0.5635 1.2369 0.5891
H7 H 0.6496 1.2919 0.5460
C8 C 0.19810(14) 1.0922(3) 0.26466(13)
H8 H 0.2116 1.0479 0.3194
H9 H 0.1390 1.0491 0.2371
H10 H 0.1933 1.2075 0.2680
C9 C 0.30066(13) 0.8892(2) 0.20895(12)
H11 H 0.3609 0.8739 0.1944
C10 C 0.25287(14) 0.7552(2) 0.21792(13)
H12 H 0.2842 0.6591 0.2103
C11 C 0.15070(19) 0.6200(3) 0.30286(14)
H13 H 0.0851 0.6078 0.3097
H14 H 0.1870 0.6552 0.3541
H15 H 0.1750 0.5184 0.2871
C12 C 0.09407(13) 0.5602(2) 0.10152(11)
C13 C 0.05359(14) 0.4145(2) 0.11809(13)
H16 H 0.0109 0.4092 0.1560
C14 C 0.07688(16) 0.2774(3) 0.07806(14)
H17 H 0.0485 0.1799 0.0885
C15 C 0.14139(15) 0.2813(2) 0.02273(12)
C16 C 0.18037(16) 0.4288(3) 0.00656(12)
H18 H 0.2232 0.4339 -0.0312
C17 C 0.15736(15) 0.5678(3) 0.04482(12)
H19 H 0.1840 0.6659 0.0328
C18 C 0.1696(2) 0.1307(3) -0.01863(15)
H20 H 0.2251 0.0848 0.0138
H21 H 0.1835 0.1568 -0.0728
H22 H 0.1183 0.0544 -0.0233
loop_
_geom_bond_atom_site_label_1
_geom_bond_atom_site_label_2
_geom_bond_site_symmetry_1
_geom_bond_site_symmetry_2
S1 O1 1_555 1_555
S2 O3 1_555 1_555
O2 S1 1_555 1_555
O4 S2 1_555 1_555
N1 S1 1_555 1_555
N2 S2 1_555 1_555
C1 S1 1_555 1_555
C2 C1 1_555 1_555
H1 C2 1_555 1_555
C3 C2 1_555 1_555
H2 C3 1_555 1_555
C4 C3 1_555 1_555
C5 C4 1_555 1_555
H3 C5 1_555 1_555
C6 C1 1_555 1_555
H4 C6 1_555 1_555
C7 C4 1_555 1_555
H5 C7 1_555 1_555
H6 C7 1_555 1_555
H7 C7 1_555 1_555
C8 N1 1_555 1_555
H8 C8 1_555 1_555
H9 C8 1_555 1_555
H10 C8 1_555 1_555
C9 N1 1_555 1_555
H11 C9 1_555 1_555
C10 N2 1_555 1_555
H12 C10 1_555 1_555
C11 N2 1_555 1_555
H13 C11 1_555 1_555
H14 C11 1_555 1_555
H15 C11 1_555 1_555
C12 S2 1_555 1_555
C13 C12 1_555 1_555
H16 C13 1_555 1_555
C14 C13 1_555 1_555
H17 C14 1_555 1_555
C15 C14 1_555 1_555
C16 C15 1_555 1_555
H18 C16 1_555 1_555
C17 C12 1_555 1_555
H19 C17 1_555 1_555
C18 C15 1_555 1_555
H20 C18 1_555 1_555
H21 C18 1_555 1_555
H22 C18 1_555 1_555
C5 C6 1_555 1_555
C9 C10 1_555 1_555
C16 C17 1_555 1_555

#END
