
#######################################################################
#
#                 Cambridge Crystallographic Data Centre
#                                CCDC 
#
#######################################################################
#
# If this CIF has been generated from an entry in the Cambridge 
# Structural Database, then it will include bibliographic, chemical, 
# crystal, experimental, refinement or atomic coordinate data resulting 
# from the CCDC's data processing and validation procedures.
#
#######################################################################

data_FIHYED
_chemical_compound_source        
'an aciduric fungus Penicillium camemberti OUCMDZ-1492'
_chemical_name_common            'secopaxilline A'
_chemical_formula_moiety         'C29 H37 N1 O7'
_chemical_name_systematic        
N-{2-[4b,8-dihydroxy-2-(2-hydroxypropan-2-yl)-9a,9b-dimethyl-3,9-dioxo-2,3,4b,5,6,6a,7,8,9,9a,9b,10,11,11a-tetradecahydrocyclopenta[5,6]naphtho[2,1-b]pyran-8-yl]phenyl}acetamide
_symmetry_cell_setting           monoclinic
_symmetry_space_group_name_H-M   'P 21'
_symmetry_Int_Tables_number      4
_space_group_name_Hall           'P 2yb'
loop_
_symmetry_equiv_pos_site_id
_symmetry_equiv_pos_as_xyz
1 x,y,z
2 -x,1/2+y,-z
_cell_length_a                   12.2892(6)
_cell_length_b                   11.6999(5)
_cell_length_c                   19.3795(9)
_cell_angle_alpha                90
_cell_angle_beta                 103.521(5)
_cell_angle_gamma                90
_cell_volume                     2709.2
_cell_formula_units_Z            4
loop_
_atom_site_label
_atom_site_type_symbol
_atom_site_fract_x
_atom_site_fract_y
_atom_site_fract_z
N1 N 0.8568(3) 0.3287(3) 0.11546(17)
H1 H 0.8551 0.3436 0.1587
O1 O 0.7210(2) 0.4632(3) 0.18009(15)
H2 H 0.7674 0.5139 0.1929
O2 O 0.6104(2) 0.6754(3) 0.1177(2)
O3 O 0.2161(2) 0.4998(2) 0.03467(13)
H3 H 0.1754 0.5556 0.0240
O4 O 0.09398(19) 0.7246(2) 0.17781(13)
O5 O -0.0163(3) 0.4844(3) 0.24396(16)
O6 O -0.1743(3) 0.6690(3) 0.2196(2)
H4 H -0.1635 0.6148 0.2472
O7 O 0.8820(3) 0.1921(3) 0.04070(14)
C1 C 0.8444(3) 0.4214(4) 0.0676(2)
C2 C 0.7537(3) 0.4955(4) 0.0617(2)
C3 C 0.7452(4) 0.5832(4) 0.0143(3)
H5 H 0.6865 0.6350 0.0099
C4 C 0.8216(4) 0.5975(5) -0.0278(3)
H6 H 0.8128 0.6571 -0.0603
C5 C 0.9101(4) 0.5237(5) -0.0212(3)
H7 H 0.9617 0.5335 -0.0490
C6 C 0.9223(3) 0.4354(4) 0.0264(2)
H8 H 0.9823 0.3852 0.0311
C7 C 0.6689(3) 0.4774(4) 0.1057(2)
C8 C 0.5831(3) 0.5771(4) 0.1045(2)
C9 C 0.4650(3) 0.5287(3) 0.0855(2)
C10 C 0.3780(3) 0.5827(3) 0.12352(19)
C11 C 0.2699(3) 0.5043(3) 0.10890(18)
C12 C 0.2975(3) 0.3800(3) 0.1276(2)
H9 H 0.2294 0.3352 0.1146
H10 H 0.3257 0.3736 0.1786
C13 C 0.3844(3) 0.3300(4) 0.0906(2)
H11 H 0.4017 0.2518 0.1059
H12 H 0.3552 0.3302 0.0396
C14 C 0.4889(3) 0.4031(3) 0.1101(2)
H13 H 0.5109 0.4049 0.1621
C15 C 0.5939(3) 0.3711(4) 0.0849(2)
H14 H 0.5767 0.3584 0.0341
H15 H 0.6291 0.3032 0.1089
C16 C 0.3426(3) 0.7050(3) 0.0981(2)
H16 H 0.4083 0.7537 0.1071
H17 H 0.3115 0.7038 0.0472
C17 C 0.2562(3) 0.7559(3) 0.1348(2)
H18 H 0.2916 0.7697 0.1843
H19 H 0.2312 0.8289 0.1131
C18 C 0.1552(3) 0.6790(3) 0.13040(19)
H20 H 0.1081 0.6837 0.0821
C19 C 0.1854(3) 0.5550(3) 0.14652(19)
C20 C 0.1330(3) 0.4970(3) 0.18773(19)
H21 H 0.1594 0.4248 0.2034
C21 C 0.0352(3) 0.5422(4) 0.2096(2)
C22 C -0.0021(3) 0.6605(3) 0.18108(19)
H22 H -0.0474 0.6515 0.1326
C23 C -0.0717(3) 0.7280(4) 0.2237(2)
C24 C -0.1001(5) 0.8436(5) 0.1894(3)
H23 H -0.1424 0.8869 0.2161
H24 H -0.1437 0.8336 0.1417
H25 H -0.0323 0.8837 0.1885
C25 C -0.0100(4) 0.7426(6) 0.2997(3)
H26 H -0.0094 0.6714 0.3243
H27 H -0.0466 0.7998 0.3217
H28 H 0.0655 0.7660 0.3016
C26 C 0.4337(4) 0.5400(4) 0.0037(2)
H29 H 0.4940 0.5117 -0.0153
H30 H 0.4204 0.6190 -0.0091
H31 H 0.3672 0.4965 -0.0153
C27 C 0.4291(3) 0.5873(4) 0.2045(2)
H32 H 0.3744 0.6160 0.2282
H33 H 0.4932 0.6368 0.2139
H34 H 0.4515 0.5118 0.2216
C28 C 0.8708(3) 0.2202(4) 0.0990(2)
C29 C 0.8705(5) 0.1335(4) 0.1548(2)
H35 H 0.9461 0.1133 0.1773
H36 H 0.8309 0.0667 0.1336
H37 H 0.8342 0.1644 0.1894
N2 N -0.2793(2) 0.1936(3) 0.52122(17)
H38 H -0.2344 0.1377 0.5199
O8 O -0.1401(2) 0.0798(3) 0.45075(15)
H39 H -0.1721 0.0519 0.4126
O9 O -0.0850(2) 0.1597(4) 0.32226(14)
O10 O 0.3105(2) 0.3117(2) 0.42571(15)
H40 H 0.3410 0.3380 0.4646
O11 O 0.43803(19) 0.0792(3) 0.29725(13)
O12 O 0.6096(2) -0.0543(3) 0.44502(15)
O13 O 0.7207(2) -0.0331(4) 0.33499(18)
H41 H 0.7204 -0.0636 0.3730
O14 O -0.3885(4) 0.2705(4) 0.5880(2)
C30 C -0.2965(3) 0.2689(4) 0.4636(2)
C31 C -0.2167(3) 0.2711(4) 0.4219(2)
C32 C -0.2364(3) 0.3432(5) 0.3636(2)
H42 H -0.1846 0.3457 0.3355
C33 C -0.3304(4) 0.4114(5) 0.3459(2)
H43 H -0.3414 0.4600 0.3070
C34 C -0.4079(4) 0.4060(5) 0.3871(3)
H44 H -0.4721 0.4507 0.3753
C35 C -0.3915(3) 0.3355(4) 0.4453(2)
H45 H -0.4446 0.3327 0.4725
C36 C -0.1124(3) 0.1961(5) 0.44051(19)
C37 C -0.0442(3) 0.1905(4) 0.38216(19)
C38 C 0.0761(3) 0.2264(4) 0.41437(18)
C39 C 0.1673(3) 0.1677(4) 0.38295(17)
C40 C 0.2856(3) 0.1919(3) 0.43319(18)
C41 C 0.2903(3) 0.1658(4) 0.51075(17)
H46 H 0.3623 0.1900 0.5393
H47 H 0.2846 0.0838 0.5164
C42 C 0.1975(3) 0.2243(4) 0.53881(18)
H48 H 0.2017 0.2009 0.5874
H49 H 0.2064 0.3067 0.5380
C43 C 0.0851(3) 0.1900(4) 0.49172(16)
H50 H 0.0833 0.1062 0.4918
C44 C -0.0246(3) 0.2296(4) 0.50859(19)
H51 H -0.0244 0.3115 0.5166
H52 H -0.0383 0.1904 0.5499
C45 C 0.1683(3) 0.2131(4) 0.30894(17)
H53 H 0.1840 0.2944 0.3119
H54 H 0.0949 0.2023 0.2777
C46 C 0.2565(3) 0.1519(4) 0.27749(18)
H55 H 0.2354 0.0723 0.2688
H56 H 0.2584 0.1866 0.2323
C47 C 0.3729(3) 0.1582(4) 0.32690(18)
H57 H 0.4031 0.2354 0.3251
C48 C 0.3730(3) 0.1287(3) 0.40322(18)
C49 C 0.4490(3) 0.0569(4) 0.43975(19)
H58 H 0.4439 0.0350 0.4850
C50 C 0.5401(3) 0.0113(4) 0.4111(2)
C51 C 0.5482(3) 0.0594(4) 0.33937(19)
H59 H 0.5875 0.1328 0.3473
C52 C 0.6081(3) -0.0169(4) 0.2954(2)
C53 C 0.6167(4) 0.0457(6) 0.2290(3)
H60 H 0.6507 -0.0032 0.2003
H61 H 0.6616 0.1130 0.2416
H62 H 0.5432 0.0672 0.2029
C54 C 0.0707(3) 0.3583(4) 0.4062(2)
H63 H 0.0075 0.3870 0.4221
H64 H 0.0632 0.3782 0.3573
H65 H 0.1381 0.3915 0.4343
C55 C 0.1469(3) 0.0372(4) 0.3787(2)
H66 H 0.2108 -0.0004 0.3684
H67 H 0.0818 0.0208 0.3418
H68 H 0.1355 0.0101 0.4232
C56 C 0.5527(5) -0.1321(5) 0.2793(3)
H69 H 0.5469 -0.1681 0.3228
H70 H 0.5966 -0.1791 0.2556
H71 H 0.4792 -0.1222 0.2493
C57 C -0.3240(4) 0.1972(5) 0.5790(3)
C58 C -0.2905(5) 0.1008(5) 0.6304(3)
H72 H -0.3545 0.0536 0.6303
H73 H -0.2619 0.1310 0.6772
H74 H -0.2336 0.0559 0.6167
loop_
_geom_bond_atom_site_label_1
_geom_bond_atom_site_label_2
_geom_bond_site_symmetry_1
_geom_bond_site_symmetry_2
N1 H1 1_555 1_555
O1 H2 1_555 1_555
O2 C8 1_555 1_555
O3 H3 1_555 1_555
O4 C18 1_555 1_555
O5 C21 1_555 1_555
O6 H4 1_555 1_555
O7 C28 1_555 1_555
C1 N1 1_555 1_555
C2 C1 1_555 1_555
C3 C2 1_555 1_555
H5 C3 1_555 1_555
C4 C3 1_555 1_555
H6 C4 1_555 1_555
C5 C4 1_555 1_555
H7 C5 1_555 1_555
C6 C1 1_555 1_555
H8 C6 1_555 1_555
C7 O1 1_555 1_555
C8 C7 1_555 1_555
C9 C8 1_555 1_555
C10 C9 1_555 1_555
C11 O3 1_555 1_555
C12 C11 1_555 1_555
H9 C12 1_555 1_555
H10 C12 1_555 1_555
C13 C12 1_555 1_555
H11 C13 1_555 1_555
H12 C13 1_555 1_555
C14 C9 1_555 1_555
H13 C14 1_555 1_555
C15 C7 1_555 1_555
H14 C15 1_555 1_555
H15 C15 1_555 1_555
C16 C10 1_555 1_555
H16 C16 1_555 1_555
H17 C16 1_555 1_555
C17 C16 1_555 1_555
H18 C17 1_555 1_555
H19 C17 1_555 1_555
C18 C17 1_555 1_555
H20 C18 1_555 1_555
C19 C11 1_555 1_555
C20 C19 1_555 1_555
H21 C20 1_555 1_555
C21 C20 1_555 1_555
C22 O4 1_555 1_555
H22 C22 1_555 1_555
C23 O6 1_555 1_555
C24 C23 1_555 1_555
H23 C24 1_555 1_555
H24 C24 1_555 1_555
H25 C24 1_555 1_555
C25 C23 1_555 1_555
H26 C25 1_555 1_555
H27 C25 1_555 1_555
H28 C25 1_555 1_555
C26 C9 1_555 1_555
H29 C26 1_555 1_555
H30 C26 1_555 1_555
H31 C26 1_555 1_555
C27 C10 1_555 1_555
H32 C27 1_555 1_555
H33 C27 1_555 1_555
H34 C27 1_555 1_555
C28 N1 1_555 1_555
C29 C28 1_555 1_555
H35 C29 1_555 1_555
H36 C29 1_555 1_555
H37 C29 1_555 1_555
N2 H38 1_555 1_555
O8 H39 1_555 1_555
O9 C37 1_555 1_555
O10 H40 1_555 1_555
O11 C47 1_555 1_555
O12 C50 1_555 1_555
O13 H41 1_555 1_555
O14 C57 1_555 1_555
C30 N2 1_555 1_555
C31 C30 1_555 1_555
C32 C31 1_555 1_555
H42 C32 1_555 1_555
C33 C32 1_555 1_555
H43 C33 1_555 1_555
C34 C33 1_555 1_555
H44 C34 1_555 1_555
C35 C30 1_555 1_555
H45 C35 1_555 1_555
C36 O8 1_555 1_555
C37 C36 1_555 1_555
C38 C37 1_555 1_555
C39 C38 1_555 1_555
C40 O10 1_555 1_555
C41 C40 1_555 1_555
H46 C41 1_555 1_555
H47 C41 1_555 1_555
C42 C41 1_555 1_555
H48 C42 1_555 1_555
H49 C42 1_555 1_555
C43 C38 1_555 1_555
H50 C43 1_555 1_555
C44 C36 1_555 1_555
H51 C44 1_555 1_555
H52 C44 1_555 1_555
C45 C39 1_555 1_555
H53 C45 1_555 1_555
H54 C45 1_555 1_555
C46 C45 1_555 1_555
H55 C46 1_555 1_555
H56 C46 1_555 1_555
C47 C46 1_555 1_555
H57 C47 1_555 1_555
C48 C40 1_555 1_555
C49 C48 1_555 1_555
H58 C49 1_555 1_555
C50 C49 1_555 1_555
C51 O11 1_555 1_555
H59 C51 1_555 1_555
C52 O13 1_555 1_555
C53 C52 1_555 1_555
H60 C53 1_555 1_555
H61 C53 1_555 1_555
H62 C53 1_555 1_555
C54 C38 1_555 1_555
H63 C54 1_555 1_555
H64 C54 1_555 1_555
H65 C54 1_555 1_555
C55 C39 1_555 1_555
H66 C55 1_555 1_555
H67 C55 1_555 1_555
H68 C55 1_555 1_555
C56 C52 1_555 1_555
H69 C56 1_555 1_555
H70 C56 1_555 1_555
H71 C56 1_555 1_555
C57 N2 1_555 1_555
C58 C57 1_555 1_555
H72 C58 1_555 1_555
H73 C58 1_555 1_555
H74 C58 1_555 1_555
C2 C7 1_555 1_555
C5 C6 1_555 1_555
C10 C11 1_555 1_555
C13 C14 1_555 1_555
C14 C15 1_555 1_555
C18 C19 1_555 1_555
C21 C22 1_555 1_555
C22 C23 1_555 1_555
C31 C36 1_555 1_555
C34 C35 1_555 1_555
C39 C40 1_555 1_555
C42 C43 1_555 1_555
C43 C44 1_555 1_555
C47 C48 1_555 1_555
C50 C51 1_555 1_555
C51 C52 1_555 1_555

#END
