
#######################################################################
#
#                 Cambridge Crystallographic Data Centre
#                                CCDC 
#
#######################################################################
#
# If this CIF has been generated from an entry in the Cambridge 
# Structural Database, then it will include bibliographic, chemical, 
# crystal, experimental, refinement or atomic coordinate data resulting 
# from the CCDC's data processing and validation procedures.
#
#######################################################################

data_FIHZUU
_chemical_formula_moiety         'C22 H16 N2 O1 S2'
_chemical_name_systematic        
3-(10-ethyl-10H-phenothiazin-3-yl)-2-(thiophene-2-carbonyl)prop-2-enenitrile
_symmetry_cell_setting           monoclinic
_symmetry_space_group_name_H-M   'P 21/n'
_symmetry_Int_Tables_number      14
_space_group_name_Hall           '-P 2yn'
loop_
_symmetry_equiv_pos_site_id
_symmetry_equiv_pos_as_xyz
1 x,y,z
2 1/2-x,1/2+y,1/2-z
3 -x,-y,-z
4 1/2+x,1/2-y,1/2+z
_cell_length_a                   10.871(5)
_cell_length_b                   15.493(5)
_cell_length_c                   11.861(5)
_cell_angle_alpha                90
_cell_angle_beta                 114.521(5)
_cell_angle_gamma                90
_cell_volume                     1817.51
_exptl_crystal_colour            red
_cell_formula_units_Z            4
loop_
_atom_site_label
_atom_site_type_symbol
_atom_site_fract_x
_atom_site_fract_y
_atom_site_fract_z
S1 S 0.39197(4) 0.41725(2) 0.46233(4)
S2 S 0.00941(4) 0.29775(3) -0.41403(4)
O1 O 0.10787(13) 0.19681(7) -0.18766(11)
N1 N 0.37382(13) 0.24327(8) 0.57999(12)
C1 C 0.03397(16) 0.33411(11) -0.26860(15)
C2 C 0.21621(15) 0.24714(10) 0.18768(14)
C3 C 0.22135(15) 0.17100(10) 0.25366(15)
H1 H 0.1915 0.1197 0.2100
C4 C 0.26919(15) 0.16966(10) 0.38099(14)
H2 H 0.2691 0.1180 0.4210
N2 N 0.1760(2) 0.46350(11) 0.02057(16)
C5 C 0.38984(15) 0.40102(10) 0.60867(15)
C6 C 0.09500(16) 0.27292(10) -0.16575(15)
C7 C 0.16783(15) 0.24101(10) 0.05480(14)
H3 H 0.1520 0.1848 0.0247
C8 C -0.01992(17) 0.41559(11) -0.27521(16)
H4 H -0.0171 0.4461 -0.2067
C9 C 0.31317(15) 0.32189(10) 0.38529(14)
C10 C 0.41675(16) 0.38280(12) 0.84985(15)
H5 H 0.4263 0.3763 0.9310
C11 C 0.1593(2) 0.39207(11) -0.00546(15)
C12 C 0.31805(14) 0.24506(10) 0.45137(14)
C13 C -0.07963(18) 0.44739(13) -0.39750(18)
H6 H -0.1209 0.5012 -0.4185
C14 C 0.28550(17) 0.11578(11) 0.65600(15)
H7 H 0.2534 0.1526 0.7031
H8 H 0.3139 0.0616 0.6981
H9 H 0.2142 0.1061 0.5755
C15 C 0.40612(16) 0.47350(11) 0.68332(16)
H10 H 0.4058 0.5283 0.6513
C16 C 0.40460(15) 0.15872(10) 0.64219(14)
H11 H 0.4773 0.1660 0.7239
H12 H 0.4370 0.1205 0.5957
C17 C 0.26271(15) 0.32311(10) 0.25785(14)
H13 H 0.2593 0.3751 0.2174
C18 C 0.39651(16) 0.31046(11) 0.77460(15)
H14 H 0.3902 0.2563 0.8056
C19 C 0.38556(15) 0.31770(10) 0.65336(14)
C20 C 0.14111(16) 0.30203(10) -0.03441(15)
C21 C 0.42269(17) 0.46416(11) 0.80495(16)
H15 H 0.4377 0.5123 0.8559
C22 C -0.07037(19) 0.39110(13) -0.48136(17)
H16 H -0.1037 0.4022 -0.5659
loop_
_geom_bond_atom_site_label_1
_geom_bond_atom_site_label_2
_geom_bond_site_symmetry_1
_geom_bond_site_symmetry_2
S1 C5 1_555 1_555
S2 C1 1_555 1_555
O1 C6 1_555 1_555
N1 C12 1_555 1_555
C1 C6 1_555 1_555
C2 C3 1_555 1_555
C3 H1 1_555 1_555
C4 C3 1_555 1_555
H2 C4 1_555 1_555
N2 C11 1_555 1_555
C5 C15 1_555 1_555
C6 C20 1_555 1_555
C7 C2 1_555 1_555
H3 C7 1_555 1_555
C8 C1 1_555 1_555
H4 C8 1_555 1_555
C9 S1 1_555 1_555
C10 H5 1_555 1_555
C11 C20 1_555 1_555
C12 C4 1_555 1_555
C13 C8 1_555 1_555
H6 C13 1_555 1_555
C14 H7 1_555 1_555
H8 C14 1_555 1_555
H9 C14 1_555 1_555
C15 H10 1_555 1_555
C16 N1 1_555 1_555
H11 C16 1_555 1_555
H12 C16 1_555 1_555
C17 C2 1_555 1_555
H13 C17 1_555 1_555
C18 C10 1_555 1_555
H14 C18 1_555 1_555
C19 N1 1_555 1_555
C20 C7 1_555 1_555
C21 C10 1_555 1_555
H15 C21 1_555 1_555
C22 S2 1_555 1_555
H16 C22 1_555 1_555
C5 C19 1_555 1_555
C9 C12 1_555 1_555
C9 C17 1_555 1_555
C13 C22 1_555 1_555
C14 C16 1_555 1_555
C15 C21 1_555 1_555
C18 C19 1_555 1_555

#END
