
#######################################################################
#
#                 Cambridge Crystallographic Data Centre
#                                CCDC 
#
#######################################################################
#
# If this CIF has been generated from an entry in the Cambridge 
# Structural Database, then it will include bibliographic, chemical, 
# crystal, experimental, refinement or atomic coordinate data resulting 
# from the CCDC's data processing and validation procedures.
#
#######################################################################

data_FIJBOS
_chemical_formula_moiety         'C21 H21 N1 O1'
_chemical_name_systematic        
2a,4-dimethyl-8b-phenyl-2,2a,4,8b-tetrahydro-3H-spiro[cyclobuta[c]quinoline-1,1'-cyclopropan]-3-one
_symmetry_cell_setting           orthorhombic
_symmetry_space_group_name_H-M   'P b c a'
_symmetry_Int_Tables_number      61
_space_group_name_Hall           '-P 2ac 2ab'
loop_
_symmetry_equiv_pos_site_id
_symmetry_equiv_pos_as_xyz
1 x,y,z
2 1/2-x,-y,1/2+z
3 -x,1/2+y,1/2-z
4 1/2+x,1/2-y,-z
5 -x,-y,-z
6 1/2+x,y,1/2-z
7 x,1/2-y,1/2+z
8 1/2-x,1/2+y,z
_cell_length_a                   14.3887(13)
_cell_length_b                   9.1859(8)
_cell_length_c                   24.515(2)
_cell_angle_alpha                90
_cell_angle_beta                 90
_cell_angle_gamma                90
_cell_volume                     3240.23
_exptl_crystal_colour            colorless
_exptl_crystal_description       prismatic
_cell_formula_units_Z            8
loop_
_atom_site_label
_atom_site_type_symbol
_atom_site_fract_x
_atom_site_fract_y
_atom_site_fract_z
N1 N 0.51430(8) 1.16339(13) 0.57412(5)
O1 O 0.62233(8) 1.22707(13) 0.63778(5)
C1 C 0.34846(12) 0.8450(2) 0.73440(8)
H1 H 0.3703 0.8177 0.7704
H2 H 0.3300 0.7643 0.7113
C2 C 0.29519(12) 0.9857(2) 0.72907(7)
H3 H 0.2450 0.9895 0.7027
H4 H 0.2853 1.0430 0.7618
C3 C 0.39270(11) 0.97290(18) 0.70776(6)
C4 C 0.47570(11) 1.0684(2) 0.72577(6)
H5 H 0.5320 1.0144 0.7337
H6 H 0.4613 1.1373 0.7545
C5 C 0.47169(10) 1.13332(16) 0.66710(6)
C6 C 0.42545(10) 0.99032(15) 0.64767(6)
C7 C 0.37276(10) 1.02409(15) 0.59645(6)
C8 C 0.28494(11) 0.97666(18) 0.58169(7)
H7 H 0.2512 0.9190 0.6058
C9 C 0.24645(12) 1.01343(19) 0.53178(7)
H8 H 0.1873 0.9812 0.5225
C10 C 0.29663(12) 1.0980(2) 0.49620(7)
H9 H 0.2712 1.1222 0.4625
C11 C 0.38428(11) 1.14765(17) 0.50963(6)
H10 H 0.4173 1.2048 0.4850
C12 C 0.42352(10) 1.11242(15) 0.55988(6)
C13 C 0.54576(10) 1.17754(16) 0.62728(6)
C14 C 0.57392(12) 1.22253(19) 0.53114(7)
H11 H 0.5542 1.3196 0.5223
H12 H 0.5695 1.1622 0.4993
H13 H 0.6371 1.2246 0.5436
C15 C 0.40480(11) 1.26481(17) 0.66965(7)
H14 H 0.4358 1.3457 0.6865
H15 H 0.3509 1.2392 0.6906
H16 H 0.3862 1.2912 0.6334
C16 C 0.49234(10) 0.86218(15) 0.63600(6)
C17 C 0.45370(12) 0.73346(17) 0.61628(7)
H17 H 0.3905 0.7302 0.6085
C18 C 0.50731(15) 0.61026(19) 0.60796(8)
H18 H 0.4797 0.5256 0.5949
C19 C 0.60092(15) 0.6120(2) 0.61887(8)
H19 H 0.6367 0.5290 0.6135
C20 C 0.64107(13) 0.7380(2) 0.63788(8)
H20 H 0.7045 0.7402 0.6451
C21 C 0.58755(11) 0.86241(18) 0.64641(7)
H21 H 0.6158 0.9468 0.6592
loop_
_geom_bond_atom_site_label_1
_geom_bond_atom_site_label_2
_geom_bond_site_symmetry_1
_geom_bond_site_symmetry_2
N1 C12 1_555 1_555
O1 C13 1_555 1_555
C1 H1 1_555 1_555
H2 C1 1_555 1_555
C2 C1 1_555 1_555
H3 C2 1_555 1_555
H4 C2 1_555 1_555
C3 C1 1_555 1_555
C4 C3 1_555 1_555
H5 C4 1_555 1_555
H6 C4 1_555 1_555
C5 C4 1_555 1_555
C6 C3 1_555 1_555
C7 C6 1_555 1_555
C8 C7 1_555 1_555
H7 C8 1_555 1_555
C9 C8 1_555 1_555
H8 C9 1_555 1_555
C10 C9 1_555 1_555
H9 C10 1_555 1_555
C11 C10 1_555 1_555
H10 C11 1_555 1_555
C12 C7 1_555 1_555
C13 N1 1_555 1_555
C14 N1 1_555 1_555
H11 C14 1_555 1_555
H12 C14 1_555 1_555
H13 C14 1_555 1_555
C15 C5 1_555 1_555
H14 C15 1_555 1_555
H15 C15 1_555 1_555
H16 C15 1_555 1_555
C16 C6 1_555 1_555
C17 C16 1_555 1_555
H17 C17 1_555 1_555
C18 C17 1_555 1_555
H18 C18 1_555 1_555
C19 C18 1_555 1_555
H19 C19 1_555 1_555
C20 C19 1_555 1_555
H20 C20 1_555 1_555
C21 C16 1_555 1_555
H21 C21 1_555 1_555
C2 C3 1_555 1_555
C5 C6 1_555 1_555
C5 C13 1_555 1_555
C11 C12 1_555 1_555
C20 C21 1_555 1_555

#END
