
#######################################################################
#
#                 Cambridge Crystallographic Data Centre
#                                CCDC 
#
#######################################################################
#
# If this CIF has been generated from an entry in the Cambridge 
# Structural Database, then it will include bibliographic, chemical, 
# crystal, experimental, refinement or atomic coordinate data resulting 
# from the CCDC's data processing and validation procedures.
#
#######################################################################

data_FIJCIN
_chemical_formula_moiety         'C27 H32 N6 O8,C4 H12 N1 1+,Br1 1-'
_chemical_name_systematic        
'tetramethylammonium bromide ethyl 2,7-bis{[(4-nitrophenyl)carbamoyl]amino}octahydronaphthalene-4a(2H)-carboxylate'
_symmetry_cell_setting           triclinic
_symmetry_space_group_name_H-M   'P -1'
_symmetry_Int_Tables_number      2
_space_group_name_Hall           '-P 1'
loop_
_symmetry_equiv_pos_site_id
_symmetry_equiv_pos_as_xyz
1 x,y,z
2 -x,-y,-z
_cell_length_a                   9.3206(3)
_cell_length_b                   12.4296(4)
_cell_length_c                   16.1619(4)
_cell_angle_alpha                84.575(2)
_cell_angle_beta                 74.297(2)
_cell_angle_gamma                68.650(2)
_cell_volume                     1678.78
_exptl_crystal_colour            colorless
_exptl_crystal_description       plate
_cell_formula_units_Z            2
loop_
_atom_site_label
_atom_site_type_symbol
_atom_site_fract_x
_atom_site_fract_y
_atom_site_fract_z
O1 O 1.4648(3) 0.4656(3) 1.11986(18)
O2 O 1.3963(4) 0.3536(3) 1.22067(18)
O3 O 0.9346(4) 0.1739(3) 1.04434(18)
O4 O 0.4355(5) 0.1243(4) 0.7887(3)
O5 O 0.6829(8) -0.0107(6) 0.7569(4)
O6 O 0.7321(4) 0.4439(3) 0.50183(18)
O7 O 0.6558(4) 0.9991(3) 0.3905(3)
O8 O 0.7102(6) 1.0487(3) 0.4974(3)
N1 N 1.3956(4) 0.3981(3) 1.1495(2)
N2 N 1.0341(4) 0.3029(2) 0.95934(18)
H1 H 1.0304 0.3417 0.9125
N3 N 0.9115(7) 0.2073(4) 0.9073(3)
H2 H 0.9159 0.2538 0.8645
N4 N 0.8314(4) 0.3411(3) 0.6100(2)
H3 H 0.8796 0.3413 0.6484
N5 N 0.8313(4) 0.5256(2) 0.58427(18)
H4 H 0.8806 0.5111 0.6242
N6 N 0.6945(5) 0.9768(3) 0.4576(3)
C1 C 1.3044(4) 0.3710(3) 1.0994(2)
C2 C 1.2474(5) 0.2819(3) 1.1262(2)
H5 H 1.2690 0.2394 1.1747
C3 C 1.1582(5) 0.2566(3) 1.0805(2)
H6 H 1.1202 0.1963 1.0980
C4 C 1.1249(4) 0.3212(3) 1.0081(2)
C5 C 1.1887(4) 0.4091(3) 0.9812(2)
H7 H 1.1699 0.4512 0.9321
C6 C 1.2780(4) 0.4337(3) 1.0263(2)
H8 H 1.3203 0.4917 1.0080
C7 C 0.9490(6) 0.2291(4) 0.9780(3)
C8 C 0.8630(8) 0.1075(6) 0.8994(4)
H9 H 0.9168 0.0427 0.9327
C9 C 0.6848(8) 0.1378(6) 0.9329(4)
H10 H 0.6598 0.0684 0.9338
H11 H 0.6524 0.1657 0.9915
C10 C 0.5921(10) 0.2263(6) 0.8811(5)
H12 H 0.6066 0.2987 0.8860
H13 H 0.4799 0.2384 0.9043
C11 C 0.6418(7) 0.1923(5) 0.7825(4)
C12 C 0.8219(7) 0.1639(5) 0.7502(3)
H14 H 0.8395 0.2348 0.7583
C13 C 0.9171(12) 0.0717(8) 0.8043(4)
H15 H 1.0295 0.0598 0.7824
H16 H 0.9031 -0.0008 0.7993
C14 C 0.8817(8) 0.1396(5) 0.6534(4)
H17 H 0.9952 0.1249 0.6355
H18 H 0.8646 0.0709 0.6413
C15 C 0.7971(9) 0.2400(7) 0.6025(5)
H19 H 0.8317 0.2175 0.5418
C16 C 0.6184(8) 0.2692(6) 0.6332(4)
H20 H 0.5915 0.2054 0.6202
H21 H 0.5651 0.3368 0.6030
C17 C 0.5583(8) 0.2937(7) 0.7336(4)
H22 H 0.5779 0.3612 0.7460
H23 H 0.4444 0.3099 0.7522
C18 C 0.5940(9) 0.0872(6) 0.7743(4)
C19 C 0.3665(9) 0.0371(7) 0.7886(5)
H24 H 0.4405 -0.0247 0.7491
H25 H 0.2695 0.0708 0.7694
C20 C 0.3308(10) -0.0094(7) 0.8750(5)
H26 H 0.2731 -0.0599 0.8761
H27 H 0.2673 0.0529 0.9149
H28 H 0.4284 -0.0518 0.8907
C21 C 0.7936(5) 0.4365(3) 0.5610(2)
C22 C 0.7971(4) 0.6360(3) 0.5494(2)
C23 C 0.7674(5) 0.6619(3) 0.4685(2)
H29 H 0.7717 0.6040 0.4344
C24 C 0.7316(5) 0.7747(3) 0.4392(3)
H30 H 0.7092 0.7931 0.3858
C25 C 0.7293(4) 0.8590(3) 0.4888(3)
C26 C 0.7601(4) 0.8347(3) 0.5683(3)
H31 H 0.7583 0.8927 0.6013
C27 C 0.7937(4) 0.7235(3) 0.5982(2)
H32 H 0.8144 0.7064 0.6519
N8 N 0.2548(4) 0.7007(3) 0.68967(19)
C41 C 0.2541(6) 0.7851(4) 0.7516(3)
H55 H 0.1599 0.8009 0.7983
H56 H 0.2552 0.8557 0.7222
H57 H 0.3467 0.7523 0.7737
C42 C 0.2416(7) 0.5971(5) 0.7352(4)
H58 H 0.3259 0.5649 0.7637
H59 H 0.2494 0.5417 0.6951
H60 H 0.1407 0.6160 0.7770
C43 C 0.1169(6) 0.7625(6) 0.6512(4)
H61 H 0.0211 0.7914 0.6963
H62 H 0.1056 0.7099 0.6157
H63 H 0.1357 0.8258 0.6170
C44 C 0.4057(6) 0.6751(5) 0.6204(3)
H64 H 0.4082 0.7448 0.5900
H65 H 0.4111 0.6194 0.5813
H66 H 0.4948 0.6444 0.6455
Br1 Br 1.00245(5) 0.40919(3) 0.75813(2)
H33? H 0.9095 0.3229 0.6336
O9? O 0.7847(10) -0.0789(7) 0.7399(5)
N7? N 0.8239(12) 0.2673(8) 0.9292(6)
H34? H 0.8152 0.3271 0.8968
C28? C 0.4711(14) -0.0191(11) 0.8166(8)
H35? H 0.5122 -0.0828 0.8533
H36? H 0.4807 -0.0502 0.7617
C29? C 0.7173(13) 0.2049(9) 0.9360(7)
H37? H 0.6480 0.2150 0.9945
C30? C 0.8076(13) 0.1027(10) 0.7613(7)
C31? C 0.8309(14) 0.1445(10) 0.6031(7)
H38? H 0.9075 0.1428 0.5485
H39? H 0.7722 0.0963 0.5976
C32? C 0.7029(14) 0.2298(9) 0.7818(7)
H40? H 0.7784 0.2704 0.7728
O10? O 0.5623(11) 0.0601(8) 0.8040(6)
C33? C 0.3011(19) 0.0488(13) 0.8572(10)
H41? H 0.2630 0.1136 0.8215
H42? H 0.2923 0.0761 0.9127
H43? H 0.2384 0.0006 0.8637
C34? C 0.8089(15) 0.0767(10) 0.9198(7)
H44? H 0.7354 0.0353 0.9307
H45? H 0.8786 0.0471 0.9581
C35? C 0.7201(18) 0.0188(12) 0.7643(9)
C36? C 0.9164(15) 0.0966(10) 0.6698(7)
H46? H 0.9870 0.1381 0.6691
H47? H 0.9819 0.0165 0.6558
C37? C 0.6043(16) 0.2815(13) 0.7082(8)
H48? H 0.5298 0.2427 0.7109
H49? H 0.5445 0.3634 0.7180
C38? C 0.907(2) 0.0592(15) 0.8269(8)
H50? H 0.9672 -0.0225 0.8169
H51? H 0.9821 0.0989 0.8177
C39? C 0.6083(19) 0.2567(12) 0.8707(10)
H52? H 0.5243 0.2245 0.8829
H53? H 0.5589 0.3398 0.8782
C40? C 0.721(2) 0.2627(17) 0.6218(12)
H54? H 0.6601 0.2861 0.5780
C45? C 0.347(3) 0.5739(9) 0.673(2)
H67? H 0.4326 0.5492 0.7007
H68? H 0.3902 0.5607 0.6121
H69? H 0.2778 0.5310 0.6950
C46? C 0.352(3) 0.761(3) 0.6319(16)
H70? H 0.3190 0.8391 0.6521
H71? H 0.3393 0.7629 0.5748
H72? H 0.4625 0.7218 0.6311
C47? C 0.114(3) 0.691(3) 0.667(3)
H73? H 0.0707 0.6429 0.7076
H74? H 0.1471 0.6586 0.6103
H75? H 0.0343 0.7669 0.6677
C48? C 0.210(4) 0.694(3) 0.7854(6)
H76? H 0.3047 0.6661 0.8059
H77? H 0.1520 0.6424 0.8030
H78? H 0.1446 0.7696 0.8090
loop_
_geom_bond_atom_site_label_1
_geom_bond_atom_site_label_2
_geom_bond_site_symmetry_1
_geom_bond_site_symmetry_2
O1 N1 1_555 1_555
O2 N1 1_555 1_555
O3 C7 1_555 1_555
O4 C18 1_555 1_555
O5 C18 1_555 1_555
O6 C21 1_555 1_555
O7 N6 1_555 1_555
O8 N6 1_555 1_555
N1 C1 1_555 1_555
N2 H1 1_555 1_555
N3 H2 1_555 1_555
N4 H3 1_555 1_555
N5 H4 1_555 1_555
N6 C25 1_555 1_555
C1 C2 1_555 1_555
C2 H5 1_555 1_555
C3 C2 1_555 1_555
H6 C3 1_555 1_555
C4 N2 1_555 1_555
C5 C4 1_555 1_555
H7 C5 1_555 1_555
C6 C1 1_555 1_555
H8 C6 1_555 1_555
C7 N2 1_555 1_555
C8 N3 1_555 1_555
H9 C8 1_555 1_555
C9 C8 1_555 1_555
H10 C9 1_555 1_555
H11 C9 1_555 1_555
C10 C9 1_555 1_555
H12 C10 1_555 1_555
H13 C10 1_555 1_555
C11 C10 1_555 1_555
C12 C11 1_555 1_555
H14 C12 1_555 1_555
C13 C8 1_555 1_555
H15 C13 1_555 1_555
H16 C13 1_555 1_555
C14 C12 1_555 1_555
H17 C14 1_555 1_555
H18 C14 1_555 1_555
C15 N4 1_555 1_555
H19 C15 1_555 1_555
C16 C15 1_555 1_555
H20 C16 1_555 1_555
H21 C16 1_555 1_555
C17 C11 1_555 1_555
H22 C17 1_555 1_555
H23 C17 1_555 1_555
C18 C11 1_555 1_555
C19 O4 1_555 1_555
H24 C19 1_555 1_555
H25 C19 1_555 1_555
C20 C19 1_555 1_555
H26 C20 1_555 1_555
H27 C20 1_555 1_555
H28 C20 1_555 1_555
C21 N4 1_555 1_555
C22 N5 1_555 1_555
C23 C22 1_555 1_555
H29 C23 1_555 1_555
C24 C23 1_555 1_555
H30 C24 1_555 1_555
C25 C24 1_555 1_555
C26 C25 1_555 1_555
H31 C26 1_555 1_555
C27 C22 1_555 1_555
H32 C27 1_555 1_555
N8 C41 1_555 1_555
C41 H55 1_555 1_555
H56 C41 1_555 1_555
H57 C41 1_555 1_555
C42 N8 1_555 1_555
H58 C42 1_555 1_555
H59 C42 1_555 1_555
H60 C42 1_555 1_555
C43 N8 1_555 1_555
H61 C43 1_555 1_555
H62 C43 1_555 1_555
H63 C43 1_555 1_555
C44 N8 1_555 1_555
H64 C44 1_555 1_555
H65 C44 1_555 1_555
H66 C44 1_555 1_555
N3 C7 1_555 1_555
N5 C21 1_555 1_555
C3 C4 1_555 1_555
C5 C6 1_555 1_555
C12 C13 1_555 1_555
C14 C15 1_555 1_555
C16 C17 1_555 1_555
C26 C27 1_555 1_555

#END
