
#######################################################################
#
#                 Cambridge Crystallographic Data Centre
#                                CCDC 
#
#######################################################################
#
# If this CIF has been generated from an entry in the Cambridge 
# Structural Database, then it will include bibliographic, chemical, 
# crystal, experimental, refinement or atomic coordinate data resulting 
# from the CCDC's data processing and validation procedures.
#
#######################################################################

data_FIJCEJ
_chemical_formula_moiety         'C27 H32 N6 O8,1.36(C1 H4 O1),1.28(H2 O1)'
_chemical_name_systematic        
'ethyl 2,7-bis{[(4-nitrophenyl)carbamoyl]amino}octahydronaphthalene-4a(2H)-carboxylate methanol solvate hydrate'
_symmetry_cell_setting           triclinic
_symmetry_space_group_name_H-M   'P -1'
_symmetry_Int_Tables_number      2
_space_group_name_Hall           '-P 1'
loop_
_symmetry_equiv_pos_site_id
_symmetry_equiv_pos_as_xyz
1 x,y,z
2 -x,-y,-z
_cell_length_a                   6.5543(2)
_cell_length_b                   13.7341(3)
_cell_length_c                   18.2906(5)
_cell_angle_alpha                107.6160(10)
_cell_angle_beta                 91.119(2)
_cell_angle_gamma                98.5900(10)
_cell_volume                     1548
_exptl_crystal_colour            orange
_exptl_crystal_description       block
_cell_formula_units_Z            2
loop_
_atom_site_label
_atom_site_type_symbol
_atom_site_fract_x
_atom_site_fract_y
_atom_site_fract_z
C35 C 0.7165(9) 0.3021(5) 0.6502(4)
H46 H 0.7145 0.3448 0.6160
H47 H 0.8404 0.3277 0.6858
H48 H 0.5929 0.3058 0.6796
O13 O 0.719(6) 0.1977(13) 0.6058(19)
H49 H 0.5974 0.1674 0.5914
O14 O 0.07578(18) 0.67492(11) 0.77118(8)
H50 H -0.0479 0.6498 0.7736
C36 C 0.1414(3) 0.75950(14) 0.83899(10)
H51 H 0.2916 0.7804 0.8408
H52 H 0.1053 0.7384 0.8843
H53 H 0.0725 0.8179 0.8384
O1 O 0.2611(2) 0.16212(11) 0.21696(7)
O2 O 0.5130(2) 0.08771(12) 0.23692(8)
O3 O 0.33487(15) 0.07929(8) 0.60208(6)
O4 O 0.33897(19) 0.25189(11) 0.95085(7)
O5 O 0.0432(2) 0.29584(12) 0.99689(7)
O6 O 0.69899(16) 0.55872(9) 0.77604(7)
O7 O 0.8831(4) 0.6010(2) 0.41278(15)
O8 O 0.6006(4) 0.65179(18) 0.38670(13)
N1 N 0.3539(2) 0.12249(10) 0.25596(8)
N2 N 0.06589(18) 0.12528(9) 0.54381(7)
H1 H -0.0591 0.1411 0.5508
N3 N 0.06732(18) 0.13442(10) 0.67094(7)
H2 H -0.0477 0.1603 0.6712
N4 N 0.37461(19) 0.53404(10) 0.81423(7)
H3 H 0.2435 0.5370 0.8057
N5 N 0.4295(2) 0.59978(11) 0.71421(8)
H4 H 0.3063 0.6171 0.7232
N6 N 0.7127(4) 0.6267(2) 0.43021(18)
C1 C 0.2740(2) 0.11778(11) 0.32914(9)
C2 C 0.2928(6) 0.1120(2) 1.00459(18)
H5 H 0.1417 0.1037 0.9986
H6 H 0.3331 0.0907 1.0486
H7 H 0.3443 0.0689 0.9578
C3 C 0.3854(2) 0.07797(11) 0.37507(9)
H8 H 0.5073 0.0510 0.3579
C4 C 0.3184(2) 0.07773(11) 0.44606(9)
H9 H 0.3944 0.0505 0.4778
C5 C 0.1381(2) 0.11765(10) 0.47157(8)
C6 C 0.0230(2) 0.15235(11) 0.42188(9)
H10 H -0.1036 0.1755 0.4372
C7 C 0.0667(2) 0.42348(12) 0.89726(9)
H11 H 0.0091 0.4380 0.8520
H12 H -0.0395 0.4293 0.9354
C8 C 0.1446(2) 0.11810(12) 0.74145(8)
H13 H 0.1816 0.0470 0.7280
C9 C 0.0903(2) 0.15354(11) 0.35111(9)
H14 H 0.0126 0.1783 0.3181
C10 C -0.0763(2) 0.23466(12) 0.83089(9)
H15 H -0.1850 0.2342 0.8677
H16 H -0.1306 0.2577 0.7891
C11 C 0.1163(2) 0.31224(12) 0.87257(8)
C12 C 0.2882(2) 0.30605(11) 0.81527(8)
H17 H 0.2310 0.3258 0.7716
C13 C 0.3376(2) 0.19713(12) 0.77967(9)
H18 H 0.4009 0.1748 0.8202
H19 H 0.4399 0.1986 0.7407
C14 C 0.1673(2) 0.11097(10) 0.60591(8)
C15 C 0.2597(2) 0.50394(12) 0.93238(9)
H20 H 0.2222 0.5741 0.9459
H21 H 0.3097 0.4932 0.9804
C16 C 0.4338(2) 0.49721(12) 0.87760(9)
H22 H 0.5607 0.5441 0.9062
C17 C 0.4822(2) 0.38648(12) 0.84866(9)
H23 H 0.5828 0.3825 0.8086
H24 H 0.5471 0.3699 0.8918
C18 C 0.1613(2) 0.28681(13) 0.94673(9)
C19 C -0.0292(2) 0.12476(12) 0.79688(9)
H25 H -0.1562 0.0790 0.7692
H26 H 0.0106 0.0991 0.8393
C20 C 0.3793(4) 0.21808(18) 1.01733(12)
H27 H 0.5305 0.2276 1.0287
H28 H 0.3198 0.2618 1.0626
C21 C 0.5131(2) 0.56338(12) 0.76876(9)
C22 C 0.5114(5) 0.6140(3) 0.64510(16)
C23 C 0.3946(4) 0.6539(3) 0.60021(17)
H29 H 0.2696 0.6772 0.6177
C24 C 0.4607(3) 0.6597(2) 0.52968(15)
H30 H 0.3809 0.6869 0.4990
C25 C 0.6436(3) 0.62558(18) 0.50403(13)
C26 C 0.7603(3) 0.58571(19) 0.54892(14)
H31 H 0.8853 0.5624 0.5314
C27 C 0.6942(4) 0.5799(2) 0.61945(15)
H32 H 0.7740 0.5527 0.6501
H33? H 0.2480 0.1899 1.0349
H34? H 0.4516 0.2768 1.0603
C28? C 0.5329(12) 0.5994(7) 0.6537(4)
C29? C 0.4343(9) 0.6436(6) 0.6069(4)
H35? H 0.3095 0.6695 0.6213
C30? C 0.5181(8) 0.6501(5) 0.5389(4)
H36? H 0.4507 0.6804 0.5069
C31? C 0.7007(7) 0.6123(4) 0.5178(3)
C32? C 0.7993(8) 0.5681(5) 0.5646(3)
H37? H 0.9241 0.5422 0.5502
C33? C 0.7155(11) 0.5616(6) 0.6326(4)
H38? H 0.7829 0.5313 0.6645
N7? N 0.7868(10) 0.6150(6) 0.4450(5)
O9? O 0.6912(10) 0.6529(5) 0.4049(4)
O10? O 0.9469(9) 0.5813(5) 0.4303(4)
C34? C 0.5178(16) 0.1325(7) 0.9906(5)
H39? H 0.4550 0.0806 0.9429
H40? H 0.5300 0.0991 1.0305
H41? H 0.6555 0.1639 0.9816
O11? O 0.709(3) 0.2029(8) 0.6156(10)
H42? H 0.5908 0.1682 0.6213
H43? H 0.6983 0.2221 0.5747
O12? O 0.9040(4) 0.39519(18) 0.71172(13)
H44? H 0.984(5) 0.405(3) 0.6782(17)
H45? H 0.837(5) 0.444(2) 0.730(2)
loop_
_geom_bond_atom_site_label_1
_geom_bond_atom_site_label_2
_geom_bond_site_symmetry_1
_geom_bond_site_symmetry_2
O1 N1 1_555 1_555
O2 N1 1_555 1_555
O3 C14 1_555 1_555
O4 C18 1_555 1_555
O5 C18 1_555 1_555
O6 C21 1_555 1_555
O7 N6 1_555 1_555
O8 N6 1_555 1_555
N1 C1 1_555 1_555
N2 H1 1_555 1_555
N3 H2 1_555 1_555
N4 H3 1_555 1_555
N5 H4 1_555 1_555
N6 C25 1_555 1_555
C1 C3 1_555 1_555
C2 H5 1_555 1_555
H6 C2 1_555 1_555
H7 C2 1_555 1_555
C3 H8 1_555 1_555
C4 C3 1_555 1_555
H9 C4 1_555 1_555
C5 N2 1_555 1_555
C6 C5 1_555 1_555
H10 C6 1_555 1_555
C7 H11 1_555 1_555
H12 C7 1_555 1_555
C8 N3 1_555 1_555
H13 C8 1_555 1_555
C9 C1 1_555 1_555
H14 C9 1_555 1_555
C10 H15 1_555 1_555
H16 C10 1_555 1_555
C11 C7 1_555 1_555
C12 C11 1_555 1_555
H17 C12 1_555 1_555
C13 C8 1_555 1_555
H18 C13 1_555 1_555
H19 C13 1_555 1_555
C14 N2 1_555 1_555
C15 C7 1_555 1_555
H20 C15 1_555 1_555
H21 C15 1_555 1_555
C16 N4 1_555 1_555
H22 C16 1_555 1_555
C17 C12 1_555 1_555
H23 C17 1_555 1_555
H24 C17 1_555 1_555
C18 C11 1_555 1_555
C19 C8 1_555 1_555
H25 C19 1_555 1_555
H26 C19 1_555 1_555
C20 O4 1_555 1_555
H27 C20 1_555 1_555
H28 C20 1_555 1_555
C21 N4 1_555 1_555
C22 N5 1_555 1_555
C23 C22 1_555 1_555
H29 C23 1_555 1_555
C24 C23 1_555 1_555
H30 C24 1_555 1_555
C25 C24 1_555 1_555
C26 C25 1_555 1_555
H31 C26 1_555 1_555
C27 C22 1_555 1_555
H32 C27 1_555 1_555
C35 H46 1_555 1_555
H47 C35 1_555 1_555
H48 C35 1_555 1_555
O13 C35 1_555 1_555
H49 O13 1_555 1_555
O14 H50 1_555 1_555
C36 O14 1_555 1_555
H51 C36 1_555 1_555
H52 C36 1_555 1_555
H53 C36 1_555 1_555
N3 C14 1_555 1_555
N5 C21 1_555 1_555
C2 C20 1_555 1_555
C4 C5 1_555 1_555
C6 C9 1_555 1_555
C10 C11 1_555 1_555
C10 C19 1_555 1_555
C12 C13 1_555 1_555
C15 C16 1_555 1_555
C16 C17 1_555 1_555
C26 C27 1_555 1_555

#END
