
#######################################################################
#
#                 Cambridge Crystallographic Data Centre
#                                CCDC 
#
#######################################################################
#
# If this CIF has been generated from an entry in the Cambridge 
# Structural Database, then it will include bibliographic, chemical, 
# crystal, experimental, refinement or atomic coordinate data resulting 
# from the CCDC's data processing and validation procedures.
#
#######################################################################

data_FIJCAF
_chemical_formula_moiety         'C21 H21 N1 O1'
_chemical_name_systematic        
2a,4-dimethyl-8b-phenyl-2,2a,4,8b-tetrahydro-3H-spiro[cyclobuta[c]quinoline-1,1'-cyclopropan]-3-one
_symmetry_cell_setting           triclinic
_symmetry_space_group_name_H-M   'P -1'
_symmetry_Int_Tables_number      2
_space_group_name_Hall           '-P 1'
loop_
_symmetry_equiv_pos_site_id
_symmetry_equiv_pos_as_xyz
1 x,y,z
2 -x,-y,-z
_cell_length_a                   9.4746(4)
_cell_length_b                   9.4905(4)
_cell_length_c                   9.7931(4)
_cell_angle_alpha                78.0810(10)
_cell_angle_beta                 70.1660(10)
_cell_angle_gamma                77.5270(10)
_cell_volume                     800.239
_exptl_crystal_colour            colorless
_exptl_crystal_description       prismatic
_cell_formula_units_Z            2
loop_
_atom_site_label
_atom_site_type_symbol
_atom_site_fract_x
_atom_site_fract_y
_atom_site_fract_z
N1 N 0.18861(14) 0.48372(13) 0.19361(14)
O1 O 0.19558(17) 0.41857(16) -0.01691(15)
C1 C 0.24430(18) 0.39556(17) 0.08740(17)
C2 C 0.37001(16) 0.26820(15) 0.09623(15)
C3 C 0.30386(18) 0.12449(17) 0.12696(17)
H1 H 0.2084 0.1369 0.1064
H2 H 0.3757 0.0452 0.0813
C4 C 0.28612(16) 0.11650(15) 0.28782(16)
C5 C 0.13642(18) 0.12526(19) 0.40614(19)
H3 H 0.0482 0.1155 0.3819
H4 H 0.1165 0.1915 0.4762
C6 C 0.2557(2) -0.00675(18) 0.41055(19)
H5 H 0.3077 -0.0201 0.4833
H6 H 0.2394 -0.0962 0.3891
C7 C 0.39859(15) 0.22565(14) 0.25112(15)
C8 C 0.34587(15) 0.34514(15) 0.34563(15)
C9 C 0.38748(18) 0.33088(18) 0.47121(17)
H7 H 0.4536 0.2484 0.4938
C10 C 0.3335(2) 0.4358(2) 0.56391(19)
H8 H 0.3608 0.4230 0.6489
C11 C 0.2393(2) 0.5587(2) 0.5284(2)
H9 H 0.2052 0.6316 0.5880
C12 C 0.1945(2) 0.57563(18) 0.40562(19)
H10 H 0.1304 0.6598 0.3830
C13 C 0.24415(16) 0.46797(15) 0.31449(16)
C14 C 0.0662(2) 0.6042(2) 0.1780(2)
H11 H 0.1057 0.6945 0.1479
H12 H -0.0128 0.6075 0.2704
H13 H 0.0256 0.5893 0.1056
C15 C 0.50419(18) 0.28940(18) -0.04187(16)
H14 H 0.4716 0.3002 -0.1267
H15 H 0.5825 0.2061 -0.0427
H16 H 0.5430 0.3753 -0.0433
C16 C 0.56327(16) 0.15470(15) 0.23392(15)
C17 C 0.61115(18) 0.00566(16) 0.23374(17)
H17 H 0.5399 -0.0552 0.2520
C18 C 0.7637(2) -0.05400(19) 0.20678(19)
H18 H 0.7935 -0.1540 0.2066
C19 C 0.87093(19) 0.0336(2) 0.18037(19)
H19 H 0.9730 -0.0067 0.1628
C20 C 0.82581(18) 0.1817(2) 0.18022(18)
H20 H 0.8978 0.2416 0.1625
C21 C 0.67402(17) 0.24181(17) 0.20631(17)
H21 H 0.6453 0.3420 0.2054
loop_
_geom_bond_atom_site_label_1
_geom_bond_atom_site_label_2
_geom_bond_site_symmetry_1
_geom_bond_site_symmetry_2
N1 C1 1_555 1_555
O1 C1 1_555 1_555
C1 C2 1_555 1_555
C2 C3 1_555 1_555
C3 H1 1_555 1_555
H2 C3 1_555 1_555
C4 C3 1_555 1_555
C5 C4 1_555 1_555
H3 C5 1_555 1_555
H4 C5 1_555 1_555
C6 C4 1_555 1_555
H5 C6 1_555 1_555
H6 C6 1_555 1_555
C7 C2 1_555 1_555
C8 C7 1_555 1_555
C9 C8 1_555 1_555
H7 C9 1_555 1_555
C10 C9 1_555 1_555
H8 C10 1_555 1_555
C11 C10 1_555 1_555
H9 C11 1_555 1_555
C12 C11 1_555 1_555
H10 C12 1_555 1_555
C13 N1 1_555 1_555
C14 N1 1_555 1_555
H11 C14 1_555 1_555
H12 C14 1_555 1_555
H13 C14 1_555 1_555
C15 C2 1_555 1_555
H14 C15 1_555 1_555
H15 C15 1_555 1_555
H16 C15 1_555 1_555
C16 C7 1_555 1_555
C17 C16 1_555 1_555
H17 C17 1_555 1_555
C18 C17 1_555 1_555
H18 C18 1_555 1_555
C19 C18 1_555 1_555
H19 C19 1_555 1_555
C20 C19 1_555 1_555
H20 C20 1_555 1_555
C21 C16 1_555 1_555
H21 C21 1_555 1_555
C4 C7 1_555 1_555
C5 C6 1_555 1_555
C8 C13 1_555 1_555
C12 C13 1_555 1_555
C20 C21 1_555 1_555

#END
