
#######################################################################
#
#                 Cambridge Crystallographic Data Centre
#                                CCDC 
#
#######################################################################
#
# If this CIF has been generated from an entry in the Cambridge 
# Structural Database, then it will include bibliographic, chemical, 
# crystal, experimental, refinement or atomic coordinate data resulting 
# from the CCDC's data processing and validation procedures.
#
#######################################################################

data_FIJNUJ
_chemical_formula_moiety         'C18 H19 N1 O4 S1'
_chemical_name_systematic        
N-(2-(2H-Chromen-3-yl)-2-hydroxyethyl)-4-methylbenzenesulfonamide
_symmetry_cell_setting           monoclinic
_symmetry_space_group_name_H-M   'P 21'
_symmetry_Int_Tables_number      4
_space_group_name_Hall           'P 2yb'
loop_
_symmetry_equiv_pos_site_id
_symmetry_equiv_pos_as_xyz
1 x,y,z
2 -x,1/2+y,-z
_cell_length_a                   11.637(3)
_cell_length_b                   5.1727(12)
_cell_length_c                   13.477(3)
_cell_angle_alpha                90
_cell_angle_beta                 92.871(4)
_cell_angle_gamma                90
_cell_volume                     810.226
_exptl_crystal_colour            colorless
_exptl_crystal_description       block
_cell_formula_units_Z            2
loop_
_atom_site_label
_atom_site_type_symbol
_atom_site_fract_x
_atom_site_fract_y
_atom_site_fract_z
C1 C 0.6800(3) 0.1905(9) 1.0727(3)
H1 H 0.6137 0.3069 1.0648
H2 H 0.7179 0.2156 1.1386
H3 H 0.6539 0.0110 1.0659
C2 C 0.7638(3) 0.2492(8) 0.9939(3)
C3 C 0.8573(3) 0.0835(7) 0.9823(2)
H4 H 0.8687 -0.0603 1.0256
C4 C 0.9335(3) 0.1276(7) 0.9081(2)
H5 H 0.9966 0.0142 0.8999
C5 C 0.9160(3) 0.3414(6) 0.8459(2)
C6 C 0.8252(3) 0.5101(7) 0.8582(2)
H6 H 0.8149 0.6571 0.8164
C7 C 0.7500(3) 0.4618(7) 0.9317(2)
H7 H 0.6874 0.5764 0.9400
C8 C 0.8541(3) 0.2852(7) 0.6063(2)
H8 H 0.8415 0.4744 0.6038
H9 H 0.7931 0.2066 0.6451
C9 C 0.8491(3) 0.1742(7) 0.5010(2)
H10 H 0.9123 0.2523 0.4632
C10 C 0.7361(3) 0.2294(7) 0.4469(2)
C11 C 0.7259(3) 0.3908(8) 0.3708(2)
H11 H 0.7921 0.4740 0.3474
C12 C 0.6294(3) 0.1018(8) 0.4838(2)
H12 H 0.6503 -0.0711 0.5105
H13 H 0.6008 0.2058 0.5391
C13 C 0.6125(3) 0.4411(7) 0.3225(2)
C14 C 0.5222(3) 0.2724(7) 0.3423(2)
C15 C 0.4165(3) 0.2947(8) 0.2919(3)
H14 H 0.3568 0.1753 0.3041
C16 C 0.3979(3) 0.4917(7) 0.2234(2)
H15 H 0.3249 0.5077 0.1893
C17 C 0.4844(3) 0.6657(8) 0.2041(2)
H16 H 0.4706 0.8019 0.1578
C18 C 0.5913(3) 0.6388(8) 0.2533(3)
H17 H 0.6512 0.7566 0.2397
N1 N 0.9682(2) 0.2279(6) 0.6537(2)
H18 H 0.974(3) 0.061(4) 0.663(3)
O1 O 1.0008(2) 0.6669(5) 0.72297(18)
O2 O 1.12233(18) 0.2970(5) 0.78195(17)
O3 O 0.86985(18) -0.0987(5) 0.51213(16)
H19 H 0.9093 -0.1510 0.4656
O4 O 0.5387(2) 0.0734(5) 0.40889(18)
S1 S 1.01178(6) 0.40018(17) 0.75114(5)
loop_
_geom_bond_atom_site_label_1
_geom_bond_atom_site_label_2
_geom_bond_site_symmetry_1
_geom_bond_site_symmetry_2
C1 H1 1_555 1_555
H2 C1 1_555 1_555
H3 C1 1_555 1_555
C2 C1 1_555 1_555
C3 C2 1_555 1_555
H4 C3 1_555 1_555
C4 C3 1_555 1_555
H5 C4 1_555 1_555
C5 C4 1_555 1_555
C6 C5 1_555 1_555
H6 C6 1_555 1_555
C7 C2 1_555 1_555
H7 C7 1_555 1_555
C8 H8 1_555 1_555
H9 C8 1_555 1_555
C9 C8 1_555 1_555
H10 C9 1_555 1_555
C10 C9 1_555 1_555
C11 C10 1_555 1_555
H11 C11 1_555 1_555
C12 C10 1_555 1_555
H12 C12 1_555 1_555
H13 C12 1_555 1_555
C13 C11 1_555 1_555
C14 C13 1_555 1_555
C15 C14 1_555 1_555
H14 C15 1_555 1_555
C16 C15 1_555 1_555
H15 C16 1_555 1_555
C17 C16 1_555 1_555
H16 C17 1_555 1_555
C18 C13 1_555 1_555
H17 C18 1_555 1_555
N1 C8 1_555 1_555
H18 N1 1_555 1_555
O1 S1 1_555 1_555
O2 S1 1_555 1_555
O3 C9 1_555 1_555
H19 O3 1_555 1_555
O4 C12 1_555 1_555
S1 C5 1_555 1_555
C6 C7 1_555 1_555
C14 O4 1_555 1_555
C17 C18 1_555 1_555
N1 S1 1_555 1_555

#END
