
#######################################################################
#
#                 Cambridge Crystallographic Data Centre
#                                CCDC 
#
#######################################################################
#
# If this CIF has been generated from an entry in the Cambridge 
# Structural Database, then it will include bibliographic, chemical, 
# crystal, experimental, refinement or atomic coordinate data resulting 
# from the CCDC's data processing and validation procedures.
#
#######################################################################

data_FIJPIZ
_chemical_formula_moiety         'C14 H15 N1 O5'
_chemical_name_systematic        
'Isopropyl 2-((1R,2R,3R)-2-nitro-3-phenylcyclopropyl)-2-oxoacetate'
_symmetry_cell_setting           monoclinic
_symmetry_space_group_name_H-M   'P 21'
_symmetry_Int_Tables_number      4
_space_group_name_Hall           'P 2yb'
loop_
_symmetry_equiv_pos_site_id
_symmetry_equiv_pos_as_xyz
1 x,y,z
2 -x,1/2+y,-z
_cell_length_a                   10.070(2)
_cell_length_b                   6.7473(13)
_cell_length_c                   11.122(2)
_cell_angle_alpha                90
_cell_angle_beta                 106.53(3)
_cell_angle_gamma                90
_cell_volume                     724.456
_exptl_crystal_colour            colorless
_exptl_crystal_description       prism
_chemical_melting_point          '50-51 deg.C'
_cell_formula_units_Z            2
loop_
_atom_site_label
_atom_site_type_symbol
_atom_site_fract_x
_atom_site_fract_y
_atom_site_fract_z
O1 O 0.8182(3) 0.6460(4) 0.1577(2)
O2 O 0.6949(3) 0.4896(4) 0.4033(2)
O3 O 0.7722(2) 0.7909(3) 0.36434(18)
O4 O 0.5260(3) 0.0556(5) 0.0366(3)
O5 O 0.5515(2) 0.1672(6) -0.1397(2)
N1 N 0.5852(2) 0.1559(5) -0.0240(3)
C1 C 0.7181(2) 0.3300(4) 0.1755(2)
H1 H 0.6418 0.2814 0.2059
C2 C 0.7092(2) 0.2727(5) 0.0440(3)
H2 H 0.7456 0.3675 -0.0055
C3 C 0.8139(2) 0.1653(5) 0.1483(2)
H3 H 0.7840 0.0315 0.1629
C4 C 0.7637(2) 0.5360(5) 0.2148(2)
C5 C 0.7386(3) 0.6012(4) 0.3397(3)
C6 C 0.7574(4) 0.8717(6) 0.4838(3)
H4 H 0.7710 0.7653 0.5461
C7 C 0.8720(5) 1.0237(9) 0.5263(4)
H5 H 0.9594 0.9632 0.5303
H6 H 0.8736 1.0725 0.6078
H7 H 0.8556 1.1318 0.4678
C8 C 0.6146(5) 0.9562(10) 0.4604(5)
H8 H 0.5473 0.8562 0.4241
H9 H 0.6037 1.0663 0.4038
H10 H 0.6013 1.0002 0.5382
C9 C 0.9670(2) 0.1794(5) 0.1654(2)
C10 C 1.0287(3) 0.3283(7) 0.1136(3)
H11 H 0.9754 0.4303 0.0679
C11 C 1.1716(3) 0.3234(10) 0.1307(4)
H12 H 1.2127 0.4233 0.0960
C12 C 1.2529(3) 0.1744(10) 0.1977(3)
H13 H 1.3479 0.1731 0.2081
C13 C 1.1926(3) 0.0292(8) 0.2485(3)
H14 H 1.2472 -0.0715 0.2946
C14 C 1.0501(3) 0.0285(6) 0.2327(3)
H15 H 1.0105 -0.0731 0.2672
loop_
_geom_bond_atom_site_label_1
_geom_bond_atom_site_label_2
_geom_bond_site_symmetry_1
_geom_bond_site_symmetry_2
O1 C4 1_555 1_555
O2 C5 1_555 1_555
O3 C5 1_555 1_555
O4 N1 1_555 1_555
O5 N1 1_555 1_555
N1 C2 1_555 1_555
C1 H1 1_555 1_555
C2 C1 1_555 1_555
H2 C2 1_555 1_555
C3 C1 1_555 1_555
H3 C3 1_555 1_555
C4 C1 1_555 1_555
C5 C4 1_555 1_555
C6 O3 1_555 1_555
H4 C6 1_555 1_555
C7 C6 1_555 1_555
H5 C7 1_555 1_555
H6 C7 1_555 1_555
H7 C7 1_555 1_555
C8 C6 1_555 1_555
H8 C8 1_555 1_555
H9 C8 1_555 1_555
H10 C8 1_555 1_555
C9 C3 1_555 1_555
C10 C9 1_555 1_555
H11 C10 1_555 1_555
C11 C10 1_555 1_555
H12 C11 1_555 1_555
C12 C11 1_555 1_555
H13 C12 1_555 1_555
C13 C12 1_555 1_555
H14 C13 1_555 1_555
C14 C9 1_555 1_555
H15 C14 1_555 1_555
C2 C3 1_555 1_555
C13 C14 1_555 1_555

#END
