
#######################################################################
#
#                 Cambridge Crystallographic Data Centre
#                                CCDC 
#
#######################################################################
#
# If this CIF has been generated from an entry in the Cambridge 
# Structural Database, then it will include bibliographic, chemical, 
# crystal, experimental, refinement or atomic coordinate data resulting 
# from the CCDC's data processing and validation procedures.
#
#######################################################################

data_FIJTAV
_chemical_formula_moiety         'C5 H6 N2 O4'
_chemical_name_systematic        '4-(Carbamoylamino)-4-oxobut-2-enoic acid'
_symmetry_cell_setting           orthorhombic
_symmetry_space_group_name_H-M   'P b c n'
_symmetry_Int_Tables_number      60
_space_group_name_Hall           '-P 2n 2ab'
loop_
_symmetry_equiv_pos_site_id
_symmetry_equiv_pos_as_xyz
1 x,y,z
2 1/2-x,1/2-y,1/2+z
3 -x,y,1/2-z
4 1/2+x,1/2-y,-z
5 -x,-y,-z
6 1/2+x,1/2+y,1/2-z
7 x,-y,1/2+z
8 1/2-x,1/2+y,z
_cell_length_a                   10.4798(9)
_cell_length_b                   6.8247(6)
_cell_length_c                   18.6807(17)
_cell_angle_alpha                90
_cell_angle_beta                 90
_cell_angle_gamma                90
_cell_volume                     1336.07
_exptl_crystal_colour            colorless
_exptl_crystal_description       block
_cell_formula_units_Z            8
loop_
_atom_site_label
_atom_site_type_symbol
_atom_site_fract_x
_atom_site_fract_y
_atom_site_fract_z
C1 C -0.10912(12) 0.44011(18) 0.09994(6)
C2 C -0.05286(12) 0.3069(2) 0.04610(6)
H1 H -0.1010 0.2796 0.0055
C3 C 0.06082(12) 0.22350(19) 0.05130(6)
H2 H 0.0836 0.1431 0.0132
C4 C 0.15746(11) 0.24001(17) 0.10946(6)
C5 C 0.19643(11) 0.15514(17) 0.23601(6)
N1 N 0.11941(9) 0.18156(14) 0.17646(5)
H3 H 0.0393 0.1589 0.1821
N2 N 0.32079(10) 0.16970(18) 0.22847(6)
H4 H 0.3701 0.1510 0.2646
H5 H 0.3529 0.1979 0.1874
O1 O -0.04697(8) 0.53510(14) 0.14239(5)
O2 O -0.23479(9) 0.44356(16) 0.09609(5)
H6 H -0.2634 0.5090 0.1292
O3 O 0.26585(9) 0.29237(16) 0.09542(5)
O4 O 0.14393(8) 0.11461(15) 0.29423(4)
loop_
_geom_bond_atom_site_label_1
_geom_bond_atom_site_label_2
_geom_bond_site_symmetry_1
_geom_bond_site_symmetry_2
C1 C2 1_555 1_555
C2 H1 1_555 1_555
C3 C2 1_555 1_555
H2 C3 1_555 1_555
C4 C3 1_555 1_555
C5 N1 1_555 1_555
N1 C4 1_555 1_555
H3 N1 1_555 1_555
N2 C5 1_555 1_555
H4 N2 1_555 1_555
H5 N2 1_555 1_555
O1 C1 1_555 1_555
O2 C1 1_555 1_555
H6 O2 1_555 1_555
O3 C4 1_555 1_555
O4 C5 1_555 1_555

#END
