
#######################################################################
#
#                 Cambridge Crystallographic Data Centre
#                                CCDC 
#
#######################################################################
#
# If this CIF has been generated from an entry in the Cambridge 
# Structural Database, then it will include bibliographic, chemical, 
# crystal, experimental, refinement or atomic coordinate data resulting 
# from the CCDC's data processing and validation procedures.
#
#######################################################################

data_FIJVUR
_chemical_name_common            
1,11b-Dimethyl-3-phenyl-3,11b-dihydro-6H-chromeno[4',3':4,5]pyrano[2,3-c]pyrazole
_chemical_formula_moiety         'C21 H18 N2 O2'
_chemical_name_systematic        
(11bS)-1,11b-dimethyl-3-phenyl-3,11b-dihydro-6H-chromeno[4',3':4,5]pyrano[2,3-c]pyrazole
_symmetry_cell_setting           monoclinic
_symmetry_space_group_name_H-M   'P 21/c'
_symmetry_Int_Tables_number      14
_space_group_name_Hall           '-P 2ybc'
loop_
_symmetry_equiv_pos_site_id
_symmetry_equiv_pos_as_xyz
1 x,y,z
2 -x,1/2+y,1/2-z
3 -x,-y,-z
4 x,1/2-y,1/2+z
_cell_length_a                   10.2068(3)
_cell_length_b                   11.2849(5)
_cell_length_c                   14.3720(5)
_cell_angle_alpha                90
_cell_angle_beta                 91.778(3)
_cell_angle_gamma                90
_cell_volume                     1654.61
_exptl_crystal_colour            white
_exptl_crystal_description       block
_cell_formula_units_Z            4
loop_
_atom_site_label
_atom_site_type_symbol
_atom_site_fract_x
_atom_site_fract_y
_atom_site_fract_z
C1 C 0.14840(14) 0.64820(13) 0.28124(10)
N1 N 0.24334(12) 0.61813(12) 0.22444(9)
N2 N 0.19201(12) 0.63535(12) 0.13600(9)
C2 C 0.06836(14) 0.67677(14) 0.14055(10)
O1 O -0.00041(11) 0.70832(11) 0.06194(7)
C3 C -0.11944(16) 0.76097(16) 0.08164(12)
H1 H -0.1725 0.7851 0.0314
C4 C -0.16349(15) 0.77951(14) 0.16573(11)
C5 C -0.29463(16) 0.83502(16) 0.17699(12)
H2 H -0.2830 0.9128 0.2048
H3 H -0.3366 0.8455 0.1161
C6 C -0.32806(16) 0.67160(15) 0.28317(12)
O2 O -0.37832(12) 0.76595(12) 0.23368(10)
C7 C -0.42027(18) 0.59615(19) 0.31996(15)
H4 H -0.5092 0.6118 0.3110
C8 C -0.3798(2) 0.4982(2) 0.36960(15)
H5 H -0.4417 0.4484 0.3952
C9 C -0.2479(2) 0.47284(18) 0.38191(14)
H6 H -0.2209 0.4055 0.4145
C10 C -0.15662(17) 0.54890(15) 0.34518(12)
H7 H -0.0679 0.5315 0.3531
C11 C -0.19392(15) 0.65052(14) 0.29685(11)
C12 C -0.09672(14) 0.73857(13) 0.25638(10)
C13 C 0.03364(14) 0.68598(14) 0.23110(10)
C14 C 0.17539(17) 0.63631(16) 0.38377(11)
H8 H 0.1539 0.5575 0.4032
H9 H 0.1231 0.6925 0.4164
H10 H 0.2665 0.6514 0.3974
C15 C 0.27070(15) 0.62140(14) 0.05626(11)
C16 C 0.39662(16) 0.66600(16) 0.05864(13)
H11 H 0.4310 0.7022 0.1122
C17 C 0.47065(19) 0.65603(18) -0.01974(15)
H12 H 0.5559 0.6852 -0.0187
C18 C 0.4201(2) 0.60370(19) -0.09911(15)
H13 H 0.4701 0.5994 -0.1520
C19 C 0.2950(2) 0.55753(18) -0.10032(13)
H14 H 0.2611 0.5211 -0.1539
C20 C 0.21969(17) 0.56513(16) -0.02217(12)
H15 H 0.1359 0.5328 -0.0224
C21 C -0.07690(17) 0.84342(15) 0.32423(12)
H16 H -0.0327 0.8162 0.3802
H17 H -0.1606 0.8759 0.3391
H18 H -0.0250 0.9034 0.2956
loop_
_geom_bond_atom_site_label_1
_geom_bond_atom_site_label_2
_geom_bond_site_symmetry_1
_geom_bond_site_symmetry_2
C1 N1 1_555 1_555
N1 N2 1_555 1_555
N2 C2 1_555 1_555
C2 O1 1_555 1_555
O1 C3 1_555 1_555
C3 H1 1_555 1_555
C4 C3 1_555 1_555
C5 C4 1_555 1_555
H2 C5 1_555 1_555
H3 C5 1_555 1_555
C6 O2 1_555 1_555
O2 C5 1_555 1_555
C7 C6 1_555 1_555
H4 C7 1_555 1_555
C8 C7 1_555 1_555
H5 C8 1_555 1_555
C9 C8 1_555 1_555
H6 C9 1_555 1_555
C10 C9 1_555 1_555
H7 C10 1_555 1_555
C11 C6 1_555 1_555
C12 C4 1_555 1_555
C13 C1 1_555 1_555
C14 C1 1_555 1_555
H8 C14 1_555 1_555
H9 C14 1_555 1_555
H10 C14 1_555 1_555
C15 N2 1_555 1_555
C16 C15 1_555 1_555
H11 C16 1_555 1_555
C17 C16 1_555 1_555
H12 C17 1_555 1_555
C18 C17 1_555 1_555
H13 C18 1_555 1_555
C19 C18 1_555 1_555
H14 C19 1_555 1_555
C20 C15 1_555 1_555
H15 C20 1_555 1_555
C21 C12 1_555 1_555
H16 C21 1_555 1_555
H17 C21 1_555 1_555
H18 C21 1_555 1_555
C2 C13 1_555 1_555
C10 C11 1_555 1_555
C11 C12 1_555 1_555
C12 C13 1_555 1_555
C19 C20 1_555 1_555

#END
