
#######################################################################
#
#                 Cambridge Crystallographic Data Centre
#                                CCDC 
#
#######################################################################
#
# If this CIF has been generated from an entry in the Cambridge 
# Structural Database, then it will include bibliographic, chemical, 
# crystal, experimental, refinement or atomic coordinate data resulting 
# from the CCDC's data processing and validation procedures.
#
#######################################################################

data_FIJWIE
_chemical_formula_moiety         'C21 H14 N2 O2'
_chemical_name_systematic        
3-(Indol-3-yl)-1-methylbenzo(f)indole-4,9-dione
_symmetry_cell_setting           monoclinic
_symmetry_space_group_name_H-M   'P 21/c'
_symmetry_Int_Tables_number      14
_space_group_name_Hall           '-P 2ybc'
loop_
_symmetry_equiv_pos_site_id
_symmetry_equiv_pos_as_xyz
1 x,y,z
2 -x,1/2+y,1/2-z
3 -x,-y,-z
4 x,1/2-y,1/2+z
_cell_length_a                   14.2202(8)
_cell_length_b                   7.1871(4)
_cell_length_c                   15.5625(8)
_cell_angle_alpha                90
_cell_angle_beta                 109.949(1)
_cell_angle_gamma                90
_cell_volume                     1495.08
_exptl_crystal_colour            'dark red'
_chemical_melting_point          '300-303 deg.C'
_cell_formula_units_Z            4
loop_
_atom_site_label
_atom_site_type_symbol
_atom_site_fract_x
_atom_site_fract_y
_atom_site_fract_z
O1 O 0.1594(1) 0.4267(2) 0.4981(1)
O2 O 0.3547(1) 0.3556(2) 0.8635(1)
N1 N 0.3729(1) 0.5224(2) 0.5843(1)
N2 N 0.6516(1) 0.5417(2) 0.9636(1)
C1 C 0.3084(1) 0.4603(2) 0.6259(1)
C2 C 0.2027(1) 0.4203(2) 0.5812(1)
C3 C 0.1494(1) 0.3660(2) 0.6454(1)
C4 C 0.0464(1) 0.3370(2) 0.6104(1)
C5 C -0.0046(1) 0.2818(2) 0.6679(1)
C6 C 0.0464(1) 0.2522(2) 0.7600(1)
C7 C 0.1490(1) 0.2825(2) 0.7959(1)
C8 C 0.2012(1) 0.3416(2) 0.7394(1)
C9 C 0.3114(1) 0.3773(2) 0.7808(1)
C10 C 0.3616(1) 0.4396(2) 0.7189(1)
C11 C 0.4632(1) 0.4907(2) 0.7342(1)
C12 C 0.4655(1) 0.5409(2) 0.6491(1)
C13 C 0.3499(1) 0.5648(2) 0.4876(1)
C14 C 0.5505(1) 0.4959(2) 0.8182(1)
C15 C 0.6521(1) 0.4517(2) 0.8253(1)
C16 C 0.6970(1) 0.3856(2) 0.7635(1)
C17 C 0.7991(1) 0.3536(2) 0.7949(1)
C18 C 0.8576(1) 0.3847(2) 0.8865(1)
C19 C 0.8159(1) 0.4482(2) 0.9490(1)
C20 C 0.7127(1) 0.4813(2) 0.9172(1)
C21 C 0.5548(1) 0.5486(2) 0.9036(1)
H1 H 0.6674(12) 0.5707(23) 1.0243(13)
H2 H 0.0110(1) 0.3549(2) 0.5471(1)
H3 H -0.0750(1) 0.2643(2) 0.6439(1)
H4 H 0.0113(1) 0.2112(2) 0.7986(1)
H5 H 0.1838(1) 0.2629(2) 0.8592(1)
H6 H 0.5235(1) 0.5824(2) 0.6374(1)
H7 H 0.2888(4) 0.6398(12) 0.4658(2)
H8 H 0.3400(8) 0.4486(2) 0.4527(1)
H9 H 0.4055(4) 0.6344(13) 0.4795(1)
H10 H 0.6579(1) 0.3632(2) 0.7014(1)
H11 H 0.8301(1) 0.3097(2) 0.7535(1)
H12 H 0.9276(1) 0.3615(2) 0.9059(1)
H13 H 0.8556(1) 0.4687(2) 1.0111(1)
H14 H 0.4986(1) 0.5851(2) 0.9195(1)
loop_
_geom_bond_atom_site_label_1
_geom_bond_atom_site_label_2
_geom_bond_site_symmetry_1
_geom_bond_site_symmetry_2
O1 C2 1_555 1_555
O2 C9 1_555 1_555
N1 C1 1_555 1_555
N2 C20 1_555 1_555
C1 C2 1_555 1_555
C2 C3 1_555 1_555
C3 C4 1_555 1_555
C4 C5 1_555 1_555
C5 C6 1_555 1_555
C6 C7 1_555 1_555
C7 C8 1_555 1_555
C8 C3 1_555 1_555
C9 C8 1_555 1_555
C10 C1 1_555 1_555
C11 C10 1_555 1_555
C12 N1 1_555 1_555
C13 N1 1_555 1_555
C14 C11 1_555 1_555
C15 C14 1_555 1_555
C16 C15 1_555 1_555
C17 C16 1_555 1_555
C18 C17 1_555 1_555
C19 C18 1_555 1_555
C20 C15 1_555 1_555
C21 N2 1_555 1_555
H1 N2 1_555 1_555
H2 C4 1_555 1_555
H3 C5 1_555 1_555
H4 C6 1_555 1_555
H5 C7 1_555 1_555
H6 C12 1_555 1_555
H7 C13 1_555 1_555
H8 C13 1_555 1_555
H9 C13 1_555 1_555
H10 C16 1_555 1_555
H11 C17 1_555 1_555
H12 C18 1_555 1_555
H13 C19 1_555 1_555
H14 C21 1_555 1_555
C9 C10 1_555 1_555
C11 C12 1_555 1_555
C14 C21 1_555 1_555
C19 C20 1_555 1_555

#END
