
#######################################################################
#
#                 Cambridge Crystallographic Data Centre
#                                CCDC 
#
#######################################################################
#
# If this CIF has been generated from an entry in the Cambridge 
# Structural Database, then it will include bibliographic, chemical, 
# crystal, experimental, refinement or atomic coordinate data resulting 
# from the CCDC's data processing and validation procedures.
#
#######################################################################

data_FIJXUS
_chemical_name_common            'Phlogacantholide B diacetate'
_chemical_formula_moiety         'C24 H32 O6'
_chemical_name_systematic        
14,19-bis(Acetoxy)abi\h-8,13(15)-dien-16,12-olide
_symmetry_cell_setting           orthorhombic
_symmetry_space_group_name_H-M   'P 21 21 21'
_symmetry_Int_Tables_number      19
_space_group_name_Hall           'P 2ac 2ab'
loop_
_symmetry_equiv_pos_site_id
_symmetry_equiv_pos_as_xyz
1 x,y,z
2 1/2-x,-y,1/2+z
3 -x,1/2+y,1/2-z
4 1/2+x,1/2-y,-z
_cell_length_a                   7.806(1)
_cell_length_b                   15.010(3)
_cell_length_c                   18.893(3)
_cell_angle_alpha                90
_cell_angle_beta                 90
_cell_angle_gamma                90
_cell_volume                     2213.66
_exptl_crystal_colour            colorless
_exptl_crystal_description       needle
_chemical_melting_point          '181-182 deg.C'
_cell_formula_units_Z            4
_exptl_crystal_recrystallization_method acetone
loop_
_atom_site_label
_atom_site_type_symbol
_atom_site_fract_x
_atom_site_fract_y
_atom_site_fract_z
O1 O 0.2594(2) 0.58343(10) 0.53835(8)
O2 O 0.3491(2) 0.27643(9) 0.55472(7)
O3 O 0.2117(2) 0.58227(11) 0.42166(8)
O4 O 0.7316(2) 0.33336(9) 0.90617(7)
O5 O 0.1379(4) 0.19343(15) 0.59892(12)
O6 O 0.7172(3) 0.41941(13) 1.00116(9)
C1 C 0.7922(3) 0.51960(15) 0.69783(11)
H1 H 0.8333 0.4957 0.6532
H2 H 0.7476 0.5789 0.6889
C2 C 0.9414(3) 0.52607(17) 0.74951(12)
H3 H 1.0306 0.5630 0.7291
H4 H 0.9028 0.5544 0.7928
C3 C 1.0139(3) 0.43557(17) 0.76668(12)
H5 H 1.1056 0.4428 0.8008
H6 H 1.0634 0.4106 0.7240
C4 C 0.8823(3) 0.36876(15) 0.79669(11)
C5 C 0.7240(3) 0.36796(14) 0.74677(10)
H7 H 0.7694 0.3448 0.7021
C6 C 0.5798(3) 0.30281(15) 0.76549(11)
H8 H 0.6284 0.2478 0.7835
H9 H 0.5079 0.3283 0.8021
C7 C 0.4729(3) 0.28353(14) 0.70016(11)
H10 H 0.5324 0.2401 0.6711
H11 H 0.3648 0.2574 0.7147
C8 C 0.4374(3) 0.36566(13) 0.65628(10)
C9 C 0.5117(3) 0.44487(13) 0.66766(10)
C10 C 0.6455(3) 0.45960(13) 0.72595(10)
C11 C 0.4651(3) 0.52647(13) 0.62467(11)
H12 H 0.4677 0.5786 0.6550
H13 H 0.5492 0.5349 0.5875
C12 C 0.2894(3) 0.51756(14) 0.59205(11)
H14 H 0.2013 0.5218 0.6289
C13 C 0.2755(3) 0.43051(13) 0.55480(11)
C14 C 0.3024(3) 0.35085(13) 0.60006(10)
H15 H 0.1939 0.3365 0.6236
C15 C 0.2499(3) 0.44358(14) 0.48613(11)
C16 C 0.2371(3) 0.54126(15) 0.47514(12)
C17 C 0.2351(4) 0.38300(16) 0.42383(11)
H16 H 0.3461 0.3746 0.4030
H17 H 0.1592 0.4089 0.3895
H18 H 0.1903 0.3265 0.4389
C18 C 0.9651(4) 0.27655(17) 0.79751(14)
H19 H 0.9846 0.2571 0.7498
H20 H 0.8903 0.2352 0.8210
H21 H 1.0723 0.2794 0.8223
C19 C 0.8484(3) 0.39594(15) 0.87382(11)
H22 H 0.9554 0.3969 0.8999
H23 H 0.7995 0.4553 0.8752
C20 C 0.5529(3) 0.50839(15) 0.78737(11)
H24 H 0.4739 0.5511 0.7683
H25 H 0.6359 0.5385 0.8163
H26 H 0.4916 0.4658 0.8156
C21 C 0.2929(5) 0.13955(17) 0.49978(16)
H27 H 0.3451 0.0879 0.5205
H28 H 0.3716 0.1669 0.4674
H29 H 0.1910 0.1222 0.4749
C22 C 0.2478(4) 0.20384(15) 0.55622(14)
C23 C 0.5684(4) 0.28117(16) 1.00093(14)
H30 H 0.6392 0.2363 1.0223
H31 H 0.5017 0.2549 0.9636
H32 H 0.4931 0.3059 1.0360
C24 C 0.6781(3) 0.35269(16) 0.97135(11)
loop_
_geom_bond_atom_site_label_1
_geom_bond_atom_site_label_2
_geom_bond_site_symmetry_1
_geom_bond_site_symmetry_2
O1 C12 1_555 1_555
O2 C14 1_555 1_555
O3 C16 1_555 1_555
O4 C19 1_555 1_555
O5 C22 1_555 1_555
O6 C24 1_555 1_555
C1 H1 1_555 1_555
H2 C1 1_555 1_555
C2 C1 1_555 1_555
H3 C2 1_555 1_555
H4 C2 1_555 1_555
C3 C2 1_555 1_555
H5 C3 1_555 1_555
H6 C3 1_555 1_555
C4 C3 1_555 1_555
C5 C4 1_555 1_555
H7 C5 1_555 1_555
C6 C5 1_555 1_555
H8 C6 1_555 1_555
H9 C6 1_555 1_555
C7 C6 1_555 1_555
H10 C7 1_555 1_555
H11 C7 1_555 1_555
C8 C7 1_555 1_555
C9 C8 1_555 1_555
C10 C1 1_555 1_555
C11 C9 1_555 1_555
H12 C11 1_555 1_555
H13 C11 1_555 1_555
C12 C11 1_555 1_555
H14 C12 1_555 1_555
C13 C12 1_555 1_555
C14 C8 1_555 1_555
H15 C14 1_555 1_555
C15 C13 1_555 1_555
C16 O1 1_555 1_555
C17 C15 1_555 1_555
H16 C17 1_555 1_555
H17 C17 1_555 1_555
H18 C17 1_555 1_555
C18 C4 1_555 1_555
H19 C18 1_555 1_555
H20 C18 1_555 1_555
H21 C18 1_555 1_555
C19 C4 1_555 1_555
H22 C19 1_555 1_555
H23 C19 1_555 1_555
C20 C10 1_555 1_555
H24 C20 1_555 1_555
H25 C20 1_555 1_555
H26 C20 1_555 1_555
C21 H27 1_555 1_555
H28 C21 1_555 1_555
H29 C21 1_555 1_555
C22 O2 1_555 1_555
C23 H30 1_555 1_555
H31 C23 1_555 1_555
H32 C23 1_555 1_555
C24 O4 1_555 1_555
C5 C10 1_555 1_555
C9 C10 1_555 1_555
C13 C14 1_555 1_555
C15 C16 1_555 1_555
C21 C22 1_555 1_555
C23 C24 1_555 1_555

#END
