
#######################################################################
#
#                 Cambridge Crystallographic Data Centre
#                                CCDC 
#
#######################################################################
#
# If this CIF has been generated from an entry in the Cambridge 
# Structural Database, then it will include bibliographic, chemical, 
# crystal, experimental, refinement or atomic coordinate data resulting 
# from the CCDC's data processing and validation procedures.
#
#######################################################################

data_FIJXIH
_chemical_formula_moiety         'C25 H24 N2 O4'
_chemical_name_systematic        
1-(2-(2,3-Dimethoxyphenyl)-4-(2-hydroxyphenyl)-2,3-dihydro-1H-1,5-benzodiazepin-1-yl)ethanone
_symmetry_cell_setting           monoclinic
_symmetry_space_group_name_H-M   'P 21/c'
_symmetry_Int_Tables_number      14
_space_group_name_Hall           '-P 2ybc'
loop_
_symmetry_equiv_pos_site_id
_symmetry_equiv_pos_as_xyz
1 x,y,z
2 -x,1/2+y,1/2-z
3 -x,-y,-z
4 x,1/2-y,1/2+z
_cell_length_a                   7.80978(12)
_cell_length_b                   19.4246(3)
_cell_length_c                   14.1513(2)
_cell_angle_alpha                90
_cell_angle_beta                 103.7673(15)
_cell_angle_gamma                90
_cell_volume                     2085.1
_cell_formula_units_Z            4
loop_
_atom_site_label
_atom_site_type_symbol
_atom_site_fract_x
_atom_site_fract_y
_atom_site_fract_z
O1 O 0.22528(11) 0.63874(4) 0.10465(6)
O2 O -0.10173(12) 0.68479(5) 0.22781(7)
O3 O 0.27654(12) 0.53522(5) -0.01139(7)
N1 N -0.23107(13) 0.73054(5) 0.08095(7)
N2 N -0.27358(14) 0.87568(5) 0.04783(8)
C1 C -0.06063(15) 0.73451(6) 0.05226(9)
H1 H 0.0346 0.7332 0.1115
O4 O -0.20730(14) 0.99882(5) 0.10993(8)
H2 H -0.2679 0.9653 0.0885
C2 C -0.05027(16) 0.80361(6) 0.00077(9)
H3 H 0.0703 0.8109 -0.0040
H4 H -0.1237 0.8010 -0.0649
C3 C 0.13300(15) 0.57621(6) -0.04603(9)
C4 C 0.10536(15) 0.62913(6) 0.01689(9)
C5 C -0.40241(15) 0.82834(6) -0.00069(9)
C6 C 0.02101(17) 0.91733(6) 0.09750(9)
C7 C -0.38556(15) 0.75703(6) 0.01481(9)
C8 C 0.02199(17) 0.56976(7) -0.13765(9)
H5 H 0.0404 0.5350 -0.1793
C9 C -0.03362(15) 0.67513(6) -0.01287(9)
C10 C -0.10784(16) 0.86483(6) 0.05146(9)
C11 C -0.03579(19) 0.98338(7) 0.11978(9)
C12 C -0.23340(16) 0.70873(6) 0.17271(9)
C13 C -0.14464(16) 0.66750(6) -0.10593(9)
H6 H -0.2380 0.6979 -0.1267
C14 C -0.51720(16) 0.71284(7) -0.03406(9)
H7 H -0.5053 0.6656 -0.0237
C15 C -0.55611(16) 0.85394(7) -0.06270(9)
H8 H -0.5718 0.9012 -0.0709
C16 C -0.66630(16) 0.73868(7) -0.09824(9)
H9 H -0.7529 0.7089 -0.1318
C17 C -0.40520(17) 0.71697(7) 0.20273(9)
H10 H -0.4945 0.6895 0.1611
H11 H -0.4401 0.7645 0.1972
H12 H -0.3903 0.7021 0.2689
C18 C -0.11729(17) 0.61554(7) -0.16713(9)
H13 H -0.1925 0.6111 -0.2285
C19 C 0.22412(18) 0.58574(7) 0.17553(9)
H14 H 0.2353 0.5415 0.1473
H15 H 0.1153 0.5876 0.1958
H16 H 0.3210 0.5927 0.2308
C20 C -0.68527(16) 0.80925(8) -0.11203(10)
H17 H -0.7853 0.8267 -0.1547
C21 C 0.0879(2) 1.03510(7) 0.15318(10)
H18 H 0.0501 1.0790 0.1650
C22 C 0.20295(18) 0.90540(7) 0.11575(10)
H19 H 0.2429 0.8620 0.1032
C23 C 0.29355(19) 0.47521(7) -0.06674(12)
H20 H 0.3117 0.4887 -0.1289
H21 H 0.1880 0.4481 -0.0760
H22 H 0.3923 0.4485 -0.0325
C24 C 0.3246(2) 0.95636(9) 0.15187(12)
H23 H 0.4448 0.9471 0.1647
C25 C 0.2654(2) 1.02155(8) 0.16875(11)
H24 H 0.3465 1.0565 0.1908
loop_
_geom_bond_atom_site_label_1
_geom_bond_atom_site_label_2
_geom_bond_site_symmetry_1
_geom_bond_site_symmetry_2
O1 C4 1_555 1_555
O2 C12 1_555 1_555
O3 C3 1_555 1_555
N1 C1 1_555 1_555
N2 C5 1_555 1_555
C1 H1 1_555 1_555
O4 H2 1_555 1_555
C2 C1 1_555 1_555
H3 C2 1_555 1_555
H4 C2 1_555 1_555
C3 C4 1_555 1_555
C4 C9 1_555 1_555
C5 C7 1_555 1_555
C6 C10 1_555 1_555
C7 N1 1_555 1_555
C8 C3 1_555 1_555
H5 C8 1_555 1_555
C9 C1 1_555 1_555
C10 N2 1_555 1_555
C11 O4 1_555 1_555
C12 N1 1_555 1_555
C13 C9 1_555 1_555
H6 C13 1_555 1_555
C14 C7 1_555 1_555
H7 C14 1_555 1_555
C15 C5 1_555 1_555
H8 C15 1_555 1_555
C16 C14 1_555 1_555
H9 C16 1_555 1_555
C17 C12 1_555 1_555
H10 C17 1_555 1_555
H11 C17 1_555 1_555
H12 C17 1_555 1_555
C18 C8 1_555 1_555
H13 C18 1_555 1_555
C19 O1 1_555 1_555
H14 C19 1_555 1_555
H15 C19 1_555 1_555
H16 C19 1_555 1_555
C20 C15 1_555 1_555
H17 C20 1_555 1_555
C21 C11 1_555 1_555
H18 C21 1_555 1_555
C22 C6 1_555 1_555
H19 C22 1_555 1_555
C23 O3 1_555 1_555
H20 C23 1_555 1_555
H21 C23 1_555 1_555
H22 C23 1_555 1_555
C24 C22 1_555 1_555
H23 C24 1_555 1_555
C25 C21 1_555 1_555
H24 C25 1_555 1_555
C2 C10 1_555 1_555
C6 C11 1_555 1_555
C13 C18 1_555 1_555
C16 C20 1_555 1_555
C24 C25 1_555 1_555

#END
