
#######################################################################
#
#                 Cambridge Crystallographic Data Centre
#                                CCDC 
#
#######################################################################
#
# If this CIF has been generated from an entry in the Cambridge 
# Structural Database, then it will include bibliographic, chemical, 
# crystal, experimental, refinement or atomic coordinate data resulting 
# from the CCDC's data processing and validation procedures.
#
#######################################################################

data_FIKCEK
_chemical_formula_moiety         'C22 H21 Cl2 O2 P1'
_chemical_name_systematic        
2'-[t-butyl(phenyl)phosphoryl]-3,5-dichloro[1,1'-biphenyl]-2-ol
_symmetry_cell_setting           orthorhombic
_symmetry_space_group_name_H-M   'P 21 21 21'
_symmetry_Int_Tables_number      19
_space_group_name_Hall           'P 2ac 2ab'
loop_
_symmetry_equiv_pos_site_id
_symmetry_equiv_pos_as_xyz
1 x,y,z
2 1/2-x,-y,1/2+z
3 -x,1/2+y,1/2-z
4 1/2+x,1/2-y,-z
_cell_length_a                   10.19314(12)
_cell_length_b                   11.78884(16)
_cell_length_c                   17.8493(2)
_cell_angle_alpha                90
_cell_angle_beta                 90
_cell_angle_gamma                90
_cell_volume                     2144.87
_exptl_crystal_colour            colorless
_exptl_crystal_description       needle
_cell_formula_units_Z            4
loop_
_atom_site_label
_atom_site_type_symbol
_atom_site_fract_x
_atom_site_fract_y
_atom_site_fract_z
Cl1 Cl 0.31123(8) 1.07917(5) 0.37713(4)
Cl2 Cl 0.72259(6) 0.80841(6) 0.31829(4)
P1 P 0.13323(5) 0.62387(4) 0.34835(3)
O1 O 0.07648(16) 0.73233(14) 0.37840(9)
O2 O 0.15788(17) 0.90184(14) 0.30438(10)
H1 H 0.113(4) 0.840(4) 0.332(3)
C1 C 0.1589(2) 0.63544(18) 0.24806(11)
C2 C 0.0808(2) 0.5754(2) 0.19727(13)
H2 H 0.013690 0.526759 0.215550
C3 C 0.0998(3) 0.5858(2) 0.12048(13)
H3 H 0.045231 0.545303 0.086587
C4 C 0.1979(3) 0.6549(2) 0.09378(12)
H4 H 0.212318 0.661026 0.041352
C5 C 0.2756(3) 0.7155(2) 0.14312(13)
H5 H 0.343577 0.762491 0.124028
C6 C 0.2562(2) 0.70896(18) 0.22054(11)
C7 C 0.3409(2) 0.78443(18) 0.26790(11)
C8 C 0.2885(2) 0.88038(19) 0.30396(11)
C9 C 0.3749(3) 0.95629(19) 0.33808(12)
C10 C 0.5079(3) 0.9364(2) 0.34192(13)
H6 H 0.564766 0.988877 0.365974
C11 C 0.5565(2) 0.8385(2) 0.31000(13)
C12 C 0.4756(2) 0.7640(2) 0.27125(12)
H7 H 0.511817 0.699355 0.247136
C13 C 0.2945(2) 0.59676(18) 0.38566(11)
C14 C 0.3356(2) 0.6578(2) 0.44870(12)
H8 H 0.277527 0.709743 0.472284
C15 C 0.4613(3) 0.6422(2) 0.47667(13)
H9 H 0.489331 0.683149 0.519617
C16 C 0.5457(2) 0.5670(3) 0.44202(14)
H10 H 0.631989 0.557090 0.461061
C17 C 0.5057(2) 0.5061(2) 0.37978(14)
H11 H 0.564206 0.454447 0.356237
C18 C 0.3800(2) 0.52078(18) 0.35204(12)
H12 H 0.352055 0.478469 0.309635
C19 C 0.0287(2) 0.5049(2) 0.37679(13)
C20 C -0.1151(2) 0.5317(3) 0.35682(16)
H13 H -0.141386 0.602768 0.380989
H14 H -0.171645 0.469936 0.374408
H15 H -0.123695 0.539317 0.302374
C21 C 0.0715(2) 0.3897(2) 0.34571(15)
H16 H 0.066365 0.390905 0.290887
H17 H 0.013609 0.330266 0.365231
H18 H 0.162031 0.374085 0.361105
C22 C 0.0390(3) 0.5023(3) 0.46317(14)
H19 H 0.129069 0.483413 0.477756
H20 H -0.021212 0.444969 0.483113
H21 H 0.015682 0.576917 0.483408
loop_
_geom_bond_atom_site_label_1
_geom_bond_atom_site_label_2
_geom_bond_site_symmetry_1
_geom_bond_site_symmetry_2
Cl1 C9 1_555 1_555
Cl2 C11 1_555 1_555
P1 O1 1_555 1_555
O2 H1 1_555 1_555
C1 P1 1_555 1_555
C2 C1 1_555 1_555
H2 C2 1_555 1_555
C3 C2 1_555 1_555
H3 C3 1_555 1_555
C4 C3 1_555 1_555
H4 C4 1_555 1_555
C5 C4 1_555 1_555
H5 C5 1_555 1_555
C6 C1 1_555 1_555
C7 C6 1_555 1_555
C8 O2 1_555 1_555
C9 C8 1_555 1_555
C10 C9 1_555 1_555
H6 C10 1_555 1_555
C11 C10 1_555 1_555
C12 C7 1_555 1_555
H7 C12 1_555 1_555
C13 P1 1_555 1_555
C14 C13 1_555 1_555
H8 C14 1_555 1_555
C15 C14 1_555 1_555
H9 C15 1_555 1_555
C16 C15 1_555 1_555
H10 C16 1_555 1_555
C17 C16 1_555 1_555
H11 C17 1_555 1_555
C18 C13 1_555 1_555
H12 C18 1_555 1_555
C19 P1 1_555 1_555
C20 C19 1_555 1_555
H13 C20 1_555 1_555
H14 C20 1_555 1_555
H15 C20 1_555 1_555
C21 C19 1_555 1_555
H16 C21 1_555 1_555
H17 C21 1_555 1_555
H18 C21 1_555 1_555
C22 C19 1_555 1_555
H19 C22 1_555 1_555
H20 C22 1_555 1_555
H21 C22 1_555 1_555
C5 C6 1_555 1_555
C7 C8 1_555 1_555
C11 C12 1_555 1_555
C17 C18 1_555 1_555

#END
