
#######################################################################
#
#                 Cambridge Crystallographic Data Centre
#                                CCDC 
#
#######################################################################
#
# If this CIF has been generated from an entry in the Cambridge 
# Structural Database, then it will include bibliographic, chemical, 
# crystal, experimental, refinement or atomic coordinate data resulting 
# from the CCDC's data processing and validation procedures.
#
#######################################################################

data_FIKJAK
_chemical_formula_moiety         'C11 H6 N6'
_chemical_name_systematic        2,4,4,6,6-Pentacyanocyclohexenamine
_symmetry_cell_setting           monoclinic
_symmetry_space_group_name_H-M   'P 21/c'
_symmetry_Int_Tables_number      14
_space_group_name_Hall           '-P 2ybc'
loop_
_symmetry_equiv_pos_site_id
_symmetry_equiv_pos_as_xyz
1 x,y,z
2 -x,1/2+y,1/2-z
3 -x,-y,-z
4 x,1/2-y,1/2+z
_cell_length_a                   14.368(3)
_cell_length_b                   6.626(1)
_cell_length_c                   12.300(2)
_cell_angle_alpha                90
_cell_angle_beta                 115.60(1)
_cell_angle_gamma                90
_cell_volume                     1056.04
_exptl_crystal_colour            white
_chemical_melting_point          225deg.C
_cell_formula_units_Z            4
loop_
_atom_site_label
_atom_site_type_symbol
_atom_site_fract_x
_atom_site_fract_y
_atom_site_fract_z
C1 C 0.7451(2) -0.0140(4) 0.0289(2)
C2 C 0.8451(2) 0.0251(4) 0.0573(2)
C3 C 0.8854(2) 0.2098(4) 0.0206(2)
C4 C 0.8027(2) 0.2980(4) -0.0991(2)
C5 C 0.7001(2) 0.3260(4) -0.0877(2)
C6 C 0.6595(2) 0.1257(4) -0.0582(2)
C7 C 0.9203(2) -0.1235(4) 0.1271(2)
C8 C 0.8356(2) 0.5010(4) -0.1198(2)
C9 C 0.7882(2) 0.1684(4) -0.2036(2)
C10 C 0.5989(2) 0.0047(4) -0.1691(2)
C11 C 0.5886(2) 0.1835(4) -0.0035(2)
N1 N 0.7099(2) -0.1774(4) 0.0655(2)
N2 N 0.9796(2) -0.2453(4) 0.1770(2)
N3 N 0.8596(2) 0.6600(4) -0.1322(2)
N4 N 0.7749(2) 0.0735(4) -0.2854(2)
N5 N 0.5546(2) -0.0931(4) -0.2504(2)
N6 N 0.5355(2) 0.2295(4) 0.0386(2)
H1 H 0.754(2) -0.261(4) 0.129(2)
H2 H 0.648(2) -0.208(4) 0.045(2)
H3 H 0.905(2) 0.323(4) 0.085(2)
H4 H 0.952(2) 0.168(4) 0.008(2)
H5 H 0.645(2) 0.389(3) -0.165(2)
H6 H 0.712(2) 0.424(3) -0.020(2)
loop_
_geom_bond_atom_site_label_1
_geom_bond_atom_site_label_2
_geom_bond_site_symmetry_1
_geom_bond_site_symmetry_2
C1 C2 1_555 1_555
C2 C3 1_555 1_555
C3 C4 1_555 1_555
C4 C5 1_555 1_555
C5 C6 1_555 1_555
C6 C1 1_555 1_555
C7 C2 1_555 1_555
C8 C4 1_555 1_555
C9 C4 1_555 1_555
C10 C6 1_555 1_555
C11 C6 1_555 1_555
N1 C1 1_555 1_555
N2 C7 1_555 1_555
N3 C8 1_555 1_555
N4 C9 1_555 1_555
N5 C10 1_555 1_555
N6 C11 1_555 1_555
H1 N1 1_555 1_555
H2 N1 1_555 1_555
H3 C3 1_555 1_555
H4 C3 1_555 1_555
H5 C5 1_555 1_555
H6 C5 1_555 1_555

#END
