
#######################################################################
#
#                 Cambridge Crystallographic Data Centre
#                                CCDC 
#
#######################################################################
#
# If this CIF has been generated from an entry in the Cambridge 
# Structural Database, then it will include bibliographic, chemical, 
# crystal, experimental, refinement or atomic coordinate data resulting 
# from the CCDC's data processing and validation procedures.
#
#######################################################################

data_FIKJAL
_chemical_formula_moiety         'C22 H18 Br3 N6 O3 1+,Cl1 1-,3(C2 H3 N1),H2 O1'
_chemical_name_systematic        
'tris((5-Bromo-2-hydroxybenzylidene)amino)guanidinium chloride acetonitrile solvate monohydrate'
_symmetry_cell_setting           orthorhombic
_symmetry_space_group_name_H-M   'P b c n'
_symmetry_Int_Tables_number      60
_space_group_name_Hall           '-P 2n 2ab'
loop_
_symmetry_equiv_pos_site_id
_symmetry_equiv_pos_as_xyz
1 x,y,z
2 1/2-x,1/2-y,1/2+z
3 -x,y,1/2-z
4 1/2+x,1/2-y,-z
5 -x,-y,-z
6 1/2+x,1/2+y,1/2-z
7 x,-y,1/2+z
8 1/2-x,1/2+y,z
_cell_length_a                   28.649(6)
_cell_length_b                   15.133(3)
_cell_length_c                   15.739(3)
_cell_angle_alpha                90
_cell_angle_beta                 90
_cell_angle_gamma                90
_cell_volume                     6823.57
_exptl_crystal_colour            yellow-brown
_exptl_crystal_description       prism
_cell_formula_units_Z            8
loop_
_atom_site_label
_atom_site_type_symbol
_atom_site_fract_x
_atom_site_fract_y
_atom_site_fract_z
Br1 Br 0.191763(12) 0.98398(2) 0.19421(2)
Br2 Br 0.183624(14) 0.23797(2) 0.56669(2)
Br3 Br 0.577596(13) 0.60825(3) 0.32369(3)
C1 C 0.32420(11) 0.6123(2) 0.38304(19)
N1 N 0.27783(9) 0.61491(17) 0.38359(17)
H1 H 0.2626 0.6596 0.3611
N2 N 0.25419(9) 0.54472(17) 0.42082(17)
C2 C 0.20990(11) 0.5542(2) 0.42124(19)
H2 H 0.1969 0.6062 0.3972
C3 C 0.17851(11) 0.4881(2) 0.45720(19)
C4 C 0.13064(11) 0.5069(2) 0.4599(2)
C5 C 0.09919(12) 0.4457(2) 0.4914(2)
H3 H 0.0668 0.4588 0.4921
C6 C 0.11507(13) 0.3656(2) 0.5218(2)
H4 H 0.0937 0.3233 0.5438
C7 C 0.16263(13) 0.3474(2) 0.5200(2)
C8 C 0.19439(12) 0.4066(2) 0.48757(19)
H5 H 0.2267 0.3924 0.4858
O1 O 0.11702(8) 0.58778(17) 0.43063(17)
H6 H 0.0879 0.5928 0.4356
N3 N 0.34812(9) 0.67964(17) 0.35023(17)
H7 H 0.3788 0.6800 0.3499
N4 N 0.32269(9) 0.74889(17) 0.31682(16)
C9 C 0.34659(11) 0.8172(2) 0.2969(2)
H8 H 0.3794 0.8170 0.3061
C10 C 0.32461(11) 0.8952(2) 0.2605(2)
C11 C 0.35245(11) 0.9686(2) 0.2413(2)
C12 C 0.33203(12) 1.0456(2) 0.2102(2)
H9 H 0.3509 1.0957 0.1984
C13 C 0.28448(12) 1.0494(2) 0.1965(2)
H10 H 0.2706 1.1020 0.1752
C14 C 0.25705(11) 0.9758(2) 0.2141(2)
C15 C 0.27629(11) 0.8996(2) 0.2463(2)
H11 H 0.2570 0.8502 0.2589
O2 O 0.39910(8) 0.96150(16) 0.25432(16)
H12 H 0.4122 1.0091 0.2406
N5 N 0.34697(9) 0.54379(17) 0.41593(17)
H13 H 0.3326 0.5022 0.4449
N6 N 0.39470(9) 0.54173(17) 0.40183(17)
C16 C 0.41549(11) 0.4711(2) 0.4261(2)
H14 H 0.3984 0.4259 0.4541
C17 C 0.46554(11) 0.4601(2) 0.4109(2)
C18 C 0.48600(12) 0.3777(2) 0.4275(2)
C19 C 0.53358(13) 0.3654(2) 0.4143(2)
H15 H 0.5475 0.3098 0.4262
C20 C 0.56064(12) 0.4341(3) 0.3837(2)
H16 H 0.5932 0.4259 0.3748
C21 C 0.54010(12) 0.5146(2) 0.3663(2)
C22 C 0.49309(12) 0.5285(2) 0.3796(2)
H17 H 0.4796 0.5845 0.3674
O3 O 0.45781(9) 0.31226(16) 0.45730(16)
H18 H 0.4737 0.2664 0.4655
Cl1 Cl 0.48827(3) 0.12348(6) 0.41435(5)
N7 N 0.70258(11) 0.2404(2) 0.1829(2)
C23 C 0.66580(13) 0.2658(2) 0.1942(2)
C24 C 0.61865(13) 0.2976(3) 0.2086(3)
H19 H 0.5996 0.2863 0.1580
H20 H 0.6194 0.3612 0.2201
H21 H 0.6051 0.2666 0.2574
N8 N 0.31914(11) 0.6284(2) -0.0082(2)
C25 C 0.32175(13) 0.6923(2) 0.0282(2)
C26 C 0.3248(2) 0.7741(3) 0.0756(3)
H22 H 0.2963 0.8086 0.0669
H23 H 0.3518 0.8082 0.0558
H24 H 0.3284 0.7609 0.1362
N9 N 0.04868(11) 0.2494(2) 0.3687(2)
C27 C 0.01751(14) 0.2951(3) 0.3668(2)
C28 C -0.02208(8) 0.35558(17) 0.3654(3)
H25 H -0.0414 0.3434 0.3154
H26 H -0.0107 0.4166 0.3630
H27 H -0.0408 0.3474 0.4170
O4 O 0.43853(8) 0.11810(15) 0.23263(16)
H28 H 0.4575 0.1151 0.1882
H29 H 0.4552 0.1061 0.2696
loop_
_geom_bond_atom_site_label_1
_geom_bond_atom_site_label_2
_geom_bond_site_symmetry_1
_geom_bond_site_symmetry_2
Br1 C14 1_555 1_555
Br2 C7 1_555 1_555
Br3 C21 1_555 1_555
C1 N1 1_555 1_555
N1 H1 1_555 1_555
N2 N1 1_555 1_555
C2 N2 1_555 1_555
H2 C2 1_555 1_555
C3 C2 1_555 1_555
C4 C3 1_555 1_555
C5 C4 1_555 1_555
H3 C5 1_555 1_555
C6 C5 1_555 1_555
H4 C6 1_555 1_555
C7 C6 1_555 1_555
C8 C3 1_555 1_555
H5 C8 1_555 1_555
O1 C4 1_555 1_555
H6 O1 1_555 1_555
N3 C1 1_555 1_555
H7 N3 1_555 1_555
N4 N3 1_555 1_555
C9 N4 1_555 1_555
H8 C9 1_555 1_555
C10 C9 1_555 1_555
C11 C10 1_555 1_555
C12 C11 1_555 1_555
H9 C12 1_555 1_555
C13 C12 1_555 1_555
H10 C13 1_555 1_555
C14 C13 1_555 1_555
C15 C10 1_555 1_555
H11 C15 1_555 1_555
O2 C11 1_555 1_555
H12 O2 1_555 1_555
N5 C1 1_555 1_555
H13 N5 1_555 1_555
N6 N5 1_555 1_555
C16 N6 1_555 1_555
H14 C16 1_555 1_555
C17 C16 1_555 1_555
C18 C17 1_555 1_555
C19 C18 1_555 1_555
H15 C19 1_555 1_555
C20 C19 1_555 1_555
H16 C20 1_555 1_555
C21 C20 1_555 1_555
C22 C17 1_555 1_555
H17 C22 1_555 1_555
O3 C18 1_555 1_555
H18 O3 1_555 1_555
N7 C23 1_555 1_555
C23 C24 1_555 1_555
C24 H19 1_555 1_555
H20 C24 1_555 1_555
H21 C24 1_555 1_555
N8 C25 1_555 1_555
C25 C26 1_555 1_555
C26 H22 1_555 1_555
H23 C26 1_555 1_555
H24 C26 1_555 1_555
N9 C27 1_555 1_555
C27 C28 1_555 1_555
C28 H25 1_555 1_555
H26 C28 1_555 1_555
H27 C28 1_555 1_555
O4 H28 1_555 1_555
H29 O4 1_555 1_555
C7 C8 1_555 1_555
C14 C15 1_555 1_555
C21 C22 1_555 1_555

#END
