
#######################################################################
#
#                 Cambridge Crystallographic Data Centre
#                                CCDC 
#
#######################################################################
#
# If this CIF has been generated from an entry in the Cambridge 
# Structural Database, then it will include bibliographic, chemical, 
# crystal, experimental, refinement or atomic coordinate data resulting 
# from the CCDC's data processing and validation procedures.
#
#######################################################################

data_FIKJEQ01
_chemical_formula_moiety         'C15 H12 O4'
_chemical_name_systematic        'methylene dibenzoate'
_symmetry_cell_setting           monoclinic
_symmetry_space_group_name_H-M   'P 21/c'
_symmetry_Int_Tables_number      14
_space_group_name_Hall           '-P 2ybc'
loop_
_symmetry_equiv_pos_site_id
_symmetry_equiv_pos_as_xyz
1 x,y,z
2 -x,1/2+y,1/2-z
3 -x,-y,-z
4 x,1/2-y,1/2+z
_cell_length_a                   7.3345(15)
_cell_length_b                   19.517(4)
_cell_length_c                   9.0358(18)
_cell_angle_alpha                90
_cell_angle_beta                 94.88(3)
_cell_angle_gamma                90
_cell_volume                     1288.76
_exptl_crystal_colour            white
_exptl_crystal_description       block
_cell_formula_units_Z            4
loop_
_atom_site_label
_atom_site_type_symbol
_atom_site_fract_x
_atom_site_fract_y
_atom_site_fract_z
O1 O 0.18483(19) 0.39173(7) 0.19512(16)
O2 O 0.3369(2) 0.36305(8) 0.42122(16)
O3 O 0.2205(2) 0.50169(8) 0.2630(2)
C1 C 0.6000(3) 0.29612(11) 0.4794(2)
O4 O 0.3381(3) 0.25609(9) 0.3297(2)
C2 C 0.2163(3) 0.45914(12) 0.1675(3)
C3 C 0.2461(3) 0.47114(11) 0.0097(3)
C4 C 0.6805(3) 0.34912(11) 0.5612(2)
H1 H 0.6172 0.3900 0.5705
C5 C 0.2632(3) 0.41771(13) -0.0885(3)
H2 H 0.2553 0.3727 -0.0562
C6 C 0.4140(3) 0.30087(12) 0.4020(3)
C7 C 0.1619(3) 0.37398(12) 0.3438(2)
H3 H 0.0889 0.3326 0.3465
H4 H 0.0985 0.4105 0.3911
C8 C 0.8548(3) 0.34181(13) 0.6295(3)
H5 H 0.9086 0.3776 0.6855
C9 C 0.9486(4) 0.28191(14) 0.6148(3)
H6 H 1.0660 0.2770 0.6613
C10 C 0.2581(3) 0.53784(13) -0.0401(3)
H7 H 0.2469 0.5740 0.0255
C11 C 0.2863(4) 0.55108(17) -0.1849(4)
H8 H 0.2944 0.5960 -0.2178
C12 C 0.8701(4) 0.22909(13) 0.5315(3)
H9 H 0.9351 0.1887 0.5206
C13 C 0.6956(3) 0.23578(12) 0.4642(3)
H10 H 0.6420 0.1998 0.4086
C14 C 0.2918(4) 0.43116(17) -0.2335(3)
H11 H 0.3040 0.3952 -0.2994
C15 C 0.3026(4) 0.49737(19) -0.2817(3)
H12 H 0.3211 0.5062 -0.3805
loop_
_geom_bond_atom_site_label_1
_geom_bond_atom_site_label_2
_geom_bond_site_symmetry_1
_geom_bond_site_symmetry_2
O1 C2 1_555 1_555
O2 C6 1_555 1_555
O3 C2 1_555 1_555
C1 C4 1_555 1_555
O4 C6 1_555 1_555
C2 C3 1_555 1_555
C3 C5 1_555 1_555
C4 H1 1_555 1_555
C5 H2 1_555 1_555
C6 C1 1_555 1_555
C7 O1 1_555 1_555
H3 C7 1_555 1_555
H4 C7 1_555 1_555
C8 C4 1_555 1_555
H5 C8 1_555 1_555
C9 C8 1_555 1_555
H6 C9 1_555 1_555
C10 C3 1_555 1_555
H7 C10 1_555 1_555
C11 C10 1_555 1_555
H8 C11 1_555 1_555
C12 C9 1_555 1_555
H9 C12 1_555 1_555
C13 C1 1_555 1_555
H10 C13 1_555 1_555
C14 C5 1_555 1_555
H11 C14 1_555 1_555
C15 C11 1_555 1_555
H12 C15 1_555 1_555
O2 C7 1_555 1_555
C12 C13 1_555 1_555
C14 C15 1_555 1_555

#END
