
#######################################################################
#
#                 Cambridge Crystallographic Data Centre
#                                CCDC 
#
#######################################################################
#
# If this CIF has been generated from an entry in the Cambridge 
# Structural Database, then it will include bibliographic, chemical, 
# crystal, experimental, refinement or atomic coordinate data resulting 
# from the CCDC's data processing and validation procedures.
#
#######################################################################

data_FIKNIZ
_chemical_formula_moiety         'C27 H34 O1 Si2'
_chemical_name_systematic        
{2-[1,2-diphenyl-2-(trimethylsilyl)ethenyl]-5-methoxyphenyl}(trimethyl)silane
_symmetry_cell_setting           triclinic
_symmetry_space_group_name_H-M   'P -1'
_symmetry_Int_Tables_number      2
_space_group_name_Hall           '-P 1'
loop_
_symmetry_equiv_pos_site_id
_symmetry_equiv_pos_as_xyz
1 x,y,z
2 -x,-y,-z
_cell_length_a                   9.2327(8)
_cell_length_b                   9.5206(9)
_cell_length_c                   17.1628(19)
_cell_angle_alpha                94.671(4)
_cell_angle_beta                 104.862(4)
_cell_angle_gamma                112.646(3)
_cell_volume                     1317.99
_exptl_crystal_colour            colorless
_exptl_crystal_description       block
_cell_formula_units_Z            2
loop_
_atom_site_label
_atom_site_type_symbol
_atom_site_fract_x
_atom_site_fract_y
_atom_site_fract_z
Si1 Si 0.48649(6) 0.04517(6) 0.17932(3)
Si2 Si 0.26916(7) 0.14514(6) 0.41372(3)
O1 O 0.45428(18) 0.57930(15) 0.16361(9)
C1 C 0.15712(19) -0.00874(19) 0.24216(10)
C2 C 0.0585(2) -0.1396(2) 0.16900(10)
C3 C 0.0491(2) -0.2890(2) 0.16836(11)
H1 H 0.103903 -0.311516 0.215773
C4 C -0.0405(3) -0.4049(2) 0.09830(13)
H2 H -0.044794 -0.503948 0.099118
C5 C -0.1230(3) -0.3747(3) 0.02775(12)
H3 H -0.183158 -0.452957 -0.019118
C6 C -0.1161(2) -0.2285(3) 0.02675(12)
H4 H -0.172147 -0.207567 -0.020907
C7 C -0.0261(2) -0.1118(2) 0.09645(11)
H5 H -0.021972 -0.012921 0.094844
C8 C 0.16090(19) -0.02077(19) 0.32070(10)
C9 C 0.0623(2) -0.1711(2) 0.34071(10)
C10 C 0.1375(3) -0.2606(2) 0.37716(13)
H6 H 0.251125 -0.227074 0.389047
C11 C 0.0462(4) -0.3990(3) 0.39603(16)
H7 H 0.098459 -0.458098 0.420057
C12 C -0.1203(5) -0.4494(3) 0.37966(17)
H8 H -0.181435 -0.543517 0.391728
C13 C -0.1973(3) -0.3619(3) 0.34556(15)
H9 H -0.310627 -0.395596 0.335102
C14 C -0.1062(2) -0.2224(2) 0.32653(11)
H10 H -0.159051 -0.162561 0.303967
C15 C 0.24479(19) 0.14459(19) 0.22102(9)
C16 C 0.38464(19) 0.17943(19) 0.19413(9)
C17 C 0.4551(2) 0.3267(2) 0.17586(10)
H11 H 0.548608 0.352563 0.159036
C18 C 0.3910(2) 0.4349(2) 0.18190(10)
C19 C 0.2537(2) 0.3988(2) 0.20750(11)
H12 H 0.209621 0.470911 0.212094
C20 C 0.1820(2) 0.2553(2) 0.22622(11)
H13 H 0.088531 0.231493 0.242903
C21 C 0.5801(3) 0.6130(3) 0.12513(15)
H14 H 0.607925 0.714571 0.112367
H15 H 0.540785 0.537165 0.075348
H16 H 0.676269 0.609885 0.161758
C22 C 0.3714(3) -0.0905(3) 0.07783(13)
H17 H 0.433877 -0.145315 0.065985
H18 H 0.354442 -0.032684 0.035778
H19 H 0.266310 -0.163593 0.079348
C23 C 0.5059(3) -0.0609(3) 0.26479(13)
H20 H 0.557928 -0.127525 0.254783
H21 H 0.398129 -0.122345 0.268052
H22 H 0.571780 0.012396 0.315707
C24 C 0.7002(3) 0.1641(3) 0.17792(18)
H23 H 0.755588 0.097946 0.173788
H24 H 0.760148 0.241527 0.227749
H25 H 0.694918 0.213907 0.131499
C25 C 0.1251(4) 0.2346(4) 0.42142(17)
H26 H 0.165807 0.301624 0.474443
H27 H 0.017809 0.154379 0.414600
H28 H 0.117275 0.294040 0.379210
C26 C 0.3090(3) 0.0676(3) 0.50924(12)
H29 H 0.363155 0.151860 0.556169
H30 H 0.378320 0.014770 0.506984
H31 H 0.206036 -0.003841 0.513831
C27 C 0.4718(3) 0.2909(3) 0.41341(15)
H32 H 0.528504 0.359501 0.466332
H33 H 0.454990 0.349906 0.371940
H34 H 0.536952 0.238889 0.401797
loop_
_geom_bond_atom_site_label_1
_geom_bond_atom_site_label_2
_geom_bond_site_symmetry_1
_geom_bond_site_symmetry_2
Si1 C16 1_555 1_555
Si2 C8 1_555 1_555
O1 C18 1_555 1_555
C1 C2 1_555 1_555
C2 C3 1_555 1_555
C3 H1 1_555 1_555
C4 C3 1_555 1_555
H2 C4 1_555 1_555
C5 C4 1_555 1_555
H3 C5 1_555 1_555
C6 C5 1_555 1_555
H4 C6 1_555 1_555
C7 C2 1_555 1_555
H5 C7 1_555 1_555
C8 C1 1_555 1_555
C9 C8 1_555 1_555
C10 C9 1_555 1_555
H6 C10 1_555 1_555
C11 C10 1_555 1_555
H7 C11 1_555 1_555
C12 C11 1_555 1_555
H8 C12 1_555 1_555
C13 C12 1_555 1_555
H9 C13 1_555 1_555
C14 C9 1_555 1_555
H10 C14 1_555 1_555
C15 C1 1_555 1_555
C16 C15 1_555 1_555
C17 C16 1_555 1_555
H11 C17 1_555 1_555
C18 C17 1_555 1_555
C19 C18 1_555 1_555
H12 C19 1_555 1_555
C20 C15 1_555 1_555
H13 C20 1_555 1_555
C21 O1 1_555 1_555
H14 C21 1_555 1_555
H15 C21 1_555 1_555
H16 C21 1_555 1_555
C22 Si1 1_555 1_555
H17 C22 1_555 1_555
H18 C22 1_555 1_555
H19 C22 1_555 1_555
C23 Si1 1_555 1_555
H20 C23 1_555 1_555
H21 C23 1_555 1_555
H22 C23 1_555 1_555
C24 Si1 1_555 1_555
H23 C24 1_555 1_555
H24 C24 1_555 1_555
H25 C24 1_555 1_555
C25 Si2 1_555 1_555
H26 C25 1_555 1_555
H27 C25 1_555 1_555
H28 C25 1_555 1_555
C26 Si2 1_555 1_555
H29 C26 1_555 1_555
H30 C26 1_555 1_555
H31 C26 1_555 1_555
C27 Si2 1_555 1_555
H32 C27 1_555 1_555
H33 C27 1_555 1_555
H34 C27 1_555 1_555
C6 C7 1_555 1_555
C13 C14 1_555 1_555
C19 C20 1_555 1_555

#END
