
#######################################################################
#
#                 Cambridge Crystallographic Data Centre
#                                CCDC 
#
#######################################################################
#
# If this CIF has been generated from an entry in the Cambridge 
# Structural Database, then it will include bibliographic, chemical, 
# crystal, experimental, refinement or atomic coordinate data resulting 
# from the CCDC's data processing and validation procedures.
#
#######################################################################

data_FIKPAS
_chemical_formula_moiety         'C24 H35 N3 O4'
_chemical_name_systematic        
't-Butyl 3-(t-butylcarbamoyl)-1-oxo-2-phenyl-2,8-diazaspiro[4.5]decane-8-carboxylate'
_symmetry_cell_setting           monoclinic
_symmetry_space_group_name_H-M   'P 21/c'
_symmetry_Int_Tables_number      14
_space_group_name_Hall           '-P 2ybc'
loop_
_symmetry_equiv_pos_site_id
_symmetry_equiv_pos_as_xyz
1 x,y,z
2 -x,1/2+y,1/2-z
3 -x,-y,-z
4 x,1/2-y,1/2+z
_cell_length_a                   19.8264(11)
_cell_length_b                   11.4163(7)
_cell_length_c                   10.5796(6)
_cell_angle_alpha                90
_cell_angle_beta                 97.9730(10)
_cell_angle_gamma                90
_cell_volume                     2371.48
_exptl_crystal_colour            colorless
_exptl_crystal_description       prism
_cell_formula_units_Z            4
loop_
_atom_site_label
_atom_site_type_symbol
_atom_site_fract_x
_atom_site_fract_y
_atom_site_fract_z
N1 N 0.11030(5) 0.22982(8) 0.75016(9)
N2 N 0.34489(5) 0.02735(8) 0.91804(10)
N3 N 0.19206(5) 0.49326(8) 0.90059(9)
H1 H 0.1772 0.4774 0.9790
O1 O 0.14110(4) 0.06790(7) 0.63949(8)
O2 O 0.37454(5) -0.16479(7) 0.90784(9)
O3 O 0.42911(4) -0.02362(7) 0.80835(9)
O4 O 0.19220(4) 0.41749(7) 0.70045(7)
C1 C 0.21260(6) 0.13284(9) 0.83305(10)
C2 C 0.15125(6) 0.13729(9) 0.72890(10)
C3 C 0.14087(5) 0.30419(9) 0.85579(10)
H2 H 0.1058 0.3283 0.9102
C4 C 0.19438(6) 0.22334(9) 0.93095(10)
H3 H 0.2352 0.2686 0.9670
H4 H 0.1753 0.1841 1.0016
C5 C 0.27691(6) 0.16409(9) 0.77185(10)
H5 H 0.2782 0.1149 0.6952
H6 H 0.2741 0.2470 0.7442
C6 C 0.34254(6) 0.14552(9) 0.86427(11)
H7 H 0.3823 0.1576 0.8186
H8 H 0.3450 0.2038 0.9341
C7 C 0.28659(6) -0.00037(10) 0.98325(11)
H9 H 0.2851 0.0546 1.0552
H10 H 0.2914 -0.0808 1.0183
C8 C 0.22064(6) 0.00897(9) 0.89033(11)
H11 H 0.1814 -0.0089 0.9356
H12 H 0.2212 -0.0491 0.8210
C9 C 0.04909(6) 0.26270(10) 0.67107(11)
C10 C 0.02458(6) 0.37684(11) 0.67782(13)
H13 H 0.0483 0.4314 0.7355
C11 C -0.03456(7) 0.41061(13) 0.60015(15)
H14 H -0.0513 0.4882 0.6054
C12 C -0.06932(7) 0.33194(15) 0.51511(15)
H15 H -0.1089 0.3561 0.4602
C13 C -0.04607(7) 0.21801(15) 0.51056(14)
H16 H -0.0704 0.1637 0.4534
C14 C 0.01246(6) 0.18198(12) 0.58847(13)
H17 H 0.0276 0.1032 0.5858
C15 C 0.38206(6) -0.06280(10) 0.87886(11)
C16 C 0.47718(6) -0.10668(11) 0.76187(12)
C17 C 0.52185(9) -0.02594(15) 0.6963(2)
H18 H 0.4938 0.0167 0.6278
H19 H 0.5562 -0.0722 0.6601
H20 H 0.5446 0.0300 0.7584
C18 C 0.51884(7) -0.16952(14) 0.87369(14)
H21 H 0.4896 -0.2247 0.9118
H22 H 0.5374 -0.1119 0.9379
H23 H 0.5563 -0.2124 0.8432
C19 C 0.43945(7) -0.19245(13) 0.66872(13)
H24 H 0.4137 -0.1494 0.5977
H25 H 0.4080 -0.2389 0.7122
H26 H 0.4722 -0.2447 0.6358
C20 C 0.17652(5) 0.41234(9) 0.80883(10)
C21 C 0.24127(6) 0.59044(9) 0.89491(10)
C22 C 0.21551(7) 0.67548(10) 0.78766(11)
H27 H 0.2114 0.6345 0.7055
H28 H 0.2477 0.7406 0.7874
H29 H 0.1709 0.7060 0.8012
C23 C 0.24717(6) 0.65276(10) 1.02378(11)
H30 H 0.2026 0.6845 1.0363
H31 H 0.2802 0.7168 1.0256
H32 H 0.2625 0.5969 1.0921
C24 C 0.31096(6) 0.54066(11) 0.87531(12)
H33 H 0.3068 0.4985 0.7939
H34 H 0.3269 0.4868 0.9452
H35 H 0.3436 0.6049 0.8743
loop_
_geom_bond_atom_site_label_1
_geom_bond_atom_site_label_2
_geom_bond_site_symmetry_1
_geom_bond_site_symmetry_2
N1 C2 1_555 1_555
N2 C6 1_555 1_555
N3 H1 1_555 1_555
O1 C2 1_555 1_555
O2 C15 1_555 1_555
O3 C15 1_555 1_555
O4 C20 1_555 1_555
C1 C2 1_555 1_555
C3 N1 1_555 1_555
H2 C3 1_555 1_555
C4 C1 1_555 1_555
H3 C4 1_555 1_555
H4 C4 1_555 1_555
C5 C1 1_555 1_555
H5 C5 1_555 1_555
H6 C5 1_555 1_555
C6 C5 1_555 1_555
H7 C6 1_555 1_555
H8 C6 1_555 1_555
C7 N2 1_555 1_555
H9 C7 1_555 1_555
H10 C7 1_555 1_555
C8 C1 1_555 1_555
H11 C8 1_555 1_555
H12 C8 1_555 1_555
C9 N1 1_555 1_555
C10 C9 1_555 1_555
H13 C10 1_555 1_555
C11 C10 1_555 1_555
H14 C11 1_555 1_555
C12 C11 1_555 1_555
H15 C12 1_555 1_555
C13 C12 1_555 1_555
H16 C13 1_555 1_555
C14 C9 1_555 1_555
H17 C14 1_555 1_555
C15 N2 1_555 1_555
C16 O3 1_555 1_555
C17 C16 1_555 1_555
H18 C17 1_555 1_555
H19 C17 1_555 1_555
H20 C17 1_555 1_555
C18 C16 1_555 1_555
H21 C18 1_555 1_555
H22 C18 1_555 1_555
H23 C18 1_555 1_555
C19 C16 1_555 1_555
H24 C19 1_555 1_555
H25 C19 1_555 1_555
H26 C19 1_555 1_555
C20 N3 1_555 1_555
C21 N3 1_555 1_555
C22 C21 1_555 1_555
H27 C22 1_555 1_555
H28 C22 1_555 1_555
H29 C22 1_555 1_555
C23 C21 1_555 1_555
H30 C23 1_555 1_555
H31 C23 1_555 1_555
H32 C23 1_555 1_555
C24 C21 1_555 1_555
H33 C24 1_555 1_555
H34 C24 1_555 1_555
H35 C24 1_555 1_555
C3 C4 1_555 1_555
C3 C20 1_555 1_555
C7 C8 1_555 1_555
C13 C14 1_555 1_555

#END
