
#######################################################################
#
#                 Cambridge Crystallographic Data Centre
#                                CCDC 
#
#######################################################################
#
# If this CIF has been generated from an entry in the Cambridge 
# Structural Database, then it will include bibliographic, chemical, 
# crystal, experimental, refinement or atomic coordinate data resulting 
# from the CCDC's data processing and validation procedures.
#
#######################################################################

data_FIKPIZ
_chemical_formula_moiety         'C16 H25 N1 O6 S1'
_chemical_name_systematic        
(3S,9S,6Z)-(N-t-Butoxycarbonyl)-9-methyl-6-(ethoxycarbonyl)-3,4,8,9-tetrahydro(1,5)oxathionin-2-one
_symmetry_cell_setting           orthorhombic
_symmetry_space_group_name_H-M   'P 21 21 21'
_symmetry_Int_Tables_number      19
_space_group_name_Hall           'P 2ac 2ab'
loop_
_symmetry_equiv_pos_site_id
_symmetry_equiv_pos_as_xyz
1 x,y,z
2 1/2-x,-y,1/2+z
3 1/2+x,1/2-y,-z
4 -x,1/2+y,1/2-z
_cell_length_a                   10.3665(2)
_cell_length_b                   10.9984(2)
_cell_length_c                   16.4233(4)
_cell_angle_alpha                90
_cell_angle_beta                 90
_cell_angle_gamma                90
_cell_volume                     1872.5
_exptl_crystal_colour            colorless
_exptl_crystal_description       cube
_cell_formula_units_Z            4
loop_
_atom_site_label
_atom_site_type_symbol
_atom_site_fract_x
_atom_site_fract_y
_atom_site_fract_z
S1 S 0.30618(6) -0.29633(5) 0.02763(3)
O1 O 0.51127(14) -0.17003(13) 0.15020(8)
O2 O 0.34256(15) -0.12234(15) 0.23149(9)
O3 O 0.52352(15) 0.10778(14) 0.13259(9)
O4 O 0.61048(16) 0.09798(14) 0.00498(9)
O5 O 0.12778(18) -0.4717(2) 0.20486(15)
O6 O 0.04922(17) -0.35214(17) 0.10658(13)
N1 N 0.43831(17) -0.01406(15) 0.03490(10)
H1 H 0.4400 -0.0391 -0.0160
C1 C 0.2469(2) -0.1441(2) 0.04989(15)
H2 H 0.2184 -0.1066 -0.0019
H3 H 0.1699 -0.1518 0.0852
C2 C 0.34202(19) -0.05697(19) 0.09131(13)
H4 H 0.2918 0.0154 0.1101
C3 C 0.39845(19) -0.11817(18) 0.16680(12)
C4 C 0.5574(2) -0.2664(2) 0.20343(12)
H5 H 0.5184 -0.2585 0.2589
C5 C 0.5149(2) -0.3856(2) 0.16324(14)
H6 H 0.5371 -0.3834 0.1046
H7 H 0.5621 -0.4543 0.1884
C6 C 0.3730(2) -0.40562(19) 0.17249(13)
H8 H 0.3468 -0.4491 0.2196
C7 C 0.2786(2) -0.36978(19) 0.12241(13)
C8 C 0.7026(2) -0.2538(3) 0.20783(14)
H9 H 0.7390 -0.2597 0.1529
H10 H 0.7380 -0.3189 0.2419
H11 H 0.7248 -0.1748 0.2315
C9 C 0.5266(2) 0.06708(18) 0.06378(12)
C10 C 0.7156(2) 0.1848(2) 0.02264(14)
C11 C 0.8064(3) 0.1302(3) 0.0842(2)
H12 H 0.7637 0.1262 0.1374
H13 H 0.8839 0.1808 0.0884
H14 H 0.8307 0.0481 0.0669
C12 C 0.7782(3) 0.1981(3) -0.06068(17)
H15 H 0.8111 0.1190 -0.0786
H16 H 0.8497 0.2562 -0.0572
H17 H 0.7142 0.2278 -0.0998
C13 C 0.6623(3) 0.3070(2) 0.04979(16)
H18 H 0.5959 0.3339 0.0114
H19 H 0.7323 0.3669 0.0513
H20 H 0.6245 0.2990 0.1042
C14 C 0.1399(2) -0.3957(2) 0.14226(16)
C15 C -0.0030(3) -0.5062(3) 0.2271(3)
H21 H -0.0203 -0.4784 0.2834
H22 H -0.0642 -0.4638 0.1906
C16 C -0.0242(4) -0.6224(4) 0.2229(7)
H23 H -0.0124 -0.6500 0.1667
H24 H -0.1128 -0.6395 0.2404
H25 H 0.0364 -0.6653 0.2586
loop_
_geom_bond_atom_site_label_1
_geom_bond_atom_site_label_2
_geom_bond_site_symmetry_1
_geom_bond_site_symmetry_2
S1 C1 1_555 1_555
O1 C3 1_555 1_555
O2 C3 1_555 1_555
O3 C9 1_555 1_555
O4 C9 1_555 1_555
O5 C14 1_555 1_555
O6 C14 1_555 1_555
N1 H1 1_555 1_555
C1 H2 1_555 1_555
H3 C1 1_555 1_555
C2 N1 1_555 1_555
H4 C2 1_555 1_555
C3 C2 1_555 1_555
C4 O1 1_555 1_555
H5 C4 1_555 1_555
C5 C4 1_555 1_555
H6 C5 1_555 1_555
H7 C5 1_555 1_555
C6 C5 1_555 1_555
H8 C6 1_555 1_555
C7 S1 1_555 1_555
C8 C4 1_555 1_555
H9 C8 1_555 1_555
H10 C8 1_555 1_555
H11 C8 1_555 1_555
C9 N1 1_555 1_555
C10 O4 1_555 1_555
C11 C10 1_555 1_555
H12 C11 1_555 1_555
H13 C11 1_555 1_555
H14 C11 1_555 1_555
C12 C10 1_555 1_555
H15 C12 1_555 1_555
H16 C12 1_555 1_555
H17 C12 1_555 1_555
C13 C10 1_555 1_555
H18 C13 1_555 1_555
H19 C13 1_555 1_555
H20 C13 1_555 1_555
C14 C7 1_555 1_555
C15 O5 1_555 1_555
H21 C15 1_555 1_555
H22 C15 1_555 1_555
C16 C15 1_555 1_555
H23 C16 1_555 1_555
H24 C16 1_555 1_555
H25 C16 1_555 1_555
C1 C2 1_555 1_555
C6 C7 1_555 1_555

#END
