
#######################################################################
#
#                 Cambridge Crystallographic Data Centre
#                                CCDC 
#
#######################################################################
#
# If this CIF has been generated from an entry in the Cambridge 
# Structural Database, then it will include bibliographic, chemical, 
# crystal, experimental, refinement or atomic coordinate data resulting 
# from the CCDC's data processing and validation procedures.
#
#######################################################################

data_FIKPEW
_chemical_formula_moiety         'C20 H26 F2 N2 O2'
_chemical_name_systematic        
N-t-Butyl-2-(3,4-difluorophenyl)-1-oxo-2-azaspiro[4.5]decane-3-carboxamide
_symmetry_cell_setting           monoclinic
_symmetry_space_group_name_H-M   'P 21'
_symmetry_Int_Tables_number      4
_space_group_name_Hall           'P 2yb'
loop_
_symmetry_equiv_pos_site_id
_symmetry_equiv_pos_as_xyz
1 x,y,z
2 -x,1/2+y,-z
_cell_length_a                   9.4469(6)
_cell_length_b                   17.1418(10)
_cell_length_c                   11.7537(7)
_cell_angle_alpha                90
_cell_angle_beta                 92.0030(10)
_cell_angle_gamma                90
_cell_volume                     1902.19
_exptl_crystal_colour            colorless
_exptl_crystal_description       prism
_cell_formula_units_Z            4
loop_
_atom_site_label
_atom_site_type_symbol
_atom_site_fract_x
_atom_site_fract_y
_atom_site_fract_z
F1 F 0.9838(4) 0.5437(3) 0.7888(4)
F2 F 1.0973(4) 0.5366(2) 1.0023(3)
O1 O 1.1637(5) 0.3809(3) 0.5094(3)
O2 O 1.1893(3) 0.2040(2) 0.7608(3)
N1 N 1.2935(4) 0.3398(2) 0.6679(3)
N2 N 1.4046(4) 0.1770(2) 0.8446(3)
H1 H 1.490(6) 0.185(3) 0.843(4)
C1 C 1.3170(5) 0.2684(3) 0.4978(4)
C2 C 1.3752(6) 0.2932(4) 0.3822(5)
H2 H 1.4541 0.3305 0.3949
H3 H 1.2996 0.3197 0.3363
C3 C 1.4280(7) 0.2218(4) 0.3169(5)
H4 H 1.4619 0.2390 0.2421
H5 H 1.5092 0.1983 0.3600
C4 C 1.3147(8) 0.1611(4) 0.2983(5)
H6 H 1.3553 0.1150 0.2608
H7 H 1.2384 0.1824 0.2474
C5 C 1.2530(8) 0.1368(4) 0.4106(5)
H8 H 1.1736 0.1002 0.3954
H9 H 1.3265 0.1091 0.4571
C6 C 1.2003(6) 0.2062(3) 0.4768(4)
H10 H 1.1662 0.1881 0.5510
H11 H 1.1192 0.2302 0.4342
C7 C 1.2482(6) 0.3373(3) 0.5549(4)
C8 C 1.4328(5) 0.2422(3) 0.5840(4)
H12 H 1.5264 0.2622 0.5624
H13 H 1.4373 0.1845 0.5879
C9 C 1.3913(4) 0.2763(3) 0.6994(4)
H14 H 1.4768 0.2976 0.7412
C10 C 1.3178(5) 0.2150(3) 0.7726(4)
C11 C 1.3698(5) 0.1065(3) 0.9110(4)
C12 C 1.3509(7) 0.0383(3) 0.8281(5)
H15 H 1.2666 0.0471 0.7789
H16 H 1.3396 -0.0102 0.8710
H17 H 1.4345 0.0342 0.7813
C13 C 1.4964(6) 0.0901(3) 0.9920(5)
H18 H 1.5137 0.1355 1.0413
H19 H 1.5805 0.0799 0.9479
H20 H 1.4761 0.0444 1.0390
C14 C 1.2379(6) 0.1180(4) 0.9789(5)
H21 H 1.2467 0.1663 1.0232
H22 H 1.2268 0.0738 1.0307
H23 H 1.1548 0.1214 0.9268
C15 C 1.2432(5) 0.3910(3) 0.7522(4)
C16 C 1.1360(5) 0.4456(3) 0.7273(5)
H24 H 1.0970 0.4500 0.6520
C17 C 1.0877(6) 0.4928(3) 0.8119(5)
C18 C 1.1454(6) 0.4888(3) 0.9216(5)
C19 C 1.2520(6) 0.4361(3) 0.9474(5)
H25 H 1.2923 0.4335 1.0224
C20 C 1.2997(6) 0.3874(3) 0.8641(4)
H26 H 1.3722 0.3506 0.8826
F3 F 0.4719(5) 0.5085(3) 0.6135(5)
F4 F 0.5904(8) 0.4738(3) 0.4175(4)
O3 O 0.6721(5) 0.4109(3) 0.9500(4)
O4 O 0.6878(4) 0.2012(3) 0.7622(3)
N3 N 0.8019(4) 0.3428(3) 0.8202(4)
N4 N 0.9026(4) 0.1512(3) 0.7198(4)
H27 H 0.995(6) 0.160(3) 0.733(4)
C21 C 0.8340(5) 0.3080(3) 1.0137(4)
C22 C 0.7294(7) 0.2512(4) 1.0594(5)
H28 H 0.6928 0.2177 0.9964
H29 H 0.6484 0.2805 1.0893
C23 C 0.7932(8) 0.1992(5) 1.1543(6)
H30 H 0.7181 0.1660 1.1856
H31 H 0.8660 0.1647 1.1227
C24 C 0.8598(10) 0.2493(6) 1.2488(7)
H32 H 0.9049 0.2151 1.3074
H33 H 0.7849 0.2799 1.2853
C25 C 0.9727(9) 0.3059(4) 1.2022(7)
H34 H 1.0105 0.3396 1.2645
H35 H 1.0523 0.2756 1.1720
C26 C 0.9064(7) 0.3555(4) 1.1092(6)
H36 H 0.9807 0.3886 1.0764
H37 H 0.8357 0.3905 1.1426
C27 C 0.7587(5) 0.3605(3) 0.9271(4)
C28 C 0.9487(6) 0.2675(4) 0.9400(5)
H38 H 1.0420 0.2931 0.9521
H39 H 0.9581 0.2117 0.9601
C29 C 0.8962(6) 0.2767(4) 0.8183(5)
H40 H 0.9783 0.2902 0.7706
C30 C 0.8173(5) 0.2045(4) 0.7639(4)
C31 C 0.8599(5) 0.0808(3) 0.6541(4)
C32 C 0.9938(6) 0.0334(4) 0.6389(6)
H41 H 1.0649 0.0658 0.6029
H42 H 0.9721 -0.0120 0.5906
H43 H 1.0308 0.0157 0.7134
C33 C 0.7517(8) 0.0326(5) 0.7183(6)
H44 H 0.6635 0.0624 0.7234
H45 H 0.7897 0.0211 0.7951
H46 H 0.7326 -0.0163 0.6775
C34 C 0.7983(7) 0.1061(4) 0.5403(5)
H47 H 0.8723 0.1309 0.4964
H48 H 0.7214 0.1433 0.5515
H49 H 0.7612 0.0605 0.4987
C35 C 0.7511(6) 0.3773(4) 0.7181(5)
C36 C 0.6347(6) 0.4292(4) 0.7157(6)
H50 H 0.5921 0.4431 0.7849
C37 C 0.5833(8) 0.4592(5) 0.6166(7)
C38 C 0.6392(11) 0.4434(5) 0.5178(7)
C39 C 0.7539(12) 0.3952(6) 0.5115(5)
H51 H 0.7946 0.3850 0.4402
C40 C 0.8132(8) 0.3597(5) 0.6152(5)
H52 H 0.8920 0.3254 0.6128
loop_
_geom_bond_atom_site_label_1
_geom_bond_atom_site_label_2
_geom_bond_site_symmetry_1
_geom_bond_site_symmetry_2
F1 C17 1_555 1_555
F2 C18 1_555 1_555
O1 C7 1_555 1_555
O2 C10 1_555 1_555
N1 C7 1_555 1_555
N2 H1 1_555 1_555
C1 C2 1_555 1_555
C2 H2 1_555 1_555
H3 C2 1_555 1_555
C3 C2 1_555 1_555
H4 C3 1_555 1_555
H5 C3 1_555 1_555
C4 C3 1_555 1_555
H6 C4 1_555 1_555
H7 C4 1_555 1_555
C5 C4 1_555 1_555
H8 C5 1_555 1_555
H9 C5 1_555 1_555
C6 C1 1_555 1_555
H10 C6 1_555 1_555
H11 C6 1_555 1_555
C7 C1 1_555 1_555
C8 C1 1_555 1_555
H12 C8 1_555 1_555
H13 C8 1_555 1_555
C9 N1 1_555 1_555
H14 C9 1_555 1_555
C10 N2 1_555 1_555
C11 N2 1_555 1_555
C12 C11 1_555 1_555
H15 C12 1_555 1_555
H16 C12 1_555 1_555
H17 C12 1_555 1_555
C13 C11 1_555 1_555
H18 C13 1_555 1_555
H19 C13 1_555 1_555
H20 C13 1_555 1_555
C14 C11 1_555 1_555
H21 C14 1_555 1_555
H22 C14 1_555 1_555
H23 C14 1_555 1_555
C15 N1 1_555 1_555
C16 C15 1_555 1_555
H24 C16 1_555 1_555
C17 C16 1_555 1_555
C18 C17 1_555 1_555
C19 C18 1_555 1_555
H25 C19 1_555 1_555
C20 C15 1_555 1_555
H26 C20 1_555 1_555
F3 C37 1_555 1_555
F4 C38 1_555 1_555
O3 C27 1_555 1_555
O4 C30 1_555 1_555
N3 C27 1_555 1_555
N4 H27 1_555 1_555
C21 C22 1_555 1_555
C22 H28 1_555 1_555
H29 C22 1_555 1_555
C23 C22 1_555 1_555
H30 C23 1_555 1_555
H31 C23 1_555 1_555
C24 C23 1_555 1_555
H32 C24 1_555 1_555
H33 C24 1_555 1_555
C25 C24 1_555 1_555
H34 C25 1_555 1_555
H35 C25 1_555 1_555
C26 C21 1_555 1_555
H36 C26 1_555 1_555
H37 C26 1_555 1_555
C27 C21 1_555 1_555
C28 C21 1_555 1_555
H38 C28 1_555 1_555
H39 C28 1_555 1_555
C29 N3 1_555 1_555
H40 C29 1_555 1_555
C30 N4 1_555 1_555
C31 N4 1_555 1_555
C32 C31 1_555 1_555
H41 C32 1_555 1_555
H42 C32 1_555 1_555
H43 C32 1_555 1_555
C33 C31 1_555 1_555
H44 C33 1_555 1_555
H45 C33 1_555 1_555
H46 C33 1_555 1_555
C34 C31 1_555 1_555
H47 C34 1_555 1_555
H48 C34 1_555 1_555
H49 C34 1_555 1_555
C35 N3 1_555 1_555
C36 C35 1_555 1_555
H50 C36 1_555 1_555
C37 C36 1_555 1_555
C38 C37 1_555 1_555
C39 C38 1_555 1_555
H51 C39 1_555 1_555
C40 C35 1_555 1_555
H52 C40 1_555 1_555
C5 C6 1_555 1_555
C8 C9 1_555 1_555
C9 C10 1_555 1_555
C19 C20 1_555 1_555
C25 C26 1_555 1_555
C28 C29 1_555 1_555
C29 C30 1_555 1_555
C39 C40 1_555 1_555

#END
