
#######################################################################
#
#                 Cambridge Crystallographic Data Centre
#                                CCDC 
#
#######################################################################
#
# If this CIF has been generated from an entry in the Cambridge 
# Structural Database, then it will include bibliographic, chemical, 
# crystal, experimental, refinement or atomic coordinate data resulting 
# from the CCDC's data processing and validation procedures.
#
#######################################################################

data_FIKXUS
_chemical_formula_moiety         'C21 H28 O6'
_chemical_name_systematic        
9-Methoxymethoxy-4,11,15-trimethyl-3,7-dioxapentacyclo(8.8.0.0^1,5^.0^4,8^.0^11,16^)octadec-15-ene-6,14-dione
_symmetry_cell_setting           orthorhombic
_symmetry_space_group_name_H-M   'P c a b'
_symmetry_Int_Tables_number      61
_space_group_name_Hall           '-P 2bc 2ac'
loop_
_symmetry_equiv_pos_site_id
_symmetry_equiv_pos_as_xyz
1 x,y,z
2 -x,1/2-y,1/2+z
3 1/2+x,-y,1/2-z
4 1/2-x,1/2+y,-z
5 -x,-y,-z
6 x,1/2+y,1/2-z
7 1/2-x,y,1/2+z
8 1/2+x,1/2-y,z
_cell_length_a                   32.301(21)
_cell_length_b                   12.090(5)
_cell_length_c                   9.448(4)
_cell_angle_alpha                90
_cell_angle_beta                 90
_cell_angle_gamma                90
_cell_volume                     3689.62
_exptl_crystal_colour            colorless
_chemical_melting_point          194-195deg.C
_cell_formula_units_Z            8
loop_
_atom_site_label
_atom_site_type_symbol
_atom_site_fract_x
_atom_site_fract_y
_atom_site_fract_z
C1 C 0.5855(2) -0.1102(5) 0.5036(6)
C2 C 0.6295(2) -0.0714(5) 0.5541(6)
C3 C 0.6322(2) 0.0493(5) 0.6062(7)
C4 C 0.6776(2) 0.0799(5) 0.6335(6)
C5 C 0.7070(2) 0.0529(5) 0.5101(6)
C6 C 0.7079(2) -0.0717(5) 0.5255(6)
C7 C 0.6662(2) -0.1033(5) 0.4536(6)
C8 C 0.6647(2) -0.2275(5) 0.4236(7)
C9 C 0.6221(2) -0.2716(6) 0.3811(7)
C10 C 0.5875(2) -0.2359(5) 0.4776(6)
C11 C 0.5594(2) -0.3074(5) 0.5304(6)
C12 C 0.5219(2) -0.2705(5) 0.6048(7)
C13 C 0.5152(2) -0.1473(5) 0.6170(8)
C14 C 0.5555(2) -0.0846(5) 0.6247(7)
O1 O 0.6924(1) 0.0052(3) 0.7456(4)
C15 C 0.7090(2) -0.0859(5) 0.6844(6)
O2 O 0.7225(1) -0.1603(4) 0.7550(5)
O3 O 0.6890(1) 0.0724(3) 0.3730(4)
C16 C 0.6694(2) -0.0274(5) 0.3257(7)
O4 O 0.4963(2) -0.3337(4) 0.6481(6)
C17 C 0.5618(2) -0.4312(6) 0.5073(8)
O5 O 0.6134(1) 0.1245(3) 0.5091(4)
C18 C 0.5960(2) 0.2203(5) 0.5713(7)
O6 O 0.6255(1) 0.2968(3) 0.6145(4)
C19 C 0.6477(2) 0.3432(6) 0.4968(7)
C20 C 0.5690(2) -0.0574(6) 0.3664(7)
C21 C 0.7475(2) 0.1135(5) 0.5203(7)
H1 H 0.635(1) -0.120(4) 0.643(5)
H2 H 0.616(2) 0.051(4) 0.711(6)
H3 H 0.677(2) 0.152(5) 0.667(6)
H4 H 0.731(2) -0.110(4) 0.491(5)
H5 H 0.687(2) -0.242(5) 0.358(6)
H6 H 0.673(2) -0.263(5) 0.505(6)
H7 H 0.616(1) -0.240(4) 0.294(5)
H8 H 0.625(2) -0.355(5) 0.370(6)
H9 H 0.500(2) -0.131(5) 0.534(6)
H10 H 0.497(2) -0.130(4) 0.698(6)
H11 H 0.570(2) -0.106(4) 0.715(5)
H12 H 0.552(2) -0.010(5) 0.640(6)
H13 H 0.690(2) -0.070(5) 0.253(6)
H14 H 0.642(2) 0.002(5) 0.271(7)
H15 H 0.545(2) -0.470(6) 0.570(8)
H16 H 0.591(3) -0.463(7) 0.518(9)
H17 H 0.552(2) -0.453(6) 0.413(8)
H18 H 0.577(2) 0.246(5) 0.498(6)
H19 H 0.579(2) 0.194(5) 0.662(6)
H20 H 0.666(2) 0.282(5) 0.446(6)
H21 H 0.625(2) 0.383(5) 0.439(7)
H22 H 0.667(2) 0.402(4) 0.528(6)
H23 H 0.571(2) 0.024(5) 0.372(6)
H24 H 0.585(2) -0.089(4) 0.285(5)
H25 H 0.540(2) -0.078(5) 0.351(7)
H26 H 0.759(2) 0.106(5) 0.620(7)
H27 H 0.767(2) 0.085(4) 0.439(6)
H28 H 0.745(2) 0.187(4) 0.495(6)
loop_
_geom_bond_atom_site_label_1
_geom_bond_atom_site_label_2
_geom_bond_site_symmetry_1
_geom_bond_site_symmetry_2
C1 C2 1_555 1_555
C2 C3 1_555 1_555
C3 C4 1_555 1_555
C4 C5 1_555 1_555
C5 C6 1_555 1_555
C6 C7 1_555 1_555
C7 C2 1_555 1_555
C8 C7 1_555 1_555
C9 C8 1_555 1_555
C10 C1 1_555 1_555
C11 C10 1_555 1_555
C12 C11 1_555 1_555
C13 C12 1_555 1_555
C14 C1 1_555 1_555
O1 C4 1_555 1_555
C15 C6 1_555 1_555
O2 C15 1_555 1_555
O3 C5 1_555 1_555
C16 C7 1_555 1_555
O4 C12 1_555 1_555
C17 C11 1_555 1_555
O5 C3 1_555 1_555
C18 O5 1_555 1_555
O6 C18 1_555 1_555
C19 O6 1_555 1_555
C20 C1 1_555 1_555
C21 C5 1_555 1_555
H1 C2 1_555 1_555
H2 C3 1_555 1_555
H3 C4 1_555 1_555
H4 C6 1_555 1_555
H5 C8 1_555 1_555
H6 C8 1_555 1_555
H7 C9 1_555 1_555
H8 C9 1_555 1_555
H9 C13 1_555 1_555
H10 C13 1_555 1_555
H11 C14 1_555 1_555
H12 C14 1_555 1_555
H13 C16 1_555 1_555
H14 C16 1_555 1_555
H15 C17 1_555 1_555
H16 C17 1_555 1_555
H17 C17 1_555 1_555
H18 C18 1_555 1_555
H19 C18 1_555 1_555
H20 C19 1_555 1_555
H21 C19 1_555 1_555
H22 C19 1_555 1_555
H23 C20 1_555 1_555
H24 C20 1_555 1_555
H25 C20 1_555 1_555
H26 C21 1_555 1_555
H27 C21 1_555 1_555
H28 C21 1_555 1_555
C9 C10 1_555 1_555
C13 C14 1_555 1_555
O1 C15 1_555 1_555
O3 C16 1_555 1_555

#END
