
#######################################################################
#
#                 Cambridge Crystallographic Data Centre
#                                CCDC 
#
#######################################################################
#
# If this CIF has been generated from an entry in the Cambridge 
# Structural Database, then it will include bibliographic, chemical, 
# crystal, experimental, refinement or atomic coordinate data resulting 
# from the CCDC's data processing and validation procedures.
#
#######################################################################

data_FIKYAC
_chemical_formula_moiety         'C94 H90 B2 K2 N10'
_chemical_name_systematic        
'bis(\m-{4-[2-({bis[(pyridin-2-yl)methyl]amino}methyl)quinolin-8-yl]phenyl}(cyano)bis(2,4,6-trimethylphenyl)borate)-di-potassium unknown solvate'
_symmetry_cell_setting           triclinic
_symmetry_space_group_name_H-M   'P -1'
_symmetry_Int_Tables_number      2
_space_group_name_Hall           '-P 1'
loop_
_symmetry_equiv_pos_site_id
_symmetry_equiv_pos_as_xyz
1 x,y,z
2 -x,-y,-z
_cell_length_a                   13.579(7)
_cell_length_b                   13.836(7)
_cell_length_c                   14.469(8)
_cell_angle_alpha                118.546(12)
_cell_angle_beta                 96.994(13)
_cell_angle_gamma                109.368(12)
_cell_volume                     2120.1
_exptl_crystal_colour            colorless
_exptl_crystal_description       Block
_cell_formula_units_Z            1
loop_
_atom_site_label
_atom_site_type_symbol
_atom_site_fract_x
_atom_site_fract_y
_atom_site_fract_z
B1 B 0.5635(3) 0.6405(3) 0.8583(3)
C1 C 0.2705(3) 0.7745(4) 0.8853(3)
H1 H 0.3176 0.7408 0.8584
C2 C 0.2039(3) 0.7862(3) 0.8164(3)
H2 H 0.2079 0.7641 0.7458
C3 C 0.1318(4) 0.8309(4) 0.8539(3)
H3 H 0.0844 0.8384 0.8084
C4 C 0.1295(3) 0.8654(4) 0.9610(3)
H4 H 0.0793 0.8941 0.9875
C5 C 0.2033(3) 0.8561(3) 1.0263(3)
C6 C 0.2115(3) 0.9038(3) 1.1464(3)
H5 H 0.2794 0.9797 1.1948
H6 H 0.1497 0.9226 1.1592
C7 C 0.1000(3) 0.7126(3) 1.1229(3)
H7 H 0.0783 0.6754 1.0428
H8 H 0.0473 0.7426 1.1490
C8 C 0.0943(3) 0.6154(3) 1.1458(3)
C9 C 0.0167(3) 0.5753(4) 1.1905(3)
H9 H -0.0339 0.6075 1.2062
C10 C 0.0163(4) 0.4876(4) 1.2109(4)
H10 H -0.0349 0.4592 1.2401
C11 C 0.0922(3) 0.4427(4) 1.1877(4)
H11 H 0.0946 0.3842 1.2015
C12 C 0.1639(4) 0.4861(4) 1.1439(4)
H12 H 0.2152 0.4551 1.1279
C13 C 0.2434(3) 0.8800(4) 1.2991(3)
H13 H 0.2306 0.8194 1.3179
H14 H 0.1963 0.9195 1.3249
C14 C 0.3631(4) 0.9755(3) 1.3603(3)
C15 C 0.3889(4) 1.0773(4) 1.4688(3)
H15 H 0.3327 1.0853 1.4981
C16 C 0.4938(5) 1.1617(4) 1.5290(3)
H16 H 0.5111 1.2280 1.6010
C17 C 0.5779(4) 1.1504(3) 1.4838(3)
C18 C 0.5479(3) 1.0450(3) 1.3734(3)
C19 C 0.6306(3) 1.0304(3) 1.3253(3)
C20 C 0.7410(4) 1.1150(4) 1.3868(3)
H17 H 0.7960 1.1040 1.3565
C21 C 0.7697(4) 1.2182(4) 1.4958(3)
H18 H 0.8439 1.2747 1.5362
C22 C 0.6928(5) 1.2361(4) 1.5416(3)
H19 H 0.7143 1.3058 1.6126
C23 C 0.6062(3) 0.9269(3) 1.2086(2)
C24 C 0.5700(3) 0.9324(3) 1.1175(3)
H20 H 0.558(3) 1.006(3) 1.131(3)
C25 C 0.5564(3) 0.8417(3) 1.0102(3)
H21 H 0.536(3) 0.850(3) 0.950(3)
C26 C 0.5772(2) 0.7417(3) 0.9866(2)
C27 C 0.6083(3) 0.7355(3) 1.0790(3)
H22 H 0.616(3) 0.669(3) 1.069(3)
C28 C 0.6240(3) 0.8262(3) 1.1872(3)
H23 H 0.643(3) 0.819(3) 1.251(3)
C29 C 0.4442(3) 0.6060(3) 0.7758(2)
C30 C 0.3420(3) 0.5168(3) 0.7591(3)
C31 C 0.2432(3) 0.4819(3) 0.6837(3)
H24 H 0.1782 0.4208 0.6730
C32 C 0.2384(3) 0.5354(3) 0.6239(3)
C33 C 0.3364(3) 0.6293(3) 0.6461(3)
H25 H 0.3350 0.6688 0.6093
C34 C 0.4369(3) 0.6672(3) 0.7208(3)
C35 C 0.3335(3) 0.4557(4) 0.8237(4)
H26 H 0.2655 0.4431 0.8398
H27 H 0.3952 0.5076 0.8923
H28 H 0.3343 0.3778 0.7795
C36 C 0.1313(3) 0.4986(4) 0.5427(4)
H29 H 0.1142 0.5672 0.5693
H30 H 0.0725 0.4312 0.5363
H31 H 0.1391 0.4741 0.4708
C37 C 0.5337(3) 0.7759(3) 0.7375(3)
H32 H 0.5566 0.7492 0.6730
H33 H 0.5944 0.8092 0.8024
H34 H 0.5110 0.8381 0.7475
C38 C 0.5648(3) 0.5211(3) 0.8552(3)
C39 C 0.6666(3) 0.6774(3) 0.8122(3)
C40 C 0.6512(3) 0.6065(3) 0.6962(3)
C41 C 0.7243(3) 0.6502(3) 0.6501(3)
H35 H 0.7097 0.6024 0.5735
C42 C 0.8175(3) 0.7619(4) 0.7144(3)
C43 C 0.8429(3) 0.8219(3) 0.8282(3)
H36 H 0.9097 0.8926 0.8742
C44 C 0.7717(3) 0.7803(3) 0.8778(3)
C45 C 0.5532(3) 0.4800(3) 0.6153(3)
H37 H 0.4986 0.4867 0.5729
H38 H 0.5210 0.4487 0.6566
H39 H 0.5782 0.4251 0.5654
C46 C 0.8868(4) 0.8173(4) 0.6617(4)
H40 H 0.9346 0.9029 0.7167
H41 H 0.8387 0.8086 0.6009
H42 H 0.9308 0.7753 0.6341
C47 C 0.8152(3) 0.8495(3) 1.0045(3)
H43 H 0.8937 0.9000 1.0318
H44 H 0.8003 0.7916 1.0259
H45 H 0.7790 0.9004 1.0359
K1 K 0.36248(6) 0.71591(7) 1.10224(6)
N1 N 0.2717(3) 0.8086(3) 0.9888(2)
N2 N 0.2108(2) 0.8168(2) 1.1770(2)
N3 N 0.1663(3) 0.5708(3) 1.1218(3)
N4 N 0.4386(3) 0.9596(2) 1.3144(2)
N5 N 0.5758(3) 0.4428(3) 0.8546(3)
B1A B 0.4365(3) 0.3595(3) 1.1417(3)
C1A C 0.7295(3) 0.2255(4) 1.1147(3)
H1A H 0.6824 0.2592 1.1416
C2A C 0.7961(3) 0.2138(3) 1.1836(3)
H2A H 0.7921 0.2359 1.2542
C3A C 0.8682(4) 0.1691(4) 1.1461(3)
H3A H 0.9156 0.1616 1.1916
C4A C 0.8705(3) 0.1346(4) 1.0390(3)
H4A H 0.9207 0.1059 1.0125
C5A C 0.7967(3) 0.1439(3) 0.9737(3)
C6A C 0.7885(3) 0.0962(3) 0.8536(3)
H5A H 0.7206 0.0203 0.8052
H6A H 0.8503 0.0774 0.8408
C7A C 0.9000(3) 0.2874(3) 0.8771(3)
H7A H 0.9217 0.3246 0.9572
H8A H 0.9527 0.2574 0.8510
C8A C 0.9057(3) 0.3846(3) 0.8542(3)
C9A C 0.9833(3) 0.4247(4) 0.8095(3)
H9A H 1.0339 0.3925 0.7938
C10A C 0.9837(4) 0.5124(4) 0.7891(4)
H10A H 1.0349 0.5408 0.7599
C11A C 0.9078(3) 0.5573(4) 0.8123(4)
H11A H 0.9054 0.6158 0.7985
C12A C 0.8361(4) 0.5139(4) 0.8561(4)
H12A H 0.7848 0.5449 0.8721
C13A C 0.7566(3) 0.1200(4) 0.7009(3)
H13A H 0.7694 0.1806 0.6821
H14A H 0.8037 0.0805 0.6751
C14A C 0.6369(4) 0.0245(3) 0.6397(3)
C15A C 0.6111(4) -0.0773(4) 0.5312(3)
H15A H 0.6673 -0.0853 0.5019
C16A C 0.5062(5) -0.1617(4) 0.4710(3)
H16A H 0.4889 -0.2280 0.3990
C17A C 0.4221(4) -0.1504(3) 0.5162(3)
C18A C 0.4521(3) -0.0450(3) 0.6266(3)
C19A C 0.3694(3) -0.0304(3) 0.6747(3)
C20A C 0.2590(4) -0.1150(4) 0.6132(3)
H17A H 0.2040 -0.1040 0.6435
C21A C 0.2303(4) -0.2182(4) 0.5042(3)
H18A H 0.1561 -0.2747 0.4638
C22A C 0.3072(5) -0.2361(4) 0.4584(3)
H19A H 0.2857 -0.3058 0.3874
C23A C 0.3938(3) 0.0731(3) 0.7914(2)
C24A C 0.4300(3) 0.0676(3) 0.8825(3)
H20A H 0.442(3) -0.006(3) 0.869(3)
C25A C 0.4436(3) 0.1583(3) 0.9898(3)
H21A H 0.464(3) 0.150(3) 1.050(3)
C26A C 0.4228(2) 0.2583(3) 1.0134(2)
C27A C 0.3917(3) 0.2645(3) 0.9210(3)
H22A H 0.384(3) 0.331(3) 0.931(3)
C28A C 0.3760(3) 0.1738(3) 0.8128(3)
H23A H 0.357(3) 0.181(3) 0.749(3)
C29A C 0.5558(3) 0.3940(3) 1.2242(2)
C30A C 0.6580(3) 0.4832(3) 1.2409(3)
C31A C 0.7568(3) 0.5181(3) 1.3163(3)
H24A H 0.8218 0.5792 1.3270
C32A C 0.7616(3) 0.4646(3) 1.3761(3)
C33A C 0.6636(3) 0.3707(3) 1.3539(3)
H25A H 0.6650 0.3312 1.3907
C34A C 0.5631(3) 0.3328(3) 1.2792(3)
C35A C 0.6665(3) 0.5443(4) 1.1763(4)
H26A H 0.7345 0.5569 1.1602
H27A H 0.6048 0.4924 1.1077
H28A H 0.6657 0.6222 1.2205
C36A C 0.8687(3) 0.5014(4) 1.4573(4)
H29A H 0.8858 0.4328 1.4307
H30A H 0.9275 0.5688 1.4637
H31A H 0.8609 0.5259 1.5292
C37A C 0.4663(3) 0.2241(3) 1.2625(3)
H32A H 0.4434 0.2508 1.3270
H33A H 0.4056 0.1908 1.1976
H34A H 0.4890 0.1619 1.2525
C38A C 0.4352(3) 0.4789(3) 1.1448(3)
C39A C 0.3334(3) 0.3226(3) 1.1878(3)
C40A C 0.3488(3) 0.3935(3) 1.3038(3)
C41A C 0.2757(3) 0.3498(3) 1.3499(3)
H35A H 0.2903 0.3976 1.4265
C42A C 0.1825(3) 0.2381(4) 1.2856(3)
C43A C 0.1571(3) 0.1781(3) 1.1718(3)
H36A H 0.0903 0.1074 1.1258
C44A C 0.2283(3) 0.2197(3) 1.1222(3)
C45A C 0.4468(3) 0.5200(3) 1.3847(3)
H37A H 0.5014 0.5133 1.4271
H38A H 0.4790 0.5513 1.3434
H39A H 0.4218 0.5749 1.4346
C46A C 0.1132(4) 0.1827(4) 1.3383(4)
H40A H 0.0654 0.0971 1.2833
H41A H 0.1613 0.1914 1.3991
H42A H 0.0692 0.2247 1.3659
C47A C 0.1848(3) 0.1505(3) 0.9955(3)
H43A H 0.1063 0.1000 0.9682
H44A H 0.1997 0.2084 0.9741
H45A H 0.2210 0.0996 0.9641
K1A K 0.63752(6) 0.28409(7) 0.89776(6)
N1A N 0.7283(3) 0.1914(3) 1.0112(2)
N2A N 0.7892(2) 0.1832(2) 0.8230(2)
N3A N 0.8337(3) 0.4292(3) 0.8782(3)
N4A N 0.5614(3) 0.0404(2) 0.6856(2)
N5A N 0.4242(3) 0.5572(3) 1.1454(3)
loop_
_geom_bond_atom_site_label_1
_geom_bond_atom_site_label_2
_geom_bond_site_symmetry_1
_geom_bond_site_symmetry_2
B1 C26 1_555 1_555
C1 H1 1_555 1_555
C2 C1 1_555 1_555
H2 C2 1_555 1_555
C3 C2 1_555 1_555
H3 C3 1_555 1_555
C4 C3 1_555 1_555
H4 C4 1_555 1_555
C5 C4 1_555 1_555
C6 C5 1_555 1_555
H5 C6 1_555 1_555
H6 C6 1_555 1_555
C7 H7 1_555 1_555
H8 C7 1_555 1_555
C8 C7 1_555 1_555
C9 C8 1_555 1_555
H9 C9 1_555 1_555
C10 C9 1_555 1_555
H10 C10 1_555 1_555
C11 C10 1_555 1_555
H11 C11 1_555 1_555
C12 C11 1_555 1_555
H12 C12 1_555 1_555
C13 H13 1_555 1_555
H14 C13 1_555 1_555
C14 C13 1_555 1_555
C15 C14 1_555 1_555
H15 C15 1_555 1_555
C16 C15 1_555 1_555
H16 C16 1_555 1_555
C17 C16 1_555 1_555
C18 C17 1_555 1_555
C19 C18 1_555 1_555
C20 C19 1_555 1_555
H17 C20 1_555 1_555
C21 C20 1_555 1_555
H18 C21 1_555 1_555
C22 C17 1_555 1_555
H19 C22 1_555 1_555
C23 C19 1_555 1_555
C24 C23 1_555 1_555
H20 C24 1_555 1_555
C25 C24 1_555 1_555
H21 C25 1_555 1_555
C26 C25 1_555 1_555
C27 C26 1_555 1_555
H22 C27 1_555 1_555
C28 C23 1_555 1_555
H23 C28 1_555 1_555
C29 B1 1_555 1_555
C30 C29 1_555 1_555
C31 C30 1_555 1_555
H24 C31 1_555 1_555
C32 C31 1_555 1_555
C33 C32 1_555 1_555
H25 C33 1_555 1_555
C34 C29 1_555 1_555
C35 C30 1_555 1_555
H26 C35 1_555 1_555
H27 C35 1_555 1_555
H28 C35 1_555 1_555
C36 C32 1_555 1_555
H29 C36 1_555 1_555
H30 C36 1_555 1_555
H31 C36 1_555 1_555
C37 C34 1_555 1_555
H32 C37 1_555 1_555
H33 C37 1_555 1_555
H34 C37 1_555 1_555
C38 B1 1_555 1_555
C39 B1 1_555 1_555
C40 C39 1_555 1_555
C41 C40 1_555 1_555
H35 C41 1_555 1_555
C42 C41 1_555 1_555
C43 C42 1_555 1_555
H36 C43 1_555 1_555
C44 C39 1_555 1_555
C45 C40 1_555 1_555
H37 C45 1_555 1_555
H38 C45 1_555 1_555
H39 C45 1_555 1_555
C46 C42 1_555 1_555
H40 C46 1_555 1_555
H41 C46 1_555 1_555
H42 C46 1_555 1_555
C47 C44 1_555 1_555
H43 C47 1_555 1_555
H44 C47 1_555 1_555
H45 C47 1_555 1_555
K1 C23 1_555 1_555
N1 C1 1_555 1_555
N2 C6 1_555 1_555
N3 C8 1_555 1_555
N4 C14 1_555 1_555
N5 C38 1_555 1_555
B1A C26A 1_555 1_555
C1A H1A 1_555 1_555
C2A C1A 1_555 1_555
H2A C2A 1_555 1_555
C3A C2A 1_555 1_555
H3A C3A 1_555 1_555
C4A C3A 1_555 1_555
H4A C4A 1_555 1_555
C5A C4A 1_555 1_555
C6A C5A 1_555 1_555
H5A C6A 1_555 1_555
H6A C6A 1_555 1_555
C7A H7A 1_555 1_555
H8A C7A 1_555 1_555
C8A C7A 1_555 1_555
C9A C8A 1_555 1_555
H9A C9A 1_555 1_555
C10A C9A 1_555 1_555
H10A C10A 1_555 1_555
C11A C10A 1_555 1_555
H11A C11A 1_555 1_555
C12A C11A 1_555 1_555
H12A C12A 1_555 1_555
C13A H13A 1_555 1_555
H14A C13A 1_555 1_555
C14A C13A 1_555 1_555
C15A C14A 1_555 1_555
H15A C15A 1_555 1_555
C16A C15A 1_555 1_555
H16A C16A 1_555 1_555
C17A C16A 1_555 1_555
C18A C17A 1_555 1_555
C19A C18A 1_555 1_555
C20A C19A 1_555 1_555
H17A C20A 1_555 1_555
C21A C20A 1_555 1_555
H18A C21A 1_555 1_555
C22A C17A 1_555 1_555
H19A C22A 1_555 1_555
C23A C19A 1_555 1_555
C24A C23A 1_555 1_555
H20A C24A 1_555 1_555
C25A C24A 1_555 1_555
H21A C25A 1_555 1_555
C26A C25A 1_555 1_555
C27A C26A 1_555 1_555
H22A C27A 1_555 1_555
C28A C23A 1_555 1_555
H23A C28A 1_555 1_555
C29A B1A 1_555 1_555
C30A C29A 1_555 1_555
C31A C30A 1_555 1_555
H24A C31A 1_555 1_555
C32A C31A 1_555 1_555
C33A C32A 1_555 1_555
H25A C33A 1_555 1_555
C34A C29A 1_555 1_555
C35A C30A 1_555 1_555
H26A C35A 1_555 1_555
H27A C35A 1_555 1_555
H28A C35A 1_555 1_555
C36A C32A 1_555 1_555
H29A C36A 1_555 1_555
H30A C36A 1_555 1_555
H31A C36A 1_555 1_555
C37A C34A 1_555 1_555
H32A C37A 1_555 1_555
H33A C37A 1_555 1_555
H34A C37A 1_555 1_555
C38A B1A 1_555 1_555
C39A B1A 1_555 1_555
C40A C39A 1_555 1_555
C41A C40A 1_555 1_555
H35A C41A 1_555 1_555
C42A C41A 1_555 1_555
C43A C42A 1_555 1_555
H36A C43A 1_555 1_555
C44A C39A 1_555 1_555
C45A C40A 1_555 1_555
H37A C45A 1_555 1_555
H38A C45A 1_555 1_555
H39A C45A 1_555 1_555
C46A C42A 1_555 1_555
H40A C46A 1_555 1_555
H41A C46A 1_555 1_555
H42A C46A 1_555 1_555
C47A C44A 1_555 1_555
H43A C47A 1_555 1_555
H44A C47A 1_555 1_555
H45A C47A 1_555 1_555
K1A N5 1_555 1_555
N1A C1A 1_555 1_555
N2A C6A 1_555 1_555
N3A C8A 1_555 1_555
N4A C14A 1_555 1_555
N5A K1 1_555 1_555
C5 N1 1_555 1_555
C7 N2 1_555 1_555
C12 N3 1_555 1_555
C13 N2 1_555 1_555
C18 N4 1_555 1_555
C21 C22 1_555 1_555
C24 K1 1_555 1_555
C27 C28 1_555 1_555
C28 K1 1_555 1_555
C33 C34 1_555 1_555
C43 C44 1_555 1_555
K1 N1 1_555 1_555
K1 N2 1_555 1_555
K1 N3 1_555 1_555
K1 N4 1_555 1_555
C5A N1A 1_555 1_555
C7A N2A 1_555 1_555
C12A N3A 1_555 1_555
C13A N2A 1_555 1_555
C18A N4A 1_555 1_555
C21A C22A 1_555 1_555
C23A K1A 1_555 1_555
C24A K1A 1_555 1_555
C27A C28A 1_555 1_555
C28A K1A 1_555 1_555
C33A C34A 1_555 1_555
C38A N5A 1_555 1_555
C43A C44A 1_555 1_555
K1A N1A 1_555 1_555
K1A N2A 1_555 1_555
K1A N3A 1_555 1_555
K1A N4A 1_555 1_555

#END
