
#######################################################################
#
#                 Cambridge Crystallographic Data Centre
#                                CCDC 
#
#######################################################################
#
# If this CIF has been generated from an entry in the Cambridge 
# Structural Database, then it will include bibliographic, chemical, 
# crystal, experimental, refinement or atomic coordinate data resulting 
# from the CCDC's data processing and validation procedures.
#
#######################################################################

data_FILFIS
_chemical_formula_moiety         'C26 H24 Br1 N1 O1'
_chemical_name_systematic        
2-{2-[2-(3-bromophenyl)ethenyl]cyclopropyl}-N,N-diphenylpropanamide
_symmetry_cell_setting           monoclinic
_symmetry_space_group_name_H-M   'P 21'
_symmetry_Int_Tables_number      4
_space_group_name_Hall           'P 2yb'
loop_
_symmetry_equiv_pos_site_id
_symmetry_equiv_pos_as_xyz
1 x,y,z
2 -x,1/2+y,-z
_cell_length_a                   11.693(4)
_cell_length_b                   6.314(2)
_cell_length_c                   15.570(5)
_cell_angle_alpha                90
_cell_angle_beta                 103.875(6)
_cell_angle_gamma                90
_cell_volume                     1115.99
_exptl_crystal_colour            colorless
_exptl_crystal_description       prismatic
_cell_formula_units_Z            2
loop_
_atom_site_label
_atom_site_type_symbol
_atom_site_fract_x
_atom_site_fract_y
_atom_site_fract_z
Br1 Br -0.13158(4) 0.66308(15) 0.56292(4)
N1 N 0.6940(2) 0.2299(5) 0.8697(2)
O1 O 0.50783(19) 0.1485(8) 0.80037(16)
C1 C 0.6052(3) 0.2054(8) 0.7946(2)
C2 C 0.6340(3) 0.2358(7) 0.7060(3)
H1 H 0.6922 0.3495 0.7105
C3 C 0.5231(3) 0.2958(7) 0.6379(3)
H2 H 0.4580 0.1941 0.6285
C4 C 0.5335(4) 0.4228(9) 0.5602(3)
H3 H 0.4771 0.3960 0.5045
H4 H 0.6121 0.4591 0.5548
C5 C 0.4898(4) 0.5268(8) 0.6318(3)
H5 H 0.5473 0.6197 0.6701
C6 C 0.3650(4) 0.5965(8) 0.6190(3)
H6 H 0.3062 0.5159 0.5828
C7 C 0.3342(4) 0.7668(8) 0.6567(3)
H7 H 0.3958 0.8426 0.6923
C8 C 0.2164(4) 0.8533(8) 0.6503(3)
C9 C 0.1140(3) 0.7371(8) 0.6146(3)
H8 H 0.1201 0.6010 0.5933
C10 C 0.0047(4) 0.8215(9) 0.6108(3)
C11 C -0.0045(5) 1.0274(10) 0.6422(4)
H9 H -0.0780 1.0881 0.6385
C12 C 0.0961(5) 1.1377(12) 0.6785(3)
H10 H 0.0906 1.2737 0.7001
C13 C 0.2047(5) 1.0509(9) 0.6834(3)
H11 H 0.2719 1.1275 0.7098
C14 C 0.6858(4) 0.0292(9) 0.6797(3)
H12 H 0.6311 -0.0845 0.6792
H13 H 0.7586 -0.0017 0.7216
H14 H 0.7000 0.0445 0.6218
C15 C 0.8105(3) 0.3081(8) 0.8698(3)
C16 C 0.8258(4) 0.5154(9) 0.8439(3)
H15 H 0.7616 0.6058 0.8270
C17 C 0.9390(5) 0.5853(11) 0.8437(4)
H16 H 0.9500 0.7214 0.8244
C18 C 1.0327(5) 0.4555(15) 0.8716(4)
H17 H 1.1079 0.5024 0.8711
C19 C 1.0171(4) 0.2564(14) 0.9004(4)
H18 H 1.0820 0.1691 0.9210
C20 C 0.9046(3) 0.1832(12) 0.8993(3)
H19 H 0.8945 0.0470 0.9190
C21 C 0.6741(3) 0.1741(9) 0.9541(2)
C22 C 0.6369(3) -0.0254(9) 0.9696(3)
H20 H 0.6241 -0.1256 0.9245
C23 C 0.6181(4) -0.0798(10) 1.0509(4)
H21 H 0.5937 -0.2160 1.0607
C24 C 0.6353(5) 0.0666(12) 1.1168(4)
H22 H 0.6208 0.0318 1.1712
C25 C 0.6738(5) 0.2642(11) 1.1030(4)
H23 H 0.6880 0.3630 1.1486
C26 C 0.6922(4) 0.3191(8) 1.0200(3)
H24 H 0.7168 0.4552 1.0103
loop_
_geom_bond_atom_site_label_1
_geom_bond_atom_site_label_2
_geom_bond_site_symmetry_1
_geom_bond_site_symmetry_2
Br1 C10 1_555 1_555
N1 C1 1_555 1_555
O1 C1 1_555 1_555
C1 C2 1_555 1_555
C2 H1 1_555 1_555
C3 C2 1_555 1_555
H2 C3 1_555 1_555
C4 C3 1_555 1_555
H3 C4 1_555 1_555
H4 C4 1_555 1_555
C5 C3 1_555 1_555
H5 C5 1_555 1_555
C6 C5 1_555 1_555
H6 C6 1_555 1_555
C7 C6 1_555 1_555
H7 C7 1_555 1_555
C8 C7 1_555 1_555
C9 C8 1_555 1_555
H8 C9 1_555 1_555
C10 C9 1_555 1_555
C11 C10 1_555 1_555
H9 C11 1_555 1_555
C12 C11 1_555 1_555
H10 C12 1_555 1_555
C13 C8 1_555 1_555
H11 C13 1_555 1_555
C14 C2 1_555 1_555
H12 C14 1_555 1_555
H13 C14 1_555 1_555
H14 C14 1_555 1_555
C15 N1 1_555 1_555
C16 C15 1_555 1_555
H15 C16 1_555 1_555
C17 C16 1_555 1_555
H16 C17 1_555 1_555
C18 C17 1_555 1_555
H17 C18 1_555 1_555
C19 C18 1_555 1_555
H18 C19 1_555 1_555
C20 C15 1_555 1_555
H19 C20 1_555 1_555
C21 N1 1_555 1_555
C22 C21 1_555 1_555
H20 C22 1_555 1_555
C23 C22 1_555 1_555
H21 C23 1_555 1_555
C24 C23 1_555 1_555
H22 C24 1_555 1_555
C25 C24 1_555 1_555
H23 C25 1_555 1_555
C26 C21 1_555 1_555
H24 C26 1_555 1_555
C4 C5 1_555 1_555
C12 C13 1_555 1_555
C19 C20 1_555 1_555
C25 C26 1_555 1_555

#END
