
#######################################################################
#
#                 Cambridge Crystallographic Data Centre
#                                CCDC 
#
#######################################################################
#
# If this CIF has been generated from an entry in the Cambridge 
# Structural Database, then it will include bibliographic, chemical, 
# crystal, experimental, refinement or atomic coordinate data resulting 
# from the CCDC's data processing and validation procedures.
#
#######################################################################

data_FILJER
_chemical_formula_moiety         'C18 H16 N1 O2 1+,B1 F4 1-'
_chemical_name_systematic        
'4-(Ethoxycarbonyl)-3-phenylquinolizinium tetrafluoroborate'
_symmetry_cell_setting           triclinic
_symmetry_space_group_name_H-M   'P -1'
_symmetry_Int_Tables_number      2
_space_group_name_Hall           '-P 1'
loop_
_symmetry_equiv_pos_site_id
_symmetry_equiv_pos_as_xyz
1 x,y,z
2 -x,-y,-z
_cell_length_a                   10.5920(2)
_cell_length_b                   11.1165(2)
_cell_length_c                   14.8645(3)
_cell_angle_alpha                89.8660(10)
_cell_angle_beta                 69.4220(10)
_cell_angle_gamma                88.0730(10)
_cell_volume                     1637.55
_exptl_crystal_colour            black
_cell_formula_units_Z            4
loop_
_atom_site_label
_atom_site_type_symbol
_atom_site_fract_x
_atom_site_fract_y
_atom_site_fract_z
N1 N 0.12545(16) 0.38917(14) 0.40063(11)
O1 O 0.33218(14) 0.45287(13) 0.51598(10)
O2 O 0.42163(14) 0.34543(12) 0.37756(10)
C1 C 0.22678(19) 0.46743(16) 0.39965(13)
C2 C 0.22292(19) 0.58484(16) 0.37229(13)
C3 C 0.10714(19) 0.62925(17) 0.35359(14)
H1 H 0.0999 0.7117 0.3386
C4 C 0.0068(2) 0.55439(17) 0.35701(14)
H2 H -0.0707 0.5855 0.3455
C5 C 0.01611(19) 0.43145(16) 0.37741(13)
C6 C -0.0811(2) 0.34941(17) 0.37410(14)
H3 H -0.1569 0.3778 0.3592
C7 C -0.0682(2) 0.23067(18) 0.39184(15)
H4 H -0.1316 0.1755 0.3861
C8 C 0.0406(2) 0.19096(17) 0.41878(14)
H5 H 0.0489 0.1087 0.4339
C9 C 0.1336(2) 0.26876(17) 0.42340(14)
H6 H 0.2059 0.2404 0.4426
C10 C 0.33313(19) 0.42085(16) 0.43861(14)
C11 C 0.5338(2) 0.29629(18) 0.40485(17)
H7 H 0.5301 0.3325 0.4665
H8 H 0.6212 0.3152 0.3550
C12 C 0.5208(2) 0.16245(19) 0.41461(16)
H9 H 0.5946 0.1280 0.4329
H10 H 0.5250 0.1274 0.3531
H11 H 0.4342 0.1446 0.4642
C13 C 0.33621(19) 0.66602(17) 0.36003(14)
C14 C 0.4703(2) 0.62521(18) 0.31809(14)
H12 H 0.4904 0.5434 0.2985
C15 C 0.5744(2) 0.7037(2) 0.30489(15)
H13 H 0.6655 0.6748 0.2774
C16 C 0.5464(2) 0.82388(19) 0.33160(15)
H14 H 0.6180 0.8773 0.3223
C17 C 0.4133(2) 0.86562(18) 0.37194(15)
H15 H 0.3938 0.9480 0.3901
C18 C 0.3084(2) 0.78780(17) 0.38598(14)
H16 H 0.2175 0.8172 0.4132
N2 N 0.48913(16) -0.09661(14) 0.11833(11)
O3 O 0.79291(15) -0.00759(13) -0.01616(10)
O4 O 0.77825(13) -0.12267(12) 0.11203(10)
C19 C 0.58450(19) -0.01117(17) 0.11451(14)
C20 C 0.5456(2) 0.10304(17) 0.15094(14)
C21 C 0.4050(2) 0.13324(19) 0.19096(15)
H17 H 0.3756 0.2122 0.2154
C22 C 0.3127(2) 0.04982(19) 0.19443(15)
H18 H 0.2193 0.0714 0.2214
C23 C 0.35249(19) -0.06804(18) 0.15897(14)
C24 C 0.2594(2) -0.15641(19) 0.16239(14)
H19 H 0.1656 -0.1366 0.1896
C25 C 0.3005(2) -0.27010(19) 0.12759(15)
H20 H 0.2367 -0.3298 0.1316
C26 C 0.4400(2) -0.29652(18) 0.08562(15)
H21 H 0.4707 -0.3749 0.0605
C27 C 0.5311(2) -0.21157(18) 0.08061(14)
H22 H 0.6247 -0.2308 0.0510
C28 C 0.7315(2) -0.04688(16) 0.06160(14)
C29 C 0.9211(2) -0.16102(19) 0.06682(16)
H23 H 0.9799 -0.0971 0.0739
H24 H 0.9428 -0.1774 -0.0025
C30 C 0.9427(2) -0.2731(2) 0.11646(19)
H25 H 1.0373 -0.3010 0.0883
H26 H 0.8844 -0.3357 0.1086
H27 H 0.9206 -0.2558 0.1850
C31 C 0.6454(2) 0.19483(18) 0.14902(14)
C32 C 0.7606(2) 0.16538(18) 0.17131(14)
H28 H 0.7757 0.0855 0.1890
C33 C 0.8530(2) 0.2534(2) 0.16747(15)
H29 H 0.9310 0.2333 0.1826
C34 C 0.8316(2) 0.3700(2) 0.14167(17)
H30 H 0.8961 0.4292 0.1373
C35 C 0.7160(2) 0.4001(2) 0.12223(16)
H31 H 0.7004 0.4805 0.1059
C36 C 0.6230(2) 0.31383(19) 0.12636(15)
H32 H 0.5434 0.3356 0.1137
B1 B 0.2157(2) 0.3969(2) 0.12077(17)
F1 F 0.2037(2) 0.3354(2) 0.04130(18)
F2 F 0.3426(3) 0.4394(2) 0.0924(3)
F3 F 0.11599(13) 0.48829(12) 0.14414(10)
F4 F 0.1814(3) 0.3160(2) 0.19470(16)
B2 B 0.8782(2) 0.91245(19) 0.37467(17)
F8 F 1.01548(13) 0.91636(11) 0.35817(10)
F9 F 0.84907(19) 0.97746(13) 0.30400(12)
F10 F 0.80766(14) 0.96553(12) 0.46297(10)
F11 F 0.84131(14) 0.79421(11) 0.37403(10)
F5? F 0.1949(6) 0.2844(6) 0.0984(5)
F6? F 0.3128(8) 0.4392(8) 0.0468(11)
F7? F 0.2615(5) 0.3879(5) 0.1999(3)
loop_
_geom_bond_atom_site_label_1
_geom_bond_atom_site_label_2
_geom_bond_site_symmetry_1
_geom_bond_site_symmetry_2
N1 C1 1_555 1_555
O1 C10 1_555 1_555
O2 C10 1_555 1_555
C1 C2 1_555 1_555
C2 C3 1_555 1_555
C3 H1 1_555 1_555
C4 C3 1_555 1_555
H2 C4 1_555 1_555
C5 N1 1_555 1_555
C6 C5 1_555 1_555
H3 C6 1_555 1_555
C7 C6 1_555 1_555
H4 C7 1_555 1_555
C8 C7 1_555 1_555
H5 C8 1_555 1_555
C9 N1 1_555 1_555
H6 C9 1_555 1_555
C10 C1 1_555 1_555
C11 O2 1_555 1_555
H7 C11 1_555 1_555
H8 C11 1_555 1_555
C12 C11 1_555 1_555
H9 C12 1_555 1_555
H10 C12 1_555 1_555
H11 C12 1_555 1_555
C13 C2 1_555 1_555
C14 C13 1_555 1_555
H12 C14 1_555 1_555
C15 C14 1_555 1_555
H13 C15 1_555 1_555
C16 C15 1_555 1_555
H14 C16 1_555 1_555
C17 C16 1_555 1_555
H15 C17 1_555 1_555
C18 C13 1_555 1_555
H16 C18 1_555 1_555
N2 C19 1_555 1_555
O3 C28 1_555 1_555
O4 C28 1_555 1_555
C19 C20 1_555 1_555
C20 C21 1_555 1_555
C21 H17 1_555 1_555
C22 C21 1_555 1_555
H18 C22 1_555 1_555
C23 N2 1_555 1_555
C24 C23 1_555 1_555
H19 C24 1_555 1_555
C25 C24 1_555 1_555
H20 C25 1_555 1_555
C26 C25 1_555 1_555
H21 C26 1_555 1_555
C27 N2 1_555 1_555
H22 C27 1_555 1_555
C28 C19 1_555 1_555
C29 O4 1_555 1_555
H23 C29 1_555 1_555
H24 C29 1_555 1_555
C30 C29 1_555 1_555
H25 C30 1_555 1_555
H26 C30 1_555 1_555
H27 C30 1_555 1_555
C31 C20 1_555 1_555
C32 C31 1_555 1_555
H28 C32 1_555 1_555
C33 C32 1_555 1_555
H29 C33 1_555 1_555
C34 C33 1_555 1_555
H30 C34 1_555 1_555
C35 C34 1_555 1_555
H31 C35 1_555 1_555
C36 C31 1_555 1_555
H32 C36 1_555 1_555
B1 F1 1_555 1_555
F2 B1 1_555 1_555
F3 B1 1_555 1_555
F4 B1 1_555 1_555
B2 F8 1_555 1_555
F9 B2 1_555 1_555
F10 B2 1_555 1_555
F11 B2 1_555 1_555
C4 C5 1_555 1_555
C8 C9 1_555 1_555
C17 C18 1_555 1_555
C22 C23 1_555 1_555
C26 C27 1_555 1_555
C35 C36 1_555 1_555

#END
