
#######################################################################
#
#                 Cambridge Crystallographic Data Centre
#                                CCDC 
#
#######################################################################
#
# If this CIF has been generated from an entry in the Cambridge 
# Structural Database, then it will include bibliographic, chemical, 
# crystal, experimental, refinement or atomic coordinate data resulting 
# from the CCDC's data processing and validation procedures.
#
#######################################################################

data_FILRIB
_chemical_name_common            'Iodine-containing compound'
_chemical_formula_moiety         'C36 H40 I1 N1 O13 S2,2(C1 H1 Cl3)'
_chemical_name_systematic        
'2,16-Dediglycoside-1-(O-4-(10-acetoxynaphtho(2,3-b)thiophene)) calichemicin chloroform solvate'
_symmetry_cell_setting           triclinic
_symmetry_space_group_name_H-M   'P 1'
_symmetry_Int_Tables_number      1
_space_group_name_Hall           'P 1'
loop_
_symmetry_equiv_pos_site_id
_symmetry_equiv_pos_as_xyz
1 x,y,z
_cell_length_a                   9.242(2)
_cell_length_b                   21.231(4)
_cell_length_c                   6.193(1)
_cell_angle_alpha                95.53(1)
_cell_angle_beta                 105.64(2)
_cell_angle_gamma                95.03(2)
_cell_volume                     1156.52
_cell_formula_units_Z            1
loop_
_atom_site_label
_atom_site_type_symbol
_atom_site_fract_x
_atom_site_fract_y
_atom_site_fract_z
I1 I 1.0000 1.0000 1.0000
S1 S 0.8530(9) 0.7298(3) 0.396(1)
S2 S 0.897(3) 0.175(1) 0.130(3)
O1 O 0.684(2) 1.0124(8) 0.676(3)
O2 O 0.516(2) 0.9407(9) 0.295(3)
O3 O 0.625(2) 0.8314(8) 0.116(3)
O4 O 0.982(2) 0.8045(8) 0.176(4)
O5 O 0.898(2) 0.5921(7) -0.073(2)
O6 O 0.889(2) 0.5926(8) 0.485(3)
O7 O 1.033(2) 0.5077(7) -0.059(3)
O8 O 0.994(2) 0.3114(7) -0.034(3)
O9 O 1.314(2) 0.3279(9) -0.264(3)
O10 O 1.134(2) 0.4213(9) -0.466(3)
O11 O 1.165(2) 0.2409(7) -0.053(3)
O12 O 1.319(2) 0.1349(9) 0.757(3)
O13 O 1.394(3) 0.051(1) 0.591(4)
N1 N 0.923(2) 0.469(1) -0.245(3)
C1 C 0.882(3) 0.945(1) 0.697(4)
C2 C 0.741(3) 0.959(1) 0.590(4)
C3 C 0.652(3) 0.923(1) 0.397(4)
C4 C 0.703(3) 0.870(1) 0.304(5)
C5 C 0.846(3) 0.856(1) 0.408(4)
C6 C 0.939(3) 0.893(1) 0.595(4)
C7 C 0.395(4) 0.909(1) 0.335(5)
C8 C 0.607(5) 0.856(2) -0.089(7)
C9 C 0.909(3) 0.803(1) 0.304(5)
C10 C 1.097(4) 0.876(2) 0.711(5)
C11 C 0.933(3) 0.673(1) 0.250(4)
C12 C 0.822(3) 0.639(1) 0.033(4)
C13 C 0.960(3) 0.547(1) 0.062(4)
C14 C 1.069(3) 0.574(1) 0.275(4)
C15 C 1.003(3) 0.624(1) 0.401(4)
C16 C 0.754(3) 0.679(1) -0.135(4)
C17 C 0.970(3) 0.403(1) -0.240(4)
C18 C 0.955(3) 0.371(1) -0.018(4)
C19 C 1.137(3) 0.305(1) -0.041(5)
C20 C 1.167(3) 0.332(1) -0.253(4)
C21 C 1.125(3) 0.396(1) -0.259(4)
C22 C 0.799(3) 0.368(1) 0.005(5)
C23 C 1.203(3) 0.218(1) 0.155(4)
C24 C 1.094(3) 0.184(1) 0.230(4)
C25 C 0.875(4) 0.119(2) 0.372(7)
C26 C 1.013(4) 0.123(2) 0.502(6)
C27 C 1.138(3) 0.158(1) 0.439(4)
C28 C 1.284(3) 0.165(1) 0.551(5)
C29 C 1.394(3) 0.193(1) 0.483(4)
C30 C 1.549(3) 0.201(1) 0.601(5)
C31 C 1.642(4) 0.229(2) 0.506(6)
C32 C 1.633(7) 0.247(2) 0.37(1)
C33 C 1.46(1) 0.248(5) 0.17(2)
C34 C 1.353(3) 0.219(1) 0.276(4)
C35 C 1.382(3) 0.082(1) 0.759(5)
C36 C 1.429(3) 0.064(1) 0.987(5)
H1 H 0.4020 0.9190 0.4918
H2 H 0.3076 0.9207 0.2443
H3 H 0.4009 0.8644 0.3056
H4 H 0.6198 0.9013 -0.0619
H5 H 0.6816 0.8422 -0.1564
H6 H 0.5094 0.8414 -0.1851
H7 H 1.0901 0.8448 0.8076
H8 H 1.1414 0.8596 0.5973
H9 H 1.1591 0.9132 0.7947
H10 H 1.0123 0.6958 0.2092
H11 H 0.7431 0.6158 0.0724
H12 H 0.8792 0.5214 0.0926
H13 H 1.0950 0.5404 0.3641
H14 H 1.1570 0.5927 0.2428
H15 H 1.0824 0.6458 0.5267
H16 H 0.8298 0.7037 -0.1755
H17 H 0.6901 0.6526 -0.2652
H18 H 0.6942 0.7059 -0.0733
H19 H 0.9006 0.3769 -0.3685
H20 H 1.0221 0.3952 0.1139
H21 H 1.2069 0.3282 0.0911
H22 H 1.1028 0.3058 -0.3808
H23 H 1.1951 0.4227 -0.1359
H24 H 0.8016 0.3933 0.1447
H25 H 0.7362 0.3846 -0.1162
H26 H 0.7623 0.3254 0.0117
Cl1 Cl 0.384(1) 0.6340(5) -0.038(2)
Cl2 Cl 0.246(1) 0.7457(5) -0.056(2)
Cl3 Cl 0.393(1) 0.7134(6) 0.369(2)
C37 C 0.393(4) 0.710(2) 0.089(5)
Cl4 Cl 0.511(1) 0.4921(6) -0.213(2)
Cl5 Cl 0.538(1) 0.4138(5) -0.593(2)
Cl6 Cl 0.475(2) 0.5411(8) -0.623(3)
C38 C 0.572(4) 0.488(2) -0.459(6)
loop_
_geom_bond_atom_site_label_1
_geom_bond_atom_site_label_2
_geom_bond_site_symmetry_1
_geom_bond_site_symmetry_2
I1 C1 1_555 1_555
S1 C9 1_555 1_555
S2 C24 1_555 1_555
O1 C2 1_555 1_555
O2 C3 1_555 1_555
O3 C4 1_555 1_555
O4 C9 1_555 1_555
O5 C12 1_555 1_555
O6 C15 1_555 1_555
O7 N1 1_555 1_555
O8 C18 1_555 1_555
O9 C20 1_555 1_555
O10 C21 1_555 1_555
O11 C19 1_555 1_555
O12 C28 1_555 1_555
O13 C35 1_555 1_555
N1 C17 1_555 1_555
C1 C2 1_555 1_555
C2 C3 1_555 1_555
C3 C4 1_555 1_555
C4 C5 1_555 1_555
C5 C6 1_555 1_555
C6 C1 1_555 1_555
C7 O2 1_555 1_555
C8 O3 1_555 1_555
C9 C5 1_555 1_555
C10 C6 1_555 1_555
C11 S1 1_555 1_555
C12 C11 1_555 1_555
C13 O5 1_555 1_555
C14 C13 1_555 1_555
C15 C11 1_555 1_555
C16 C12 1_555 1_555
C17 C18 1_555 1_555
C18 C22 1_555 1_555
C19 O8 1_555 1_555
C20 C19 1_555 1_555
C21 C17 1_555 1_555
C22 H24 1_555 1_555
C23 O11 1_555 1_555
C24 C23 1_555 1_555
C25 S2 1_555 1_555
C26 C25 1_555 1_555
C27 C24 1_555 1_555
C28 C27 1_555 1_555
C29 C28 1_555 1_555
C30 C29 1_555 1_555
C31 C30 1_555 1_555
C32 C31 1_555 1_555
C33 C32 1_555 1_555
C34 C23 1_555 1_555
C35 O12 1_555 1_555
C36 C35 1_555 1_555
H1 C7 1_555 1_555
H2 C7 1_555 1_555
H3 C7 1_555 1_555
H4 C8 1_555 1_555
H5 C8 1_555 1_555
H6 C8 1_555 1_555
H7 C10 1_555 1_555
H8 C10 1_555 1_555
H9 C10 1_555 1_555
H10 C11 1_555 1_555
H11 C12 1_555 1_555
H12 C13 1_555 1_555
H13 C14 1_555 1_555
H14 C14 1_555 1_555
H15 C15 1_555 1_555
H16 C16 1_555 1_555
H17 C16 1_555 1_555
H18 C16 1_555 1_555
H19 C17 1_555 1_555
H20 C18 1_555 1_555
H21 C19 1_555 1_555
H22 C20 1_555 1_555
H23 C21 1_555 1_555
H25 C22 1_555 1_555
H26 C22 1_555 1_555
Cl1 C37 1_555 1_555
Cl2 C37 1_555 1_555
Cl3 C37 1_555 1_555
Cl4 C38 1_555 1_555
Cl5 C38 1_555 1_555
Cl6 C38 1_555 1_555
O7 C13 1_555 1_555
C14 C15 1_555 1_555
C20 C21 1_555 1_555
C26 C27 1_555 1_555
C29 C34 1_555 1_555
C33 C34 1_555 1_555

#END
