
#######################################################################
#
#                 Cambridge Crystallographic Data Centre
#                                CCDC 
#
#######################################################################
#
# If this CIF has been generated from an entry in the Cambridge 
# Structural Database, then it will include bibliographic, chemical, 
# crystal, experimental, refinement or atomic coordinate data resulting 
# from the CCDC's data processing and validation procedures.
#
#######################################################################

data_FILWOP
_chemical_formula_moiety         'C20 H25 B1 O3'
_chemical_name_systematic        
2-(1,2-diphenylethoxy)-4,4,5,5-tetramethyl-1,3,2-dioxaborolane
_symmetry_cell_setting           monoclinic
_symmetry_space_group_name_H-M   'P 21'
_symmetry_Int_Tables_number      4
_space_group_name_Hall           'P 2yb'
loop_
_symmetry_equiv_pos_site_id
_symmetry_equiv_pos_as_xyz
1 x,y,z
2 -x,1/2+y,-z
_cell_length_a                   6.468(2)
_cell_length_b                   24.149(9)
_cell_length_c                   12.121(4)
_cell_angle_alpha                90
_cell_angle_beta                 101.110(16)
_cell_angle_gamma                90
_cell_volume                     1857.77
_exptl_crystal_description       block
_cell_formula_units_Z            4
loop_
_atom_site_label
_atom_site_type_symbol
_atom_site_fract_x
_atom_site_fract_y
_atom_site_fract_z
O1 O 0.1696(5) -0.37070(12) 0.2936(3)
O2 O -0.1275(5) -0.31651(13) 0.2200(3)
O3 O 0.1964(5) -0.27915(12) 0.2230(3)
C1 C 0.4852(8) -0.39684(17) 0.4227(4)
C2 C 0.6984(9) -0.3952(2) 0.4570(5)
H1 H 0.7829 -0.3832 0.4077
C3 C 0.7903(10) -0.4114(3) 0.5658(5)
H2 H 0.9359 -0.4102 0.5892
C4 C 0.6657(9) -0.4292(2) 0.6382(5)
H3 H 0.7270 -0.4404 0.7105
C5 C 0.4543(9) -0.4304(2) 0.6049(5)
H4 H 0.3702 -0.4419 0.6547
C6 C 0.3617(8) -0.41444(18) 0.4964(4)
H5 H 0.2160 -0.4157 0.4737
C7 C 0.3884(8) -0.38205(18) 0.3024(4)
H6 H 0.4589 -0.3492 0.2798
C8 C 0.4119(10) -0.4298(2) 0.2244(4)
H7 H 0.3441 -0.4623 0.2482
H8 H 0.5604 -0.4381 0.2308
C9 C 0.3170(10) -0.41765(19) 0.1020(4)
C10 C 0.4418(11) -0.3950(2) 0.0346(5)
H9 H 0.5840 -0.3884 0.0623
C11 C 0.3512(12) -0.3817(3) -0.0780(5)
H10 H 0.4341 -0.3664 -0.1250
C12 C 0.1437(13) -0.3910(3) -0.1175(5)
H11 H 0.0843 -0.3821 -0.1914
C13 C 0.0217(13) -0.4136(3) -0.0491(5)
H12 H -0.1209 -0.4197 -0.0764
C14 C 0.1097(11) -0.4275(2) 0.0618(5)
H13 H 0.0267 -0.4436 0.1079
C15 C 0.0464(8) -0.24000(19) 0.1609(5)
C16 C -0.1640(8) -0.2582(2) 0.1922(5)
C17 C -0.3548(10) -0.2538(3) 0.1001(7)
H14 H -0.3304 -0.2736 0.0351
H15 H -0.3820 -0.2156 0.0810
H16 H -0.4742 -0.2694 0.1252
C18 C -0.2091(15) -0.2316(3) 0.2980(7)
H17 H -0.3170 -0.2522 0.3243
H18 H -0.2557 -0.1942 0.2821
H19 H -0.0831 -0.2316 0.3548
C19 C 0.1168(12) -0.1825(2) 0.1959(8)
H20 H 0.1321 -0.1791 0.2759
H21 H 0.0139 -0.1564 0.1596
H22 H 0.2496 -0.1752 0.1745
C20 C 0.0484(11) -0.2486(3) 0.0368(5)
H23 H 0.1860 -0.2403 0.0226
H24 H -0.0535 -0.2246 -0.0074
H25 H 0.0140 -0.2865 0.0169
B1 B 0.0823(8) -0.3228(2) 0.2456(4)
O4 O -0.8700(6) -0.10232(12) -0.4757(3)
O5 O -0.5740(5) -0.15701(13) -0.4006(3)
O6 O -0.8993(5) -0.19340(12) -0.4012(3)
C21 C -1.0255(9) -0.0552(2) -0.2868(5)
C22 C -0.8165(11) -0.0444(3) -0.2400(5)
H26 H -0.7293 -0.0295 -0.2850
C23 C -0.7348(13) -0.0553(3) -0.1287(6)
H27 H -0.5941 -0.0477 -0.0988
C24 C -0.8622(13) -0.0771(3) -0.0633(6)
H28 H -0.8076 -0.0847 0.0119
C25 C -1.0686(12) -0.0881(3) -0.1057(5)
H29 H -1.1546 -0.1025 -0.0595
C26 C -1.1498(11) -0.0777(2) -0.2173(5)
H30 H -1.2902 -0.0859 -0.2464
C27 C -1.1115(10) -0.04300(19) -0.4068(5)
H31 H -1.0407 -0.0106 -0.4288
H32 H -1.2600 -0.0341 -0.4151
C28 C -1.0867(8) -0.09095(18) -0.4868(4)
H33 H -1.1588 -0.1238 -0.4656
C29 C -1.1798(8) -0.07542(17) -0.6066(4)
C30 C -1.3926(9) -0.0820(2) -0.6470(5)
H34 H -1.4764 -0.0982 -0.6015
C31 C -1.4829(11) -0.0649(3) -0.7543(5)
H35 H -1.6271 -0.0686 -0.7803
C32 C -1.3578(12) -0.0422(3) -0.8221(5)
H36 H -1.4172 -0.0315 -0.8950
C33 C -1.1481(11) -0.0353(2) -0.7833(5)
H37 H -1.0646 -0.0195 -0.8293
C34 C -1.0577(10) -0.0521(2) -0.6746(5)
H38 H -0.9140 -0.0474 -0.6482
C35 C -0.8232(11) -0.2899(2) -0.3683(7)
H39 H -0.9480 -0.2974 -0.3390
H40 H -0.7148 -0.3157 -0.3371
H41 H -0.8541 -0.2936 -0.4487
C36 C -0.7524(11) -0.2212(3) -0.2151(5)
H42 H -0.6984 -0.1848 -0.1952
H43 H -0.6662 -0.2481 -0.1693
H44 H -0.8944 -0.2238 -0.2029
C37 C -0.7494(9) -0.2321(2) -0.3374(5)
C38 C -0.4990(14) -0.2446(3) -0.4755(7)
H45 H -0.6226 -0.2423 -0.5337
H46 H -0.4656 -0.2828 -0.4586
H47 H -0.3830 -0.2271 -0.5005
C39 C -0.3483(10) -0.2195(3) -0.2778(7)
H48 H -0.2270 -0.2066 -0.3051
H49 H -0.3272 -0.2574 -0.2542
H50 H -0.3685 -0.1971 -0.2153
C40 C -0.5400(9) -0.2155(2) -0.3703(5)
B2 B -0.7830(9) -0.1495(2) -0.4259(5)
loop_
_geom_bond_atom_site_label_1
_geom_bond_atom_site_label_2
_geom_bond_site_symmetry_1
_geom_bond_site_symmetry_2
O1 C7 1_555 1_555
O2 C16 1_555 1_555
O3 C15 1_555 1_555
C1 C2 1_555 1_555
C2 H1 1_555 1_555
C3 C2 1_555 1_555
H2 C3 1_555 1_555
C4 C3 1_555 1_555
H3 C4 1_555 1_555
C5 C4 1_555 1_555
H4 C5 1_555 1_555
C6 C1 1_555 1_555
H5 C6 1_555 1_555
C7 C1 1_555 1_555
H6 C7 1_555 1_555
C8 C7 1_555 1_555
H7 C8 1_555 1_555
H8 C8 1_555 1_555
C9 C8 1_555 1_555
C10 C9 1_555 1_555
H9 C10 1_555 1_555
C11 C10 1_555 1_555
H10 C11 1_555 1_555
C12 C11 1_555 1_555
H11 C12 1_555 1_555
C13 C12 1_555 1_555
H12 C13 1_555 1_555
C14 C9 1_555 1_555
H13 C14 1_555 1_555
C15 C16 1_555 1_555
C16 C17 1_555 1_555
C17 H14 1_555 1_555
H15 C17 1_555 1_555
H16 C17 1_555 1_555
C18 C16 1_555 1_555
H17 C18 1_555 1_555
H18 C18 1_555 1_555
H19 C18 1_555 1_555
C19 C15 1_555 1_555
H20 C19 1_555 1_555
H21 C19 1_555 1_555
H22 C19 1_555 1_555
C20 C15 1_555 1_555
H23 C20 1_555 1_555
H24 C20 1_555 1_555
H25 C20 1_555 1_555
B1 O1 1_555 1_555
O4 C28 1_555 1_555
O5 C40 1_555 1_555
O6 C37 1_555 1_555
C21 C22 1_555 1_555
C22 H26 1_555 1_555
C23 C22 1_555 1_555
H27 C23 1_555 1_555
C24 C23 1_555 1_555
H28 C24 1_555 1_555
C25 C24 1_555 1_555
H29 C25 1_555 1_555
C26 C21 1_555 1_555
H30 C26 1_555 1_555
C27 C21 1_555 1_555
H31 C27 1_555 1_555
H32 C27 1_555 1_555
C28 C27 1_555 1_555
H33 C28 1_555 1_555
C29 C28 1_555 1_555
C30 C29 1_555 1_555
H34 C30 1_555 1_555
C31 C30 1_555 1_555
H35 C31 1_555 1_555
C32 C31 1_555 1_555
H36 C32 1_555 1_555
C33 C32 1_555 1_555
H37 C33 1_555 1_555
C34 C29 1_555 1_555
H38 C34 1_555 1_555
C35 H39 1_555 1_555
H40 C35 1_555 1_555
H41 C35 1_555 1_555
C36 H42 1_555 1_555
H43 C36 1_555 1_555
H44 C36 1_555 1_555
C37 C35 1_555 1_555
C38 H45 1_555 1_555
H46 C38 1_555 1_555
H47 C38 1_555 1_555
C39 H48 1_555 1_555
H49 C39 1_555 1_555
H50 C39 1_555 1_555
C40 C37 1_555 1_555
B2 O4 1_555 1_555
O2 B1 1_555 1_555
O3 B1 1_555 1_555
C5 C6 1_555 1_555
C13 C14 1_555 1_555
O5 B2 1_555 1_555
O6 B2 1_555 1_555
C25 C26 1_555 1_555
C33 C34 1_555 1_555
C36 C37 1_555 1_555
C38 C40 1_555 1_555
C39 C40 1_555 1_555

#END
