
#######################################################################
#
#                 Cambridge Crystallographic Data Centre
#                                CCDC 
#
#######################################################################
#
# If this CIF has been generated from an entry in the Cambridge 
# Structural Database, then it will include bibliographic, chemical, 
# crystal, experimental, refinement or atomic coordinate data resulting 
# from the CCDC's data processing and validation procedures.
#
#######################################################################

data_FILYOR
_chemical_formula_moiety         'C18 H13 Cl2 N1 O1'
_chemical_name_systematic        
9-chloro-6-(4-chlorophenyl)-2,6-dihydropyrido[2,1-a]isoindol-4(3H)-one
_symmetry_cell_setting           orthorhombic
_symmetry_space_group_name_H-M   'P 21 21 21'
_symmetry_Int_Tables_number      19
_space_group_name_Hall           'P 2ac 2ab'
loop_
_symmetry_equiv_pos_site_id
_symmetry_equiv_pos_as_xyz
1 x,y,z
2 1/2-x,-y,1/2+z
3 -x,1/2+y,1/2-z
4 1/2+x,1/2-y,-z
_cell_length_a                   4.78730(10)
_cell_length_b                   12.3631(2)
_cell_length_c                   25.2600(4)
_cell_angle_alpha                90
_cell_angle_beta                 90
_cell_angle_gamma                90
_cell_volume                     1495.04
_exptl_crystal_colour            colorless
_exptl_crystal_description       prism
_cell_formula_units_Z            4
loop_
_atom_site_label
_atom_site_type_symbol
_atom_site_fract_x
_atom_site_fract_y
_atom_site_fract_z
Cl1 Cl -0.22164(15) 0.18677(5) 0.41233(2)
Cl2 Cl 0.32767(17) 0.98080(5) 0.45520(3)
N1 N 0.5226(5) 0.53726(17) 0.30146(8)
O1 O 0.8393(5) 0.66301(16) 0.27635(8)
C1 C 0.5753(6) 0.5447(2) 0.35896(10)
H1 H 0.773784 0.524675 0.366473
C2 C 0.3831(6) 0.45663(19) 0.37958(9)
C3 C 0.3240(6) 0.4284(2) 0.43167(9)
H2 H 0.410565 0.465584 0.460191
C4 C 0.1368(7) 0.3452(2) 0.44139(9)
H3 H 0.095055 0.324565 0.476747
C5 C 0.0099(6) 0.29162(19) 0.39903(10)
C6 C 0.0622(6) 0.3192(2) 0.34684(9)
H4 H -0.027079 0.282740 0.318370
C7 C 0.2516(6) 0.40272(18) 0.33797(9)
C8 C 0.3362(6) 0.45173(18) 0.28790(9)
C9 C 0.2632(8) 0.4304(2) 0.23844(10)
H5 H 0.171045 0.364470 0.230217
C10 C 0.3274(15) 0.5120(5) 0.19443(18)
H6 H 0.325554 0.475957 0.159440
H7 H 0.186726 0.570700 0.194254
C11 C 0.6157(13) 0.5572(5) 0.20627(15)
H8 H 0.650584 0.618946 0.182212
H9 H 0.755968 0.500790 0.198058
C12 C 0.6628(7) 0.5961(2) 0.26445(11)
C13 C 0.5132(6) 0.65535(19) 0.38251(10)
C14 C 0.6673(6) 0.6909(2) 0.42586(9)
H10 H 0.811949 0.646694 0.439797
C15 C 0.6110(6) 0.7911(2) 0.44901(10)
H11 H 0.716401 0.815814 0.478500
C16 C 0.3986(6) 0.8536(2) 0.42809(10)
C17 C 0.2394(7) 0.8187(2) 0.38555(11)
H12 H 0.091418 0.862024 0.372246
C18 C 0.2999(6) 0.7192(2) 0.36269(11)
H13 H 0.194026 0.694770 0.333213
H14? H 0.110950 0.384599 0.229565
C19? C 0.447(2) 0.4863(7) 0.1966(3)
H15? H 0.625947 0.447102 0.193053
H16? H 0.350940 0.484846 0.161849
C20? C 0.501(2) 0.6020(7) 0.2128(3)
H17? H 0.323195 0.641331 0.217868
H18? H 0.612237 0.639813 0.185377
loop_
_geom_bond_atom_site_label_1
_geom_bond_atom_site_label_2
_geom_bond_site_symmetry_1
_geom_bond_site_symmetry_2
Cl1 C5 1_555 1_555
Cl2 C16 1_555 1_555
N1 C1 1_555 1_555
O1 C12 1_555 1_555
C1 H1 1_555 1_555
C2 C1 1_555 1_555
C3 C2 1_555 1_555
H2 C3 1_555 1_555
C4 C3 1_555 1_555
H3 C4 1_555 1_555
C5 C4 1_555 1_555
C6 C5 1_555 1_555
H4 C6 1_555 1_555
C7 C2 1_555 1_555
C8 N1 1_555 1_555
C9 C8 1_555 1_555
H5 C9 1_555 1_555
C10 C9 1_555 1_555
H6 C10 1_555 1_555
H7 C10 1_555 1_555
C11 C10 1_555 1_555
H8 C11 1_555 1_555
H9 C11 1_555 1_555
C12 N1 1_555 1_555
C13 C1 1_555 1_555
C14 C13 1_555 1_555
H10 C14 1_555 1_555
C15 C14 1_555 1_555
H11 C15 1_555 1_555
C16 C15 1_555 1_555
C17 C16 1_555 1_555
H12 C17 1_555 1_555
C18 C13 1_555 1_555
H13 C18 1_555 1_555
C6 C7 1_555 1_555
C7 C8 1_555 1_555
C11 C12 1_555 1_555
C17 C18 1_555 1_555

#END
