
#######################################################################
#
#                 Cambridge Crystallographic Data Centre
#                                CCDC 
#
#######################################################################
#
# If this CIF has been generated from an entry in the Cambridge 
# Structural Database, then it will include bibliographic, chemical, 
# crystal, experimental, refinement or atomic coordinate data resulting 
# from the CCDC's data processing and validation procedures.
#
#######################################################################

data_FIMKAN
_chemical_formula_moiety         'C15 H17 N3'
_chemical_name_systematic        
5'-Phenyl-spiro(cyclopropane-1,9'-(3,4,5-triazatricyclo(5.2.1.0^2,6^)dec-3-ene))
_symmetry_cell_setting           triclinic
_symmetry_space_group_name_H-M   'P -1'
_symmetry_Int_Tables_number      2
_space_group_name_Hall           '-P 1'
loop_
_symmetry_equiv_pos_site_id
_symmetry_equiv_pos_as_xyz
1 x,y,z
2 -x,-y,-z
_cell_length_a                   9.810(2)
_cell_length_b                   11.041(2)
_cell_length_c                   6.605(2)
_cell_angle_alpha                94.20(2)
_cell_angle_beta                 82.67(2)
_cell_angle_gamma                115.9(2)
_cell_volume                     638.163
_exptl_crystal_colour            colorless
_chemical_melting_point          113-116deg.C
_cell_formula_units_Z            2
loop_
_atom_site_label
_atom_site_type_symbol
_atom_site_fract_x
_atom_site_fract_y
_atom_site_fract_z
C1 C 0.4099(2) -0.3393(2) 0.6384(3)
C2 C 0.5786(2) -0.3097(2) 0.6017(3)
N1 N 0.6299(2) -0.3198(2) 0.3826(2)
N2 N 0.7203(2) -0.2062(2) 0.3136(2)
N3 N 0.7462(2) -0.1065(1) 0.4604(2)
C3 C 0.6606(2) -0.1586(2) 0.6571(2)
C4 C 0.5292(2) -0.1189(2) 0.7156(3)
C5 C 0.4525(2) -0.1817(2) 0.9251(3)
C6 C 0.3708(2) -0.3313(2) 0.8675(3)
C7 C 0.4137(2) -0.2082(2) 0.5721(3)
C8 C 0.8466(2) 0.0269(2) 0.4155(3)
C9 C 0.8897(2) 0.1221(2) 0.5727(3)
C10 C 0.9878(2) 0.2547(2) 0.5287(3)
C11 C 1.0436(2) 0.2941(2) 0.3309(4)
C12 C 1.0018(3) 0.1995(2) 0.1761(3)
C13 C 0.9036(2) 0.0667(2) 0.2156(3)
C14 C 0.3485(3) -0.4411(2) 1.0058(3)
C15 C 0.2161(2) -0.4169(2) 0.9677(3)
H1 H 0.5596 -0.0229 0.7124
H2 H 0.3436 -0.4236 0.5729
H3 H 0.7280 -0.1270 0.7666
H4 H 1.0183 0.3229 0.6392
H5 H 0.8730 0.0009 0.1017
H6 H 0.8503 0.0952 0.7144
H7 H 1.1132 0.3869 0.2985
H8 H 0.5976 -0.3713 0.6804
H9 H 0.3585 -0.5213 0.9524
H10 H 0.3872 -0.4201 1.1391
H11 H 0.3162 -0.2045 0.5989
H12 H 0.4495 -0.1891 0.4291
H13 H 1.0452 0.2264 0.0360
H14 H 0.3812 -0.1458 0.9883
H15 H 0.5261 -0.1645 1.0221
H16 H 0.1648 -0.3807 1.0751
H17 H 0.1362 -0.4818 0.8885
loop_
_geom_bond_atom_site_label_1
_geom_bond_atom_site_label_2
_geom_bond_site_symmetry_1
_geom_bond_site_symmetry_2
C1 C2 1_555 1_555
C2 N1 1_555 1_555
N1 N2 1_555 1_555
N2 N3 1_555 1_555
N3 C3 1_555 1_555
C3 C2 1_555 1_555
C4 C3 1_555 1_555
C5 C4 1_555 1_555
C6 C1 1_555 1_555
C7 C1 1_555 1_555
C8 N3 1_555 1_555
C9 C8 1_555 1_555
C10 C9 1_555 1_555
C11 C10 1_555 1_555
C12 C11 1_555 1_555
C13 C8 1_555 1_555
C14 C6 1_555 1_555
C15 C6 1_555 1_555
H1 C4 1_555 1_555
H2 C1 1_555 1_555
H3 C3 1_555 1_555
H4 C10 1_555 1_555
H5 C13 1_555 1_555
H6 C9 1_555 1_555
H7 C11 1_555 1_555
H8 C2 1_555 1_555
H9 C14 1_555 1_555
H10 C14 1_555 1_555
H11 C7 1_555 1_555
H12 C7 1_555 1_555
H13 C12 1_555 1_555
H14 C5 1_555 1_555
H15 C5 1_555 1_555
H16 C15 1_555 1_555
H17 C15 1_555 1_555
C4 C7 1_555 1_555
C5 C6 1_555 1_555
C12 C13 1_555 1_555
C14 C15 1_555 1_555

#END
