
#######################################################################
#
#                 Cambridge Crystallographic Data Centre
#                                CCDC 
#
#######################################################################
#
# If this CIF has been generated from an entry in the Cambridge 
# Structural Database, then it will include bibliographic, chemical, 
# crystal, experimental, refinement or atomic coordinate data resulting 
# from the CCDC's data processing and validation procedures.
#
#######################################################################

data_FIMLEV
_chemical_formula_moiety         'C30 H20 N2,2(C12 H4 N4)'
_chemical_name_systematic        
"bis(2,2'-(cyclohexa-2,5-diene-1,4-diylidene)dipropanedinitrile) 9,9'-(1,4-phenylene)bis(9H-carbazole) unknown solvate"
_symmetry_cell_setting           triclinic
_symmetry_space_group_name_H-M   'P -1'
_symmetry_Int_Tables_number      2
_space_group_name_Hall           '-P 1'
loop_
_symmetry_equiv_pos_site_id
_symmetry_equiv_pos_as_xyz
1 x,y,z
2 -x,-y,-z
_cell_length_a                   6.6654(6)
_cell_length_b                   10.8664(10)
_cell_length_c                   16.3955(15)
_cell_angle_alpha                73.921(5)
_cell_angle_beta                 85.222(5)
_cell_angle_gamma                78.522(5)
_cell_volume                     1117.73
_exptl_crystal_colour            black
_exptl_crystal_description       block
_cell_formula_units_Z            1
loop_
_atom_site_label
_atom_site_type_symbol
_atom_site_fract_x
_atom_site_fract_y
_atom_site_fract_z
N1 N 1.0129(5) 0.5728(4) 0.3202(2)
C1 C 1.0479(6) 0.5624(4) 0.1822(2)
C2 C 0.9965(6) 0.6963(4) 0.1822(2)
C3 C 0.9756(6) 0.7003(4) 0.2687(2)
C4 C 1.0559(6) 0.4874(4) 0.2687(2)
C5 C 0.9660(6) 0.8115(4) 0.1174(3)
H1 H 0.981770 0.810163 0.059486
C6 C 1.0872(6) 0.4997(4) 0.1172(3)
H2 H 1.081001 0.548836 0.059353
C7 C 1.1351(6) 0.3656(4) 0.1380(3)
H3 H 1.162237 0.322071 0.094249
C8 C 1.1081(7) 0.3518(5) 0.2900(3)
H4 H 1.118508 0.301925 0.347586
C9 C 0.9124(7) 0.9278(5) 0.1393(3)
H5 H 0.888644 1.007220 0.095729
C10 C 0.9207(7) 0.8184(5) 0.2903(3)
H6 H 0.903615 0.821064 0.347908
C11 C 1.0062(6) 0.5356(5) 0.4111(2)
C12 C 1.1441(7) 0.2921(4) 0.2242(3)
H7 H 1.175622 0.199723 0.237282
C13 C 0.8921(7) 0.9313(5) 0.2246(3)
H8 H 0.858011 1.013119 0.237435
C14 C 0.9006(7) 0.4387(5) 0.4562(3)
H9 H 0.832429 0.396282 0.426403
C15 C 0.8936(7) 0.4033(5) 0.5437(3)
H10 H 0.820456 0.336927 0.573603
N1A N 0.9871(5) 0.4272(4) 0.6798(2)
C1A C 0.9521(6) 0.4376(4) 0.8178(2)
C2A C 1.0035(6) 0.3037(4) 0.8178(2)
C3A C 1.0244(6) 0.2997(4) 0.7313(2)
C4A C 0.9441(6) 0.5126(4) 0.7313(2)
C5A C 1.0340(6) 0.1885(4) 0.8826(3)
H1A H 1.018230 0.189837 0.940514
C6A C 0.9128(6) 0.5003(4) 0.8828(3)
H2A H 0.918999 0.451164 0.940647
C7A C 0.8649(6) 0.6344(4) 0.8620(3)
H3A H 0.837763 0.677929 0.905751
C8A C 0.8919(7) 0.6482(5) 0.7100(3)
H4A H 0.881492 0.698075 0.652414
C9A C 1.0876(7) 0.0722(5) 0.8607(3)
H5A H 1.111356 -0.007220 0.904271
C10A C 1.0793(7) 0.1816(5) 0.7097(3)
H6A H 1.096385 0.178936 0.652092
C11A C 0.9938(6) 0.4644(5) 0.5889(2)
C12A C 0.8559(7) 0.7079(4) 0.7758(3)
H7A H 0.824378 0.800277 0.762718
C13A C 1.1079(7) 0.0687(5) 0.7754(3)
H8A H 1.141989 -0.013119 0.762565
C14A C 1.0994(7) 0.5613(5) 0.5438(3)
H9A H 1.167571 0.603718 0.573597
C15A C 1.1064(7) 0.5967(5) 0.4563(3)
H10A H 1.179544 0.663073 0.426397
C16 C 0.5711(6) 1.4900(4) 0.1986(3)
N2 N 0.6972(7) 1.2829(4) 0.0629(3)
C17 C 0.6230(7) 1.3610(4) 0.1997(3)
C18 C 0.4708(6) 1.7566(4) 0.1992(3)
C19 C 0.4179(7) 1.8848(4) 0.2002(3)
C20 C 0.5012(6) 1.7183(4) 0.1204(3)
H11 H 0.486745 1.783441 0.067848
C21 C 0.5494(6) 1.5927(4) 0.1205(3)
H12 H 0.569714 1.570655 0.067902
C22 C 0.5373(6) 1.5283(4) 0.2781(3)
H13 H 0.545383 1.463033 0.330700
N3 N 0.3563(7) 2.0778(4) 0.0662(3)
C23 C 0.4953(7) 1.6537(4) 0.2777(3)
H14 H 0.481002 1.676089 0.330207
C24 C 0.6609(7) 1.3183(4) 0.1237(3)
C25 C 0.6438(7) 1.2589(4) 0.2770(3)
N4 N 0.6648(8) 1.1769(4) 0.3380(3)
C26 C 0.3852(7) 1.9230(4) 0.2784(3)
N5 N 0.3575(8) 1.9544(5) 0.3400(3)
C27 C 0.3856(7) 1.9902(4) 0.1246(3)
loop_
_geom_bond_atom_site_label_1
_geom_bond_atom_site_label_2
_geom_bond_site_symmetry_1
_geom_bond_site_symmetry_2
N1 C3 1_555 1_555
C1 C2 1_555 1_555
C2 C3 1_555 1_555
C3 C10 1_555 1_555
C4 N1 1_555 1_555
C5 C2 1_555 1_555
H1 C5 1_555 1_555
C6 C1 1_555 1_555
H2 C6 1_555 1_555
C7 C6 1_555 1_555
H3 C7 1_555 1_555
C8 C4 1_555 1_555
H4 C8 1_555 1_555
C9 C5 1_555 1_555
H5 C9 1_555 1_555
C10 H6 1_555 1_555
C11 N1 1_555 1_555
C12 C7 1_555 1_555
H7 C12 1_555 1_555
C13 C9 1_555 1_555
H8 C13 1_555 1_555
C14 C11 1_555 1_555
H9 C14 1_555 1_555
C15 C14 1_555 1_555
H10 C15 1_555 1_555
C16 C17 1_555 1_555
N2 C24 1_555 1_555
C17 C24 1_555 1_555
C18 C19 1_555 1_555
C19 C26 1_555 1_555
C20 C18 1_555 1_555
H11 C20 1_555 1_555
C21 C16 1_555 1_555
H12 C21 1_555 1_555
C22 C16 1_555 1_555
H13 C22 1_555 1_555
N3 C27 1_555 1_555
C23 C18 1_555 1_555
H14 C23 1_555 1_555
C25 C17 1_555 1_555
N4 C25 1_555 1_555
C26 N5 1_555 1_555
C27 C19 1_555 1_555
N1A C3A 1_555 1_555
C1A C2A 1_555 1_555
C2A C3A 1_555 1_555
C3A C10A 1_555 1_555
C4A N1A 1_555 1_555
C5A C2A 1_555 1_555
H1A C5A 1_555 1_555
C6A C1A 1_555 1_555
H2A C6A 1_555 1_555
C7A C6A 1_555 1_555
H3A C7A 1_555 1_555
C8A C4A 1_555 1_555
H4A C8A 1_555 1_555
C9A C5A 1_555 1_555
H5A C9A 1_555 1_555
C10A H6A 1_555 1_555
C11A C15 1_555 1_555
C12A C7A 1_555 1_555
H7A C12A 1_555 1_555
C13A C9A 1_555 1_555
H8A C13A 1_555 1_555
C14A C11A 1_555 1_555
H9A C14A 1_555 1_555
C15A C11 1_555 1_555
H10A C15A 1_555 1_555
C1 C4 1_555 1_555
C8 C12 1_555 1_555
C10 C13 1_555 1_555
C20 C21 1_555 1_555
C22 C23 1_555 1_555
N1A C11A 1_555 1_555
C1A C4A 1_555 1_555
C8A C12A 1_555 1_555
C10A C13A 1_555 1_555
C14A C15A 1_555 1_555

#END
