
#######################################################################
#
#                 Cambridge Crystallographic Data Centre
#                                CCDC 
#
#######################################################################
#
# If this CIF has been generated from an entry in the Cambridge 
# Structural Database, then it will include bibliographic, chemical, 
# crystal, experimental, refinement or atomic coordinate data resulting 
# from the CCDC's data processing and validation procedures.
#
#######################################################################

data_FIMRUP
_chemical_formula_moiety         'C16 H11 N5'
_chemical_name_systematic        
1,1,4,4-Tetracyano-2-(4-(dimethylamino)phenyl)buta-1,3-diene
_symmetry_cell_setting           triclinic
_symmetry_space_group_name_H-M   'P -1'
_symmetry_Int_Tables_number      2
_space_group_name_Hall           '-P 1'
loop_
_symmetry_equiv_pos_site_id
_symmetry_equiv_pos_as_xyz
1 x,y,z
2 -x,-y,-z
_cell_length_a                   10.7459(2)
_cell_length_b                   11.0754(3)
_cell_length_c                   15.1601(5)
_cell_angle_alpha                70.935(1)
_cell_angle_beta                 71.461(1)
_cell_angle_gamma                61.437(2)
_cell_volume                     1469.05
_exptl_crystal_colour            colorless
_chemical_melting_point          '144-145 deg.C'
_cell_formula_units_Z            4
_exptl_crystal_recrystallization_method hexane/dichloromethane
loop_
_atom_site_label
_atom_site_type_symbol
_atom_site_fract_x
_atom_site_fract_y
_atom_site_fract_z
C1 C 0.77096(14) 0.18089(13) 1.03019(9)
C2 C 0.69013(14) 0.12915(14) 1.11379(9)
H1 H 0.6628 0.1661 1.1688
C3 C 0.65006(14) 0.02712(14) 1.11757(10)
H2 H 0.5937 -0.0037 1.1745
C4 C 0.69136(14) -0.03325(13) 1.03778(10)
C5 C 0.76626(15) 0.02346(14) 0.95246(10)
H3 H 0.7905 -0.0107 0.8966
C6 C 0.80447(15) 0.12722(14) 0.94917(10)
H4 H 0.8546 0.1634 0.8910
N1 N 0.65869(13) -0.13988(12) 1.04329(9)
C7 C 0.60350(18) -0.21245(17) 1.13464(12)
H5 H 0.6665 -0.2418 1.1793
H6 H 0.6013 -0.2954 1.1262
H7 H 0.5056 -0.1490 1.1599
C8 C 0.69531(18) -0.19933(16) 0.96116(12)
H8 H 0.6700 -0.1232 0.9054
H9 H 0.6414 -0.2558 0.9739
H10 H 0.7992 -0.2590 0.9488
C9 C 0.82158(13) 0.28138(13) 1.02932(9)
C10 C 0.86687(14) 0.27728(14) 1.10612(10)
C11 C 0.89720(15) 0.15872(15) 1.18405(10)
N2 N 0.93112(16) 0.06208(15) 1.24460(10)
C12 C 0.89533(15) 0.38892(15) 1.11047(11)
N3 N 0.91916(16) 0.47719(15) 1.11447(11)
C13 C 0.83119(15) 0.39045(14) 0.94409(10)
H11 H 0.9109 0.4138 0.9295
C14 C 0.73663(15) 0.46009(14) 0.88500(10)
C15 C 0.60514(16) 0.44640(14) 0.89773(10)
N4 N 0.49592(15) 0.44638(14) 0.90375(10)
C16 C 0.76015(19) 0.56398(17) 0.80267(11)
N5 N 0.7776(2) 0.64594(19) 0.73791(13)
C17 C 0.96726(14) 0.30206(14) 0.55703(10)
C18 C 0.86218(14) 0.29529(15) 0.63941(10)
H12 H 0.8898 0.2238 0.6940
C19 C 0.71999(15) 0.38994(16) 0.64288(10)
H13 H 0.6508 0.3818 0.6993
C20 C 0.67506(14) 0.49938(14) 0.56354(11)
C21 C 0.78112(15) 0.50470(14) 0.48049(11)
H14 H 0.7542 0.5762 0.4258
C22 C 0.92299(15) 0.40805(14) 0.47728(10)
H15 H 0.9920 0.4132 0.4202
N6 N 0.53427(13) 0.59380(14) 0.56717(10)
C23 C 0.43008(18) 0.5980(2) 0.65593(13)
H16 H 0.4175 0.5102 0.6779
H17 H 0.3373 0.6775 0.6460
H18 H 0.4649 0.6093 0.7039
C24 C 0.48854(18) 0.70427(18) 0.48460(13)
H19 H 0.5303 0.7711 0.4726
H20 H 0.3829 0.7535 0.4968
H21 H 0.5216 0.6625 0.4289
C25 C 1.11777(13) 0.20019(13) 0.55304(9)
C26 C 1.18725(14) 0.15529(14) 0.62719(10)
C27 C 1.12537(15) 0.21654(16) 0.70955(11)
N7 N 1.08106(15) 0.26566(16) 0.77522(11)
C28 C 1.32835(14) 0.04158(15) 0.62756(10)
N8 N 1.44197(13) -0.04864(15) 0.62701(10)
C29 C 1.20004(14) 0.13831(14) 0.46943(10)
H22 H 1.3008 0.1143 0.4533
C30 C 1.14386(15) 0.11277(14) 0.41353(10)
C31 C 0.99432(16) 0.14131(15) 0.42705(10)
N9 N 0.87871(15) 0.15641(15) 0.43466(11)
C32 C 1.23656(18) 0.04271(18) 0.33647(11)
N10 N 1.3078(2) -0.0150(2) 0.27629(12)
loop_
_geom_bond_atom_site_label_1
_geom_bond_atom_site_label_2
_geom_bond_site_symmetry_1
_geom_bond_site_symmetry_2
C1 C2 1_555 1_555
C2 H1 1_555 1_555
C3 C2 1_555 1_555
H2 C3 1_555 1_555
C4 C3 1_555 1_555
C5 C4 1_555 1_555
H3 C5 1_555 1_555
C6 C1 1_555 1_555
H4 C6 1_555 1_555
N1 C4 1_555 1_555
C7 N1 1_555 1_555
H5 C7 1_555 1_555
H6 C7 1_555 1_555
H7 C7 1_555 1_555
C8 N1 1_555 1_555
H8 C8 1_555 1_555
H9 C8 1_555 1_555
H10 C8 1_555 1_555
C9 C1 1_555 1_555
C10 C9 1_555 1_555
C11 C10 1_555 1_555
N2 C11 1_555 1_555
C12 C10 1_555 1_555
N3 C12 1_555 1_555
C13 C9 1_555 1_555
H11 C13 1_555 1_555
C14 C13 1_555 1_555
C15 C14 1_555 1_555
N4 C15 1_555 1_555
C16 C14 1_555 1_555
N5 C16 1_555 1_555
C17 C18 1_555 1_555
C18 H12 1_555 1_555
C19 C18 1_555 1_555
H13 C19 1_555 1_555
C20 C19 1_555 1_555
C21 C20 1_555 1_555
H14 C21 1_555 1_555
C22 C17 1_555 1_555
H15 C22 1_555 1_555
N6 C20 1_555 1_555
C23 N6 1_555 1_555
H16 C23 1_555 1_555
H17 C23 1_555 1_555
H18 C23 1_555 1_555
C24 N6 1_555 1_555
H19 C24 1_555 1_555
H20 C24 1_555 1_555
H21 C24 1_555 1_555
C25 C17 1_555 1_555
C26 C25 1_555 1_555
C27 C26 1_555 1_555
N7 C27 1_555 1_555
C28 C26 1_555 1_555
N8 C28 1_555 1_555
C29 C25 1_555 1_555
H22 C29 1_555 1_555
C30 C29 1_555 1_555
C31 C30 1_555 1_555
N9 C31 1_555 1_555
C32 C30 1_555 1_555
N10 C32 1_555 1_555
C5 C6 1_555 1_555
C21 C22 1_555 1_555

#END
