
#######################################################################
#
#                 Cambridge Crystallographic Data Centre
#                                CCDC 
#
#######################################################################
#
# If this CIF has been generated from an entry in the Cambridge 
# Structural Database, then it will include bibliographic, chemical, 
# crystal, experimental, refinement or atomic coordinate data resulting 
# from the CCDC's data processing and validation procedures.
#
#######################################################################

data_FIMSIE
_chemical_formula_moiety         'C14 H11 N3'
_chemical_name_systematic        
1,1-Dicyano-4-(4-(dimethylamino)phenyl)but-1-en-3-yne
_symmetry_cell_setting           monoclinic
_symmetry_space_group_name_H-M   'P 21/n'
_symmetry_Int_Tables_number      14
_space_group_name_Hall           '-P 2yn'
loop_
_symmetry_equiv_pos_site_id
_symmetry_equiv_pos_as_xyz
1 x,y,z
2 1/2-x,1/2+y,1/2-z
3 -x,-y,-z
4 1/2+x,1/2-y,1/2+z
_cell_length_a                   4.0006(3)
_cell_length_b                   17.9661(10)
_cell_length_c                   17.145(2)
_cell_angle_alpha                90
_cell_angle_beta                 96.308(3)
_cell_angle_gamma                90
_cell_volume                     1224.84
_exptl_crystal_colour            colorless
_chemical_melting_point          '130.3-131.4 deg.C'
_cell_formula_units_Z            4
_exptl_crystal_recrystallization_method hexane/dichloromethane
loop_
_atom_site_label
_atom_site_type_symbol
_atom_site_fract_x
_atom_site_fract_y
_atom_site_fract_z
C1 C 0.7788(5) 0.66727(11) 0.99859(13)
C2 C 0.7316(6) 0.59289(12) 0.97521(14)
H1 H 0.6463 0.5592 1.0091
C3 C 0.8079(6) 0.56892(12) 0.90393(14)
H2 H 0.7746 0.5191 0.8904
C4 C 0.9340(5) 0.61699(11) 0.85097(13)
C5 C 0.9806(6) 0.69111(12) 0.87326(14)
H3 H 1.0658 0.7244 0.8389
C6 C 0.9037(6) 0.71591(11) 0.94447(14)
H4 H 0.9346 0.7659 0.9574
N1 N 0.7056(4) 0.69108(9) 1.07012(11)
C7 C 0.5663(6) 0.63997(14) 1.12357(15)
H5 H 0.5322 0.6656 1.1712
H6 H 0.7195 0.5994 1.1354
H7 H 0.3552 0.6211 1.0996
C8 C 0.7678(8) 0.76647(14) 1.09624(17)
H8 H 0.9975 0.7793 1.0913
H9 H 0.7265 0.7708 1.1502
H10 H 0.6210 0.7996 1.0647
C9 C 1.0210(6) 0.58942(12) 0.77858(15)
C10 C 1.0962(6) 0.56195(12) 0.71834(15)
C11 C 1.1930(5) 0.53108(13) 0.65016(13)
H11 H 1.2981 0.5622 0.6170
C12 C 1.1460(5) 0.45913(12) 0.62829(13)
C13 C 1.2543(6) 0.43187(11) 0.55742(14)
N2 N 1.3445(6) 0.40994(11) 0.50076(14)
C14 C 0.9849(6) 0.40650(13) 0.67407(14)
N3 N 0.8525(6) 0.36423(14) 0.70989(14)
loop_
_geom_bond_atom_site_label_1
_geom_bond_atom_site_label_2
_geom_bond_site_symmetry_1
_geom_bond_site_symmetry_2
C1 C2 1_555 1_555
C2 H1 1_555 1_555
C3 C2 1_555 1_555
H2 C3 1_555 1_555
C4 C3 1_555 1_555
C5 C4 1_555 1_555
H3 C5 1_555 1_555
C6 C1 1_555 1_555
H4 C6 1_555 1_555
N1 C1 1_555 1_555
C7 N1 1_555 1_555
H5 C7 1_555 1_555
H6 C7 1_555 1_555
H7 C7 1_555 1_555
C8 N1 1_555 1_555
H8 C8 1_555 1_555
H9 C8 1_555 1_555
H10 C8 1_555 1_555
C9 C4 1_555 1_555
C10 C9 1_555 1_555
C11 C10 1_555 1_555
H11 C11 1_555 1_555
C12 C11 1_555 1_555
C13 C12 1_555 1_555
N2 C13 1_555 1_555
C14 C12 1_555 1_555
N3 C14 1_555 1_555
C5 C6 1_555 1_555

#END
