
#######################################################################
#
#                 Cambridge Crystallographic Data Centre
#                                CCDC 
#
#######################################################################
#
# If this CIF has been generated from an entry in the Cambridge 
# Structural Database, then it will include bibliographic, chemical, 
# crystal, experimental, refinement or atomic coordinate data resulting 
# from the CCDC's data processing and validation procedures.
#
#######################################################################

data_FIMXAC
_chemical_formula_moiety         'C30 H37 B3 N2 O3'
_chemical_name_systematic        
2-[2,4,6-tris(3-methylphenyl)boroxin-2-yl]-1,3-diethyl-4,5-dimethyl-1H-imidazol-3-ium
_symmetry_cell_setting           monoclinic
_symmetry_space_group_name_H-M   'P 21/n'
_symmetry_Int_Tables_number      14
_space_group_name_Hall           '-P 2yn'
loop_
_symmetry_equiv_pos_site_id
_symmetry_equiv_pos_as_xyz
1 x,y,z
2 1/2-x,1/2+y,1/2-z
3 -x,-y,-z
4 1/2+x,1/2-y,1/2+z
_cell_length_a                   13.698(4)
_cell_length_b                   14.410(4)
_cell_length_c                   14.947(4)
_cell_angle_alpha                90
_cell_angle_beta                 103.006(4)
_cell_angle_gamma                90
_cell_volume                     2874.67
_exptl_crystal_colour            colorless
_exptl_crystal_description       Block
_cell_formula_units_Z            4
loop_
_atom_site_label
_atom_site_type_symbol
_atom_site_fract_x
_atom_site_fract_y
_atom_site_fract_z
O1 O 0.28402(8) 0.17811(7) 0.51853(7)
O2 O 0.26142(11) 0.18015(9) 0.35613(8)
O3 O 0.42383(10) 0.20955(8) 0.44795(9)
N1 N 0.43956(10) 0.14870(9) 0.69997(10)
N2 N 0.55999(11) 0.14882(10) 0.63015(11)
B1 B 0.38447(15) 0.22059(13) 0.53179(14)
B2 B 0.22320(17) 0.17115(12) 0.43451(13)
B3 B 0.3642(2) 0.19213(14) 0.36604(15)
C1 C 0.46119(13) 0.16888(11) 0.61844(12)
C2 C 0.52375(14) 0.11595(12) 0.76226(13)
C3 C 0.59871(15) 0.11559(12) 0.71855(15)
C4 C 0.34045(13) 0.15674(12) 0.72046(12)
H1 H 0.3016 0.2053 0.6809
H2 H 0.3479 0.1761 0.7852
C5 C 0.28372(15) 0.06573(13) 0.70481(14)
H3 H 0.2715 0.0490 0.6397
H4 H 0.2196 0.0724 0.7228
H5 H 0.3234 0.0170 0.7418
C6 C 0.62012(15) 0.15909(13) 0.56070(16)
H6 H 0.6892 0.1774 0.5914
H7 H 0.5913 0.2093 0.5176
C7 C 0.62382(18) 0.07069(15) 0.50727(18)
H8 H 0.6499 0.0202 0.5499
H9 H 0.6677 0.0796 0.4645
H10 H 0.5562 0.0549 0.4728
C8 C 0.52293(16) 0.09323(14) 0.85944(14)
H11 H 0.5893 0.0709 0.8911
H12 H 0.4729 0.0449 0.8607
H13 H 0.5061 0.1490 0.8903
C9 C 0.70592(15) 0.08873(15) 0.75208(18)
H14 H 0.7170 0.0672 0.8158
H15 H 0.7488 0.1426 0.7490
H16 H 0.7225 0.0388 0.7135
C10 C 0.37878(13) 0.32962(11) 0.55845(11)
C11 C 0.46487(13) 0.38393(11) 0.58654(11)
H17 H 0.5282 0.3557 0.5893
C12 C 0.46267(14) 0.47710(12) 0.61064(11)
C13 C 0.37058(16) 0.51745(13) 0.60624(14)
H18 H 0.3667 0.5809 0.6222
C14 C 0.28404(16) 0.46620(14) 0.57884(16)
H19 H 0.2209 0.4948 0.5759
C15 C 0.28816(14) 0.37385(12) 0.55565(14)
H20 H 0.2276 0.3398 0.5373
C16 C 0.55851(16) 0.53028(14) 0.64392(13)
H21 H 0.5451 0.5969 0.6359
H22 H 0.6074 0.5117 0.6085
H23 H 0.5855 0.5168 0.7091
C17 C 0.10885(13) 0.15268(10) 0.42258(11)
C18 C 0.06815(13) 0.13825(10) 0.49926(12)
H24 H 0.1114 0.1409 0.5586
C19 C -0.03288(13) 0.12015(11) 0.49223(13)
C20 C -0.09484(15) 0.11770(12) 0.40475(14)
H25 H -0.1644 0.1062 0.3981
C21 C -0.05765(16) 0.13164(13) 0.32730(15)
H26 H -0.1013 0.1294 0.2681
C22 C 0.04348(15) 0.14882(11) 0.33615(12)
H27 H 0.0688 0.1581 0.2827
C23 C -0.07224(14) 0.10102(13) 0.57626(13)
H28 H -0.1446 0.0899 0.5583
H29 H -0.0590 0.1546 0.6176
H30 H -0.0388 0.0461 0.6077
C24 C 0.4251(3) 0.1846(5) 0.2879(3)
C25 C 0.3683(4) 0.1703(4) 0.1984(4)
H31 H 0.2979 0.1634 0.1904
C26 C 0.4084(5) 0.1655(5) 0.1194(5)
C27 C 0.5091(7) 0.1705(8) 0.1341(6)
H32 H 0.5396 0.1650 0.0831
C28 C 0.5698(5) 0.1836(9) 0.2210(5)
H33 H 0.6405 0.1862 0.2288
C29 C 0.5266(5) 0.1929(7) 0.2972(4)
H34 H 0.5682 0.2050 0.3560
C30 C 0.3422(4) 0.1535(3) 0.0265(3)
H35 H 0.3302 0.2141 -0.0039
H36 H 0.2783 0.1265 0.0322
H37 H 0.3747 0.1122 -0.0101
H38? H -0.0170 0.1038 0.6308
H39? H -0.1026 0.0391 0.5715
H40? H -0.1228 0.1476 0.5814
C31? C 0.3851(3) 0.1806(6) 0.2684(2)
C32? C 0.4870(5) 0.1908(7) 0.2708(4)
H41? H 0.5305 0.2064 0.3278
C33? C 0.5295(6) 0.1794(9) 0.1937(6)
C34? C 0.4650(8) 0.1556(8) 0.1149(6)
H42? H 0.4906 0.1440 0.0619
C35? C 0.3626(6) 0.1471(5) 0.1082(5)
H43? H 0.3193 0.1334 0.0505
C36? C 0.3228(4) 0.1589(5) 0.1862(5)
H44? H 0.2529 0.1517 0.1818
C37? C 0.6386(4) 0.1931(4) 0.2036(4)
H45? H 0.6694 0.2101 0.2671
H46? H 0.6499 0.2428 0.1623
H47? H 0.6688 0.1354 0.1878
H48? H 0.6560 0.1821 0.1443
H49? H 0.6754 0.1494 0.2492
H50? H 0.6566 0.2568 0.2237
loop_
_geom_bond_atom_site_label_1
_geom_bond_atom_site_label_2
_geom_bond_site_symmetry_1
_geom_bond_site_symmetry_2
O1 B1 1_555 1_555
O2 B2 1_555 1_555
O3 B1 1_555 1_555
N1 C1 1_555 1_555
N2 C1 1_555 1_555
B1 C1 1_555 1_555
B2 O1 1_555 1_555
B3 O2 1_555 1_555
C2 N1 1_555 1_555
C3 N2 1_555 1_555
C4 N1 1_555 1_555
H1 C4 1_555 1_555
H2 C4 1_555 1_555
C5 C4 1_555 1_555
H3 C5 1_555 1_555
H4 C5 1_555 1_555
H5 C5 1_555 1_555
C6 N2 1_555 1_555
H6 C6 1_555 1_555
H7 C6 1_555 1_555
C7 C6 1_555 1_555
H8 C7 1_555 1_555
H9 C7 1_555 1_555
H10 C7 1_555 1_555
C8 C2 1_555 1_555
H11 C8 1_555 1_555
H12 C8 1_555 1_555
H13 C8 1_555 1_555
C9 C3 1_555 1_555
H14 C9 1_555 1_555
H15 C9 1_555 1_555
H16 C9 1_555 1_555
C10 B1 1_555 1_555
C11 C10 1_555 1_555
H17 C11 1_555 1_555
C12 C11 1_555 1_555
C13 C12 1_555 1_555
H18 C13 1_555 1_555
C14 C13 1_555 1_555
H19 C14 1_555 1_555
C15 C10 1_555 1_555
H20 C15 1_555 1_555
C16 C12 1_555 1_555
H21 C16 1_555 1_555
H22 C16 1_555 1_555
H23 C16 1_555 1_555
C17 B2 1_555 1_555
C18 C17 1_555 1_555
H24 C18 1_555 1_555
C19 C18 1_555 1_555
C20 C19 1_555 1_555
H25 C20 1_555 1_555
C21 C20 1_555 1_555
H26 C21 1_555 1_555
C22 C17 1_555 1_555
H27 C22 1_555 1_555
C23 C19 1_555 1_555
H28 C23 1_555 1_555
H29 C23 1_555 1_555
H30 C23 1_555 1_555
C24 B3 1_555 1_555
C25 C24 1_555 1_555
H31 C25 1_555 1_555
C26 C25 1_555 1_555
C27 C26 1_555 1_555
H32 C27 1_555 1_555
C28 C27 1_555 1_555
H33 C28 1_555 1_555
C29 C24 1_555 1_555
H34 C29 1_555 1_555
C30 C26 1_555 1_555
H35 C30 1_555 1_555
H36 C30 1_555 1_555
H37 C30 1_555 1_555
O3 B3 1_555 1_555
C2 C3 1_555 1_555
C14 C15 1_555 1_555
C21 C22 1_555 1_555
C28 C29 1_555 1_555

#END
