
#######################################################################
#
#                 Cambridge Crystallographic Data Centre
#                                CCDC 
#
#######################################################################
#
# If this CIF has been generated from an entry in the Cambridge 
# Structural Database, then it will include bibliographic, chemical, 
# crystal, experimental, refinement or atomic coordinate data resulting 
# from the CCDC's data processing and validation procedures.
#
#######################################################################

data_FIMYUW
_chemical_formula_moiety         'C17 H22 O6'
_chemical_name_systematic        
'dimethyl 3-[1-(acetyloxy)ethyl]-2,3,3a,6,7,7a-hexahydro-1H-indene-1,1-dicarboxylate'
_symmetry_cell_setting           triclinic
_symmetry_space_group_name_H-M   'P -1'
_symmetry_Int_Tables_number      2
_space_group_name_Hall           '-P 1'
loop_
_symmetry_equiv_pos_site_id
_symmetry_equiv_pos_as_xyz
1 x,y,z
2 -x,-y,-z
_cell_length_a                   8.7951(11)
_cell_length_b                   9.1204(12)
_cell_length_c                   11.2495(14)
_cell_angle_alpha                80.729(2)
_cell_angle_beta                 78.798(2)
_cell_angle_gamma                70.320(2)
_cell_volume                     828.996
_exptl_crystal_colour            colorless
_cell_formula_units_Z            2
loop_
_atom_site_label
_atom_site_type_symbol
_atom_site_fract_x
_atom_site_fract_y
_atom_site_fract_z
O1 O 0.65478(15) 0.60570(18) 0.77373(13)
O2 O 0.53507(15) 0.53865(15) 0.64355(11)
O3 O 0.34150(17) 0.42565(13) 0.88837(12)
O4 O 0.13698(15) 0.58906(14) 0.79660(12)
O5 O 0.31325(15) 1.06886(13) 0.54241(9)
O6 O 0.0662(2) 1.2201(3) 0.60073(19)
C1 C 0.36258(19) 0.75110(17) 0.91868(13)
C2 C 0.35900(17) 0.67897(16) 0.80380(13)
C3 C 0.27141(19) 0.82271(17) 0.72118(14)
C4 C 0.33949(18) 0.94628(17) 0.74087(13)
C5 C 0.39193(19) 0.90941(17) 0.86745(13)
C6 C 0.3112(2) 1.0361(2) 0.95105(15)
C7 C 0.2296(2) 1.0156(2) 1.06047(16)
C8 C 0.1992(3) 0.8652(3) 1.11109(17)
C9 C 0.2050(2) 0.7715(2) 1.00968(16)
C10 C 0.53357(19) 0.60470(18) 0.74162(14)
C11 C 0.6940(3) 0.4592(3) 0.5798(2)
C12 C 0.28005(19) 0.54932(17) 0.83478(14)
C13 C 0.0494(3) 0.4752(3) 0.8264(3)
C14 C 0.3606(2) 1.06037(17) 0.65796(13)
C15 C 0.4419(3) 1.1776(2) 0.66246(19)
C16 C 0.1630(2) 1.1513(2) 0.52395(17)
C17 C 0.1344(4) 1.1448(4) 0.3990(2)
H1 H 0.454(2) 0.6839(19) 0.9562(14)
H2 H 0.290(2) 0.8019(18) 0.6361(15)
H3 H 0.1538(18) 0.8506(19) 0.7530(14)
H4 H 0.511(2) 0.8934(19) 0.8565(15)
H5 H 0.326(2) 1.132(2) 0.9203(17)
H6 H 0.189(2) 1.102(2) 1.1067(17)
H7 H 0.286(3) 0.803(3) 1.162(2)
H8 H 0.097(3) 0.883(3) 1.160(2)
H9 H 0.195(3) 0.666(3) 1.0416(18)
H10 H 0.112(2) 0.822(2) 0.9650(16)
H11 H 0.753(3) 0.535(3) 0.551(2)
H12 H 0.674(3) 0.424(3) 0.511(2)
H13 H 0.756(3) 0.387(3) 0.632(2)
H14 H 0.085(5) 0.406(4) 0.762(3)
H15 H 0.080(4) 0.407(3) 0.902(2)
H16 H -0.061(2) 0.533(3) 0.838(2)
H17 H 0.523(2) 1.180(2) 0.5894(16)
H18 H 0.367(3) 1.285(3) 0.669(2)
H19 H 0.499(3) 1.151(3) 0.733(2)
H20 H 0.134(5) 1.045(3) 0.386(3)
H21 H 0.216(3) 1.165(4) 0.337(3)
H22 H 0.029(3) 1.212(3) 0.394(3)
loop_
_geom_bond_atom_site_label_1
_geom_bond_atom_site_label_2
_geom_bond_site_symmetry_1
_geom_bond_site_symmetry_2
O1 C10 1_555 1_555
O2 C10 1_555 1_555
O3 C12 1_555 1_555
O4 C12 1_555 1_555
O5 C14 1_555 1_555
O6 C16 1_555 1_555
C1 C2 1_555 1_555
C2 C3 1_555 1_555
C3 C4 1_555 1_555
C4 C5 1_555 1_555
C5 C1 1_555 1_555
C6 C5 1_555 1_555
C7 C6 1_555 1_555
C8 C7 1_555 1_555
C9 C1 1_555 1_555
C10 C2 1_555 1_555
C11 O2 1_555 1_555
C12 C2 1_555 1_555
C13 O4 1_555 1_555
C14 C4 1_555 1_555
C15 C14 1_555 1_555
C16 O5 1_555 1_555
C17 C16 1_555 1_555
H1 C1 1_555 1_555
H2 C3 1_555 1_555
H3 C3 1_555 1_555
H4 C5 1_555 1_555
H5 C6 1_555 1_555
H6 C7 1_555 1_555
H7 C8 1_555 1_555
H8 C8 1_555 1_555
H9 C9 1_555 1_555
H10 C9 1_555 1_555
H11 C11 1_555 1_555
H12 C11 1_555 1_555
H13 C11 1_555 1_555
H14 C13 1_555 1_555
H15 C13 1_555 1_555
H16 C13 1_555 1_555
H17 C15 1_555 1_555
H18 C15 1_555 1_555
H19 C15 1_555 1_555
H20 C17 1_555 1_555
H21 C17 1_555 1_555
H22 C17 1_555 1_555
C8 C9 1_555 1_555

#END
