
#######################################################################
#
#                 Cambridge Crystallographic Data Centre
#                                CCDC 
#
#######################################################################
#
# If this CIF has been generated from an entry in the Cambridge 
# Structural Database, then it will include bibliographic, chemical, 
# crystal, experimental, refinement or atomic coordinate data resulting 
# from the CCDC's data processing and validation procedures.
#
#######################################################################

data_FIMYIM
_chemical_formula_moiety         'C44 H41 N3 S1'
_chemical_name_systematic        
5'-butyl-2'-[7-(4-butylphenyl)-2,1,3-benzothiadiazol-4-yl]-N,N-diphenyl[1,1'-biphenyl]-4-amine
_symmetry_cell_setting           triclinic
_symmetry_space_group_name_H-M   'P -1'
_symmetry_Int_Tables_number      2
_space_group_name_Hall           '-P 1'
loop_
_symmetry_equiv_pos_site_id
_symmetry_equiv_pos_as_xyz
1 x,y,z
2 -x,-y,-z
_cell_length_a                   9.2247(3)
_cell_length_b                   11.3106(5)
_cell_length_c                   18.2809(9)
_cell_angle_alpha                72.934(4)
_cell_angle_beta                 89.017(4)
_cell_angle_gamma                79.183(3)
_cell_volume                     1789.53
_exptl_crystal_colour            yellow
_exptl_crystal_description       block
_cell_formula_units_Z            2
loop_
_atom_site_label
_atom_site_type_symbol
_atom_site_fract_x
_atom_site_fract_y
_atom_site_fract_z
S1 S 0.35904(10) 1.05812(8) 0.59540(6)
N1 N 0.5193(3) 0.9806(3) 0.62886(16)
N2 N 0.3082(3) 0.9656(3) 0.55393(16)
N3 N 0.5398(3) 0.3024(3) 0.87756(18)
C1 C 0.4181(3) 0.8657(3) 0.56474(18)
C2 C 0.6708(3) 0.7798(3) 0.62552(18)
C3 C 0.5413(3) 0.8752(3) 0.60758(17)
C4 C 0.4217(4) 0.7596(3) 0.53678(18)
C5 C 0.7712(3) 0.5954(3) 0.77669(18)
C6 C 0.7991(4) 0.7906(3) 0.67002(19)
C7 C 0.8520(3) 0.6987(3) 0.73927(19)
C8 C 0.6702(4) 0.6807(3) 0.5968(2)
H1 H 0.753504 0.616903 0.605840
C9 C 0.2972(4) 0.7462(3) 0.49129(19)
C10 C 0.5495(4) 0.6711(3) 0.5542(2)
H2 H 0.556944 0.600651 0.536963
C11 C 0.6168(4) 0.4010(3) 0.8458(2)
C12 C 0.6203(4) 0.6209(3) 0.78812(19)
H3 H 0.569706 0.703942 0.772941
C13 C 0.1515(4) 0.7816(3) 0.5070(2)
H4 H 0.128984 0.817782 0.546339
C14 C 0.8724(4) 0.8904(3) 0.6411(2)
H5 H 0.835430 0.953514 0.596648
C15 C 0.4072(4) 0.3225(3) 0.9165(2)
C16 C 0.8432(4) 0.4706(3) 0.8031(2)
H6 H 0.944468 0.450643 0.797739
C17 C 0.5841(4) 0.1860(3) 0.8604(2)
C18 C 0.5443(4) 0.5262(3) 0.8213(2)
H7 H 0.443208 0.546152 0.827403
C19 C 1.0586(4) 0.8047(3) 0.7429(2)
C20 C 0.7674(4) 0.3751(3) 0.8374(2)
H8 H 0.818648 0.292415 0.855007
C21 C 0.9989(4) 0.8971(3) 0.6774(2)
H9 H 1.045028 0.965358 0.657249
C22 C 0.0395(4) 0.7641(4) 0.4654(2)
H10 H -0.057699 0.788033 0.477679
C23 C 0.3250(4) 0.6935(3) 0.4311(2)
H11 H 0.422179 0.670065 0.418628
C24 C 0.2124(4) 0.6754(4) 0.3897(2)
H12 H 0.234830 0.638254 0.350781
C25 C 0.9823(4) 0.7064(3) 0.7738(2)
H13 H 1.019622 0.644420 0.818657
C26 C 0.0664(4) 0.7116(3) 0.4052(2)
C27 C 0.6102(5) 0.1835(4) 0.7867(2)
H14 H 0.598327 0.258705 0.747216
C28 C -0.0594(5) 0.6888(4) 0.3610(2)
H15 H -0.129113 0.767541 0.341430
H16 H -0.019376 0.663106 0.317453
C29 C 0.3992(5) 0.3843(4) 0.9717(2)
H17 H 0.481751 0.412004 0.983879
C30 C 0.2842(4) 0.2797(4) 0.9007(2)
H18 H 0.287320 0.237297 0.864035
C31 C 0.6005(5) 0.0738(4) 0.9186(2)
H19 H 0.585672 0.073619 0.969093
C32 C 0.1490(5) 0.3638(4) 0.9933(3)
H20 H 0.062151 0.378320 1.018630
C33 C 0.2700(5) 0.4054(4) 1.0090(3)
H21 H 0.265908 0.448739 1.045277
C34 C 0.6534(5) 0.0716(5) 0.7707(3)
H22 H 0.673492 0.071363 0.720705
C35 C 0.1562(5) 0.2998(5) 0.9394(3)
H23 H 0.074122 0.269802 0.928995
C36 C 1.2022(4) 0.8092(4) 0.7784(3)
H24 H 1.276852 0.813342 0.740197
H25 H 1.233053 0.731723 0.819528
C37 C 0.6672(5) -0.0390(4) 0.8275(3)
H26 H 0.695539 -0.115008 0.816320
C38 C 0.6395(6) -0.0386(4) 0.9007(3)
H27 H 0.646788 -0.114606 0.939219
C39 C -0.1392(7) 0.5925(6) 0.4069(4)
H28 H -0.170441 0.614705 0.452874
H29 H -0.070282 0.512616 0.422866
C40 C -0.2780(6) 0.5725(6) 0.3670(3)
H30 H -0.336217 0.524913 0.405203
H31 H -0.339209 0.653622 0.341475
C41 C -0.2345(8) 0.5084(7) 0.3142(4)
H32 H -0.185369 0.559426 0.273685
H33 H -0.319712 0.490392 0.293278
H34 H -0.168165 0.430989 0.338805
C42 C 1.1948(11) 0.9216(10) 0.8107(7)
H35 H 1.124859 0.994492 0.780927
H36 H 1.290945 0.944220 0.811545
C43 C 1.1003(18) 0.897(2) 0.8808(10)
C44 C 1.067(3) 1.004(2) 0.9146(15)
H37? H 1.027039 1.004064 0.963514
C45? C 1.2089(16) 0.795(2) 0.8591(13)
C46? C 1.115(3) 0.989(3) 0.8528(15)
C47? C 1.129(4) 0.857(3) 0.9138(16)
H38? H 1.109342 0.881688 0.935649
H39? H 1.208208 0.811257 0.951241
H40? H 1.188435 0.713508 0.887191
H41? H 1.308076 0.798663 0.874134
H42? H 1.022927 1.039765 0.829294
H43? H 1.277136 0.743452 0.768843
H44? H 1.229415 0.889130 0.751622
H45? H 1.186840 0.987429 0.814255
H46? H 1.051334 0.808067 0.916728
H47? H 1.000899 0.889318 0.868734
H48? H 0.991208 1.044487 0.875117
H49? H 1.146945 1.049511 0.905747
H50? H 1.149282 1.024635 0.889494
H51? H 0.225513 0.977739 0.529258
H52? H 0.579821 1.002441 0.655423
loop_
_geom_bond_atom_site_label_1
_geom_bond_atom_site_label_2
_geom_bond_site_symmetry_1
_geom_bond_site_symmetry_2
S1 N1 1_555 1_555
N1 C3 1_555 1_555
N2 S1 1_555 1_555
N3 C11 1_555 1_555
C1 N2 1_555 1_555
C2 C3 1_555 1_555
C3 C1 1_555 1_555
C4 C1 1_555 1_555
C5 C7 1_555 1_555
C6 C2 1_555 1_555
C7 C6 1_555 1_555
C8 C2 1_555 1_555
H1 C8 1_555 1_555
C9 C4 1_555 1_555
C10 C4 1_555 1_555
H2 C10 1_555 1_555
C11 C18 1_555 1_555
C12 C5 1_555 1_555
H3 C12 1_555 1_555
C13 C9 1_555 1_555
H4 C13 1_555 1_555
C14 C6 1_555 1_555
H5 C14 1_555 1_555
C15 N3 1_555 1_555
C16 C5 1_555 1_555
H6 C16 1_555 1_555
C17 N3 1_555 1_555
C18 C12 1_555 1_555
H7 C18 1_555 1_555
C19 C21 1_555 1_555
C20 C11 1_555 1_555
H8 C20 1_555 1_555
C21 C14 1_555 1_555
H9 C21 1_555 1_555
C22 C13 1_555 1_555
H10 C22 1_555 1_555
C23 C9 1_555 1_555
H11 C23 1_555 1_555
C24 C23 1_555 1_555
H12 C24 1_555 1_555
C25 C7 1_555 1_555
H13 C25 1_555 1_555
C26 C22 1_555 1_555
C27 C17 1_555 1_555
H14 C27 1_555 1_555
C28 C26 1_555 1_555
H15 C28 1_555 1_555
H16 C28 1_555 1_555
C29 C15 1_555 1_555
H17 C29 1_555 1_555
C30 C15 1_555 1_555
H18 C30 1_555 1_555
C31 C17 1_555 1_555
H19 C31 1_555 1_555
C32 H20 1_555 1_555
C33 C29 1_555 1_555
H21 C33 1_555 1_555
C34 C27 1_555 1_555
H22 C34 1_555 1_555
C35 C30 1_555 1_555
H23 C35 1_555 1_555
C36 C19 1_555 1_555
H24 C36 1_555 1_555
H25 C36 1_555 1_555
C37 C34 1_555 1_555
H26 C37 1_555 1_555
C38 C31 1_555 1_555
H27 C38 1_555 1_555
C39 C28 1_555 1_555
H28 C39 1_555 1_555
H29 C39 1_555 1_555
C40 C39 1_555 1_555
H30 C40 1_555 1_555
H31 C40 1_555 1_555
C41 C40 1_555 1_555
H32 C41 1_555 1_555
H33 C41 1_555 1_555
H34 C41 1_555 1_555
C42 C36 1_555 1_555
H35 C42 1_555 1_555
H36 C42 1_555 1_555
C43 C42 1_555 1_555
C44 C43 1_555 1_555
C8 C10 1_555 1_555
C16 C20 1_555 1_555
C19 C25 1_555 1_555
C24 C26 1_555 1_555
C32 C33 1_555 1_555
C32 C35 1_555 1_555
C37 C38 1_555 1_555

#END
