
#######################################################################
#
#                 Cambridge Crystallographic Data Centre
#                                CCDC 
#
#######################################################################
#
# If this CIF has been generated from an entry in the Cambridge 
# Structural Database, then it will include bibliographic, chemical, 
# crystal, experimental, refinement or atomic coordinate data resulting 
# from the CCDC's data processing and validation procedures.
#
#######################################################################

data_FIMYOQ
_chemical_formula_moiety         'C17 H21 Cl2 N1 O1'
_chemical_name_systematic        
1,1-dichloro-4-[cyclohexyl(methyl)amino]-4-phenylbut-3-en-2-one
_symmetry_cell_setting           orthorhombic
_symmetry_space_group_name_H-M   'P n a 21'
_symmetry_Int_Tables_number      33
_space_group_name_Hall           'P 2c -2n'
loop_
_symmetry_equiv_pos_site_id
_symmetry_equiv_pos_as_xyz
1 x,y,z
2 -x,-y,1/2+z
3 1/2+x,1/2-y,z
4 1/2-x,1/2+y,1/2+z
_cell_length_a                   15.9446(12)
_cell_length_b                   16.6740(13)
_cell_length_c                   6.3663(5)
_cell_angle_alpha                90
_cell_angle_beta                 90
_cell_angle_gamma                90
_cell_volume                     1692.55
_cell_formula_units_Z            4
loop_
_atom_site_label
_atom_site_type_symbol
_atom_site_fract_x
_atom_site_fract_y
_atom_site_fract_z
Cl1 Cl 0.86330(4) 0.48369(4) 0.74731(12)
Cl2 Cl 0.88420(4) 0.56055(4) 0.34362(12)
N1 N 1.06128(10) 0.23944(10) 0.3046(3)
O1 O 0.83622(10) 0.38200(10) 0.3429(4)
C1 C 0.99045(12) 0.28246(11) 0.2887(3)
C2 C 0.98098(12) 0.35541(12) 0.3889(4)
C3 C 0.90609(13) 0.40051(13) 0.4006(4)
C4 C 0.91890(14) 0.48201(13) 0.5083(4)
C5 C 0.92296(12) 0.24961(11) 0.1505(4)
C6 C 0.91313(14) 0.27960(13) -0.0486(4)
H1 H 0.9464 0.3223 -0.0920
C7 C 0.85530(14) 0.24807(14) -0.1850(4)
H2 H 0.8494 0.2691 -0.3195
C8 C 0.80606(13) 0.18486(14) -0.1203(4)
H3 H 0.7673 0.1623 -0.2122
C9 C 0.81405(14) 0.15521(13) 0.0788(4)
H4 H 0.7799 0.1132 0.1227
C10 C 0.87236(12) 0.18720(12) 0.2152(4)
H5 H 0.8776 0.1667 0.3504
C11 C 1.07636(13) 0.16459(12) 0.1880(3)
C12 C 1.14918(17) 0.1719(2) 0.0375(5)
C13 C 1.1566(2) 0.0962(2) -0.0900(5)
C14 C 1.1667(2) 0.0233(2) 0.0504(7)
C15 C 1.0946(2) 0.01736(16) 0.2018(7)
C16 C 1.0866(2) 0.09359(15) 0.3312(5)
C17 C 1.1296(2) 0.2684(2) 0.4350(7)
H6 H 1.0261(10) 0.3789(11) 0.458(3)
H7 H 0.9782(10) 0.4935(14) 0.542(4)
H8 H 1.0269(12) 0.1558(11) 0.098(3)
H9 H 1.1375(15) 0.2167(19) -0.045(5)
H10 H 1.2000(13) 0.1802(15) 0.120(4)
H11 H 1.2031(15) 0.1034(17) -0.188(4)
H12 H 1.1079(14) 0.0866(19) -0.179(4)
H13 H 1.220(2) 0.0285(19) 0.119(5)
H14 H 1.1648(19) -0.029(2) -0.026(6)
H15 H 1.105(2) -0.0242(18) 0.295(5)
H16 H 1.0409(13) 0.0102(18) 0.125(4)
H17 H 1.0336(18) 0.0898(17) 0.414(5)
H18 H 1.1340(17) 0.1055(18) 0.407(5)
H19 H 1.1468(15) 0.3213(18) 0.393(4)
H20 H 1.1764(18) 0.2301(17) 0.440(5)
H21 H 1.1121(19) 0.281(2) 0.577(6)
loop_
_geom_bond_atom_site_label_1
_geom_bond_atom_site_label_2
_geom_bond_site_symmetry_1
_geom_bond_site_symmetry_2
Cl1 C4 1_555 1_555
Cl2 C4 1_555 1_555
N1 C1 1_555 1_555
O1 C3 1_555 1_555
C1 C2 1_555 1_555
C2 C3 1_555 1_555
C3 C4 1_555 1_555
C4 H7 1_555 1_555
C5 C1 1_555 1_555
C6 C5 1_555 1_555
H1 C6 1_555 1_555
C7 C6 1_555 1_555
H2 C7 1_555 1_555
C8 C7 1_555 1_555
H3 C8 1_555 1_555
C9 C8 1_555 1_555
H4 C9 1_555 1_555
C10 C5 1_555 1_555
H5 C10 1_555 1_555
C11 N1 1_555 1_555
C12 C11 1_555 1_555
C13 C12 1_555 1_555
C14 C13 1_555 1_555
C15 C14 1_555 1_555
C16 C11 1_555 1_555
C17 N1 1_555 1_555
H6 C2 1_555 1_555
H8 C11 1_555 1_555
H9 C12 1_555 1_555
H10 C12 1_555 1_555
H11 C13 1_555 1_555
H12 C13 1_555 1_555
H13 C14 1_555 1_555
H14 C14 1_555 1_555
H15 C15 1_555 1_555
H16 C15 1_555 1_555
H17 C16 1_555 1_555
H18 C16 1_555 1_555
H19 C17 1_555 1_555
H20 C17 1_555 1_555
H21 C17 1_555 1_555
C9 C10 1_555 1_555
C15 C16 1_555 1_555

#END
