
#######################################################################
#
#                 Cambridge Crystallographic Data Centre
#                                CCDC 
#
#######################################################################
#
# If this CIF has been generated from an entry in the Cambridge 
# Structural Database, then it will include bibliographic, chemical, 
# crystal, experimental, refinement or atomic coordinate data resulting 
# from the CCDC's data processing and validation procedures.
#
#######################################################################

data_FIMZAF
_chemical_formula_moiety         'C44 H39 N3 O1 S1'
_chemical_name_systematic        
10-{5'-butyl-2'-[7-(4-butylphenyl)-2,1,3-benzothiadiazol-4-yl][1,1'-biphenyl]-4-yl}-10H-phenoxazine
_symmetry_cell_setting           triclinic
_symmetry_space_group_name_H-M   'P -1'
_symmetry_Int_Tables_number      2
_space_group_name_Hall           '-P 1'
loop_
_symmetry_equiv_pos_site_id
_symmetry_equiv_pos_as_xyz
1 x,y,z
2 -x,-y,-z
_cell_length_a                   10.1468(6)
_cell_length_b                   12.5298(5)
_cell_length_c                   15.0883(8)
_cell_angle_alpha                99.960(4)
_cell_angle_beta                 94.002(5)
_cell_angle_gamma                107.912(4)
_cell_volume                     1782.25
_exptl_crystal_colour            'light yellow'
_exptl_crystal_description       plate
_cell_formula_units_Z            2
loop_
_atom_site_label
_atom_site_type_symbol
_atom_site_fract_x
_atom_site_fract_y
_atom_site_fract_z
S1 S 0.87314(6) 0.71405(4) 0.00931(4)
O1 O 0.30707(16) 0.42786(13) 0.27392(11)
N1 N 0.37898(18) 0.57241(15) 0.14835(12)
N2 N 0.78981(18) 0.77606(14) -0.04843(12)
N3 N 0.93992(18) 0.81377(14) 0.09917(12)
C1 C 0.9402(2) 1.01438(17) 0.14791(14)
C2 C 0.2057(2) 0.45892(17) 0.22762(14)
C3 C 0.4147(2) 0.64469(17) 0.08324(14)
C4 C 0.4976(2) 0.83286(17) 0.04805(14)
H1 H 0.5308 0.9138 0.0677
C5 C 0.4224(2) 0.84126(17) -0.18841(14)
H2 H 0.3343 0.7833 -0.1941
C6 C 0.6538(2) 0.94249(16) -0.10560(14)
C7 C 0.8125(2) 0.88145(16) 0.00130(14)
C8 C 0.6264(2) 0.61470(17) 0.20654(14)
H3 H 0.6549 0.6648 0.1658
C9 C 0.4312(2) 0.66448(17) -0.07216(14)
H4 H 0.4181 0.6303 -0.1348
C10 C 0.4629(2) 0.76378(18) 0.11161(14)
H5 H 0.4722 0.7976 0.1741
C11 C 0.8948(2) 1.09585(17) 0.11698(14)
H6 H 0.9238 1.1710 0.1533
C12 C 0.8997(2) 0.90393(17) 0.08694(14)
C13 C 1.1763(2) 1.09793(18) 0.41489(15)
C14 C 0.4845(2) 0.55947(17) 0.20717(14)
C15 C 1.0249(2) 1.03966(17) 0.23836(14)
C16 C 0.7598(2) 0.96763(17) -0.02420(14)
C17 C 0.5217(2) 0.85668(17) -0.11398(14)
C18 C 1.2019(2) 1.17504(18) 0.35591(15)
H7 H 1.2711 1.2482 0.3756
C19 C 0.5803(2) 0.98984(17) -0.24634(14)
H8 H 0.6021 1.0339 -0.2919
C20 C 0.4458(2) 0.48720(17) 0.26950(14)
C21 C 1.1285(2) 1.14697(17) 0.26950(14)
H9 H 1.1485 1.2008 0.2309
C22 C 0.6869(2) 0.52425(19) 0.32559(16)
H10 H 0.7553 0.5118 0.3652
C23 C 0.2390(2) 0.53004(16) 0.16427(14)
C24 C 0.4840(2) 0.78462(16) -0.04442(14)
C25 C 0.3981(2) 0.59523(17) -0.00859(14)
H11 H 0.3641 0.5142 -0.0279
C26 C 0.4481(2) 0.90794(17) -0.25462(14)
C27 C 0.7277(2) 0.59725(18) 0.26527(16)
H12 H 0.8241 0.6352 0.2639
C28 C 1.4117(2) 1.15503(19) 0.51571(15)
H13 H 1.4294 1.0823 0.4930
H14 H 1.4507 1.2088 0.4760
C29 C 0.3342(2) 0.89850(18) -0.32922(15)
H15 H 0.3793 0.9356 -0.3772
H16 H 0.2754 0.9431 -0.3036
C30 C 0.1310(2) 0.55642(18) 0.11986(15)
H17 H 0.1511 0.6059 0.0779
C31 C 1.0009(2) 0.96110(18) 0.29618(15)
H18 H 0.9332 0.8873 0.2761
C32 C 0.8068(2) 1.07356(17) 0.03357(14)
H19 H 0.7793 1.1342 0.0171
C33 C -0.0066(2) 0.51017(19) 0.13699(16)
H20 H -0.0797 0.5269 0.1055
C34 C 0.1229(2) 0.7824(2) -0.44293(16)
H21 H 0.1669 0.8276 -0.4871
H22 H 0.0652 0.8231 -0.4106
C35 C 0.6809(2) 1.00806(17) -0.17258(14)
H23 H 0.7690 1.0658 -0.1677
C36 C 0.5453(2) 0.46957(19) 0.32752(16)
H24 H 0.5170 0.4201 0.3688
C37 C 0.2379(2) 0.77765(19) -0.37417(15)
H25 H 0.2935 0.7337 -0.4052
H26 H 0.1950 0.7375 -0.3270
C38 C 1.2538(2) 1.1321(2) 0.51042(15)
H27 H 1.2138 1.0704 0.5435
H28 H 1.2374 1.2021 0.5420
C39 C 0.0700(2) 0.41471(17) 0.24535(15)
H29 H 0.0497 0.3671 0.2886
C40 C 1.4857(2) 1.20531(19) 0.61208(15)
H30 H 1.4480 1.1501 0.6511
H31 H 1.4643 1.2762 0.6353
C41 C -0.0371(2) 0.43998(19) 0.19971(17)
H32 H -0.1306 0.4093 0.2114
C42 C 1.0755(2) 0.99016(19) 0.38269(15)
H33 H 1.0575 0.9357 0.4207
C43 C 1.6436(3) 1.2333(2) 0.62031(17)
H34 H 1.6829 1.2922 0.5855
H35 H 1.6660 1.1640 0.5964
H36 H 1.6836 1.2618 0.6843
C44 C 0.0273(3) 0.6650(3) -0.49501(19)
H37 H -0.0417 0.6750 -0.5388
H38 H -0.0209 0.6209 -0.4523
H39 H 0.0833 0.6237 -0.5274
H40? H 0.7394 0.7465 -0.1020
H41? H 0.9923 0.8099 0.1467
loop_
_geom_bond_atom_site_label_1
_geom_bond_atom_site_label_2
_geom_bond_site_symmetry_1
_geom_bond_site_symmetry_2
S1 N2 1_555 1_555
O1 C2 1_555 1_555
N1 C3 1_555 1_555
N2 C7 1_555 1_555
N3 S1 1_555 1_555
C1 C11 1_555 1_555
C2 C23 1_555 1_555
C3 C10 1_555 1_555
C4 H1 1_555 1_555
C5 H2 1_555 1_555
C6 C16 1_555 1_555
C7 C12 1_555 1_555
C8 H3 1_555 1_555
C9 H4 1_555 1_555
C10 C4 1_555 1_555
H5 C10 1_555 1_555
C11 H6 1_555 1_555
C12 N3 1_555 1_555
C13 C18 1_555 1_555
C14 N1 1_555 1_555
C15 C1 1_555 1_555
C16 C7 1_555 1_555
C17 C5 1_555 1_555
C18 H7 1_555 1_555
C19 H8 1_555 1_555
C20 O1 1_555 1_555
C21 C15 1_555 1_555
H9 C21 1_555 1_555
C22 H10 1_555 1_555
C23 N1 1_555 1_555
C24 C4 1_555 1_555
C25 C3 1_555 1_555
H11 C25 1_555 1_555
C26 C5 1_555 1_555
C27 C8 1_555 1_555
H12 C27 1_555 1_555
C28 H13 1_555 1_555
H14 C28 1_555 1_555
C29 C26 1_555 1_555
H15 C29 1_555 1_555
H16 C29 1_555 1_555
C30 C23 1_555 1_555
H17 C30 1_555 1_555
C31 C15 1_555 1_555
H18 C31 1_555 1_555
C32 C11 1_555 1_555
H19 C32 1_555 1_555
C33 C30 1_555 1_555
H20 C33 1_555 1_555
C34 H21 1_555 1_555
H22 C34 1_555 1_555
C35 C6 1_555 1_555
H23 C35 1_555 1_555
C36 C20 1_555 1_555
H24 C36 1_555 1_555
C37 C29 1_555 1_555
H25 C37 1_555 1_555
H26 C37 1_555 1_555
C38 C13 1_555 1_555
H27 C38 1_555 1_555
H28 C38 1_555 1_555
C39 C2 1_555 1_555
H29 C39 1_555 1_555
C40 C28 1_555 1_555
H30 C40 1_555 1_555
H31 C40 1_555 1_555
C41 C33 1_555 1_555
H32 C41 1_555 1_555
C42 C13 1_555 1_555
H33 C42 1_555 1_555
C43 C40 1_555 1_555
H34 C43 1_555 1_555
H35 C43 1_555 1_555
H36 C43 1_555 1_555
C44 C34 1_555 1_555
H37 C44 1_555 1_555
H38 C44 1_555 1_555
H39 C44 1_555 1_555
C1 C12 1_555 1_555
C6 C17 1_555 1_555
C8 C14 1_555 1_555
C9 C24 1_555 1_555
C9 C25 1_555 1_555
C14 C20 1_555 1_555
C16 C32 1_555 1_555
C17 C24 1_555 1_555
C18 C21 1_555 1_555
C19 C26 1_555 1_555
C19 C35 1_555 1_555
C22 C27 1_555 1_555
C22 C36 1_555 1_555
C28 C38 1_555 1_555
C31 C42 1_555 1_555
C34 C37 1_555 1_555
C39 C41 1_555 1_555

#END
