
#######################################################################
#
#                 Cambridge Crystallographic Data Centre
#                                CCDC 
#
#######################################################################
#
# If this CIF has been generated from an entry in the Cambridge 
# Structural Database, then it will include bibliographic, chemical, 
# crystal, experimental, refinement or atomic coordinate data resulting 
# from the CCDC's data processing and validation procedures.
#
#######################################################################

data_FINFEQ
_chemical_formula_moiety         'C18 H17 N3 O2'
_chemical_name_systematic        
N-[4-ethynyl-2-(morpholin-4-yl)phenyl]pyridine-2-carboxamide
_symmetry_cell_setting           orthorhombic
_symmetry_space_group_name_H-M   'P 21 21 21'
_symmetry_Int_Tables_number      19
_space_group_name_Hall           'P 2ac 2ab'
loop_
_symmetry_equiv_pos_site_id
_symmetry_equiv_pos_as_xyz
1 x,y,z
2 1/2-x,-y,1/2+z
3 -x,1/2+y,1/2-z
4 1/2+x,1/2-y,-z
_cell_length_a                   6.4918(2)
_cell_length_b                   15.5506(4)
_cell_length_c                   15.7687(5)
_cell_angle_alpha                90
_cell_angle_beta                 90
_cell_angle_gamma                90
_cell_volume                     1591.87
_exptl_crystal_colour            colorless
_exptl_crystal_description       prismatic
_cell_formula_units_Z            4
loop_
_atom_site_label
_atom_site_type_symbol
_atom_site_fract_x
_atom_site_fract_y
_atom_site_fract_z
O1 O 0.7820(3) 0.27768(10) 0.73714(11)
O2 O 0.6975(2) 0.71677(9) 0.57865(9)
N1 N 1.0047(3) 0.40640(11) 0.57566(12)
N2 N 0.6884(3) 0.40895(11) 0.68359(11)
H1 H 0.7254 0.4467 0.6450
N3 N 0.5339(3) 0.56628(10) 0.65555(10)
C1 C 1.1684(4) 0.40696(16) 0.52424(15)
H2 H 1.1840 0.4541 0.4864
C2 C 1.3161(4) 0.34323(17) 0.52285(16)
H3 H 1.4298 0.3467 0.4851
C3 C 1.2959(4) 0.27458(17) 0.57717(16)
H4 H 1.3952 0.2297 0.5776
C4 C 1.1279(4) 0.27210(15) 0.63125(15)
H5 H 1.1090 0.2254 0.6693
C5 C 0.9884(3) 0.33914(13) 0.62846(13)
C6 C 0.8074(3) 0.33828(13) 0.68856(13)
C7 C 0.5141(3) 0.43089(12) 0.73109(12)
C8 C 0.4241(3) 0.37695(13) 0.79108(14)
H6 H 0.4830 0.3223 0.8028
C9 C 0.2485(4) 0.40313(13) 0.83363(13)
H7 H 0.1869 0.3656 0.8739
C10 C 0.1607(3) 0.48302(13) 0.81870(12)
C11 C 0.2539(3) 0.53848(13) 0.75958(12)
H8 H 0.1965 0.5938 0.7495
C12 C 0.4294(3) 0.51293(12) 0.71577(12)
C13 C 0.4033(3) 0.62529(13) 0.60636(13)
H9 H 0.3410 0.6687 0.6445
H10 H 0.2908 0.5928 0.5786
C14 C 0.5343(4) 0.66921(14) 0.54027(13)
H11 H 0.5929 0.6255 0.5015
H12 H 0.4473 0.7086 0.5063
C15 C 0.8247(3) 0.66113(15) 0.62750(14)
H13 H 0.9360 0.6950 0.6545
H14 H 0.8892 0.6180 0.5898
C16 C 0.7009(3) 0.61571(14) 0.69525(13)
H15 H 0.7915 0.5766 0.7278
H16 H 0.6423 0.6585 0.7350
C17 C -0.0207(3) 0.50832(14) 0.86456(13)
C18 C -0.1687(4) 0.52668(16) 0.90457(15)
H17 H -0.2874 0.5414 0.9367
loop_
_geom_bond_atom_site_label_1
_geom_bond_atom_site_label_2
_geom_bond_site_symmetry_1
_geom_bond_site_symmetry_2
O1 C6 1_555 1_555
O2 C14 1_555 1_555
N1 C1 1_555 1_555
N2 H1 1_555 1_555
N3 C12 1_555 1_555
C1 H2 1_555 1_555
C2 C1 1_555 1_555
H3 C2 1_555 1_555
C3 C2 1_555 1_555
H4 C3 1_555 1_555
C4 C3 1_555 1_555
H5 C4 1_555 1_555
C5 N1 1_555 1_555
C6 N2 1_555 1_555
C7 N2 1_555 1_555
C8 C7 1_555 1_555
H6 C8 1_555 1_555
C9 C8 1_555 1_555
H7 C9 1_555 1_555
C10 C9 1_555 1_555
C11 C10 1_555 1_555
H8 C11 1_555 1_555
C12 C7 1_555 1_555
C13 N3 1_555 1_555
H9 C13 1_555 1_555
H10 C13 1_555 1_555
C14 C13 1_555 1_555
H11 C14 1_555 1_555
H12 C14 1_555 1_555
C15 O2 1_555 1_555
H13 C15 1_555 1_555
H14 C15 1_555 1_555
C16 N3 1_555 1_555
H15 C16 1_555 1_555
H16 C16 1_555 1_555
C17 C10 1_555 1_555
C18 C17 1_555 1_555
H17 C18 1_555 1_555
C4 C5 1_555 1_555
C5 C6 1_555 1_555
C11 C12 1_555 1_555
C15 C16 1_555 1_555

#END
