
#######################################################################
#
#                 Cambridge Crystallographic Data Centre
#                                CCDC 
#
#######################################################################
#
# If this CIF has been generated from an entry in the Cambridge 
# Structural Database, then it will include bibliographic, chemical, 
# crystal, experimental, refinement or atomic coordinate data resulting 
# from the CCDC's data processing and validation procedures.
#
#######################################################################

data_FINGOB
_chemical_formula_moiety         'C19 H18 N4 O2'
_chemical_name_systematic        
N-[5-(morpholin-4-yl)quinolin-6-yl]pyridine-2-carboxamide
_symmetry_cell_setting           monoclinic
_symmetry_space_group_name_H-M   'P 21/m'
_symmetry_Int_Tables_number      11
_space_group_name_Hall           '-P 2yb'
loop_
_symmetry_equiv_pos_site_id
_symmetry_equiv_pos_as_xyz
1 x,y,z
2 -x,1/2+y,-z
3 -x,-y,-z
4 x,1/2-y,z
_cell_length_a                   11.0640(5)
_cell_length_b                   6.8437(3)
_cell_length_c                   11.2124(5)
_cell_angle_alpha                90
_cell_angle_beta                 108.073(2)
_cell_angle_gamma                90
_cell_volume                     807.101
_exptl_crystal_colour            colorless
_exptl_crystal_description       prismatic
_cell_formula_units_Z            2
loop_
_atom_site_label
_atom_site_type_symbol
_atom_site_fract_x
_atom_site_fract_y
_atom_site_fract_z
O1 O 0.91959(12) 0.2500 0.93253(11)
O2 O 0.29947(11) 0.2500 0.49929(10)
N1 N 0.75081(15) 0.2500 0.23157(13)
N2 N 0.76613(12) 0.2500 0.67996(12)
N3 N 0.51368(12) 0.2500 0.60324(12)
H1 H 0.5667 0.2500 0.6802
N4 N 0.47533(13) 0.2500 0.82261(13)
C1 C 0.87592(18) 0.2500 0.26498(17)
H2 H 0.9147 0.2500 0.2003
C2 C 0.95567(18) 0.2500 0.38965(18)
H3 H 1.0455 0.2500 0.4079
C3 C 0.90237(16) 0.2500 0.48447(16)
H4 H 0.9550 0.2500 0.5694
C4 C 0.76846(15) 0.2500 0.45558(15)
C5 C 0.70376(15) 0.2500 0.54737(14)
C6 C 0.57194(14) 0.2500 0.50934(14)
C7 C 0.50139(16) 0.2500 0.38010(15)
H5 H 0.4111 0.2500 0.3548
C8 C 0.56302(16) 0.2500 0.29235(15)
H6 H 0.5146 0.2500 0.2060
C9 C 0.69650(16) 0.2500 0.32600(15)
C10 C 0.83403(11) 0.42626(18) 0.73712(10)
H7 H 0.7849 0.5437 0.6990
H8 H 0.9179 0.4320 0.7229
C11 C 0.85131(12) 0.4209(2) 0.87625(11)
H9 H 0.8983 0.5386 0.9167
H10 H 0.7670 0.4220 0.8897
C12 C 0.38973(15) 0.2500 0.59584(14)
C13 C 0.37044(14) 0.2500 0.72314(14)
C14 C 0.24888(16) 0.2500 0.73233(16)
H11 H 0.1769 0.2500 0.6591
C15 C 0.23389(17) 0.2500 0.85040(18)
H12 H 0.1515 0.2500 0.8600
C16 C 0.34058(18) 0.2500 0.95311(17)
H13 H 0.3333 0.2500 1.0353
C17 C 0.45919(17) 0.2500 0.93577(16)
H14 H 0.5325 0.2500 1.0077
C10C C 0.83403(11) 0.07374(18) 0.73712(10)
H7C H 0.7849 -0.0437 0.6990
H8C H 0.9179 0.0680 0.7229
C11C C 0.85131(12) 0.0791(2) 0.87625(11)
H9C H 0.8983 -0.0386 0.9167
H10C H 0.7670 0.0780 0.8897
loop_
_geom_bond_atom_site_label_1
_geom_bond_atom_site_label_2
_geom_bond_site_symmetry_1
_geom_bond_site_symmetry_2
O1 C11 1_555 1_555
O2 C12 1_555 1_555
N1 C1 1_555 1_555
N2 C5 1_555 1_555
N3 H1 1_555 1_555
N4 C13 1_555 1_555
C1 H2 1_555 1_555
C2 C1 1_555 1_555
H3 C2 1_555 1_555
C3 C2 1_555 1_555
H4 C3 1_555 1_555
C4 C3 1_555 1_555
C5 C4 1_555 1_555
C6 N3 1_555 1_555
C7 C6 1_555 1_555
H5 C7 1_555 1_555
C8 C7 1_555 1_555
H6 C8 1_555 1_555
C9 N1 1_555 1_555
C10 N2 1_555 1_555
H7 C10 1_555 1_555
H8 C10 1_555 1_555
C11 C10 1_555 1_555
H9 C11 1_555 1_555
H10 C11 1_555 1_555
C12 N3 1_555 1_555
C13 C12 1_555 1_555
C14 C13 1_555 1_555
H11 C14 1_555 1_555
C15 C14 1_555 1_555
H12 C15 1_555 1_555
C16 C15 1_555 1_555
H13 C16 1_555 1_555
C17 N4 1_555 1_555
H14 C17 1_555 1_555
C10C N2 1_555 1_555
H7C C10C 1_555 1_555
H8C C10C 1_555 1_555
C11C O1 1_555 1_555
H9C C11C 1_555 1_555
H10C C11C 1_555 1_555
C4 C9 1_555 1_555
C5 C6 1_555 1_555
C8 C9 1_555 1_555
C16 C17 1_555 1_555
C10C C11C 1_555 1_555

#END
