
#######################################################################
#
#                 Cambridge Crystallographic Data Centre
#                                CCDC 
#
#######################################################################
#
# If this CIF has been generated from an entry in the Cambridge 
# Structural Database, then it will include bibliographic, chemical, 
# crystal, experimental, refinement or atomic coordinate data resulting 
# from the CCDC's data processing and validation procedures.
#
#######################################################################

data_FINGIV
_chemical_formula_moiety         'C26 H32 N2 O8 S1'
_chemical_name_systematic        
't-butyl 3-[(t-butoxycarbonyl)oxy]-3-({[(4-methylphenyl)sulfonyl]amino}methyl)-2-oxo-2,3-dihydro-1H-indole-1-carboxylate'
_symmetry_cell_setting           triclinic
_symmetry_space_group_name_H-M   'P 1'
_symmetry_Int_Tables_number      1
_space_group_name_Hall           'P 1'
loop_
_symmetry_equiv_pos_site_id
_symmetry_equiv_pos_as_xyz
1 x,y,z
_cell_length_a                   6.25857(15)
_cell_length_b                   10.3600(6)
_cell_length_c                   11.9013(6)
_cell_angle_alpha                64.561(5)
_cell_angle_beta                 87.812(3)
_cell_angle_gamma                84.160(3)
_cell_volume                     693.218
_exptl_crystal_colour            colorless
_exptl_crystal_description       prism
_cell_formula_units_Z            1
loop_
_atom_site_label
_atom_site_type_symbol
_atom_site_fract_x
_atom_site_fract_y
_atom_site_fract_z
C1 C 0.5294(7) 0.2410(4) 0.4511(4)
C2 C 0.7405(7) 0.3139(4) 0.4127(4)
C3 C 0.8559(7) 0.2366(5) 0.3439(4)
C4 C 0.7467(7) 0.1208(5) 0.3561(4)
C5 C 0.8164(9) 0.0360(6) 0.2977(5)
H1 H 0.7403 -0.0392 0.3034
C6 C 1.0041(11) 0.0659(7) 0.2296(5)
H2 H 1.0545 0.0095 0.1892
C7 C 1.1188(9) 0.1774(7) 0.2202(5)
H3 H 1.2463 0.1937 0.1756
C8 C 1.0439(8) 0.2646(5) 0.2771(4)
H4 H 1.1188 0.3406 0.2705
C9 C 0.8560(8) 0.2962(5) 0.5306(4)
H5 H 0.9824 0.3487 0.5072
H6 H 0.7614 0.3368 0.5761
C10 C 0.9061(8) 0.1942(5) 0.8159(4)
C11 C 1.1067(9) 0.2469(7) 0.7966(6)
H7 H 1.2130 0.2148 0.7553
C12 C 1.1472(10) 0.3466(7) 0.8387(6)
H8 H 1.2813 0.3819 0.8243
C13 C 0.9943(11) 0.3961(6) 0.9021(5)
C14 C 0.7975(11) 0.3395(7) 0.9232(6)
H9 H 0.6929 0.3688 0.9673
C15 C 0.7540(10) 0.2417(6) 0.8808(5)
H10 H 0.6199 0.2064 0.8956
C16 C 1.0388(17) 0.5099(9) 0.9436(8)
H11 H 1.1720 0.4819 0.9890
H12 H 0.9245 0.5201 0.9961
H13 H 1.0483 0.5997 0.8720
C17 C 0.5735(7) 0.5194(4) 0.2460(4)
C18 C 0.4190(8) 0.7541(5) 0.0969(4)
C19 C 0.1883(10) 0.7249(6) 0.1323(6)
H14 H 0.1680 0.6294 0.1437
H15 H 0.0946 0.7929 0.0672
H16 H 0.1559 0.7338 0.2083
C20 C 0.4859(12) 0.7352(7) -0.0187(5)
H17 H 0.6335 0.7538 -0.0366
H18 H 0.3974 0.8011 -0.0876
H19 H 0.4695 0.6386 -0.0056
C21 C 0.4601(11) 0.9024(5) 0.0833(6)
H20 H 0.4263 0.9095 0.1599
H21 H 0.3714 0.9742 0.0176
H22 H 0.6085 0.9170 0.0638
C22 C 0.4376(8) 0.0004(5) 0.4939(4)
C23 C 0.4501(11) -0.2569(5) 0.5604(5)
C24 C 0.568(6) -0.348(3) 0.504(3)
H23 H 0.5138 -0.3193 0.4212
H24 H 0.5476 -0.4468 0.5537
H25 H 0.7185 -0.3352 0.4996
C25 C 0.208(4) -0.258(4) 0.553(3)
H26 H 0.1371 -0.2138 0.6020
H27 H 0.1725 -0.3556 0.5838
H28 H 0.1612 -0.2061 0.4678
C26 C 0.520(6) -0.301(3) 0.689(3)
H29 H 0.6714 -0.2933 0.6905
H30 H 0.4908 -0.3984 0.7388
H31 H 0.4437 -0.2395 0.7218
N1 N 0.5556(6) 0.1188(4) 0.4279(4)
N2 N 0.9199(7) 0.1457(4) 0.6109(3)
H32 H 1.047(11) 0.114(7) 0.597(6)
O1 O 0.3776(5) 0.2818(3) 0.4958(3)
O2 O 0.6124(6) 0.0813(4) 0.7565(4)
O3 O 0.9659(8) -0.0579(4) 0.8145(4)
O4 O 0.7069(5) 0.4669(3) 0.3458(3)
O5 O 0.4863(6) 0.4470(3) 0.2090(3)
O6 O 0.5635(6) 0.6602(3) 0.2025(3)
O7 O 0.2867(7) 0.0058(4) 0.5550(5)
O8 O 0.5208(7) -0.1124(4) 0.4794(3)
S1 S 0.84174(16) 0.07657(11) 0.75452(10)
C27? C 0.638(8) -0.357(4) 0.545(4)
H33? H 0.6598 -0.3326 0.4581
H34? H 0.6041 -0.4551 0.5868
H35? H 0.7665 -0.3464 0.5803
C28? C 0.237(5) -0.264(6) 0.509(4)
H36? H 0.1373 -0.1867 0.5078
H37? H 0.1818 -0.3541 0.5615
H38? H 0.2558 -0.2570 0.4265
C29? C 0.455(9) -0.273(4) 0.695(5)
H39? H 0.5739 -0.2274 0.7052
H40? H 0.4692 -0.3726 0.7514
H41? H 0.3233 -0.2276 0.7115
loop_
_geom_bond_atom_site_label_1
_geom_bond_atom_site_label_2
_geom_bond_site_symmetry_1
_geom_bond_site_symmetry_2
C1 C2 1_555 1_555
C2 C3 1_555 1_555
C3 C4 1_555 1_555
C4 C5 1_555 1_555
C5 H1 1_555 1_555
C6 C5 1_555 1_555
H2 C6 1_555 1_555
C7 C6 1_555 1_555
H3 C7 1_555 1_555
C8 C3 1_555 1_555
H4 C8 1_555 1_555
C9 C2 1_555 1_555
H5 C9 1_555 1_555
H6 C9 1_555 1_555
C10 C11 1_555 1_555
C11 H7 1_555 1_555
C12 C11 1_555 1_555
H8 C12 1_555 1_555
C13 C12 1_555 1_555
C14 C13 1_555 1_555
H9 C14 1_555 1_555
C15 C10 1_555 1_555
H10 C15 1_555 1_555
C16 C13 1_555 1_555
H11 C16 1_555 1_555
H12 C16 1_555 1_555
H13 C16 1_555 1_555
C17 O4 1_555 1_555
C18 C19 1_555 1_555
C19 H14 1_555 1_555
H15 C19 1_555 1_555
H16 C19 1_555 1_555
C20 C18 1_555 1_555
H17 C20 1_555 1_555
H18 C20 1_555 1_555
H19 C20 1_555 1_555
C21 C18 1_555 1_555
H20 C21 1_555 1_555
H21 C21 1_555 1_555
H22 C21 1_555 1_555
C22 N1 1_555 1_555
C23 C24 1_555 1_555
C24 H23 1_555 1_555
H24 C24 1_555 1_555
H25 C24 1_555 1_555
C25 C23 1_555 1_555
H26 C25 1_555 1_555
H27 C25 1_555 1_555
H28 C25 1_555 1_555
C26 C23 1_555 1_555
H29 C26 1_555 1_555
H30 C26 1_555 1_555
H31 C26 1_555 1_555
N1 C1 1_555 1_555
N2 C9 1_555 1_555
H32 N2 1_555 1_555
O1 C1 1_555 1_555
O2 S1 1_555 1_555
O3 S1 1_555 1_555
O4 C2 1_555 1_555
O5 C17 1_555 1_555
O6 C17 1_555 1_555
O7 C22 1_555 1_555
O8 C22 1_555 1_555
S1 C10 1_555 1_555
C4 N1 1_555 1_555
C7 C8 1_555 1_555
C14 C15 1_555 1_555
C18 O6 1_555 1_555
C23 O8 1_555 1_555
N2 S1 1_555 1_555

#END
