
#######################################################################
#
#                 Cambridge Crystallographic Data Centre
#                                CCDC 
#
#######################################################################
#
# If this CIF has been generated from an entry in the Cambridge 
# Structural Database, then it will include bibliographic, chemical, 
# crystal, experimental, refinement or atomic coordinate data resulting 
# from the CCDC's data processing and validation procedures.
#
#######################################################################

data_FINHUI
_chemical_formula_moiety         'C29 H24 N2 O1'
_chemical_name_systematic        
5-[(4-methoxyphenyl)(phenyl)methyl]-1,2-diphenyl-1H-imidazole
_symmetry_cell_setting           orthorhombic
_symmetry_space_group_name_H-M   'P n a 21'
_symmetry_Int_Tables_number      33
_space_group_name_Hall           'P 2c -2n'
loop_
_symmetry_equiv_pos_site_id
_symmetry_equiv_pos_as_xyz
1 x,y,z
2 -x,-y,1/2+z
3 1/2+x,1/2-y,z
4 1/2-x,1/2+y,1/2+z
_cell_length_a                   17.5799(15)
_cell_length_b                   9.8740(7)
_cell_length_c                   25.405(2)
_cell_angle_alpha                90
_cell_angle_beta                 90
_cell_angle_gamma                90
_cell_volume                     4409.9
_cell_formula_units_Z            8
loop_
_atom_site_label
_atom_site_type_symbol
_atom_site_fract_x
_atom_site_fract_y
_atom_site_fract_z
O1 O -0.0022(2) 0.5714(3) 0.66416(14)
N1 N 0.3478(2) 0.1586(4) 0.51913(16)
N2 N 0.3604(2) 0.2784(4) 0.59304(16)
C1 C 0.1816(3) 0.3065(4) 0.64857(18)
C2 C 0.3917(3) 0.3641(4) 0.63365(18)
C3 C 0.3924(3) 0.2453(5) 0.54479(19)
C4 C 0.4653(3) 0.2957(4) 0.52387(18)
C5 C 0.4532(3) 0.3210(4) 0.6623(2)
H1 H 0.474001 0.235885 0.656062
C6 C 0.4942(3) 0.4258(5) 0.53212(19)
H2 H 0.468043 0.486347 0.553532
C7 C 0.0966(3) 0.4429(5) 0.7012(2)
H3 H 0.081351 0.474009 0.734133
C8 C 0.2931(3) 0.2040(4) 0.59823(19)
C9 C 0.4528(3) 0.5301(5) 0.7101(2)
H4 H 0.474106 0.586939 0.735302
C10 C 0.2174(3) 0.0577(4) 0.6575(2)
C11 C 0.0833(3) 0.4415(5) 0.60701(19)
H5 H 0.059303 0.470836 0.576449
C12 C 0.5734(3) 0.2464(5) 0.46850(19)
H6 H 0.599599 0.186196 0.447006
C13 C 0.0585(3) 0.4865(4) 0.6565(2)
C14 C 0.1440(3) 0.3529(4) 0.60443(19)
H7 H 0.160182 0.323144 0.571545
C15 C 0.2604(3) -0.0297(5) 0.6891(2)
H8 H 0.304609 0.000947 0.705343
C16 C 0.1563(3) 0.3546(5) 0.6974(2)
H9 H 0.180702 0.325911 0.727899
C17 C 0.4843(3) 0.4045(5) 0.7006(2)
H10 H 0.526315 0.375844 0.719825
C18 C 0.2457(3) 0.2016(4) 0.64793(19)
H11 H 0.279862 0.224065 0.677120
C19 C 0.5062(3) 0.2071(5) 0.49184(18)
H12 H 0.487828 0.119974 0.486164
C20 C 0.5625(3) 0.4651(5) 0.5082(2)
H13 H 0.581285 0.552131 0.513532
C21 C 0.1507(3) 0.0102(5) 0.6346(2)
H14 H 0.120763 0.068108 0.614541
C22 C 0.6021(3) 0.3759(5) 0.47692(19)
H15 H 0.647797 0.401911 0.461496
C23 C 0.2878(3) 0.1328(5) 0.5521(2)
H16 H 0.248099 0.074031 0.544058
C24 C 0.1289(3) -0.1230(5) 0.6417(2)
H17 H 0.084850 -0.154560 0.625581
C25 C 0.2365(3) -0.1626(5) 0.6959(2)
H18 H 0.265179 -0.220675 0.716843
C26 C 0.1715(3) -0.2097(5) 0.6725(2)
H19 H 0.156283 -0.299112 0.677201
C27 C 0.3895(3) 0.5711(5) 0.6821(2)
H20 H 0.367221 0.654429 0.689463
C28 C 0.3586(3) 0.4890(5) 0.6430(2)
H21 H 0.316755 0.517539 0.623590
C29 C -0.0490(3) 0.6002(5) 0.6192(2)
H22 H -0.019136 0.644710 0.592787
H23 H -0.090294 0.658086 0.629612
H24 H -0.069034 0.517136 0.605317
N3 N 0.4799(2) 0.7074(4) 0.41427(16)
O2 O 0.8512(2) 0.4251(3) 0.34587(14)
N4 N 0.4966(2) 0.8295(4) 0.48667(16)
C30 C 0.4509(3) 0.7438(4) 0.46246(19)
C31 C 0.4466(3) 0.6186(4) 0.37569(18)
C32 C 0.3393(3) 0.7885(5) 0.51820(19)
H25 H 0.360112 0.873412 0.524796
C33 C 0.7659(3) 0.5599(4) 0.40048(19)
H26 H 0.793071 0.541040 0.431039
C34 C 0.3838(3) 0.6601(5) 0.34782(18)
H27 H 0.363157 0.745571 0.353504
C35 C 0.3774(3) 0.6995(5) 0.48468(18)
C36 C 0.5482(3) 0.7775(5) 0.40772(19)
C37 C 0.7881(3) 0.5033(4) 0.3527(2)
C38 C 0.7030(3) 0.6447(4) 0.40219(19)
H28 H 0.688612 0.682877 0.434143
C39 C 0.5936(3) 0.7724(5) 0.3569(2)
H29 H 0.558609 0.739585 0.329736
C40 C 0.3445(3) 0.5716(5) 0.47579(19)
H30 H 0.368888 0.510106 0.453789
C41 C 0.2395(3) 0.6276(5) 0.5331(2)
H31 H 0.193967 0.603651 0.549277
C42 C 0.6610(3) 0.6737(4) 0.35744(18)
C43 C 0.3515(3) 0.5731(5) 0.31100(19)
H32 H 0.309045 0.600245 0.291926
C44 C 0.6153(3) 0.9161(5) 0.34115(19)
C45 C 0.6823(3) 0.6121(5) 0.3106(2)
H33 H 0.654008 0.628435 0.280346
C46 C 0.4793(3) 0.4936(5) 0.3672(2)
H34 H 0.522733 0.467832 0.385551
C47 C 0.2766(3) 0.5364(5) 0.4993(2)
H35 H 0.255325 0.451774 0.492810
C48 C 0.5565(3) 0.8509(5) 0.4533(2)
H36 H 0.597446 0.907578 0.460488
C49 C 0.7443(3) 0.5271(5) 0.30803(19)
H37 H 0.757000 0.485668 0.276352
C50 C 0.2713(3) 0.7531(5) 0.54188(19)
H38 H 0.246823 0.814429 0.563907
C51 C 0.6746(3) 0.9857(5) 0.3644(2)
H39 H 0.705476 0.941839 0.388789
C52 C 0.5724(3) 0.9829(5) 0.3021(2)
H40 H 0.533541 0.937281 0.284674
C53 C 0.3826(3) 0.4466(5) 0.3028(2)
H41 H 0.360743 0.388026 0.278429
C54 C 0.4459(4) 0.4069(5) 0.3308(2)
H42 H 0.466594 0.321361 0.325214
C55 C 0.6888(3) 1.1207(5) 0.3520(2)
H43 H 0.728370 1.166831 0.368439
C56 C 0.9017(3) 0.4131(5) 0.3900(2)
H44 H 0.947737 0.368812 0.379116
H45 H 0.877690 0.360753 0.417174
H46 H 0.913577 0.501634 0.403283
C57 C 0.6435(4) 1.1870(5) 0.3147(2)
H47 H 0.651238 1.278100 0.306969
C58 C 0.5879(4) 1.1154(6) 0.2899(2)
H48 H 0.559513 1.157743 0.263761
loop_
_geom_bond_atom_site_label_1
_geom_bond_atom_site_label_2
_geom_bond_site_symmetry_1
_geom_bond_site_symmetry_2
O1 C13 1_555 1_555
N1 C3 1_555 1_555
N2 C2 1_555 1_555
C1 C14 1_555 1_555
C2 C5 1_555 1_555
C3 N2 1_555 1_555
C4 C3 1_555 1_555
C5 H1 1_555 1_555
C6 C4 1_555 1_555
H2 C6 1_555 1_555
C7 H3 1_555 1_555
C8 N2 1_555 1_555
C9 H4 1_555 1_555
C10 C15 1_555 1_555
C11 H5 1_555 1_555
C12 H6 1_555 1_555
C13 C7 1_555 1_555
C14 C11 1_555 1_555
H7 C14 1_555 1_555
C15 H8 1_555 1_555
C16 C1 1_555 1_555
H9 C16 1_555 1_555
C17 C5 1_555 1_555
H10 C17 1_555 1_555
C18 C1 1_555 1_555
H11 C18 1_555 1_555
C19 C4 1_555 1_555
H12 C19 1_555 1_555
C20 C6 1_555 1_555
H13 C20 1_555 1_555
C21 C10 1_555 1_555
H14 C21 1_555 1_555
C22 C12 1_555 1_555
H15 C22 1_555 1_555
C23 N1 1_555 1_555
H16 C23 1_555 1_555
C24 C21 1_555 1_555
H17 C24 1_555 1_555
C25 C15 1_555 1_555
H18 C25 1_555 1_555
C26 C24 1_555 1_555
H19 C26 1_555 1_555
C27 C9 1_555 1_555
H20 C27 1_555 1_555
C28 C2 1_555 1_555
H21 C28 1_555 1_555
C29 O1 1_555 1_555
H22 C29 1_555 1_555
H23 C29 1_555 1_555
H24 C29 1_555 1_555
N3 C30 1_555 1_555
O2 C37 1_555 1_555
N4 C30 1_555 1_555
C30 C35 1_555 1_555
C31 N3 1_555 1_555
C32 H25 1_555 1_555
C33 H26 1_555 1_555
C34 C31 1_555 1_555
H27 C34 1_555 1_555
C35 C32 1_555 1_555
C36 N3 1_555 1_555
C37 C33 1_555 1_555
C38 C33 1_555 1_555
H28 C38 1_555 1_555
C39 C36 1_555 1_555
H29 C39 1_555 1_555
C40 C35 1_555 1_555
H30 C40 1_555 1_555
C41 H31 1_555 1_555
C42 C38 1_555 1_555
C43 C34 1_555 1_555
H32 C43 1_555 1_555
C44 C39 1_555 1_555
C45 C42 1_555 1_555
H33 C45 1_555 1_555
C46 C31 1_555 1_555
H34 C46 1_555 1_555
C47 C40 1_555 1_555
H35 C47 1_555 1_555
C48 N4 1_555 1_555
H36 C48 1_555 1_555
C49 C37 1_555 1_555
H37 C49 1_555 1_555
C50 C32 1_555 1_555
H38 C50 1_555 1_555
C51 C44 1_555 1_555
H39 C51 1_555 1_555
C52 C44 1_555 1_555
H40 C52 1_555 1_555
C53 C43 1_555 1_555
H41 C53 1_555 1_555
C54 C46 1_555 1_555
H42 C54 1_555 1_555
C55 C51 1_555 1_555
H43 C55 1_555 1_555
C56 O2 1_555 1_555
H44 C56 1_555 1_555
H45 C56 1_555 1_555
H46 C56 1_555 1_555
C57 C55 1_555 1_555
H47 C57 1_555 1_555
C58 C52 1_555 1_555
H48 C58 1_555 1_555
C7 C16 1_555 1_555
C8 C18 1_555 1_555
C8 C23 1_555 1_555
C9 C17 1_555 1_555
C10 C18 1_555 1_555
C11 C13 1_555 1_555
C12 C19 1_555 1_555
C20 C22 1_555 1_555
C25 C26 1_555 1_555
C27 C28 1_555 1_555
C36 C48 1_555 1_555
C39 C42 1_555 1_555
C41 C47 1_555 1_555
C41 C50 1_555 1_555
C45 C49 1_555 1_555
C53 C54 1_555 1_555
C57 C58 1_555 1_555

#END
