
#######################################################################
#
#                 Cambridge Crystallographic Data Centre
#                                CCDC 
#
#######################################################################
#
# If this CIF has been generated from an entry in the Cambridge 
# Structural Database, then it will include bibliographic, chemical, 
# crystal, experimental, refinement or atomic coordinate data resulting 
# from the CCDC's data processing and validation procedures.
#
#######################################################################

data_FINHOC
_chemical_formula_moiety         'C15 H15 Br1 N4 O2'
_chemical_name_systematic        
N-[5-bromo-2-(morpholin-4-yl)pyridin-3-yl]pyridine-2-carboxamide
_symmetry_cell_setting           monoclinic
_symmetry_space_group_name_H-M   'C c'
_symmetry_Int_Tables_number      9
_space_group_name_Hall           'C -2yc'
loop_
_symmetry_equiv_pos_site_id
_symmetry_equiv_pos_as_xyz
1 x,y,z
2 x,-y,1/2+z
3 1/2+x,1/2+y,z
4 1/2+x,1/2-y,1/2+z
_cell_length_a                   16.6835(10)
_cell_length_b                   13.0751(7)
_cell_length_c                   7.3965(5)
_cell_angle_alpha                90
_cell_angle_beta                 105.815(2)
_cell_angle_gamma                90
_cell_volume                     1552.39
_exptl_crystal_colour            colorless
_exptl_crystal_description       prismatic
_cell_formula_units_Z            4
loop_
_atom_site_label
_atom_site_type_symbol
_atom_site_fract_x
_atom_site_fract_y
_atom_site_fract_z
Br1 Br 0.21182(6) 0.59911(6) 0.09719(8)
N1 N 0.6586(3) 0.4479(4) 0.7219(8)
N2 N 0.5050(3) 0.4663(3) 0.5045(7)
H1 H 0.5339 0.4122 0.5430
N3 N 0.3303(3) 0.3231(4) 0.2183(7)
N4 N 0.4607(3) 0.2707(4) 0.4170(7)
O1 O 0.5111(3) 0.6403(3) 0.5284(7)
O2 O 0.5239(5) 0.0814(4) 0.5753(9)
C1 C 0.7373(4) 0.4364(6) 0.8296(11)
H2 H 0.7581 0.3705 0.8550
C2 C 0.7882(5) 0.5167(6) 0.9037(11)
H3 H 0.8423 0.5051 0.9768
C3 C 0.7585(5) 0.6142(6) 0.8688(13)
H4 H 0.7920 0.6698 0.9183
C4 C 0.6778(5) 0.6288(6) 0.7590(11)
H5 H 0.6558 0.6942 0.7337
C5 C 0.6305(4) 0.5434(5) 0.6876(8)
C6 C 0.5428(4) 0.5567(4) 0.5656(8)
C7 C 0.4253(3) 0.4503(4) 0.3876(8)
C8 C 0.3679(4) 0.5259(5) 0.3191(8)
H6 H 0.3796 0.5938 0.3539
C9 C 0.2926(4) 0.4986(5) 0.1974(8)
C10 C 0.2760(4) 0.3977(5) 0.1479(10)
H7 H 0.2254 0.3810 0.0628
C11 C 0.4024(3) 0.3481(4) 0.3367(8)
C12 C 0.4590(4) 0.1802(5) 0.2996(9)
H8 H 0.4646 0.2004 0.1774
H9 H 0.4064 0.1445 0.2814
C13 C 0.5283(7) 0.1124(6) 0.3932(15)
H10 H 0.5274 0.0522 0.3161
H11 H 0.5806 0.1476 0.4048
C14 C 0.5267(6) 0.1690(6) 0.6901(11)
H12 H 0.5792 0.2044 0.7045
H13 H 0.5237 0.1480 0.8138
C15 C 0.4561(5) 0.2402(5) 0.6055(9)
H14 H 0.4034 0.2065 0.5968
H15 H 0.4597 0.3003 0.6843
loop_
_geom_bond_atom_site_label_1
_geom_bond_atom_site_label_2
_geom_bond_site_symmetry_1
_geom_bond_site_symmetry_2
Br1 C9 1_555 1_555
N1 C1 1_555 1_555
N2 H1 1_555 1_555
N3 C10 1_555 1_555
N4 C11 1_555 1_555
O1 C6 1_555 1_555
O2 C13 1_555 1_555
C1 H2 1_555 1_555
C2 C1 1_555 1_555
H3 C2 1_555 1_555
C3 C2 1_555 1_555
H4 C3 1_555 1_555
C4 C3 1_555 1_555
H5 C4 1_555 1_555
C5 N1 1_555 1_555
C6 N2 1_555 1_555
C7 N2 1_555 1_555
C8 C7 1_555 1_555
H6 C8 1_555 1_555
C9 C8 1_555 1_555
C10 C9 1_555 1_555
H7 C10 1_555 1_555
C11 N3 1_555 1_555
C12 N4 1_555 1_555
H8 C12 1_555 1_555
H9 C12 1_555 1_555
C13 C12 1_555 1_555
H10 C13 1_555 1_555
H11 C13 1_555 1_555
C14 O2 1_555 1_555
H12 C14 1_555 1_555
H13 C14 1_555 1_555
C15 N4 1_555 1_555
H14 C15 1_555 1_555
H15 C15 1_555 1_555
C4 C5 1_555 1_555
C5 C6 1_555 1_555
C7 C11 1_555 1_555
C14 C15 1_555 1_555

#END
