
#######################################################################
#
#                 Cambridge Crystallographic Data Centre
#                                CCDC 
#
#######################################################################
#
# If this CIF has been generated from an entry in the Cambridge 
# Structural Database, then it will include bibliographic, chemical, 
# crystal, experimental, refinement or atomic coordinate data resulting 
# from the CCDC's data processing and validation procedures.
#
#######################################################################

data_FINHIW
_chemical_formula_moiety         'C16 H15 F3 N4 O2'
_chemical_name_systematic        
N-[2-(morpholin-4-yl)-5-(trifluoromethyl)pyridin-3-yl]pyridine-2-carboxamide
_symmetry_cell_setting           monoclinic
_symmetry_space_group_name_H-M   'P 2/n'
_symmetry_Int_Tables_number      13
_space_group_name_Hall           '-P 2yac'
loop_
_symmetry_equiv_pos_site_id
_symmetry_equiv_pos_as_xyz
1 x,y,z
2 1/2-x,y,1/2-z
3 -x,-y,-z
4 1/2+x,-y,1/2+z
_cell_length_a                   13.6950(7)
_cell_length_b                   7.7192(4)
_cell_length_c                   15.7441(7)
_cell_angle_alpha                90
_cell_angle_beta                 103.099(2)
_cell_angle_gamma                90
_cell_volume                     1621.07
_exptl_crystal_colour            colorless
_exptl_crystal_description       prismatic
_cell_formula_units_Z            4
loop_
_atom_site_label
_atom_site_type_symbol
_atom_site_fract_x
_atom_site_fract_y
_atom_site_fract_z
O1 O 0.36790(10) 0.8590(2) 0.35842(10)
O2 O 0.48970(13) 0.6873(2) 0.82113(9)
N1 N 0.23667(12) 0.7172(2) 0.51452(10)
N2 N 0.41996(11) 0.7251(2) 0.48965(9)
H1 H 0.3976 0.6722 0.5295
N3 N 0.68344(11) 0.6864(2) 0.59942(10)
N4 N 0.53890(11) 0.6721(2) 0.65524(9)
C1 C 0.14607(16) 0.7183(3) 0.53187(15)
H2 H 0.1377 0.6645 0.5826
C2 C 0.06446(16) 0.7946(3) 0.47864(17)
H3 H 0.0025 0.7940 0.4935
C3 C 0.07553(16) 0.8715(4) 0.40353(18)
H4 H 0.0211 0.9242 0.3664
C4 C 0.16838(15) 0.8704(3) 0.38297(15)
H5 H 0.1778 0.9208 0.3318
C5 C 0.24647(13) 0.7924(2) 0.44077(12)
C6 C 0.34993(14) 0.7953(3) 0.42405(12)
C7 C 0.52419(12) 0.7280(2) 0.50066(11)
C8 C 0.57097(13) 0.7510(2) 0.43268(12)
H6 H 0.5335 0.7710 0.3765
C9 C 0.67461(14) 0.7439(3) 0.44932(12)
C10 C 0.72700(14) 0.7092(3) 0.53257(13)
H7 H 0.7965 0.7010 0.5430
C11 C 0.58435(13) 0.6993(2) 0.58513(11)
C12 C 0.60366(16) 0.5929(3) 0.73285(12)
H8 H 0.6551 0.6745 0.7602
H9 H 0.6363 0.4910 0.7162
C13 C 0.54065(19) 0.5434(3) 0.79565(13)
H10 H 0.4919 0.4571 0.7687
H11 H 0.5832 0.4917 0.8471
C14 C 0.42707(18) 0.7640(3) 0.74616(15)
H12 H 0.3924 0.8626 0.7637
H13 H 0.3770 0.6806 0.7182
C15 C 0.48712(16) 0.8222(3) 0.68230(13)
H14 H 0.4430 0.8742 0.6317
H15 H 0.5358 0.9086 0.7092
C16 C 0.72714(15) 0.7681(3) 0.37775(14)
F1 F 0.8107(3) 0.6829(7) 0.3866(3)
F2 F 0.7548(4) 0.9331(5) 0.3718(3)
F3 F 0.6717(3) 0.7395(9) 0.3002(3)
F4? F 0.7355(4) 0.6167(5) 0.3386(3)
F5? F 0.8162(3) 0.8296(10) 0.4016(3)
F6? F 0.6797(4) 0.8619(7) 0.3135(3)
loop_
_geom_bond_atom_site_label_1
_geom_bond_atom_site_label_2
_geom_bond_site_symmetry_1
_geom_bond_site_symmetry_2
O1 C6 1_555 1_555
O2 C13 1_555 1_555
N1 C1 1_555 1_555
N2 H1 1_555 1_555
N3 C10 1_555 1_555
N4 C11 1_555 1_555
C1 H2 1_555 1_555
C2 C1 1_555 1_555
H3 C2 1_555 1_555
C3 C2 1_555 1_555
H4 C3 1_555 1_555
C4 C3 1_555 1_555
H5 C4 1_555 1_555
C5 N1 1_555 1_555
C6 N2 1_555 1_555
C7 N2 1_555 1_555
C8 C7 1_555 1_555
H6 C8 1_555 1_555
C9 C8 1_555 1_555
C10 C9 1_555 1_555
H7 C10 1_555 1_555
C11 N3 1_555 1_555
C12 N4 1_555 1_555
H8 C12 1_555 1_555
H9 C12 1_555 1_555
C13 C12 1_555 1_555
H10 C13 1_555 1_555
H11 C13 1_555 1_555
C14 O2 1_555 1_555
H12 C14 1_555 1_555
H13 C14 1_555 1_555
C15 N4 1_555 1_555
H14 C15 1_555 1_555
H15 C15 1_555 1_555
C16 C9 1_555 1_555
F1 C16 1_555 1_555
F2 C16 1_555 1_555
F3 C16 1_555 1_555
C4 C5 1_555 1_555
C5 C6 1_555 1_555
C7 C11 1_555 1_555
C14 C15 1_555 1_555

#END
