
#######################################################################
#
#                 Cambridge Crystallographic Data Centre
#                                CCDC 
#
#######################################################################
#
# If this CIF has been generated from an entry in the Cambridge 
# Structural Database, then it will include bibliographic, chemical, 
# crystal, experimental, refinement or atomic coordinate data resulting 
# from the CCDC's data processing and validation procedures.
#
#######################################################################

data_FINJOC
_chemical_formula_moiety         'C14 H20 N6 O4'
_chemical_name_systematic        
2,6,8,12-tetraacetyl-2,4,6,8,10,12-hexaazatetracyclo[5.5.0.0^5,9^.0^3,11^]dodecane
_symmetry_cell_setting           monoclinic
_symmetry_space_group_name_H-M   'C 2/c'
_symmetry_Int_Tables_number      15
_space_group_name_Hall           '-C 2yn'
loop_
_symmetry_equiv_pos_site_id
_symmetry_equiv_pos_as_xyz
1 x,y,z
2 1/2+x,1/2+y,z
3 -x,y,1/2-z
4 1/2-x,1/2+y,1/2-z
5 -x,-y,-z
6 1/2-x,1/2-y,-z
7 x,-y,1/2+z
8 1/2+x,1/2-y,1/2+z
_cell_length_a                   28.193(6)
_cell_length_b                   12.139(2)
_cell_length_c                   17.678(4)
_cell_angle_alpha                90
_cell_angle_beta                 97.44(3)
_cell_angle_gamma                90
_cell_volume                     5999.09
_exptl_crystal_colour            colorless
_exptl_crystal_description       Block
_chemical_melting_point          232.1-233.5deg.C
_cell_formula_units_Z            16
_exptl_crystal_recrystallization_method ethanol
loop_
_atom_site_label
_atom_site_type_symbol
_atom_site_fract_x
_atom_site_fract_y
_atom_site_fract_z
O1 O 0.21345(11) -0.0614(2) 0.08077(13)
O2 O 0.16477(11) -0.0291(2) 0.32829(14)
O3 O 0.28698(11) -0.0267(2) 0.40140(13)
O4 O 0.33197(11) -0.0618(2) 0.14627(15)
N1 N 0.21407(12) 0.0934(2) 0.15077(13)
N2 N 0.19936(11) 0.1104(2) 0.27091(14)
N3 N 0.29126(11) 0.1102(2) 0.31785(14)
N4 N 0.30655(12) 0.0943(3) 0.19900(15)
N5 N 0.26350(11) 0.2559(2) 0.15301(14)
N6 N 0.24557(11) 0.2821(2) 0.29284(14)
C1 C 0.22398(14) 0.0389(3) 0.22279(15)
H1 H 0.2109 -0.0360 0.2209
C2 C 0.20608(14) 0.2262(3) 0.25016(15)
H2 H 0.1764 0.2679 0.2517
C3 C 0.21682(14) 0.2124(3) 0.16414(16)
H3 H 0.1919 0.2497 0.1296
C4 C 0.28011(13) 0.0399(3) 0.25184(15)
H4 H 0.2921 -0.0350 0.2625
C5 C 0.29044(14) 0.2254(3) 0.29404(16)
H5 H 0.3161 0.2666 0.3244
C6 C 0.30124(14) 0.2142(3) 0.20858(17)
H6 H 0.3314 0.2513 0.2026
C7 C 0.20976(14) 0.0401(3) 0.08237(17)
C8 C 0.20043(15) 0.1086(3) 0.01353(17)
H7 H 0.1946 0.0620 -0.0306
H8 H 0.2277 0.1545 0.0093
H9 H 0.1729 0.1540 0.0169
C9 C 0.17135(13) 0.0703(3) 0.32327(17)
C10 C 0.15155(14) 0.1536(3) 0.37327(19)
H10 H 0.1266 0.1205 0.3977
H11 H 0.1388 0.2149 0.3428
H12 H 0.1766 0.1789 0.4113
C11 C 0.29240(13) 0.0709(3) 0.39115(17)
C12 C 0.30167(15) 0.1520(3) 0.45534(17)
H13 H 0.2750 0.1526 0.4841
H14 H 0.3058 0.2242 0.4350
H15 H 0.3301 0.1313 0.4881
C13 C 0.32900(13) 0.0405(3) 0.14612(18)
C14 C 0.34842(14) 0.1101(3) 0.08803(19)
H16 H 0.3785 0.1408 0.1095
H17 H 0.3263 0.1685 0.0726
H18 H 0.3529 0.0658 0.0445
H37 H 0.2600 0.3387 0.1478
H38 H 0.2376 0.2882 0.3378
O5 O 0.46381(13) 0.7053(3) 0.08906(18)
O6 O 0.41611(14) 0.7046(4) 0.3389(2)
N7 N 0.46233(16) 0.8514(4) 0.1637(3)
N8 N 0.44565(18) 0.8517(4) 0.2844(3)
N9 N 0.4891(2) 1.0149(4) 0.3235(4)
C15 C 0.47211(16) 0.7881(3) 0.2342(2)
H19 H 0.4596 0.7129 0.2276
C16 C 0.4523(3) 0.9688(5) 0.2689(6)
H20 H 0.4222 1.0081 0.2716
C17 C 0.4637(3) 0.9692(5) 0.1842(5)
H21 H 0.4388 1.0095 0.1515
C18 C 0.45975(19) 0.8047(6) 0.0940(3)
C19 C 0.45068(19) 0.8802(5) 0.0281(3)
H22 H 0.4779 0.8807 0.0007
H23 H 0.4452 0.9532 0.0459
H24 H 0.4230 0.8557 -0.0051
C20 C 0.4195(2) 0.8046(7) 0.3359(4)
C21 C 0.40024(19) 0.8792(6) 0.3909(4)
H25 H 0.3776 0.8399 0.4169
H26 H 0.3846 0.9406 0.3640
H27 H 0.4260 0.9053 0.4274
H39 H 0.4932 1.0837 0.3037
O5B O 0.53619(13) 0.7053(3) 0.41094(18)
O6B O 0.58389(14) 0.7046(4) 0.1611(2)
N7B N 0.53767(16) 0.8514(4) 0.3363(3)
N8B N 0.55435(18) 0.8517(4) 0.2156(3)
N9B N 0.5109(2) 1.0149(4) 0.1765(4)
C15B C 0.52789(16) 0.7881(3) 0.2658(2)
H19B H 0.5404 0.7129 0.2724
C16B C 0.5477(3) 0.9688(5) 0.2311(6)
H20B H 0.5778 1.0081 0.2284
C17B C 0.5363(3) 0.9692(5) 0.3158(5)
H21B H 0.5612 1.0095 0.3485
C18B C 0.54025(19) 0.8047(6) 0.4060(3)
C19B C 0.54932(19) 0.8802(5) 0.4719(3)
H22B H 0.5221 0.8807 0.4993
H23B H 0.5548 0.9532 0.4541
H24B H 0.5770 0.8557 0.5051
C20B C 0.5805(2) 0.8046(7) 0.1641(4)
C21B C 0.59976(19) 0.8792(6) 0.1091(4)
H25B H 0.6224 0.8399 0.0831
H26B H 0.6154 0.9406 0.1360
H27B H 0.5740 0.9053 0.0726
H39B H 0.5068 1.0837 0.1963
O7 O 0.08355(13) 0.7071(3) 0.1585(2)
O8 O 0.03770(13) 0.7081(4) 0.40955(19)
N10 N 0.05322(16) 0.8546(4) 0.2125(3)
N11 N 0.03943(17) 0.8533(4) 0.3333(3)
N12 N 0.0086(2) 1.0211(4) 0.1800(5)
C22 C 0.02820(16) 0.7912(4) 0.2642(3)
H28 H 0.0408 0.7159 0.2700
C23 C 0.0474(3) 0.9716(5) 0.2310(6)
H29 H 0.0773 1.0114 0.2275
C24 C 0.0369(3) 0.9707(6) 0.3132(6)
H30 H 0.0622 1.0106 0.3452
C25 C 0.0428(2) 0.8066(6) 0.4037(4)
C26 C 0.0515(2) 0.8826(6) 0.4705(3)
H31 H 0.0231 0.9243 0.4747
H32 H 0.0772 0.9319 0.4635
H33 H 0.0599 0.8404 0.5162
C27 C 0.07812(19) 0.8066(5) 0.1608(4)
C28 C 0.09775(18) 0.8827(5) 0.1045(4)
H34 H 0.1214 0.8444 0.0801
H35 H 0.1121 0.9459 0.1309
H36 H 0.0722 0.9062 0.0667
H40 H 0.0127 1.0922 0.1511
O7B O -0.08355(13) 0.7071(3) 0.3415(2)
O8B O -0.03770(13) 0.7081(4) 0.09045(19)
N10B N -0.05322(16) 0.8546(4) 0.2875(3)
N11B N -0.03943(17) 0.8533(4) 0.1667(3)
N12B N -0.0086(2) 1.0211(4) 0.3200(5)
C22B C -0.02820(16) 0.7912(4) 0.2358(3)
H28B H -0.0408 0.7159 0.2300
C23B C -0.0474(3) 0.9716(5) 0.2690(6)
H29B H -0.0773 1.0114 0.2725
C24B C -0.0369(3) 0.9707(6) 0.1868(6)
H30B H -0.0622 1.0106 0.1548
C25B C -0.0428(2) 0.8066(6) 0.0963(4)
C26B C -0.0515(2) 0.8826(6) 0.0295(3)
H31B H -0.0231 0.9243 0.0253
H32B H -0.0772 0.9319 0.0365
H33B H -0.0599 0.8404 -0.0162
C27B C -0.07812(19) 0.8066(5) 0.3392(4)
C28B C -0.09775(18) 0.8827(5) 0.3955(4)
H34B H -0.1214 0.8444 0.4199
H35B H -0.1121 0.9459 0.3691
H36B H -0.0722 0.9062 0.4333
H40B H -0.0127 1.0922 0.3489
loop_
_geom_bond_atom_site_label_1
_geom_bond_atom_site_label_2
_geom_bond_site_symmetry_1
_geom_bond_site_symmetry_2
O1 C7 1_555 1_555
O2 C9 1_555 1_555
O3 C11 1_555 1_555
O4 C13 1_555 1_555
O5 C18 1_555 1_555
O6 C20 1_555 1_555
O7 C27 1_555 1_555
O8 C25 1_555 1_555
N1 C1 1_555 1_555
N2 C1 1_555 1_555
N3 C4 1_555 1_555
N4 C4 1_555 1_555
N5 C3 1_555 1_555
N6 C2 1_555 1_555
N7 C15 1_555 1_555
N8 C15 1_555 1_555
N9 C16 1_555 1_555
N10 C22 1_555 1_555
N11 C22 1_555 1_555
N12 C23 1_555 1_555
C1 H1 1_555 1_555
C2 N2 1_555 1_555
H2 C2 1_555 1_555
C3 N1 1_555 1_555
H3 C3 1_555 1_555
C4 C1 1_555 1_555
H4 C4 1_555 1_555
C5 N3 1_555 1_555
H5 C5 1_555 1_555
C6 N4 1_555 1_555
H6 C6 1_555 1_555
C7 N1 1_555 1_555
C8 C7 1_555 1_555
H7 C8 1_555 1_555
H8 C8 1_555 1_555
H9 C8 1_555 1_555
C9 N2 1_555 1_555
C10 C9 1_555 1_555
H10 C10 1_555 1_555
H11 C10 1_555 1_555
H12 C10 1_555 1_555
C11 N3 1_555 1_555
C12 C11 1_555 1_555
H13 C12 1_555 1_555
H14 C12 1_555 1_555
H15 C12 1_555 1_555
C13 N4 1_555 1_555
C14 C13 1_555 1_555
H16 C14 1_555 1_555
H17 C14 1_555 1_555
H18 C14 1_555 1_555
C15 H19 1_555 1_555
C16 N8 1_555 1_555
H20 C16 1_555 1_555
C17 N7 1_555 1_555
H21 C17 1_555 1_555
C18 N7 1_555 1_555
C19 C18 1_555 1_555
H22 C19 1_555 1_555
H23 C19 1_555 1_555
H24 C19 1_555 1_555
C20 N8 1_555 1_555
C21 C20 1_555 1_555
H25 C21 1_555 1_555
H26 C21 1_555 1_555
H27 C21 1_555 1_555
C22 H28 1_555 1_555
C23 N10 1_555 1_555
H29 C23 1_555 1_555
C24 N11 1_555 1_555
H30 C24 1_555 1_555
C25 N11 1_555 1_555
C26 C25 1_555 1_555
H31 C26 1_555 1_555
H32 C26 1_555 1_555
H33 C26 1_555 1_555
C27 N10 1_555 1_555
C28 C27 1_555 1_555
H34 C28 1_555 1_555
H35 C28 1_555 1_555
H36 C28 1_555 1_555
H37 N5 1_555 1_555
H38 N6 1_555 1_555
H39 N9 1_555 1_555
H40 N12 1_555 1_555
O5B C18B 1_555 1_555
O6B C20B 1_555 1_555
O7B C27B 1_555 1_555
O8B C25B 1_555 1_555
N7B C15B 1_555 1_555
N8B C15B 1_555 1_555
N9B C17 1_555 1_555
N10B C22B 1_555 1_555
N11B C22B 1_555 1_555
N12B C24 1_555 1_555
C15B C15 1_555 1_555
H19B C15B 1_555 1_555
C16B N8B 1_555 1_555
H20B C16B 1_555 1_555
C17B N9 1_555 1_555
H21B C17B 1_555 1_555
C18B N7B 1_555 1_555
C19B C18B 1_555 1_555
H22B C19B 1_555 1_555
H23B C19B 1_555 1_555
H24B C19B 1_555 1_555
C20B N8B 1_555 1_555
C21B C20B 1_555 1_555
H25B C21B 1_555 1_555
H26B C21B 1_555 1_555
H27B C21B 1_555 1_555
C22B C22 1_555 1_555
H28B C22B 1_555 1_555
C23B N10B 1_555 1_555
H29B C23B 1_555 1_555
C24B N12 1_555 1_555
H30B C24B 1_555 1_555
C25B N11B 1_555 1_555
C26B C25B 1_555 1_555
H31B C26B 1_555 1_555
H32B C26B 1_555 1_555
H33B C26B 1_555 1_555
C27B N10B 1_555 1_555
C28B C27B 1_555 1_555
H34B C28B 1_555 1_555
H35B C28B 1_555 1_555
H36B C28B 1_555 1_555
H39B N9B 1_555 1_555
H40B N12B 1_555 1_555
N5 C6 1_555 1_555
N6 C5 1_555 1_555
C2 C3 1_555 1_555
C5 C6 1_555 1_555
C16 C17 1_555 1_555
C23 C24 1_555 1_555
N7B C17B 1_555 1_555
N9B C16B 1_555 1_555
N11B C24B 1_555 1_555
N12B C23B 1_555 1_555
C16B C17B 1_555 1_555
C23B C24B 1_555 1_555

#END
