
#######################################################################
#
#                 Cambridge Crystallographic Data Centre
#                                CCDC 
#
#######################################################################
#
# If this CIF has been generated from an entry in the Cambridge 
# Structural Database, then it will include bibliographic, chemical, 
# crystal, experimental, refinement or atomic coordinate data resulting 
# from the CCDC's data processing and validation procedures.
#
#######################################################################

data_FINMEU01
_chemical_formula_moiety         'C14 H6 N4 O12'
_chemical_name_systematic        
"4,4',6,6'-tetranitro[1,1'-biphenyl]-2,2'-dicarboxylic acid"
_symmetry_cell_setting           monoclinic
_symmetry_space_group_name_H-M   'P 21/c'
_symmetry_Int_Tables_number      14
_space_group_name_Hall           '-P 2ybc'
loop_
_symmetry_equiv_pos_site_id
_symmetry_equiv_pos_as_xyz
1 x,y,z
2 -x,1/2+y,1/2-z
3 -x,-y,-z
4 x,1/2-y,1/2+z
_cell_length_a                   11.704(5)
_cell_length_b                   9.149(3)
_cell_length_c                   17.083(5)
_cell_angle_alpha                90
_cell_angle_beta                 116.69(2)
_cell_angle_gamma                90
_cell_volume                     1634.34
_exptl_crystal_colour            yellow
_exptl_crystal_description       needle
_cell_formula_units_Z            4
loop_
_atom_site_label
_atom_site_type_symbol
_atom_site_fract_x
_atom_site_fract_y
_atom_site_fract_z
O1 O 0.38795(17) 0.24659(19) 0.81708(12)
O2 O 0.55771(16) 0.3948(2) 0.87599(13)
H1 H 0.6056 0.2936 0.8870
O3 O 0.44885(18) 0.8344(2) 0.98705(12)
O4 O 0.2849(2) 0.9630(2) 0.90152(14)
O5 O 0.02771(18) 0.7883(2) 0.60861(13)
O6 O 0.00210(19) 0.5543(2) 0.59013(14)
O7 O 0.0754(2) 0.3439(2) 0.75367(14)
O8 O 0.0531(2) 0.1153(2) 0.72026(15)
O9 O 0.15019(19) -0.0630(2) 0.49363(13)
O10 O 0.2686(2) 0.0662(2) 0.45352(13)
O11 O 0.48083(16) 0.50646(19) 0.64816(12)
H2 H 0.5307 0.6019 0.6531
O12 O 0.31172(17) 0.65667(19) 0.60365(13)
N1 N 0.3524(2) 0.8541(2) 0.91835(15)
N2 N 0.0586(2) 0.6616(2) 0.63141(15)
N3 N 0.0886(2) 0.2388(2) 0.71499(14)
N4 N 0.2090(2) 0.0478(2) 0.49577(14)
C1 C 0.4358(2) 0.3691(3) 0.83442(16)
C2 C 0.3545(2) 0.5027(3) 0.81047(16)
C3 C 0.3919(2) 0.6165(3) 0.87035(16)
H3 H 0.4689 0.6102 0.9234
C4 C 0.3159(2) 0.7382(3) 0.85176(16)
C5 C 0.2059(2) 0.7534(3) 0.77405(17)
H4 H 0.1551 0.8393 0.7616
C6 C 0.1725(2) 0.6396(3) 0.71537(16)
C7 C 0.2422(2) 0.5098(3) 0.73135(16)
C8 C 0.2176(2) 0.3917(3) 0.66471(16)
C9 C 0.1514(2) 0.2619(3) 0.65841(16)
C10 C 0.1472(2) 0.1487(3) 0.60441(16)
H5 H 0.1017 0.0614 0.6017
C11 C 0.2116(2) 0.1662(3) 0.55406(16)
C12 C 0.2798(2) 0.2903(3) 0.55817(16)
H6 H 0.3243 0.2996 0.5236
C13 C 0.2823(2) 0.4023(3) 0.61395(16)
C14 C 0.3604(2) 0.5338(3) 0.62065(15)
loop_
_geom_bond_atom_site_label_1
_geom_bond_atom_site_label_2
_geom_bond_site_symmetry_1
_geom_bond_site_symmetry_2
O1 C1 1_555 1_555
O2 H1 1_555 1_555
O3 N1 1_555 1_555
O4 N1 1_555 1_555
O5 N2 1_555 1_555
O6 N2 1_555 1_555
O7 N3 1_555 1_555
O8 N3 1_555 1_555
O9 N4 1_555 1_555
O10 N4 1_555 1_555
O11 H2 1_555 1_555
O12 C14 1_555 1_555
N1 C4 1_555 1_555
N2 C6 1_555 1_555
N3 C9 1_555 1_555
N4 C11 1_555 1_555
C1 O2 1_555 1_555
C2 C1 1_555 1_555
C3 C2 1_555 1_555
H3 C3 1_555 1_555
C4 C3 1_555 1_555
C5 C4 1_555 1_555
H4 C5 1_555 1_555
C6 C5 1_555 1_555
C7 C2 1_555 1_555
C8 C7 1_555 1_555
C9 C8 1_555 1_555
C10 C9 1_555 1_555
H5 C10 1_555 1_555
C11 C10 1_555 1_555
C12 C11 1_555 1_555
H6 C12 1_555 1_555
C13 C8 1_555 1_555
C14 O11 1_555 1_555
C6 C7 1_555 1_555
C12 C13 1_555 1_555
C13 C14 1_555 1_555

#END
