
#######################################################################
#
#                 Cambridge Crystallographic Data Centre
#                                CCDC 
#
#######################################################################
#
# If this CIF has been generated from an entry in the Cambridge 
# Structural Database, then it will include bibliographic, chemical, 
# crystal, experimental, refinement or atomic coordinate data resulting 
# from the CCDC's data processing and validation procedures.
#
#######################################################################

data_FINNEY
_chemical_formula_moiety         'C9 H17 B1 N2 S2'
_chemical_name_systematic        
2-(3-t-butyldithiaboriran-3-ylidene)-1,3-dimethyl-2,3-dihydro-1H-imidazole
_symmetry_cell_setting           triclinic
_symmetry_space_group_name_H-M   'P -1'
_symmetry_Int_Tables_number      2
_space_group_name_Hall           '-P 1'
loop_
_symmetry_equiv_pos_site_id
_symmetry_equiv_pos_as_xyz
1 x,y,z
2 -x,-y,-z
_cell_length_a                   6.4382(20)
_cell_length_b                   9.070(3)
_cell_length_c                   10.891(3)
_cell_angle_alpha                75.737(8)
_cell_angle_beta                 77.099(8)
_cell_angle_gamma                74.734(19)
_cell_volume                     586.026
_exptl_crystal_colour            yellow
_exptl_crystal_description       block
_cell_formula_units_Z            2
loop_
_atom_site_label
_atom_site_type_symbol
_atom_site_fract_x
_atom_site_fract_y
_atom_site_fract_z
S1 S 0.28927(6) 0.21975(4) 0.37422(3)
B1 B 0.5474(3) 0.27448(18) 0.26458(15)
C1 C 0.6569(2) 0.37125(16) 0.32866(13)
N1 N 0.69625(19) 0.51521(14) 0.27867(12)
S2 S 0.27943(6) 0.40112(4) 0.21224(3)
C2 C 0.7061(2) 0.15381(17) 0.17869(14)
N2 N 0.71054(19) 0.33366(14) 0.44736(12)
C3 C 0.8608(3) 0.02940(18) 0.26039(15)
H1 H 0.953819 -0.045139 0.208397
H2 H 0.774724 -0.025728 0.334866
H3 H 0.952441 0.079823 0.289961
C4 C 0.8481(3) 0.23999(19) 0.06555(15)
H4 H 0.943886 0.165563 0.014301
H5 H 0.937054 0.288964 0.098644
H6 H 0.753814 0.320386 0.011595
C5 C 0.5777(3) 0.07110(18) 0.12465(15)
H7 H 0.679286 0.004184 0.068882
H8 H 0.474427 0.149032 0.074836
H9 H 0.497268 0.007256 0.195715
C6 C 0.7686(2) 0.56754(17) 0.36683(15)
H10 H 0.805876 0.665325 0.354891
C7 C 0.7764(2) 0.45426(17) 0.47258(15)
H11 H 0.819049 0.456787 0.549958
C8 C 0.6687(3) 0.60777(18) 0.15083(15)
H12 H 0.804073 0.641635 0.107995
H13 H 0.548928 0.699395 0.158550
H14 H 0.634612 0.544408 0.100117
C9 C 0.7081(3) 0.18556(18) 0.53790(14)
H15 H 0.677034 0.203376 0.625999
H16 H 0.850766 0.114146 0.523590
H17 H 0.594725 0.139687 0.524932
loop_
_geom_bond_atom_site_label_1
_geom_bond_atom_site_label_2
_geom_bond_site_symmetry_1
_geom_bond_site_symmetry_2
S1 B1 1_555 1_555
B1 C1 1_555 1_555
C1 N1 1_555 1_555
N1 C6 1_555 1_555
S2 S1 1_555 1_555
C2 B1 1_555 1_555
N2 C1 1_555 1_555
C3 C2 1_555 1_555
H1 C3 1_555 1_555
H2 C3 1_555 1_555
H3 C3 1_555 1_555
C4 C2 1_555 1_555
H4 C4 1_555 1_555
H5 C4 1_555 1_555
H6 C4 1_555 1_555
C5 C2 1_555 1_555
H7 C5 1_555 1_555
H8 C5 1_555 1_555
H9 C5 1_555 1_555
C6 H10 1_555 1_555
C7 N2 1_555 1_555
H11 C7 1_555 1_555
C8 N1 1_555 1_555
H12 C8 1_555 1_555
H13 C8 1_555 1_555
H14 C8 1_555 1_555
C9 N2 1_555 1_555
H15 C9 1_555 1_555
H16 C9 1_555 1_555
H17 C9 1_555 1_555
B1 S2 1_555 1_555
C6 C7 1_555 1_555

#END
