
#######################################################################
#
#                 Cambridge Crystallographic Data Centre
#                                CCDC 
#
#######################################################################
#
# If this CIF has been generated from an entry in the Cambridge 
# Structural Database, then it will include bibliographic, chemical, 
# crystal, experimental, refinement or atomic coordinate data resulting 
# from the CCDC's data processing and validation procedures.
#
#######################################################################

data_FINNAU
_chemical_name_common            
t-butyl-(1,3-dimethyl-imidazol-2-ylidene)-(diselanato)-boron
_chemical_formula_moiety         'C9 H17 B1 N2 Se2'
_chemical_name_systematic        
2-(3-t-butyldiselenaboriran-3-ylidene)-1,3-dimethyl-2,3-dihydro-1H-imidazole
_symmetry_cell_setting           triclinic
_symmetry_space_group_name_H-M   'P -1'
_symmetry_Int_Tables_number      2
_space_group_name_Hall           '-P 1'
loop_
_symmetry_equiv_pos_site_id
_symmetry_equiv_pos_as_xyz
1 x,y,z
2 -x,-y,-z
_cell_length_a                   6.587(2)
_cell_length_b                   9.123(3)
_cell_length_c                   11.052(4)
_cell_angle_alpha                76.48(3)
_cell_angle_beta                 77.86(3)
_cell_angle_gamma                74.261(19)
_cell_volume                     613.831
_exptl_crystal_colour            purple
_exptl_crystal_description       block
_cell_formula_units_Z            2
loop_
_atom_site_label
_atom_site_type_symbol
_atom_site_fract_x
_atom_site_fract_y
_atom_site_fract_z
Se1 Se 0.27629(3) 0.41419(2) 0.20206(2)
N1 N 0.7113(3) 0.3363(2) 0.44461(17)
C1 C 0.7108(4) 0.1528(2) 0.1781(2)
B1 B 0.5558(4) 0.2746(3) 0.2626(2)
C2 C 0.8624(4) 0.0282(3) 0.2598(2)
H1 H 0.950787 -0.048780 0.209914
H2 H 0.778099 -0.023002 0.333290
H3 H 0.954627 0.077438 0.288006
Se2 Se 0.29040(3) 0.21122(2) 0.37892(2)
N2 N 0.6983(3) 0.5142(2) 0.27852(17)
C3 C 0.8495(4) 0.2361(3) 0.0683(2)
H4 H 0.943949 0.160753 0.018741
H5 H 0.935696 0.284988 0.101755
H6 H 0.757290 0.315628 0.014506
C4 C 0.5876(4) 0.0697(3) 0.1234(2)
H7 H 0.688145 0.002583 0.068940
H8 H 0.485689 0.146638 0.074115
H9 H 0.510353 0.006649 0.192328
C5 C 0.6605(3) 0.3714(2) 0.3270(2)
C6 C 0.7118(4) 0.1906(3) 0.5339(2)
H10 H 0.695617 0.208793 0.619759
H11 H 0.846990 0.115820 0.515313
H12 H 0.592950 0.149412 0.526670
C7 C 0.7664(3) 0.5678(3) 0.3660(2)
H13 H 0.801599 0.664939 0.354710
C8 C 0.7736(3) 0.4573(3) 0.4700(2)
H14 H 0.813944 0.461446 0.546604
C9 C 0.6756(4) 0.6042(3) 0.1522(2)
H15 H 0.801965 0.646378 0.116654
H16 H 0.548061 0.689557 0.156747
H17 H 0.661603 0.537131 0.098405
loop_
_geom_bond_atom_site_label_1
_geom_bond_atom_site_label_2
_geom_bond_site_symmetry_1
_geom_bond_site_symmetry_2
Se1 B1 1_555 1_555
N1 C5 1_555 1_555
C1 B1 1_555 1_555
B1 Se2 1_555 1_555
C2 C1 1_555 1_555
H1 C2 1_555 1_555
H2 C2 1_555 1_555
H3 C2 1_555 1_555
Se2 Se1 1_555 1_555
N2 C5 1_555 1_555
C3 C1 1_555 1_555
H4 C3 1_555 1_555
H5 C3 1_555 1_555
H6 C3 1_555 1_555
C4 C1 1_555 1_555
H7 C4 1_555 1_555
H8 C4 1_555 1_555
H9 C4 1_555 1_555
C5 B1 1_555 1_555
C6 N1 1_555 1_555
H10 C6 1_555 1_555
H11 C6 1_555 1_555
H12 C6 1_555 1_555
C7 N2 1_555 1_555
H13 C7 1_555 1_555
C8 N1 1_555 1_555
H14 C8 1_555 1_555
C9 N2 1_555 1_555
H15 C9 1_555 1_555
H16 C9 1_555 1_555
H17 C9 1_555 1_555
C7 C8 1_555 1_555

#END
