
#######################################################################
#
#                 Cambridge Crystallographic Data Centre
#                                CCDC 
#
#######################################################################
#
# If this CIF has been generated from an entry in the Cambridge 
# Structural Database, then it will include bibliographic, chemical, 
# crystal, experimental, refinement or atomic coordinate data resulting 
# from the CCDC's data processing and validation procedures.
#
#######################################################################

data_FINRAX
_chemical_formula_moiety         'C8 H22 B10 Cl2'
_chemical_name_systematic        
1,2-bis(3-Chloropropyl)-1,2-dicarba-closo-dodecaborane
_symmetry_cell_setting           monoclinic
_symmetry_space_group_name_H-M   'P 21/c'
_symmetry_Int_Tables_number      14
_space_group_name_Hall           '-P 2ybc'
loop_
_symmetry_equiv_pos_site_id
_symmetry_equiv_pos_as_xyz
1 x,y,z
2 -x,1/2+y,1/2-z
3 -x,-y,-z
4 x,1/2-y,1/2+z
_cell_length_a                   13.2081(4)
_cell_length_b                   7.8292(3)
_cell_length_c                   15.9410(7)
_cell_angle_alpha                90
_cell_angle_beta                 90.265(4)
_cell_angle_gamma                90
_cell_volume                     1648.42
_cell_formula_units_Z            4
loop_
_atom_site_label
_atom_site_type_symbol
_atom_site_fract_x
_atom_site_fract_y
_atom_site_fract_z
Cl1 Cl 0.35907(7) 0.79545(13) 0.23552(8)
Cl2 Cl -0.05408(8) 0.28057(13) 0.21224(6)
C1 C 0.0960(2) 0.3290(4) 0.3693(2)
H1 H 0.0900 0.4524 0.3721
H2 H 0.1212 0.3005 0.3140
C2 C 0.29218(18) 0.3434(3) 0.42075(16)
B1 B 0.2591(3) 0.3191(5) 0.5918(2)
H3 H 0.2569 0.3805 0.6538
C3 C 0.4129(2) 0.5426(4) 0.34448(19)
H4 H 0.4121 0.6295 0.3878
H5 H 0.4650 0.4605 0.3592
B2 B 0.3494(3) 0.3757(5) 0.5156(2)
H6 H 0.4066 0.4751 0.5273
C4 C 0.3125(2) 0.4535(4) 0.34349(19)
H7 H 0.3087 0.3817 0.2940
H8 H 0.2594 0.5387 0.3388
C5 C -0.0832(2) 0.3272(5) 0.3183(2)
H9 H -0.0854 0.4501 0.3257
H10 H -0.1498 0.2822 0.3311
B3 B 0.3772(3) 0.1939(5) 0.4543(3)
H11 H 0.4521 0.1746 0.4259
B4 B 0.1473(3) 0.2568(5) 0.5386(2)
H12 H 0.0717 0.2783 0.5653
B5 B 0.2645(3) 0.1309(5) 0.4021(2)
H13 H 0.2654 0.0714 0.3396
B6 B 0.1748(3) 0.0739(5) 0.4780(2)
H14 H 0.1170 -0.0240 0.4653
B7 B 0.3565(3) 0.1741(5) 0.5638(2)
H15 H 0.4180 0.1410 0.6076
B8 B 0.3036(3) 0.0218(5) 0.4930(3)
H16 H 0.3310 -0.1108 0.4905
B9 B 0.2307(3) 0.0978(5) 0.5782(2)
H17 H 0.2103 0.0149 0.6312
C6 C 0.17404(19) 0.2719(3) 0.43416(17)
C7 C 0.4402(2) 0.6247(4) 0.2629(2)
H18 H 0.4378 0.5392 0.2189
H19 H 0.5092 0.6669 0.2665
C8 C -0.0073(2) 0.2530(4) 0.3788(2)
H20 H -0.0306 0.2722 0.4357
H21 H -0.0032 0.1306 0.3700
B10 B 0.2209(2) 0.4271(4) 0.5003(2)
H22 H 0.1935 0.5598 0.5013
loop_
_geom_bond_atom_site_label_1
_geom_bond_atom_site_label_2
_geom_bond_site_symmetry_1
_geom_bond_site_symmetry_2
Cl1 C7 1_555 1_555
Cl2 C5 1_555 1_555
C1 H1 1_555 1_555
H2 C1 1_555 1_555
C2 B2 1_555 1_555
B1 H3 1_555 1_555
C3 H4 1_555 1_555
H5 C3 1_555 1_555
B2 B1 1_555 1_555
H6 B2 1_555 1_555
C4 C2 1_555 1_555
H7 C4 1_555 1_555
H8 C4 1_555 1_555
C5 H9 1_555 1_555
H10 C5 1_555 1_555
B3 C2 1_555 1_555
H11 B3 1_555 1_555
B4 B1 1_555 1_555
H12 B4 1_555 1_555
B5 C2 1_555 1_555
H13 B5 1_555 1_555
B6 B4 1_555 1_555
H14 B6 1_555 1_555
B7 B1 1_555 1_555
H15 B7 1_555 1_555
B8 B3 1_555 1_555
H16 B8 1_555 1_555
B9 B1 1_555 1_555
H17 B9 1_555 1_555
C6 C1 1_555 1_555
C7 C3 1_555 1_555
H18 C7 1_555 1_555
H19 C7 1_555 1_555
C8 C1 1_555 1_555
H20 C8 1_555 1_555
H21 C8 1_555 1_555
B10 C2 1_555 1_555
H22 B10 1_555 1_555
C2 C6 1_555 1_555
B1 B10 1_555 1_555
C3 C4 1_555 1_555
B2 B3 1_555 1_555
B2 B7 1_555 1_555
B2 B10 1_555 1_555
C5 C8 1_555 1_555
B3 B5 1_555 1_555
B3 B7 1_555 1_555
B4 B9 1_555 1_555
B4 C6 1_555 1_555
B4 B10 1_555 1_555
B5 B6 1_555 1_555
B5 B8 1_555 1_555
B5 C6 1_555 1_555
B6 B8 1_555 1_555
B6 B9 1_555 1_555
B6 C6 1_555 1_555
B7 B8 1_555 1_555
B7 B9 1_555 1_555
B8 B9 1_555 1_555
C6 B10 1_555 1_555

#END
