
#######################################################################
#
#                 Cambridge Crystallographic Data Centre
#                                CCDC 
#
#######################################################################
#
# If this CIF has been generated from an entry in the Cambridge 
# Structural Database, then it will include bibliographic, chemical, 
# crystal, experimental, refinement or atomic coordinate data resulting 
# from the CCDC's data processing and validation procedures.
#
#######################################################################

data_FINTEB
_chemical_compound_source        'Culture of dung fungus Poronia punctata'
_chemical_formula_moiety         'C18 H28 O3'
_chemical_name_systematic        'Punctatin E acetonide'
_chemical_properties_biological  'inhibitory agent to Trichomonas vaginalis'
_symmetry_cell_setting           orthorhombic
_symmetry_space_group_name_H-M   'P 21 21 21'
_symmetry_Int_Tables_number      19
_space_group_name_Hall           'P 2ac 2ab'
loop_
_symmetry_equiv_pos_site_id
_symmetry_equiv_pos_as_xyz
1 x,y,z
2 1/2+x,1/2-y,-z
3 -x,1/2+y,1/2-z
4 1/2-x,-y,1/2+z
_cell_length_a                   7.284(1)
_cell_length_b                   11.488(2)
_cell_length_c                   19.823(3)
_cell_angle_alpha                90
_cell_angle_beta                 90
_cell_angle_gamma                90
_cell_volume                     1658.76
_chemical_melting_point          '176 deg.C'
_cell_formula_units_Z            4
_exptl_crystal_preparation       'Sublimes 157-163 deg.C'
loop_
_atom_site_label
_atom_site_type_symbol
_atom_site_fract_x
_atom_site_fract_y
_atom_site_fract_z
O1 O 0.0529(2) -0.0087(1) 0.3114(1)
O2 O -0.3189(2) -0.3913(1) 0.3845(1)
O3 O -0.0689(2) -0.3763(1) 0.3136(1)
C1 C -0.3509(2) -0.1461(2) 0.3013(1)
C2 C -0.3675(3) -0.2286(2) 0.2403(1)
C3 C -0.5268(3) -0.1564(2) 0.3420(1)
C4 C -0.5098(3) -0.2251(2) 0.3950(1)
C5 C -0.3174(2) -0.2703(2) 0.4027(1)
C6 C -0.2046(2) -0.1908(1) 0.3546(1)
C7 C -0.0363(2) -0.2540(1) 0.3257(1)
C8 C -0.1515(2) -0.0839(1) 0.3959(1)
C9 C 0.0073(3) -0.0629(2) 0.4466(1)
C10 C 0.0008(3) 0.0687(2) 0.4246(1)
C11 C -0.1288(5) 0.1397(2) 0.4684(1)
C12 C 0.1864(4) 0.1280(2) 0.4188(1)
C13 C -0.0904(3) 0.0239(1) 0.3574(1)
C14 C -0.2508(3) 0.0752(2) 0.3193(1)
C15 C -0.3194(3) -0.0218(2) 0.2714(1)
C16 C -0.1431(3) -0.4369(2) 0.3697(1)
C17 C -0.1770(4) -0.5605(2) 0.3459(1)
C18 C -0.0141(3) -0.4337(2) 0.4304(1)
H1 H 0.0589(40) 0.0487(24) 0.2800(12)
H2 H -0.2387(3) -0.2239(2) 0.2135(1)
H3 H -0.4776(3) -0.2009(2) 0.2076(1)
H4 H -0.3916(3) -0.3171(2) 0.2564(1)
H5 H -0.6527(3) -0.1121(2) 0.3290(1)
H6 H -0.6211(3) -0.2463(2) 0.4289(1)
H7 H -0.2592(2) -0.2671(2) 0.4527(1)
H8 H 0.0757(2) -0.2456(1) 0.3610(1)
H9 H 0.0009(2) -0.2133(1) 0.2785(1)
H10 H -0.2656(28) -0.0630(17) 0.4195(9)
H11 H -0.0275(3) -0.0787(2) 0.4987(1)
H12 H 0.1338(3) -0.1074(2) 0.4345(1)
H13 H -0.2649(5) 0.1044(2) 0.4755(1)
H14 H -0.1384(5) 0.2230(2) 0.4434(1)
H15 H -0.0632(5) 0.1507(2) 0.5168(1)
H16 H 0.2769(4) 0.0804(2) 0.3856(1)
H17 H 0.2513(4) 0.1386(2) 0.4674(1)
H18 H 0.1578(4) 0.2125(2) 0.3974(1)
H19 H -0.3583(3) 0.1002(2) 0.3539(1)
H20 H -0.2074(3) 0.1503(2) 0.2907(1)
H21 H -0.4486(3) 0.0070(2) 0.2505(1)
H22 H -0.2195(3) -0.0301(2) 0.2314(1)
H23 H -0.0484(4) -0.6031(2) 0.3347(1)
H24 H -0.2606(4) -0.5576(2) 0.3009(1)
H25 H -0.2484(4) -0.6085(2) 0.3848(1)
H26 H -0.0741(3) -0.4872(2) 0.4694(1)
H27 H 0.0049(3) -0.3463(2) 0.4493(1)
H28 H 0.1172(3) -0.4695(2) 0.4159(1)
loop_
_geom_bond_atom_site_label_1
_geom_bond_atom_site_label_2
_geom_bond_site_symmetry_1
_geom_bond_site_symmetry_2
O1 C13 1_555 1_555
O2 C5 1_555 1_555
O3 C7 1_555 1_555
C1 C2 1_555 1_555
C2 H2 1_555 1_555
C3 C1 1_555 1_555
C4 C3 1_555 1_555
C5 C4 1_555 1_555
C6 C1 1_555 1_555
C7 C6 1_555 1_555
C8 C6 1_555 1_555
C9 C8 1_555 1_555
C10 C9 1_555 1_555
C11 C10 1_555 1_555
C12 C10 1_555 1_555
C13 C8 1_555 1_555
C14 C13 1_555 1_555
C15 C1 1_555 1_555
C16 O2 1_555 1_555
C17 C16 1_555 1_555
C18 C16 1_555 1_555
H1 O1 1_555 1_555
H3 C2 1_555 1_555
H4 C2 1_555 1_555
H5 C3 1_555 1_555
H6 C4 1_555 1_555
H7 C5 1_555 1_555
H8 C7 1_555 1_555
H9 C7 1_555 1_555
H10 C8 1_555 1_555
H11 C9 1_555 1_555
H12 C9 1_555 1_555
H13 C11 1_555 1_555
H14 C11 1_555 1_555
H15 C11 1_555 1_555
H16 C12 1_555 1_555
H17 C12 1_555 1_555
H18 C12 1_555 1_555
H19 C14 1_555 1_555
H20 C14 1_555 1_555
H21 C15 1_555 1_555
H22 C15 1_555 1_555
H23 C17 1_555 1_555
H24 C17 1_555 1_555
H25 C17 1_555 1_555
H26 C18 1_555 1_555
H27 C18 1_555 1_555
H28 C18 1_555 1_555
O3 C16 1_555 1_555
C5 C6 1_555 1_555
C10 C13 1_555 1_555
C14 C15 1_555 1_555

#END
