
#######################################################################
#
#                 Cambridge Crystallographic Data Centre
#                                CCDC 
#
#######################################################################
#
# If this CIF has been generated from an entry in the Cambridge 
# Structural Database, then it will include bibliographic, chemical, 
# crystal, experimental, refinement or atomic coordinate data resulting 
# from the CCDC's data processing and validation procedures.
#
#######################################################################

data_FIPCIQ
_chemical_compound_source        Actinomadura
_chemical_name_common            'Iodine-containing compound'
_chemical_formula_moiety         'C16 H19 I1 O7 S1,0.5(H2 O1)'
_chemical_name_systematic        'Calichemicin gamma 1^1^ hemihydrate'
_chemical_properties_biological  'antitumour agent'
_symmetry_cell_setting           monoclinic
_symmetry_space_group_name_H-M   'C 2'
_symmetry_Int_Tables_number      5
_space_group_name_Hall           'C 2y'
loop_
_symmetry_equiv_pos_site_id
_symmetry_equiv_pos_as_xyz
1 x,y,z
2 1/2+x,1/2+y,z
3 -x,y,-z
4 1/2-x,1/2+y,-z
_cell_length_a                   24.414(10)
_cell_length_b                   7.194(6)
_cell_length_c                   12.036(9)
_cell_angle_alpha                90
_cell_angle_beta                 111.92(4)
_cell_angle_gamma                90
_cell_volume                     1961.11
_cell_formula_units_Z            8
loop_
_atom_site_label
_atom_site_type_symbol
_atom_site_fract_x
_atom_site_fract_y
_atom_site_fract_z
I1 I 0.28847(4) 0.8121 0.60813(7)
S1 S 0.3934(1) 0.2757(4) 1.0872(2)
O1 O 0.1796(4) 0.572(1) 0.6040(7)
O2 O 0.1699(3) 0.269(1) 0.7230(7)
O3 O 0.2739(3) 0.099(1) 0.8938(7)
O4 O 0.4203(3) 0.155(2) 0.9044(7)
O5 O 0.4584(3) 0.290(2) 1.3497(6)
O6 O 0.5721(3) -0.114(1) 1.4718(7)
O7 O 0.4970(3) -0.125(1) 1.3021(7)
C1 C 0.2839(4) 0.576(2) 0.7053(9)
C2 C 0.2299(4) 0.496(2) 0.6860(9)
C3 C 0.2260(4) 0.333(2) 0.7478(8)
C4 C 0.2766(4) 0.256(2) 0.8321(9)
C5 C 0.3310(4) 0.336(2) 0.8493(8)
C6 C 0.3383(4) 0.495(2) 0.7885(9)
C7 C 0.1622(6) 0.066(3) 0.6554(13)
C8 C 0.2390(7) 0.122(3) 0.9715(15)
C9 C 0.3971(5) 0.582(2) 0.8085(11)
C10 C 0.3867(4) 0.240(2) 0.9376(9)
C11 C 0.4609(4) 0.153(2) 1.1696(8)
C12 C 0.4953(4) 0.269(2) 1.2796(8)
C13 C 0.5527(4) 0.168(2) 1.3567(9)
C14 C 0.5407(5) -0.030(2) 1.3823(10)
C15 C 0.4456(5) -0.037(2) 1.2080(9)
C16 C 0.4251(5) -0.179(3) 1.1073(11)
O8 O 0.0000 0.094(2) 0.5000
loop_
_geom_bond_atom_site_label_1
_geom_bond_atom_site_label_2
_geom_bond_site_symmetry_1
_geom_bond_site_symmetry_2
I1 C1 1_555 1_555
S1 C10 1_555 1_555
O1 C2 1_555 1_555
O2 C3 1_555 1_555
O3 C4 1_555 1_555
O4 C10 1_555 1_555
O5 C12 1_555 1_555
O6 C14 1_555 1_555
O7 C14 1_555 1_555
C1 C2 1_555 1_555
C2 C3 1_555 1_555
C3 C4 1_555 1_555
C4 C5 1_555 1_555
C5 C6 1_555 1_555
C6 C1 1_555 1_555
C7 O2 1_555 1_555
C8 O3 1_555 1_555
C9 C6 1_555 1_555
C10 C5 1_555 1_555
C11 S1 1_555 1_555
C12 C11 1_555 1_555
C13 C12 1_555 1_555
C14 C13 1_555 1_555
C15 O7 1_555 1_555
C16 C15 1_555 1_555
C11 C15 1_555 1_555

#END
