
#######################################################################
#
#                 Cambridge Crystallographic Data Centre
#                                CCDC 
#
#######################################################################
#
# If this CIF has been generated from an entry in the Cambridge 
# Structural Database, then it will include bibliographic, chemical, 
# crystal, experimental, refinement or atomic coordinate data resulting 
# from the CCDC's data processing and validation procedures.
#
#######################################################################

data_FIPDAL
_chemical_formula_moiety         'C40 H32 Br1 N1 O4 S1,0.75(C1 H2 Cl2)'
_chemical_name_systematic        
'N-((3-(4-Bromophenyl)-1-oxo-8-(2-oxo-2-phenylethyl)-3,3a,8,8a-tetrahydrocyclopenta[a]inden-2(1H)-ylidene)(phenyl)methyl)-4-methylbenzenesulfonamide dichloromethane solvate'
_symmetry_cell_setting           monoclinic
_symmetry_space_group_name_H-M   'P 21/c'
_symmetry_Int_Tables_number      14
_space_group_name_Hall           '-P 2ybc'
loop_
_symmetry_equiv_pos_site_id
_symmetry_equiv_pos_as_xyz
1 x,y,z
2 -x,1/2+y,1/2-z
3 -x,-y,-z
4 x,1/2-y,1/2+z
_cell_length_a                   26.280(2)
_cell_length_b                   7.5560(7)
_cell_length_c                   18.2790(17)
_cell_angle_alpha                90
_cell_angle_beta                 94.759(10)
_cell_angle_gamma                90
_cell_volume                     3617.18
_exptl_crystal_colour            colorless
_exptl_crystal_description       plate
_cell_formula_units_Z            4
loop_
_atom_site_label
_atom_site_type_symbol
_atom_site_fract_x
_atom_site_fract_y
_atom_site_fract_z
Br1 Br 0.49970(3) 0.71986(13) 0.56153(4)
S1 S 0.16886(6) 0.6417(2) 0.64585(7)
O1 O 0.17641(14) 0.3607(5) 0.45653(18)
O2 O 0.11555(14) 0.2943(5) 0.29187(19)
O3 O 0.20463(16) 0.7091(5) 0.70274(19)
O4 O 0.13453(16) 0.5040(5) 0.66291(19)
N1 N 0.20054(19) 0.5541(7) 0.5797(2)
C1 C 0.20853(18) 0.4550(7) 0.4289(2)
C2 C 0.24067(19) 0.5899(7) 0.4681(2)
C3 C 0.2783(2) 0.6671(7) 0.4180(3)
H1 H 0.2669 0.7903 0.4050
C4 C 0.27066(19) 0.5510(7) 0.3461(2)
H2 H 0.2695 0.6313 0.3025
C5 C 0.30629(19) 0.3977(8) 0.3334(2)
C6 C 0.3592(2) 0.3984(9) 0.3328(3)
H3 H 0.3783 0.5013 0.3471
C7 C 0.3837(2) 0.2470(10) 0.3110(3)
H4 H 0.4198 0.2459 0.3105
C8 C 0.3555(2) 0.0960(9) 0.2897(3)
H5 H 0.3727 -0.0078 0.2757
C9 C 0.3030(2) 0.0965(8) 0.2888(3)
H6 H 0.2839 -0.0054 0.2734
C10 C 0.2782(2) 0.2502(7) 0.3111(3)
C11 C 0.2212(2) 0.2807(7) 0.3064(2)
H7 H 0.2102 0.3049 0.2536
C12 C 0.21786(19) 0.4600(7) 0.3480(2)
H8 H 0.1912 0.5360 0.3213
C13 C 0.1894(2) 0.1266(7) 0.3295(3)
H9 H 0.1997 0.0189 0.3036
H10 H 0.1971 0.1066 0.3828
C14 C 0.1328(2) 0.1518(7) 0.3142(2)
C15 C 0.09764(19) 0.0008(7) 0.3232(2)
C16 C 0.0453(2) 0.0288(8) 0.3127(3)
H11 H 0.0326 0.1447 0.3026
C17 C 0.0113(2) -0.1113(9) 0.3170(3)
H12 H -0.0244 -0.0918 0.3091
C18 C 0.0304(3) -0.2815(9) 0.3330(3)
H13 H 0.0075 -0.3780 0.3358
C19 C 0.0820(3) -0.3093(9) 0.3447(3)
H14 H 0.0947 -0.4243 0.3567
C20 C 0.1153(2) -0.1702(8) 0.3391(3)
H15 H 0.1511 -0.1911 0.3462
C21 C 0.3321(2) 0.6779(7) 0.4548(3)
C22 C 0.3593(2) 0.8365(9) 0.4514(3)
H16 H 0.3438 0.9361 0.4270
C23 C 0.4091(2) 0.8491(10) 0.4838(3)
H17 H 0.4279 0.9560 0.4809
C24 C 0.4306(2) 0.7054(9) 0.5197(3)
C25 C 0.4044(2) 0.5506(9) 0.5254(3)
H18 H 0.4199 0.4537 0.5517
C26 C 0.3546(2) 0.5347(9) 0.4924(3)
H19 H 0.3363 0.4269 0.4958
C27 C 0.2339(2) 0.6461(7) 0.5375(2)
C28 C 0.2615(2) 0.7995(7) 0.5706(3)
C29 C 0.2477(2) 0.9681(8) 0.5475(3)
H20 H 0.2202 0.9844 0.5110
C30 C 0.2740(2) 1.1146(8) 0.5780(3)
H21 H 0.2645 1.2306 0.5622
C31 C 0.3142(2) 1.0905(9) 0.6313(3)
H22 H 0.3320 1.1903 0.6521
C32 C 0.3284(2) 0.9226(9) 0.6539(3)
H23 H 0.3564 0.9066 0.6896
C33 C 0.3019(2) 0.7771(8) 0.6249(3)
H24 H 0.3111 0.6617 0.6417
C34 C 0.1345(2) 0.8166(8) 0.6044(3)
C35 C 0.1043(2) 0.7945(8) 0.5386(3)
H25 H 0.1018 0.6818 0.5155
C36 C 0.0781(2) 0.9369(8) 0.5073(3)
H26 H 0.0575 0.9202 0.4626
C37 C 0.0806(2) 1.1016(8) 0.5384(3)
C38 C 0.1098(2) 1.1202(9) 0.6055(4)
H27 H 0.1108 1.2324 0.6290
C39 C 0.1371(2) 0.9819(9) 0.6392(4)
H28 H 0.1571 0.9985 0.6845
C40 C 0.0540(3) 1.2566(9) 0.5018(4)
H29 H 0.0464 1.3441 0.5390
H30 H 0.0221 1.2172 0.4753
H31 H 0.0760 1.3102 0.4672
H32 H 0.185(2) 0.475(8) 0.564(3)
Cl1 Cl 0.44803(13) 0.1525(5) 0.64379(19)
Cl2 Cl 0.53344(16) 0.2783(6) 0.7368(2)
C41 C 0.5101(4) 0.2077(18) 0.6570(6)
H33 H 0.5302 0.1025 0.6447
H34 H 0.5166 0.3003 0.6206
loop_
_geom_bond_atom_site_label_1
_geom_bond_atom_site_label_2
_geom_bond_site_symmetry_1
_geom_bond_site_symmetry_2
Br1 C24 1_555 1_555
S1 O3 1_555 1_555
O1 C1 1_555 1_555
O2 C14 1_555 1_555
O4 S1 1_555 1_555
N1 S1 1_555 1_555
C1 C2 1_555 1_555
C2 C3 1_555 1_555
C3 H1 1_555 1_555
C4 C3 1_555 1_555
H2 C4 1_555 1_555
C5 C4 1_555 1_555
C6 C5 1_555 1_555
H3 C6 1_555 1_555
C7 C6 1_555 1_555
H4 C7 1_555 1_555
C8 C7 1_555 1_555
H5 C8 1_555 1_555
C9 C8 1_555 1_555
H6 C9 1_555 1_555
C10 C5 1_555 1_555
C11 C10 1_555 1_555
H7 C11 1_555 1_555
C12 C1 1_555 1_555
H8 C12 1_555 1_555
C13 C11 1_555 1_555
H9 C13 1_555 1_555
H10 C13 1_555 1_555
C14 C13 1_555 1_555
C15 C14 1_555 1_555
C16 C15 1_555 1_555
H11 C16 1_555 1_555
C17 C16 1_555 1_555
H12 C17 1_555 1_555
C18 C17 1_555 1_555
H13 C18 1_555 1_555
C19 C18 1_555 1_555
H14 C19 1_555 1_555
C20 C15 1_555 1_555
H15 C20 1_555 1_555
C21 C3 1_555 1_555
C22 C21 1_555 1_555
H16 C22 1_555 1_555
C23 C22 1_555 1_555
H17 C23 1_555 1_555
C24 C23 1_555 1_555
C25 C24 1_555 1_555
H18 C25 1_555 1_555
C26 C21 1_555 1_555
H19 C26 1_555 1_555
C27 N1 1_555 1_555
C28 C27 1_555 1_555
C29 C28 1_555 1_555
H20 C29 1_555 1_555
C30 C29 1_555 1_555
H21 C30 1_555 1_555
C31 C30 1_555 1_555
H22 C31 1_555 1_555
C32 C31 1_555 1_555
H23 C32 1_555 1_555
C33 C28 1_555 1_555
H24 C33 1_555 1_555
C34 S1 1_555 1_555
C35 C34 1_555 1_555
H25 C35 1_555 1_555
C36 C35 1_555 1_555
H26 C36 1_555 1_555
C37 C36 1_555 1_555
C38 C37 1_555 1_555
H27 C38 1_555 1_555
C39 C34 1_555 1_555
H28 C39 1_555 1_555
C40 C37 1_555 1_555
H29 C40 1_555 1_555
H30 C40 1_555 1_555
H31 C40 1_555 1_555
H32 N1 1_555 1_555
Cl1 C41 1_555 1_555
Cl2 C41 1_555 1_555
C41 H33 1_555 1_555
H34 C41 1_555 1_555
C2 C27 1_555 1_555
C4 C12 1_555 1_555
C9 C10 1_555 1_555
C11 C12 1_555 1_555
C19 C20 1_555 1_555
C25 C26 1_555 1_555
C32 C33 1_555 1_555
C38 C39 1_555 1_555

#END
