
#######################################################################
#
#                 Cambridge Crystallographic Data Centre
#                                CCDC 
#
#######################################################################
#
# If this CIF has been generated from an entry in the Cambridge 
# Structural Database, then it will include bibliographic, chemical, 
# crystal, experimental, refinement or atomic coordinate data resulting 
# from the CCDC's data processing and validation procedures.
#
#######################################################################

data_FIPHOC
_chemical_formula_moiety         'C18 H17 N1 O2'
_chemical_name_systematic        1-Hydroxy-2-(N,N-diphenylamino)hexen-3-one
_symmetry_cell_setting           monoclinic
_symmetry_space_group_name_H-M   'P 21/c'
_symmetry_Int_Tables_number      14
_space_group_name_Hall           '-P 2ybc'
loop_
_symmetry_equiv_pos_site_id
_symmetry_equiv_pos_as_xyz
1 x,y,z
2 -x,1/2+y,1/2-z
3 -x,-y,-z
4 x,1/2-y,1/2+z
_cell_length_a                   18.257(4)
_cell_length_b                   21.492(4)
_cell_length_c                   16.216(3)
_cell_angle_alpha                90
_cell_angle_beta                 111.79(3)
_cell_angle_gamma                90
_cell_volume                     5908.21
_exptl_crystal_colour            colorless
_exptl_crystal_description       prism
_cell_formula_units_Z            16
loop_
_atom_site_label
_atom_site_type_symbol
_atom_site_fract_x
_atom_site_fract_y
_atom_site_fract_z
N1 N 0.00993(15) 0.38675(11) 0.31958(16)
C1 C 0.0349(2) 0.49059(14) 0.3902(2)
O1 O -0.03239(14) 0.50641(10) 0.34284(16)
C2 C 0.06298(18) 0.42886(14) 0.38134(19)
O2 O 0.16740(13) 0.35590(10) 0.42652(14)
H1 H 0.1316 0.3328 0.3930
C3 C 0.13800(18) 0.41181(14) 0.4298(2)
C4 C 0.1972(2) 0.45409(15) 0.4935(2)
C5 C 0.1717(15) 0.5207(11) 0.4962(14)
C7 C 0.0880(2) 0.53324(18) 0.4602(3)
C8 C 0.0054(2) 0.38686(15) 0.2307(2)
C9 C 0.0507(2) 0.42809(18) 0.2032(2)
H4 H 0.0832 0.4581 0.2433
C10 C 0.0480(3) 0.4247(2) 0.1159(3)
H6 H 0.0793 0.4525 0.0972
C11 C 0.0010(4) 0.3823(3) 0.0570(3)
H7 H -0.0008 0.3803 -0.0022
C12 C -0.0438(4) 0.3425(3) 0.0856(3)
H8 H -0.0773 0.3134 0.0449
C13 C -0.0412(3) 0.34377(19) 0.1710(2)
H9 H -0.0716 0.3149 0.1893
C14 C -0.0540(2) 0.36393(14) 0.3413(2)
C15 C -0.1314(2) 0.38001(18) 0.2937(3)
H10 H -0.1434 0.4065 0.2434
C16 C -0.1909(3) 0.3583(2) 0.3179(4)
H11 H -0.2438 0.3704 0.2846
C17 C -0.1761(3) 0.3202(2) 0.3877(4)
H12 H -0.2181 0.3028 0.4015
C18 C -0.1003(4) 0.3071(2) 0.4380(4)
H13 H -0.0889 0.2833 0.4907
C19 C -0.0384(3) 0.3276(2) 0.4145(3)
H14 H 0.0144 0.3163 0.4494
N2 N 0.44920(14) 0.36589(11) 0.70435(16)
O3 O 0.40194(15) 0.24458(10) 0.72107(15)
O4 O 0.41409(15) 0.40176(11) 0.52535(15)
H2 H 0.4343 0.4230 0.5718
C20 C 0.39041(19) 0.26374(15) 0.6453(2)
C21 C 0.41189(17) 0.32592(13) 0.63025(19)
C22 C 0.39629(18) 0.34619(14) 0.5461(2)
C23 C 0.3544(2) 0.30747(16) 0.4648(2)
C25 C 0.3100(4) 0.2479(3) 0.4884(5)
C26 C 0.3540(3) 0.22064(18) 0.5670(2)
C27 C 0.52998(18) 0.35738(14) 0.7562(2)
C28 C 0.57542(19) 0.31493(15) 0.7320(2)
H15 H 0.5520 0.2903 0.6802
C29 C 0.6549(2) 0.30825(17) 0.7832(3)
H16 H 0.6855 0.2788 0.7661
C30 C 0.6903(2) 0.34339(19) 0.8582(3)
H17 H 0.7448 0.3383 0.8929
C31 C 0.6461(2) 0.38591(18) 0.8822(2)
H18 H 0.6701 0.4105 0.9339
C32 C 0.56646(19) 0.39334(15) 0.8316(2)
H19 H 0.5366 0.4233 0.8487
C33 C 0.39881(18) 0.39438(14) 0.7442(2)
C34 C 0.3925(2) 0.37085(17) 0.8206(2)
H20 H 0.4208 0.3344 0.8473
C35 C 0.3452(3) 0.4002(2) 0.8583(3)
H21 H 0.3422 0.3842 0.9115
C36 C 0.3025(2) 0.4521(2) 0.8196(3)
H22 H 0.2696 0.4718 0.8455
C37 C 0.3078(2) 0.4750(2) 0.7434(3)
H23 H 0.2781 0.5108 0.7160
C38 C 0.3564(2) 0.44646(17) 0.7057(2)
H24 H 0.3601 0.4631 0.6532
N3 N 0.48860(14) 0.38693(11) 0.30015(16)
O5 O 0.52178(15) 0.50464(10) 0.37564(18)
O6 O 0.32803(13) 0.35409(10) 0.24383(14)
H3 H 0.3664 0.3313 0.2472
C39 C 0.4531(2) 0.48614(15) 0.3539(2)
C40 C 0.43080(17) 0.42618(13) 0.31260(19)
C41 C 0.35439(18) 0.40784(14) 0.2836(2)
C42 C 0.2892(2) 0.44666(15) 0.2923(2)
C43 C 0.3149(10) 0.5069(8) 0.3383(10)
C45 C 0.3931(2) 0.52588(17) 0.3717(3)
C46 C 0.54466(18) 0.35697(14) 0.3778(2)
C47 C 0.5264(2) 0.29923(17) 0.4024(2)
H25 H 0.4777 0.2800 0.3684
C48 C 0.5787(2) 0.26937(19) 0.4765(3)
H26 H 0.5656 0.2299 0.4935
C49 C 0.6496(2) 0.29673(17) 0.5254(2)
H27 H 0.6852 0.2766 0.5767
C50 C 0.6685(2) 0.35335(17) 0.4995(2)
H28 H 0.7178 0.3721 0.5326
C51 C 0.6163(2) 0.38307(15) 0.4259(2)
H29 H 0.6302 0.4221 0.4083
C52 C 0.50721(18) 0.39337(14) 0.2238(2)
C53 C 0.56665(19) 0.35815(15) 0.2129(2)
H30 H 0.5967 0.3304 0.2584
C54 C 0.5822(2) 0.36331(18) 0.1365(2)
H31 H 0.6234 0.3391 0.1302
C55 C 0.5399(3) 0.40246(19) 0.0694(3)
H32 H 0.5509 0.4052 0.0167
C56 C 0.4810(2) 0.43789(17) 0.0795(2)
H33 H 0.4513 0.4655 0.0336
C57 C 0.4648(2) 0.43360(15) 0.1557(2)
H34 H 0.4240 0.4584 0.1618
N4 N 0.07451(13) 0.37205(11) 0.78785(16)
O7 O 0.10452(13) 0.24656(9) 0.84222(14)
O8 O 0.12314(14) 0.40289(10) 0.64813(15)
H5 H 0.0909 0.4218 0.6650
C58 C 0.12751(17) 0.26547(14) 0.7836(2)
C59 C 0.11488(16) 0.32917(13) 0.7524(2)
C60 C 0.13838(18) 0.34784(14) 0.6862(2)
C61 C 0.1853(2) 0.30807(15) 0.6475(2)
C63 C 0.1906(10) 0.2462(9) 0.6721(12)
C64 C 0.1698(2) 0.22140(15) 0.7444(2)
C65 C 0.12110(17) 0.40658(14) 0.8662(2)
C66 C 0.1660(2) 0.37667(16) 0.9436(2)
H35 H 0.1672 0.3325 0.9457
C67 C 0.2092(2) 0.41061(18) 1.0181(2)
H36 H 0.2402 0.3895 1.0711
C68 C 0.2079(2) 0.47453(16) 1.0164(2)
H37 H 0.2380 0.4978 1.0676
C69 C 0.1624(2) 0.50430(16) 0.9395(2)
H38 H 0.1607 0.5485 0.9377
C70 C 0.1194(2) 0.47072(15) 0.8652(2)
H39 H 0.0882 0.4919 0.8125
C71 C -0.00695(17) 0.36553(13) 0.7666(2)
C72 C -0.04595(18) 0.39780(16) 0.8125(2)
H40 H -0.0173 0.4251 0.8594
C73 C -0.1264(2) 0.39022(18) 0.7900(2)
H41 H -0.1521 0.4124 0.8222
C74 C -0.1695(2) 0.35146(17) 0.7225(2)
H42 H -0.2245 0.3463 0.7082
C75 C -0.1315(2) 0.32006(17) 0.6756(3)
H43 H -0.1609 0.2935 0.6279
C76 C -0.05166(18) 0.32678(15) 0.6973(2)
H44 H -0.0265 0.3046 0.6644
C6? C 0.1740(5) 0.5221(3) 0.4715(6)
C24? C 0.3665(4) 0.2421(3) 0.4837(4)
C44? C 0.3111(3) 0.5154(3) 0.3003(4)
C62? C 0.1611(4) 0.2383(3) 0.6490(4)
loop_
_geom_bond_atom_site_label_1
_geom_bond_atom_site_label_2
_geom_bond_site_symmetry_1
_geom_bond_site_symmetry_2
N1 C2 1_555 1_555
C1 O1 1_555 1_555
C2 C1 1_555 1_555
O2 H1 1_555 1_555
N2 C21 1_555 1_555
C3 C2 1_555 1_555
O3 C20 1_555 1_555
N3 C40 1_555 1_555
C4 C3 1_555 1_555
O4 H2 1_555 1_555
N4 C59 1_555 1_555
C5 C4 1_555 1_555
O5 C39 1_555 1_555
C7 C1 1_555 1_555
O6 H3 1_555 1_555
C8 N1 1_555 1_555
O7 C58 1_555 1_555
C9 C8 1_555 1_555
H4 C9 1_555 1_555
O8 H5 1_555 1_555
C10 C9 1_555 1_555
H6 C10 1_555 1_555
C11 C10 1_555 1_555
H7 C11 1_555 1_555
C12 C11 1_555 1_555
H8 C12 1_555 1_555
C13 C8 1_555 1_555
H9 C13 1_555 1_555
C14 N1 1_555 1_555
C15 C14 1_555 1_555
H10 C15 1_555 1_555
C16 C15 1_555 1_555
H11 C16 1_555 1_555
C17 C16 1_555 1_555
H12 C17 1_555 1_555
C18 C17 1_555 1_555
H13 C18 1_555 1_555
C19 C14 1_555 1_555
H14 C19 1_555 1_555
C20 C21 1_555 1_555
C21 C22 1_555 1_555
C22 O4 1_555 1_555
C23 C22 1_555 1_555
C25 C23 1_555 1_555
C26 C20 1_555 1_555
C27 N2 1_555 1_555
C28 C27 1_555 1_555
H15 C28 1_555 1_555
C29 C28 1_555 1_555
H16 C29 1_555 1_555
C30 C29 1_555 1_555
H17 C30 1_555 1_555
C31 C30 1_555 1_555
H18 C31 1_555 1_555
C32 C27 1_555 1_555
H19 C32 1_555 1_555
C33 N2 1_555 1_555
C34 C33 1_555 1_555
H20 C34 1_555 1_555
C35 C34 1_555 1_555
H21 C35 1_555 1_555
C36 C35 1_555 1_555
H22 C36 1_555 1_555
C37 C36 1_555 1_555
H23 C37 1_555 1_555
C38 C33 1_555 1_555
H24 C38 1_555 1_555
C39 C40 1_555 1_555
C40 C41 1_555 1_555
C41 O6 1_555 1_555
C42 C41 1_555 1_555
C43 C42 1_555 1_555
C45 C39 1_555 1_555
C46 N3 1_555 1_555
C47 C46 1_555 1_555
H25 C47 1_555 1_555
C48 C47 1_555 1_555
H26 C48 1_555 1_555
C49 C48 1_555 1_555
H27 C49 1_555 1_555
C50 C49 1_555 1_555
H28 C50 1_555 1_555
C51 C46 1_555 1_555
H29 C51 1_555 1_555
C52 N3 1_555 1_555
C53 C52 1_555 1_555
H30 C53 1_555 1_555
C54 C53 1_555 1_555
H31 C54 1_555 1_555
C55 C54 1_555 1_555
H32 C55 1_555 1_555
C56 C55 1_555 1_555
H33 C56 1_555 1_555
C57 C52 1_555 1_555
H34 C57 1_555 1_555
C58 C59 1_555 1_555
C59 C60 1_555 1_555
C60 O8 1_555 1_555
C61 C60 1_555 1_555
C63 C61 1_555 1_555
C64 C58 1_555 1_555
C65 N4 1_555 1_555
C66 C65 1_555 1_555
H35 C66 1_555 1_555
C67 C66 1_555 1_555
H36 C67 1_555 1_555
C68 C67 1_555 1_555
H37 C68 1_555 1_555
C69 C68 1_555 1_555
H38 C69 1_555 1_555
C70 C65 1_555 1_555
H39 C70 1_555 1_555
C71 N4 1_555 1_555
C72 C71 1_555 1_555
H40 C72 1_555 1_555
C73 C72 1_555 1_555
H41 C73 1_555 1_555
C74 C73 1_555 1_555
H42 C74 1_555 1_555
C75 C74 1_555 1_555
H43 C75 1_555 1_555
C76 C71 1_555 1_555
H44 C76 1_555 1_555
O2 C3 1_555 1_555
C5 C7 1_555 1_555
C12 C13 1_555 1_555
C18 C19 1_555 1_555
C25 C26 1_555 1_555
C31 C32 1_555 1_555
C37 C38 1_555 1_555
C43 C45 1_555 1_555
C50 C51 1_555 1_555
C56 C57 1_555 1_555
C63 C64 1_555 1_555
C69 C70 1_555 1_555
C75 C76 1_555 1_555

#END
