
#######################################################################
#
#                 Cambridge Crystallographic Data Centre
#                                CCDC 
#
#######################################################################
#
# If this CIF has been generated from an entry in the Cambridge 
# Structural Database, then it will include bibliographic, chemical, 
# crystal, experimental, refinement or atomic coordinate data resulting 
# from the CCDC's data processing and validation procedures.
#
#######################################################################

data_FIPLEY
_chemical_formula_moiety         'C3 H8 N6 O1 2+,2(Cl1 1-)'
_chemical_name_systematic        
'2-(5-iminio-4,5-dihydro-1H-1,2,4-triazole-3-carbonyl)hydrazinium dichloride'
_symmetry_cell_setting           monoclinic
_symmetry_space_group_name_H-M   'P 21/c'
_symmetry_Int_Tables_number      14
_space_group_name_Hall           '-P 2ybc'
loop_
_symmetry_equiv_pos_site_id
_symmetry_equiv_pos_as_xyz
1 x,y,z
2 -x,1/2+y,1/2-z
3 -x,-y,-z
4 x,1/2-y,1/2+z
_cell_length_a                   12.0906(3)
_cell_length_b                   4.70700(10)
_cell_length_c                   14.6257(4)
_cell_angle_alpha                90
_cell_angle_beta                 91.7100(10)
_cell_angle_gamma                90
_cell_volume                     831.985
_exptl_crystal_colour            colorless
_exptl_crystal_description       prismatic
_cell_formula_units_Z            4
loop_
_atom_site_label
_atom_site_type_symbol
_atom_site_fract_x
_atom_site_fract_y
_atom_site_fract_z
Cl1 Cl 0.35004(3) 0.01350(7) 0.41972(2)
Cl2 Cl 0.10534(3) 0.79058(7) 0.58253(2)
N1 N 0.27940(10) 0.1139(3) 0.16799(8)
N2 N 0.43673(10) 0.3209(3) 0.18001(8)
N3 N 0.36809(10) 0.4724(3) 0.23559(8)
N4 N 0.17369(10) 0.6300(3) 0.32864(8)
N5 N 0.07605(10) 0.6952(3) 0.37577(8)
N6 N 0.42614(12) -0.0791(3) 0.08169(9)
O1 O 0.09152(8) 0.2408(2) 0.26579(7)
C1 C 0.38349(11) 0.1064(3) 0.13849(9)
C2 C 0.27453(11) 0.3393(3) 0.22656(9)
C3 C 0.17138(11) 0.3980(3) 0.27571(9)
H1 H 0.0922(16) 0.728(4) 0.4364(15)
H2 H 0.3879(17) -0.193(4) 0.0532(14)
H3 H 0.2293(17) 0.721(4) 0.3434(13)
H4 H 0.0434(16) 0.846(5) 0.3525(13)
H5 H 0.2282(17) 0.005(4) 0.1510(13)
H6 H 0.0301(19) 0.553(5) 0.3739(15)
H7 H 0.4966(13) 0.379(4) 0.1656(12)
H8 H 0.493(2) -0.086(5) 0.0795(15)
loop_
_geom_bond_atom_site_label_1
_geom_bond_atom_site_label_2
_geom_bond_site_symmetry_1
_geom_bond_site_symmetry_2
N1 C1 1_555 1_555
N2 N3 1_555 1_555
N3 C2 1_555 1_555
N4 N5 1_555 1_555
N5 H1 1_555 1_555
N6 C1 1_555 1_555
O1 C3 1_555 1_555
C1 N2 1_555 1_555
C2 N1 1_555 1_555
C3 N4 1_555 1_555
H2 N6 1_555 1_555
H3 N4 1_555 1_555
H4 N5 1_555 1_555
H5 N1 1_555 1_555
H6 N5 1_555 1_555
H7 N2 1_555 1_555
H8 N6 1_555 1_555
C2 C3 1_555 1_555

#END
