
#######################################################################
#
#                 Cambridge Crystallographic Data Centre
#                                CCDC 
#
#######################################################################
#
# If this CIF has been generated from an entry in the Cambridge 
# Structural Database, then it will include bibliographic, chemical, 
# crystal, experimental, refinement or atomic coordinate data resulting 
# from the CCDC's data processing and validation procedures.
#
#######################################################################

data_FIPLUO
_chemical_formula_moiety         'C6 H2 N3 O9 1-,C3 H7 N6 O1 1+'
_chemical_name_systematic        
'2-(5-amino-4H-1,2,4-triazole-3-carbonyl)hydrazinium 3,5-dihydroxy-2,4,6-trinitrophenolate'
_symmetry_cell_setting           triclinic
_symmetry_space_group_name_H-M   'P -1'
_symmetry_Int_Tables_number      2
_space_group_name_Hall           '-P 1'
loop_
_symmetry_equiv_pos_site_id
_symmetry_equiv_pos_as_xyz
1 x,y,z
2 -x,-y,-z
_cell_length_a                   7.251(2)
_cell_length_b                   8.401(2)
_cell_length_c                   12.141(4)
_cell_angle_alpha                96.687(16)
_cell_angle_beta                 98.317(19)
_cell_angle_gamma                93.39(3)
_cell_volume                     724.645
_exptl_crystal_colour            colorless
_exptl_crystal_description       block
_cell_formula_units_Z            2
loop_
_atom_site_label
_atom_site_type_symbol
_atom_site_fract_x
_atom_site_fract_y
_atom_site_fract_z
O1 O 0.9405(3) 0.3670(2) 0.40640(16)
O2 O 0.8880(2) 0.1779(2) 0.26678(15)
O3 O 0.7272(3) 0.3981(2) 0.55039(15)
H1 H 0.820133 0.419264 0.521980
O4 O 0.5350(3) 0.2836(2) 0.71015(15)
O5 O 0.2630(3) 0.3528(2) 0.64028(16)
O6 O 0.1657(2) 0.0765(2) 0.49250(16)
O7 O 0.0790(2) -0.1065(2) 0.31464(16)
O8 O 0.2003(3) -0.0628(3) 0.16808(16)
O9 O 0.5465(2) 0.0523(2) 0.20196(15)
N1 N 0.8333(3) 0.2550(2) 0.34664(18)
N2 N 0.2037(3) -0.0367(3) 0.27033(18)
N3 N 0.4134(3) 0.2959(2) 0.63045(17)
C1 C 0.6527(3) 0.2195(3) 0.3753(2)
C2 C 0.6140(3) 0.2880(3) 0.4815(2)
C3 C 0.4470(3) 0.2374(3) 0.5169(2)
C4 C 0.3141(3) 0.1262(3) 0.4488(2)
C5 C 0.3430(3) 0.0704(3) 0.3391(2)
C6 C 0.5176(3) 0.1096(3) 0.2965(2)
H2 H 0.109(5) 0.005(4) 0.443(3)
O10 O 0.9362(2) 0.2865(2) 0.02503(15)
N4 N 1.0911(3) 0.5244(3) 0.18976(19)
H3 H 1.121627 0.624561 0.178098
H4 H 1.150651 0.456262 0.148310
H5 H 1.123891 0.514307 0.261989
N5 N 0.8959(3) 0.4894(2) 0.15936(17)
H6 H 0.818385 0.545834 0.191036
N6 N 0.5128(3) 0.4027(2) 0.11660(17)
N7 N 0.3391(3) 0.3293(2) 0.06992(17)
N8 N 0.5384(3) 0.2114(2) -0.02169(18)
N9 N 0.2168(3) 0.1182(3) -0.07684(18)
H7 H 0.103282 0.127313 -0.065643
H8 H 0.241167 0.047377 -0.128751
C7 C 0.8355(3) 0.3664(3) 0.08007(19)
C8 C 0.6290(3) 0.3293(3) 0.06023(19)
C9 C 0.3541(3) 0.2131(3) -0.0142(2)
H9 H 0.577(4) 0.147(3) -0.064(2)
loop_
_geom_bond_atom_site_label_1
_geom_bond_atom_site_label_2
_geom_bond_site_symmetry_1
_geom_bond_site_symmetry_2
O1 N1 1_555 1_555
O2 N1 1_555 1_555
O3 H1 1_555 1_555
O4 N3 1_555 1_555
O5 N3 1_555 1_555
O6 C4 1_555 1_555
O7 N2 1_555 1_555
O8 N2 1_555 1_555
O9 C6 1_555 1_555
N1 C1 1_555 1_555
N2 C5 1_555 1_555
N3 C3 1_555 1_555
C1 C2 1_555 1_555
C2 O3 1_555 1_555
C3 C2 1_555 1_555
C4 C3 1_555 1_555
C5 C4 1_555 1_555
C6 C1 1_555 1_555
H2 O6 1_555 1_555
O10 C7 1_555 1_555
N4 H3 1_555 1_555
H4 N4 1_555 1_555
H5 N4 1_555 1_555
N5 N4 1_555 1_555
H6 N5 1_555 1_555
N6 N7 1_555 1_555
N7 C9 1_555 1_555
N8 C8 1_555 1_555
N9 H7 1_555 1_555
H8 N9 1_555 1_555
C7 N5 1_555 1_555
C8 N6 1_555 1_555
C9 N8 1_555 1_555
H9 N8 1_555 1_555
C5 C6 1_555 1_555
N9 C9 1_555 1_555
C7 C8 1_555 1_555

#END
