
#######################################################################
#
#                 Cambridge Crystallographic Data Centre
#                                CCDC 
#
#######################################################################
#
# If this CIF has been generated from an entry in the Cambridge 
# Structural Database, then it will include bibliographic, chemical, 
# crystal, experimental, refinement or atomic coordinate data resulting 
# from the CCDC's data processing and validation procedures.
#
#######################################################################

data_FIPMAV
_chemical_formula_moiety         'C3 H8 N6 O1 2+,2(N1 O3 1-),0.75(H2 O1)'
_chemical_name_systematic        
'2-(5-iminio-4,5-dihydro-1H-1,2,4-triazole-3-carbonyl)hydrazinium dinitrate hydrate'
_symmetry_cell_setting           triclinic
_symmetry_space_group_name_H-M   'P -1'
_symmetry_Int_Tables_number      2
_space_group_name_Hall           '-P 1'
loop_
_symmetry_equiv_pos_site_id
_symmetry_equiv_pos_as_xyz
1 x,y,z
2 -x,-y,-z
_cell_length_a                   8.1276(2)
_cell_length_b                   11.7571(3)
_cell_length_c                   12.4802(3)
_cell_angle_alpha                68.1870(10)
_cell_angle_beta                 73.4280(10)
_cell_angle_gamma                85.5050(10)
_cell_volume                     1060.68
_exptl_crystal_colour            colorless
_exptl_crystal_description       prismatic
_cell_formula_units_Z            4
loop_
_atom_site_label
_atom_site_type_symbol
_atom_site_fract_x
_atom_site_fract_y
_atom_site_fract_z
N1 N 0.2991(2) -0.01413(15) 0.33221(14)
H1 H 0.277065 -0.051881 0.290389
N2 N 0.4155(2) 0.12101(16) 0.37628(15)
N3 N 0.3024(2) 0.04235(16) 0.47626(15)
H2 H 0.279559 0.045610 0.546695
N4 N 0.1204(3) -0.12827(17) 0.52572(16)
H3 H 0.084918 -0.137672 0.600416
H4 H 0.082656 -0.176815 0.500195
N5 N 0.6161(2) 0.23040(16) 0.13699(15)
H5 H 0.621043 0.258777 0.190373
N6 N 0.7172(2) 0.28359(17) 0.01651(15)
H6 H 0.8142(9) 0.296(3) 0.032(3)
H7 H 0.720(6) 0.2259(10) -0.0153(7)
H8 H 0.665(3) 0.3554(15) -0.0063(10)
O1 O 0.5052(2) 0.08730(14) 0.09376(13)
C1 C 0.4094(2) 0.08414(18) 0.29171(17)
C2 C 0.2320(2) -0.04003(18) 0.45081(17)
C3 C 0.5126(2) 0.13462(18) 0.16497(17)
N7 N 0.6541(2) 0.44010(15) 0.63866(15)
H12 H 0.674368 0.478303 0.680665
N8 N 0.5435(2) 0.30264(16) 0.59387(15)
N9 N 0.6517(2) 0.38396(16) 0.49385(15)
H13 H 0.673026 0.382008 0.422997
N10 N 0.8293(3) 0.55763(17) 0.44516(17)
H14 H 0.864074 0.568452 0.370104
H15 H 0.865855 0.606118 0.471310
N11 N 0.3500(2) 0.18633(16) 0.83226(15)
H16 H 0.339413 0.163658 0.776432
N12 N 0.2591(2) 0.12464(16) 0.95359(15)
H17 H 0.333130 0.097081 0.997453
H18 H 0.198221 0.061813 0.959491
H19 H 0.188720 0.176160 0.980286
O2 O 0.47205(19) 0.31869(14) 0.88225(13)
C4 C 0.5475(2) 0.33945(17) 0.67920(17)
C5 C 0.7209(3) 0.46738(18) 0.51960(18)
C6 C 0.4532(2) 0.28147(17) 0.80748(17)
N13 N 0.7664(2) 0.45113(16) 0.19746(16)
O3 O 0.7965(3) 0.46763(16) 0.08997(15)
O4 O 0.6834(3) 0.35573(16) 0.27550(15)
O5 O 0.8129(3) 0.52804(16) 0.22871(16)
N14 N 0.8804(2) 0.20591(17) 0.75947(16)
O6 O 0.9288(2) 0.22508(18) 0.65090(15)
O7 O 0.7632(2) 0.12727(18) 0.82394(17)
O8 O 0.9438(3) 0.2648(2) 0.80145(18)
N15 N 0.8345(3) 0.63907(19) 0.71538(19)
O9 O 0.7330(3) 0.5504(2) 0.7774(2)
O10 O 0.8978(3) 0.6572(2) 0.60878(19)
O11 O 0.8720(3) 0.7081(2) 0.75946(19)
N16 N 0.1300(2) 0.98383(15) 0.78048(14)
O12 O 0.0467(2) 0.92802(16) 0.74604(15)
O13 O 0.0926(2) 0.97060(15) 0.88909(13)
O14 O 0.2549(2) 1.05388(14) 0.70709(13)
O15 O 0.9434(2) 0.70791(15) 0.97296(16)
H20 H 0.913(4) 0.634(3) 1.017(3)
H21 H 0.943(4) 0.706(3) 0.906(3)
O16 O 0.500000 0.500000 0.000000
H22 H 0.451(2) 0.487(7) 0.0782(17)
H22A H 0.549(2) 0.513(7) -0.0782(17)
H9? H 0.764(3) 0.3587(10) -0.0073(7)
H10? H 0.8205(5) 0.2521(8) -0.0044(3)
H11? H 0.6662(9) 0.2879(17) -0.0401(9)
H23? H 0.578(2) 0.506(2) 0.036(3)
loop_
_geom_bond_atom_site_label_1
_geom_bond_atom_site_label_2
_geom_bond_site_symmetry_1
_geom_bond_site_symmetry_2
N1 H1 1_555 1_555
N2 N3 1_555 1_555
N3 H2 1_555 1_555
N4 H3 1_555 1_555
H4 N4 1_555 1_555
N5 H5 1_555 1_555
N6 N5 1_555 1_555
H6 N6 1_555 1_555
H7 N6 1_555 1_555
H8 N6 1_555 1_555
O1 C3 1_555 1_555
C1 N1 1_555 1_555
C2 N1 1_555 1_555
C3 N5 1_555 1_555
N7 H12 1_555 1_555
N8 N9 1_555 1_555
N9 H13 1_555 1_555
N10 H14 1_555 1_555
H15 N10 1_555 1_555
N11 H16 1_555 1_555
N12 N11 1_555 1_555
H17 N12 1_555 1_555
H18 N12 1_555 1_555
H19 N12 1_555 1_555
O2 C6 1_555 1_555
C4 N7 1_555 1_555
C5 N7 1_555 1_555
C6 N11 1_555 1_555
N13 O3 1_555 1_555
O4 N13 1_555 1_555
O5 N13 1_555 1_555
N14 O6 1_555 1_555
O7 N14 1_555 1_555
O8 N14 1_555 1_555
N15 O9 1_555 1_555
O10 N15 1_555 1_555
O11 N15 1_555 1_555
N16 O12 1_555 1_555
O13 N16 1_555 1_555
O14 N16 1_555 1_555
O15 H20 1_555 1_555
H21 O15 1_555 1_555
O16 H22 1_555 1_555
H22A O16 1_555 1_555
N2 C1 1_555 1_555
N3 C2 1_555 1_555
N4 C2 1_555 1_555
C1 C3 1_555 1_555
N8 C4 1_555 1_555
N9 C5 1_555 1_555
N10 C5 1_555 1_555
C4 C6 1_555 1_555

#END
