
#######################################################################
#
#                 Cambridge Crystallographic Data Centre
#                                CCDC 
#
#######################################################################
#
# If this CIF has been generated from an entry in the Cambridge 
# Structural Database, then it will include bibliographic, chemical, 
# crystal, experimental, refinement or atomic coordinate data resulting 
# from the CCDC's data processing and validation procedures.
#
#######################################################################

data_FIPPIF
_chemical_formula_moiety         'C19 H23 N1 O4 S2'
_chemical_name_systematic        
'Ethyl 4-(bis(ethylsulfanyl)methylene)-1-formyl-5-hydroxy-5-phenyl-4,5-dihydro-1H-pyrrole-2-carboxylate'
_symmetry_cell_setting           triclinic
_symmetry_space_group_name_H-M   'P -1'
_symmetry_Int_Tables_number      2
_space_group_name_Hall           '-P 1'
loop_
_symmetry_equiv_pos_site_id
_symmetry_equiv_pos_as_xyz
1 x,y,z
2 -x,-y,-z
_cell_length_a                   8.6230(6)
_cell_length_b                   10.8704(7)
_cell_length_c                   10.8806(7)
_cell_angle_alpha                81.7010(10)
_cell_angle_beta                 86.1890(10)
_cell_angle_gamma                78.4900(10)
_cell_volume                     988.176
_exptl_crystal_colour            yellow
_exptl_crystal_description       bulk
_cell_formula_units_Z            2
loop_
_atom_site_label
_atom_site_type_symbol
_atom_site_fract_x
_atom_site_fract_y
_atom_site_fract_z
C1 C 0.1414(2) 0.16789(19) 0.76421(18)
C2 C 0.2383(3) 0.2570(2) 0.7494(2)
H1 H 0.1942 0.3418 0.7535
C3 C 0.4003(3) 0.2211(3) 0.7286(2)
H2 H 0.4644 0.2814 0.7194
C4 C 0.4658(3) 0.0967(3) 0.7216(3)
H3 H 0.5746 0.0722 0.7082
C5 C 0.3704(3) 0.0081(3) 0.7344(3)
H4 H 0.4151 -0.0762 0.7286
C6 C 0.2086(3) 0.0425(2) 0.7559(3)
H5 H 0.1453 -0.0184 0.7647
C7 C -0.0372(2) 0.21210(17) 0.78480(17)
C8 C -0.1082(2) 0.31312(17) 0.67875(17)
C9 C -0.1716(2) 0.42716(19) 0.73096(18)
H6 H -0.2219 0.5021 0.6859
C10 C -0.1487(2) 0.41180(19) 0.85380(18)
C11 C -0.0286(3) 0.2326(2) 1.00989(19)
H7 H -0.0516 0.2816 1.0745
C12 C -0.2029(3) 0.5079(2) 0.93822(19)
C13 C -0.3523(3) 0.7181(2) 0.9443(2)
H8 H -0.3506 0.7990 0.8937
H9 H -0.2931 0.7145 1.0179
C14 C -0.5186(4) 0.7075(3) 0.9813(3)
H10 H -0.5660 0.7757 1.0270
H11 H -0.5199 0.6280 1.0326
H12 H -0.5772 0.7120 0.9083
C15 C -0.1073(2) 0.29802(17) 0.55728(18)
C16 C -0.2836(3) 0.3822(2) 0.3419(2)
H13 H -0.3036 0.4469 0.2703
H14 H -0.2249 0.3056 0.3123
C17 C -0.4359(4) 0.3575(4) 0.3973(3)
H15 H -0.4934 0.3312 0.3363
H16 H -0.4963 0.4333 0.4250
H17 H -0.4176 0.2917 0.4667
C18 C 0.0833(3) 0.1737(2) 0.3771(2)
H18 H 0.0990 0.1021 0.3307
H19 H 0.0374 0.2487 0.3222
C19 C 0.2397(4) 0.1894(3) 0.4159(3)
H20 H 0.3076 0.2026 0.3436
H21 H 0.2870 0.1147 0.4687
H22 H 0.2253 0.2613 0.4604
N1 N -0.0674(2) 0.28737(15) 0.89312(14)
O1 O -0.1833(2) 0.49344(17) 1.04774(15)
O2 O -0.2779(2) 0.61563(15) 0.87428(15)
O3 O -0.12395(17) 0.11482(13) 0.80231(13)
H23 H -0.0932 0.0648 0.8636
O4 O 0.0352(2) 0.12186(15) 1.03371(15)
S1 S -0.16166(7) 0.43340(5) 0.44649(5)
S2 S -0.05489(7) 0.14825(5) 0.50746(5)
loop_
_geom_bond_atom_site_label_1
_geom_bond_atom_site_label_2
_geom_bond_site_symmetry_1
_geom_bond_site_symmetry_2
C1 C2 1_555 1_555
C2 H1 1_555 1_555
C3 C2 1_555 1_555
H2 C3 1_555 1_555
C4 C3 1_555 1_555
H3 C4 1_555 1_555
C5 C4 1_555 1_555
H4 C5 1_555 1_555
C6 C1 1_555 1_555
H5 C6 1_555 1_555
C7 C1 1_555 1_555
C8 C7 1_555 1_555
C9 C8 1_555 1_555
H6 C9 1_555 1_555
C10 C9 1_555 1_555
C11 H7 1_555 1_555
C12 C10 1_555 1_555
C13 H8 1_555 1_555
H9 C13 1_555 1_555
C14 C13 1_555 1_555
H10 C14 1_555 1_555
H11 C14 1_555 1_555
H12 C14 1_555 1_555
C15 C8 1_555 1_555
C16 H13 1_555 1_555
H14 C16 1_555 1_555
C17 C16 1_555 1_555
H15 C17 1_555 1_555
H16 C17 1_555 1_555
H17 C17 1_555 1_555
C18 H18 1_555 1_555
H19 C18 1_555 1_555
C19 C18 1_555 1_555
H20 C19 1_555 1_555
H21 C19 1_555 1_555
H22 C19 1_555 1_555
N1 C7 1_555 1_555
O1 C12 1_555 1_555
O2 C12 1_555 1_555
O3 C7 1_555 1_555
H23 O3 1_555 1_555
O4 C11 1_555 1_555
S1 C15 1_555 1_555
S2 C15 1_555 1_555
C5 C6 1_555 1_555
C10 N1 1_555 1_555
C11 N1 1_555 1_555
C13 O2 1_555 1_555
C16 S1 1_555 1_555
C18 S2 1_555 1_555

#END
