
#######################################################################
#
#                 Cambridge Crystallographic Data Centre
#                                CCDC 
#
#######################################################################
#
# If this CIF has been generated from an entry in the Cambridge 
# Structural Database, then it will include bibliographic, chemical, 
# crystal, experimental, refinement or atomic coordinate data resulting 
# from the CCDC's data processing and validation procedures.
#
#######################################################################

data_FIPRAZ
_chemical_formula_moiety         'C38 H29 N1 O2'
_chemical_name_systematic        
2-octyl-1H-tribenzo[2,3:6,7:8,9]fluorantheno[1,10-efg]isoindole-1,3(2H)-dione
_symmetry_cell_setting           triclinic
_symmetry_space_group_name_H-M   'P -1'
_symmetry_Int_Tables_number      2
_space_group_name_Hall           '-P 1'
loop_
_symmetry_equiv_pos_site_id
_symmetry_equiv_pos_as_xyz
1 x,y,z
2 -x,-y,-z
_cell_length_a                   7.2711(3)
_cell_length_b                   11.9307(5)
_cell_length_c                   29.9623(13)
_cell_angle_alpha                95.055(3)
_cell_angle_beta                 95.380(4)
_cell_angle_gamma                95.045(3)
_cell_volume                     2565.54
_cell_formula_units_Z            4
loop_
_atom_site_label
_atom_site_type_symbol
_atom_site_fract_x
_atom_site_fract_y
_atom_site_fract_z
C1 C 0.4352(4) 0.86500(19) 0.88506(8)
C2 C 0.3997(4) 0.82661(19) 0.83571(7)
C3 C 0.3625(3) 0.71344(19) 0.81328(8)
C4 C 0.3022(4) 0.60041(19) 0.82769(8)
C5 C 0.3078(4) 0.5795(2) 0.87285(8)
H1 H 0.3519 0.6391 0.8955
C6 C 0.2515(4) 0.4749(2) 0.88559(9)
H2 H 0.2579 0.4634 0.9167
C7 C 0.1852(4) 0.3858(2) 0.85344(9)
H3 H 0.1480 0.3136 0.8624
C8 C 0.1739(4) 0.4030(2) 0.80875(8)
H4 H 0.1263 0.3421 0.7870
C9 C 0.2306(4) 0.50784(19) 0.79400(8)
C10 C 0.2165(4) 0.52210(19) 0.74566(8)
C11 C 0.1115(4) 0.4556(2) 0.70720(8)
H5 H 0.0583 0.3818 0.7110
C12 C 0.0860(4) 0.4950(2) 0.66542(8)
H6 H 0.0172 0.4472 0.6414
C13 C 0.1600(4) 0.60608(19) 0.65686(8)
C14 C 0.1168(4) 0.6776(2) 0.62156(8)
H7 H 0.0522 0.6440 0.5939
C15 C 0.1658(4) 0.7926(2) 0.62647(8)
H8 H 0.1335 0.8355 0.6021
C16 C 0.2648(4) 0.85021(19) 0.66738(8)
C17 C 0.2913(4) 0.97025(19) 0.68411(8)
C18 C 0.2542(4) 1.0530(2) 0.65478(8)
H9 H 0.2148 1.0298 0.6240
C19 C 0.2728(4) 1.1662(2) 0.66915(8)
H10 H 0.2478 1.2202 0.6485
C20 C 0.3285(4) 1.2012(2) 0.71422(8)
H11 H 0.3424 1.2795 0.7244
C21 C 0.3637(4) 1.12272(19) 0.74431(8)
H12 H 0.3985 1.1485 0.7751
C22 C 0.3500(3) 1.00679(19) 0.73113(7)
C23 C 0.3872(3) 0.92223(19) 0.76389(8)
C24 C 0.4087(3) 0.92457(19) 0.81254(8)
C25 C 0.4435(4) 1.0242(2) 0.84735(8)
C26 C 0.3672(3) 0.71523(18) 0.76764(8)
C27 C 0.3000(4) 0.62205(19) 0.73537(8)
C28 C 0.2728(4) 0.66237(19) 0.69289(8)
C29 C 0.3224(3) 0.77920(19) 0.69792(7)
C30 C 0.3805(3) 0.81286(19) 0.74428(8)
C31 C 0.5202(4) 1.0503(2) 0.93130(7)
H13 H 0.5793 1.1237 0.9243
H14 H 0.6167 1.0113 0.9476
C32 C 0.3704(4) 1.0724(2) 0.96203(8)
H15 H 0.4308 1.1063 0.9917
H16 H 0.3038 0.9990 0.9667
C33 C 0.2288(4) 1.14947(19) 0.94507(8)
H17 H 0.2947 1.2207 0.9378
H18 H 0.1579 1.1124 0.9170
C34 C 0.0949(4) 1.1767(2) 0.97949(9)
H19 H 0.1671 1.2122 1.0076
H20 H 0.0290 1.1052 0.9864
C35 C -0.0480(4) 1.2549(2) 0.96454(8)
H21 H -0.1240 1.2185 0.9371
H22 H 0.0172 1.3257 0.9566
C36 C -0.1756(4) 1.2839(2) 1.00040(9)
H23 H -0.1001 1.3257 1.0269
H24 H -0.2319 1.2127 1.0102
C37 C -0.3307(4) 1.3544(2) 0.98517(10)
H25 H -0.4003 1.3155 0.9573
H26 H -0.4179 1.3586 1.0086
C38 C -0.2636(4) 1.4734(2) 0.97632(9)
H27 H -0.2058 1.5152 1.0045
H28 H -0.3691 1.5116 0.9645
H29 H -0.1725 1.4703 0.9542
N1 N 0.4527(3) 0.98194(16) 0.88903(6)
O1 O 0.4542(3) 0.81075(13) 0.91731(5)
O2 O 0.4649(3) 1.12495(13) 0.84343(5)
C39 C 0.6322(4) 0.66959(19) 0.61961(8)
C40 C 0.7212(4) 0.71199(19) 0.66602(8)
C41 C 0.7935(4) 0.82433(19) 0.68372(8)
C42 C 0.7788(4) 0.9392(2) 0.66823(8)
C43 C 0.7277(4) 0.9566(2) 0.62343(8)
H30 H 0.7072 0.8933 0.6014
C44 C 0.7061(4) 1.0631(2) 0.61018(9)
H31 H 0.6724 1.0720 0.5794
C45 C 0.7335(4) 1.1573(2) 0.64166(9)
H32 H 0.7156 1.2303 0.6326
C46 C 0.7863(4) 1.1442(2) 0.68579(9)
H33 H 0.8041 1.2092 0.7070
C47 C 0.8150(4) 1.03893(19) 0.70073(8)
C48 C 0.8775(4) 1.03065(19) 0.74803(8)
C49 C 0.8804(4) 1.1102(2) 0.78702(9)
H34 H 0.8649 1.1870 0.7828
C50 C 0.9048(4) 1.0793(2) 0.83040(9)
H35 H 0.9060 1.1356 0.8549
C51 C 0.9287(4) 0.9647(2) 0.83974(8)
C52 C 0.9056(4) 0.9065(2) 0.87904(8)
H36 H 0.9094 0.9494 0.9074
C53 C 0.8780(4) 0.7901(2) 0.87692(8)
H37 H 0.8629 0.7555 0.9039
C54 C 0.8714(4) 0.7189(2) 0.83493(8)
C55 C 0.7996(4) 0.5998(2) 0.82328(8)
C56 C 0.7670(4) 0.5307(2) 0.85737(8)
H38 H 0.7955 0.5613 0.8879
C57 C 0.6950(4) 0.4199(2) 0.84837(8)
H39 H 0.6733 0.3747 0.8723
C58 C 0.6545(4) 0.3748(2) 0.80388(8)
H40 H 0.6052 0.2981 0.7974
C59 C 0.6847(4) 0.43989(19) 0.76899(8)
H41 H 0.6561 0.4067 0.7389
C60 C 0.7567(4) 0.55396(19) 0.77675(8)
C61 C 0.7819(4) 0.62653(19) 0.73937(8)
C62 C 0.7141(4) 0.61892(18) 0.69234(8)
C63 C 0.6178(4) 0.5191(2) 0.66249(8)
C64 C 0.8756(4) 0.82551(19) 0.72717(8)
C65 C 0.9202(4) 0.92557(19) 0.75759(8)
C66 C 0.9446(4) 0.89409(19) 0.80138(8)
C67 C 0.9161(4) 0.77486(19) 0.79931(8)
C68 C 0.8724(4) 0.73261(19) 0.75335(8)
C69 C 0.4646(4) 0.4850(2) 0.58338(8)
H42 H 0.4104 0.5350 0.5620
H43 H 0.3607 0.4425 0.5956
C70 C 0.5720(4) 0.4022(2) 0.55792(8)
H44 H 0.4851 0.3548 0.5349
H45 H 0.6248 0.3516 0.5792
C71 C 0.7276(4) 0.4575(2) 0.53490(9)
H46 H 0.8186 0.5012 0.5580
H47 H 0.6761 0.5114 0.5149
C72 C 0.8291(4) 0.3726(2) 0.50687(9)
H48 H 0.7359 0.3210 0.4870
H49 H 0.9078 0.4145 0.4874
C73 C 0.9500(4) 0.3026(2) 0.53533(9)
H50 H 0.8701 0.2577 0.5536
H51 H 1.0386 0.3545 0.5564
C74 C 1.0591(4) 0.2224(2) 0.50797(9)
H52 H 0.9716 0.1725 0.4860
H53 H 1.1443 0.2672 0.4909
C75 C 1.1714(4) 0.1498(2) 0.53745(9)
H54 H 1.2568 0.1999 0.5599
H55 H 1.0858 0.1041 0.5541
C76 C 1.2837(5) 0.0714(3) 0.51082(11)
H56 H 1.2003 0.0224 0.4882
H57 H 1.3487 0.0248 0.5313
H58 H 1.3745 0.1163 0.4958
N2 N 0.5765(3) 0.55551(16) 0.62056(6)
O3 O 0.6110(3) 0.71812(14) 0.58583(5)
O4 O 0.5800(3) 0.42185(14) 0.66996(6)
loop_
_geom_bond_atom_site_label_1
_geom_bond_atom_site_label_2
_geom_bond_site_symmetry_1
_geom_bond_site_symmetry_2
C1 C2 1_555 1_555
C2 C3 1_555 1_555
C3 C4 1_555 1_555
C4 C5 1_555 1_555
C5 H1 1_555 1_555
C6 C5 1_555 1_555
H2 C6 1_555 1_555
C7 C6 1_555 1_555
H3 C7 1_555 1_555
C8 C7 1_555 1_555
H4 C8 1_555 1_555
C9 C4 1_555 1_555
C10 C9 1_555 1_555
C11 C10 1_555 1_555
H5 C11 1_555 1_555
C12 C11 1_555 1_555
H6 C12 1_555 1_555
C13 C12 1_555 1_555
C14 C13 1_555 1_555
H7 C14 1_555 1_555
C15 C14 1_555 1_555
H8 C15 1_555 1_555
C16 C15 1_555 1_555
C17 C16 1_555 1_555
C18 C17 1_555 1_555
H9 C18 1_555 1_555
C19 C18 1_555 1_555
H10 C19 1_555 1_555
C20 C19 1_555 1_555
H11 C20 1_555 1_555
C21 C20 1_555 1_555
H12 C21 1_555 1_555
C22 C17 1_555 1_555
C23 C22 1_555 1_555
C24 C2 1_555 1_555
C25 C24 1_555 1_555
C26 C3 1_555 1_555
C27 C10 1_555 1_555
C28 C13 1_555 1_555
C29 C16 1_555 1_555
C30 C23 1_555 1_555
C31 H13 1_555 1_555
H14 C31 1_555 1_555
C32 C31 1_555 1_555
H15 C32 1_555 1_555
H16 C32 1_555 1_555
C33 C32 1_555 1_555
H17 C33 1_555 1_555
H18 C33 1_555 1_555
C34 C33 1_555 1_555
H19 C34 1_555 1_555
H20 C34 1_555 1_555
C35 C34 1_555 1_555
H21 C35 1_555 1_555
H22 C35 1_555 1_555
C36 C35 1_555 1_555
H23 C36 1_555 1_555
H24 C36 1_555 1_555
C37 C36 1_555 1_555
H25 C37 1_555 1_555
H26 C37 1_555 1_555
C38 C37 1_555 1_555
H27 C38 1_555 1_555
H28 C38 1_555 1_555
H29 C38 1_555 1_555
N1 C1 1_555 1_555
O1 C1 1_555 1_555
O2 C25 1_555 1_555
C39 C40 1_555 1_555
C40 C41 1_555 1_555
C41 C42 1_555 1_555
C42 C43 1_555 1_555
C43 H30 1_555 1_555
C44 C43 1_555 1_555
H31 C44 1_555 1_555
C45 C44 1_555 1_555
H32 C45 1_555 1_555
C46 C45 1_555 1_555
H33 C46 1_555 1_555
C47 C42 1_555 1_555
C48 C47 1_555 1_555
C49 C48 1_555 1_555
H34 C49 1_555 1_555
C50 C49 1_555 1_555
H35 C50 1_555 1_555
C51 C50 1_555 1_555
C52 C51 1_555 1_555
H36 C52 1_555 1_555
C53 C52 1_555 1_555
H37 C53 1_555 1_555
C54 C53 1_555 1_555
C55 C54 1_555 1_555
C56 C55 1_555 1_555
H38 C56 1_555 1_555
C57 C56 1_555 1_555
H39 C57 1_555 1_555
C58 C57 1_555 1_555
H40 C58 1_555 1_555
C59 C58 1_555 1_555
H41 C59 1_555 1_555
C60 C55 1_555 1_555
C61 C60 1_555 1_555
C62 C40 1_555 1_555
C63 C62 1_555 1_555
C64 C41 1_555 1_555
C65 C48 1_555 1_555
C66 C51 1_555 1_555
C67 C54 1_555 1_555
C68 C61 1_555 1_555
C69 H42 1_555 1_555
H43 C69 1_555 1_555
C70 C69 1_555 1_555
H44 C70 1_555 1_555
H45 C70 1_555 1_555
C71 C70 1_555 1_555
H46 C71 1_555 1_555
H47 C71 1_555 1_555
C72 C71 1_555 1_555
H48 C72 1_555 1_555
H49 C72 1_555 1_555
C73 C72 1_555 1_555
H50 C73 1_555 1_555
H51 C73 1_555 1_555
C74 C73 1_555 1_555
H52 C74 1_555 1_555
H53 C74 1_555 1_555
C75 C74 1_555 1_555
H54 C75 1_555 1_555
H55 C75 1_555 1_555
C76 C75 1_555 1_555
H56 C76 1_555 1_555
H57 C76 1_555 1_555
H58 C76 1_555 1_555
N2 C39 1_555 1_555
O3 C39 1_555 1_555
O4 C63 1_555 1_555
C8 C9 1_555 1_555
C21 C22 1_555 1_555
C23 C24 1_555 1_555
C25 N1 1_555 1_555
C26 C27 1_555 1_555
C26 C30 1_555 1_555
C27 C28 1_555 1_555
C28 C29 1_555 1_555
C29 C30 1_555 1_555
C31 N1 1_555 1_555
C46 C47 1_555 1_555
C59 C60 1_555 1_555
C61 C62 1_555 1_555
C63 N2 1_555 1_555
C64 C65 1_555 1_555
C64 C68 1_555 1_555
C65 C66 1_555 1_555
C66 C67 1_555 1_555
C67 C68 1_555 1_555
C69 N2 1_555 1_555

#END
