
#######################################################################
#
#                 Cambridge Crystallographic Data Centre
#                                CCDC 
#
#######################################################################
#
# If this CIF has been generated from an entry in the Cambridge 
# Structural Database, then it will include bibliographic, chemical, 
# crystal, experimental, refinement or atomic coordinate data resulting 
# from the CCDC's data processing and validation procedures.
#
#######################################################################

data_FIPWIL
_chemical_formula_moiety         'C48 H58 N2 O4 S4 2+,2(Br1 1-)'
_chemical_name_systematic        
'1,4-bis(2,5-Dioxa-13,19-dithia-16-azoniatricyclo[19.4.0.0^6,11^]pentacosa-1(21),6,8,10,22,24-hexaene)benzene dibromide'
_symmetry_cell_setting           monoclinic
_symmetry_space_group_name_H-M   'P 21/n'
_symmetry_Int_Tables_number      14
_space_group_name_Hall           '-P 2yn'
loop_
_symmetry_equiv_pos_site_id
_symmetry_equiv_pos_as_xyz
1 x,y,z
2 1/2-x,1/2+y,1/2-z
3 -x,-y,-z
4 1/2+x,1/2-y,1/2+z
_cell_length_a                   11.0233(12)
_cell_length_b                   14.0524(16)
_cell_length_c                   15.3847(18)
_cell_angle_alpha                90
_cell_angle_beta                 99.403(3)
_cell_angle_gamma                90
_cell_volume                     2351.13
_exptl_crystal_colour            'pale yellow'
_exptl_crystal_description       plate
_cell_formula_units_Z            2
loop_
_atom_site_label
_atom_site_type_symbol
_atom_site_fract_x
_atom_site_fract_y
_atom_site_fract_z
Br1 Br -0.05673(9) 0.56032(8) 0.32653(7)
S1 S 0.0020(2) 0.69767(18) 0.56029(17)
S2 S 0.2554(2) 0.79046(18) 0.23567(16)
O1 O 0.2185(6) 0.9109(4) 0.5691(4)
O2 O 0.4100(5) 0.8823(4) 0.4715(4)
N1 N 0.2018(5) 0.6266(5) 0.4456(5)
H1 H 0.1183 0.6292 0.4331
C1 C 0.1188(11) 0.9443(7) 0.6032(6)
C2 C 0.1244(12) 1.0224(8) 0.6606(7)
H2 H 0.1984 1.0584 0.6781
C3 C 0.0069(17) 1.0452(9) 0.6923(8)
H3 H 0.0054 1.0982 0.7316
C4 C -0.0937(13) 0.9965(13) 0.6693(11)
H4 H -0.1663 1.0135 0.6928
C5 C -0.0974(11) 0.9259(9) 0.6154(8)
H5 H -0.1736 0.8926 0.5984
C6 C 0.0052(10) 0.8968(8) 0.5816(6)
C7 C -0.0077(8) 0.8220(7) 0.5159(7)
H6 H 0.0552 0.8301 0.4801
H7 H -0.0856 0.8296 0.4783
C8 C 0.1649(7) 0.6833(6) 0.5948(6)
H8 H 0.1926 0.7297 0.6394
H9 H 0.1798 0.6215 0.6209
C9 C 0.2403(7) 0.6934(6) 0.5210(6)
H10 H 0.2333 0.7576 0.4994
H11 H 0.3253 0.6822 0.5445
C10 C 0.2495(7) 0.6605(6) 0.3639(5)
H12 H 0.3368 0.6695 0.3779
H13 H 0.2342 0.6121 0.3193
C11 C 0.1911(8) 0.7515(6) 0.3277(6)
H14 H 0.2031 0.7995 0.3727
H15 H 0.1043 0.7420 0.3105
C12 C 0.3813(8) 0.8649(6) 0.2913(6)
H16 H 0.4176 0.8974 0.2470
H17 H 0.3468 0.9125 0.3248
C13 C 0.4795(8) 0.8157(6) 0.3503(7)
C14 C 0.5607(10) 0.7602(8) 0.3176(8)
H18 H 0.5534 0.7509 0.2551
C15 C 0.6583(10) 0.7149(7) 0.3763(12)
H19 H 0.7186 0.6761 0.3547
C16 C 0.6615(12) 0.7298(10) 0.4659(10)
H20 H 0.7240 0.6992 0.5072
C17 C 0.5816(11) 0.7843(8) 0.4953(9)
H21 H 0.5870 0.7939 0.5576
C18 C 0.4916(9) 0.8275(7) 0.4396(7)
C19 C 0.4314(9) 0.9008(7) 0.5624(7)
H22 H 0.5095 0.9317 0.5787
H23 H 0.4327 0.8423 0.5946
C20 C 0.3325(9) 0.9626(7) 0.5833(6)
H24 H 0.3509 0.9829 0.6436
H25 H 0.3257 1.0181 0.5464
C21 C 0.2358(7) 0.5226(6) 0.4664(6)
H26 H 0.2011 0.5027 0.5167
H27 H 0.2014 0.4835 0.4173
C22 C 0.3738(7) 0.5088(6) 0.4850(6)
C23 C 0.4353(9) 0.4913(6) 0.4154(6)
H28 H 0.3911 0.4848 0.3565
C24 C 0.4400(9) 0.5168(6) 0.5679(6)
H29 H 0.3969 0.5285 0.6163
S1B S 0.9980(2) 0.30233(18) 0.43971(17)
S2B S 0.7446(2) 0.20954(18) 0.76433(16)
O1B O 0.7815(6) 0.0891(4) 0.4309(4)
O2B O 0.5900(5) 0.1177(4) 0.5285(4)
N1B N 0.7982(5) 0.3734(5) 0.5544(5)
H1B H 0.8817 0.3708 0.5669
C1B C 0.8812(11) 0.0557(7) 0.3968(6)
C2B C 0.8756(12) -0.0224(8) 0.3394(7)
H2B H 0.8016 -0.0584 0.3219
C3B C 0.9931(17) -0.0452(9) 0.3077(8)
H3B H 0.9946 -0.0982 0.2684
C4B C 1.0937(13) 0.0035(13) 0.3307(11)
H4B H 1.1663 -0.0135 0.3072
C5B C 1.0974(11) 0.0741(9) 0.3846(8)
H5B H 1.1736 0.1074 0.4016
C6B C 0.9948(10) 0.1032(8) 0.4184(6)
C7B C 1.0077(8) 0.1780(7) 0.4841(7)
H6B H 0.9448 0.1699 0.5199
H7B H 1.0856 0.1704 0.5217
C8B C 0.8351(7) 0.3167(6) 0.4052(6)
H8B H 0.8074 0.2703 0.3606
H9B H 0.8202 0.3785 0.3791
C9B C 0.7597(7) 0.3066(6) 0.4790(6)
H10B H 0.7667 0.2424 0.5006
H11B H 0.6747 0.3178 0.4555
C10B C 0.7505(7) 0.3395(6) 0.6361(5)
H12B H 0.6632 0.3305 0.6221
H13B H 0.7658 0.3879 0.6807
C11B C 0.8089(8) 0.2485(6) 0.6723(6)
H14B H 0.7969 0.2005 0.6273
H15B H 0.8957 0.2580 0.6895
C12B C 0.6187(8) 0.1351(6) 0.7087(6)
H16B H 0.5824 0.1026 0.7530
H17B H 0.6532 0.0875 0.6752
C13B C 0.5205(8) 0.1843(6) 0.6497(7)
C14B C 0.4393(10) 0.2398(8) 0.6824(8)
H18B H 0.4466 0.2491 0.7449
C15B C 0.3417(10) 0.2851(7) 0.6237(12)
H19B H 0.2814 0.3239 0.6453
C16B C 0.3385(12) 0.2702(10) 0.5341(10)
H20B H 0.2760 0.3008 0.4928
C17B C 0.4184(11) 0.2157(8) 0.5047(9)
H21B H 0.4130 0.2061 0.4424
C18B C 0.5084(9) 0.1725(7) 0.5604(7)
C19B C 0.5686(9) 0.0992(7) 0.4376(7)
H22B H 0.4905 0.0683 0.4213
H23B H 0.5673 0.1577 0.4054
C20B C 0.6675(9) 0.0374(7) 0.4167(6)
H24B H 0.6491 0.0171 0.3564
H25B H 0.6743 -0.0181 0.4536
C21B C 0.7642(7) 0.4774(6) 0.5336(6)
H26B H 0.7989 0.4973 0.4833
H27B H 0.7986 0.5165 0.5827
C22B C 0.6262(7) 0.4912(6) 0.5150(6)
C23B C 0.5647(9) 0.5087(6) 0.5846(6)
H28B H 0.6089 0.5152 0.6435
C24B C 0.5600(9) 0.4832(6) 0.4321(6)
H29B H 0.6031 0.4715 0.3837
loop_
_geom_bond_atom_site_label_1
_geom_bond_atom_site_label_2
_geom_bond_site_symmetry_1
_geom_bond_site_symmetry_2
S1 C7 1_555 1_555
S2 C11 1_555 1_555
O1 C1 1_555 1_555
O2 C18 1_555 1_555
N1 H1 1_555 1_555
C1 C2 1_555 1_555
C2 H2 1_555 1_555
C3 C2 1_555 1_555
H3 C3 1_555 1_555
C4 C3 1_555 1_555
H4 C4 1_555 1_555
C5 C4 1_555 1_555
H5 C5 1_555 1_555
C6 C1 1_555 1_555
C7 C6 1_555 1_555
H6 C7 1_555 1_555
H7 C7 1_555 1_555
C8 S1 1_555 1_555
H8 C8 1_555 1_555
H9 C8 1_555 1_555
C9 N1 1_555 1_555
H10 C9 1_555 1_555
H11 C9 1_555 1_555
C10 N1 1_555 1_555
H12 C10 1_555 1_555
H13 C10 1_555 1_555
C11 C10 1_555 1_555
H14 C11 1_555 1_555
H15 C11 1_555 1_555
C12 S2 1_555 1_555
H16 C12 1_555 1_555
H17 C12 1_555 1_555
C13 C12 1_555 1_555
C14 C13 1_555 1_555
H18 C14 1_555 1_555
C15 C14 1_555 1_555
H19 C15 1_555 1_555
C16 C15 1_555 1_555
H20 C16 1_555 1_555
C17 C16 1_555 1_555
H21 C17 1_555 1_555
C18 C13 1_555 1_555
C19 O2 1_555 1_555
H22 C19 1_555 1_555
H23 C19 1_555 1_555
C20 O1 1_555 1_555
H24 C20 1_555 1_555
H25 C20 1_555 1_555
C21 N1 1_555 1_555
H26 C21 1_555 1_555
H27 C21 1_555 1_555
C22 C21 1_555 1_555
C23 C22 1_555 1_555
H28 C23 1_555 1_555
C24 C22 1_555 1_555
H29 C24 1_555 1_555
S1B C7B 1_555 1_555
S2B C11B 1_555 1_555
O1B C1B 1_555 1_555
O2B C18B 1_555 1_555
N1B H1B 1_555 1_555
C1B C2B 1_555 1_555
C2B H2B 1_555 1_555
C3B C2B 1_555 1_555
H3B C3B 1_555 1_555
C4B C3B 1_555 1_555
H4B C4B 1_555 1_555
C5B C4B 1_555 1_555
H5B C5B 1_555 1_555
C6B C1B 1_555 1_555
C7B C6B 1_555 1_555
H6B C7B 1_555 1_555
H7B C7B 1_555 1_555
C8B S1B 1_555 1_555
H8B C8B 1_555 1_555
H9B C8B 1_555 1_555
C9B N1B 1_555 1_555
H10B C9B 1_555 1_555
H11B C9B 1_555 1_555
C10B N1B 1_555 1_555
H12B C10B 1_555 1_555
H13B C10B 1_555 1_555
C11B C10B 1_555 1_555
H14B C11B 1_555 1_555
H15B C11B 1_555 1_555
C12B S2B 1_555 1_555
H16B C12B 1_555 1_555
H17B C12B 1_555 1_555
C13B C12B 1_555 1_555
C14B C13B 1_555 1_555
H18B C14B 1_555 1_555
C15B C14B 1_555 1_555
H19B C15B 1_555 1_555
C16B C15B 1_555 1_555
H20B C16B 1_555 1_555
C17B C16B 1_555 1_555
H21B C17B 1_555 1_555
C18B C13B 1_555 1_555
C19B O2B 1_555 1_555
H22B C19B 1_555 1_555
H23B C19B 1_555 1_555
C20B O1B 1_555 1_555
H24B C20B 1_555 1_555
H25B C20B 1_555 1_555
C21B N1B 1_555 1_555
H26B C21B 1_555 1_555
H27B C21B 1_555 1_555
C22B C21B 1_555 1_555
C23B C24 1_555 1_555
H28B C23B 1_555 1_555
C24B C23 1_555 1_555
H29B C24B 1_555 1_555
C5 C6 1_555 1_555
C8 C9 1_555 1_555
C17 C18 1_555 1_555
C19 C20 1_555 1_555
C5B C6B 1_555 1_555
C8B C9B 1_555 1_555
C17B C18B 1_555 1_555
C19B C20B 1_555 1_555
C22B C23B 1_555 1_555
C22B C24B 1_555 1_555

#END
