
#######################################################################
#
#                 Cambridge Crystallographic Data Centre
#                                CCDC 
#
#######################################################################
#
# If this CIF has been generated from an entry in the Cambridge 
# Structural Database, then it will include bibliographic, chemical, 
# crystal, experimental, refinement or atomic coordinate data resulting 
# from the CCDC's data processing and validation procedures.
#
#######################################################################

data_FIQBAJ
_chemical_formula_moiety         'C8 H12 N2,2(C6 H5 N1 O3)'
_chemical_name_systematic        '2,3,5,6-Tetramethylpyrazine p-nitrophenol'
_chemical_properties_biological  
'2,3,5,6-tetramethylpyrazine possesses antiulcer and antiplatelet activities; p-nitrophenol is used as a pesticide in agriculture'
_symmetry_cell_setting           triclinic
_symmetry_space_group_name_H-M   'P -1'
_symmetry_Int_Tables_number      2
_space_group_name_Hall           '-P 1'
loop_
_symmetry_equiv_pos_site_id
_symmetry_equiv_pos_as_xyz
1 x,y,z
2 -x,-y,-z
_cell_length_a                   4.7521(2)
_cell_length_b                   8.8700(4)
_cell_length_c                   13.1941(6)
_cell_angle_alpha                73.916(2)
_cell_angle_beta                 81.771(2)
_cell_angle_gamma                74.706(2)
_cell_volume                     513.977
_exptl_crystal_colour            colorless
_exptl_crystal_description       block
_cell_formula_units_Z            1
loop_
_atom_site_label
_atom_site_type_symbol
_atom_site_fract_x
_atom_site_fract_y
_atom_site_fract_z
O1 O 0.4149(6) 0.9189(3) -0.0822(2)
O2 O 0.8091(6) 0.7312(3) -0.0677(2)
O3 O 0.0826(5) 0.4700(3) 0.34784(17)
H1 H 0.1788 0.3775 0.3689
N1 N 0.5647(6) 0.7910(3) -0.0341(2)
C1 C 0.4426(6) 0.7057(3) 0.0671(2)
C2 C 0.5856(7) 0.5500(4) 0.1141(2)
H2 H 0.7600 0.5004 0.0824
C3 C 0.4678(6) 0.4691(3) 0.2080(2)
H3 H 0.5626 0.3639 0.2399
C4 C 0.2110(6) 0.5423(3) 0.2553(2)
C5 C 0.0702(7) 0.7000(3) 0.2077(2)
H4 H -0.1021 0.7507 0.2399
C6 C 0.1863(7) 0.7813(3) 0.1126(2)
H5 H 0.0917 0.8861 0.0800
N2 N 0.3737(5) 0.1525(2) 0.44480(17)
C7 C 0.1485(7) 0.0562(4) 0.3285(2)
H6 H 0.0617 0.1697 0.3064
H7 H -0.0028 -0.0020 0.3507
H8 H 0.2689 0.0212 0.2705
C8 C 0.3327(6) 0.0245(3) 0.41888(19)
C9 C 0.5373(6) 0.1317(3) 0.5245(2)
C10 C 0.5772(8) 0.2803(4) 0.5484(3)
H9 H 0.7619 0.3013 0.5161
H10 H 0.5731 0.2640 0.6236
H11 H 0.4222 0.3707 0.5209
N2A N 0.6263(5) -0.1525(2) 0.55520(17)
C7A C 0.8515(7) -0.0562(4) 0.6715(2)
H6A H 0.9383 -0.1697 0.6936
H7A H 1.0028 0.0020 0.6493
H8A H 0.7311 -0.0212 0.7295
C8A C 0.6673(6) -0.0245(3) 0.58112(19)
C9A C 0.4627(6) -0.1317(3) 0.4755(2)
C10A C 0.4228(8) -0.2803(4) 0.4516(3)
H9A H 0.2381 -0.3013 0.4839
H10A H 0.4269 -0.2640 0.3764
H11A H 0.5778 -0.3707 0.4791
loop_
_geom_bond_atom_site_label_1
_geom_bond_atom_site_label_2
_geom_bond_site_symmetry_1
_geom_bond_site_symmetry_2
O1 N1 1_555 1_555
O2 N1 1_555 1_555
O3 H1 1_555 1_555
N1 C1 1_555 1_555
N2 C8 1_555 1_555
C1 C2 1_555 1_555
C2 H2 1_555 1_555
C3 C2 1_555 1_555
H3 C3 1_555 1_555
C4 O3 1_555 1_555
C5 C4 1_555 1_555
H4 C5 1_555 1_555
C6 C1 1_555 1_555
H5 C6 1_555 1_555
C7 H6 1_555 1_555
H7 C7 1_555 1_555
H8 C7 1_555 1_555
C8 C7 1_555 1_555
C9 N2 1_555 1_555
C10 C9 1_555 1_555
H9 C10 1_555 1_555
H10 C10 1_555 1_555
H11 C10 1_555 1_555
N2A C8A 1_555 1_555
C7A H6A 1_555 1_555
H7A C7A 1_555 1_555
H8A C7A 1_555 1_555
C8A C9 1_555 1_555
C9A C8 1_555 1_555
C10A C9A 1_555 1_555
H9A C10A 1_555 1_555
H10A C10A 1_555 1_555
H11A C10A 1_555 1_555
C3 C4 1_555 1_555
C5 C6 1_555 1_555
N2A C9A 1_555 1_555
C7A C8A 1_555 1_555

#END
