
#######################################################################
#
#                 Cambridge Crystallographic Data Centre
#                                CCDC 
#
#######################################################################
#
# If this CIF has been generated from an entry in the Cambridge 
# Structural Database, then it will include bibliographic, chemical, 
# crystal, experimental, refinement or atomic coordinate data resulting 
# from the CCDC's data processing and validation procedures.
#
#######################################################################

data_FIQFAN
_chemical_formula_moiety         'C12 H17 N3 O7'
_chemical_name_systematic        '2,3,4-Tri-O-acetyl-\b-L-fucopyranosyl azide'
_symmetry_cell_setting           monoclinic
_symmetry_space_group_name_H-M   'P 21'
_symmetry_Int_Tables_number      4
_space_group_name_Hall           'P 2yb'
loop_
_symmetry_equiv_pos_site_id
_symmetry_equiv_pos_as_xyz
1 x,y,z
2 -x,1/2+y,-z
_cell_length_a                   10.8447(6)
_cell_length_b                   8.3527(5)
_cell_length_c                   17.4430(10)
_cell_angle_alpha                90
_cell_angle_beta                 96.2570(10)
_cell_angle_gamma                90
_cell_volume                     1570.62
_exptl_crystal_colour            colorless
_exptl_crystal_description       block
_cell_formula_units_Z            4
_exptl_crystal_recrystallization_method ethanol
loop_
_atom_site_label
_atom_site_type_symbol
_atom_site_fract_x
_atom_site_fract_y
_atom_site_fract_z
C1 C 0.93305(17) 0.4305(3) 0.57496(11)
H1 H 1.0110 0.3707 0.5682
C2 C 0.82932(17) 0.3102(3) 0.58071(11)
H2 H 0.8541 0.2327 0.6233
C3 C 0.80075(16) 0.2201(2) 0.50531(11)
H3 H 0.8725 0.1491 0.4974
C4 C 0.77867(16) 0.3345(2) 0.43771(10)
H4 H 0.6999 0.3957 0.4398
C5 C 0.88961(17) 0.4477(3) 0.43886(11)
H5 H 0.9661 0.3826 0.4351
C6 C 0.9563(2) 0.5361(4) 0.64552(13)
H6 H 0.8859 0.6088 0.6479
H7 H 1.0320 0.5987 0.6425
H8 H 0.9661 0.4692 0.6919
C7 C 0.6714(2) 0.3614(3) 0.66307(13)
C8 C 0.5643(2) 0.4664(4) 0.67487(14)
H9 H 0.5708 0.5015 0.7288
H10 H 0.4869 0.4067 0.6626
H11 H 0.5646 0.5600 0.6411
C9 C 0.7082(2) -0.0255(3) 0.53588(12)
C10 C 0.5883(3) -0.1121(4) 0.53651(15)
H12 H 0.5496 -0.0819 0.5826
H13 H 0.6035 -0.2278 0.5370
H14 H 0.5330 -0.0837 0.4903
C11 C 0.67809(18) 0.2618(3) 0.31346(11)
C12 C 0.6924(2) 0.1568(4) 0.24589(13)
H15 H 0.7608 0.1964 0.2187
H16 H 0.6154 0.1577 0.2108
H17 H 0.7105 0.0471 0.2637
N1 N 0.87655(17) 0.5628(3) 0.37515(10)
N2 N 0.7918(2) 0.6596(3) 0.37832(11)
N3 N 0.7199(3) 0.7564(4) 0.37460(16)
O1 O 0.90401(13) 0.53370(18) 0.50904(8)
O2 O 0.71909(12) 0.3963(2) 0.59695(8)
O3 O 0.7145(3) 0.2628(4) 0.70717(15)
O4 O 0.69081(12) 0.1234(2) 0.50590(8)
O5 O 0.80795(16) -0.0760(2) 0.55997(12)
O6 O 0.77384(13) 0.24026(19) 0.36858(8)
O7 O 0.59591(15) 0.3540(3) 0.31968(9)
C13 C 0.41387(18) 0.1436(3) 0.92317(11)
H18 H 0.4928 0.2051 0.9346
C14 C 0.30575(17) 0.2605(3) 0.91584(11)
H19 H 0.3172 0.3413 0.8749
C15 C 0.29754(16) 0.3448(2) 0.99233(11)
H20 H 0.3710 0.4168 1.0033
C16 C 0.29594(16) 0.2255(3) 1.05760(10)
H21 H 0.2162 0.1643 1.0527
C17 C 0.40663(17) 0.1117(3) 1.05714(10)
H22 H 0.4845 0.1765 1.0647
C18 C 0.4212(3) 0.0465(4) 0.85091(13)
H23 H 0.3481 -0.0229 0.8421
H24 H 0.4964 -0.0195 0.8568
H25 H 0.4238 0.1187 0.8068
C19 C 0.1248(2) 0.2083(3) 0.82833(13)
C20 C 0.0126(2) 0.1050(4) 0.81386(14)
H26 H 0.0297 0.0167 0.7796
H27 H -0.0568 0.1688 0.7896
H28 H -0.0089 0.0617 0.8629
C21 C 0.1931(2) 0.5885(3) 0.96060(12)
C22 C 0.0707(3) 0.6710(4) 0.95600(18)
H29 H 0.0169 0.6305 0.9114
H30 H 0.0826 0.7865 0.9503
H31 H 0.0320 0.6502 1.0032
C23 C 0.24280(19) 0.2720(3) 1.18562(11)
C24 C 0.2743(2) 0.3784(4) 1.25386(13)
H32 H 0.2172 0.3572 1.2925
H33 H 0.2669 0.4906 1.2376
H34 H 0.3596 0.3571 1.2762
N4 N 0.41111(18) -0.0085(2) 1.11835(10)
N5 N 0.3216(2) -0.1029(3) 1.11095(11)
N6 N 0.2492(3) -0.1971(4) 1.11125(15)
O8 O 0.40255(13) 0.03261(19) 0.98530(8)
O9 O 0.19169(13) 0.1727(2) 0.89577(8)
O10 O 0.1555(2) 0.3078(4) 0.78532(13)
O11 O 0.18610(12) 0.4389(2) 0.99016(8)
O12 O 0.28619(16) 0.6426(2) 0.94021(11)
O13 O 0.31026(13) 0.31544(19) 1.12799(8)
O14 O 0.17042(17) 0.1639(3) 1.18030(10)
loop_
_geom_bond_atom_site_label_1
_geom_bond_atom_site_label_2
_geom_bond_site_symmetry_1
_geom_bond_site_symmetry_2
C1 H1 1_555 1_555
C2 C1 1_555 1_555
H2 C2 1_555 1_555
C3 C2 1_555 1_555
H3 C3 1_555 1_555
C4 C3 1_555 1_555
H4 C4 1_555 1_555
C5 C4 1_555 1_555
H5 C5 1_555 1_555
C6 C1 1_555 1_555
H6 C6 1_555 1_555
H7 C6 1_555 1_555
H8 C6 1_555 1_555
C7 C8 1_555 1_555
C8 H9 1_555 1_555
H10 C8 1_555 1_555
H11 C8 1_555 1_555
C9 C10 1_555 1_555
C10 H12 1_555 1_555
H13 C10 1_555 1_555
H14 C10 1_555 1_555
C11 C12 1_555 1_555
C12 H15 1_555 1_555
H16 C12 1_555 1_555
H17 C12 1_555 1_555
N1 C5 1_555 1_555
N2 N1 1_555 1_555
N3 N2 1_555 1_555
O1 C1 1_555 1_555
O2 C2 1_555 1_555
O3 C7 1_555 1_555
O4 C3 1_555 1_555
O5 C9 1_555 1_555
O6 C4 1_555 1_555
O7 C11 1_555 1_555
C13 H18 1_555 1_555
C14 C13 1_555 1_555
H19 C14 1_555 1_555
C15 C14 1_555 1_555
H20 C15 1_555 1_555
C16 C15 1_555 1_555
H21 C16 1_555 1_555
C17 C16 1_555 1_555
H22 C17 1_555 1_555
C18 C13 1_555 1_555
H23 C18 1_555 1_555
H24 C18 1_555 1_555
H25 C18 1_555 1_555
C19 C20 1_555 1_555
C20 H26 1_555 1_555
H27 C20 1_555 1_555
H28 C20 1_555 1_555
C21 C22 1_555 1_555
C22 H29 1_555 1_555
H30 C22 1_555 1_555
H31 C22 1_555 1_555
C23 C24 1_555 1_555
C24 H32 1_555 1_555
H33 C24 1_555 1_555
H34 C24 1_555 1_555
N4 C17 1_555 1_555
N5 N4 1_555 1_555
N6 N5 1_555 1_555
O8 C13 1_555 1_555
O9 C14 1_555 1_555
O10 C19 1_555 1_555
O11 C15 1_555 1_555
O12 C21 1_555 1_555
O13 C16 1_555 1_555
O14 C23 1_555 1_555
C5 O1 1_555 1_555
C7 O2 1_555 1_555
C9 O4 1_555 1_555
C11 O6 1_555 1_555
C17 O8 1_555 1_555
C19 O9 1_555 1_555
C21 O11 1_555 1_555
C23 O13 1_555 1_555

#END
