
#######################################################################
#
#                 Cambridge Crystallographic Data Centre
#                                CCDC 
#
#######################################################################
#
# If this CIF has been generated from an entry in the Cambridge 
# Structural Database, then it will include bibliographic, chemical, 
# crystal, experimental, refinement or atomic coordinate data resulting 
# from the CCDC's data processing and validation procedures.
#
#######################################################################

data_FIQSEE
_chemical_formula_moiety         'C17 H21 F6 N3 O1'
_chemical_name_systematic        
N-(3,5-bis(Trifluoromethyl)phenyl)-N'-(2-(dimethylamino)cyclohexyl)urea
_symmetry_cell_setting           orthorhombic
_symmetry_space_group_name_H-M   'P 21 21 21'
_symmetry_Int_Tables_number      19
_space_group_name_Hall           'P 2ac 2ab'
loop_
_symmetry_equiv_pos_site_id
_symmetry_equiv_pos_as_xyz
1 x,y,z
2 1/2-x,-y,1/2+z
3 1/2+x,1/2-y,-z
4 -x,1/2+y,1/2-z
_cell_length_a                   8.849(1)
_cell_length_b                   17.212(1)
_cell_length_c                   24.025(1)
_cell_angle_alpha                90
_cell_angle_beta                 90
_cell_angle_gamma                90
_cell_volume                     3659.22
_exptl_crystal_colour            colorless
_exptl_crystal_description       platelet
_cell_formula_units_Z            8
loop_
_atom_site_label
_atom_site_type_symbol
_atom_site_fract_x
_atom_site_fract_y
_atom_site_fract_z
O1 O 0.3544(6) 0.9631(3) 0.9730(2)
N1 N 0.5754(7) 0.9577(4) 1.0214(2)
H1 H 0.6610 0.9796 1.0278
N2 N 0.5513(7) 1.0408(4) 0.9464(3)
H2 H 0.6371 1.0591 0.9569
C1 C 0.4916(9) 1.0712(5) 0.8978(3)
F1 F 0.7296(6) 1.0721(3) 0.7495(2)
F2 F 0.0345(7) 1.1317(4) 0.8885(4)
C2 C 0.4880(9) 0.9842(5) 0.9799(3)
C3 C 0.3389(9) 1.0932(5) 0.8949(4)
H3 H 0.2800 1.0881 0.9268
N3 N 0.7886(8) 0.8455(4) 1.0422(3)
C4 C 0.5808(10) 1.0824(5) 0.8511(3)
H4 H 0.6830 1.0697 0.8522
C5 C 0.2712(11) 1.1221(6) 0.8471(5)
C6 C 0.4187(10) 0.9229(6) 1.1005(3)
H5 H 0.3305 0.9465 1.0835
H6 H 0.4677 0.9615 1.1237
F3 F 0.0412(7) 1.1120(5) 0.8037(3)
C7 C 0.3652(12) 1.1339(6) 0.8001(5)
H7 H 0.3264 1.1556 0.7677
C8 C 0.5193(11) 1.1121(5) 0.8034(4)
F4 F 0.5454(12) 1.1219(8) 0.7067(3)
C9 C 0.6709(9) 0.8564(5) 1.0841(3)
H8 H 0.7096 0.8952 1.1102
C10 C 0.5289(8) 0.8944(5) 1.0549(3)
H9 H 0.4784 0.8555 1.0316
F5 F 0.0981(6) 1.2213(4) 0.8332(4)
C11 C 0.7530(11) 0.7814(5) 1.0024(3)
H10 H 0.7423 0.7335 1.0225
H11 H 0.8335 0.7765 0.9758
H12 H 0.6604 0.7929 0.9833
C12 C 0.1111(11) 1.1467(8) 0.8439(5)
C13 C 0.3686(11) 0.8490(6) 1.1379(4)
H13 H 0.3001 0.8656 1.1670
H14 H 0.3166 0.8112 1.1148
C14 C 0.6233(12) 0.7878(6) 1.1186(4)
H15 H 0.5786 0.7486 1.0948
H16 H 0.7112 0.7653 1.1365
F6 F 0.6789(15) 1.1887(6) 0.7542(5)
C15 C 0.5079(11) 0.8127(6) 1.1633(4)
H17 H 0.5550 0.8497 1.1883
H18 H 0.4786 0.7676 1.1850
C16 C 0.9335(10) 0.8324(8) 1.0688(4)
H19 H 0.9596 0.8767 1.0910
H20 H 1.0095 0.8245 1.0408
H21 H 0.9274 0.7871 1.0920
C17 C 0.623(2) 1.1219(9) 0.7539(5)
F7 F 0.5363(5) 0.8666(3) 0.8814(2)
O2 O 0.8559(6) 1.0283(4) 0.9751(3)
C18 C 0.9813(8) 0.9332(4) 0.8891(3)
N4 N 1.0506(7) 0.9556(4) 0.9395(3)
H22 H 1.1396 0.9381 0.9466
C19 C 1.0716(9) 0.9277(5) 0.8426(3)
H23 H 1.1741 0.9392 0.8451
C20 C 0.7670(8) 0.8869(4) 0.8364(3)
C21 C 0.8290(8) 0.9112(5) 0.8866(3)
H24 H 0.7695 0.9129 0.9185
F8 F 0.5277(5) 0.9086(4) 0.7982(3)
C22 C 0.6083(11) 0.8649(6) 0.8334(4)
C23 C 1.0099(9) 0.9051(5) 0.7922(3)
C24 C 0.8543(9) 0.8844(5) 0.7884(3)
H25 H 0.8122 0.8697 0.7546
N5 N 1.0818(8) 1.0169(6) 1.0203(4)
H26 H 1.1701 0.9967 1.0168
F9 F 0.5937(6) 0.7908(4) 0.8139(2)
F10 F 1.0339(7) 0.8920(5) 0.6956(2)
C25 C 1.1034(10) 0.9034(7) 0.7427(4)
C26 C 0.9839(10) 1.0041(6) 0.9782(4)
C27 C 1.0570(9) 1.1937(5) 1.1173(4)
H27 H 1.1380 1.1787 1.1423
H28 H 1.0666 1.2487 1.1092
N6 N 1.2075(9) 1.1631(5) 1.0256(3)
C28 C 0.9077(10) 1.0509(7) 1.1044(4)
H29 H 0.8266 1.0708 1.0812
H30 H 0.8924 0.9953 1.1079
C29 C 1.0659(9) 1.1402(5) 1.0565(5)
H31 H 0.9780 1.1530 1.0335
C30 C 1.3503(15) 1.1484(8) 1.0579(5)
H32 H 1.4331 1.1745 1.0401
H33 H 1.3702 1.0935 1.0590
H34 H 1.3389 1.1676 1.0951
C31 C 1.0533(11) 1.0635(8) 1.0739(5)
H35 H 1.1364 1.0528 1.0997
C32 C 0.8923(15) 1.0820(10) 1.1546(6)
H36 H 0.9716 1.0643 1.1795
H37 H 0.7949 1.0689 1.1706
C33 C 0.9059(18) 1.1770(9) 1.1433(5)
H38 H 0.8255 1.1938 1.1187
H39 H 0.8964 1.2050 1.1782
C34 C 1.2024(15) 1.2371(8) 1.0074(7)
H40 H 1.1089 1.2457 0.9880
H41 H 1.2854 1.2464 0.9826
H42 H 1.2090 1.2718 1.0385
F11 F 1.1841(9) 0.9666(6) 0.7333(3)
F12 F 1.2117(9) 0.8527(5) 0.7441(3)
loop_
_geom_bond_atom_site_label_1
_geom_bond_atom_site_label_2
_geom_bond_site_symmetry_1
_geom_bond_site_symmetry_2
O1 C2 1_555 1_555
N1 H1 1_555 1_555
N2 H2 1_555 1_555
C1 N2 1_555 1_555
F1 C17 1_555 1_555
F2 C12 1_555 1_555
C2 N1 1_555 1_555
C3 C1 1_555 1_555
H3 C3 1_555 1_555
N3 C9 1_555 1_555
C4 C1 1_555 1_555
H4 C4 1_555 1_555
C5 C3 1_555 1_555
C6 H5 1_555 1_555
H6 C6 1_555 1_555
F3 C12 1_555 1_555
C7 C5 1_555 1_555
H7 C7 1_555 1_555
C8 C4 1_555 1_555
F4 C17 1_555 1_555
C9 H8 1_555 1_555
C10 N1 1_555 1_555
H9 C10 1_555 1_555
F5 C12 1_555 1_555
C11 N3 1_555 1_555
H10 C11 1_555 1_555
H11 C11 1_555 1_555
H12 C11 1_555 1_555
C12 C5 1_555 1_555
C13 C6 1_555 1_555
H13 C13 1_555 1_555
H14 C13 1_555 1_555
C14 C9 1_555 1_555
H15 C14 1_555 1_555
H16 C14 1_555 1_555
F6 C17 1_555 1_555
C15 C13 1_555 1_555
H17 C15 1_555 1_555
H18 C15 1_555 1_555
C16 N3 1_555 1_555
H19 C16 1_555 1_555
H20 C16 1_555 1_555
H21 C16 1_555 1_555
C17 C8 1_555 1_555
F7 C22 1_555 1_555
O2 C26 1_555 1_555
C18 N4 1_555 1_555
N4 H22 1_555 1_555
C19 C18 1_555 1_555
H23 C19 1_555 1_555
C20 C21 1_555 1_555
C21 C18 1_555 1_555
H24 C21 1_555 1_555
F8 C22 1_555 1_555
C22 C20 1_555 1_555
C23 C19 1_555 1_555
C24 C20 1_555 1_555
H25 C24 1_555 1_555
N5 H26 1_555 1_555
F9 C22 1_555 1_555
F10 C25 1_555 1_555
C25 C23 1_555 1_555
C26 N4 1_555 1_555
C27 H27 1_555 1_555
H28 C27 1_555 1_555
N6 C29 1_555 1_555
C28 H29 1_555 1_555
H30 C28 1_555 1_555
C29 C27 1_555 1_555
H31 C29 1_555 1_555
C30 N6 1_555 1_555
H32 C30 1_555 1_555
H33 C30 1_555 1_555
H34 C30 1_555 1_555
C31 N5 1_555 1_555
H35 C31 1_555 1_555
C32 C28 1_555 1_555
H36 C32 1_555 1_555
H37 C32 1_555 1_555
C33 C27 1_555 1_555
H38 C33 1_555 1_555
H39 C33 1_555 1_555
C34 N6 1_555 1_555
H40 C34 1_555 1_555
H41 C34 1_555 1_555
H42 C34 1_555 1_555
F11 C25 1_555 1_555
F12 C25 1_555 1_555
N2 C2 1_555 1_555
C6 C10 1_555 1_555
C7 C8 1_555 1_555
C9 C10 1_555 1_555
C14 C15 1_555 1_555
C23 C24 1_555 1_555
N5 C26 1_555 1_555
C28 C31 1_555 1_555
C29 C31 1_555 1_555
C32 C33 1_555 1_555

#END
