
#######################################################################
#
#                 Cambridge Crystallographic Data Centre
#                                CCDC 
#
#######################################################################
#
# If this CIF has been generated from an entry in the Cambridge 
# Structural Database, then it will include bibliographic, chemical, 
# crystal, experimental, refinement or atomic coordinate data resulting 
# from the CCDC's data processing and validation procedures.
#
#######################################################################

data_FIQSAB
_chemical_formula_moiety         'C15 H8 N2 O3'
_chemical_name_systematic        
4-(3-oxo-1,3-dihydro-2H-indol-2-ylidene)-2,1-benzoxazol-5(4H)-one
_symmetry_cell_setting           orthorhombic
_symmetry_space_group_name_H-M   'P b c a'
_symmetry_Int_Tables_number      61
_space_group_name_Hall           '-P 2ac 2ab'
loop_
_symmetry_equiv_pos_site_id
_symmetry_equiv_pos_as_xyz
1 x,y,z
2 1/2-x,-y,1/2+z
3 1/2+x,1/2-y,-z
4 -x,1/2+y,1/2-z
5 -x,-y,-z
6 1/2+x,y,1/2-z
7 1/2-x,1/2+y,z
8 x,1/2-y,1/2+z
_cell_length_a                   12.947(12)
_cell_length_b                   8.279(8)
_cell_length_c                   20.54(2)
_cell_angle_alpha                90
_cell_angle_beta                 90
_cell_angle_gamma                90
_cell_volume                     2201.65
_exptl_crystal_colour            violet
_exptl_crystal_description       block
_cell_formula_units_Z            8
loop_
_atom_site_label
_atom_site_type_symbol
_atom_site_fract_x
_atom_site_fract_y
_atom_site_fract_z
O1 O 0.95779(14) 0.0533(2) 0.36090(8)
C1 C 0.8841(2) -0.0059(3) 0.39183(12)
C2 C 0.9087(2) -0.1103(3) 0.44750(12)
C3 C 0.8369(2) -0.1776(3) 0.48466(12)
C4 C 0.7308(2) -0.1466(3) 0.47006(11)
N1 N 0.65251(18) -0.2038(2) 0.50350(9)
O2 O 0.56500(13) -0.1414(2) 0.47204(8)
C5 C 0.5952(2) -0.0499(3) 0.42099(12)
C6 C 0.69920(19) -0.0484(3) 0.41653(10)
C7 C 0.7762(2) 0.0249(3) 0.37405(11)
C8 C 0.75623(18) 0.1194(3) 0.32007(11)
N2 N 0.83177(17) 0.1848(2) 0.28210(9)
C9 C 0.78987(18) 0.2753(3) 0.23104(10)
C10 C 0.8424(2) 0.3582(3) 0.18314(11)
C11 C 0.7825(2) 0.4403(3) 0.13830(12)
C12 C 0.6757(2) 0.4400(3) 0.14086(12)
C13 C 0.6247(2) 0.3562(3) 0.18910(11)
C14 C 0.68332(19) 0.2723(3) 0.23429(10)
C15 C 0.6548(2) 0.1730(3) 0.28989(10)
O3 O 0.56808(13) 0.1370(2) 0.30853(7)
H1 H 0.980(2) -0.125(3) 0.4554(12)
H2 H 0.8515(19) -0.248(3) 0.5196(12)
H3 H 0.539(2) 0.003(3) 0.3936(12)
H4 H 0.907(2) 0.159(3) 0.2946(12)
H5 H 0.918(2) 0.359(3) 0.1805(11)
H6 H 0.817(2) 0.504(3) 0.1073(12)
H7 H 0.640(2) 0.504(3) 0.1085(12)
H8 H 0.549(2) 0.354(3) 0.1923(11)
loop_
_geom_bond_atom_site_label_1
_geom_bond_atom_site_label_2
_geom_bond_site_symmetry_1
_geom_bond_site_symmetry_2
O1 C1 1_555 1_555
C1 C2 1_555 1_555
C2 C3 1_555 1_555
C3 C4 1_555 1_555
C4 N1 1_555 1_555
N1 O2 1_555 1_555
O2 C5 1_555 1_555
C5 C6 1_555 1_555
C6 C4 1_555 1_555
C7 C1 1_555 1_555
C8 C7 1_555 1_555
N2 C8 1_555 1_555
C9 N2 1_555 1_555
C10 C9 1_555 1_555
C11 C10 1_555 1_555
C12 C11 1_555 1_555
C13 C12 1_555 1_555
C14 C9 1_555 1_555
C15 C8 1_555 1_555
O3 C15 1_555 1_555
H1 C2 1_555 1_555
H2 C3 1_555 1_555
H3 C5 1_555 1_555
H4 N2 1_555 1_555
H5 C10 1_555 1_555
H6 C11 1_555 1_555
H7 C12 1_555 1_555
H8 C13 1_555 1_555
C6 C7 1_555 1_555
C13 C14 1_555 1_555
C14 C15 1_555 1_555

#END
