
#######################################################################
#
#                 Cambridge Crystallographic Data Centre
#                                CCDC 
#
#######################################################################
#
# If this CIF has been generated from an entry in the Cambridge 
# Structural Database, then it will include bibliographic, chemical, 
# crystal, experimental, refinement or atomic coordinate data resulting 
# from the CCDC's data processing and validation procedures.
#
#######################################################################

data_FIQVEH
_chemical_formula_moiety         'C8 H20 N1 1+,C5 H8 N1 O2 S2 1-'
_chemical_name_systematic        
'Tetraethylammonium O-(2-(acetylamino)ethyl)xanthate'
_symmetry_cell_setting           monoclinic
_symmetry_space_group_name_H-M   'P 21'
_symmetry_Int_Tables_number      4
_space_group_name_Hall           'P 2yb'
loop_
_symmetry_equiv_pos_site_id
_symmetry_equiv_pos_as_xyz
1 x,y,z
2 -x,1/2+y,-z
_cell_length_a                   8.6621(9)
_cell_length_b                   9.6615(10)
_cell_length_c                   10.7264(11)
_cell_angle_alpha                90
_cell_angle_beta                 107.609(2)
_cell_angle_gamma                90
_cell_volume                     855.618
_exptl_crystal_colour            colorless
_exptl_crystal_description       block
_cell_formula_units_Z            2
_exptl_crystal_recrystallization_method ether/acetonitrile
loop_
_atom_site_label
_atom_site_type_symbol
_atom_site_fract_x
_atom_site_fract_y
_atom_site_fract_z
S1 S 0.73194(9) 0.20041(10) 0.92795(7)
S2 S 0.55627(13) 0.03443(8) 0.69334(10)
O1 O 0.7379(2) 0.2544(2) 0.6963(2)
O2 O 1.0546(3) 0.5152(2) 0.5526(3)
N1 N 0.9441(3) 0.3022(2) 0.5193(2)
H1 H 0.9625 0.2149 0.5171
C1 C 0.6755(3) 0.1657(3) 0.7663(3)
C2 C 0.6862(4) 0.2433(4) 0.5564(3)
H2 H 0.5710 0.2621 0.5221
H3 H 0.7060 0.1504 0.5304
C3 C 0.7807(4) 0.3477(4) 0.5027(3)
H4 H 0.7259 0.3622 0.4104
H5 H 0.7834 0.4354 0.5473
C4 C 1.0688(4) 0.3901(3) 0.5379(3)
C5 C 1.2272(4) 0.3254(4) 0.5415(4)
H6 H 1.3085 0.3960 0.5546
H7 H 1.2161 0.2789 0.4601
H8 H 1.2584 0.2599 0.6119
N2 N 0.7394(3) 0.6608(3) 0.9644(2)
C6 C 0.8209(9) 0.7097(9) 0.8687(7)
C9 C 0.835(2) 0.601(2) 0.7755(14)
C10 C 0.5718(7) 0.6885(9) 0.8664(6)
C12 C 0.5044(11) 0.5593(10) 0.7741(8)
C14 C 0.7252(7) 0.5546(6) 1.0634(5)
C16 C 0.8845(11) 0.5318(10) 1.1750(7)
C18 C 0.7049(9) 0.7943(8) 1.0390(7)
C20 C 0.7253(11) 0.8545(9) 1.1129(10)
C7? C 0.8530(7) 0.5958(6) 0.8897(6)
C8? C 0.8689(13) 0.6863(14) 0.7785(10)
C11? C 0.5750(9) 0.5958(11) 0.9017(8)
C13? C 0.4633(13) 0.6742(17) 0.7961(9)
C15? C 0.8436(11) 0.5635(7) 1.0634(7)
C17? C 0.7903(15) 0.5189(11) 1.1795(9)
C19? C 0.8152(8) 0.7927(7) 1.0215(6)
C21? C 0.8549(12) 0.8669(9) 1.1241(7)
loop_
_geom_bond_atom_site_label_1
_geom_bond_atom_site_label_2
_geom_bond_site_symmetry_1
_geom_bond_site_symmetry_2
S1 C1 1_555 1_555
S2 C1 1_555 1_555
O1 C1 1_555 1_555
O2 C4 1_555 1_555
N1 H1 1_555 1_555
N2 C6 1_555 1_555
C2 O1 1_555 1_555
H2 C2 1_555 1_555
H3 C2 1_555 1_555
C3 N1 1_555 1_555
H4 C3 1_555 1_555
H5 C3 1_555 1_555
C4 N1 1_555 1_555
C5 C4 1_555 1_555
H6 C5 1_555 1_555
H7 C5 1_555 1_555
H8 C5 1_555 1_555
C6 C9 1_555 1_555
C10 N2 1_555 1_555
C12 C10 1_555 1_555
C14 N2 1_555 1_555
C16 C14 1_555 1_555
C18 N2 1_555 1_555
C20 C18 1_555 1_555
C2 C3 1_555 1_555

#END
