
#######################################################################
#
#                 Cambridge Crystallographic Data Centre
#                                CCDC 
#
#######################################################################
#
# If this CIF has been generated from an entry in the Cambridge 
# Structural Database, then it will include bibliographic, chemical, 
# crystal, experimental, refinement or atomic coordinate data resulting 
# from the CCDC's data processing and validation procedures.
#
#######################################################################

data_FIQWAE
_chemical_formula_moiety         'C10 H16 O7'
_chemical_name_systematic        
'(+)-Ethyl 3-(acetoxy)-4,5-dihydroxytetrahydro-2H-pyran-2-carboxylate'
_symmetry_cell_setting           orthorhombic
_symmetry_space_group_name_H-M   'P 21 21 21'
_symmetry_Int_Tables_number      19
_space_group_name_Hall           'P 2ac 2ab'
loop_
_symmetry_equiv_pos_site_id
_symmetry_equiv_pos_as_xyz
1 x,y,z
2 1/2-x,-y,1/2+z
3 -x,1/2+y,1/2-z
4 1/2+x,1/2-y,-z
_cell_length_a                   6.4447(5)
_cell_length_b                   9.1385(7)
_cell_length_c                   20.0137(16)
_cell_angle_alpha                90
_cell_angle_beta                 90
_cell_angle_gamma                90
_cell_volume                     1178.7
_exptl_crystal_colour            colorless
_exptl_crystal_description       block
_cell_formula_units_Z            4
loop_
_atom_site_label
_atom_site_type_symbol
_atom_site_fract_x
_atom_site_fract_y
_atom_site_fract_z
O1 O 0.8126(2) 1.16158(11) 0.16979(5)
O2 O 0.8571(2) 1.01856(13) 0.30014(6)
H1 H 0.9365 1.0802 0.2849
O3 O 0.8487(2) 0.73869(11) 0.24360(5)
H2 H 0.9025 0.7668 0.2784
O4 O 0.98604(15) 0.80232(10) 0.11238(5)
O5 O 1.3258(2) 0.84902(16) 0.11079(7)
O6 O 1.1597(2) 1.21408(14) 0.10051(7)
O7 O 1.04613(19) 1.06290(12) 0.02109(5)
C1 C 0.6432(3) 1.11400(19) 0.21020(9)
H3 H 0.5270 1.0879 0.1818
H4 H 0.5996 1.1932 0.2392
C2 C 0.7048(3) 0.98392(17) 0.25184(8)
H5 H 0.5809 0.9495 0.2755
C3 C 0.7791(2) 0.86072(15) 0.20653(7)
H6 H 0.6617 0.8293 0.1789
C4 C 0.9481(2) 0.91622(14) 0.16036(7)
H7 H 1.0747 0.9373 0.1858
C5 C 0.8739(2) 1.05403(15) 0.12345(7)
H8 H 0.7560 1.0290 0.0947
C6 C 1.1817(2) 0.77854(17) 0.09200(8)
C7 C 1.1892(3) 0.6567(2) 0.04306(9)
H9 H 1.3301 0.6406 0.0294
H10 H 1.1067 0.6814 0.0047
H11 H 1.1355 0.5694 0.0633
C8 C 1.0442(3) 1.12141(16) 0.08155(8)
C9 C 1.2069(3) 1.1139(2) -0.02451(10)
H12 H 1.3432 1.0945 -0.0059
H13 H 1.1936 1.2184 -0.0317
C10 C 1.1806(4) 1.0343(2) -0.08840(9)
H14 H 1.2858 1.0649 -0.1194
H15 H 1.0461 1.0554 -0.1066
H16 H 1.1928 0.9310 -0.0806
loop_
_geom_bond_atom_site_label_1
_geom_bond_atom_site_label_2
_geom_bond_site_symmetry_1
_geom_bond_site_symmetry_2
O1 C1 1_555 1_555
O2 H1 1_555 1_555
O3 H2 1_555 1_555
O4 C4 1_555 1_555
O5 C6 1_555 1_555
O6 C8 1_555 1_555
O7 C8 1_555 1_555
C1 H3 1_555 1_555
H4 C1 1_555 1_555
C2 O2 1_555 1_555
H5 C2 1_555 1_555
C3 O3 1_555 1_555
H6 C3 1_555 1_555
C4 C3 1_555 1_555
H7 C4 1_555 1_555
C5 O1 1_555 1_555
H8 C5 1_555 1_555
C6 O4 1_555 1_555
C7 C6 1_555 1_555
H9 C7 1_555 1_555
H10 C7 1_555 1_555
H11 C7 1_555 1_555
C8 C5 1_555 1_555
C9 O7 1_555 1_555
H12 C9 1_555 1_555
H13 C9 1_555 1_555
C10 C9 1_555 1_555
H14 C10 1_555 1_555
H15 C10 1_555 1_555
H16 C10 1_555 1_555
C1 C2 1_555 1_555
C2 C3 1_555 1_555
C4 C5 1_555 1_555

#END
