
#######################################################################
#
#                 Cambridge Crystallographic Data Centre
#                                CCDC 
#
#######################################################################
#
# If this CIF has been generated from an entry in the Cambridge 
# Structural Database, then it will include bibliographic, chemical, 
# crystal, experimental, refinement or atomic coordinate data resulting 
# from the CCDC's data processing and validation procedures.
#
#######################################################################

data_FIRLUN
_chemical_formula_moiety         'C17 H26 N1 O1 1+,Cl1 1-'
_chemical_name_systematic        
'cis-1-Phenyl-3-piperidinocyclohexan-1-ol hydrochloride'
_symmetry_cell_setting           triclinic
_symmetry_space_group_name_H-M   'P 1'
_symmetry_Int_Tables_number      1
_space_group_name_Hall           'P 1'
loop_
_symmetry_equiv_pos_site_id
_symmetry_equiv_pos_as_xyz
1 x,y,z
_cell_length_a                   6.786(1)
_cell_length_b                   7.658(1)
_cell_length_c                   8.561(1)
_cell_angle_alpha                108.17(1)
_cell_angle_beta                 97.94(1)
_cell_angle_gamma                103.32(2)
_cell_volume                     400.587
_chemical_melting_point          260-262deg.C
_cell_formula_units_Z            1
loop_
_atom_site_label
_atom_site_type_symbol
_atom_site_fract_x
_atom_site_fract_y
_atom_site_fract_z
Cl1 Cl 0.0000 0.0000 0.0000
C1 C -0.6661(8) -0.0870(8) -0.3352(7)
C2 C -0.5521(8) -0.1396(8) -0.1969(7)
C3 C -0.5003(8) -0.3273(7) -0.2643(7)
C4 C -0.6930(9) -0.4955(8) -0.3638(8)
C5 C -0.8043(9) -0.4459(9) -0.5030(8)
C6 C -0.8590(8) -0.2604(9) -0.4372(8)
N1 N -0.3716(7) -0.3621(6) -0.1239(6)
C7 C -0.2741(9) -0.5187(9) -0.1912(8)
C8 C -0.1199(9) -0.5304(9) -0.0497(9)
C9 C -0.2295(9) -0.5638(9) 0.0877(9)
C10 C -0.3322(9) -0.4109(9) 0.1514(9)
C11 C -0.4865(9) -0.4004(9) 0.0063(8)
C12 C -0.5305(8) -0.0296(2) -0.4508(7)
C13 C -0.3144(8) 0.0099(8) -0.4121(7)
C14 C -0.1961(8) 0.0748(9) -0.5154(8)
C15 C -0.2896(9) 0.1032(9) -0.6549(8)
C16 C -0.5043(9) 0.0655(9) -0.6946(8)
C17 C -0.6231(8) 0.0011(8) -0.5923(7)
O1 O -0.7292(6) 0.0789(6) -0.2599(5)
H1 H -0.784(8) 0.061(7) -0.184(7)
H2 H -0.429(8) -0.017(7) -0.119(7)
H3 H -0.634(7) -0.144(7) -0.120(6)
H4 H -0.398(8) -0.327(7) -0.351(6)
H5 H -0.658(8) -0.631(7) -0.425(6)
H6 H -0.776(8) -0.502(8) -0.279(6)
H7 H -0.726(8) -0.456(7) -0.592(6)
H8 H -0.916(8) -0.549(7) -0.564(6)
H9 H -0.938(8) -0.232(7) -0.526(6)
H10 H -0.940(8) -0.255(7) -0.351(6)
H11 H -0.277(7) -0.258(7) -0.069(6)
H12 H -0.385(8) -0.653(8) -0.259(7)
H13 H -0.205(7) -0.504(7) -0.277(6)
H14 H -0.083(8) -0.659(8) -0.115(7)
H15 H -0.014(8) -0.410(7) -0.004(7)
H16 H -0.122(8) -0.562(7) 0.180(6)
H17 H -0.340(8) -0.706(8) 0.024(7)
H18 H -0.406(8) -0.418(7) 0.232(6)
H19 H -0.245(8) -0.291(8) 0.219(7)
H20 H -0.602(8) -0.546(7) -0.061(6)
H21 H -0.534(8) -0.278(7) 0.059(6)
H22 H -0.233(7) 0.000(7) -0.297(6)
H23 H -0.046(7) 0.090(7) -0.493(6)
H24 H -0.208(8) 0.112(7) -0.748(7)
H25 H -0.575(8) 0.106(7) -0.804(7)
H26 H -0.765(8) -0.015(7) -0.613(7)
loop_
_geom_bond_atom_site_label_1
_geom_bond_atom_site_label_2
_geom_bond_site_symmetry_1
_geom_bond_site_symmetry_2
C1 C2 1_555 1_555
C2 C3 1_555 1_555
C3 C4 1_555 1_555
C4 C5 1_555 1_555
C5 C6 1_555 1_555
C6 C1 1_555 1_555
N1 C3 1_555 1_555
C7 N1 1_555 1_555
C8 C7 1_555 1_555
C9 C8 1_555 1_555
C10 C9 1_555 1_555
C11 N1 1_555 1_555
C12 C1 1_555 1_555
C13 C12 1_555 1_555
C14 C13 1_555 1_555
C15 C14 1_555 1_555
C16 C15 1_555 1_555
C17 C12 1_555 1_555
O1 C1 1_555 1_555
H1 O1 1_555 1_555
H2 C2 1_555 1_555
H3 C2 1_555 1_555
H4 C3 1_555 1_555
H5 C4 1_555 1_555
H6 C4 1_555 1_555
H7 C5 1_555 1_555
H8 C5 1_555 1_555
H9 C6 1_555 1_555
H10 C6 1_555 1_555
H11 N1 1_555 1_555
H12 C7 1_555 1_555
H13 C7 1_555 1_555
H14 C8 1_555 1_555
H15 C8 1_555 1_555
H16 C9 1_555 1_555
H17 C9 1_555 1_555
H18 C10 1_555 1_555
H19 C10 1_555 1_555
H20 C11 1_555 1_555
H21 C11 1_555 1_555
H22 C13 1_555 1_555
H23 C14 1_555 1_555
H24 C15 1_555 1_555
H25 C16 1_555 1_555
H26 C17 1_555 1_555
C10 C11 1_555 1_555
C16 C17 1_555 1_555

#END
