
#######################################################################
#
#                 Cambridge Crystallographic Data Centre
#                                CCDC 
#
#######################################################################
#
# If this CIF has been generated from an entry in the Cambridge 
# Structural Database, then it will include bibliographic, chemical, 
# crystal, experimental, refinement or atomic coordinate data resulting 
# from the CCDC's data processing and validation procedures.
#
#######################################################################

data_FIRMAV
_chemical_formula_moiety         'C16 H22 O10'
_chemical_name_systematic        
'manno-n-Butyl (2R,3R,4R)-2,3,4-triacetoxy-4-((2R)-5-oxotetrahydrofuran-2-yl)acetate'
_symmetry_cell_setting           monoclinic
_symmetry_space_group_name_H-M   'P 21'
_symmetry_Int_Tables_number      4
_space_group_name_Hall           'P 2yb'
loop_
_symmetry_equiv_pos_site_id
_symmetry_equiv_pos_as_xyz
1 x,y,z
2 -x,1/2+y,-z
_cell_length_a                   12.126(1)
_cell_length_b                   8.507(1)
_cell_length_c                   17.874(2)
_cell_angle_alpha                90
_cell_angle_beta                 92.430(10)
_cell_angle_gamma                90
_cell_volume                     1842.15
_exptl_crystal_colour            colorless
_exptl_crystal_description       plate
_cell_formula_units_Z            4
loop_
_atom_site_label
_atom_site_type_symbol
_atom_site_fract_x
_atom_site_fract_y
_atom_site_fract_z
O1 O 0.2124(3) 0.7912 0.09588(19)
C1 C 0.1943(5) 0.8197(10) 0.0249(3)
O2 O 0.2668(4) 0.8571(9) -0.0157(3)
C2 C 0.0752(6) 0.7806(15) 0.0052(4)
H1 H 0.0426 0.8597 -0.0280
H2 H 0.0695 0.6791 -0.0195
C3 C 0.0198(4) 0.7775(10) 0.0754(3)
H3 H -0.0366 0.6966 0.0752
H4 H -0.0138 0.8783 0.0857
C4 C 0.1135(4) 0.7406(8) 0.1327(3)
H5 H 0.1170 0.6267 0.1408
C5 C 0.1139(4) 0.8230(7) 0.2078(3)
H6 H 0.1882 0.8144 0.2313
O3 O 0.0889(2) 0.9882(6) 0.19687(17)
C6 C 0.0322(3) 0.7561(7) 0.2615(3)
H7 H 0.0548 0.6488 0.2749
O4 O -0.0793(2) 0.7513(6) 0.22827(17)
C7 C 0.0235(3) 0.8514(8) 0.3331(2)
H8 H 0.0028 0.9593 0.3195
O5 O 0.1333(2) 0.8535(6) 0.36679(16)
C8 C -0.0599(4) 0.7883(8) 0.3846(3)
H9 H -0.0552 0.8452 0.4316
H10 H -0.1335 0.8026 0.3623
O6 O -0.0394(2) 0.6218(7) 0.39811(18)
C9 C 0.1716(4) 1.0960(8) 0.2148(3)
O7 O 0.2623(3) 1.0558(7) 0.2338(2)
C10 C 0.1276(5) 1.2582(8) 0.2094(4)
H11 H 0.1799 1.3298 0.2325
H12 H 0.0593 1.2641 0.2344
H13 H 0.1152 1.2860 0.1576
C11 C -0.1246(4) 0.6092(8) 0.2110(3)
O8 O -0.0716(3) 0.4897(7) 0.2154(3)
C12 C -0.2406(4) 0.6202(9) 0.1866(3)
H14 H -0.2656 0.5200 0.1679
H15 H -0.2491 0.6975 0.1477
H16 H -0.2835 0.6503 0.2282
C13 C 0.1679(4) 0.9867(8) 0.4013(3)
O9 O 0.1070(3) 1.0947(7) 0.4099(3)
C14 C 0.2859(4) 0.9804(8) 0.4268(3)
H17 H 0.2957 1.0347 0.4737
H18 H 0.3301 1.0297 0.3901
H19 H 0.3082 0.8728 0.4330
C15 C -0.1268(5) 0.5240(8) 0.3954(3)
O10 O -0.2201(3) 0.5677(7) 0.3839(3)
C16 C -0.0921(5) 0.3611(9) 0.4077(4)
H20 H -0.1553 0.2980 0.4182
H21 H -0.0396 0.3564 0.4494
H22 H -0.0588 0.3219 0.3637
O11 O 0.6414(3) 0.8432(7) 0.88763(19)
C17 C 0.6924(6) 0.8121(10) 0.9546(4)
O12 O 0.7886(5) 0.8599(10) 0.9645(3)
C18 C 0.6195(6) 0.7362(10) 1.0045(3)
H23 H 0.5948 0.8093 1.0419
H24 H 0.6558 0.6481 1.0297
C19 C 0.5246(6) 0.6815(9) 0.9547(3)
H25 H 0.4555 0.6870 0.9800
H26 H 0.5359 0.5749 0.9374
C20 C 0.5271(4) 0.7974(8) 0.8911(2)
H27 H 0.4829 0.8897 0.9034
C21 C 0.4878(3) 0.7347(7) 0.8150(2)
H28 H 0.5127 0.6259 0.8095
O13 O 0.3674(2) 0.7385(6) 0.81597(17)
C22 C 0.5211(4) 0.8311(7) 0.7475(2)
H29 H 0.5995 0.8143 0.7386
O14 O 0.5020(2) 0.9954(6) 0.76552(16)
C23 C 0.4521(3) 0.7928(7) 0.6772(2)
H30 H 0.3740 0.8084 0.6870
O15 O 0.4712(2) 0.6262(6) 0.66240(16)
C24 C 0.4806(4) 0.8879(8) 0.6094(2)
H31 H 0.4397 0.8489 0.5654
H32 H 0.4607 0.9971 0.6166
O16 O 0.5979(2) 0.8749(6) 0.59895(17)
C25 C 0.3124(4) 0.6015(8) 0.8274(3)
O17 O 0.3580(3) 0.4827(7) 0.8405(3)
C26 C 0.1910(4) 0.6275(9) 0.8200(3)
H33 H 0.1534 0.5292 0.8257
H34 H 0.1722 0.6706 0.7715
H35 H 0.1691 0.6995 0.8580
C27 C 0.5902(4) 1.0956(8) 0.7664(3)
O18 O 0.6778(3) 1.0644(6) 0.7439(2)
C28 C 0.5589(4) 1.2490(8) 0.8019(3)
H36 H 0.5930 1.3343 0.7764
H37 H 0.5836 1.2491 0.8537
H38 H 0.4801 1.2612 0.7983
C29 C 0.3836(4) 0.5377(8) 0.6432(3)
O19 O 0.2894(3) 0.5841(7) 0.6406(2)
C30 C 0.4159(5) 0.3731(8) 0.6243(3)
H39 H 0.3515 0.3075 0.6219
H40 H 0.4674 0.3341 0.6621
H41 H 0.4497 0.3722 0.5766
C31 C 0.6452(4) 0.9967(8) 0.5650(3)
O20 O 0.5947(3) 1.1070(7) 0.5410(3)
C32 C 0.7673(4) 0.9770(9) 0.5622(4)
H42 H 0.7929 1.0269 0.5180
H43 H 0.7849 0.8670 0.5610
H44 H 0.8025 1.0242 0.6057
loop_
_geom_bond_atom_site_label_1
_geom_bond_atom_site_label_2
_geom_bond_site_symmetry_1
_geom_bond_site_symmetry_2
O1 C1 1_555 1_555
C1 O2 1_555 1_555
C2 C1 1_555 1_555
H1 C2 1_555 1_555
H2 C2 1_555 1_555
C3 C2 1_555 1_555
H3 C3 1_555 1_555
H4 C3 1_555 1_555
C4 O1 1_555 1_555
H5 C4 1_555 1_555
C5 C4 1_555 1_555
H6 C5 1_555 1_555
O3 C5 1_555 1_555
C6 C5 1_555 1_555
H7 C6 1_555 1_555
O4 C6 1_555 1_555
C7 C6 1_555 1_555
H8 C7 1_555 1_555
O5 C7 1_555 1_555
C8 C7 1_555 1_555
H9 C8 1_555 1_555
H10 C8 1_555 1_555
O6 C8 1_555 1_555
C9 O3 1_555 1_555
O7 C9 1_555 1_555
C10 C9 1_555 1_555
H11 C10 1_555 1_555
H12 C10 1_555 1_555
H13 C10 1_555 1_555
C11 O4 1_555 1_555
O8 C11 1_555 1_555
C12 C11 1_555 1_555
H14 C12 1_555 1_555
H15 C12 1_555 1_555
H16 C12 1_555 1_555
C13 O5 1_555 1_555
O9 C13 1_555 1_555
C14 C13 1_555 1_555
H17 C14 1_555 1_555
H18 C14 1_555 1_555
H19 C14 1_555 1_555
C15 O6 1_555 1_555
O10 C15 1_555 1_555
C16 C15 1_555 1_555
H20 C16 1_555 1_555
H21 C16 1_555 1_555
H22 C16 1_555 1_555
O11 C17 1_555 1_555
C17 O12 1_555 1_555
C18 C17 1_555 1_555
H23 C18 1_555 1_555
H24 C18 1_555 1_555
C19 C18 1_555 1_555
H25 C19 1_555 1_555
H26 C19 1_555 1_555
C20 O11 1_555 1_555
H27 C20 1_555 1_555
C21 C20 1_555 1_555
H28 C21 1_555 1_555
O13 C21 1_555 1_555
C22 C21 1_555 1_555
H29 C22 1_555 1_555
O14 C22 1_555 1_555
C23 C22 1_555 1_555
H30 C23 1_555 1_555
O15 C23 1_555 1_555
C24 C23 1_555 1_555
H31 C24 1_555 1_555
H32 C24 1_555 1_555
O16 C24 1_555 1_555
C25 O13 1_555 1_555
O17 C25 1_555 1_555
C26 C25 1_555 1_555
H33 C26 1_555 1_555
H34 C26 1_555 1_555
H35 C26 1_555 1_555
C27 O14 1_555 1_555
O18 C27 1_555 1_555
C28 C27 1_555 1_555
H36 C28 1_555 1_555
H37 C28 1_555 1_555
H38 C28 1_555 1_555
C29 O15 1_555 1_555
O19 C29 1_555 1_555
C30 C29 1_555 1_555
H39 C30 1_555 1_555
H40 C30 1_555 1_555
H41 C30 1_555 1_555
C31 O16 1_555 1_555
O20 C31 1_555 1_555
C32 C31 1_555 1_555
H42 C32 1_555 1_555
H43 C32 1_555 1_555
H44 C32 1_555 1_555
C3 C4 1_555 1_555
C19 C20 1_555 1_555

#END
