
#######################################################################
#
#                 Cambridge Crystallographic Data Centre
#                                CCDC 
#
#######################################################################
#
# If this CIF has been generated from an entry in the Cambridge 
# Structural Database, then it will include bibliographic, chemical, 
# crystal, experimental, refinement or atomic coordinate data resulting 
# from the CCDC's data processing and validation procedures.
#
#######################################################################

data_FIRYUA
_chemical_formula_moiety         'C22 H21 N3 O5 S1'
_chemical_name_systematic        
(+)-(R,R)-2-((S)-N-(\a-Methylbenzyl)-N-benzylsulfamyl)-3-(3-nitrophenyl)oxaziridine
_symmetry_cell_setting           monoclinic
_symmetry_space_group_name_H-M   'P 21'
_symmetry_Int_Tables_number      4
_space_group_name_Hall           'P 2yb'
loop_
_symmetry_equiv_pos_site_id
_symmetry_equiv_pos_as_xyz
1 x,y,z
2 -x,1/2+y,-z
_cell_length_a                   12.460(4)
_cell_length_b                   8.111(2)
_cell_length_c                   10.583(3)
_cell_angle_alpha                90
_cell_angle_beta                 94.07(2)
_cell_angle_gamma                90
_cell_volume                     1066.85
_chemical_melting_point          137-138deg.C
_cell_formula_units_Z            2
loop_
_atom_site_label
_atom_site_type_symbol
_atom_site_fract_x
_atom_site_fract_y
_atom_site_fract_z
C1 C 0.7825(3) 0.3442(5) -0.0914(4)
O1 O 0.7058(2) 0.2583(4) -0.0246(2)
N1 N 0.8078(2) 0.1741(4) -0.0549(3)
S1 S 0.8842(1) 0.1531 0.0864(1)
N2 N 0.8262(2) 0.0076(4) 0.1566(3)
C2 C 0.7444(3) 0.0468(5) 0.2468(3)
C3 C 0.7810(3) 0.0101(5) 0.3831(3)
C4 C 0.8800(4) 0.0632(8) 0.4350(4)
C5 C 0.9113(5) 0.0294(11) 0.5629(5)
C6 C 0.8435(6) -0.0482(9) 0.6380(4)
C7 C 0.7438(5) -0.0981(8) 0.5876(4)
C8 C 0.7155(3) -0.0701(6) 0.4587(4)
C9 C 0.8398(3) -0.1671(4) 0.1121(3)
C10 C 0.7334(3) -0.2455(5) 0.0688(3)
C11 C 0.6755(3) -0.3417(7) 0.1477(3)
C12 C 0.5820(4) -0.4186(8) 0.1090(5)
C13 C 0.5426(4) -0.3986(7) -0.0148(6)
C14 C 0.5957(4) -0.3001(7) -0.0984(5)
C15 C 0.6913(3) -0.2234(6) -0.0542(4)
O2 O 0.9833(2) 0.0958(4) 0.0438(3)
O3 O 0.8807(3) 0.2985(4) 0.1614(3)
C16 C 0.7577(3) 0.3738(5) -0.2295(3)
C17 C 0.8225(3) 0.4783(5) -0.2923(4)
C18 C 0.8032(4) 0.5016(7) -0.4192(4)
C19 C 0.7191(4) 0.4232(7) -0.4871(4)
C20 C 0.6545(3) 0.3251(6) -0.4224(3)
C21 C 0.6718(3) 0.2959(5) -0.2919(4)
C22 C 0.9051(3) -0.2637(5) 0.2128(4)
N3 N 0.5637(3) 0.2441(6) -0.4918(4)
O4 O 0.5036(3) 0.1604(7) -0.4336(4)
O5 O 0.5523(3) 0.2605(6) -0.6050(3)
H1 H 0.823 0.427 -0.024
H2 H 0.673 -0.007 0.199
H3 H 0.726 0.174 0.225
H4 H 0.922 0.137 0.369
H5 H 0.981 0.062 0.625
H6 H 0.865 -0.057 0.738
H7 H 0.680 -0.147 0.641
H8 H 0.647 -0.135 0.414
H9 H 0.889 -0.151 0.033
H10 H 0.708 -0.353 0.245
H11 H 0.526 -0.495 0.155
H12 H 0.474 -0.458 -0.062
H13 H 0.547 -0.285 -0.186
H14 H 0.740 -0.146 -0.110
H15 H 0.888 0.546 -0.244
H16 H 0.869 0.573 -0.451
H17 H 0.700 0.452 -0.586
H18 H 0.630 0.205 -0.240
H19 H 0.885 -0.273 0.310
H20 H 0.983 -0.222 0.252
H21 H 0.915 -0.395 0.199
loop_
_geom_bond_atom_site_label_1
_geom_bond_atom_site_label_2
_geom_bond_site_symmetry_1
_geom_bond_site_symmetry_2
C1 O1 1_555 1_555
O1 N1 1_555 1_555
N1 C1 1_555 1_555
S1 N1 1_555 1_555
N2 S1 1_555 1_555
C2 N2 1_555 1_555
C3 C2 1_555 1_555
C4 C3 1_555 1_555
C5 C4 1_555 1_555
C6 C5 1_555 1_555
C7 C6 1_555 1_555
C8 C3 1_555 1_555
C9 N2 1_555 1_555
C10 C9 1_555 1_555
C11 C10 1_555 1_555
C12 C11 1_555 1_555
C13 C12 1_555 1_555
C14 C13 1_555 1_555
C15 C10 1_555 1_555
O2 S1 1_555 1_555
O3 S1 1_555 1_555
C16 C1 1_555 1_555
C17 C16 1_555 1_555
C18 C17 1_555 1_555
C19 C18 1_555 1_555
C20 C19 1_555 1_555
C21 C16 1_555 1_555
C22 C9 1_555 1_555
N3 C20 1_555 1_555
O4 N3 1_555 1_555
O5 N3 1_555 1_555
H1 C1 1_555 1_555
H2 C2 1_555 1_555
H3 C2 1_555 1_555
H4 C4 1_555 1_555
H5 C5 1_555 1_555
H6 C6 1_555 1_555
H7 C7 1_555 1_555
H8 C8 1_555 1_555
H9 C9 1_555 1_555
H10 C11 1_555 1_555
H11 C12 1_555 1_555
H12 C13 1_555 1_555
H13 C14 1_555 1_555
H14 C15 1_555 1_555
H15 C17 1_555 1_555
H16 C18 1_555 1_555
H17 C19 1_555 1_555
H18 C21 1_555 1_555
H19 C22 1_555 1_555
H20 C22 1_555 1_555
H21 C22 1_555 1_555
C7 C8 1_555 1_555
C14 C15 1_555 1_555
C20 C21 1_555 1_555

#END
