
#######################################################################
#
#                 Cambridge Crystallographic Data Centre
#                                CCDC 
#
#######################################################################
#
# If this CIF has been generated from an entry in the Cambridge 
# Structural Database, then it will include bibliographic, chemical, 
# crystal, experimental, refinement or atomic coordinate data resulting 
# from the CCDC's data processing and validation procedures.
#
#######################################################################

data_FIRYAJ
_chemical_formula_moiety         'C39 H24 N2'
_chemical_name_systematic        
'4-{10-[4-(9H-carbazol-9-yl)phenyl]anthracen-9-yl}benzonitrile unknown solvate'
_symmetry_cell_setting           triclinic
_symmetry_space_group_name_H-M   'P -1'
_symmetry_Int_Tables_number      2
_space_group_name_Hall           '-P 1'
loop_
_symmetry_equiv_pos_site_id
_symmetry_equiv_pos_as_xyz
1 x,y,z
2 -x,-y,-z
_cell_length_a                   7.4203(2)
_cell_length_b                   13.3663(3)
_cell_length_c                   14.5908(4)
_cell_angle_alpha                96.694(2)
_cell_angle_beta                 97.320(2)
_cell_angle_gamma                98.178(2)
_cell_volume                     1407.32
_cell_formula_units_Z            2
loop_
_atom_site_label
_atom_site_type_symbol
_atom_site_fract_x
_atom_site_fract_y
_atom_site_fract_z
C1 C 0.0978(2) 0.39662(12) 0.25517(12)
C2 C -0.0199(2) 0.55811(12) 0.23845(12)
C3 C 0.0771(2) 0.57061(12) 0.16276(11)
C4 C 0.1942(2) 0.40941(12) 0.17927(11)
N1 N -0.4993(2) 0.83158(10) 0.35393(10)
C5 C -0.0094(2) 0.47226(12) 0.28550(12)
C6 C 0.1830(2) 0.49465(12) 0.13169(11)
C7 C 0.2720(2) 0.59404(14) 0.01053(12)
H1 H 0.333549 0.601763 -0.040503
C8 C 0.0770(2) 0.65927(13) 0.11598(12)
H2 H 0.010690 0.709723 0.135669
C9 C 0.4900(2) 0.34166(13) 0.20357(12)
H3 H 0.531755 0.395877 0.251018
C10 C 0.6544(3) 0.11296(14) 0.09507(13)
C11 C 0.6023(2) 0.26993(13) 0.18443(12)
H4 H 0.718498 0.275613 0.218975
C12 C 0.3153(2) 0.33378(12) 0.15279(11)
C13 C -0.1388(2) 0.63388(12) 0.26752(12)
C14 C 0.2778(2) 0.50912(13) 0.05355(12)
H5 H 0.344456 0.459760 0.031777
C15 C -0.1034(2) 0.45747(13) 0.36418(12)
H6 H -0.173488 0.505613 0.384790
C16 C -0.0815(2) 0.70985(13) 0.34392(12)
H7 H 0.035802 0.715547 0.377272
C17 C 0.1727(2) 0.67062(13) 0.04312(12)
H8 H 0.172871 0.729248 0.014486
C18 C -0.4329(2) 0.69355(13) 0.24562(12)
H9 H -0.550241 0.687879 0.212343
C19 C -0.3751(2) 0.76791(12) 0.32335(12)
C20 C 0.3675(3) 0.18156(14) 0.06011(13)
H10 H 0.327223 0.128254 0.011656
C21 C 0.0122(2) 0.29923(14) 0.37859(13)
H11 H 0.018210 0.242424 0.409414
C22 C 0.2565(3) 0.25359(14) 0.07992(14)
H12 H 0.141492 0.248638 0.044379
C23 C -0.1977(2) 0.77700(12) 0.37067(12)
H13 H -0.156425 0.828466 0.420650
C24 C -0.3142(2) 0.62817(13) 0.21828(12)
H14 H -0.352727 0.579471 0.165900
C25 C -0.5333(3) 0.84104(13) 0.60738(13)
H15 H -0.483866 0.819710 0.662236
N2 N 0.7466(2) 0.05232(13) 0.08082(12)
C26 C 0.1038(2) 0.30989(13) 0.30406(12)
H16 H 0.171305 0.259934 0.284613
C27 C -0.5428(2) 0.84645(12) 0.44473(12)
C28 C -0.6730(3) 0.90085(14) 0.60982(13)
H17 H -0.713899 0.919447 0.666079
C29 C -0.4666(2) 0.81269(13) 0.52532(12)
H18 H -0.374208 0.772500 0.524203
C30 C -0.6148(2) 0.88092(12) 0.29713(12)
C31 C -0.0921(2) 0.37434(14) 0.40932(12)
H19 H -0.153080 0.366826 0.460562
C32 C 0.5398(2) 0.18924(13) 0.11302(12)
C33 C -0.8603(3) 0.98151(14) 0.30975(14)
H20 H -0.939791 1.011420 0.344732
C34 C -0.6866(2) 0.90491(12) 0.44512(12)
C35 C -0.7335(2) 0.92617(12) 0.35113(13)
C36 C -0.6166(3) 0.89231(14) 0.20310(13)
H21 H -0.535693 0.863921 0.167972
C37 C -0.8659(3) 0.99122(15) 0.21640(15)
H22 H -0.951184 1.026848 0.187901
C38 C -0.7437(3) 0.94762(15) 0.16437(14)
H23 H -0.748132 0.956096 0.101805
C39 C -0.7506(2) 0.93245(13) 0.52935(13)
H24 H -0.844402 0.971650 0.530945
loop_
_geom_bond_atom_site_label_1
_geom_bond_atom_site_label_2
_geom_bond_site_symmetry_1
_geom_bond_site_symmetry_2
C1 C4 1_555 1_555
C2 C3 1_555 1_555
C3 C6 1_555 1_555
C4 C6 1_555 1_555
N1 C19 1_555 1_555
C5 C1 1_555 1_555
C6 C14 1_555 1_555
C7 H1 1_555 1_555
C8 C3 1_555 1_555
H2 C8 1_555 1_555
C9 H3 1_555 1_555
C10 N2 1_555 1_555
C11 C9 1_555 1_555
H4 C11 1_555 1_555
C12 C4 1_555 1_555
C13 C2 1_555 1_555
C14 C7 1_555 1_555
H5 C14 1_555 1_555
C15 C5 1_555 1_555
H6 C15 1_555 1_555
C16 C13 1_555 1_555
H7 C16 1_555 1_555
C17 C7 1_555 1_555
H8 C17 1_555 1_555
C18 H9 1_555 1_555
C19 C18 1_555 1_555
C20 H10 1_555 1_555
C21 H11 1_555 1_555
C22 C12 1_555 1_555
H12 C22 1_555 1_555
C23 C16 1_555 1_555
H13 C23 1_555 1_555
C24 C13 1_555 1_555
H14 C24 1_555 1_555
C25 H15 1_555 1_555
C26 C1 1_555 1_555
H16 C26 1_555 1_555
C27 N1 1_555 1_555
C28 C25 1_555 1_555
H17 C28 1_555 1_555
C29 C25 1_555 1_555
H18 C29 1_555 1_555
C30 N1 1_555 1_555
C31 C15 1_555 1_555
H19 C31 1_555 1_555
C32 C10 1_555 1_555
C33 H20 1_555 1_555
C34 C27 1_555 1_555
C35 C30 1_555 1_555
C36 C30 1_555 1_555
H21 C36 1_555 1_555
C37 C33 1_555 1_555
H22 C37 1_555 1_555
C38 C36 1_555 1_555
H23 C38 1_555 1_555
C39 C28 1_555 1_555
H24 C39 1_555 1_555
C2 C5 1_555 1_555
C8 C17 1_555 1_555
C9 C12 1_555 1_555
C11 C32 1_555 1_555
C18 C24 1_555 1_555
C19 C23 1_555 1_555
C20 C22 1_555 1_555
C20 C32 1_555 1_555
C21 C26 1_555 1_555
C21 C31 1_555 1_555
C27 C29 1_555 1_555
C33 C35 1_555 1_555
C34 C35 1_555 1_555
C34 C39 1_555 1_555
C37 C38 1_555 1_555

#END
