
#######################################################################
#
#                 Cambridge Crystallographic Data Centre
#                                CCDC 
#
#######################################################################
#
# If this CIF has been generated from an entry in the Cambridge 
# Structural Database, then it will include bibliographic, chemical, 
# crystal, experimental, refinement or atomic coordinate data resulting 
# from the CCDC's data processing and validation procedures.
#
#######################################################################

data_FISBIU
_chemical_formula_moiety         'C21 H31 N7 S2'
_chemical_name_systematic        
4,4'-(Pyridine-2,6-diylbis(methylene))bis(2-(2,2-dimethylpropyl)-2,4-dihydro-3H-1,2,4-triazole-3-thione)
_symmetry_cell_setting           monoclinic
_symmetry_space_group_name_H-M   'P 21/c'
_symmetry_Int_Tables_number      14
_space_group_name_Hall           '-P 2ybc'
loop_
_symmetry_equiv_pos_site_id
_symmetry_equiv_pos_as_xyz
1 x,y,z
2 -x,1/2+y,1/2-z
3 -x,-y,-z
4 x,1/2-y,1/2+z
_cell_length_a                   20.655(3)
_cell_length_b                   11.2349(17)
_cell_length_c                   10.6710(16)
_cell_angle_alpha                90
_cell_angle_beta                 103.218(3)
_cell_angle_gamma                90
_cell_volume                     2410.67
_cell_formula_units_Z            4
loop_
_atom_site_label
_atom_site_type_symbol
_atom_site_fract_x
_atom_site_fract_y
_atom_site_fract_z
S1 S 0.38930(5) 1.08184(9) 0.37845(10)
S2 S 0.29327(5) 0.97044(10) 1.02358(10)
N1 N 0.20863(16) 0.9181(3) 0.7924(3)
N2 N 0.40825(16) 0.9013(3) 0.7957(3)
N3 N 0.29148(16) 1.1409(3) 0.5006(3)
N4 N 0.27967(18) 1.1507(3) 0.6222(3)
C1 C 0.46189(18) 0.9633(3) 0.7839(4)
C2 C 0.35361(18) 1.1044(3) 0.5022(4)
N5 N 0.38276(16) 1.0915(3) 0.6310(3)
N6 N 0.29417(17) 0.8057(3) 0.8344(4)
N7 N 0.20375(19) 0.8463(3) 0.6851(3)
C3 C 0.52567(19) 0.9428(4) 0.8580(4)
C4 C 0.15578(19) 1.0017(3) 0.8002(4)
C5 C 0.18291(19) 1.0951(3) 0.3434(3)
C6 C 0.0913(2) 0.9426(4) 0.8197(4)
C7 C 0.45238(19) 1.0625(4) 0.6844(4)
C8 C 0.26462(19) 0.8974(3) 0.8845(4)
C9 C 0.2565(2) 0.7802(4) 0.7149(5)
C10 C 0.4789(2) 0.7883(4) 0.9645(4)
C11 C 0.4167(2) 0.8164(3) 0.8860(4)
C12 C 0.5336(2) 0.8515(4) 0.9490(4)
C13 C 0.2416(2) 1.1798(3) 0.3864(4)
C14 C 0.3563(2) 0.7473(4) 0.9003(5)
C15 C 0.3354(2) 1.1202(4) 0.6982(4)
C16 C 0.1448(2) 1.1411(5) 0.2114(4)
C17 C 0.1371(2) 1.0929(6) 0.4385(5)
C18 C 0.0452(2) 1.0463(5) 0.8401(6)
C19 C 0.1067(3) 0.8641(5) 0.9421(6)
C20 C 0.2084(2) 0.9681(4) 0.3284(5)
C21 C 0.0562(3) 0.8679(5) 0.7030(6)
loop_
_geom_bond_atom_site_label_1
_geom_bond_atom_site_label_2
_geom_bond_site_symmetry_1
_geom_bond_site_symmetry_2
S1 C2 1_555 1_555
S2 C8 1_555 1_555
N1 N7 1_555 1_555
N2 C1 1_555 1_555
N3 N4 1_555 1_555
N4 C15 1_555 1_555
C1 C3 1_555 1_555
C2 N3 1_555 1_555
N5 C2 1_555 1_555
N6 C8 1_555 1_555
N7 C9 1_555 1_555
C3 C12 1_555 1_555
C4 N1 1_555 1_555
C5 C13 1_555 1_555
C6 C4 1_555 1_555
C7 C1 1_555 1_555
C8 N1 1_555 1_555
C9 N6 1_555 1_555
C10 C11 1_555 1_555
C11 N2 1_555 1_555
C12 C10 1_555 1_555
C13 N3 1_555 1_555
C14 N6 1_555 1_555
C15 N5 1_555 1_555
C16 C5 1_555 1_555
C17 C5 1_555 1_555
C18 C6 1_555 1_555
C19 C6 1_555 1_555
C20 C5 1_555 1_555
C21 C6 1_555 1_555
N5 C7 1_555 1_555
C11 C14 1_555 1_555

#END
