
#######################################################################
#
#                 Cambridge Crystallographic Data Centre
#                                CCDC 
#
#######################################################################
#
# If this CIF has been generated from an entry in the Cambridge 
# Structural Database, then it will include bibliographic, chemical, 
# crystal, experimental, refinement or atomic coordinate data resulting 
# from the CCDC's data processing and validation procedures.
#
#######################################################################

data_FISDOB
_chemical_formula_moiety         'C48 H55 F1 N4 O4 2+,2(F6 P1 1-),2(H2 O1)'
_chemical_name_systematic        
'1,3-bis(Quininium-N-methyl)-2-fluorobenzene bis(hexafluorophosphate) dihydrate'
_symmetry_cell_setting           monoclinic
_symmetry_space_group_name_H-M   'C 2'
_symmetry_Int_Tables_number      5
_space_group_name_Hall           'C 2y'
loop_
_symmetry_equiv_pos_site_id
_symmetry_equiv_pos_as_xyz
1 x,y,z
2 -x,y,-z
3 1/2+x,1/2+y,z
4 1/2-x,1/2+y,-z
_cell_length_a                   16.396(4)
_cell_length_b                   13.046(3)
_cell_length_c                   11.979(3)
_cell_angle_alpha                90
_cell_angle_beta                 107.386(4)
_cell_angle_gamma                90
_cell_volume                     2445.27
_exptl_crystal_colour            yellow
_exptl_crystal_description       plate
_cell_formula_units_Z            2
loop_
_atom_site_label
_atom_site_type_symbol
_atom_site_fract_x
_atom_site_fract_y
_atom_site_fract_z
F1 F 0.0000 0.3244(3) 0.0000
O1 O 0.2016(3) 0.1749(4) 0.1821(5)
H1 H 0.1972 0.1389 0.1224
N1 N 0.1751(2) 0.3917(4) 0.2372(3)
C1 C 0.0000 0.4297(6) 0.0000
C2 C 0.0757(3) 0.4791(4) 0.0553(4)
C3 C 0.0755(3) 0.5854(4) 0.0527(4)
H2 H 0.1268 0.6224 0.0868
C4 C 0.0000 0.6373(5) 0.0000
H3 H 0.0000 0.7102 0.0000
C5 C 0.1554(3) 0.4153(4) 0.1076(4)
H4 H 0.2049 0.4519 0.0953
H5 H 0.1492 0.3497 0.0644
C6 C 0.2599(3) 0.3297(5) 0.2805(5)
H6 H 0.3080 0.3791 0.2883
C7 C 0.2658(4) 0.2917(5) 0.4048(5)
H7 H 0.2483 0.2188 0.4012
H8 H 0.3257 0.2966 0.4553
C8 C 0.2084(4) 0.3553(6) 0.4577(5)
H9 H 0.2218 0.3398 0.5431
C9 C 0.2218(4) 0.4692(5) 0.4402(5)
H10 H 0.1837 0.5078 0.4768
C10 C 0.1894(3) 0.4901(5) 0.3068(4)
H11 H 0.1351 0.5290 0.2882
H12 H 0.2317 0.5328 0.2840
C11 C 0.1017(3) 0.3369(5) 0.2625(5)
H13 H 0.0955 0.2677 0.2270
H14 H 0.0481 0.3752 0.2265
C12 C 0.1157(4) 0.3271(6) 0.3945(5)
H15 H 0.0765 0.3736 0.4190
H16 H 0.1040 0.2559 0.4141
C13 C 0.3124(6) 0.5031(7) 0.5007(6)
H17 H 0.3310 0.4889 0.5822
C14 C 0.3664(5) 0.5453(9) 0.4648(8)
H18 H 0.3537 0.5625 0.3843
H19 H 0.4210 0.5608 0.5173
C15 C 0.2694(4) 0.2444(6) 0.1972(5)
H20 H 0.272(4) 0.279(6) 0.128(6)
C16 C 0.3642(4) 0.2029(7) 0.2491(10)
C17 C 0.3657(4) 0.1058(7) 0.2976(9)
H21 H 0.3139 0.0739 0.2987
C18 C 0.4431(4) 0.0555(5) 0.3445(8)
H22 H 0.4442 -0.0109 0.3777
N2 N 0.5190(4) 0.1021(5) 0.3430(7)
C19 C 0.5174(4) 0.1992(5) 0.2945(5)
C20 C 0.4400(4) 0.2496(6) 0.2476(6)
C21 C 0.4385(6) 0.3466(7) 0.1991(8)
H23 H 0.3856 0.3810 0.1670
C22 C 0.5144(7) 0.3933(6) 0.1976(7)
C23 C 0.5918(6) 0.3429(6) 0.2445(8)
H24 H 0.6436 0.3748 0.2434
C24 C 0.5933(4) 0.2459(6) 0.2930(8)
H25 H 0.6462 0.2114 0.3251
O2 O 0.5404(6) 0.4829(10) 0.1614(11)
C25 C 0.4712(11) 0.5573(16) 0.136(3)
H26 H 0.4251 0.5350 0.0677
H27 H 0.4925 0.6243 0.1209
H28 H 0.4493 0.5625 0.2039
O1A O -0.2016(3) 0.1749(4) -0.1821(5)
H1A H -0.1972 0.1389 -0.1224
N1A N -0.1751(2) 0.3917(4) -0.2372(3)
C2A C -0.0757(3) 0.4791(4) -0.0553(4)
C3A C -0.0755(3) 0.5854(4) -0.0527(4)
H2A H -0.1268 0.6224 -0.0868
C5A C -0.1554(3) 0.4153(4) -0.1076(4)
H4A H -0.2049 0.4519 -0.0953
H5A H -0.1492 0.3497 -0.0644
C6A C -0.2599(3) 0.3297(5) -0.2805(5)
H6A H -0.3080 0.3791 -0.2883
C7A C -0.2658(4) 0.2917(5) -0.4048(5)
H7A H -0.2483 0.2188 -0.4012
H8A H -0.3257 0.2966 -0.4553
C8A C -0.2084(4) 0.3553(6) -0.4577(5)
H9A H -0.2218 0.3398 -0.5431
C9A C -0.2218(4) 0.4692(5) -0.4402(5)
H10A H -0.1837 0.5078 -0.4768
C10A C -0.1894(3) 0.4901(5) -0.3068(4)
H11A H -0.1351 0.5290 -0.2882
H12A H -0.2317 0.5328 -0.2840
C11A C -0.1017(3) 0.3369(5) -0.2625(5)
H13A H -0.0955 0.2677 -0.2270
H14A H -0.0481 0.3752 -0.2265
C12A C -0.1157(4) 0.3271(6) -0.3945(5)
H15A H -0.0765 0.3736 -0.4190
H16A H -0.1040 0.2559 -0.4141
C13A C -0.3124(6) 0.5031(7) -0.5007(6)
H17A H -0.3310 0.4889 -0.5822
C14A C -0.3664(5) 0.5453(9) -0.4648(8)
H18A H -0.3537 0.5625 -0.3843
H19A H -0.4210 0.5608 -0.5173
C15A C -0.2694(4) 0.2444(6) -0.1972(5)
H20A H -0.272(4) 0.279(6) -0.128(6)
C16A C -0.3642(4) 0.2029(7) -0.2491(10)
C17A C -0.3657(4) 0.1058(7) -0.2976(9)
H21A H -0.3139 0.0739 -0.2987
C18A C -0.4431(4) 0.0555(5) -0.3445(8)
H22A H -0.4442 -0.0109 -0.3777
N2A N -0.5190(4) 0.1021(5) -0.3430(7)
C19A C -0.5174(4) 0.1992(5) -0.2945(5)
C20A C -0.4400(4) 0.2496(6) -0.2476(6)
C21A C -0.4385(6) 0.3466(7) -0.1991(8)
H23A H -0.3856 0.3810 -0.1670
C22A C -0.5144(7) 0.3933(6) -0.1976(7)
C23A C -0.5918(6) 0.3429(6) -0.2445(8)
H24A H -0.6436 0.3748 -0.2434
C24A C -0.5933(4) 0.2459(6) -0.2930(8)
H25A H -0.6462 0.2114 -0.3251
O2A O -0.5404(6) 0.4829(10) -0.1614(11)
C25A C -0.4712(11) 0.5573(16) -0.136(3)
H26A H -0.4251 0.5350 -0.0677
H27A H -0.4925 0.6243 -0.1209
H28A H -0.4493 0.5625 -0.2039
P1 P 0.17163(19) 0.2789(3) 0.8093(2)
F2 F 0.1239(4) 0.3718(5) 0.8456(4)
F3 F 0.2543(4) 0.3045(8) 0.9131(4)
F4 F 0.2030(4) 0.3608(8) 0.7289(5)
F5 F 0.0890(5) 0.2509(9) 0.7123(9)
F6 F 0.1484(6) 0.2187(6) 0.9132(8)
F7 F 0.2248(7) 0.1995(10) 0.7712(10)
O5 O 0.1899(11) -0.0227(18) 0.0649(14)
C26? C 0.3514(8) 0.1824(10) 0.2486(16)
C27? C 0.3581(11) 0.0880(10) 0.3044(17)
H29? H 0.3079 0.0522 0.3058
C28? C 0.4381(12) 0.0460(8) 0.3582(14)
H30? H 0.4426 -0.0185 0.3964
N3? N 0.5115(10) 0.0983(8) 0.3562(13)
C29? C 0.5048(8) 0.1927(7) 0.3003(10)
C30? C 0.4248(7) 0.2347(7) 0.2465(10)
C31? C 0.4181(6) 0.3291(7) 0.1906(9)
H31? H 0.3635 0.3579 0.1538
C32? C 0.4915(6) 0.3815(6) 0.1886(6)
C33? C 0.5715(6) 0.3394(9) 0.2424(12)
H32? H 0.6217 0.3752 0.2409
C34? C 0.5782(7) 0.2451(9) 0.2982(14)
H33? H 0.6329 0.2163 0.3350
O3? O 0.4764(7) 0.4852(7) 0.1242(8)
C35? C 0.5456(8) 0.5553(8) 0.1474(11)
H34? H 0.5785 0.5516 0.2304
H35? H 0.5234 0.6250 0.1286
H36? H 0.5826 0.5378 0.0994
O4? O 0.2117(9) 0.0411(16) 0.0125(18)
loop_
_geom_bond_atom_site_label_1
_geom_bond_atom_site_label_2
_geom_bond_site_symmetry_1
_geom_bond_site_symmetry_2
F1 C1 1_555 1_555
O1 H1 1_555 1_555
N1 C5 1_555 1_555
C1 C2 1_555 1_555
C2 C3 1_555 1_555
C3 H2 1_555 1_555
C4 C3 1_555 1_555
H3 C4 1_555 1_555
C5 C2 1_555 1_555
H4 C5 1_555 1_555
H5 C5 1_555 1_555
C6 N1 1_555 1_555
H6 C6 1_555 1_555
C7 C6 1_555 1_555
H7 C7 1_555 1_555
H8 C7 1_555 1_555
C8 C7 1_555 1_555
H9 C8 1_555 1_555
C9 C8 1_555 1_555
H10 C9 1_555 1_555
C10 N1 1_555 1_555
H11 C10 1_555 1_555
H12 C10 1_555 1_555
C11 N1 1_555 1_555
H13 C11 1_555 1_555
H14 C11 1_555 1_555
C12 C8 1_555 1_555
H15 C12 1_555 1_555
H16 C12 1_555 1_555
C13 C9 1_555 1_555
H17 C13 1_555 1_555
C14 C13 1_555 1_555
H18 C14 1_555 1_555
H19 C14 1_555 1_555
C15 O1 1_555 1_555
H20 C15 1_555 1_555
C16 C15 1_555 1_555
C17 C16 1_555 1_555
H21 C17 1_555 1_555
C18 C17 1_555 1_555
H22 C18 1_555 1_555
N2 C18 1_555 1_555
C19 N2 1_555 1_555
C20 C16 1_555 1_555
C21 C20 1_555 1_555
H23 C21 1_555 1_555
C22 C21 1_555 1_555
C23 C22 1_555 1_555
H24 C23 1_555 1_555
C24 C19 1_555 1_555
H25 C24 1_555 1_555
O2 C22 1_555 1_555
C25 O2 1_555 1_555
H26 C25 1_555 1_555
H27 C25 1_555 1_555
H28 C25 1_555 1_555
P1 F2 1_555 1_555
F3 P1 1_555 1_555
F4 P1 1_555 1_555
F5 P1 1_555 1_555
F6 P1 1_555 1_555
F7 P1 1_555 1_555
O1A H1A 1_555 1_555
N1A C5A 1_555 1_555
C2A C1 1_555 1_555
C3A C4 1_555 1_555
H2A C3A 1_555 1_555
C5A C2A 1_555 1_555
H4A C5A 1_555 1_555
H5A C5A 1_555 1_555
C6A N1A 1_555 1_555
H6A C6A 1_555 1_555
C7A C6A 1_555 1_555
H7A C7A 1_555 1_555
H8A C7A 1_555 1_555
C8A C7A 1_555 1_555
H9A C8A 1_555 1_555
C9A C8A 1_555 1_555
H10A C9A 1_555 1_555
C10A N1A 1_555 1_555
H11A C10A 1_555 1_555
H12A C10A 1_555 1_555
C11A N1A 1_555 1_555
H13A C11A 1_555 1_555
H14A C11A 1_555 1_555
C12A C8A 1_555 1_555
H15A C12A 1_555 1_555
H16A C12A 1_555 1_555
C13A C9A 1_555 1_555
H17A C13A 1_555 1_555
C14A C13A 1_555 1_555
H18A C14A 1_555 1_555
H19A C14A 1_555 1_555
C15A O1A 1_555 1_555
H20A C15A 1_555 1_555
C16A C15A 1_555 1_555
C17A C16A 1_555 1_555
H21A C17A 1_555 1_555
C18A C17A 1_555 1_555
H22A C18A 1_555 1_555
N2A C18A 1_555 1_555
C19A N2A 1_555 1_555
C20A C16A 1_555 1_555
C21A C20A 1_555 1_555
H23A C21A 1_555 1_555
C22A C21A 1_555 1_555
C23A C22A 1_555 1_555
H24A C23A 1_555 1_555
C24A C19A 1_555 1_555
H25A C24A 1_555 1_555
O2A C22A 1_555 1_555
C25A O2A 1_555 1_555
H26A C25A 1_555 1_555
H27A C25A 1_555 1_555
H28A C25A 1_555 1_555
C6 C15 1_555 1_555
C9 C10 1_555 1_555
C11 C12 1_555 1_555
C19 C20 1_555 1_555
C23 C24 1_555 1_555
C2A C3A 1_555 1_555
C6A C15A 1_555 1_555
C9A C10A 1_555 1_555
C11A C12A 1_555 1_555
C19A C20A 1_555 1_555
C23A C24A 1_555 1_555

#END
