
#######################################################################
#
#                 Cambridge Crystallographic Data Centre
#                                CCDC 
#
#######################################################################
#
# If this CIF has been generated from an entry in the Cambridge 
# Structural Database, then it will include bibliographic, chemical, 
# crystal, experimental, refinement or atomic coordinate data resulting 
# from the CCDC's data processing and validation procedures.
#
#######################################################################

data_FISGOD
_chemical_formula_moiety         'C34 H32 N4,C1 H1 Cl3'
_chemical_name_systematic        
'2,5,21,24-Tetra-aza(6.1.6.1)paracyclophane-1,5,20,24-tetraene chloroform clathrate'
_symmetry_cell_setting           monoclinic
_symmetry_space_group_name_H-M   'P 21/c'
_symmetry_Int_Tables_number      14
_space_group_name_Hall           '-P 2ybc'
loop_
_symmetry_equiv_pos_site_id
_symmetry_equiv_pos_as_xyz
1 x,y,z
2 -x,1/2+y,1/2-z
3 -x,-y,-z
4 x,1/2-y,1/2+z
_cell_length_a                   8.979(6)
_cell_length_b                   23.786(10)
_cell_length_c                   7.469(6)
_cell_angle_alpha                90
_cell_angle_beta                 101.94(5)
_cell_angle_gamma                90
_cell_volume                     1560.68
_cell_formula_units_Z            2
loop_
_atom_site_label
_atom_site_type_symbol
_atom_site_fract_x
_atom_site_fract_y
_atom_site_fract_z
C1 C 0.3486(5) 0.1536(2) 0.9732(6)
C2 C 0.4497(4) 0.1662(1) 0.8405(5)
C3 C 0.3898(4) 0.1888(2) 0.6674(6)
C4 C 0.4795(5) 0.1979(1) 0.5426(5)
C5 C 0.6336(4) 0.1846(1) 0.5812(5)
C6 C 0.6958(4) 0.1625(2) 0.7560(5)
C7 C 0.6059(4) 0.1537(1) 0.8800(5)
C8 C 0.7248(5) 0.1941(1) 0.4426(5)
N1 N 0.8668(4) 0.1857(1) 0.4662(5)
C9 C 0.9385(5) 0.1983(2) 0.3128(6)
C10 C 1.0283(5) 0.1491(2) 0.2650(6)
N2 N 0.9296(4) 0.1020(1) 0.1936(5)
C11 C 0.9789(4) 0.0533(2) 0.2394(6)
C12 C 0.8969(4) 0.0010(2) 0.1784(5)
C13 C 0.7570(5) 0.0015(2) 0.0516(6)
C14 C 0.6805(5) -0.0489(2) 0.0041(6)
C15 C 0.2601(4) 0.0999(2) 0.9261(5)
C16 C 0.1206(5) 0.0998(2) 0.8037(6)
C17 C 0.9544(4) -0.0499(2) 0.2479(6)
H1 H 0.286 0.181 0.988
H2 H 0.420 0.150 1.113
H3 H 0.299 0.199 0.637
H4 H 0.434 0.214 0.419
H5 H 0.812 0.151 0.796
H6 H 0.647 0.137 0.997
H7 H 0.670 0.212 0.326
H8 H 0.867 0.211 0.207
H9 H 1.006 0.230 0.327
H10 H 1.082 0.161 0.158
H11 H 1.105 0.140 0.358
H12 H 1.074 0.048 0.331
H13 H 0.701 0.043 -0.007
H14 H 0.574 -0.048 -0.084
H15 H 0.078 0.136 0.748
H16 H 1.045 -0.053 0.330
C15B C 0.7399(4) -0.0999(2) 0.0739(5)
C14B C 0.3195(5) 0.0489(2) 0.9959(6)
C17B C 0.0456(4) 0.0499(2) 0.7521(6)
C16B C 0.8794(5) -0.0998(2) 0.1963(6)
C1B C 0.6514(5) -0.1536(2) 0.0268(6)
C13B C 0.2430(5) -0.0015(2) 0.9484(6)
H14B H 0.426 0.048 1.084
C12B C 0.1031(4) -0.0010(2) 0.8216(5)
H16B H -0.045 0.053 0.670
H15B H 0.922 -0.136 0.252
C2B C 0.5503(4) -0.1662(1) 0.1595(5)
H1B H 0.714 -0.181 0.012
H2B H 0.580 -0.150 -0.113
H13B H 0.299 -0.043 1.007
C11B C 0.0211(4) -0.0533(2) 0.7606(6)
C3B C 0.6102(4) -0.1888(2) 0.3326(6)
C7B C 0.3941(4) -0.1537(1) 0.1200(5)
N2B N 0.0704(4) -0.1020(1) 0.8064(5)
H12B H -0.074 -0.048 0.669
C4B C 0.5205(5) -0.1979(1) 0.4574(5)
H3B H 0.701 -0.199 0.363
C6B C 0.3042(4) -0.1625(2) 0.2440(5)
H6B H 0.353 -0.137 0.003
C10B C -0.0283(5) -0.1491(2) 0.7350(6)
C5B C 0.3664(4) -0.1846(1) 0.4188(5)
H4B H 0.566 -0.214 0.581
H5B H 0.188 -0.151 0.204
C9B C 0.0615(5) -0.1983(2) 0.6872(6)
H10B H -0.082 -0.161 0.842
H11B H -0.105 -0.140 0.642
C8B C 0.2752(5) -0.1941(1) 0.5574(5)
N1B N 0.1332(4) -0.1857(1) 0.5338(5)
H8B H 0.133 -0.211 0.793
H9B H -0.006 -0.230 0.673
H7B H 0.330 -0.212 0.674
loop_
_geom_bond_atom_site_label_1
_geom_bond_atom_site_label_2
_geom_bond_site_symmetry_1
_geom_bond_site_symmetry_2
C1 C2 1_555 1_555
C2 C3 1_555 1_555
C3 C4 1_555 1_555
C4 C5 1_555 1_555
C5 C6 1_555 1_555
C6 C7 1_555 1_555
C7 C2 1_555 1_555
C8 C5 1_555 1_555
N1 C8 1_555 1_555
C9 N1 1_555 1_555
C10 C9 1_555 1_555
N2 C10 1_555 1_555
C11 N2 1_555 1_555
C12 C11 1_555 1_555
C13 C12 1_555 1_555
C14 C13 1_555 1_555
C15 C1 1_555 1_555
C16 C15 1_555 1_555
C17 C12 1_555 1_555
H1 C1 1_555 1_555
H2 C1 1_555 1_555
H3 C3 1_555 1_555
H4 C4 1_555 1_555
H5 C6 1_555 1_555
H6 C7 1_555 1_555
H7 C8 1_555 1_555
H8 C9 1_555 1_555
H9 C9 1_555 1_555
H10 C10 1_555 1_555
H11 C10 1_555 1_555
H12 C11 1_555 1_555
H13 C13 1_555 1_555
H14 C14 1_555 1_555
H15 C16 1_555 1_555
H16 C17 1_555 1_555
C15B C14 1_555 1_555
C14B C15 1_555 1_555
C17B C16 1_555 1_555
C16B C17 1_555 1_555
C1B C15B 1_555 1_555
C13B C14B 1_555 1_555
H14B C14B 1_555 1_555
C12B C17B 1_555 1_555
H16B C17B 1_555 1_555
H15B C16B 1_555 1_555
C2B C1B 1_555 1_555
H1B C1B 1_555 1_555
H2B C1B 1_555 1_555
H13B C13B 1_555 1_555
C11B C12B 1_555 1_555
C3B C2B 1_555 1_555
C7B C2B 1_555 1_555
N2B C11B 1_555 1_555
H12B C11B 1_555 1_555
C4B C3B 1_555 1_555
H3B C3B 1_555 1_555
C6B C7B 1_555 1_555
H6B C7B 1_555 1_555
C10B N2B 1_555 1_555
C5B C4B 1_555 1_555
H4B C4B 1_555 1_555
H5B C6B 1_555 1_555
C9B C10B 1_555 1_555
H10B C10B 1_555 1_555
H11B C10B 1_555 1_555
C8B C5B 1_555 1_555
N1B C9B 1_555 1_555
H8B C9B 1_555 1_555
H9B C9B 1_555 1_555
H7B C8B 1_555 1_555
C15B C16B 1_555 1_555
C13B C12B 1_555 1_555
C6B C5B 1_555 1_555
C8B N1B 1_555 1_555

#END
