
#######################################################################
#
#                 Cambridge Crystallographic Data Centre
#                                CCDC 
#
#######################################################################
#
# If this CIF has been generated from an entry in the Cambridge 
# Structural Database, then it will include bibliographic, chemical, 
# crystal, experimental, refinement or atomic coordinate data resulting 
# from the CCDC's data processing and validation procedures.
#
#######################################################################

data_FISKOK
_chemical_formula_moiety         'C24 H26 N2 O8 S1'
_chemical_name_systematic        
'diethyl 1-[(4-nitrophenyl)sulfonyl]-3-phenyl-2,3,4,7-tetrahydro-1H-azepine-4,5-dicarboxylate'
_symmetry_cell_setting           triclinic
_symmetry_space_group_name_H-M   'P -1'
_symmetry_Int_Tables_number      2
_space_group_name_Hall           '-P 1'
loop_
_symmetry_equiv_pos_site_id
_symmetry_equiv_pos_as_xyz
1 x,y,z
2 -x,-y,-z
_cell_length_a                   10.136(3)
_cell_length_b                   10.925(3)
_cell_length_c                   11.309(3)
_cell_angle_alpha                104.454(3)
_cell_angle_beta                 109.130(3)
_cell_angle_gamma                91.112(4)
_cell_volume                     1138.67
_exptl_crystal_colour            colorless
_exptl_crystal_description       parallelepiped
_cell_formula_units_Z            2
loop_
_atom_site_label
_atom_site_type_symbol
_atom_site_fract_x
_atom_site_fract_y
_atom_site_fract_z
S1 S 0.29426(3) 0.84660(3) 0.30546(3)
O1 O -0.15648(12) 0.83002(14) 0.61466(12)
O2 O 0.02316(13) 0.93313(12) 0.77604(11)
O3 O 0.19933(11) 0.81444(10) 0.17412(9)
O4 O 0.39641(10) 0.95557(9) 0.35432(10)
O5 O 0.65917(11) 0.76947(10) 0.25169(10)
O6 O 0.46673(10) 0.71147(9) 0.07224(9)
O7 O 0.76943(12) 0.44285(11) 0.45727(11)
O8 O 0.78927(10) 0.47300(10) 0.27407(10)
N1 N -0.03595(13) 0.87936(12) 0.66092(12)
N2 N 0.37999(12) 0.72389(11) 0.32350(11)
C1 C 0.06090(15) 0.79567(14) 0.36244(13)
H1 H 0.0219(18) 0.7456(17) 0.2705(17)
C2 C -0.01615(15) 0.80166(14) 0.44498(14)
H2 H -0.1058(19) 0.7588(17) 0.4142(16)
C3 C 0.04534(15) 0.87363(13) 0.57268(13)
C4 C 0.17680(15) 0.94129(14) 0.62115(13)
H3 H 0.2136(18) 0.9965(17) 0.7098(17)
C5 C 0.25303(15) 0.93514(13) 0.53788(13)
H4 H 0.3404(18) 0.9805(16) 0.5681(15)
C6 C 0.19417(14) 0.86161(13) 0.40976(13)
C7 C 0.48762(15) 0.73408(14) 0.45074(13)
H5 H 0.5411(19) 0.8165(18) 0.4858(17)
H6 H 0.4435(19) 0.7225(17) 0.5128(17)
C8 C 0.58890(15) 0.63726(13) 0.44395(13)
H7 H 0.6531(18) 0.6313(16) 0.5285(17)
C9 C 0.60835(14) 0.56429(13) 0.33881(13)
C10 C 0.52717(14) 0.56407(13) 0.19944(12)
H8 H 0.5638(17) 0.5005(16) 0.1439(15)
C11 C 0.36694(14) 0.52405(13) 0.15545(13)
H9 H 0.3224(16) 0.5517(15) 0.0771(15)
C12 C 0.30457(15) 0.59602(13) 0.25699(14)
H10 H 0.3105(19) 0.5515(17) 0.3247(17)
H11 H 0.2034(19) 0.6005(16) 0.2136(16)
C13 C 0.32337(14) 0.38327(13) 0.12482(12)
C14 C 0.21117(15) 0.32460(14) 0.01267(14)
H12 H 0.1698(19) 0.3723(17) -0.0484(17)
C15 C 0.15729(16) 0.19941(15) -0.01160(15)
H13 H 0.080(2) 0.1620(19) -0.0882(19)
C16 C 0.21583(16) 0.12973(14) 0.07574(15)
H14 H 0.178(2) 0.0476(19) 0.0573(18)
C17 C 0.32959(17) 0.18572(14) 0.18651(14)
H15 H 0.373(2) 0.1370(19) 0.2465(19)
C18 C 0.38218(16) 0.31136(14) 0.21127(13)
H16 H 0.4582(18) 0.3494(16) 0.2897(17)
C19 C 0.55952(14) 0.69394(13) 0.18050(12)
C20 C 0.48606(16) 0.83520(14) 0.05025(14)
H17 H 0.5746(18) 0.8420(16) 0.0382(16)
H18 H 0.4852(18) 0.9008(17) 0.1290(17)
C21 C 0.36556(17) 0.84054(16) -0.06760(15)
H19 H 0.275(2) 0.8315(18) -0.0529(18)
H20 H 0.364(2) 0.7714(19) -0.1424(19)
H21 H 0.377(2) 0.919(2) -0.0910(19)
C22 C 0.72825(15) 0.48649(14) 0.36477(13)
C23 C 0.91153(17) 0.40277(17) 0.29350(16)
H22 H 0.8814(19) 0.3198(19) 0.2971(17)
H23 H 0.978(2) 0.450(2) 0.371(2)
C24 C 0.96053(19) 0.39367(18) 0.18011(19)
H24 H 0.886(2) 0.347(2) 0.098(2)
H25 H 0.985(2) 0.478(2) 0.174(2)
H26 H 1.042(2) 0.346(2) 0.194(2)
loop_
_geom_bond_atom_site_label_1
_geom_bond_atom_site_label_2
_geom_bond_site_symmetry_1
_geom_bond_site_symmetry_2
S1 O3 1_555 1_555
O1 N1 1_555 1_555
O2 N1 1_555 1_555
O4 S1 1_555 1_555
O5 C19 1_555 1_555
O6 C19 1_555 1_555
O7 C22 1_555 1_555
O8 C22 1_555 1_555
N1 C3 1_555 1_555
N2 S1 1_555 1_555
C1 H1 1_555 1_555
C2 C1 1_555 1_555
H2 C2 1_555 1_555
C3 C2 1_555 1_555
C4 C3 1_555 1_555
H3 C4 1_555 1_555
C5 C4 1_555 1_555
H4 C5 1_555 1_555
C6 S1 1_555 1_555
C7 N2 1_555 1_555
H5 C7 1_555 1_555
H6 C7 1_555 1_555
C8 C7 1_555 1_555
H7 C8 1_555 1_555
C9 C8 1_555 1_555
C10 C9 1_555 1_555
H8 C10 1_555 1_555
C11 C10 1_555 1_555
H9 C11 1_555 1_555
C12 N2 1_555 1_555
H10 C12 1_555 1_555
H11 C12 1_555 1_555
C13 C11 1_555 1_555
C14 C13 1_555 1_555
H12 C14 1_555 1_555
C15 C14 1_555 1_555
H13 C15 1_555 1_555
C16 C15 1_555 1_555
H14 C16 1_555 1_555
C17 C16 1_555 1_555
H15 C17 1_555 1_555
C18 C13 1_555 1_555
H16 C18 1_555 1_555
C19 C10 1_555 1_555
C20 O6 1_555 1_555
H17 C20 1_555 1_555
H18 C20 1_555 1_555
C21 C20 1_555 1_555
H19 C21 1_555 1_555
H20 C21 1_555 1_555
H21 C21 1_555 1_555
C22 C9 1_555 1_555
C23 O8 1_555 1_555
H22 C23 1_555 1_555
H23 C23 1_555 1_555
C24 C23 1_555 1_555
H24 C24 1_555 1_555
H25 C24 1_555 1_555
H26 C24 1_555 1_555
C1 C6 1_555 1_555
C5 C6 1_555 1_555
C11 C12 1_555 1_555
C17 C18 1_555 1_555

#END
