
#######################################################################
#
#                 Cambridge Crystallographic Data Centre
#                                CCDC 
#
#######################################################################
#
# If this CIF has been generated from an entry in the Cambridge 
# Structural Database, then it will include bibliographic, chemical, 
# crystal, experimental, refinement or atomic coordinate data resulting 
# from the CCDC's data processing and validation procedures.
#
#######################################################################

data_FISLEB
_chemical_formula_moiety         'C39 H38 N2'
_chemical_name_systematic        
N^1^,N^1^,N^5^,N^5^-tetrabenzyl-2-phenylpenta-2,3-diene-1,5-diamine
_symmetry_cell_setting           monoclinic
_symmetry_space_group_name_H-M   'P 21/c'
_symmetry_Int_Tables_number      14
_space_group_name_Hall           '-P 2ybc'
loop_
_symmetry_equiv_pos_site_id
_symmetry_equiv_pos_as_xyz
1 x,y,z
2 -x,1/2+y,1/2-z
3 -x,-y,-z
4 x,1/2-y,1/2+z
_cell_length_a                   15.3550(2)
_cell_length_b                   10.8622(2)
_cell_length_c                   19.3731(3)
_cell_angle_alpha                90
_cell_angle_beta                 93.2840(10)
_cell_angle_gamma                90
_cell_volume                     3225.92
_exptl_crystal_description       block
_cell_formula_units_Z            4
loop_
_atom_site_label
_atom_site_type_symbol
_atom_site_fract_x
_atom_site_fract_y
_atom_site_fract_z
N1 N 0.22443(8) 0.54528(12) 0.63427(6)
N2 N 0.54968(8) 0.79259(13) 0.65011(6)
C1 C 0.33776(9) 0.54456(14) 0.54791(8)
C2 C 0.28719(9) 0.53304(13) 0.48057(8)
C3 C 0.15441(10) 0.73813(15) 0.66236(8)
C4 C 0.66298(10) 0.94026(15) 0.61624(8)
C5 C 0.13265(10) 0.36375(16) 0.65429(8)
C6 C 0.41355(10) 0.60056(16) 0.55334(8)
C7 C 0.23978(10) 0.67084(16) 0.65933(9)
H1 H 0.2771 0.7140 0.6287
H2 H 0.2691 0.6685 0.7050
C8 C 0.30373(10) 0.48654(16) 0.61215(8)
H3 H 0.2919 0.4001 0.6032
H4 H 0.3485 0.4915 0.6494
C9 C 0.71721(11) 0.85089(17) 0.59350(10)
H5 H 0.7096 0.7698 0.6073
C10 C 0.50119(11) 0.78744(17) 0.58278(8)
H6 H 0.5332 0.8307 0.5485
H7 H 0.4449 0.8271 0.5858
C11 C 0.10497(11) 0.76379(16) 0.60208(9)
H8 H 0.1267 0.7439 0.5597
C12 C 0.48856(10) 0.65574(17) 0.56168(8)
H9 H 0.5382 0.6099 0.5539
C13 C 0.06206(11) 0.38802(18) 0.60905(9)
H10 H 0.0488 0.4688 0.5965
C14 C 0.18400(11) 0.46919(17) 0.68610(8)
H11 H 0.1456 0.5201 0.7121
H12 H 0.2292 0.4370 0.7182
C15 C 0.59064(11) 0.91253(17) 0.66324(9)
H13 H 0.6139 0.9152 0.7108
H14 H 0.5465 0.9761 0.6575
C16 C 0.54173(12) 0.71732(18) 0.76992(8)
C17 C 0.21006(11) 0.46651(17) 0.47403(9)
H15 H 0.1879 0.4312 0.5131
C18 C 0.31695(12) 0.58636(18) 0.42127(9)
H16 H 0.3681 0.6323 0.4242
C19 C 0.12063(12) 0.7703(2) 0.72400(9)
H17 H 0.1528 0.7553 0.7653
C20 C 0.49283(12) 0.7597(2) 0.70542(9)
H18 H 0.4534 0.6949 0.6890
H19 H 0.4578 0.8308 0.7162
C21 C 0.78294(11) 0.87875(19) 0.55050(11)
H20 H 0.8182 0.8162 0.5349
C22 C 0.16555(14) 0.45179(19) 0.41052(11)
H21 H 0.1143 0.4059 0.4071
C23 C 0.15163(13) 0.24316(19) 0.67088(12)
H22 H 0.1993 0.2255 0.7011
C24 C 0.60262(14) 0.6259(2) 0.76692(11)
H23 H 0.6161 0.5942 0.7242
C25 C 0.02422(13) 0.81820(19) 0.60380(11)
H24 H -0.0080 0.8345 0.5627
C26 C -0.00873(13) 0.8482(2) 0.66526(12)
H25 H -0.0635 0.8845 0.6663
C27 C 0.01093(14) 0.2928(2) 0.58230(11)
H26 H -0.0372 0.3096 0.5525
C28 C 0.19666(15) 0.5046(2) 0.35265(11)
H27 H 0.1668 0.4945 0.3099
C29 C 0.79653(14) 0.9969(2) 0.53082(13)
H28 H 0.8413 1.0157 0.5023
C30 C 0.27218(15) 0.5725(2) 0.35820(11)
H29 H 0.2932 0.6093 0.3191
C31 C 0.03895(14) 0.8249(2) 0.72530(12)
H30 H 0.0167 0.8456 0.7674
C32 C 0.10155(17) 0.1488(2) 0.64369(15)
H31 H 0.1156 0.0678 0.6552
C33 C 0.52400(17) 0.7652(2) 0.83339(10)
H32 H 0.4834 0.8284 0.8360
C34 C 0.6239(2) 0.6294(4) 0.89077(16)
H33 H 0.6506 0.5991 0.9316
C35 C 0.03133(18) 0.1732(2) 0.59989(14)
H34 H -0.0029 0.1090 0.5818
C36 C 0.67703(16) 1.0588(2) 0.59526(14)
H35 H 0.6409 1.1214 0.6095
C37 C 0.64437(17) 0.5803(3) 0.82664(17)
H36 H 0.6855 0.5178 0.8244
C38 C 0.5649(3) 0.7215(4) 0.89207(13)
H37 H 0.5521 0.7556 0.9343
C39 C 0.74423(19) 1.0867(2) 0.55317(17)
H38 H 0.7534 1.1679 0.5402
loop_
_geom_bond_atom_site_label_1
_geom_bond_atom_site_label_2
_geom_bond_site_symmetry_1
_geom_bond_site_symmetry_2
N1 C7 1_555 1_555
N2 C10 1_555 1_555
C1 C2 1_555 1_555
C2 C17 1_555 1_555
C3 C7 1_555 1_555
C4 C9 1_555 1_555
C5 C13 1_555 1_555
C6 C1 1_555 1_555
C7 H1 1_555 1_555
H2 C7 1_555 1_555
C8 N1 1_555 1_555
H3 C8 1_555 1_555
H4 C8 1_555 1_555
C9 H5 1_555 1_555
C10 H6 1_555 1_555
H7 C10 1_555 1_555
C11 C3 1_555 1_555
H8 C11 1_555 1_555
C12 C6 1_555 1_555
H9 C12 1_555 1_555
C13 H10 1_555 1_555
C14 N1 1_555 1_555
H11 C14 1_555 1_555
H12 C14 1_555 1_555
C15 N2 1_555 1_555
H13 C15 1_555 1_555
H14 C15 1_555 1_555
C16 C20 1_555 1_555
C17 H15 1_555 1_555
C18 C2 1_555 1_555
H16 C18 1_555 1_555
C19 C3 1_555 1_555
H17 C19 1_555 1_555
C20 N2 1_555 1_555
H18 C20 1_555 1_555
H19 C20 1_555 1_555
C21 C9 1_555 1_555
H20 C21 1_555 1_555
C22 C17 1_555 1_555
H21 C22 1_555 1_555
C23 C5 1_555 1_555
H22 C23 1_555 1_555
C24 C16 1_555 1_555
H23 C24 1_555 1_555
C25 C11 1_555 1_555
H24 C25 1_555 1_555
C26 C25 1_555 1_555
H25 C26 1_555 1_555
C27 C13 1_555 1_555
H26 C27 1_555 1_555
C28 C22 1_555 1_555
H27 C28 1_555 1_555
C29 C21 1_555 1_555
H28 C29 1_555 1_555
C30 C18 1_555 1_555
H29 C30 1_555 1_555
C31 C19 1_555 1_555
H30 C31 1_555 1_555
C32 C23 1_555 1_555
H31 C32 1_555 1_555
C33 C16 1_555 1_555
H32 C33 1_555 1_555
C34 H33 1_555 1_555
C35 C27 1_555 1_555
H34 C35 1_555 1_555
C36 C4 1_555 1_555
H35 C36 1_555 1_555
C37 C24 1_555 1_555
H36 C37 1_555 1_555
C38 C33 1_555 1_555
H37 C38 1_555 1_555
C39 C29 1_555 1_555
H38 C39 1_555 1_555
C1 C8 1_555 1_555
C4 C15 1_555 1_555
C5 C14 1_555 1_555
C10 C12 1_555 1_555
C26 C31 1_555 1_555
C28 C30 1_555 1_555
C32 C35 1_555 1_555
C34 C37 1_555 1_555
C34 C38 1_555 1_555
C36 C39 1_555 1_555

#END
