
#######################################################################
#
#                 Cambridge Crystallographic Data Centre
#                                CCDC 
#
#######################################################################
#
# If this CIF has been generated from an entry in the Cambridge 
# Structural Database, then it will include bibliographic, chemical, 
# crystal, experimental, refinement or atomic coordinate data resulting 
# from the CCDC's data processing and validation procedures.
#
#######################################################################

data_FISWOT
_chemical_formula_moiety         'C17 H38 N1 1+,Br1 1-,0.5(H2 O1)'
_chemical_name_systematic        
'Dodecyldimethylpropylammonium bromide hemihydrate'
_symmetry_cell_setting           triclinic
_symmetry_space_group_name_H-M   'P -1'
_symmetry_Int_Tables_number      2
_space_group_name_Hall           '-P 1'
loop_
_symmetry_equiv_pos_site_id
_symmetry_equiv_pos_as_xyz
1 x,y,z
2 -x,-y,-z
_cell_length_a                   8.362(2)
_cell_length_b                   9.161(2)
_cell_length_c                   27.457(2)
_cell_angle_alpha                76.68(2)
_cell_angle_beta                 82.90(2)
_cell_angle_gamma                85.90(2)
_cell_volume                     2029.03
_exptl_crystal_colour            colorless
_cell_formula_units_Z            4
loop_
_atom_site_label
_atom_site_type_symbol
_atom_site_fract_x
_atom_site_fract_y
_atom_site_fract_z
Br1 Br 0.88294(9) 0.22013(8) 0.15342(3)
Br2 Br 0.54358(9) 0.25594(8) 0.89728(3)
O1 O 0.7828(8) 0.5389(6) 0.0724(2)
H1 H 0.800(7) 0.476(6) 0.092(2)
H2 H 0.714(7) 0.570(6) 0.082(2)
N1 N 0.3488(6) 0.2507(5) 0.0639(2)
C1 C 0.3393(8) 0.1814(6) 0.1202(2)
C2 C 0.4043(8) 0.2756(7) 0.1515(2)
C3 C 0.3857(9) 0.1940(8) 0.2059(2)
C4 C 0.4211(10) 0.2862(8) 0.2419(2)
C5 C 0.4009(11) 0.2028(8) 0.2966(3)
C6 C 0.4028(10) 0.2965(8) 0.3344(3)
C7 C 0.3857(11) 0.2104(8) 0.3877(3)
C8 C 0.3787(10) 0.2973(8) 0.4284(3)
C9 C 0.3656(10) 0.2085(8) 0.4815(2)
C10 C 0.3616(10) 0.2908(8) 0.5225(3)
C11 C 0.3500(12) 0.1988(9) 0.5746(3)
C12 C 0.3484(12) 0.2770(11) 0.6173(3)
C13 C 0.5194(7) 0.2799(7) 0.0390(2)
C14 C 0.6360(8) 0.1437(7) 0.0467(3)
C15 C 0.7964(8) 0.1828(9) 0.0163(3)
C16 C 0.2707(8) 0.1469(7) 0.0392(3)
C17 C 0.2520(8) 0.3984(7) 0.0541(2)
H3 H 0.213(8) 0.169(7) 0.134(2)
H4 H 0.390(8) 0.084(8) 0.127(2)
H5 H 0.522(9) 0.293(8) 0.140(3)
H6 H 0.344(8) 0.380(8) 0.147(3)
H7 H 0.277(9) 0.156(8) 0.214(3)
H8 H 0.459(9) 0.107(8) 0.212(3)
H9 H 0.530(9) 0.322(8) 0.235(3)
H10 H 0.348(9) 0.376(8) 0.238(3)
H11 H 0.305(9) 0.147(8) 0.303(3)
H12 H 0.489(9) 0.126(8) 0.301(3)
H13 H 0.509(8) 0.353(8) 0.328(3)
H14 H 0.318(8) 0.377(8) 0.330(2)
H15 H 0.286(8) 0.156(8) 0.392(3)
H16 H 0.470(9) 0.142(8) 0.389(3)
H17 H 0.480(9) 0.355(8) 0.422(3)
H18 H 0.286(9) 0.368(9) 0.423(3)
H19 H 0.273(8) 0.145(8) 0.490(3)
H20 H 0.466(9) 0.136(8) 0.487(3)
H21 H 0.459(9) 0.355(8) 0.517(3)
H22 H 0.266(9) 0.361(8) 0.520(3)
H23 H 0.244(9) 0.139(9) 0.581(3)
H24 H 0.440(11) 0.118(10) 0.577(3)
H25 H 0.338(10) 0.197(9) 0.654(3)
H26 H 0.254(10) 0.348(10) 0.620(3)
H27 H 0.451(10) 0.328(9) 0.615(3)
H28 H 0.510(8) 0.329(7) 0.001(3)
H29 H 0.563(8) 0.366(7) 0.053(2)
H30 H 0.650(9) 0.106(8) 0.085(3)
H31 H 0.592(9) 0.063(8) 0.037(3)
H32 H 0.870(8) 0.097(8) 0.020(3)
H33 H 0.845(9) 0.275(8) 0.026(3)
H34 H 0.779(8) 0.224(7) -0.020(2)
H35 H 0.265(8) 0.198(8) 0.001(3)
H36 H 0.148(8) 0.145(8) 0.054(3)
H37 H 0.314(8) 0.052(8) 0.048(3)
H38 H 0.254(8) 0.441(8) 0.015(3)
H39 H 0.293(9) 0.466(8) 0.071(3)
H40 H 0.129(9) 0.388(8) 0.067(3)
N2 N 1.0342(6) 0.2703(5) 0.8300(2)
C18 C 0.9417(8) 0.1960(7) 0.7988(2)
C19 C 0.9224(9) 0.2890(7) 0.7466(3)
C20 C 0.8911(8) 0.1937(8) 0.7099(3)
C21 C 0.8621(9) 0.2858(8) 0.6595(3)
C22 C 0.8531(10) 0.1983(8) 0.6197(3)
C23 C 0.8460(10) 0.2897(8) 0.5670(3)
C24 C 0.8569(10) 0.2018(8) 0.5263(3)
C25 C 0.8581(10) 0.2926(8) 0.4740(3)
C26 C 0.8722(11) 0.2027(9) 0.4336(3)
C27 C 0.8785(10) 0.2912(8) 0.3801(3)
C28 C 0.8924(12) 0.1971(9) 0.3407(3)
C29 C 0.9014(14) 0.2848(11) 0.2901(3)
C30 C 1.2014(8) 0.3132(8) 0.8057(2)
C31 C 1.3022(9) 0.1911(9) 0.7875(3)
C32 C 1.4609(10) 0.2549(11) 0.7596(3)
C33 C 1.0434(9) 0.1647(8) 0.8803(2)
C34 C 0.9442(9) 0.4117(7) 0.8392(3)
H41 H 1.002(8) 0.100(8) 0.797(2)
H42 H 0.831(8) 0.177(7) 0.817(2)
H43 H 0.832(9) 0.361(8) 0.750(3)
H44 H 1.019(8) 0.350(7) 0.732(2)
H45 H 0.979(9) 0.124(8) 0.704(3)
H46 H 0.791(9) 0.134(8) 0.723(3)
H47 H 0.760(8) 0.345(7) 0.662(2)
H48 H 0.952(8) 0.354(7) 0.648(2)
H49 H 0.945(9) 0.123(9) 0.622(3)
H50 H 0.757(8) 0.127(8) 0.631(3)
H51 H 0.744(9) 0.354(8) 0.566(3)
H52 H 0.936(9) 0.358(8) 0.557(3)
H53 H 0.953(9) 0.132(8) 0.529(3)
H54 H 0.758(8) 0.139(8) 0.533(3)
H55 H 0.759(9) 0.349(9) 0.472(3)
H56 H 0.947(8) 0.356(8) 0.468(3)
H57 H 0.974(9) 0.139(9) 0.437(3)
H58 H 0.780(9) 0.133(8) 0.440(3)
H59 H 0.782(9) 0.364(8) 0.375(3)
H60 H 0.976(9) 0.354(9) 0.372(3)
H61 H 0.985(9) 0.127(9) 0.344(3)
H62 H 0.785(9) 0.140(8) 0.344(3)
H63 H 0.913(10) 0.224(9) 0.264(3)
H64 H 1.007(10) 0.344(9) 0.285(3)
H65 H 0.808(10) 0.368(9) 0.285(3)
H66 H 1.192(8) 0.403(8) 0.777(3)
H67 H 1.262(8) 0.351(8) 0.830(2)
H68 H 1.328(9) 0.102(8) 0.817(3)
H69 H 1.247(9) 0.154(8) 0.763(3)
H70 H 1.531(10) 0.172(9) 0.747(3)
H71 H 1.517(10) 0.297(10) 0.786(3)
H72 H 1.439(10) 0.348(9) 0.733(3)
H73 H 1.107(9) 0.221(9) 0.901(3)
H74 H 1.100(10) 0.080(9) 0.877(3)
H75 H 0.939(9) 0.158(9) 0.895(3)
H76 H 0.998(8) 0.462(8) 0.860(2)
H77 H 0.842(9) 0.387(8) 0.856(3)
H78 H 0.934(9) 0.487(8) 0.807(3)
loop_
_geom_bond_atom_site_label_1
_geom_bond_atom_site_label_2
_geom_bond_site_symmetry_1
_geom_bond_site_symmetry_2
O1 H1 1_555 1_555
H2 O1 1_555 1_555
N1 C1 1_555 1_555
C1 C2 1_555 1_555
C2 C3 1_555 1_555
C3 C4 1_555 1_555
C4 C5 1_555 1_555
C5 C6 1_555 1_555
C6 C7 1_555 1_555
C7 C8 1_555 1_555
C8 C9 1_555 1_555
C9 C10 1_555 1_555
C10 C11 1_555 1_555
C11 C12 1_555 1_555
C12 H25 1_555 1_555
C13 N1 1_555 1_555
C14 C13 1_555 1_555
C15 C14 1_555 1_555
C16 N1 1_555 1_555
C17 N1 1_555 1_555
H3 C1 1_555 1_555
H4 C1 1_555 1_555
H5 C2 1_555 1_555
H6 C2 1_555 1_555
H7 C3 1_555 1_555
H8 C3 1_555 1_555
H9 C4 1_555 1_555
H10 C4 1_555 1_555
H11 C5 1_555 1_555
H12 C5 1_555 1_555
H13 C6 1_555 1_555
H14 C6 1_555 1_555
H15 C7 1_555 1_555
H16 C7 1_555 1_555
H17 C8 1_555 1_555
H18 C8 1_555 1_555
H19 C9 1_555 1_555
H20 C9 1_555 1_555
H21 C10 1_555 1_555
H22 C10 1_555 1_555
H23 C11 1_555 1_555
H24 C11 1_555 1_555
H26 C12 1_555 1_555
H27 C12 1_555 1_555
H28 C13 1_555 1_555
H29 C13 1_555 1_555
H30 C14 1_555 1_555
H31 C14 1_555 1_555
H32 C15 1_555 1_555
H33 C15 1_555 1_555
H34 C15 1_555 1_555
H35 C16 1_555 1_555
H36 C16 1_555 1_555
H37 C16 1_555 1_555
H38 C17 1_555 1_555
H39 C17 1_555 1_555
H40 C17 1_555 1_555
N2 C18 1_555 1_555
C18 C19 1_555 1_555
C19 C20 1_555 1_555
C20 C21 1_555 1_555
C21 C22 1_555 1_555
C22 C23 1_555 1_555
C23 C24 1_555 1_555
C24 C25 1_555 1_555
C25 C26 1_555 1_555
C26 C27 1_555 1_555
C27 C28 1_555 1_555
C28 C29 1_555 1_555
C29 H63 1_555 1_555
C30 N2 1_555 1_555
C31 C30 1_555 1_555
C32 C31 1_555 1_555
C33 N2 1_555 1_555
C34 N2 1_555 1_555
H41 C18 1_555 1_555
H42 C18 1_555 1_555
H43 C19 1_555 1_555
H44 C19 1_555 1_555
H45 C20 1_555 1_555
H46 C20 1_555 1_555
H47 C21 1_555 1_555
H48 C21 1_555 1_555
H49 C22 1_555 1_555
H50 C22 1_555 1_555
H51 C23 1_555 1_555
H52 C23 1_555 1_555
H53 C24 1_555 1_555
H54 C24 1_555 1_555
H55 C25 1_555 1_555
H56 C25 1_555 1_555
H57 C26 1_555 1_555
H58 C26 1_555 1_555
H59 C27 1_555 1_555
H60 C27 1_555 1_555
H61 C28 1_555 1_555
H62 C28 1_555 1_555
H64 C29 1_555 1_555
H65 C29 1_555 1_555
H66 C30 1_555 1_555
H67 C30 1_555 1_555
H68 C31 1_555 1_555
H69 C31 1_555 1_555
H70 C32 1_555 1_555
H71 C32 1_555 1_555
H72 C32 1_555 1_555
H73 C33 1_555 1_555
H74 C33 1_555 1_555
H75 C33 1_555 1_555
H76 C34 1_555 1_555
H77 C34 1_555 1_555
H78 C34 1_555 1_555

#END
