
#######################################################################
#
#                 Cambridge Crystallographic Data Centre
#                                CCDC 
#
#######################################################################
#
# If this CIF has been generated from an entry in the Cambridge 
# Structural Database, then it will include bibliographic, chemical, 
# crystal, experimental, refinement or atomic coordinate data resulting 
# from the CCDC's data processing and validation procedures.
#
#######################################################################

data_FITHIB
_chemical_name_common            'phomoxanthone A unknown solvate'
_chemical_formula_moiety         'C38 H38 O16'
_chemical_name_systematic        
"10a,10a'-bis(acetoxymethyl)-1,1',8,8'-tetrahydroxy-6,6'-dimethyl-9,9'-dioxo-5,5',7,7',9,9',10a,10a'-octahydro-6H,6'H-4,4'-bixanthene-5,5'-diyl diacetate unknown solvate"
_symmetry_cell_setting           monoclinic
_symmetry_space_group_name_H-M   'P 21'
_symmetry_Int_Tables_number      4
_space_group_name_Hall           'P 2yb'
loop_
_symmetry_equiv_pos_site_id
_symmetry_equiv_pos_as_xyz
1 x,y,z
2 -x,1/2+y,-z
_cell_length_a                   10.6741(8)
_cell_length_b                   12.3578(9)
_cell_length_c                   15.4377(11)
_cell_angle_alpha                90
_cell_angle_beta                 98.518(3)
_cell_angle_gamma                90
_cell_volume                     2013.9
_exptl_crystal_colour            yellow
_exptl_crystal_description       block
_cell_formula_units_Z            2
loop_
_atom_site_label
_atom_site_type_symbol
_atom_site_fract_x
_atom_site_fract_y
_atom_site_fract_z
O1 O 0.5455(2) 0.35811(18) 0.39922(16)
H1 H 0.579(4) 0.324(3) 0.351(2)
O2 O 0.6102(2) 0.35734(18) 0.24136(16)
O3 O 0.6805(3) 0.3707(2) 0.09084(18)
H2 H 0.6729 0.3422 0.1392
O4 O 0.67296(19) 0.72223(17) 0.10653(13)
O5 O 0.6199(3) 0.8989(2) 0.0915(2)
O6 O 0.2889(2) 0.6951(2) 0.09974(15)
O7 O 0.2062(3) 0.6821(2) 0.22542(17)
O8 O 0.5206(2) 0.67864(17) 0.21857(12)
O9 O 0.5421(3) 1.13625(19) 0.28277(16)
H3 H 0.610(4) 1.155(4) 0.284(3)
O10 O 0.7876(2) 1.10946(18) 0.30750(14)
O11 O 1.0239(2) 1.0713(2) 0.33116(17)
H4 H 0.9563 1.1044 0.3132
O12 O 0.9456(2) 0.72379(18) 0.36797(14)
O13 O 0.8927(3) 0.5663(2) 0.42768(17)
O14 O 0.7847(3) 0.8263(2) 0.58444(15)
O15 O 0.7370(2) 0.80625(16) 0.40320(13)
C1 C 0.7875(11) 0.8463(9) 0.6668(5)
O16 O 0.7967(7) 0.9393(5) 0.6957(3)
C2 C 0.7508(5) 0.7443(4) 0.7152(3)
H5 H 0.7884 0.6803 0.6917
H6 H 0.6584 0.7368 0.7066
H7 H 0.7824 0.7510 0.7778
C3 C 0.5144(3) 0.6429(3) 0.45035(19)
H8 H 0.5094 0.6861 0.5006
C4 C 0.5212(3) 0.5311(3) 0.4591(2)
H9 H 0.5178 0.4989 0.5145
C5 C 0.5328(3) 0.4670(2) 0.3882(2)
C6 C 0.5342(3) 0.5137(3) 0.3045(2)
C7 C 0.5663(3) 0.5096(3) 0.1493(2)
C8 C 0.5694(3) 0.4529(3) 0.2320(2)
C9 C 0.6233(3) 0.4666(3) 0.0848(2)
C10 C 0.6377(4) 0.5273(3) 0.0017(2)
H10 H 0.6174 0.4774 -0.0486
H11 H 0.7274 0.5491 0.0045
C11 C 0.5556(3) 0.6270(3) -0.0154(2)
H12 H 0.4683 0.6031 -0.0408
C12 C 0.6054(4) 0.6998(4) -0.0817(2)
H13 H 0.6021 0.6611 -0.1374
H14 H 0.6932 0.7200 -0.0599
H15 H 0.5531 0.7651 -0.0906
C13 C 0.5464(3) 0.6886(3) 0.07046(19)
H16 H 0.4900 0.7531 0.0583
C14 C 0.6947(3) 0.8293(3) 0.1168(2)
C15 C 0.8272(4) 0.8481(3) 0.1622(2)
H17 H 0.8440 0.9260 0.1665
H18 H 0.8875 0.8138 0.1287
H19 H 0.8367 0.8167 0.2211
C16 C 0.4996(3) 0.6166(3) 0.13917(19)
C17 C 0.3560(3) 0.5954(3) 0.1162(2)
H20 H 0.3397 0.5487 0.0636
H21 H 0.3253 0.5571 0.1653
C18 C 0.2202(4) 0.7319(3) 0.1611(2)
C19 C 0.1669(4) 0.8417(4) 0.1364(3)
H22 H 0.1174 0.8670 0.1811
H23 H 0.1120 0.8375 0.0797
H24 H 0.2363 0.8925 0.1323
C20 C 0.5202(3) 0.6269(2) 0.29677(18)
C21 C 0.5147(3) 0.6934(2) 0.36910(18)
C22 C 0.5182(3) 0.8128(2) 0.35627(18)
C23 C 0.4125(3) 0.8731(3) 0.32205(19)
H25 H 0.3320 0.8387 0.3137
C24 C 0.4196(3) 0.9819(3) 0.2994(2)
H26 H 0.3448 1.0209 0.2776
C25 C 0.5357(3) 1.0323(2) 0.3088(2)
C26 C 0.6459(3) 0.9753(2) 0.34488(18)
C27 C 0.7706(3) 1.0213(2) 0.34550(19)
C28 C 0.8767(3) 0.9578(3) 0.38625(19)
C29 C 0.9979(3) 0.9829(3) 0.3756(2)
C30 C 1.1089(3) 0.9128(3) 0.4055(3)
H27 H 1.1806 0.9591 0.4311
H28 H 1.1341 0.8755 0.3540
C31 C 1.0853(3) 0.8269(3) 0.4738(2)
H29 H 1.0908 0.8636 0.5319
C32 C 1.1871(3) 0.7394(3) 0.4812(3)
H30 H 1.2707 0.7726 0.4972
H31 H 1.1837 0.7022 0.4248
H32 H 1.1723 0.6871 0.5264
C33 C 0.9533(3) 0.7782(3) 0.45190(19)
H33 H 0.9388 0.7249 0.4982
C34 C 0.9101(3) 0.6172(3) 0.3656(2)
C35 C 0.8988(4) 0.5767(3) 0.2741(2)
H34 H 0.8879 0.4980 0.2736
H35 H 0.9757 0.5952 0.2496
H36 H 0.8253 0.6104 0.2386
C36 C 0.8501(3) 0.8638(2) 0.44268(19)
C37 C 0.8265(3) 0.9101(3) 0.53123(19)
H37 H 0.9056 0.9426 0.5619
H38 H 0.7614 0.9677 0.5214
C38 C 0.6352(3) 0.8665(2) 0.37013(17)
C39? C 0.8360(10) 0.8037(9) 0.6595(6)
O17? O 0.9460(6) 0.8288(5) 0.6838(4)
loop_
_geom_bond_atom_site_label_1
_geom_bond_atom_site_label_2
_geom_bond_site_symmetry_1
_geom_bond_site_symmetry_2
O1 H1 1_555 1_555
O2 C8 1_555 1_555
O3 H2 1_555 1_555
O4 C13 1_555 1_555
O5 C14 1_555 1_555
O6 C17 1_555 1_555
O7 C18 1_555 1_555
O8 C16 1_555 1_555
O9 H3 1_555 1_555
O10 C27 1_555 1_555
O11 H4 1_555 1_555
O12 C33 1_555 1_555
O13 C34 1_555 1_555
O14 C1 1_555 1_555
O15 C36 1_555 1_555
C1 O16 1_555 1_555
C2 C1 1_555 1_555
H5 C2 1_555 1_555
H6 C2 1_555 1_555
H7 C2 1_555 1_555
C3 H8 1_555 1_555
C4 C3 1_555 1_555
H9 C4 1_555 1_555
C5 O1 1_555 1_555
C6 C5 1_555 1_555
C7 C8 1_555 1_555
C8 C6 1_555 1_555
C9 O3 1_555 1_555
C10 C9 1_555 1_555
H10 C10 1_555 1_555
H11 C10 1_555 1_555
C11 C10 1_555 1_555
H12 C11 1_555 1_555
C12 C11 1_555 1_555
H13 C12 1_555 1_555
H14 C12 1_555 1_555
H15 C12 1_555 1_555
C13 C11 1_555 1_555
H16 C13 1_555 1_555
C14 O4 1_555 1_555
C15 C14 1_555 1_555
H17 C15 1_555 1_555
H18 C15 1_555 1_555
H19 C15 1_555 1_555
C16 C7 1_555 1_555
C17 C16 1_555 1_555
H20 C17 1_555 1_555
H21 C17 1_555 1_555
C18 O6 1_555 1_555
C19 C18 1_555 1_555
H22 C19 1_555 1_555
H23 C19 1_555 1_555
H24 C19 1_555 1_555
C20 O8 1_555 1_555
C21 C3 1_555 1_555
C22 C21 1_555 1_555
C23 C22 1_555 1_555
H25 C23 1_555 1_555
C24 C23 1_555 1_555
H26 C24 1_555 1_555
C25 O9 1_555 1_555
C26 C25 1_555 1_555
C27 C26 1_555 1_555
C28 C27 1_555 1_555
C29 O11 1_555 1_555
C30 C29 1_555 1_555
H27 C30 1_555 1_555
H28 C30 1_555 1_555
C31 C30 1_555 1_555
H29 C31 1_555 1_555
C32 C31 1_555 1_555
H30 C32 1_555 1_555
H31 C32 1_555 1_555
H32 C32 1_555 1_555
C33 C31 1_555 1_555
H33 C33 1_555 1_555
C34 O12 1_555 1_555
C35 C34 1_555 1_555
H34 C35 1_555 1_555
H35 C35 1_555 1_555
H36 C35 1_555 1_555
C36 C28 1_555 1_555
C37 O14 1_555 1_555
H37 C37 1_555 1_555
H38 C37 1_555 1_555
C38 O15 1_555 1_555
C4 C5 1_555 1_555
C6 C20 1_555 1_555
C7 C9 1_555 1_555
C13 C16 1_555 1_555
C20 C21 1_555 1_555
C22 C38 1_555 1_555
C24 C25 1_555 1_555
C26 C38 1_555 1_555
C28 C29 1_555 1_555
C33 C36 1_555 1_555
C36 C37 1_555 1_555

#END
