
#######################################################################
#
#                 Cambridge Crystallographic Data Centre
#                                CCDC 
#
#######################################################################
#
# If this CIF has been generated from an entry in the Cambridge 
# Structural Database, then it will include bibliographic, chemical, 
# crystal, experimental, refinement or atomic coordinate data resulting 
# from the CCDC's data processing and validation procedures.
#
#######################################################################

data_FITWIR
_chemical_formula_moiety         'C18 H19 N1'
_chemical_name_systematic        
1-phenyl-1,2,3,3a,4,5-hexahydropyrrolo[1,2-a]quinoline
_symmetry_cell_setting           orthorhombic
_symmetry_space_group_name_H-M   'P 21 21 21'
_symmetry_Int_Tables_number      19
_space_group_name_Hall           'P 2ac 2ab'
loop_
_symmetry_equiv_pos_site_id
_symmetry_equiv_pos_as_xyz
1 x,y,z
2 1/2-x,-y,1/2+z
3 1/2+x,1/2-y,-z
4 -x,1/2+y,1/2-z
_cell_length_a                   9.6984(3)
_cell_length_b                   10.8140(4)
_cell_length_c                   13.0827(5)
_cell_angle_alpha                90
_cell_angle_beta                 90
_cell_angle_gamma                90
_cell_volume                     1372.09
_cell_formula_units_Z            4
loop_
_atom_site_label
_atom_site_type_symbol
_atom_site_fract_x
_atom_site_fract_y
_atom_site_fract_z
C1 C 0.82386(17) 0.52682(16) 0.47763(13)
H1 H 0.9147 0.4954 0.4524
C2 C 0.8185(2) 0.51696(19) 0.59507(14)
H2 H 0.7742 0.4388 0.6168
H3 H 0.9122 0.5213 0.6249
C3 C 0.7328(2) 0.6277(2) 0.62636(14)
H4 H 0.7476 0.6488 0.6992
H5 H 0.6334 0.6127 0.6145
C4 C 0.78752(18) 0.72839(18) 0.55647(13)
H6 H 0.8764 0.7602 0.5850
C5 C 0.6946(2) 0.8366(2) 0.53292(16)
H7 H 0.6758 0.8838 0.5963
H8 H 0.6056 0.8064 0.5054
C6 C 0.7642(2) 0.92014(18) 0.45481(18)
H9 H 0.6967 0.9819 0.4300
H10 H 0.8405 0.9654 0.4884
C7 C 0.82085(18) 0.84900(16) 0.36458(14)
C8 C 0.8504(2) 0.90711(18) 0.27269(17)
H11 H 0.8363 0.9938 0.2674
C9 C 0.8991(2) 0.8443(2) 0.18918(17)
H12 H 0.9181 0.8870 0.1273
C10 C 0.9204(2) 0.7176(2) 0.19590(15)
H13 H 0.9545 0.6734 0.1384
C11 C 0.89223(18) 0.65545(17) 0.28588(12)
H14 H 0.9059 0.5686 0.2895
C12 C 0.84364(16) 0.71959(15) 0.37187(12)
C13 C 0.70742(18) 0.45593(16) 0.42582(12)
C14 C 0.59589(18) 0.51432(17) 0.38015(13)
H15 H 0.5925 0.6021 0.3788
C15 C 0.4896(2) 0.44722(19) 0.33659(16)
H16 H 0.4144 0.4893 0.3056
C16 C 0.4918(2) 0.3193(2) 0.33778(16)
H17 H 0.4184 0.2732 0.3085
C17 C 0.6025(3) 0.2598(2) 0.38214(18)
H18 H 0.6053 0.1720 0.3830
C18 C 0.7097(2) 0.32654(17) 0.42554(15)
H19 H 0.7853 0.2840 0.4554
N1 N 0.81625(15) 0.66027(13) 0.46227(10)
loop_
_geom_bond_atom_site_label_1
_geom_bond_atom_site_label_2
_geom_bond_site_symmetry_1
_geom_bond_site_symmetry_2
C1 H1 1_555 1_555
C2 C1 1_555 1_555
H2 C2 1_555 1_555
H3 C2 1_555 1_555
C3 C2 1_555 1_555
H4 C3 1_555 1_555
H5 C3 1_555 1_555
C4 C3 1_555 1_555
H6 C4 1_555 1_555
C5 C4 1_555 1_555
H7 C5 1_555 1_555
H8 C5 1_555 1_555
C6 C5 1_555 1_555
H9 C6 1_555 1_555
H10 C6 1_555 1_555
C7 C6 1_555 1_555
C8 C7 1_555 1_555
H11 C8 1_555 1_555
C9 C8 1_555 1_555
H12 C9 1_555 1_555
C10 C9 1_555 1_555
H13 C10 1_555 1_555
C11 C10 1_555 1_555
H14 C11 1_555 1_555
C12 C7 1_555 1_555
C13 C1 1_555 1_555
C14 C13 1_555 1_555
H15 C14 1_555 1_555
C15 C14 1_555 1_555
H16 C15 1_555 1_555
C16 C15 1_555 1_555
H17 C16 1_555 1_555
C17 C16 1_555 1_555
H18 C17 1_555 1_555
C18 C13 1_555 1_555
H19 C18 1_555 1_555
N1 C1 1_555 1_555
C4 N1 1_555 1_555
C11 C12 1_555 1_555
C12 N1 1_555 1_555
C17 C18 1_555 1_555

#END
