
#######################################################################
#
#                 Cambridge Crystallographic Data Centre
#                                CCDC 
#
#######################################################################
#
# If this CIF has been generated from an entry in the Cambridge 
# Structural Database, then it will include bibliographic, chemical, 
# crystal, experimental, refinement or atomic coordinate data resulting 
# from the CCDC's data processing and validation procedures.
#
#######################################################################

data_FITXEO
_chemical_formula_moiety         'C21 H21 N1 O2 S1'
_chemical_name_systematic        
7-methyl-6-[(4-methylphenyl)sulfonyl]-5-phenyl-2,3-dihydro-1H-pyrrolizine
_symmetry_cell_setting           monoclinic
_symmetry_space_group_name_H-M   'C 2/c'
_symmetry_Int_Tables_number      15
_space_group_name_Hall           '-C 2yn'
loop_
_symmetry_equiv_pos_site_id
_symmetry_equiv_pos_as_xyz
1 x,y,z
2 -x,y,1/2-z
3 1/2+x,1/2+y,z
4 1/2-x,1/2+y,1/2-z
5 -x,-y,-z
6 x,-y,1/2+z
7 1/2-x,1/2-y,-z
8 1/2+x,1/2-y,1/2+z
_cell_length_a                   31.1655(5)
_cell_length_b                   8.49460(10)
_cell_length_c                   13.3472(2)
_cell_angle_alpha                90
_cell_angle_beta                 98.752(2)
_cell_angle_gamma                90
_cell_volume                     3492.37
_exptl_crystal_colour            colorless
_exptl_crystal_description       block
_cell_formula_units_Z            8
loop_
_atom_site_label
_atom_site_type_symbol
_atom_site_fract_x
_atom_site_fract_y
_atom_site_fract_z
S1 S 0.38031(2) 0.04264(4) 0.58506(3)
O1 O 0.36612(4) -0.10571(12) 0.53808(8)
O2 O 0.39121(4) 0.04768(13) 0.69390(8)
N1 N 0.30648(4) 0.40815(15) 0.51639(9)
C1 C 0.33540(4) 0.32986(17) 0.58605(10)
C2 C 0.29429(5) 0.31797(18) 0.43178(11)
C3 C 0.31535(5) 0.17677(17) 0.44282(11)
C4 C 0.37022(5) 0.55783(17) 0.68244(11)
H1 H 0.369636 0.611003 0.621344
C5 C 0.35392(5) 0.40424(17) 0.68265(11)
C6 C 0.43366(5) 0.05013(17) 0.43971(12)
H2 H 0.415563 -0.026112 0.405784
C7 C 0.42657(5) 0.10551(17) 0.53397(11)
C8 C 0.34127(4) 0.18238(17) 0.54192(10)
C9 C 0.35511(5) 0.32658(18) 0.77528(11)
H3 H 0.343841 0.225374 0.776769
C10 C 0.45403(5) 0.21722(19) 0.58651(12)
H4 H 0.449372 0.252128 0.650018
C11 C 0.37299(5) 0.3993(2) 0.86517(11)
H5 H 0.374255 0.345722 0.926296
C12 C 0.46823(5) 0.11056(19) 0.39702(11)
H6 H 0.473137 0.073940 0.334089
C13 C 0.38722(5) 0.63140(18) 0.77261(12)
H7 H 0.397464 0.734154 0.771763
C14 C 0.49562(5) 0.22489(19) 0.44677(12)
C15 C 0.28416(5) 0.56001(19) 0.51423(12)
H8 H 0.304670 0.646559 0.518835
H9 H 0.267226 0.568235 0.569266
C16 C 0.48844(5) 0.27573(19) 0.54273(13)
H10 H 0.506997 0.349758 0.577632
C17 C 0.31237(5) 0.05230(18) 0.36245(12)
H11 H 0.288773 0.076273 0.309612
H12 H 0.307398 -0.048148 0.391578
H13 H 0.339014 0.049078 0.334674
C18 C 0.38900(5) 0.55192(19) 0.86419(12)
H14 H 0.400839 0.600614 0.924500
C19 C 0.26292(5) 0.4047(2) 0.35593(12)
H15 H 0.236262 0.345408 0.338099
H16 H 0.275306 0.425886 0.294881
C20 C 0.25462(5) 0.55880(19) 0.41072(13)
H17 H 0.261076 0.648641 0.370696
H18 H 0.224412 0.564894 0.420115
C21 C 0.53195(5) 0.2931(2) 0.39795(14)
H19 H 0.545733 0.210663 0.365335
H20 H 0.552831 0.341840 0.448834
H21 H 0.520442 0.370344 0.348563
loop_
_geom_bond_atom_site_label_1
_geom_bond_atom_site_label_2
_geom_bond_site_symmetry_1
_geom_bond_site_symmetry_2
S1 O1 1_555 1_555
O2 S1 1_555 1_555
N1 C1 1_555 1_555
C1 C5 1_555 1_555
C2 N1 1_555 1_555
C3 C2 1_555 1_555
C4 H1 1_555 1_555
C5 C4 1_555 1_555
C6 H2 1_555 1_555
C7 S1 1_555 1_555
C8 S1 1_555 1_555
C9 C5 1_555 1_555
H3 C9 1_555 1_555
C10 C7 1_555 1_555
H4 C10 1_555 1_555
C11 C9 1_555 1_555
H5 C11 1_555 1_555
C12 C6 1_555 1_555
H6 C12 1_555 1_555
C13 C4 1_555 1_555
H7 C13 1_555 1_555
C14 C12 1_555 1_555
C15 N1 1_555 1_555
H8 C15 1_555 1_555
H9 C15 1_555 1_555
C16 C10 1_555 1_555
H10 C16 1_555 1_555
C17 C3 1_555 1_555
H11 C17 1_555 1_555
H12 C17 1_555 1_555
H13 C17 1_555 1_555
C18 C11 1_555 1_555
H14 C18 1_555 1_555
C19 C2 1_555 1_555
H15 C19 1_555 1_555
H16 C19 1_555 1_555
C20 C15 1_555 1_555
H17 C20 1_555 1_555
H18 C20 1_555 1_555
C21 C14 1_555 1_555
H19 C21 1_555 1_555
H20 C21 1_555 1_555
H21 C21 1_555 1_555
C1 C8 1_555 1_555
C3 C8 1_555 1_555
C6 C7 1_555 1_555
C13 C18 1_555 1_555
C14 C16 1_555 1_555
C19 C20 1_555 1_555

#END
