
#######################################################################
#
#                 Cambridge Crystallographic Data Centre
#                                CCDC 
#
#######################################################################
#
# If this CIF has been generated from an entry in the Cambridge 
# Structural Database, then it will include bibliographic, chemical, 
# crystal, experimental, refinement or atomic coordinate data resulting 
# from the CCDC's data processing and validation procedures.
#
#######################################################################

data_FITXAK
_chemical_formula_moiety         'C30 H25 N1 O1'
_chemical_name_systematic        
'[2,3-dimethyl-1-phenyl-7-(2-phenylethenyl)-1H-pyrrolizin-6-yl](phenyl)methanone'
_symmetry_cell_setting           monoclinic
_symmetry_space_group_name_H-M   'P 21/n'
_symmetry_Int_Tables_number      14
_space_group_name_Hall           '-P 2yn'
loop_
_symmetry_equiv_pos_site_id
_symmetry_equiv_pos_as_xyz
1 x,y,z
2 1/2-x,1/2+y,1/2-z
3 -x,-y,-z
4 1/2+x,1/2-y,1/2+z
_cell_length_a                   7.3442(5)
_cell_length_b                   8.3057(7)
_cell_length_c                   38.235(3)
_cell_angle_alpha                90
_cell_angle_beta                 93.689(7)
_cell_angle_gamma                90
_cell_volume                     2327.45
_exptl_crystal_colour            colorless
_exptl_crystal_description       block
_cell_formula_units_Z            4
loop_
_atom_site_label
_atom_site_type_symbol
_atom_site_fract_x
_atom_site_fract_y
_atom_site_fract_z
N1 N 0.0599(4) 0.6579(4) 0.66233(9)
O1 O 0.5942(5) 0.8558(5) 0.71200(8)
C1 C 0.1613(5) 0.7227(4) 0.63642(10)
C2 C 0.6178(5) 0.9731(4) 0.58340(10)
C3 C 0.1605(4) 0.5881(4) 0.57688(10)
C4 C 0.3183(5) 0.7871(4) 0.65218(9)
C5 C 0.4646(5) 0.8686(4) 0.63510(10)
H1 H 0.5633 0.9041 0.6495
C6 C 0.4709(5) 0.8971(4) 0.60100(10)
H2 H 0.3699 0.8648 0.5868
C7 C 0.0613(4) 0.6909(4) 0.60189(9)
H3 H 0.0275 0.7935 0.5906
C8 C -0.1114(5) 0.6060(5) 0.61317(12)
C9 C 0.3090(5) 0.7573(5) 0.68940(10)
C10 C -0.1045(5) 0.5892(5) 0.64750(12)
C11 C 0.2488(5) 0.4501(5) 0.58887(12)
H4 H 0.2509 0.4236 0.6125
C12 C 0.7559(5) 1.0608(5) 0.60073(11)
H5 H 0.7544 1.0753 0.6248
C13 C 0.6261(6) 0.9587(5) 0.54757(11)
H6 H 0.5347 0.9022 0.5349
C14 C 0.1485(6) 0.6790(5) 0.69359(11)
H7 H 0.1073 0.6455 0.7149
C15 C 0.4091(8) 0.7452(5) 0.75422(12)
C16 C 0.8951(6) 1.1271(5) 0.58326(14)
H8 H 0.9865 1.1845 0.5957
C17 C 0.4478(7) 0.7948(5) 0.71719(11)
C18 C 0.9015(6) 1.1103(6) 0.54779(14)
H9 H 0.9961 1.1554 0.5361
C19 C 0.1592(6) 0.6239(6) 0.54198(12)
H10 H 0.0991 0.7157 0.5334
C20 C -0.2554(5) 0.5480(5) 0.58692(12)
H11 H -0.3042 0.6377 0.5735
H12 H -0.3514 0.4974 0.5988
H13 H -0.2036 0.4718 0.5715
C21 C 0.7662(7) 1.0259(6) 0.53010(13)
H14 H 0.7681 1.0132 0.5060
C22 C 0.3345(6) 0.3508(6) 0.56576(18)
H15 H 0.3931 0.2576 0.5739
C23 C -0.2328(6) 0.5119(6) 0.67157(13)
H16 H -0.1769 0.4173 0.6819
H17 H -0.3438 0.4826 0.6585
H18 H -0.2597 0.5865 0.6897
C24 C 0.3328(8) 0.3902(9) 0.5309(2)
H19 H 0.3910 0.3242 0.5155
C25 C 0.5372(8) 0.6499(6) 0.77261(14)
H20 H 0.6440 0.6194 0.7626
C26 C 0.2573(9) 0.7959(6) 0.76938(13)
H21 H 0.1728 0.8609 0.7569
C27 C 0.2464(8) 0.5248(10) 0.51915(15)
H22 H 0.2454 0.5514 0.4955
C28 C 0.3536(14) 0.6533(9) 0.82161(19)
H23 H 0.3368 0.6229 0.8446
C29 C 0.5031(13) 0.6012(8) 0.80603(17)
H24 H 0.5840 0.5315 0.8180
C30 C 0.2276(11) 0.7492(8) 0.80437(16)
H25 H 0.1246 0.7835 0.8152
loop_
_geom_bond_atom_site_label_1
_geom_bond_atom_site_label_2
_geom_bond_site_symmetry_1
_geom_bond_site_symmetry_2
N1 C1 1_555 1_555
O1 C17 1_555 1_555
C1 C4 1_555 1_555
C2 C6 1_555 1_555
C3 C7 1_555 1_555
C4 C5 1_555 1_555
C5 H1 1_555 1_555
C6 C5 1_555 1_555
H2 C6 1_555 1_555
C7 C1 1_555 1_555
H3 C7 1_555 1_555
C8 C7 1_555 1_555
C9 C4 1_555 1_555
C10 N1 1_555 1_555
C11 C3 1_555 1_555
H4 C11 1_555 1_555
C12 C2 1_555 1_555
H5 C12 1_555 1_555
C13 C2 1_555 1_555
H6 C13 1_555 1_555
C14 N1 1_555 1_555
H7 C14 1_555 1_555
C15 C17 1_555 1_555
C16 C12 1_555 1_555
H8 C16 1_555 1_555
C17 C9 1_555 1_555
C18 C16 1_555 1_555
H9 C18 1_555 1_555
C19 C3 1_555 1_555
H10 C19 1_555 1_555
C20 C8 1_555 1_555
H11 C20 1_555 1_555
H12 C20 1_555 1_555
H13 C20 1_555 1_555
C21 C13 1_555 1_555
H14 C21 1_555 1_555
C22 C11 1_555 1_555
H15 C22 1_555 1_555
C23 C10 1_555 1_555
H16 C23 1_555 1_555
H17 C23 1_555 1_555
H18 C23 1_555 1_555
C24 C22 1_555 1_555
H19 C24 1_555 1_555
C25 C15 1_555 1_555
H20 C25 1_555 1_555
C26 C15 1_555 1_555
H21 C26 1_555 1_555
C27 C19 1_555 1_555
H22 C27 1_555 1_555
C28 H23 1_555 1_555
C29 C25 1_555 1_555
H24 C29 1_555 1_555
C30 C26 1_555 1_555
H25 C30 1_555 1_555
C8 C10 1_555 1_555
C9 C14 1_555 1_555
C18 C21 1_555 1_555
C24 C27 1_555 1_555
C28 C29 1_555 1_555
C28 C30 1_555 1_555

#END
