
#######################################################################
#
#                 Cambridge Crystallographic Data Centre
#                                CCDC 
#
#######################################################################
#
# If this CIF has been generated from an entry in the Cambridge 
# Structural Database, then it will include bibliographic, chemical, 
# crystal, experimental, refinement or atomic coordinate data resulting 
# from the CCDC's data processing and validation procedures.
#
#######################################################################

data_FIVFEW
_chemical_formula_moiety         'C26 H22 N4 O2'
_chemical_name_systematic        
1,4-bis(3-(2-Hydroxyphenyl)pyrazol-1-ylmethyl)benzene
_symmetry_cell_setting           monoclinic
_symmetry_space_group_name_H-M   'P 21/n'
_symmetry_Int_Tables_number      14
_space_group_name_Hall           '-P 2yn'
loop_
_symmetry_equiv_pos_site_id
_symmetry_equiv_pos_as_xyz
1 x,y,z
2 1/2-x,1/2+y,1/2-z
3 -x,-y,-z
4 1/2+x,1/2-y,1/2+z
_cell_length_a                   6.293(3)
_cell_length_b                   9.451(4)
_cell_length_c                   18.202(8)
_cell_angle_alpha                90
_cell_angle_beta                 91.722(9)
_cell_angle_gamma                90
_cell_volume                     1082.08
_exptl_crystal_colour            colorless
_exptl_crystal_description       needle
_cell_formula_units_Z            2
_exptl_crystal_recrystallization_method deuterochloroform
loop_
_atom_site_label
_atom_site_type_symbol
_atom_site_fract_x
_atom_site_fract_y
_atom_site_fract_z
O1 O 0.3979(5) 1.0785(3) 0.61554(19)
H1 H 0.349(3) 1.011(5) 0.572(3)
N1 N 0.0789(5) 0.7850(4) 0.5064(2)
N2 N 0.1635(6) 0.8834(4) 0.5528(2)
C1 C 0.3555(6) 0.6070(4) 0.4780(2)
C2 C 0.4730(7) 0.5328(4) 0.4268(3)
H2 H 0.4562 0.5548 0.3772
C3 C 0.3853(7) 0.5732(4) 0.5514(3)
H3 H 0.3099 0.6218 0.5866
C4 C 0.2071(7) 0.7226(5) 0.4501(2)
H4 H 0.2909 0.7965 0.4280
H5 H 0.1134 0.6836 0.4120
C5 C -0.1247(7) 0.7555(5) 0.5216(3)
H6 H -0.2123 0.6908 0.4968
C6 C -0.1795(7) 0.8381(4) 0.5801(3)
H7 H -0.3099 0.8416 0.6027
C7 C 0.0059(6) 0.9167(4) 0.5983(3)
C8 C 0.0396(6) 1.0244(4) 0.6545(3)
C9 C -0.1191(7) 1.0571(5) 0.7041(3)
H8 H -0.2445 1.0050 0.7021
C10 C -0.0976(8) 1.1627(5) 0.7556(3)
H9 H -0.2078 1.1834 0.7868
C11 C 0.0937(8) 1.2388(5) 0.7602(3)
H10 H 0.1113 1.3099 0.7951
C12 C 0.2553(7) 1.2090(5) 0.7135(3)
H11 H 0.3815 1.2601 0.7170
C13 C 0.2308(7) 1.1017(5) 0.6604(3)
O1B O 0.6021(5) -0.0785(3) 0.38446(19)
H1B H 0.651(3) -0.011(5) 0.428(3)
N1B N 0.9211(5) 0.2150(4) 0.4936(2)
N2B N 0.8365(6) 0.1166(4) 0.4472(2)
C1B C 0.6445(6) 0.3930(4) 0.5220(2)
C2B C 0.5270(7) 0.4672(4) 0.5732(3)
H2B H 0.5438 0.4452 0.6228
C3B C 0.6147(7) 0.4268(4) 0.4486(3)
H3B H 0.6901 0.3782 0.4134
C4B C 0.7929(7) 0.2774(5) 0.5499(2)
H4B H 0.7091 0.2035 0.5720
H5B H 0.8866 0.3164 0.5880
C5B C 1.1247(7) 0.2445(5) 0.4784(3)
H6B H 1.2123 0.3092 0.5032
C6B C 1.1795(7) 0.1619(4) 0.4199(3)
H7B H 1.3099 0.1584 0.3973
C7B C 0.9941(6) 0.0833(4) 0.4017(3)
C8B C 0.9604(6) -0.0244(4) 0.3455(3)
C9B C 1.1191(7) -0.0571(5) 0.2959(3)
H8B H 1.2445 -0.0050 0.2979
C10B C 1.0976(8) -0.1627(5) 0.2444(3)
H9B H 1.2078 -0.1834 0.2132
C11B C 0.9063(8) -0.2388(5) 0.2398(3)
H10B H 0.8887 -0.3099 0.2049
C12B C 0.7447(7) -0.2090(5) 0.2865(3)
H11B H 0.6185 -0.2601 0.2830
C13B C 0.7692(7) -0.1017(5) 0.3396(3)
loop_
_geom_bond_atom_site_label_1
_geom_bond_atom_site_label_2
_geom_bond_site_symmetry_1
_geom_bond_site_symmetry_2
O1 H1 1_555 1_555
N1 N2 1_555 1_555
N2 C7 1_555 1_555
C1 C2 1_555 1_555
C2 H2 1_555 1_555
C3 C1 1_555 1_555
H3 C3 1_555 1_555
C4 N1 1_555 1_555
H4 C4 1_555 1_555
H5 C4 1_555 1_555
C5 N1 1_555 1_555
H6 C5 1_555 1_555
C6 C5 1_555 1_555
H7 C6 1_555 1_555
C7 C6 1_555 1_555
C8 C7 1_555 1_555
C9 C8 1_555 1_555
H8 C9 1_555 1_555
C10 C9 1_555 1_555
H9 C10 1_555 1_555
C11 C10 1_555 1_555
H10 C11 1_555 1_555
C12 C11 1_555 1_555
H11 C12 1_555 1_555
C13 O1 1_555 1_555
O1B H1B 1_555 1_555
N1B N2B 1_555 1_555
N2B C7B 1_555 1_555
C1B C2B 1_555 1_555
C2B C3 1_555 1_555
H2B C2B 1_555 1_555
C3B C2 1_555 1_555
H3B C3B 1_555 1_555
C4B N1B 1_555 1_555
H4B C4B 1_555 1_555
H5B C4B 1_555 1_555
C5B N1B 1_555 1_555
H6B C5B 1_555 1_555
C6B C5B 1_555 1_555
H7B C6B 1_555 1_555
C7B C6B 1_555 1_555
C8B C7B 1_555 1_555
C9B C8B 1_555 1_555
H8B C9B 1_555 1_555
C10B C9B 1_555 1_555
H9B C10B 1_555 1_555
C11B C10B 1_555 1_555
H10B C11B 1_555 1_555
C12B C11B 1_555 1_555
H11B C12B 1_555 1_555
C13B O1B 1_555 1_555
C1 C4 1_555 1_555
C8 C13 1_555 1_555
C12 C13 1_555 1_555
C1B C3B 1_555 1_555
C1B C4B 1_555 1_555
C8B C13B 1_555 1_555
C12B C13B 1_555 1_555

#END
