
#######################################################################
#
#                 Cambridge Crystallographic Data Centre
#                                CCDC 
#
#######################################################################
#
# If this CIF has been generated from an entry in the Cambridge 
# Structural Database, then it will include bibliographic, chemical, 
# crystal, experimental, refinement or atomic coordinate data resulting 
# from the CCDC's data processing and validation procedures.
#
#######################################################################

data_FIVGAS
_chemical_formula_moiety         '2(C10 H8 S8 1+),I3 1-,I5 1-'
_chemical_name_systematic        
'bis(bis(Ethylenedithio)tetrathiafulvalene) tri-iodide penta-iodide'
_symmetry_cell_setting           monoclinic
_symmetry_space_group_name_H-M   'P 21/a'
_symmetry_Int_Tables_number      14
_space_group_name_Hall           '-P 2yab'
loop_
_symmetry_equiv_pos_site_id
_symmetry_equiv_pos_as_xyz
1 x,y,z
2 1/2-x,1/2+y,-z
3 -x,-y,-z
4 1/2+x,1/2-y,z
_cell_length_a                   15.113(4)
_cell_length_b                   15.993(6)
_cell_length_c                   18.159(9)
_cell_angle_alpha                90
_cell_angle_beta                 100.99(3)
_cell_angle_gamma                90
_cell_volume                     4308.58
_exptl_crystal_colour            black
_cell_formula_units_Z            4
loop_
_atom_site_label
_atom_site_type_symbol
_atom_site_fract_x
_atom_site_fract_y
_atom_site_fract_z
I1 I 0.28245(7) 0.26678(8) 1.13153(7)
I2 I 0.22528(6) 0.28104(6) 0.96839(6)
I3 I 0.16898(7) 0.30152(7) 0.80822(7)
I4 I -0.11827(8) 0.13169(8) 0.38659(8)
I5 I -0.21919(7) 0.25814(7) 0.43724(6)
I6 I -0.32527(8) 0.40077(8) 0.49585(6)
I7 I -0.18810(8) 0.53370(7) 0.46636(6)
I8 I -0.0675(2) 0.65431(12) 0.43587(10)
S1 S 0.9680(2) 0.1336(2) 0.0453(2)
S2 S 1.1411(2) 0.0611(2) 0.0332(2)
S3 S 1.0941(2) 0.0777(2) -0.1447(2)
S4 S 0.9162(2) 0.1435(2) -0.1371(2)
S5 S 0.9979(2) 0.1298(2) 0.2093(2)
S6 S 1.2040(2) 0.0393(2) 0.1943(2)
S7 S 1.0655(2) 0.0749(3) -0.3099(2)
S8 S 0.8505(2) 0.1430(3) -0.3007(2)
C1 C 1.0384(9) 0.0993(8) -0.0123(8)
C2 C 1.0177(7) 0.1051(8) -0.0915(7)
C3 C 1.0386(8) 0.1085(8) 0.1271(7)
C4 C 1.1201(7) 0.0735(8) 0.1234(7)
C5 C 1.0219(8) 0.0957(8) -0.2314(7)
C6 C 0.9386(9) 0.1243(8) -0.2250(7)
C7 C 1.0905(10) 0.0997(10) 0.2851(7)
C8 C 1.1843(11) 0.1100(10) 0.2666(9)
C9 C 0.9172(13) 0.1676(15) -0.3744(9)
C10 C 0.9763(13) 0.1030(15) -0.3867(11)
S9 S 0.8371(2) 0.4876(3) -0.0595(2)
S10 S 0.9721(2) 0.3617(2) -0.0738(2)
S11 S 1.0302(2) 0.3531(2) 0.1068(2)
S12 S 0.8942(2) 0.4780(3) 0.1194(2)
S13 S 0.7662(2) 0.5060(2) -0.2196(2)
S14 S 0.9226(3) 0.3480(3) -0.2380(2)
S15 S 1.0933(3) 0.3354(2) 0.2717(2)
S16 S 0.9286(3) 0.4778(3) 0.2857(2)
C11 C 0.9231(8) 0.4235(9) -0.0149(8)
C12 C 0.9462(8) 0.4189(9) 0.0634(9)
C13 C 0.8419(8) 0.4549(9) -0.1489(7)
C14 C 0.9021(9) 0.3953(8) -0.1553(7)
C15 C 1.0208(9) 0.3832(9) 0.1989(7)
C16 C 0.9545(9) 0.4400(9) 0.2030(8)
C17 C 0.7981(10) 0.4651(9) -0.3046(8)
C18 C 0.8198(11) 0.3733(10) -0.2997(8)
C19 C 1.0166(16) 0.3307(14) 0.3408(12)
C20 C 0.9820(19) 0.4118(19) 0.3598(16)
loop_
_geom_bond_atom_site_label_1
_geom_bond_atom_site_label_2
_geom_bond_site_symmetry_1
_geom_bond_site_symmetry_2
I1 I2 1_555 1_555
I2 I3 1_555 1_555
I4 I5 1_555 1_555
I5 I6 1_555 1_555
I6 I7 1_555 1_555
I7 I8 1_555 1_555
S1 C1 1_555 1_555
S2 C1 1_555 1_555
S3 C2 1_555 1_555
S4 C2 1_555 1_555
S5 C3 1_555 1_555
S6 C4 1_555 1_555
S7 C5 1_555 1_555
S8 C6 1_555 1_555
C1 C2 1_555 1_555
C3 S1 1_555 1_555
C4 S2 1_555 1_555
C5 S3 1_555 1_555
C6 S4 1_555 1_555
C7 S5 1_555 1_555
C8 S6 1_555 1_555
C9 S8 1_555 1_555
C10 S7 1_555 1_555
S9 C11 1_555 1_555
S10 C11 1_555 1_555
S11 C12 1_555 1_555
S12 C12 1_555 1_555
S13 C13 1_555 1_555
S14 C14 1_555 1_555
S15 C15 1_555 1_555
S16 C16 1_555 1_555
C11 C12 1_555 1_555
C13 S9 1_555 1_555
C14 S10 1_555 1_555
C15 S11 1_555 1_555
C16 S12 1_555 1_555
C17 S13 1_555 1_555
C18 S14 1_555 1_555
C19 S15 1_555 1_555
C20 S16 1_555 1_555
C3 C4 1_555 1_555
C5 C6 1_555 1_555
C7 C8 1_555 1_555
C9 C10 1_555 1_555
C13 C14 1_555 1_555
C15 C16 1_555 1_555
C17 C18 1_555 1_555
C19 C20 1_555 1_555

#END
