
#######################################################################
#
#                 Cambridge Crystallographic Data Centre
#                                CCDC 
#
#######################################################################
#
# If this CIF has been generated from an entry in the Cambridge 
# Structural Database, then it will include bibliographic, chemical, 
# crystal, experimental, refinement or atomic coordinate data resulting 
# from the CCDC's data processing and validation procedures.
#
#######################################################################

data_FIVMIG
_chemical_formula_moiety         'C25 H42 O5,C1 H4 O1'
_chemical_name_systematic        'Methyl cholate methanol clathrate'
_symmetry_cell_setting           monoclinic
_symmetry_space_group_name_H-M   'C 2'
_symmetry_Int_Tables_number      5
_space_group_name_Hall           'C 2y'
loop_
_symmetry_equiv_pos_site_id
_symmetry_equiv_pos_as_xyz
1 x,y,z
2 1/2+x,1/2+y,z
3 -x,y,-z
4 1/2-x,1/2+y,-z
_cell_length_a                   25.184(3)
_cell_length_b                   7.797(1)
_cell_length_c                   15.174(3)
_cell_angle_alpha                90
_cell_angle_beta                 121.05(1)
_cell_angle_gamma                90
_cell_volume                     2552.64
_cell_formula_units_Z            4
loop_
_atom_site_label
_atom_site_type_symbol
_atom_site_fract_x
_atom_site_fract_y
_atom_site_fract_z
C1 C 0.15140(12) -0.2027(4) 0.09727(19)
C2 C 0.08563(12) -0.1909(4) 0.00334(19)
C3 C 0.07803(12) -0.0204(5) -0.04903(18)
C4 C 0.08999(12) 0.1260(4) 0.02383(18)
C5 C 0.15487(12) 0.1163(4) 0.12137(18)
C6 C 0.16526(12) 0.2697(4) 0.19243(19)
C7 C 0.13430(12) 0.2523(4) 0.25603(18)
C8 C 0.14933(11) 0.0797(4) 0.31105(17)
C9 C 0.13264(11) -0.0710(4) 0.23492(17)
C10 C 0.16922(11) -0.0586(4) 0.17736(17)
C11 C 0.13777(12) -0.2470(14) 0.28521(19)
C12 C 0.10876(11) -0.2555(4) 0.35298(18)
C13 C 0.13400(10) -0.1122(4) 0.43398(16)
C14 C 0.11897(11) 0.0592(4) 0.37539(18)
C15 C 0.13318(14) 0.1936(4) 0.4568(2)
C16 C 0.11498(14) 0.1075(5) 0.5294(3)
C17 C 0.10205(11) -0.0847(4) 0.49764(17)
C18 C 0.20432(12) -0.1373(5) 0.50749(19)
C19 C 0.23981(12) -0.0748(5) 0.2533(2)
C20 C 0.12081(11) -0.2036(4) 0.59090(18)
C21 C 0.10718(15) -0.3927(5) 0.5594(3)
C22 C 0.08725(13) -0.1519(5) 0.6483(3)
C23 C 0.12247(15) -0.2138(5) 0.7603(3)
C24 C 0.17686(15) -0.1035(5) 0.8288(3)
O1 O 0.01663(8) 0.0042(4) -0.13599(13)
O2 O 0.04208(8) -0.2398(3) 0.29005(13)
O3 O 0.18365(15) 0.0439(5) 0.8142(2)
O4 O 0.21809(11) -0.1864(4) 0.91374(16)
C25 C 0.27090(17) -0.0908(6) 0.9888(3)
O5 O 0.06822(9) 0.2827(3) 0.19473(14)
H1 H 0.1813(13) -0.202(5) 0.076(3)
H2 H 0.1551(14) -0.319(5) 0.122(3)
H3 H 0.0526(14) -0.200(5) 0.025(3)
H4 H 0.0792(13) -0.291(5) -0.040(3)
H5 H 0.1079(14) -0.014(5) -0.077(3)
H6 H 0.0551(13) 0.117(5) 0.041(3)
H7 H 0.0872(13) 0.240(5) -0.011(2)
H8 H 0.1849(12) 0.130(4) 0.0943(19)
H9 H 0.1503(14) 0.375(5) 0.150(3)
H10 H 0.2116(14) 0.287(6) 0.238(3)
H11 H 0.1495(15) 0.353(6) 0.305(3)
H12 H 0.1958(12) 0.085(4) 0.3586(18)
H13 H 0.0877(11) -0.061(4) 0.1815(17)
H14 H 0.1830(12) -0.282(5) 0.330(2)
H15 H 0.1162(13) -0.338(5) 0.227(3)
H16 H 0.1191(12) -0.380(5) 0.387(2)
H17 H 0.0754(13) 0.065(5) 0.326(2)
H18 H 0.1111(16) 0.301(7) 0.422(3)
H19 H 0.1805(14) 0.226(5) 0.494(3)
H20 H 0.0737(15) 0.164(5) 0.518(3)
H21 H 0.1498(15) 0.117(6) 0.604(3)
H22 H 0.0565(12) -0.099(5) 0.4493(19)
H23 H 0.2199(16) -0.050(6) 0.567(3)
H24 H 0.2292(12) -0.119(5) 0.478(2)
H25 H 0.2146(14) -0.255(5) 0.538(3)
H26 H 0.2495(16) -0.183(6) 0.286(3)
H27 H 0.2564(15) 0.019(6) 0.309(3)
H28 H 0.2614(13) -0.060(5) 0.212(3)
H29 H 0.1675(13) -0.192(5) 0.640(2)
H30 H 0.1372(15) -0.438(6) 0.541(3)
H31 H 0.0640(16) -0.407(6) 0.501(3)
H32 H 0.1123(13) -0.457(5) 0.616(3)
H33 H 0.0426(16) -0.208(6) 0.611(3)
H34 H 0.0807(15) -0.020(6) 0.644(3)
H35 H 0.1396(15) -0.343(6) 0.766(3)
H36 H 0.0926(15) -0.217(7) 0.789(3)
H37 H 0.0019(15) -0.081(6) -0.181(3)
H38 H 0.0216(17) -0.342(6) 0.267(3)
H39 H 0.2941(17) -0.154(7) 1.047(3)
H40 H 0.259(3) 0.017(8) 1.008(4)
H41 H 0.299(2) -0.050(7) 0.959(3)
H42 H 0.0469(17) 0.200(6) 0.159(3)
C26 C 0.0415(3) 0.3375(7) 0.7294(5)
O6 O 0.00961(14) 0.4462(4) 0.7566(3)
H43 H 0.037(3) 0.224(8) 0.736(4)
H44 H 0.0839(19) 0.353(8) 0.772(3)
H45 H 0.036(3) 0.361(9) 0.659(4)
H46 H -0.020(3) 0.428(9) 0.721(4)
loop_
_geom_bond_atom_site_label_1
_geom_bond_atom_site_label_2
_geom_bond_site_symmetry_1
_geom_bond_site_symmetry_2
C1 C2 1_555 1_555
C2 C3 1_555 1_555
C3 C4 1_555 1_555
C4 C5 1_555 1_555
C5 C6 1_555 1_555
C6 C7 1_555 1_555
C7 C8 1_555 1_555
C8 C9 1_555 1_555
C9 C10 1_555 1_555
C10 C1 1_555 1_555
C11 C9 1_555 1_555
C12 C11 1_555 1_555
C13 C12 1_555 1_555
C14 C8 1_555 1_555
C15 C14 1_555 1_555
C16 C15 1_555 1_555
C17 C13 1_555 1_555
C18 C13 1_555 1_555
C19 C10 1_555 1_555
C20 C17 1_555 1_555
C21 C20 1_555 1_555
C22 C20 1_555 1_555
C23 C22 1_555 1_555
C24 C23 1_555 1_555
O1 C3 1_555 1_555
O2 C12 1_555 1_555
O3 C24 1_555 1_555
O4 C24 1_555 1_555
C25 O4 1_555 1_555
O5 C7 1_555 1_555
H1 C1 1_555 1_555
H2 C1 1_555 1_555
H3 C2 1_555 1_555
H4 C2 1_555 1_555
H5 C3 1_555 1_555
H6 C4 1_555 1_555
H7 C4 1_555 1_555
H8 C5 1_555 1_555
H9 C6 1_555 1_555
H10 C6 1_555 1_555
H11 C7 1_555 1_555
H12 C8 1_555 1_555
H13 C9 1_555 1_555
H14 C11 1_555 1_555
H15 C11 1_555 1_555
H16 C12 1_555 1_555
H17 C14 1_555 1_555
H18 C15 1_555 1_555
H19 C15 1_555 1_555
H20 C16 1_555 1_555
H21 C16 1_555 1_555
H22 C17 1_555 1_555
H23 C18 1_555 1_555
H24 C18 1_555 1_555
H25 C18 1_555 1_555
H26 C19 1_555 1_555
H27 C19 1_555 1_555
H28 C19 1_555 1_555
H29 C20 1_555 1_555
H30 C21 1_555 1_555
H31 C21 1_555 1_555
H32 C21 1_555 1_555
H33 C22 1_555 1_555
H34 C22 1_555 1_555
H35 C23 1_555 1_555
H36 C23 1_555 1_555
H37 O1 1_555 1_555
H38 O2 1_555 1_555
H39 C25 1_555 1_555
H40 C25 1_555 1_555
H41 C25 1_555 1_555
H42 O5 1_555 1_555
C26 O6 1_555 1_555
O6 H46 1_555 1_555
H43 C26 1_555 1_555
H44 C26 1_555 1_555
H45 C26 1_555 1_555
C5 C10 1_555 1_555
C13 C14 1_555 1_555
C16 C17 1_555 1_555

#END
