
#######################################################################
#
#                 Cambridge Crystallographic Data Centre
#                                CCDC 
#
#######################################################################
#
# If this CIF has been generated from an entry in the Cambridge 
# Structural Database, then it will include bibliographic, chemical, 
# crystal, experimental, refinement or atomic coordinate data resulting 
# from the CCDC's data processing and validation procedures.
#
#######################################################################

data_FIVPUV
_chemical_formula_moiety         'C16 H15 N1 O3'
_chemical_name_systematic        3-Phenyl-5-phenoxymethyl-1,3-oxazolidin-2-one
_symmetry_cell_setting           monoclinic
_symmetry_space_group_name_H-M   'P 21/c'
_symmetry_Int_Tables_number      14
_space_group_name_Hall           '-P 2ybc'
loop_
_symmetry_equiv_pos_site_id
_symmetry_equiv_pos_as_xyz
1 x,y,z
2 -x,1/2+y,1/2-z
3 -x,-y,-z
4 x,1/2-y,1/2+z
_cell_length_a                   15.1079(9)
_cell_length_b                   14.763(1)
_cell_length_c                   6.1271(4)
_cell_angle_alpha                90
_cell_angle_beta                 94.628(5)
_cell_angle_gamma                90
_cell_volume                     1362.12
_exptl_crystal_colour            colorless
_chemical_melting_point          134.5-135.5deg.C
_cell_formula_units_Z            4
loop_
_atom_site_label
_atom_site_type_symbol
_atom_site_fract_x
_atom_site_fract_y
_atom_site_fract_z
O1 O 0.1565(3) 0.6908(3) 0.2297(7)
O2 O 0.0686(2) 0.6330(3) 0.4750(7)
C1 C 0.1501(4) 0.6515(5) 0.4005(10)
N1 N 0.2162(3) 0.6182(3) 0.5469(8)
C2 C 0.1776(4) 0.5868(5) 0.7457(10)
C3 C 0.0800(4) 0.5772(5) 0.6729(10)
C4 C 0.3079(4) 0.6239(4) 0.5286(10)
C5 C 0.3427(4) 0.6557(5) 0.3384(10)
C6 C 0.4340(4) 0.6564(6) 0.3303(12)
C7 C 0.4885(4) 0.6293(6) 0.5022(14)
C8 C 0.4540(4) 0.5989(6) 0.6879(12)
C9 C 0.3639(3) 0.5962(5) 0.7014(10)
C10 C 0.0203(3) 0.6098(4) 0.8358(9)
O3 O -0.0675(2) 0.5847(3) 0.7561(6)
C11 C -0.1347(3) 0.6073(4) 0.8826(9)
C12 C -0.2200(3) 0.5855(4) 0.7966(10)
C13 C -0.2921(4) 0.6057(5) 0.9128(11)
C14 C -0.2801(4) 0.6475(5) 1.1134(11)
C15 C -0.1957(4) 0.6662(4) 1.2009(10)
C16 C -0.1212(4) 0.6480(4) 1.0913(10)
loop_
_geom_bond_atom_site_label_1
_geom_bond_atom_site_label_2
_geom_bond_site_symmetry_1
_geom_bond_site_symmetry_2
O1 C1 1_555 1_555
O2 C1 1_555 1_555
C1 N1 1_555 1_555
N1 C2 1_555 1_555
C2 C3 1_555 1_555
C3 O2 1_555 1_555
C4 N1 1_555 1_555
C5 C4 1_555 1_555
C6 C5 1_555 1_555
C7 C6 1_555 1_555
C8 C7 1_555 1_555
C9 C4 1_555 1_555
C10 C3 1_555 1_555
O3 C10 1_555 1_555
C11 O3 1_555 1_555
C12 C11 1_555 1_555
C13 C12 1_555 1_555
C14 C13 1_555 1_555
C15 C14 1_555 1_555
C16 C11 1_555 1_555
C8 C9 1_555 1_555
C15 C16 1_555 1_555

#END
