
#######################################################################
#
#                 Cambridge Crystallographic Data Centre
#                                CCDC 
#
#######################################################################
#
# If this CIF has been generated from an entry in the Cambridge 
# Structural Database, then it will include bibliographic, chemical, 
# crystal, experimental, refinement or atomic coordinate data resulting 
# from the CCDC's data processing and validation procedures.
#
#######################################################################

data_FIVQUX
_chemical_formula_moiety         'C38 H52 N2 O8 S2,C1 H4 O1'
_chemical_name_systematic        
"(R)-3,3'-bis((1S)-10-Camphorsulfonamido)-2,2',6,6'-tetramethyl-4,4'-dimethoxybiphenyl methanol solvate"
_symmetry_cell_setting           monoclinic
_symmetry_space_group_name_H-M   'P 21'
_symmetry_Int_Tables_number      4
_space_group_name_Hall           'P 2yb'
loop_
_symmetry_equiv_pos_site_id
_symmetry_equiv_pos_as_xyz
1 x,y,z
2 -x,1/2+y,-z
_cell_length_a                   15.267(3)
_cell_length_b                   8.7932(15)
_cell_length_c                   16.438(3)
_cell_angle_alpha                90
_cell_angle_beta                 114.405(3)
_cell_angle_gamma                90
_cell_volume                     2009.56
_exptl_crystal_colour            colorless
_exptl_crystal_description       block
_chemical_melting_point          165-170deg.C
_cell_formula_units_Z            2
loop_
_atom_site_label
_atom_site_type_symbol
_atom_site_fract_x
_atom_site_fract_y
_atom_site_fract_z
S1 S 0.82902(5) 0.31921(10) 0.02202(5)
S2 S 0.69616(7) 0.50914(11) 0.45528(6)
O1 O 0.66638(15) 0.5403(3) -0.12734(14)
O2 O 0.91904(18) 0.2735(3) 0.08888(16)
O3 O 0.74257(18) 0.2558(3) 0.02002(18)
O4 O 0.98804(18) 0.1644(3) -0.1194(2)
O5 O 0.66027(19) 0.9105(3) 0.43160(16)
O6 O 0.6568(2) 0.4400(4) 0.51004(19)
O7 O 0.7305(2) 0.4174(3) 0.40371(17)
O8 O 0.7965(5) 0.5815(8) 0.7012(4)
N1 N 0.82147(16) 0.5028(3) 0.02793(16)
H1 H 0.8694 0.5579 0.0313
N2 N 0.61291(18) 0.6205(3) 0.38724(17)
H2 H 0.5566 0.6217 0.3872
C1 C 0.6543(2) 0.6996(4) 0.1052(2)
C2 C 0.5743(2) 0.7191(3) 0.0244(2)
C3 C 0.5775(2) 0.6679(4) -0.0545(2)
H3 H 0.5245 0.6824 -0.1084
C4 C 0.6576(2) 0.5963(3) -0.0539(2)
C5 C 0.7384(2) 0.5750(4) 0.0277(2)
C6 C 0.73662(19) 0.6253(4) 0.1076(2)
C7 C 0.5861(3) 0.5560(6) -0.2113(2)
H4 H 0.6014 0.5121 -0.2573
H5 H 0.5714 0.6619 -0.2238
H6 H 0.5316 0.5046 -0.2093
C8 C 0.8216(2) 0.5967(5) 0.1941(2)
H7 H 0.8712 0.5468 0.1825
H8 H 0.8027 0.5334 0.2315
H9 H 0.8455 0.6918 0.2236
C9 C 0.4836(2) 0.7921(4) 0.0206(2)
H10 H 0.4367 0.7957 -0.0402
H11 H 0.4975 0.8936 0.0440
H12 H 0.4587 0.7338 0.0557
C10 C 0.6535(2) 0.7584(4) 0.1910(2)
C11 C 0.6799(2) 0.9087(4) 0.2158(2)
C12 C 0.6816(2) 0.9626(4) 0.2956(2)
H13 H 0.6976 1.0636 0.3117
C13 C 0.6599(2) 0.8675(3) 0.3511(2)
C14 C 0.6345(2) 0.7167(4) 0.3272(2)
C15 C 0.62851(19) 0.6618(3) 0.2455(2)
C16 C 0.7049(2) 1.0159(4) 0.1567(2)
H14 H 0.6997 0.9632 0.1038
H15 H 0.7696 1.0520 0.1884
H16 H 0.6613 1.1007 0.1404
C17 C 0.5963(2) 0.5014(4) 0.2157(2)
H17 H 0.5969 0.4843 0.1582
H18 H 0.5323 0.4868 0.2116
H19 H 0.6393 0.4311 0.2582
C18 C 0.6924(5) 1.0583(6) 0.4626(3)
H20 H 0.6869 1.0753 0.5180
H21 H 0.6537 1.1313 0.4192
H22 H 0.7584 1.0691 0.4717
C19 C 0.8346(2) 0.2898(4) -0.0820(2)
H23 H 0.7806 0.3425 -0.1273
H24 H 0.8928 0.3376 -0.0797
C20 C 0.8334(2) 0.1272(4) -0.1122(2)
C21 C 0.8519(3) -0.0072(5) -0.0443(3)
H25 H 0.9196 -0.0154 -0.0048
H26 H 0.8152 0.0058 -0.0088
C22 C 0.8169(4) -0.1491(5) -0.1063(3)
H27 H 0.8678 -0.2238 -0.0923
H28 H 0.7618 -0.1962 -0.1014
C23 C 0.7899(3) -0.0824(5) -0.1981(3)
H29 H 0.7482 -0.1486 -0.2466
C24 C 0.8811(3) -0.0389(5) -0.2054(3)
H30 H 0.8695 -0.0110 -0.2661
H31 H 0.9281 -0.1203 -0.1853
C25 C 0.9125(3) 0.0961(4) -0.1435(2)
C26 C 0.7441(2) 0.0710(5) -0.1948(3)
C27 C 0.7235(3) 0.1733(6) -0.2766(3)
H32 H 0.7796 0.1783 -0.2889
H33 H 0.7070 0.2736 -0.2646
H34 H 0.6709 0.1317 -0.3274
C28 C 0.6524(3) 0.0599(6) -0.1788(4)
H35 H 0.6002 0.0261 -0.2325
H36 H 0.6374 0.1581 -0.1624
H37 H 0.6622 -0.0113 -0.1316
C29 C 0.7917(3) 0.6334(5) 0.5219(3)
C30 C 0.8675(6) 0.5175(11) 0.5977(6)
C32 C 0.8740(9) 0.3431(14) 0.5910(7)
C34 C 0.9755(7) 0.2944(12) 0.6557(7)
C36 C 1.0214(4) 0.4867(8) 0.6988(4)
C37 C 0.9620(4) 0.4931(6) 0.7535(3)
H38 H 0.9572 0.3934 0.7766
H39 H 0.9899 0.5634 0.8031
C38 C 0.8647(3) 0.5479(5) 0.6878(3)
C39 C 0.9644(4) 0.5242(11) 0.6102(4)
C40 C 0.9999(4) 0.5301(8) 0.5385(4)
H40 H 0.9651 0.4579 0.4927
H41 H 1.0672 0.5058 0.5632
H42 H 0.9903 0.6305 0.5133
C41 C 0.9942(11) 0.741(3) 0.6547(13)
O10 O 0.5030(3) 0.2490(5) 0.5170(3)
C43 C 0.4412(5) 0.2682(12) 0.4246(4)
O9? O 0.9297(4) 0.8684(7) 0.6158(4)
C31? C 0.8821(7) 0.6025(11) 0.6009(6)
C33? C 0.9519(9) 0.7409(16) 0.6353(8)
C35? C 1.0515(8) 0.6853(12) 0.6980(7)
C42? C 0.9133(13) 0.3121(14) 0.5851(13)
loop_
_geom_bond_atom_site_label_1
_geom_bond_atom_site_label_2
_geom_bond_site_symmetry_1
_geom_bond_site_symmetry_2
S1 O2 1_555 1_555
S2 O6 1_555 1_555
O1 C4 1_555 1_555
O3 S1 1_555 1_555
O4 C25 1_555 1_555
O5 C13 1_555 1_555
O7 S2 1_555 1_555
O8 C38 1_555 1_555
O10 C43 1_555 1_555
N1 S1 1_555 1_555
H1 N1 1_555 1_555
N2 S2 1_555 1_555
H2 N2 1_555 1_555
C1 C2 1_555 1_555
C2 C3 1_555 1_555
C3 H3 1_555 1_555
C4 C3 1_555 1_555
C5 N1 1_555 1_555
C6 C1 1_555 1_555
C7 O1 1_555 1_555
H4 C7 1_555 1_555
H5 C7 1_555 1_555
H6 C7 1_555 1_555
C8 C6 1_555 1_555
H7 C8 1_555 1_555
H8 C8 1_555 1_555
H9 C8 1_555 1_555
C9 C2 1_555 1_555
H10 C9 1_555 1_555
H11 C9 1_555 1_555
H12 C9 1_555 1_555
C10 C1 1_555 1_555
C11 C10 1_555 1_555
C12 C11 1_555 1_555
H13 C12 1_555 1_555
C13 C12 1_555 1_555
C14 N2 1_555 1_555
C15 C10 1_555 1_555
C16 C11 1_555 1_555
H14 C16 1_555 1_555
H15 C16 1_555 1_555
H16 C16 1_555 1_555
C17 C15 1_555 1_555
H17 C17 1_555 1_555
H18 C17 1_555 1_555
H19 C17 1_555 1_555
C18 O5 1_555 1_555
H20 C18 1_555 1_555
H21 C18 1_555 1_555
H22 C18 1_555 1_555
C19 S1 1_555 1_555
H23 C19 1_555 1_555
H24 C19 1_555 1_555
C20 C19 1_555 1_555
C21 C20 1_555 1_555
H25 C21 1_555 1_555
H26 C21 1_555 1_555
C22 C21 1_555 1_555
H27 C22 1_555 1_555
H28 C22 1_555 1_555
C23 C22 1_555 1_555
H29 C23 1_555 1_555
C24 C23 1_555 1_555
H30 C24 1_555 1_555
H31 C24 1_555 1_555
C25 C20 1_555 1_555
C26 C20 1_555 1_555
C27 C26 1_555 1_555
H32 C27 1_555 1_555
H33 C27 1_555 1_555
H34 C27 1_555 1_555
C28 C26 1_555 1_555
H35 C28 1_555 1_555
H36 C28 1_555 1_555
H37 C28 1_555 1_555
C29 S2 1_555 1_555
C30 C29 1_555 1_555
C32 C30 1_555 1_555
C34 C32 1_555 1_555
C36 C34 1_555 1_555
C37 C36 1_555 1_555
H38 C37 1_555 1_555
H39 C37 1_555 1_555
C38 C30 1_555 1_555
C39 C30 1_555 1_555
C40 C39 1_555 1_555
H40 C40 1_555 1_555
H41 C40 1_555 1_555
H42 C40 1_555 1_555
C41 C39 1_555 1_555
C4 C5 1_555 1_555
C5 C6 1_555 1_555
C13 C14 1_555 1_555
C14 C15 1_555 1_555
C23 C26 1_555 1_555
C24 C25 1_555 1_555
C36 C39 1_555 1_555
C37 C38 1_555 1_555

#END
