
#######################################################################
#
#                 Cambridge Crystallographic Data Centre
#                                CCDC 
#
#######################################################################
#
# If this CIF has been generated from an entry in the Cambridge 
# Structural Database, then it will include bibliographic, chemical, 
# crystal, experimental, refinement or atomic coordinate data resulting 
# from the CCDC's data processing and validation procedures.
#
#######################################################################

data_FIVQIN
_chemical_formula_moiety         'C25 H21 Cl1 N2 O3'
_chemical_name_systematic        
'benzyl 1-(benzenecarbonyl)-3-(4-chlorophenyl)-5-methyl-4,5-dihydro-1H-pyrazole-5-carboxylate'
_symmetry_cell_setting           triclinic
_symmetry_space_group_name_H-M   'P -1'
_symmetry_Int_Tables_number      2
_space_group_name_Hall           '-P 1'
loop_
_symmetry_equiv_pos_site_id
_symmetry_equiv_pos_as_xyz
1 x,y,z
2 -x,-y,-z
_cell_length_a                   6.3041(16)
_cell_length_b                   12.0699(17)
_cell_length_c                   14.252(3)
_cell_angle_alpha                88.684(12)
_cell_angle_beta                 79.885(12)
_cell_angle_gamma                89.121(14)
_cell_volume                     1067.23
_exptl_crystal_colour            colorless
_exptl_crystal_description       rod
_cell_formula_units_Z            2
loop_
_atom_site_label
_atom_site_type_symbol
_atom_site_fract_x
_atom_site_fract_y
_atom_site_fract_z
Cl1 Cl 1.23265(14) 0.49591(8) 0.88398(6)
O1 O 0.4556(3) 0.73092(16) 0.32404(13)
O2 O 0.1768(3) 0.85488(17) 0.49596(14)
O3 O 0.3247(3) 0.61016(17) 0.44000(14)
N1 N 0.4308(3) 0.77805(18) 0.56629(14)
N2 N 0.5197(3) 0.74220(17) 0.64412(15)
C1 C -0.1083(6) 0.9963(3) 0.8181(2)
H1 H -0.1878 1.0319 0.8702
C2 C 0.0809(7) 0.9422(4) 0.8256(2)
H2 H 0.1312 0.9425 0.8831
C3 C 0.1987(6) 0.8870(3) 0.7491(2)
H3 H 0.3256 0.8499 0.7562
C4 C 0.1291(4) 0.8866(2) 0.66238(19)
C5 C 0.2441(4) 0.8382(2) 0.57112(18)
C6 C 0.5673(4) 0.7505(2) 0.47363(18)
C7 C 0.4316(4) 0.6899(2) 0.41262(18)
C8 C 0.3283(5) 0.6812(3) 0.2618(2)
H4 H 0.1762 0.6936 0.2859
H5 H 0.3554 0.6019 0.2595
C9 C 0.3871(5) 0.7319(2) 0.1641(2)
C10 C 0.5693(5) 0.7937(3) 0.1359(2)
H6 H 0.6609 0.8066 0.1788
C11 C 0.6173(7) 0.8367(3) 0.0438(2)
H7 H 0.7413 0.8783 0.0255
C12 C 0.4849(8) 0.8190(3) -0.0206(2)
H8 H 0.5179 0.8484 -0.0822
C13 C 1.0726(5) 0.5499(2) 0.8056(2)
C14 C 0.8802(5) 0.6029(3) 0.8411(2)
H9 H 0.8354 0.6098 0.9065
C15 C 0.7563(5) 0.6455(3) 0.7783(2)
H10 H 0.6276 0.6819 0.8019
C16 C 0.8186(4) 0.6354(2) 0.68023(18)
C17 C 1.0121(4) 0.5812(2) 0.6470(2)
H11 H 1.0565 0.5732 0.5817
C18 C 1.1400(5) 0.5388(2) 0.7089(2)
H12 H 1.2700 0.5033 0.6856
C19 C 0.6897(4) 0.6839(2) 0.61364(18)
C20 C -0.1775(5) 0.9968(3) 0.7324(3)
H13 H -0.3048 1.0337 0.7259
C21 C -0.0607(5) 0.9432(3) 0.6557(2)
H14 H -0.1103 0.9449 0.5979
C22 C 0.6725(5) 0.8553(3) 0.4253(2)
H15 H 0.5628 0.9059 0.4112
H16 H 0.7663 0.8361 0.3672
H17 H 0.7544 0.8898 0.4671
C23 C 0.7331(4) 0.6701(2) 0.50739(18)
H18 H 0.7093 0.5944 0.4908
H19 H 0.8794 0.6907 0.4801
C24 C 0.2544(7) 0.7143(3) 0.0985(2)
H20 H 0.1303 0.6727 0.1161
C25 C 0.3049(9) 0.7580(3) 0.0066(3)
H21 H 0.2142 0.7455 -0.0368
loop_
_geom_bond_atom_site_label_1
_geom_bond_atom_site_label_2
_geom_bond_site_symmetry_1
_geom_bond_site_symmetry_2
Cl1 C13 1_555 1_555
O1 C7 1_555 1_555
O2 C5 1_555 1_555
O3 C7 1_555 1_555
N1 N2 1_555 1_555
N2 C19 1_555 1_555
C1 H1 1_555 1_555
C2 C1 1_555 1_555
H2 C2 1_555 1_555
C3 C2 1_555 1_555
H3 C3 1_555 1_555
C4 C3 1_555 1_555
C5 N1 1_555 1_555
C6 N1 1_555 1_555
C7 C6 1_555 1_555
C8 O1 1_555 1_555
H4 C8 1_555 1_555
H5 C8 1_555 1_555
C9 C8 1_555 1_555
C10 C9 1_555 1_555
H6 C10 1_555 1_555
C11 C10 1_555 1_555
H7 C11 1_555 1_555
C12 C11 1_555 1_555
H8 C12 1_555 1_555
C13 C14 1_555 1_555
C14 H9 1_555 1_555
C15 C14 1_555 1_555
H10 C15 1_555 1_555
C16 C15 1_555 1_555
C17 C16 1_555 1_555
H11 C17 1_555 1_555
C18 C13 1_555 1_555
H12 C18 1_555 1_555
C19 C16 1_555 1_555
C20 C1 1_555 1_555
H13 C20 1_555 1_555
C21 C4 1_555 1_555
H14 C21 1_555 1_555
C22 C6 1_555 1_555
H15 C22 1_555 1_555
H16 C22 1_555 1_555
H17 C22 1_555 1_555
C23 C6 1_555 1_555
H18 C23 1_555 1_555
H19 C23 1_555 1_555
C24 C9 1_555 1_555
H20 C24 1_555 1_555
C25 C12 1_555 1_555
H21 C25 1_555 1_555
C4 C5 1_555 1_555
C17 C18 1_555 1_555
C19 C23 1_555 1_555
C20 C21 1_555 1_555
C24 C25 1_555 1_555

#END
