
#######################################################################
#
#                 Cambridge Crystallographic Data Centre
#                                CCDC 
#
#######################################################################
#
# If this CIF has been generated from an entry in the Cambridge 
# Structural Database, then it will include bibliographic, chemical, 
# crystal, experimental, refinement or atomic coordinate data resulting 
# from the CCDC's data processing and validation procedures.
#
#######################################################################

data_FIVQEH
_chemical_formula_moiety         'C24 H24 F2 O2'
_chemical_name_systematic        
(E,E)-1,10-bis(4-Fluorophenyl)-3,8-dimethyldeca-3,7-diene-1,10-dione
_symmetry_cell_setting           monoclinic
_symmetry_space_group_name_H-M   'P 21/c'
_symmetry_Int_Tables_number      14
_space_group_name_Hall           '-P 2ybc'
loop_
_symmetry_equiv_pos_site_id
_symmetry_equiv_pos_as_xyz
1 x,y,z
2 -x,1/2+y,1/2-z
3 -x,-y,-z
4 x,1/2-y,1/2+z
_cell_length_a                   11.0392(5)
_cell_length_b                   11.3620(4)
_cell_length_c                   7.9361(3)
_cell_angle_alpha                90
_cell_angle_beta                 97.423(2)
_cell_angle_gamma                90
_cell_volume                     987.062
_exptl_crystal_colour            colorless
_exptl_crystal_description       chunk
_chemical_melting_point          102-104deg.C
_cell_formula_units_Z            2
loop_
_atom_site_label
_atom_site_type_symbol
_atom_site_fract_x
_atom_site_fract_y
_atom_site_fract_z
F1 F 0.0435(1) 0.3745(2) 0.0549(2)
O1 O 0.5617(2) 0.2631(3) 0.4446(3)
C1 C 0.1616(2) 0.3697(2) 0.1286(3)
C2 C 0.1991(2) 0.2742(2) 0.2273(3)
C3 C 0.3199(2) 0.2691(2) 0.2983(3)
C4 C 0.4015(2) 0.3579(2) 0.2714(3)
C5 C 0.3585(2) 0.4551(2) 0.1741(3)
C6 C 0.2377(2) 0.4612(2) 0.1010(3)
C7 C 0.5325(2) 0.3436(2) 0.3461(3)
C8 C 0.6258(2) 0.4296(2) 0.2952(3)
C9 C 0.7573(2) 0.3975(2) 0.3517(3)
C10 C 0.8009(3) 0.2864(2) 0.2756(4)
C11 C 0.8269(2) 0.4667(2) 0.4579(3)
C12 C 0.9593(2) 0.4498(2) 0.5248(3)
H1 H 0.1412 0.2118 0.2465
H2 H 0.3495 0.2016 0.3688
H3 H 0.4153 0.5190 0.1570
H4 H 0.2066 0.5288 0.0321
H5 H 0.6105 0.5056 0.3441
H6 H 0.6137 0.4355 0.1722
H7 H 0.7576 0.2756 0.1638
H8 H 0.7860 0.2205 0.3457
H9 H 0.8869 0.2924 0.2685
H10 H 0.7874 0.5370 0.4969
H11 H 0.9682 0.4455 0.6479
H12 H 0.9867 0.3766 0.4797
F1B F 1.9565(1) 0.6255(2) 0.9451(2)
O1B O 1.4383(2) 0.7369(3) 0.5554(3)
C1B C 1.8384(2) 0.6303(2) 0.8714(3)
C2B C 1.8009(2) 0.7258(2) 0.7727(3)
C3B C 1.6801(2) 0.7309(2) 0.7017(3)
C4B C 1.5985(2) 0.6421(2) 0.7286(3)
C5B C 1.6415(2) 0.5449(2) 0.8259(3)
C6B C 1.7623(2) 0.5388(2) 0.8990(3)
C7B C 1.4675(2) 0.6564(2) 0.6539(3)
C8B C 1.3742(2) 0.5704(2) 0.7048(3)
C9B C 1.2427(2) 0.6025(2) 0.6483(3)
C10B C 1.1991(3) 0.7136(2) 0.7244(4)
C11B C 1.1731(2) 0.5333(2) 0.5421(3)
C12B C 1.0407(2) 0.5502(2) 0.4752(3)
H1B H 1.8588 0.7882 0.7535
H2B H 1.6505 0.7984 0.6312
H3B H 1.5847 0.4810 0.8430
H4B H 1.7934 0.4712 0.9679
H5B H 1.3895 0.4944 0.6559
H6B H 1.3863 0.5645 0.8278
H7B H 1.2424 0.7244 0.8362
H8B H 1.2140 0.7795 0.6543
H9B H 1.1131 0.7076 0.7315
H10B H 1.2126 0.4630 0.5031
H11B H 1.0318 0.5545 0.3521
H12B H 1.0133 0.6234 0.5203
loop_
_geom_bond_atom_site_label_1
_geom_bond_atom_site_label_2
_geom_bond_site_symmetry_1
_geom_bond_site_symmetry_2
F1 C1 1_555 1_555
O1 C7 1_555 1_555
C1 C2 1_555 1_555
C2 C3 1_555 1_555
C3 C4 1_555 1_555
C4 C5 1_555 1_555
C5 C6 1_555 1_555
C6 C1 1_555 1_555
C7 C4 1_555 1_555
C8 C7 1_555 1_555
C9 C8 1_555 1_555
C10 C9 1_555 1_555
C11 C9 1_555 1_555
C12 C11 1_555 1_555
H1 C2 1_555 1_555
H2 C3 1_555 1_555
H3 C5 1_555 1_555
H4 C6 1_555 1_555
H5 C8 1_555 1_555
H6 C8 1_555 1_555
H7 C10 1_555 1_555
H8 C10 1_555 1_555
H9 C10 1_555 1_555
H10 C11 1_555 1_555
H11 C12 1_555 1_555
H12 C12 1_555 1_555
F1B C1B 1_555 1_555
O1B C7B 1_555 1_555
C1B C2B 1_555 1_555
C2B C3B 1_555 1_555
C3B C4B 1_555 1_555
C4B C5B 1_555 1_555
C5B C6B 1_555 1_555
C6B C1B 1_555 1_555
C7B C4B 1_555 1_555
C8B C7B 1_555 1_555
C9B C8B 1_555 1_555
C10B C9B 1_555 1_555
C11B C9B 1_555 1_555
C12B C12 1_555 1_555
H1B C2B 1_555 1_555
H2B C3B 1_555 1_555
H3B C5B 1_555 1_555
H4B C6B 1_555 1_555
H5B C8B 1_555 1_555
H6B C8B 1_555 1_555
H7B C10B 1_555 1_555
H8B C10B 1_555 1_555
H9B C10B 1_555 1_555
H10B C11B 1_555 1_555
H11B C12B 1_555 1_555
H12B C12B 1_555 1_555
C11B C12B 1_555 1_555

#END
