
#######################################################################
#
#                 Cambridge Crystallographic Data Centre
#                                CCDC 
#
#######################################################################
#
# If this CIF has been generated from an entry in the Cambridge 
# Structural Database, then it will include bibliographic, chemical, 
# crystal, experimental, refinement or atomic coordinate data resulting 
# from the CCDC's data processing and validation procedures.
#
#######################################################################

data_FIVTOW
_chemical_formula_moiety         'C21 H32 B11 N1 S1'
_chemical_name_systematic        
3-(2-n-butyl-1,2-dicarba-closo-dodecaboran-1-yl)-6,6-dimethyl-6H-5\l^5^,6\l^5^-[1]benzothieno[3',2':3,4][1,2]azaborolo[1,5-a]pyridine
_symmetry_cell_setting           orthorhombic
_symmetry_space_group_name_H-M   'P 21 21 21'
_symmetry_Int_Tables_number      19
_space_group_name_Hall           'P 2ac 2ab'
loop_
_symmetry_equiv_pos_site_id
_symmetry_equiv_pos_as_xyz
1 x,y,z
2 1/2-x,-y,1/2+z
3 -x,1/2+y,1/2-z
4 1/2+x,1/2-y,-z
_cell_length_a                   7.1573(10)
_cell_length_b                   10.8234(16)
_cell_length_c                   34.496(5)
_cell_angle_alpha                90
_cell_angle_beta                 90
_cell_angle_gamma                90
_cell_volume                     2672.28
_exptl_crystal_colour            yellow
_exptl_crystal_description       cubic
_cell_formula_units_Z            4
loop_
_atom_site_label
_atom_site_type_symbol
_atom_site_fract_x
_atom_site_fract_y
_atom_site_fract_z
B1 B 0.6010(8) 0.9604(5) 0.06454(16)
C1 C 0.3928(7) 0.5786(5) 0.14381(12)
C2 C 0.2518(7) 0.6016(5) 0.18331(14)
C3 C 0.4844(7) 0.7617(5) 0.10362(13)
H1 H 0.5742 0.7782 0.1224
C4 C 0.3701(6) 0.6604(5) 0.10866(13)
C5 C 0.2395(7) 0.6361(5) 0.07951(14)
H2 H 0.1622 0.5672 0.0814
C6 C 0.2248(7) 0.7135(4) 0.04800(13)
H3 H 0.1383 0.6970 0.0286
C7 C 0.3398(6) 0.8164(5) 0.04535(13)
C8 C 0.3581(6) 0.9126(5) 0.01663(12)
C9 C 0.5004(7) 0.9929(4) 0.02400(13)
C10 C 0.5189(7) 1.0807(5) -0.00722(12)
C11 C 0.3845(7) 1.0629(5) -0.03675(12)
C12 C 0.3805(8) 1.1381(5) -0.06962(14)
H4 H 0.2908 1.1260 -0.0887
C13 C 0.5108(9) 1.2301(5) -0.07324(14)
H5 H 0.5099 1.2804 -0.0951
C14 C 0.6448(8) 1.2491(5) -0.04455(16)
H6 H 0.7321 1.3120 -0.0475
C15 C 0.6497(8) 1.1760(5) -0.01181(14)
H7 H 0.7396 1.1899 0.0072
C16 C 0.5594(8) 1.0586(5) 0.09902(14)
H8 H 0.4273 1.0725 0.1009
H9 H 0.6213 1.1352 0.0934
H10 H 0.6051 1.0262 0.1231
C17 C 0.8169(7) 0.9181(5) 0.06071(14)
H11 H 0.8927 0.9887 0.0546
H12 H 0.8283 0.8577 0.0405
H13 H 0.8579 0.8830 0.0848
C18 C 0.0974(8) 0.6973(6) 0.17968(17)
H14 H 0.0509 0.6938 0.1533
H15 H -0.0042 0.6716 0.1965
C19 C 0.1383(10) 0.8266(7) 0.1885(2)
H16 H 0.2343 0.8562 0.1709
H17 H 0.1867 0.8325 0.2147
C20 C -0.0364(11) 0.9095(7) 0.1847(2)
H18 H -0.1040 0.8866 0.1614
H19 H -0.1180 0.8946 0.2067
C21 C 0.0081(15) 1.0412(8) 0.1830(3)
H20 H 0.0944 1.0560 0.1622
H21 H 0.0635 1.0665 0.2071
H22 H -0.1042 1.0876 0.1786
N1 N 0.4727(5) 0.8369(4) 0.07328(10)
S1 S 0.23579(18) 0.93796(13) -0.02662(4)
B2 B 0.4860(8) 0.6452(6) 0.18512(16)
H23 H 0.5334 0.7417 0.1868
B3 B 0.3735(10) 0.5709(8) 0.22500(19)
H24 H 0.3490 0.6185 0.2527
B4 B 0.2111(10) 0.4628(7) 0.20546(19)
H25 H 0.0808 0.4397 0.2207
B5 B 0.2186(10) 0.4722(6) 0.15451(19)
H26 H 0.0935 0.4581 0.1365
B6 B 0.4452(9) 0.4252(7) 0.1392(2)
H27 H 0.4677 0.3785 0.1112
B7 B 0.6089(9) 0.5331(6) 0.15807(19)
H28 H 0.7379 0.5567 0.1424
B8 B 0.5994(10) 0.5246(7) 0.2094(2)
H29 H 0.7238 0.5414 0.2273
B9 B 0.4299(11) 0.4131(8) 0.2222(2)
H30 H 0.4438 0.3573 0.2487
B10 B 0.3339(11) 0.3504(8) 0.1782(2)
H31 H 0.2850 0.2543 0.1759
B11 B 0.5763(11) 0.3877(8) 0.1808(2)
H32 H 0.6848 0.3158 0.1803
loop_
_geom_bond_atom_site_label_1
_geom_bond_atom_site_label_2
_geom_bond_site_symmetry_1
_geom_bond_site_symmetry_2
B1 C9 1_555 1_555
C1 C2 1_555 1_555
C2 C18 1_555 1_555
C3 H1 1_555 1_555
C4 C1 1_555 1_555
C5 C4 1_555 1_555
H2 C5 1_555 1_555
C6 C5 1_555 1_555
H3 C6 1_555 1_555
C7 C6 1_555 1_555
C8 C7 1_555 1_555
C9 C8 1_555 1_555
C10 C9 1_555 1_555
C11 C10 1_555 1_555
C12 C11 1_555 1_555
H4 C12 1_555 1_555
C13 C12 1_555 1_555
H5 C13 1_555 1_555
C14 C13 1_555 1_555
H6 C14 1_555 1_555
C15 C10 1_555 1_555
H7 C15 1_555 1_555
C16 B1 1_555 1_555
H8 C16 1_555 1_555
H9 C16 1_555 1_555
H10 C16 1_555 1_555
C17 B1 1_555 1_555
H11 C17 1_555 1_555
H12 C17 1_555 1_555
H13 C17 1_555 1_555
C18 H14 1_555 1_555
H15 C18 1_555 1_555
C19 C18 1_555 1_555
H16 C19 1_555 1_555
H17 C19 1_555 1_555
C20 C19 1_555 1_555
H18 C20 1_555 1_555
H19 C20 1_555 1_555
C21 C20 1_555 1_555
H20 C21 1_555 1_555
H21 C21 1_555 1_555
H22 C21 1_555 1_555
N1 B1 1_555 1_555
S1 C8 1_555 1_555
B2 C1 1_555 1_555
H23 B2 1_555 1_555
B3 C2 1_555 1_555
H24 B3 1_555 1_555
B4 C2 1_555 1_555
H25 B4 1_555 1_555
B5 C1 1_555 1_555
H26 B5 1_555 1_555
B6 C1 1_555 1_555
H27 B6 1_555 1_555
B7 C1 1_555 1_555
H28 B7 1_555 1_555
B8 B2 1_555 1_555
H29 B8 1_555 1_555
B9 B3 1_555 1_555
H30 B9 1_555 1_555
B10 B4 1_555 1_555
H31 B10 1_555 1_555
B11 B6 1_555 1_555
H32 B11 1_555 1_555
C2 B2 1_555 1_555
C2 B5 1_555 1_555
C3 C4 1_555 1_555
C3 N1 1_555 1_555
C7 N1 1_555 1_555
C11 S1 1_555 1_555
C14 C15 1_555 1_555
B2 B3 1_555 1_555
B2 B7 1_555 1_555
B3 B4 1_555 1_555
B3 B8 1_555 1_555
B4 B5 1_555 1_555
B4 B9 1_555 1_555
B5 B6 1_555 1_555
B5 B10 1_555 1_555
B6 B7 1_555 1_555
B6 B10 1_555 1_555
B7 B8 1_555 1_555
B7 B11 1_555 1_555
B8 B9 1_555 1_555
B8 B11 1_555 1_555
B9 B10 1_555 1_555
B9 B11 1_555 1_555
B10 B11 1_555 1_555

#END
