
#######################################################################
#
#                 Cambridge Crystallographic Data Centre
#                                CCDC 
#
#######################################################################
#
# If this CIF has been generated from an entry in the Cambridge 
# Structural Database, then it will include bibliographic, chemical, 
# crystal, experimental, refinement or atomic coordinate data resulting 
# from the CCDC's data processing and validation procedures.
#
#######################################################################

data_FIVWUF
_chemical_formula_moiety         'C55 H36 N2 O2 S1'
_chemical_name_systematic        
6-(10,10-dioxido-9-phenyl-9H-thioxanthen-9-yl)-9,9'-diphenyl-9H,9'H-3,3'-bicarbazole
_symmetry_cell_setting           triclinic
_symmetry_space_group_name_H-M   'P -1'
_symmetry_Int_Tables_number      2
_space_group_name_Hall           '-P 1'
loop_
_symmetry_equiv_pos_site_id
_symmetry_equiv_pos_as_xyz
1 x,y,z
2 -x,-y,-z
_cell_length_a                   10.2693(9)
_cell_length_b                   13.2993(12)
_cell_length_c                   14.9617(14)
_cell_angle_alpha                92.230(3)
_cell_angle_beta                 108.430(2)
_cell_angle_gamma                90.106(2)
_cell_volume                     1936.9
_exptl_crystal_colour            colorless
_exptl_crystal_description       block
_cell_formula_units_Z            2
_exptl_crystal_recrystallization_method 'Re-crystallisation from solvent'
_exptl_crystal_preparation       Luminescent
loop_
_atom_site_label
_atom_site_type_symbol
_atom_site_fract_x
_atom_site_fract_y
_atom_site_fract_z
S1 S 0.27409(10) 1.09396(5) 0.42059(7)
O1 O 0.3724(4) 1.1477(2) 0.4968(2)
O2 O 0.1578(3) 1.14868(16) 0.3636(2)
N1 N 0.32790(19) 0.48090(13) 0.24294(13)
N2 N 1.1803(2) 0.53537(17) 0.78030(15)
C1 C 0.2759(2) 0.57715(15) 0.24797(15)
C2 C 0.1580(2) 0.62028(17) 0.19019(16)
H1 H 0.0986 0.5840 0.1391
C3 C 0.1312(2) 0.71898(17) 0.21078(16)
H2 H 0.0529 0.7490 0.1721
C4 C 0.2174(2) 0.77498(15) 0.28747(15)
C5 C 0.3346(2) 0.73017(15) 0.34601(15)
H3 H 0.3928 0.7663 0.3978
C6 C 0.3639(2) 0.63141(15) 0.32663(14)
C7 C 0.4748(2) 0.56504(15) 0.37148(14)
C8 C 0.5945(2) 0.57883(15) 0.44680(15)
H4 H 0.6114 0.6400 0.4811
C9 C 0.6895(2) 0.50206(16) 0.47165(15)
C10 C 0.6575(2) 0.40984(17) 0.41925(16)
H5 H 0.7183 0.3570 0.4365
C11 C 0.5399(2) 0.39464(16) 0.34360(16)
H6 H 0.5222 0.3332 0.3099
C12 C 0.4487(2) 0.47303(16) 0.31892(15)
C13 C 0.8204(2) 0.51611(16) 0.55080(15)
C14 C 0.8435(2) 0.60251(18) 0.61054(17)
H7 H 0.7773 0.6522 0.5979
C15 C 0.9602(3) 0.61718(19) 0.68748(18)
H8 H 0.9735 0.6759 0.7253
C16 C 1.0567(2) 0.54185(19) 0.70645(16)
C17 C 1.0415(2) 0.45683(17) 0.64569(16)
C18 C 0.9240(2) 0.44548(17) 0.56745(16)
H9 H 0.9149 0.3901 0.5259
C19 C 1.1627(2) 0.39663(18) 0.68247(16)
C20 C 1.2083(2) 0.30744(18) 0.65170(19)
H10 H 1.1562 0.2743 0.5959
C21 C 1.3318(3) 0.2688(2) 0.7050(2)
H11 H 1.3634 0.2094 0.6848
C22 C 1.4090(3) 0.3178(2) 0.7885(2)
H12 H 1.4908 0.2894 0.8240
C23 C 1.3688(3) 0.4069(2) 0.82049(19)
H13 H 1.4218 0.4393 0.8764
C24 C 1.2450(2) 0.4468(2) 0.76547(17)
C25 C 0.2147(3) 0.98890(18) 0.46319(19)
C26 C 0.1951(3) 0.9998(2) 0.5511(2)
H14 H 0.2202 1.0598 0.5867
C27 C 0.1396(3) 0.9229(2) 0.5851(2)
H15 H 0.1239 0.9307 0.6428
C28 C 0.1067(3) 0.8336(2) 0.53321(18)
H16 H 0.0694 0.7806 0.5563
C29 C 0.1289(2) 0.82203(18) 0.44700(17)
H17 H 0.1077 0.7605 0.4137
C30 C 0.1817(2) 0.89941(16) 0.40863(16)
C31 C 0.1924(2) 0.88717(16) 0.30809(16)
C32 C 0.3106(2) 0.94975(17) 0.29574(18)
C33 C 0.3704(3) 0.9206(2) 0.2274(2)
H18 H 0.3435 0.8598 0.1936
C34 C 0.4680(3) 0.9795(3) 0.2086(3)
H19 H 0.5028 0.9597 0.1605
C35 C 0.5146(3) 1.0676(3) 0.2605(3)
H20 H 0.5823 1.1063 0.2486
C36 C 0.4609(3) 1.0979(2) 0.3298(3)
H21 H 0.4932 1.1563 0.3663
C37 C 0.3572(3) 1.04026(18) 0.3450(2)
C38 C 0.2771(2) 0.40842(16) 0.16777(16)
C39 C 0.2472(3) 0.4370(2) 0.07509(17)
H22 H 0.2600 0.5035 0.0623
C40 C 0.1984(3) 0.3662(2) 0.00255(19)
H23 H 0.1763 0.3855 -0.0595
C41 C 0.1819(3) 0.2675(2) 0.0203(2)
H24 H 0.1497 0.2200 -0.0292
C42 C 0.2131(3) 0.2394(2) 0.1116(2)
H25 H 0.2033 0.1722 0.1238
C43 C 0.2590(3) 0.30930(18) 0.18636(19)
H26 H 0.2774 0.2898 0.2481
C44 C 1.2327(3) 0.6101(2) 0.85276(17)
C45 C 1.1511(3) 0.6478(2) 0.90418(19)
H27 H 1.0626 0.6223 0.8926
C46 C 1.2016(4) 0.7227(3) 0.9722(2)
H28 H 1.1467 0.7485 1.0062
C47 C 1.3324(4) 0.7599(3) 0.9903(2)
H29 H 1.3652 0.8115 1.0358
C48 C 1.4147(4) 0.7212(3) 0.9415(3)
H30 H 1.5042 0.7453 0.9550
C49 C 1.3652(3) 0.6465(3) 0.8722(2)
H31 H 1.4209 0.6208 0.8387
C50 C 0.0550(2) 0.92383(16) 0.23858(17)
C51 C -0.0688(3) 0.8882(2) 0.24255(19)
H32 H -0.0694 0.8424 0.2879
C52 C -0.1919(3) 0.9184(3) 0.1811(2)
H33 H -0.2738 0.8922 0.1851
C53 C -0.1948(3) 0.9853(3) 0.1156(3)
H34 H -0.2780 1.0075 0.0759
C54 C -0.0747(4) 1.0198(4) 0.1081(4)
H35 H -0.0756 1.0647 0.0618
C55 C 0.0503(3) 0.9886(3) 0.1693(3)
H36 H 0.1319 1.0124 0.1628
loop_
_geom_bond_atom_site_label_1
_geom_bond_atom_site_label_2
_geom_bond_site_symmetry_1
_geom_bond_site_symmetry_2
S1 O1 1_555 1_555
O2 S1 1_555 1_555
N1 C1 1_555 1_555
N2 C16 1_555 1_555
C1 C2 1_555 1_555
C2 H1 1_555 1_555
C3 C2 1_555 1_555
H2 C3 1_555 1_555
C4 C3 1_555 1_555
C5 C4 1_555 1_555
H3 C5 1_555 1_555
C6 C1 1_555 1_555
C7 C6 1_555 1_555
C8 C7 1_555 1_555
H4 C8 1_555 1_555
C9 C8 1_555 1_555
C10 C9 1_555 1_555
H5 C10 1_555 1_555
C11 C10 1_555 1_555
H6 C11 1_555 1_555
C12 N1 1_555 1_555
C13 C9 1_555 1_555
C14 C13 1_555 1_555
H7 C14 1_555 1_555
C15 C14 1_555 1_555
H8 C15 1_555 1_555
C16 C15 1_555 1_555
C17 C16 1_555 1_555
C18 C13 1_555 1_555
H9 C18 1_555 1_555
C19 C17 1_555 1_555
C20 C19 1_555 1_555
H10 C20 1_555 1_555
C21 C20 1_555 1_555
H11 C21 1_555 1_555
C22 C21 1_555 1_555
H12 C22 1_555 1_555
C23 C22 1_555 1_555
H13 C23 1_555 1_555
C24 N2 1_555 1_555
C25 S1 1_555 1_555
C26 C25 1_555 1_555
H14 C26 1_555 1_555
C27 C26 1_555 1_555
H15 C27 1_555 1_555
C28 C27 1_555 1_555
H16 C28 1_555 1_555
C29 C28 1_555 1_555
H17 C29 1_555 1_555
C30 C25 1_555 1_555
C31 C4 1_555 1_555
C32 C31 1_555 1_555
C33 C32 1_555 1_555
H18 C33 1_555 1_555
C34 C33 1_555 1_555
H19 C34 1_555 1_555
C35 C34 1_555 1_555
H20 C35 1_555 1_555
C36 C35 1_555 1_555
H21 C36 1_555 1_555
C37 S1 1_555 1_555
C38 N1 1_555 1_555
C39 C38 1_555 1_555
H22 C39 1_555 1_555
C40 C39 1_555 1_555
H23 C40 1_555 1_555
C41 C40 1_555 1_555
H24 C41 1_555 1_555
C42 C41 1_555 1_555
H25 C42 1_555 1_555
C43 C38 1_555 1_555
H26 C43 1_555 1_555
C44 N2 1_555 1_555
C45 C44 1_555 1_555
H27 C45 1_555 1_555
C46 C45 1_555 1_555
H28 C46 1_555 1_555
C47 C46 1_555 1_555
H29 C47 1_555 1_555
C48 C47 1_555 1_555
H30 C48 1_555 1_555
C49 C44 1_555 1_555
H31 C49 1_555 1_555
C50 C31 1_555 1_555
C51 C50 1_555 1_555
H32 C51 1_555 1_555
C52 C51 1_555 1_555
H33 C52 1_555 1_555
C53 C52 1_555 1_555
H34 C53 1_555 1_555
C54 C53 1_555 1_555
H35 C54 1_555 1_555
C55 C50 1_555 1_555
H36 C55 1_555 1_555
C5 C6 1_555 1_555
C7 C12 1_555 1_555
C11 C12 1_555 1_555
C17 C18 1_555 1_555
C19 C24 1_555 1_555
C23 C24 1_555 1_555
C29 C30 1_555 1_555
C30 C31 1_555 1_555
C32 C37 1_555 1_555
C36 C37 1_555 1_555
C42 C43 1_555 1_555
C48 C49 1_555 1_555
C54 C55 1_555 1_555

#END
