
#######################################################################
#
#                 Cambridge Crystallographic Data Centre
#                                CCDC 
#
#######################################################################
#
# If this CIF has been generated from an entry in the Cambridge 
# Structural Database, then it will include bibliographic, chemical, 
# crystal, experimental, refinement or atomic coordinate data resulting 
# from the CCDC's data processing and validation procedures.
#
#######################################################################

data_FIVWEP
_chemical_formula_moiety         'C19 H14 O3 S1'
_chemical_name_systematic        '9-phenyl-9H-thioxanthen-9-ol 10,10-dioxide'
_symmetry_cell_setting           triclinic
_symmetry_space_group_name_H-M   'P -1'
_symmetry_Int_Tables_number      2
_space_group_name_Hall           '-P 1'
loop_
_symmetry_equiv_pos_site_id
_symmetry_equiv_pos_as_xyz
1 x,y,z
2 -x,-y,-z
_cell_length_a                   8.3391(6)
_cell_length_b                   9.5364(7)
_cell_length_c                   9.9499(7)
_cell_angle_alpha                84.656(2)
_cell_angle_beta                 65.996(2)
_cell_angle_gamma                84.870(2)
_cell_volume                     718.537
_exptl_crystal_colour            colorless
_exptl_crystal_description       block
_cell_formula_units_Z            2
loop_
_atom_site_label
_atom_site_type_symbol
_atom_site_fract_x
_atom_site_fract_y
_atom_site_fract_z
S1 S 1.11024(4) 1.00114(3) 0.20930(3)
O1 O 1.13903(12) 0.98737(10) 0.34307(10)
O2 O 1.19379(12) 1.11688(9) 0.10590(10)
O3 O 0.78507(12) 0.69385(9) 0.13680(10)
H1 H 0.7968 0.7463 0.0611
C1 C 1.36425(16) 0.82258(13) 0.04319(14)
H2 H 1.4399 0.8925 0.0407
C2 C 0.60823(16) 0.92884(14) 0.29038(14)
H3 H 0.5402 0.8538 0.2911
C3 C 0.88392(15) 1.01785(13) 0.25064(13)
C4 C 1.18194(16) 0.84259(13) 0.12022(13)
C5 C 0.86041(16) 0.70995(13) 0.47625(14)
H4 H 0.9130 0.7974 0.4628
C6 C 0.74509(17) 0.49981(14) 0.62892(14)
H5 H 0.7189 0.4441 0.7188
C7 C 0.74606(17) 0.53479(13) 0.38453(14)
H6 H 0.7205 0.5020 0.3085
C8 C 1.06669(16) 0.74142(13) 0.12992(13)
C9 C 1.14037(17) 0.61764(13) 0.05696(14)
H7 H 1.0657 0.5457 0.0626
C10 C 0.78926(16) 0.90380(13) 0.25139(13)
C11 C 0.80256(17) 1.15188(13) 0.28803(14)
H8 H 0.8699 1.2278 0.2862
C12 C 0.52664(17) 1.06083(14) 0.32794(14)
H9 H 0.4037 1.0752 0.3542
C13 C 1.43314(17) 0.70011(14) -0.02927(14)
H10 H 1.5564 0.6856 -0.0827
C14 C 0.82234(15) 0.66392(12) 0.36367(13)
C15 C 0.86683(16) 0.75327(12) 0.21774(13)
C16 C 1.32009(17) 0.59805(14) -0.02326(14)
H11 H 1.3666 0.5146 -0.0744
C17 C 0.62327(17) 1.17264(13) 0.32760(14)
H12 H 0.5663 1.2628 0.3544
C18 C 0.82177(16) 0.62846(14) 0.60776(14)
H13 H 0.8478 0.6607 0.6838
C19 C 0.70737(18) 0.45398(14) 0.51692(15)
H14 H 0.6546 0.3666 0.5308
loop_
_geom_bond_atom_site_label_1
_geom_bond_atom_site_label_2
_geom_bond_site_symmetry_1
_geom_bond_site_symmetry_2
S1 O1 1_555 1_555
O2 S1 1_555 1_555
O3 H1 1_555 1_555
C1 H2 1_555 1_555
C2 H3 1_555 1_555
C3 S1 1_555 1_555
C4 S1 1_555 1_555
C5 H4 1_555 1_555
C6 H5 1_555 1_555
C7 H6 1_555 1_555
C8 C4 1_555 1_555
C9 C8 1_555 1_555
H7 C9 1_555 1_555
C10 C2 1_555 1_555
C11 C3 1_555 1_555
H8 C11 1_555 1_555
C12 C2 1_555 1_555
H9 C12 1_555 1_555
C13 C1 1_555 1_555
H10 C13 1_555 1_555
C14 C5 1_555 1_555
C15 O3 1_555 1_555
C16 C9 1_555 1_555
H11 C16 1_555 1_555
C17 C11 1_555 1_555
H12 C17 1_555 1_555
C18 C5 1_555 1_555
H13 C18 1_555 1_555
C19 C6 1_555 1_555
H14 C19 1_555 1_555
C1 C4 1_555 1_555
C3 C10 1_555 1_555
C6 C18 1_555 1_555
C7 C14 1_555 1_555
C7 C19 1_555 1_555
C8 C15 1_555 1_555
C10 C15 1_555 1_555
C12 C17 1_555 1_555
C13 C16 1_555 1_555
C14 C15 1_555 1_555

#END
