
#######################################################################
#
#                 Cambridge Crystallographic Data Centre
#                                CCDC 
#
#######################################################################
#
# If this CIF has been generated from an entry in the Cambridge 
# Structural Database, then it will include bibliographic, chemical, 
# crystal, experimental, refinement or atomic coordinate data resulting 
# from the CCDC's data processing and validation procedures.
#
#######################################################################

data_FIVYOB
_chemical_name_common            PETHOF-2
_chemical_formula_moiety         'C62 H38 O12'
_chemical_name_systematic        
'4-[5,11,12,17,18-pentakis(4-carboxyphenyl)pentacyclo[6.6.6.0^2,7^.0^9,14^.0^15,20^]icosa-2,4,6,9,11,13,15,17,19-nonaen-4-yl]benzoic acid unknown solvate'
_symmetry_cell_setting           orthorhombic
_symmetry_space_group_name_H-M   'P c c n'
_symmetry_Int_Tables_number      56
_space_group_name_Hall           '-P 2ab 2ac'
loop_
_symmetry_equiv_pos_site_id
_symmetry_equiv_pos_as_xyz
1 x,y,z
2 1/2-x,1/2-y,z
3 -x,1/2+y,1/2-z
4 1/2+x,-y,1/2-z
5 -x,-y,-z
6 1/2+x,1/2+y,-z
7 x,1/2-y,1/2+z
8 1/2-x,y,1/2+z
_cell_length_a                   17.6141(15)
_cell_length_b                   33.926(4)
_cell_length_c                   52.276(5)
_cell_angle_alpha                90
_cell_angle_beta                 90
_cell_angle_gamma                90
_cell_volume                     31238.9
_exptl_crystal_colour            colorless
_exptl_crystal_description       block
_cell_formula_units_Z            16
loop_
_atom_site_label
_atom_site_type_symbol
_atom_site_fract_x
_atom_site_fract_y
_atom_site_fract_z
O1 O 0.4488(2) 0.28927(18) 0.20021(9)
O2 O 0.5123(2) 0.23573(19) 0.21093(9)
H1 H 0.541629 0.243552 0.199320
O3 O 0.0049(4) 0.4846(2) 0.46890(15)
H2 H -0.004745 0.503549 0.478697
O4 O 0.0521(4) 0.4577(2) 0.50496(16)
O5 O 0.4348(4) 0.4962(2) 0.47771(16)
O6 O 0.5029(3) 0.4494(2) 0.49502(15)
H3 H 0.513187 0.467641 0.505349
C1 C 0.4644(3) 0.2612(3) 0.21523(12)
C2 C 0.4189(3) 0.2596(2) 0.23915(11)
C3 C 0.3614(4) 0.2872(2) 0.24402(12)
H4 H 0.352570 0.308410 0.232509
C4 C 0.3170(3) 0.2830(2) 0.26627(12)
H5 H 0.274755 0.299964 0.268948
C5 C 0.3346(3) 0.2540(2) 0.28459(11)
C6 C 0.3962(3) 0.2283(2) 0.27972(12)
H6 H 0.410122 0.209588 0.292388
C7 C 0.4363(4) 0.2296(2) 0.25730(12)
H7 H 0.475041 0.210885 0.253916
C8 C 0.2909(3) 0.2527(2) 0.30844(11)
C9 C 0.3297(3) 0.25221(19) 0.33196(11)
H8 H 0.383601 0.252998 0.332146
C10 C 0.2901(3) 0.2506(2) 0.35490(11)
C11 C 0.3233(3) 0.25059(19) 0.38090(10)
H9 H 0.380024 0.251150 0.380861
C12 C 0.2873(3) 0.28610(19) 0.39528(9)
C13 C 0.2093(3) 0.2851(2) 0.39470(12)
C14 C 0.1690(3) 0.3141(2) 0.40826(12)
H10 H 0.115109 0.313223 0.408467
C15 C 0.2062(3) 0.3438(2) 0.42133(13)
C16 C 0.2860(3) 0.3432(2) 0.42194(13)
C17 C 0.3266(3) 0.3150(2) 0.40832(12)
H11 H 0.380533 0.315642 0.407983
C18 C 0.1589(4) 0.3713(2) 0.43704(15)
C19 C 0.1131(4) 0.3992(3) 0.42507(17)
H12 H 0.109393 0.399310 0.406937
C20 C 0.0739(5) 0.4259(3) 0.43870(19)
H13 H 0.039847 0.443473 0.430443
C21 C 0.0839(5) 0.4274(3) 0.4651(2)
C22 C 0.1290(4) 0.4007(3) 0.47808(16)
H14 H 0.133231 0.401971 0.496184
C23 C 0.1682(4) 0.3721(3) 0.46448(15)
H15 H 0.199980 0.353625 0.472938
C24 C 0.0438(4) 0.4577(3) 0.4814(2)
C25 C 0.3294(4) 0.3748(2) 0.43634(14)
C26 C 0.3146(4) 0.4151(2) 0.43273(17)
H16 H 0.278111 0.423669 0.420568
C27 C 0.3550(4) 0.4423(3) 0.44745(17)
H17 H 0.344932 0.469614 0.445351
C28 C 0.4085(4) 0.4307(3) 0.46479(17)
C29 C 0.4265(4) 0.3930(2) 0.46735(16)
H18 H 0.466351 0.385442 0.478572
C30 C 0.3858(3) 0.3636(2) 0.45314(12)
H19 H 0.397723 0.336500 0.455303
C31 C 0.4489(5) 0.4610(3) 0.4796(2)
O1A O 0.0512(2) 0.21073(18) 0.20021(9)
O2A O -0.0123(2) 0.26427(19) 0.21093(9)
H1A H -0.041629 0.256448 0.199320
O3A O 0.4951(4) 0.0154(2) 0.46890(15)
H2A H 0.504745 -0.003549 0.478697
O4A O 0.4479(4) 0.0423(2) 0.50496(16)
O5A O 0.0652(4) 0.0038(2) 0.47771(16)
O6A O -0.0029(3) 0.0506(2) 0.49502(15)
H3A H -0.013187 0.032359 0.505349
C1A C 0.0356(3) 0.2388(3) 0.21523(12)
C2A C 0.0811(3) 0.2404(2) 0.23915(11)
C3A C 0.1386(4) 0.2128(2) 0.24402(12)
H4A H 0.147430 0.191590 0.232509
C4A C 0.1830(3) 0.2170(2) 0.26627(12)
H5A H 0.225245 0.200036 0.268948
C5A C 0.1654(3) 0.2460(2) 0.28459(11)
C6A C 0.1038(3) 0.2717(2) 0.27972(12)
H6A H 0.089878 0.290412 0.292388
C7A C 0.0637(4) 0.2704(2) 0.25730(12)
H7A H 0.024959 0.289115 0.253916
C8A C 0.2091(3) 0.2473(2) 0.30844(11)
C9A C 0.1703(3) 0.24779(19) 0.33196(11)
H8A H 0.116399 0.247002 0.332146
C10A C 0.2099(3) 0.2494(2) 0.35490(11)
C11A C 0.1767(3) 0.24941(19) 0.38090(10)
H9A H 0.119976 0.248850 0.380861
C12A C 0.2127(3) 0.21390(19) 0.39528(9)
C13A C 0.2907(3) 0.2149(2) 0.39470(12)
C14A C 0.3310(3) 0.1859(2) 0.40826(12)
H10A H 0.384891 0.186777 0.408467
C15A C 0.2938(3) 0.1562(2) 0.42133(13)
C16A C 0.2140(3) 0.1568(2) 0.42194(13)
C17A C 0.1734(3) 0.1850(2) 0.40832(12)
H11A H 0.119467 0.184358 0.407983
C18A C 0.3411(4) 0.1287(2) 0.43704(15)
C19A C 0.3869(4) 0.1008(3) 0.42507(17)
H12A H 0.390607 0.100690 0.406937
C20A C 0.4261(5) 0.0741(3) 0.43870(19)
H13A H 0.460153 0.056527 0.430443
C21A C 0.4161(5) 0.0726(3) 0.4651(2)
C22A C 0.3710(4) 0.0993(3) 0.47808(16)
H14A H 0.366769 0.098029 0.496184
C23A C 0.3318(4) 0.1279(3) 0.46448(15)
H15A H 0.300020 0.146375 0.472938
C24A C 0.4562(4) 0.0423(3) 0.4814(2)
C25A C 0.1706(4) 0.1252(2) 0.43634(14)
C26A C 0.1854(4) 0.0849(2) 0.43273(17)
H16A H 0.221889 0.076331 0.420568
C27A C 0.1450(4) 0.0577(3) 0.44745(17)
H17A H 0.155068 0.030386 0.445351
C28A C 0.0915(4) 0.0693(3) 0.46479(17)
C29A C 0.0735(4) 0.1070(2) 0.46735(16)
H18A H 0.033649 0.114558 0.478572
C30A C 0.1142(3) 0.1364(2) 0.45314(12)
H19A H 0.102277 0.163500 0.455303
C31A C 0.0511(5) 0.0390(3) 0.4796(2)
O7 O 0.4892(2) 0.23764(16) 0.91722(9)
O8 O 0.5445(3) 0.29359(17) 0.92743(11)
H20 H 0.533894 0.286393 0.942384
O9 O 0.9973(5) 0.4407(3) 0.62265(18)
O10 O 1.0571(6) 0.4610(4) 0.6589(2)
H21 H 1.081294 0.475421 0.648638
O11 O 0.5635(6) 0.4528(3) 0.6262(2)
O12 O 0.6341(6) 0.5001(3) 0.6458(3)
H22 H 0.673167 0.505563 0.637378
C32 C 0.5344(3) 0.2648(2) 0.91200(14)
C33 C 0.5806(4) 0.2620(2) 0.88834(14)
C34 C 0.5600(4) 0.2361(2) 0.87054(13)
H23 H 0.516652 0.219930 0.873073
C35 C 0.6023(4) 0.2328(3) 0.84827(15)
H24 H 0.588293 0.214137 0.835582
C36 C 0.6652(5) 0.2568(3) 0.84450(16)
C37 C 0.6847(5) 0.2814(3) 0.86301(17)
H25 H 0.729623 0.296594 0.861165
C38 C 0.6419(4) 0.2856(3) 0.88484(15)
H26 H 0.655108 0.304808 0.897303
C39 C 0.7099(4) 0.2534(2) 0.81942(14)
C40 C 0.6723(4) 0.2555(2) 0.79671(15)
H27 H 0.618587 0.258298 0.796767
C41 C 0.7094(4) 0.25378(19) 0.77399(13)
C42 C 0.6758(3) 0.2553(2) 0.74747(13)
H28 H 0.619587 0.259530 0.747190
C43 C 0.7217(4) 0.2879(2) 0.73360(14)
C44 C 0.7991(3) 0.2809(2) 0.73402(13)
C45 C 0.8471(4) 0.3078(3) 0.72092(13)
H29 H 0.900684 0.305646 0.722224
C46 C 0.8150(4) 0.3369(3) 0.70643(16)
C47 C 0.7338(4) 0.3424(3) 0.70542(16)
C48 C 0.6888(4) 0.3181(3) 0.71915(17)
H30 H 0.635257 0.321457 0.719007
C49 C 0.8688(4) 0.3627(2) 0.69056(11)
C50 C 0.8605(3) 0.3639(2) 0.66413(12)
H31 H 0.822893 0.348248 0.656015
C51 C 0.9074(3) 0.3881(2) 0.64958(10)
H32 H 0.901726 0.388955 0.631516
C52 C 0.9625(4) 0.4110(2) 0.66146(13)
C53 C 0.9707(4) 0.4098(3) 0.68789(13)
H33 H 1.008351 0.425452 0.696008
C54 C 0.9239(4) 0.3856(3) 0.70244(10)
H34 H 0.929519 0.384744 0.720508
C55 C 1.0070(6) 0.4400(4) 0.6461(3)
C56 C 0.6999(3) 0.37479(16) 0.69163(12)
C57 C 0.7237(4) 0.41359(18) 0.69466(15)
H35 H 0.759703 0.420048 0.707524
C58 C 0.6948(5) 0.44292(14) 0.67886(19)
H36 H 0.711015 0.469437 0.680932
C59 C 0.6421(4) 0.43347(17) 0.66004(17)
C60 C 0.6184(4) 0.39468(19) 0.65701(13)
H37 H 0.582352 0.388218 0.644144
C61 C 0.6473(3) 0.36534(14) 0.67281(13)
H38 H 0.631039 0.338828 0.670737
C62 C 0.6150(7) 0.4627(4) 0.6417(3)
O7A O 1.0108(2) 0.26236(16) 0.91722(9)
O8A O 0.9555(3) 0.20641(17) 0.92743(11)
H20A H 0.966106 0.213607 0.942384
O9A O 0.5027(5) 0.0593(3) 0.62265(18)
O10A O 0.4429(6) 0.0390(4) 0.6589(2)
H21A H 0.418706 0.024579 0.648638
O11A O 0.9365(6) 0.0472(3) 0.6262(2)
O12A O 0.8659(6) -0.0001(3) 0.6458(3)
H22A H 0.826833 -0.005563 0.637378
C32A C 0.9656(3) 0.2352(2) 0.91200(14)
C33A C 0.9194(4) 0.2380(2) 0.88834(14)
C34A C 0.9400(4) 0.2639(2) 0.87054(13)
H23A H 0.983348 0.280070 0.873073
C35A C 0.8977(4) 0.2672(3) 0.84827(15)
H24A H 0.911707 0.285863 0.835582
C36A C 0.8348(5) 0.2432(3) 0.84450(16)
C37A C 0.8153(5) 0.2186(3) 0.86301(17)
H25A H 0.770377 0.203406 0.861165
C38A C 0.8581(4) 0.2144(3) 0.88484(15)
H26A H 0.844892 0.195192 0.897303
C39A C 0.7901(4) 0.2466(2) 0.81942(14)
C40A C 0.8277(4) 0.2445(2) 0.79671(15)
H27A H 0.881413 0.241702 0.796767
C41A C 0.7906(4) 0.24622(19) 0.77399(13)
C42A C 0.8242(3) 0.2447(2) 0.74747(13)
H28A H 0.880413 0.240470 0.747190
C43A C 0.7783(4) 0.2121(2) 0.73360(14)
C44A C 0.7009(3) 0.2191(2) 0.73402(13)
C45A C 0.6529(4) 0.1922(3) 0.72092(13)
H29A H 0.599316 0.194354 0.722224
C46A C 0.6850(4) 0.1631(3) 0.70643(16)
C47A C 0.7662(4) 0.1576(3) 0.70542(16)
C48A C 0.8112(4) 0.1819(3) 0.71915(17)
H30A H 0.864743 0.178543 0.719007
C49A C 0.6312(4) 0.1373(2) 0.69056(11)
C50A C 0.6395(3) 0.1361(2) 0.66413(12)
H31A H 0.677107 0.151752 0.656015
C51A C 0.5926(3) 0.1119(2) 0.64958(10)
H32A H 0.598274 0.111045 0.631516
C52A C 0.5375(4) 0.0890(2) 0.66146(13)
C53A C 0.5293(4) 0.0902(3) 0.68789(13)
H33A H 0.491649 0.074548 0.696008
C54A C 0.5761(4) 0.1144(3) 0.70244(10)
H34A H 0.570481 0.115256 0.720508
C55A C 0.4930(6) 0.0600(4) 0.6461(3)
C56A C 0.8001(3) 0.12521(16) 0.69163(12)
C57A C 0.7763(4) 0.08641(18) 0.69466(15)
H35A H 0.740297 0.079952 0.707524
C58A C 0.8052(5) 0.05708(14) 0.67886(19)
H36A H 0.788985 0.030563 0.680932
C59A C 0.8579(4) 0.06653(17) 0.66004(17)
C60A C 0.8816(4) 0.10532(19) 0.65701(13)
H37A H 0.917648 0.111782 0.644144
C61A C 0.8527(3) 0.13466(14) 0.67281(13)
H38A H 0.868961 0.161172 0.670737
C62A C 0.8850(7) 0.0373(4) 0.6417(3)
O13 O 0.4294(4) 0.7313(2) 0.33477(10)
O14 O 0.4857(3) 0.78703(18) 0.34510(10)
H39 H 0.511140 0.781432 0.332001
O15 O 0.0685(6) 0.4970(3) 0.59714(18)
H40 H 0.069359 0.474157 0.603401
O16 O 0.1261(5) 0.5151(4) 0.63318(18)
O17 O 0.5205(5) 0.5113(2) 0.5970(2)
O18 O 0.5690(4) 0.5574(2) 0.62157(17)
H41 H 0.582320 0.537043 0.629517
C63 C 0.4447(4) 0.7584(3) 0.35100(13)
C64 C 0.4089(4) 0.7566(3) 0.37634(13)
C65 C 0.3623(5) 0.7246(3) 0.38220(14)
H42 H 0.356442 0.703374 0.370493
C66 C 0.3243(4) 0.7244(3) 0.40570(13)
H43 H 0.291245 0.703171 0.409744
C67 C 0.3340(4) 0.7544(3) 0.42306(13)
C68 C 0.3805(4) 0.7870(3) 0.41676(14)
H44 H 0.386325 0.808509 0.428260
C69 C 0.4178(4) 0.7867(3) 0.39299(14)
H45 H 0.449856 0.808165 0.388520
C70 C 0.2899(4) 0.75493(19) 0.44747(11)
C71 C 0.3273(4) 0.75814(18) 0.47073(12)
H46 H 0.380608 0.762423 0.470972
C72 C 0.2883(3) 0.75521(17) 0.49350(11)
C73 C 0.3220(3) 0.75776(19) 0.52020(11)
H47 H 0.377550 0.763851 0.520486
C74 C 0.3006(3) 0.71877(18) 0.53380(10)
C75 C 0.2271(3) 0.7115(2) 0.53338(10)
C76 C 0.1986(3) 0.6769(2) 0.54547(11)
H48 H 0.145681 0.671347 0.545434
C77 C 0.2495(4) 0.6512(2) 0.55740(12)
C78 C 0.3262(4) 0.6586(2) 0.55731(12)
C79 C 0.3535(3) 0.6943(2) 0.54548(11)
H49 H 0.405891 0.700874 0.545680
C80 C 0.2157(4) 0.6152(2) 0.57114(15)
C81 C 0.1658(4) 0.5894(3) 0.55801(17)
H50 H 0.155067 0.592716 0.540338
C82 C 0.1347(5) 0.5603(3) 0.57142(18)
H51 H 0.100204 0.543375 0.562793
C83 C 0.1481(5) 0.5531(3) 0.59585(19)
C84 C 0.1964(4) 0.5773(3) 0.60952(17)
H52 H 0.206203 0.572238 0.627083
C85 C 0.2310(4) 0.6096(3) 0.59722(16)
H53 H 0.263491 0.627041 0.606283
C86 C 0.1121(6) 0.5188(4) 0.6095(2)
C87 C 0.3836(4) 0.6304(2) 0.56787(13)
C88 C 0.3810(4) 0.5909(2) 0.56088(15)
H54 H 0.346103 0.582328 0.548185
C89 C 0.4287(4) 0.5642(3) 0.57224(17)
H55 H 0.426964 0.537235 0.567332
C90 C 0.4791(5) 0.5762(3) 0.59070(19)
C91 C 0.4815(4) 0.6155(3) 0.59776(17)
H56 H 0.517294 0.623966 0.610189
C92 C 0.4327(5) 0.6422(3) 0.58699(17)
H57 H 0.432656 0.668784 0.592670
C93 C 0.5269(6) 0.5478(3) 0.6029(3)
O13A O 0.0706(4) 0.7687(2) 0.33477(10)
O14A O 0.0143(3) 0.71297(18) 0.34510(10)
H39A H -0.011140 0.718568 0.332001
O15A O 0.4315(6) 1.0030(3) 0.59714(18)
H40A H 0.430641 1.025843 0.603401
O16A O 0.3739(5) 0.9849(4) 0.63318(18)
O17A O -0.0205(5) 0.9887(2) 0.5970(2)
O18A O -0.0690(4) 0.9426(2) 0.62157(17)
H41A H -0.082320 0.962957 0.629517
C63A C 0.0553(4) 0.7416(3) 0.35100(13)
C64A C 0.0911(4) 0.7434(3) 0.37634(13)
C65A C 0.1377(5) 0.7754(3) 0.38220(14)
H42A H 0.143558 0.796626 0.370493
C66A C 0.1757(4) 0.7756(3) 0.40570(13)
H43A H 0.208755 0.796829 0.409744
C67A C 0.1660(4) 0.7456(3) 0.42306(13)
C68A C 0.1195(4) 0.7130(3) 0.41676(14)
H44A H 0.113675 0.691491 0.428260
C69A C 0.0822(4) 0.7133(3) 0.39299(14)
H45A H 0.050144 0.691835 0.388520
C70A C 0.2101(4) 0.74507(19) 0.44747(11)
C71A C 0.1727(4) 0.74186(18) 0.47073(12)
H46A H 0.119392 0.737577 0.470972
C72A C 0.2117(3) 0.74479(17) 0.49350(11)
C73A C 0.1780(3) 0.74224(19) 0.52020(11)
H47A H 0.122450 0.736149 0.520486
C74A C 0.1994(3) 0.78123(18) 0.53380(10)
C75A C 0.2729(3) 0.7885(2) 0.53338(10)
C76A C 0.3014(3) 0.8231(2) 0.54547(11)
H48A H 0.354319 0.828653 0.545434
C77A C 0.2505(4) 0.8488(2) 0.55740(12)
C78A C 0.1738(4) 0.8414(2) 0.55731(12)
C79A C 0.1465(3) 0.8057(2) 0.54548(11)
H49A H 0.094109 0.799126 0.545680
C80A C 0.2843(4) 0.8848(2) 0.57114(15)
C81A C 0.3342(4) 0.9106(3) 0.55801(17)
H50A H 0.344933 0.907284 0.540338
C82A C 0.3653(5) 0.9397(3) 0.57142(18)
H51A H 0.399796 0.956625 0.562793
C83A C 0.3519(5) 0.9469(3) 0.59585(19)
C84A C 0.3036(4) 0.9227(3) 0.60952(17)
H52A H 0.293797 0.927762 0.627083
C85A C 0.2690(4) 0.8904(3) 0.59722(16)
H53A H 0.236509 0.872959 0.606283
C86A C 0.3879(6) 0.9812(4) 0.6095(2)
C87A C 0.1164(4) 0.8696(2) 0.56787(13)
C88A C 0.1190(4) 0.9091(2) 0.56088(15)
H54A H 0.153897 0.917672 0.548185
C89A C 0.0713(4) 0.9358(3) 0.57224(17)
H55A H 0.073036 0.962765 0.567332
C90A C 0.0209(5) 0.9238(3) 0.59070(19)
C91A C 0.0185(4) 0.8845(3) 0.59776(17)
H56A H -0.017294 0.876034 0.610189
C92A C 0.0673(5) 0.8578(3) 0.58699(17)
H57A H 0.067344 0.831216 0.592670
C93A C -0.0269(6) 0.9522(3) 0.6029(3)
O19 O 0.5205(3) 0.79382(18) 0.52713(12)
O20 O 0.5704(4) 0.73668(19) 0.53801(13)
H58 H 0.554482 0.744242 0.552339
O21 O 0.8436(10) 0.5294(5) 0.2314(2)
H59 H 0.867332 0.511169 0.223990
O22 O 0.8548(7) 0.4924(5) 0.2702(2)
O23 O 0.4058(6) 0.5636(4) 0.2582(2)
H60 H 0.361123 0.554887 0.258360
O24 O 0.4339(6) 0.5180(3) 0.2907(3)
C94 C 0.5571(5) 0.7625(3) 0.52171(18)
C95 C 0.5956(6) 0.7608(4) 0.49695(19)
C96 C 0.5858(5) 0.7915(3) 0.47784(18)
H61 H 0.553525 0.813282 0.481234
C97 C 0.6220(5) 0.7890(4) 0.45574(19)
H62 H 0.617183 0.810124 0.443912
C98 C 0.6661(5) 0.7573(4) 0.44915(18)
C99 C 0.6728(6) 0.7248(4) 0.4672(2)
H63 H 0.703289 0.702434 0.463510
C100 C 0.6349(6) 0.7275(4) 0.4890(2)
H64 H 0.634674 0.705184 0.499980
C101 C 0.7111(5) 0.7518(4) 0.42509(17)
C102 C 0.6727(4) 0.7582(4) 0.40158(17)
H65 H 0.620517 0.765301 0.401694
C103 C 0.7106(5) 0.7543(5) 0.37837(18)
C104 C 0.6770(6) 0.7589(4) 0.35190(19)
H66 H 0.621818 0.765881 0.352024
C105 C 0.6937(7) 0.7200(5) 0.3386(2)
C106 C 0.7722(6) 0.7095(4) 0.33904(16)
C107 C 0.7953(6) 0.6786(4) 0.32731(17)
H67 H 0.847302 0.671207 0.327148
C108 C 0.7382(7) 0.6556(4) 0.3144(2)
C109 C 0.6586(7) 0.6672(5) 0.3149(3)
C110 C 0.6338(7) 0.7021(4) 0.3274(2)
H68 H 0.582906 0.711370 0.327885
C111 C 0.7611(6) 0.6226(3) 0.30006(18)
C112 C 0.7491(7) 0.6227(3) 0.27378(19)
H69 H 0.724420 0.644438 0.265903
C113 C 0.7731(7) 0.5910(4) 0.25904(14)
H70 H 0.764838 0.591015 0.241079
C114 C 0.8091(6) 0.5591(3) 0.2706(2)
C115 C 0.8212(6) 0.5591(3) 0.2968(2)
H71 H 0.845816 0.537305 0.304731
C116 C 0.7972(7) 0.5908(4) 0.31159(14)
H72 H 0.805399 0.590727 0.329554
C117 C 0.8369(19) 0.5207(7) 0.2575(3)
C118 C 0.5940(4) 0.6365(3) 0.31061(15)
C119 C 0.5501(4) 0.6466(2) 0.28952(15)
H73 H 0.554180 0.672187 0.282256
C120 C 0.5001(3) 0.6193(3) 0.27905(14)
H74 H 0.470097 0.626207 0.264632
C121 C 0.4941(4) 0.5819(2) 0.28968(19)
C122 C 0.5380(4) 0.5718(2) 0.3108(2)
H75 H 0.533854 0.546175 0.318035
C123 C 0.5879(5) 0.5991(3) 0.32124(16)
H76 H 0.617936 0.592155 0.335660
C124 C 0.4440(11) 0.5506(5) 0.2800(4)
O19A O 0.9795(3) 0.70618(18) 0.52713(12)
O20A O 0.9296(4) 0.76332(19) 0.53801(13)
H58A H 0.945518 0.755758 0.552339
O21A O 0.6564(10) 0.9706(5) 0.2314(2)
H59A H 0.632668 0.988831 0.223990
O22A O 0.6452(7) 1.0076(5) 0.2702(2)
O23A O 1.0942(6) 0.9364(4) 0.2582(2)
H60A H 1.138877 0.945113 0.258360
O24A O 1.0661(6) 0.9820(3) 0.2907(3)
C94A C 0.9429(5) 0.7375(3) 0.52171(18)
C95A C 0.9044(6) 0.7392(4) 0.49695(19)
C96A C 0.9142(5) 0.7085(3) 0.47784(18)
H61A H 0.946475 0.686718 0.481234
C97A C 0.8780(5) 0.7110(4) 0.45574(19)
H62A H 0.882817 0.689876 0.443912
C98A C 0.8339(5) 0.7427(4) 0.44915(18)
C99A C 0.8272(6) 0.7752(4) 0.4672(2)
H63A H 0.796711 0.797566 0.463510
C100A C 0.8651(6) 0.7725(4) 0.4890(2)
H64A H 0.865326 0.794816 0.499980
C101A C 0.7889(5) 0.7482(4) 0.42509(17)
C102A C 0.8273(4) 0.7418(4) 0.40158(17)
H65A H 0.879483 0.734699 0.401694
C103A C 0.7894(5) 0.7457(5) 0.37837(18)
C104A C 0.8230(6) 0.7411(4) 0.35190(19)
H66A H 0.878182 0.734119 0.352024
C105A C 0.8063(7) 0.7800(5) 0.3386(2)
C106A C 0.7278(6) 0.7905(4) 0.33904(16)
C107A C 0.7047(6) 0.8214(4) 0.32731(17)
H67A H 0.652698 0.828793 0.327148
C108A C 0.7618(7) 0.8444(4) 0.3144(2)
C109A C 0.8414(7) 0.8328(5) 0.3149(3)
C110A C 0.8662(7) 0.7979(4) 0.3274(2)
H68A H 0.917094 0.788630 0.327885
C111A C 0.7389(6) 0.8774(3) 0.30006(18)
C112A C 0.7509(7) 0.8773(3) 0.27378(19)
H69A H 0.775580 0.855562 0.265903
C113A C 0.7269(7) 0.9090(4) 0.25904(14)
H70A H 0.735162 0.908985 0.241079
C114A C 0.6909(6) 0.9409(3) 0.2706(2)
C115A C 0.6788(6) 0.9409(3) 0.2968(2)
H71A H 0.654184 0.962695 0.304731
C116A C 0.7028(7) 0.9092(4) 0.31159(14)
H72A H 0.694601 0.909273 0.329554
C117A C 0.6631(19) 0.9793(7) 0.2575(3)
C118A C 0.9060(4) 0.8635(3) 0.31061(15)
C119A C 0.9499(4) 0.8534(2) 0.28952(15)
H73A H 0.945820 0.827813 0.282256
C120A C 0.9999(3) 0.8807(3) 0.27905(14)
H74A H 1.029903 0.873793 0.264632
C121A C 1.0059(4) 0.9181(2) 0.28968(19)
C122A C 0.9620(4) 0.9282(2) 0.3108(2)
H75A H 0.966146 0.953825 0.318035
C123A C 0.9121(5) 0.9009(3) 0.32124(16)
H76A H 0.882064 0.907845 0.335660
C124A C 1.0560(11) 0.9494(5) 0.2800(4)
loop_
_geom_bond_atom_site_label_1
_geom_bond_atom_site_label_2
_geom_bond_site_symmetry_1
_geom_bond_site_symmetry_2
O1 C1 1_555 1_555
O2 H1 1_555 1_555
O3 H2 1_555 1_555
O4 C24 1_555 1_555
O5 C31 1_555 1_555
O6 H3 1_555 1_555
C1 O2 1_555 1_555
C2 C1 1_555 1_555
C3 C2 1_555 1_555
H4 C3 1_555 1_555
C4 C3 1_555 1_555
H5 C4 1_555 1_555
C5 C4 1_555 1_555
C6 C5 1_555 1_555
H6 C6 1_555 1_555
C7 C2 1_555 1_555
H7 C7 1_555 1_555
C8 C5 1_555 1_555
C9 C8 1_555 1_555
H8 C9 1_555 1_555
C10 C9 1_555 1_555
C11 C10 1_555 1_555
H9 C11 1_555 1_555
C12 C11 1_555 1_555
C13 C12 1_555 1_555
C14 C13 1_555 1_555
H10 C14 1_555 1_555
C15 C14 1_555 1_555
C16 C15 1_555 1_555
C17 C12 1_555 1_555
H11 C17 1_555 1_555
C18 C15 1_555 1_555
C19 C18 1_555 1_555
H12 C19 1_555 1_555
C20 C19 1_555 1_555
H13 C20 1_555 1_555
C21 C20 1_555 1_555
C22 C21 1_555 1_555
H14 C22 1_555 1_555
C23 C18 1_555 1_555
H15 C23 1_555 1_555
C24 O3 1_555 1_555
C25 C16 1_555 1_555
C26 C25 1_555 1_555
H16 C26 1_555 1_555
C27 C26 1_555 1_555
H17 C27 1_555 1_555
C28 C27 1_555 1_555
C29 C28 1_555 1_555
H18 C29 1_555 1_555
C30 C25 1_555 1_555
H19 C30 1_555 1_555
C31 O6 1_555 1_555
O7 C32 1_555 1_555
O8 H20 1_555 1_555
O9 C55 1_555 1_555
O10 H21 1_555 1_555
O11 C62 1_555 1_555
O12 H22 1_555 1_555
C32 O8 1_555 1_555
C33 C32 1_555 1_555
C34 C33 1_555 1_555
H23 C34 1_555 1_555
C35 C34 1_555 1_555
H24 C35 1_555 1_555
C36 C35 1_555 1_555
C37 C36 1_555 1_555
H25 C37 1_555 1_555
C38 C33 1_555 1_555
H26 C38 1_555 1_555
C39 C36 1_555 1_555
C40 C39 1_555 1_555
H27 C40 1_555 1_555
C41 C40 1_555 1_555
C42 C41 1_555 1_555
H28 C42 1_555 1_555
C43 C42 1_555 1_555
C44 C43 1_555 1_555
C45 C44 1_555 1_555
H29 C45 1_555 1_555
C46 C45 1_555 1_555
C47 C46 1_555 1_555
C48 C43 1_555 1_555
H30 C48 1_555 1_555
C49 C46 1_555 1_555
C50 C49 1_555 1_555
H31 C50 1_555 1_555
C51 C50 1_555 1_555
H32 C51 1_555 1_555
C52 C51 1_555 1_555
C53 C52 1_555 1_555
H33 C53 1_555 1_555
C54 C49 1_555 1_555
H34 C54 1_555 1_555
C55 O10 1_555 1_555
C56 C47 1_555 1_555
C57 C56 1_555 1_555
H35 C57 1_555 1_555
C58 C57 1_555 1_555
H36 C58 1_555 1_555
C59 C58 1_555 1_555
C60 C59 1_555 1_555
H37 C60 1_555 1_555
C61 C56 1_555 1_555
H38 C61 1_555 1_555
C62 O12 1_555 1_555
O13 C63 1_555 1_555
O14 H39 1_555 1_555
O15 H40 1_555 1_555
O16 C86 1_555 1_555
O17 C93 1_555 1_555
O18 H41 1_555 1_555
C63 O14 1_555 1_555
C64 C63 1_555 1_555
C65 C64 1_555 1_555
H42 C65 1_555 1_555
C66 C65 1_555 1_555
H43 C66 1_555 1_555
C67 C66 1_555 1_555
C68 C67 1_555 1_555
H44 C68 1_555 1_555
C69 C64 1_555 1_555
H45 C69 1_555 1_555
C70 C67 1_555 1_555
C71 C70 1_555 1_555
H46 C71 1_555 1_555
C72 C71 1_555 1_555
C73 C72 1_555 1_555
H47 C73 1_555 1_555
C74 C73 1_555 1_555
C75 C74 1_555 1_555
C76 C75 1_555 1_555
H48 C76 1_555 1_555
C77 C76 1_555 1_555
C78 C77 1_555 1_555
C79 C74 1_555 1_555
H49 C79 1_555 1_555
C80 C77 1_555 1_555
C81 C80 1_555 1_555
H50 C81 1_555 1_555
C82 C81 1_555 1_555
H51 C82 1_555 1_555
C83 C82 1_555 1_555
C84 C83 1_555 1_555
H52 C84 1_555 1_555
C85 C80 1_555 1_555
H53 C85 1_555 1_555
C86 O15 1_555 1_555
C87 C78 1_555 1_555
C88 C87 1_555 1_555
H54 C88 1_555 1_555
C89 C88 1_555 1_555
H55 C89 1_555 1_555
C90 C89 1_555 1_555
C91 C90 1_555 1_555
H56 C91 1_555 1_555
C92 C87 1_555 1_555
H57 C92 1_555 1_555
C93 O18 1_555 1_555
O19 C94 1_555 1_555
O20 H58 1_555 1_555
O21 H59 1_555 1_555
O22 C117 1_555 1_555
O23 H60 1_555 1_555
O24 C124 1_555 1_555
C94 O20 1_555 1_555
C95 C94 1_555 1_555
C96 C95 1_555 1_555
H61 C96 1_555 1_555
C97 C96 1_555 1_555
H62 C97 1_555 1_555
C98 C97 1_555 1_555
C99 C98 1_555 1_555
H63 C99 1_555 1_555
C100 C95 1_555 1_555
H64 C100 1_555 1_555
C101 C98 1_555 1_555
C102 C101 1_555 1_555
H65 C102 1_555 1_555
C103 C102 1_555 1_555
C104 C103 1_555 1_555
H66 C104 1_555 1_555
C105 C104 1_555 1_555
C106 C105 1_555 1_555
C107 C106 1_555 1_555
H67 C107 1_555 1_555
C108 C107 1_555 1_555
C109 C108 1_555 1_555
C110 C105 1_555 1_555
H68 C110 1_555 1_555
C111 C108 1_555 1_555
C112 C111 1_555 1_555
H69 C112 1_555 1_555
C113 C112 1_555 1_555
H70 C113 1_555 1_555
C114 C113 1_555 1_555
C115 C114 1_555 1_555
H71 C115 1_555 1_555
C116 C111 1_555 1_555
H72 C116 1_555 1_555
C117 O21 1_555 1_555
C118 C109 1_555 1_555
C119 C118 1_555 1_555
H73 C119 1_555 1_555
C120 C119 1_555 1_555
H74 C120 1_555 1_555
C121 C120 1_555 1_555
C122 C121 1_555 1_555
H75 C122 1_555 1_555
C123 C118 1_555 1_555
H76 C123 1_555 1_555
C124 O23 1_555 1_555
O1A C1A 1_555 1_555
O2A H1A 1_555 1_555
O3A H2A 1_555 1_555
O4A C24A 1_555 1_555
O5A C31A 1_555 1_555
O6A H3A 1_555 1_555
C1A O2A 1_555 1_555
C2A C1A 1_555 1_555
C3A C2A 1_555 1_555
H4A C3A 1_555 1_555
C4A C3A 1_555 1_555
H5A C4A 1_555 1_555
C5A C4A 1_555 1_555
C6A C5A 1_555 1_555
H6A C6A 1_555 1_555
C7A C2A 1_555 1_555
H7A C7A 1_555 1_555
C8A C8 1_555 1_555
C9A C8A 1_555 1_555
H8A C9A 1_555 1_555
C10A C10 1_555 1_555
C11A C13 1_555 1_555
H9A C11A 1_555 1_555
C12A C11A 1_555 1_555
C13A C11 1_555 1_555
C14A C13A 1_555 1_555
H10A C14A 1_555 1_555
C15A C14A 1_555 1_555
C16A C15A 1_555 1_555
C17A C12A 1_555 1_555
H11A C17A 1_555 1_555
C18A C15A 1_555 1_555
C19A C18A 1_555 1_555
H12A C19A 1_555 1_555
C20A C19A 1_555 1_555
H13A C20A 1_555 1_555
C21A C20A 1_555 1_555
C22A C21A 1_555 1_555
H14A C22A 1_555 1_555
C23A C18A 1_555 1_555
H15A C23A 1_555 1_555
C24A O3A 1_555 1_555
C25A C16A 1_555 1_555
C26A C25A 1_555 1_555
H16A C26A 1_555 1_555
C27A C26A 1_555 1_555
H17A C27A 1_555 1_555
C28A C27A 1_555 1_555
C29A C28A 1_555 1_555
H18A C29A 1_555 1_555
C30A C25A 1_555 1_555
H19A C30A 1_555 1_555
C31A O6A 1_555 1_555
O7A C32A 1_555 1_555
O8A H20A 1_555 1_555
O9A C55A 1_555 1_555
O10A H21A 1_555 1_555
O11A C62A 1_555 1_555
O12A H22A 1_555 1_555
C32A O8A 1_555 1_555
C33A C32A 1_555 1_555
C34A C33A 1_555 1_555
H23A C34A 1_555 1_555
C35A C34A 1_555 1_555
H24A C35A 1_555 1_555
C36A C35A 1_555 1_555
C37A C36A 1_555 1_555
H25A C37A 1_555 1_555
C38A C33A 1_555 1_555
H26A C38A 1_555 1_555
C39A C39 1_555 1_555
C40A C39A 1_555 1_555
H27A C40A 1_555 1_555
C41A C41 1_555 1_555
C42A C44 1_555 1_555
H28A C42A 1_555 1_555
C43A C42A 1_555 1_555
C44A C42 1_555 1_555
C45A C44A 1_555 1_555
H29A C45A 1_555 1_555
C46A C45A 1_555 1_555
C47A C46A 1_555 1_555
C48A C43A 1_555 1_555
H30A C48A 1_555 1_555
C49A C46A 1_555 1_555
C50A C49A 1_555 1_555
H31A C50A 1_555 1_555
C51A C50A 1_555 1_555
H32A C51A 1_555 1_555
C52A C51A 1_555 1_555
C53A C52A 1_555 1_555
H33A C53A 1_555 1_555
C54A C49A 1_555 1_555
H34A C54A 1_555 1_555
C55A O10A 1_555 1_555
C56A C47A 1_555 1_555
C57A C56A 1_555 1_555
H35A C57A 1_555 1_555
C58A C57A 1_555 1_555
H36A C58A 1_555 1_555
C59A C58A 1_555 1_555
C60A C59A 1_555 1_555
H37A C60A 1_555 1_555
C61A C56A 1_555 1_555
H38A C61A 1_555 1_555
C62A O12A 1_555 1_555
O13A C63A 1_555 1_555
O14A H39A 1_555 1_555
O15A H40A 1_555 1_555
O16A C86A 1_555 1_555
O17A C93A 1_555 1_555
O18A H41A 1_555 1_555
C63A O14A 1_555 1_555
C64A C63A 1_555 1_555
C65A C64A 1_555 1_555
H42A C65A 1_555 1_555
C66A C65A 1_555 1_555
H43A C66A 1_555 1_555
C67A C66A 1_555 1_555
C68A C67A 1_555 1_555
H44A C68A 1_555 1_555
C69A C64A 1_555 1_555
H45A C69A 1_555 1_555
C70A C70 1_555 1_555
C71A C70A 1_555 1_555
H46A C71A 1_555 1_555
C72A C72 1_555 1_555
C73A C75 1_555 1_555
H47A C73A 1_555 1_555
C74A C73A 1_555 1_555
C75A C73 1_555 1_555
C76A C75A 1_555 1_555
H48A C76A 1_555 1_555
C77A C76A 1_555 1_555
C78A C77A 1_555 1_555
C79A C74A 1_555 1_555
H49A C79A 1_555 1_555
C80A C77A 1_555 1_555
C81A C80A 1_555 1_555
H50A C81A 1_555 1_555
C82A C81A 1_555 1_555
H51A C82A 1_555 1_555
C83A C82A 1_555 1_555
C84A C83A 1_555 1_555
H52A C84A 1_555 1_555
C85A C80A 1_555 1_555
H53A C85A 1_555 1_555
C86A O15A 1_555 1_555
C87A C78A 1_555 1_555
C88A C87A 1_555 1_555
H54A C88A 1_555 1_555
C89A C88A 1_555 1_555
H55A C89A 1_555 1_555
C90A C89A 1_555 1_555
C91A C90A 1_555 1_555
H56A C91A 1_555 1_555
C92A C87A 1_555 1_555
H57A C92A 1_555 1_555
C93A O18A 1_555 1_555
O19A C94A 1_555 1_555
O20A H58A 1_555 1_555
O21A H59A 1_555 1_555
O22A C117A 1_555 1_555
O23A H60A 1_555 1_555
O24A C124A 1_555 1_555
C94A O20A 1_555 1_555
C95A C94A 1_555 1_555
C96A C95A 1_555 1_555
H61A C96A 1_555 1_555
C97A C96A 1_555 1_555
H62A C97A 1_555 1_555
C98A C97A 1_555 1_555
C99A C98A 1_555 1_555
H63A C99A 1_555 1_555
C100A C95A 1_555 1_555
H64A C100A 1_555 1_555
C101A C101 1_555 1_555
C102A C101A 1_555 1_555
H65A C102A 1_555 1_555
C103A C103 1_555 1_555
C104A C106 1_555 1_555
H66A C104A 1_555 1_555
C105A C104A 1_555 1_555
C106A C104 1_555 1_555
C107A C106A 1_555 1_555
H67A C107A 1_555 1_555
C108A C107A 1_555 1_555
C109A C108A 1_555 1_555
C110A C105A 1_555 1_555
H68A C110A 1_555 1_555
C111A C108A 1_555 1_555
C112A C111A 1_555 1_555
H69A C112A 1_555 1_555
C113A C112A 1_555 1_555
H70A C113A 1_555 1_555
C114A C113A 1_555 1_555
C115A C114A 1_555 1_555
H71A C115A 1_555 1_555
C116A C111A 1_555 1_555
H72A C116A 1_555 1_555
C117A O21A 1_555 1_555
C118A C109A 1_555 1_555
C119A C118A 1_555 1_555
H73A C119A 1_555 1_555
C120A C119A 1_555 1_555
H74A C120A 1_555 1_555
C121A C120A 1_555 1_555
C122A C121A 1_555 1_555
H75A C122A 1_555 1_555
C123A C118A 1_555 1_555
H76A C123A 1_555 1_555
C124A O23A 1_555 1_555
C6 C7 1_555 1_555
C16 C17 1_555 1_555
C21 C24 1_555 1_555
C22 C23 1_555 1_555
C28 C31 1_555 1_555
C29 C30 1_555 1_555
C37 C38 1_555 1_555
C47 C48 1_555 1_555
C52 C55 1_555 1_555
C53 C54 1_555 1_555
C59 C62 1_555 1_555
C60 C61 1_555 1_555
C68 C69 1_555 1_555
C78 C79 1_555 1_555
C83 C86 1_555 1_555
C84 C85 1_555 1_555
C90 C93 1_555 1_555
C91 C92 1_555 1_555
C99 C100 1_555 1_555
C109 C110 1_555 1_555
C114 C117 1_555 1_555
C115 C116 1_555 1_555
C121 C124 1_555 1_555
C122 C123 1_555 1_555
C5A C8A 1_555 1_555
C6A C7A 1_555 1_555
C9A C10A 1_555 1_555
C10A C11A 1_555 1_555
C12A C13A 1_555 1_555
C16A C17A 1_555 1_555
C21A C24A 1_555 1_555
C22A C23A 1_555 1_555
C28A C31A 1_555 1_555
C29A C30A 1_555 1_555
C36A C39A 1_555 1_555
C37A C38A 1_555 1_555
C40A C41A 1_555 1_555
C41A C42A 1_555 1_555
C43A C44A 1_555 1_555
C47A C48A 1_555 1_555
C52A C55A 1_555 1_555
C53A C54A 1_555 1_555
C59A C62A 1_555 1_555
C60A C61A 1_555 1_555
C67A C70A 1_555 1_555
C68A C69A 1_555 1_555
C71A C72A 1_555 1_555
C72A C73A 1_555 1_555
C74A C75A 1_555 1_555
C78A C79A 1_555 1_555
C83A C86A 1_555 1_555
C84A C85A 1_555 1_555
C90A C93A 1_555 1_555
C91A C92A 1_555 1_555
C98A C101A 1_555 1_555
C99A C100A 1_555 1_555
C102A C103A 1_555 1_555
C103A C104A 1_555 1_555
C105A C106A 1_555 1_555
C109A C110A 1_555 1_555
C114A C117A 1_555 1_555
C115A C116A 1_555 1_555
C121A C124A 1_555 1_555
C122A C123A 1_555 1_555

#END
