
#######################################################################
#
#                 Cambridge Crystallographic Data Centre
#                                CCDC 
#
#######################################################################
#
# If this CIF has been generated from an entry in the Cambridge 
# Structural Database, then it will include bibliographic, chemical, 
# crystal, experimental, refinement or atomic coordinate data resulting 
# from the CCDC's data processing and validation procedures.
#
#######################################################################

data_FIWFAV
_chemical_formula_moiety         'C12 H17 N1 S1'
_chemical_name_systematic        
N,N-dimethyl-4-(propan-2-yl)benzene-1-carbothioamide
_symmetry_cell_setting           monoclinic
_symmetry_space_group_name_H-M   'P 21/c'
_symmetry_Int_Tables_number      14
_space_group_name_Hall           '-P 2ybc'
loop_
_symmetry_equiv_pos_site_id
_symmetry_equiv_pos_as_xyz
1 x,y,z
2 -x,1/2+y,1/2-z
3 -x,-y,-z
4 x,1/2-y,1/2+z
_cell_length_a                   6.3585(5)
_cell_length_b                   10.9450(11)
_cell_length_c                   17.5672(13)
_cell_angle_alpha                90
_cell_angle_beta                 92.051(7)
_cell_angle_gamma                90
_cell_volume                     1221.78
_exptl_crystal_colour            yellow
_exptl_crystal_description       prism
_cell_formula_units_Z            4
loop_
_atom_site_label
_atom_site_type_symbol
_atom_site_fract_x
_atom_site_fract_y
_atom_site_fract_z
C1 C 0.9542(4) 0.7170(3) 0.48142(14)
C2 C 0.8769(4) 0.7985(2) 0.54214(14)
C3 C 0.8768(4) 0.7617(3) 0.61748(15)
H1 H 0.9337 0.6861 0.6309
C4 C 0.7945(5) 0.8340(3) 0.67285(17)
H2 H 0.7950 0.8059 0.7228
C5 C 0.7115(5) 0.9472(3) 0.6561(2)
C6 C 0.7107(5) 0.9839(3) 0.5815(2)
H3 H 0.6553 1.0601 0.5686
C7 C 0.7893(5) 0.9114(3) 0.52487(17)
H4 H 0.7834 0.9386 0.4747
C8 C 0.6303(10) 1.0181(5) 0.7257(3)
H5 H 0.6856 0.9805 0.7729
C9 C 0.7010(16) 1.1527(7) 0.7225(5)
H6 H 0.8518 1.1564 0.7224
H7 H 0.6520 1.1955 0.7661
H8 H 0.6431 1.1899 0.6769
C10 C 0.386(2) 1.0109(13) 0.7225(6)
H9 H 0.3329 1.0432 0.6748
H10 H 0.3316 1.0577 0.7636
H11 H 0.3432 0.9272 0.7272
C11 C 1.3052(4) 0.7097(3) 0.54567(19)
H12 H 1.2606 0.7836 0.5696
H13 H 1.4370 0.7234 0.5221
H14 H 1.3219 0.6464 0.5833
C12 C 1.2223(5) 0.5831(4) 0.4332(2)
H15 H 1.1053 0.5366 0.4128
H16 H 1.3216 0.5293 0.4583
H17 H 1.2891 0.6250 0.3925
N1 N 1.1473(3) 0.6725(2) 0.48792(13)
S1 S 0.78842(13) 0.68431(11) 0.40795(4)
C13? C 0.598(2) 1.0546(12) 0.6919(7)
H18? H 0.5156 1.1084 0.6593
C14? C 0.766(4) 1.1045(16) 0.7438(12)
H19? H 0.8234 1.0401 0.7754
H20? H 0.7085 1.1668 0.7753
H21? H 0.8760 1.1389 0.7143
C15? C 0.449(5) 0.994(3) 0.7479(15)
H22? H 0.3267 0.9635 0.7203
H23? H 0.4074 1.0525 0.7849
H24? H 0.5204 0.9269 0.7732
loop_
_geom_bond_atom_site_label_1
_geom_bond_atom_site_label_2
_geom_bond_site_symmetry_1
_geom_bond_site_symmetry_2
C1 C2 1_555 1_555
C2 C3 1_555 1_555
C3 H1 1_555 1_555
C4 C3 1_555 1_555
H2 C4 1_555 1_555
C5 C4 1_555 1_555
C6 C5 1_555 1_555
H3 C6 1_555 1_555
C7 C2 1_555 1_555
H4 C7 1_555 1_555
C8 C5 1_555 1_555
H5 C8 1_555 1_555
C9 C8 1_555 1_555
H6 C9 1_555 1_555
H7 C9 1_555 1_555
H8 C9 1_555 1_555
C10 C8 1_555 1_555
H9 C10 1_555 1_555
H10 C10 1_555 1_555
H11 C10 1_555 1_555
C11 H12 1_555 1_555
H13 C11 1_555 1_555
H14 C11 1_555 1_555
C12 H15 1_555 1_555
H16 C12 1_555 1_555
H17 C12 1_555 1_555
N1 C1 1_555 1_555
S1 C1 1_555 1_555
C6 C7 1_555 1_555
C11 N1 1_555 1_555
C12 N1 1_555 1_555

#END
