
#######################################################################
#
#                 Cambridge Crystallographic Data Centre
#                                CCDC 
#
#######################################################################
#
# If this CIF has been generated from an entry in the Cambridge 
# Structural Database, then it will include bibliographic, chemical, 
# crystal, experimental, refinement or atomic coordinate data resulting 
# from the CCDC's data processing and validation procedures.
#
#######################################################################

data_FIWMOP
_chemical_formula_moiety         'C45 H50 O10,C3 H6 O1'
_chemical_name_systematic        
'4,9,14,19,24,26,28,30,32,34-Decamethoxyhexacyclo[21.2.2.2^3,6^.2^8,11^.2^13,16^.2^18,21^]pentatriaconta-1(25),3,5,8,10,13,15,18,20,23,26,28,30,32,34-pentadecaene acetone solvate'
_symmetry_cell_setting           tetragonal
_symmetry_space_group_name_H-M   'I 41/a'
_symmetry_Int_Tables_number      88
_space_group_name_Hall           '-I 4ad'
loop_
_symmetry_equiv_pos_site_id
_symmetry_equiv_pos_as_xyz
1 x,y,z
2 1/2-x,-y,1/2+z
3 3/4-y,1/4+x,1/4+z
4 3/4+y,3/4-x,3/4+z
5 1/2+x,1/2+y,1/2+z
6 -x,1/2-y,z
7 1/4-y,3/4+x,3/4+z
8 1/4+y,1/4-x,1/4+z
9 -x,-y,-z
10 1/2+x,y,1/2-z
11 1/4+y,3/4-x,3/4-z
12 1/4-y,1/4+x,1/4-z
13 1/2-x,1/2-y,1/2-z
14 x,1/2+y,-z
15 3/4+y,1/4-x,1/4-z
16 3/4-y,3/4+x,3/4-z
_cell_length_a                   14.9380(5)
_cell_length_b                   14.9380(5)
_cell_length_c                   39.779(3)
_cell_angle_alpha                90
_cell_angle_beta                 90
_cell_angle_gamma                90
_cell_volume                     8876.44
_exptl_crystal_colour            colorless
_exptl_crystal_description       block
_cell_formula_units_Z            8
loop_
_atom_site_label
_atom_site_type_symbol
_atom_site_fract_x
_atom_site_fract_y
_atom_site_fract_z
C1 C 0.5000 0.2500 0.24203(10)
H1 H 0.5350 0.2890 0.2564
C2 C 0.56259(18) 0.19386(19) 0.22116(7)
C3 C 0.5386(2) 0.1090(2) 0.21012(7)
H2 H 0.4842 0.0850 0.2171
C4 C 0.5923(2) 0.05946(18) 0.18936(7)
C5 C 0.67459(18) 0.09173(18) 0.17890(7)
C6 C 0.70065(19) 0.1752(2) 0.19089(8)
H3 H 0.7567 0.1975 0.1851
C7 C 0.6451(2) 0.2257(2) 0.21121(8)
C8 C 0.73294(18) 0.03923(19) 0.15490(7)
H4 H 0.7950 0.0555 0.1586
H5 H 0.7268 -0.0241 0.1598
C9 C 0.70969(16) 0.05547(16) 0.11847(7)
C10 C 0.64491(17) 0.00430(16) 0.10257(7)
H6 H 0.6176 -0.0422 0.1143
C11 C 0.61991(17) 0.02094(16) 0.06951(7)
C12 C 0.66216(16) 0.08698(15) 0.05110(6)
C13 C 0.72726(17) 0.13660(17) 0.06675(7)
H7 H 0.7567 0.1811 0.0547
C14 C 0.75014(17) 0.12217(16) 0.09994(8)
C15 C 0.63470(18) 0.10917(16) 0.01531(6)
H8 H 0.6870 0.1277 0.0027
H9 H 0.6104 0.0560 0.0047
C16 C 0.56566(17) 0.18285(15) 0.01446(6)
C17 C 0.58975(17) 0.27221(15) 0.01464(6)
C18 C 0.52442(18) 0.33822(15) 0.01430(6)
H10 H 0.5417 0.3980 0.0139
C19 C 0.4795(3) -0.0517(3) 0.17852(10)
H11 H 0.4610 -0.0585 0.2015
H12 H 0.4728 -0.1077 0.1670
H13 H 0.4431 -0.0071 0.1678
C20 C 0.7482(3) 0.3494(3) 0.21138(11)
H14 H 0.7977 0.3115 0.2172
H15 H 0.7558 0.4069 0.2217
H16 H 0.7457 0.3563 0.1874
C21 C 0.4908(2) -0.0727(2) 0.07172(8)
H17 H 0.5183 -0.1228 0.0828
H18 H 0.4443 -0.0938 0.0571
H19 H 0.4657 -0.0331 0.0882
C22 C 0.8453(4) 0.2494(3) 0.10095(14)
H20 H 0.8669 0.2347 0.0789
H21 H 0.8932 0.2745 0.1140
H22 H 0.7976 0.2922 0.0991
C23 C 0.7084(2) 0.38000(18) 0.01769(8)
H23 H 0.6906 0.4123 -0.0021
H24 H 0.7724 0.3821 0.0199
H25 H 0.6813 0.4067 0.0371
O1 O 0.56991(15) -0.02503(14) 0.17751(6)
O2 O 0.66759(14) 0.31010(15) 0.22291(6)
O3 O 0.55449(15) -0.02745(14) 0.05299(5)
O4 O 0.81379(15) 0.17251(14) 0.11657(6)
O5 O 0.68043(12) 0.29016(11) 0.01494(5)
H1E H 0.4650 0.2110 0.2564
C2E C 0.43741(18) 0.30614(19) 0.22116(7)
C3E C 0.4614(2) 0.3910(2) 0.21012(7)
H2E H 0.5158 0.4150 0.2171
C4E C 0.4077(2) 0.44054(18) 0.18936(7)
C5E C 0.32541(18) 0.40827(18) 0.17890(7)
C6E C 0.29935(19) 0.3248(2) 0.19089(8)
H3E H 0.2433 0.3025 0.1851
C7E C 0.3549(2) 0.2743(2) 0.21121(8)
C8E C 0.26706(18) 0.46077(19) 0.15490(7)
H4E H 0.2050 0.4445 0.1586
H5E H 0.2732 0.5241 0.1598
C9E C 0.29031(16) 0.44453(16) 0.11847(7)
C10E C 0.35509(17) 0.49570(16) 0.10257(7)
H6E H 0.3824 0.5422 0.1143
C11E C 0.38009(17) 0.47906(16) 0.06951(7)
C12E C 0.33784(16) 0.41302(15) 0.05110(6)
C13E C 0.27274(17) 0.36340(17) 0.06675(7)
H7E H 0.2433 0.3189 0.0547
C14E C 0.24986(17) 0.37783(16) 0.09994(8)
C15E C 0.36530(18) 0.39083(16) 0.01531(6)
H8E H 0.3130 0.3723 0.0027
H9E H 0.3896 0.4440 0.0047
C16E C 0.43434(17) 0.31715(15) 0.01446(6)
C17E C 0.41025(17) 0.22779(15) 0.01464(6)
C18E C 0.47558(18) 0.16178(15) 0.01430(6)
H10E H 0.4583 0.1020 0.0139
C19E C 0.5205(3) 0.5517(3) 0.17852(10)
H11E H 0.5390 0.5585 0.2015
H12E H 0.5272 0.6077 0.1670
H13E H 0.5569 0.5071 0.1678
C20E C 0.2518(3) 0.1506(3) 0.21138(11)
H14E H 0.2023 0.1885 0.2172
H15E H 0.2442 0.0931 0.2217
H16E H 0.2543 0.1437 0.1874
C21E C 0.5092(2) 0.5727(2) 0.07172(8)
H17E H 0.4817 0.6228 0.0828
H18E H 0.5557 0.5938 0.0571
H19E H 0.5343 0.5331 0.0882
C22E C 0.1547(4) 0.2506(3) 0.10095(14)
H20E H 0.1331 0.2653 0.0789
H21E H 0.1068 0.2255 0.1140
H22E H 0.2024 0.2078 0.0991
C23E C 0.2916(2) 0.12000(18) 0.01769(8)
H23E H 0.3094 0.0877 -0.0021
H24E H 0.2276 0.1179 0.0199
H25E H 0.3187 0.0933 0.0371
O1E O 0.43009(15) 0.52503(14) 0.17751(6)
O2E O 0.33241(14) 0.18990(15) 0.22291(6)
O3E O 0.44551(15) 0.52745(14) 0.05299(5)
O4E O 0.18621(15) 0.32749(14) 0.11657(6)
O5E O 0.31957(12) 0.20984(11) 0.01494(5)
H26? H 0.5350 0.2890 0.2564
C24? C 0.5531(7) 0.3117(6) 0.1140(2)
C25? C 0.5963(11) 0.3670(11) 0.0900(3)
H27? H 0.5792 0.4277 0.0947
H28? H 0.5753 0.3505 0.0681
H29? H 0.6603 0.3619 0.0908
C26? C 0.5048(13) 0.2296(6) 0.1083(3)
H30? H 0.5118 0.1933 0.1281
H31? H 0.5277 0.1980 0.0891
H32? H 0.4425 0.2424 0.1049
O6? O 0.6079(12) 0.3380(14) 0.1351(3)
loop_
_geom_bond_atom_site_label_1
_geom_bond_atom_site_label_2
_geom_bond_site_symmetry_1
_geom_bond_site_symmetry_2
C1 H1 1_555 1_555
C2 C1 1_555 1_555
C3 C2 1_555 1_555
H2 C3 1_555 1_555
C4 C3 1_555 1_555
C5 C4 1_555 1_555
C6 C5 1_555 1_555
H3 C6 1_555 1_555
C7 C2 1_555 1_555
C8 C5 1_555 1_555
H4 C8 1_555 1_555
H5 C8 1_555 1_555
C9 C8 1_555 1_555
C10 C9 1_555 1_555
H6 C10 1_555 1_555
C11 C10 1_555 1_555
C12 C11 1_555 1_555
C13 C12 1_555 1_555
H7 C13 1_555 1_555
C14 C9 1_555 1_555
C15 C12 1_555 1_555
H8 C15 1_555 1_555
H9 C15 1_555 1_555
C16 C15 1_555 1_555
C17 C16 1_555 1_555
C18 C17 1_555 1_555
H10 C18 1_555 1_555
C19 H11 1_555 1_555
H12 C19 1_555 1_555
H13 C19 1_555 1_555
C20 H14 1_555 1_555
H15 C20 1_555 1_555
H16 C20 1_555 1_555
C21 H17 1_555 1_555
H18 C21 1_555 1_555
H19 C21 1_555 1_555
C22 H20 1_555 1_555
H21 C22 1_555 1_555
H22 C22 1_555 1_555
C23 H23 1_555 1_555
H24 C23 1_555 1_555
H25 C23 1_555 1_555
O1 C4 1_555 1_555
O2 C7 1_555 1_555
O3 C11 1_555 1_555
O4 C14 1_555 1_555
O5 C17 1_555 1_555
H1E C1 1_555 1_555
C2E C1 1_555 1_555
C3E C2E 1_555 1_555
H2E C3E 1_555 1_555
C4E C3E 1_555 1_555
C5E C4E 1_555 1_555
C6E C5E 1_555 1_555
H3E C6E 1_555 1_555
C7E C2E 1_555 1_555
C8E C5E 1_555 1_555
H4E C8E 1_555 1_555
H5E C8E 1_555 1_555
C9E C8E 1_555 1_555
C10E C9E 1_555 1_555
H6E C10E 1_555 1_555
C11E C10E 1_555 1_555
C12E C11E 1_555 1_555
C13E C12E 1_555 1_555
H7E C13E 1_555 1_555
C14E C9E 1_555 1_555
C15E C12E 1_555 1_555
H8E C15E 1_555 1_555
H9E C15E 1_555 1_555
C16E C18 1_555 1_555
C17E C16E 1_555 1_555
C18E C16 1_555 1_555
H10E C18E 1_555 1_555
C19E H11E 1_555 1_555
H12E C19E 1_555 1_555
H13E C19E 1_555 1_555
C20E H14E 1_555 1_555
H15E C20E 1_555 1_555
H16E C20E 1_555 1_555
C21E H17E 1_555 1_555
H18E C21E 1_555 1_555
H19E C21E 1_555 1_555
C22E H20E 1_555 1_555
H21E C22E 1_555 1_555
H22E C22E 1_555 1_555
C23E H23E 1_555 1_555
H24E C23E 1_555 1_555
H25E C23E 1_555 1_555
O1E C4E 1_555 1_555
O2E C7E 1_555 1_555
O3E C11E 1_555 1_555
O4E C14E 1_555 1_555
O5E C17E 1_555 1_555
C6 C7 1_555 1_555
C13 C14 1_555 1_555
C19 O1 1_555 1_555
C20 O2 1_555 1_555
C21 O3 1_555 1_555
C22 O4 1_555 1_555
C23 O5 1_555 1_555
C6E C7E 1_555 1_555
C13E C14E 1_555 1_555
C15E C16E 1_555 1_555
C17E C18E 1_555 1_555
C19E O1E 1_555 1_555
C20E O2E 1_555 1_555
C21E O3E 1_555 1_555
C22E O4E 1_555 1_555
C23E O5E 1_555 1_555

#END
