
#######################################################################
#
#                 Cambridge Crystallographic Data Centre
#                                CCDC 
#
#######################################################################
#
# If this CIF has been generated from an entry in the Cambridge 
# Structural Database, then it will include bibliographic, chemical, 
# crystal, experimental, refinement or atomic coordinate data resulting 
# from the CCDC's data processing and validation procedures.
#
#######################################################################

data_FIWWIT
_chemical_formula_moiety         'C6 H15 N4 O2 1+,C7 H4 N1 O4 1-,H2 O1'
_chemical_name_systematic        
'5-((Amino(iminio)methyl)amino)-2-ammoniopentanoate 4-nitrobenzoate monohydrate'
_symmetry_cell_setting           monoclinic
_symmetry_space_group_name_H-M   'P 21'
_symmetry_Int_Tables_number      4
_space_group_name_Hall           'P 2yb'
loop_
_symmetry_equiv_pos_site_id
_symmetry_equiv_pos_as_xyz
1 x,y,z
2 -x,1/2+y,-z
_cell_length_a                   8.566(3)
_cell_length_b                   5.817(2)
_cell_length_c                   17.131(7)
_cell_angle_alpha                90
_cell_angle_beta                 101.223(5)
_cell_angle_gamma                90
_cell_volume                     837.287
_exptl_crystal_colour            colorless
_exptl_crystal_description       prism
_cell_formula_units_Z            2
loop_
_atom_site_label
_atom_site_type_symbol
_atom_site_fract_x
_atom_site_fract_y
_atom_site_fract_z
C1 C 0.2220(4) 0.7457(6) 0.2455(2)
H1 H 0.2644 0.6508 0.2881
C2 C 0.2499(4) 0.6941(6) 0.1704(2)
C3 C 0.1336(4) 0.9326(7) 0.2586(2)
H2 H 0.1160 0.9656 0.3093
C4 C 0.0716(5) 1.0701(6) 0.1951(3)
C5 C 0.3465(4) 0.4900(7) 0.1551(2)
C6 C 0.1857(4) 0.8368(6) 0.1074(2)
H3 H 0.2026 0.8035 0.0566
C7 C 0.0963(4) 1.0286(7) 0.1191(2)
H4 H 0.0546 1.1259 0.0771
N1 N -0.0248(4) 1.2754(6) 0.2065(3)
O1 O 0.4109(3) 0.3671(4) 0.21270(13)
O2 O 0.3567(3) 0.4533(5) 0.08384(13)
O3 O -0.0821(4) 1.3894(5) 0.1484(2)
O4 O -0.0405(4) 1.3187(5) 0.2747(2)
C8 C 0.6415(4) 0.9688(6) 0.1093(2)
N2 N 0.6297(4) 0.9791(6) 0.18567(16)
N3 N 0.5707(4) 1.1254(5) 0.05886(16)
H5 H 0.5790 1.1196 0.0097
H6 H 0.5162 1.2332 0.0752
N4 N 0.7255(3) 0.8027(5) 0.08403(14)
H7 H 0.7336 0.7972 0.0348
H8 H 0.7717 0.7005 0.1168
C9 C 0.6980(5) 0.8031(6) 0.24222(19)
C10 C 0.7615(4) 0.4099(6) 0.49800(17)
C11 C 0.6727(5) 0.8519(6) 0.32572(19)
C12 C 0.7391(5) 0.6482(6) 0.37720(19)
C13 C 0.7107(4) 0.6469(6) 0.46194(17)
N5 N 0.8032(4) 0.8320(5) 0.51011(18)
O5 O 0.6646(3) 0.2495(4) 0.47573(13)
O6 O 0.8950(2) 0.3925(4) 0.54173(12)
H9 H 0.903(4) 0.835(6) 0.5042(16)
H10 H 0.754(4) 0.986(7) 0.4960(18)
H11 H 0.788(4) 0.806(6) 0.561(2)
H12 H 0.600(3) 0.657(4) 0.4642(13)
H13 H 0.574(4) 1.096(6) 0.1994(19)
H14 H 0.807(4) 0.785(6) 0.2420(18)
H15 H 0.650(4) 0.641(5) 0.2282(18)
H16 H 0.729(4) 1.014(6) 0.3496(19)
H17 H 0.561(3) 0.858(6) 0.3279(17)
H18 H 0.855(3) 0.647(5) 0.3821(15)
H19 H 0.693(3) 0.499(5) 0.3496(15)
O7 O 0.3757(3) 0.2713(5) 0.37078(18)
H20 H 0.472(5) 0.273(7) 0.399(2)
H21 H 0.378(5) 0.324(7) 0.325(2)
loop_
_geom_bond_atom_site_label_1
_geom_bond_atom_site_label_2
_geom_bond_site_symmetry_1
_geom_bond_site_symmetry_2
C1 H1 1_555 1_555
C2 C1 1_555 1_555
C3 C1 1_555 1_555
H2 C3 1_555 1_555
C4 C3 1_555 1_555
C5 C2 1_555 1_555
C6 C2 1_555 1_555
H3 C6 1_555 1_555
C7 C4 1_555 1_555
H4 C7 1_555 1_555
N1 C4 1_555 1_555
O1 C5 1_555 1_555
O2 C5 1_555 1_555
O3 N1 1_555 1_555
O4 N1 1_555 1_555
C8 N2 1_555 1_555
N2 C9 1_555 1_555
N3 C8 1_555 1_555
H5 N3 1_555 1_555
H6 N3 1_555 1_555
N4 C8 1_555 1_555
H7 N4 1_555 1_555
H8 N4 1_555 1_555
C9 C11 1_555 1_555
C10 C13 1_555 1_555
C11 C12 1_555 1_555
C12 C13 1_555 1_555
C13 N5 1_555 1_555
N5 H9 1_555 1_555
O5 C10 1_555 1_555
O6 C10 1_555 1_555
H10 N5 1_555 1_555
H11 N5 1_555 1_555
H12 C13 1_555 1_555
H13 N2 1_555 1_555
H14 C9 1_555 1_555
H15 C9 1_555 1_555
H16 C11 1_555 1_555
H17 C11 1_555 1_555
H18 C12 1_555 1_555
H19 C12 1_555 1_555
O7 H20 1_555 1_555
H21 O7 1_555 1_555
C6 C7 1_555 1_555

#END
