
#######################################################################
#
#                 Cambridge Crystallographic Data Centre
#                                CCDC 
#
#######################################################################
#
# If this CIF has been generated from an entry in the Cambridge 
# Structural Database, then it will include bibliographic, chemical, 
# crystal, experimental, refinement or atomic coordinate data resulting 
# from the CCDC's data processing and validation procedures.
#
#######################################################################

data_FIWZOB
_chemical_formula_moiety         'C11 H15 N1 O5'
_chemical_name_systematic        
2,2-Dimethylhexahydro-3bH-(1,3)dioxolo(4,5-c)(1,3)oxazolo(3,4-a)oxireno(e)azepin-7-one
_symmetry_cell_setting           orthorhombic
_symmetry_space_group_name_H-M   'P 21 21 21'
_symmetry_Int_Tables_number      19
_space_group_name_Hall           'P 2ac 2ab'
loop_
_symmetry_equiv_pos_site_id
_symmetry_equiv_pos_as_xyz
1 x,y,z
2 1/2+x,1/2-y,-z
3 -x,1/2+y,1/2-z
4 1/2-x,-y,1/2+z
_cell_length_a                   5.8997(9)
_cell_length_b                   12.970(2)
_cell_length_c                   15.2263(18)
_cell_angle_alpha                90
_cell_angle_beta                 90
_cell_angle_gamma                90
_cell_volume                     1165.1
_exptl_crystal_colour            colorless
_exptl_crystal_description       parallelepiped
_cell_formula_units_Z            4
loop_
_atom_site_label
_atom_site_type_symbol
_atom_site_fract_x
_atom_site_fract_y
_atom_site_fract_z
N1 N 0.7006(5) 0.1095(2) 0.5044(2)
C1 C 0.7936(9) -0.0233(3) 0.6139(3)
C2 C 0.8779(10) -0.1057(3) 0.5585(3)
C3 C 0.9797(8) -0.0789(3) 0.4713(2)
C4 C 0.8028(6) -0.0339(3) 0.4095(2)
C5 C 0.7823(6) 0.0824(3) 0.4172(2)
C6 C 0.5957(8) 0.1304(3) 0.3610(3)
C7 C 0.8221(7) 0.0875(3) 0.5851(2)
C8 C 1.0256(7) -0.1512(3) 0.3338(3)
C9 C 1.2446(9) -0.1272(5) 0.2912(4)
C10 C 0.9135(10) -0.2447(3) 0.2929(4)
C11 C 0.4833(6) 0.1429(3) 0.5040(3)
O1 O 0.9987(8) -0.0780(3) 0.6367(2)
O2 O 1.0528(7) -0.1684(2) 0.42560(19)
O3 O 0.8827(6) -0.0621(2) 0.32513(18)
O4 O 0.4089(5) 0.1489(2) 0.4192(2)
O5 O 0.3688(5) 0.1657(3) 0.5651(2)
H1 H 0.6454 -0.0089 0.6436
H2 H 0.8121 -0.1716 0.5345
H3 H 1.1066 -0.0303 0.4854
H4 H 0.6474 -0.0610 0.4236
H5 H 0.9366 0.1071 0.3999
H6 H 0.6494 0.1979 0.3355
H7 H 0.5501 0.0834 0.3130
H8 H 0.7631 0.1345 0.6323
H9 H 0.9867 0.1022 0.5754
H10 H 1.3130 -0.0639 0.3207
H11 H 1.3525 -0.1857 0.2982
H12 H 1.2227 -0.1114 0.2277
H13 H 0.7629 -0.2580 0.3243
H14 H 1.0105 -0.3068 0.3002
H15 H 0.8807 -0.2324 0.2297
loop_
_geom_bond_atom_site_label_1
_geom_bond_atom_site_label_2
_geom_bond_site_symmetry_1
_geom_bond_site_symmetry_2
N1 C5 1_555 1_555
C1 C2 1_555 1_555
C2 C3 1_555 1_555
C3 C4 1_555 1_555
C4 C5 1_555 1_555
C5 C6 1_555 1_555
C6 O4 1_555 1_555
C7 N1 1_555 1_555
C8 C9 1_555 1_555
C9 H10 1_555 1_555
C10 C8 1_555 1_555
C11 N1 1_555 1_555
O1 C1 1_555 1_555
O2 C3 1_555 1_555
O3 C4 1_555 1_555
O4 C11 1_555 1_555
O5 C11 1_555 1_555
H1 C1 1_555 1_555
H2 C2 1_555 1_555
H3 C3 1_555 1_555
H4 C4 1_555 1_555
H5 C5 1_555 1_555
H6 C6 1_555 1_555
H7 C6 1_555 1_555
H8 C7 1_555 1_555
H9 C7 1_555 1_555
H11 C9 1_555 1_555
H12 C9 1_555 1_555
H13 C10 1_555 1_555
H14 C10 1_555 1_555
H15 C10 1_555 1_555
C1 C7 1_555 1_555
C2 O1 1_555 1_555
C8 O2 1_555 1_555
C8 O3 1_555 1_555

#END
