
#######################################################################
#
#                 Cambridge Crystallographic Data Centre
#                                CCDC 
#
#######################################################################
#
# If this CIF has been generated from an entry in the Cambridge 
# Structural Database, then it will include bibliographic, chemical, 
# crystal, experimental, refinement or atomic coordinate data resulting 
# from the CCDC's data processing and validation procedures.
#
#######################################################################

data_FIWZUG03
_chemical_formula_moiety         'C14 H13 N3 O2,H2 O1'
_chemical_name_systematic        
'(E)-N-isonicotinoyl 4-methoxybenzaldehydehydrazone monohydrate'
_symmetry_cell_setting           monoclinic
_symmetry_space_group_name_H-M   'P 21/c'
_symmetry_Int_Tables_number      14
_space_group_name_Hall           '-P 2ybc'
loop_
_symmetry_equiv_pos_site_id
_symmetry_equiv_pos_as_xyz
1 x,y,z
2 -x,1/2+y,1/2-z
3 -x,-y,-z
4 x,1/2-y,1/2+z
_cell_length_a                   7.2702(2)
_cell_length_b                   12.3085(5)
_cell_length_c                   14.7299(6)
_cell_angle_alpha                90
_cell_angle_beta                 97.370(3)
_cell_angle_gamma                90
_cell_volume                     1307.22
_exptl_crystal_colour            colorless
_exptl_crystal_description       plate
_chemical_melting_point          '414-415 K'
_cell_formula_units_Z            4
_exptl_crystal_recrystallization_method acetone
loop_
_atom_site_label
_atom_site_type_symbol
_atom_site_fract_x
_atom_site_fract_y
_atom_site_fract_z
N1 N 0.3674(2) 0.64170(15) 0.00512(11)
C1 C 0.4632(3) 0.67382(16) 0.08417(13)
C2 C 0.4656(3) 0.61667(15) 0.16551(13)
C3 C 0.3664(3) 0.52034(15) 0.16538(13)
C4 C 0.2717(3) 0.48411(17) 0.08244(14)
C5 C 0.2755(3) 0.54703(18) 0.00512(14)
C6 C 0.3516(3) 0.45384(16) 0.24959(13)
O1 O 0.3476(2) 0.35389(11) 0.24625(10)
N2 N 0.3351(2) 0.51258(13) 0.32488(10)
N3 N 0.2966(2) 0.46005(13) 0.40326(10)
C7 C 0.2743(3) 0.52519(16) 0.46882(13)
C8 C 0.2229(2) 0.48909(15) 0.55672(12)
C9 C 0.2154(3) 0.56569(16) 0.62589(13)
C10 C 0.1626(3) 0.53758(16) 0.70939(13)
C11 C 0.1133(2) 0.43093(15) 0.72535(12)
O2 O 0.06597(19) 0.41100(11) 0.81042(9)
C12 C 0.0145(3) 0.30219(16) 0.83091(13)
C13 C 0.1180(3) 0.35286(15) 0.65724(12)
C14 C 0.1735(3) 0.38237(15) 0.57379(13)
H1 H 0.5332 0.7390 0.0846
H2 H 0.5340 0.6430 0.2204
H3 H 0.2057 0.4173 0.0793
H4 H 0.2098 0.5221 -0.0509
H5 H 0.3485 0.5836 0.3244
H6 H 0.2920 0.6007 0.4599
H7 H 0.2474 0.6390 0.6152
H8 H 0.1599 0.5909 0.7558
H9 H -0.0941 0.2803 0.7884
H10 H -0.0156 0.2989 0.8938
H11 H 0.1180 0.2529 0.8245
H12 H 0.0835 0.2799 0.6677
H13 H 0.1778 0.3289 0.5276
O3 O 0.3743(2) 0.74712(11) 0.34021(9)
H14 H 0.3661 0.7824 0.3930
H15 H 0.4660 0.7794 0.3145
loop_
_geom_bond_atom_site_label_1
_geom_bond_atom_site_label_2
_geom_bond_site_symmetry_1
_geom_bond_site_symmetry_2
N1 C1 1_555 1_555
C1 C2 1_555 1_555
C2 C3 1_555 1_555
C3 C4 1_555 1_555
C4 C5 1_555 1_555
C5 N1 1_555 1_555
C6 C3 1_555 1_555
O1 C6 1_555 1_555
N2 C6 1_555 1_555
N3 N2 1_555 1_555
C7 N3 1_555 1_555
C8 C7 1_555 1_555
C9 C8 1_555 1_555
C10 C9 1_555 1_555
C11 C10 1_555 1_555
O2 C11 1_555 1_555
C12 O2 1_555 1_555
C13 C11 1_555 1_555
C14 C8 1_555 1_555
H1 C1 1_555 1_555
H2 C2 1_555 1_555
H3 C4 1_555 1_555
H4 C5 1_555 1_555
H5 N2 1_555 1_555
H6 C7 1_555 1_555
H7 C9 1_555 1_555
H8 C10 1_555 1_555
H9 C12 1_555 1_555
H10 C12 1_555 1_555
H11 C12 1_555 1_555
H12 C13 1_555 1_555
H13 C14 1_555 1_555
O3 H14 1_555 1_555
H15 O3 1_555 1_555
C13 C14 1_555 1_555

#END
