
#######################################################################
#
#                 Cambridge Crystallographic Data Centre
#                                CCDC 
#
#######################################################################
#
# If this CIF has been generated from an entry in the Cambridge 
# Structural Database, then it will include bibliographic, chemical, 
# crystal, experimental, refinement or atomic coordinate data resulting 
# from the CCDC's data processing and validation procedures.
#
#######################################################################

data_FIXQIO
_chemical_formula_moiety         'C18 H15 F3 O2 S2'
_chemical_name_systematic        
'S-Methyl 3-hydroxy-2-(5-(methylsulfanyl)-2-(trifluoromethyl)phenyl)-3-phenylprop-2-enethioate'
_symmetry_cell_setting           triclinic
_symmetry_space_group_name_H-M   'P -1'
_symmetry_Int_Tables_number      2
_space_group_name_Hall           '-P 1'
loop_
_symmetry_equiv_pos_site_id
_symmetry_equiv_pos_as_xyz
1 x,y,z
2 -x,-y,-z
_cell_length_a                   7.6211(19)
_cell_length_b                   9.961(2)
_cell_length_c                   12.646(3)
_cell_angle_alpha                102.593(19)
_cell_angle_beta                 106.10(2)
_cell_angle_gamma                96.22(2)
_cell_volume                     885.457
_exptl_crystal_colour            colorless
_exptl_crystal_description       bulk
_cell_formula_units_Z            2
loop_
_atom_site_label
_atom_site_type_symbol
_atom_site_fract_x
_atom_site_fract_y
_atom_site_fract_z
C1 C 0.4164(5) 0.1758(3) 0.6555(3)
C2 C 0.5893(4) 0.1239(3) 0.7043(3)
C3 C 0.5865(5) -0.0208(3) 0.6782(3)
H1 H 0.4796 -0.0811 0.6286
C4 C 0.7392(6) -0.0746(3) 0.7249(3)
H2 H 0.7349 -0.1708 0.7062
C5 C 0.8995(5) 0.0127(3) 0.7993(3)
C6 C 0.9048(4) 0.1580(3) 0.8239(3)
H3 H 1.0126 0.2177 0.8730
C7 C 0.7524(4) 0.2141(3) 0.7762(2)
C8 C 1.2512(6) 0.0744(5) 0.9592(4)
H4 H 1.3572 0.0392 0.9966
H5 H 1.1988 0.1209 1.0148
H6 H 1.2885 0.1393 0.9201
C9 C 0.7716(4) 0.3708(3) 0.8076(2)
C10 C 0.7598(4) 0.4387(3) 0.9188(2)
C11 C 0.7006(5) 0.4493(5) 1.1235(3)
H7 H 0.6758 0.4006 1.1769
H8 H 0.6022 0.4996 1.1004
H9 H 0.8161 0.5139 1.1587
C12 C 0.7994(4) 0.4514(3) 0.7370(2)
C13 C 0.8142(4) 0.4019(3) 0.6218(3)
C14 C 0.9040(4) 0.2906(3) 0.5913(3)
H10 H 0.9572 0.2439 0.6448
C15 C 0.9129(5) 0.2508(4) 0.4819(3)
H11 H 0.9744 0.1781 0.4625
C16 C 0.8329(5) 0.3164(4) 0.4012(3)
H12 H 0.8379 0.2870 0.3272
C17 C 0.7443(5) 0.4267(4) 0.4300(3)
H13 H 0.6899 0.4717 0.3755
C18 C 0.7370(5) 0.4697(4) 0.5397(3)
H14 H 0.6796 0.5451 0.5590
O1 O 0.8139(3) 0.5910(2) 0.7675(2)
H15 H 0.8047 0.6155 0.8317
O2 O 0.7768(3) 0.5673(2) 0.95494(19)
F1 F 0.4285(3) 0.2485(3) 0.5808(3)
F2 F 0.2715(3) 0.0771(3) 0.6025(3)
F3 F 0.3703(4) 0.2653(4) 0.7322(2)
S1 S 0.71487(13) 0.32570(9) 1.00089(7)
S2 S 1.08246(16) -0.06692(10) 0.85932(10)
loop_
_geom_bond_atom_site_label_1
_geom_bond_atom_site_label_2
_geom_bond_site_symmetry_1
_geom_bond_site_symmetry_2
C1 C2 1_555 1_555
C2 C3 1_555 1_555
C3 H1 1_555 1_555
C4 C3 1_555 1_555
H2 C4 1_555 1_555
C5 C4 1_555 1_555
C6 C5 1_555 1_555
H3 C6 1_555 1_555
C7 C2 1_555 1_555
C8 H4 1_555 1_555
H5 C8 1_555 1_555
H6 C8 1_555 1_555
C9 C7 1_555 1_555
C10 C9 1_555 1_555
C11 H7 1_555 1_555
H8 C11 1_555 1_555
H9 C11 1_555 1_555
C12 C9 1_555 1_555
C13 C12 1_555 1_555
C14 C13 1_555 1_555
H10 C14 1_555 1_555
C15 C14 1_555 1_555
H11 C15 1_555 1_555
C16 C15 1_555 1_555
H12 C16 1_555 1_555
C17 C16 1_555 1_555
H13 C17 1_555 1_555
C18 C13 1_555 1_555
H14 C18 1_555 1_555
O1 C12 1_555 1_555
H15 O1 1_555 1_555
O2 C10 1_555 1_555
F1 C1 1_555 1_555
F2 C1 1_555 1_555
F3 C1 1_555 1_555
S1 C10 1_555 1_555
S2 C5 1_555 1_555
C6 C7 1_555 1_555
C8 S2 1_555 1_555
C11 S1 1_555 1_555
C17 C18 1_555 1_555

#END
