
#######################################################################
#
#                 Cambridge Crystallographic Data Centre
#                                CCDC 
#
#######################################################################
#
# If this CIF has been generated from an entry in the Cambridge 
# Structural Database, then it will include bibliographic, chemical, 
# crystal, experimental, refinement or atomic coordinate data resulting 
# from the CCDC's data processing and validation procedures.
#
#######################################################################

data_FIXTEL
_chemical_formula_moiety         'C38 H65 N1 O6'
_chemical_name_systematic        N-(Cholesteryloxycarbonyl)aza-15-crown-5
_symmetry_cell_setting           monoclinic
_symmetry_space_group_name_H-M   'P 21'
_symmetry_Int_Tables_number      4
_space_group_name_Hall           'P 2yb'
loop_
_symmetry_equiv_pos_site_id
_symmetry_equiv_pos_as_xyz
1 x,y,z
2 -x,1/2+y,-z
_cell_length_a                   12.293(2)
_cell_length_b                   9.027(4)
_cell_length_c                   16.858(2)
_cell_angle_alpha                90
_cell_angle_beta                 92.34(1)
_cell_angle_gamma                90
_cell_volume                     1869.15
_exptl_crystal_colour            white
_chemical_melting_point          96-98deg.C
_cell_formula_units_Z            2
loop_
_atom_site_label
_atom_site_type_symbol
_atom_site_fract_x
_atom_site_fract_y
_atom_site_fract_z
O1 O 0.6352(2) 1.0000 0.1934(2)
O2 O 0.5122(3) 0.8654(6) 0.2580(2)
O3 O 0.4700(4) 1.0561(8) -0.0219(2)
O4 O 0.2749(4) 1.0304(12) -0.1043(3)
O5 O 0.1722(3) 0.9317(8) 0.1313(2)
O6 O 0.1203(8) 0.8592(15) -0.0336(6)
N1 N 0.4614(3) 1.0270(6) 0.1597(2)
C1 C 0.9232(4) 0.9163(7) 0.2576(3)
C2 C 0.8235(4) 0.9472(7) 0.2018(3)
C3 C 0.7216(4) 0.9561(7) 0.2479(3)
C4 C 0.7318(4) 1.0632(7) 0.3150(3)
C5 C 0.8335(3) 1.0434(6) 0.3687(3)
C6 C 0.8276(3) 1.0391(6) 0.4462(3)
C7 C 0.9228(3) 1.0257(6) 0.5038(2)
C8 C 1.0317(3) 1.0514(6) 0.4645(2)
C9 C 1.0316(3) 0.9719(6) 0.3848(2)
C10 C 0.9401(3) 1.0289(6) 0.3266(2)
C11 C 1.1444(3) 0.9669(7) 0.3497(2)
C12 C 1.2367(3) 0.9196(6) 0.4081(2)
C13 C 1.2382(3) 1.0143(6) 0.4837(2)
C14 C 1.1255(3) 0.9978(6) 0.5181(2)
C15 C 1.1384(3) 1.0649(7) 0.6004(2)
C16 C 1.2543(3) 1.0182(7) 0.6281(3)
C17 C 1.3112(3) 0.9578(6) 0.5546(2)
C18 C 1.2649(4) 1.1755(6) 0.4658(3)
C19 C 0.9700(4) 1.1821(7) 0.2929(3)
C20 C 1.4335(3) 0.9940(6) 0.5581(3)
C21 C 1.4909(4) 0.9459(8) 0.4840(3)
C22 C 1.4904(4) 0.9299(7) 0.6329(3)
C23 C 1.5963(4) 1.0017(7) 0.6577(3)
C24 C 1.6463(4) 0.9394(9) 0.7343(3)
C25 C 1.7397(4) 1.0251(10) 0.7730(3)
C26 C 1.8329(5) 1.0403(11) 0.7235(4)
C27 C 1.7741(5) 0.9545(14) 0.8538(4)
C28 C 0.5326(4) 0.9580(8) 0.2084(3)
C29 C 0.4953(5) 1.1502(8) 0.1102(4)
C30 C 0.5469(5) 1.1120(10) 0.0345(3)
C31 C 0.4501(6) 1.1246(11) -0.0841(4)
C32 C 0.3639(5) 1.0714(11) -0.1363(3)
C33 C 0.1872(7) 0.9800(16) -0.1450(4)
C34 C 0.0985(7) 0.9347(16) -0.0984(4)
C35 C 0.0444(10) 0.8786(18) 0.0216(7)
C36 C 0.1011(9) 0.8239(14) 0.0784(6)
C37 C 0.2827(5) 0.9396(12) 0.1112(4)
C38 C 0.3447(5) 1.0083(10) 0.1754(3)
H1 H 0.9870 0.9187 0.2261
H2 H 0.9159 0.8203 0.2787
H3 H 0.8175 0.8683 0.1633
H4 H 0.8352 1.0375 0.1740
H5 H 0.7075 0.8622 0.2701
H6 H 0.6709 1.0522 0.3469
H7 H 0.7331 1.1611 0.2939
H8 H 0.7574 1.0438 0.4674
H9 H 0.9237 0.9295 0.5260
H10 H 0.9158 1.0974 0.5444
H11 H 1.0403 1.1550 0.4560
H12 H 1.0144 0.8709 0.3936
H13 H 1.1608 1.0633 0.3300
H14 H 1.1413 0.8990 0.3063
H15 H 1.3039 0.9309 0.3834
H16 H 1.2262 0.8193 0.4223
H17 H 1.1017 0.8983 0.5220
H18 H 1.0859 1.0270 0.6350
H19 H 1.1331 1.1702 0.5989
H20 H 1.2497 0.9414 0.6672
H21 H 1.2926 1.0994 0.6503
H22 H 1.3150 0.8538 0.5512
H23 H 1.3351 1.1822 0.4441
H24 H 1.2123 1.2147 0.4277
H25 H 1.2636 1.2331 0.5128
H26 H 1.0371 1.1739 0.2657
H27 H 0.9145 1.2133 0.2549
H28 H 0.97820 1.2525 0.3336
H29 H 1.4378 1.0998 0.5617
H30 H 1.5655 0.9705 0.4895
H31 H 1.4838 0.8415 0.4779
H32 H 1.4585 0.9944 0.4391
H33 H 1.5046 0.8278 0.6227
H34 H 1.4428 0.9377 0.6755
H35 H 1.5834 1.1051 0.6637
H36 H 1.6460 0.9870 0.6167
H37 H 1.6712 0.8441 0.7246
H38 H 1.5903 0.9379 0.7720
H39 H 1.7143 1.1218 0.7833
H40 H 1.8889 1.0943 0.7523
H41 H 1.8588 0.9465 0.7099
H42 H 1.8108 1.0947 0.6777
H43 H 1.8342 1.0116 0.8770
H44 H 1.7154 0.9599 0.8881
H45 H 1.7965 0.8570 0.8464
H46 H 0.5484 1.2078 0.1407
H47 H 0.4345 1.2117 0.0977
H48 H 0.6015 1.0418 0.0445
H49 H 0.5779 1.2006 0.0131
H50 H 0.5108 1.1192 -0.1161
H51 H 0.4332 1.2234 -0.0720
H52 H 0.3816 0.9877 -0.1641
H53 H 0.3373 1.1483 -0.1713
H54 H 0.1965 0.8936 -0.1719
H55 H 0.1480 1.0522 -0.1752
H56 H 0.2833 0.9990 0.0638
H57 H 0.3053 0.8436 0.1003
H58 H 0.3377 0.9469 0.2203
H59 H 0.3137 1.1026 0.1848
loop_
_geom_bond_atom_site_label_1
_geom_bond_atom_site_label_2
_geom_bond_site_symmetry_1
_geom_bond_site_symmetry_2
O1 C3 1_555 1_555
O2 C28 1_555 1_555
O3 C30 1_555 1_555
O4 C32 1_555 1_555
O5 C36 1_555 1_555
O6 C34 1_555 1_555
N1 C28 1_555 1_555
C1 C2 1_555 1_555
C2 C3 1_555 1_555
C3 C4 1_555 1_555
C4 C5 1_555 1_555
C5 C6 1_555 1_555
C6 C7 1_555 1_555
C7 C8 1_555 1_555
C8 C9 1_555 1_555
C9 C10 1_555 1_555
C10 C1 1_555 1_555
C11 C9 1_555 1_555
C12 C11 1_555 1_555
C13 C12 1_555 1_555
C14 C8 1_555 1_555
C15 C14 1_555 1_555
C16 C15 1_555 1_555
C17 C13 1_555 1_555
C18 C13 1_555 1_555
C19 C10 1_555 1_555
C20 C17 1_555 1_555
C21 C20 1_555 1_555
C22 C20 1_555 1_555
C23 C22 1_555 1_555
C24 C23 1_555 1_555
C25 C24 1_555 1_555
C26 C25 1_555 1_555
C27 C25 1_555 1_555
C28 O1 1_555 1_555
C29 N1 1_555 1_555
C30 C29 1_555 1_555
C31 O3 1_555 1_555
C32 C31 1_555 1_555
C33 O4 1_555 1_555
C34 C33 1_555 1_555
C35 O6 1_555 1_555
C36 C35 1_555 1_555
C37 O5 1_555 1_555
C38 N1 1_555 1_555
H1 C1 1_555 1_555
H2 C1 1_555 1_555
H3 C2 1_555 1_555
H4 C2 1_555 1_555
H5 C3 1_555 1_555
H6 C4 1_555 1_555
H7 C4 1_555 1_555
H8 C6 1_555 1_555
H9 C7 1_555 1_555
H10 C7 1_555 1_555
H11 C8 1_555 1_555
H12 C9 1_555 1_555
H13 C11 1_555 1_555
H14 C11 1_555 1_555
H15 C12 1_555 1_555
H16 C12 1_555 1_555
H17 C14 1_555 1_555
H18 C15 1_555 1_555
H19 C15 1_555 1_555
H20 C16 1_555 1_555
H21 C16 1_555 1_555
H22 C17 1_555 1_555
H23 C18 1_555 1_555
H24 C18 1_555 1_555
H25 C18 1_555 1_555
H26 C19 1_555 1_555
H27 C19 1_555 1_555
H28 C19 1_555 1_555
H29 C20 1_555 1_555
H30 C21 1_555 1_555
H31 C21 1_555 1_555
H32 C21 1_555 1_555
H33 C22 1_555 1_555
H34 C22 1_555 1_555
H35 C23 1_555 1_555
H36 C23 1_555 1_555
H37 C24 1_555 1_555
H38 C24 1_555 1_555
H39 C25 1_555 1_555
H40 C26 1_555 1_555
H41 C26 1_555 1_555
H42 C26 1_555 1_555
H43 C27 1_555 1_555
H44 C27 1_555 1_555
H45 C27 1_555 1_555
H46 C29 1_555 1_555
H47 C29 1_555 1_555
H48 C30 1_555 1_555
H49 C30 1_555 1_555
H50 C31 1_555 1_555
H51 C31 1_555 1_555
H52 C32 1_555 1_555
H53 C32 1_555 1_555
H54 C33 1_555 1_555
H55 C33 1_555 1_555
H56 C37 1_555 1_555
H57 C37 1_555 1_555
H58 C38 1_555 1_555
H59 C38 1_555 1_555
C5 C10 1_555 1_555
C13 C14 1_555 1_555
C16 C17 1_555 1_555
C37 C38 1_555 1_555

#END
