
#######################################################################
#
#                 Cambridge Crystallographic Data Centre
#                                CCDC 
#
#######################################################################
#
# If this CIF has been generated from an entry in the Cambridge 
# Structural Database, then it will include bibliographic, chemical, 
# crystal, experimental, refinement or atomic coordinate data resulting 
# from the CCDC's data processing and validation procedures.
#
#######################################################################

data_FIXZUK
_chemical_formula_moiety         'C20 H12,C10 F8'
_chemical_name_systematic        'octafluoronaphthalene perylene'
_symmetry_cell_setting           triclinic
_symmetry_space_group_name_H-M   'P -1'
_symmetry_Int_Tables_number      2
_space_group_name_Hall           '-P 1'
loop_
_symmetry_equiv_pos_site_id
_symmetry_equiv_pos_as_xyz
1 x,y,z
2 -x,-y,-z
_cell_length_a                   6.886(3)
_cell_length_b                   8.354(4)
_cell_length_c                   10.719(5)
_cell_angle_alpha                110.720(5)
_cell_angle_beta                 102.299(5)
_cell_angle_gamma                100.177(5)
_cell_volume                     541.641
_exptl_crystal_colour            yellow
_exptl_crystal_description       block
_cell_formula_units_Z            1
loop_
_atom_site_label
_atom_site_type_symbol
_atom_site_fract_x
_atom_site_fract_y
_atom_site_fract_z
C1 C 1.0287(7) 0.7278(7) 0.3574(6)
H1 H 1.0859 0.8500 0.4073
C2 C 0.9583(9) 0.6589(11) 0.2118(7)
H2 H 0.9712 0.7347 0.1663
C3 C 0.9277(5) 0.4331(6) 0.3515(4)
C4 C 0.8728(8) 0.4851(10) 0.1381(6)
H3 H 0.8219 0.4413 0.0412
C5 C 0.8577(7) 0.3668(8) 0.2032(5)
C6 C 0.7689(8) 0.1802(10) 0.1235(6)
H4 H 0.7229 0.1358 0.0265
C7 C 0.9101(5) 0.3114(5) 0.4174(4)
C8 C 0.7509(9) 0.0692(9) 0.1859(7)
H5 H 0.6915 -0.0519 0.1317
C9 C 0.8205(7) 0.1315(6) 0.3339(6)
H6 H 0.8058 0.0509 0.3752
C10 C 1.0162(5) 0.6199(5) 0.4306(4)
C1A C 0.9713(7) 0.2722(7) 0.6426(6)
H1A H 0.9141 0.1500 0.5927
C2A C 1.0417(9) 0.3411(11) 0.7882(7)
H2A H 1.0288 0.2653 0.8337
C3A C 1.0723(5) 0.5669(6) 0.6485(4)
C4A C 1.1272(8) 0.5149(10) 0.8619(6)
H3A H 1.1781 0.5587 0.9588
C5A C 1.1423(7) 0.6332(8) 0.7968(5)
C6A C 1.2311(8) 0.8198(10) 0.8765(6)
H4A H 1.2771 0.8642 0.9735
C7A C 1.0899(5) 0.6886(5) 0.5826(4)
C8A C 1.2491(9) 0.9308(9) 0.8141(7)
H5A H 1.3085 1.0519 0.8683
C9A C 1.1795(7) 0.8685(6) 0.6661(6)
H6A H 1.1942 0.9491 0.6248
C10A C 0.9838(5) 0.3801(5) 0.5694(4)
F1 F 0.3021(5) 0.1406(6) 0.2594(5)
F2 F 0.3139(11) 0.333(2) 0.1015(6)
F3 F 0.4616(7) 0.6812(7) 0.2170(5)
F4 F 0.6131(5) 0.8625(4) 0.4998(5)
C11 C 0.3815(7) 0.3153(8) 0.3230(7)
C12 C 0.3846(8) 0.4099(10) 0.2405(5)
C13 C 0.4631(8) 0.5947(10) 0.2992(7)
C14 C 0.5361(8) 0.6801(9) 0.4379(8)
C15 C 0.5375(6) 0.5905(6) 0.5249(5)
F1A F 0.6979(5) 0.8594(6) 0.7406(5)
F2A F 0.6861(11) 0.667(2) 0.8985(6)
F3A F 0.5384(7) 0.3188(7) 0.7830(5)
F4A F 0.3869(5) 0.1375(4) 0.5002(5)
C11A C 0.6185(7) 0.6847(8) 0.6770(7)
C12A C 0.6154(8) 0.5901(10) 0.7595(5)
C13A C 0.5369(8) 0.4053(10) 0.7008(7)
C14A C 0.4639(8) 0.3199(9) 0.5621(8)
C15A C 0.4625(6) 0.4095(6) 0.4751(5)
F5? F 0.287(6) 0.257(9) 0.113(3)
loop_
_geom_bond_atom_site_label_1
_geom_bond_atom_site_label_2
_geom_bond_site_symmetry_1
_geom_bond_site_symmetry_2
C1 H1 1_555 1_555
C2 C1 1_555 1_555
H2 C2 1_555 1_555
C3 C5 1_555 1_555
C4 C2 1_555 1_555
H3 C4 1_555 1_555
C5 C4 1_555 1_555
C6 C5 1_555 1_555
H4 C6 1_555 1_555
C7 C3 1_555 1_555
C8 C6 1_555 1_555
H5 C8 1_555 1_555
C9 C7 1_555 1_555
H6 C9 1_555 1_555
C10 C1 1_555 1_555
F1 C11 1_555 1_555
F2 C12 1_555 1_555
F3 C13 1_555 1_555
F4 C14 1_555 1_555
C11 C12 1_555 1_555
C12 C13 1_555 1_555
C13 C14 1_555 1_555
C14 C15 1_555 1_555
C15 C11A 1_555 1_555
C1A H1A 1_555 1_555
C2A C1A 1_555 1_555
H2A C2A 1_555 1_555
C3A C5A 1_555 1_555
C4A C2A 1_555 1_555
H3A C4A 1_555 1_555
C5A C4A 1_555 1_555
C6A C5A 1_555 1_555
H4A C6A 1_555 1_555
C7A C10 1_555 1_555
C8A C6A 1_555 1_555
H5A C8A 1_555 1_555
C9A C7A 1_555 1_555
H6A C9A 1_555 1_555
C10A C7 1_555 1_555
F1A C11A 1_555 1_555
F2A C12A 1_555 1_555
F3A C13A 1_555 1_555
F4A C14A 1_555 1_555
C11A C12A 1_555 1_555
C12A C13A 1_555 1_555
C13A C14A 1_555 1_555
C14A C15A 1_555 1_555
C15A C11 1_555 1_555
C3 C10 1_555 1_555
C8 C9 1_555 1_555
C15 C15A 1_555 1_555
C1A C10A 1_555 1_555
C3A C7A 1_555 1_555
C3A C10A 1_555 1_555
C8A C9A 1_555 1_555

#END
