
#######################################################################
#
#                 Cambridge Crystallographic Data Centre
#                                CCDC 
#
#######################################################################
#
# If this CIF has been generated from an entry in the Cambridge 
# Structural Database, then it will include bibliographic, chemical, 
# crystal, experimental, refinement or atomic coordinate data resulting 
# from the CCDC's data processing and validation procedures.
#
#######################################################################

data_FIXZOB
_chemical_formula_moiety         'C11 H21 N1 O1'
_chemical_name_systematic        1-t-Butylhexahydroazocin-5-one
_symmetry_cell_setting           triclinic
_symmetry_space_group_name_H-M   'P -1'
_symmetry_Int_Tables_number      2
_space_group_name_Hall           '-P 1'
loop_
_symmetry_equiv_pos_site_id
_symmetry_equiv_pos_as_xyz
1 x,y,z
2 -x,-y,-z
_cell_length_a                   5.966(3)
_cell_length_b                   7.737(3)
_cell_length_c                   12.492(5)
_cell_angle_alpha                101.83(3)
_cell_angle_beta                 93.34(4)
_cell_angle_gamma                102.81(4)
_cell_volume                     547.064
_chemical_melting_point          41deg.C
_cell_formula_units_Z            2
loop_
_atom_site_label
_atom_site_type_symbol
_atom_site_fract_x
_atom_site_fract_y
_atom_site_fract_z
O1 O 0.5407(1) 0.5174(1) 0.3476(1)
N1 N 0.2179(1) 0.7576(1) 0.2464(1)
C1 C 0.0107(1) 0.6098(1) 0.2051(1)
C2 C 0.0536(2) 0.4240(1) 0.2100(1)
C3 C 0.1313(2) 0.4149(1) 0.3273(1)
C4 C 0.3578(2) 0.5508(1) 0.3733(1)
C5 C 0.3530(2) 0.7171(1) 0.4606(1)
C6 C 0.1557(2) 0.8075(1) 0.4427(1)
C7 C 0.1782(2) 0.8892(1) 0.3414(1)
C8 C 0.3383(1) 0.8374(1) 0.1604(1)
C9 C 0.3981(2) 0.6849(1) 0.0759(1)
C10 C 0.1927(2) 0.9381(2) 0.1021(1)
C11 C 0.5669(2) 0.9703(1) 0.2130(1)
H1 H -0.1132 0.6281 0.2485
H2 H -0.0344 0.6070 0.1297
H3 H -0.0868 0.3323 0.1841
H4 H 0.1701 0.4021 0.1625
H5 H 0.1607 0.2983 0.3282
H6 H 0.0147 0.4359 0.3750
H7 H 0.3424 0.6757 0.5280
H8 H 0.4980 0.8034 0.4644
H9 H 0.1648 0.9059 0.5052
H10 H 0.0093 0.7216 0.4355
H11 H 0.3099 0.9912 0.3559
H12 H 0.0412 0.9302 0.3295
H13 H 0.4863 0.7392 0.0240
H14 H 0.2605 0.6000 0.0378
H15 H 0.4883 0.6223 0.1126
H16 H 0.2838 0.9901 0.0504
H17 H 0.1585 1.0336 0.1563
H18 H 0.0516 0.8583 0.0641
H19 H 0.6629 0.9951 0.1560
H20 H 0.6427 0.9159 0.2619
H21 H 0.5394 1.0819 0.2534
loop_
_geom_bond_atom_site_label_1
_geom_bond_atom_site_label_2
_geom_bond_site_symmetry_1
_geom_bond_site_symmetry_2
O1 C4 1_555 1_555
N1 C1 1_555 1_555
C1 C2 1_555 1_555
C2 C3 1_555 1_555
C3 C4 1_555 1_555
C4 C5 1_555 1_555
C5 C6 1_555 1_555
C6 C7 1_555 1_555
C7 N1 1_555 1_555
C8 N1 1_555 1_555
C9 C8 1_555 1_555
C10 C8 1_555 1_555
C11 C8 1_555 1_555
H1 C1 1_555 1_555
H2 C1 1_555 1_555
H3 C2 1_555 1_555
H4 C2 1_555 1_555
H5 C3 1_555 1_555
H6 C3 1_555 1_555
H7 C5 1_555 1_555
H8 C5 1_555 1_555
H9 C6 1_555 1_555
H10 C6 1_555 1_555
H11 C7 1_555 1_555
H12 C7 1_555 1_555
H13 C9 1_555 1_555
H14 C9 1_555 1_555
H15 C9 1_555 1_555
H16 C10 1_555 1_555
H17 C10 1_555 1_555
H18 C10 1_555 1_555
H19 C11 1_555 1_555
H20 C11 1_555 1_555
H21 C11 1_555 1_555

#END
