
#######################################################################
#
#                 Cambridge Crystallographic Data Centre
#                                CCDC 
#
#######################################################################
#
# If this CIF has been generated from an entry in the Cambridge 
# Structural Database, then it will include bibliographic, chemical, 
# crystal, experimental, refinement or atomic coordinate data resulting 
# from the CCDC's data processing and validation procedures.
#
#######################################################################

data_FIXZOC
_chemical_formula_moiety         'C30 H30 N2 O2'
_chemical_name_systematic        
1,8[1,4],4,12[1,2]-tetrabenzena-3,13-dioxa-6,10-diazacyclotetradecaphane
_symmetry_cell_setting           triclinic
_symmetry_space_group_name_H-M   'P -1'
_symmetry_Int_Tables_number      2
_space_group_name_Hall           '-P 1'
loop_
_symmetry_equiv_pos_site_id
_symmetry_equiv_pos_as_xyz
1 x,y,z
2 -x,-y,-z
_cell_length_a                   9.6540(16)
_cell_length_b                   10.0092(19)
_cell_length_c                   13.960(3)
_cell_angle_alpha                84.23(2)
_cell_angle_beta                 72.754(15)
_cell_angle_gamma                68.424(17)
_cell_volume                     1197.97
_exptl_crystal_colour            colorless
_exptl_crystal_description       parallelepiped
_chemical_melting_point          135-136deg.C
_cell_formula_units_Z            2
_exptl_crystal_recrystallization_method acetonitrile
loop_
_atom_site_label
_atom_site_type_symbol
_atom_site_fract_x
_atom_site_fract_y
_atom_site_fract_z
O1 O 0.15324(17) 0.91724(14) 0.80460(10)
O2 O 0.33307(18) 0.53319(15) 0.38247(11)
N1 N 0.4130(2) 0.81316(19) 0.16121(14)
H1 H 0.461(3) 0.791(3) 0.100(2)
N2 N 0.1282(2) 1.1463(2) 0.65710(12)
H2 H 0.161(3) 1.054(2) 0.6578(16)
C1 C 0.2415(3) 0.7691(2) 0.81555(16)
H3 H 0.1914 0.7317 0.8774
H4 H 0.3449 0.7582 0.8170
C2 C 0.2497(3) 0.6903(2) 0.72719(16)
C3 C 0.1909(3) 0.5820(3) 0.73741(18)
H5 H 0.1439 0.5567 0.8013
C4 C 0.1999(3) 0.5099(3) 0.65502(18)
H6 H 0.1607 0.4360 0.6643
C5 C 0.3191(3) 0.7245(2) 0.63115(16)
H7 H 0.3618 0.7959 0.6221
C6 C 0.3264(2) 0.6550(2) 0.54812(16)
H8 H 0.3721 0.6811 0.4842
C7 C 0.2661(2) 0.5463(2) 0.55971(16)
C8 C 0.2708(3) 0.4687(2) 0.47102(16)
H9 H 0.3348 0.3681 0.4719
H10 H 0.1669 0.4750 0.4740
C9 C 0.3280(2) 0.4973(2) 0.29156(16)
C10 C 0.2781(3) 0.3890(2) 0.27797(18)
H11 H 0.2478 0.3335 0.3318
C11 C 0.2740(3) 0.3648(3) 0.18346(19)
H12 H 0.2412 0.2921 0.1735
C12 C 0.3177(3) 0.4467(3) 0.10445(19)
H13 H 0.3140 0.4303 0.0410
C13 C 0.3679(3) 0.5548(2) 0.11937(17)
H14 H 0.3972 0.6104 0.0653
C14 C 0.3750(2) 0.5812(2) 0.21211(16)
C15 C 0.4267(3) 0.6971(2) 0.23277(17)
H15 H 0.3658 0.7370 0.2991
H16 H 0.5343 0.6540 0.2335
C16 C 0.4591(3) 0.9247(2) 0.18932(14)
H17 H 0.4557 0.9972 0.1376
H18 H 0.5652 0.8820 0.1931
C17 C 0.3557(2) 0.9955(2) 0.28856(14)
C18 C 0.1951(2) 1.0519(2) 0.30822(15)
H19 H 0.1505 1.0479 0.2585
C19 C 0.1006(2) 1.1137(2) 0.39966(14)
H20 H -0.0065 1.1507 0.4106
C20 C 0.4171(2) 1.0039(2) 0.36413(15)
H21 H 0.5241 0.9665 0.3533
C21 C 0.3223(2) 1.0672(2) 0.45616(15)
H22 H 0.3671 1.0729 0.5054
C22 C 0.1631(2) 1.12166(19) 0.47589(14)
C23 C 0.0570(2) 1.1902(2) 0.57526(14)
H23 H 0.0251 1.2938 0.5689
H24 H -0.0355 1.1655 0.5916
C24 C 0.0145(2) 1.1989(2) 0.75376(14)
H25 H -0.0672 1.1600 0.7644
H26 H -0.0321 1.3026 0.7512
C25 C 0.0816(2) 1.1598(2) 0.84143(14)
C26 C 0.0728(3) 1.2657(3) 0.90177(16)
H27 H 0.0287 1.3616 0.8858
C27 C 0.1281(3) 1.2324(3) 0.98544(17)
H28 H 0.1226 1.3052 1.0245
C28 C 0.1909(3) 1.0918(3) 1.01008(16)
H29 H 0.2263 1.0691 1.0669
C29 C 0.2025(3) 0.9827(3) 0.95127(15)
H30 H 0.2459 0.8871 0.9682
C30 C 0.1491(2) 1.0168(2) 0.86737(14)
loop_
_geom_bond_atom_site_label_1
_geom_bond_atom_site_label_2
_geom_bond_site_symmetry_1
_geom_bond_site_symmetry_2
O1 C1 1_555 1_555
O2 C8 1_555 1_555
N1 H1 1_555 1_555
N2 H2 1_555 1_555
C1 H3 1_555 1_555
H4 C1 1_555 1_555
C2 C1 1_555 1_555
C3 C2 1_555 1_555
H5 C3 1_555 1_555
C4 C3 1_555 1_555
H6 C4 1_555 1_555
C5 C2 1_555 1_555
H7 C5 1_555 1_555
C6 C5 1_555 1_555
H8 C6 1_555 1_555
C7 C4 1_555 1_555
C8 C7 1_555 1_555
H9 C8 1_555 1_555
H10 C8 1_555 1_555
C9 O2 1_555 1_555
C10 C9 1_555 1_555
H11 C10 1_555 1_555
C11 C10 1_555 1_555
H12 C11 1_555 1_555
C12 C11 1_555 1_555
H13 C12 1_555 1_555
C13 C12 1_555 1_555
H14 C13 1_555 1_555
C14 C9 1_555 1_555
C15 N1 1_555 1_555
H15 C15 1_555 1_555
H16 C15 1_555 1_555
C16 N1 1_555 1_555
H17 C16 1_555 1_555
H18 C16 1_555 1_555
C17 C16 1_555 1_555
C18 C17 1_555 1_555
H19 C18 1_555 1_555
C19 C18 1_555 1_555
H20 C19 1_555 1_555
C20 C17 1_555 1_555
H21 C20 1_555 1_555
C21 C20 1_555 1_555
H22 C21 1_555 1_555
C22 C19 1_555 1_555
C23 N2 1_555 1_555
H23 C23 1_555 1_555
H24 C23 1_555 1_555
C24 N2 1_555 1_555
H25 C24 1_555 1_555
H26 C24 1_555 1_555
C25 C24 1_555 1_555
C26 C25 1_555 1_555
H27 C26 1_555 1_555
C27 C26 1_555 1_555
H28 C27 1_555 1_555
C28 C27 1_555 1_555
H29 C28 1_555 1_555
C29 C28 1_555 1_555
H30 C29 1_555 1_555
C30 O1 1_555 1_555
C6 C7 1_555 1_555
C13 C14 1_555 1_555
C14 C15 1_555 1_555
C21 C22 1_555 1_555
C22 C23 1_555 1_555
C25 C30 1_555 1_555
C29 C30 1_555 1_555

#END
