
#######################################################################
#
#                 Cambridge Crystallographic Data Centre
#                                CCDC 
#
#######################################################################
#
# If this CIF has been generated from an entry in the Cambridge 
# Structural Database, then it will include bibliographic, chemical, 
# crystal, experimental, refinement or atomic coordinate data resulting 
# from the CCDC's data processing and validation procedures.
#
#######################################################################

data_FIXZOE
_chemical_formula_moiety         'C20 H11 F9 N4 O2'
_chemical_name_systematic        
1-[3,3,4,4,5,5,6,6,6-nonafluoro-1-(4-nitrophenyl)hex-1-en-1-yl]-4-phenyl-1H-1,2,3-triazole
_symmetry_cell_setting           monoclinic
_symmetry_space_group_name_H-M   'P 21/n'
_symmetry_Int_Tables_number      14
_space_group_name_Hall           '-P 2yn'
loop_
_symmetry_equiv_pos_site_id
_symmetry_equiv_pos_as_xyz
1 x,y,z
2 1/2-x,1/2+y,1/2-z
3 -x,-y,-z
4 1/2+x,1/2-y,1/2+z
_cell_length_a                   9.648(4)
_cell_length_b                   8.528(3)
_cell_length_c                   26.015(10)
_cell_angle_alpha                90
_cell_angle_beta                 92.544(7)
_cell_angle_gamma                90
_cell_volume                     2138.36
_exptl_crystal_colour            colorless
_exptl_crystal_description       Prism
_cell_formula_units_Z            4
loop_
_atom_site_label
_atom_site_type_symbol
_atom_site_fract_x
_atom_site_fract_y
_atom_site_fract_z
N1 N -0.26203(17) -1.00945(18) 0.10029(6)
O1 O -0.6996(2) -1.6320(3) 0.02373(10)
O2 O -0.5438(3) -1.7784(2) 0.05907(11)
N2 N -0.5941(2) -1.6509(3) 0.05032(9)
C1 C -0.0545(2) -0.7187(3) -0.02349(9)
H1 H -0.0352 -0.6541 0.0047
C2 C -0.0123(3) -0.6751(3) -0.07132(10)
H2 H 0.0348 -0.5810 -0.0752
C3 C -0.12599(19) -0.8591(2) -0.01708(8)
C4 C -0.1514(2) -0.9548(3) -0.05963(8)
H3 H -0.1976 -1.0496 -0.0560
C5 C -0.0395(3) -0.7702(3) -0.11340(10)
H4 H -0.0114 -0.7400 -0.1457
C6 C -0.5239(2) -1.5100(2) 0.07230(8)
C7 C -0.5815(2) -1.3651(3) 0.06338(10)
H5 H -0.6639 -1.3546 0.0437
C8 C -0.1083(3) -0.9099(3) -0.10752(9)
H6 H -0.1259 -0.9746 -0.1358
C9 C -0.17493(19) -0.9023(2) 0.03378(7)
C10 C -0.3925(2) -1.2515(2) 0.11373(8)
N3 N -0.1576(2) -0.8037(2) 0.07506(7)
C11 C -0.2407(2) -1.0341(2) 0.04974(7)
H7 H -0.2656 -1.1218 0.0302
C12 C -0.4024(2) -1.5302(3) 0.10121(10)
H8 H -0.3654 -1.6297 0.1069
C13 C -0.3366(2) -1.3987(3) 0.12158(9)
H9 H -0.2536 -1.4097 0.1408
C14 C -0.5147(2) -1.2350(3) 0.08411(9)
H10 H -0.5520 -1.1357 0.0782
C15 C -0.3224(2) -1.1108(2) 0.13685(8)
N4 N -0.2098(2) -0.8678(2) 0.11536(7)
F1 F -0.6021(2) -1.1057(3) 0.20380(6)
F2 F -0.5021(3) -1.1094(3) 0.33435(6)
F3 F -0.3897(2) -1.30744(19) 0.22311(7)
F4 F -0.2866(2) -1.1392(3) 0.27259(7)
F5 F -0.4958(2) -0.9306(2) 0.25217(8)
F6 F -0.5801(3) -1.3086(2) 0.29008(9)
C16 C -0.3111(3) -1.0710(3) 0.18645(9)
H11 H -0.2585 -0.9822 0.1945
C17 C -0.3735(3) -1.1531(3) 0.23055(9)
C18 C -0.5137(3) -1.0848(3) 0.24448(9)
C19 C -0.5803(4) -1.1521(4) 0.29257(11)
F7 F -0.7371(3) -0.9496(3) 0.30682(10)
F8 F -0.8164(3) -1.1429(4) 0.26339(12)
F9 F -0.7705(4) -1.1666(4) 0.34376(13)
C20 C -0.7295(5) -1.1024(5) 0.30182(16)
loop_
_geom_bond_atom_site_label_1
_geom_bond_atom_site_label_2
_geom_bond_site_symmetry_1
_geom_bond_site_symmetry_2
N1 C11 1_555 1_555
O1 N2 1_555 1_555
O2 N2 1_555 1_555
N2 C6 1_555 1_555
C1 H1 1_555 1_555
C2 C1 1_555 1_555
H2 C2 1_555 1_555
C3 C1 1_555 1_555
C4 C3 1_555 1_555
H3 C4 1_555 1_555
C5 C2 1_555 1_555
H4 C5 1_555 1_555
C6 C7 1_555 1_555
C7 H5 1_555 1_555
C8 C4 1_555 1_555
H6 C8 1_555 1_555
C9 C3 1_555 1_555
C10 C13 1_555 1_555
N3 C9 1_555 1_555
C11 C9 1_555 1_555
H7 C11 1_555 1_555
C12 C6 1_555 1_555
H8 C12 1_555 1_555
C13 C12 1_555 1_555
H9 C13 1_555 1_555
C14 C7 1_555 1_555
H10 C14 1_555 1_555
C15 N1 1_555 1_555
N4 N1 1_555 1_555
F1 C18 1_555 1_555
F2 C19 1_555 1_555
F3 C17 1_555 1_555
F4 C17 1_555 1_555
F5 C18 1_555 1_555
F6 C19 1_555 1_555
C16 C15 1_555 1_555
H11 C16 1_555 1_555
C17 C16 1_555 1_555
C18 C17 1_555 1_555
C19 C18 1_555 1_555
F7 C20 1_555 1_555
F8 C20 1_555 1_555
F9 C20 1_555 1_555
C20 C19 1_555 1_555
C5 C8 1_555 1_555
C10 C14 1_555 1_555
C10 C15 1_555 1_555
N3 N4 1_555 1_555

#END
