
#######################################################################
#
#                 Cambridge Crystallographic Data Centre
#                                CCDC 
#
#######################################################################
#
# If this CIF has been generated from an entry in the Cambridge 
# Structural Database, then it will include bibliographic, chemical, 
# crystal, experimental, refinement or atomic coordinate data resulting 
# from the CCDC's data processing and validation procedures.
#
#######################################################################

data_FIYBIY
_chemical_formula_moiety         'C10 H11 N1 O3 S1'
_chemical_name_systematic        
'6-Methyl-4-phenyl-1,4,3-oxathiazin-2(6H)-one 4-oxide'
_symmetry_cell_setting           monoclinic
_symmetry_space_group_name_H-M   'C c'
_symmetry_Int_Tables_number      9
_space_group_name_Hall           'C -2yc'
loop_
_symmetry_equiv_pos_site_id
_symmetry_equiv_pos_as_xyz
1 x,y,z
2 1/2+x,1/2+y,z
3 x,-y,1/2+z
4 1/2+x,1/2-y,1/2+z
_cell_length_a                   11.066(2)
_cell_length_b                   12.179(3)
_cell_length_c                   8.549(3)
_cell_angle_alpha                90
_cell_angle_beta                 113.93
_cell_angle_gamma                90
_cell_volume                     1053.13
_chemical_melting_point          125-126deg.C
_cell_formula_units_Z            4
loop_
_atom_site_label
_atom_site_type_symbol
_atom_site_fract_x
_atom_site_fract_y
_atom_site_fract_z
S1 S 0.0900 0.23921(6) 0.1360
O1 O 0.0935(3) 0.1327(2) 0.0653(3)
O2 O -0.0958(2) 0.4433(2) -0.1835(3)
O3 O 0.1096(2) 0.4594(2) 0.0034(3)
N1 N -0.0249(3) 0.3149(3) 0.0248(4)
C1 C 0.0795(3) 0.2237(3) 0.3358(4)
C2 C 0.1505(3) 0.1380(3) 0.4416(4)
C3 C 0.1464(4) 0.1281(3) 0.6003(4)
C4 C 0.0718(4) 0.2005(3) 0.6494(4)
C5 C 0.0017(4) 0.2845(4) 0.5432(5)
C6 C 0.0048(3) 0.2963(3) 0.3830(4)
C7 C -0.0082(3) 0.4068(3) -0.0568(4)
C8 C 0.2079(3) 0.4330(3) 0.1736(5)
C9 C 0.2391(3) 0.3128(3) 0.1791(4)
C10 C 0.3257(4) 0.5049(4) 0.2018(6)
H1 H 0.210(3) 0.093(3) 0.406(4)
H2 H 0.196(3) 0.070(3) 0.673(4)
H3 H 0.066(4) 0.197(4) 0.754(6)
H4 H -0.054(4) 0.340(3) 0.571(5)
H5 H -0.043(3) 0.357(3) 0.311(4)
H6 H 0.169(3) 0.449(3) 0.252(4)
H7 H 0.300(3) 0.290(3) 0.284(4)
H8 H 0.269(4) 0.296(3) 0.086(5)
H9 H 0.297(3) 0.572(3) 0.197(4)
H10 H 0.390(4) 0.493(4) 0.304(5)
H11 H 0.359(4) 0.487(4) 0.114(6)
loop_
_geom_bond_atom_site_label_1
_geom_bond_atom_site_label_2
_geom_bond_site_symmetry_1
_geom_bond_site_symmetry_2
S1 O1 1_555 1_555
O2 C7 1_555 1_555
O3 C7 1_555 1_555
N1 S1 1_555 1_555
C1 S1 1_555 1_555
C2 C1 1_555 1_555
C3 C2 1_555 1_555
C4 C3 1_555 1_555
C5 C4 1_555 1_555
C6 C1 1_555 1_555
C7 N1 1_555 1_555
C8 O3 1_555 1_555
C9 S1 1_555 1_555
C10 C8 1_555 1_555
H1 C2 1_555 1_555
H2 C3 1_555 1_555
H3 C4 1_555 1_555
H4 C5 1_555 1_555
H5 C6 1_555 1_555
H6 C8 1_555 1_555
H7 C9 1_555 1_555
H8 C9 1_555 1_555
H9 C10 1_555 1_555
H10 C10 1_555 1_555
H11 C10 1_555 1_555
C5 C6 1_555 1_555
C8 C9 1_555 1_555

#END
