
#######################################################################
#
#                 Cambridge Crystallographic Data Centre
#                                CCDC 
#
#######################################################################
#
# If this CIF has been generated from an entry in the Cambridge 
# Structural Database, then it will include bibliographic, chemical, 
# crystal, experimental, refinement or atomic coordinate data resulting 
# from the CCDC's data processing and validation procedures.
#
#######################################################################

data_FIYFUQ
_chemical_formula_moiety         'C32 H26 N4 O1'
_chemical_name_systematic        
5-Methyl-2-phenyl-4-(phenyl((2-((3-phenylprop-2-en-1-ylidene)amino)phenyl)amino)methylene)-2,4-dihydro-3H-pyrazol-3-one
_symmetry_cell_setting           monoclinic
_symmetry_space_group_name_H-M   'P 2/n'
_symmetry_Int_Tables_number      13
_space_group_name_Hall           '-P 2yac'
loop_
_symmetry_equiv_pos_site_id
_symmetry_equiv_pos_as_xyz
1 x,y,z
2 1/2-x,y,1/2-z
3 -x,-y,-z
4 1/2+x,-y,1/2+z
_cell_length_a                   17.097(2)
_cell_length_b                   11.5033(14)
_cell_length_c                   26.830(3)
_cell_angle_alpha                90
_cell_angle_beta                 96.028(2)
_cell_angle_gamma                90
_cell_volume                     5247.53
_exptl_crystal_colour            yellow
_exptl_crystal_description       block
_cell_formula_units_Z            8
loop_
_atom_site_label
_atom_site_type_symbol
_atom_site_fract_x
_atom_site_fract_y
_atom_site_fract_z
O1 O 1.08890(12) 0.71979(18) 0.32736(8)
C1 C 1.0702(2) 0.3601(3) 0.35595(14)
H1 H 1.0567 0.3230 0.3255
C2 C 1.0778(2) 0.3587(4) 0.44487(15)
H2 H 1.0705 0.3210 0.4747
C3 C 1.1085(2) 0.4689(4) 0.44579(14)
H3 H 1.1206 0.5064 0.4763
C4 C 1.1215(2) 0.5248(3) 0.40207(15)
H4 H 1.1432 0.5990 0.4030
C5 C 1.10203(19) 0.4697(3) 0.35682(14)
C6 C 1.14372(19) 0.5275(3) 0.23485(14)
C7 C 1.12547(18) 0.6455(3) 0.24787(13)
C8 C 1.10713(19) 0.6409(3) 0.29926(14)
C9 C 1.12513(18) 0.7480(3) 0.22104(13)
C10 C 1.1458(2) 0.7514(3) 0.16898(13)
C11 C 1.0966(2) 0.7037(3) 0.13036(15)
H5 H 1.0477 0.6749 0.1366
C12 C 1.1190(3) 0.6983(3) 0.08264(16)
H6 H 1.0854 0.6660 0.0568
C13 C 1.1912(3) 0.7406(4) 0.07317(15)
H7 H 1.2071 0.7357 0.0411
C14 C 1.2392(2) 0.7898(3) 0.11099(17)
H8 H 1.2875 0.8199 0.1044
C15 C 1.2171(2) 0.7956(3) 0.15911(14)
H9 H 1.2505 0.8294 0.1847
C16 C 1.0939(2) 0.9596(3) 0.22109(14)
C17 C 1.04618(19) 0.9674(3) 0.17643(14)
H10 H 1.0249 0.9009 0.1606
C18 C 1.0306(2) 1.0754(4) 0.15572(15)
H11 H 0.9998 1.0820 0.1252
C19 C 1.0601(2) 1.1730(4) 0.17969(16)
H12 H 1.0491 1.2455 0.1652
C20 C 1.1058(2) 1.1659(3) 0.22499(15)
H13 H 1.1244 1.2332 0.2414
C21 C 1.1244(2) 1.0568(3) 0.24628(14)
C22 C 1.1977(2) 1.1223(3) 0.31840(14)
H14 H 1.1865 1.1970 0.3065
C23 C 1.2451(2) 1.1110(3) 0.36573(15)
H15 H 1.2601 1.0365 0.3762
C24 C 1.2691(2) 1.1989(3) 0.39550(16)
H16 H 1.2538 1.2724 0.3839
C25 C 1.3161(3) 1.1955(5) 0.44397(18)
C26 C 1.3511(3) 1.0943(5) 0.4629(2)
H17 H 1.3465 1.0263 0.4441
C27 C 1.3934(3) 1.0942(6) 0.5106(2)
H18 H 1.4162 1.0262 0.5241
C28 C 1.4005(5) 1.1952(8) 0.5365(3)
H19 H 1.4292 1.1942 0.5679
C29 C 1.3691(4) 1.2957(7) 0.5201(3)
H20 H 1.3756 1.3629 0.5393
C30 C 1.3252(2) 1.2964(5) 0.4720(2)
H21 H 1.3025 1.3652 0.4593
C31 C 1.0583(2) 0.3048(3) 0.40018(17)
H22 H 1.0368 0.2305 0.3994
N1 N 1.11465(15) 0.5247(3) 0.31138(11)
N2 N 1.13532(16) 0.4555(2) 0.27170(12)
N3 N 1.10888(14) 0.8481(2) 0.24360(10)
H23 H 1.1073 0.8447 0.2755
N4 N 1.17021(18) 1.0385(2) 0.29200(12)
C32 C 1.17007(17) 0.4787(3) 0.18774(11)
H24 H 1.1904 0.4017 0.1940
H25 H 1.2105 0.5273 0.1767
H26 H 1.1263 0.4757 0.1623
C33 C 0.8634(2) 0.3002(3) 0.12114(14)
H27 H 0.8250 0.2729 0.1403
C34 C 0.8787(2) 0.2411(3) 0.07805(15)
H28 H 0.8510 0.1735 0.0687
C35 C 0.9338(3) 0.2814(4) 0.04954(14)
H29 H 0.9443 0.2411 0.0209
C36 C 0.9736(2) 0.3805(4) 0.06279(15)
H30 H 1.0108 0.4085 0.0429
C37 C 0.9594(2) 0.4403(3) 0.10559(14)
H31 H 0.9866 0.5086 0.1142
C38 C 0.9050(2) 0.3988(3) 0.13532(14)
C39 C 0.90363(19) 0.5679(3) 0.19450(14)
C40 C 0.88419(18) 0.5720(3) 0.24577(13)
C41 C 0.86323(19) 0.4548(3) 0.25728(14)
C42 C 0.88437(18) 0.6735(3) 0.27279(13)
C43 C 0.8632(2) 0.6746(3) 0.32509(13)
C44 C 0.9138(2) 0.6296(3) 0.36358(15)
H32 H 0.9638 0.6054 0.3575
C45 C 0.8903(2) 0.6202(3) 0.41120(14)
H33 H 0.9248 0.5908 0.4373
C46 C 0.8165(3) 0.6542(3) 0.41974(15)
H34 H 0.8003 0.6463 0.4516
C47 C 0.7660(2) 0.6998(3) 0.38168(16)
H35 H 0.7159 0.7234 0.3877
C48 C 0.7898(2) 0.7106(3) 0.33462(13)
H36 H 0.7558 0.7425 0.3089
C49 C 0.90849(19) 0.8885(3) 0.27038(14)
C50 C 0.94861(19) 0.9083(3) 0.31655(13)
H37 H 0.9667 0.8461 0.3367
C51 C 0.96204(19) 1.0209(3) 0.33314(14)
H38 H 0.9886 1.0346 0.3646
C52 C 0.9361(2) 1.1121(3) 0.30312(15)
H39 H 0.9455 1.1879 0.3143
C53 C 0.89647(19) 1.0929(3) 0.25671(14)
H40 H 0.8802 1.1556 0.2363
C54 C 0.88070(19) 0.9814(3) 0.24019(14)
C55 C 0.7889(2) 1.0220(3) 0.17279(14)
H41 H 0.7721 1.0816 0.1926
C56 C 0.7519(2) 1.0104(3) 0.12228(14)
H42 H 0.7652 0.9478 0.1029
C57 C 0.6995(2) 1.0864(3) 0.10288(14)
H43 H 0.6867 1.1457 0.1241
C58 C 0.6592(2) 1.0890(4) 0.05226(16)
C59 C 0.6611(3) 0.9987(4) 0.01940(19)
H44 H 0.6875 0.9308 0.0298
C60 C 0.6247(3) 1.0060(5) -0.0290(2)
H45 H 0.6268 0.9437 -0.0509
C61 C 0.5858(3) 1.1048(6) -0.0444(2)
H46 H 0.5610 1.1099 -0.0769
C62 C 0.5829(3) 1.1953(5) -0.0129(2)
H47 H 0.5562 1.2628 -0.0234
C63 C 0.6202(2) 1.1872(4) 0.03554(17)
H48 H 0.6185 1.2503 0.0571
O2 O 0.92223(12) 0.64858(18) 0.16690(8)
N5 N 0.89395(15) 0.4530(3) 0.18119(11)
N6 N 0.86856(16) 0.3849(2) 0.21986(12)
N7 N 0.89789(14) 0.7747(2) 0.25004(9)
H49 H 0.9005 0.7698 0.2183
N8 N 0.84362(17) 0.9549(2) 0.19182(11)
C64 C 0.83580(18) 0.4064(3) 0.30447(11)
H50 H 0.8169 0.3286 0.2985
H51 H 0.7942 0.4541 0.3146
H52 H 0.8788 0.4057 0.3305
loop_
_geom_bond_atom_site_label_1
_geom_bond_atom_site_label_2
_geom_bond_site_symmetry_1
_geom_bond_site_symmetry_2
O1 C8 1_555 1_555
C1 H1 1_555 1_555
C2 H2 1_555 1_555
C3 C2 1_555 1_555
H3 C3 1_555 1_555
C4 C3 1_555 1_555
H4 C4 1_555 1_555
C5 C1 1_555 1_555
C6 C7 1_555 1_555
C7 C8 1_555 1_555
C8 N1 1_555 1_555
C9 C7 1_555 1_555
C10 C9 1_555 1_555
C11 C10 1_555 1_555
H5 C11 1_555 1_555
C12 C11 1_555 1_555
H6 C12 1_555 1_555
C13 C12 1_555 1_555
H7 C13 1_555 1_555
C14 C13 1_555 1_555
H8 C14 1_555 1_555
C15 C10 1_555 1_555
H9 C15 1_555 1_555
C16 C17 1_555 1_555
C17 H10 1_555 1_555
C18 C17 1_555 1_555
H11 C18 1_555 1_555
C19 C18 1_555 1_555
H12 C19 1_555 1_555
C20 C19 1_555 1_555
H13 C20 1_555 1_555
C21 C16 1_555 1_555
C22 H14 1_555 1_555
C23 C22 1_555 1_555
H15 C23 1_555 1_555
C24 C23 1_555 1_555
H16 C24 1_555 1_555
C25 C24 1_555 1_555
C26 C25 1_555 1_555
H17 C26 1_555 1_555
C27 C26 1_555 1_555
H18 C27 1_555 1_555
C28 C27 1_555 1_555
H19 C28 1_555 1_555
C29 C28 1_555 1_555
H20 C29 1_555 1_555
C30 C25 1_555 1_555
H21 C30 1_555 1_555
C31 C1 1_555 1_555
H22 C31 1_555 1_555
N1 C5 1_555 1_555
N2 C6 1_555 1_555
N3 C9 1_555 1_555
H23 N3 1_555 1_555
N4 C21 1_555 1_555
C32 C6 1_555 1_555
H24 C32 1_555 1_555
H25 C32 1_555 1_555
H26 C32 1_555 1_555
C33 H27 1_555 1_555
C34 C33 1_555 1_555
H28 C34 1_555 1_555
C35 C34 1_555 1_555
H29 C35 1_555 1_555
C36 C35 1_555 1_555
H30 C36 1_555 1_555
C37 C36 1_555 1_555
H31 C37 1_555 1_555
C38 C33 1_555 1_555
C39 C40 1_555 1_555
C40 C41 1_555 1_555
C41 N6 1_555 1_555
C42 C40 1_555 1_555
C43 C42 1_555 1_555
C44 C43 1_555 1_555
H32 C44 1_555 1_555
C45 C44 1_555 1_555
H33 C45 1_555 1_555
C46 C45 1_555 1_555
H34 C46 1_555 1_555
C47 C46 1_555 1_555
H35 C47 1_555 1_555
C48 C43 1_555 1_555
H36 C48 1_555 1_555
C49 C50 1_555 1_555
C50 H37 1_555 1_555
C51 C50 1_555 1_555
H38 C51 1_555 1_555
C52 C51 1_555 1_555
H39 C52 1_555 1_555
C53 C52 1_555 1_555
H40 C53 1_555 1_555
C54 C49 1_555 1_555
C55 H41 1_555 1_555
C56 C55 1_555 1_555
H42 C56 1_555 1_555
C57 C56 1_555 1_555
H43 C57 1_555 1_555
C58 C57 1_555 1_555
C59 C58 1_555 1_555
H44 C59 1_555 1_555
C60 C59 1_555 1_555
H45 C60 1_555 1_555
C61 C60 1_555 1_555
H46 C61 1_555 1_555
C62 C61 1_555 1_555
H47 C62 1_555 1_555
C63 C58 1_555 1_555
H48 C63 1_555 1_555
O2 C39 1_555 1_555
N5 C38 1_555 1_555
N6 N5 1_555 1_555
N7 C42 1_555 1_555
H49 N7 1_555 1_555
N8 C54 1_555 1_555
C64 C41 1_555 1_555
H50 C64 1_555 1_555
H51 C64 1_555 1_555
H52 C64 1_555 1_555
C2 C31 1_555 1_555
C4 C5 1_555 1_555
C14 C15 1_555 1_555
C16 N3 1_555 1_555
C20 C21 1_555 1_555
C22 N4 1_555 1_555
C29 C30 1_555 1_555
N1 N2 1_555 1_555
C37 C38 1_555 1_555
C39 N5 1_555 1_555
C47 C48 1_555 1_555
C49 N7 1_555 1_555
C53 C54 1_555 1_555
C55 N8 1_555 1_555
C62 C63 1_555 1_555

#END
