
#######################################################################
#
#                 Cambridge Crystallographic Data Centre
#                                CCDC 
#
#######################################################################
#
# If this CIF has been generated from an entry in the Cambridge 
# Structural Database, then it will include bibliographic, chemical, 
# crystal, experimental, refinement or atomic coordinate data resulting 
# from the CCDC's data processing and validation procedures.
#
#######################################################################

data_FIYNUY
_chemical_formula_moiety         'C23 H20 N4 O1'
_chemical_name_systematic        
4-(((4-Aminophenyl)amino)(phenyl)methylene)-5-methyl-2-phenyl-2,4-dihydro-3H-pyrazol-3-one
_symmetry_cell_setting           monoclinic
_symmetry_space_group_name_H-M   'C c'
_symmetry_Int_Tables_number      9
_space_group_name_Hall           'C -2yc'
loop_
_symmetry_equiv_pos_site_id
_symmetry_equiv_pos_as_xyz
1 x,y,z
2 x,-y,1/2+z
3 1/2+x,1/2+y,z
4 1/2+x,1/2-y,1/2+z
_cell_length_a                   9.944(3)
_cell_length_b                   16.960(3)
_cell_length_c                   11.172(4)
_cell_angle_alpha                90
_cell_angle_beta                 99.635(4)
_cell_angle_gamma                90
_cell_volume                     1857.58
_exptl_crystal_colour            yellow
_exptl_crystal_description       block
_cell_formula_units_Z            4
loop_
_atom_site_label
_atom_site_type_symbol
_atom_site_fract_x
_atom_site_fract_y
_atom_site_fract_z
C1 C 0.3604(4) 0.8224(2) 0.2703(3)
H1 H 0.2688 0.8084 0.2606
C2 C 0.3985(4) 0.89065(19) 0.2169(3)
C3 C 0.5349(4) 0.9099(2) 0.2313(3)
H2 H 0.5627 0.9545 0.1937
C4 C 0.6300(4) 0.8628(2) 0.3014(3)
H3 H 0.7215 0.8773 0.3126
C5 C 0.5935(4) 0.7944(2) 0.3556(3)
C6 C 0.4578(4) 0.7747(2) 0.3380(3)
H4 H 0.4307 0.7286 0.3721
C7 C 0.2820(4) 1.0125(2) 0.1253(3)
C8 C 0.3820(3) 1.06746(19) 0.1945(3)
C9 C 0.4555(4) 1.1170(2) 0.1320(3)
H5 H 0.4440 1.1141 0.0477
C10 C 0.5450(4) 1.1704(2) 0.1923(4)
H6 H 0.5944 1.2031 0.1488
C11 C 0.5626(4) 1.1762(2) 0.3164(4)
H7 H 0.6229 1.2132 0.3567
C12 C 0.4911(4) 1.1273(2) 0.3809(4)
H8 H 0.5027 1.1312 0.4650
C13 C 0.4010(4) 1.0719(2) 0.3204(3)
H9 H 0.3538 1.0381 0.3641
C14 C 0.1802(4) 1.0412(2) 0.0345(4)
C15 C 0.1063(4) 0.9927(2) -0.0589(4)
C16 C 0.1286(4) 1.1190(2) 0.0110(3)
C17 C 0.1519(4) 1.1916(2) 0.0880(3)
H10 H 0.2379 1.2147 0.0795
H11 H 0.1526 1.1779 0.1715
H12 H 0.0801 1.2288 0.0624
C18 C -0.0521(4) 1.0322(2) -0.2511(3)
C19 C -0.0798(4) 1.0948(2) -0.3290(3)
H13 H -0.0435 1.1443 -0.3069
C20 C -0.1622(4) 1.0841(3) -0.4408(4)
H14 H -0.1831 1.1268 -0.4927
C21 C -0.2132(4) 1.0111(3) -0.4753(4)
H15 H -0.2689 1.0041 -0.5501
C22 C -0.1814(4) 0.9488(3) -0.3987(4)
H16 H -0.2137 0.8989 -0.4234
C23 C -0.1016(4) 0.9579(2) -0.2844(4)
H17 H -0.0823 0.9152 -0.2321
N1 N 0.0297(3) 1.04522(16) -0.1360(3)
N2 N 0.0402(3) 1.12209(16) -0.0898(3)
N3 N 0.2942(3) 0.93491(16) 0.1439(3)
H18 H 0.2284 0.9072 0.1055
N4 N 0.6917(3) 0.74797(18) 0.4250(3)
H19 H 0.6682 0.7056 0.4583
H20 H 0.7762 0.7616 0.4347
O1 O 0.1119(3) 0.91980(14) -0.0744(2)
loop_
_geom_bond_atom_site_label_1
_geom_bond_atom_site_label_2
_geom_bond_site_symmetry_1
_geom_bond_site_symmetry_2
C1 H1 1_555 1_555
C2 C1 1_555 1_555
C3 C2 1_555 1_555
H2 C3 1_555 1_555
C4 C3 1_555 1_555
H3 C4 1_555 1_555
C5 C4 1_555 1_555
C6 C1 1_555 1_555
H4 C6 1_555 1_555
C7 C8 1_555 1_555
C8 C9 1_555 1_555
C9 H5 1_555 1_555
C10 C9 1_555 1_555
H6 C10 1_555 1_555
C11 C10 1_555 1_555
H7 C11 1_555 1_555
C12 C11 1_555 1_555
H8 C12 1_555 1_555
C13 C8 1_555 1_555
H9 C13 1_555 1_555
C14 C7 1_555 1_555
C15 C14 1_555 1_555
C16 C14 1_555 1_555
C17 C16 1_555 1_555
H10 C17 1_555 1_555
H11 C17 1_555 1_555
H12 C17 1_555 1_555
C18 C19 1_555 1_555
C19 H13 1_555 1_555
C20 C19 1_555 1_555
H14 C20 1_555 1_555
C21 C20 1_555 1_555
H15 C21 1_555 1_555
C22 C21 1_555 1_555
H16 C22 1_555 1_555
C23 C18 1_555 1_555
H17 C23 1_555 1_555
N1 C15 1_555 1_555
N2 C16 1_555 1_555
N3 C2 1_555 1_555
H18 N3 1_555 1_555
N4 C5 1_555 1_555
H19 N4 1_555 1_555
H20 N4 1_555 1_555
O1 C15 1_555 1_555
C5 C6 1_555 1_555
C7 N3 1_555 1_555
C12 C13 1_555 1_555
C18 N1 1_555 1_555
C22 C23 1_555 1_555
N1 N2 1_555 1_555

#END
