
#######################################################################
#
#                 Cambridge Crystallographic Data Centre
#                                CCDC 
#
#######################################################################
#
# If this CIF has been generated from an entry in the Cambridge 
# Structural Database, then it will include bibliographic, chemical, 
# crystal, experimental, refinement or atomic coordinate data resulting 
# from the CCDC's data processing and validation procedures.
#
#######################################################################

data_FIYQAH
_chemical_formula_moiety         'C30 H36 O9,C1 H4 O1'
_chemical_name_systematic        
"6-((4,9'-Dihydroxy-6,10',15'-trimethyl-3,4,5,6-tetrahydro-13'H-spiro[pyran-2,5'-[6,12,14]trioxatetracyclo[11.3.1.0^2,11^.0^3,8^]heptadeca[2,8,10]trien]-13'-yl)methyl)-2,4-dihydroxy-3-methylbenzaldehyde methanol solvate"
_symmetry_cell_setting           monoclinic
_symmetry_space_group_name_H-M   'P 21'
_symmetry_Int_Tables_number      4
_space_group_name_Hall           'P 2yb'
loop_
_symmetry_equiv_pos_site_id
_symmetry_equiv_pos_as_xyz
1 x,y,z
2 -x,1/2+y,-z
_cell_length_a                   8.3023(2)
_cell_length_b                   12.4556(4)
_cell_length_c                   13.7273(4)
_cell_angle_alpha                90
_cell_angle_beta                 90.279(2)
_cell_angle_gamma                90
_cell_volume                     1419.53
_exptl_crystal_colour            colorless
_exptl_crystal_description       block
_cell_formula_units_Z            2
loop_
_atom_site_label
_atom_site_type_symbol
_atom_site_fract_x
_atom_site_fract_y
_atom_site_fract_z
O1 O -0.19751(10) 0.77091(8) 0.84202(6)
O2 O -0.31695(11) 0.60701(8) 0.87884(6)
O3 O 0.19017(11) 0.57866(8) 0.48606(6)
O4 O 0.27851(11) 0.89819(8) 0.68889(7)
H1 H 0.2921 0.9248 0.7430
O5 O 0.15088(11) 0.75278(8) 0.42792(7)
O6 O -0.22111(15) 1.04782(9) 1.11339(8)
H2 H -0.2173 1.0753 1.0592
O7 O 0.25890(14) 0.67679(9) 0.24053(7)
H3 H 0.2535 0.7245 0.2815
O8 O -0.32477(15) 0.71807(11) 1.26352(8)
H4 H -0.3633 0.6588 1.2519
O9 O -0.41548(15) 0.55840(9) 1.15639(9)
C1 C -0.03294(15) 0.71981(10) 0.59754(9)
C2 C 0.04053(14) 0.83216(10) 0.76989(9)
C3 C 0.08014(15) 0.64903(11) 0.43988(9)
C4 C -0.10019(14) 0.77025(10) 0.76085(9)
C5 C -0.38976(15) 0.80197(11) 1.00931(9)
C6 C -0.29211(14) 0.64793(11) 0.67494(9)
H5 H -0.3334 0.6433 0.6081
C7 C -0.13777(14) 0.71365(10) 0.67647(9)
C8 C 0.03454(16) 0.60991(13) 0.33845(9)
H6 H -0.0335 0.5469 0.3444
H7 H -0.0277 0.6653 0.3058
C9 C -0.27553(17) 0.94593(12) 1.10549(10)
C10 C -0.45885(15) 0.76768(12) 0.91177(10)
H8 H -0.5006 0.8311 0.8794
H9 H -0.5495 0.7205 0.9240
C11 C -0.42846(17) 0.62293(12) 1.08800(11)
H10 H -0.4694 0.5973 1.0293
C12 C -0.33419(16) 0.90553(12) 1.01725(10)
H11 H -0.3357 0.9497 0.9626
C13 C -0.26649(17) 0.53481(12) 0.71566(10)
H12 H -0.3663 0.4946 0.7108
H13 H -0.1858 0.4979 0.6773
C14 C -0.06572(15) 0.65683(12) 0.50547(10)
H14 H -0.1530 0.6909 0.4698
H15 H -0.1004 0.5850 0.5228
C15 C 0.08245(17) 0.88739(13) 0.86381(10)
H16 H 0.1553 0.8432 0.9007
H17 H -0.0139 0.8992 0.9007
H18 H 0.1327 0.9551 0.8501
C16 C -0.38468(15) 0.73466(12) 1.09295(10)
C17 C -0.27209(17) 0.88344(13) 1.18964(10)
C18 C -0.32839(16) 0.77868(13) 1.18171(10)
C19 C 0.10322(15) 0.78432(11) 0.60209(10)
C20 C -0.34535(14) 0.71058(11) 0.84132(9)
C21 C -0.41474(14) 0.70493(12) 0.73883(9)
H19 H -0.4351 0.7767 0.7142
H20 H -0.5156 0.6656 0.7390
C22 C 0.33576(16) 0.55923(13) 0.43125(10)
H21 H 0.3927 0.6273 0.4215
C23 C 0.21416(17) 0.79712(12) 0.51637(10)
H22 H 0.2353 0.8729 0.5065
H23 H 0.3160 0.7625 0.5313
C24 C -0.21193(16) 0.53893(11) 0.82195(9)
H24 H -0.1021 0.5676 0.8251
C25 C 0.29379(18) 0.51095(13) 0.33301(10)
H25 H 0.3916 0.5009 0.2958
H26 H 0.2448 0.4411 0.3426
C26 C 0.17907(17) 0.58199(12) 0.27630(9)
H27 H 0.1403 0.5411 0.2199
C27 C -0.2154(2) 0.43079(14) 0.87068(12)
H28 H -0.3222 0.4016 0.8666
H29 H -0.1848 0.4384 0.9378
H30 H -0.1415 0.3834 0.8386
C28 C 0.13913(14) 0.83789(11) 0.68867(9)
C29 C 0.4388(2) 0.48542(19) 0.49203(13)
H31 H 0.3873 0.4167 0.4971
H32 H 0.4527 0.5155 0.5559
H33 H 0.5421 0.4770 0.4618
C30 C -0.2068(2) 0.92734(19) 1.28442(12)
H34 H -0.2702 0.9008 1.3375
H35 H -0.2116 1.0043 1.2833
H36 H -0.0970 0.9048 1.2927
O10 O 0.17680(13) 0.66669(11) 0.04546(7)
H37 H 0.2178 0.6767 0.0992
C31 C 0.00625(18) 0.68146(14) 0.05173(12)
H38 H -0.0448 0.6504 -0.0045
H39 H -0.0177 0.7568 0.0544
H40 H -0.0331 0.6470 0.1095
loop_
_geom_bond_atom_site_label_1
_geom_bond_atom_site_label_2
_geom_bond_site_symmetry_1
_geom_bond_site_symmetry_2
O1 C4 1_555 1_555
O2 C20 1_555 1_555
O3 C3 1_555 1_555
O4 H1 1_555 1_555
O5 C3 1_555 1_555
O6 H2 1_555 1_555
O7 H3 1_555 1_555
O8 H4 1_555 1_555
O9 C11 1_555 1_555
C1 C7 1_555 1_555
C2 C4 1_555 1_555
C3 C8 1_555 1_555
C4 C7 1_555 1_555
C5 C10 1_555 1_555
C6 H5 1_555 1_555
C7 C6 1_555 1_555
C8 H6 1_555 1_555
H7 C8 1_555 1_555
C9 O6 1_555 1_555
C10 H8 1_555 1_555
H9 C10 1_555 1_555
C11 H10 1_555 1_555
C12 C5 1_555 1_555
H11 C12 1_555 1_555
C13 C6 1_555 1_555
H12 C13 1_555 1_555
H13 C13 1_555 1_555
C14 C1 1_555 1_555
H14 C14 1_555 1_555
H15 C14 1_555 1_555
C15 C2 1_555 1_555
H16 C15 1_555 1_555
H17 C15 1_555 1_555
H18 C15 1_555 1_555
C16 C5 1_555 1_555
C17 C9 1_555 1_555
C18 O8 1_555 1_555
C19 C1 1_555 1_555
C20 O1 1_555 1_555
C21 C6 1_555 1_555
H19 C21 1_555 1_555
H20 C21 1_555 1_555
C22 O3 1_555 1_555
H21 C22 1_555 1_555
C23 O5 1_555 1_555
H22 C23 1_555 1_555
H23 C23 1_555 1_555
C24 O2 1_555 1_555
H24 C24 1_555 1_555
C25 C22 1_555 1_555
H25 C25 1_555 1_555
H26 C25 1_555 1_555
C26 O7 1_555 1_555
H27 C26 1_555 1_555
C27 C24 1_555 1_555
H28 C27 1_555 1_555
H29 C27 1_555 1_555
H30 C27 1_555 1_555
C28 O4 1_555 1_555
C29 C22 1_555 1_555
H31 C29 1_555 1_555
H32 C29 1_555 1_555
H33 C29 1_555 1_555
C30 C17 1_555 1_555
H34 C30 1_555 1_555
H35 C30 1_555 1_555
H36 C30 1_555 1_555
O10 H37 1_555 1_555
C31 O10 1_555 1_555
H38 C31 1_555 1_555
H39 C31 1_555 1_555
H40 C31 1_555 1_555
C2 C28 1_555 1_555
C3 C14 1_555 1_555
C8 C26 1_555 1_555
C9 C12 1_555 1_555
C10 C20 1_555 1_555
C11 C16 1_555 1_555
C13 C24 1_555 1_555
C16 C18 1_555 1_555
C17 C18 1_555 1_555
C19 C23 1_555 1_555
C19 C28 1_555 1_555
C20 C21 1_555 1_555
C25 C26 1_555 1_555

#END
