
#######################################################################
#
#                 Cambridge Crystallographic Data Centre
#                                CCDC 
#
#######################################################################
#
# If this CIF has been generated from an entry in the Cambridge 
# Structural Database, then it will include bibliographic, chemical, 
# crystal, experimental, refinement or atomic coordinate data resulting 
# from the CCDC's data processing and validation procedures.
#
#######################################################################

data_FIYRUC
_chemical_formula_moiety         'C35 H36 O4'
_chemical_name_systematic        
8-(3-Hydroxy-5-methoxyphenyl)-5-methoxy-4-(3-methylbut-2-en-1-yl)-7-phenyl-1-(2-phenylvinyl)bicyclo[4.2.0]oct-4-en-3-one
_symmetry_cell_setting           triclinic
_symmetry_space_group_name_H-M   'P -1'
_symmetry_Int_Tables_number      2
_space_group_name_Hall           '-P 1'
loop_
_symmetry_equiv_pos_site_id
_symmetry_equiv_pos_as_xyz
1 x,y,z
2 -x,-y,-z
_cell_length_a                   10.2181(9)
_cell_length_b                   10.6644(10)
_cell_length_c                   14.3363(11)
_cell_angle_alpha                98.551(7)
_cell_angle_beta                 108.489(7)
_cell_angle_gamma                101.040(8)
_cell_volume                     1416.89
_exptl_crystal_colour            colorless
_exptl_crystal_description       plate
_cell_formula_units_Z            2
loop_
_atom_site_label
_atom_site_type_symbol
_atom_site_fract_x
_atom_site_fract_y
_atom_site_fract_z
O1 O 0.22791(15) 0.45622(14) 0.42767(10)
O2 O 0.02818(13) 0.79502(13) 0.50763(10)
O3 O 0.81714(15) 0.95996(15) 1.01319(10)
O4 O 0.90367(14) 0.68418(15) 0.76648(10)
H1 H 0.8658 0.6413 0.7081
C1 C 0.31236(18) 0.66270(17) 0.67781(13)
C2 C 0.20632(18) 0.74910(17) 0.64824(13)
H2 H 0.1479 0.7520 0.6907
C3 C 0.11919(18) 0.72008(18) 0.53888(14)
C4 C 0.12761(18) 0.62867(18) 0.46565(14)
C5 C 0.21546(19) 0.53872(18) 0.49279(14)
C6 C 0.28470(19) 0.53585(17) 0.60169(13)
H3 H 0.3750 0.5138 0.6103
H4 H 0.2244 0.4663 0.6172
C7 C 0.34066(19) 0.63778(17) 0.78171(13)
H5 H 0.4272 0.6183 0.8115
C8 C 0.25818(19) 0.64000(18) 0.83634(14)
H6 H 0.1724 0.6621 0.8092
C9 C 0.2923(2) 0.61004(19) 0.93716(14)
C10 C 0.4317(2) 0.64120(19) 1.00537(14)
H7 H 0.5057 0.6858 0.9887
C11 C 0.4616(2) 0.6066(2) 1.09753(15)
H8 H 0.5553 0.6280 1.1423
C12 C 0.3541(3) 0.5408(2) 1.12364(17)
H9 H 0.3748 0.5180 1.1859
C13 C 0.2158(3) 0.5089(3) 1.05733(19)
H10 H 0.1428 0.4630 1.0742
C14 C 0.1847(2) 0.5448(3) 0.96534(17)
H11 H 0.0903 0.5250 0.9218
C15 C 0.0451(2) 0.6157(2) 0.35509(14)
H12 H 0.0113 0.5235 0.3217
H13 H -0.0377 0.6502 0.3489
C16 C 0.1316(2) 0.6860(2) 0.30256(15)
H14 H 0.2205 0.6696 0.3117
C17 C 0.0961(3) 0.7684(2) 0.24498(17)
C18 C 0.1944(4) 0.8308(3) 0.1963(2)
H15 H 0.2804 0.8016 0.2154
H16 H 0.2173 0.9245 0.2184
H17 H 0.1482 0.8062 0.1243
C19 C -0.0432(4) 0.8059(3) 0.2211(3)
H18 H -0.0993 0.7619 0.2547
H19 H -0.0941 0.7808 0.1495
H20 H -0.0253 0.8990 0.2436
C20 C -0.0036(2) 0.8803(2) 0.58037(17)
H21 H -0.0694 0.9262 0.5460
H22 H 0.0828 0.9425 0.6253
H23 H -0.0453 0.8293 0.6184
C21 C 0.58285(18) 0.79973(17) 0.75087(13)
C22 C 0.62697(19) 0.87567(18) 0.84868(13)
H24 H 0.5658 0.9184 0.8687
C23 C 0.7626(2) 0.88680(19) 0.91574(14)
C24 C 0.85521(19) 0.82331(19) 0.88770(14)
H25 H 0.9463 0.8319 0.9333
C25 C 0.81068(19) 0.74740(19) 0.79155(14)
C26 C 0.67486(18) 0.73560(18) 0.72230(13)
H26 H 0.6461 0.6849 0.6572
C27 C 0.43407(18) 0.77766(17) 0.67621(13)
H27 H 0.4377 0.7651 0.6081
C28 C 0.33998(18) 0.87310(17) 0.68541(13)
H28 H 0.3621 0.9089 0.7573
C29 C 0.34820(18) 0.98566(18) 0.63361(14)
C30 C 0.33967(18) 0.96973(19) 0.53363(14)
H29 H 0.3262 0.8862 0.4961
C31 C 0.35086(19) 1.07577(19) 0.48897(15)
H30 H 0.3444 1.0630 0.4219
C32 C 0.3715(2) 1.2001(2) 0.54357(16)
H31 H 0.3799 1.2715 0.5137
C33 C 0.3798(3) 1.2182(2) 0.64269(17)
H32 H 0.3928 1.3019 0.6796
C34 C 0.3688(2) 1.1119(2) 0.68744(16)
H33 H 0.3753 1.1253 0.7545
C35 C 0.7307(3) 1.0301(3) 1.04701(17)
H34 H 0.7815 1.0764 1.1160
H35 H 0.6447 0.9700 1.0422
H36 H 0.7073 1.0916 1.0058
loop_
_geom_bond_atom_site_label_1
_geom_bond_atom_site_label_2
_geom_bond_site_symmetry_1
_geom_bond_site_symmetry_2
O1 C5 1_555 1_555
O2 C3 1_555 1_555
O3 C23 1_555 1_555
O4 H1 1_555 1_555
C1 C2 1_555 1_555
C2 H2 1_555 1_555
C3 C2 1_555 1_555
C4 C3 1_555 1_555
C5 C4 1_555 1_555
C6 C1 1_555 1_555
H3 C6 1_555 1_555
H4 C6 1_555 1_555
C7 C1 1_555 1_555
H5 C7 1_555 1_555
C8 C7 1_555 1_555
H6 C8 1_555 1_555
C9 C8 1_555 1_555
C10 C9 1_555 1_555
H7 C10 1_555 1_555
C11 C10 1_555 1_555
H8 C11 1_555 1_555
C12 C11 1_555 1_555
H9 C12 1_555 1_555
C13 C12 1_555 1_555
H10 C13 1_555 1_555
C14 C9 1_555 1_555
H11 C14 1_555 1_555
C15 C4 1_555 1_555
H12 C15 1_555 1_555
H13 C15 1_555 1_555
C16 C15 1_555 1_555
H14 C16 1_555 1_555
C17 C16 1_555 1_555
C18 C17 1_555 1_555
H15 C18 1_555 1_555
H16 C18 1_555 1_555
H17 C18 1_555 1_555
C19 C17 1_555 1_555
H18 C19 1_555 1_555
H19 C19 1_555 1_555
H20 C19 1_555 1_555
C20 O2 1_555 1_555
H21 C20 1_555 1_555
H22 C20 1_555 1_555
H23 C20 1_555 1_555
C21 C22 1_555 1_555
C22 H24 1_555 1_555
C23 C22 1_555 1_555
C24 C23 1_555 1_555
H25 C24 1_555 1_555
C25 O4 1_555 1_555
C26 C21 1_555 1_555
H26 C26 1_555 1_555
C27 C1 1_555 1_555
H27 C27 1_555 1_555
C28 C2 1_555 1_555
H28 C28 1_555 1_555
C29 C28 1_555 1_555
C30 C29 1_555 1_555
H29 C30 1_555 1_555
C31 C30 1_555 1_555
H30 C31 1_555 1_555
C32 C31 1_555 1_555
H31 C32 1_555 1_555
C33 C32 1_555 1_555
H32 C33 1_555 1_555
C34 C29 1_555 1_555
H33 C34 1_555 1_555
C35 O3 1_555 1_555
H34 C35 1_555 1_555
H35 C35 1_555 1_555
H36 C35 1_555 1_555
C5 C6 1_555 1_555
C13 C14 1_555 1_555
C21 C27 1_555 1_555
C24 C25 1_555 1_555
C25 C26 1_555 1_555
C27 C28 1_555 1_555
C33 C34 1_555 1_555

#END
