
#######################################################################
#
#                 Cambridge Crystallographic Data Centre
#                                CCDC 
#
#######################################################################
#
# If this CIF has been generated from an entry in the Cambridge 
# Structural Database, then it will include bibliographic, chemical, 
# crystal, experimental, refinement or atomic coordinate data resulting 
# from the CCDC's data processing and validation procedures.
#
#######################################################################

data_FIYSIR
_chemical_formula_moiety         'C18 H18 O5'
_chemical_name_systematic        
"Ethyl 2-oxo-6'-(2-oxoethyl)spiro[1-benzofuran-3,1'-cyclohex[4]ene]-2'-carboxylate"
_symmetry_cell_setting           orthorhombic
_symmetry_space_group_name_H-M   'P 21 21 21'
_symmetry_Int_Tables_number      19
_space_group_name_Hall           'P 2ac 2ab'
loop_
_symmetry_equiv_pos_site_id
_symmetry_equiv_pos_as_xyz
1 x,y,z
2 1/2-x,-y,1/2+z
3 -x,1/2+y,1/2-z
4 1/2+x,1/2-y,-z
_cell_length_a                   9.6305(19)
_cell_length_b                   11.802(2)
_cell_length_c                   13.800(3)
_cell_angle_alpha                90
_cell_angle_beta                 90
_cell_angle_gamma                90
_cell_volume                     1568.5
_exptl_crystal_colour            colorless
_exptl_crystal_description       chunk
_cell_formula_units_Z            4
loop_
_atom_site_label
_atom_site_type_symbol
_atom_site_fract_x
_atom_site_fract_y
_atom_site_fract_z
O1 O 0.87572(18) 0.34551(14) 0.67277(14)
O2 O 0.6760(2) 0.25499(15) 0.64318(14)
O3 O 0.42940(19) 0.48329(17) 0.81305(14)
O4 O 0.6538(2) 0.43451(19) 0.81645(14)
C1 C 0.5528(3) 0.4640(2) 0.77215(19)
C2 C 0.6740(3) 0.4701(2) 0.50362(18)
H1 H 0.7700 0.4751 0.4762
C3 C 0.7386(3) 0.3418(2) 0.64429(19)
C4 C 0.9166(3) 0.4584(2) 0.67759(19)
O5 O 0.8182(2) 0.27230(19) 0.43577(18)
C5 C 0.6894(3) 0.46047(19) 0.61637(17)
C6 C 0.6022(3) 0.3703(2) 0.4535(2)
H2 H 0.5255 0.3436 0.4955
H3 H 0.5606 0.3977 0.3922
C7 C 0.5242(3) 0.6381(2) 0.5406(2)
H4 H 0.4831 0.7062 0.5177
C8 C 0.9676(3) 0.6834(2) 0.6790(2)
H5 H 0.9865 0.7624 0.6797
C9 C 0.4257(3) 0.4836(3) 0.9184(2)
H6 H 0.4723 0.5520 0.9441
H7 H 0.4735 0.4158 0.9444
C10 C 1.0457(3) 0.4932(2) 0.70704(19)
H8 H 1.1152 0.4405 0.7259
C11 C 0.5475(3) 0.4838(2) 0.66440(18)
H9 H 0.4787 0.4295 0.6363
C12 C 0.6017(3) 0.5802(2) 0.4797(2)
H10 H 0.6130 0.6097 0.4161
C13 C 0.8384(3) 0.6468(2) 0.64899(19)
H11 H 0.7694 0.6994 0.6290
C14 C 1.0699(3) 0.6094(3) 0.7080(2)
H12 H 1.1574 0.6377 0.7286
C15 C 0.4963(3) 0.6048(2) 0.6426(2)
H13 H 0.3953 0.6093 0.6551
H14 H 0.5433 0.6587 0.6867
C16 C 0.8119(2) 0.5304(2) 0.64886(17)
C17 C 0.2763(3) 0.4828(3) 0.9468(2)
H15 H 0.2688 0.4837 1.0177
H16 H 0.2317 0.4144 0.9214
H17 H 0.2302 0.5500 0.9201
C18 C 0.6945(4) 0.2724(3) 0.4313(2)
H18 H 0.6509 0.2038 0.4118
loop_
_geom_bond_atom_site_label_1
_geom_bond_atom_site_label_2
_geom_bond_site_symmetry_1
_geom_bond_site_symmetry_2
O1 C3 1_555 1_555
O2 C3 1_555 1_555
O3 C1 1_555 1_555
O4 C1 1_555 1_555
C1 C11 1_555 1_555
C2 H1 1_555 1_555
C3 C5 1_555 1_555
C4 O1 1_555 1_555
O5 C18 1_555 1_555
C5 C2 1_555 1_555
C6 C2 1_555 1_555
H2 C6 1_555 1_555
H3 C6 1_555 1_555
C7 H4 1_555 1_555
C8 H5 1_555 1_555
C9 O3 1_555 1_555
H6 C9 1_555 1_555
H7 C9 1_555 1_555
C10 C4 1_555 1_555
H8 C10 1_555 1_555
C11 C5 1_555 1_555
H9 C11 1_555 1_555
C12 C2 1_555 1_555
H10 C12 1_555 1_555
C13 C8 1_555 1_555
H11 C13 1_555 1_555
C14 C8 1_555 1_555
H12 C14 1_555 1_555
C15 C7 1_555 1_555
H13 C15 1_555 1_555
H14 C15 1_555 1_555
C16 C4 1_555 1_555
C17 C9 1_555 1_555
H15 C17 1_555 1_555
H16 C17 1_555 1_555
H17 C17 1_555 1_555
C18 C6 1_555 1_555
H18 C18 1_555 1_555
C5 C16 1_555 1_555
C7 C12 1_555 1_555
C10 C14 1_555 1_555
C11 C15 1_555 1_555
C13 C16 1_555 1_555

#END
