
#######################################################################
#
#                 Cambridge Crystallographic Data Centre
#                                CCDC 
#
#######################################################################
#
# If this CIF has been generated from an entry in the Cambridge 
# Structural Database, then it will include bibliographic, chemical, 
# crystal, experimental, refinement or atomic coordinate data resulting 
# from the CCDC's data processing and validation procedures.
#
#######################################################################

data_FIYSUD
_chemical_formula_moiety         'C14 H14 O5'
_chemical_name_systematic        
4-Hydroxy-2,3-dimethoxy-3,4-dihydrodibenzo[b,d]furan-1(2H)-one
_symmetry_cell_setting           monoclinic
_symmetry_space_group_name_H-M   'P 21'
_symmetry_Int_Tables_number      4
_space_group_name_Hall           'P 2yb'
loop_
_symmetry_equiv_pos_site_id
_symmetry_equiv_pos_as_xyz
1 x,y,z
2 -x,1/2+y,-z
_cell_length_a                   10.1746(8)
_cell_length_b                   4.7518(4)
_cell_length_c                   13.9532(10)
_cell_angle_alpha                90
_cell_angle_beta                 107.731(4)
_cell_angle_gamma                90
_cell_volume                     642.559
_exptl_crystal_colour            colorless
_exptl_crystal_description       lath
_cell_formula_units_Z            2
_exptl_crystal_recrystallization_method dichloromethane/methanol
loop_
_atom_site_label
_atom_site_type_symbol
_atom_site_fract_x
_atom_site_fract_y
_atom_site_fract_z
O1 O -0.1773(2) 0.4237(5) 0.34230(14)
O2 O -0.3565(2) 0.7377(5) 0.19433(16)
O3 O -0.2492(2) 1.0418(7) 0.06241(17)
O4 O 0.0151(2) 0.8372(5) 0.04881(12)
O5 O 0.19072(19) 0.6202(5) 0.22611(13)
C1 C -0.1299(3) 0.5663(7) 0.28809(19)
C2 C -0.2136(3) 0.7932(7) 0.2178(2)
C3 C -0.4233(3) 0.9064(10) 0.2486(3)
C4 C -0.1766(3) 0.8142(7) 0.1195(2)
C5 C -0.3495(4) 0.9621(16) -0.0292(3)
C6 C -0.0241(3) 0.8722(6) 0.13764(18)
C7 C 0.0559(3) 0.6750(6) 0.21662(19)
C8 C 0.2333(3) 0.4313(7) 0.30561(19)
C9 C 0.3630(3) 0.3134(7) 0.3395(2)
C10 C 0.3843(4) 0.1243(8) 0.4182(2)
C11 C 0.2803(4) 0.0625(8) 0.4606(2)
C12 C 0.1514(3) 0.1823(7) 0.4257(2)
C13 C 0.1273(3) 0.3724(7) 0.34550(17)
C14 C 0.0115(3) 0.5385(6) 0.28560(18)
H1 H -0.1928 0.9767 0.2512
H2 H -0.4158 1.1020 0.2332
H3 H -0.5208 0.8530 0.2297
H4 H -0.3814 0.8822 0.3207
H5 H -0.2022 0.6382 0.0828
H6 H -0.3939 1.1254 -0.0634
H7 H -0.4159 0.8426 -0.0148
H8 H -0.3055 0.8647 -0.0705
H9 H -0.0006 1.0686 0.1625
H10 H -0.0041 0.9943 0.0187
H11 H 0.4315 0.3611 0.3107
H12 H 0.4700 0.0387 0.4439
H13 H 0.2999 -0.0660 0.5153
H14 H 0.0803 0.1410 0.4531
loop_
_geom_bond_atom_site_label_1
_geom_bond_atom_site_label_2
_geom_bond_site_symmetry_1
_geom_bond_site_symmetry_2
O1 C1 1_555 1_555
O2 C2 1_555 1_555
O3 C4 1_555 1_555
O4 C6 1_555 1_555
O5 C7 1_555 1_555
C1 C2 1_555 1_555
C2 C4 1_555 1_555
C3 O2 1_555 1_555
C4 C6 1_555 1_555
C5 O3 1_555 1_555
C6 C7 1_555 1_555
C7 C14 1_555 1_555
C8 O5 1_555 1_555
C9 C8 1_555 1_555
C10 C9 1_555 1_555
C11 C10 1_555 1_555
C12 C11 1_555 1_555
C13 C8 1_555 1_555
C14 C1 1_555 1_555
H1 C2 1_555 1_555
H2 C3 1_555 1_555
H3 C3 1_555 1_555
H4 C3 1_555 1_555
H5 C4 1_555 1_555
H6 C5 1_555 1_555
H7 C5 1_555 1_555
H8 C5 1_555 1_555
H9 C6 1_555 1_555
H10 O4 1_555 1_555
H11 C9 1_555 1_555
H12 C10 1_555 1_555
H13 C11 1_555 1_555
H14 C12 1_555 1_555
C12 C13 1_555 1_555
C13 C14 1_555 1_555

#END
