
#######################################################################
#
#                 Cambridge Crystallographic Data Centre
#                                CCDC 
#
#######################################################################
#
# If this CIF has been generated from an entry in the Cambridge 
# Structural Database, then it will include bibliographic, chemical, 
# crystal, experimental, refinement or atomic coordinate data resulting 
# from the CCDC's data processing and validation procedures.
#
#######################################################################

data_FIYSOX
_chemical_formula_moiety         'C16 H15 N1 O1'
_chemical_name_systematic        1,5-Diphenylpyrrolidin-2-one
_symmetry_cell_setting           monoclinic
_symmetry_space_group_name_H-M   'P 21/n'
_symmetry_Int_Tables_number      14
_space_group_name_Hall           '-P 2yn'
loop_
_symmetry_equiv_pos_site_id
_symmetry_equiv_pos_as_xyz
1 x,y,z
2 1/2-x,1/2+y,1/2-z
3 -x,-y,-z
4 1/2+x,1/2-y,1/2+z
_cell_length_a                   11.379(5)
_cell_length_b                   7.083(3)
_cell_length_c                   15.797(7)
_cell_angle_alpha                90
_cell_angle_beta                 91.74(2)
_cell_angle_gamma                90
_cell_volume                     1272.61
_exptl_crystal_colour            colorless
_exptl_crystal_description       prism
_chemical_melting_point          '378-381 K'
_cell_formula_units_Z            4
_exptl_crystal_recrystallization_method 'ethyl acetate'
loop_
_atom_site_label
_atom_site_type_symbol
_atom_site_fract_x
_atom_site_fract_y
_atom_site_fract_z
O1 O 0.96601(10) 0.20805(18) 0.05901(7)
N1 N 1.13343(10) 0.22619(16) -0.02007(7)
C1 C 1.01428(13) 0.2368(2) -0.00760(9)
C2 C 0.95428(14) 0.2856(2) -0.09115(10)
H1 H 0.8984 0.3875 -0.0845
H2 H 0.9134 0.1769 -0.1150
C3 C 1.05371(14) 0.3459(2) -0.14677(9)
H3 H 1.0669 0.4810 -0.1429
H4 H 1.0372 0.3125 -0.2055
C4 C 1.15981(13) 0.23617(19) -0.11082(8)
H5 H 1.1586 0.1083 -0.1345
C5 C 1.27469(13) 0.32906(19) -0.13085(8)
C6 C 1.32846(15) 0.2792(2) -0.20529(9)
H6 H 1.2954 0.1848 -0.2393
C7 C 1.43011(16) 0.3673(3) -0.22964(11)
H7 H 1.4643 0.3340 -0.2802
C8 C 1.48077(16) 0.5048(3) -0.17887(12)
H8 H 1.5503 0.5626 -0.1944
C9 C 1.42817(18) 0.5563(3) -0.10506(12)
H9 H 1.4624 0.6494 -0.0709
C10 C 1.32501(16) 0.4711(3) -0.08112(10)
H10 H 1.2893 0.5090 -0.0317
C11 C 1.21261(12) 0.14746(19) 0.04124(8)
C12 C 1.29655(15) 0.0170(2) 0.01855(10)
H11 H 1.3025 -0.0190 -0.0378
C13 C 1.37172(16) -0.0598(3) 0.08002(12)
H12 H 1.4287 -0.1463 0.0646
C14 C 1.36291(16) -0.0094(3) 0.16364(11)
H13 H 1.4126 -0.0636 0.2047
C15 C 1.28025(16) 0.1214(3) 0.18633(10)
H14 H 1.2745 0.1562 0.2428
C16 C 1.20568(14) 0.2016(2) 0.12563(9)
H15 H 1.1509 0.2917 0.1412
loop_
_geom_bond_atom_site_label_1
_geom_bond_atom_site_label_2
_geom_bond_site_symmetry_1
_geom_bond_site_symmetry_2
O1 C1 1_555 1_555
N1 C1 1_555 1_555
C1 C2 1_555 1_555
C2 H1 1_555 1_555
H2 C2 1_555 1_555
C3 C2 1_555 1_555
H3 C3 1_555 1_555
H4 C3 1_555 1_555
C4 N1 1_555 1_555
H5 C4 1_555 1_555
C5 C4 1_555 1_555
C6 C5 1_555 1_555
H6 C6 1_555 1_555
C7 C6 1_555 1_555
H7 C7 1_555 1_555
C8 C7 1_555 1_555
H8 C8 1_555 1_555
C9 C8 1_555 1_555
H9 C9 1_555 1_555
C10 C5 1_555 1_555
H10 C10 1_555 1_555
C11 N1 1_555 1_555
C12 C11 1_555 1_555
H11 C12 1_555 1_555
C13 C12 1_555 1_555
H12 C13 1_555 1_555
C14 C13 1_555 1_555
H13 C14 1_555 1_555
C15 C14 1_555 1_555
H14 C15 1_555 1_555
C16 C11 1_555 1_555
H15 C16 1_555 1_555
C3 C4 1_555 1_555
C9 C10 1_555 1_555
C15 C16 1_555 1_555

#END
