
#######################################################################
#
#                 Cambridge Crystallographic Data Centre
#                                CCDC 
#
#######################################################################
#
# If this CIF has been generated from an entry in the Cambridge 
# Structural Database, then it will include bibliographic, chemical, 
# crystal, experimental, refinement or atomic coordinate data resulting 
# from the CCDC's data processing and validation procedures.
#
#######################################################################

data_FIYTUF
_chemical_formula_moiety         'C15 H12 F3 N4 O1'
_chemical_name_systematic        
'4-(4,4,5,5-Tetramethyl-1-oxyl-4,5-dihydro-1H-imidazol-2-yl)- 3,5,6-trifluorophthalonitrile radical'
_symmetry_cell_setting           orthorhombic
_symmetry_space_group_name_H-M   'F d d 2'
_symmetry_Int_Tables_number      43
_space_group_name_Hall           'F 2 -2d'
loop_
_symmetry_equiv_pos_site_id
_symmetry_equiv_pos_as_xyz
1 x,y,z
2 -x,-y,z
3 1/4-x,1/4+y,1/4+z
4 1/4+x,1/4-y,1/4+z
5 x,1/2+y,1/2+z
6 -x,1/2-y,1/2+z
7 1/4-x,3/4+y,3/4+z
8 1/4+x,3/4-y,3/4+z
9 1/2+x,y,1/2+z
10 1/2-x,-y,1/2+z
11 3/4-x,1/4+y,3/4+z
12 3/4+x,1/4-y,3/4+z
13 1/2+x,1/2+y,z
14 1/2-x,1/2-y,z
15 3/4-x,3/4+y,1/4+z
16 3/4+x,3/4-y,1/4+z
_cell_length_a                   20.3534(10)
_cell_length_b                   48.355(2)
_cell_length_c                   6.4417(3)
_cell_angle_alpha                90
_cell_angle_beta                 90
_cell_angle_gamma                90
_cell_volume                     6339.85
_exptl_crystal_colour            orange
_exptl_crystal_description       plate
_cell_formula_units_Z            16
loop_
_atom_site_label
_atom_site_type_symbol
_atom_site_fract_x
_atom_site_fract_y
_atom_site_fract_z
F1 F 0.31809(12) 0.18117(4) 0.0859(4)
C1 C 0.33784(16) 0.13355(7) 0.0529(6)
C2 C 0.34576(17) 0.15835(6) 0.1647(6)
C3 C 0.38018(17) 0.16029(7) 0.3487(6)
F2 F 0.43099(12) 0.08937(4) 0.3984(4)
C4 C 0.4103(5) 0.02135(11) 0.1000(10)
H1 H 0.4558 0.0237 0.1341
H2 H 0.4020 0.0023 0.0686
H3 H 0.3837 0.0269 0.2158
C5 C 0.3932(2) 0.03917(8) -0.0894(7)
N1 N 0.41447(18) 0.06745(7) -0.0307(6)
C6 C 0.3623(2) 0.08269(8) 0.0306(6)
C7 C 0.36890(16) 0.10977(7) 0.1361(6)
C8 C 0.3847(2) 0.18626(9) 0.4552(8)
N2 N 0.3876(2) 0.20657(8) 0.5412(9)
C9 C 0.3020(3) 0.04934(12) -0.3512(9)
H4 H 0.2567 0.0547 -0.3599
H5 H 0.3086 0.0327 -0.4296
H6 H 0.3291 0.0638 -0.4066
C10 C 0.3204(2) 0.04418(8) -0.1218(7)
N3 N 0.30608(19) 0.07087(7) -0.0100(6)
C11 C 0.41012(17) 0.13649(7) 0.4284(6)
C12 C 0.4480(2) 0.13749(8) 0.6154(7)
N4 N 0.4791(2) 0.13822(9) 0.7626(7)
C13 C 0.40290(16) 0.11232(7) 0.3194(6)
F3 F 0.30318(17) 0.13376(7) -0.1247(6)
C14 C 0.4329(3) 0.02954(11) -0.2776(9)
H7 H 0.4195 0.0398 -0.3980
H8 H 0.4252 0.0102 -0.3005
H9 H 0.4788 0.0326 -0.2525
O1 O 0.47109(19) 0.07428(8) -0.0295(9)
C15 C 0.2751(4) 0.02207(10) -0.0370(11)
H10 H 0.2849 0.0047 -0.1020
H11 H 0.2303 0.0270 -0.0653
H12 H 0.2813 0.0205 0.1103
loop_
_geom_bond_atom_site_label_1
_geom_bond_atom_site_label_2
_geom_bond_site_symmetry_1
_geom_bond_site_symmetry_2
F1 C2 1_555 1_555
C1 C2 1_555 1_555
C2 C3 1_555 1_555
C3 C8 1_555 1_555
F2 C13 1_555 1_555
C4 H1 1_555 1_555
H2 C4 1_555 1_555
H3 C4 1_555 1_555
C5 C4 1_555 1_555
N1 C5 1_555 1_555
C6 N1 1_555 1_555
C7 C1 1_555 1_555
C8 N2 1_555 1_555
C9 H4 1_555 1_555
H5 C9 1_555 1_555
H6 C9 1_555 1_555
C10 C5 1_555 1_555
N3 C6 1_555 1_555
C11 C3 1_555 1_555
C12 C11 1_555 1_555
N4 C12 1_555 1_555
C13 C7 1_555 1_555
F3 C1 1_555 1_555
C14 C5 1_555 1_555
H7 C14 1_555 1_555
H8 C14 1_555 1_555
H9 C14 1_555 1_555
O1 N1 1_555 1_555
C15 C10 1_555 1_555
H10 C15 1_555 1_555
H11 C15 1_555 1_555
H12 C15 1_555 1_555
C6 C7 1_555 1_555
C9 C10 1_555 1_555
C10 N3 1_555 1_555
C11 C13 1_555 1_555

#END
