
#######################################################################
#
#                 Cambridge Crystallographic Data Centre
#                                CCDC 
#
#######################################################################
#
# If this CIF has been generated from an entry in the Cambridge 
# Structural Database, then it will include bibliographic, chemical, 
# crystal, experimental, refinement or atomic coordinate data resulting 
# from the CCDC's data processing and validation procedures.
#
#######################################################################

data_FIYVUH
_chemical_formula_moiety         'C6 H14 N2 2+,2(C3 H3 O3 1-)'
_chemical_name_systematic        
'1,4-diazoniabicyclo[2.2.2]octane bis(pyruvate)'
_symmetry_cell_setting           monoclinic
_symmetry_space_group_name_H-M   'P 21/m'
_symmetry_Int_Tables_number      11
_space_group_name_Hall           '-P 2yb'
loop_
_symmetry_equiv_pos_site_id
_symmetry_equiv_pos_as_xyz
1 x,y,z
2 -x,1/2+y,-z
3 -x,-y,-z
4 x,1/2-y,z
_cell_length_a                   7.1927(9)
_cell_length_b                   7.1203(9)
_cell_length_c                   13.6707(17)
_cell_angle_alpha                90
_cell_angle_beta                 96.7980(10)
_cell_angle_gamma                90
_cell_volume                     695.212
_exptl_crystal_colour            colorless
_exptl_crystal_description       block
_cell_formula_units_Z            2
loop_
_atom_site_label
_atom_site_type_symbol
_atom_site_fract_x
_atom_site_fract_y
_atom_site_fract_z
O1 O 0.7955(3) 0.2500 0.49105(13)
O2 O 0.6579(3) 0.2500 0.66554(14)
C1 C 0.5474(4) 0.2500 0.59146(17)
C2 C 0.6197(4) 0.2500 0.48913(18)
O3 O 0.5038(3) 0.2500 0.41623(15)
C3 C 0.3404(4) 0.2500 0.5937(2)
N1 N 0.9360(3) 0.2500 0.32615(14)
N2 N 1.0789(3) 0.2500 0.16844(14)
C4 C 1.1420(3) 0.0790(3) 0.22551(13)
H1 H 1.2775 0.0783 0.2392
H2 H 1.1036 -0.0327 0.1878
C5 C 0.8702(3) 0.2500 0.14645(18)
H3 H 0.8294 0.1396 0.1082
C6 C 0.7850(4) 0.2500 0.2429(2)
H4 H 0.7071 0.3604 0.2464
C7 C 1.0544(3) 0.0804(3) 0.32165(14)
H5 H 0.9787 -0.0314 0.3258
H6 H 1.1522 0.0799 0.3770
H7 H 1.1310 0.2500 0.1112
H8 H 0.8854 0.2500 0.3835
C4C C 1.1420(3) 0.4210(3) 0.22551(13)
H1C H 1.2775 0.4217 0.2392
H2C H 1.1036 0.5327 0.1878
H3C H 0.8294 0.3604 0.1082
H4C H 0.7071 0.1396 0.2464
C7C C 1.0544(3) 0.4196(3) 0.32165(14)
H5C H 0.9787 0.5314 0.3258
H6C H 1.1522 0.4201 0.3770
O4 O 0.1971(3) 0.2500 0.83185(14)
C8 C 0.2194(4) 0.2500 0.92304(18)
O5 O 0.4473(3) 0.2500 1.06307(15)
O6 O 0.0952(3) 0.2500 0.97723(16)
C9 C 0.4196(4) 0.2500 0.97424(19)
C10 C 0.5743(5) 0.2500 0.9091(2)
H9? H 0.8294 0.1396 0.1082
H10? H 0.7071 0.3604 0.2464
H11? H 0.2843 0.1553 0.5497
H12? H 0.5998 0.1234 0.8906
H13? H 0.5366 0.3227 0.8510
H14? H 0.3133 0.2239 0.6595
H15? H 0.2905 0.3708 0.5735
H16? H 0.6851 0.3039 0.9441
loop_
_geom_bond_atom_site_label_1
_geom_bond_atom_site_label_2
_geom_bond_site_symmetry_1
_geom_bond_site_symmetry_2
O1 C2 1_555 1_555
O2 C1 1_555 1_555
C1 C2 1_555 1_555
C2 O3 1_555 1_555
C3 C1 1_555 1_555
N1 C6 1_555 1_555
N2 C4 1_555 1_555
C4 H1 1_555 1_555
H2 C4 1_555 1_555
C5 N2 1_555 1_555
H3 C5 1_555 1_555
C6 C5 1_555 1_555
H4 C6 1_555 1_555
C7 N1 1_555 1_555
H5 C7 1_555 1_555
H6 C7 1_555 1_555
H7 N2 1_555 1_555
H8 N1 1_555 1_555
O4 C8 1_555 1_555
C8 O6 1_555 1_555
O5 C9 1_555 1_555
C9 C8 1_555 1_555
C10 C9 1_555 1_555
C4C N2 1_555 1_555
H1C C4C 1_555 1_555
H2C C4C 1_555 1_555
H3C C5 1_555 1_555
H4C C6 1_555 1_555
C7C N1 1_555 1_555
H5C C7C 1_555 1_555
H6C C7C 1_555 1_555
C4 C7 1_555 1_555
C4C C7C 1_555 1_555

#END
