
#######################################################################
#
#                 Cambridge Crystallographic Data Centre
#                                CCDC 
#
#######################################################################
#
# If this CIF has been generated from an entry in the Cambridge 
# Structural Database, then it will include bibliographic, chemical, 
# crystal, experimental, refinement or atomic coordinate data resulting 
# from the CCDC's data processing and validation procedures.
#
#######################################################################

data_FIYVUE02
_chemical_formula_moiety         'C10 H6 O4'
_chemical_name_systematic        1,2-bis(2-Furyl)ethane-1,2-dione
_symmetry_cell_setting           orthorhombic
_symmetry_space_group_name_H-M   'F d d 2'
_symmetry_Int_Tables_number      43
_space_group_name_Hall           'F 2 -2d'
loop_
_symmetry_equiv_pos_site_id
_symmetry_equiv_pos_as_xyz
1 x,y,z
2 -x,-y,z
3 1/4-x,1/4+y,1/4+z
4 3/4+x,3/4-y,1/4+z
5 x,1/2+y,1/2+z
6 -x,1/2-y,1/2+z
7 1/4-x,3/4+y,3/4+z
8 3/4+x,1/4-y,3/4+z
9 1/2+x,y,1/2+z
10 1/2-x,-y,1/2+z
11 3/4-x,1/4+y,3/4+z
12 1/4+x,3/4-y,3/4+z
13 1/2+x,1/2+y,z
14 1/2-x,1/2-y,z
15 3/4-x,3/4+y,1/4+z
16 1/4+x,1/4-y,1/4+z
_cell_length_a                   14.903(4)
_cell_length_b                   30.511(6)
_cell_length_c                   3.7770(8)
_cell_angle_alpha                90
_cell_angle_beta                 90
_cell_angle_gamma                90
_cell_volume                     1717.42
_exptl_crystal_colour            colorless
_exptl_crystal_description       block
_cell_formula_units_Z            8
_exptl_crystal_recrystallization_method thf
loop_
_atom_site_label
_atom_site_type_symbol
_atom_site_fract_x
_atom_site_fract_y
_atom_site_fract_z
O1 O 0.31781(10) 0.20624(6) 0.2936(8)
O2 O 0.17183(10) 0.15778(5) 0.5125(7)
C1 C 0.09123(18) 0.14450(9) 0.6479(12)
H1 H 0.0735 0.1154 0.6673
C2 C 0.04119(18) 0.17857(9) 0.7488(9)
H2 H -0.0160 0.1775 0.8472
C3 C 0.09224(16) 0.21647(8) 0.6764(7)
H3 H 0.0751 0.2453 0.7178
C4 C 0.17150(13) 0.20269(6) 0.5341(7)
C5 C 0.25168(15) 0.22475(6) 0.4110(8)
O1M O 0.18219(10) 0.29376(6) 0.2936(8)
O2M O 0.32817(10) 0.34222(5) 0.5125(7)
C1M C 0.40877(18) 0.35550(9) 0.6479(12)
H1M H 0.4265 0.3846 0.6673
C2M C 0.45881(18) 0.32143(9) 0.7488(9)
H2M H 0.5160 0.3225 0.8472
C3M C 0.40776(16) 0.28353(8) 0.6764(7)
H3M H 0.4249 0.2547 0.7178
C4M C 0.32850(13) 0.29731(6) 0.5341(7)
C5M C 0.24832(15) 0.27525(6) 0.4110(8)
loop_
_geom_bond_atom_site_label_1
_geom_bond_atom_site_label_2
_geom_bond_site_symmetry_1
_geom_bond_site_symmetry_2
O1 C5 1_555 1_555
O2 C1 1_555 1_555
C1 H1 1_555 1_555
C2 C1 1_555 1_555
H2 C2 1_555 1_555
C3 C2 1_555 1_555
H3 C3 1_555 1_555
C4 O2 1_555 1_555
C5 C4 1_555 1_555
O1M C5M 1_555 1_555
O2M C1M 1_555 1_555
C1M H1M 1_555 1_555
C2M C1M 1_555 1_555
H2M C2M 1_555 1_555
C3M C2M 1_555 1_555
H3M C3M 1_555 1_555
C4M O2M 1_555 1_555
C5M C5 1_555 1_555
C3 C4 1_555 1_555
C3M C4M 1_555 1_555
C4M C5M 1_555 1_555

#END
