
#######################################################################
#
#                 Cambridge Crystallographic Data Centre
#                                CCDC 
#
#######################################################################
#
# If this CIF has been generated from an entry in the Cambridge 
# Structural Database, then it will include bibliographic, chemical, 
# crystal, experimental, refinement or atomic coordinate data resulting 
# from the CCDC's data processing and validation procedures.
#
#######################################################################

data_FIYVAL
_chemical_formula_moiety         'C17 H22 F2 O11'
_chemical_name_systematic        
'Ethyl 3-deoxy-3,3-difluoro-2,4,5,7-tetra-O-acetyl-L-arabino-hept-2-ulosonate'
_symmetry_cell_setting           monoclinic
_symmetry_space_group_name_H-M   'C 2'
_symmetry_Int_Tables_number      5
_space_group_name_Hall           'C 2y'
loop_
_symmetry_equiv_pos_site_id
_symmetry_equiv_pos_as_xyz
1 x,y,z
2 -x,y,-z
3 1/2+x,1/2+y,z
4 1/2-x,1/2+y,-z
_cell_length_a                   23.77(3)
_cell_length_b                   7.807(12)
_cell_length_c                   14.215(17)
_cell_angle_alpha                90
_cell_angle_beta                 125.489(10)
_cell_angle_gamma                90
_cell_volume                     2147.86
_cell_formula_units_Z            4
loop_
_atom_site_label
_atom_site_type_symbol
_atom_site_fract_x
_atom_site_fract_y
_atom_site_fract_z
C1 C 0.4654(2) -0.1212(5) 0.6310(4)
H1 H 0.4605 -0.1566 0.5604
C2 C 0.3987(2) -0.1616(6) 0.6210(4)
C3 C 0.4056(2) -0.1451(6) 0.7370(4)
O1 O 0.46219(15) -0.2403(4) 0.8205(3)
C4 C 0.5284(2) -0.1906(6) 0.8447(4)
H2 H 0.5365 -0.0691 0.8660
C5 C 0.5258(2) -0.2151(6) 0.7351(3)
H3 H 0.5222 -0.3376 0.7174
O2 O 0.47840(15) 0.0589(4) 0.6488(2)
C6 C 0.4537(2) 0.1596(6) 0.5540(4)
O3 O 0.42443(18) 0.1044(5) 0.4576(3)
C7 C 0.4700(3) 0.3425(7) 0.5900(5)
H4 H 0.5191 0.3563 0.6436
H5 H 0.4480 0.3761 0.6263
H6 H 0.4533 0.4128 0.5233
O4 O 0.41384(16) 0.0358(4) 0.7581(3)
C8 C 0.4110(2) 0.1017(6) 0.8446(4)
O5 O 0.4053(2) 0.0134(5) 0.9084(3)
C9 C 0.3411(3) -0.2183(7) 0.7244(4)
O6 O 0.3391(2) -0.3573(5) 0.7570(4)
O7 O 0.28940(17) -0.1062(5) 0.6703(3)
C10 C 0.2238(3) -0.1615(10) 0.6496(6)
H7 H 0.2149 -0.2798 0.6239
H8 H 0.1864 -0.0923 0.5883
C11 C 0.2247(4) -0.1461(12) 0.7553(7)
H9 H 0.1794 -0.1697 0.7356
H10 H 0.2382 -0.0320 0.7856
H11 H 0.2571 -0.2267 0.8123
F1 F 0.38152(14) -0.3286(3) 0.5857(2)
F2 F 0.34574(13) -0.0637(4) 0.5380(2)
C12 C 0.4168(5) 0.2900(8) 0.8474(6)
H12 H 0.3764 0.3374 0.7789
H13 H 0.4571 0.3217 0.8509
H14 H 0.4209 0.3336 0.9142
C13 C 0.5835(2) -0.2944(6) 0.9459(4)
H15 H 0.6285 -0.2472 0.9741
H16 H 0.5775 -0.2868 1.0077
O8 O 0.58116(15) -0.4728(4) 0.9152(3)
C14 C 0.6387(3) -0.5436(7) 0.9344(4)
O9 O 0.6899(2) -0.4557(7) 0.9674(5)
C15 C 0.6335(3) -0.7296(7) 0.9134(5)
H17 H 0.5895 -0.7557 0.8430
H18 H 0.6378 -0.7887 0.9765
H19 H 0.6698 -0.7656 0.9072
O10 O 0.59035(15) -0.1512(5) 0.7623(3)
O11 O 0.5865(2) -0.3330(6) 0.6368(4)
C16 C 0.6166(2) -0.2253(7) 0.7097(4)
C17 C 0.6855(3) -0.1520(9) 0.7508(5)
H20 H 0.7213 -0.2309 0.8032
H21 H 0.6922 -0.0455 0.7898
H22 H 0.6873 -0.1327 0.6859
loop_
_geom_bond_atom_site_label_1
_geom_bond_atom_site_label_2
_geom_bond_site_symmetry_1
_geom_bond_site_symmetry_2
C1 H1 1_555 1_555
C2 C1 1_555 1_555
C3 C2 1_555 1_555
O1 C3 1_555 1_555
C4 O1 1_555 1_555
H2 C4 1_555 1_555
C5 C1 1_555 1_555
H3 C5 1_555 1_555
O2 C1 1_555 1_555
C6 O2 1_555 1_555
O3 C6 1_555 1_555
C7 C6 1_555 1_555
H4 C7 1_555 1_555
H5 C7 1_555 1_555
H6 C7 1_555 1_555
O4 C3 1_555 1_555
C8 O4 1_555 1_555
O5 C8 1_555 1_555
C9 C3 1_555 1_555
O6 C9 1_555 1_555
O7 C9 1_555 1_555
C10 O7 1_555 1_555
H7 C10 1_555 1_555
H8 C10 1_555 1_555
C11 C10 1_555 1_555
H9 C11 1_555 1_555
H10 C11 1_555 1_555
H11 C11 1_555 1_555
F1 C2 1_555 1_555
F2 C2 1_555 1_555
C12 C8 1_555 1_555
H12 C12 1_555 1_555
H13 C12 1_555 1_555
H14 C12 1_555 1_555
C13 C4 1_555 1_555
H15 C13 1_555 1_555
H16 C13 1_555 1_555
O8 C13 1_555 1_555
C14 O8 1_555 1_555
O9 C14 1_555 1_555
C15 C14 1_555 1_555
H17 C15 1_555 1_555
H18 C15 1_555 1_555
H19 C15 1_555 1_555
O10 C5 1_555 1_555
O11 C16 1_555 1_555
C16 O10 1_555 1_555
C17 C16 1_555 1_555
H20 C17 1_555 1_555
H21 C17 1_555 1_555
H22 C17 1_555 1_555
C4 C5 1_555 1_555

#END
