
#######################################################################
#
#                 Cambridge Crystallographic Data Centre
#                                CCDC 
#
#######################################################################
#
# If this CIF has been generated from an entry in the Cambridge 
# Structural Database, then it will include bibliographic, chemical, 
# crystal, experimental, refinement or atomic coordinate data resulting 
# from the CCDC's data processing and validation procedures.
#
#######################################################################

data_FIYYAP
_chemical_formula_moiety         'C18 H14 N2'
_chemical_name_systematic        2,4-Dimethylbenzo[j][1,7]phenanthroline
_symmetry_cell_setting           triclinic
_symmetry_space_group_name_H-M   'P -1'
_symmetry_Int_Tables_number      2
_space_group_name_Hall           '-P 1'
loop_
_symmetry_equiv_pos_site_id
_symmetry_equiv_pos_as_xyz
1 x,y,z
2 -x,-y,-z
_cell_length_a                   9.4516(19)
_cell_length_b                   10.170(2)
_cell_length_c                   15.380(3)
_cell_angle_alpha                82.35(3)
_cell_angle_beta                 81.34(3)
_cell_angle_gamma                66.75(3)
_cell_volume                     1338.4
_exptl_crystal_colour            yellow
_exptl_crystal_description       block
_cell_formula_units_Z            4
loop_
_atom_site_label
_atom_site_type_symbol
_atom_site_fract_x
_atom_site_fract_y
_atom_site_fract_z
N1 N 0.20871(15) 0.27562(14) 0.41640(9)
N2 N 0.37458(18) 0.18196(16) 0.70782(9)
C1 C 0.09530(18) 0.32087(17) 0.36486(11)
C2 C -0.06126(19) 0.36427(18) 0.39939(12)
H1 H -0.1374 0.3936 0.3611
C3 C -0.10324(18) 0.36398(17) 0.48863(12)
C4 C 0.01640(18) 0.31377(16) 0.54466(11)
C5 C 0.17031(17) 0.27053(15) 0.50471(10)
C6 C -0.0098(2) 0.30623(19) 0.63970(12)
H2 H -0.1110 0.3325 0.6664
C7 C 0.1058(2) 0.26285(19) 0.69116(12)
H3 H 0.0830 0.2609 0.7522
C8 C 0.26397(19) 0.21951(17) 0.65318(10)
C9 C 0.29690(17) 0.21881(15) 0.55948(10)
C10 C 0.5238(2) 0.13928(17) 0.67161(11)
C11 C 0.56794(18) 0.12685(16) 0.57929(11)
C12 C 0.45007(17) 0.16833(16) 0.52429(11)
H4 H 0.4750 0.1619 0.4637
C13 C 0.6419(2) 0.1083(2) 0.72699(13)
H5 H 0.6154 0.1186 0.7871
C14 C 0.7919(2) 0.0641(2) 0.69384(15)
H6 H 0.8673 0.0464 0.7312
C15 C 0.8365(2) 0.04434(19) 0.60288(15)
H7 H 0.9409 0.0095 0.5815
C16 C 0.72798(19) 0.07593(18) 0.54704(13)
H8 H 0.7580 0.0644 0.4872
C17 C 0.1408(2) 0.3238(2) 0.26716(12)
H9 H 0.2436 0.3234 0.2549
H10 H 0.0697 0.4091 0.2388
H11 H 0.1383 0.2408 0.2452
C18 C -0.27264(19) 0.4193(2) 0.52441(14)
H12 H -0.2987 0.5067 0.5517
H13 H -0.2917 0.3488 0.5673
H14 H -0.3350 0.4375 0.4770
N3 N 0.13555(15) -0.13887(14) 0.10206(8)
N4 N -0.10558(16) 0.37797(14) 0.09638(9)
C19 C 0.24943(19) -0.25592(17) 0.07144(11)
C20 C 0.36330(19) -0.24701(19) 0.00461(11)
H15 H 0.4419 -0.3312 -0.0139
C21 C 0.36251(18) -0.11780(19) -0.03445(11)
C22 C 0.24163(17) 0.00810(17) -0.00366(10)
C23 C 0.13336(17) -0.00985(16) 0.06512(10)
C24 C 0.22669(19) 0.15074(19) -0.03846(12)
H16 H 0.2966 0.1620 -0.0854
C25 C 0.1146(2) 0.26887(19) -0.00530(11)
H17 H 0.1099 0.3594 -0.0289
C26 C 0.00257(18) 0.25639(17) 0.06593(10)
C27 C 0.00879(17) 0.11701(16) 0.10046(9)
C28 C -0.21203(19) 0.36624(18) 0.16321(11)
C29 C -0.21693(18) 0.23234(17) 0.20050(10)
C30 C -0.10249(17) 0.10706(17) 0.16681(10)
H18 H -0.1021 0.0175 0.1894
C31 C -0.3253(2) 0.49381(19) 0.19735(13)
H19 H -0.3233 0.5825 0.1745
C32 C -0.4357(2) 0.4875(2) 0.26271(14)
H20 H -0.5083 0.5721 0.2845
C33 C -0.4429(2) 0.3553(2) 0.29847(13)
H21 H -0.5215 0.3532 0.3424
C34 C -0.3347(2) 0.2303(2) 0.26879(12)
H22 H -0.3384 0.1430 0.2936
C35 C 0.2486(2) -0.39769(18) 0.11172(13)
H23 H 0.3531 -0.4670 0.1109
H24 H 0.1909 -0.4289 0.0786
H25 H 0.2014 -0.3883 0.1716
C36 C 0.4850(2) -0.1100(2) -0.10774(13)
H26 H 0.5482 -0.0682 -0.0877
H27 H 0.4363 -0.0518 -0.1576
H28 H 0.5485 -0.2049 -0.1245
loop_
_geom_bond_atom_site_label_1
_geom_bond_atom_site_label_2
_geom_bond_site_symmetry_1
_geom_bond_site_symmetry_2
N1 C1 1_555 1_555
N2 C8 1_555 1_555
C1 C2 1_555 1_555
C2 H1 1_555 1_555
C3 C2 1_555 1_555
C4 C3 1_555 1_555
C5 N1 1_555 1_555
C6 C4 1_555 1_555
H2 C6 1_555 1_555
C7 C6 1_555 1_555
H3 C7 1_555 1_555
C8 C7 1_555 1_555
C9 C5 1_555 1_555
C10 N2 1_555 1_555
C11 C10 1_555 1_555
C12 C9 1_555 1_555
H4 C12 1_555 1_555
C13 C10 1_555 1_555
H5 C13 1_555 1_555
C14 C13 1_555 1_555
H6 C14 1_555 1_555
C15 C14 1_555 1_555
H7 C15 1_555 1_555
C16 C11 1_555 1_555
H8 C16 1_555 1_555
C17 C1 1_555 1_555
H9 C17 1_555 1_555
H10 C17 1_555 1_555
H11 C17 1_555 1_555
C18 C3 1_555 1_555
H12 C18 1_555 1_555
H13 C18 1_555 1_555
H14 C18 1_555 1_555
N3 C19 1_555 1_555
N4 C26 1_555 1_555
C19 C20 1_555 1_555
C20 H15 1_555 1_555
C21 C20 1_555 1_555
C22 C21 1_555 1_555
C23 N3 1_555 1_555
C24 C22 1_555 1_555
H16 C24 1_555 1_555
C25 C24 1_555 1_555
H17 C25 1_555 1_555
C26 C25 1_555 1_555
C27 C23 1_555 1_555
C28 N4 1_555 1_555
C29 C28 1_555 1_555
C30 C27 1_555 1_555
H18 C30 1_555 1_555
C31 C28 1_555 1_555
H19 C31 1_555 1_555
C32 C31 1_555 1_555
H20 C32 1_555 1_555
C33 C32 1_555 1_555
H21 C33 1_555 1_555
C34 C29 1_555 1_555
H22 C34 1_555 1_555
C35 C19 1_555 1_555
H23 C35 1_555 1_555
H24 C35 1_555 1_555
H25 C35 1_555 1_555
C36 C21 1_555 1_555
H26 C36 1_555 1_555
H27 C36 1_555 1_555
H28 C36 1_555 1_555
C4 C5 1_555 1_555
C8 C9 1_555 1_555
C11 C12 1_555 1_555
C15 C16 1_555 1_555
C22 C23 1_555 1_555
C26 C27 1_555 1_555
C29 C30 1_555 1_555
C33 C34 1_555 1_555

#END
