
#######################################################################
#
#                 Cambridge Crystallographic Data Centre
#                                CCDC 
#
#######################################################################
#
# If this CIF has been generated from an entry in the Cambridge 
# Structural Database, then it will include bibliographic, chemical, 
# crystal, experimental, refinement or atomic coordinate data resulting 
# from the CCDC's data processing and validation procedures.
#
#######################################################################

data_FIYZIY
_chemical_formula_moiety         'C38 H46 N4 S2 Si2'
_chemical_name_systematic        
2,2'-(2,7-bis(triisopropylsilyl)thieno[2',3':5,6]naphtho[1,2-b]thiene-5,10-diylidene)dimalononitrile
_symmetry_cell_setting           monoclinic
_symmetry_space_group_name_H-M   'P 21/n'
_symmetry_Int_Tables_number      14
_space_group_name_Hall           '-P 2yn'
loop_
_symmetry_equiv_pos_site_id
_symmetry_equiv_pos_as_xyz
1 x,y,z
2 1/2-x,1/2+y,1/2-z
3 -x,-y,-z
4 1/2+x,1/2-y,1/2+z
_cell_length_a                   10.6749(13)
_cell_length_b                   15.0601(14)
_cell_length_c                   12.3997(14)
_cell_angle_alpha                90
_cell_angle_beta                 108.4776(13)
_cell_angle_gamma                90
_cell_volume                     1890.67
_exptl_crystal_colour            'reddish black'
_exptl_crystal_description       block
_cell_formula_units_Z            2
loop_
_atom_site_label
_atom_site_type_symbol
_atom_site_fract_x
_atom_site_fract_y
_atom_site_fract_z
S1 S 0.70888(4) 1.16295(3) 0.96777(5)
Si1 Si 0.71559(4) 1.36928(3) 0.91703(5)
C1 C 0.43627(13) 0.98388(11) 1.00207(14)
C2 C 0.56941(14) 1.10877(12) 0.97203(15)
C3 C 0.62900(16) 1.26418(12) 0.93657(17)
C4 C 0.49947(16) 1.25457(12) 0.92982(16)
H1 H 0.4401 1.3017 0.9143
C5 C 0.46281(15) 1.16615(11) 0.94856(15)
C6 C 0.33590(14) 1.13113(11) 0.94856(15)
C7 C 0.33056(14) 1.03991(12) 0.98004(15)
H2 H 0.2515 1.0179 0.9857
C8 C 0.21965(15) 1.17977(13) 0.91827(17)
C9 C 0.09979(16) 1.14299(13) 0.92828(19)
N1 N 0.00447(16) 1.11546(14) 0.9376(2)
C10 C 0.57866(19) 1.45312(13) 0.86184(18)
H3 H 0.5246 1.4491 0.9125
C11 C 0.8283(2) 1.40558(15) 1.05927(19)
H4 H 0.8639 1.4634 1.0474
C12 C 0.8191(2) 1.34437(15) 0.8227(2)
H5 H 0.8960 1.3119 0.8712
C13 C 0.4852(2) 1.43252(16) 0.7423(2)
H6 H 0.4094 1.4706 0.7256
H7 H 0.4575 1.3717 0.7389
H8 H 0.5304 1.4424 0.6876
C14 C 0.2056(2) 1.26749(16) 0.8726(3)
C15 C 0.8758(3) 1.42980(19) 0.7883(3)
H9 H 0.9356 1.4147 0.7475
H10 H 0.9220 1.4628 0.8553
H11 H 0.8050 1.4652 0.7407
N2 N 0.1882(2) 1.33617(17) 0.8336(4)
C16 C 0.6263(2) 1.55017(14) 0.8689(3)
H12 H 0.6706 1.5600 0.8136
H13 H 0.6862 1.5617 0.9436
H14 H 0.5518 1.5893 0.8540
C17 C 0.9468(2) 1.34545(19) 1.1105(3)
H15 H 1.0023 1.3708 1.1803
H16 H 0.9960 1.3395 1.0581
H17 H 0.9169 1.2880 1.1254
C18 C 0.7549(3) 1.4207(2) 1.1451(2)
H18 H 0.7218 1.3650 1.1624
H19 H 0.6825 1.4606 1.1134
H20 H 0.8142 1.4458 1.2134
C19 C 0.7597(3) 1.2846(2) 0.7227(3)
H21 H 0.6865 1.3142 0.6690
H22 H 0.7294 1.2309 0.7480
H23 H 0.8251 1.2706 0.6871
S1B S 0.29112(4) 0.83705(3) 1.03223(5)
Si1B Si 0.28441(4) 0.63072(3) 1.08297(5)
C1B C 0.56373(13) 1.01612(11) 0.99793(14)
C2B C 0.43059(14) 0.89123(12) 1.02797(15)
C3B C 0.37100(16) 0.73582(12) 1.06343(17)
C4B C 0.50053(16) 0.74543(12) 1.07018(16)
H1B H 0.5599 0.6983 1.0857
C5B C 0.53719(15) 0.83385(11) 1.05144(15)
C6B C 0.66410(14) 0.86887(11) 1.05144(15)
C7B C 0.66944(14) 0.96009(12) 1.01996(15)
H2B H 0.7485 0.9821 1.0143
C8B C 0.78035(15) 0.82023(13) 1.08173(17)
C9B C 0.90021(16) 0.85701(13) 1.07172(19)
N1B N 0.99553(16) 0.88454(14) 1.0624(2)
C10B C 0.42134(19) 0.54688(13) 1.13816(18)
H3B H 0.4754 0.5509 1.0875
C11B C 0.1717(2) 0.59442(15) 0.94073(19)
H4B H 0.1361 0.5366 0.9526
C12B C 0.1809(2) 0.65563(15) 1.1773(2)
H5B H 0.1040 0.6881 1.1288
C13B C 0.5148(2) 0.56748(16) 1.2577(2)
H6B H 0.5906 0.5294 1.2744
H7B H 0.5425 0.6283 1.2611
H8B H 0.4696 0.5576 1.3124
C14B C 0.7944(2) 0.73251(16) 1.1274(3)
C15B C 0.1242(3) 0.57020(19) 1.2117(3)
H9B H 0.0644 0.5853 1.2525
H10B H 0.0780 0.5372 1.1447
H11B H 0.1950 0.5348 1.2593
N2B N 0.8118(2) 0.66383(17) 1.1664(4)
C16B C 0.3737(2) 0.44983(14) 1.1311(3)
H12B H 0.3294 0.4400 1.1864
H13B H 0.3138 0.4383 1.0564
H14B H 0.4482 0.4107 1.1460
C17B C 0.0532(2) 0.65455(19) 0.8895(3)
H15B H -0.0023 0.6292 0.8197
H16B H 0.0040 0.6605 0.9419
H17B H 0.0831 0.7120 0.8746
C18B C 0.2451(3) 0.5793(2) 0.8549(2)
H18B H 0.2782 0.6350 0.8376
H19B H 0.3175 0.5394 0.8866
H20B H 0.1858 0.5542 0.7866
C19B C 0.2403(3) 0.7154(2) 1.2773(3)
H21B H 0.3135 0.6858 1.3310
H22B H 0.2706 0.7691 1.2520
H23B H 0.1749 0.7294 1.3129
loop_
_geom_bond_atom_site_label_1
_geom_bond_atom_site_label_2
_geom_bond_site_symmetry_1
_geom_bond_site_symmetry_2
S1 C2 1_555 1_555
Si1 C3 1_555 1_555
C1 C7 1_555 1_555
C2 C5 1_555 1_555
C3 S1 1_555 1_555
C4 C3 1_555 1_555
H1 C4 1_555 1_555
C5 C4 1_555 1_555
C6 C5 1_555 1_555
C7 C6 1_555 1_555
H2 C7 1_555 1_555
C8 C6 1_555 1_555
C9 C8 1_555 1_555
N1 C9 1_555 1_555
C10 Si1 1_555 1_555
H3 C10 1_555 1_555
C11 Si1 1_555 1_555
H4 C11 1_555 1_555
C12 Si1 1_555 1_555
H5 C12 1_555 1_555
C13 C10 1_555 1_555
H6 C13 1_555 1_555
H7 C13 1_555 1_555
H8 C13 1_555 1_555
C14 C8 1_555 1_555
C15 C12 1_555 1_555
H9 C15 1_555 1_555
H10 C15 1_555 1_555
H11 C15 1_555 1_555
N2 C14 1_555 1_555
C16 C10 1_555 1_555
H12 C16 1_555 1_555
H13 C16 1_555 1_555
H14 C16 1_555 1_555
C17 C11 1_555 1_555
H15 C17 1_555 1_555
H16 C17 1_555 1_555
H17 C17 1_555 1_555
C18 C11 1_555 1_555
H18 C18 1_555 1_555
H19 C18 1_555 1_555
H20 C18 1_555 1_555
C19 C12 1_555 1_555
H21 C19 1_555 1_555
H22 C19 1_555 1_555
H23 C19 1_555 1_555
S1B C2B 1_555 1_555
Si1B C3B 1_555 1_555
C1B C1 1_555 1_555
C2B C1 1_555 1_555
C3B S1B 1_555 1_555
C4B C3B 1_555 1_555
H1B C4B 1_555 1_555
C5B C2B 1_555 1_555
C6B C5B 1_555 1_555
C7B C1B 1_555 1_555
H2B C7B 1_555 1_555
C8B C6B 1_555 1_555
C9B C8B 1_555 1_555
N1B C9B 1_555 1_555
C10B Si1B 1_555 1_555
H3B C10B 1_555 1_555
C11B Si1B 1_555 1_555
H4B C11B 1_555 1_555
C12B Si1B 1_555 1_555
H5B C12B 1_555 1_555
C13B C10B 1_555 1_555
H6B C13B 1_555 1_555
H7B C13B 1_555 1_555
H8B C13B 1_555 1_555
C14B C8B 1_555 1_555
C15B C12B 1_555 1_555
H9B C15B 1_555 1_555
H10B C15B 1_555 1_555
H11B C15B 1_555 1_555
N2B C14B 1_555 1_555
C16B C10B 1_555 1_555
H12B C16B 1_555 1_555
H13B C16B 1_555 1_555
H14B C16B 1_555 1_555
C17B C11B 1_555 1_555
H15B C17B 1_555 1_555
H16B C17B 1_555 1_555
H17B C17B 1_555 1_555
C18B C11B 1_555 1_555
H18B C18B 1_555 1_555
H19B C18B 1_555 1_555
H20B C18B 1_555 1_555
C19B C12B 1_555 1_555
H21B C19B 1_555 1_555
H22B C19B 1_555 1_555
H23B C19B 1_555 1_555
C2 C1B 1_555 1_555
C4B C5B 1_555 1_555
C6B C7B 1_555 1_555

#END
