
#######################################################################
#
#                 Cambridge Crystallographic Data Centre
#                                CCDC 
#
#######################################################################
#
# If this CIF has been generated from an entry in the Cambridge 
# Structural Database, then it will include bibliographic, chemical, 
# crystal, experimental, refinement or atomic coordinate data resulting 
# from the CCDC's data processing and validation procedures.
#
#######################################################################

data_FIZCID
_chemical_formula_moiety         
'C48 H48 N16 O12,C5 H13 N1 O4 P1 1-,0.5(C4 H10 O1),C16 H36 N1 1+,3.3(H2 O1)'
_chemical_name_systematic        
"N,N',N''-{nitrilotris[(ethane-2,1-diyl)carbamoylazanediyl-2,1-phenylene]}tris[N'-(4-nitrophenyl)urea] tetra-n-butylammonium choline phosphate diethyl ether solvate hydrate"
_symmetry_cell_setting           monoclinic
_symmetry_space_group_name_H-M   'P 21/n'
_symmetry_Int_Tables_number      14
_space_group_name_Hall           '-P 2yn'
loop_
_symmetry_equiv_pos_site_id
_symmetry_equiv_pos_as_xyz
1 x,y,z
2 1/2-x,1/2+y,1/2-z
3 -x,-y,-z
4 1/2+x,1/2-y,1/2+z
_cell_length_a                   22.7938(8)
_cell_length_b                   18.9289(4)
_cell_length_c                   23.1163(8)
_cell_angle_alpha                90
_cell_angle_beta                 119.257(5)
_cell_angle_gamma                90
_cell_volume                     8701.5
_exptl_crystal_colour            yellow
_exptl_crystal_description       block
_cell_formula_units_Z            4
loop_
_atom_site_label
_atom_site_type_symbol
_atom_site_fract_x
_atom_site_fract_y
_atom_site_fract_z
C49 C 0.2330(3) 0.1248(3) 0.8837(3)
H49 H 0.2077 0.0842 0.8874
H50 H 0.2791 0.1087 0.8964
C50 C 0.1985(3) 0.1520(4) 0.8127(3)
H51 H 0.2172 0.1991 0.8124
H52 H 0.2100 0.1200 0.7858
C51 C 0.1020(3) 0.1769(4) 0.7102(3)
H53 H 0.1273 0.2179 0.7085
H54 H 0.0539 0.1884 0.6880
H55 H 0.1094 0.1368 0.6876
C52 C 0.0922(3) 0.0908(3) 0.7824(3)
H56 H 0.0433 0.0957 0.7555
H57 H 0.1041 0.0799 0.8283
H58 H 0.1076 0.0524 0.7646
C53 C 0.1040(3) 0.2163(3) 0.8116(3)
H59 H 0.1225 0.2614 0.8072
H60 H 0.1210 0.2058 0.8586
H61 H 0.0548 0.2192 0.7889
N17 N 0.1251(2) 0.1580(3) 0.7805(2)
O13 O 0.23579(15) 0.17921(16) 0.92608(15)
O14 O 0.21695(15) 0.11134(14) 1.00861(16)
O15 O 0.26295(14) 0.23540(13) 1.03025(14)
O16 O 0.33407(14) 0.13278(15) 1.03004(15)
P1 P 0.26419(6) 0.16313(6) 1.00295(6)
C54 C 0.5087(5) 0.1945(4) 0.7490(5)
H62 H 0.5234 0.1448 0.7601
H63 H 0.5039 0.2141 0.7862
C55 C 0.4410(5) 0.1949(5) 0.6881(6)
H64 H 0.4448 0.1788 0.6494
H65 H 0.4222 0.2434 0.6792
C56 C 0.3929(7) 0.1433(7) 0.7002(9)
H66 H 0.4080 0.0939 0.7022
H67 H 0.3952 0.1548 0.7430
C57 C 0.3241(7) 0.1509(7) 0.6467(10)
H68 H 0.3148 0.2008 0.6342
H69 H 0.2931 0.1336 0.6614
H70 H 0.3182 0.1233 0.6083
C58 C 0.5777(3) 0.2007(3) 0.6940(3)
H71 H 0.5368 0.2062 0.6503
H72 H 0.6141 0.2274 0.6920
C59 C 0.5960(5) 0.1276(4) 0.7018(4)
H73 H 0.5559 0.0980 0.6901
H74 H 0.6297 0.1179 0.7485
C60 C 0.6262(6) 0.1086(4) 0.6551(4)
H75 H 0.6315 0.0566 0.6577
H76 H 0.5898 0.1189 0.6095
C61 C 0.6854(4) 0.1349(4) 0.6578(5)
H77 H 0.6787 0.1844 0.6435
H78 H 0.6961 0.1070 0.6285
H79 H 0.7227 0.1317 0.7034
C62 C 0.6290(5) 0.2293(5) 0.8113(4)
H80 H 0.6218 0.2515 0.8461
H81 H 0.6389 0.1786 0.8226
C63 C 0.6862(4) 0.2618(4) 0.8116(4)
H82 H 0.6761 0.3106 0.7940
H83 H 0.7024 0.2338 0.7861
C64 C 0.7347(7) 0.2607(5) 0.8836(5)
H84 H 0.7094 0.2506 0.9073
H85 H 0.7658 0.2206 0.8922
C65 C 0.7726(4) 0.3197(5) 0.9113(5)
H86 H 0.8090 0.3219 0.9002
H87 H 0.7920 0.3179 0.9596
H88 H 0.7443 0.3618 0.8940
C66 C 0.5416(5) 0.3103(4) 0.7226(5)
H89 H 0.4988 0.3089 0.6801
H90 H 0.5754 0.3344 0.7143
C67 C 0.5310(5) 0.3545(4) 0.7742(5)
H91 H 0.5720 0.3527 0.8182
H92 H 0.4930 0.3350 0.7784
C68 C 0.5155(6) 0.4337(6) 0.7481(6)
H93 H 0.4807 0.4339 0.7007
H94 H 0.4975 0.4600 0.7732
C69 C 0.5788(10) 0.4705(13) 0.7564(13)
N18 N 0.5647(3) 0.2357(3) 0.7448(3)
C70 C 0.8476(6) 0.2444(8) 0.3326(6)
H95 H 0.8351 0.2503 0.3673
H96 H 0.8605 0.2902 0.3225
H97 H 0.8856 0.2116 0.3480
C71 C 0.7923(7) 0.2169(7) 0.2748(7)
H98 H 0.7693 0.2552 0.2423
H99 H 0.7597 0.1951 0.2860
C72 C 0.7592(8) 0.1306(7) 0.1899(6)
H100 H 0.7341 0.1647 0.1536
H101 H 0.7282 0.1089 0.2033
C73 C 0.7940(11) 0.0743(8) 0.1695(7)
H102 H 0.8424 0.0843 0.1910
H103 H 0.7751 0.0751 0.1213
H104 H 0.7869 0.0276 0.1833
O17 O 0.8174(5) 0.1647(5) 0.2472(5)
C1 C 0.9157(3) 0.4160(3) 0.7665(3)
H1 H 0.9486 0.4087 0.8139
H2 H 0.8935 0.4622 0.7622
C2 C 0.9524(3) 0.4176(3) 0.7266(3)
H3 H 0.9898 0.4520 0.7470
H4 H 0.9721 0.3704 0.7287
C3 C 0.8914(3) 0.5048(3) 0.6396(3)
C4 C 0.8235(3) 0.5808(3) 0.5435(3)
C5 C 0.8733(3) 0.6296(3) 0.5531(3)
H5 H 0.9194 0.6184 0.5812
C6 C 0.8557(4) 0.6937(3) 0.5219(4)
H6 H 0.8893 0.7272 0.5281
C7 C 0.7903(5) 0.7089(3) 0.4822(4)
H7 H 0.7790 0.7540 0.4616
C8 C 0.7384(4) 0.6622(3) 0.4698(4)
H8 H 0.6927 0.6745 0.4410
C9 C 0.7565(3) 0.5959(3) 0.5017(4)
C10 C 0.6385(4) 0.5487(3) 0.4564(5)
C11 C 0.5431(3) 0.4654(3) 0.4250(4)
C12 C 0.4942(4) 0.5126(3) 0.4164(7)
H9 H 0.5039 0.5617 0.4212
C13 C 0.4310(4) 0.4897(4) 0.4008(7)
H10 H 0.3991 0.5223 0.4001
C14 C 0.4144(3) 0.4225(3) 0.3866(4)
C15 C 0.4611(3) 0.3746(3) 0.3915(3)
H11 H 0.4492 0.3263 0.3816
C16 C 0.5253(2) 0.3964(2) 0.4107(2)
H12 H 0.5579 0.3629 0.4141
C17 C 0.8102(3) 0.3777(3) 0.7569(3)
H13 H 0.8292 0.4005 0.8009
H14 H 0.7869 0.3340 0.7580
C18 C 0.7600(3) 0.4268(2) 0.7053(2)
H15 H 0.7282 0.4436 0.7199
H16 H 0.7839 0.4686 0.7012
C19 C 0.6689(2) 0.3513(2) 0.6260(3)
C20 C 0.5799(2) 0.2825(2) 0.5341(2)
C21 C 0.5260(2) 0.3007(3) 0.5446(3)
H17 H 0.5303 0.3395 0.5725
C22 C 0.4667(3) 0.2624(3) 0.5144(3)
H18 H 0.4302 0.2753 0.5211
C23 C 0.4608(2) 0.2064(3) 0.4752(3)
H19 H 0.4204 0.1796 0.4559
C24 C 0.5124(2) 0.1871(2) 0.4627(2)
H20 H 0.5071 0.1482 0.4346
C25 C 0.5722(2) 0.2259(2) 0.4922(2)
C26 C 0.6257(2) 0.1677(2) 0.4331(3)
C27 C 0.7080(2) 0.1206(2) 0.4021(2)
C28 C 0.6634(2) 0.0798(3) 0.3476(3)
H21 H 0.6166 0.0798 0.3335
C29 C 0.6885(3) 0.0393(3) 0.3147(3)
H22 H 0.6590 0.0114 0.2776
C30 C 0.7551(3) 0.0397(3) 0.3353(3)
C31 C 0.7992(3) 0.0797(3) 0.3866(3)
H23 H 0.8458 0.0790 0.3999
C32 C 0.7752(2) 0.1213(3) 0.4191(3)
H24 H 0.8054 0.1512 0.4541
C33 C 0.8955(3) 0.2909(3) 0.7737(3)
H25 H 0.9004 0.2875 0.8186
H26 H 0.9411 0.2887 0.7785
C34 C 0.8544(3) 0.2286(3) 0.7324(3)
H27 H 0.8746 0.1843 0.7568
H28 H 0.8082 0.2321 0.7258
C35 C 0.9006(3) 0.1944(2) 0.6616(3)
C36 C 0.9324(2) 0.1619(3) 0.5773(3)
C37 C 0.9502(3) 0.0921(3) 0.5939(3)
H29 H 0.9337 0.0672 0.6187
C38 C 0.9922(3) 0.0574(4) 0.5749(4)
H30 H 1.0047 0.0096 0.5873
C39 C 1.0148(4) 0.0920(4) 0.5389(4)
H31 H 1.0438 0.0685 0.5264
C40 C 0.9966(3) 0.1616(4) 0.5197(3)
H32 H 1.0123 0.1851 0.4935
C41 C 0.9548(3) 0.1973(3) 0.5391(3)
C42 C 0.9486(3) 0.3119(3) 0.4844(3)
C43 C 0.9221(2) 0.4368(3) 0.4445(3)
C44 C 0.9473(3) 0.4386(4) 0.4013(3)
H33 H 0.9637 0.3966 0.3916
C45 C 0.9488(3) 0.5011(6) 0.3723(3)
H34 H 0.9677 0.5023 0.3437
C46 C 0.9238(4) 0.5611(4) 0.3834(3)
C47 C 0.8989(4) 0.5602(3) 0.4257(4)
H35 H 0.8827 0.6024 0.4352
C48 C 0.8972(4) 0.4980(3) 0.4547(4)
H36 H 0.8780 0.4974 0.4831
N1 N 0.8646(2) 0.3594(2) 0.7441(2)
N2 N 0.9100(2) 0.4361(2) 0.6589(2)
H37 H 0.8952 0.4027 0.6287
N3 N 0.8425(2) 0.51348(19) 0.5756(2)
H38 H 0.8214 0.4757 0.5527
N4 N 0.7081(3) 0.5435(2) 0.4903(3)
H39 H 0.7243 0.5016 0.5071
N5 N 0.6107(2) 0.4826(2) 0.4476(3)
H40 H 0.6385 0.4468 0.4572
N6 N 0.3452(3) 0.3983(4) 0.3663(4)
N7 N 0.7220(2) 0.39304(19) 0.6402(2)
H41 H 0.7342 0.4002 0.6099
N8 N 0.64055(18) 0.32156(18) 0.56380(19)
H42 H 0.6616 0.3272 0.5408
N9 N 0.62702(17) 0.20992(17) 0.48216(18)
H43 H 0.6660 0.2289 0.5101
N10 N 0.68887(17) 0.16113(17) 0.43947(19)
H44 H 0.7210 0.1860 0.4715
N11 N 0.7800(3) -0.0058(3) 0.2999(3)
N12 N 0.85145(19) 0.22584(19) 0.6688(2)
H45 H 0.8171 0.2450 0.6341
N13 N 0.89075(19) 0.19748(19) 0.5976(2)
H46 H 0.8570 0.2228 0.5680
N14 N 0.9346(2) 0.2668(2) 0.5219(2)
H47 H 0.9092 0.2842 0.5373
N15 N 0.9190(2) 0.3767(2) 0.4775(2)
H48 H 0.8942 0.3809 0.4970
N16 N 0.9257(3) 0.6280(4) 0.3531(3)
O1 O 0.9177(2) 0.55384(18) 0.67829(19)
O2 O 0.6083(3) 0.6028(2) 0.4358(4)
O3 O 0.3083(3) 0.4382(3) 0.3749(5)
O4 O 0.3306(2) 0.3387(3) 0.3476(3)
O5 O 0.64807(16) 0.34192(15) 0.66534(16)
O6 O 0.57582(16) 0.14062(17) 0.38936(18)
O7 O 0.7395(3) -0.0391(3) 0.2519(3)
O8 O 0.8400(2) -0.0079(3) 0.3198(2)
O9 O 0.95033(18) 0.16648(17) 0.70761(18)
O10 O 0.9840(2) 0.2979(3) 0.4591(2)
O11 O 0.9418(3) 0.6284(4) 0.3108(3)
O12 O 0.9032(6) 0.6797(4) 0.3638(4)
C74? C 0.6348(13) 0.5062(14) 0.7850(12)
loop_
_geom_bond_atom_site_label_1
_geom_bond_atom_site_label_2
_geom_bond_site_symmetry_1
_geom_bond_site_symmetry_2
C1 H1 1_555 1_555
H2 C1 1_555 1_555
C2 C1 1_555 1_555
H3 C2 1_555 1_555
H4 C2 1_555 1_555
C3 N2 1_555 1_555
C4 C5 1_555 1_555
C5 H5 1_555 1_555
C6 C5 1_555 1_555
H6 C6 1_555 1_555
C7 C6 1_555 1_555
H7 C7 1_555 1_555
C8 C7 1_555 1_555
H8 C8 1_555 1_555
C9 C4 1_555 1_555
C10 N4 1_555 1_555
C11 C12 1_555 1_555
C12 H9 1_555 1_555
C13 C12 1_555 1_555
H10 C13 1_555 1_555
C14 C13 1_555 1_555
C15 C14 1_555 1_555
H11 C15 1_555 1_555
C16 C11 1_555 1_555
H12 C16 1_555 1_555
C17 H13 1_555 1_555
H14 C17 1_555 1_555
C18 C17 1_555 1_555
H15 C18 1_555 1_555
H16 C18 1_555 1_555
C19 N7 1_555 1_555
C20 C21 1_555 1_555
C21 H17 1_555 1_555
C22 C21 1_555 1_555
H18 C22 1_555 1_555
C23 C22 1_555 1_555
H19 C23 1_555 1_555
C24 C23 1_555 1_555
H20 C24 1_555 1_555
C25 C20 1_555 1_555
C26 N9 1_555 1_555
C27 C28 1_555 1_555
C28 H21 1_555 1_555
C29 C28 1_555 1_555
H22 C29 1_555 1_555
C30 C29 1_555 1_555
C31 C30 1_555 1_555
H23 C31 1_555 1_555
C32 C27 1_555 1_555
H24 C32 1_555 1_555
C33 H25 1_555 1_555
H26 C33 1_555 1_555
C34 C33 1_555 1_555
H27 C34 1_555 1_555
H28 C34 1_555 1_555
C35 N12 1_555 1_555
C36 C37 1_555 1_555
C37 H29 1_555 1_555
C38 C37 1_555 1_555
H30 C38 1_555 1_555
C39 C38 1_555 1_555
H31 C39 1_555 1_555
C40 C39 1_555 1_555
H32 C40 1_555 1_555
C41 C36 1_555 1_555
C42 N14 1_555 1_555
C43 C44 1_555 1_555
C44 H33 1_555 1_555
C45 C44 1_555 1_555
H34 C45 1_555 1_555
C46 C45 1_555 1_555
C47 C46 1_555 1_555
H35 C47 1_555 1_555
C48 C43 1_555 1_555
H36 C48 1_555 1_555
N1 C1 1_555 1_555
N2 C2 1_555 1_555
H37 N2 1_555 1_555
N3 C3 1_555 1_555
H38 N3 1_555 1_555
N4 C9 1_555 1_555
H39 N4 1_555 1_555
N5 C10 1_555 1_555
H40 N5 1_555 1_555
N6 C14 1_555 1_555
N7 C18 1_555 1_555
H41 N7 1_555 1_555
N8 C19 1_555 1_555
H42 N8 1_555 1_555
N9 C25 1_555 1_555
H43 N9 1_555 1_555
N10 C26 1_555 1_555
H44 N10 1_555 1_555
N11 C30 1_555 1_555
N12 C34 1_555 1_555
H45 N12 1_555 1_555
N13 C35 1_555 1_555
H46 N13 1_555 1_555
N14 C41 1_555 1_555
H47 N14 1_555 1_555
N15 C42 1_555 1_555
H48 N15 1_555 1_555
N16 C46 1_555 1_555
O1 C3 1_555 1_555
O2 C10 1_555 1_555
O3 N6 1_555 1_555
O4 N6 1_555 1_555
O5 C19 1_555 1_555
O6 C26 1_555 1_555
O7 N11 1_555 1_555
O8 N11 1_555 1_555
O9 C35 1_555 1_555
O10 C42 1_555 1_555
O11 N16 1_555 1_555
O12 N16 1_555 1_555
C49 H49 1_555 1_555
H50 C49 1_555 1_555
C50 C49 1_555 1_555
H51 C50 1_555 1_555
H52 C50 1_555 1_555
C51 H53 1_555 1_555
H54 C51 1_555 1_555
H55 C51 1_555 1_555
C52 H56 1_555 1_555
H57 C52 1_555 1_555
H58 C52 1_555 1_555
C53 H59 1_555 1_555
H60 C53 1_555 1_555
H61 C53 1_555 1_555
N17 C50 1_555 1_555
O13 C49 1_555 1_555
O14 P1 1_555 1_555
O15 P1 1_555 1_555
O16 P1 1_555 1_555
P1 O13 1_555 1_555
C54 H62 1_555 1_555
H63 C54 1_555 1_555
C55 C54 1_555 1_555
H64 C55 1_555 1_555
H65 C55 1_555 1_555
C56 C55 1_555 1_555
H66 C56 1_555 1_555
H67 C56 1_555 1_555
C57 C56 1_555 1_555
H68 C57 1_555 1_555
H69 C57 1_555 1_555
H70 C57 1_555 1_555
C58 H71 1_555 1_555
H72 C58 1_555 1_555
C59 C58 1_555 1_555
H73 C59 1_555 1_555
H74 C59 1_555 1_555
C60 C59 1_555 1_555
H75 C60 1_555 1_555
H76 C60 1_555 1_555
C61 C60 1_555 1_555
H77 C61 1_555 1_555
H78 C61 1_555 1_555
H79 C61 1_555 1_555
C62 H80 1_555 1_555
H81 C62 1_555 1_555
C63 C62 1_555 1_555
H82 C63 1_555 1_555
H83 C63 1_555 1_555
C64 C63 1_555 1_555
H84 C64 1_555 1_555
H85 C64 1_555 1_555
C65 C64 1_555 1_555
H86 C65 1_555 1_555
H87 C65 1_555 1_555
H88 C65 1_555 1_555
C66 H89 1_555 1_555
H90 C66 1_555 1_555
C67 C66 1_555 1_555
H91 C67 1_555 1_555
H92 C67 1_555 1_555
C68 C67 1_555 1_555
H93 C68 1_555 1_555
H94 C68 1_555 1_555
C69 C68 1_555 1_555
N18 C54 1_555 1_555
C70 H95 1_555 1_555
H96 C70 1_555 1_555
H97 C70 1_555 1_555
C71 C70 1_555 1_555
H98 C71 1_555 1_555
H99 C71 1_555 1_555
C72 H100 1_555 1_555
H101 C72 1_555 1_555
C73 C72 1_555 1_555
H102 C73 1_555 1_555
H103 C73 1_555 1_555
H104 C73 1_555 1_555
O17 C71 1_555 1_555
C4 N3 1_555 1_555
C8 C9 1_555 1_555
C11 N5 1_555 1_555
C15 C16 1_555 1_555
C17 N1 1_555 1_555
C20 N8 1_555 1_555
C24 C25 1_555 1_555
C27 N10 1_555 1_555
C31 C32 1_555 1_555
C33 N1 1_555 1_555
C36 N13 1_555 1_555
C40 C41 1_555 1_555
C43 N15 1_555 1_555
C47 C48 1_555 1_555
C51 N17 1_555 1_555
C52 N17 1_555 1_555
C53 N17 1_555 1_555
C58 N18 1_555 1_555
C62 N18 1_555 1_555
C66 N18 1_555 1_555
C72 O17 1_555 1_555

#END
