
#######################################################################
#
#                 Cambridge Crystallographic Data Centre
#                                CCDC 
#
#######################################################################
#
# If this CIF has been generated from an entry in the Cambridge 
# Structural Database, then it will include bibliographic, chemical, 
# crystal, experimental, refinement or atomic coordinate data resulting 
# from the CCDC's data processing and validation procedures.
#
#######################################################################

data_FIZCOJ
_chemical_formula_moiety         
'C60 H57 N13 O6,C5 H13 N1 O4 P1 1-,C4 H12 N1 1+,C2 H3 N1,4.1(H2 O1)'
_chemical_name_systematic        
"N,N',N''-{nitrilotris[(ethane-2,1-diyl)carbamoylazanediyl-2,1-phenylene]}tris(N'-naphthalen-1-ylurea) tetramethylammonium choline phosphate acetonitrile solvate hydrate"
_symmetry_cell_setting           triclinic
_symmetry_space_group_name_H-M   'P -1'
_symmetry_Int_Tables_number      2
_space_group_name_Hall           '-P 1'
loop_
_symmetry_equiv_pos_site_id
_symmetry_equiv_pos_as_xyz
1 x,y,z
2 -x,-y,-z
_cell_length_a                   15.948(2)
_cell_length_b                   16.487(2)
_cell_length_c                   16.568(2)
_cell_angle_alpha                98.9391(19)
_cell_angle_beta                 95.3315(18)
_cell_angle_gamma                117.1536(18)
_cell_volume                     3762
_exptl_crystal_colour            colorless
_exptl_crystal_description       block
_cell_formula_units_Z            2
loop_
_atom_site_label
_atom_site_type_symbol
_atom_site_fract_x
_atom_site_fract_y
_atom_site_fract_z
C1A C 0.6250(2) 0.6064(2) -0.32052(17)
C2A C 0.6068(2) 0.63519(19) -0.3916(2)
C3A C 0.6137(2) 0.5931(3) -0.46838(17)
C4A C 0.6388(3) 0.5223(2) -0.4740(2)
H1A H 0.6436 0.4936 -0.5265
C5A C 0.6571(3) 0.4936(2) -0.4029(3)
H2A H 0.6742 0.4452 -0.4068
C6A C 0.6502(3) 0.5356(2) -0.3262(2)
H3A H 0.6626 0.5160 -0.2776
C7A C 0.6188(2) 1.1043(2) -0.1208(2)
H4A H 0.6746 1.1013 -0.1398
H5A H 0.6331 1.1706 -0.1094
C8A C 0.6042(2) 1.0691(2) -0.0419(2)
H6A H 0.5411 1.0594 -0.0298
H7A H 0.6542 1.1174 0.0046
C9A C 0.6923(2) 0.9853(2) -0.01966(19)
C10A C 0.7730(2) 0.8916(2) -0.0029(2)
C11A C 0.8476(3) 0.9548(3) 0.0622(3)
H8A H 0.8421 1.0039 0.0955
C12A C 0.9295(3) 0.9462(3) 0.0782(3)
H9A H 0.9808 0.9901 0.1219
C13A C 0.9367(3) 0.8740(3) 0.0310(4)
H10A H 0.9935 0.8690 0.0417
C14A C 0.8624(3) 0.8091(3) -0.0314(3)
H11A H 0.8674 0.7583 -0.0620
C15A C 0.7797(3) 0.8172(3) -0.0503(3)
C16A C 0.7097(3) 0.7063(3) -0.1865(3)
C17A C 0.6008(3) 0.6236(5) -0.5371(3)
H12A H 0.6071 0.5943 -0.5886
C18A C 0.5791(5) 0.6949(6) -0.5354(4)
H13A H 0.5717 0.7159 -0.5845
C19A C 0.5677(4) 0.7370(5) -0.4580(3)
H14A H 0.5497 0.7847 -0.4559
C20A C 0.5821(3) 0.7099(4) -0.3890(3)
H15A H 0.5762 0.7396 -0.3376
C21A C 0.4604(2) 1.0785(3) -0.1762(2)
H16A H 0.4632 1.0990 -0.1161
H17A H 0.4741 1.1323 -0.2021
C22A C 0.3598(2) 0.9993(3) -0.2153(3)
H18A H 0.3544 0.9828 -0.2763
H19A H 0.3118 1.0200 -0.2041
C23A C 0.2499(2) 0.8496(2) -0.1856(2)
C24A C 0.1573(2) 0.6876(2) -0.1786(2)
C25A C 0.1428(2) 0.6161(3) -0.2439(2)
H20A H 0.1915 0.6257 -0.2760
C26A C 0.0595(3) 0.5316(3) -0.2636(2)
H21A H 0.0521 0.4826 -0.3072
C27A C -0.0129(2) 0.5190(2) -0.2195(2)
H22A H -0.0717 0.4621 -0.2341
C28A C 0.0001(2) 0.5891(2) -0.1539(2)
H23A H -0.0504 0.5798 -0.1241
C29A C 0.0859(2) 0.6731(2) -0.13062(19)
C30A C 0.0757(2) 0.7265(2) 0.01331(19)
C31A C 0.1149(2) 0.8098(2) 0.1609(2)
C32A C 0.0923(3) 0.7343(3) 0.1958(2)
H24A H 0.0743 0.6749 0.1616
C33A C 0.0955(5) 0.7440(3) 0.2817(3)
H25A H 0.0779 0.6906 0.3048
C34A C 0.1237(4) 0.8290(3) 0.3328(3)
H26A H 0.1278 0.8347 0.3912
C35A C 0.1468(3) 0.9087(3) 0.2986(2)
C36A C 0.1759(3) 0.9978(3) 0.3504(2)
H27A H 0.1791 1.0039 0.4088
C37A C 0.1991(3) 1.0738(3) 0.3180(2)
H28A H 0.2199 1.1332 0.3534
C38A C 0.1923(3) 1.0648(3) 0.2318(2)
H29A H 0.2072 1.1182 0.2091
C39A C 0.1648(2) 0.9806(2) 0.1799(2)
H30A H 0.1609 0.9762 0.1217
C40A C 0.1419(2) 0.8995(2) 0.2120(2)
C41A C 0.5596(3) 1.0505(2) -0.2696(2)
H31A H 0.5040 1.0387 -0.3108
H32A H 0.6129 1.1130 -0.2691
C42A C 0.5898(3) 0.9767(3) -0.2949(2)
H33A H 0.6463 0.9895 -0.2541
H34A H 0.6090 0.9804 -0.3499
C43A C 0.4408(3) 0.8398(2) -0.3654(2)
C44A C 0.2808(3) 0.7008(3) -0.4126(2)
C45A C 0.2375(3) 0.7400(4) -0.4568(3)
H35A H 0.2650 0.8060 -0.4479
C46A C 0.1524(4) 0.6819(5) -0.5152(3)
H36A H 0.1226 0.7086 -0.5464
C47A C 0.1127(4) 0.5868(5) -0.5271(3)
H37A H 0.0558 0.5480 -0.5674
C48A C 0.1530(3) 0.5471(4) -0.4824(3)
H38A H 0.1237 0.4809 -0.4913
C49A C 0.2380(3) 0.6029(3) -0.4230(2)
C50A C 0.2351(3) 0.4769(3) -0.3593(3)
C51A C 0.2584(4) 0.3885(3) -0.2603(3)
C52A C 0.1635(5) 0.3210(4) -0.2728(4)
H39A H 0.1168 0.3245 -0.3099
C53A C 0.1348(6) 0.2469(5) -0.2312(6)
H40A H 0.0687 0.2042 -0.2361
C54A C 0.2012(6) 0.2373(5) -0.1850(6)
H41A H 0.1834 0.1930 -0.1508
C55A C 0.2945(3) 0.2918(5) -0.1877(6)
C56A C 0.3621(4) 0.2699(4) -0.1527(4)
H42A H 0.3421 0.2166 -0.1291
C57A C 0.4589(4) 0.3260(5) -0.1523(6)
H43A H 0.5051 0.3110 -0.1283
C58A C 0.4882(3) 0.4040(5) -0.1868(5)
H44A H 0.5544 0.4424 -0.1866
C59A C 0.4207(4) 0.4260(4) -0.2219(5)
H45A H 0.4406 0.4794 -0.2453
C60A C 0.3236(5) 0.3694(5) -0.2224(5)
N1A N 0.53380(18) 1.04918(19) -0.18679(17)
N2A N 0.60810(18) 0.98199(18) -0.04604(16)
H46A H 0.5560 0.9279 -0.0655
N3A N 0.68978(18) 0.90135(19) -0.02154(18)
H47A H 0.6336 0.8505 -0.0350
N4A N 0.7020(2) 0.7516(2) -0.1143(2)
H48A H 0.6439 0.7392 -0.1066
N5A N 0.6247(2) 0.6522(2) -0.2413(2)
H49A H 0.5705 0.6461 -0.2273
N6A N 0.34076(19) 0.9184(2) -0.18112(18)
H50A H 0.3892 0.9136 -0.1568
N7A N 0.24521(18) 0.77313(19) -0.15894(16)
H51A H 0.2964 0.7769 -0.1297
N8A N 0.10345(19) 0.74310(18) -0.06144(16)
H52A H 0.1343 0.8016 -0.0659
N9A N 0.11898(18) 0.80524(18) 0.07581(16)
H53A H 0.1529 0.8585 0.0615
N10A N 0.5138(2) 0.8836(2) -0.29905(17)
H54A H 0.5149 0.8552 -0.2584
N11A N 0.3667(2) 0.7580(2) -0.35404(18)
H55A H 0.3736 0.7404 -0.3074
N12A N 0.2792(2) 0.5659(2) -0.37237(19)
H56A H 0.3388 0.6029 -0.3463
N13A N 0.2881(3) 0.4675(2) -0.2947(2)
H57A H 0.3454 0.5150 -0.2732
O1A O 0.76751(15) 1.06067(15) 0.00471(14)
O2A O 0.7859(2) 0.7128(2) -0.2030(2)
O3A O 0.17794(16) 0.85536(18) -0.20972(16)
O4A O 0.01865(17) 0.64924(16) 0.02172(14)
O5A O 0.4408(2) 0.86774(19) -0.42954(15)
O6A O 0.1587(2) 0.4132(2) -0.4004(2)
C67 C 0.6563(3) 0.3225(3) 0.0344(2)
H60 H 0.5950 0.2665 0.0065
H61 H 0.7081 0.3053 0.0321
C68 C 0.6746(3) 0.3984(3) -0.0110(2)
H62 H 0.6327 0.4258 0.0035
H63 H 0.6554 0.3701 -0.0714
C69 C 0.8129(4) 0.5243(3) 0.0962(3)
H64 H 0.8099 0.4785 0.1287
H65 H 0.7727 0.5514 0.1148
H66 H 0.8793 0.5740 0.1042
C70 C 0.7796(3) 0.5463(3) -0.0442(3)
H67 H 0.8456 0.5969 -0.0363
H68 H 0.7384 0.5721 -0.0256
H69 H 0.7565 0.5151 -0.1032
C71 C 0.8414(2) 0.4405(3) -0.0224(3)
H70 H 0.8438 0.3980 0.0119
H71 H 0.9060 0.4928 -0.0169
H72 H 0.8171 0.4067 -0.0807
N14 N 0.7770(2) 0.4768(2) 0.00559(18)
O7 O 0.55727(16) 0.19397(17) 0.15601(15)
O8 O 0.56373(17) 0.34014(18) 0.23546(15)
O9 O 0.47274(16) 0.26841(17) 0.08844(15)
O10 O 0.65157(17) 0.34976(18) 0.11953(15)
P1 P 0.55398(6) 0.28366(7) 0.15170(6)
C72 C -0.0298(4) 0.2251(5) 0.3977(3)
H73 H -0.0125 0.2808 0.4409
H74 H -0.0390 0.1728 0.4237
H75 H -0.0895 0.2088 0.3607
C73 C 0.0236(3) 0.1605(3) 0.2827(3)
H76 H -0.0373 0.1424 0.2467
H77 H 0.0172 0.1090 0.3087
H78 H 0.0743 0.1748 0.2495
C74 C 0.1390(3) 0.2699(3) 0.4052(3)
H79 H 0.1913 0.2853 0.3738
H80 H 0.1307 0.2170 0.4298
H81 H 0.1545 0.3242 0.4495
C75 C 0.0609(4) 0.3225(4) 0.3092(3)
H82 H 0.1121 0.3358 0.2766
H83 H 0.0778 0.3782 0.3523
H84 H 0.0007 0.3053 0.2724
N15 N 0.0488(2) 0.2446(3) 0.3485(2)
C76 C 0.3629(5) 0.7459(4) 0.3777(3)
H85 H 0.3370 0.7075 0.4180
H86 H 0.3445 0.7953 0.3829
H87 H 0.4330 0.7742 0.3885
C77 C 0.3248(4) 0.6874(4) 0.2938(3)
N16 N 0.2953(5) 0.6420(4) 0.2277(3)
C1 C 0.3750(2) 0.3936(2) 0.32052(17)
C2 C 0.3932(2) 0.36481(19) 0.3916(2)
C3 C 0.3863(2) 0.4069(3) 0.46838(17)
C4 C 0.3612(3) 0.4777(2) 0.4740(2)
H1 H 0.3564 0.5064 0.5265
C5 C 0.3429(3) 0.5064(2) 0.4029(3)
H2 H 0.3258 0.5548 0.4068
C6 C 0.3498(3) 0.4644(2) 0.3262(2)
H3 H 0.3374 0.4840 0.2776
C7 C 0.3812(2) -0.1043(2) 0.1208(2)
H4 H 0.3254 -0.1013 0.1398
H5 H 0.3669 -0.1706 0.1094
C8 C 0.3958(2) -0.0691(2) 0.0419(2)
H6 H 0.4589 -0.0594 0.0298
H7 H 0.3458 -0.1174 -0.0046
C9 C 0.3077(2) 0.0147(2) 0.01966(19)
C10 C 0.2270(2) 0.1084(2) 0.0029(2)
C11 C 0.1524(3) 0.0452(3) -0.0622(3)
H8 H 0.1579 -0.0039 -0.0955
C12 C 0.0705(3) 0.0538(3) -0.0782(3)
H9 H 0.0192 0.0099 -0.1219
C13 C 0.0633(3) 0.1260(3) -0.0310(4)
H10 H 0.0065 0.1310 -0.0417
C14 C 0.1376(3) 0.1909(3) 0.0314(3)
H11 H 0.1326 0.2417 0.0620
C15 C 0.2203(3) 0.1828(3) 0.0503(3)
C16 C 0.2903(3) 0.2937(3) 0.1865(3)
C17 C 0.3992(3) 0.3764(5) 0.5371(3)
H12 H 0.3929 0.4057 0.5886
C18 C 0.4209(5) 0.3051(6) 0.5354(4)
H13 H 0.4283 0.2841 0.5845
C19 C 0.4323(4) 0.2630(5) 0.4580(3)
H14 H 0.4503 0.2153 0.4559
C20 C 0.4179(3) 0.2901(4) 0.3890(3)
H15 H 0.4238 0.2604 0.3376
C21 C 0.5396(2) -0.0785(3) 0.1762(2)
H16 H 0.5368 -0.0990 0.1161
H17 H 0.5259 -0.1323 0.2021
C22 C 0.6402(2) 0.0007(3) 0.2153(3)
H18 H 0.6456 0.0172 0.2763
H19 H 0.6882 -0.0200 0.2041
C23 C 0.7501(2) 0.1504(2) 0.1856(2)
C24 C 0.8427(2) 0.3124(2) 0.1786(2)
C25 C 0.8572(2) 0.3839(3) 0.2439(2)
H20 H 0.8085 0.3743 0.2760
C26 C 0.9405(3) 0.4684(3) 0.2636(2)
H21 H 0.9479 0.5174 0.3072
C27 C 1.0129(2) 0.4810(2) 0.2195(2)
H22 H 1.0717 0.5379 0.2341
C28 C 0.9999(2) 0.4109(2) 0.1539(2)
H23 H 1.0504 0.4202 0.1241
C29 C 0.9141(2) 0.3269(2) 0.13062(19)
C30 C 0.9243(2) 0.2735(2) -0.01331(19)
C31 C 0.8851(2) 0.1902(2) -0.1609(2)
C32 C 0.9077(3) 0.2657(3) -0.1958(2)
H24 H 0.9257 0.3251 -0.1616
C33 C 0.9045(5) 0.2560(3) -0.2817(3)
H25 H 0.9221 0.3094 -0.3048
C34 C 0.8763(4) 0.1710(3) -0.3328(3)
H26 H 0.8722 0.1653 -0.3912
C35 C 0.8532(3) 0.0913(3) -0.2986(2)
C36 C 0.8241(3) 0.0022(3) -0.3504(2)
H27 H 0.8209 -0.0039 -0.4088
C37 C 0.8009(3) -0.0738(3) -0.3180(2)
H28 H 0.7801 -0.1332 -0.3534
C38 C 0.8077(3) -0.0648(3) -0.2318(2)
H29 H 0.7928 -0.1182 -0.2091
C39 C 0.8352(2) 0.0194(2) -0.1799(2)
H30 H 0.8391 0.0238 -0.1217
C40 C 0.8581(2) 0.1005(2) -0.2120(2)
C41 C 0.4404(3) -0.0505(2) 0.2696(2)
H31 H 0.4960 -0.0387 0.3108
H32 H 0.3871 -0.1130 0.2691
C42 C 0.4102(3) 0.0233(3) 0.2949(2)
H33 H 0.3537 0.0105 0.2541
H34 H 0.3910 0.0196 0.3499
C43 C 0.5592(3) 0.1602(2) 0.3654(2)
C44 C 0.7192(3) 0.2992(3) 0.4126(2)
C45 C 0.7625(3) 0.2600(4) 0.4568(3)
H35 H 0.7350 0.1940 0.4479
C46 C 0.8476(4) 0.3181(5) 0.5152(3)
H36 H 0.8774 0.2914 0.5464
C47 C 0.8873(4) 0.4132(5) 0.5271(3)
H37 H 0.9442 0.4520 0.5674
C48 C 0.8470(3) 0.4529(4) 0.4824(3)
H38 H 0.8763 0.5191 0.4913
C49 C 0.7620(3) 0.3971(3) 0.4230(2)
C50 C 0.7649(3) 0.5231(3) 0.3593(3)
C51 C 0.7416(4) 0.6115(3) 0.2603(3)
C52 C 0.8365(5) 0.6790(4) 0.2728(4)
H39 H 0.8832 0.6755 0.3099
C53 C 0.8652(6) 0.7531(5) 0.2312(6)
H40 H 0.9313 0.7958 0.2361
C54 C 0.7988(6) 0.7627(5) 0.1850(6)
H41 H 0.8166 0.8070 0.1508
C55 C 0.7055(3) 0.7082(5) 0.1877(6)
C56 C 0.6379(4) 0.7301(4) 0.1527(4)
H42 H 0.6579 0.7834 0.1291
C57 C 0.5411(4) 0.6740(5) 0.1523(6)
H43 H 0.4949 0.6890 0.1283
C58 C 0.5118(3) 0.5960(5) 0.1868(5)
H44 H 0.4456 0.5576 0.1866
C59 C 0.5793(4) 0.5740(4) 0.2219(5)
H45 H 0.5594 0.5206 0.2453
C60 C 0.6764(5) 0.6306(5) 0.2224(5)
N1 N 0.46620(18) -0.04918(19) 0.18679(17)
N2 N 0.39190(18) 0.01801(18) 0.04604(16)
H46 H 0.4440 0.0721 0.0655
N3 N 0.31022(18) 0.09865(19) 0.02154(18)
H47 H 0.3664 0.1495 0.0350
N4 N 0.2980(2) 0.2484(2) 0.1143(2)
H48 H 0.3561 0.2608 0.1066
N5 N 0.3753(2) 0.3478(2) 0.2413(2)
H49 H 0.4295 0.3539 0.2273
N6 N 0.65924(19) 0.0816(2) 0.18112(18)
H50 H 0.6108 0.0864 0.1568
N7 N 0.75479(18) 0.22687(19) 0.15894(16)
H51 H 0.7036 0.2231 0.1297
N8 N 0.89655(19) 0.25690(18) 0.06144(16)
H52 H 0.8657 0.1984 0.0659
N9 N 0.88102(18) 0.19476(18) -0.07581(16)
H53 H 0.8471 0.1415 -0.0615
N10 N 0.4862(2) 0.1164(2) 0.29905(17)
H54 H 0.4851 0.1448 0.2584
N11 N 0.6333(2) 0.2420(2) 0.35404(18)
H55 H 0.6264 0.2596 0.3074
N12 N 0.7208(2) 0.4341(2) 0.37237(19)
H56 H 0.6612 0.3971 0.3463
N13 N 0.7119(3) 0.5325(2) 0.2947(2)
H57 H 0.6546 0.4850 0.2732
O1 O 0.23249(15) -0.06067(15) -0.00471(14)
O2 O 0.2141(2) 0.2872(2) 0.2030(2)
O3 O 0.82206(16) 0.14464(18) 0.20972(16)
O4 O 0.98135(17) 0.35076(16) -0.02172(14)
O5 O 0.5592(2) 0.13226(19) 0.42954(15)
O6 O 0.8413(2) 0.5868(2) 0.4004(2)
C61? C 0.6846(10) 0.6640(9) 0.1269(8)
C62? C 0.5372(10) 0.5661(11) 0.0185(10)
C63? C 0.6188(10) 0.6476(11) 0.0562(10)
H58? H 0.6324 0.6993 0.0312
C64? C 0.5186(6) 0.5069(7) 0.0736(6)
C65? C 0.5742(6) 0.5110(5) 0.1493(5)
H59? H 0.5542 0.4576 0.1728
C66? C 0.6616(4) 0.5978(5) 0.1901(5)
loop_
_geom_bond_atom_site_label_1
_geom_bond_atom_site_label_2
_geom_bond_site_symmetry_1
_geom_bond_site_symmetry_2
C1 C2 1_555 1_555
C2 C3 1_555 1_555
C3 C4 1_555 1_555
C4 H1 1_555 1_555
C5 C4 1_555 1_555
H2 C5 1_555 1_555
C6 C1 1_555 1_555
H3 C6 1_555 1_555
C7 H4 1_555 1_555
H5 C7 1_555 1_555
C8 C7 1_555 1_555
H6 C8 1_555 1_555
H7 C8 1_555 1_555
C9 N2 1_555 1_555
C10 C11 1_555 1_555
C11 H8 1_555 1_555
C12 C11 1_555 1_555
H9 C12 1_555 1_555
C13 C12 1_555 1_555
H10 C13 1_555 1_555
C14 C13 1_555 1_555
H11 C14 1_555 1_555
C15 C10 1_555 1_555
C16 N4 1_555 1_555
C17 C3 1_555 1_555
H12 C17 1_555 1_555
C18 C17 1_555 1_555
H13 C18 1_555 1_555
C19 C18 1_555 1_555
H14 C19 1_555 1_555
C20 C2 1_555 1_555
H15 C20 1_555 1_555
C21 H16 1_555 1_555
H17 C21 1_555 1_555
C22 C21 1_555 1_555
H18 C22 1_555 1_555
H19 C22 1_555 1_555
C23 N6 1_555 1_555
C24 C25 1_555 1_555
C25 H20 1_555 1_555
C26 C25 1_555 1_555
H21 C26 1_555 1_555
C27 C26 1_555 1_555
H22 C27 1_555 1_555
C28 C27 1_555 1_555
H23 C28 1_555 1_555
C29 C24 1_555 1_555
C30 N8 1_555 1_555
C31 C32 1_555 1_555
C32 H24 1_555 1_555
C33 C32 1_555 1_555
H25 C33 1_555 1_555
C34 C33 1_555 1_555
H26 C34 1_555 1_555
C35 C34 1_555 1_555
C36 C35 1_555 1_555
H27 C36 1_555 1_555
C37 C36 1_555 1_555
H28 C37 1_555 1_555
C38 C37 1_555 1_555
H29 C38 1_555 1_555
C39 C38 1_555 1_555
H30 C39 1_555 1_555
C40 C31 1_555 1_555
C41 H31 1_555 1_555
H32 C41 1_555 1_555
C42 C41 1_555 1_555
H33 C42 1_555 1_555
H34 C42 1_555 1_555
C43 N10 1_555 1_555
C44 C45 1_555 1_555
C45 H35 1_555 1_555
C46 C45 1_555 1_555
H36 C46 1_555 1_555
C47 C46 1_555 1_555
H37 C47 1_555 1_555
C48 C47 1_555 1_555
H38 C48 1_555 1_555
C49 C44 1_555 1_555
C50 N12 1_555 1_555
C51 C52 1_555 1_555
C52 H39 1_555 1_555
C53 C52 1_555 1_555
H40 C53 1_555 1_555
C54 C53 1_555 1_555
H41 C54 1_555 1_555
C55 C54 1_555 1_555
C56 C55 1_555 1_555
H42 C56 1_555 1_555
C57 C56 1_555 1_555
H43 C57 1_555 1_555
C58 C57 1_555 1_555
H44 C58 1_555 1_555
C59 C58 1_555 1_555
H45 C59 1_555 1_555
C60 C51 1_555 1_555
N1 C7 1_555 1_555
N2 C8 1_555 1_555
H46 N2 1_555 1_555
N3 C9 1_555 1_555
H47 N3 1_555 1_555
N4 C15 1_555 1_555
H48 N4 1_555 1_555
N5 C1 1_555 1_555
H49 N5 1_555 1_555
N6 C22 1_555 1_555
H50 N6 1_555 1_555
N7 C23 1_555 1_555
H51 N7 1_555 1_555
N8 C29 1_555 1_555
H52 N8 1_555 1_555
N9 C30 1_555 1_555
H53 N9 1_555 1_555
N10 C42 1_555 1_555
H54 N10 1_555 1_555
N11 C43 1_555 1_555
H55 N11 1_555 1_555
N12 C49 1_555 1_555
H56 N12 1_555 1_555
N13 C50 1_555 1_555
H57 N13 1_555 1_555
O1 C9 1_555 1_555
O2 C16 1_555 1_555
O3 C23 1_555 1_555
O4 C30 1_555 1_555
O5 C43 1_555 1_555
O6 C50 1_555 1_555
C67 H60 1_555 1_555
H61 C67 1_555 1_555
C68 C67 1_555 1_555
H62 C68 1_555 1_555
H63 C68 1_555 1_555
C69 H64 1_555 1_555
H65 C69 1_555 1_555
H66 C69 1_555 1_555
C70 H67 1_555 1_555
H68 C70 1_555 1_555
H69 C70 1_555 1_555
C71 H70 1_555 1_555
H71 C71 1_555 1_555
H72 C71 1_555 1_555
N14 C68 1_555 1_555
O7 P1 1_555 1_555
O8 P1 1_555 1_555
O9 P1 1_555 1_555
O10 C67 1_555 1_555
P1 O10 1_555 1_555
C72 H73 1_555 1_555
H74 C72 1_555 1_555
H75 C72 1_555 1_555
C73 H76 1_555 1_555
H77 C73 1_555 1_555
H78 C73 1_555 1_555
C74 H79 1_555 1_555
H80 C74 1_555 1_555
H81 C74 1_555 1_555
C75 H82 1_555 1_555
H83 C75 1_555 1_555
H84 C75 1_555 1_555
N15 C72 1_555 1_555
C76 H85 1_555 1_555
H86 C76 1_555 1_555
H87 C76 1_555 1_555
C77 C76 1_555 1_555
N16 C77 1_555 1_555
C1A C2A 1_555 1_555
C2A C3A 1_555 1_555
C3A C4A 1_555 1_555
C4A H1A 1_555 1_555
C5A C4A 1_555 1_555
H2A C5A 1_555 1_555
C6A C1A 1_555 1_555
H3A C6A 1_555 1_555
C7A H4A 1_555 1_555
H5A C7A 1_555 1_555
C8A C7A 1_555 1_555
H6A C8A 1_555 1_555
H7A C8A 1_555 1_555
C9A N2A 1_555 1_555
C10A C11A 1_555 1_555
C11A H8A 1_555 1_555
C12A C11A 1_555 1_555
H9A C12A 1_555 1_555
C13A C12A 1_555 1_555
H10A C13A 1_555 1_555
C14A C13A 1_555 1_555
H11A C14A 1_555 1_555
C15A C10A 1_555 1_555
C16A N4A 1_555 1_555
C17A C3A 1_555 1_555
H12A C17A 1_555 1_555
C18A C17A 1_555 1_555
H13A C18A 1_555 1_555
C19A C18A 1_555 1_555
H14A C19A 1_555 1_555
C20A C2A 1_555 1_555
H15A C20A 1_555 1_555
C21A H16A 1_555 1_555
H17A C21A 1_555 1_555
C22A C21A 1_555 1_555
H18A C22A 1_555 1_555
H19A C22A 1_555 1_555
C23A N6A 1_555 1_555
C24A C25A 1_555 1_555
C25A H20A 1_555 1_555
C26A C25A 1_555 1_555
H21A C26A 1_555 1_555
C27A C26A 1_555 1_555
H22A C27A 1_555 1_555
C28A C27A 1_555 1_555
H23A C28A 1_555 1_555
C29A C24A 1_555 1_555
C30A N8A 1_555 1_555
C31A C32A 1_555 1_555
C32A H24A 1_555 1_555
C33A C32A 1_555 1_555
H25A C33A 1_555 1_555
C34A C33A 1_555 1_555
H26A C34A 1_555 1_555
C35A C34A 1_555 1_555
C36A C35A 1_555 1_555
H27A C36A 1_555 1_555
C37A C36A 1_555 1_555
H28A C37A 1_555 1_555
C38A C37A 1_555 1_555
H29A C38A 1_555 1_555
C39A C38A 1_555 1_555
H30A C39A 1_555 1_555
C40A C31A 1_555 1_555
C41A H31A 1_555 1_555
H32A C41A 1_555 1_555
C42A C41A 1_555 1_555
H33A C42A 1_555 1_555
H34A C42A 1_555 1_555
C43A N10A 1_555 1_555
C44A C45A 1_555 1_555
C45A H35A 1_555 1_555
C46A C45A 1_555 1_555
H36A C46A 1_555 1_555
C47A C46A 1_555 1_555
H37A C47A 1_555 1_555
C48A C47A 1_555 1_555
H38A C48A 1_555 1_555
C49A C44A 1_555 1_555
C50A N12A 1_555 1_555
C51A C52A 1_555 1_555
C52A H39A 1_555 1_555
C53A C52A 1_555 1_555
H40A C53A 1_555 1_555
C54A C53A 1_555 1_555
H41A C54A 1_555 1_555
C55A C54A 1_555 1_555
C56A C55A 1_555 1_555
H42A C56A 1_555 1_555
C57A C56A 1_555 1_555
H43A C57A 1_555 1_555
C58A C57A 1_555 1_555
H44A C58A 1_555 1_555
C59A C58A 1_555 1_555
H45A C59A 1_555 1_555
C60A C51A 1_555 1_555
N1A C7A 1_555 1_555
N2A C8A 1_555 1_555
H46A N2A 1_555 1_555
N3A C9A 1_555 1_555
H47A N3A 1_555 1_555
N4A C15A 1_555 1_555
H48A N4A 1_555 1_555
N5A C1A 1_555 1_555
H49A N5A 1_555 1_555
N6A C22A 1_555 1_555
H50A N6A 1_555 1_555
N7A C23A 1_555 1_555
H51A N7A 1_555 1_555
N8A C29A 1_555 1_555
H52A N8A 1_555 1_555
N9A C30A 1_555 1_555
H53A N9A 1_555 1_555
N10A C42A 1_555 1_555
H54A N10A 1_555 1_555
N11A C43A 1_555 1_555
H55A N11A 1_555 1_555
N12A C49A 1_555 1_555
H56A N12A 1_555 1_555
N13A C50A 1_555 1_555
H57A N13A 1_555 1_555
O1A C9A 1_555 1_555
O2A C16A 1_555 1_555
O3A C23A 1_555 1_555
O4A C30A 1_555 1_555
O5A C43A 1_555 1_555
O6A C50A 1_555 1_555
C5 C6 1_555 1_555
C10 N3 1_555 1_555
C14 C15 1_555 1_555
C16 N5 1_555 1_555
C19 C20 1_555 1_555
C21 N1 1_555 1_555
C24 N7 1_555 1_555
C28 C29 1_555 1_555
C31 N9 1_555 1_555
C35 C40 1_555 1_555
C39 C40 1_555 1_555
C41 N1 1_555 1_555
C44 N11 1_555 1_555
C48 C49 1_555 1_555
C51 N13 1_555 1_555
C55 C60 1_555 1_555
C59 C60 1_555 1_555
C69 N14 1_555 1_555
C70 N14 1_555 1_555
C71 N14 1_555 1_555
C73 N15 1_555 1_555
C74 N15 1_555 1_555
C75 N15 1_555 1_555
C5A C6A 1_555 1_555
C10A N3A 1_555 1_555
C14A C15A 1_555 1_555
C16A N5A 1_555 1_555
C19A C20A 1_555 1_555
C21A N1A 1_555 1_555
C24A N7A 1_555 1_555
C28A C29A 1_555 1_555
C31A N9A 1_555 1_555
C35A C40A 1_555 1_555
C39A C40A 1_555 1_555
C41A N1A 1_555 1_555
C44A N11A 1_555 1_555
C48A C49A 1_555 1_555
C51A N13A 1_555 1_555
C55A C60A 1_555 1_555
C59A C60A 1_555 1_555

#END
