
#######################################################################
#
#                 Cambridge Crystallographic Data Centre
#                                CCDC 
#
#######################################################################
#
# If this CIF has been generated from an entry in the Cambridge 
# Structural Database, then it will include bibliographic, chemical, 
# crystal, experimental, refinement or atomic coordinate data resulting 
# from the CCDC's data processing and validation procedures.
#
#######################################################################

data_FIZFEZ
_chemical_formula_moiety         'C40 H26 N4,4(C2 H1 F3 O2)'
_chemical_name_systematic        
'meso-trans-(R,S)-Bi(14H-dibenzo(4,5:6,7)(1,3)diazepino(2,1-a)isoindol-14-ylidene) trifluoroacetic acid solvate'
_symmetry_cell_setting           triclinic
_symmetry_space_group_name_H-M   'P -1'
_symmetry_Int_Tables_number      2
_space_group_name_Hall           '-P 1'
loop_
_symmetry_equiv_pos_site_id
_symmetry_equiv_pos_as_xyz
1 x,y,z
2 -x,-y,-z
_cell_length_a                   8.774(1)
_cell_length_b                   11.040(2)
_cell_length_c                   13.072(1)
_cell_angle_alpha                68.73(1)
_cell_angle_beta                 77.60(1)
_cell_angle_gamma                68.75(1)
_cell_volume                     1094.67
_cell_formula_units_Z            1
loop_
_atom_site_label
_atom_site_type_symbol
_atom_site_fract_x
_atom_site_fract_y
_atom_site_fract_z
N1 N 0.3559(6) 0.5879(5) 0.2535(4)
N2 N 0.1640(5) 0.4918(4) 0.3809(3)
C1 C 0.0707(6) 0.5131(5) 0.4822(4)
C2 C 0.1589(6) 0.5748(5) 0.5229(4)
C3 C 0.1406(7) 0.6018(6) 0.6222(5)
C4 C 0.2426(8) 0.6659(7) 0.6322(5)
C5 C 0.3588(8) 0.7055(7) 0.5479(6)
C6 C 0.3782(7) 0.6787(6) 0.4500(5)
C7 C 0.2794(6) 0.6115(5) 0.4391(4)
C8 C 0.2739(6) 0.5652(5) 0.3501(4)
C9 C 0.3171(7) 0.5704(6) 0.1591(4)
C10 C 0.3260(8) 0.6735(7) 0.0589(5)
C11 C 0.2851(9) 0.6648(9) -0.0341(6)
C12 C 0.2423(10) 0.5545(9) -0.0274(6)
C13 C 0.2380(9) 0.4520(8) 0.0706(5)
C14 C 0.2790(7) 0.4567(6) 0.1666(5)
C15 C 0.2885(7) 0.3392(6) 0.2681(5)
C16 C 0.3586(8) 0.2060(6) 0.2632(6)
C17 C 0.3683(8) 0.0940(6) 0.3560(6)
C18 C 0.3092(8) 0.1125(6) 0.4582(6)
C19 C 0.2428(7) 0.2430(6) 0.4659(5)
C20 C 0.2320(6) 0.3543(5) 0.3723(4)
H1 H 0.4179(83) 0.6353(69) 0.2399(55)
H2 H 0.0739(78) 0.5627(64) 0.6847(52)
H3 H 0.2337(71) 0.6872(59) 0.6970(49)
H4 H 0.4271(78) 0.7473(64) 0.5545(51)
H5 H 0.4658(74) 0.6968(60) 0.3971(49)
H6 H 0.3429(64) 0.7510(56) 0.0610(43)
H7 H 0.2786(82) 0.7448(71) -0.1042(59)
H8 H 0.2155(88) 0.5561(74) -0.0977(62)
H9 H 0.2179(68) 0.3705(58) 0.0785(45)
H10 H 0.4115(69) 0.1959(57) 0.1969(47)
H11 H 0.4202(69) -0.0033(60) 0.3605(45)
H12 H 0.3186(65) 0.0290(57) 0.5230(45)
H13 H 0.1953(79) 0.2571(65) 0.5284(53)
C1A C -0.0707(6) 0.4869(5) 0.5178(4)
N2A N -0.1640(5) 0.5082(4) 0.6191(3)
C2A C -0.1589(6) 0.4252(5) 0.4771(4)
C8A C -0.2739(6) 0.4348(5) 0.6499(4)
C20A C -0.2320(6) 0.6457(5) 0.6277(4)
C3A C -0.1406(7) 0.3982(6) 0.3778(5)
C7A C -0.2794(6) 0.3885(5) 0.5609(4)
N1A N -0.3559(6) 0.4121(5) 0.7465(4)
C15A C -0.2885(7) 0.6608(6) 0.7319(5)
C19A C -0.2428(7) 0.7570(6) 0.5341(5)
C4A C -0.2426(8) 0.3341(7) 0.3678(5)
H2A H -0.0739(78) 0.4373(64) 0.3153(52)
C6A C -0.3782(7) 0.3213(6) 0.5500(5)
C9A C -0.3171(7) 0.4296(6) 0.8409(4)
H1A H -0.4179(83) 0.3647(69) 0.7601(55)
C14A C -0.2790(7) 0.5433(6) 0.8334(5)
C16A C -0.3586(8) 0.7940(6) 0.7368(6)
C18A C -0.3092(8) 0.8875(6) 0.5418(6)
H13A H -0.1953(79) 0.7429(65) 0.4716(53)
C5A C -0.3588(8) 0.2945(7) 0.4521(6)
H3A H -0.2337(71) 0.3128(59) 0.3030(49)
H5A H -0.4658(74) 0.3032(60) 0.6029(49)
C10A C -0.3260(8) 0.3265(7) 0.9411(5)
C13A C -0.2380(9) 0.5480(8) 0.9294(5)
C17A C -0.3683(8) 0.9060(6) 0.6440(6)
H10A H -0.4115(69) 0.8041(57) 0.8031(47)
H12A H -0.3186(65) 0.9710(57) 0.4770(45)
H4A H -0.4271(78) 0.2527(64) 0.4455(51)
C11A C -0.2851(9) 0.3352(9) 1.0341(6)
H6A H -0.3429(64) 0.2490(56) 0.9390(43)
C12A C -0.2423(10) 0.4455(9) 1.0274(6)
H9A H -0.2179(68) 0.6295(58) 0.9215(45)
H11A H -0.4202(69) 1.0033(60) 0.6395(45)
H7A H -0.2786(82) 0.2552(71) 1.1042(59)
H8A H -0.2155(88) 0.4439(74) 1.0977(62)
C21 C 0.3446(10) 0.2114(9) 0.8190(7)
O1 O 0.3488(11) 0.1608(11) 0.7496(5)
O2 O 0.4125(7) 0.2889(6) 0.8126(5)
C22 C 0.2579(12) 0.1550(10) 0.9315(8)
F1 F 0.3529(10) 0.1223(9) 1.0148(7)
F2 F 0.2105(11) 0.0511(9) 0.9471(7)
F3 F 0.1196(10) 0.2563(8) 0.9424(6)
C23 C -0.0573(9) -0.0008(8) 0.7273(6)
C24 C 0.0569(11) 0.0709(10) 0.7366(6)
O3 O 0.0021(8) 0.1888(6) 0.7299(6)
O4 O 0.2024(7) -0.0065(6) 0.7467(5)
F4 F -0.2112(6) 0.0587(5) 0.7586(5)
F5 F -0.0234(7) -0.1310(5) 0.7875(5)
F6 F -0.0525(8) 0.0063(7) 0.6248(4)
loop_
_geom_bond_atom_site_label_1
_geom_bond_atom_site_label_2
_geom_bond_site_symmetry_1
_geom_bond_site_symmetry_2
N1 C8 1_555 1_555
N2 C1 1_555 1_555
C1 C2 1_555 1_555
C2 C3 1_555 1_555
C3 C4 1_555 1_555
C4 C5 1_555 1_555
C5 C6 1_555 1_555
C6 C7 1_555 1_555
C7 C2 1_555 1_555
C8 N2 1_555 1_555
C9 N1 1_555 1_555
C10 C9 1_555 1_555
C11 C10 1_555 1_555
C12 C11 1_555 1_555
C13 C12 1_555 1_555
C14 C9 1_555 1_555
C15 C14 1_555 1_555
C16 C15 1_555 1_555
C17 C16 1_555 1_555
C18 C17 1_555 1_555
C19 C18 1_555 1_555
C20 N2 1_555 1_555
H1 N1 1_555 1_555
H2 C3 1_555 1_555
H3 C4 1_555 1_555
H4 C5 1_555 1_555
H5 C6 1_555 1_555
H6 C10 1_555 1_555
H7 C11 1_555 1_555
H8 C12 1_555 1_555
H9 C13 1_555 1_555
H10 C16 1_555 1_555
H11 C17 1_555 1_555
H12 C18 1_555 1_555
H13 C19 1_555 1_555
C21 O1 1_555 1_555
O2 C21 1_555 1_555
C22 C21 1_555 1_555
F1 C22 1_555 1_555
F2 C22 1_555 1_555
F3 C22 1_555 1_555
C23 C24 1_555 1_555
C24 O3 1_555 1_555
O4 C24 1_555 1_555
F4 C23 1_555 1_555
F5 C23 1_555 1_555
F6 C23 1_555 1_555
C1A C1 1_555 1_555
N2A C1A 1_555 1_555
C2A C1A 1_555 1_555
C8A N2A 1_555 1_555
C20A N2A 1_555 1_555
C3A C2A 1_555 1_555
C7A C2A 1_555 1_555
N1A C8A 1_555 1_555
C15A C20A 1_555 1_555
C19A C20A 1_555 1_555
C4A C3A 1_555 1_555
H2A C3A 1_555 1_555
C6A C7A 1_555 1_555
C9A N1A 1_555 1_555
H1A N1A 1_555 1_555
C14A C15A 1_555 1_555
C16A C15A 1_555 1_555
C18A C19A 1_555 1_555
H13A C19A 1_555 1_555
C5A C4A 1_555 1_555
H3A C4A 1_555 1_555
H5A C6A 1_555 1_555
C10A C9A 1_555 1_555
C13A C14A 1_555 1_555
C17A C16A 1_555 1_555
H10A C16A 1_555 1_555
H12A C18A 1_555 1_555
H4A C5A 1_555 1_555
C11A C10A 1_555 1_555
H6A C10A 1_555 1_555
C12A C13A 1_555 1_555
H9A C13A 1_555 1_555
H11A C17A 1_555 1_555
H7A C11A 1_555 1_555
H8A C12A 1_555 1_555
C7 C8 1_555 1_555
C13 C14 1_555 1_555
C15 C20 1_555 1_555
C19 C20 1_555 1_555
C8A C7A 1_555 1_555
C6A C5A 1_555 1_555
C9A C14A 1_555 1_555
C18A C17A 1_555 1_555
C11A C12A 1_555 1_555

#END
