
#######################################################################
#
#                 Cambridge Crystallographic Data Centre
#                                CCDC 
#
#######################################################################
#
# If this CIF has been generated from an entry in the Cambridge 
# Structural Database, then it will include bibliographic, chemical, 
# crystal, experimental, refinement or atomic coordinate data resulting 
# from the CCDC's data processing and validation procedures.
#
#######################################################################

data_FIZHED
_chemical_formula_moiety         'C13 H11 Cl1 N4 O3'
_chemical_name_systematic        
N'-(2-Chlorobenzylidene)-1-methyl-4-nitro-1H-pyrrole-2-carbohydrazide
_symmetry_cell_setting           monoclinic
_symmetry_space_group_name_H-M   'P 21/c'
_symmetry_Int_Tables_number      14
_space_group_name_Hall           '-P 2ybc'
loop_
_symmetry_equiv_pos_site_id
_symmetry_equiv_pos_as_xyz
1 x,y,z
2 -x,1/2+y,1/2-z
3 -x,-y,-z
4 x,1/2-y,1/2+z
_cell_length_a                   13.7649(13)
_cell_length_b                   12.4993(11)
_cell_length_c                   8.1263(10)
_cell_angle_alpha                90
_cell_angle_beta                 95.5230(10)
_cell_angle_gamma                90
_cell_volume                     1391.65
_exptl_crystal_colour            yellow
_exptl_crystal_description       block
_cell_formula_units_Z            4
loop_
_atom_site_label
_atom_site_type_symbol
_atom_site_fract_x
_atom_site_fract_y
_atom_site_fract_z
Cl1 Cl 0.29032(9) 1.16858(8) 1.00653(18)
N1 N 0.14340(19) 0.51021(19) 1.0868(3)
N2 N -0.0430(2) 0.5940(3) 1.3388(4)
N3 N 0.24317(19) 0.7725(2) 1.0085(3)
H1 H 0.2231 0.7996 1.0964
N4 N 0.30201(18) 0.83156(19) 0.9133(3)
O1 O 0.24317(17) 0.62828(16) 0.8366(3)
O2 O -0.0656(2) 0.6852(3) 1.3780(4)
O3 O -0.08399(19) 0.5122(3) 1.3789(3)
C1 C 0.2175(2) 0.6716(2) 0.9618(4)
C2 C 0.1506(2) 0.6203(2) 1.0708(4)
C3 C 0.0829(2) 0.6674(3) 1.1612(4)
H2 H 0.0711 0.7403 1.1715
C4 C 0.0352(2) 0.5839(3) 1.2344(4)
C5 C 0.0737(2) 0.4884(3) 1.1897(4)
H3 H 0.0554 0.4209 1.2235
C6 C 0.2046(3) 0.4285(3) 1.0169(5)
H4 H 0.2708 0.4362 1.0642
H5 H 0.2017 0.4376 0.8992
H6 H 0.1810 0.3586 1.0416
C7 C 0.3117(2) 0.9297(2) 0.9548(4)
H7 H 0.2764 0.9569 1.0373
C8 C 0.3779(2) 1.0000(2) 0.8743(4)
C9 C 0.3778(2) 1.1102(2) 0.8944(4)
C10 C 0.4438(3) 1.1761(3) 0.8256(5)
H8 H 0.4413 1.2498 0.8406
C11 C 0.5133(3) 1.1319(3) 0.7348(5)
H9 H 0.5587 1.1756 0.6900
C12 C 0.5154(3) 1.0231(3) 0.7108(5)
H10 H 0.5620 0.9933 0.6491
C13 C 0.4481(2) 0.9577(3) 0.7784(4)
H11 H 0.4497 0.8843 0.7598
loop_
_geom_bond_atom_site_label_1
_geom_bond_atom_site_label_2
_geom_bond_site_symmetry_1
_geom_bond_site_symmetry_2
Cl1 C9 1_555 1_555
N1 C2 1_555 1_555
N2 O2 1_555 1_555
N3 H1 1_555 1_555
N4 N3 1_555 1_555
O1 C1 1_555 1_555
O3 N2 1_555 1_555
C1 N3 1_555 1_555
C2 C1 1_555 1_555
C3 C2 1_555 1_555
H2 C3 1_555 1_555
C4 N2 1_555 1_555
C5 N1 1_555 1_555
H3 C5 1_555 1_555
C6 N1 1_555 1_555
H4 C6 1_555 1_555
H5 C6 1_555 1_555
H6 C6 1_555 1_555
C7 N4 1_555 1_555
H7 C7 1_555 1_555
C8 C7 1_555 1_555
C9 C8 1_555 1_555
C10 C9 1_555 1_555
H8 C10 1_555 1_555
C11 C10 1_555 1_555
H9 C11 1_555 1_555
C12 C11 1_555 1_555
H10 C12 1_555 1_555
C13 C8 1_555 1_555
H11 C13 1_555 1_555
C3 C4 1_555 1_555
C4 C5 1_555 1_555
C12 C13 1_555 1_555

#END
