
#######################################################################
#
#                 Cambridge Crystallographic Data Centre
#                                CCDC 
#
#######################################################################
#
# If this CIF has been generated from an entry in the Cambridge 
# Structural Database, then it will include bibliographic, chemical, 
# crystal, experimental, refinement or atomic coordinate data resulting 
# from the CCDC's data processing and validation procedures.
#
#######################################################################

data_FIZJAA
_chemical_formula_moiety         'C45 H41 N3 P2'
_chemical_name_systematic        
2,6-bis(N-Benzyl-N-(diphenylphosphinomethyl)amino)pyridine
_symmetry_cell_setting           triclinic
_symmetry_space_group_name_H-M   'P -1'
_symmetry_Int_Tables_number      2
_space_group_name_Hall           '-P 1'
loop_
_symmetry_equiv_pos_site_id
_symmetry_equiv_pos_as_xyz
1 x,y,z
2 -x,-y,-z
_cell_length_a                   8.854(5)
_cell_length_b                   11.231(6)
_cell_length_c                   18.955(11)
_cell_angle_alpha                91.231(9)
_cell_angle_beta                 91.336(9)
_cell_angle_gamma                90.954(10)
_cell_volume                     1883.65
_chemical_melting_point          112-114deg.C
_cell_formula_units_Z            2
_exptl_crystal_recrystallization_method dichloromethane/hexane
loop_
_atom_site_label
_atom_site_type_symbol
_atom_site_fract_x
_atom_site_fract_y
_atom_site_fract_z
P1 P 0.56829(10) 0.23852(9) 0.08499(5)
P2 P 0.43832(10) 0.23384(9) 0.41646(5)
N1 N 0.6174(3) 0.0140(2) 0.14047(15)
N2 N 0.3826(3) 0.0081(3) 0.35601(16)
N3 N 0.4996(3) 0.0029(2) 0.24811(15)
C1 C 0.6732(4) 0.3753(3) 0.1073(2)
C2 C 0.6890(4) 0.4237(3) 0.1749(2)
H1 H 0.6457 0.3843 0.2122
C3 C 0.7681(5) 0.5298(4) 0.1881(3)
H2 H 0.7779 0.5609 0.2339
C4 C 0.8322(5) 0.5888(4) 0.1328(3)
H3 H 0.8851 0.6601 0.1414
C5 C 0.8184(5) 0.5435(4) 0.0662(3)
H4 H 0.8617 0.5843 0.0293
C6 C 0.7406(4) 0.4372(4) 0.0521(2)
H5 H 0.7329 0.4067 0.0061
C7 C 0.3841(4) 0.2747(3) 0.12097(18)
C8 C 0.2922(4) 0.1892(4) 0.1500(2)
H6 H 0.3277 0.1124 0.1556
C9 C 0.1471(4) 0.2165(5) 0.1709(2)
H7 H 0.0870 0.1584 0.1911
C10 C 0.0926(5) 0.3283(5) 0.1619(2)
H8 H -0.0053 0.3460 0.1749
C11 C 0.1820(5) 0.4137(5) 0.1338(3)
H9 H 0.1454 0.4902 0.1284
C12 C 0.3267(4) 0.3878(4) 0.1133(2)
H10 H 0.3863 0.4472 0.0940
C13 C 0.6525(4) 0.1397(3) 0.15233(18)
H11 H 0.7614 0.1510 0.1530
H12 H 0.6167 0.1637 0.1984
C14 C 0.6801(4) -0.0413(3) 0.07763(19)
H13 H 0.6750 0.0158 0.0400
H14 H 0.6153 -0.1085 0.0635
C15 C 0.8408(4) -0.0848(3) 0.08305(19)
C16 C 0.9033(4) -0.1366(3) 0.0234(2)
H15 H 0.8447 -0.1455 -0.0178
C17 C 1.0496(5) -0.1748(4) 0.0242(2)
H16 H 1.0892 -0.2084 -0.0165
C18 C 1.1367(5) -0.1639(4) 0.0837(3)
H17 H 1.2358 -0.1902 0.0840
C19 C 1.0776(5) -0.1135(4) 0.1437(3)
H18 H 1.1370 -0.1062 0.1847
C20 C 0.9292(4) -0.0735(4) 0.1433(2)
H19 H 0.8903 -0.0392 0.1840
C21 C 0.5591(3) -0.0561(3) 0.1929(2)
C22 C 0.5605(4) -0.1800(3) 0.1893(2)
H20 H 0.6023 -0.2199 0.1511
C23 C 0.4988(5) -0.2414(4) 0.2434(3)
H21 H 0.4974 -0.3242 0.2414
C24 C 0.4387(4) -0.1835(3) 0.3005(2)
H22 H 0.3982 -0.2257 0.3375
C25 C 0.4405(3) -0.0593(3) 0.3011(2)
C26 C 0.3197(4) -0.0489(3) 0.4175(2)
H23 H 0.3275 0.0072 0.4571
H24 H 0.3821 -0.1163 0.4291
C27 C 0.1571(4) -0.0925(3) 0.4106(2)
C28 C 0.0730(5) -0.0914(4) 0.3497(2)
H25 H 0.1157 -0.0619 0.3092
C29 C -0.0769(5) -0.1340(5) 0.3470(3)
H26 H -0.1324 -0.1333 0.3047
C30 C -0.1408(5) -0.1760(5) 0.4059(3)
H27 H -0.2406 -0.2034 0.4044
C31 C -0.0588(6) -0.1780(4) 0.4669(3)
H28 H -0.1025 -0.2070 0.5074
C32 C 0.0888(5) -0.1374(4) 0.4697(2)
H29 H 0.1438 -0.1402 0.5120
C33 C 0.3484(4) 0.1327(3) 0.34784(18)
H30 H 0.2397 0.1417 0.3490
H31 H 0.3812 0.1572 0.3018
C34 C 0.6245(4) 0.2656(4) 0.38012(18)
C35 C 0.7147(4) 0.1751(4) 0.3560(2)
H32 H 0.6773 0.0972 0.3537
C36 C 0.8621(5) 0.2001(5) 0.3352(2)
H33 H 0.9220 0.1389 0.3185
C37 C 0.9181(5) 0.3131(6) 0.3391(2)
H34 H 1.0166 0.3288 0.3256
C38 C 0.8320(5) 0.4031(5) 0.3625(3)
H35 H 0.8712 0.4804 0.3651
C39 C 0.6848(5) 0.3802(4) 0.3827(2)
H36 H 0.6258 0.4428 0.3982
C40 C 0.3395(4) 0.3701(3) 0.3960(2)
C41 C 0.3253(4) 0.4141(3) 0.3291(2)
H37 H 0.3684 0.3734 0.2915
C42 C 0.2473(5) 0.5186(4) 0.3168(3)
H38 H 0.2378 0.5469 0.2712
C43 C 0.1838(5) 0.5804(4) 0.3727(3)
H39 H 0.1325 0.6507 0.3649
C44 C 0.1974(5) 0.5373(4) 0.4382(3)
H40 H 0.1541 0.5785 0.4754
C45 C 0.2737(5) 0.4343(4) 0.4515(2)
H41 H 0.2817 0.4069 0.4974
loop_
_geom_bond_atom_site_label_1
_geom_bond_atom_site_label_2
_geom_bond_site_symmetry_1
_geom_bond_site_symmetry_2
P1 C1 1_555 1_555
P2 C33 1_555 1_555
N1 C13 1_555 1_555
N2 C25 1_555 1_555
N3 C21 1_555 1_555
C1 C2 1_555 1_555
C2 H1 1_555 1_555
C3 C2 1_555 1_555
H2 C3 1_555 1_555
C4 C3 1_555 1_555
H3 C4 1_555 1_555
C5 C4 1_555 1_555
H4 C5 1_555 1_555
C6 C1 1_555 1_555
H5 C6 1_555 1_555
C7 P1 1_555 1_555
C8 C7 1_555 1_555
H6 C8 1_555 1_555
C9 C8 1_555 1_555
H7 C9 1_555 1_555
C10 C9 1_555 1_555
H8 C10 1_555 1_555
C11 C10 1_555 1_555
H9 C11 1_555 1_555
C12 C7 1_555 1_555
H10 C12 1_555 1_555
C13 P1 1_555 1_555
H11 C13 1_555 1_555
H12 C13 1_555 1_555
C14 N1 1_555 1_555
H13 C14 1_555 1_555
H14 C14 1_555 1_555
C15 C14 1_555 1_555
C16 C15 1_555 1_555
H15 C16 1_555 1_555
C17 C16 1_555 1_555
H16 C17 1_555 1_555
C18 C17 1_555 1_555
H17 C18 1_555 1_555
C19 C18 1_555 1_555
H18 C19 1_555 1_555
C20 C15 1_555 1_555
H19 C20 1_555 1_555
C21 N1 1_555 1_555
C22 C21 1_555 1_555
H20 C22 1_555 1_555
C23 C22 1_555 1_555
H21 C23 1_555 1_555
C24 C23 1_555 1_555
H22 C24 1_555 1_555
C25 N3 1_555 1_555
C26 N2 1_555 1_555
H23 C26 1_555 1_555
H24 C26 1_555 1_555
C27 C26 1_555 1_555
C28 C27 1_555 1_555
H25 C28 1_555 1_555
C29 C28 1_555 1_555
H26 C29 1_555 1_555
C30 C29 1_555 1_555
H27 C30 1_555 1_555
C31 C30 1_555 1_555
H28 C31 1_555 1_555
C32 C27 1_555 1_555
H29 C32 1_555 1_555
C33 N2 1_555 1_555
H30 C33 1_555 1_555
H31 C33 1_555 1_555
C34 P2 1_555 1_555
C35 C34 1_555 1_555
H32 C35 1_555 1_555
C36 C35 1_555 1_555
H33 C36 1_555 1_555
C37 C36 1_555 1_555
H34 C37 1_555 1_555
C38 C37 1_555 1_555
H35 C38 1_555 1_555
C39 C34 1_555 1_555
H36 C39 1_555 1_555
C40 P2 1_555 1_555
C41 C40 1_555 1_555
H37 C41 1_555 1_555
C42 C41 1_555 1_555
H38 C42 1_555 1_555
C43 C42 1_555 1_555
H39 C43 1_555 1_555
C44 C43 1_555 1_555
H40 C44 1_555 1_555
C45 C40 1_555 1_555
H41 C45 1_555 1_555
C5 C6 1_555 1_555
C11 C12 1_555 1_555
C19 C20 1_555 1_555
C24 C25 1_555 1_555
C31 C32 1_555 1_555
C38 C39 1_555 1_555
C44 C45 1_555 1_555

#END
