
#######################################################################
#
#                 Cambridge Crystallographic Data Centre
#                                CCDC 
#
#######################################################################
#
# If this CIF has been generated from an entry in the Cambridge 
# Structural Database, then it will include bibliographic, chemical, 
# crystal, experimental, refinement or atomic coordinate data resulting 
# from the CCDC's data processing and validation procedures.
#
#######################################################################

data_FIZLOS
_chemical_name_common            'acotiamide hydrochloride trihydrate'
_chemical_formula_moiety         'C21 H31 N4 O5 S1 1+,3(H2 O1),Cl1 1-'
_chemical_name_systematic        
'N-[2-({2-[(2-hydroxy-4,5-dimethoxybenzene-1-carbonyl)amino]-1,3-thiazole-4-carbonyl}amino)ethyl]-N-(propan-2-yl)propan-2-aminium chloride trihydrate'
_chemical_properties_biological  
'treatment of postprandial fullness, abdominal distention, and early satiety caused by functional dyspepsia'
_symmetry_cell_setting           monoclinic
_symmetry_space_group_name_H-M   'C 2/c'
_symmetry_Int_Tables_number      15
_space_group_name_Hall           '-C 2yn'
loop_
_symmetry_equiv_pos_site_id
_symmetry_equiv_pos_as_xyz
1 x,y,z
2 -x,y,1/2-z
3 1/2+x,1/2+y,z
4 1/2-x,1/2+y,1/2-z
5 -x,-y,-z
6 x,-y,1/2+z
7 1/2-x,1/2-y,-z
8 1/2+x,1/2-y,1/2+z
_cell_length_a                   29.6303(18)
_cell_length_b                   12.2203(7)
_cell_length_c                   15.4842(9)
_cell_angle_alpha                90
_cell_angle_beta                 106.205(2)
_cell_angle_gamma                90
_cell_volume                     5383.93
_exptl_crystal_colour            colorless
_exptl_crystal_description       Prism
_cell_formula_units_Z            8
loop_
_atom_site_label
_atom_site_type_symbol
_atom_site_fract_x
_atom_site_fract_y
_atom_site_fract_z
S1 S 0.01179(2) 0.47898(3) -0.11651(3)
O1 O -0.08232(4) 0.12667(9) -0.24744(8)
O2 O -0.02379(3) -0.23171(8) -0.15870(8)
O3 O 0.04983(4) -0.15668(8) -0.04564(7)
O4 O -0.03247(4) 0.28748(8) -0.17108(8)
O5 O 0.14872(4) 0.67059(8) -0.00558(8)
N1 N 0.04025(4) 0.26483(9) -0.07884(8)
N2 N 0.09332(4) 0.40728(8) -0.02873(7)
N3 N 0.17403(4) 0.51158(9) 0.06467(7)
N4 N 0.21526(4) 0.53021(8) 0.27401(7)
C1 C -0.04781(4) 0.06174(11) -0.19634(9)
C2 C -0.05460(4) -0.05083(11) -0.20506(9)
H1 H -0.0817 -0.0785 -0.2450
C3 C -0.02125(4) -0.12129(10) -0.15469(9)
C4 C 0.01983(4) -0.07931(10) -0.09327(8)
C5 C 0.02639(4) 0.03133(10) -0.08545(8)
H2 H 0.0535 0.0587 -0.0453
C6 C -0.00707(4) 0.10480(10) -0.13701(8)
C7 C -0.00118(4) 0.22379(11) -0.13025(9)
C8 C 0.05106(4) 0.37543(9) -0.07131(8)
C9 C 0.05570(5) 0.57201(11) -0.07524(10)
H3 H 0.0524 0.6475 -0.0816
C10 C 0.09591(5) 0.51984(9) -0.03205(8)
C11 C 0.14142(5) 0.57435(10) 0.00970(8)
C12 C 0.21931(4) 0.55546(11) 0.11408(8)
H4 H 0.2294 0.6084 0.0766
H5 H 0.2422 0.4966 0.1269
C13 C 0.21880(4) 0.61010(10) 0.20174(8)
H6 H 0.2473 0.6528 0.2236
H7 H 0.1924 0.6602 0.1903
C14 C 0.17692(5) 0.56161(12) 0.31794(11)
H8 H 0.1767 0.5055 0.3630
C15 C 0.12916(6) 0.55848(16) 0.24882(15)
H9 H 0.1246 0.4882 0.2200
H10 H 0.1050 0.5709 0.2782
H11 H 0.1277 0.6144 0.2046
C16 C 0.18727(9) 0.66981(18) 0.36695(17)
H12 H 0.2178 0.6670 0.4096
H13 H 0.1866 0.7273 0.3244
H14 H 0.1640 0.6838 0.3980
C17 C 0.26319(5) 0.51066(13) 0.34177(9)
H15 H 0.2740 0.5797 0.3728
C18 C 0.25921(7) 0.4265(2) 0.41119(12)
H16 H 0.2365 0.4506 0.4407
H17 H 0.2494 0.3577 0.3820
H18 H 0.2892 0.4179 0.4548
C19 C 0.29880(5) 0.47378(16) 0.29475(12)
H19 H 0.3011 0.5275 0.2509
H20 H 0.3289 0.4652 0.3381
H21 H 0.2891 0.4051 0.2653
C20 C -0.06414(6) -0.27863(14) -0.22008(17)
H22 H -0.0619 -0.3570 -0.2168
H23 H -0.0919 -0.2554 -0.2048
H24 H -0.0658 -0.2552 -0.2801
C21 C 0.09184(5) -0.11767(12) 0.01574(10)
H25 H 0.1102 -0.1786 0.0454
H26 H 0.1096 -0.0766 -0.0164
H27 H 0.0841 -0.0714 0.0597
H28 H 0.0630(6) 0.2231(15) -0.0512(11)
H29 H 0.2060(6) 0.4614(14) 0.2501(11)
H30 H 0.1666(6) 0.4475(15) 0.0736(12)
H31 H -0.0726(8) 0.1936(14) -0.2333(15)
Cl1 Cl 0.18721(2) 0.29519(2) 0.19231(2)
O6 O 0.12363(4) 0.15235(10) 0.02349(9)
H32 H 0.1400(8) 0.1992(17) 0.0575(15)
H33 H 0.1404(9) 0.128(2) -0.0073(17)
O7 O -0.16197(5) 0.05287(11) -0.39523(9)
H34 H -0.1393(7) 0.072(2) -0.3479(13)
H35 H -0.1627(9) -0.0177(14) -0.3880(18)
O8 O 0.17013(6) 0.82385(10) -0.12861(9)
H36 H 0.1608(8) 0.7779(18) -0.0978(15)
H37 H 0.1724(8) 0.7889(18) -0.1727(13)
loop_
_geom_bond_atom_site_label_1
_geom_bond_atom_site_label_2
_geom_bond_site_symmetry_1
_geom_bond_site_symmetry_2
S1 C8 1_555 1_555
O1 C1 1_555 1_555
O2 C3 1_555 1_555
O3 C4 1_555 1_555
O4 C7 1_555 1_555
O5 C11 1_555 1_555
N1 C7 1_555 1_555
N2 C8 1_555 1_555
N3 C11 1_555 1_555
N4 C13 1_555 1_555
C1 C2 1_555 1_555
C2 H1 1_555 1_555
C3 C2 1_555 1_555
C4 C3 1_555 1_555
C5 C4 1_555 1_555
H2 C5 1_555 1_555
C6 C1 1_555 1_555
C7 C6 1_555 1_555
C8 N1 1_555 1_555
C9 S1 1_555 1_555
H3 C9 1_555 1_555
C10 N2 1_555 1_555
C11 C10 1_555 1_555
C12 N3 1_555 1_555
H4 C12 1_555 1_555
H5 C12 1_555 1_555
C13 C12 1_555 1_555
H6 C13 1_555 1_555
H7 C13 1_555 1_555
C14 N4 1_555 1_555
H8 C14 1_555 1_555
C15 C14 1_555 1_555
H9 C15 1_555 1_555
H10 C15 1_555 1_555
H11 C15 1_555 1_555
C16 C14 1_555 1_555
H12 C16 1_555 1_555
H13 C16 1_555 1_555
H14 C16 1_555 1_555
C17 N4 1_555 1_555
H15 C17 1_555 1_555
C18 C17 1_555 1_555
H16 C18 1_555 1_555
H17 C18 1_555 1_555
H18 C18 1_555 1_555
C19 C17 1_555 1_555
H19 C19 1_555 1_555
H20 C19 1_555 1_555
H21 C19 1_555 1_555
C20 O2 1_555 1_555
H22 C20 1_555 1_555
H23 C20 1_555 1_555
H24 C20 1_555 1_555
C21 O3 1_555 1_555
H25 C21 1_555 1_555
H26 C21 1_555 1_555
H27 C21 1_555 1_555
H28 N1 1_555 1_555
H29 N4 1_555 1_555
H30 N3 1_555 1_555
H31 O1 1_555 1_555
O6 H32 1_555 1_555
H33 O6 1_555 1_555
O7 H34 1_555 1_555
H35 O7 1_555 1_555
O8 H36 1_555 1_555
H37 O8 1_555 1_555
C5 C6 1_555 1_555
C9 C10 1_555 1_555

#END
