
#######################################################################
#
#                 Cambridge Crystallographic Data Centre
#                                CCDC 
#
#######################################################################
#
# If this CIF has been generated from an entry in the Cambridge 
# Structural Database, then it will include bibliographic, chemical, 
# crystal, experimental, refinement or atomic coordinate data resulting 
# from the CCDC's data processing and validation procedures.
#
#######################################################################

data_FIZMIN
_chemical_formula_moiety         'C22 H20 N2 O8'
_chemical_name_systematic        
"ethyl 2,3-dihydroxy-1'-methyl-3a-nitro-2'-oxo-1',2,2',3,3a,8b-hexahydrospiro[benzo[b]cyclopenta[d]furan-1,3'-indole]-2-carboxylate"
_symmetry_cell_setting           orthorhombic
_symmetry_space_group_name_H-M   'P 21 21 21'
_symmetry_Int_Tables_number      19
_space_group_name_Hall           'P 2ac 2ab'
loop_
_symmetry_equiv_pos_site_id
_symmetry_equiv_pos_as_xyz
1 x,y,z
2 1/2-x,-y,1/2+z
3 1/2+x,1/2-y,-z
4 -x,1/2+y,1/2-z
_cell_length_a                   8.17164(17)
_cell_length_b                   11.6790(3)
_cell_length_c                   21.6363(5)
_cell_angle_alpha                90
_cell_angle_beta                 90
_cell_angle_gamma                90
_cell_volume                     2064.89
_exptl_crystal_colour            colorless
_exptl_crystal_description       prism
_cell_formula_units_Z            4
loop_
_atom_site_label
_atom_site_type_symbol
_atom_site_fract_x
_atom_site_fract_y
_atom_site_fract_z
C1 C 0.2716(3) 0.5540(2) 0.41198(11)
C2 C 0.1046(3) 0.59447(19) 0.38593(10)
C3 C 0.0267(3) 0.4827(2) 0.36727(11)
C4 C 0.1376(3) 0.3949(2) 0.37793(12)
C5 C 0.1015(4) 0.2813(2) 0.36477(15)
H1 H 0.1764 0.2232 0.3727
C6 C -0.0503(4) 0.2581(2) 0.33935(15)
H2 H -0.0778 0.1829 0.3298
C7 C -0.1618(4) 0.3446(3) 0.32790(14)
H3 H -0.2631 0.3270 0.3108
C8 C -0.1234(3) 0.4582(2) 0.34180(12)
H4 H -0.1982 0.5165 0.3339
C9 C 0.4275(4) 0.3740(3) 0.4194(2)
H5 H 0.4025 0.3215 0.4522
H6 H 0.5124 0.4253 0.4325
H7 H 0.4637 0.3322 0.3837
C10 C 0.3915(3) 0.7527(2) 0.31461(11)
C11 C 0.5526(3) 0.7617(2) 0.29628(14)
H8 H 0.6193 0.8215 0.3093
C12 C 0.6092(3) 0.6761(3) 0.25726(14)
H9 H 0.7170 0.6789 0.2436
C13 C 0.5102(4) 0.5866(3) 0.23800(13)
H10 H 0.5521 0.5306 0.2118
C14 C 0.3484(3) 0.5801(2) 0.25763(11)
H11 H 0.2811 0.5203 0.2449
C15 C 0.2901(3) 0.6644(2) 0.29647(10)
C16 C 0.1303(3) 0.67870(19) 0.33047(10)
H12 H 0.0369 0.6775 0.3021
C17 C 0.1519(3) 0.79734(19) 0.36054(10)
C18 C 0.0969(3) 0.7896(2) 0.42866(11)
H13 H 0.1935 0.7914 0.4555
C19 C 0.0135(3) 0.6709(2) 0.43394(11)
C20 C 0.0312(3) 0.6228(2) 0.49957(12)
C21 C -0.0203(5) 0.4600(3) 0.56204(16)
H14 H -0.1087 0.4053 0.5668
H15 H -0.0265 0.5141 0.5960
C22 C 0.1377(6) 0.3993(4) 0.5645(2)
H16 H 0.1490 0.3517 0.5286
H17 H 0.1417 0.3525 0.6010
H18 H 0.2253 0.4540 0.5656
N1 N 0.2816(3) 0.43952(19) 0.40375(11)
N2 N 0.0515(3) 0.89131(19) 0.32711(10)
O1 O 0.3743(2) 0.61535(17) 0.43598(9)
O2 O 0.3170(2) 0.82920(15) 0.35477(8)
O3 O -0.0075(3) 0.88038(15) 0.44448(10)
H19 H -0.025(5) 0.886(4) 0.486(2)
O4 O -0.1508(2) 0.67460(16) 0.41543(9)
H20 H -0.198(5) 0.732(3) 0.4297(18)
O5 O 0.1020(3) 0.66952(18) 0.54089(9)
O6 O -0.0400(3) 0.52087(18) 0.50378(10)
O7 O 0.1131(3) 0.98500(17) 0.32152(12)
O8 O -0.0846(2) 0.8659(2) 0.31012(12)
loop_
_geom_bond_atom_site_label_1
_geom_bond_atom_site_label_2
_geom_bond_site_symmetry_1
_geom_bond_site_symmetry_2
C1 C2 1_555 1_555
C2 C3 1_555 1_555
C3 C4 1_555 1_555
C4 C5 1_555 1_555
C5 H1 1_555 1_555
C6 C5 1_555 1_555
H2 C6 1_555 1_555
C7 C6 1_555 1_555
H3 C7 1_555 1_555
C8 C3 1_555 1_555
H4 C8 1_555 1_555
C9 H5 1_555 1_555
H6 C9 1_555 1_555
H7 C9 1_555 1_555
C10 C11 1_555 1_555
C11 H8 1_555 1_555
C12 C11 1_555 1_555
H9 C12 1_555 1_555
C13 C12 1_555 1_555
H10 C13 1_555 1_555
C14 C13 1_555 1_555
H11 C14 1_555 1_555
C15 C10 1_555 1_555
C16 C2 1_555 1_555
H12 C16 1_555 1_555
C17 C16 1_555 1_555
C18 C17 1_555 1_555
H13 C18 1_555 1_555
C19 C2 1_555 1_555
C20 C19 1_555 1_555
C21 H14 1_555 1_555
H15 C21 1_555 1_555
C22 C21 1_555 1_555
H16 C22 1_555 1_555
H17 C22 1_555 1_555
H18 C22 1_555 1_555
N1 C1 1_555 1_555
N2 C17 1_555 1_555
O1 C1 1_555 1_555
O2 C10 1_555 1_555
O3 C18 1_555 1_555
H19 O3 1_555 1_555
O4 C19 1_555 1_555
H20 O4 1_555 1_555
O5 C20 1_555 1_555
O6 C20 1_555 1_555
O7 N2 1_555 1_555
O8 N2 1_555 1_555
C4 N1 1_555 1_555
C7 C8 1_555 1_555
C9 N1 1_555 1_555
C14 C15 1_555 1_555
C15 C16 1_555 1_555
C17 O2 1_555 1_555
C18 C19 1_555 1_555
C21 O6 1_555 1_555

#END
