
#######################################################################
#
#                 Cambridge Crystallographic Data Centre
#                                CCDC 
#
#######################################################################
#
# If this CIF has been generated from an entry in the Cambridge 
# Structural Database, then it will include bibliographic, chemical, 
# crystal, experimental, refinement or atomic coordinate data resulting 
# from the CCDC's data processing and validation procedures.
#
#######################################################################

data_FIZMAE
_chemical_formula_moiety         'C20 H18 N1 S1 1+,Cl1 O4 1-'
_chemical_name_systematic        
'10,10-Dimethyl-8-(2-(2-thienyl)vinyl)-10H-pyrido[1,2-a]indolium perchlorate'
_symmetry_cell_setting           monoclinic
_symmetry_space_group_name_H-M   'P 21/m'
_symmetry_Int_Tables_number      11
_space_group_name_Hall           '-P 2yb'
loop_
_symmetry_equiv_pos_site_id
_symmetry_equiv_pos_as_xyz
1 x,y,z
2 -x,1/2+y,-z
3 -x,-y,-z
4 x,1/2-y,z
_cell_length_a                   10.270(6)
_cell_length_b                   6.753(4)
_cell_length_c                   13.601(8)
_cell_angle_alpha                90
_cell_angle_beta                 92.781(9)
_cell_angle_gamma                90
_cell_volume                     942.163
_cell_formula_units_Z            2
loop_
_atom_site_label
_atom_site_type_symbol
_atom_site_fract_x
_atom_site_fract_y
_atom_site_fract_z
S1 S 0.1294(2) 0.2500 0.47502(15)
N1 N 0.7878(4) 0.2500 0.7247(3)
C1 C 0.8937(5) 0.2500 0.7953(4)
C2 C 1.0264(6) 0.2500 0.7798(6)
H1 H 1.0580 0.2500 0.7168
C3 C 1.1065(7) 0.2500 0.8611(9)
H2 H 1.1961 0.2500 0.8537
C4 C 1.0618(7) 0.2500 0.9537(6)
H3 H 1.1215 0.2500 1.0073
C5 C 0.9276(6) 0.2500 0.9704(5)
H4 H 0.8970 0.2500 1.0337
C6 C 0.8444(5) 0.2500 0.8882(4)
C7 C 0.6984(5) 0.2500 0.8794(4)
C8 C 0.6427(4) 0.0612(8) 0.9250(3)
H5 H 0.6786 -0.0531 0.8943
H6 H 0.5495 0.0604 0.9147
H7 H 0.6652 0.0587 0.9943
C9 C 0.6734(5) 0.2500 0.7693(4)
C10 C 0.5579(6) 0.2500 0.7161(4)
H8 H 0.4810 0.2500 0.7495
C11 C 0.5504(6) 0.2500 0.6142(4)
C12 C 0.6724(8) 0.2500 0.5702(4)
H9 H 0.6738 0.2500 0.5019
C13 C 0.7878(7) 0.2500 0.6239(4)
H10 H 0.8661 0.2500 0.5923
C14 C 0.4200(7) 0.2500 0.5623(5)
H11 H 0.3472 0.2500 0.6004
C15 C 0.4006(7) 0.2500 0.4669(5)
H12 H 0.4735 0.2500 0.4289
C16 C 0.2770(7) 0.2500 0.4171(6)
C17 C 0.2586(6) 0.2500 0.3194(4)
H13 H 0.3251 0.2500 0.2754
C18 C 0.1224(9) 0.2500 0.2917(7)
H14 H 0.0910 0.2500 0.2264
C19 C 0.0456(8) 0.2500 0.3655(7)
H15 H -0.0450 0.2500 0.3584
C8C C 0.6427(4) 0.4388(8) 0.9250(3)
H5C H 0.6786 0.5531 0.8943
H6C H 0.5495 0.4396 0.9147
H7C H 0.6652 0.4413 0.9943
Cl1 Cl 0.68507(13) 0.2500 0.24925(9)
O1 O 0.7170(10) 0.1101(15) 0.3218(6)
O2 O 0.5517(11) 0.2500 0.2311(13)
O3 O 0.7856(12) 0.2500 0.1842(7)
O1C O 0.7170(10) 0.3899(15) 0.3218(6)
loop_
_geom_bond_atom_site_label_1
_geom_bond_atom_site_label_2
_geom_bond_site_symmetry_1
_geom_bond_site_symmetry_2
S1 C16 1_555 1_555
N1 C1 1_555 1_555
C1 C2 1_555 1_555
C2 H1 1_555 1_555
C3 C2 1_555 1_555
H2 C3 1_555 1_555
C4 C3 1_555 1_555
H3 C4 1_555 1_555
C5 C4 1_555 1_555
H4 C5 1_555 1_555
C6 C1 1_555 1_555
C7 C6 1_555 1_555
C8 C7 1_555 1_555
H5 C8 1_555 1_555
H6 C8 1_555 1_555
H7 C8 1_555 1_555
C9 N1 1_555 1_555
C10 C9 1_555 1_555
H8 C10 1_555 1_555
C11 C10 1_555 1_555
C12 C11 1_555 1_555
H9 C12 1_555 1_555
C13 N1 1_555 1_555
H10 C13 1_555 1_555
C14 C11 1_555 1_555
H11 C14 1_555 1_555
C15 C14 1_555 1_555
H12 C15 1_555 1_555
C16 C15 1_555 1_555
C17 C16 1_555 1_555
H13 C17 1_555 1_555
C18 C17 1_555 1_555
H14 C18 1_555 1_555
C19 S1 1_555 1_555
H15 C19 1_555 1_555
Cl1 O1 1_555 1_555
O2 Cl1 1_555 1_555
O3 Cl1 1_555 1_555
C8C C7 1_555 1_555
H5C C8C 1_555 1_555
H6C C8C 1_555 1_555
H7C C8C 1_555 1_555
O1C Cl1 1_555 1_555
C5 C6 1_555 1_555
C7 C9 1_555 1_555
C12 C13 1_555 1_555
C18 C19 1_555 1_555

#END
