
#######################################################################
#
#                 Cambridge Crystallographic Data Centre
#                                CCDC 
#
#######################################################################
#
# If this CIF has been generated from an entry in the Cambridge 
# Structural Database, then it will include bibliographic, chemical, 
# crystal, experimental, refinement or atomic coordinate data resulting 
# from the CCDC's data processing and validation procedures.
#
#######################################################################

data_FIZMAF
_chemical_formula_moiety         'C22 H17 Cl1 N2 O6'
_chemical_name_systematic        
"ethyl 8-chloro-1'-methyl-3a-nitro-2'-oxo-1',2',3a,8b-tetrahydrospiro[benzo[b]cyclopenta[d]furan-1,3'-indole]-2-carboxylate"
_symmetry_cell_setting           orthorhombic
_symmetry_space_group_name_H-M   'P 21 21 21'
_symmetry_Int_Tables_number      19
_space_group_name_Hall           'P 2ac 2ab'
loop_
_symmetry_equiv_pos_site_id
_symmetry_equiv_pos_as_xyz
1 x,y,z
2 1/2-x,-y,1/2+z
3 -x,1/2+y,1/2-z
4 1/2+x,1/2-y,-z
_cell_length_a                   8.7589(3)
_cell_length_b                   12.7084(5)
_cell_length_c                   18.1977(6)
_cell_angle_alpha                90
_cell_angle_beta                 90
_cell_angle_gamma                90
_cell_volume                     2025.62
_exptl_crystal_colour            colorless
_exptl_crystal_description       block
_cell_formula_units_Z            4
loop_
_atom_site_label
_atom_site_type_symbol
_atom_site_fract_x
_atom_site_fract_y
_atom_site_fract_z
Cl1 Cl 0.20774(12) 0.36824(7) 0.74131(5)
O1 O 0.4050(3) 0.75346(19) 0.57296(12)
O2 O 0.2129(3) 0.72564(18) 0.85528(14)
O3 O 0.1239(2) 0.6211(2) 0.64884(14)
O4 O 0.4505(4) 0.90419(19) 0.63262(15)
N1 N 0.4754(3) 0.7037(2) 0.88437(14)
N2 N 0.3156(3) 0.5225(2) 0.59757(13)
O5 O 0.6069(3) 0.7172(3) 0.86507(15)
O6 O 0.4347(4) 0.6878(3) 0.94605(14)
C1 C 0.4238(3) 0.8116(2) 0.63260(17)
C2 C 0.3522(3) 0.5995(2) 0.78122(15)
H1 H 0.4312 0.5522 0.8003
C3 C 0.4017(3) 0.7466(2) 0.70000(15)
C4 C 0.5222(3) 0.5722(2) 0.66602(15)
C5 C 0.3845(3) 0.6282(2) 0.69848(15)
C6 C 0.2555(3) 0.5921(3) 0.64624(16)
C7 C 0.3933(3) 0.7883(2) 0.76634(16)
H2 H 0.4090 0.8591 0.7768
C8 C 0.6740(3) 0.5756(3) 0.68497(18)
H3 H 0.7069 0.6161 0.7245
C9 C 0.3557(3) 0.7070(2) 0.82217(16)
C10 C 0.1231(3) 0.6377(3) 0.84370(16)
C11 C 0.1955(3) 0.5614(2) 0.80266(16)
C12 C 0.4738(4) 0.5112(2) 0.60699(15)
C13 C 0.7778(4) 0.5168(3) 0.6435(2)
H4 H 0.8810 0.5179 0.6555
C14 C -0.0243(4) 0.6286(3) 0.86981(19)
H5 H -0.0714 0.6824 0.8959
C15 C 0.1195(4) 0.4675(3) 0.79003(17)
C16 C 0.7283(4) 0.4575(3) 0.5851(2)
H6 H 0.7990 0.4191 0.5580
C17 C 0.2265(5) 0.4656(4) 0.5434(2)
H7 H 0.2371 0.3914 0.5515
H8 H 0.2625 0.4829 0.4950
H9 H 0.1210 0.4851 0.5478
C18 C -0.0291(4) 0.4550(3) 0.8165(2)
H10 H -0.0815 0.3925 0.8081
C19 C -0.0976(4) 0.5351(4) 0.8549(2)
H11 H -0.1971 0.5258 0.8715
C20 C 0.5761(5) 0.4533(3) 0.56569(17)
H12 H 0.5435 0.4129 0.5261
C21 C 0.4149(6) 0.8052(3) 0.5018(2)
H13 H 0.5166 0.8336 0.4946
H14 H 0.3422 0.8626 0.4992
C22 C 0.3810(8) 0.7273(4) 0.4452(2)
H15 H 0.3874 0.7597 0.3976
H16 H 0.2799 0.7001 0.4525
H17 H 0.4535 0.6707 0.4481
loop_
_geom_bond_atom_site_label_1
_geom_bond_atom_site_label_2
_geom_bond_site_symmetry_1
_geom_bond_site_symmetry_2
Cl1 C15 1_555 1_555
O1 C1 1_555 1_555
O2 C9 1_555 1_555
O3 C6 1_555 1_555
O4 C1 1_555 1_555
N1 O5 1_555 1_555
N2 C6 1_555 1_555
O6 N1 1_555 1_555
C1 C3 1_555 1_555
C2 H1 1_555 1_555
C3 C5 1_555 1_555
C4 C5 1_555 1_555
C5 C2 1_555 1_555
C6 C5 1_555 1_555
C7 C3 1_555 1_555
H2 C7 1_555 1_555
C8 C4 1_555 1_555
H3 C8 1_555 1_555
C9 N1 1_555 1_555
C10 O2 1_555 1_555
C11 C2 1_555 1_555
C12 N2 1_555 1_555
C13 C8 1_555 1_555
H4 C13 1_555 1_555
C14 C10 1_555 1_555
H5 C14 1_555 1_555
C15 C11 1_555 1_555
C16 C13 1_555 1_555
H6 C16 1_555 1_555
C17 N2 1_555 1_555
H7 C17 1_555 1_555
H8 C17 1_555 1_555
H9 C17 1_555 1_555
C18 C15 1_555 1_555
H10 C18 1_555 1_555
C19 C14 1_555 1_555
H11 C19 1_555 1_555
C20 C12 1_555 1_555
H12 C20 1_555 1_555
C21 O1 1_555 1_555
H13 C21 1_555 1_555
H14 C21 1_555 1_555
C22 C21 1_555 1_555
H15 C22 1_555 1_555
H16 C22 1_555 1_555
H17 C22 1_555 1_555
C2 C9 1_555 1_555
C4 C12 1_555 1_555
C7 C9 1_555 1_555
C10 C11 1_555 1_555
C16 C20 1_555 1_555
C18 C19 1_555 1_555

#END
