
#######################################################################
#
#                 Cambridge Crystallographic Data Centre
#                                CCDC 
#
#######################################################################
#
# If this CIF has been generated from an entry in the Cambridge 
# Structural Database, then it will include bibliographic, chemical, 
# crystal, experimental, refinement or atomic coordinate data resulting 
# from the CCDC's data processing and validation procedures.
#
#######################################################################

data_FIZNUA01
_chemical_name_common            
'acotiamide hydrochloride methanol solvate monohydrate'
_chemical_formula_moiety         'C21 H31 N4 O5 S1 1+,C1 H4 O1,H2 O1,Cl1 1-'
_chemical_name_systematic        
'N-[2-({2-[(2-hydroxy-4,5-dimethoxybenzene-1-carbonyl)amino]-1,3-thiazole-4-carbonyl}amino)ethyl]-N-(propan-2-yl)propan-2-aminium chloride methanol solvate monohydrate'
_chemical_properties_biological  
'treatment of postprandial fullness, abdominal distention, and early satiety caused by functional dyspepsia'
_symmetry_cell_setting           monoclinic
_symmetry_space_group_name_H-M   'C 2/c'
_symmetry_Int_Tables_number      15
_space_group_name_Hall           '-C 2yn'
loop_
_symmetry_equiv_pos_site_id
_symmetry_equiv_pos_as_xyz
1 x,y,z
2 -x,y,1/2-z
3 1/2+x,1/2+y,z
4 1/2-x,1/2+y,1/2-z
5 -x,-y,-z
6 x,-y,1/2+z
7 1/2-x,1/2-y,-z
8 1/2+x,1/2-y,1/2+z
_cell_length_a                   28.304(9)
_cell_length_b                   12.329(4)
_cell_length_c                   15.805(5)
_cell_angle_alpha                90
_cell_angle_beta                 103.032(7)
_cell_angle_gamma                90
_cell_volume                     5373.26
_exptl_crystal_colour            colorless
_exptl_crystal_description       Prism
_cell_formula_units_Z            8
loop_
_atom_site_label
_atom_site_type_symbol
_atom_site_fract_x
_atom_site_fract_y
_atom_site_fract_z
S1 S 0.01273(2) 0.48844(4) -0.11500(4)
O1 O -0.08378(5) 0.14191(16) -0.24465(11)
O2 O -0.02635(6) -0.21558(13) -0.16249(13)
O3 O 0.04747(6) -0.14415(11) -0.05352(11)
O4 O -0.03322(5) 0.30045(13) -0.16822(11)
O5 O 0.15271(6) 0.67358(12) 0.00448(13)
N1 N 0.04055(6) 0.27505(13) -0.08203(11)
N2 N 0.09466(5) 0.41398(12) -0.03042(10)
N3 N 0.17848(6) 0.50842(13) 0.05497(10)
N4 N 0.21815(5) 0.50542(11) 0.25590(9)
C1 C -0.04963(6) 0.07670(17) -0.19600(12)
C2 C -0.05673(7) -0.03499(18) -0.20546(14)
H1 H -0.0839 -0.0617 -0.2443
C3 C -0.02367(7) -0.10575(17) -0.15760(13)
C4 C 0.01761(7) -0.06597(16) -0.09842(12)
C5 C 0.02477(6) 0.04376(15) -0.09010(11)
H2 H 0.0522 0.0698 -0.0514
C6 C -0.00836(6) 0.11805(15) -0.13868(11)
C7 C -0.00206(6) 0.23545(16) -0.13116(12)
C8 C 0.05189(6) 0.38376(14) -0.07241(11)
C9 C 0.05776(7) 0.57899(16) -0.07232(13)
H3 H 0.0549 0.6540 -0.0769
C10 C 0.09808(7) 0.52553(14) -0.03109(11)
C11 C 0.14486(7) 0.57660(15) 0.01082(12)
C12 C 0.22513(6) 0.54687(16) 0.10262(11)
H4 H 0.2365 0.6030 0.0690
H5 H 0.2482 0.4875 0.1097
C13 C 0.22392(6) 0.59199(14) 0.19141(10)
H6 H 0.2537 0.6315 0.2139
H7 H 0.1972 0.6429 0.1853
C14 C 0.17643(7) 0.53018(15) 0.29958(13)
H8 H 0.1745 0.4701 0.3393
C15 C 0.12886(7) 0.5332(2) 0.23264(19)
H9 H 0.1247 0.4666 0.2004
H10 H 0.1026 0.5422 0.2614
H11 H 0.1291 0.5929 0.1937
C16 C 0.18608(10) 0.6327(2) 0.35372(18)
H12 H 0.2166 0.6262 0.3949
H13 H 0.1871 0.6937 0.3164
H14 H 0.1606 0.6430 0.3841
C17 C 0.26614(7) 0.48265(16) 0.32030(12)
H15 H 0.2770 0.5495 0.3523
C18 C 0.30419(7) 0.4484(2) 0.27195(17)
H16 H 0.3078 0.5039 0.2313
H17 H 0.3346 0.4375 0.3126
H18 H 0.2943 0.3819 0.2414
C19 C 0.26014(10) 0.3957(2) 0.38476(15)
H19 H 0.2360 0.4180 0.4151
H20 H 0.2502 0.3292 0.3544
H21 H 0.2905 0.3848 0.4256
C20 C -0.06583(11) -0.2613(2) -0.2258(2)
H22 H -0.0639 -0.3390 -0.2232
H23 H -0.0960 -0.2381 -0.2139
H24 H -0.0639 -0.2373 -0.2828
C21 C 0.09044(8) -0.10817(18) 0.00346(16)
H25 H 0.1083 -0.1696 0.0311
H26 H 0.1098 -0.0689 -0.0288
H27 H 0.0824 -0.0616 0.0468
H28 H 0.2092(7) 0.4431(18) 0.2273(13)
H29 H 0.1718(8) 0.447(2) 0.0586(14)
H30 H 0.0633(9) 0.2360(19) -0.0591(15)
H31 H -0.0740(14) 0.219(3) -0.235(2)
Cl1 Cl 0.19231(2) 0.27919(4) 0.16677(4)
O6 O 0.32900(16) 0.6807(3) 0.1347(3)
H32 H 0.339(2) 0.727(3) 0.104(3)
H33 H 0.322(2) 0.691(4) 0.182(2)
O7 O 0.12812(7) 0.15824(16) 0.00505(16)
C22 C 0.16374(10) 0.1257(2) -0.03903(18)
H34 H 0.1886 0.1800 -0.0321
H35 H 0.1492 0.1167 -0.0996
H36 H 0.1777 0.0582 -0.0154
H37 H 0.1398(12) 0.186(3) 0.039(2)
loop_
_geom_bond_atom_site_label_1
_geom_bond_atom_site_label_2
_geom_bond_site_symmetry_1
_geom_bond_site_symmetry_2
S1 C8 1_555 1_555
O1 C1 1_555 1_555
O2 C3 1_555 1_555
O3 C4 1_555 1_555
O4 C7 1_555 1_555
O5 C11 1_555 1_555
N1 C7 1_555 1_555
N2 C8 1_555 1_555
N3 C11 1_555 1_555
N4 C13 1_555 1_555
C1 C2 1_555 1_555
C2 H1 1_555 1_555
C3 C2 1_555 1_555
C4 C3 1_555 1_555
C5 C4 1_555 1_555
H2 C5 1_555 1_555
C6 C1 1_555 1_555
C7 C6 1_555 1_555
C8 N1 1_555 1_555
C9 S1 1_555 1_555
H3 C9 1_555 1_555
C10 N2 1_555 1_555
C11 C10 1_555 1_555
C12 N3 1_555 1_555
H4 C12 1_555 1_555
H5 C12 1_555 1_555
C13 C12 1_555 1_555
H6 C13 1_555 1_555
H7 C13 1_555 1_555
C14 N4 1_555 1_555
H8 C14 1_555 1_555
C15 C14 1_555 1_555
H9 C15 1_555 1_555
H10 C15 1_555 1_555
H11 C15 1_555 1_555
C16 C14 1_555 1_555
H12 C16 1_555 1_555
H13 C16 1_555 1_555
H14 C16 1_555 1_555
C17 N4 1_555 1_555
H15 C17 1_555 1_555
C18 C17 1_555 1_555
H16 C18 1_555 1_555
H17 C18 1_555 1_555
H18 C18 1_555 1_555
C19 C17 1_555 1_555
H19 C19 1_555 1_555
H20 C19 1_555 1_555
H21 C19 1_555 1_555
C20 O2 1_555 1_555
H22 C20 1_555 1_555
H23 C20 1_555 1_555
H24 C20 1_555 1_555
C21 O3 1_555 1_555
H25 C21 1_555 1_555
H26 C21 1_555 1_555
H27 C21 1_555 1_555
H28 N4 1_555 1_555
H29 N3 1_555 1_555
H30 N1 1_555 1_555
H31 O1 1_555 1_555
O6 H32 1_555 1_555
H33 O6 1_555 1_555
O7 C22 1_555 1_555
C22 H34 1_555 1_555
H35 C22 1_555 1_555
H36 C22 1_555 1_555
H37 O7 1_555 1_555
C5 C6 1_555 1_555
C9 C10 1_555 1_555

#END
