
#######################################################################
#
#                 Cambridge Crystallographic Data Centre
#                                CCDC 
#
#######################################################################
#
# If this CIF has been generated from an entry in the Cambridge 
# Structural Database, then it will include bibliographic, chemical, 
# crystal, experimental, refinement or atomic coordinate data resulting 
# from the CCDC's data processing and validation procedures.
#
#######################################################################

data_FIZNOU
_chemical_name_common            'acotiamide hydrochloride methanol solvate'
_chemical_formula_moiety         'C21 H31 N4 O5 S1 1+,C1 H4 O1,Cl1 1-'
_chemical_name_systematic        
'N-[2-({2-[(2-hydroxy-4,5-dimethoxybenzene-1-carbonyl)amino]-1,3-thiazole-4-carbonyl}amino)ethyl]-N-(propan-2-yl)propan-2-aminium chloride methanol solvate'
_chemical_properties_biological  
'treatment of postprandial fullness, abdominal distention, and early satiety caused by functional dyspepsia'
_symmetry_cell_setting           monoclinic
_symmetry_space_group_name_H-M   'P 21/c'
_symmetry_Int_Tables_number      14
_space_group_name_Hall           '-P 2ybc'
loop_
_symmetry_equiv_pos_site_id
_symmetry_equiv_pos_as_xyz
1 x,y,z
2 -x,1/2+y,1/2-z
3 -x,-y,-z
4 x,1/2-y,1/2+z
_cell_length_a                   14.334(4)
_cell_length_b                   12.250(4)
_cell_length_c                   15.166(4)
_cell_angle_alpha                90
_cell_angle_beta                 100.871(5)
_cell_angle_gamma                90
_cell_volume                     2615.23
_exptl_crystal_colour            colorless
_exptl_crystal_description       Prism
_cell_formula_units_Z            4
loop_
_atom_site_label
_atom_site_type_symbol
_atom_site_fract_x
_atom_site_fract_y
_atom_site_fract_z
C1 C 0.2893(4) 0.4427(4) 0.9253(3)
H1 H 0.3498 0.4703 0.9172
H2 H 0.2982 0.3751 0.9578
H3 H 0.2596 0.4948 0.9585
O1 O 0.23191(18) 0.4254(2) 0.8421(2)
H4 H 0.274(3) 0.381(4) 0.817(3)
C2 C -0.13033(17) 0.4941(2) 0.89227(16)
C3 C -0.14756(18) 0.6047(2) 0.89634(17)
H5 H -0.2061 0.6285 0.9068
C4 C -0.08004(19) 0.6800(2) 0.88530(17)
C5 C 0.00859(18) 0.6435(2) 0.86789(18)
C6 C 0.02586(18) 0.5345(2) 0.86477(18)
H6 H 0.0845 0.5113 0.8542
C7 C -0.04212(16) 0.4553(2) 0.87702(16)
C8 C -0.02560(17) 0.3389(2) 0.87497(17)
C9 C 0.08597(17) 0.1934(2) 0.86018(16)
C10 C 0.1074(2) -0.0009(2) 0.87553(19)
H7 H 0.1062 -0.0760 0.8839
C11 C 0.18123(17) 0.05513(19) 0.85280(16)
C12 C 0.27168(17) 0.00674(19) 0.83656(17)
C13 C 0.41313(18) 0.0365(2) 0.77229(18)
H8 H 0.4256 0.0799 0.7223
H9 H 0.4059 -0.0388 0.7524
C14 C 0.49821(17) 0.04455(19) 0.84893(17)
H10 H 0.4820 0.0105 0.9018
H11 H 0.5506 0.0038 0.8329
C15 C 0.5303(2) 0.1891(2) 0.96957(16)
H12 H 0.5724 0.1388 1.0085
C16 C 0.4307(2) 0.1779(2) 0.98917(18)
H13 H 0.4094 0.1039 0.9785
H14 H 0.3885 0.2260 0.9507
H15 H 0.4312 0.1966 1.0507
C17 C 0.5662(3) 0.3048(3) 0.9892(2)
H16 H 0.6335 0.3070 0.9908
H17 H 0.5533 0.3277 1.0463
H18 H 0.5347 0.3529 0.9431
C18 C 0.62521(17) 0.1847(2) 0.84311(19)
H19 H 0.6393 0.2621 0.8555
C19 C 0.6143(2) 0.1682(3) 0.7425(2)
H20 H 0.6697 0.1955 0.7228
H21 H 0.5592 0.2070 0.7124
H22 H 0.6071 0.0918 0.7288
C20 C 0.7063(2) 0.1193(3) 0.8967(3)
H23 H 0.7636 0.1341 0.8747
H24 H 0.6919 0.0428 0.8904
H25 H 0.7149 0.1395 0.9588
C21 C -0.1760(2) 0.8326(3) 0.9045(3)
H26 H -0.1720 0.9107 0.9075
H27 H -0.1884 0.8045 0.9602
H28 H -0.2266 0.8116 0.8565
C22 C 0.1592(2) 0.6929(2) 0.8384(3)
H29 H 0.1948 0.7566 0.8284
H30 H 0.1511 0.6468 0.7864
H31 H 0.1929 0.6537 0.8895
O2 O -0.20111(14) 0.4246(2) 0.90398(16)
H32 H -0.176(3) 0.356(3) 0.901(2)
O3 O -0.08892(15) 0.78943(17) 0.88844(15)
O4 O 0.06920(14) 0.72478(16) 0.85480(17)
O5 O -0.08596(13) 0.27034(16) 0.88774(15)
O6 O 0.29600(14) -0.08714(14) 0.85945(14)
N1 N 0.06007(15) 0.30166(17) 0.85959(15)
H33 H 0.099(3) 0.346(3) 0.846(2)
N2 N 0.16885(14) 0.16626(16) 0.84343(13)
N3 N 0.32470(14) 0.07290(18) 0.79574(14)
H34 H 0.302(2) 0.140(3) 0.7790(18)
N4 N 0.53072(13) 0.15973(15) 0.87216(12)
H35 H 0.481(2) 0.211(2) 0.8394(17)
S1 S 0.01732(5) 0.08577(5) 0.88660(5)
Cl1 Cl 0.39782(4) 0.32667(5) 0.75713(4)
loop_
_geom_bond_atom_site_label_1
_geom_bond_atom_site_label_2
_geom_bond_site_symmetry_1
_geom_bond_site_symmetry_2
C1 H1 1_555 1_555
H2 C1 1_555 1_555
H3 C1 1_555 1_555
O1 C1 1_555 1_555
H4 O1 1_555 1_555
C2 C3 1_555 1_555
C3 H5 1_555 1_555
C4 C3 1_555 1_555
C5 C4 1_555 1_555
C6 C5 1_555 1_555
H6 C6 1_555 1_555
C7 C2 1_555 1_555
C8 C7 1_555 1_555
C9 N1 1_555 1_555
C10 H7 1_555 1_555
C11 C10 1_555 1_555
C12 C11 1_555 1_555
C13 H8 1_555 1_555
H9 C13 1_555 1_555
C14 C13 1_555 1_555
H10 C14 1_555 1_555
H11 C14 1_555 1_555
C15 H12 1_555 1_555
C16 C15 1_555 1_555
H13 C16 1_555 1_555
H14 C16 1_555 1_555
H15 C16 1_555 1_555
C17 C15 1_555 1_555
H16 C17 1_555 1_555
H17 C17 1_555 1_555
H18 C17 1_555 1_555
C18 H19 1_555 1_555
C19 C18 1_555 1_555
H20 C19 1_555 1_555
H21 C19 1_555 1_555
H22 C19 1_555 1_555
C20 C18 1_555 1_555
H23 C20 1_555 1_555
H24 C20 1_555 1_555
H25 C20 1_555 1_555
C21 H26 1_555 1_555
H27 C21 1_555 1_555
H28 C21 1_555 1_555
C22 H29 1_555 1_555
H30 C22 1_555 1_555
H31 C22 1_555 1_555
O2 C2 1_555 1_555
H32 O2 1_555 1_555
O3 C4 1_555 1_555
O4 C5 1_555 1_555
O5 C8 1_555 1_555
O6 C12 1_555 1_555
N1 C8 1_555 1_555
H33 N1 1_555 1_555
N2 C9 1_555 1_555
N3 C12 1_555 1_555
H34 N3 1_555 1_555
N4 C14 1_555 1_555
H35 N4 1_555 1_555
S1 C9 1_555 1_555
C6 C7 1_555 1_555
C10 S1 1_555 1_555
C11 N2 1_555 1_555
C13 N3 1_555 1_555
C15 N4 1_555 1_555
C18 N4 1_555 1_555
C21 O3 1_555 1_555
C22 O4 1_555 1_555

#END
