
#######################################################################
#
#                 Cambridge Crystallographic Data Centre
#                                CCDC 
#
#######################################################################
#
# If this CIF has been generated from an entry in the Cambridge 
# Structural Database, then it will include bibliographic, chemical, 
# crystal, experimental, refinement or atomic coordinate data resulting 
# from the CCDC's data processing and validation procedures.
#
#######################################################################

data_FIZNUA
_chemical_name_common            
'acotiamide hydrochloride methanol solvate monohydrate'
_chemical_formula_moiety         'C21 H31 N4 O5 S1 1+,C1 H4 O1,H2 O1,Cl1 1-'
_chemical_name_systematic        
'N-[2-({2-[(2-hydroxy-4,5-dimethoxybenzene-1-carbonyl)amino]-1,3-thiazole-4-carbonyl}amino)ethyl]-N-(propan-2-yl)propan-2-aminium chloride methanol solvate monohydrate'
_chemical_properties_biological  
'treatment of postprandial fullness, abdominal distention, and early satiety caused by functional dyspepsia'
_symmetry_cell_setting           triclinic
_symmetry_space_group_name_H-M   'P -1'
_symmetry_Int_Tables_number      2
_space_group_name_Hall           '-P 1'
loop_
_symmetry_equiv_pos_site_id
_symmetry_equiv_pos_as_xyz
1 x,y,z
2 -x,-y,-z
_cell_length_a                   8.9035(8)
_cell_length_b                   12.2579(11)
_cell_length_c                   12.8679(12)
_cell_angle_alpha                83.444(2)
_cell_angle_beta                 87.462(2)
_cell_angle_gamma                77.980(2)
_cell_volume                     1364.3
_exptl_crystal_colour            colorless
_exptl_crystal_description       Prism
_cell_formula_units_Z            2
loop_
_atom_site_label
_atom_site_type_symbol
_atom_site_fract_x
_atom_site_fract_y
_atom_site_fract_z
S1 S 0.38212(7) 0.93186(5) 0.60728(4)
O1 O 0.1274(2) 0.65124(17) 0.43240(13)
O2 O 0.29810(19) 0.25659(14) 0.50710(13)
O3 O 0.47466(18) 0.28168(12) 0.65201(12)
O4 O 0.24968(19) 0.77740(13) 0.53344(11)
O5 O 0.65420(19) 1.04114(12) 0.85560(12)
N1 N 0.3960(2) 0.70802(15) 0.67171(13)
N2 N 0.50509(18) 0.81586(13) 0.77247(12)
N3 N 0.6415(2) 0.87275(16) 0.93968(14)
N4 N 0.95278(19) 0.74204(14) 1.04526(12)
C1 C 0.2138(2) 0.56420(19) 0.49174(15)
C2 C 0.2079(3) 0.4564(2) 0.46958(16)
H1 H 0.1441 0.4471 0.4174
C3 C 0.2947(2) 0.3645(2) 0.52367(17)
C4 C 0.3908(2) 0.37811(17) 0.60358(15)
C5 C 0.3947(2) 0.48400(17) 0.62545(15)
H2 H 0.4582 0.4929 0.6780
C6 C 0.3059(2) 0.57953(17) 0.57108(14)
C7 C 0.3139(2) 0.69346(18) 0.59007(15)
C8 C 0.4286(2) 0.80948(16) 0.69090(14)
C9 C 0.4747(3) 0.99538(18) 0.68846(16)
H3 H 0.4847 1.0699 0.6774
C10 C 0.5316(2) 0.92267(16) 0.77113(15)
C11 C 0.6150(2) 0.95029(17) 0.85823(16)
C12 C 0.7108(2) 0.89292(18) 1.03291(15)
H4 H 0.6749 0.8482 1.0923
H5 H 0.6760 0.9712 1.0440
C13 C 0.8842(2) 0.86603(16) 1.02999(16)
H6 H 0.9201 0.8973 0.9631
H7 H 0.9210 0.9021 1.0842
C14 C 1.0791(3) 0.70760(19) 0.96431(17)
H8 H 1.1194 0.6270 0.9806
C15 C 1.2113(3) 0.7662(3) 0.9715(2)
H9 H 1.2488 0.7524 1.0415
H10 H 1.2924 0.7379 0.9238
H11 H 1.1768 0.8454 0.9535
C16 C 1.0117(3) 0.7244(2) 0.85603(17)
H12 H 0.9286 0.6854 0.8566
H13 H 0.9741 0.8030 0.8364
H14 H 1.0896 0.6954 0.8066
C17 C 1.0041(2) 0.70408(18) 1.15769(15)
H15 H 1.0871 0.7414 1.1719
C18 C 1.0642(4) 0.5785(2) 1.1720(2)
H16 H 1.1475 0.5588 1.1232
H17 H 1.0998 0.5562 1.2421
H18 H 0.9833 0.5408 1.1598
C19 C 0.8727(3) 0.7364(2) 1.23400(16)
H19 H 0.8355 0.8162 1.2243
H20 H 0.7914 0.6992 1.2220
H21 H 0.9079 0.7145 1.3042
C20 C 0.2061(3) 0.2375(3) 0.4255(2)
H22 H 0.2188 0.1583 0.4219
H23 H 0.1001 0.2689 0.4397
H24 H 0.2377 0.2726 0.3599
C21 C 0.5695(3) 0.29332(19) 0.73456(19)
H25 H 0.6232 0.2205 0.7630
H26 H 0.6425 0.3378 0.7079
H27 H 0.5069 0.3295 0.7885
H28 H 0.426(2) 0.6569(18) 0.7143(16)
H29 H 0.875(2) 0.7013(18) 1.0373(15)
H30 H 0.615(2) 0.8178(18) 0.9380(16)
H31 H 0.147(3) 0.714(2) 0.454(2)
Cl1 Cl 0.30481(7) 0.39404(5) 0.97800(4)
O6 O 0.5015(3) 0.44855(16) 1.15786(13)
H32 H 0.453(3) 0.428(2) 1.125(2)
H33 H 0.559(3) 0.496(3) 1.120(2)
O7 O 0.0561(3) 0.9641(2) 0.2239(2)
C22 C 0.0533(4) 0.9698(3) 0.3320(3)
H34 H 0.1557 0.9459 0.3579
H35 H -0.0109 0.9219 0.3658
H36 H 0.0132 1.0457 0.3463
H37 H 0.167(7) 0.956(5) 0.193(4)
loop_
_geom_bond_atom_site_label_1
_geom_bond_atom_site_label_2
_geom_bond_site_symmetry_1
_geom_bond_site_symmetry_2
S1 C8 1_555 1_555
O1 C1 1_555 1_555
O2 C3 1_555 1_555
O3 C4 1_555 1_555
O4 C7 1_555 1_555
O5 C11 1_555 1_555
N1 C7 1_555 1_555
N2 C8 1_555 1_555
N3 C11 1_555 1_555
N4 C13 1_555 1_555
C1 C2 1_555 1_555
C2 H1 1_555 1_555
C3 C2 1_555 1_555
C4 C3 1_555 1_555
C5 C4 1_555 1_555
H2 C5 1_555 1_555
C6 C1 1_555 1_555
C7 C6 1_555 1_555
C8 N1 1_555 1_555
C9 S1 1_555 1_555
H3 C9 1_555 1_555
C10 N2 1_555 1_555
C11 C10 1_555 1_555
C12 N3 1_555 1_555
H4 C12 1_555 1_555
H5 C12 1_555 1_555
C13 C12 1_555 1_555
H6 C13 1_555 1_555
H7 C13 1_555 1_555
C14 N4 1_555 1_555
H8 C14 1_555 1_555
C15 C14 1_555 1_555
H9 C15 1_555 1_555
H10 C15 1_555 1_555
H11 C15 1_555 1_555
C16 C14 1_555 1_555
H12 C16 1_555 1_555
H13 C16 1_555 1_555
H14 C16 1_555 1_555
C17 N4 1_555 1_555
H15 C17 1_555 1_555
C18 C17 1_555 1_555
H16 C18 1_555 1_555
H17 C18 1_555 1_555
H18 C18 1_555 1_555
C19 C17 1_555 1_555
H19 C19 1_555 1_555
H20 C19 1_555 1_555
H21 C19 1_555 1_555
C20 O2 1_555 1_555
H22 C20 1_555 1_555
H23 C20 1_555 1_555
H24 C20 1_555 1_555
C21 O3 1_555 1_555
H25 C21 1_555 1_555
H26 C21 1_555 1_555
H27 C21 1_555 1_555
H28 N1 1_555 1_555
H29 N4 1_555 1_555
H30 N3 1_555 1_555
H31 O1 1_555 1_555
O6 H32 1_555 1_555
H33 O6 1_555 1_555
O7 C22 1_555 1_555
C22 H34 1_555 1_555
H35 C22 1_555 1_555
H36 C22 1_555 1_555
H37 O7 1_555 1_555
C5 C6 1_555 1_555
C9 C10 1_555 1_555

#END
