
#######################################################################
#
#                 Cambridge Crystallographic Data Centre
#                                CCDC 
#
#######################################################################
#
# If this CIF has been generated from an entry in the Cambridge 
# Structural Database, then it will include bibliographic, chemical, 
# crystal, experimental, refinement or atomic coordinate data resulting 
# from the CCDC's data processing and validation procedures.
#
#######################################################################

data_FIZPOW
_chemical_name_common            'acotiamide hydrochloride propan-1-ol solvate'
_chemical_formula_moiety         'C21 H31 N4 O5 S1 1+,C3 H8 O1,Cl1 1-'
_chemical_name_systematic        
'N-[2-({2-[(2-hydroxy-4,5-dimethoxybenzene-1-carbonyl)amino]-1,3-thiazole-4-carbonyl}amino)ethyl]-N-(propan-2-yl)propan-2-aminium chloride propan-1-ol solvate'
_chemical_properties_biological  
'treatment of postprandial fullness, abdominal distention, and early satiety caused by functional dyspepsia'
_symmetry_cell_setting           monoclinic
_symmetry_space_group_name_H-M   'P 21/n'
_symmetry_Int_Tables_number      14
_space_group_name_Hall           '-P 2yn'
loop_
_symmetry_equiv_pos_site_id
_symmetry_equiv_pos_as_xyz
1 x,y,z
2 1/2-x,1/2+y,1/2-z
3 -x,-y,-z
4 1/2+x,1/2-y,1/2+z
_cell_length_a                   14.277
_cell_length_b                   12.127
_cell_length_c                   17.497
_cell_angle_alpha                90
_cell_angle_beta                 110.62
_cell_angle_gamma                90
_cell_volume                     2835.31
_exptl_crystal_colour            colorless
_exptl_crystal_description       Prism
_cell_formula_units_Z            4
loop_
_atom_site_label
_atom_site_type_symbol
_atom_site_fract_x
_atom_site_fract_y
_atom_site_fract_z
S1 S 0.17911(4) 0.05346(4) 0.11693(4)
O1 O -0.05449(12) 0.40559(17) 0.08828(13)
O2 O 0.08320(13) 0.76868(13) 0.12449(12)
O3 O 0.26197(12) 0.69504(12) 0.16773(12)
O4 O 0.06970(11) 0.24280(13) 0.10960(11)
O5 O 0.48082(12) -0.12106(12) 0.17283(12)
N1 N 0.23373(14) 0.27345(14) 0.13821(12)
N2 N 0.35562(12) 0.13767(13) 0.16314(11)
N3 N 0.54270(14) 0.04849(16) 0.21242(12)
N4 N 0.70816(13) 0.12516(14) 0.14211(11)
C1 C 0.02712(15) 0.47120(18) 0.10702(13)
C2 C 0.01112(16) 0.58465(19) 0.10567(14)
H1 H -0.0537 0.6117 0.0917
C3 C 0.08970(16) 0.65670(18) 0.12461(13)
C4 C 0.18851(15) 0.61625(17) 0.14699(13)
C5 C 0.20413(15) 0.50546(17) 0.14732(13)
H2 H 0.2692 0.4791 0.1616
C6 C 0.12396(15) 0.42963(17) 0.12652(12)
C7 C 0.13927(16) 0.31069(17) 0.12432(13)
C8 C 0.26196(15) 0.16366(16) 0.14181(13)
C9 C 0.27956(16) -0.03345(17) 0.13712(14)
H3 H 0.2753 -0.1099 0.1328
C10 C 0.36582(15) 0.02469(16) 0.16028(12)
C11 C 0.46746(16) -0.02267(16) 0.18263(13)
C12 C 0.64605(16) 0.01446(19) 0.23797(14)
H4 H 0.6520 -0.0586 0.2617
H5 H 0.6860 0.0643 0.2803
C13 C 0.68871(15) 0.01217(16) 0.16996(14)
H6 H 0.7510 -0.0288 0.1885
H7 H 0.6425 -0.0269 0.1236
C14 C 0.6537(2) 0.1419(2) 0.05080(14)
H8 H 0.6704 0.0804 0.0216
C15 C 0.5412(2) 0.1411(2) 0.03241(16)
H9 H 0.5225 0.0732 0.0514
H10 H 0.5234 0.2019 0.0596
H11 H 0.5067 0.1475 -0.0254
C16 C 0.6843(3) 0.2485(3) 0.0211(2)
H12 H 0.7553 0.2483 0.0330
H13 H 0.6502 0.2553 -0.0367
H14 H 0.6669 0.3097 0.0483
C17 C 0.81944(17) 0.15266(18) 0.17289(16)
H15 H 0.8260 0.2288 0.1566
C18 C 0.86189(18) 0.1486(2) 0.26510(17)
H16 H 0.8237 0.1962 0.2869
H17 H 0.8586 0.0744 0.2831
H18 H 0.9303 0.1725 0.2839
C19 C 0.8756(2) 0.0793(3) 0.1330(2)
H19 H 0.8455 0.0852 0.0747
H20 H 0.9442 0.1023 0.1500
H21 H 0.8724 0.0041 0.1492
C20 C -0.0141(2) 0.8156(2) 0.1055(2)
H22 H -0.0089 0.8945 0.1074
H23 H -0.0560 0.7929 0.0518
H24 H -0.0427 0.7909 0.1446
C21 C 0.36194(16) 0.65717(19) 0.19370(16)
H25 H 0.4066 0.7192 0.2065
H26 H 0.3752 0.6119 0.2413
H27 H 0.3719 0.6148 0.1508
H28 H 0.6839(17) 0.173(2) 0.1645(14)
H29 H 0.2792(18) 0.3152(19) 0.1409(14)
H30 H 0.5313(19) 0.107(2) 0.2165(15)
H31 H -0.033(3) 0.341(3) 0.090(2)
Cl1 Cl 0.62321(4) 0.31258(5) 0.22088(4)
O6 O 0.40311(13) 0.39227(15) 0.12287(11)
C22 C 0.2948(3) 0.3046(4) -0.0452(2)
H32 H 0.2343 0.3023 -0.0922
H33 H 0.3482 0.2713 -0.0583
H34 H 0.2851 0.2650 -0.0010
C23 C 0.3206(3) 0.4210(3) -0.0206(2)
H35 H 0.3278 0.4602 -0.0665
H36 H 0.2649 0.4540 -0.0094
C24 C 0.4117(2) 0.4385(2) 0.05070(18)
H37 H 0.4681 0.4052 0.0408
H38 H 0.4245 0.5170 0.0586
H39 H 0.460(3) 0.368(3) 0.154(2)
loop_
_geom_bond_atom_site_label_1
_geom_bond_atom_site_label_2
_geom_bond_site_symmetry_1
_geom_bond_site_symmetry_2
S1 C8 1_555 1_555
O1 C1 1_555 1_555
O2 C3 1_555 1_555
O3 C4 1_555 1_555
O4 C7 1_555 1_555
O5 C11 1_555 1_555
N1 C7 1_555 1_555
N2 C8 1_555 1_555
N3 C11 1_555 1_555
N4 C13 1_555 1_555
C1 C2 1_555 1_555
C2 H1 1_555 1_555
C3 C2 1_555 1_555
C4 C3 1_555 1_555
C5 C4 1_555 1_555
H2 C5 1_555 1_555
C6 C1 1_555 1_555
C7 C6 1_555 1_555
C8 N1 1_555 1_555
C9 S1 1_555 1_555
H3 C9 1_555 1_555
C10 N2 1_555 1_555
C11 C10 1_555 1_555
C12 N3 1_555 1_555
H4 C12 1_555 1_555
H5 C12 1_555 1_555
C13 C12 1_555 1_555
H6 C13 1_555 1_555
H7 C13 1_555 1_555
C14 N4 1_555 1_555
H8 C14 1_555 1_555
C15 C14 1_555 1_555
H9 C15 1_555 1_555
H10 C15 1_555 1_555
H11 C15 1_555 1_555
C16 C14 1_555 1_555
H12 C16 1_555 1_555
H13 C16 1_555 1_555
H14 C16 1_555 1_555
C17 N4 1_555 1_555
H15 C17 1_555 1_555
C18 C17 1_555 1_555
H16 C18 1_555 1_555
H17 C18 1_555 1_555
H18 C18 1_555 1_555
C19 C17 1_555 1_555
H19 C19 1_555 1_555
H20 C19 1_555 1_555
H21 C19 1_555 1_555
C20 O2 1_555 1_555
H22 C20 1_555 1_555
H23 C20 1_555 1_555
H24 C20 1_555 1_555
C21 O3 1_555 1_555
H25 C21 1_555 1_555
H26 C21 1_555 1_555
H27 C21 1_555 1_555
H28 N4 1_555 1_555
H29 N1 1_555 1_555
H30 N3 1_555 1_555
H31 O1 1_555 1_555
O6 C24 1_555 1_555
C22 H32 1_555 1_555
H33 C22 1_555 1_555
H34 C22 1_555 1_555
C23 C22 1_555 1_555
H35 C23 1_555 1_555
H36 C23 1_555 1_555
C24 C23 1_555 1_555
H37 C24 1_555 1_555
H38 C24 1_555 1_555
H39 O6 1_555 1_555
C5 C6 1_555 1_555
C9 C10 1_555 1_555

#END
