
#######################################################################
#
#                 Cambridge Crystallographic Data Centre
#                                CCDC 
#
#######################################################################
#
# If this CIF has been generated from an entry in the Cambridge 
# Structural Database, then it will include bibliographic, chemical, 
# crystal, experimental, refinement or atomic coordinate data resulting 
# from the CCDC's data processing and validation procedures.
#
#######################################################################

data_FIZQOX
_chemical_formula_moiety         'C24 H29 N1 O5'
_chemical_name_systematic        
4-methoxy-9-(3,4,5-trimethoxyphenyl)-1,2,3,4-tetrahydro-9H-9a,4a-(epoxyethano)carbazole
_symmetry_cell_setting           monoclinic
_symmetry_space_group_name_H-M   'P 21'
_symmetry_Int_Tables_number      4
_space_group_name_Hall           'P 2yb'
loop_
_symmetry_equiv_pos_site_id
_symmetry_equiv_pos_as_xyz
1 x,y,z
2 -x,1/2+y,-z
_cell_length_a                   8.201(3)
_cell_length_b                   8.359(4)
_cell_length_c                   15.890(4)
_cell_angle_alpha                90
_cell_angle_beta                 102.628(12)
_cell_angle_gamma                90
_cell_volume                     1062.94
_exptl_crystal_colour            colorless
_exptl_crystal_description       block
_cell_formula_units_Z            2
loop_
_atom_site_label
_atom_site_type_symbol
_atom_site_fract_x
_atom_site_fract_y
_atom_site_fract_z
O1 O -0.0191(3) 0.8146(3) 0.68082(17)
O2 O 0.6405(3) 0.0484(3) 0.92204(16)
O3 O 0.5965(3) 0.3396(3) 0.66783(15)
O4 O 0.4209(3) 0.8875(3) 0.54165(17)
O5 O 0.1162(3) 0.9671(3) 0.56565(15)
N1 N 0.4722(4) 0.4815(3) 0.76810(19)
C1 C 0.1364(4) 0.7664(4) 0.6744(2)
C2 C 0.4540(5) 0.6813(4) 0.6528(2)
H1 H 0.5616 0.6513 0.6452
C3 C 0.6144(4) 0.2365(4) 0.8080(2)
C4 C 0.2048(4) 0.8437(4) 0.6127(2)
C5 C 0.6142(4) 0.5170(4) 0.8318(2)
C6 C 0.3833(4) 0.6057(4) 0.7138(2)
C7 C 0.6631(4) 0.6623(4) 0.8711(2)
H2 H 0.6011 0.7571 0.8537
C8 C 0.3639(5) 0.8025(4) 0.6027(2)
C9 C 0.4979(4) 0.3238(4) 0.7321(2)
C10 C 0.2496(5) 0.1687(4) 0.7600(3)
H3 H 0.1481 0.1098 0.7309
H4 H 0.2151 0.2558 0.7946
C11 C 0.8462(5) 0.3816(5) 0.9227(3)
H5 H 0.9078 0.2866 0.9403
C12 C 0.7198(5) 0.1324(4) 0.7624(2)
H6 H 0.6610 0.0320 0.7410
H7 H 0.8287 0.1060 0.8008
C13 C 0.7060(4) 0.3771(4) 0.8574(2)
C14 C 0.5199(4) 0.1471(4) 0.8668(2)
H8 H 0.4798 0.2284 0.9038
C15 C 0.5857(4) 0.8517(5) 0.5302(2)
H9 H 0.5899 0.7405 0.5114
H10 H 0.6665 0.8671 0.5850
H11 H 0.6134 0.9232 0.4865
C16 C 0.2267(4) 0.6460(4) 0.7257(2)
H12 H 0.1808 0.5929 0.7681
C17 C 0.6075(6) 0.0306(5) 1.0058(3)
H13 H 0.4954 -0.0143 1.0009
H14 H 0.6138 0.1353 1.0341
H15 H 0.6904 -0.0415 1.0401
C18 C 0.8977(5) 0.5270(5) 0.9633(3)
H16 H 0.9948 0.5319 1.0085
C19 C 0.7422(5) 0.2393(5) 0.6880(3)
H17 H 0.8444 0.3051 0.7053
H18 H 0.7516 0.1738 0.6374
C20 C 0.3690(5) 0.0551(4) 0.8191(3)
H19 H 0.3112 0.0051 0.8609
H20 H 0.4050 -0.0309 0.7844
C21 C 0.3355(5) 0.2392(4) 0.6930(2)
H21 H 0.3586 0.1524 0.6549
H22 H 0.2588 0.3162 0.6569
C22 C -0.0863(5) 0.7441(5) 0.7477(3)
H23 H -0.0119 0.7660 0.8037
H24 H -0.0963 0.6282 0.7386
H25 H -0.1969 0.7895 0.7466
C23 C 0.8052(5) 0.6649(4) 0.9367(3)
H26 H 0.8408 0.7635 0.9644
C24 C 0.0265(6) 0.9209(5) 0.4823(3)
H27 H -0.0443 0.8285 0.4873
H28 H 0.1056 0.8923 0.4465
H29 H -0.0436 1.0100 0.4554
loop_
_geom_bond_atom_site_label_1
_geom_bond_atom_site_label_2
_geom_bond_site_symmetry_1
_geom_bond_site_symmetry_2
O1 C1 1_555 1_555
O2 C14 1_555 1_555
O3 C9 1_555 1_555
O4 C8 1_555 1_555
O5 C4 1_555 1_555
N1 C5 1_555 1_555
C1 C4 1_555 1_555
C2 H1 1_555 1_555
C3 C9 1_555 1_555
C4 C8 1_555 1_555
C5 C7 1_555 1_555
C6 N1 1_555 1_555
C7 H2 1_555 1_555
C8 C2 1_555 1_555
C9 N1 1_555 1_555
C10 H3 1_555 1_555
H4 C10 1_555 1_555
C11 H5 1_555 1_555
C12 C3 1_555 1_555
H6 C12 1_555 1_555
H7 C12 1_555 1_555
C13 C3 1_555 1_555
C14 C3 1_555 1_555
H8 C14 1_555 1_555
C15 O4 1_555 1_555
H9 C15 1_555 1_555
H10 C15 1_555 1_555
H11 C15 1_555 1_555
C16 C1 1_555 1_555
H12 C16 1_555 1_555
C17 O2 1_555 1_555
H13 C17 1_555 1_555
H14 C17 1_555 1_555
H15 C17 1_555 1_555
C18 C11 1_555 1_555
H16 C18 1_555 1_555
C19 O3 1_555 1_555
H17 C19 1_555 1_555
H18 C19 1_555 1_555
C20 C10 1_555 1_555
H19 C20 1_555 1_555
H20 C20 1_555 1_555
C21 C9 1_555 1_555
H21 C21 1_555 1_555
H22 C21 1_555 1_555
C22 O1 1_555 1_555
H23 C22 1_555 1_555
H24 C22 1_555 1_555
H25 C22 1_555 1_555
C23 C7 1_555 1_555
H26 C23 1_555 1_555
C24 O5 1_555 1_555
H27 C24 1_555 1_555
H28 C24 1_555 1_555
H29 C24 1_555 1_555
C2 C6 1_555 1_555
C5 C13 1_555 1_555
C6 C16 1_555 1_555
C10 C21 1_555 1_555
C11 C13 1_555 1_555
C12 C19 1_555 1_555
C14 C20 1_555 1_555
C18 C23 1_555 1_555

#END
