
#######################################################################
#
#                 Cambridge Crystallographic Data Centre
#                                CCDC 
#
#######################################################################
#
# If this CIF has been generated from an entry in the Cambridge 
# Structural Database, then it will include bibliographic, chemical, 
# crystal, experimental, refinement or atomic coordinate data resulting 
# from the CCDC's data processing and validation procedures.
#
#######################################################################

data_FLUBIP01
_chemical_name_common            Flurbiprofen
_chemical_formula_moiety         'C15 H13 F1 O2'
_chemical_name_systematic        "2-(2-Fluoro-1,1'-biphenyl-4-yl)propionic acid"
_chemical_properties_biological  'antiinflammatory agent'
_symmetry_cell_setting           triclinic
_symmetry_space_group_name_H-M   'P -1'
_symmetry_Int_Tables_number      2
_space_group_name_Hall           '-P 1'
loop_
_symmetry_equiv_pos_site_id
_symmetry_equiv_pos_as_xyz
1 x,y,z
2 -x,-y,-z
_cell_length_a                   5.703(1)
_cell_length_b                   9.188(2)
_cell_length_c                   12.654(3)
_cell_angle_alpha                73.25(1)
_cell_angle_beta                 83.12(1)
_cell_angle_gamma                73.25(1)
_cell_volume                     607.499
_exptl_crystal_colour            colorless
_exptl_crystal_description       plate
_cell_formula_units_Z            2
loop_
_atom_site_label
_atom_site_type_symbol
_atom_site_fract_x
_atom_site_fract_y
_atom_site_fract_z
F1 F 0.7695(2) 0.12493(16) 0.54523(12)
O1 O 0.7229(3) 0.3190(2) 0.06822(16)
H1 H 0.706(8) 0.428(6) 0.013(4)
O2 O 0.3167(3) 0.3977(2) 0.06940(14)
C1 C 0.4541(4) 0.1848(3) 0.30043(19)
C2 C 0.6385(4) 0.1396(3) 0.37406(19)
H2 H 0.804(5) 0.083(3) 0.356(2)
C3 C 0.5865(4) 0.1772(3) 0.47310(19)
C4 C 0.3572(4) 0.2602(2) 0.50507(18)
C5 C 0.1756(4) 0.3054(3) 0.42910(19)
H3 H 0.0454 0.3356 0.4437
C6 C 0.2209(5) 0.2690(3) 0.3287(2)
H4 H 0.095(5) 0.301(3) 0.283(2)
C7 C 0.5104(5) 0.1458(3) 0.1892(2)
H5 H 0.677(5) 0.078(3) 0.184(2)
C8 C 0.5059(5) 0.3001(3) 0.10204(19)
C9 C 0.3283(5) 0.0676(3) 0.1636(2)
H6 H 0.388(5) 0.038(3) 0.092(2)
H7 H 0.328(5) -0.037(4) 0.224(3)
H8 H 0.151(6) 0.142(4) 0.156(2)
C10 C 0.3078(4) 0.2958(2) 0.61406(19)
C11 C 0.4514(4) 0.3708(3) 0.6494(2)
H9 H 0.589(5) 0.398(3) 0.608(2)
C12 C 0.4007(5) 0.4047(3) 0.7510(2)
H10 H 0.502(5) 0.455(3) 0.775(2)
C13 C 0.2098(5) 0.3620(3) 0.8187(2)
H11 H 0.177(5) 0.383(3) 0.880(2)
C14 C 0.0664(5) 0.2862(3) 0.7849(2)
H12 H -0.073(6) 0.258(3) 0.832(3)
C15 C 0.1132(4) 0.2547(3) 0.6829(2)
H13 H 0.019(4) 0.204(3) 0.659(2)
F2? F -0.035(4) 0.380(2) 0.4560(17)
C16? C 0.372(9) 0.181(5) 0.178(3)
H14? H 0.1947 0.1959 0.1668
C17? C 0.550(6) 0.045(4) 0.155(3)
H15? H 0.5019 -0.0510 0.1961
H16? H 0.7111 0.0395 0.1775
H17? H 0.5567 0.0538 0.0756
loop_
_geom_bond_atom_site_label_1
_geom_bond_atom_site_label_2
_geom_bond_site_symmetry_1
_geom_bond_site_symmetry_2
F1 C3 1_555 1_555
O1 H1 1_555 1_555
O2 C8 1_555 1_555
C1 C2 1_555 1_555
C2 H2 1_555 1_555
C3 C2 1_555 1_555
C4 C3 1_555 1_555
C5 C4 1_555 1_555
H3 C5 1_555 1_555
C6 C1 1_555 1_555
H4 C6 1_555 1_555
C7 C1 1_555 1_555
H5 C7 1_555 1_555
C8 O1 1_555 1_555
C9 C7 1_555 1_555
H6 C9 1_555 1_555
H7 C9 1_555 1_555
H8 C9 1_555 1_555
C10 C4 1_555 1_555
C11 C10 1_555 1_555
H9 C11 1_555 1_555
C12 C11 1_555 1_555
H10 C12 1_555 1_555
C13 C12 1_555 1_555
H11 C13 1_555 1_555
C14 C13 1_555 1_555
H12 C14 1_555 1_555
C15 C10 1_555 1_555
H13 C15 1_555 1_555
C5 C6 1_555 1_555
C7 C8 1_555 1_555
C14 C15 1_555 1_555

#END
