
#######################################################################
#
#                 Cambridge Crystallographic Data Centre
#                                CCDC 
#
#######################################################################
#
# If this CIF has been generated from an entry in the Cambridge 
# Structural Database, then it will include bibliographic, chemical, 
# crystal, experimental, refinement or atomic coordinate data resulting 
# from the CCDC's data processing and validation procedures.
#
#######################################################################

data_FMSTLB01
_chemical_formula_moiety         'C15 H11 F3'
_chemical_name_systematic        
1,1'-(3,3,3-trifluoroprop-1-ene-1,2-diyl)dibenzene
_symmetry_cell_setting           orthorhombic
_symmetry_space_group_name_H-M   'P n a 21'
_symmetry_Int_Tables_number      33
_space_group_name_Hall           'P 2c -2n'
loop_
_symmetry_equiv_pos_site_id
_symmetry_equiv_pos_as_xyz
1 x,y,z
2 -x,-y,1/2+z
3 1/2-x,1/2+y,1/2+z
4 1/2+x,1/2-y,z
_cell_length_a                   14.2815(9)
_cell_length_b                   14.4592(11)
_cell_length_c                   5.7505(5)
_cell_angle_alpha                90
_cell_angle_beta                 90
_cell_angle_gamma                90
_cell_volume                     1187.47
_cell_formula_units_Z            4
loop_
_atom_site_label
_atom_site_type_symbol
_atom_site_fract_x
_atom_site_fract_y
_atom_site_fract_z
C1 C 0.65424(13) 0.76604(13) 0.1957(4)
C2 C 0.71747(13) 0.79485(14) 0.3647(4)
H1 H 0.7229 0.7612 0.5059
C3 C 0.77270(13) 0.87262(15) 0.3281(4)
H2 H 0.8155 0.8923 0.4445
C4 C 0.76523(13) 0.92153(15) 0.1213(4)
H3 H 0.8023 0.9752 0.0966
C5 C 0.70347(14) 0.89192(14) -0.0491(4)
H4 H 0.6993 0.9246 -0.1921
C6 C 0.64785(13) 0.81495(14) -0.0119(4)
H5 H 0.6051 0.7954 -0.1286
C7 C 0.59302(13) 0.68411(14) 0.2431(4)
C8 C 0.62280(15) 0.59834(15) 0.1179(5)
C9 C 0.52117(13) 0.68023(14) 0.3893(4)
H6 H 0.4928 0.6212 0.4062
C10 C 0.47941(13) 0.75543(14) 0.5294(4)
C11 C 0.48589(13) 0.84903(14) 0.4696(4)
H7 H 0.5183 0.8671 0.3327
C12 C 0.44476(14) 0.91542(16) 0.6116(5)
H8 H 0.4498 0.9789 0.5710
C13 C 0.39688(15) 0.89073(16) 0.8101(5)
H9 H 0.3691 0.9368 0.9055
C14 C 0.38946(13) 0.79792(15) 0.8698(5)
H10 H 0.3568 0.7802 1.0067
C15 C 0.42976(13) 0.73141(15) 0.7290(4)
H11 H 0.4235 0.6680 0.7693
F1 F 0.71136(8) 0.57471(8) 0.1703(3)
F2 F 0.62061(10) 0.60768(9) -0.1142(3)
F3 F 0.57058(9) 0.52367(8) 0.1672(3)
loop_
_geom_bond_atom_site_label_1
_geom_bond_atom_site_label_2
_geom_bond_site_symmetry_1
_geom_bond_site_symmetry_2
C1 C2 1_555 1_555
C2 H1 1_555 1_555
C3 C2 1_555 1_555
H2 C3 1_555 1_555
C4 C3 1_555 1_555
H3 C4 1_555 1_555
C5 C4 1_555 1_555
H4 C5 1_555 1_555
C6 C1 1_555 1_555
H5 C6 1_555 1_555
C7 C1 1_555 1_555
C8 C7 1_555 1_555
C9 C7 1_555 1_555
H6 C9 1_555 1_555
C10 C9 1_555 1_555
C11 C10 1_555 1_555
H7 C11 1_555 1_555
C12 C11 1_555 1_555
H8 C12 1_555 1_555
C13 C12 1_555 1_555
H9 C13 1_555 1_555
C14 C13 1_555 1_555
H10 C14 1_555 1_555
C15 C10 1_555 1_555
H11 C15 1_555 1_555
F1 C8 1_555 1_555
F2 C8 1_555 1_555
F3 C8 1_555 1_555
C5 C6 1_555 1_555
C14 C15 1_555 1_555

#END
