
#######################################################################
#
#                 Cambridge Crystallographic Data Centre
#                                CCDC 
#
#######################################################################
#
# If this CIF has been generated from an entry in the Cambridge 
# Structural Database, then it will include bibliographic, chemical, 
# crystal, experimental, refinement or atomic coordinate data resulting 
# from the CCDC's data processing and validation procedures.
#
#######################################################################

data_FMZPHS
_chemical_formula_moiety         'C4 H10 F1 N2 P1 S1'
_chemical_name_systematic        
2-Fluoro-1,3-dimethyl-1,3,2-diazaphospholidine-2-sulfide
_symmetry_cell_setting           monoclinic
_symmetry_space_group_name_H-M   'P 21/c'
_symmetry_Int_Tables_number      14
_space_group_name_Hall           '-P 2ybc'
loop_
_symmetry_equiv_pos_site_id
_symmetry_equiv_pos_as_xyz
1 x,y,z
2 -x,1/2+y,1/2-z
3 -x,-y,-z
4 x,1/2-y,1/2+z
_cell_length_a                   10.213(6)
_cell_length_b                   6.418(3)
_cell_length_c                   12.829(6)
_cell_angle_alpha                90
_cell_angle_beta                 103.66(6)
_cell_angle_gamma                90
_cell_volume                     817.117
_exptl_crystal_colour            colorless
_chemical_melting_point          '40 deg.C'
_cell_formula_units_Z            4
loop_
_atom_site_label
_atom_site_type_symbol
_atom_site_fract_x
_atom_site_fract_y
_atom_site_fract_z
P1 P 0.73890 -0.01910 0.18360
S1 S 0.79560 -0.10350 0.05920
F1 F 0.63340 -0.18300 0.21070
N1 N 0.84710 0.00480 0.29690
N2 N 0.66810 0.20180 0.19050
C1 C 0.95020 -0.14500 0.34070
C2 C 0.57390 0.29910 0.10400
C3 C 0.81180 0.16680 0.36260
C4 C 0.71090 0.30360 0.29180
H1 H 0.96230 -0.24770 0.28420
H2 H 1.03950 -0.07430 0.37020
H3 H 0.92650 -0.22680 0.40130
H4 H 0.55250 0.20780 0.03790
H5 H 0.48570 0.33250 0.12360
H6 H 0.60170 0.43600 0.08250
H7 H 0.89480 0.24850 0.40060
H8 H 0.77140 0.10530 0.42170
H9 H 0.63290 0.33650 0.32550
H10 H 0.75500 0.44600 0.28300
loop_
_geom_bond_atom_site_label_1
_geom_bond_atom_site_label_2
_geom_bond_site_symmetry_1
_geom_bond_site_symmetry_2
P1 S1 1_555 1_555
F1 P1 1_555 1_555
N1 P1 1_555 1_555
N2 P1 1_555 1_555
C1 N1 1_555 1_555
C2 N2 1_555 1_555
C3 N1 1_555 1_555
C4 N2 1_555 1_555
H1 C1 1_555 1_555
H2 C1 1_555 1_555
H3 C1 1_555 1_555
H4 C2 1_555 1_555
H5 C2 1_555 1_555
H6 C2 1_555 1_555
H7 C3 1_555 1_555
H8 C3 1_555 1_555
H9 C4 1_555 1_555
H10 C4 1_555 1_555
C3 C4 1_555 1_555

#END
