
#######################################################################
#
#                 Cambridge Crystallographic Data Centre
#                                CCDC 
#
#######################################################################
#
# If this CIF has been generated from an entry in the Cambridge 
# Structural Database, then it will include bibliographic, chemical, 
# crystal, experimental, refinement or atomic coordinate data resulting 
# from the CCDC's data processing and validation procedures.
#
#######################################################################

data_FOBBIK
_chemical_compound_source        'cultures of Penicillium sp. sh18.'
_chemical_name_common            'Isopenicin A'
_chemical_formula_moiety         'C44 H58 O11'
_chemical_name_systematic        
'methyl 3-(acetyloxy)-16-{1-[5-(hexa-1,3-dien-1-yl)-3-(methoxycarbonyl)-5-methyl-4-oxo-4,5-dihydrofuran-2-yl]propan-2-yl}-4,4,8,12,16-pentamethyl-15,17,19-trioxoandrost-11-ene-14-carboxylate'
_symmetry_cell_setting           orthorhombic
_symmetry_space_group_name_H-M   'P 21 21 21'
_symmetry_Int_Tables_number      19
_space_group_name_Hall           'P 2ac 2ab'
loop_
_symmetry_equiv_pos_site_id
_symmetry_equiv_pos_as_xyz
1 x,y,z
2 1/2+x,1/2-y,-z
3 -x,1/2+y,1/2-z
4 1/2-x,-y,1/2+z
_cell_length_a                   12.9100(3)
_cell_length_b                   12.9258(3)
_cell_length_c                   24.2560(5)
_cell_angle_alpha                90
_cell_angle_beta                 90
_cell_angle_gamma                90
_cell_volume                     4047.65
_exptl_crystal_colour            colorless
_exptl_crystal_description       prism
_cell_formula_units_Z            4
loop_
_atom_site_label
_atom_site_type_symbol
_atom_site_fract_x
_atom_site_fract_y
_atom_site_fract_z
O1 O 0.48681(11) 0.45181(12) 0.91059(6)
O2 O 0.47686(15) 0.76365(15) 0.82608(7)
O3 O 0.3197(2) 0.8311(2) 0.84212(16)
O4 O 0.24948(12) 0.31906(13) 0.92404(7)
O5 O 0.31643(12) 0.18087(12) 0.83346(6)
O6 O 0.48676(13) 0.15022(12) 0.83643(7)
O7 O 0.90328(13) 0.27592(12) 0.96605(7)
O8 O 1.01472(12) 0.38682(12) 0.84793(7)
O9 O 1.07171(12) 0.55047(13) 0.84246(7)
O10 O 0.71898(14) 0.81833(14) 0.99942(7)
O11 O 0.79502(12) 0.45519(13) 0.81099(6)
C1 C 0.5044(4) 0.4866(4) 1.2025(2)
H1 H 0.4300 0.4967 1.1967
H2 H 0.5206 0.4951 1.2417
H3 H 0.5240 0.4168 1.1906
C2 C 0.5651(3) 0.5670(3) 1.16865(14)
H4 H 0.5424 0.6371 1.1798
H5 H 0.6397 0.5606 1.1776
C3 C 0.5518(3) 0.5561(4) 1.10749(15)
H6 H 0.6000 0.5916 1.0847
C4 C 0.4790(5) 0.5017(7) 1.0826(3)
H7 H 0.4299 0.4681 1.1057
C5 C 0.4665(2) 0.4879(2) 1.02290(11)
H8 H 0.5269 0.5022 1.0019
C6 C 0.38563(18) 0.45903(18) 0.99363(10)
H9 H 0.3247 0.4408 1.0134
C7 C 0.38098(17) 0.45234(18) 0.93230(9)
C8 C 0.50207(17) 0.36253(16) 0.88321(8)
C9 C 0.60924(16) 0.34927(18) 0.86231(9)
H10 H 0.6267 0.4068 0.8370
H11 H 0.6145 0.2836 0.8415
C10 C 0.68614(16) 0.34799(16) 0.91120(9)
H12 H 0.6785 0.4151 0.9313
C11 C 0.80114(16) 0.34131(16) 0.88972(9)
C12 C 0.82729(15) 0.43819(16) 0.85676(8)
C13 C 0.90599(16) 0.51009(16) 0.88775(8)
C14 C 0.87445(16) 0.62748(16) 0.88864(8)
C15 C 0.76409(15) 0.62771(15) 0.91485(8)
H13 H 0.7230 0.5771 0.8926
C16 C 0.70102(16) 0.73164(15) 0.91225(8)
C17 C 0.58839(16) 0.71023(16) 0.92939(9)
H14 H 0.5613 0.6513 0.9077
H15 H 0.5866 0.6905 0.9688
C18 C 0.51873(17) 0.80438(17) 0.92043(9)
H16 H 0.4465 0.7858 0.9299
H17 H 0.5408 0.8607 0.9455
C19 C 0.52247(19) 0.84307(18) 0.86115(10)
H18 H 0.4802 0.9076 0.8582
C20 C 0.3754(3) 0.7681(3) 0.81801(17)
C21 C 0.33586(17) 0.34849(17) 0.91262(9)
C22 C 0.41792(16) 0.30001(17) 0.88034(8)
C23 C 0.41349(17) 0.20303(16) 0.84872(9)
C24 C 0.3054(2) 0.08912(19) 0.80026(10)
H19 H 0.3260 0.0284 0.8219
H20 H 0.3497 0.0947 0.7676
H21 H 0.2330 0.0818 0.7888
C25 C 0.87621(16) 0.34793(17) 0.93813(9)
C26 C 0.91441(16) 0.46031(16) 0.94709(9)
C27 C 1.02426(16) 0.45782(18) 0.97163(9)
H22 H 1.0230 0.4211 1.0070
H23 H 1.0488 0.5288 0.9774
H24 H 1.0710 0.4220 0.9461
C28 C 1.00797(17) 0.48926(18) 0.85692(9)
C29 C 1.10397(19) 0.3488(2) 0.81846(11)
H25 H 1.1485 0.3099 0.8438
H26 H 1.1428 0.4073 0.8031
H27 H 1.0813 0.3034 0.7885
C30 C 0.76967(15) 0.58178(15) 0.97204(8)
H28 H 0.7224 0.6068 0.9989
C31 C 0.83613(16) 0.50875(16) 0.98725(8)
C32 C 0.83502(18) 0.46674(18) 1.04541(9)
H29 H 0.7799 0.5007 1.0665
H30 H 0.9020 0.4803 1.0630
H31 H 0.8224 0.3920 1.0444
C33 C 0.3411(4) 0.6835(4) 0.77901(14)
H32 H 0.3531 0.7056 0.7409
H33 H 0.2672 0.6696 0.7844
H34 H 0.3810 0.6205 0.7864
C34 C 0.63195(19) 0.86509(17) 0.83999(10)
C35 C 0.70233(17) 0.76913(17) 0.85126(9)
H35 H 0.6704 0.7114 0.8297
C36 C 0.81270(19) 0.77863(18) 0.82915(9)
H36 H 0.8516 0.8290 0.8518
H37 H 0.8106 0.8050 0.7909
C37 C 0.86878(18) 0.67438(17) 0.83010(9)
H38 H 0.9399 0.6836 0.8157
H39 H 0.8322 0.6255 0.8054
C38 C 0.6258(2) 0.8849(2) 0.77709(11)
H40 H 0.6912 0.9147 0.7643
H41 H 0.5690 0.9331 0.7693
H42 H 0.6131 0.8194 0.7579
C39 C 0.6702(2) 0.96478(18) 0.86716(11)
H43 H 0.6687 0.9568 0.9073
H44 H 0.6252 1.0224 0.8564
H45 H 0.7413 0.9790 0.8552
C40 C 0.74876(17) 0.80830(16) 0.95271(9)
H46 H 0.8047 0.8502 0.9405
C41 C 0.95328(16) 0.69010(17) 0.92265(9)
H47 H 0.9443 0.7640 0.9150
H48 H 1.0237 0.6691 0.9125
H49 H 0.9420 0.6771 0.9620
C42 C 0.81960(19) 0.24260(18) 0.85589(11)
H50 H 0.8939 0.2345 0.8489
H51 H 0.7827 0.2478 0.8207
H52 H 0.7940 0.1826 0.8765
C43 C 0.65928(18) 0.2613(2) 0.95142(10)
H53 H 0.6564 0.1954 0.9316
H54 H 0.5918 0.2754 0.9683
H55 H 0.7124 0.2576 0.9802
C44 C 0.3220(2) 0.54018(19) 0.90503(11)
H56 H 0.3207 0.5294 0.8650
H57 H 0.3564 0.6060 0.9133
H58 H 0.2509 0.5419 0.9192
C45? C 0.5772(5) 0.6071(6) 1.1995(3)
H59? H 0.6449 0.6156 1.1818
H60? H 0.5862 0.6038 1.2396
H61? H 0.5328 0.6662 1.1901
C46? C 0.5278(5) 0.5096(7) 1.1796(3)
H62? H 0.4541 0.5091 1.1910
H63? H 0.5623 0.4499 1.1974
C47? C 0.5336(5) 0.4969(7) 1.1180(3)
H64? H 0.6008 0.4987 1.1021
C48? C 0.4547(8) 0.4833(7) 1.0833(4)
H65? H 0.3879 0.4700 1.0981
loop_
_geom_bond_atom_site_label_1
_geom_bond_atom_site_label_2
_geom_bond_site_symmetry_1
_geom_bond_site_symmetry_2
O1 C7 1_555 1_555
O2 C19 1_555 1_555
O3 C20 1_555 1_555
O4 C21 1_555 1_555
O5 C23 1_555 1_555
O6 C23 1_555 1_555
O7 C25 1_555 1_555
O8 C28 1_555 1_555
O9 C28 1_555 1_555
O10 C40 1_555 1_555
O11 C12 1_555 1_555
C1 H1 1_555 1_555
H2 C1 1_555 1_555
H3 C1 1_555 1_555
C2 C1 1_555 1_555
H4 C2 1_555 1_555
H5 C2 1_555 1_555
C3 C2 1_555 1_555
H6 C3 1_555 1_555
C4 C3 1_555 1_555
H7 C4 1_555 1_555
C5 C4 1_555 1_555
H8 C5 1_555 1_555
C6 C5 1_555 1_555
H9 C6 1_555 1_555
C7 C6 1_555 1_555
C8 O1 1_555 1_555
C9 C8 1_555 1_555
H10 C9 1_555 1_555
H11 C9 1_555 1_555
C10 C9 1_555 1_555
H12 C10 1_555 1_555
C11 C10 1_555 1_555
C12 C11 1_555 1_555
C13 C12 1_555 1_555
C14 C13 1_555 1_555
C15 C14 1_555 1_555
H13 C15 1_555 1_555
C16 C15 1_555 1_555
C17 C16 1_555 1_555
H14 C17 1_555 1_555
H15 C17 1_555 1_555
C18 C17 1_555 1_555
H16 C18 1_555 1_555
H17 C18 1_555 1_555
C19 C18 1_555 1_555
H18 C19 1_555 1_555
C20 O2 1_555 1_555
C21 C7 1_555 1_555
C22 C8 1_555 1_555
C23 C22 1_555 1_555
C24 O5 1_555 1_555
H19 C24 1_555 1_555
H20 C24 1_555 1_555
H21 C24 1_555 1_555
C25 C11 1_555 1_555
C26 C13 1_555 1_555
C27 C26 1_555 1_555
H22 C27 1_555 1_555
H23 C27 1_555 1_555
H24 C27 1_555 1_555
C28 C13 1_555 1_555
C29 O8 1_555 1_555
H25 C29 1_555 1_555
H26 C29 1_555 1_555
H27 C29 1_555 1_555
C30 C15 1_555 1_555
H28 C30 1_555 1_555
C31 C26 1_555 1_555
C32 C31 1_555 1_555
H29 C32 1_555 1_555
H30 C32 1_555 1_555
H31 C32 1_555 1_555
C33 C20 1_555 1_555
H32 C33 1_555 1_555
H33 C33 1_555 1_555
H34 C33 1_555 1_555
C34 C19 1_555 1_555
C35 C16 1_555 1_555
H35 C35 1_555 1_555
C36 C35 1_555 1_555
H36 C36 1_555 1_555
H37 C36 1_555 1_555
C37 C14 1_555 1_555
H38 C37 1_555 1_555
H39 C37 1_555 1_555
C38 C34 1_555 1_555
H40 C38 1_555 1_555
H41 C38 1_555 1_555
H42 C38 1_555 1_555
C39 C34 1_555 1_555
H43 C39 1_555 1_555
H44 C39 1_555 1_555
H45 C39 1_555 1_555
C40 C16 1_555 1_555
H46 C40 1_555 1_555
C41 C14 1_555 1_555
H47 C41 1_555 1_555
H48 C41 1_555 1_555
H49 C41 1_555 1_555
C42 C11 1_555 1_555
H50 C42 1_555 1_555
H51 C42 1_555 1_555
H52 C42 1_555 1_555
C43 C10 1_555 1_555
H53 C43 1_555 1_555
H54 C43 1_555 1_555
H55 C43 1_555 1_555
C44 C7 1_555 1_555
H56 C44 1_555 1_555
H57 C44 1_555 1_555
H58 C44 1_555 1_555
C21 C22 1_555 1_555
C25 C26 1_555 1_555
C30 C31 1_555 1_555
C34 C35 1_555 1_555
C36 C37 1_555 1_555

#END
