
#######################################################################
#
#                 Cambridge Crystallographic Data Centre
#                                CCDC 
#
#######################################################################
#
# If this CIF has been generated from an entry in the Cambridge 
# Structural Database, then it will include bibliographic, chemical, 
# crystal, experimental, refinement or atomic coordinate data resulting 
# from the CCDC's data processing and validation procedures.
#
#######################################################################

data_FOBMUF
_chemical_name_common            5-Nitro-1H-isoindole-1,3(2H)-dione
_chemical_formula_moiety         'C14 H8 N2 O4'
_chemical_name_systematic        N-Phenyl-4-nitrophthalimide
_symmetry_cell_setting           orthorhombic
_symmetry_space_group_name_H-M   'P 21 21 21'
_symmetry_Int_Tables_number      19
_space_group_name_Hall           'P 2ac 2ab'
loop_
_symmetry_equiv_pos_site_id
_symmetry_equiv_pos_as_xyz
1 x,y,z
2 1/2-x,-y,1/2+z
3 -x,1/2+y,1/2-z
4 1/2+x,1/2-y,-z
_cell_length_a                   11.9288(6)
_cell_length_b                   7.0604(2)
_cell_length_c                   13.8337(7)
_cell_angle_alpha                90
_cell_angle_beta                 90
_cell_angle_gamma                90
_cell_volume                     1165.1
_exptl_crystal_colour            yellow
_exptl_crystal_description       needle
_cell_formula_units_Z            4
_exptl_crystal_recrystallization_method ethanol
loop_
_atom_site_label
_atom_site_type_symbol
_atom_site_fract_x
_atom_site_fract_y
_atom_site_fract_z
N1 N 1.0377(3) 0.4517(5) 0.6196(3)
C1 C 0.9520(4) 0.3459(7) 0.6640(3)
O1 O 0.9594(3) 0.1872(5) 0.6951(2)
C2 C 1.0001(4) 0.6356(6) 0.5957(3)
O2 O 1.0547(3) 0.7551(5) 0.5542(3)
C3 C 0.8803(4) 0.6421(7) 0.6261(3)
C4 C 0.8037(4) 0.7882(7) 0.6190(3)
C5 C 0.6965(4) 0.7423(7) 0.6524(3)
C6 C 0.6648(4) 0.5719(8) 0.6898(4)
C7 C 0.7442(4) 0.4292(8) 0.6962(4)
C8 C 0.8516(4) 0.4702(7) 0.6646(3)
N2 N 0.6083(4) 0.8913(7) 0.6463(3)
O3 O 0.6387(3) 1.0524(5) 0.6218(3)
O4 O 0.5135(3) 0.8489(6) 0.6684(3)
C9 C 1.1507(4) 0.3832(7) 0.6066(3)
C10 C 1.2394(4) 0.5091(8) 0.6192(4)
C11 C 1.3480(4) 0.4436(9) 0.6049(4)
C12 C 1.3674(5) 0.2591(9) 0.5812(4)
C13 C 1.2784(5) 0.1356(8) 0.5700(4)
C14 C 1.1679(4) 0.1969(7) 0.5813(3)
H1 H 0.8222 0.9092 0.5936
H2 H 0.5900 0.5515 0.7110
H3 H 0.7256 0.3079 0.7214
H4 H 1.2260 0.6369 0.6372
H5 H 1.4094 0.5284 0.6116
H6 H 1.4420 0.2154 0.5724
H7 H 1.2926 0.0068 0.5543
H8 H 1.1067 0.1129 0.5719
loop_
_geom_bond_atom_site_label_1
_geom_bond_atom_site_label_2
_geom_bond_site_symmetry_1
_geom_bond_site_symmetry_2
N1 C1 1_555 1_555
C1 O1 1_555 1_555
C2 N1 1_555 1_555
O2 C2 1_555 1_555
C3 C2 1_555 1_555
C4 C3 1_555 1_555
C5 C4 1_555 1_555
C6 C5 1_555 1_555
C7 C6 1_555 1_555
C8 C1 1_555 1_555
N2 C5 1_555 1_555
O3 N2 1_555 1_555
O4 N2 1_555 1_555
C9 N1 1_555 1_555
C10 C9 1_555 1_555
C11 C10 1_555 1_555
C12 C11 1_555 1_555
C13 C12 1_555 1_555
C14 C9 1_555 1_555
H1 C4 1_555 1_555
H2 C6 1_555 1_555
H3 C7 1_555 1_555
H4 C10 1_555 1_555
H5 C11 1_555 1_555
H6 C12 1_555 1_555
H7 C13 1_555 1_555
H8 C14 1_555 1_555
C3 C8 1_555 1_555
C7 C8 1_555 1_555
C13 C14 1_555 1_555

#END
