
#######################################################################
#
#                 Cambridge Crystallographic Data Centre
#                                CCDC 
#
#######################################################################
#
# If this CIF has been generated from an entry in the Cambridge 
# Structural Database, then it will include bibliographic, chemical, 
# crystal, experimental, refinement or atomic coordinate data resulting 
# from the CCDC's data processing and validation procedures.
#
#######################################################################

data_FOBNOA
_chemical_formula_moiety         'C10 H8 N2 O4'
_chemical_name_systematic        N-(3-Nitrophenyl)succinimide
_symmetry_cell_setting           monoclinic
_symmetry_space_group_name_H-M   'P 21'
_symmetry_Int_Tables_number      4
_space_group_name_Hall           'P 2yb'
loop_
_symmetry_equiv_pos_site_id
_symmetry_equiv_pos_as_xyz
1 x,y,z
2 -x,1/2+y,-z
_cell_length_a                   6.6318(2)
_cell_length_b                   7.0944(3)
_cell_length_c                   10.4260(5)
_cell_angle_alpha                90
_cell_angle_beta                 108.234(2)
_cell_angle_gamma                90
_cell_volume                     465.898
_exptl_crystal_colour            colorless
_exptl_crystal_description       block
_cell_formula_units_Z            2
_exptl_crystal_recrystallization_method ethanol
loop_
_atom_site_label
_atom_site_type_symbol
_atom_site_fract_x
_atom_site_fract_y
_atom_site_fract_z
O1 O -0.0774(2) 0.1798(2) 0.12597(15)
O2 O 0.5317(2) 0.5258(2) 0.21968(14)
O3 O 0.5687(2) 0.4665(2) 0.79705(13)
O4 O 0.7367(2) 0.3479(2) 0.66840(14)
N1 N 0.2263(2) 0.3593(2) 0.20348(15)
N2 N 0.5760(2) 0.4110(2) 0.68743(15)
C1 C 0.0784(3) 0.2473(3) 0.10809(19)
C2 C 0.1516(3) 0.2310(3) -0.01408(18)
C3 C 0.3605(3) 0.3371(3) 0.02054(19)
C4 C 0.3916(3) 0.4221(3) 0.15678(19)
C5 C 0.2143(3) 0.4001(3) 0.33495(18)
C6 C 0.3956(3) 0.3791(3) 0.44531(18)
C7 C 0.3814(3) 0.4252(3) 0.57126(18)
C8 C 0.1965(3) 0.4874(3) 0.59194(19)
C9 C 0.0176(3) 0.5039(3) 0.4795(2)
C10 C 0.0254(3) 0.4619(3) 0.35155(19)
H1 H 0.0461 0.2876 -0.0940
H2 H 0.1720 0.0971 -0.0338
H3 H 0.3542 0.4365 -0.0472
H4 H 0.4785 0.2500 0.0232
H5 H 0.5247 0.3348 0.4348
H6 H 0.1922 0.5178 0.6798
H7 H -0.1124 0.5447 0.4906
H8 H -0.0980 0.4753 0.2754
loop_
_geom_bond_atom_site_label_1
_geom_bond_atom_site_label_2
_geom_bond_site_symmetry_1
_geom_bond_site_symmetry_2
O1 C1 1_555 1_555
O2 C4 1_555 1_555
O3 N2 1_555 1_555
O4 N2 1_555 1_555
N1 C1 1_555 1_555
N2 C7 1_555 1_555
C1 C2 1_555 1_555
C2 C3 1_555 1_555
C3 C4 1_555 1_555
C4 N1 1_555 1_555
C5 N1 1_555 1_555
C6 C5 1_555 1_555
C7 C6 1_555 1_555
C8 C7 1_555 1_555
C9 C8 1_555 1_555
C10 C5 1_555 1_555
H1 C2 1_555 1_555
H2 C2 1_555 1_555
H3 C3 1_555 1_555
H4 C3 1_555 1_555
H5 C6 1_555 1_555
H6 C8 1_555 1_555
H7 C9 1_555 1_555
H8 C10 1_555 1_555
C9 C10 1_555 1_555

#END
