
#######################################################################
#
#                 Cambridge Crystallographic Data Centre
#                                CCDC 
#
#######################################################################
#
# If this CIF has been generated from an entry in the Cambridge 
# Structural Database, then it will include bibliographic, chemical, 
# crystal, experimental, refinement or atomic coordinate data resulting 
# from the CCDC's data processing and validation procedures.
#
#######################################################################

data_FOBSIY
_chemical_formula_moiety         'C16 H13 N3 O2'
_chemical_name_systematic        
4-Phenyl-2,4,6-triazatetracyclo(6.3.2.0^2,6^.0^7,9^)trideca-10,12-diene-3,5-dione
_symmetry_cell_setting           monoclinic
_symmetry_space_group_name_H-M   'P 21/c'
_symmetry_Int_Tables_number      14
_space_group_name_Hall           '-P 2ybc'
loop_
_symmetry_equiv_pos_site_id
_symmetry_equiv_pos_as_xyz
1 x,y,z
2 -x,1/2+y,1/2-z
3 -x,-y,-z
4 x,1/2-y,1/2+z
_cell_length_a                   8.849(4)
_cell_length_b                   16.587(5)
_cell_length_c                   8.643(5)
_cell_angle_alpha                90
_cell_angle_beta                 96.07(4)
_cell_angle_gamma                90
_cell_volume                     1261.49
_cell_formula_units_Z            4
loop_
_atom_site_label
_atom_site_type_symbol
_atom_site_fract_x
_atom_site_fract_y
_atom_site_fract_z
O1 O 0.3657(1) 0.56728(5) 0.3497(1)
O2 O 0.1087(1) 0.42573(6) -0.0610(1)
N1 N 0.2503(1) 0.51382(6) 0.1126(1)
N2 N 0.2146(1) 0.45276(6) 0.3308(1)
N3 N 0.1440(1) 0.40787(6) 0.2061(1)
C1 C 0.2315(2) 0.42273(7) 0.4914(1)
C2 C 0.3099(2) 0.34190(8) 0.5081(2)
C3 C 0.2556(2) 0.27474(8) 0.4366(2)
C4 C 0.1175(2) 0.26768(8) 0.3262(2)
C5 C 0.0600(2) 0.33503(7) 0.2200(2)
C6 C -0.0297(2) 0.31794(9) 0.3540(2)
C7 C -0.0322(2) 0.36849(8) 0.4932(2)
C8 C 0.0797(2) 0.41539(8) 0.5568(2)
C9 C 0.2865(1) 0.51733(7) 0.2746(1)
C10 C 0.1609(2) 0.44583(7) 0.0697(1)
C11 C 0.3027(1) 0.57043(7) 0.0060(1)
C12 C 0.3594(2) 0.54339(7) -0.1294(1)
C13 C 0.4164(2) 0.59930(8) -0.2289(2)
C14 C 0.4189(2) 0.68111(8) -0.1919(2)
C15 C 0.3587(2) 0.70761(7) -0.0581(2)
C16 C 0.3002(2) 0.65249(7) 0.0413(1)
H1 H 0.296(2) 0.4655(9) 0.546(2)
H2 H 0.398(2) 0.340(1) 0.584(2)
H3 H 0.314(2) 0.223(1) 0.462(2)
H4 H 0.091(2) 0.213(1) 0.281(2)
H5 H 0.011(2) 0.321(1) 0.118(2)
H6 H -0.126(2) 0.290(1) 0.324(2)
H7 H -0.117(2) 0.364(1) 0.549(2)
H8 H 0.063(2) 0.444(1) 0.655(2)
H9 H 0.359(2) 0.487(1) -0.154(2)
H10 H 0.456(2) 0.583(1) -0.328(2)
H11 H 0.463(2) 0.723(1) -0.261(2)
H12 H 0.360(2) 0.764(1) -0.031(2)
H13 H 0.256(2) 0.670(1) 0.138(2)
loop_
_geom_bond_atom_site_label_1
_geom_bond_atom_site_label_2
_geom_bond_site_symmetry_1
_geom_bond_site_symmetry_2
O1 C9 1_555 1_555
O2 C10 1_555 1_555
N1 C9 1_555 1_555
N2 N3 1_555 1_555
N3 C5 1_555 1_555
C1 N2 1_555 1_555
C2 C1 1_555 1_555
C3 C2 1_555 1_555
C4 C3 1_555 1_555
C5 C4 1_555 1_555
C6 C4 1_555 1_555
C7 C6 1_555 1_555
C8 C1 1_555 1_555
C9 N2 1_555 1_555
C10 N1 1_555 1_555
C11 N1 1_555 1_555
C12 C11 1_555 1_555
C13 C12 1_555 1_555
C14 C13 1_555 1_555
C15 C14 1_555 1_555
C16 C11 1_555 1_555
H1 C1 1_555 1_555
H2 C2 1_555 1_555
H3 C3 1_555 1_555
H4 C4 1_555 1_555
H5 C5 1_555 1_555
H6 C6 1_555 1_555
H7 C7 1_555 1_555
H8 C8 1_555 1_555
H9 C12 1_555 1_555
H10 C13 1_555 1_555
H11 C14 1_555 1_555
H12 C15 1_555 1_555
H13 C16 1_555 1_555
N3 C10 1_555 1_555
C5 C6 1_555 1_555
C7 C8 1_555 1_555
C15 C16 1_555 1_555

#END
