
#######################################################################
#
#                 Cambridge Crystallographic Data Centre
#                                CCDC 
#
#######################################################################
#
# If this CIF has been generated from an entry in the Cambridge 
# Structural Database, then it will include bibliographic, chemical, 
# crystal, experimental, refinement or atomic coordinate data resulting 
# from the CCDC's data processing and validation procedures.
#
#######################################################################

data_FOBTIC
_chemical_formula_moiety         'C44 H42 N4 O4'
_chemical_name_systematic        
6-[3',6'-bis(diethylamino)-3-oxospiro[isoindole-1,9'-xanthen]-2(3H)-yl]-2-(but-2-en-1-yl)-1H-benzo[de]isoquinoline-1,3(2H)-dione
_symmetry_cell_setting           triclinic
_symmetry_space_group_name_H-M   'P -1'
_symmetry_Int_Tables_number      2
_space_group_name_Hall           '-P 1'
loop_
_symmetry_equiv_pos_site_id
_symmetry_equiv_pos_as_xyz
1 x,y,z
2 -x,-y,-z
_cell_length_a                   9.9350(8)
_cell_length_b                   12.2145(10)
_cell_length_c                   15.7216(13)
_cell_angle_alpha                78.776(7)
_cell_angle_beta                 75.149(7)
_cell_angle_gamma                83.468(7)
_cell_volume                     1804.72
_exptl_crystal_colour            yellow
_exptl_crystal_description       block
_cell_formula_units_Z            2
loop_
_atom_site_label
_atom_site_type_symbol
_atom_site_fract_x
_atom_site_fract_y
_atom_site_fract_z
C1 C 0.0208(5) 0.3609(4) 0.3383(3)
C2 C 0.0929(5) 0.4304(4) 0.3649(3)
H1 H 0.116858 0.408931 0.419448
C3 C 0.1323(5) 0.5331(4) 0.3127(3)
C4 C 0.0990(6) 0.5581(4) 0.2299(4)
H2 H 0.126106 0.624396 0.191730
C5 C 0.0264(6) 0.4861(4) 0.2035(3)
H3 H 0.003977 0.506023 0.148314
C6 C -0.0146(5) 0.3843(3) 0.2569(3)
C7 C -0.0882(5) 0.3025(4) 0.2254(3)
C8 C -0.1263(4) 0.2031(3) 0.2986(3)
C9 C -0.2046(5) 0.1194(4) 0.2900(4)
H4 H -0.230560 0.123776 0.236576
C10 C -0.2440(5) 0.0321(4) 0.3568(4)
H5 H -0.294830 -0.021873 0.347317
C11 C -0.2105(5) 0.0206(4) 0.4402(4)
C12 C -0.1327(5) 0.1038(4) 0.4483(3)
H6 H -0.107083 0.100495 0.501731
C13 C -0.0927(5) 0.1905(3) 0.3799(3)
C14 C -0.2121(6) 0.3594(4) 0.1904(4)
C15 C -0.3343(6) 0.4059(4) 0.2379(4)
H7 H -0.350023 0.402024 0.299292
C16 C -0.4332(7) 0.4582(5) 0.1930(5)
H8 H -0.516957 0.488334 0.224730
C17 C -0.4088(8) 0.4664(6) 0.1010(5)
H9 H -0.474950 0.503959 0.071299
C18 C -0.2840(7) 0.4180(5) 0.0522(4)
H10 H -0.266874 0.421855 -0.009240
C19 C -0.1881(6) 0.3647(4) 0.0995(4)
C20 C -0.0529(6) 0.3064(4) 0.0658(4)
C21 C 0.1343(5) 0.2049(4) 0.1349(3)
C22 C 0.1470(5) 0.0932(4) 0.1202(3)
C23 C 0.0407(5) 0.0405(4) 0.1067(3)
H11 H -0.046963 0.077926 0.110492
C24 C 0.0614(6) -0.0659(4) 0.0878(3)
H12 H -0.012305 -0.099458 0.079084
C25 C 0.1916(5) -0.1246(4) 0.0815(3)
H13 H 0.204822 -0.196084 0.067313
C26 C 0.3009(5) -0.0766(4) 0.0965(3)
C27 C 0.2815(5) 0.0316(4) 0.1145(3)
C28 C 0.3934(5) 0.0847(4) 0.1282(3)
C29 C 0.3778(5) 0.1901(5) 0.1436(4)
H14 H 0.452823 0.222201 0.152087
C30 C 0.2477(5) 0.2535(5) 0.1470(4)
H15 H 0.238012 0.326739 0.157268
C31 C 0.4303(5) -0.1414(5) 0.0947(3)
C32 C 0.5301(5) 0.0193(5) 0.1268(3)
C33 C 0.2117(7) 0.7215(5) 0.2979(4)
H16 H 0.233898 0.723997 0.233814
H17 H 0.287850 0.752097 0.311795
C34 C 0.0804(7) 0.7947(6) 0.3239(5)
H18 H 0.005199 0.767384 0.307760
H19 H 0.094921 0.870021 0.293336
H20 H 0.057601 0.793213 0.387269
C35 C -0.4450(9) -0.1903(10) 0.5359(9)
H21 H -0.496435 -0.132403 0.504125
H22 H -0.471430 -0.185844 0.598350
H23 H -0.465197 -0.261986 0.527668
C36 C -0.2443(6) -0.0580(4) 0.5998(4)
H24 H -0.151718 -0.037483 0.597410
H25 H -0.257034 -0.131346 0.636739
C37 C -0.3528(6) 0.0266(5) 0.6431(4)
H26 H -0.347081 0.097743 0.603966
H27 H -0.334955 0.034346 0.698780
H28 H -0.444412 0.000946 0.653767
C38 C 0.6712(5) -0.1588(5) 0.1147(4)
H29 H 0.749727 -0.111998 0.097205
H30 H 0.686984 -0.212122 0.074261
C39 C 0.6576(9) -0.2217(7) 0.2124(4)
H31 H 0.577800 -0.211396 0.257127
C40 C 0.7665(9) -0.2920(7) 0.2295(6)
H32 H 0.850022 -0.300935 0.187346
C41 C 0.7374(8) -0.3548(5) 0.3250(5)
H33 H 0.822872 -0.390448 0.337782
H34 H 0.672436 -0.410349 0.332271
H35 H 0.698387 -0.303168 0.365207
N1 N 0.2031(5) 0.6052(4) 0.3419(3)
N2 N -0.2533(5) -0.0643(3) 0.5100(3)
N3 N 0.0016(4) 0.2681(3) 0.1397(3)
N4 N 0.5405(4) -0.0889(3) 0.1103(3)
O1 O -0.0137(3) 0.2644(2) 0.3988(2)
O2 O 0.0024(4) 0.2913(3) -0.0096(2)
O3 O 0.4508(4) -0.2383(3) 0.0820(3)
O4 O 0.6291(4) 0.0568(3) 0.1413(3)
C42 C 0.3502(13) 0.5610(17) 0.4512(11)
H36 H 0.410429 0.544895 0.396017
H37 H 0.346231 0.495069 0.496187
H38 H 0.386037 0.619827 0.469722
C43 C 0.2048(11) 0.5975(6) 0.4378(4)
H39 H 0.139511 0.544091 0.474958
H40 H 0.175569 0.669811 0.455811
C44 C -0.2877(8) -0.1752(5) 0.4998(7)
H41 H -0.235753 -0.233554 0.532063
H42 H -0.260400 -0.182195 0.437218
C45? C -0.3641(19) -0.1310(12) 0.4994(11)
H43? H -0.328701 -0.164609 0.446240
H44? H -0.444280 -0.080750 0.490646
C46? C 0.248(3) 0.560(2) 0.4272(10)
H45? H 0.169922 0.527384 0.472083
H46? H 0.275451 0.621323 0.448951
C47? C 0.370(4) 0.472(3) 0.413(2)
H47? H 0.361959 0.415941 0.465350
H48? H 0.456234 0.507119 0.400798
H49? H 0.368262 0.438275 0.362821
C48? C -0.412(3) -0.223(2) 0.5797(14)
H50? H -0.473065 -0.268973 0.565950
H51? H -0.459657 -0.190239 0.630673
H52? H -0.331510 -0.268972 0.592690
loop_
_geom_bond_atom_site_label_1
_geom_bond_atom_site_label_2
_geom_bond_site_symmetry_1
_geom_bond_site_symmetry_2
C1 C2 1_555 1_555
C2 H1 1_555 1_555
C3 C2 1_555 1_555
C4 C3 1_555 1_555
H2 C4 1_555 1_555
C5 C4 1_555 1_555
H3 C5 1_555 1_555
C6 C1 1_555 1_555
C7 C6 1_555 1_555
C8 C7 1_555 1_555
C9 C8 1_555 1_555
H4 C9 1_555 1_555
C10 C9 1_555 1_555
H5 C10 1_555 1_555
C11 C10 1_555 1_555
C12 C11 1_555 1_555
H6 C12 1_555 1_555
C13 C8 1_555 1_555
C14 C7 1_555 1_555
C15 C14 1_555 1_555
H7 C15 1_555 1_555
C16 C15 1_555 1_555
H8 C16 1_555 1_555
C17 C16 1_555 1_555
H9 C17 1_555 1_555
C18 C17 1_555 1_555
H10 C18 1_555 1_555
C19 C14 1_555 1_555
C20 C19 1_555 1_555
C21 C22 1_555 1_555
C22 C23 1_555 1_555
C23 H11 1_555 1_555
C24 C23 1_555 1_555
H12 C24 1_555 1_555
C25 C24 1_555 1_555
H13 C25 1_555 1_555
C26 C25 1_555 1_555
C27 C22 1_555 1_555
C28 C27 1_555 1_555
C29 C28 1_555 1_555
H14 C29 1_555 1_555
C30 C21 1_555 1_555
H15 C30 1_555 1_555
C31 C26 1_555 1_555
C32 C28 1_555 1_555
C33 H16 1_555 1_555
H17 C33 1_555 1_555
C34 C33 1_555 1_555
H18 C34 1_555 1_555
H19 C34 1_555 1_555
H20 C34 1_555 1_555
C35 H21 1_555 1_555
H22 C35 1_555 1_555
H23 C35 1_555 1_555
C36 H24 1_555 1_555
H25 C36 1_555 1_555
C37 C36 1_555 1_555
H26 C37 1_555 1_555
H27 C37 1_555 1_555
H28 C37 1_555 1_555
C38 H29 1_555 1_555
H30 C38 1_555 1_555
C39 C38 1_555 1_555
H31 C39 1_555 1_555
C40 C39 1_555 1_555
H32 C40 1_555 1_555
C41 C40 1_555 1_555
H33 C41 1_555 1_555
H34 C41 1_555 1_555
H35 C41 1_555 1_555
N1 C3 1_555 1_555
N2 C11 1_555 1_555
N3 C7 1_555 1_555
N4 C31 1_555 1_555
O1 C1 1_555 1_555
O2 C20 1_555 1_555
O3 C31 1_555 1_555
O4 C32 1_555 1_555
C42 H36 1_555 1_555
H37 C42 1_555 1_555
H38 C42 1_555 1_555
C43 N1 1_555 1_555
H39 C43 1_555 1_555
H40 C43 1_555 1_555
C44 C35 1_555 1_555
H41 C44 1_555 1_555
H42 C44 1_555 1_555
C5 C6 1_555 1_555
C12 C13 1_555 1_555
C13 O1 1_555 1_555
C18 C19 1_555 1_555
C20 N3 1_555 1_555
C21 N3 1_555 1_555
C26 C27 1_555 1_555
C29 C30 1_555 1_555
C32 N4 1_555 1_555
C33 N1 1_555 1_555
C36 N2 1_555 1_555
C38 N4 1_555 1_555
N2 C44 1_555 1_555
C42 C43 1_555 1_555

#END
