
#######################################################################
#
#                 Cambridge Crystallographic Data Centre
#                                CCDC 
#
#######################################################################
#
# If this CIF has been generated from an entry in the Cambridge 
# Structural Database, then it will include bibliographic, chemical, 
# crystal, experimental, refinement or atomic coordinate data resulting 
# from the CCDC's data processing and validation procedures.
#
#######################################################################

data_FOBWOL
_chemical_formula_moiety         'C29 H28 N4 O4'
_chemical_name_systematic        
'{[4-([1^3^,2^2^:2^6^,3^3^-terpyridin]-2^4^-yl)phenyl]azanediyl}bis(ethane-2,1-diyl) diacetate'
_symmetry_cell_setting           monoclinic
_symmetry_space_group_name_H-M   'P 21/c'
_symmetry_Int_Tables_number      14
_space_group_name_Hall           '-P 2ybc'
loop_
_symmetry_equiv_pos_site_id
_symmetry_equiv_pos_as_xyz
1 x,y,z
2 -x,1/2+y,1/2-z
3 -x,-y,-z
4 x,1/2-y,1/2+z
_cell_length_a                   22.944(3)
_cell_length_b                   22.210(3)
_cell_length_c                   10.0282(14)
_cell_angle_alpha                90
_cell_angle_beta                 91.284(2)
_cell_angle_gamma                90
_cell_volume                     5108.95
_exptl_crystal_colour            yellow
_exptl_crystal_description       block
_cell_formula_units_Z            8
loop_
_atom_site_label
_atom_site_type_symbol
_atom_site_fract_x
_atom_site_fract_y
_atom_site_fract_z
C3 C 0.6560(3) 0.2886(3) 0.0783(10)
C4 C 0.6858(7) 0.3176(7) -0.0362(11)
H4 H 0.703561 0.287095 -0.089737
H5 H 0.715249 0.344725 -0.002928
H6 H 0.657739 0.339451 -0.089523
O3 O 0.6230(3) 0.2394(3) 0.0208(7)
O4 O 0.6583(4) 0.3021(3) 0.1915(8)
C5 C 0.4792(2) -0.0202(2) 0.3210(5)
C6 C 0.4777(2) -0.0862(2) 0.3286(5)
H7 H 0.488160 -0.102901 0.244187
H8 H 0.439145 -0.099142 0.350297
H9 H 0.504877 -0.099682 0.396454
C7 C 0.5335(2) 0.0685(2) 0.2543(5)
H10 H 0.525057 0.083441 0.342619
H11 H 0.573627 0.077421 0.233229
C8 C 0.4928(2) 0.09385(19) 0.1539(4)
H12 H 0.453063 0.082755 0.173933
H13 H 0.501684 0.078673 0.065941
C9 C 0.46450(15) 0.19502(15) 0.2420(4)
C10 C 0.43091(16) 0.16933(15) 0.3383(4)
H14 H 0.432110 0.127789 0.349589
C11 C 0.39547(16) 0.20296(15) 0.4187(4)
H15 H 0.373337 0.183550 0.482258
C12 C 0.39207(14) 0.26500(14) 0.4070(3)
C13 C 0.42558(17) 0.29075(15) 0.3094(4)
H16 H 0.424003 0.332228 0.297126
C14 C 0.46142(16) 0.25689(16) 0.2293(4)
H17 H 0.483811 0.276114 0.165934
C15 C 0.35571(13) 0.30226(13) 0.4975(3)
C16 C 0.32006(14) 0.27671(15) 0.5897(3)
H18 H 0.318470 0.234999 0.596904
C17 C 0.28625(14) 0.31184(14) 0.6727(3)
C18 C 0.32538(14) 0.39846(14) 0.5824(3)
C19 C 0.32752(14) 0.46519(14) 0.5877(3)
C20 C 0.36233(18) 0.49920(15) 0.5066(4)
H19 H 0.385023 0.478540 0.446063
C21 C 0.3344(2) 0.58762(18) 0.5950(5)
H20 H 0.337094 0.629342 0.600040
C22 C 0.2982(2) 0.55927(19) 0.6772(5)
H21 H 0.275270 0.581405 0.734779
C23 C 0.29489(19) 0.49732(17) 0.6763(4)
H22 H 0.270791 0.477404 0.735243
C24 C 0.35771(15) 0.36520(14) 0.4945(3)
H23 H 0.380903 0.384671 0.433005
C25 C 0.24670(14) 0.28593(14) 0.7735(3)
C26 C 0.23504(16) 0.22516(15) 0.7818(4)
H24 H 0.254051 0.200045 0.722694
C27 C 0.17292(17) 0.23569(19) 0.9518(4)
H25 H 0.147263 0.219134 1.012210
C28 C 0.18224(17) 0.29679(18) 0.9541(4)
H26 H 0.163318 0.320974 1.015262
C29 C 0.21985(15) 0.32164(15) 0.8650(4)
H27 H 0.227126 0.362833 0.866736
C30 C 0.53879(19) 0.18879(18) 0.0673(4)
H28 H 0.520292 0.223811 0.026949
H29 H 0.547679 0.160610 -0.003305
C31 C 0.5935(2) 0.2072(2) 0.1373(5)
H30 H 0.615953 0.172871 0.169034
H31 H 0.586347 0.234364 0.210931
N1 N 0.49976(16) 0.16128(15) 0.1580(4)
N2 N 0.28948(11) 0.37230(11) 0.6696(3)
N3 N 0.36638(16) 0.55913(14) 0.5073(4)
N4 N 0.19917(14) 0.19925(14) 0.8665(3)
O5 O 0.51818(17) -0.00006(15) 0.2385(4)
O6 O 0.44837(16) 0.01256(14) 0.3838(4)
C32 C -0.1259(2) 0.0138(2) 0.5129(5)
C33 C -0.1778(2) -0.0058(2) 0.5805(5)
H34 H -0.173864 0.003292 0.673921
H35 H -0.182711 -0.048368 0.568882
H36 H -0.211198 0.014885 0.543608
C34 C -0.0483(2) 0.0877(2) 0.4948(5)
H37 H -0.030795 0.117601 0.553742
H38 H -0.022137 0.053523 0.488156
C35 C -0.0621(2) 0.11235(19) 0.3672(5)
H39 H -0.090460 0.144473 0.374206
H40 H -0.077628 0.081619 0.307626
C36 C 0.03185(17) 0.10039(15) 0.2442(4)
C37 C 0.08509(17) 0.12176(16) 0.1978(4)
H41 H 0.096570 0.160808 0.219235
C38 C 0.12060(16) 0.08716(16) 0.1224(4)
H42 H 0.155244 0.103610 0.092680
C39 C 0.10676(15) 0.02778(15) 0.0882(3)
C40 C 0.05470(16) 0.00626(16) 0.1386(4)
H43 H 0.044108 -0.033382 0.120539
C41 C 0.01855(18) 0.04061(16) 0.2131(4)
H44 H -0.015751 0.023857 0.244045
C42 C 0.14348(15) -0.00846(15) 0.0019(4)
C43 C 0.18410(14) 0.01734(15) -0.0804(3)
H45 H 0.189290 0.058871 -0.079504
C44 C 0.21714(15) -0.01786(15) -0.1640(3)
C45 C 0.17480(15) -0.10457(15) -0.0836(4)
C46 C 0.17076(16) -0.17157(15) -0.0944(4)
C47 C 0.1356(2) -0.20625(19) -0.0208(5)
H46 H 0.112403 -0.186452 0.040133
C48 C 0.1620(2) -0.2932(2) -0.1134(6)
H47 H 0.159609 -0.334923 -0.119305
C49 C 0.1970(3) -0.2647(2) -0.1940(7)
H48 H 0.218191 -0.285956 -0.256294
C50 C 0.2020(3) -0.2024(2) -0.1853(6)
H49 H 0.226699 -0.181859 -0.241725
C51 C 0.14044(16) -0.07165(15) 0.0013(4)
H50 H 0.115267 -0.091367 0.058137
C52 C 0.26008(15) 0.00862(15) -0.2553(3)
C53 C 0.26536(19) 0.06882(16) -0.2788(4)
H51 H 0.240689 0.094287 -0.232738
C54 C 0.3368(2) 0.05746(19) -0.4289(5)
H52 H 0.362601 0.073839 -0.489165
C55 C 0.3354(2) -0.0030(2) -0.4131(5)
H53 H 0.359847 -0.027287 -0.462615
C56 C 0.29767(18) -0.02909(18) -0.3232(4)
H54 H 0.297563 -0.070463 -0.308925
C57 C 0.0102(2) 0.19904(16) 0.3465(5)
H55 H 0.051318 0.202235 0.370077
H56 H -0.012063 0.213238 0.421373
C58 C -0.0033(3) 0.2364(2) 0.2266(6)
H57 H -0.042931 0.251494 0.230622
H58 H -0.000261 0.212040 0.146811
C59 C 0.0296(3) 0.3347(3) 0.2848(7)
C60 C 0.0680(2) 0.3830(2) 0.2859(5)
H59 H 0.106942 0.368628 0.303185
H60 H 0.057503 0.410894 0.354380
H61 H 0.066293 0.402833 0.200834
N5 N -0.00469(17) 0.13637(14) 0.3173(4)
N6 N 0.21310(12) -0.07890(12) -0.1652(3)
N7 N 0.13069(18) -0.26583(17) -0.0262(5)
N8 N 0.30242(17) 0.09450(15) -0.3612(4)
O7 O -0.10971(18) 0.06803(14) 0.5430(4)
O8 O -0.09758(19) -0.01817(17) 0.4385(4)
O9 O 0.04046(17) 0.29069(15) 0.2204(4)
O10 O -0.0205(2) 0.33872(17) 0.3470(5)
C1? C 0.6388(6) 0.2869(5) 0.0197(11)
C2? C 0.6879(9) 0.2961(10) -0.073(2)
H1? H 0.675181 0.286346 -0.162293
H2? H 0.719860 0.270500 -0.047033
H3? H 0.700153 0.337395 -0.069401
O1? O 0.6027(6) 0.3217(5) 0.0525(16)
O2? O 0.6433(6) 0.2242(5) 0.0652(15)
H32? H 0.584009 0.240815 0.194694
H33? H 0.605162 0.174192 0.195291
loop_
_geom_bond_atom_site_label_1
_geom_bond_atom_site_label_2
_geom_bond_site_symmetry_1
_geom_bond_site_symmetry_2
C3 C4 1_555 1_555
C4 H4 1_555 1_555
H5 C4 1_555 1_555
H6 C4 1_555 1_555
O3 C3 1_555 1_555
O4 C3 1_555 1_555
C5 C6 1_555 1_555
C6 H7 1_555 1_555
H8 C6 1_555 1_555
H9 C6 1_555 1_555
C7 H10 1_555 1_555
H11 C7 1_555 1_555
C8 C7 1_555 1_555
H12 C8 1_555 1_555
H13 C8 1_555 1_555
C9 C10 1_555 1_555
C10 H14 1_555 1_555
C11 C10 1_555 1_555
H15 C11 1_555 1_555
C12 C11 1_555 1_555
C13 C12 1_555 1_555
H16 C13 1_555 1_555
C14 C9 1_555 1_555
H17 C14 1_555 1_555
C15 C12 1_555 1_555
C16 C15 1_555 1_555
H18 C16 1_555 1_555
C17 C16 1_555 1_555
C18 C19 1_555 1_555
C19 C20 1_555 1_555
C20 H19 1_555 1_555
C21 H20 1_555 1_555
C22 C21 1_555 1_555
H21 C22 1_555 1_555
C23 C19 1_555 1_555
H22 C23 1_555 1_555
C24 C15 1_555 1_555
H23 C24 1_555 1_555
C25 C17 1_555 1_555
C26 C25 1_555 1_555
H24 C26 1_555 1_555
C27 H25 1_555 1_555
C28 C27 1_555 1_555
H26 C28 1_555 1_555
C29 C25 1_555 1_555
H27 C29 1_555 1_555
C30 H28 1_555 1_555
H29 C30 1_555 1_555
C31 O3 1_555 1_555
H30 C31 1_555 1_555
H31 C31 1_555 1_555
N1 C8 1_555 1_555
N2 C17 1_555 1_555
N3 C20 1_555 1_555
N4 C26 1_555 1_555
O5 C5 1_555 1_555
O6 C5 1_555 1_555
C32 C33 1_555 1_555
C33 H34 1_555 1_555
H35 C33 1_555 1_555
H36 C33 1_555 1_555
C34 H37 1_555 1_555
H38 C34 1_555 1_555
C35 C34 1_555 1_555
H39 C35 1_555 1_555
H40 C35 1_555 1_555
C36 C37 1_555 1_555
C37 H41 1_555 1_555
C38 C37 1_555 1_555
H42 C38 1_555 1_555
C39 C38 1_555 1_555
C40 C39 1_555 1_555
H43 C40 1_555 1_555
C41 C36 1_555 1_555
H44 C41 1_555 1_555
C42 C39 1_555 1_555
C43 C42 1_555 1_555
H45 C43 1_555 1_555
C44 C43 1_555 1_555
C45 C46 1_555 1_555
C46 C47 1_555 1_555
C47 H46 1_555 1_555
C48 H47 1_555 1_555
C49 C48 1_555 1_555
H48 C49 1_555 1_555
C50 C46 1_555 1_555
H49 C50 1_555 1_555
C51 C42 1_555 1_555
H50 C51 1_555 1_555
C52 C44 1_555 1_555
C53 C52 1_555 1_555
H51 C53 1_555 1_555
C54 H52 1_555 1_555
C55 C54 1_555 1_555
H53 C55 1_555 1_555
C56 C52 1_555 1_555
H54 C56 1_555 1_555
C57 H55 1_555 1_555
H56 C57 1_555 1_555
C58 C57 1_555 1_555
H57 C58 1_555 1_555
H58 C58 1_555 1_555
C59 C60 1_555 1_555
C60 H59 1_555 1_555
H60 C60 1_555 1_555
H61 C60 1_555 1_555
N5 C35 1_555 1_555
N6 C44 1_555 1_555
N7 C47 1_555 1_555
N8 C53 1_555 1_555
O7 C32 1_555 1_555
O8 C32 1_555 1_555
O9 C58 1_555 1_555
O10 C59 1_555 1_555
C7 O5 1_555 1_555
C9 N1 1_555 1_555
C13 C14 1_555 1_555
C18 C24 1_555 1_555
C18 N2 1_555 1_555
C21 N3 1_555 1_555
C22 C23 1_555 1_555
C27 N4 1_555 1_555
C28 C29 1_555 1_555
C30 C31 1_555 1_555
C30 N1 1_555 1_555
C34 O7 1_555 1_555
C36 N5 1_555 1_555
C40 C41 1_555 1_555
C45 C51 1_555 1_555
C45 N6 1_555 1_555
C48 N7 1_555 1_555
C49 C50 1_555 1_555
C54 N8 1_555 1_555
C55 C56 1_555 1_555
C57 N5 1_555 1_555
C59 O9 1_555 1_555

#END
