
#######################################################################
#
#                 Cambridge Crystallographic Data Centre
#                                CCDC 
#
#######################################################################
#
# If this CIF has been generated from an entry in the Cambridge 
# Structural Database, then it will include bibliographic, chemical, 
# crystal, experimental, refinement or atomic coordinate data resulting 
# from the CCDC's data processing and validation procedures.
#
#######################################################################

data_FOBWIF
_chemical_formula_moiety         'C29 H28 N4 O4'
_chemical_name_systematic        
'{[4-([1^2^,2^2^:2^6^,3^2^-terpyridin]-2^4^-yl)phenyl]azanediyl}bis(ethane-2,1-diyl) diacetate'
_symmetry_cell_setting           monoclinic
_symmetry_space_group_name_H-M   'P 21/c'
_symmetry_Int_Tables_number      14
_space_group_name_Hall           '-P 2ybc'
loop_
_symmetry_equiv_pos_site_id
_symmetry_equiv_pos_as_xyz
1 x,y,z
2 -x,1/2+y,1/2-z
3 -x,-y,-z
4 x,1/2-y,1/2+z
_cell_length_a                   14.6098(16)
_cell_length_b                   8.5527(9)
_cell_length_c                   22.221(2)
_cell_angle_alpha                90
_cell_angle_beta                 107.9420(10)
_cell_angle_gamma                90
_cell_volume                     2641.56
_exptl_crystal_colour            yellow
_exptl_crystal_description       block
_cell_formula_units_Z            4
loop_
_atom_site_label
_atom_site_type_symbol
_atom_site_fract_x
_atom_site_fract_y
_atom_site_fract_z
O1 O 0.63442(10) 0.25347(16) 0.21576(6)
O2 O 0.76139(12) 0.1678(2) 0.19082(9)
C1 C 0.8899(3) 0.8045(5) 0.0681(2)
C2 C 0.9708(6) 0.7878(12) 0.0403(4)
H1 H 0.9685 0.6858 0.0219
H2 H 1.0311 0.8011 0.0729
H3 H 0.9646 0.8659 0.0082
O3 O 0.89725(17) 0.7090(3) 0.11729(12)
O4 O 0.8283(2) 0.8995(3) 0.04690(14)
C3 C 0.29659(12) 1.3384(2) 0.07780(8)
C4 C 0.44595(12) 0.9719(2) 0.12269(8)
C5 C 0.36751(12) 1.0868(2) 0.11313(8)
C6 C 0.28570(12) 1.0567(2) 0.13115(8)
H4 H 0.2786 0.9603 0.1485
C7 C 0.21506(12) 1.1700(2) 0.12319(8)
C8 C 0.30037(13) 1.4923(2) 0.04783(8)
C9 C 0.37068(12) 1.2326(2) 0.08565(8)
H5 H 0.4233 1.2588 0.0725
C10 C 0.13003(12) 1.1420(2) 0.14565(8)
C11 C 0.59638(12) 0.7475(2) 0.14068(9)
C12 C 0.51397(12) 0.9805(2) 0.09018(8)
H6 H 0.5098 1.0621 0.0618
C13 C 0.58657(13) 0.8732(2) 0.09862(9)
H7 H 0.6302 0.8839 0.0760
C14 C 0.45732(14) 0.8483(2) 0.16476(9)
H8 H 0.4143 0.8389 0.1879
C15 C 0.06041(14) 1.2551(3) 0.14007(10)
H9 H 0.0644 1.3505 0.1210
C16 C 0.05239(15) 0.9784(3) 0.19542(10)
H10 H 0.0497 0.8828 0.2148
C17 C 0.70924(17) 0.1582(3) 0.22271(10)
C18 C 0.62053(14) 0.3729(2) 0.16883(9)
H11 H 0.5533 0.4034 0.1545
H12 H 0.6372 0.3326 0.1328
C19 C 0.52898(15) 0.7395(2) 0.17382(9)
H13 H 0.5330 0.6587 0.2025
C20 C 0.73536(13) 0.6413(2) 0.11198(10)
H14 H 0.7024 0.6789 0.0697
H15 H 0.7584 0.5363 0.1085
C21 C 0.22413(16) 1.5956(3) 0.03440(10)
H16 H 0.1692 1.5720 0.0454
C22 C -0.01882(15) 1.0835(3) 0.19189(11)
H17 H -0.0685 1.0604 0.2084
C23 C 0.38531(17) 1.6575(2) 0.00392(10)
H18 H 0.4409 1.6800 -0.0064
C24 C 0.68189(14) 0.5132(2) 0.19526(9)
H19 H 0.6658 0.5517 0.2318
H20 H 0.7490 0.4821 0.2092
C25 C 0.3122(2) 1.7647(3) -0.01157(11)
H21 H 0.3178 1.8564 -0.0326
C26 C -0.01535(15) 1.2242(3) 0.16335(11)
H22 H -0.0634 1.2983 0.1596
C27 C 0.81962(15) 0.7469(3) 0.14293(11)
H23 H 0.8699 0.6887 0.1735
H24 H 0.7995 0.8323 0.1646
C28 C 0.23076(19) 1.7348(3) 0.00436(12)
H25 H 0.1806 1.8068 -0.0048
C29 C 0.7163(3) 0.0412(3) 0.27333(14)
H26 H 0.7409 -0.0553 0.2624
H27 H 0.6538 0.0239 0.2777
H28 H 0.7590 0.0794 0.3126
N1 N 0.21926(10) 1.30973(17) 0.09664(7)
N2 N 0.12625(10) 1.0036(2) 0.17278(7)
N3 N 0.38105(11) 1.52311(18) 0.03293(7)
N4 N 0.66860(11) 0.63787(19) 0.14903(8)
C30? C 0.9351(5) 0.7068(11) 0.0867(4)
C31? C 0.9861(15) 0.739(2) 0.0406(10)
H29? H 1.0131 0.8425 0.0476
H30? H 0.9419 0.7325 -0.0014
H31? H 1.0367 0.6641 0.0455
O5? O 0.8585(4) 0.8134(8) 0.0872(3)
O6? O 0.9601(5) 0.5976(7) 0.1223(4)
loop_
_geom_bond_atom_site_label_1
_geom_bond_atom_site_label_2
_geom_bond_site_symmetry_1
_geom_bond_site_symmetry_2
O1 C17 1_555 1_555
O2 C17 1_555 1_555
C1 C2 1_555 1_555
C2 H1 1_555 1_555
H2 C2 1_555 1_555
H3 C2 1_555 1_555
O3 C1 1_555 1_555
O4 C1 1_555 1_555
C3 C8 1_555 1_555
C4 C5 1_555 1_555
C5 C6 1_555 1_555
C6 H4 1_555 1_555
C7 C6 1_555 1_555
C8 C21 1_555 1_555
C9 C3 1_555 1_555
H5 C9 1_555 1_555
C10 C7 1_555 1_555
C11 C13 1_555 1_555
C12 C4 1_555 1_555
H6 C12 1_555 1_555
C13 C12 1_555 1_555
H7 C13 1_555 1_555
C14 C4 1_555 1_555
H8 C14 1_555 1_555
C15 C10 1_555 1_555
H9 C15 1_555 1_555
C16 H10 1_555 1_555
C17 C29 1_555 1_555
C18 O1 1_555 1_555
H11 C18 1_555 1_555
H12 C18 1_555 1_555
C19 C11 1_555 1_555
H13 C19 1_555 1_555
C20 H14 1_555 1_555
H15 C20 1_555 1_555
C21 H16 1_555 1_555
C22 C16 1_555 1_555
H17 C22 1_555 1_555
C23 H18 1_555 1_555
C24 C18 1_555 1_555
H19 C24 1_555 1_555
H20 C24 1_555 1_555
C25 C23 1_555 1_555
H21 C25 1_555 1_555
C26 C15 1_555 1_555
H22 C26 1_555 1_555
C27 O3 1_555 1_555
H23 C27 1_555 1_555
H24 C27 1_555 1_555
C28 C21 1_555 1_555
H25 C28 1_555 1_555
C29 H26 1_555 1_555
H27 C29 1_555 1_555
H28 C29 1_555 1_555
N1 C3 1_555 1_555
N2 C10 1_555 1_555
N3 C8 1_555 1_555
N4 C11 1_555 1_555
C5 C9 1_555 1_555
C7 N1 1_555 1_555
C14 C19 1_555 1_555
C16 N2 1_555 1_555
C20 C27 1_555 1_555
C20 N4 1_555 1_555
C22 C26 1_555 1_555
C23 N3 1_555 1_555
C24 N4 1_555 1_555
C25 C28 1_555 1_555

#END
