
#######################################################################
#
#                 Cambridge Crystallographic Data Centre
#                                CCDC 
#
#######################################################################
#
# If this CIF has been generated from an entry in the Cambridge 
# Structural Database, then it will include bibliographic, chemical, 
# crystal, experimental, refinement or atomic coordinate data resulting 
# from the CCDC's data processing and validation procedures.
#
#######################################################################

data_FOBYUT
_chemical_formula_moiety         'C34 H17 B1 F15 P1 Si1'
_chemical_name_systematic        
{2-[bis(pentafluorophenyl)boranyl]-1-[dimethyl(pentafluorophenyl)silyl]ethenyl}(diphenyl)phosphane
_symmetry_cell_setting           triclinic
_symmetry_space_group_name_H-M   'P -1'
_symmetry_Int_Tables_number      2
_space_group_name_Hall           '-P 1'
loop_
_symmetry_equiv_pos_site_id
_symmetry_equiv_pos_as_xyz
1 x,y,z
2 -x,-y,-z
_cell_length_a                   9.9289(5)
_cell_length_b                   12.0268(6)
_cell_length_c                   14.7530(7)
_cell_angle_alpha                76.372(4)
_cell_angle_beta                 79.509(4)
_cell_angle_gamma                69.177(5)
_cell_volume                     1590.87
_exptl_crystal_colour            colorless
_exptl_crystal_description       cubic
_cell_formula_units_Z            2
loop_
_atom_site_label
_atom_site_type_symbol
_atom_site_fract_x
_atom_site_fract_y
_atom_site_fract_z
P1 P 0.51066(5) 0.80846(4) 0.34139(3)
Si1 Si 0.74096(5) 0.59340(5) 0.22342(3)
B1 B 0.3195(2) 0.83943(19) 0.29163(14)
F1 F 0.29331(12) 1.08103(10) 0.32762(8)
F2 F 0.16837(14) 1.29500(11) 0.22035(9)
F3 F 0.06501(14) 1.30488(12) 0.05974(9)
F4 F 0.07971(16) 1.09636(14) 0.00962(9)
F5 F 0.19806(15) 0.88204(12) 0.11769(8)
F6 F 0.17102(13) 0.67189(11) 0.28227(8)
F7 F -0.02715(14) 0.60773(12) 0.41210(9)
F8 F -0.10786(13) 0.69701(12) 0.57339(8)
F9 F 0.01735(12) 0.85191(11) 0.60435(8)
F10 F 0.20656(12) 0.92425(10) 0.47302(8)
F11 F 0.78768(14) 0.33788(10) 0.17256(8)
F12 F 0.75159(16) 0.28818(11) 0.01348(9)
F13 F 0.64237(16) 0.46974(13) -0.12913(8)
F14 F 0.56862(13) 0.70410(12) -0.11081(8)
F15 F 0.61856(13) 0.75663(10) 0.04420(8)
C1 C 0.42903(19) 0.73320(17) 0.23709(12)
H1 H 0.4038 0.7008 0.1923
C2 C 0.56214(19) 0.69857(16) 0.26599(12)
C3 C 0.8770(2) 0.6727(2) 0.18436(15)
H2 H 0.8913 0.7023 0.2371
H3 H 0.8425 0.7412 0.1335
H4 H 0.9691 0.6164 0.1618
C4 C 0.8089(2) 0.45806(18) 0.31482(13)
H5 H 0.8265 0.4831 0.3689
H6 H 0.8995 0.4030 0.2893
H7 H 0.7366 0.4165 0.3345
C5 C 0.61880(18) 0.90757(16) 0.30037(13)
C6 C 0.71708(19) 0.91433(17) 0.35404(14)
H8 H 0.7233 0.8709 0.4167
C7 C 0.8058(2) 0.98460(19) 0.31564(17)
H9 H 0.8720 0.9895 0.3523
C8 C 0.7978(2) 1.04719(19) 0.22438(17)
H10 H 0.8590 1.0947 0.1984
C9 C 0.7011(2) 1.04109(19) 0.17045(16)
H11 H 0.6959 1.0845 0.1077
C10 C 0.6119(2) 0.97162(18) 0.20804(14)
H12 H 0.5456 0.9675 0.1709
C11 C 0.53421(19) 0.74448(16) 0.46354(12)
C12 C 0.5032(2) 0.81926(18) 0.52926(13)
H13 H 0.4732 0.9047 0.5095
C13 C 0.5161(2) 0.7691(2) 0.62328(14)
H14 H 0.4955 0.8202 0.6678
C14 C 0.5587(2) 0.6451(2) 0.65238(14)
H15 H 0.5684 0.6110 0.7168
C15 C 0.5872(2) 0.5704(2) 0.58823(15)
H16 H 0.6152 0.4852 0.6088
C16 C 0.5750(2) 0.61956(17) 0.49370(13)
H17 H 0.5946 0.5679 0.4497
C17 C 0.25156(18) 0.97118(17) 0.22775(12)
C18 C 0.24025(19) 1.08026(18) 0.24980(13)
C19 C 0.1774(2) 1.19169(18) 0.19551(15)
C20 C 0.1244(2) 1.19676(19) 0.11377(14)
C21 C 0.1329(2) 1.0917(2) 0.08835(14)
C22 C 0.1949(2) 0.98238(19) 0.14538(14)
C23 C 0.20097(18) 0.79972(16) 0.37164(12)
C24 C 0.1356(2) 0.71969(17) 0.36114(13)
C25 C 0.0334(2) 0.68451(18) 0.42729(14)
C26 C -0.0085(2) 0.72959(19) 0.50919(13)
C27 C 0.05352(19) 0.80921(18) 0.52351(13)
C28 C 0.15341(19) 0.84337(16) 0.45552(13)
C29 C 0.70522(19) 0.55029(16) 0.11601(12)
C30 C 0.7362(2) 0.43227(17) 0.10351(13)
C31 C 0.7180(2) 0.40396(18) 0.02205(14)
C32 C 0.6634(2) 0.4955(2) -0.05026(13)
C33 C 0.6272(2) 0.61426(19) -0.04109(13)
C34 C 0.65044(19) 0.63877(17) 0.04016(13)
loop_
_geom_bond_atom_site_label_1
_geom_bond_atom_site_label_2
_geom_bond_site_symmetry_1
_geom_bond_site_symmetry_2
P1 C2 1_555 1_555
Si1 C2 1_555 1_555
B1 C1 1_555 1_555
F1 C18 1_555 1_555
F2 C19 1_555 1_555
F3 C20 1_555 1_555
F4 C21 1_555 1_555
F5 C22 1_555 1_555
F6 C24 1_555 1_555
F7 C25 1_555 1_555
F8 C26 1_555 1_555
F9 C27 1_555 1_555
F10 C28 1_555 1_555
F11 C30 1_555 1_555
F12 C31 1_555 1_555
F13 C32 1_555 1_555
F14 C33 1_555 1_555
F15 C34 1_555 1_555
C1 H1 1_555 1_555
C2 C1 1_555 1_555
C3 Si1 1_555 1_555
H2 C3 1_555 1_555
H3 C3 1_555 1_555
H4 C3 1_555 1_555
C4 Si1 1_555 1_555
H5 C4 1_555 1_555
H6 C4 1_555 1_555
H7 C4 1_555 1_555
C5 P1 1_555 1_555
C6 C5 1_555 1_555
H8 C6 1_555 1_555
C7 C6 1_555 1_555
H9 C7 1_555 1_555
C8 C7 1_555 1_555
H10 C8 1_555 1_555
C9 C8 1_555 1_555
H11 C9 1_555 1_555
C10 C5 1_555 1_555
H12 C10 1_555 1_555
C11 P1 1_555 1_555
C12 C11 1_555 1_555
H13 C12 1_555 1_555
C13 C12 1_555 1_555
H14 C13 1_555 1_555
C14 C13 1_555 1_555
H15 C14 1_555 1_555
C15 C14 1_555 1_555
H16 C15 1_555 1_555
C16 C11 1_555 1_555
H17 C16 1_555 1_555
C17 B1 1_555 1_555
C18 C17 1_555 1_555
C19 C18 1_555 1_555
C20 C19 1_555 1_555
C21 C20 1_555 1_555
C22 C17 1_555 1_555
C23 B1 1_555 1_555
C24 C23 1_555 1_555
C25 C24 1_555 1_555
C26 C25 1_555 1_555
C27 C26 1_555 1_555
C28 C23 1_555 1_555
C29 Si1 1_555 1_555
C30 C29 1_555 1_555
C31 C30 1_555 1_555
C32 C31 1_555 1_555
C33 C32 1_555 1_555
C34 C29 1_555 1_555
C9 C10 1_555 1_555
C15 C16 1_555 1_555
C21 C22 1_555 1_555
C27 C28 1_555 1_555
C33 C34 1_555 1_555

#END
