
#######################################################################
#
#                 Cambridge Crystallographic Data Centre
#                                CCDC 
#
#######################################################################
#
# If this CIF has been generated from an entry in the Cambridge 
# Structural Database, then it will include bibliographic, chemical, 
# crystal, experimental, refinement or atomic coordinate data resulting 
# from the CCDC's data processing and validation procedures.
#
#######################################################################

data_FOBZIF
_chemical_formula_moiety         'C15 H14 N4 O2'
_chemical_name_systematic        
1,3-Dihydro-4-ethyl-5-(4-(1H-imidazol-1-yl)benzoyl)-2H-imidazol-2-one
_chemical_properties_biological  
'potent activity against congestive heart failure'
_symmetry_cell_setting           monoclinic
_symmetry_space_group_name_H-M   'P 21/a'
_symmetry_Int_Tables_number      14
_space_group_name_Hall           '-P 2yab'
loop_
_symmetry_equiv_pos_site_id
_symmetry_equiv_pos_as_xyz
1 x,y,z
2 1/2-x,1/2+y,-z
3 -x,-y,-z
4 1/2+x,1/2-y,z
_cell_length_a                   10.699(2)
_cell_length_b                   11.907(2)
_cell_length_c                   11.596(2)
_cell_angle_alpha                90
_cell_angle_beta                 114.84(1)
_cell_angle_gamma                90
_cell_volume                     1340.58
_exptl_crystal_colour            colorless
_chemical_melting_point          313-315deg.C(dec.)
_cell_formula_units_Z            4
loop_
_atom_site_label
_atom_site_type_symbol
_atom_site_fract_x
_atom_site_fract_y
_atom_site_fract_z
O1 O 0.3499(2) 0.0766(1) 0.8951(2)
C1 C 0.3094(2) -0.0228(2) 0.8817(2)
N1 N 0.3787(2) -0.1140(2) 0.9518(2)
C2 C 0.3040(2) -0.2111(2) 0.9059(2)
C3 C 0.1836(2) -0.1804(2) 0.8054(2)
N2 N 0.1878(2) -0.0629(2) 0.7953(2)
C4 C 0.3491(5) -0.3151(4) 0.9851(5)
C5 C 0.4979(5) -0.3476(3) 1.0078(5)
C6 C 0.0566(2) -0.2369(4) 0.7236(2)
O2 O -0.0490(2) -0.1803(1) 0.6687(2)
C7 C 0.0508(2) -0.3609(2) 0.7020(2)
C8 C 0.1583(2) -0.4229(2) 0.6960(2)
C9 C 0.1420(2) -0.5366(2) 0.6677(2)
C10 C 0.0183(2) -0.5889(2) 0.6470(2)
C11 C -0.0894(2) -0.5280(2) 0.6529(2)
C12 C -0.0732(2) -0.4145(2) 0.6783(2)
N3 N 0.0013(2) -0.7063(1) 0.6203(2)
C13 C -0.1201(3) -0.7626(2) 0.5475(2)
C14 C -0.0860(2) -0.8725(2) 0.5523(2)
N4 N 0.0527(2) -0.8874(2) 0.6269(2)
C15 C 0.1012(3) -0.7863(2) 0.6649(2)
H1 H 0.475(3) -0.106(2) 1.018(3)
H2 H 0.125(3) -0.018(2) 0.729(3)
H3 H 0.345 -0.303 1.064
H4 H 0.288 -0.375 0.942
H5 H 0.522 -0.417 1.053
H6 H 0.503 -0.356 0.928
H7 H 0.559 -0.291 1.056
H8 H 0.245(2) -0.389(2) 0.707(2)
H9 H 0.212(2) -0.578(2) 0.660(2)
H10 H -0.174(2) -0.566(2) 0.639(2)
H11 H -0.146(3) -0.372(2) 0.682(2)
H12 H -0.201(3) -0.727(2) 0.506(2)
H13 H -0.144(2) -0.935(2) 0.511(2)
H14 H 0.193(3) -0.768(2) 0.721(2)
loop_
_geom_bond_atom_site_label_1
_geom_bond_atom_site_label_2
_geom_bond_site_symmetry_1
_geom_bond_site_symmetry_2
O1 C1 1_555 1_555
C1 N1 1_555 1_555
N1 C2 1_555 1_555
C2 C3 1_555 1_555
C3 N2 1_555 1_555
N2 C1 1_555 1_555
C4 C2 1_555 1_555
C5 C4 1_555 1_555
C6 C3 1_555 1_555
O2 C6 1_555 1_555
C7 C6 1_555 1_555
C8 C7 1_555 1_555
C9 C8 1_555 1_555
C10 C9 1_555 1_555
C11 C10 1_555 1_555
C12 C7 1_555 1_555
N3 C10 1_555 1_555
C13 N3 1_555 1_555
C14 C13 1_555 1_555
N4 C14 1_555 1_555
C15 N3 1_555 1_555
H1 N1 1_555 1_555
H2 N2 1_555 1_555
H3 C4 1_555 1_555
H4 C4 1_555 1_555
H5 C5 1_555 1_555
H6 C5 1_555 1_555
H7 C5 1_555 1_555
H8 C8 1_555 1_555
H9 C9 1_555 1_555
H10 C11 1_555 1_555
H11 C12 1_555 1_555
H12 C13 1_555 1_555
H13 C14 1_555 1_555
H14 C15 1_555 1_555
C11 C12 1_555 1_555
N4 C15 1_555 1_555

#END
