
#######################################################################
#
#                 Cambridge Crystallographic Data Centre
#                                CCDC 
#
#######################################################################
#
# If this CIF has been generated from an entry in the Cambridge 
# Structural Database, then it will include bibliographic, chemical, 
# crystal, experimental, refinement or atomic coordinate data resulting 
# from the CCDC's data processing and validation procedures.
#
#######################################################################

data_FOBZOO
_chemical_formula_moiety         'C36 H21 B1 F15 P1 Si1'
_chemical_name_systematic        
{2-[bis(pentafluorophenyl)boranyl]-1-[dimethyl(pentafluorophenyl)silyl]ethenyl}bis(4-methylphenyl)phosphane
_symmetry_cell_setting           triclinic
_symmetry_space_group_name_H-M   'P -1'
_symmetry_Int_Tables_number      2
_space_group_name_Hall           '-P 1'
loop_
_symmetry_equiv_pos_site_id
_symmetry_equiv_pos_as_xyz
1 x,y,z
2 -x,-y,-z
_cell_length_a                   11.5534(4)
_cell_length_b                   11.9538(5)
_cell_length_c                   13.8924(3)
_cell_angle_alpha                88.901(2)
_cell_angle_beta                 73.743(3)
_cell_angle_gamma                69.443(4)
_cell_volume                     1717.94
_exptl_crystal_colour            colorless
_exptl_crystal_description       block
_cell_formula_units_Z            2
loop_
_atom_site_label
_atom_site_type_symbol
_atom_site_fract_x
_atom_site_fract_y
_atom_site_fract_z
P1 P 0.10496(6) 0.82554(5) 0.26236(4)
Si1 Si -0.02377(6) 0.73810(6) 0.10112(5)
B1 B 0.2692(3) 0.8358(3) 0.16692(19)
F1 F -0.13299(16) 1.00541(14) 0.08474(11)
F2 F -0.3564(2) 1.17605(17) 0.18642(14)
F3 F -0.52971(18) 1.1172(2) 0.33536(17)
F4 F -0.4796(2) 0.8836(3) 0.37626(17)
F5 F -0.26107(19) 0.71261(18) 0.27234(13)
F6 F 0.34968(14) 0.76671(14) 0.34953(11)
F7 F 0.55929(16) 0.58162(15) 0.35982(12)
F8 F 0.72586(17) 0.44357(16) 0.19096(15)
F9 F 0.67973(17) 0.49005(15) 0.00972(13)
F10 F 0.46810(15) 0.67076(15) -0.00189(11)
F11 F 0.20367(15) 1.00638(14) 0.34567(10)
F12 F 0.20608(16) 1.22752(14) 0.33838(12)
F13 F 0.28842(18) 1.31298(15) 0.15807(14)
F14 F 0.36967(17) 1.16880(16) -0.01579(12)
F15 F 0.36915(15) 0.94447(14) -0.00939(10)
C1 C 0.2017(2) 0.8048(2) 0.08761(18)
H1 H 0.2308 0.8034 0.0164
C2 C 0.0963(2) 0.7816(2) 0.14169(17)
C3 C 0.0009(3) 0.7522(3) -0.03580(19)
H2 H 0.0868 0.6965 -0.0733
H3 H -0.0061 0.8345 -0.0502
H4 H -0.0651 0.7330 -0.0562
C4 C -0.0112(3) 0.5820(3) 0.1302(2)
H5 H 0.0748 0.5258 0.0932
H6 H -0.0772 0.5625 0.1101
H7 H -0.0246 0.5757 0.2027
C5 C -0.0338(2) 0.9597(2) 0.31693(18)
C6 C -0.1372(2) 0.9618(2) 0.39978(18)
H8 H -0.1342 0.8913 0.4333
C7 C -0.2442(2) 1.0669(2) 0.43300(18)
H9 H -0.3132 1.0672 0.4897
C8 C -0.2528(3) 1.1716(2) 0.38539(19)
C9 C -0.1493(3) 1.1682(2) 0.30179(19)
H10 H -0.1528 1.2385 0.2677
C10 C -0.0429(2) 1.0648(2) 0.26838(18)
H11 H 0.0257 1.0646 0.2114
C11 C -0.3704(3) 1.2849(3) 0.4203(2)
H12 H -0.4398 1.2665 0.4688
H13 H -0.3993 1.3178 0.3623
H14 H -0.3484 1.3438 0.4524
C12 C 0.1145(2) 0.7119(2) 0.34989(18)
C13 C 0.1703(3) 0.5922(2) 0.3094(2)
H15 H 0.1921 0.5739 0.2389
C14 C 0.1938(3) 0.5002(3) 0.3719(2)
H16 H 0.2332 0.4194 0.3433
C15 C 0.1609(3) 0.5237(3) 0.4758(2)
C16 C 0.1070(3) 0.6433(3) 0.51506(19)
H17 H 0.0846 0.6613 0.5857
C17 C 0.0854(2) 0.7365(2) 0.45361(18)
H18 H 0.0506 0.8172 0.4820
C18 C 0.1835(3) 0.4233(3) 0.5437(3)
H19 H 0.2619 0.3559 0.5089
H20 H 0.1094 0.3971 0.5610
H21 H 0.1940 0.4518 0.6053
C19 C -0.1874(2) 0.8520(3) 0.17336(18)
C20 C -0.2184(3) 0.9721(3) 0.15590(19)
C21 C -0.3319(3) 1.0616(3) 0.2073(2)
C22 C -0.4204(3) 1.0308(3) 0.2822(2)
C23 C -0.3951(3) 0.9138(4) 0.3023(2)
C24 C -0.2807(3) 0.8264(3) 0.2486(2)
C25 C 0.3966(2) 0.7260(2) 0.17389(18)
C26 C 0.4278(2) 0.6987(2) 0.26391(19)
C27 C 0.5348(3) 0.6047(2) 0.2710(2)
C28 C 0.6199(3) 0.5340(3) 0.1848(2)
C29 C 0.5956(3) 0.5580(2) 0.0935(2)
C30 C 0.4859(3) 0.6514(2) 0.08978(19)
C31 C 0.2837(2) 0.9656(2) 0.16769(18)
C32 C 0.2475(2) 1.0421(2) 0.25390(18)
C33 C 0.2474(3) 1.1568(2) 0.2524(2)
C34 C 0.2893(3) 1.2007(2) 0.1609(2)
C35 C 0.3298(2) 1.1275(2) 0.07361(19)
C36 C 0.3270(2) 1.0130(2) 0.07893(18)
loop_
_geom_bond_atom_site_label_1
_geom_bond_atom_site_label_2
_geom_bond_site_symmetry_1
_geom_bond_site_symmetry_2
P1 C2 1_555 1_555
Si1 C2 1_555 1_555
B1 C1 1_555 1_555
F1 C20 1_555 1_555
F2 C21 1_555 1_555
F3 C22 1_555 1_555
F4 C23 1_555 1_555
F5 C24 1_555 1_555
F6 C26 1_555 1_555
F7 C27 1_555 1_555
F8 C28 1_555 1_555
F9 C29 1_555 1_555
F10 C30 1_555 1_555
F11 C32 1_555 1_555
F12 C33 1_555 1_555
F13 C34 1_555 1_555
F14 C35 1_555 1_555
F15 C36 1_555 1_555
C1 H1 1_555 1_555
C2 C1 1_555 1_555
C3 Si1 1_555 1_555
H2 C3 1_555 1_555
H3 C3 1_555 1_555
H4 C3 1_555 1_555
C4 Si1 1_555 1_555
H5 C4 1_555 1_555
H6 C4 1_555 1_555
H7 C4 1_555 1_555
C5 P1 1_555 1_555
C6 C5 1_555 1_555
H8 C6 1_555 1_555
C7 C6 1_555 1_555
H9 C7 1_555 1_555
C8 C7 1_555 1_555
C9 C8 1_555 1_555
H10 C9 1_555 1_555
C10 C5 1_555 1_555
H11 C10 1_555 1_555
C11 C8 1_555 1_555
H12 C11 1_555 1_555
H13 C11 1_555 1_555
H14 C11 1_555 1_555
C12 P1 1_555 1_555
C13 C12 1_555 1_555
H15 C13 1_555 1_555
C14 C13 1_555 1_555
H16 C14 1_555 1_555
C15 C14 1_555 1_555
C16 C15 1_555 1_555
H17 C16 1_555 1_555
C17 C12 1_555 1_555
H18 C17 1_555 1_555
C18 C15 1_555 1_555
H19 C18 1_555 1_555
H20 C18 1_555 1_555
H21 C18 1_555 1_555
C19 Si1 1_555 1_555
C20 C19 1_555 1_555
C21 C20 1_555 1_555
C22 C21 1_555 1_555
C23 C22 1_555 1_555
C24 C19 1_555 1_555
C25 B1 1_555 1_555
C26 C25 1_555 1_555
C27 C26 1_555 1_555
C28 C27 1_555 1_555
C29 C28 1_555 1_555
C30 C25 1_555 1_555
C31 B1 1_555 1_555
C32 C31 1_555 1_555
C33 C32 1_555 1_555
C34 C33 1_555 1_555
C35 C34 1_555 1_555
C36 C31 1_555 1_555
C9 C10 1_555 1_555
C16 C17 1_555 1_555
C23 C24 1_555 1_555
C29 C30 1_555 1_555
C35 C36 1_555 1_555

#END
