
#######################################################################
#
#                 Cambridge Crystallographic Data Centre
#                                CCDC 
#
#######################################################################
#
# If this CIF has been generated from an entry in the Cambridge 
# Structural Database, then it will include bibliographic, chemical, 
# crystal, experimental, refinement or atomic coordinate data resulting 
# from the CCDC's data processing and validation procedures.
#
#######################################################################

data_FOBZAA
_chemical_formula_moiety         'C42 H25 B1 F15 O1 P1 Si1,C7 H8'
_chemical_name_systematic        
'tris(pentafluorophenyl)[(2,2,5-trimethyl-4,4,5-triphenyl-1,4,2-oxaphosphasilolan-4-ium-3-ylidene)methyl]borate toluene solvate'
_symmetry_cell_setting           monoclinic
_symmetry_space_group_name_H-M   'P 21/c'
_symmetry_Int_Tables_number      14
_space_group_name_Hall           '-P 2ybc'
loop_
_symmetry_equiv_pos_site_id
_symmetry_equiv_pos_as_xyz
1 x,y,z
2 -x,1/2+y,1/2-z
3 -x,-y,-z
4 x,1/2-y,1/2+z
_cell_length_a                   12.64050(10)
_cell_length_b                   14.61250(10)
_cell_length_c                   24.3671(2)
_cell_angle_alpha                90
_cell_angle_beta                 102.7020(10)
_cell_angle_gamma                90
_cell_volume                     4390.68
_exptl_crystal_colour            colorless
_exptl_crystal_description       cubic
_cell_formula_units_Z            4
loop_
_atom_site_label
_atom_site_type_symbol
_atom_site_fract_x
_atom_site_fract_y
_atom_site_fract_z
B1 B 0.25415(12) 0.78616(10) 0.48513(6)
P1 P 0.10653(3) 0.70683(2) 0.31391(2)
Si1 Si 0.06457(3) 0.60321(3) 0.40896(2)
F1 F 0.39305(6) 0.88336(6) 0.42133(3)
F2 F 0.44433(7) 1.05912(6) 0.42524(4)
F3 F 0.38943(7) 1.17127(6) 0.50409(4)
F4 F 0.27845(7) 1.10093(6) 0.57826(4)
F5 F 0.21073(6) 0.93045(6) 0.57050(3)
F6 F 0.38529(7) 0.64629(6) 0.43171(3)
F7 F 0.57150(7) 0.57095(6) 0.48343(4)
F8 F 0.65992(7) 0.60854(7) 0.59349(4)
F9 F 0.55641(7) 0.72544(7) 0.65081(3)
F10 F 0.36818(6) 0.80078(6) 0.60063(3)
F11 F 0.23258(6) 0.63598(5) 0.57206(3)
F12 F 0.06186(7) 0.61198(6) 0.61666(3)
F13 F -0.11184(7) 0.72666(7) 0.59135(4)
F14 F -0.11250(7) 0.86398(7) 0.51562(4)
F15 F 0.05304(6) 0.88500(5) 0.46551(3)
O1 O 0.02695(8) 0.55903(7) 0.34390(4)
C1 C 0.20936(10) 0.76839(9) 0.41748(5)
H1 H 0.2394 0.8080 0.3940
C2 C 0.13741(10) 0.70731(9) 0.38953(5)
C3 C 0.08825(11) 0.57975(9) 0.30296(5)
C4 C 0.19751(12) 0.53100(10) 0.31719(6)
H2 H 0.1859 0.4649 0.3194
H3 H 0.2393 0.5531 0.3535
H4 H 0.2376 0.5437 0.2879
C5 C 0.02391(11) 0.55527(9) 0.24460(6)
C6 C 0.07103(11) 0.56382(9) 0.19802(6)
H5 H 0.1444 0.5829 0.2031
C7 C 0.01119(12) 0.54463(10) 0.14442(6)
H6 H 0.0438 0.5505 0.1130
C8 C -0.09613(12) 0.51688(10) 0.13653(6)
H7 H -0.1374 0.5046 0.0997
C9 C -0.14269(12) 0.50729(10) 0.18253(6)
H8 H -0.2158 0.4874 0.1773
C10 C -0.08330(12) 0.52661(10) 0.23644(6)
H9 H -0.1161 0.5202 0.2678
C11 C 0.15425(13) 0.52308(10) 0.45683(6)
H10 H 0.1400 0.4603 0.4430
H11 H 0.1400 0.5279 0.4947
H12 H 0.2302 0.5386 0.4582
C12 C -0.06595(12) 0.62264(11) 0.42970(6)
H13 H -0.1100 0.5669 0.4229
H14 H -0.1048 0.6731 0.4075
H15 H -0.0521 0.6383 0.4698
C13 C -0.02351(11) 0.76005(9) 0.28770(5)
C14 C -0.07131(11) 0.80760(9) 0.32559(6)
H16 H -0.0318 0.8178 0.3630
C15 C -0.17662(12) 0.84004(10) 0.30862(6)
H17 H -0.2092 0.8725 0.3344
C16 C -0.23426(11) 0.82506(10) 0.25397(6)
H18 H -0.3073 0.8451 0.2429
C17 C -0.18581(12) 0.78099(10) 0.21551(6)
H19 H -0.2249 0.7729 0.1778
C18 C -0.08056(11) 0.74872(9) 0.23183(6)
H20 H -0.0472 0.7191 0.2053
C19 C 0.21065(11) 0.75355(9) 0.28267(5)
C20 C 0.31815(12) 0.72644(11) 0.30363(6)
H21 H 0.3355 0.6870 0.3353
C21 C 0.39925(12) 0.75722(11) 0.27805(7)
H22 H 0.4721 0.7380 0.2917
C22 C 0.37383(13) 0.81595(11) 0.23256(7)
H23 H 0.4294 0.8366 0.2149
C23 C 0.26792(13) 0.84499(11) 0.21251(6)
H24 H 0.2516 0.8866 0.1818
C24 C 0.18566(12) 0.81351(10) 0.23713(6)
H25 H 0.1129 0.8327 0.2231
C25 C 0.29168(10) 0.89604(9) 0.49298(5)
C26 C 0.35548(10) 0.93533(9) 0.45917(5)
C27 C 0.38662(11) 1.02620(10) 0.46127(6)
C28 C 0.36006(11) 1.08296(10) 0.50107(6)
C29 C 0.30290(11) 1.04722(10) 0.53807(6)
C30 C 0.26926(11) 0.95703(10) 0.53290(6)
C31 C 0.36635(10) 0.72949(9) 0.51306(5)
C32 C 0.41627(11) 0.74524(9) 0.56920(6)
C33 C 0.51306(11) 0.70630(10) 0.59633(6)
C34 C 0.56563(11) 0.64735(10) 0.56748(6)
C35 C 0.52075(11) 0.62862(10) 0.51211(6)
C36 C 0.42321(11) 0.66946(9) 0.48644(6)
C37 C 0.15379(10) 0.76335(9) 0.51634(5)
C38 C 0.14935(11) 0.69523(10) 0.55558(5)
C39 C 0.06189(12) 0.68170(10) 0.58043(6)
C40 C -0.02635(11) 0.73871(11) 0.56746(6)
C41 C -0.02729(11) 0.80740(10) 0.52855(6)
C42 C 0.05997(11) 0.81657(10) 0.50363(5)
C43 C 0.51695(13) 0.48624(11) 0.70485(7)
H26 H 0.5826 0.5189 0.7068
C44 C 0.45429(14) 0.46324(12) 0.65294(7)
H27 H 0.4772 0.4801 0.6197
C45 C 0.35851(15) 0.41588(13) 0.64903(8)
H28 H 0.3153 0.3997 0.6133
C46 C 0.32614(15) 0.39223(13) 0.69782(9)
H29 H 0.2600 0.3601 0.6956
C47 C 0.38939(15) 0.41503(12) 0.74967(8)
H30 H 0.3664 0.3979 0.7828
C48 C 0.48616(14) 0.46267(11) 0.75434(7)
C49 C 0.5548(2) 0.48911(17) 0.81063(9)
H31 H 0.6280 0.5048 0.8064
H32 H 0.5587 0.4377 0.8368
H33 H 0.5224 0.5421 0.8253
loop_
_geom_bond_atom_site_label_1
_geom_bond_atom_site_label_2
_geom_bond_site_symmetry_1
_geom_bond_site_symmetry_2
B1 C1 1_555 1_555
P1 C2 1_555 1_555
Si1 O1 1_555 1_555
F1 C26 1_555 1_555
F2 C27 1_555 1_555
F3 C28 1_555 1_555
F4 C29 1_555 1_555
F5 C30 1_555 1_555
F6 C36 1_555 1_555
F7 C35 1_555 1_555
F8 C34 1_555 1_555
F9 C33 1_555 1_555
F10 C32 1_555 1_555
F11 C38 1_555 1_555
F12 C39 1_555 1_555
F13 C40 1_555 1_555
F14 C41 1_555 1_555
F15 C42 1_555 1_555
O1 C3 1_555 1_555
C1 H1 1_555 1_555
C2 Si1 1_555 1_555
C3 P1 1_555 1_555
C4 C3 1_555 1_555
H2 C4 1_555 1_555
H3 C4 1_555 1_555
H4 C4 1_555 1_555
C5 C3 1_555 1_555
C6 C5 1_555 1_555
H5 C6 1_555 1_555
C7 C6 1_555 1_555
H6 C7 1_555 1_555
C8 C7 1_555 1_555
H7 C8 1_555 1_555
C9 C8 1_555 1_555
H8 C9 1_555 1_555
C10 C5 1_555 1_555
H9 C10 1_555 1_555
C11 Si1 1_555 1_555
H10 C11 1_555 1_555
H11 C11 1_555 1_555
H12 C11 1_555 1_555
C12 Si1 1_555 1_555
H13 C12 1_555 1_555
H14 C12 1_555 1_555
H15 C12 1_555 1_555
C13 P1 1_555 1_555
C14 C13 1_555 1_555
H16 C14 1_555 1_555
C15 C14 1_555 1_555
H17 C15 1_555 1_555
C16 C15 1_555 1_555
H18 C16 1_555 1_555
C17 C16 1_555 1_555
H19 C17 1_555 1_555
C18 C13 1_555 1_555
H20 C18 1_555 1_555
C19 P1 1_555 1_555
C20 C19 1_555 1_555
H21 C20 1_555 1_555
C21 C20 1_555 1_555
H22 C21 1_555 1_555
C22 C21 1_555 1_555
H23 C22 1_555 1_555
C23 C22 1_555 1_555
H24 C23 1_555 1_555
C24 C19 1_555 1_555
H25 C24 1_555 1_555
C25 B1 1_555 1_555
C26 C25 1_555 1_555
C27 C26 1_555 1_555
C28 C27 1_555 1_555
C29 C28 1_555 1_555
C30 C25 1_555 1_555
C31 B1 1_555 1_555
C32 C31 1_555 1_555
C33 C32 1_555 1_555
C34 C33 1_555 1_555
C35 C34 1_555 1_555
C36 C31 1_555 1_555
C37 B1 1_555 1_555
C38 C37 1_555 1_555
C39 C38 1_555 1_555
C40 C39 1_555 1_555
C41 C40 1_555 1_555
C42 C37 1_555 1_555
C43 H26 1_555 1_555
C44 C43 1_555 1_555
H27 C44 1_555 1_555
C45 C44 1_555 1_555
H28 C45 1_555 1_555
C46 C45 1_555 1_555
H29 C46 1_555 1_555
C47 C46 1_555 1_555
H30 C47 1_555 1_555
C48 C43 1_555 1_555
C49 C48 1_555 1_555
H31 C49 1_555 1_555
H32 C49 1_555 1_555
H33 C49 1_555 1_555
C1 C2 1_555 1_555
C9 C10 1_555 1_555
C17 C18 1_555 1_555
C23 C24 1_555 1_555
C29 C30 1_555 1_555
C35 C36 1_555 1_555
C41 C42 1_555 1_555
C47 C48 1_555 1_555

#END
