
#######################################################################
#
#                 Cambridge Crystallographic Data Centre
#                                CCDC 
#
#######################################################################
#
# If this CIF has been generated from an entry in the Cambridge 
# Structural Database, then it will include bibliographic, chemical, 
# crystal, experimental, refinement or atomic coordinate data resulting 
# from the CCDC's data processing and validation procedures.
#
#######################################################################

data_FOBZOM
_chemical_formula_moiety         'C16 H18 S2'
_chemical_name_systematic        1,4-bis(phenylsulfanyl)butane
_symmetry_cell_setting           triclinic
_symmetry_space_group_name_H-M   'P -1'
_symmetry_Int_Tables_number      2
_space_group_name_Hall           '-P 1'
loop_
_symmetry_equiv_pos_site_id
_symmetry_equiv_pos_as_xyz
1 x,y,z
2 -x,-y,-z
_cell_length_a                   5.6753(11)
_cell_length_b                   7.7950(16)
_cell_length_c                   16.368(3)
_cell_angle_alpha                93.02(3)
_cell_angle_beta                 96.00(3)
_cell_angle_gamma                90.52(3)
_cell_volume                     719.059
_exptl_crystal_colour            colorless
_exptl_crystal_description       plate
_cell_formula_units_Z            2
_exptl_crystal_recrystallization_method chloroform
loop_
_atom_site_label
_atom_site_type_symbol
_atom_site_fract_x
_atom_site_fract_y
_atom_site_fract_z
S1 S 0.44991(13) 0.95698(11) 0.15028(4)
C1 C 0.1260(5) 1.0058(4) 0.02065(16)
H1 H 0.1783 1.1251 0.0255
H2 H 0.2292 0.9428 -0.0135
C2 C 0.1475(5) 0.9339(4) 0.10574(16)
H3 H 0.1004 0.8135 0.1015
H4 H 0.0442 0.9955 0.1403
C3 C 0.4443(5) 0.8948(3) 0.25224(15)
C4 C 0.6332(5) 0.9480(4) 0.30867(18)
H5 H 0.7551 1.0141 0.2921
C5 C 0.6411(6) 0.9034(4) 0.38916(19)
H6 H 0.7698 0.9383 0.4264
C6 C 0.4605(6) 0.8074(4) 0.41526(17)
H7 H 0.4651 0.7791 0.4699
C7 C 0.2739(6) 0.7546(4) 0.35915(17)
H8 H 0.1527 0.6884 0.3761
C8 C 0.2623(5) 0.7975(4) 0.27819(16)
H9 H 0.1335 0.7617 0.2412
S1A S -0.44991(13) 1.04302(11) -0.15028(4)
C1A C -0.1260(5) 0.9942(4) -0.02065(16)
H1A H -0.1783 0.8749 -0.0255
H2A H -0.2292 1.0572 0.0135
C2A C -0.1475(5) 1.0661(4) -0.10574(16)
H3A H -0.1004 1.1865 -0.1015
H4A H -0.0442 1.0045 -0.1403
C3A C -0.4443(5) 1.1052(3) -0.25224(15)
C4A C -0.6332(5) 1.0520(4) -0.30867(18)
H5A H -0.7551 0.9859 -0.2921
C5A C -0.6411(6) 1.0966(4) -0.38916(19)
H6A H -0.7698 1.0617 -0.4264
C6A C -0.4605(6) 1.1926(4) -0.41526(17)
H7A H -0.4651 1.2209 -0.4699
C7A C -0.2739(6) 1.2454(4) -0.35915(17)
H8A H -0.1527 1.3116 -0.3761
C8A C -0.2623(5) 1.2025(4) -0.27819(16)
H9A H -0.1335 1.2383 -0.2412
S2 S 0.06030(14) 0.58579(12) 0.85458(4)
C9 C 0.3779(6) 0.5221(4) 0.98196(16)
H10 H 0.3325 0.6303 1.0074
H11 H 0.2668 0.4343 0.9944
C10 C 0.3618(6) 0.5369(4) 0.88910(16)
H12 H 0.4067 0.4297 0.8626
H13 H 0.4674 0.6274 0.8757
C11 C 0.0604(5) 0.6206(3) 0.74925(15)
C12 C -0.1296(5) 0.7112(4) 0.71354(17)
H14 H -0.2448 0.7526 0.7456
C13 C -0.1483(5) 0.7401(4) 0.63094(18)
H15 H -0.2773 0.7996 0.6074
C14 C 0.0220(6) 0.6819(4) 0.58279(17)
H16 H 0.0097 0.7034 0.5272
C15 C 0.2108(5) 0.5915(4) 0.61759(17)
H17 H 0.3252 0.5508 0.5850
C16 C 0.2324(5) 0.5606(4) 0.70062(17)
H18 H 0.3611 0.5002 0.7237
S2A S 0.93970(14) 0.41421(12) 1.14542(4)
C9A C 0.6221(6) 0.4779(4) 1.01804(16)
H10A H 0.6675 0.3697 0.9926
H11A H 0.7332 0.5657 1.0056
C10A C 0.6382(6) 0.4631(4) 1.11090(16)
H12A H 0.5933 0.5703 1.1374
H13A H 0.5326 0.3726 1.1243
C11A C 0.9396(5) 0.3794(3) 1.25075(15)
C12A C 1.1296(5) 0.2888(4) 1.28646(17)
H14A H 1.2448 0.2474 1.2544
C13A C 1.1483(5) 0.2599(4) 1.36906(18)
H15A H 1.2773 0.2004 1.3926
C14A C 0.9780(6) 0.3181(4) 1.41721(17)
H16A H 0.9903 0.2966 1.4728
C15A C 0.7892(5) 0.4085(4) 1.38241(17)
H17A H 0.6748 0.4492 1.4150
C16A C 0.7676(5) 0.4394(4) 1.29938(17)
H18A H 0.6389 0.4998 1.2763
loop_
_geom_bond_atom_site_label_1
_geom_bond_atom_site_label_2
_geom_bond_site_symmetry_1
_geom_bond_site_symmetry_2
S1 C2 1_555 1_555
C1 H1 1_555 1_555
H2 C1 1_555 1_555
C2 C1 1_555 1_555
H3 C2 1_555 1_555
H4 C2 1_555 1_555
C3 S1 1_555 1_555
C4 C3 1_555 1_555
H5 C4 1_555 1_555
C5 C4 1_555 1_555
H6 C5 1_555 1_555
C6 C5 1_555 1_555
H7 C6 1_555 1_555
C7 C6 1_555 1_555
H8 C7 1_555 1_555
C8 C3 1_555 1_555
H9 C8 1_555 1_555
S2 C10 1_555 1_555
C9 H10 1_555 1_555
H11 C9 1_555 1_555
C10 C9 1_555 1_555
H12 C10 1_555 1_555
H13 C10 1_555 1_555
C11 S2 1_555 1_555
C12 C11 1_555 1_555
H14 C12 1_555 1_555
C13 C12 1_555 1_555
H15 C13 1_555 1_555
C14 C13 1_555 1_555
H16 C14 1_555 1_555
C15 C14 1_555 1_555
H17 C15 1_555 1_555
C16 C11 1_555 1_555
H18 C16 1_555 1_555
S1A C2A 1_555 1_555
C1A C1 1_555 1_555
H1A C1A 1_555 1_555
H2A C1A 1_555 1_555
C2A C1A 1_555 1_555
H3A C2A 1_555 1_555
H4A C2A 1_555 1_555
C3A S1A 1_555 1_555
C4A C3A 1_555 1_555
H5A C4A 1_555 1_555
C5A C4A 1_555 1_555
H6A C5A 1_555 1_555
C6A C5A 1_555 1_555
H7A C6A 1_555 1_555
C7A C6A 1_555 1_555
H8A C7A 1_555 1_555
C8A C3A 1_555 1_555
H9A C8A 1_555 1_555
S2A C10A 1_555 1_555
C9A C9 1_555 1_555
H10A C9A 1_555 1_555
H11A C9A 1_555 1_555
C10A C9A 1_555 1_555
H12A C10A 1_555 1_555
H13A C10A 1_555 1_555
C11A S2A 1_555 1_555
C12A C11A 1_555 1_555
H14A C12A 1_555 1_555
C13A C12A 1_555 1_555
H15A C13A 1_555 1_555
C14A C13A 1_555 1_555
H16A C14A 1_555 1_555
C15A C14A 1_555 1_555
H17A C15A 1_555 1_555
C16A C11A 1_555 1_555
H18A C16A 1_555 1_555
C7 C8 1_555 1_555
C15 C16 1_555 1_555
C7A C8A 1_555 1_555
C15A C16A 1_555 1_555

#END
