
#######################################################################
#
#                 Cambridge Crystallographic Data Centre
#                                CCDC 
#
#######################################################################
#
# If this CIF has been generated from an entry in the Cambridge 
# Structural Database, then it will include bibliographic, chemical, 
# crystal, experimental, refinement or atomic coordinate data resulting 
# from the CCDC's data processing and validation procedures.
#
#######################################################################

data_FOBZEE
_chemical_formula_moiety         'C42 H25 B1 F15 O1 P1 Si1'
_chemical_name_systematic        
(2-[dimethyl(pentafluorophenyl)silyl]-2-{[1-(oxido)-1-phenylethyl](diphenyl)phosphaniumyl}ethenyl)-[bis(pentafluorophenyl)]-borate
_symmetry_cell_setting           monoclinic
_symmetry_space_group_name_H-M   'C 2/c'
_symmetry_Int_Tables_number      15
_space_group_name_Hall           '-C 2yn'
loop_
_symmetry_equiv_pos_site_id
_symmetry_equiv_pos_as_xyz
1 x,y,z
2 -x,y,1/2-z
3 1/2+x,1/2+y,z
4 1/2-x,1/2+y,1/2-z
5 -x,-y,-z
6 x,-y,1/2+z
7 1/2-x,1/2-y,-z
8 1/2+x,1/2-y,1/2+z
_cell_length_a                   36.7083(8)
_cell_length_b                   11.2563(2)
_cell_length_c                   18.6415(4)
_cell_angle_alpha                90
_cell_angle_beta                 98.690(2)
_cell_angle_gamma                90
_cell_volume                     7614.24
_exptl_crystal_colour            colorless
_exptl_crystal_description       block
_cell_formula_units_Z            8
loop_
_atom_site_label
_atom_site_type_symbol
_atom_site_fract_x
_atom_site_fract_y
_atom_site_fract_z
P1 P 0.11227(2) 0.83608(3) 0.18341(2)
Si1 Si 0.15033(2) 0.59012(4) 0.24906(2)
B1 B 0.11852(5) 0.72833(16) 0.02953(9)
F1 F 0.15432(3) 0.95029(9) -0.02789(7)
F2 F 0.21120(4) 0.94830(11) -0.09890(9)
F3 F 0.24651(4) 0.74328(12) -0.12195(8)
F4 F 0.22117(4) 0.53439(11) -0.07472(7)
F5 F 0.16294(3) 0.53119(9) -0.00676(6)
F6 F 0.07629(3) 0.49997(9) 0.05239(5)
F7 F 0.02106(3) 0.40999(9) -0.04022(6)
F8 F 0.00033(3) 0.51091(10) -0.17228(6)
F9 F 0.03838(3) 0.70235(10) -0.21189(5)
F10 F 0.09223(3) 0.79882(9) -0.11898(5)
F11 F 0.12159(3) 0.63835(11) 0.39986(6)
F12 F 0.15547(4) 0.75216(12) 0.51666(6)
F13 F 0.22119(4) 0.85980(12) 0.51417(6)
F14 F 0.25359(3) 0.84983(10) 0.39249(7)
F15 F 0.22008(3) 0.73677(10) 0.27452(5)
O1 O 0.10412(3) 0.84871(9) 0.04367(6)
C1 C 0.13144(4) 0.65604(14) 0.10388(9)
H1 H 0.1397 0.5770 0.0983
C2 C 0.13206(4) 0.69331(14) 0.17275(8)
C3 C 0.11391(6) 0.48661(17) 0.26985(11)
H2 H 0.1043 0.4414 0.2262
H3 H 0.0939 0.5321 0.2860
H4 H 0.1244 0.4318 0.3084
C4 C 0.18812(6) 0.49918(17) 0.22039(10)
H5 H 0.1778 0.4448 0.1815
H6 H 0.2003 0.4532 0.2619
H7 H 0.2061 0.5517 0.2027
C5 C 0.14586(4) 0.95308(14) 0.19220(8)
C6 C 0.13657(5) 1.06772(15) 0.21249(9)
H8 H 0.1127 1.0832 0.2240
C7 C 0.16209(5) 1.15778(16) 0.21567(11)
H9 H 0.1560 1.2350 0.2305
C8 C 0.19643(6) 1.13656(19) 0.19744(12)
H10 H 0.2139 1.1992 0.1995
C9 C 0.20559(5) 1.02444(19) 0.17612(12)
H11 H 0.2293 1.0104 0.1634
C10 C 0.18042(5) 0.93237(16) 0.17321(9)
H12 H 0.1868 0.8554 0.1583
C11 C 0.08887(4) 0.83552(14) 0.26211(8)
C12 C 0.09834(5) 0.91327(15) 0.31997(9)
H13 H 0.1184 0.9664 0.3200
C13 C 0.07847(5) 0.91320(17) 0.37751(9)
H14 H 0.0847 0.9673 0.4165
C14 C 0.04973(5) 0.83517(18) 0.37840(9)
H15 H 0.0361 0.8359 0.4178
C15 C 0.04065(5) 0.75561(17) 0.32204(9)
H16 H 0.0210 0.7011 0.3231
C16 C 0.06022(5) 0.75540(15) 0.26414(9)
H17 H 0.0540 0.7003 0.2256
C17 C 0.15553(5) 0.74066(15) -0.01104(8)
C18 C 0.16997(5) 0.84375(15) -0.03631(10)
C19 C 0.19966(6) 0.84558(17) -0.07345(12)
C20 C 0.21746(5) 0.74218(19) -0.08612(11)
C21 C 0.20453(5) 0.63748(17) -0.06226(10)
C22 C 0.17442(5) 0.63890(15) -0.02642(9)
C23 C 0.08719(4) 0.65534(14) -0.02800(8)
C24 C 0.06827(5) 0.55440(14) -0.01290(8)
C25 C 0.03946(5) 0.50538(15) -0.05962(9)
C26 C 0.02879(5) 0.55634(16) -0.12648(9)
C27 C 0.04758(5) 0.65408(15) -0.14584(9)
C28 C 0.07570(5) 0.70143(14) -0.09678(9)
C29 C 0.16980(5) 0.68022(15) 0.33230(9)
C30 C 0.15445(5) 0.68891(16) 0.39558(9)
C31 C 0.17124(5) 0.74720(17) 0.45637(9)
C32 C 0.20465(5) 0.80243(17) 0.45569(10)
C33 C 0.22099(5) 0.79774(16) 0.39368(10)
C34 C 0.20328(5) 0.73812(15) 0.33421(9)
C35 C 0.08033(4) 0.86406(14) 0.09554(8)
C36 C 0.04744(4) 0.77993(15) 0.08533(8)
H18 H 0.0342 0.7877 0.0358
H19 H 0.0309 0.8000 0.1201
H20 H 0.0561 0.6980 0.0935
C37 C 0.06819(4) 0.99319(14) 0.09689(8)
C38 C 0.08644(5) 1.08056(15) 0.06362(9)
H21 H 0.1060 1.0593 0.0382
C39 C 0.07625(5) 1.19866(16) 0.06736(9)
H22 H 0.0886 1.2576 0.0436
C40 C 0.04837(6) 1.23138(17) 0.10537(10)
H23 H 0.0416 1.3125 0.1079
C41 C 0.03041(5) 1.14523(17) 0.13968(10)
H24 H 0.0114 1.1674 0.1663
C42 C 0.04007(5) 1.02691(16) 0.13542(9)
H25 H 0.0275 0.9682 0.1589
loop_
_geom_bond_atom_site_label_1
_geom_bond_atom_site_label_2
_geom_bond_site_symmetry_1
_geom_bond_site_symmetry_2
P1 C2 1_555 1_555
Si1 C2 1_555 1_555
B1 O1 1_555 1_555
F1 C18 1_555 1_555
F2 C19 1_555 1_555
F3 C20 1_555 1_555
F4 C21 1_555 1_555
F5 C22 1_555 1_555
F6 C24 1_555 1_555
F7 C25 1_555 1_555
F8 C26 1_555 1_555
F9 C27 1_555 1_555
F10 C28 1_555 1_555
F11 C30 1_555 1_555
F12 C31 1_555 1_555
F13 C32 1_555 1_555
F14 C33 1_555 1_555
F15 C34 1_555 1_555
O1 C35 1_555 1_555
C1 B1 1_555 1_555
H1 C1 1_555 1_555
C2 C1 1_555 1_555
C3 Si1 1_555 1_555
H2 C3 1_555 1_555
H3 C3 1_555 1_555
H4 C3 1_555 1_555
C4 Si1 1_555 1_555
H5 C4 1_555 1_555
H6 C4 1_555 1_555
H7 C4 1_555 1_555
C5 P1 1_555 1_555
C6 C5 1_555 1_555
H8 C6 1_555 1_555
C7 C6 1_555 1_555
H9 C7 1_555 1_555
C8 C7 1_555 1_555
H10 C8 1_555 1_555
C9 C8 1_555 1_555
H11 C9 1_555 1_555
C10 C5 1_555 1_555
H12 C10 1_555 1_555
C11 P1 1_555 1_555
C12 C11 1_555 1_555
H13 C12 1_555 1_555
C13 C12 1_555 1_555
H14 C13 1_555 1_555
C14 C13 1_555 1_555
H15 C14 1_555 1_555
C15 C14 1_555 1_555
H16 C15 1_555 1_555
C16 C11 1_555 1_555
H17 C16 1_555 1_555
C17 B1 1_555 1_555
C18 C17 1_555 1_555
C19 C18 1_555 1_555
C20 C19 1_555 1_555
C21 C20 1_555 1_555
C22 C17 1_555 1_555
C23 B1 1_555 1_555
C24 C23 1_555 1_555
C25 C24 1_555 1_555
C26 C25 1_555 1_555
C27 C26 1_555 1_555
C28 C23 1_555 1_555
C29 Si1 1_555 1_555
C30 C29 1_555 1_555
C31 C30 1_555 1_555
C32 C31 1_555 1_555
C33 C32 1_555 1_555
C34 C29 1_555 1_555
C35 P1 1_555 1_555
C36 C35 1_555 1_555
H18 C36 1_555 1_555
H19 C36 1_555 1_555
H20 C36 1_555 1_555
C37 C35 1_555 1_555
C38 C37 1_555 1_555
H21 C38 1_555 1_555
C39 C38 1_555 1_555
H22 C39 1_555 1_555
C40 C39 1_555 1_555
H23 C40 1_555 1_555
C41 C40 1_555 1_555
H24 C41 1_555 1_555
C42 C37 1_555 1_555
H25 C42 1_555 1_555
C9 C10 1_555 1_555
C15 C16 1_555 1_555
C21 C22 1_555 1_555
C27 C28 1_555 1_555
C33 C34 1_555 1_555
C41 C42 1_555 1_555

#END
