
#######################################################################
#
#                 Cambridge Crystallographic Data Centre
#                                CCDC 
#
#######################################################################
#
# If this CIF has been generated from an entry in the Cambridge 
# Structural Database, then it will include bibliographic, chemical, 
# crystal, experimental, refinement or atomic coordinate data resulting 
# from the CCDC's data processing and validation procedures.
#
#######################################################################

data_FOCDOR
_chemical_formula_moiety         'C21 H24 N2 O3'
_chemical_name_systematic        
1-Carboxymethyl-2-(hydroxy(quinolin-4-yl)methyl)-5-vinyl-1-azoniabicyclo(2.2.2)octane
_symmetry_cell_setting           orthorhombic
_symmetry_space_group_name_H-M   'P 21 21 21'
_symmetry_Int_Tables_number      19
_space_group_name_Hall           'P 2ac 2ab'
loop_
_symmetry_equiv_pos_site_id
_symmetry_equiv_pos_as_xyz
1 x,y,z
2 1/2-x,-y,1/2+z
3 -x,1/2+y,1/2-z
4 1/2+x,1/2-y,-z
_cell_length_a                   6.952(2)
_cell_length_b                   8.522(3)
_cell_length_c                   30.120(9)
_cell_angle_alpha                90
_cell_angle_beta                 90
_cell_angle_gamma                90
_cell_volume                     1784.46
_exptl_crystal_colour            colorless
_exptl_crystal_description       block
_cell_formula_units_Z            4
_exptl_crystal_recrystallization_method methanol
loop_
_atom_site_label
_atom_site_type_symbol
_atom_site_fract_x
_atom_site_fract_y
_atom_site_fract_z
O1 O 1.0239(3) 0.2076(2) 0.14997(7)
H1 H 1.1061 0.1387 0.1489
O2 O 0.3779(3) 0.0790(2) 0.16026(7)
O3 O 0.5145(3) -0.0606(2) 0.21431(7)
N1 N 0.6432(3) 0.3341(3) 0.17671(7)
N2 N 0.9635(4) 0.0636(3) -0.01265(8)
C1 C 0.7099(4) 0.2908(3) 0.12960(9)
H2 H 0.5959 0.2551 0.1134
C2 C 0.7785(4) 0.4414(3) 0.10705(9)
H3 H 0.7414 0.4401 0.0760
H4 H 0.9177 0.4476 0.1086
C3 C 0.6899(4) 0.5848(3) 0.12998(10)
H5 H 0.7071 0.6791 0.1118
C4 C 0.4767(4) 0.5514(4) 0.13731(10)
H6 H 0.4122 0.6463 0.1471
H7 H 0.4182 0.5178 0.1097
C5 C 0.4542(4) 0.4236(3) 0.17224(9)
H8 H 0.3522 0.3521 0.1636
H9 H 0.4199 0.4703 0.2005
C6 C 0.7799(4) 0.6072(3) 0.17592(10)
H10 H 0.6955 0.6758 0.1933
C7 C 0.7860(4) 0.4461(3) 0.19857(9)
H11 H 0.9148 0.4029 0.1964
H12 H 0.7546 0.4575 0.2298
C8 C 0.9762(5) 0.6803(4) 0.17446(12)
H13 H 1.0697 0.6277 0.1582
C9 C 1.0274(6) 0.8078(5) 0.19346(14)
H14 H 0.9389 0.8646 0.2101
H15 H 1.1531 0.8437 0.1906
C10 C 0.6201(4) 0.1947(3) 0.20700(9)
H16 H 0.5708 0.2327 0.2351
H17 H 0.7472 0.1521 0.2126
C11 C 0.4909(4) 0.0594(3) 0.19191(9)
C12 C 0.8580(4) 0.1570(3) 0.12745(9)
H18 H 0.8057 0.0643 0.1425
C13 C 1.0868(5) 0.1340(3) 0.01304(11)
H19 H 1.2021 0.1662 0.0003
C14 C 1.0607(4) 0.1656(3) 0.05839(10)
H20 H 1.1553 0.2182 0.0744
C15 C 0.8944(4) 0.1179(3) 0.07888(9)
C16 C 0.7573(4) 0.0337(3) 0.05291(10)
C17 C 0.7972(4) 0.0112(3) 0.00716(10)
C18 C 0.6615(5) -0.0655(4) -0.01977(10)
H21 H 0.6861 -0.0776 -0.0499
C19 C 0.4956(5) -0.1221(3) -0.00257(11)
H22 H 0.4072 -0.1723 -0.0209
C20 C 0.4573(4) -0.1050(3) 0.04256(11)
H23 H 0.3444 -0.1463 0.0543
C21 C 0.5836(4) -0.0284(3) 0.06971(10)
H24 H 0.5548 -0.0169 0.0997
loop_
_geom_bond_atom_site_label_1
_geom_bond_atom_site_label_2
_geom_bond_site_symmetry_1
_geom_bond_site_symmetry_2
O1 H1 1_555 1_555
O2 C11 1_555 1_555
O3 C11 1_555 1_555
N1 C1 1_555 1_555
N2 C13 1_555 1_555
C1 H2 1_555 1_555
C2 C1 1_555 1_555
H3 C2 1_555 1_555
H4 C2 1_555 1_555
C3 C2 1_555 1_555
H5 C3 1_555 1_555
C4 C3 1_555 1_555
H6 C4 1_555 1_555
H7 C4 1_555 1_555
C5 N1 1_555 1_555
H8 C5 1_555 1_555
H9 C5 1_555 1_555
C6 C3 1_555 1_555
H10 C6 1_555 1_555
C7 N1 1_555 1_555
H11 C7 1_555 1_555
H12 C7 1_555 1_555
C8 C6 1_555 1_555
H13 C8 1_555 1_555
C9 C8 1_555 1_555
H14 C9 1_555 1_555
H15 C9 1_555 1_555
C10 N1 1_555 1_555
H16 C10 1_555 1_555
H17 C10 1_555 1_555
C11 C10 1_555 1_555
C12 O1 1_555 1_555
H18 C12 1_555 1_555
C13 H19 1_555 1_555
C14 C13 1_555 1_555
H20 C14 1_555 1_555
C15 C12 1_555 1_555
C16 C15 1_555 1_555
C17 N2 1_555 1_555
C18 C17 1_555 1_555
H21 C18 1_555 1_555
C19 C18 1_555 1_555
H22 C19 1_555 1_555
C20 C19 1_555 1_555
H23 C20 1_555 1_555
C21 C16 1_555 1_555
H24 C21 1_555 1_555
C1 C12 1_555 1_555
C4 C5 1_555 1_555
C6 C7 1_555 1_555
C14 C15 1_555 1_555
C16 C17 1_555 1_555
C20 C21 1_555 1_555

#END
