
#######################################################################
#
#                 Cambridge Crystallographic Data Centre
#                                CCDC 
#
#######################################################################
#
# If this CIF has been generated from an entry in the Cambridge 
# Structural Database, then it will include bibliographic, chemical, 
# crystal, experimental, refinement or atomic coordinate data resulting 
# from the CCDC's data processing and validation procedures.
#
#######################################################################

data_FOCFIN
_chemical_formula_moiety         'C10 H8 N2 O4'
_chemical_name_systematic        N-(4-Nitrophenyl)phthalimide
_symmetry_cell_setting           monoclinic
_symmetry_space_group_name_H-M   'C 2/c'
_symmetry_Int_Tables_number      15
_space_group_name_Hall           '-C 2yn'
loop_
_symmetry_equiv_pos_site_id
_symmetry_equiv_pos_as_xyz
1 x,y,z
2 1/2+x,1/2+y,z
3 -x,y,1/2-z
4 1/2-x,1/2+y,1/2-z
5 -x,-y,-z
6 1/2-x,1/2-y,-z
7 x,-y,1/2+z
8 1/2+x,1/2-y,1/2+z
_cell_length_a                   10.3731(19)
_cell_length_b                   11.590(2)
_cell_length_c                   7.9761(18)
_cell_angle_alpha                90
_cell_angle_beta                 108.135(16)
_cell_angle_gamma                90
_cell_volume                     911.287
_exptl_crystal_colour            colorless
_exptl_crystal_description       lath
_cell_formula_units_Z            4
_exptl_crystal_recrystallization_method ethanol
loop_
_atom_site_label
_atom_site_type_symbol
_atom_site_fract_x
_atom_site_fract_y
_atom_site_fract_z
N1 N 0.5000 0.3039(2) 0.7500
C1 C 0.3822(3) 0.2363(2) 0.7179(3)
O1 O 0.27027(16) 0.27500(13) 0.6969(2)
C2 C 0.4229(2) 0.11216(19) 0.7119(3)
C3 C 0.5000 0.4274(3) 0.7500
C4 C 0.4011(2) 0.4868(2) 0.6205(3)
C5 C 0.4002(2) 0.6061(2) 0.6206(3)
C6 C 0.5000 0.6629(3) 0.7500
N2 N 0.5000 0.7896(2) 0.7500
O2 O 0.44363(17) 0.84004(14) 0.6103(2)
H1 H 0.3937 0.0831 0.5891
H2 H 0.3820 0.0632 0.7837
H3 H 0.3343 0.4455 0.5320
H4 H 0.3327 0.6479 0.5339
C1B C 0.6178(3) 0.2363(2) 0.7821(3)
O1B O 0.72973(16) 0.27500(13) 0.8031(2)
C2B C 0.5771(2) 0.11216(19) 0.7881(3)
C4B C 0.5989(2) 0.4868(2) 0.8795(3)
C5B C 0.5998(2) 0.6061(2) 0.8794(3)
O2B O 0.55637(17) 0.84004(14) 0.8897(2)
H1B H 0.6063 0.0831 0.9109
H2B H 0.6180 0.0632 0.7163
H3B H 0.6657 0.4455 0.9680
H4B H 0.6673 0.6479 0.9661
loop_
_geom_bond_atom_site_label_1
_geom_bond_atom_site_label_2
_geom_bond_site_symmetry_1
_geom_bond_site_symmetry_2
N1 C1 1_555 1_555
C1 O1 1_555 1_555
C2 C1 1_555 1_555
C3 N1 1_555 1_555
C4 C3 1_555 1_555
C5 C4 1_555 1_555
C6 C5 1_555 1_555
N2 C6 1_555 1_555
O2 N2 1_555 1_555
H1 C2 1_555 1_555
H2 C2 1_555 1_555
H3 C4 1_555 1_555
H4 C5 1_555 1_555
C1B N1 1_555 1_555
O1B C1B 1_555 1_555
C2B C2 1_555 1_555
C4B C3 1_555 1_555
C5B C6 1_555 1_555
O2B N2 1_555 1_555
H1B C2B 1_555 1_555
H2B C2B 1_555 1_555
H3B C4B 1_555 1_555
H4B C5B 1_555 1_555
C1B C2B 1_555 1_555
C4B C5B 1_555 1_555

#END
