
#######################################################################
#
#                 Cambridge Crystallographic Data Centre
#                                CCDC 
#
#######################################################################
#
# If this CIF has been generated from an entry in the Cambridge 
# Structural Database, then it will include bibliographic, chemical, 
# crystal, experimental, refinement or atomic coordinate data resulting 
# from the CCDC's data processing and validation procedures.
#
#######################################################################

data_FOCFOT
_chemical_formula_moiety         
'2(Na1 1+),C9 H12 N3 O8 P1 2-,6.07(H2 O1),0.27(C1 H4 O1)'
_chemical_name_systematic        
"Di-sodium cytidine-5'-monophosphate hydrate methanol solvate"
_symmetry_cell_setting           orthorhombic
_symmetry_space_group_name_H-M   'P 21 21 21'
_symmetry_Int_Tables_number      19
_space_group_name_Hall           'P 2ac 2ab'
loop_
_symmetry_equiv_pos_site_id
_symmetry_equiv_pos_as_xyz
1 x,y,z
2 1/2-x,-y,1/2+z
3 -x,1/2+y,1/2-z
4 1/2+x,1/2-y,-z
_cell_length_a                   8.97500(10)
_cell_length_b                   20.4196(3)
_cell_length_c                   21.9152(4)
_cell_angle_alpha                90
_cell_angle_beta                 90
_cell_angle_gamma                90
_cell_volume                     4016.31
_exptl_crystal_colour            colorless
_exptl_crystal_description       plate
_cell_formula_units_Z            8
loop_
_atom_site_label
_atom_site_type_symbol
_atom_site_fract_x
_atom_site_fract_y
_atom_site_fract_z
C1 C 0.49350(9) 0.72201(4) 0.85400(4)
C2 C 0.38572(9) 0.77811(4) 0.77263(4)
C3 C 0.43060(10) 0.72846(4) 0.73028(4)
H1 H 0.4074 0.7315 0.6881
C4 C 0.50730(10) 0.67716(4) 0.75304(4)
H2 H 0.5402 0.6435 0.7263
O1 O 0.52375(9) 0.71824(4) 0.90964(3)
N1 N 0.53853(8) 0.67282(3) 0.81415(3)
N2 N 0.41430(8) 0.77317(4) 0.83231(4)
N3 N 0.31536(10) 0.83213(4) 0.75339(4)
H3 H 0.2898 0.8627 0.7797
H4 H 0.2947 0.8371 0.7144
C5 C 0.62674(9) 0.61751(4) 0.83637(3)
H5 H 0.6569 0.6256 0.8797
C6 C 0.54754(8) 0.55129(4) 0.83165(4)
H6 H 0.4851 0.5498 0.7939
C7 C 0.67951(9) 0.50365(4) 0.82586(4)
H7 H 0.6513 0.4642 0.8015
C8 C 0.79730(9) 0.54503(4) 0.79218(4)
H8 H 0.8963 0.5380 0.8121
C9 C 0.81163(9) 0.53046(5) 0.72466(4)
H9 H 0.8765 0.5635 0.7051
H10 H 0.8574 0.4868 0.7188
O2 O 0.45812(8) 0.54106(4) 0.88350(3)
H11 H 0.371(2) 0.5208(10) 0.8775(9)
O3 O 0.72464(9) 0.48584(4) 0.88566(3)
H12 H 0.803(3) 0.4708(11) 0.8836(10)
O4 O 0.75518(7) 0.61290(3) 0.79936(3)
O5 O 0.66684(7) 0.53181(3) 0.69733(3)
P1 P 0.64623(2) 0.495991(9) 0.631654(9)
O6 O 0.74260(7) 0.53240(3) 0.58556(3)
O7 O 0.48138(7) 0.50387(3) 0.61858(3)
O8 O 0.69538(7) 0.42527(3) 0.64020(3)
C10 C 1.00138(9) 0.70258(4) 0.85807(3)
C11 C 1.11409(8) 0.64070(4) 0.78193(3)
C12 C 1.07874(10) 0.68881(4) 0.73652(4)
H13 H 1.1086 0.6836 0.6952
C13 C 1.00121(10) 0.74183(4) 0.75495(4)
H14 H 0.9735 0.7743 0.7260
O9 O 0.96468(9) 0.71213(3) 0.91256(3)
N4 N 0.96210(8) 0.74935(3) 0.81490(3)
N5 N 1.07851(8) 0.64882(3) 0.84094(3)
N6 N 1.18284(9) 0.58559(4) 0.76548(3)
H15 H 1.2038 0.5556 0.7930
H16 H 1.2073 0.5792 0.7271
C14 C 0.86728(9) 0.80420(3) 0.83229(3)
H17 H 0.8319 0.7982 0.8752
C15 C 0.93997(8) 0.87159(4) 0.82550(3)
H18 H 1.0023 0.8733 0.7877
C16 C 0.80127(9) 0.91463(4) 0.81837(4)
H19 H 0.8236 0.9566 0.7968
C17 C 0.69507(8) 0.87068(4) 0.78160(3)
H20 H 0.5922 0.8758 0.7985
C18 C 0.68987(9) 0.88359(4) 0.71382(4)
H21 H 0.6304 0.8491 0.6934
H22 H 0.6415 0.9264 0.7060
O10 O 1.02664(7) 0.88676(3) 0.87732(3)
H23 H 1.108(2) 0.9021(9) 0.8661(9)
O11 O 0.74502(8) 0.92514(4) 0.87805(3)
H24 H 0.669(2) 0.9447(10) 0.8745(9)
O12 O 0.74354(7) 0.80415(3) 0.79190(3)
O13 O 0.83833(7) 0.88401(3) 0.68948(3)
P2 P 0.86249(2) 0.923675(10) 0.626083(9)
O14 O 1.02850(7) 0.91784(3) 0.61431(3)
O15 O 0.76995(8) 0.89015(3) 0.57705(3)
O16 O 0.81160(7) 0.99362(3) 0.63757(3)
O17 O 0.18181(9) 0.35737(4) 0.47733(4)
H25 H 0.111(2) 0.3485(10) 0.4540(10)
H26 H 0.224(2) 0.3221(11) 0.4870(10)
O18 O 0.27545(9) 0.59749(4) 0.63812(4)
H27 H 0.208(2) 0.5900(11) 0.6217(10)
H28 H 0.345(2) 0.5716(11) 0.6368(10)
O19 O 0.02385(10) 0.56995(6) 0.56850(4)
H29 H -0.061(3) 0.5619(13) 0.5796(11)
H30 H 0.021(3) 0.5808(13) 0.5331(12)
O20 O 0.31461(9) 0.50441(4) 0.50672(3)
H31 H 0.371(2) 0.5069(10) 0.5372(9)
H32 H 0.298(2) 0.5377(10) 0.4937(9)
O21 O -0.14707(9) 0.45134(4) 0.49768(3)
H33 H -0.145(2) 0.4696(10) 0.4639(8)
H34 H -0.186(2) 0.4798(10) 0.5225(8)
O22 O 0.80948(10) 0.26988(4) 0.51857(4)
H35 H 0.840(3) 0.2748(11) 0.4841(10)
H36 H 0.889(3) 0.2597(11) 0.5398(9)
O23 O 0.57803(9) 0.38825(4) 0.48666(4)
H37 H 0.577(2) 0.3533(10) 0.4659(10)
H38 H 0.648(2) 0.4101(9) 0.4807(10)
O24 O 0.42070(17) 0.69930(5) 0.56888(5)
H39 H 0.471(3) 0.6760(14) 0.5441(13)
H40 H 0.367(3) 0.6767(14) 0.5860(13)
O25 O 0.13061(9) 0.87565(3) 0.49615(3)
H41 H 0.152(2) 0.9036(10) 0.4746(8)
H42 H 0.086(2) 0.8964(10) 0.5272(8)
O26 O 0.47421(10) 0.88794(5) 0.55296(5)
H43 H 0.455(3) 0.9140(13) 0.5661(12)
H44 H 0.572(3) 0.8830(12) 0.5609(12)
O29 O 0.2600(8) 0.8361(3) 0.6274(3)
O32 O 0.3512(5) 0.74604(14) 0.43073(14)
C19 C 0.2584(4) 0.77267(16) 0.38292(15)
Na1 Na 0.36712(5) 0.42342(2) 0.431472(18)
Na2 Na 0.63946(7) 0.33434(2) 0.57762(2)
Na3 Na 0.09597(5) 0.44265(2) 0.540733(19)
Na4 Na 0.31314(6) 0.79549(2) 0.53142(2)
O27? O 0.2000(2) 0.81398(8) 0.63280(8)
O28? O 0.1528(3) 0.79392(14) 0.61870(13)
O30? O 0.0891(7) 0.7229(3) 0.5673(3)
O31? O 0.0190(4) 0.71299(14) 0.58135(14)
O33? O 0.2389(3) 0.73922(9) 0.43829(8)
O34? O 0.3016(8) 0.74103(19) 0.43757(19)
Na5? Na 0.2273(5) 0.7715(2) 0.5368(2)
loop_
_geom_bond_atom_site_label_1
_geom_bond_atom_site_label_2
_geom_bond_site_symmetry_1
_geom_bond_site_symmetry_2
C1 O1 1_555 1_555
C2 C3 1_555 1_555
C3 H1 1_555 1_555
C4 C3 1_555 1_555
H2 C4 1_555 1_555
N1 C1 1_555 1_555
N2 C1 1_555 1_555
N3 C2 1_555 1_555
H3 N3 1_555 1_555
H4 N3 1_555 1_555
C5 N1 1_555 1_555
H5 C5 1_555 1_555
C6 C5 1_555 1_555
H6 C6 1_555 1_555
C7 C6 1_555 1_555
H7 C7 1_555 1_555
C8 C7 1_555 1_555
H8 C8 1_555 1_555
C9 C8 1_555 1_555
H9 C9 1_555 1_555
H10 C9 1_555 1_555
O2 C6 1_555 1_555
H11 O2 1_555 1_555
O3 C7 1_555 1_555
H12 O3 1_555 1_555
O4 C5 1_555 1_555
O5 C9 1_555 1_555
P1 O5 1_555 1_555
O6 P1 1_555 1_555
O7 P1 1_555 1_555
O8 P1 1_555 1_555
C10 O9 1_555 1_555
C11 C12 1_555 1_555
C12 H13 1_555 1_555
C13 C12 1_555 1_555
H14 C13 1_555 1_555
N4 C10 1_555 1_555
N5 C10 1_555 1_555
N6 C11 1_555 1_555
H15 N6 1_555 1_555
H16 N6 1_555 1_555
C14 N4 1_555 1_555
H17 C14 1_555 1_555
C15 C14 1_555 1_555
H18 C15 1_555 1_555
C16 C15 1_555 1_555
H19 C16 1_555 1_555
C17 C16 1_555 1_555
H20 C17 1_555 1_555
C18 C17 1_555 1_555
H21 C18 1_555 1_555
H22 C18 1_555 1_555
O10 C15 1_555 1_555
H23 O10 1_555 1_555
O11 C16 1_555 1_555
H24 O11 1_555 1_555
O12 C14 1_555 1_555
O13 C18 1_555 1_555
P2 O13 1_555 1_555
O14 P2 1_555 1_555
O15 P2 1_555 1_555
O16 P2 1_555 1_555
O17 H25 1_555 1_555
H26 O17 1_555 1_555
O18 H27 1_555 1_555
H28 O18 1_555 1_555
O19 H29 1_555 1_555
H30 O19 1_555 1_555
O20 H31 1_555 1_555
H32 O20 1_555 1_555
O21 H33 1_555 1_555
H34 O21 1_555 1_555
O22 H35 1_555 1_555
H36 O22 1_555 1_555
O23 H37 1_555 1_555
H38 O23 1_555 1_555
O24 H39 1_555 1_555
H40 O24 1_555 1_555
O25 H41 1_555 1_555
H42 O25 1_555 1_555
O26 H43 1_555 1_555
H44 O26 1_555 1_555
O32 C19 1_555 1_555
C2 N2 1_555 1_555
C4 N1 1_555 1_555
C8 O4 1_555 1_555
C11 N5 1_555 1_555
C13 N4 1_555 1_555
C17 O12 1_555 1_555

#END
