
#######################################################################
#
#                 Cambridge Crystallographic Data Centre
#                                CCDC 
#
#######################################################################
#
# If this CIF has been generated from an entry in the Cambridge 
# Structural Database, then it will include bibliographic, chemical, 
# crystal, experimental, refinement or atomic coordinate data resulting 
# from the CCDC's data processing and validation procedures.
#
#######################################################################

data_FODBUW
_chemical_formula_moiety         'C29 H27 O4 P1'
_chemical_name_systematic        
(4R,5R)-4,5-Dihydroxy-1,5-diphenyl-2-(diphenylphosphinoyl)pentan-1-one
_symmetry_cell_setting           orthorhombic
_symmetry_space_group_name_H-M   'P 21 21 21'
_symmetry_Int_Tables_number      19
_space_group_name_Hall           'P 2ac 2ab'
loop_
_symmetry_equiv_pos_site_id
_symmetry_equiv_pos_as_xyz
1 x,y,z
2 1/2-x,-y,1/2+z
3 1/2+x,1/2-y,-z
4 -x,1/2+y,1/2-z
_cell_length_a                   10.7399(6)
_cell_length_b                   12.8444(8)
_cell_length_c                   17.6182(11)
_cell_angle_alpha                90
_cell_angle_beta                 90
_cell_angle_gamma                90
_cell_volume                     2430.39
_cell_formula_units_Z            4
_exptl_crystal_recrystallization_method 'ethyl acetate/hexanes'
loop_
_atom_site_label
_atom_site_type_symbol
_atom_site_fract_x
_atom_site_fract_y
_atom_site_fract_z
P1 P 0.3257(3) 0.8430(2) 0.59732(16)
O1 O 0.4375(8) 0.7553(6) 0.4402(4)
O2 O 0.1979(8) 0.5776(6) 0.4294(4)
H1 H 0.119(7) 0.603(10) 0.413(6)
O3 O 0.1308(9) 0.3915(7) 0.4851(5)
H2 H 0.123(13) 0.411(11) 0.438(8)
O4 O 0.4616(7) 0.8633(6) 0.5954(4)
C1 C 0.3282(12) 0.7777(9) 0.4495(6)
C2 C 0.2682(10) 0.7502(9) 0.5257(6)
H3 H 0.1765 0.7618 0.5204
C3 C 0.2880(11) 0.6314(8) 0.5454(6)
H4 H 0.3711 0.6090 0.5273
H5 H 0.2855 0.6220 0.6011
C4 C 0.1920(11) 0.5657(8) 0.5102(5)
H6 H 0.1079 0.5876 0.5287
C5 C 0.2129(11) 0.4509(9) 0.5289(6)
H7 H 0.3005 0.4314 0.5159
C6 C 0.2576(10) 0.8324(9) 0.3892(6)
C7 C 0.1308(12) 0.8503(11) 0.3925(7)
H8 H 0.0853 0.8330 0.4370
C8 C 0.0695(13) 0.8940(11) 0.3302(7)
H9 H -0.0177 0.9062 0.3328
C9 C 0.1325(12) 0.9194(11) 0.2658(7)
H10 H 0.0900 0.9484 0.2235
C10 C 0.2579(13) 0.9024(13) 0.2630(8)
H11 H 0.3030 0.9207 0.2186
C11 C 0.3202(13) 0.8590(11) 0.3239(7)
H12 H 0.4074 0.8474 0.3206
C12 C 0.1903(12) 0.4302(9) 0.6125(6)
C13 C 0.2873(12) 0.4060(10) 0.6607(7)
H13 H 0.3685 0.3969 0.6404
C14 C 0.2687(14) 0.3949(13) 0.7374(8)
H14 H 0.3371 0.3791 0.7697
C15 C 0.1519(14) 0.4063(11) 0.7678(7)
H15 H 0.1387 0.3994 0.8208
C16 C 0.0549(14) 0.4279(11) 0.7200(7)
H16 H -0.0266 0.4351 0.7402
C17 C 0.0734(12) 0.4392(10) 0.6427(7)
H17 H 0.0046 0.4534 0.6105
C18 C 0.2780(12) 0.7934(9) 0.6890(6)
C19 C 0.1665(13) 0.7443(10) 0.7030(6)
H18 H 0.1096 0.7340 0.6625
C20 C 0.1355(12) 0.7099(10) 0.7742(7)
H19 H 0.0585 0.6754 0.7827
C21 C 0.2167(14) 0.7257(11) 0.8331(7)
H20 H 0.1953 0.7033 0.8828
C22 C 0.3286(15) 0.7737(12) 0.8205(7)
H21 H 0.3853 0.7834 0.8612
C23 C 0.3594(13) 0.8081(10) 0.7482(7)
H22 H 0.4368 0.8419 0.7397
C24 C 0.2369(12) 0.9598(9) 0.5784(6)
C25 C 0.1092(12) 0.9635(10) 0.5882(6)
H23 H 0.0652 0.9031 0.6040
C26 C 0.0453(14) 1.0558(11) 0.5748(7)
H24 H -0.0423 1.0578 0.5822
C27 C 0.1054(16) 1.1434(11) 0.5512(7)
H25 H 0.0606 1.2061 0.5423
C28 C 0.2322(17) 1.1393(12) 0.5403(8)
H26 H 0.2749 1.1996 0.5230
C29 C 0.2998(13) 1.0477(10) 0.5545(6)
H27 H 0.3875 1.0462 0.5477
loop_
_geom_bond_atom_site_label_1
_geom_bond_atom_site_label_2
_geom_bond_site_symmetry_1
_geom_bond_site_symmetry_2
P1 O4 1_555 1_555
O1 C1 1_555 1_555
O2 H1 1_555 1_555
O3 H2 1_555 1_555
C1 C2 1_555 1_555
C2 P1 1_555 1_555
H3 C2 1_555 1_555
C3 C2 1_555 1_555
H4 C3 1_555 1_555
H5 C3 1_555 1_555
C4 O2 1_555 1_555
H6 C4 1_555 1_555
C5 O3 1_555 1_555
H7 C5 1_555 1_555
C6 C1 1_555 1_555
C7 C6 1_555 1_555
H8 C7 1_555 1_555
C8 C7 1_555 1_555
H9 C8 1_555 1_555
C9 C8 1_555 1_555
H10 C9 1_555 1_555
C10 C9 1_555 1_555
H11 C10 1_555 1_555
C11 C6 1_555 1_555
H12 C11 1_555 1_555
C12 C5 1_555 1_555
C13 C12 1_555 1_555
H13 C13 1_555 1_555
C14 C13 1_555 1_555
H14 C14 1_555 1_555
C15 C14 1_555 1_555
H15 C15 1_555 1_555
C16 C15 1_555 1_555
H16 C16 1_555 1_555
C17 C12 1_555 1_555
H17 C17 1_555 1_555
C18 P1 1_555 1_555
C19 C18 1_555 1_555
H18 C19 1_555 1_555
C20 C19 1_555 1_555
H19 C20 1_555 1_555
C21 C20 1_555 1_555
H20 C21 1_555 1_555
C22 C21 1_555 1_555
H21 C22 1_555 1_555
C23 C18 1_555 1_555
H22 C23 1_555 1_555
C24 P1 1_555 1_555
C25 C24 1_555 1_555
H23 C25 1_555 1_555
C26 C25 1_555 1_555
H24 C26 1_555 1_555
C27 C26 1_555 1_555
H25 C27 1_555 1_555
C28 C27 1_555 1_555
H26 C28 1_555 1_555
C29 C24 1_555 1_555
H27 C29 1_555 1_555
C3 C4 1_555 1_555
C4 C5 1_555 1_555
C10 C11 1_555 1_555
C16 C17 1_555 1_555
C22 C23 1_555 1_555
C28 C29 1_555 1_555

#END
