
#######################################################################
#
#                 Cambridge Crystallographic Data Centre
#                                CCDC 
#
#######################################################################
#
# If this CIF has been generated from an entry in the Cambridge 
# Structural Database, then it will include bibliographic, chemical, 
# crystal, experimental, refinement or atomic coordinate data resulting 
# from the CCDC's data processing and validation procedures.
#
#######################################################################

data_FODKOA
_chemical_formula_moiety         'C24 H14 N4 S4'
_chemical_name_systematic        
4,5-bis(2-methyl-1-benzothiophen-3-yl)[1,2,5]thiadiazolo[3,4-e][2,1,3]benzothiadiazole
_symmetry_cell_setting           monoclinic
_symmetry_space_group_name_H-M   'C 2/c'
_symmetry_Int_Tables_number      15
_space_group_name_Hall           '-C 2yn'
loop_
_symmetry_equiv_pos_site_id
_symmetry_equiv_pos_as_xyz
1 x,y,z
2 -x,y,1/2-z
3 1/2+x,1/2+y,z
4 1/2-x,1/2+y,1/2-z
5 -x,-y,-z
6 x,-y,1/2+z
7 1/2-x,1/2-y,-z
8 1/2+x,1/2-y,1/2+z
_cell_length_a                   31.814(4)
_cell_length_b                   7.0044(9)
_cell_length_c                   20.848(2)
_cell_angle_alpha                90
_cell_angle_beta                 113.394(9)
_cell_angle_gamma                90
_cell_volume                     4263.83
_exptl_crystal_colour            colorless
_exptl_crystal_description       block
_cell_formula_units_Z            8
loop_
_atom_site_label
_atom_site_type_symbol
_atom_site_fract_x
_atom_site_fract_y
_atom_site_fract_z
N1 N 0.3180(2) 0.7991(7) 0.2229(3)
N2 N 0.2344(2) 0.7829(8) 0.1974(3)
N3 N 0.2655(2) 0.7728(8) 0.4418(3)
N4 N 0.2048(2) 0.7615(8) 0.3199(3)
S1 S 0.47678(7) 0.8680(3) 0.38437(9)
S2 S 0.42682(7) 0.7840(2) 0.60331(9)
S3 S 0.26942(7) 0.7907(2) 0.15706(8)
S4 S 0.20991(7) 0.7531(2) 0.40089(9)
C1 C 0.4550(3) 0.6559(9) 0.3417(4)
C2 C 0.4783(3) 0.5186(11) 0.3182(4)
H1 H 0.5093 0.5371 0.3246
C3 C 0.4548(3) 0.3589(11) 0.2859(3)
H2 H 0.4702 0.2631 0.2712
C4 C 0.4091(3) 0.3326(9) 0.2741(3)
H3 H 0.3935 0.2210 0.2506
C5 C 0.3857(3) 0.4692(9) 0.2964(3)
H4 H 0.3546 0.4496 0.2893
C6 C 0.4086(2) 0.6338(9) 0.3290(3)
C7 C 0.3926(3) 0.7928(9) 0.3584(3)
C8 C 0.4247(2) 0.9255(9) 0.3895(3)
C9 C 0.4220(3) 1.1040(9) 0.4263(3)
H5 H 0.3899 1.1445 0.4103
H6 H 0.4399 1.2044 0.4161
H7 H 0.4343 1.0807 0.4768
C10 C 0.3437(3) 0.7973(8) 0.3507(3)
C11 C 0.3091(3) 0.7916(8) 0.2816(3)
C12 C 0.2607(2) 0.7850(8) 0.2640(3)
C13 C 0.2478(3) 0.7785(8) 0.3234(4)
C14 C 0.2817(2) 0.7880(8) 0.3904(3)
C15 C 0.3312(2) 0.8041(8) 0.4075(3)
C16 C 0.3627(2) 0.8277(8) 0.4810(3)
C17 C 0.3591(3) 0.9909(9) 0.5214(3)
C18 C 0.3295(3) 1.1462(10) 0.5001(4)
H8 H 0.3067 1.1530 0.4539
C19 C 0.3343(3) 1.2920(10) 0.5483(4)
H9 H 0.3142 1.3985 0.5342
C20 C 0.3667(3) 1.2867(10) 0.6145(4)
H10 H 0.3687 1.3891 0.6454
C21 C 0.3973(3) 1.1330(11) 0.6382(4)
H11 H 0.4199 1.1278 0.6845
C22 C 0.3925(3) 0.9863(9) 0.5892(4)
C23 C 0.3970(3) 0.7099(9) 0.5180(3)
C24 C 0.4114(3) 0.5264(9) 0.4936(4)
H12 H 0.3872 0.4862 0.4492
H13 H 0.4162 0.4264 0.5287
H14 H 0.4398 0.5480 0.4870
loop_
_geom_bond_atom_site_label_1
_geom_bond_atom_site_label_2
_geom_bond_site_symmetry_1
_geom_bond_site_symmetry_2
N1 S3 1_555 1_555
N2 S3 1_555 1_555
N3 S4 1_555 1_555
N4 S4 1_555 1_555
S1 C1 1_555 1_555
S2 C22 1_555 1_555
C1 C2 1_555 1_555
C2 H1 1_555 1_555
C3 C2 1_555 1_555
H2 C3 1_555 1_555
C4 C3 1_555 1_555
H3 C4 1_555 1_555
C5 C4 1_555 1_555
H4 C5 1_555 1_555
C6 C1 1_555 1_555
C7 C6 1_555 1_555
C8 S1 1_555 1_555
C9 C8 1_555 1_555
H5 C9 1_555 1_555
H6 C9 1_555 1_555
H7 C9 1_555 1_555
C10 C7 1_555 1_555
C11 N1 1_555 1_555
C12 N2 1_555 1_555
C13 N4 1_555 1_555
C14 N3 1_555 1_555
C15 C10 1_555 1_555
C16 C15 1_555 1_555
C17 C16 1_555 1_555
C18 C17 1_555 1_555
H8 C18 1_555 1_555
C19 C18 1_555 1_555
H9 C19 1_555 1_555
C20 C19 1_555 1_555
H10 C20 1_555 1_555
C21 C20 1_555 1_555
H11 C21 1_555 1_555
C22 C17 1_555 1_555
C23 S2 1_555 1_555
C24 C23 1_555 1_555
H12 C24 1_555 1_555
H13 C24 1_555 1_555
H14 C24 1_555 1_555
C5 C6 1_555 1_555
C7 C8 1_555 1_555
C10 C11 1_555 1_555
C11 C12 1_555 1_555
C12 C13 1_555 1_555
C13 C14 1_555 1_555
C14 C15 1_555 1_555
C16 C23 1_555 1_555
C21 C22 1_555 1_555

#END
