
#######################################################################
#
#                 Cambridge Crystallographic Data Centre
#                                CCDC 
#
#######################################################################
#
# If this CIF has been generated from an entry in the Cambridge 
# Structural Database, then it will include bibliographic, chemical, 
# crystal, experimental, refinement or atomic coordinate data resulting 
# from the CCDC's data processing and validation procedures.
#
#######################################################################

data_FODKUG
_chemical_formula_moiety         'C24 H12 N6 O4 S4,0.5(C1 H2 Cl2)'
_chemical_name_systematic        
'4,5-bis(2-methyl-6-nitro-1-benzothiophen-3-yl)[1,2,5]thiadiazolo[3,4-e][2,1,3]benzothiadiazole dichloromethane solvate'
_symmetry_cell_setting           monoclinic
_symmetry_space_group_name_H-M   'C 2/c'
_symmetry_Int_Tables_number      15
_space_group_name_Hall           '-C 2yn'
loop_
_symmetry_equiv_pos_site_id
_symmetry_equiv_pos_as_xyz
1 x,y,z
2 -x,y,1/2-z
3 1/2+x,1/2+y,z
4 1/2-x,1/2+y,1/2-z
5 -x,-y,-z
6 x,-y,1/2+z
7 1/2-x,1/2-y,-z
8 1/2+x,1/2-y,1/2+z
_cell_length_a                   27.499(4)
_cell_length_b                   13.387(2)
_cell_length_c                   16.334(2)
_cell_angle_alpha                90
_cell_angle_beta                 118.596(3)
_cell_angle_gamma                90
_cell_volume                     5279.53
_cell_formula_units_Z            8
loop_
_atom_site_label
_atom_site_type_symbol
_atom_site_fract_x
_atom_site_fract_y
_atom_site_fract_z
Cl1 Cl 0.55947(5) 0.89714(11) 0.30595(8)
C1 C 0.5000 0.9707(5) 0.2500
H1 H 0.5030 1.0133 0.2045
H1A H 0.4970 1.0133 0.2955
Cl1A Cl 0.44053(5) 0.89714(11) 0.19405(8)
N1 N 0.07111(11) 0.4586(2) 0.0480(2)
N2 N 0.57828(14) 0.6114(3) 0.3916(3)
N3 N 0.41684(11) 0.6882(2) 0.58310(18)
N4 N 0.37009(11) 0.8200(2) 0.62812(19)
N5 N 0.25691(11) 0.89795(19) 0.47947(19)
N6 N 0.21821(10) 0.83019(18) 0.31847(18)
O1 O 0.06298(11) 0.4262(2) -0.02745(19)
O2 O 0.04128(10) 0.4417(2) 0.08215(19)
O3 O 0.58958(14) 0.5400(3) 0.3582(3)
O4 O 0.60865(14) 0.6850(3) 0.4256(3)
S1 S 0.24235(3) 0.66212(6) 0.07835(5)
S2 S 0.40232(3) 0.42389(6) 0.36025(6)
S3 S 0.42558(4) 0.75230(9) 0.67313(6)
S4 S 0.20319(3) 0.91028(6) 0.37749(6)
C2 C 0.33409(15) 0.7696(3) 0.2057(3)
H3 H 0.3495 0.8003 0.2661
H4 H 0.3225 0.8205 0.1586
H5 H 0.3616 0.7282 0.2023
C3 C 0.28548(12) 0.7074(2) 0.1900(2)
C4 C 0.26759(11) 0.6820(2) 0.25199(19)
C5 C 0.21644(11) 0.6263(2) 0.20889(19)
C6 C 0.19844(13) 0.6079(2) 0.11364(19)
C7 C 0.15107(13) 0.5525(2) 0.0594(2)
H6 H 0.1398 0.5386 -0.0030
C8 C 0.12135(12) 0.5187(2) 0.1029(2)
C9 C 0.13693(13) 0.5381(2) 0.1959(2)
H7 H 0.1152 0.5157 0.2218
C10 C 0.18485(12) 0.5907(2) 0.2490(2)
H8 H 0.1963 0.6027 0.3117
C11 C 0.30861(14) 0.4518(3) 0.3807(2)
H9 H 0.2916 0.4984 0.4039
H10 H 0.3201 0.3935 0.4197
H11 H 0.2825 0.4329 0.3182
C12 C 0.35747(12) 0.4989(2) 0.38129(18)
C13 C 0.37499(12) 0.5951(2) 0.39906(19)
C14 C 0.42729(12) 0.6114(2) 0.4003(2)
C15 C 0.44664(12) 0.5232(2) 0.37866(19)
C16 C 0.49638(13) 0.5224(3) 0.3745(2)
H12 H 0.5093 0.4646 0.3598
C17 C 0.52497(13) 0.6102(3) 0.3932(2)
C18 C 0.50763(15) 0.6985(3) 0.4162(3)
H13 H 0.5287 0.7563 0.4290
C19 C 0.45849(14) 0.6983(3) 0.4196(3)
H14 H 0.4462 0.7565 0.4349
C20 C 0.29523(11) 0.7136(2) 0.35162(18)
C21 C 0.34430(11) 0.6766(2) 0.41785(19)
C22 C 0.36831(11) 0.7171(2) 0.51240(19)
C23 C 0.34201(12) 0.7923(2) 0.5393(2)
C24 C 0.28923(12) 0.8293(2) 0.4697(2)
C25 C 0.26692(11) 0.7898(2) 0.37732(19)
H2? H 0.5030 1.0133 0.2045
loop_
_geom_bond_atom_site_label_1
_geom_bond_atom_site_label_2
_geom_bond_site_symmetry_1
_geom_bond_site_symmetry_2
Cl1 C1 1_555 1_555
C1 H1 1_555 1_555
N1 O1 1_555 1_555
N2 O3 1_555 1_555
N3 S3 1_555 1_555
N4 S3 1_555 1_555
N5 S4 1_555 1_555
N6 S4 1_555 1_555
O2 N1 1_555 1_555
O4 N2 1_555 1_555
S1 C3 1_555 1_555
S2 C12 1_555 1_555
C2 H3 1_555 1_555
H4 C2 1_555 1_555
H5 C2 1_555 1_555
C3 C2 1_555 1_555
C4 C3 1_555 1_555
C5 C4 1_555 1_555
C6 S1 1_555 1_555
C7 C6 1_555 1_555
H6 C7 1_555 1_555
C8 N1 1_555 1_555
C9 C8 1_555 1_555
H7 C9 1_555 1_555
C10 C5 1_555 1_555
H8 C10 1_555 1_555
C11 H9 1_555 1_555
H10 C11 1_555 1_555
H11 C11 1_555 1_555
C12 C11 1_555 1_555
C13 C12 1_555 1_555
C14 C13 1_555 1_555
C15 S2 1_555 1_555
C16 C15 1_555 1_555
H12 C16 1_555 1_555
C17 N2 1_555 1_555
C18 C17 1_555 1_555
H13 C18 1_555 1_555
C19 C14 1_555 1_555
H14 C19 1_555 1_555
C20 C4 1_555 1_555
C21 C13 1_555 1_555
C22 N3 1_555 1_555
C23 N4 1_555 1_555
C24 N5 1_555 1_555
C25 N6 1_555 1_555
H1A C1 1_555 1_555
Cl1A C1 1_555 1_555
C5 C6 1_555 1_555
C7 C8 1_555 1_555
C9 C10 1_555 1_555
C14 C15 1_555 1_555
C16 C17 1_555 1_555
C18 C19 1_555 1_555
C20 C21 1_555 1_555
C20 C25 1_555 1_555
C21 C22 1_555 1_555
C22 C23 1_555 1_555
C23 C24 1_555 1_555
C24 C25 1_555 1_555

#END
