
#######################################################################
#
#                 Cambridge Crystallographic Data Centre
#                                CCDC 
#
#######################################################################
#
# If this CIF has been generated from an entry in the Cambridge 
# Structural Database, then it will include bibliographic, chemical, 
# crystal, experimental, refinement or atomic coordinate data resulting 
# from the CCDC's data processing and validation procedures.
#
#######################################################################

data_FODLUH
_chemical_formula_moiety         'C30 H26 N4 S4'
_chemical_name_systematic        
11a,11b-dibutyl-11a,11b-dihydrobis[1]benzothieno[2',3':7,8;3'',2'':5,6][1,2,5]thiadiazolo[3',4':3,4]naphtho[1,2-c][1,2,5]thiadiazole
_symmetry_cell_setting           triclinic
_symmetry_space_group_name_H-M   'P -1'
_symmetry_Int_Tables_number      2
_space_group_name_Hall           '-P 1'
loop_
_symmetry_equiv_pos_site_id
_symmetry_equiv_pos_as_xyz
1 x,y,z
2 -x,-y,-z
_cell_length_a                   9.6581(12)
_cell_length_b                   10.9771(14)
_cell_length_c                   12.7235(16)
_cell_angle_alpha                85.990(2)
_cell_angle_beta                 74.837(2)
_cell_angle_gamma                87.338(2)
_cell_volume                     1298.21
_exptl_crystal_colour            red
_exptl_crystal_description       block
_cell_formula_units_Z            2
loop_
_atom_site_label
_atom_site_type_symbol
_atom_site_fract_x
_atom_site_fract_y
_atom_site_fract_z
N1 N 0.61217(17) -0.10899(15) 0.39233(13)
N2 N 0.84247(18) -0.22814(15) 0.33254(14)
N3 N 1.06424(17) 0.09712(15) 0.08744(14)
N4 N 1.07722(17) -0.12364(15) 0.14738(14)
S1 S 0.38834(5) 0.33575(4) 0.28701(4)
S2 S 0.68992(5) 0.48987(4) 0.22023(4)
S3 S 0.68463(5) -0.24167(5) 0.41710(4)
S4 S 1.17190(5) -0.02265(5) 0.06214(4)
C1 C 0.56016(18) 0.13237(16) 0.26969(14)
C2 C 0.41014(18) 0.09329(17) 0.30745(15)
C3 C 0.3541(2) -0.02439(19) 0.32507(17)
H1 H 0.4173 -0.0939 0.3135
C4 C 0.2073(2) -0.0396(2) 0.35927(18)
H2 H 0.1707 -0.1196 0.3709
C5 C 0.1127(2) 0.0610(2) 0.37689(17)
H3 H 0.0124 0.0490 0.4021
C6 C 0.16359(19) 0.1778(2) 0.35798(16)
H4 H 0.0993 0.2467 0.3695
C7 C 0.31180(19) 0.19295(17) 0.32155(15)
C8 C 0.56534(17) 0.26595(16) 0.22750(15)
C9 C 0.59427(19) 0.27771(17) 0.10061(15)
H5 H 0.5920 0.3656 0.0774
H6 H 0.6925 0.2453 0.0686
C10 C 0.49084(19) 0.21312(17) 0.05260(15)
H7 H 0.3911 0.2310 0.0946
H8 H 0.5089 0.1237 0.0590
C11 C 0.5083(2) 0.25457(19) -0.06801(16)
H9 H 0.4994 0.3448 -0.0749
H10 H 0.6056 0.2301 -0.1107
C12 C 0.3975(2) 0.2004(2) -0.11575(16)
H11 H 0.4147 0.1119 -0.1190
H12 H 0.4054 0.2372 -0.1894
H13 H 0.3010 0.2172 -0.0695
C13 C 0.68960(18) 0.07499(16) 0.26772(14)
C14 C 0.70908(18) -0.04876(16) 0.31482(14)
C15 C 0.84054(19) -0.11751(17) 0.28182(15)
C16 C 0.95908(19) -0.06489(17) 0.19890(15)
C17 C 0.95050(18) 0.06245(16) 0.16734(15)
C18 C 0.82609(17) 0.14200(16) 0.21658(14)
C19 C 0.82501(18) 0.26734(16) 0.21657(14)
C20 C 0.93545(18) 0.35888(16) 0.17466(14)
C21 C 1.08554(18) 0.34652(17) 0.14347(15)
H14 H 1.1301 0.2680 0.1475
C22 C 1.16994(19) 0.44783(18) 0.10666(15)
H15 H 1.2715 0.4377 0.0856
C23 C 1.1076(2) 0.56348(18) 0.10040(16)
H16 H 1.1664 0.6318 0.0741
C24 C 0.9599(2) 0.57964(17) 0.13231(15)
H17 H 0.9165 0.6587 0.1283
C25 C 0.87620(18) 0.47840(17) 0.17031(15)
C26 C 0.67972(18) 0.32833(16) 0.26868(15)
C27 C 0.64874(19) 0.32123(18) 0.39497(15)
H18 H 0.5606 0.3707 0.4246
H19 H 0.6289 0.2354 0.4221
C28 C 0.7685(2) 0.3648(2) 0.44038(16)
H20 H 0.8518 0.3069 0.4227
H21 H 0.7999 0.4457 0.4050
C29 C 0.7191(2) 0.3745(2) 0.56383(17)
H22 H 0.6403 0.4368 0.5807
H23 H 0.6806 0.2952 0.5983
C30 C 0.8384(3) 0.4086(3) 0.6128(2)
H24 H 0.9180 0.3485 0.5949
H25 H 0.8019 0.4097 0.6922
H26 H 0.8725 0.4898 0.5829
loop_
_geom_bond_atom_site_label_1
_geom_bond_atom_site_label_2
_geom_bond_site_symmetry_1
_geom_bond_site_symmetry_2
N1 S3 1_555 1_555
N2 S3 1_555 1_555
N3 S4 1_555 1_555
N4 S4 1_555 1_555
S1 C7 1_555 1_555
S2 C25 1_555 1_555
C1 C2 1_555 1_555
C2 C3 1_555 1_555
C3 H1 1_555 1_555
C4 C3 1_555 1_555
H2 C4 1_555 1_555
C5 C4 1_555 1_555
H3 C5 1_555 1_555
C6 C5 1_555 1_555
H4 C6 1_555 1_555
C7 C2 1_555 1_555
C8 S1 1_555 1_555
C9 C8 1_555 1_555
H5 C9 1_555 1_555
H6 C9 1_555 1_555
C10 C9 1_555 1_555
H7 C10 1_555 1_555
H8 C10 1_555 1_555
C11 C10 1_555 1_555
H9 C11 1_555 1_555
H10 C11 1_555 1_555
C12 C11 1_555 1_555
H11 C12 1_555 1_555
H12 C12 1_555 1_555
H13 C12 1_555 1_555
C13 C1 1_555 1_555
C14 N1 1_555 1_555
C15 N2 1_555 1_555
C16 N4 1_555 1_555
C17 N3 1_555 1_555
C18 C13 1_555 1_555
C19 C18 1_555 1_555
C20 C19 1_555 1_555
C21 C20 1_555 1_555
H14 C21 1_555 1_555
C22 C21 1_555 1_555
H15 C22 1_555 1_555
C23 C22 1_555 1_555
H16 C23 1_555 1_555
C24 C23 1_555 1_555
H17 C24 1_555 1_555
C25 C20 1_555 1_555
C26 S2 1_555 1_555
C27 C26 1_555 1_555
H18 C27 1_555 1_555
H19 C27 1_555 1_555
C28 C27 1_555 1_555
H20 C28 1_555 1_555
H21 C28 1_555 1_555
C29 C28 1_555 1_555
H22 C29 1_555 1_555
H23 C29 1_555 1_555
C30 C29 1_555 1_555
H24 C30 1_555 1_555
H25 C30 1_555 1_555
H26 C30 1_555 1_555
C1 C8 1_555 1_555
C6 C7 1_555 1_555
C8 C26 1_555 1_555
C13 C14 1_555 1_555
C14 C15 1_555 1_555
C15 C16 1_555 1_555
C16 C17 1_555 1_555
C17 C18 1_555 1_555
C19 C26 1_555 1_555
C24 C25 1_555 1_555

#END
