
#######################################################################
#
#                 Cambridge Crystallographic Data Centre
#                                CCDC 
#
#######################################################################
#
# If this CIF has been generated from an entry in the Cambridge 
# Structural Database, then it will include bibliographic, chemical, 
# crystal, experimental, refinement or atomic coordinate data resulting 
# from the CCDC's data processing and validation procedures.
#
#######################################################################

data_FODLER
_chemical_formula_moiety         'C24 H14 N4 S4'
_chemical_name_systematic        
11a,11b-dimethyl-11a,11b-dihydrobis[1]benzothieno[2',3':7,8;3'',2'':5,6][1,2,5]thiadiazolo[3',4':3,4]naphtho[1,2-c][1,2,5]thiadiazole
_symmetry_cell_setting           monoclinic
_symmetry_space_group_name_H-M   'P 21/c'
_symmetry_Int_Tables_number      14
_space_group_name_Hall           '-P 2ybc'
loop_
_symmetry_equiv_pos_site_id
_symmetry_equiv_pos_as_xyz
1 x,y,z
2 -x,1/2+y,1/2-z
3 -x,-y,-z
4 x,1/2-y,1/2+z
_cell_length_a                   10.1459(7)
_cell_length_b                   13.3378(9)
_cell_length_c                   15.8538(11)
_cell_angle_alpha                90
_cell_angle_beta                 104.6770(10)
_cell_angle_gamma                90
_cell_volume                     2075.39
_exptl_crystal_colour            colorless
_exptl_crystal_description       prismatic
_cell_formula_units_Z            4
loop_
_atom_site_label
_atom_site_type_symbol
_atom_site_fract_x
_atom_site_fract_y
_atom_site_fract_z
S1 S 0.76072(6) 0.91843(3) 0.66370(3)
S2 S 1.13441(5) 0.58398(5) 0.60914(4)
S3 S 0.58201(5) 0.53930(4) 0.91568(3)
S4 S 0.64790(5) 0.33889(3) 0.79659(3)
N1 N 0.72524(16) 0.83260(11) 0.72691(10)
N2 N 0.87406(17) 0.85957(12) 0.62610(11)
N3 N 1.06782(16) 0.69564(14) 0.60579(10)
N4 N 1.03773(16) 0.52398(12) 0.66059(10)
C1 C 0.80133(17) 0.75341(12) 0.72090(10)
C2 C 0.88549(17) 0.76931(13) 0.66240(11)
C3 C 0.96947(17) 0.68831(14) 0.64611(11)
C4 C 0.94890(17) 0.58953(13) 0.67630(11)
C5 C 0.83947(16) 0.56717(12) 0.71964(10)
C6 C 0.79314(16) 0.65586(12) 0.76312(10)
C7 C 0.74000(16) 0.64121(12) 0.83251(10)
C8 C 0.71690(17) 0.53315(12) 0.85666(10)
C9 C 0.66893(17) 0.47205(12) 0.77252(11)
C10 C 0.78008(17) 0.47628(12) 0.72269(10)
C11 C 0.79399(19) 0.37850(13) 0.68300(11)
C12 C 0.72797(19) 0.30080(13) 0.71670(11)
C13 C 0.7262(2) 0.20311(14) 0.68665(13)
H1 H 0.6821 0.1529 0.7097
C14 C 0.7904(3) 0.18154(15) 0.62241(14)
H2 H 0.7917 0.1159 0.6029
C15 C 0.8530(3) 0.25612(15) 0.58630(15)
H3 H 0.8946 0.2406 0.5420
C16 C 0.8542(2) 0.35376(14) 0.61561(13)
H4 H 0.8955 0.4036 0.5902
C17 C 0.69934(17) 0.71170(13) 0.89249(10)
C18 C 0.61275(18) 0.66693(13) 0.93819(11)
C19 C 0.5602(2) 0.72120(16) 0.99721(12)
H5 H 0.4993 0.6917 1.0248
C20 C 0.6002(2) 0.81931(17) 1.01395(13)
H6 H 0.5649 0.8567 1.0526
C21 C 0.6925(2) 0.86313(16) 0.97393(12)
H7 H 0.7212 0.9287 0.9878
C22 C 0.7424(2) 0.80993(14) 0.91334(11)
H8 H 0.8043 0.8398 0.8867
C23 C 0.84784(19) 0.49392(15) 0.91944(12)
H9 H 0.8741 0.5382 0.9686
H10 H 0.9194 0.4910 0.8898
H11 H 0.8319 0.4280 0.9391
C24 C 0.53357(18) 0.50857(15) 0.71164(12)
H12 H 0.5149 0.4712 0.6582
H13 H 0.5407 0.5785 0.6993
H14 H 0.4610 0.4987 0.7396
loop_
_geom_bond_atom_site_label_1
_geom_bond_atom_site_label_2
_geom_bond_site_symmetry_1
_geom_bond_site_symmetry_2
S1 N1 1_555 1_555
S2 N3 1_555 1_555
S3 C8 1_555 1_555
S4 C9 1_555 1_555
N1 C1 1_555 1_555
N2 S1 1_555 1_555
N3 C3 1_555 1_555
N4 S2 1_555 1_555
C1 C2 1_555 1_555
C2 N2 1_555 1_555
C3 C2 1_555 1_555
C4 N4 1_555 1_555
C5 C4 1_555 1_555
C6 C1 1_555 1_555
C7 C6 1_555 1_555
C8 C7 1_555 1_555
C9 C8 1_555 1_555
C10 C5 1_555 1_555
C11 C10 1_555 1_555
C12 S4 1_555 1_555
C13 C12 1_555 1_555
H1 C13 1_555 1_555
C14 C13 1_555 1_555
H2 C14 1_555 1_555
C15 C14 1_555 1_555
H3 C15 1_555 1_555
C16 C11 1_555 1_555
H4 C16 1_555 1_555
C17 C7 1_555 1_555
C18 S3 1_555 1_555
C19 C18 1_555 1_555
H5 C19 1_555 1_555
C20 C19 1_555 1_555
H6 C20 1_555 1_555
C21 C20 1_555 1_555
H7 C21 1_555 1_555
C22 C17 1_555 1_555
H8 C22 1_555 1_555
C23 C8 1_555 1_555
H9 C23 1_555 1_555
H10 C23 1_555 1_555
H11 C23 1_555 1_555
C24 C9 1_555 1_555
H12 C24 1_555 1_555
H13 C24 1_555 1_555
H14 C24 1_555 1_555
C3 C4 1_555 1_555
C5 C6 1_555 1_555
C9 C10 1_555 1_555
C11 C12 1_555 1_555
C15 C16 1_555 1_555
C17 C18 1_555 1_555
C21 C22 1_555 1_555

#END
