
#######################################################################
#
#                 Cambridge Crystallographic Data Centre
#                                CCDC 
#
#######################################################################
#
# If this CIF has been generated from an entry in the Cambridge 
# Structural Database, then it will include bibliographic, chemical, 
# crystal, experimental, refinement or atomic coordinate data resulting 
# from the CCDC's data processing and validation procedures.
#
#######################################################################

data_FODMER
_chemical_formula_moiety         'C12 H19 N1 O1'
_chemical_name_systematic        
1-Allyl-3-hydroxy-2,3-dimethylcyclohexane-1-carbonitrile
_symmetry_cell_setting           triclinic
_symmetry_space_group_name_H-M   'P -1'
_symmetry_Int_Tables_number      2
_space_group_name_Hall           '-P 1'
loop_
_symmetry_equiv_pos_site_id
_symmetry_equiv_pos_as_xyz
1 x,y,z
2 -x,-y,-z
_cell_length_a                   7.605(2)
_cell_length_b                   13.704(3)
_cell_length_c                   6.018(2)
_cell_angle_alpha                95.95(2)
_cell_angle_beta                 105.14(2)
_cell_angle_gamma                83.64(2)
_cell_volume                     599.866
_exptl_crystal_colour            colorless
_exptl_crystal_description       plate
_chemical_melting_point          '346-347 K'
_cell_formula_units_Z            2
_exptl_crystal_recrystallization_method 'ethyl acetate/hexanes'
loop_
_atom_site_label
_atom_site_type_symbol
_atom_site_fract_x
_atom_site_fract_y
_atom_site_fract_z
O1 O 1.1952(3) 0.2161(2) 1.0107(4)
N1 N 0.5815(4) 0.2353(3) 0.2843(6)
C1 C 0.8873(4) 0.2672(2) 0.5911(5)
C2 C 0.9884(4) 0.1650(3) 0.6547(5)
C3 C 1.1918(4) 0.1699(3) 0.7850(5)
C4 C 1.2865(5) 0.2293(4) 0.6630(7)
C5 C 1.1911(6) 0.3301(4) 0.6124(7)
C6 C 0.9979(5) 0.3218(3) 0.4677(6)
C7 C 0.7131(5) 0.2489(3) 0.4195(6)
C8 C 0.8404(5) 0.3301(3) 0.8006(6)
C9 C 0.7327(9) 0.4249(5) 0.7467(9)
C10 C 0.673(1) 0.4876(6) 0.812(1)
C11 C 0.8848(5) 0.1075(3) 0.7758(7)
C12 C 1.2901(6) 0.0674(4) 0.8080(9)
H1 H 0.9874 0.1265 0.5103
H2 H 1.2963 0.1956 0.5191
H3 H 1.4106 0.2375 0.7555
H4 H 1.2611 0.3636 0.5374
H5 H 1.1922 0.3662 0.7590
H6 H 0.9344 0.3852 0.4361
H7 H 0.9971 0.2858 0.3198
H8 H 0.7727 0.2932 0.8713
H9 H 0.9520 0.3442 0.9131
H10 H 0.7004 0.4251 0.5779
H11 H 0.6994 0.5015 0.9737
H12 H 0.6116 0.5379 0.7124
H13 H 0.7652 0.0983 0.6836
H14 H 0.9487 0.0458 0.8144
H15 H 0.8736 0.1451 0.9184
H16 H 1.2328 0.0277 0.8891
H17 H 1.2907 0.0333 0.6622
H18 H 1.4161 0.0693 0.8972
H19 H 1.3237 0.2223 1.0955
loop_
_geom_bond_atom_site_label_1
_geom_bond_atom_site_label_2
_geom_bond_site_symmetry_1
_geom_bond_site_symmetry_2
O1 C3 1_555 1_555
N1 C7 1_555 1_555
C1 C2 1_555 1_555
C2 C3 1_555 1_555
C3 C4 1_555 1_555
C4 C5 1_555 1_555
C5 C6 1_555 1_555
C6 C1 1_555 1_555
C7 C1 1_555 1_555
C8 C1 1_555 1_555
C9 C8 1_555 1_555
C10 C9 1_555 1_555
C11 C2 1_555 1_555
C12 C3 1_555 1_555
H1 C2 1_555 1_555
H2 C4 1_555 1_555
H3 C4 1_555 1_555
H4 C5 1_555 1_555
H5 C5 1_555 1_555
H6 C6 1_555 1_555
H7 C6 1_555 1_555
H8 C8 1_555 1_555
H9 C8 1_555 1_555
H10 C9 1_555 1_555
H11 C10 1_555 1_555
H12 C10 1_555 1_555
H13 C11 1_555 1_555
H14 C11 1_555 1_555
H15 C11 1_555 1_555
H16 C12 1_555 1_555
H17 C12 1_555 1_555
H18 C12 1_555 1_555
H19 O1 1_555 1_555

#END
