
#######################################################################
#
#                 Cambridge Crystallographic Data Centre
#                                CCDC 
#
#######################################################################
#
# If this CIF has been generated from an entry in the Cambridge 
# Structural Database, then it will include bibliographic, chemical, 
# crystal, experimental, refinement or atomic coordinate data resulting 
# from the CCDC's data processing and validation procedures.
#
#######################################################################

data_FODMES
_chemical_formula_moiety         'C28 H18 N4 O2 S4'
_chemical_name_systematic        
1,1'-([1,2,5]thiadiazolo[3,4-e][2,1,3]benzothiadiazole-4,5-diylbis(2-methyl-1-benzothiene-3,6-diyl))diethanone
_symmetry_cell_setting           triclinic
_symmetry_space_group_name_H-M   'P -1'
_symmetry_Int_Tables_number      2
_space_group_name_Hall           '-P 1'
loop_
_symmetry_equiv_pos_site_id
_symmetry_equiv_pos_as_xyz
1 x,y,z
2 -x,-y,-z
_cell_length_a                   7.0422(11)
_cell_length_b                   22.755(4)
_cell_length_c                   26.122(6)
_cell_angle_alpha                115.181(4)
_cell_angle_beta                 96.052(4)
_cell_angle_gamma                93.027(3)
_cell_volume                     3744.77
_exptl_crystal_colour            colorless
_exptl_crystal_description       block
_cell_formula_units_Z            6
loop_
_atom_site_label
_atom_site_type_symbol
_atom_site_fract_x
_atom_site_fract_y
_atom_site_fract_z
S1 S 0.4151(2) 0.30133(7) 0.87847(6)
S2 S 0.4429(2) 0.07622(6) 0.88728(6)
S3 S 0.5386(3) 0.47139(7) 1.15537(7)
S4 S 0.5100(2) 0.20904(8) 1.16636(7)
N1 N 0.5199(7) 0.4207(2) 1.0888(2)
N2 N 0.5377(8) 0.4210(2) 1.1840(2)
N3 N 0.4846(7) 0.1856(2) 1.0979(2)
N4 N 0.5253(7) 0.2882(2) 1.1892(2)
O1 O -0.2044(6) -0.0737(2) 0.87272(18)
O2 O 1.0894(6) 0.4224(2) 0.87084(19)
C1 C 0.5398(7) 0.1528(3) 0.9406(2)
C2 C 0.4328(8) 0.1766(2) 0.9842(2)
C3 C 0.2662(8) 0.1313(2) 0.9742(2)
C4 C 0.1167(8) 0.1385(3) 1.0065(2)
H1 H 0.1170 0.1776 1.0403
C5 C -0.0325(8) 0.0890(3) 0.9897(2)
H2 H -0.1319 0.0944 1.0127
C6 C -0.0402(8) 0.0304(2) 0.9387(2)
C7 C 0.1043(8) 0.0225(3) 0.9057(2)
H3 H 0.1035 -0.0166 0.8718
C8 C 0.2534(8) 0.0732(2) 0.9229(2)
C9 C -0.1992(8) -0.0248(3) 0.9190(2)
C10 C -0.3521(8) -0.0193(3) 0.9547(3)
H4 H -0.4578 -0.0537 0.9328
H5 H -0.3996 0.0236 0.9661
H6 H -0.3007 -0.0242 0.9888
C11 C 0.7228(8) 0.1837(3) 0.9336(3)
H7 H 0.6927 0.2102 0.9131
H8 H 0.8003 0.1495 0.9118
H9 H 0.7951 0.2116 0.9713
C12 C 0.4732(7) 0.2409(2) 1.0346(2)
C13 C 0.4903(7) 0.2407(3) 1.0909(2)
C14 C 0.5143(8) 0.2991(3) 1.1433(2)
C15 C 0.5235(8) 0.3613(3) 1.1407(2)
C16 C 0.5116(8) 0.3601(3) 1.0855(2)
C17 C 0.4910(7) 0.3002(3) 1.0327(2)
C18 C 0.1643(8) 0.2453(3) 0.9238(3)
H10 H 0.1648 0.2007 0.8943
H11 H 0.0636 0.2665 0.9114
H12 H 0.1395 0.2440 0.9596
C19 C 0.3551(8) 0.2830(3) 0.9331(2)
C20 C 0.4958(7) 0.3072(2) 0.9793(2)
C21 C 0.6623(8) 0.3412(3) 0.9722(2)
C22 C 0.8393(8) 0.3683(3) 1.0088(2)
H13 H 0.8587 0.3666 1.0447
C23 C 0.9821(8) 0.3969(3) 0.9925(3)
H14 H 1.1002 0.4152 1.0172
C24 C 0.9538(8) 0.3990(3) 0.9388(3)
C25 C 0.7803(8) 0.3729(2) 0.9028(2)
H15 H 0.7599 0.3759 0.8675
C26 C 0.6377(8) 0.3424(3) 0.9186(2)
C27 C 1.1101(8) 0.4282(3) 0.9197(3)
C28 C 1.2936(8) 0.4627(3) 0.9611(3)
H16 H 1.3705 0.4862 0.9451
H17 H 1.3679 0.4303 0.9669
H18 H 1.2603 0.4937 0.9977
S5 S 0.17817(19) 0.58468(6) 0.45588(6)
S6 S 0.19477(18) 0.35009(6) 0.44449(6)
S7 S 0.0086(2) 0.20343(7) 0.16449(7)
S8 S 0.0479(3) 0.47817(8) 0.17818(7)
N5 N 0.0459(7) 0.2484(2) 0.2328(2)
N6 N 0.0046(7) 0.2595(2) 0.1417(2)
N7 N 0.0878(7) 0.4937(2) 0.2458(2)
N8 N 0.0209(7) 0.3979(3) 0.1488(2)
O3 O 0.8534(6) 0.72362(18) 0.47279(18)
O4 O -0.4591(6) 0.21846(19) 0.45065(18)
C29 C 0.0652(8) 0.5119(2) 0.3994(2)
C30 C 0.1636(7) 0.4911(3) 0.3546(2)
C31 C 0.3365(7) 0.5337(2) 0.3642(2)
C32 C 0.4766(8) 0.5261(3) 0.3293(2)
H19 H 0.4651 0.4895 0.2931
C33 C 0.6366(8) 0.5734(3) 0.3485(2)
H20 H 0.7338 0.5680 0.3248
C34 C 0.6578(7) 0.6286(2) 0.4018(2)
C35 C 0.5183(7) 0.6366(2) 0.4375(2)
H21 H 0.5284 0.6736 0.4734
C36 C 0.3612(8) 0.5877(3) 0.4183(2)
C37 C 0.8293(7) 0.6795(3) 0.4237(2)
C38 C 0.9699(8) 0.6765(3) 0.3850(3)
H22 H 1.0784 0.7100 0.4060
H23 H 0.9087 0.6843 0.3533
H24 H 1.0162 0.6333 0.3699
C39 C -0.1189(8) 0.4813(3) 0.4065(3)
H25 H -0.1934 0.4547 0.3688
H26 H -0.1939 0.5156 0.4293
H27 H -0.0894 0.4535 0.4258
C40 C 0.1099(7) 0.4296(2) 0.3003(2)
C41 C 0.0810(8) 0.4362(3) 0.2470(2)
C42 C 0.0459(8) 0.3819(3) 0.1924(2)
C43 C 0.0332(8) 0.3173(3) 0.1890(2)
C44 C 0.0556(7) 0.3112(2) 0.2408(2)
C45 C 0.0910(7) 0.3675(2) 0.2973(2)
C46 C 0.0967(7) 0.3541(2) 0.3477(2)
C47 C 0.2454(8) 0.3745(2) 0.3929(2)
C48 C 0.4364(7) 0.4119(3) 0.4017(3)
H28 H 0.4579 0.4146 0.3663
H29 H 0.5377 0.3896 0.4124
H30 H 0.4387 0.4561 0.4323
C49 C -0.0656(7) 0.3188(2) 0.3554(2)
C50 C -0.2480(8) 0.2936(3) 0.3201(2)
H31 H -0.2741 0.2991 0.2861
C51 C -0.3860(8) 0.2612(2) 0.3355(2)
H32 H -0.5071 0.2442 0.3121
C52 C -0.3450(8) 0.2534(2) 0.3864(2)
C53 C -0.1679(7) 0.2785(2) 0.4213(2)
H33 H -0.1412 0.2729 0.4553
C54 C -0.0324(7) 0.3115(2) 0.4059(2)
C55 C -0.4919(8) 0.2198(2) 0.4047(2)
C56 C -0.6797(8) 0.1876(3) 0.3649(3)
H34 H -0.6520 0.1544 0.3284
H35 H -0.7479 0.2208 0.3584
H36 H -0.7600 0.1670 0.3825
S9 S 0.0485(2) 0.96249(7) 0.21420(6)
S10 S 0.0760(2) 0.73505(6) 0.21927(6)
S11 S 0.2360(2) 0.86456(8) 0.49784(7)
S12 S 0.2605(2) 1.12960(7) 0.49224(7)
N9 N 0.1895(7) 0.8425(2) 0.4293(2)
N10 N 0.2589(8) 0.9443(3) 0.5223(2)
N11 N 0.2161(7) 1.0800(2) 0.4250(2)
N12 N 0.2715(8) 1.0775(2) 0.5189(2)
O5 O 0.6874(6) 1.0893(2) 0.1941(2)
O6 O -0.6020(6) 0.60598(18) 0.21635(18)
C57 C 0.0050(7) 0.9447(2) 0.2706(2)
C58 C 0.1568(7) 0.9679(2) 0.3137(2)
C59 C 0.3179(7) 1.0014(2) 0.3030(2)
C60 C 0.5005(8) 1.0296(2) 0.3368(2)
H37 H 0.5311 1.0283 0.3726
C61 C 0.6313(8) 1.0587(3) 0.3170(2)
H38 H 0.7542 1.0767 0.3389
C62 C 0.5852(8) 1.0621(3) 0.2643(2)
C63 C 0.4059(8) 1.0344(2) 0.2309(2)
H39 H 0.3750 1.0369 0.1957
C64 C 0.2735(7) 1.0032(2) 0.2498(2)
C65 C 0.7291(8) 1.0933(3) 0.2426(3)
C66 C 0.9146(8) 1.1275(3) 0.2793(3)
H40 H 0.9923 1.1444 0.2585
H41 H 0.9844 1.0967 0.2891
H42 H 0.8890 1.1638 0.3144
C67 C -0.1814(8) 0.9074(3) 0.2643(3)
H43 H -0.1831 0.8625 0.2350
H44 H -0.2857 0.9281 0.2530
H45 H -0.1987 0.9068 0.3009
C68 C 0.1725(7) 0.9594(2) 0.3670(2)
C69 C 0.2092(8) 1.0189(2) 0.4208(2)
C70 C 0.2385(8) 1.0182(3) 0.4752(2)
C71 C 0.2318(8) 0.9560(3) 0.4773(2)
C72 C 0.1903(7) 0.8983(2) 0.4238(2)
C73 C 0.1557(7) 0.8993(2) 0.3687(2)
C74 C 0.0978(7) 0.8361(2) 0.3174(2)
C75 C 0.1904(7) 0.8106(2) 0.2715(2)
C76 C 0.3714(8) 0.8383(3) 0.2603(3)
H46 H 0.3384 0.8623 0.2377
H47 H 0.4455 0.8026 0.2391
H48 H 0.4483 0.8680 0.2967
C77 C -0.0732(7) 0.7943(2) 0.3112(2)
C78 C -0.2134(8) 0.8063(2) 0.3473(2)
H49 H -0.2004 0.8452 0.3819
C79 C -0.3726(8) 0.7604(2) 0.3317(2)
H50 H -0.4682 0.7687 0.3563
C80 C -0.3975(7) 0.7021(2) 0.2809(2)
C81 C -0.2625(8) 0.6895(2) 0.2442(2)
H51 H -0.2755 0.6503 0.2098
C82 C -0.1038(7) 0.7372(2) 0.2599(2)
C83 C -0.5718(8) 0.6524(3) 0.2632(2)
C84 C -0.7104(8) 0.6622(3) 0.3045(3)
H52 H -0.8249 0.6307 0.2857
H53 H -0.7473 0.7067 0.3182
H54 H -0.6505 0.6556 0.3370
loop_
_geom_bond_atom_site_label_1
_geom_bond_atom_site_label_2
_geom_bond_site_symmetry_1
_geom_bond_site_symmetry_2
S1 C19 1_555 1_555
S2 C1 1_555 1_555
S3 N1 1_555 1_555
S4 N3 1_555 1_555
N1 C16 1_555 1_555
N2 S3 1_555 1_555
N3 C13 1_555 1_555
N4 S4 1_555 1_555
O1 C9 1_555 1_555
O2 C27 1_555 1_555
C1 C2 1_555 1_555
C2 C3 1_555 1_555
C3 C4 1_555 1_555
C4 H1 1_555 1_555
C5 C4 1_555 1_555
H2 C5 1_555 1_555
C6 C5 1_555 1_555
C7 C6 1_555 1_555
H3 C7 1_555 1_555
C8 S2 1_555 1_555
C9 C6 1_555 1_555
C10 C9 1_555 1_555
H4 C10 1_555 1_555
H5 C10 1_555 1_555
H6 C10 1_555 1_555
C11 C1 1_555 1_555
H7 C11 1_555 1_555
H8 C11 1_555 1_555
H9 C11 1_555 1_555
C12 C2 1_555 1_555
C13 C12 1_555 1_555
C14 N4 1_555 1_555
C15 N2 1_555 1_555
C16 C15 1_555 1_555
C17 C12 1_555 1_555
C18 H10 1_555 1_555
H11 C18 1_555 1_555
H12 C18 1_555 1_555
C19 C18 1_555 1_555
C20 C17 1_555 1_555
C21 C20 1_555 1_555
C22 C21 1_555 1_555
H13 C22 1_555 1_555
C23 C22 1_555 1_555
H14 C23 1_555 1_555
C24 C23 1_555 1_555
C25 C24 1_555 1_555
H15 C25 1_555 1_555
C26 S1 1_555 1_555
C27 C24 1_555 1_555
C28 C27 1_555 1_555
H16 C28 1_555 1_555
H17 C28 1_555 1_555
H18 C28 1_555 1_555
S5 C29 1_555 1_555
S6 C47 1_555 1_555
S7 N5 1_555 1_555
S8 N7 1_555 1_555
N5 C44 1_555 1_555
N6 S7 1_555 1_555
N7 C41 1_555 1_555
N8 S8 1_555 1_555
O3 C37 1_555 1_555
O4 C55 1_555 1_555
C29 C30 1_555 1_555
C30 C31 1_555 1_555
C31 C32 1_555 1_555
C32 H19 1_555 1_555
C33 C32 1_555 1_555
H20 C33 1_555 1_555
C34 C33 1_555 1_555
C35 C34 1_555 1_555
H21 C35 1_555 1_555
C36 S5 1_555 1_555
C37 C34 1_555 1_555
C38 C37 1_555 1_555
H22 C38 1_555 1_555
H23 C38 1_555 1_555
H24 C38 1_555 1_555
C39 C29 1_555 1_555
H25 C39 1_555 1_555
H26 C39 1_555 1_555
H27 C39 1_555 1_555
C40 C30 1_555 1_555
C41 C40 1_555 1_555
C42 N8 1_555 1_555
C43 N6 1_555 1_555
C44 C43 1_555 1_555
C45 C40 1_555 1_555
C46 C45 1_555 1_555
C47 C46 1_555 1_555
C48 C47 1_555 1_555
H28 C48 1_555 1_555
H29 C48 1_555 1_555
H30 C48 1_555 1_555
C49 C46 1_555 1_555
C50 C49 1_555 1_555
H31 C50 1_555 1_555
C51 C50 1_555 1_555
H32 C51 1_555 1_555
C52 C51 1_555 1_555
C53 C52 1_555 1_555
H33 C53 1_555 1_555
C54 S6 1_555 1_555
C55 C52 1_555 1_555
C56 C55 1_555 1_555
H34 C56 1_555 1_555
H35 C56 1_555 1_555
H36 C56 1_555 1_555
S9 C57 1_555 1_555
S10 C75 1_555 1_555
S11 N9 1_555 1_555
S12 N11 1_555 1_555
N9 C72 1_555 1_555
N10 S11 1_555 1_555
N11 C69 1_555 1_555
N12 S12 1_555 1_555
O5 C65 1_555 1_555
O6 C83 1_555 1_555
C57 C58 1_555 1_555
C58 C59 1_555 1_555
C59 C60 1_555 1_555
C60 H37 1_555 1_555
C61 C60 1_555 1_555
H38 C61 1_555 1_555
C62 C61 1_555 1_555
C63 C62 1_555 1_555
H39 C63 1_555 1_555
C64 S9 1_555 1_555
C65 C62 1_555 1_555
C66 C65 1_555 1_555
H40 C66 1_555 1_555
H41 C66 1_555 1_555
H42 C66 1_555 1_555
C67 C57 1_555 1_555
H43 C67 1_555 1_555
H44 C67 1_555 1_555
H45 C67 1_555 1_555
C68 C58 1_555 1_555
C69 C68 1_555 1_555
C70 N12 1_555 1_555
C71 N10 1_555 1_555
C72 C71 1_555 1_555
C73 C68 1_555 1_555
C74 C73 1_555 1_555
C75 C74 1_555 1_555
C76 C75 1_555 1_555
H46 C76 1_555 1_555
H47 C76 1_555 1_555
H48 C76 1_555 1_555
C77 C74 1_555 1_555
C78 C77 1_555 1_555
H49 C78 1_555 1_555
C79 C78 1_555 1_555
H50 C79 1_555 1_555
C80 C79 1_555 1_555
C81 C80 1_555 1_555
H51 C81 1_555 1_555
C82 S10 1_555 1_555
C83 C80 1_555 1_555
C84 C83 1_555 1_555
H52 C84 1_555 1_555
H53 C84 1_555 1_555
H54 C84 1_555 1_555
C3 C8 1_555 1_555
C7 C8 1_555 1_555
C13 C14 1_555 1_555
C14 C15 1_555 1_555
C16 C17 1_555 1_555
C19 C20 1_555 1_555
C21 C26 1_555 1_555
C25 C26 1_555 1_555
C31 C36 1_555 1_555
C35 C36 1_555 1_555
C41 C42 1_555 1_555
C42 C43 1_555 1_555
C44 C45 1_555 1_555
C49 C54 1_555 1_555
C53 C54 1_555 1_555
C59 C64 1_555 1_555
C63 C64 1_555 1_555
C69 C70 1_555 1_555
C70 C71 1_555 1_555
C72 C73 1_555 1_555
C77 C82 1_555 1_555
C81 C82 1_555 1_555

#END
