
#######################################################################
#
#                 Cambridge Crystallographic Data Centre
#                                CCDC 
#
#######################################################################
#
# If this CIF has been generated from an entry in the Cambridge 
# Structural Database, then it will include bibliographic, chemical, 
# crystal, experimental, refinement or atomic coordinate data resulting 
# from the CCDC's data processing and validation procedures.
#
#######################################################################

data_FODPIY
_chemical_formula_moiety         'C27 H35 N1 O4'
_chemical_name_systematic        
't-Butyl 4-(N-hydroxy-N-(2-(benzyloxy)-1-phenylethyl)amino)-6-methylhep-2-ynoate'
_symmetry_cell_setting           monoclinic
_symmetry_space_group_name_H-M   'P 21'
_symmetry_Int_Tables_number      4
_space_group_name_Hall           'P 2yb'
loop_
_symmetry_equiv_pos_site_id
_symmetry_equiv_pos_as_xyz
1 x,y,z
2 -x,1/2+y,-z
_cell_length_a                   12.281(1)
_cell_length_b                   7.984(1)
_cell_length_c                   13.236(1)
_cell_angle_alpha                90
_cell_angle_beta                 93.40(1)
_cell_angle_gamma                90
_cell_volume                     1295.53
_cell_formula_units_Z            2
loop_
_atom_site_label
_atom_site_type_symbol
_atom_site_fract_x
_atom_site_fract_y
_atom_site_fract_z
O1 O 0.8369(2) 1.1562 0.8058(2)
O2 O 0.8816(5) 0.9180(6) 0.8794(3)
O3 O 0.5408(2) 0.9265 0.5540(1)
O4 O 0.5105(2) 0.4306(3) 0.6635(1)
N1 N 0.5607(2) 0.7510(3) 0.5789(2)
C1 C 0.8841(3) 0.7532(7) 0.3727(3)
C2 C 0.8973(3) 0.5893(7) 0.5336(4)
C3 C 0.8484(3) 0.7418(5) 0.4800(3)
C4 C 0.7261(3) 0.7469(4) 0.4805(2)
C5 C 0.6790(2) 0.7286(4) 0.5843(2)
C6 C 0.7363(3) 0.8345(5) 0.6620(3)
C7 C 0.7823(3) 0.9134(5) 0.7274(3)
C8 C 0.8383(3) 0.9959(6) 0.8118(3)
C9 C 0.8917(3) 1.2645(5) 0.8838(3)
C10 C 0.8426(6) 1.244(1) 0.9809(4)
C11 C 1.0078(4) 1.2320(9) 0.8938(4)
C12 C 0.8736(7) 1.4353(9) 0.8383(6)
C13 C 0.5136(3) 0.7309(4) 0.6778(2)
C14 C 0.5454(3) 0.5651(5) 0.7277(2)
C15 C 0.5356(3) 0.2693(4) 0.7076(3)
C16 C 0.4785(3) 0.2363(4) 0.8024(2)
C17 C 0.3757(3) 0.2955(5) 0.8149(3)
C18 C 0.3252(3) 0.2617(7) 0.9035(3)
C19 C 0.3773(4) 0.1686(7) 0.9780(3)
C20 C 0.4776(4) 0.1090(6) 0.9669(3)
C21 C 0.5293(3) 0.1423(5) 0.8790(3)
C22 C 0.3923(3) 0.7500(4) 0.6697(2)
C23 C 0.3300(3) 0.7039(4) 0.5836(3)
C24 C 0.2186(3) 0.7072(5) 0.5842(3)
C25 C 0.1675(3) 0.7604(6) 0.6668(4)
C26 C 0.2280(4) 0.8133(7) 0.7512(3)
C27 C 0.3401(3) 0.8053(5) 0.7526(3)
H1 H 0.8507 0.6659 0.3332
H2 H 0.8629 0.8585 0.3445
H3 H 0.9612 0.7423 0.3731
H4 H 0.8604 0.4915 0.5092
H5 H 0.8898 0.5995 0.6044
H6 H 0.9725 0.5814 0.5209
H7 H 0.8757 0.8380 0.5154
H8 H 0.7022 0.8513 0.4527
H9 H 0.6978 0.6584 0.4387
H10 H 0.6919 0.6159 0.6047
H11 H 0.8702 1.1447 1.0130
H12 H 0.8601 1.3376 1.0228
H13 H 0.7657 1.2352 0.9700
H14 H 1.0203 1.1243 0.9228
H15 H 1.0424 1.3146 0.9363
H16 H 1.0370 1.2357 0.8290
H17 H 0.9041 1.5177 0.8834
H18 H 0.7975 1.4548 0.8269
H19 H 0.9077 1.4414 0.7758
H20 H 0.5422 0.8177 0.7206
H21 H 0.6223 0.5605 0.7396
H22 H 0.5117 0.5559 0.7902
H23 H 0.6120 0.2633 0.7231
H24 H 0.5147 0.1852 0.6595
H25 H 0.3390 0.3597 0.7629
H26 H 0.2540 0.3035 0.9124
H27 H 0.3420 0.1460 1.0384
H28 H 0.5133 0.0440 1.0191
H29 H 0.6007 0.0999 0.8713
H30 H 0.3644 0.6702 0.5244
H31 H 0.1762 0.6717 0.5258
H32 H 0.0901 0.7609 0.6660
H33 H 0.1930 0.8551 0.8081
H34 H 0.3821 0.8384 0.8118
H35 H 0.5262 0.9211 0.4753
loop_
_geom_bond_atom_site_label_1
_geom_bond_atom_site_label_2
_geom_bond_site_symmetry_1
_geom_bond_site_symmetry_2
O1 C8 1_555 1_555
O2 C8 1_555 1_555
O3 N1 1_555 1_555
O4 C14 1_555 1_555
N1 C5 1_555 1_555
C1 C3 1_555 1_555
C2 C3 1_555 1_555
C3 C4 1_555 1_555
C4 C5 1_555 1_555
C5 C6 1_555 1_555
C6 C7 1_555 1_555
C7 C8 1_555 1_555
C9 O1 1_555 1_555
C10 C9 1_555 1_555
C11 C9 1_555 1_555
C12 C9 1_555 1_555
C13 N1 1_555 1_555
C14 C13 1_555 1_555
C15 O4 1_555 1_555
C16 C15 1_555 1_555
C17 C16 1_555 1_555
C18 C17 1_555 1_555
C19 C18 1_555 1_555
C20 C19 1_555 1_555
C21 C16 1_555 1_555
C22 C13 1_555 1_555
C23 C22 1_555 1_555
C24 C23 1_555 1_555
C25 C24 1_555 1_555
C26 C25 1_555 1_555
C27 C22 1_555 1_555
H1 C1 1_555 1_555
H2 C1 1_555 1_555
H3 C1 1_555 1_555
H4 C2 1_555 1_555
H5 C2 1_555 1_555
H6 C2 1_555 1_555
H7 C3 1_555 1_555
H8 C4 1_555 1_555
H9 C4 1_555 1_555
H10 C5 1_555 1_555
H11 C10 1_555 1_555
H12 C10 1_555 1_555
H13 C10 1_555 1_555
H14 C11 1_555 1_555
H15 C11 1_555 1_555
H16 C11 1_555 1_555
H17 C12 1_555 1_555
H18 C12 1_555 1_555
H19 C12 1_555 1_555
H20 C13 1_555 1_555
H21 C14 1_555 1_555
H22 C14 1_555 1_555
H23 C15 1_555 1_555
H24 C15 1_555 1_555
H25 C17 1_555 1_555
H26 C18 1_555 1_555
H27 C19 1_555 1_555
H28 C20 1_555 1_555
H29 C21 1_555 1_555
H30 C23 1_555 1_555
H31 C24 1_555 1_555
H32 C25 1_555 1_555
H33 C26 1_555 1_555
H34 C27 1_555 1_555
H35 O3 1_555 1_555
C20 C21 1_555 1_555
C26 C27 1_555 1_555

#END
