
#######################################################################
#
#                 Cambridge Crystallographic Data Centre
#                                CCDC 
#
#######################################################################
#
# If this CIF has been generated from an entry in the Cambridge 
# Structural Database, then it will include bibliographic, chemical, 
# crystal, experimental, refinement or atomic coordinate data resulting 
# from the CCDC's data processing and validation procedures.
#
#######################################################################

data_FODVID
_chemical_formula_moiety         'C12 H32 B8 Si3'
_chemical_name_systematic        
2,2'-bis(Trimethylsilyl)-3,3'-dimethyl-(1,1'-commo-bis(2,3-dicarba-1-sila-closo-heptaborane))
_symmetry_cell_setting           monoclinic
_symmetry_space_group_name_H-M   'P 21/n'
_symmetry_Int_Tables_number      14
_space_group_name_Hall           '-P 2yn'
loop_
_symmetry_equiv_pos_site_id
_symmetry_equiv_pos_as_xyz
1 x,y,z
2 1/2-x,1/2+y,1/2-z
3 -x,-y,-z
4 1/2+x,1/2-y,1/2+z
_cell_length_a                   9.041(3)
_cell_length_b                   10.174(3)
_cell_length_c                   13.222(4)
_cell_angle_alpha                90
_cell_angle_beta                 105.53(2)
_cell_angle_gamma                90
_cell_volume                     1171.8
_exptl_crystal_colour            colorless
_chemical_melting_point          78deg.C
_cell_formula_units_Z            2
_chemical_properties_physical    'Air-sensitive, sublimes'
loop_
_atom_site_label
_atom_site_type_symbol
_atom_site_fract_x
_atom_site_fract_y
_atom_site_fract_z
Si1 Si 0.0000 0.0000 0.0000
Si2 Si -0.2265(2) 0.2582(2) 0.1098(2)
C1 C -0.1207(7) 0.1860(6) 0.0202(5)
C2 C 0.0411(8) 0.2153(6) 0.0225(6)
B1 B 0.0862(12) 0.1550(12) -0.0735(9)
B2 B -0.0702(15) 0.0797(9) -0.1464(6)
B3 B -0.2022(10) 0.1023(9) -0.0783(7)
B4 B -0.0903(12) 0.2382(10) -0.0975(7)
C3 C 0.1444(9) 0.3000(10) 0.1044(7)
C4 C -0.1111(12) 0.2284(15) 0.2506(8)
C5 C -0.2649(26) 0.4274(11) 0.0844(16)
C6 C -0.4106(13) 0.1650(16) 0.0902(11)
H1 H 0.188(6) 0.141(6) -0.091(4)
H2 H -0.071(7) 0.010(6) -0.217(5)
H3 H -0.329(8) 0.069(7) -0.087(5)
H4 H -0.133(6) 0.343(5) -0.151(4)
H5 H 0.25601 0.306(1) 0.090(1)
H6 H 0.155(1) 0.258(1) 0.181(1)
H7 H 0.096(1) 0.397(1) 0.101(1)
H8 H -0.076(1) 0.145(2) 0.302(1)
H9 H -0.127(1) 0.313(2) 0.296(1)
H10 H -0.024(10) 0.249(2) 0.211(1)
H11 H -0.332(3) 0.502(1) 0.110(2)
H12 H -0.261(3) 0.448(1) 0.005(2)
H13 H -0.150(3) 0.426(1) 0.136(2)
H14 H -0.473(1) 0.089(2) 0.119(1)
H15 H -0.482(1) 0.251(2) 0.069(1)
C1B C 0.1207(7) -0.1860(6) -0.0202(5)
C2B C -0.0411(8) -0.2153(6) -0.0225(6)
B1B B -0.0862(12) -0.1550(12) 0.0735(9)
B2B B 0.0702(15) -0.0797(9) 0.1464(6)
B3B B 0.2022(10) -0.1023(9) 0.0783(7)
Si2B Si 0.2265(2) -0.2582(2) -0.1098(2)
B4B B 0.0903(12) -0.2382(10) 0.0975(7)
C3B C -0.1444(9) -0.3000(10) -0.1044(7)
H1B H -0.188(6) -0.141(6) 0.091(4)
H2B H 0.071(7) -0.010(6) 0.217(5)
H3B H 0.329(8) -0.069(7) 0.087(5)
C4B C 0.1111(12) -0.2284(15) -0.2506(8)
C5B C 0.2649(26) -0.4274(11) -0.0844(16)
C6B C 0.4106(13) -0.1650(16) -0.0902(11)
H4B H 0.133(6) -0.343(5) 0.151(4)
H5B H -0.25601 -0.306(1) -0.090(1)
H6B H -0.155(1) -0.258(1) -0.181(1)
H7B H -0.096(1) -0.397(1) -0.101(1)
H8B H 0.076(1) -0.145(2) -0.302(1)
H9B H 0.127(1) -0.313(2) -0.296(1)
H10B H 0.024(10) -0.249(2) -0.211(1)
H11B H 0.332(3) -0.502(1) -0.110(2)
H12B H 0.261(3) -0.448(1) -0.005(2)
H13B H 0.150(3) -0.426(1) -0.136(2)
H14B H 0.473(1) -0.089(2) -0.119(1)
H15B H 0.482(1) -0.251(2) -0.069(1)
loop_
_geom_bond_atom_site_label_1
_geom_bond_atom_site_label_2
_geom_bond_site_symmetry_1
_geom_bond_site_symmetry_2
Si1 C1 1_555 1_555
Si2 C1 1_555 1_555
C1 C2 1_555 1_555
C2 Si1 1_555 1_555
B1 Si1 1_555 1_555
B2 Si1 1_555 1_555
B3 Si1 1_555 1_555
B4 C1 1_555 1_555
C3 C2 1_555 1_555
C4 Si2 1_555 1_555
C5 Si2 1_555 1_555
C6 Si2 1_555 1_555
H1 B1 1_555 1_555
H2 B2 1_555 1_555
H3 B3 1_555 1_555
H4 B4 1_555 1_555
H5 C3 1_555 1_555
H6 C3 1_555 1_555
H7 C3 1_555 1_555
H8 C4 1_555 1_555
H9 C4 1_555 1_555
H10 C4 1_555 1_555
H11 C5 1_555 1_555
H12 C5 1_555 1_555
H13 C5 1_555 1_555
H14 C6 1_555 1_555
H15 C6 1_555 1_555
C1B Si1 1_555 1_555
C2B Si1 1_555 1_555
B1B Si1 1_555 1_555
B2B Si1 1_555 1_555
B3B Si1 1_555 1_555
Si2B C1B 1_555 1_555
B4B C1B 1_555 1_555
C3B C2B 1_555 1_555
H1B B1B 1_555 1_555
H2B B2B 1_555 1_555
H3B B3B 1_555 1_555
C4B Si2B 1_555 1_555
C5B Si2B 1_555 1_555
C6B Si2B 1_555 1_555
H4B B4B 1_555 1_555
H5B C3B 1_555 1_555
H6B C3B 1_555 1_555
H7B C3B 1_555 1_555
H8B C4B 1_555 1_555
H9B C4B 1_555 1_555
H10B C4B 1_555 1_555
H11B C5B 1_555 1_555
H12B C5B 1_555 1_555
H13B C5B 1_555 1_555
H14B C6B 1_555 1_555
H15B C6B 1_555 1_555
C1 B3 1_555 1_555
C2 B1 1_555 1_555
C2 B4 1_555 1_555
B1 B2 1_555 1_555
B1 B4 1_555 1_555
B2 B3 1_555 1_555
B2 B4 1_555 1_555
B3 B4 1_555 1_555
C1B C2B 1_555 1_555
C1B B3B 1_555 1_555
C2B B1B 1_555 1_555
C2B B4B 1_555 1_555
B1B B2B 1_555 1_555
B1B B4B 1_555 1_555
B2B B3B 1_555 1_555
B2B B4B 1_555 1_555
B3B B4B 1_555 1_555

#END
