
#######################################################################
#
#                 Cambridge Crystallographic Data Centre
#                                CCDC 
#
#######################################################################
#
# If this CIF has been generated from an entry in the Cambridge 
# Structural Database, then it will include bibliographic, chemical, 
# crystal, experimental, refinement or atomic coordinate data resulting 
# from the CCDC's data processing and validation procedures.
#
#######################################################################

data_FODWEC
_chemical_formula_moiety         'C20 H18 B1 F2 N3 S2'
_chemical_name_systematic        
10-(1,3-benzothiazol-2-ylsulfanyl)-5,5-difluoro-1,3,7,9-tetramethyl-5H-6\l^5^,5\l^5^-dipyrrolo[1,2-c:2',1'-f][1,3,2]diazaborinine
_symmetry_cell_setting           monoclinic
_symmetry_space_group_name_H-M   'P 21/c'
_symmetry_Int_Tables_number      14
_space_group_name_Hall           '-P 2ybc'
loop_
_symmetry_equiv_pos_site_id
_symmetry_equiv_pos_as_xyz
1 x,y,z
2 -x,1/2+y,1/2-z
3 -x,-y,-z
4 x,1/2-y,1/2+z
_cell_length_a                   11.7044(17)
_cell_length_b                   14.871(2)
_cell_length_c                   10.9035(17)
_cell_angle_alpha                90
_cell_angle_beta                 93.116(10)
_cell_angle_gamma                90
_cell_volume                     1895.02
_exptl_crystal_colour            'red orange'
_exptl_crystal_description       plate
_cell_formula_units_Z            4
loop_
_atom_site_label
_atom_site_type_symbol
_atom_site_fract_x
_atom_site_fract_y
_atom_site_fract_z
S1 S 0.57576(4) 0.23996(3) 0.31190(5)
S2 S 0.41882(4) 0.22921(3) 0.52923(4)
F1 F 0.94476(9) 0.36644(8) 0.59752(11)
F2 F 0.81701(10) 0.38985(8) 0.74421(11)
N1 N 0.79072(13) 0.25892(11) 0.61427(15)
N2 N 0.75285(14) 0.41302(11) 0.53334(15)
N3 N 0.35818(14) 0.19010(11) 0.30148(15)
C1 C 0.83159(16) 0.18952(13) 0.68415(18)
C2 C 0.78417(17) 0.10891(13) 0.63794(19)
H1 H 0.7987 0.0507 0.6713
C3 C 0.71291(17) 0.12797(13) 0.53596(18)
C4 C 0.71596(16) 0.22408(13) 0.52147(18)
C5 C 0.65746(16) 0.28329(13) 0.44123(18)
C6 C 0.67021(16) 0.37669(13) 0.44909(18)
C7 C 0.61580(17) 0.45074(14) 0.38398(19)
C8 C 0.66851(19) 0.52722(14) 0.4288(2)
H2 H 0.6508 0.5868 0.4027
C9 C 0.75292(18) 0.50328(13) 0.51936(19)
C10 C 0.91572(18) 0.20126(14) 0.79008(19)
H3 H 0.9885 0.2226 0.7605
H4 H 0.9277 0.1435 0.8322
H5 H 0.8864 0.2453 0.8473
C11 C 0.64813(18) 0.05795(13) 0.4621(2)
H6 H 0.6660 -0.0017 0.4963
H7 H 0.6701 0.0604 0.3767
H8 H 0.5658 0.0693 0.4650
C12 C 0.51746(18) 0.45039(15) 0.2901(2)
H9 H 0.4948 0.5124 0.2707
H10 H 0.4527 0.4182 0.3229
H11 H 0.5405 0.4203 0.2154
C13 C 0.8339(2) 0.56381(14) 0.5899(2)
H12 H 0.8308 0.5512 0.6778
H13 H 0.8123 0.6266 0.5738
H14 H 0.9118 0.5534 0.5643
C14 C 0.44284(16) 0.21832(13) 0.37296(17)
C15 C 0.26360(17) 0.17188(12) 0.37108(18)
C16 C 0.28004(17) 0.18945(13) 0.49729(19)
C17 C 0.19501(17) 0.17154(14) 0.5791(2)
H15 H 0.2066 0.1843 0.6643
C18 C 0.09311(18) 0.13449(15) 0.5317(2)
H16 H 0.0345 0.1204 0.5854
C19 C 0.07557(18) 0.11761(14) 0.4063(2)
H17 H 0.0049 0.0925 0.3759
C20 C 0.15913(17) 0.13677(13) 0.32519(19)
H18 H 0.1457 0.1262 0.2397
B1 B 0.83091(19) 0.35862(15) 0.6255(2)
loop_
_geom_bond_atom_site_label_1
_geom_bond_atom_site_label_2
_geom_bond_site_symmetry_1
_geom_bond_site_symmetry_2
S1 C5 1_555 1_555
S2 C14 1_555 1_555
F1 B1 1_555 1_555
F2 B1 1_555 1_555
N1 C1 1_555 1_555
N2 C6 1_555 1_555
N3 C14 1_555 1_555
C1 C2 1_555 1_555
C2 H1 1_555 1_555
C3 C2 1_555 1_555
C4 N1 1_555 1_555
C5 C4 1_555 1_555
C6 C5 1_555 1_555
C7 C6 1_555 1_555
C8 C7 1_555 1_555
H2 C8 1_555 1_555
C9 N2 1_555 1_555
C10 C1 1_555 1_555
H3 C10 1_555 1_555
H4 C10 1_555 1_555
H5 C10 1_555 1_555
C11 C3 1_555 1_555
H6 C11 1_555 1_555
H7 C11 1_555 1_555
H8 C11 1_555 1_555
C12 C7 1_555 1_555
H9 C12 1_555 1_555
H10 C12 1_555 1_555
H11 C12 1_555 1_555
C13 C9 1_555 1_555
H12 C13 1_555 1_555
H13 C13 1_555 1_555
H14 C13 1_555 1_555
C14 S1 1_555 1_555
C15 N3 1_555 1_555
C16 S2 1_555 1_555
C17 C16 1_555 1_555
H15 C17 1_555 1_555
C18 C17 1_555 1_555
H16 C18 1_555 1_555
C19 C18 1_555 1_555
H17 C19 1_555 1_555
C20 C15 1_555 1_555
H18 C20 1_555 1_555
B1 N1 1_555 1_555
N2 B1 1_555 1_555
C3 C4 1_555 1_555
C8 C9 1_555 1_555
C15 C16 1_555 1_555
C19 C20 1_555 1_555

#END
