
#######################################################################
#
#                 Cambridge Crystallographic Data Centre
#                                CCDC 
#
#######################################################################
#
# If this CIF has been generated from an entry in the Cambridge 
# Structural Database, then it will include bibliographic, chemical, 
# crystal, experimental, refinement or atomic coordinate data resulting 
# from the CCDC's data processing and validation procedures.
#
#######################################################################

data_FODZAB
_chemical_formula_moiety         'C23 H19 N1 O1'
_chemical_name_systematic        
2,4-diphenyl-5-(1-phenylvinyl)-4,5-dihydro-1,3-oxazole
_symmetry_cell_setting           monoclinic
_symmetry_space_group_name_H-M   'P 21/c'
_symmetry_Int_Tables_number      14
_space_group_name_Hall           '-P 2ybc'
loop_
_symmetry_equiv_pos_site_id
_symmetry_equiv_pos_as_xyz
1 x,y,z
2 -x,1/2+y,1/2-z
3 -x,-y,-z
4 x,1/2-y,1/2+z
_cell_length_a                   12.1014(19)
_cell_length_b                   14.615(2)
_cell_length_c                   10.1483(16)
_cell_angle_alpha                90
_cell_angle_beta                 100.454(5)
_cell_angle_gamma                90
_cell_volume                     1765.06
_exptl_crystal_colour            colorless
_exptl_crystal_description       block
_chemical_melting_point          '357 K'
_cell_formula_units_Z            4
_exptl_crystal_recrystallization_method 'hexane/diethyl ether'
loop_
_atom_site_label
_atom_site_type_symbol
_atom_site_fract_x
_atom_site_fract_y
_atom_site_fract_z
O1 O 0.5588(2) 0.09825(18) 0.4048(3)
N1 N 0.4686(3) 0.0674(2) 0.1943(3)
C1 C 0.3530(4) -0.0911(3) 0.2690(4)
H1 H 0.4303 -0.0977 0.2640
C2 C 0.2871(4) -0.1685(3) 0.2726(4)
H2 H 0.3193 -0.2276 0.2704
C3 C 0.1752(4) -0.1595(3) 0.2794(5)
H3 H 0.1299 -0.2125 0.2809
C4 C 0.1288(4) -0.0740(3) 0.2841(4)
H4 H 0.0517 -0.0679 0.2903
C5 C 0.1945(4) 0.0031(3) 0.2797(4)
H5 H 0.1616 0.0620 0.2816
C6 C 0.3074(3) -0.0043(2) 0.2727(4)
C7 C 0.3785(3) 0.0800(2) 0.2717(4)
H6 H 0.3295 0.1318 0.2321
C8 C 0.4413(3) 0.1083(2) 0.4135(4)
H7 H 0.4219 0.0645 0.4815
C9 C 0.5623(3) 0.0783(2) 0.2745(4)
C10 C 0.6748(3) 0.0734(2) 0.2405(4)
C11 C 0.7690(4) 0.0907(3) 0.3385(4)
H8 H 0.7607 0.1031 0.4281
C12 C 0.8753(4) 0.0899(3) 0.3047(5)
H9 H 0.9399 0.1008 0.3713
C13 C 0.8863(4) 0.0731(3) 0.1744(5)
H10 H 0.9589 0.0738 0.1510
C14 C 0.7936(4) 0.0554(3) 0.0775(4)
H11 H 0.8026 0.0438 -0.0121
C15 C 0.6872(3) 0.0543(3) 0.1102(4)
H12 H 0.6233 0.0406 0.0438
C16 C 0.4174(3) 0.2045(2) 0.4534(4)
C17 C 0.4899(4) 0.2726(3) 0.4547(4)
H13 H 0.4699 0.3327 0.4772
H14 H 0.5619 0.2612 0.4333
C18 C 0.3032(3) 0.2184(2) 0.4863(4)
C19 C 0.2549(4) 0.1557(3) 0.5600(5)
H15 H 0.2951 0.1018 0.5913
C20 C 0.1495(5) 0.1696(3) 0.5892(5)
H16 H 0.1179 0.1249 0.6392
C21 C 0.0896(4) 0.2466(4) 0.5475(5)
H17 H 0.0168 0.2556 0.5680
C22 C 0.1362(4) 0.3109(4) 0.4754(5)
H18 H 0.0957 0.3651 0.4463
C23 C 0.2419(4) 0.2971(3) 0.4451(5)
H19 H 0.2731 0.3421 0.3951
loop_
_geom_bond_atom_site_label_1
_geom_bond_atom_site_label_2
_geom_bond_site_symmetry_1
_geom_bond_site_symmetry_2
O1 C8 1_555 1_555
N1 C7 1_555 1_555
C1 H1 1_555 1_555
C2 C1 1_555 1_555
H2 C2 1_555 1_555
C3 C2 1_555 1_555
H3 C3 1_555 1_555
C4 C3 1_555 1_555
H4 C4 1_555 1_555
C5 C4 1_555 1_555
H5 C5 1_555 1_555
C6 C1 1_555 1_555
C7 C6 1_555 1_555
H6 C7 1_555 1_555
C8 C7 1_555 1_555
H7 C8 1_555 1_555
C9 O1 1_555 1_555
C10 C9 1_555 1_555
C11 C10 1_555 1_555
H8 C11 1_555 1_555
C12 C11 1_555 1_555
H9 C12 1_555 1_555
C13 C12 1_555 1_555
H10 C13 1_555 1_555
C14 C13 1_555 1_555
H11 C14 1_555 1_555
C15 C10 1_555 1_555
H12 C15 1_555 1_555
C16 C8 1_555 1_555
C17 C16 1_555 1_555
H13 C17 1_555 1_555
H14 C17 1_555 1_555
C18 C16 1_555 1_555
C19 C18 1_555 1_555
H15 C19 1_555 1_555
C20 C19 1_555 1_555
H16 C20 1_555 1_555
C21 C20 1_555 1_555
H17 C21 1_555 1_555
C22 C21 1_555 1_555
H18 C22 1_555 1_555
C23 C18 1_555 1_555
H19 C23 1_555 1_555
N1 C9 1_555 1_555
C5 C6 1_555 1_555
C14 C15 1_555 1_555
C22 C23 1_555 1_555

#END
