
#######################################################################
#
#                 Cambridge Crystallographic Data Centre
#                                CCDC 
#
#######################################################################
#
# If this CIF has been generated from an entry in the Cambridge 
# Structural Database, then it will include bibliographic, chemical, 
# crystal, experimental, refinement or atomic coordinate data resulting 
# from the CCDC's data processing and validation procedures.
#
#######################################################################

data_FOFBUX
_chemical_formula_moiety         'C18 H28 O5'
_chemical_name_systematic        
2-(1-Hydroxyheptyl)-4-acetoxy-5,6,7,8-tetrahydro-5-oxochroman
_symmetry_cell_setting           orthorhombic
_symmetry_space_group_name_H-M   'P 21 21 21'
_symmetry_Int_Tables_number      19
_space_group_name_Hall           'P 2ac 2ab'
loop_
_symmetry_equiv_pos_site_id
_symmetry_equiv_pos_as_xyz
1 x,y,z
2 1/2-x,-y,1/2+z
3 1/2+x,1/2-y,-z
4 -x,1/2+y,1/2-z
_cell_length_a                   13.690(4)
_cell_length_b                   25.900(3)
_cell_length_c                   5.179(3)
_cell_angle_alpha                90
_cell_angle_beta                 90
_cell_angle_gamma                90
_cell_volume                     1836.32
_exptl_crystal_colour            colorless
_exptl_crystal_description       prismatic
_cell_formula_units_Z            4
loop_
_atom_site_label
_atom_site_type_symbol
_atom_site_fract_x
_atom_site_fract_y
_atom_site_fract_z
O1 O 1.2766(3) 0.2699(2) 0.342(1)
O2 O 0.9678(2) 0.2039(1) 0.1105(8)
O3 O 1.2091(3) 0.1532(1) 0.2856(7)
O4 O 1.3443(3) 0.1353(2) 0.065(1)
O5 O 0.9212(3) 0.1487(2) -0.3642(8)
C1 C 1.0284(4) 0.2382(2) 0.228(1)
C2 C 0.9736(4) 0.2816(2) 0.347(1)
C3 C 1.0383(6) 0.3228(3) 0.430(2)
C4 C 1.1385(5) 0.3124(3) 0.513(2)
C5 C 1.1870(4) 0.2712(2) 0.356(1)
C6 C 1.1273(4) 0.2327(2) 0.227(1)
C7 C 1.1766(4) 0.1900(2) 0.087(1)
C8 C 1.1070(4) 0.1632(2) -0.095(1)
C9 C 1.0106(4) 0.1541(2) 0.043(1)
C10 C 1.2933(4) 0.1282(3) 0.247(1)
C11 C 1.3127(5) 0.0911(2) 0.461(1)
C12 C 0.9358(4) 0.1252(2) -0.117(1)
C13 C 0.8400(4) 0.1163(2) 0.023(1)
C14 C 0.7743(4) 0.0771(2) -0.108(1)
C15 C 0.6787(4) 0.0683(2) 0.027(1)
C16 C 0.6101(4) 0.0309(2) -0.109(1)
C17 C 0.5135(5) 0.0249(2) 0.025(2)
C18 C 0.4479(5) -0.0155(3) -0.104(2)
H1 H 0.9708 0.2743 0.5379
H2 H 0.9113 0.2869 0.2276
H3 H 1.0063 0.3388 0.5753
H4 H 1.0415 0.3467 0.2934
H5 H 1.1229 0.2965 0.6795
H6 H 1.1709 0.3456 0.5040
H7 H 1.2367 0.2049 -0.0064
H8 H 1.1330 0.1264 -0.1534
H9 H 1.0889 0.1867 -0.2644
H10 H 1.0160 0.1349 0.2162
H11 H 1.3744 0.0747 0.4267
H12 H 1.2631 0.0665 0.4653
H13 H 1.3170 0.1094 0.6177
H14 H 0.9653 0.0874 -0.1644
H15 H 0.8510 0.1039 0.1956
H16 H 0.8034 0.1504 0.0073
H17 H 0.8110 0.0426 -0.1231
H18 H 0.7676 0.0899 -0.2989
H19 H 0.6890 0.0585 0.2160
H20 H 0.6461 0.1021 0.0593
H21 H 0.6429 -0.0036 -0.1138
H22 H 0.6129 0.0382 -0.2942
H23 H 0.5252 0.0089 0.2135
H24 H 0.4842 0.0571 0.0724
H25 H 0.4792 -0.0475 -0.1046
H26 H 0.3884 -0.0179 -0.0031
H27 H 0.4319 -0.0045 -0.2715
H28 H 0.8793 0.1712 -0.3306
loop_
_geom_bond_atom_site_label_1
_geom_bond_atom_site_label_2
_geom_bond_site_symmetry_1
_geom_bond_site_symmetry_2
O1 C5 1_555 1_555
O2 C1 1_555 1_555
O3 C7 1_555 1_555
O4 C10 1_555 1_555
O5 C12 1_555 1_555
C1 C2 1_555 1_555
C2 C3 1_555 1_555
C3 C4 1_555 1_555
C4 C5 1_555 1_555
C5 C6 1_555 1_555
C6 C1 1_555 1_555
C7 C6 1_555 1_555
C8 C7 1_555 1_555
C9 O2 1_555 1_555
C10 O3 1_555 1_555
C11 C10 1_555 1_555
C12 C9 1_555 1_555
C13 C12 1_555 1_555
C14 C13 1_555 1_555
C15 C14 1_555 1_555
C16 C15 1_555 1_555
C17 C16 1_555 1_555
C18 C17 1_555 1_555
H1 C2 1_555 1_555
H2 C2 1_555 1_555
H3 C3 1_555 1_555
H4 C3 1_555 1_555
H5 C4 1_555 1_555
H6 C4 1_555 1_555
H7 C7 1_555 1_555
H8 C8 1_555 1_555
H9 C8 1_555 1_555
H10 C9 1_555 1_555
H11 C11 1_555 1_555
H12 C11 1_555 1_555
H13 C11 1_555 1_555
H14 C12 1_555 1_555
H15 C13 1_555 1_555
H16 C13 1_555 1_555
H17 C14 1_555 1_555
H18 C14 1_555 1_555
H19 C15 1_555 1_555
H20 C15 1_555 1_555
H21 C16 1_555 1_555
H22 C16 1_555 1_555
H23 C17 1_555 1_555
H24 C17 1_555 1_555
H25 C18 1_555 1_555
H26 C18 1_555 1_555
H27 C18 1_555 1_555
H28 O5 1_555 1_555
C8 C9 1_555 1_555

#END
