
#######################################################################
#
#                 Cambridge Crystallographic Data Centre
#                                CCDC 
#
#######################################################################
#
# If this CIF has been generated from an entry in the Cambridge 
# Structural Database, then it will include bibliographic, chemical, 
# crystal, experimental, refinement or atomic coordinate data resulting 
# from the CCDC's data processing and validation procedures.
#
#######################################################################

data_FOFWOO
_chemical_formula_moiety         'C21 H28 N2 O3'
_chemical_name_systematic        
3-hydroxy-N-(2-hydroxy-1,2-diphenylethyl)-N-methylleucinamide
_symmetry_cell_setting           monoclinic
_symmetry_space_group_name_H-M   'P 21'
_symmetry_Int_Tables_number      4
_space_group_name_Hall           'P 2yb'
loop_
_symmetry_equiv_pos_site_id
_symmetry_equiv_pos_as_xyz
1 x,y,z
2 -x,1/2+y,-z
_cell_length_a                   12.4892(4)
_cell_length_b                   6.1263(2)
_cell_length_c                   12.4919(4)
_cell_angle_alpha                90
_cell_angle_beta                 93.300(2)
_cell_angle_gamma                90
_cell_volume                     954.203
_exptl_crystal_colour            colorless
_exptl_crystal_description       needle
_cell_formula_units_Z            2
loop_
_atom_site_label
_atom_site_type_symbol
_atom_site_fract_x
_atom_site_fract_y
_atom_site_fract_z
C1 C 0.1463(3) 0.3256(7) 0.0668(3)
H1 H 0.1192 0.1817 0.0737
C2 C 0.1052(4) 0.4599(7) -0.0161(4)
H2 H 0.0509 0.4064 -0.0657
C3 C 0.1431(4) 0.6694(7) -0.0263(4)
H3 H 0.1152 0.7606 -0.0827
C4 C 0.2230(3) 0.7470(7) 0.0472(3)
H4 H 0.2497 0.8914 0.0408
C5 C 0.2632(3) 0.6131(7) 0.1294(3)
H5 H 0.3166 0.6678 0.1796
C6 C 0.2271(3) 0.4014(6) 0.1397(3)
C7 C 0.2751(3) 0.2550(6) 0.2282(3)
H6 H 0.2611 0.0983 0.2100
C8 C 0.2266(3) 0.3124(6) 0.3355(3)
H7 H 0.2421 0.4705 0.3489
C9 C 0.1054(3) 0.2863(6) 0.3366(3)
C10 C 0.0480(3) 0.4497(6) 0.3825(3)
H8 H 0.0839 0.5772 0.4087
C11 C -0.0641(4) 0.4297(8) 0.3910(4)
H9 H -0.1034 0.5428 0.4229
C12 C -0.1156(3) 0.2444(8) 0.3523(4)
H10 H -0.1908 0.2294 0.3573
C13 C -0.0577(3) 0.0807(8) 0.3063(3)
H11 H -0.0936 -0.0474 0.2807
C14 C 0.0524(3) 0.1007(7) 0.2969(3)
H12 H 0.0912 -0.0115 0.2635
C15 C 0.3188(3) 0.3038(6) 0.5120(3)
C16 C 0.3723(3) 0.1793(6) 0.6089(3)
H13 H 0.3216 0.0620 0.6292
C17 C 0.3884(3) 0.3342(6) 0.7054(3)
H14 H 0.3183 0.4062 0.7176
C18 C 0.4277(3) 0.2185(7) 0.8093(3)
H15 H 0.5011 0.1599 0.7990
C19 C 0.2799(3) -0.0484(6) 0.4199(3)
H16 H 0.2056 -0.1003 0.4148
H17 H 0.3172 -0.1096 0.4842
H18 H 0.3162 -0.0950 0.3562
C20 C 0.3562(4) 0.0278(9) 0.8373(4)
H19 H 0.2818 0.0778 0.8388
H20 H 0.3799 -0.0301 0.9079
H21 H 0.3609 -0.0872 0.7832
C21 C 0.4362(5) 0.3823(9) 0.9020(4)
H22 H 0.4863 0.4988 0.8852
H23 H 0.4622 0.3076 0.9678
H24 H 0.3654 0.4454 0.9122
N1 N 0.2810(3) 0.1901(5) 0.4265(3)
N2 N 0.4700(3) 0.0721(7) 0.5749(3)
O1 O 0.3875(2) 0.2953(5) 0.2375(2)
O2 O 0.3125(2) 0.5055(5) 0.5169(2)
O3 O 0.4639(3) 0.4986(6) 0.6822(2)
H25 H 0.422(5) 0.189(10) 0.257(5)
H26 H 0.495(4) -0.010(9) 0.632(5)
H27 H 0.516(4) 0.185(8) 0.560(4)
H28 H 0.426(5) 0.593(13) 0.629(5)
loop_
_geom_bond_atom_site_label_1
_geom_bond_atom_site_label_2
_geom_bond_site_symmetry_1
_geom_bond_site_symmetry_2
C1 H1 1_555 1_555
C2 C1 1_555 1_555
H2 C2 1_555 1_555
C3 C2 1_555 1_555
H3 C3 1_555 1_555
C4 C3 1_555 1_555
H4 C4 1_555 1_555
C5 C4 1_555 1_555
H5 C5 1_555 1_555
C6 C1 1_555 1_555
C7 C6 1_555 1_555
H6 C7 1_555 1_555
C8 C7 1_555 1_555
H7 C8 1_555 1_555
C9 C8 1_555 1_555
C10 C9 1_555 1_555
H8 C10 1_555 1_555
C11 C10 1_555 1_555
H9 C11 1_555 1_555
C12 C11 1_555 1_555
H10 C12 1_555 1_555
C13 C12 1_555 1_555
H11 C13 1_555 1_555
C14 C9 1_555 1_555
H12 C14 1_555 1_555
C15 C16 1_555 1_555
C16 H13 1_555 1_555
C17 C16 1_555 1_555
H14 C17 1_555 1_555
C18 C17 1_555 1_555
H15 C18 1_555 1_555
C19 H16 1_555 1_555
H17 C19 1_555 1_555
H18 C19 1_555 1_555
C20 C18 1_555 1_555
H19 C20 1_555 1_555
H20 C20 1_555 1_555
H21 C20 1_555 1_555
C21 C18 1_555 1_555
H22 C21 1_555 1_555
H23 C21 1_555 1_555
H24 C21 1_555 1_555
N1 C8 1_555 1_555
N2 C16 1_555 1_555
O1 C7 1_555 1_555
O2 C15 1_555 1_555
O3 C17 1_555 1_555
H25 O1 1_555 1_555
H26 N2 1_555 1_555
H27 N2 1_555 1_555
H28 O3 1_555 1_555
C5 C6 1_555 1_555
C13 C14 1_555 1_555
C15 N1 1_555 1_555
C19 N1 1_555 1_555

#END
