
#######################################################################
#
#                 Cambridge Crystallographic Data Centre
#                                CCDC 
#
#######################################################################
#
# If this CIF has been generated from an entry in the Cambridge 
# Structural Database, then it will include bibliographic, chemical, 
# crystal, experimental, refinement or atomic coordinate data resulting 
# from the CCDC's data processing and validation procedures.
#
#######################################################################

data_FOFWUT
_chemical_formula_moiety         'C28 H41 Li1 N3 P1 Si1'
_chemical_name_systematic        
(2-(Diphenyl(trimethylsilylimino)phosphino)benzyl-C,N)-(N,N,N',N'-tetramethylethylenediamine-N,N')-lithium
_symmetry_cell_setting           orthorhombic
_symmetry_space_group_name_H-M   'P b c a'
_symmetry_Int_Tables_number      61
_space_group_name_Hall           '-P 2ac 2ab'
loop_
_symmetry_equiv_pos_site_id
_symmetry_equiv_pos_as_xyz
1 x,y,z
2 1/2-x,-y,1/2+z
3 -x,1/2+y,1/2-z
4 1/2+x,1/2-y,-z
5 -x,-y,-z
6 1/2+x,y,1/2-z
7 x,1/2-y,1/2+z
8 1/2-x,1/2+y,z
_cell_length_a                   19.514(4)
_cell_length_b                   16.239(3)
_cell_length_c                   37.215(6)
_cell_angle_alpha                90
_cell_angle_beta                 90
_cell_angle_gamma                90
_cell_volume                     11793
_exptl_crystal_colour            red
_chemical_melting_point          129-131deg.C
_cell_formula_units_Z            16
loop_
_atom_site_label
_atom_site_type_symbol
_atom_site_fract_x
_atom_site_fract_y
_atom_site_fract_z
P1 P 0.61996(6) 0.70976(8) 0.06273(3)
Si1 Si 0.53146(8) 0.58015(9) 0.09532(4)
Li1 Li 0.4712(4) 0.7534(5) 0.0596(2)
N1 N 0.54951(17) 0.6719(2) 0.07519(9)
N3 N 0.3700(2) 0.7664(3) 0.08331(14)
N4 N 0.4168(2) 0.7472(3) 0.00899(12)
C1 C 0.6104(2) 0.7926(3) 0.03244(13)
C2 C 0.5702(3) 0.8626(3) 0.04317(16)
C3 C 0.5694(3) 0.9279(3) 0.01649(18)
H1 H 0.5467 0.9765 0.0221
C4 C 0.5997(3) 0.9219(4) -0.01613(18)
H2 H 0.5956 0.9651 -0.0324
C5 C 0.6369(3) 0.8522(4) -0.02567(15)
H3 H 0.6579 0.8483 -0.0480
C6 C 0.6418(3) 0.7898(3) -0.00142(14)
H4 H 0.6671 0.7434 -0.0076
C7 C 0.5332(3) 0.8688(3) 0.07454(15)
H5 H 0.5057 0.9185 0.0760
H6 H 0.5609 0.8621 0.0960
C8 C 0.6721(2) 0.7490(3) 0.09916(14)
C9 C 0.6601(3) 0.7253(3) 0.13412(16)
H7 H 0.6241 0.6896 0.1391
C10 C 0.7010(4) 0.7539(4) 0.16207(16)
H8 H 0.6921 0.7378 0.1856
C11 C 0.7545(4) 0.8059(4) 0.1548(2)
H9 H 0.7826 0.8244 0.1733
C12 C 0.7665(3) 0.8305(4) 0.1203(2)
H10 H 0.8026 0.8660 0.1153
C13 C 0.7249(3) 0.8025(3) 0.09264(15)
H11 H 0.7330 0.8205 0.0693
C14 C 0.6731(2) 0.6323(3) 0.04172(12)
C15 C 0.7367(3) 0.6097(3) 0.05391(14)
H12 H 0.7566 0.6393 0.0726
C16 C 0.7721(3) 0.5445(4) 0.03934(17)
H13 H 0.8149 0.5301 0.0483
C17 C 0.7438(3) 0.5009(4) 0.01155(18)
H14 H 0.7671 0.4564 0.0017
C18 C 0.6813(3) 0.5232(4) -0.00149(16)
H15 H 0.6624 0.4941 -0.0206
C19 C 0.6459(3) 0.5881(3) 0.01319(14)
H16 H 0.6033 0.6025 0.0039
C20 C 0.4694(3) 0.5222(3) 0.06695(15)
H17 H 0.4304 0.5565 0.0619
H18 H 0.4546 0.4737 0.0795
H19 H 0.4910 0.5067 0.0448
C21 C 0.4928(3) 0.5977(4) 0.14035(13)
H20 H 0.4881 0.6558 0.1445
H21 H 0.5219 0.5743 0.1585
H22 H 0.4486 0.5720 0.1413
C22 C 0.6053(3) 0.5096(3) 0.10277(14)
H23 H 0.6214 0.4894 0.0801
H24 H 0.5910 0.4642 0.1175
H25 H 0.6415 0.5390 0.1146
C23 C 0.3324(3) 0.7970(4) 0.0524(2)
H26 H 0.3463 0.8532 0.0475
H27 H 0.2838 0.7973 0.0578
C24 C 0.3448(3) 0.7450(5) 0.01949(18)
H28 H 0.3314 0.6886 0.0244
H29 H 0.3168 0.7652 -0.0002
C25 C 0.3369(3) 0.6939(4) 0.09794(17)
H30 H 0.2914 0.7079 0.1057
H31 H 0.3628 0.6738 0.1180
H32 H 0.3345 0.6520 0.0798
C26 C 0.3711(3) 0.8287(4) 0.11149(18)
H33 H 0.3942 0.8770 0.1029
H34 H 0.3949 0.8075 0.1321
H35 H 0.3250 0.8426 0.1181
C27 C 0.4338(4) 0.6766(4) -0.01409(16)
H36 H 0.4057 0.6778 -0.0353
H37 H 0.4257 0.6264 -0.0012
H38 H 0.4812 0.6795 -0.0209
C28 C 0.4319(3) 0.8217(4) -0.01120(15)
H39 H 0.4030 0.8242 -0.0320
H40 H 0.4791 0.8210 -0.0186
H41 H 0.4237 0.8690 0.0037
P2 P 0.36335(6) 0.12758(8) 0.18879(3)
Si2 Si 0.44845(9) 0.23136(12) 0.14084(5)
Li2 Li 0.5122(4) 0.0786(5) 0.1883(2)
N2 N 0.43306(18) 0.1540(2) 0.17041(9)
N5 N 0.5693(2) 0.1164(3) 0.23529(13)
N6 N 0.6154(2) 0.0477(3) 0.16497(13)
C29 C 0.3746(2) 0.0607(3) 0.22549(12)
C30 C 0.4136(3) -0.0139(3) 0.22104(16)
C31 C 0.4197(3) -0.0629(3) 0.25320(19)
H42 H 0.4449 -0.1114 0.2520
C32 C 0.3913(3) -0.0427(4) 0.28449(19)
H43 H 0.3975 -0.0772 0.3042
C33 C 0.3526(3) 0.0284(4) 0.28851(15)
H44 H 0.3326 0.0422 0.3104
C34 C 0.3453(2) 0.0774(3) 0.25883(15)
H45 H 0.3190 0.1249 0.2611
C35 C 0.4455(3) -0.0379(3) 0.18927(15)
H46 H 0.4143 -0.0416 0.1691
H47 H 0.4719 -0.0882 0.1917
C36 C 0.3157(3) 0.2155(3) 0.20519(13)
C37 C 0.3494(3) 0.2694(4) 0.22741(16)
H48 H 0.3947 0.2590 0.2337
C38 C 0.3173(4) 0.3389(4) 0.24058(17)
H49 H 0.3406 0.3737 0.2562
C39 C 0.2515(4) 0.3567(4) 0.23088(19)
H50 H 0.2302 0.4037 0.2397
C40 C 0.2180(3) 0.3061(4) 0.20858(17)
H51 H 0.1733 0.3182 0.2017
C41 C 0.2496(3) 0.2357(4) 0.19583(13)
H52 H 0.2255 0.2011 0.1805
C42 C 0.3059(2) 0.0739(3) 0.15868(13)
C43 C 0.2473(3) 0.0357(3) 0.17157(14)
H53 H 0.2370 0.0390 0.1959
C44 C 0.2038(3) -0.0071(3) 0.14917(18)
H54 H 0.1642 -0.0311 0.1583
C45 C 0.2193(3) -0.0143(3) 0.11337(17)
H55 H 0.1905 -0.0438 0.0982
C46 C 0.2775(3) 0.0222(3) 0.10008(14)
H56 H 0.2881 0.0177 0.0758
C47 C 0.3202(2) 0.0656(3) 0.12282(14)
H57 H 0.3596 0.0897 0.1136
C48 C 0.3701(9) 0.2670(14) 0.1160(7)
H58 H 0.3535 0.2233 0.1010
H59 H 0.3815 0.3138 0.1014
H60 H 0.3352 0.2822 0.1329
C49 C 0.5159(13) 0.214(2) 0.1075(7)
H61 H 0.5059 0.1647 0.0942
H62 H 0.5592 0.2080 0.1194
H63 H 0.5178 0.2599 0.0913
C50 C 0.4737(19) 0.3274(12) 0.1674(6)
H64 H 0.4414 0.3362 0.1864
H65 H 0.4739 0.3743 0.1517
H66 H 0.5187 0.3199 0.1774
C54 C 0.6388(6) 0.0792(10) 0.2289(2)
H76 H 0.6374 0.0210 0.2347
H77 H 0.6719 0.1051 0.2448
C55 C 0.6619(5) 0.0902(8) 0.1899(3)
H78 H 0.6631 0.1484 0.1841
H79 H 0.7079 0.0684 0.1871
C56 C 0.5420(10) 0.0923(12) 0.2704(4)
H80 H 0.5716 0.1127 0.2890
H81 H 0.5396 0.0334 0.2718
H82 H 0.4970 0.1151 0.2734
C57 C 0.5707(12) 0.2064(6) 0.2287(6)
H83 H 0.5945 0.2332 0.2480
H84 H 0.5246 0.2270 0.2274
H85 H 0.5939 0.2173 0.2064
C58 C 0.6154(10) -0.0436(6) 0.1708(4)
H86 H 0.6576 -0.0665 0.1621
H87 H 0.5776 -0.0678 0.1581
H88 H 0.6110 -0.0550 0.1960
C59 C 0.6329(10) 0.0643(11) 0.1263(2)
H89 H 0.6789 0.0464 0.1215
H90 H 0.6292 0.1223 0.1216
H91 H 0.6017 0.0348 0.1110
C51? C 0.3766(9) 0.2918(13) 0.1239(6)
H67? H 0.3505 0.2592 0.1073
H68? H 0.3936 0.3400 0.1119
H69? H 0.3479 0.3080 0.1436
C52? C 0.4882(7) 0.1765(12) 0.1003(3)
H70? H 0.4624 0.1277 0.0950
H71? H 0.5347 0.1618 0.1057
H72? H 0.4874 0.2126 0.0799
C53? C 0.5172(11) 0.3024(15) 0.1567(5)
H73? H 0.5609 0.2828 0.1486
H74? H 0.5169 0.3044 0.1825
H75? H 0.5091 0.3566 0.1473
C60? C 0.6411(4) 0.1180(7) 0.2224(3)
H92? H 0.6723 0.1201 0.2427
H93? H 0.6488 0.1663 0.2076
C61? C 0.6539(6) 0.0384(7) 0.2001(2)
H94? H 0.7025 0.0315 0.1956
H95? H 0.6375 -0.0094 0.2131
C62? C 0.5607(7) 0.0505(7) 0.2633(3)
H96? H 0.5854 0.0658 0.2846
H97? H 0.5783 -0.0007 0.2543
H98? H 0.5130 0.0443 0.2690
C63? C 0.5493(9) 0.1974(7) 0.2521(4)
H99? H 0.5777 0.2076 0.2727
H100? H 0.5022 0.1953 0.2594
H101? H 0.5555 0.2409 0.2350
C64? C 0.6106(9) -0.0320(7) 0.1463(4)
H102? H 0.6545 -0.0461 0.1365
H103? H 0.5776 -0.0281 0.1273
H104? H 0.5966 -0.0738 0.1630
C65? C 0.6527(8) 0.1107(9) 0.1428(4)
H105? H 0.6960 0.0887 0.1352
H106? H 0.6602 0.1594 0.1570
H107? H 0.6257 0.1245 0.1221
loop_
_geom_bond_atom_site_label_1
_geom_bond_atom_site_label_2
_geom_bond_site_symmetry_1
_geom_bond_site_symmetry_2
P1 N1 1_555 1_555
P2 N2 1_555 1_555
Si1 N1 1_555 1_555
Si2 N2 1_555 1_555
Li1 N1 1_555 1_555
Li2 N2 1_555 1_555
N3 Li1 1_555 1_555
N4 Li1 1_555 1_555
N5 Li2 1_555 1_555
N6 Li2 1_555 1_555
C1 P1 1_555 1_555
C2 C1 1_555 1_555
C3 C2 1_555 1_555
H1 C3 1_555 1_555
C4 C3 1_555 1_555
H2 C4 1_555 1_555
C5 C4 1_555 1_555
H3 C5 1_555 1_555
C6 C1 1_555 1_555
H4 C6 1_555 1_555
C7 Li1 1_555 1_555
H5 C7 1_555 1_555
H6 C7 1_555 1_555
C8 P1 1_555 1_555
C9 C8 1_555 1_555
H7 C9 1_555 1_555
C10 C9 1_555 1_555
H8 C10 1_555 1_555
C11 C10 1_555 1_555
H9 C11 1_555 1_555
C12 C11 1_555 1_555
H10 C12 1_555 1_555
C13 C8 1_555 1_555
H11 C13 1_555 1_555
C14 P1 1_555 1_555
C15 C14 1_555 1_555
H12 C15 1_555 1_555
C16 C15 1_555 1_555
H13 C16 1_555 1_555
C17 C16 1_555 1_555
H14 C17 1_555 1_555
C18 C17 1_555 1_555
H15 C18 1_555 1_555
C19 C14 1_555 1_555
H16 C19 1_555 1_555
C20 Si1 1_555 1_555
H17 C20 1_555 1_555
H18 C20 1_555 1_555
H19 C20 1_555 1_555
C21 Si1 1_555 1_555
H20 C21 1_555 1_555
H21 C21 1_555 1_555
H22 C21 1_555 1_555
C22 Si1 1_555 1_555
H23 C22 1_555 1_555
H24 C22 1_555 1_555
H25 C22 1_555 1_555
C23 N3 1_555 1_555
H26 C23 1_555 1_555
H27 C23 1_555 1_555
C24 N4 1_555 1_555
H28 C24 1_555 1_555
H29 C24 1_555 1_555
C25 N3 1_555 1_555
H30 C25 1_555 1_555
H31 C25 1_555 1_555
H32 C25 1_555 1_555
C26 N3 1_555 1_555
H33 C26 1_555 1_555
H34 C26 1_555 1_555
H35 C26 1_555 1_555
C27 N4 1_555 1_555
H36 C27 1_555 1_555
H37 C27 1_555 1_555
H38 C27 1_555 1_555
C28 N4 1_555 1_555
H39 C28 1_555 1_555
H40 C28 1_555 1_555
H41 C28 1_555 1_555
C29 P2 1_555 1_555
C30 C29 1_555 1_555
C31 C30 1_555 1_555
H42 C31 1_555 1_555
C32 C31 1_555 1_555
H43 C32 1_555 1_555
C33 C32 1_555 1_555
H44 C33 1_555 1_555
C34 C29 1_555 1_555
H45 C34 1_555 1_555
C35 Li2 1_555 1_555
H46 C35 1_555 1_555
H47 C35 1_555 1_555
C36 P2 1_555 1_555
C37 C36 1_555 1_555
H48 C37 1_555 1_555
C38 C37 1_555 1_555
H49 C38 1_555 1_555
C39 C38 1_555 1_555
H50 C39 1_555 1_555
C40 C39 1_555 1_555
H51 C40 1_555 1_555
C41 C36 1_555 1_555
H52 C41 1_555 1_555
C42 P2 1_555 1_555
C43 C42 1_555 1_555
H53 C43 1_555 1_555
C44 C43 1_555 1_555
H54 C44 1_555 1_555
C45 C44 1_555 1_555
H55 C45 1_555 1_555
C46 C45 1_555 1_555
H56 C46 1_555 1_555
C47 C42 1_555 1_555
H57 C47 1_555 1_555
C48 Si2 1_555 1_555
H58 C48 1_555 1_555
H59 C48 1_555 1_555
H60 C48 1_555 1_555
C49 Si2 1_555 1_555
H61 C49 1_555 1_555
H62 C49 1_555 1_555
H63 C49 1_555 1_555
C50 Si2 1_555 1_555
H64 C50 1_555 1_555
H65 C50 1_555 1_555
H66 C50 1_555 1_555
C54 N5 1_555 1_555
H76 C54 1_555 1_555
H77 C54 1_555 1_555
C55 N6 1_555 1_555
H78 C55 1_555 1_555
H79 C55 1_555 1_555
C56 N5 1_555 1_555
H80 C56 1_555 1_555
H81 C56 1_555 1_555
H82 C56 1_555 1_555
C57 N5 1_555 1_555
H83 C57 1_555 1_555
H84 C57 1_555 1_555
H85 C57 1_555 1_555
C58 N6 1_555 1_555
H86 C58 1_555 1_555
H87 C58 1_555 1_555
H88 C58 1_555 1_555
C59 N6 1_555 1_555
H89 C59 1_555 1_555
H90 C59 1_555 1_555
H91 C59 1_555 1_555
C2 C7 1_555 1_555
C5 C6 1_555 1_555
C12 C13 1_555 1_555
C18 C19 1_555 1_555
C23 C24 1_555 1_555
C30 C35 1_555 1_555
C33 C34 1_555 1_555
C40 C41 1_555 1_555
C46 C47 1_555 1_555
C54 C55 1_555 1_555

#END
