
#######################################################################
#
#                 Cambridge Crystallographic Data Centre
#                                CCDC 
#
#######################################################################
#
# If this CIF has been generated from an entry in the Cambridge 
# Structural Database, then it will include bibliographic, chemical, 
# crystal, experimental, refinement or atomic coordinate data resulting 
# from the CCDC's data processing and validation procedures.
#
#######################################################################

data_FOFXII
_chemical_formula_moiety         'C38 H54 Li1 N4 P1 Si2'
_chemical_name_systematic        
(N-(Trimethylsilyl)-1-phenyl-2-(2-((trimethylsilylimino)diphenylphosphino)phenyl)ethenamide-C,N)-(N,N,N',N'-tetramethylethylenediamine-N,N')-lithium
_symmetry_cell_setting           monoclinic
_symmetry_space_group_name_H-M   'P 21/c'
_symmetry_Int_Tables_number      14
_space_group_name_Hall           '-P 2ybc'
loop_
_symmetry_equiv_pos_site_id
_symmetry_equiv_pos_as_xyz
1 x,y,z
2 -x,1/2+y,1/2-z
3 -x,-y,-z
4 x,1/2-y,1/2+z
_cell_length_a                   10.430(3)
_cell_length_b                   15.305(5)
_cell_length_c                   25.749(6)
_cell_angle_alpha                90
_cell_angle_beta                 90.376(8)
_cell_angle_gamma                90
_cell_volume                     4110.25
_exptl_crystal_colour            yellow
_exptl_crystal_description       prism
_chemical_melting_point          138-140deg.C
_cell_formula_units_Z            4
loop_
_atom_site_label
_atom_site_type_symbol
_atom_site_fract_x
_atom_site_fract_y
_atom_site_fract_z
Li1 Li 0.3035(6) 0.2428(4) 0.1998(2)
P1 P 0.37860(8) 0.28540(5) 0.00157(3)
Si1 Si 0.25764(10) 0.10478(6) -0.02357(4)
Si2 Si 0.04528(11) 0.35962(8) 0.23671(4)
N1 N 0.3325(2) 0.18964(16) 0.00494(10)
N2 N 0.1428(2) 0.31000(17) 0.19353(10)
N3 N 0.3478(3) 0.1150(2) 0.17867(12)
N4 N 0.4363(4) 0.2251(3) 0.26234(14)
C1 C 0.4282(3) 0.33282(18) 0.06332(11)
C2 C 0.3434(3) 0.33792(18) 0.10660(11)
C3 C 0.3894(3) 0.3831(2) 0.15077(12)
H1 H 0.3355 0.3904 0.1791
C4 C 0.5119(4) 0.4166(2) 0.15310(14)
H2 H 0.5392 0.4449 0.1832
C5 C 0.5943(3) 0.4092(2) 0.11212(14)
H3 H 0.6773 0.4311 0.1143
C6 C 0.5507(3) 0.3683(2) 0.06744(12)
H4 H 0.6052 0.3644 0.0391
C7 C 0.2169(3) 0.29937(19) 0.10440(12)
H5 H 0.1943 0.2756 0.0724
C8 C 0.1243(3) 0.29228(19) 0.14227(12)
C9 C -0.0017(3) 0.2549(2) 0.12413(13)
C10 C -0.0704(3) 0.1965(2) 0.15482(15)
H6 H -0.0391 0.1821 0.1876
C11 C -0.1842(4) 0.1593(3) 0.13766(19)
H7 H -0.2278 0.1198 0.1586
C12 C -0.2322(4) 0.1811(3) 0.0896(2)
H8 H -0.3092 0.1571 0.0780
C13 C -0.1666(4) 0.2381(3) 0.05903(17)
H9 H -0.1992 0.2524 0.0264
C14 C -0.0525(3) 0.2750(2) 0.07560(13)
H10 H -0.0093 0.3137 0.0540
C15 C 0.5156(3) 0.2977(2) -0.04156(12)
C16 C 0.5931(3) 0.2252(2) -0.05010(13)
H11 H 0.5727 0.1722 -0.0345
C17 C 0.7001(4) 0.2306(3) -0.08145(16)
H12 H 0.7508 0.1816 -0.0869
C18 C 0.7312(4) 0.3091(3) -0.10455(15)
H13 H 0.8034 0.3130 -0.1254
C19 C 0.6557(4) 0.3819(3) -0.09691(14)
H14 H 0.6769 0.4346 -0.1127
C20 C 0.5478(3) 0.3764(2) -0.06561(13)
H15 H 0.4967 0.4255 -0.0607
C21 C 0.2628(3) 0.3632(2) -0.02488(12)
C22 C 0.1928(3) 0.3395(2) -0.06851(14)
H16 H 0.2045 0.2846 -0.0832
C23 C 0.1051(4) 0.3972(3) -0.09059(16)
H17 H 0.0595 0.3808 -0.1202
C24 C 0.0853(3) 0.4781(3) -0.06926(16)
H18 H 0.0253 0.5160 -0.0838
C25 C 0.1547(3) 0.5025(2) -0.02620(15)
H19 H 0.1422 0.5575 -0.0117
C26 C 0.2429(3) 0.4461(2) -0.00418(13)
H20 H 0.2896 0.4637 0.0249
C27 C 0.3161(4) 0.0841(3) -0.09064(15)
H21 H 0.2961 0.1335 -0.1123
H22 H 0.2751 0.0329 -0.1044
H23 H 0.4072 0.0754 -0.0898
C28 C 0.0806(4) 0.1196(3) -0.0279(2)
H24 H 0.0451 0.1199 0.0064
H25 H 0.0437 0.0724 -0.0475
H26 H 0.0616 0.1740 -0.0448
C29 C 0.2886(5) 0.0033(2) 0.01420(17)
H27 H 0.3793 -0.0042 0.0189
H28 H 0.2541 -0.0459 -0.0043
H29 H 0.2483 0.0077 0.0475
C30 C -0.1058(4) 0.4064(3) 0.20954(17)
H30 H -0.0855 0.4480 0.1829
H31 H -0.1525 0.4350 0.2367
H32 H -0.1572 0.3604 0.1950
C31 C -0.0024(5) 0.2856(4) 0.29149(18)
H33 H -0.0551 0.2392 0.2782
H34 H -0.0497 0.3184 0.3167
H35 H 0.0730 0.2615 0.3075
C32 C 0.1359(5) 0.4501(4) 0.2680(2)
H36 H 0.2189 0.4294 0.2787
H37 H 0.0899 0.4706 0.2978
H38 H 0.1459 0.4972 0.2437
C33 C 0.4160(5) 0.0784(3) 0.22347(17)
H39 H 0.4663 0.0285 0.2124
H40 H 0.3544 0.0582 0.2488
C34 C 0.5023(5) 0.1441(3) 0.24802(18)
H41 H 0.5408 0.1188 0.2789
H42 H 0.5708 0.1580 0.2241
C35 C 0.2374(5) 0.0596(3) 0.16512(19)
H43 H 0.1918 0.0850 0.1364
H44 H 0.1814 0.0553 0.1944
H45 H 0.2670 0.0024 0.1557
C36 C 0.4324(4) 0.1215(3) 0.13361(15)
H46 H 0.4667 0.0648 0.1257
H47 H 0.5014 0.1610 0.1413
H48 H 0.3846 0.1428 0.1043
C37 C 0.3573(5) 0.2095(4) 0.30817(19)
H49 H 0.2957 0.1646 0.3006
H50 H 0.3133 0.2624 0.3173
H51 H 0.4110 0.1914 0.3366
C38 C 0.5278(6) 0.2942(4) 0.2737(2)
H52 H 0.5820 0.2768 0.3022
H53 H 0.4825 0.3466 0.2828
H54 H 0.5794 0.3050 0.2436
loop_
_geom_bond_atom_site_label_1
_geom_bond_atom_site_label_2
_geom_bond_site_symmetry_1
_geom_bond_site_symmetry_2
Li1 N2 1_555 1_555
P1 N1 1_555 1_555
Si1 N1 1_555 1_555
Si2 N2 1_555 1_555
N2 C8 1_555 1_555
N3 Li1 1_555 1_555
N4 Li1 1_555 1_555
C1 P1 1_555 1_555
C2 C1 1_555 1_555
C3 C2 1_555 1_555
H1 C3 1_555 1_555
C4 C3 1_555 1_555
H2 C4 1_555 1_555
C5 C4 1_555 1_555
H3 C5 1_555 1_555
C6 C1 1_555 1_555
H4 C6 1_555 1_555
C7 C2 1_555 1_555
H5 C7 1_555 1_555
C8 Li1 1_555 1_555
C9 C8 1_555 1_555
C10 C9 1_555 1_555
H6 C10 1_555 1_555
C11 C10 1_555 1_555
H7 C11 1_555 1_555
C12 C11 1_555 1_555
H8 C12 1_555 1_555
C13 C12 1_555 1_555
H9 C13 1_555 1_555
C14 C9 1_555 1_555
H10 C14 1_555 1_555
C15 P1 1_555 1_555
C16 C15 1_555 1_555
H11 C16 1_555 1_555
C17 C16 1_555 1_555
H12 C17 1_555 1_555
C18 C17 1_555 1_555
H13 C18 1_555 1_555
C19 C18 1_555 1_555
H14 C19 1_555 1_555
C20 C15 1_555 1_555
H15 C20 1_555 1_555
C21 P1 1_555 1_555
C22 C21 1_555 1_555
H16 C22 1_555 1_555
C23 C22 1_555 1_555
H17 C23 1_555 1_555
C24 C23 1_555 1_555
H18 C24 1_555 1_555
C25 C24 1_555 1_555
H19 C25 1_555 1_555
C26 C21 1_555 1_555
H20 C26 1_555 1_555
C27 Si1 1_555 1_555
H21 C27 1_555 1_555
H22 C27 1_555 1_555
H23 C27 1_555 1_555
C28 Si1 1_555 1_555
H24 C28 1_555 1_555
H25 C28 1_555 1_555
H26 C28 1_555 1_555
C29 Si1 1_555 1_555
H27 C29 1_555 1_555
H28 C29 1_555 1_555
H29 C29 1_555 1_555
C30 Si2 1_555 1_555
H30 C30 1_555 1_555
H31 C30 1_555 1_555
H32 C30 1_555 1_555
C31 Si2 1_555 1_555
H33 C31 1_555 1_555
H34 C31 1_555 1_555
H35 C31 1_555 1_555
C32 Si2 1_555 1_555
H36 C32 1_555 1_555
H37 C32 1_555 1_555
H38 C32 1_555 1_555
C33 N3 1_555 1_555
H39 C33 1_555 1_555
H40 C33 1_555 1_555
C34 N4 1_555 1_555
H41 C34 1_555 1_555
H42 C34 1_555 1_555
C35 N3 1_555 1_555
H43 C35 1_555 1_555
H44 C35 1_555 1_555
H45 C35 1_555 1_555
C36 N3 1_555 1_555
H46 C36 1_555 1_555
H47 C36 1_555 1_555
H48 C36 1_555 1_555
C37 N4 1_555 1_555
H49 C37 1_555 1_555
H50 C37 1_555 1_555
H51 C37 1_555 1_555
C38 N4 1_555 1_555
H52 C38 1_555 1_555
H53 C38 1_555 1_555
H54 C38 1_555 1_555
C5 C6 1_555 1_555
C7 C8 1_555 1_555
C13 C14 1_555 1_555
C19 C20 1_555 1_555
C25 C26 1_555 1_555
C33 C34 1_555 1_555

#END
