
#######################################################################
#
#                 Cambridge Crystallographic Data Centre
#                                CCDC 
#
#######################################################################
#
# If this CIF has been generated from an entry in the Cambridge 
# Structural Database, then it will include bibliographic, chemical, 
# crystal, experimental, refinement or atomic coordinate data resulting 
# from the CCDC's data processing and validation procedures.
#
#######################################################################

data_FOGFOY
_chemical_name_common            
3-(3,5-dichlorophenyl)-5-ethenyl-5-methyl-2,4-oxazolidinedione
_chemical_formula_moiety         'C12 H9 Cl2 N1 O3'
_chemical_name_systematic        
3-(3,5-dichlorophenyl)-5-methyl-5-vinyl-1,3-oxazolidine-2,4-dione
_symmetry_cell_setting           monoclinic
_symmetry_space_group_name_H-M   'P 21/n'
_symmetry_Int_Tables_number      14
_space_group_name_Hall           '-P 2yn'
loop_
_symmetry_equiv_pos_site_id
_symmetry_equiv_pos_as_xyz
1 x,y,z
2 1/2-x,1/2+y,1/2-z
3 -x,-y,-z
4 1/2+x,1/2-y,1/2+z
_cell_length_a                   15.0727(12)
_cell_length_b                   5.2947(5)
_cell_length_c                   15.5390(12)
_cell_angle_alpha                90
_cell_angle_beta                 100.916(5)
_cell_angle_gamma                90
_cell_volume                     1217.66
_exptl_crystal_colour            colorless
_exptl_crystal_description       plate
_cell_formula_units_Z            4
loop_
_atom_site_label
_atom_site_type_symbol
_atom_site_fract_x
_atom_site_fract_y
_atom_site_fract_z
Cl1 Cl 0.01684(5) 0.22311(15) 0.42408(5)
Cl2 Cl -0.16975(5) 0.99394(15) 0.25170(5)
O1 O 0.19649(12) 0.9720(4) 0.22124(12)
O2 O 0.06758(13) 0.2867(4) 0.06863(13)
O3 O 0.23229(11) 0.7650(3) 0.10675(11)
N1 N 0.11223(13) 0.6312(4) 0.15799(13)
C1 C 0.06127(17) 0.4411(5) 0.28171(17)
H1 H 0.1090 0.3216 0.2872
C2 C 0.00147(18) 0.4404(5) 0.33904(17)
C3 C -0.06989(17) 0.6085(6) 0.33076(17)
H2 H -0.1110 0.6039 0.3702
C4 C -0.07979(17) 0.7832(5) 0.26364(17)
C5 C -0.02013(17) 0.7960(5) 0.20586(17)
H3 H -0.0268 0.9199 0.1609
C6 C 0.04936(16) 0.6214(5) 0.21620(16)
C7 C 0.18216(17) 0.8082(5) 0.16778(16)
C8 C 0.11644(17) 0.4631(5) 0.09092(17)
C9 C 0.19567(18) 0.5543(5) 0.04975(17)
C10 C 0.1611(2) 0.6600(7) -0.04096(18)
H4 H 0.1145 0.7872 -0.0380
H5 H 0.1352 0.5231 -0.0803
H6 H 0.2111 0.7381 -0.0633
C11 C 0.26703(18) 0.3557(6) 0.05662(18)
H7 H 0.2954 0.3018 0.1135
C12 C 0.2928(3) 0.2518(8) -0.0106(2)
H8 H 0.2657 0.3016 -0.0683
H9 H 0.3386 0.1262 -0.0019
loop_
_geom_bond_atom_site_label_1
_geom_bond_atom_site_label_2
_geom_bond_site_symmetry_1
_geom_bond_site_symmetry_2
Cl1 C2 1_555 1_555
Cl2 C4 1_555 1_555
O1 C7 1_555 1_555
O2 C8 1_555 1_555
O3 C7 1_555 1_555
N1 C6 1_555 1_555
C1 H1 1_555 1_555
C2 C1 1_555 1_555
C3 C2 1_555 1_555
H2 C3 1_555 1_555
C4 C3 1_555 1_555
C5 C4 1_555 1_555
H3 C5 1_555 1_555
C6 C1 1_555 1_555
C7 N1 1_555 1_555
C8 N1 1_555 1_555
C9 O3 1_555 1_555
C10 C9 1_555 1_555
H4 C10 1_555 1_555
H5 C10 1_555 1_555
H6 C10 1_555 1_555
C11 C9 1_555 1_555
H7 C11 1_555 1_555
C12 C11 1_555 1_555
H8 C12 1_555 1_555
H9 C12 1_555 1_555
C5 C6 1_555 1_555
C8 C9 1_555 1_555

#END
