
#######################################################################
#
#                 Cambridge Crystallographic Data Centre
#                                CCDC 
#
#######################################################################
#
# If this CIF has been generated from an entry in the Cambridge 
# Structural Database, then it will include bibliographic, chemical, 
# crystal, experimental, refinement or atomic coordinate data resulting 
# from the CCDC's data processing and validation procedures.
#
#######################################################################

data_FOGFUD
_chemical_formula_moiety         'C7 H2 F4 N2'
_chemical_name_systematic        4-(Isocyano)-2,3,5,6-tetrafluoroaniline
_symmetry_cell_setting           monoclinic
_symmetry_space_group_name_H-M   'P 21/c'
_symmetry_Int_Tables_number      14
_space_group_name_Hall           '-P 2ybc'
loop_
_symmetry_equiv_pos_site_id
_symmetry_equiv_pos_as_xyz
1 x,y,z
2 -x,1/2+y,1/2-z
3 -x,-y,-z
4 x,1/2-y,1/2+z
_cell_length_a                   5.8533(4)
_cell_length_b                   7.2370(5)
_cell_length_c                   34.376(3)
_cell_angle_alpha                90
_cell_angle_beta                 97.3700(10)
_cell_angle_gamma                90
_cell_volume                     1444.15
_exptl_crystal_colour            colorless
_exptl_crystal_description       block
_cell_formula_units_Z            8
loop_
_atom_site_label
_atom_site_type_symbol
_atom_site_fract_x
_atom_site_fract_y
_atom_site_fract_z
N1 N 0.3959(3) 0.2092(2) 0.50421(4)
N2 N 0.5222(3) 0.4003(2) 0.35116(5)
C1 C 0.3706(4) 0.1679(3) 0.53609(6)
C2 C 0.4279(3) 0.2587(3) 0.46623(5)
C3 C 0.2610(3) 0.2159(3) 0.43473(5)
C4 C 0.2916(3) 0.2650(3) 0.39718(5)
C5 C 0.4891(3) 0.3558(2) 0.38832(5)
C6 C 0.6549(3) 0.3974(3) 0.42051(5)
C7 C 0.6255(3) 0.3490(3) 0.45821(5)
F1 F 0.06888(18) 0.12502(16) 0.44101(3)
F2 F 0.12483(17) 0.22195(16) 0.36731(3)
F3 F 0.84877(18) 0.48548(16) 0.41346(3)
F4 F 0.78990(19) 0.38986(16) 0.48783(3)
H3 H 0.430(3) 0.376(3) 0.3333(6)
H4 H 0.636(4) 0.459(3) 0.3466(6)
H1 H 0.199(3) 0.498(3) 0.1268(5)
H2 H 0.340(4) 0.400(4) 0.0992(7)
N3 N 0.9883(3) 0.3435(2) 0.25213(4)
N4 N 0.3112(3) 0.4329(2) 0.12345(4)
C8 C 1.1316(3) 0.3387(3) 0.27885(5)
C9 C 0.8158(3) 0.3590(2) 0.22054(5)
C10 C 0.6131(3) 0.4532(2) 0.22403(5)
C11 C 0.4487(3) 0.4779(2) 0.19221(5)
C12 C 0.4758(3) 0.4095(3) 0.15472(5)
C13 C 0.6820(3) 0.3150(2) 0.15199(5)
C14 C 0.8464(3) 0.2892(2) 0.18375(5)
F5 F 0.58031(17) 0.52519(15) 0.25898(3)
F6 F 0.25334(17) 0.57170(15) 0.19640(3)
F7 F 0.71915(18) 0.25059(15) 0.11635(3)
F8 F 1.04050(17) 0.19647(15) 0.17933(3)
loop_
_geom_bond_atom_site_label_1
_geom_bond_atom_site_label_2
_geom_bond_site_symmetry_1
_geom_bond_site_symmetry_2
N1 C1 1_555 1_555
N2 C5 1_555 1_555
C2 N1 1_555 1_555
C3 C2 1_555 1_555
C4 C3 1_555 1_555
C5 C4 1_555 1_555
C6 C5 1_555 1_555
C7 C2 1_555 1_555
F1 C3 1_555 1_555
F2 C4 1_555 1_555
F3 C6 1_555 1_555
F4 C7 1_555 1_555
H1 N4 1_555 1_555
H2 N4 1_555 1_555
N3 C8 1_555 1_555
N4 C12 1_555 1_555
C9 N3 1_555 1_555
C10 C9 1_555 1_555
C11 C10 1_555 1_555
C12 C11 1_555 1_555
C13 C12 1_555 1_555
C14 C9 1_555 1_555
F5 C10 1_555 1_555
F6 C11 1_555 1_555
F7 C13 1_555 1_555
F8 C14 1_555 1_555
H3 N2 1_555 1_555
H4 N2 1_555 1_555
C6 C7 1_555 1_555
C13 C14 1_555 1_555

#END
