
#######################################################################
#
#                 Cambridge Crystallographic Data Centre
#                                CCDC 
#
#######################################################################
#
# If this CIF has been generated from an entry in the Cambridge 
# Structural Database, then it will include bibliographic, chemical, 
# crystal, experimental, refinement or atomic coordinate data resulting 
# from the CCDC's data processing and validation procedures.
#
#######################################################################

data_FOGGAK
_chemical_formula_moiety         'C34 H40 P2'
_chemical_name_systematic        1,2-bis(bis(4-Ethylphenyl)phosphino)ethane
_symmetry_cell_setting           monoclinic
_symmetry_space_group_name_H-M   'P 21/n'
_symmetry_Int_Tables_number      14
_space_group_name_Hall           '-P 2yn'
loop_
_symmetry_equiv_pos_site_id
_symmetry_equiv_pos_as_xyz
1 x,y,z
2 1/2-x,1/2+y,1/2-z
3 -x,-y,-z
4 1/2+x,1/2-y,1/2+z
_cell_length_a                   15.058(2)
_cell_length_b                   5.6253(9)
_cell_length_c                   17.353(3)
_cell_angle_alpha                90
_cell_angle_beta                 95.916(3)
_cell_angle_gamma                90
_cell_volume                     1462.07
_exptl_crystal_colour            colorless
_exptl_crystal_description       needle
_cell_formula_units_Z            2
loop_
_atom_site_label
_atom_site_type_symbol
_atom_site_fract_x
_atom_site_fract_y
_atom_site_fract_z
P1 P 0.51452(2) 0.21577(7) 0.60841(2)
C1 C 0.57581(9) 0.1035(3) 0.69758(8)
C2 C 0.52811(9) -0.0263(3) 0.53842(8)
C3 C 0.67838(10) -0.0096(3) 0.83856(8)
C4 C 0.67796(10) -0.1579(3) 0.77409(9)
C5 C 0.39879(10) 0.1622(3) 0.62742(8)
C6 C 0.24480(11) 0.2942(3) 0.61219(9)
C7 C 0.33453(10) 0.3300(3) 0.60236(9)
C8 C 0.37103(10) -0.0432(3) 0.66377(9)
C9 C 0.28185(10) -0.0779(3) 0.67353(9)
C10 C 0.62691(10) -0.1029(3) 0.70465(8)
C11 C 0.21722(10) 0.0897(3) 0.64769(8)
C12 C 0.12053(10) 0.0414(3) 0.65922(10)
H1 H 0.1025 -0.1093 0.6326
H2 H 0.1163 0.0174 0.7152
C13 C 0.62415(11) 0.1908(3) 0.83217(9)
C14 C 0.57488(11) 0.2495(3) 0.76301(9)
C15 C 0.73785(11) -0.0601(3) 0.91254(9)
H3 H 0.8001 -0.0763 0.8996
H4 H 0.7358 0.0788 0.9474
C16 C 0.71439(18) -0.2768(4) 0.95545(13)
H5 H 0.6523 -0.2655 0.9675
H6 H 0.7540 -0.2898 1.0037
H7 H 0.7214 -0.4177 0.9234
C17 C 0.05443(13) 0.2319(5) 0.63055(15)
H8 H 0.0712 0.3827 0.6563
H9 H -0.0055 0.1859 0.6423
H10 H 0.0547 0.2506 0.5744
H11 H 0.2649(14) -0.215(4) 0.6948(13)
H12 H 0.4147(13) -0.167(4) 0.6842(12)
H13 H 0.5397(13) 0.390(4) 0.7607(11)
H14 H 0.7101(14) -0.291(4) 0.7774(12)
H15 H 0.5107(13) -0.183(4) 0.5567(12)
H16 H 0.3520(13) 0.471(4) 0.5820(12)
H17 H 0.6287(13) -0.207(3) 0.6617(12)
H18 H 0.2020(13) 0.413(4) 0.5940(11)
H19 H 0.6203(15) 0.295(4) 0.8723(15)
H20 H 0.5918(13) -0.038(3) 0.5295(11)
P1B P 0.48548(2) -0.21577(7) 0.39159(2)
C1B C 0.42419(9) -0.1035(3) 0.30242(8)
C2B C 0.47189(9) 0.0263(3) 0.46158(8)
C3B C 0.32162(10) 0.0096(3) 0.16144(8)
C4B C 0.32204(10) 0.1579(3) 0.22591(9)
C5B C 0.60121(10) -0.1622(3) 0.37258(8)
C6B C 0.75520(11) -0.2942(3) 0.38781(9)
C7B C 0.66547(10) -0.3300(3) 0.39764(9)
C8B C 0.62897(10) 0.0432(3) 0.33623(9)
C9B C 0.71815(10) 0.0779(3) 0.32647(9)
C10B C 0.37309(10) 0.1029(3) 0.29535(8)
C11B C 0.78278(10) -0.0897(3) 0.35231(8)
C12B C 0.87947(10) -0.0414(3) 0.34078(10)
H1B H 0.8975 0.1093 0.3674
H2B H 0.8837 -0.0174 0.2848
C13B C 0.37585(11) -0.1908(3) 0.16783(9)
C14B C 0.42512(11) -0.2495(3) 0.23699(9)
C15B C 0.26215(11) 0.0601(3) 0.08746(9)
H3B H 0.1999 0.0763 0.1004
H4B H 0.2642 -0.0788 0.0526
C16B C 0.28561(18) 0.2768(4) 0.04455(13)
H5B H 0.3477 0.2655 0.0325
H6B H 0.2460 0.2898 -0.0037
H7B H 0.2786 0.4177 0.0766
C17B C 0.94557(13) -0.2319(5) 0.36945(15)
H8B H 0.9288 -0.3827 0.3437
H9B H 1.0055 -0.1859 0.3577
H10B H 0.9453 -0.2506 0.4256
H11B H 0.7351(14) 0.215(4) 0.3052(13)
H12B H 0.5853(13) 0.167(4) 0.3158(12)
H13B H 0.4603(13) -0.390(4) 0.2393(11)
H14B H 0.2899(14) 0.291(4) 0.2226(12)
H15B H 0.4893(13) 0.183(4) 0.4433(12)
H16B H 0.6480(13) -0.471(4) 0.4180(12)
H17B H 0.3713(13) 0.207(3) 0.3383(12)
H18B H 0.7980(13) -0.413(4) 0.4060(11)
H19B H 0.3797(15) -0.295(4) 0.1277(15)
H20B H 0.4082(13) 0.038(3) 0.4705(11)
loop_
_geom_bond_atom_site_label_1
_geom_bond_atom_site_label_2
_geom_bond_site_symmetry_1
_geom_bond_site_symmetry_2
P1 C1 1_555 1_555
C1 C10 1_555 1_555
C2 P1 1_555 1_555
C3 C4 1_555 1_555
C4 C10 1_555 1_555
C5 P1 1_555 1_555
C6 C7 1_555 1_555
C7 C5 1_555 1_555
C8 C5 1_555 1_555
C9 C8 1_555 1_555
C10 H17 1_555 1_555
C11 C6 1_555 1_555
C12 C11 1_555 1_555
H1 C12 1_555 1_555
H2 C12 1_555 1_555
C13 C3 1_555 1_555
C14 C1 1_555 1_555
C15 C3 1_555 1_555
H3 C15 1_555 1_555
H4 C15 1_555 1_555
C16 C15 1_555 1_555
H5 C16 1_555 1_555
H6 C16 1_555 1_555
H7 C16 1_555 1_555
C17 C12 1_555 1_555
H8 C17 1_555 1_555
H9 C17 1_555 1_555
H10 C17 1_555 1_555
H11 C9 1_555 1_555
H12 C8 1_555 1_555
H13 C14 1_555 1_555
H14 C4 1_555 1_555
H15 C2 1_555 1_555
H16 C7 1_555 1_555
H18 C6 1_555 1_555
H19 C13 1_555 1_555
H20 C2 1_555 1_555
P1B C1B 1_555 1_555
C1B C10B 1_555 1_555
C2B C2 1_555 1_555
C3B C4B 1_555 1_555
C4B C10B 1_555 1_555
C5B P1B 1_555 1_555
C6B C7B 1_555 1_555
C7B C5B 1_555 1_555
C8B C5B 1_555 1_555
C9B C8B 1_555 1_555
C10B H17B 1_555 1_555
C11B C6B 1_555 1_555
C12B C11B 1_555 1_555
H1B C12B 1_555 1_555
H2B C12B 1_555 1_555
C13B C3B 1_555 1_555
C14B C1B 1_555 1_555
C15B C3B 1_555 1_555
H3B C15B 1_555 1_555
H4B C15B 1_555 1_555
C16B C15B 1_555 1_555
H5B C16B 1_555 1_555
H6B C16B 1_555 1_555
H7B C16B 1_555 1_555
C17B C12B 1_555 1_555
H8B C17B 1_555 1_555
H9B C17B 1_555 1_555
H10B C17B 1_555 1_555
H11B C9B 1_555 1_555
H12B C8B 1_555 1_555
H13B C14B 1_555 1_555
H14B C4B 1_555 1_555
H15B C2B 1_555 1_555
H16B C7B 1_555 1_555
H18B C6B 1_555 1_555
H19B C13B 1_555 1_555
H20B C2B 1_555 1_555
C9 C11 1_555 1_555
C13 C14 1_555 1_555
P1B C2B 1_555 1_555
C9B C11B 1_555 1_555
C13B C14B 1_555 1_555

#END
