
#######################################################################
#
#                 Cambridge Crystallographic Data Centre
#                                CCDC 
#
#######################################################################
#
# If this CIF has been generated from an entry in the Cambridge 
# Structural Database, then it will include bibliographic, chemical, 
# crystal, experimental, refinement or atomic coordinate data resulting 
# from the CCDC's data processing and validation procedures.
#
#######################################################################

data_FOGRID
_chemical_formula_moiety         'C14 H17 I1 O4'
_chemical_name_systematic        
1-Iodo-2-(3,4,5-trimethoxyphenyl)-3-oxabicyclo[3.1.0]hexane
_symmetry_cell_setting           triclinic
_symmetry_space_group_name_H-M   'P -1'
_symmetry_Int_Tables_number      2
_space_group_name_Hall           '-P 1'
loop_
_symmetry_equiv_pos_site_id
_symmetry_equiv_pos_as_xyz
1 x,y,z
2 -x,-y,-z
_cell_length_a                   7.2860(7)
_cell_length_b                   10.4129(10)
_cell_length_c                   10.9412(11)
_cell_angle_alpha                65.775(2)
_cell_angle_beta                 87.581(2)
_cell_angle_gamma                72.222(2)
_cell_volume                     717.539
_exptl_crystal_colour            colorless
_exptl_crystal_description       prismatic
_cell_formula_units_Z            2
loop_
_atom_site_label
_atom_site_type_symbol
_atom_site_fract_x
_atom_site_fract_y
_atom_site_fract_z
I1 I 0.48437(3) 1.17493(2) 0.28254(2)
O1 O -0.0925(4) 1.1587(3) 0.3408(3)
O2 O -0.0584(5) 0.7981(4) 0.1303(4)
O3 O 0.2907(5) 0.5977(3) 0.2124(3)
O4 O 0.5537(4) 0.6226(3) 0.3556(3)
C1 C 0.1866(5) 1.2104(4) 0.2573(4)
C2 C 0.0702(7) 1.3125(5) 0.1244(5)
C3 C 0.0359(6) 1.3534(4) 0.2431(5)
C4 C -0.1163(6) 1.3062(5) 0.3282(6)
C5 C 0.1104(5) 1.0866(4) 0.3501(4)
C6 C 0.1498(5) 0.9556(4) 0.3154(4)
C7 C 0.0139(6) 0.9431(4) 0.2389(4)
C8 C 0.0630(6) 0.8228(4) 0.2040(4)
C9 C 0.2455(5) 0.7174(4) 0.2453(4)
C10 C 0.3791(6) 0.7306(4) 0.3222(4)
C11 C 0.3304(6) 0.8490(4) 0.3591(4)
C12 C -0.2439(7) 0.9039(6) 0.0802(5)
H1 H -0.3193 0.9051 0.1540
H2 H -0.3074 0.8781 0.0227
H3 H -0.2308 1.0004 0.0298
C13 C 0.3887(8) 0.6200(5) 0.0955(5)
H4 H 0.3026 0.6961 0.0188
H5 H 0.4323 0.5293 0.0838
H6 H 0.4981 0.6497 0.1041
C14 C 0.6916(7) 0.6242(5) 0.4445(6)
H7 H 0.7312 0.7109 0.4001
H8 H 0.8024 0.5369 0.4684
H9 H 0.6332 0.6259 0.5244
H10 H -0.034(5) 1.281(5) 0.106(5)
H11 H 0.135(9) 1.366(7) 0.047(6)
H12 H 0.056(7) 1.437(4) 0.248(5)
H13 H -0.093(9) 1.308(7) 0.412(3)
H14 H -0.239(9) 1.356(7) 0.292(6)
H15 H 0.160(6) 1.058(5) 0.437(4)
H16 H -0.109(8) 1.010(5) 0.199(5)
H17 H 0.411(4) 0.864(4) 0.409(3)
loop_
_geom_bond_atom_site_label_1
_geom_bond_atom_site_label_2
_geom_bond_site_symmetry_1
_geom_bond_site_symmetry_2
I1 C1 1_555 1_555
O1 C4 1_555 1_555
O2 C8 1_555 1_555
O3 C9 1_555 1_555
O4 C10 1_555 1_555
C1 C2 1_555 1_555
C2 C3 1_555 1_555
C3 C1 1_555 1_555
C4 C3 1_555 1_555
C5 O1 1_555 1_555
C6 C5 1_555 1_555
C7 C6 1_555 1_555
C8 C7 1_555 1_555
C9 C8 1_555 1_555
C10 C9 1_555 1_555
C11 C6 1_555 1_555
C12 O2 1_555 1_555
H1 C12 1_555 1_555
H2 C12 1_555 1_555
H3 C12 1_555 1_555
C13 O3 1_555 1_555
H4 C13 1_555 1_555
H5 C13 1_555 1_555
H6 C13 1_555 1_555
C14 O4 1_555 1_555
H7 C14 1_555 1_555
H8 C14 1_555 1_555
H9 C14 1_555 1_555
H10 C2 1_555 1_555
H11 C2 1_555 1_555
H12 C3 1_555 1_555
H13 C4 1_555 1_555
H14 C4 1_555 1_555
H15 C5 1_555 1_555
H16 C7 1_555 1_555
H17 C11 1_555 1_555
C1 C5 1_555 1_555
C10 C11 1_555 1_555

#END
