
#######################################################################
#
#                 Cambridge Crystallographic Data Centre
#                                CCDC 
#
#######################################################################
#
# If this CIF has been generated from an entry in the Cambridge 
# Structural Database, then it will include bibliographic, chemical, 
# crystal, experimental, refinement or atomic coordinate data resulting 
# from the CCDC's data processing and validation procedures.
#
#######################################################################

data_FOGSEB
_chemical_formula_moiety         'C18 H24 O6 P2'
_chemical_name_systematic        
"diethyl (biphenyl-4,4'-diylbis(methylene))bis(hydrogen (phosphonate))"
_symmetry_cell_setting           triclinic
_symmetry_space_group_name_H-M   'P -1'
_symmetry_Int_Tables_number      2
_space_group_name_Hall           '-P 1'
loop_
_symmetry_equiv_pos_site_id
_symmetry_equiv_pos_as_xyz
1 x,y,z
2 -x,-y,-z
_cell_length_a                   7.6515(2)
_cell_length_b                   8.0147(2)
_cell_length_c                   9.3307(2)
_cell_angle_alpha                71.162(2)
_cell_angle_beta                 67.620(2)
_cell_angle_gamma                84.036(2)
_cell_volume                     500.642
_exptl_crystal_colour            colorless
_exptl_crystal_description       block
_cell_formula_units_Z            1
loop_
_atom_site_label
_atom_site_type_symbol
_atom_site_fract_x
_atom_site_fract_y
_atom_site_fract_z
P1 P 0.07640(10) 0.00688(10) 0.26205(8)
C1 C -0.1739(4) 0.2697(3) 0.2418(3)
C2 C -0.3599(4) 0.2138(4) 0.3279(4)
H1 H -0.4014 0.1139 0.3190
C3 C -0.4859(4) 0.3035(4) 0.4274(4)
H2 H -0.6105 0.2623 0.4836
C4 C -0.4322(3) 0.4528(3) 0.4457(3)
C5 C -0.2447(4) 0.5088(4) 0.3569(4)
H3 H -0.2027 0.6092 0.3647
C6 C -0.1194(4) 0.4192(4) 0.2576(4)
H4 H 0.0049 0.4608 0.2001
C7 C -0.0328(4) 0.1655(4) 0.1405(3)
H5 H 0.0628 0.2450 0.0489
H6 H -0.0970 0.1062 0.0982
C8 C 0.3383(6) -0.2219(6) 0.1910(5)
H7 H 0.4360 -0.1681 0.2051
H8 H 0.2647 -0.3026 0.2958
C9 C 0.4237(6) -0.3170(5) 0.0805(5)
H9 H 0.5041 -0.4042 0.1202
H10 H 0.4977 -0.2379 -0.0234
H11 H 0.3278 -0.3741 0.0689
O1 O -0.0643(2) -0.1205(2) 0.4037(2)
O2 O 0.1976(2) 0.1031(3) 0.3100(2)
H12 H 0.1424 0.1013 0.4050
O3 O 0.2154(3) -0.0845(3) 0.1377(2)
P1A P -1.07640(10) 0.99312(10) 0.73795(8)
C1A C -0.8261(4) 0.7303(3) 0.7582(3)
C2A C -0.6401(4) 0.7862(4) 0.6721(4)
H1A H -0.5986 0.8861 0.6810
C3A C -0.5141(4) 0.6965(4) 0.5726(4)
H2A H -0.3895 0.7377 0.5164
C4A C -0.5678(3) 0.5472(3) 0.5543(3)
C5A C -0.7553(4) 0.4912(4) 0.6431(4)
H3A H -0.7973 0.3908 0.6353
C6A C -0.8806(4) 0.5808(4) 0.7424(4)
H4A H -1.0049 0.5392 0.7999
C7A C -0.9672(4) 0.8345(4) 0.8595(3)
H5A H -1.0628 0.7550 0.9511
H6A H -0.9030 0.8938 0.9018
C8A C -1.3383(6) 1.2219(6) 0.8090(5)
H7A H -1.4360 1.1681 0.7949
H8A H -1.2647 1.3026 0.7042
C9A C -1.4237(6) 1.3170(5) 0.9195(5)
H9A H -1.5041 1.4042 0.8798
H10A H -1.4977 1.2379 1.0234
H11A H -1.3278 1.3741 0.9311
O1A O -0.9357(2) 1.1205(2) 0.5963(2)
O2A O -1.1976(2) 0.8969(3) 0.6900(2)
H12A H -1.1424 0.8987 0.5950
O3A O -1.2154(3) 1.0845(3) 0.8623(2)
loop_
_geom_bond_atom_site_label_1
_geom_bond_atom_site_label_2
_geom_bond_site_symmetry_1
_geom_bond_site_symmetry_2
P1 C7 1_555 1_555
C1 C2 1_555 1_555
C2 H1 1_555 1_555
C3 C2 1_555 1_555
H2 C3 1_555 1_555
C4 C3 1_555 1_555
C5 C4 1_555 1_555
H3 C5 1_555 1_555
C6 C1 1_555 1_555
H4 C6 1_555 1_555
C7 C1 1_555 1_555
H5 C7 1_555 1_555
H6 C7 1_555 1_555
C8 H7 1_555 1_555
H8 C8 1_555 1_555
C9 C8 1_555 1_555
H9 C9 1_555 1_555
H10 C9 1_555 1_555
H11 C9 1_555 1_555
O1 P1 1_555 1_555
O2 P1 1_555 1_555
H12 O2 1_555 1_555
O3 P1 1_555 1_555
P1A C7A 1_555 1_555
C1A C2A 1_555 1_555
C2A H1A 1_555 1_555
C3A C2A 1_555 1_555
H2A C3A 1_555 1_555
C4A C4 1_555 1_555
C5A C4A 1_555 1_555
H3A C5A 1_555 1_555
C6A C1A 1_555 1_555
H4A C6A 1_555 1_555
C7A C1A 1_555 1_555
H5A C7A 1_555 1_555
H6A C7A 1_555 1_555
C8A H7A 1_555 1_555
H8A C8A 1_555 1_555
C9A C8A 1_555 1_555
H9A C9A 1_555 1_555
H10A C9A 1_555 1_555
H11A C9A 1_555 1_555
O1A P1A 1_555 1_555
O2A P1A 1_555 1_555
H12A O2A 1_555 1_555
O3A P1A 1_555 1_555
C5 C6 1_555 1_555
C8 O3 1_555 1_555
C3A C4A 1_555 1_555
C5A C6A 1_555 1_555
C8A O3A 1_555 1_555

#END
