
#######################################################################
#
#                 Cambridge Crystallographic Data Centre
#                                CCDC 
#
#######################################################################
#
# If this CIF has been generated from an entry in the Cambridge 
# Structural Database, then it will include bibliographic, chemical, 
# crystal, experimental, refinement or atomic coordinate data resulting 
# from the CCDC's data processing and validation procedures.
#
#######################################################################

data_FOGTEA
_chemical_name_common            
'Sodium 3alpha,12alpha-dihydroxy-5beta-cholanoyltaurine monohydrate'
_chemical_formula_moiety         'C26 H44 N1 O6 S1 1-,Na1 1+,H2 O1'
_chemical_name_systematic        'Sodium taurodeoxycholate monohydrate'
_symmetry_cell_setting           trigonal
_symmetry_space_group_name_H-M   'P 31'
_symmetry_Int_Tables_number      144
_space_group_name_Hall           'P 31'
loop_
_symmetry_equiv_pos_site_id
_symmetry_equiv_pos_as_xyz
1 x,y,z
2 -y,x-y,1/3+z
3 -x+y,-x,2/3+z
_cell_length_a                   18.393(1)
_cell_length_b                   18.393(1)
_cell_length_c                   7.097(1)
_cell_angle_alpha                90
_cell_angle_beta                 90
_cell_angle_gamma                120
_cell_volume                     2079.27
_exptl_crystal_colour            colorless
_chemical_melting_point          481-483K
_cell_formula_units_Z            3
loop_
_atom_site_label
_atom_site_type_symbol
_atom_site_fract_x
_atom_site_fract_y
_atom_site_fract_z
C1 C -0.1681(5) 0.6111(4) 0.6501(11)
C2 C -0.1247(5) 0.6975(5) 0.5607(12)
C3 C -0.1711(5) 0.6991(4) 0.3902(13)
C4 C -0.1825(5) 0.6307(4) 0.2471(12)
C5 C -0.2238(4) 0.5425(4) 0.3364(11)
C6 C -0.2314(4) 0.4787(4) 0.1952(12)
C7 C -0.1486(4) 0.4834(4) 0.1471(12)
C8 C -0.1019(4) 0.4815(4) 0.3236(10)
C9 C -0.0923(3) 0.5482(3) 0.4645(10)
C10 C -0.1789(4) 0.5390(4) 0.5193(11)
C11 C -0.0404(4) 0.5508(4) 0.6387(10)
C12 C 0.0457(4) 0.5616(4) 0.5858(11)
C13 C 0.0365(4) 0.4950(4) 0.4431(10)
C14 C -0.0139(4) 0.4973(4) 0.2756(10)
C15 C -0.0053(5) 0.4419(5) 0.1292(12)
C16 C 0.0846(4) 0.4584(5) 0.1557(11)
C17 C 0.1182(4) 0.5106(4) 0.3407(10)
C18 C -0.0054(4) 0.4081(4) 0.5400(12)
C19 C -0.2341(4) 0.4564(4) 0.6238(12)
C20 C 0.1813(4) 0.4923(4) 0.4403(11)
C21 C 0.2123(5) 0.5382(7) 0.6317(12)
C22 C 0.2572(4) 0.5178(4) 0.3099(11)
C23 C 0.3118(4) 0.4782(4) 0.3625(12)
C24 C 0.2628(4) 0.3851(4) 0.3269(11)
O1 O -0.1282(4) 0.7798(3) 0.3058(10)
O2 O 0.0995(3) 0.6440(3) 0.5111(8)
O3 O 0.2427(3) 0.3591(3) 0.1627(9)
N1 N 0.2407(4) 0.3355(4) 0.4755(11)
C25 C 0.1780(5) 0.2461(4) 0.4726(13)
C26 C 0.0897(5) 0.2344(4) 0.4939(14)
S1 S 0.0101(1) 0.1305(1) 0.5440
O4 O 0.0419(3) 0.1018(3) 0.6969(9)
O5 O -0.0045(3) 0.0820(3) 0.3717(9)
O6 O -0.0616(3) 0.1378(4) 0.5982(9)
O7 O 0.1194(8) 0.2186(7) 0.0015(15)
Na1 Na 0.0040(2) 0.0820(2) 0.0396(5)
loop_
_geom_bond_atom_site_label_1
_geom_bond_atom_site_label_2
_geom_bond_site_symmetry_1
_geom_bond_site_symmetry_2
C1 C2 1_555 1_555
C2 C3 1_555 1_555
C3 C4 1_555 1_555
C4 C5 1_555 1_555
C5 C6 1_555 1_555
C6 C7 1_555 1_555
C7 C8 1_555 1_555
C8 C9 1_555 1_555
C9 C10 1_555 1_555
C10 C1 1_555 1_555
C11 C9 1_555 1_555
C12 C11 1_555 1_555
C13 C12 1_555 1_555
C14 C8 1_555 1_555
C15 C14 1_555 1_555
C16 C15 1_555 1_555
C17 C13 1_555 1_555
C18 C13 1_555 1_555
C19 C10 1_555 1_555
C20 C17 1_555 1_555
C21 C20 1_555 1_555
C22 C20 1_555 1_555
C23 C22 1_555 1_555
C24 C23 1_555 1_555
O1 C3 1_555 1_555
O2 C12 1_555 1_555
O3 C24 1_555 1_555
N1 C24 1_555 1_555
C25 N1 1_555 1_555
C26 C25 1_555 1_555
S1 C26 1_555 1_555
O4 S1 1_555 1_555
O5 S1 1_555 1_555
O6 S1 1_555 1_555
C5 C10 1_555 1_555
C13 C14 1_555 1_555
C16 C17 1_555 1_555

#END
