
#######################################################################
#
#                 Cambridge Crystallographic Data Centre
#                                CCDC 
#
#######################################################################
#
# If this CIF has been generated from an entry in the Cambridge 
# Structural Database, then it will include bibliographic, chemical, 
# crystal, experimental, refinement or atomic coordinate data resulting 
# from the CCDC's data processing and validation procedures.
#
#######################################################################

data_FOHBAG
_chemical_formula_moiety         'C28 H27 N3 O3'
_chemical_name_systematic        
'Ethyl 2-(((1Z)-(3-methyl-5-oxo-1-phenyl-1,5-dihydropyrazol-4-ylidene)(phenyl)methyl)amino)-3-phenylpropanoate'
_symmetry_cell_setting           monoclinic
_symmetry_space_group_name_H-M   'P 21/c'
_symmetry_Int_Tables_number      14
_space_group_name_Hall           '-P 2ybc'
loop_
_symmetry_equiv_pos_site_id
_symmetry_equiv_pos_as_xyz
1 x,y,z
2 -x,1/2+y,1/2-z
3 -x,-y,-z
4 x,1/2-y,1/2+z
_cell_length_a                   10.521(3)
_cell_length_b                   16.629(5)
_cell_length_c                   14.080(4)
_cell_angle_alpha                90
_cell_angle_beta                 105.315(5)
_cell_angle_gamma                90
_cell_volume                     2375.87
_exptl_crystal_colour            yellow
_exptl_crystal_description       block
_cell_formula_units_Z            4
_exptl_crystal_recrystallization_method 'ethanol/ethyl acetate'
loop_
_atom_site_label
_atom_site_type_symbol
_atom_site_fract_x
_atom_site_fract_y
_atom_site_fract_z
N1 N 0.21200(17) 0.15615(12) 1.05366(13)
N2 N 0.33706(18) 0.19039(13) 1.09189(13)
N3 N 0.26208(19) 0.07896(12) 0.78347(13)
H1 H 0.1850 0.0738 0.7942
O1 O 0.09632(15) 0.09465(11) 0.90596(12)
O2 O 0.37415(19) -0.07743(13) 0.77333(15)
O3 O 0.45465(18) -0.02602(11) 0.65441(13)
C1 C 0.1979(2) 0.12586(14) 0.96010(16)
C2 C 0.3247(2) 0.13781(14) 0.94113(15)
C3 C 0.4033(2) 0.17905(15) 1.02618(16)
C4 C 0.5405(3) 0.2099(2) 1.0467(2)
H2 H 0.5555 0.2404 0.9919
H3 H 0.5586 0.2459 1.1005
H4 H 0.6038 0.1700 1.0516
C5 C 0.3553(2) 0.11119(14) 0.85624(16)
C6 C 0.2828(2) 0.04536(15) 0.69242(17)
H5 H 0.3209 0.0886 0.6541
C7 C 0.1529(2) 0.01398(16) 0.62672(19)
H6 H 0.1807 -0.0079 0.5686
H7 H 0.1224 -0.0313 0.6675
C8 C 0.0468(2) 0.07688(15) 0.59175(17)
C9 C -0.0639(3) 0.07700(18) 0.62575(19)
H8 H -0.0677 0.0380 0.6773
C10 C -0.1639(3) 0.1319(2) 0.5901(2)
H9 H -0.2403 0.1296 0.6147
C11 C -0.1534(3) 0.18765(19) 0.5212(2)
H10 H -0.2271 0.2278 0.4960
C12 C -0.0437(3) 0.18888(17) 0.48694(19)
H11 H -0.0339 0.2280 0.4415
C13 C 0.0565(3) 0.13388(17) 0.52144(18)
H12 H 0.1333 0.1353 0.4972
C14 C 0.3761(2) -0.02639(17) 0.71382(18)
C15 C 0.5255(6) -0.1040(4) 0.6516(5)
H13 H 0.4722 -0.1416 0.6052
H14 H 0.5535 -0.1288 0.7161
C16 C 0.6452(7) -0.0721(5) 0.6159(6)
H15 H 0.7159 -0.1104 0.6325
H16 H 0.6745 -0.0217 0.6474
H17 H 0.6187 -0.0646 0.5458
C19 C 0.49251(16) 0.11539(11) 0.84526(12)
C20 C 0.58424(16) 0.05823(11) 0.89219(12)
H23 H 0.5519 0.0119 0.9308
C21 C 0.7129(3) 0.06343(18) 0.8871(2)
H24 H 0.7748 0.0196 0.9188
C22 C 0.7532(3) 0.12559(19) 0.83800(19)
H25 H 0.8396 0.1316 0.8342
C23 C 0.6629(2) 0.18228(18) 0.79178(19)
H26 H 0.6879 0.2279 0.7611
C24 C 0.5325(2) 0.17726(15) 0.79387(17)
H27 H 0.4664 0.2174 0.7637
C25 C 0.1208(2) 0.15830(14) 1.11201(16)
C26 C 0.1409(2) 0.21183(15) 1.19036(17)
H28 H 0.2262 0.2453 1.2069
C27 C 0.0505(3) 0.21549(17) 1.24569(19)
H29 H 0.0710 0.2530 1.3033
C28 C -0.0586(3) 0.16633(16) 1.22501(19)
H30 H -0.1270 0.1671 1.2655
C29 C -0.0772(3) 0.11233(16) 1.14806(19)
H31 H -0.1623 0.0758 1.1284
C30 C 0.0122(2) 0.10787(15) 1.09169(18)
H32 H 0.0011 0.0694 1.0390
C17? C 0.5612(7) -0.0855(4) 0.6747(5)
H18? H 0.5306 -0.1363 0.6943
H19? H 0.6349 -0.0668 0.7271
C18? C 0.60236(16) -0.09546(11) 0.57947(12)
H20? H 0.6503 -0.1449 0.5817
H21? H 0.6574 -0.0512 0.5720
H22? H 0.5254 -0.0966 0.5247
loop_
_geom_bond_atom_site_label_1
_geom_bond_atom_site_label_2
_geom_bond_site_symmetry_1
_geom_bond_site_symmetry_2
N1 N2 1_555 1_555
N2 C3 1_555 1_555
N3 H1 1_555 1_555
O1 C1 1_555 1_555
O2 C14 1_555 1_555
O3 C14 1_555 1_555
C1 N1 1_555 1_555
C2 C1 1_555 1_555
C3 C2 1_555 1_555
C4 C3 1_555 1_555
H2 C4 1_555 1_555
H3 C4 1_555 1_555
H4 C4 1_555 1_555
C5 N3 1_555 1_555
C6 N3 1_555 1_555
H5 C6 1_555 1_555
C7 C6 1_555 1_555
H6 C7 1_555 1_555
H7 C7 1_555 1_555
C8 C7 1_555 1_555
C9 C8 1_555 1_555
H8 C9 1_555 1_555
C10 C9 1_555 1_555
H9 C10 1_555 1_555
C11 C10 1_555 1_555
H10 C11 1_555 1_555
C12 C11 1_555 1_555
H11 C12 1_555 1_555
C13 C8 1_555 1_555
H12 C13 1_555 1_555
C14 C6 1_555 1_555
C15 O3 1_555 1_555
H13 C15 1_555 1_555
H14 C15 1_555 1_555
C16 C15 1_555 1_555
H15 C16 1_555 1_555
H16 C16 1_555 1_555
H17 C16 1_555 1_555
C19 C5 1_555 1_555
C20 C19 1_555 1_555
H23 C20 1_555 1_555
C21 C20 1_555 1_555
H24 C21 1_555 1_555
C22 C21 1_555 1_555
H25 C22 1_555 1_555
C23 C22 1_555 1_555
H26 C23 1_555 1_555
C24 C19 1_555 1_555
H27 C24 1_555 1_555
C25 N1 1_555 1_555
C26 C25 1_555 1_555
H28 C26 1_555 1_555
C27 C26 1_555 1_555
H29 C27 1_555 1_555
C28 C27 1_555 1_555
H30 C28 1_555 1_555
C29 C28 1_555 1_555
H31 C29 1_555 1_555
C30 C25 1_555 1_555
H32 C30 1_555 1_555
C2 C5 1_555 1_555
C12 C13 1_555 1_555
C23 C24 1_555 1_555
C29 C30 1_555 1_555

#END
