
#######################################################################
#
#                 Cambridge Crystallographic Data Centre
#                                CCDC 
#
#######################################################################
#
# If this CIF has been generated from an entry in the Cambridge 
# Structural Database, then it will include bibliographic, chemical, 
# crystal, experimental, refinement or atomic coordinate data resulting 
# from the CCDC's data processing and validation procedures.
#
#######################################################################

data_FOHKOD
_chemical_formula_moiety         'C23 H25 N1 O3'
_chemical_name_systematic        
10-Cyclopropyl-9-(4-methoxyphenyl)-1,2,3,4,5,6,7,8,9,10-decahydroacridine-1,8-dione
_symmetry_cell_setting           monoclinic
_symmetry_space_group_name_H-M   'P 21/c'
_symmetry_Int_Tables_number      14
_space_group_name_Hall           '-P 2ybc'
loop_
_symmetry_equiv_pos_site_id
_symmetry_equiv_pos_as_xyz
1 x,y,z
2 -x,1/2+y,1/2-z
3 -x,-y,-z
4 x,1/2-y,1/2+z
_cell_length_a                   11.2668(10)
_cell_length_b                   16.4542(12)
_cell_length_c                   10.8049(9)
_cell_angle_alpha                90
_cell_angle_beta                 111.798(2)
_cell_angle_gamma                90
_cell_volume                     1859.86
_exptl_crystal_colour            colorless
_exptl_crystal_description       block
_chemical_melting_point          '506-507 K'
_cell_formula_units_Z            4
_exptl_crystal_recrystallization_method ethanol
loop_
_atom_site_label
_atom_site_type_symbol
_atom_site_fract_x
_atom_site_fract_y
_atom_site_fract_z
O1 O -0.01451(12) 0.75163(9) 0.33715(13)
O2 O 0.41062(13) 0.69974(9) 0.35849(14)
O3 O 0.18021(13) 1.02793(8) -0.05118(12)
N1 N 0.33255(13) 0.91032(8) 0.61382(13)
C1 C 0.20519(15) 0.88438(9) 0.57455(15)
C2 C 0.15547(14) 0.83524(9) 0.46649(15)
C3 C 0.23265(14) 0.81519(9) 0.38290(15)
H1 H 0.2059 0.7601 0.3434
C4 C 0.37191(15) 0.81005(10) 0.47573(16)
C5 C 0.41758(15) 0.86062(10) 0.58214(16)
C6 C 0.03118(15) 0.79585(10) 0.43510(16)
C7 C -0.03676(16) 0.80900(10) 0.52993(18)
H2 H -0.0095 0.7668 0.6002
H3 H -0.1300 0.8032 0.4810
C8 C -0.00877(17) 0.89245(11) 0.59444(19)
H4 H -0.0500 0.8973 0.6606
H5 H -0.0455 0.9347 0.5255
C9 C 0.13421(17) 0.90653(11) 0.66313(17)
H6 H 0.1499 0.9645 0.6888
H7 H 0.1671 0.8735 0.7455
C10 C 0.45288(17) 0.74917(11) 0.44933(18)
C11 C 0.59335(19) 0.74952(16) 0.5373(2)
H8 H 0.6268 0.6934 0.5442
H9 H 0.6402 0.7833 0.4947
C12 C 0.6193(2) 0.78140(15) 0.6747(2)
H10 H 0.7128 0.7866 0.7228
H11 H 0.5868 0.7421 0.7239
C13 C 0.55700(16) 0.86321(12) 0.67228(18)
H12 H 0.5646 0.8781 0.7637
H13 H 0.6015 0.9052 0.6401
C14 C 0.21532(14) 0.87433(10) 0.26863(15)
C15 C 0.17565(16) 0.95406(10) 0.26932(16)
H14 H 0.1570 0.9728 0.3432
C16 C 0.16233(16) 1.00755(10) 0.16487(17)
H15 H 0.1348 1.0618 0.1678
C17 C 0.18961(16) 0.98071(10) 0.05677(16)
C18 C 0.22933(17) 0.90083(11) 0.05371(16)
H16 H 0.2478 0.8821 -0.0203
C19 C 0.24186(15) 0.84889(10) 0.15826(16)
H17 H 0.2692 0.7946 0.1550
C20 C 0.38026(17) 0.97284(11) 0.71408(18)
H18 H 0.4027 0.9556 0.8088
C21 C 0.46120(19) 1.03863(12) 0.6893(2)
H19 H 0.5325 1.0605 0.7671
H20 H 0.4779 1.0361 0.6057
C22 C 0.3274(2) 1.05698(12) 0.6790(2)
H21 H 0.3165 1.0902 0.7504
H22 H 0.2618 1.0658 0.5889
C23 C 0.13337(19) 1.10877(11) -0.05285(19)
H23 H 0.0477 1.1068 -0.0494
H24 H 0.1293 1.1362 -0.1348
H25 H 0.1909 1.1387 0.0246
loop_
_geom_bond_atom_site_label_1
_geom_bond_atom_site_label_2
_geom_bond_site_symmetry_1
_geom_bond_site_symmetry_2
O1 C6 1_555 1_555
O2 C10 1_555 1_555
O3 C17 1_555 1_555
N1 C1 1_555 1_555
C1 C2 1_555 1_555
C2 C3 1_555 1_555
C3 H1 1_555 1_555
C4 C3 1_555 1_555
C5 N1 1_555 1_555
C6 C2 1_555 1_555
C7 C6 1_555 1_555
H2 C7 1_555 1_555
H3 C7 1_555 1_555
C8 C7 1_555 1_555
H4 C8 1_555 1_555
H5 C8 1_555 1_555
C9 C1 1_555 1_555
H6 C9 1_555 1_555
H7 C9 1_555 1_555
C10 C4 1_555 1_555
C11 C10 1_555 1_555
H8 C11 1_555 1_555
H9 C11 1_555 1_555
C12 C11 1_555 1_555
H10 C12 1_555 1_555
H11 C12 1_555 1_555
C13 C5 1_555 1_555
H12 C13 1_555 1_555
H13 C13 1_555 1_555
C14 C3 1_555 1_555
C15 C14 1_555 1_555
H14 C15 1_555 1_555
C16 C15 1_555 1_555
H15 C16 1_555 1_555
C17 C16 1_555 1_555
C18 C17 1_555 1_555
H16 C18 1_555 1_555
C19 C14 1_555 1_555
H17 C19 1_555 1_555
C20 N1 1_555 1_555
H18 C20 1_555 1_555
C21 C20 1_555 1_555
H19 C21 1_555 1_555
H20 C21 1_555 1_555
C22 C20 1_555 1_555
H21 C22 1_555 1_555
H22 C22 1_555 1_555
C23 O3 1_555 1_555
H23 C23 1_555 1_555
H24 C23 1_555 1_555
H25 C23 1_555 1_555
C4 C5 1_555 1_555
C8 C9 1_555 1_555
C12 C13 1_555 1_555
C18 C19 1_555 1_555
C21 C22 1_555 1_555

#END
