
#######################################################################
#
#                 Cambridge Crystallographic Data Centre
#                                CCDC 
#
#######################################################################
#
# If this CIF has been generated from an entry in the Cambridge 
# Structural Database, then it will include bibliographic, chemical, 
# crystal, experimental, refinement or atomic coordinate data resulting 
# from the CCDC's data processing and validation procedures.
#
#######################################################################

data_FOHLOE
_chemical_formula_moiety         'C17 H17 N1'
_chemical_name_systematic        (Anthracen-9-ylmethyl)dimethylamine
_symmetry_cell_setting           monoclinic
_symmetry_space_group_name_H-M   'P 21/c'
_symmetry_Int_Tables_number      14
_space_group_name_Hall           '-P 2ybc'
loop_
_symmetry_equiv_pos_site_id
_symmetry_equiv_pos_as_xyz
1 x,y,z
2 -x,1/2+y,1/2-z
3 -x,-y,-z
4 x,1/2-y,1/2+z
_cell_length_a                   19.6924(4)
_cell_length_b                   6.23830(10)
_cell_length_c                   23.4415(7)
_cell_angle_alpha                90
_cell_angle_beta                 112.4743(10)
_cell_angle_gamma                90
_cell_volume                     2661.01
_exptl_crystal_colour            'pale yellow'
_exptl_crystal_description       plate
_chemical_melting_point          '348-350 K'
_cell_formula_units_Z            8
_exptl_crystal_recrystallization_method ethanol
loop_
_atom_site_label
_atom_site_type_symbol
_atom_site_fract_x
_atom_site_fract_y
_atom_site_fract_z
N1 N 0.12180(8) 0.1488(2) 0.47531(7)
C1 C 0.04902(9) 0.3139(3) 0.37409(7)
C2 C 0.10193(9) 0.4194(3) 0.35690(7)
C3 C 0.17505(9) 0.3397(3) 0.37272(8)
H1 H 0.1896 0.2129 0.3968
C4 C 0.22424(10) 0.4418(3) 0.35401(8)
H2 H 0.2722 0.3845 0.3647
C5 C 0.20426(11) 0.6328(3) 0.31867(8)
H3 H 0.2388 0.7022 0.3056
C6 C 0.13624(11) 0.7163(3) 0.30357(8)
H4 H 0.1239 0.8459 0.2806
C7 C 0.08265(9) 0.6138(3) 0.32144(7)
C8 C 0.01177(10) 0.6966(3) 0.30452(8)
H5 H -0.0007 0.8254 0.2812
C9 C -0.04113(9) 0.5958(3) 0.32082(8)
C10 C -0.11383(10) 0.6799(3) 0.30250(8)
H6 H -0.1258 0.8105 0.2800
C11 C -0.16610(10) 0.5773(3) 0.31658(9)
H7 H -0.2144 0.6347 0.3033
C12 C -0.14879(10) 0.3849(3) 0.35107(9)
H8 H -0.1856 0.3147 0.3611
C13 C -0.08020(9) 0.2988(3) 0.37006(8)
H9 H -0.0700 0.1697 0.3933
C14 C -0.02282(9) 0.3985(3) 0.35580(8)
C15 C 0.07100(9) 0.1096(3) 0.41135(8)
H10 H 0.0263 0.0377 0.4117
H11 H 0.0947 0.0118 0.3912
C16 C 0.08701(12) 0.2721(3) 0.50934(9)
H12 H 0.1228 0.3004 0.5511
H13 H 0.0456 0.1906 0.5117
H14 H 0.0691 0.4083 0.4881
C17 C 0.14812(12) -0.0559(4) 0.50609(11)
H15 H 0.1718 -0.1371 0.4830
H16 H 0.1065 -0.1382 0.5078
H17 H 0.1837 -0.0298 0.5481
N2 N 0.39723(8) 0.1841(2) 0.39976(7)
C18 C 0.48528(9) 0.3584(3) 0.36158(7)
C19 C 0.43857(9) 0.4833(2) 0.31150(7)
C20 C 0.36472(9) 0.4218(3) 0.27462(8)
H18 H 0.3450 0.2951 0.2848
C21 C 0.32186(9) 0.5414(3) 0.22507(8)
H19 H 0.2733 0.4956 0.2010
C22 C 0.34912(9) 0.7332(3) 0.20918(8)
H20 H 0.3189 0.8152 0.1746
C23 C 0.41853(9) 0.7994(3) 0.24344(8)
H21 H 0.4363 0.9284 0.2326
C24 C 0.46527(8) 0.6791(2) 0.29538(7)
C25 C 0.53689(9) 0.7461(3) 0.32991(7)
H22 H 0.5539 0.8777 0.3198
C26 C 0.58410(9) 0.6246(3) 0.37888(7)
C27 C 0.65828(9) 0.6913(3) 0.41263(8)
H23 H 0.6751 0.8224 0.4020
C28 C 0.70529(10) 0.5711(3) 0.45957(9)
H24 H 0.7543 0.6182 0.4816
C29 C 0.68060(10) 0.3759(3) 0.47515(8)
H25 H 0.7137 0.2919 0.5078
C30 C 0.61039(9) 0.3045(3) 0.44460(8)
H26 H 0.5956 0.1725 0.4565
C31 C 0.55856(9) 0.4252(3) 0.39490(7)
C32 C 0.45519(9) 0.1515(3) 0.37601(8)
H27 H 0.4354 0.0637 0.3380
H28 H 0.4959 0.0702 0.4069
C33 C 0.42588(10) 0.2858(3) 0.46034(8)
H29 H 0.3858 0.3074 0.4748
H30 H 0.4476 0.4247 0.4574
H31 H 0.4635 0.1938 0.4896
C34 C 0.36320(12) -0.0213(3) 0.40245(10)
H32 H 0.3232 0.0011 0.4170
H33 H 0.4000 -0.1172 0.4310
H34 H 0.3435 -0.0857 0.3612
loop_
_geom_bond_atom_site_label_1
_geom_bond_atom_site_label_2
_geom_bond_site_symmetry_1
_geom_bond_site_symmetry_2
N1 C15 1_555 1_555
C1 C2 1_555 1_555
C2 C3 1_555 1_555
C3 H1 1_555 1_555
C4 C3 1_555 1_555
H2 C4 1_555 1_555
C5 C4 1_555 1_555
H3 C5 1_555 1_555
C6 C5 1_555 1_555
H4 C6 1_555 1_555
C7 C2 1_555 1_555
C8 C7 1_555 1_555
H5 C8 1_555 1_555
C9 C8 1_555 1_555
C10 C9 1_555 1_555
H6 C10 1_555 1_555
C11 C10 1_555 1_555
H7 C11 1_555 1_555
C12 C11 1_555 1_555
H8 C12 1_555 1_555
C13 C12 1_555 1_555
H9 C13 1_555 1_555
C14 C1 1_555 1_555
C15 C1 1_555 1_555
H10 C15 1_555 1_555
H11 C15 1_555 1_555
C16 N1 1_555 1_555
H12 C16 1_555 1_555
H13 C16 1_555 1_555
H14 C16 1_555 1_555
C17 N1 1_555 1_555
H15 C17 1_555 1_555
H16 C17 1_555 1_555
H17 C17 1_555 1_555
N2 C32 1_555 1_555
C18 C19 1_555 1_555
C19 C20 1_555 1_555
C20 H18 1_555 1_555
C21 C20 1_555 1_555
H19 C21 1_555 1_555
C22 C21 1_555 1_555
H20 C22 1_555 1_555
C23 C22 1_555 1_555
H21 C23 1_555 1_555
C24 C19 1_555 1_555
C25 C24 1_555 1_555
H22 C25 1_555 1_555
C26 C25 1_555 1_555
C27 C26 1_555 1_555
H23 C27 1_555 1_555
C28 C27 1_555 1_555
H24 C28 1_555 1_555
C29 C28 1_555 1_555
H25 C29 1_555 1_555
C30 C29 1_555 1_555
H26 C30 1_555 1_555
C31 C18 1_555 1_555
C32 C18 1_555 1_555
H27 C32 1_555 1_555
H28 C32 1_555 1_555
C33 N2 1_555 1_555
H29 C33 1_555 1_555
H30 C33 1_555 1_555
H31 C33 1_555 1_555
C34 N2 1_555 1_555
H32 C34 1_555 1_555
H33 C34 1_555 1_555
H34 C34 1_555 1_555
C6 C7 1_555 1_555
C9 C14 1_555 1_555
C13 C14 1_555 1_555
C23 C24 1_555 1_555
C26 C31 1_555 1_555
C30 C31 1_555 1_555

#END
