
#######################################################################
#
#                 Cambridge Crystallographic Data Centre
#                                CCDC 
#
#######################################################################
#
# If this CIF has been generated from an entry in the Cambridge 
# Structural Database, then it will include bibliographic, chemical, 
# crystal, experimental, refinement or atomic coordinate data resulting 
# from the CCDC's data processing and validation procedures.
#
#######################################################################

data_FOHLAP03
_chemical_formula_moiety         'C13 H10 O4'
_chemical_name_systematic        
3-(1-hydroxy-3-oxobut-1-en-1-yl)-2H-1-benzopyran-2-one
_symmetry_cell_setting           triclinic
_symmetry_space_group_name_H-M   'P -1'
_symmetry_Int_Tables_number      2
_space_group_name_Hall           '-P 1'
loop_
_symmetry_equiv_pos_site_id
_symmetry_equiv_pos_as_xyz
1 x,y,z
2 -x,-y,-z
_cell_length_a                   6.766(5)
_cell_length_b                   8.886(6)
_cell_length_c                   9.994(8)
_cell_angle_alpha                82.316(14)
_cell_angle_beta                 76.132(13)
_cell_angle_gamma                71.315(12)
_cell_volume                     551.546
_exptl_crystal_colour            yellow
_exptl_crystal_description       block
_cell_formula_units_Z            2
loop_
_atom_site_label
_atom_site_type_symbol
_atom_site_fract_x
_atom_site_fract_y
_atom_site_fract_z
O1 O 0.6410(2) 0.54464(18) 0.18874(16)
O2 O 0.8227(3) 0.3774(2) 0.32876(19)
O3 O 0.2611(3) 0.2546(2) 0.52955(17)
H1 H 0.2685 0.1852 0.5927
O4 O 0.4197(3) 0.0543(2) 0.70554(19)
C1 C 0.4603(4) 0.6173(2) 0.1387(2)
C2 C 0.4723(4) 0.7248(3) 0.0245(2)
H2 H 0.6005 0.7458 -0.0158
C3 C 0.2945(5) 0.7990(3) -0.0278(3)
H3 H 0.3016 0.8713 -0.1039
C4 C 0.1026(5) 0.7677(3) 0.0315(3)
H4 H -0.0178 0.8185 -0.0051
C5 C 0.0915(4) 0.6617(3) 0.1441(3)
H5 H -0.0371 0.6410 0.1835
C6 C 0.2713(3) 0.5843(3) 0.2002(2)
C7 C 0.2749(4) 0.4696(2) 0.3157(2)
H6 H 0.1495 0.4458 0.3587
C8 C 0.4532(3) 0.3952(2) 0.3642(2)
C9 C 0.6516(4) 0.4324(3) 0.2987(2)
C10 C 0.4489(4) 0.2764(3) 0.4825(2)
C11 C 0.6175(4) 0.1930(3) 0.5423(2)
H7 H 0.7485 0.2121 0.5093
C12 C 0.5965(5) 0.0778(3) 0.6541(2)
C13 C 0.7874(5) -0.0169(3) 0.7109(3)
H8 H 0.7472 -0.0890 0.7851
H9 H 0.8435 0.0536 0.7447
H10 H 0.8943 -0.0764 0.6393
loop_
_geom_bond_atom_site_label_1
_geom_bond_atom_site_label_2
_geom_bond_site_symmetry_1
_geom_bond_site_symmetry_2
O1 C1 1_555 1_555
O2 C9 1_555 1_555
O3 H1 1_555 1_555
O4 C12 1_555 1_555
C1 C2 1_555 1_555
C2 H2 1_555 1_555
C3 C2 1_555 1_555
H3 C3 1_555 1_555
C4 C3 1_555 1_555
H4 C4 1_555 1_555
C5 C4 1_555 1_555
H5 C5 1_555 1_555
C6 C1 1_555 1_555
C7 C6 1_555 1_555
H6 C7 1_555 1_555
C8 C7 1_555 1_555
C9 O1 1_555 1_555
C10 O3 1_555 1_555
C11 C10 1_555 1_555
H7 C11 1_555 1_555
C12 C11 1_555 1_555
C13 C12 1_555 1_555
H8 C13 1_555 1_555
H9 C13 1_555 1_555
H10 C13 1_555 1_555
C5 C6 1_555 1_555
C8 C9 1_555 1_555
C8 C10 1_555 1_555

#END
