
#######################################################################
#
#                 Cambridge Crystallographic Data Centre
#                                CCDC 
#
#######################################################################
#
# If this CIF has been generated from an entry in the Cambridge 
# Structural Database, then it will include bibliographic, chemical, 
# crystal, experimental, refinement or atomic coordinate data resulting 
# from the CCDC's data processing and validation procedures.
#
#######################################################################

data_FOHLAP01
_chemical_name_common            3-Acetoacetyl-2-chromenone
_chemical_formula_moiety         'C13 H10 O4'
_chemical_name_systematic        
3-((Z)-1-Hydroxy-3-oxobutenyl)-2H-chromen-2-one
_symmetry_cell_setting           triclinic
_symmetry_space_group_name_H-M   'P -1'
_symmetry_Int_Tables_number      2
_space_group_name_Hall           '-P 1'
loop_
_symmetry_equiv_pos_site_id
_symmetry_equiv_pos_as_xyz
1 x,y,z
2 -x,-y,-z
_cell_length_a                   6.7577(19)
_cell_length_b                   8.799(3)
_cell_length_c                   9.890(4)
_cell_angle_alpha                83.17(4)
_cell_angle_beta                 76.17(3)
_cell_angle_gamma                71.10(3)
_cell_volume                     539.683
_exptl_crystal_colour            'light yellow'
_exptl_crystal_description       block
_chemical_melting_point          '421-423 K'
_cell_formula_units_Z            2
_exptl_crystal_recrystallization_method ethanol
loop_
_atom_site_label
_atom_site_type_symbol
_atom_site_fract_x
_atom_site_fract_y
_atom_site_fract_z
O1 O 1.1433(2) 0.54533(16) 0.18776(14)
O2 O 1.3248(2) 0.37773(18) 0.32859(16)
O3 O 0.7600(2) 0.25435(18) 0.52955(15)
H1 H 0.7674 0.1841 0.5951
O4 O 0.9192(3) 0.05436(19) 0.70529(16)
C1 C 1.1522(3) 0.4334(2) 0.2981(2)
C2 C 0.9539(3) 0.3956(2) 0.36397(19)
C3 C 0.7730(3) 0.4713(2) 0.31568(19)
H2 H 0.6444 0.4478 0.3600
C4 C 0.7706(3) 0.5852(2) 0.2002(2)
C5 C 0.5895(3) 0.6633(3) 0.1442(2)
H3 H 0.4577 0.6428 0.1846
C6 C 0.6018(4) 0.7694(3) 0.0314(2)
H4 H 0.4783 0.8219 -0.0059
C7 C 0.7940(4) 0.8008(3) -0.0290(2)
H5 H 0.8006 0.8744 -0.1073
C8 C 0.9747(3) 0.7260(3) 0.0240(2)
H6 H 1.1059 0.7472 -0.0169
C9 C 0.9607(3) 0.6195(2) 0.1380(2)
C10 C 0.9497(3) 0.2767(2) 0.48238(19)
C11 C 1.1198(3) 0.1931(2) 0.5420(2)
H7 H 1.2542 0.2119 0.5081
C12 C 1.0966(4) 0.0780(2) 0.6547(2)
C13 C 1.2886(4) -0.0186(3) 0.7116(2)
H8 H 1.2435 -0.0446 0.8110
H9 H 1.3888 0.0438 0.6993
H10 H 1.3592 -0.1184 0.6617
loop_
_geom_bond_atom_site_label_1
_geom_bond_atom_site_label_2
_geom_bond_site_symmetry_1
_geom_bond_site_symmetry_2
O1 C1 1_555 1_555
O2 C1 1_555 1_555
O3 H1 1_555 1_555
O4 C12 1_555 1_555
C1 C2 1_555 1_555
C2 C3 1_555 1_555
C3 H2 1_555 1_555
C4 C3 1_555 1_555
C5 C4 1_555 1_555
H3 C5 1_555 1_555
C6 C5 1_555 1_555
H4 C6 1_555 1_555
C7 C6 1_555 1_555
H5 C7 1_555 1_555
C8 C7 1_555 1_555
H6 C8 1_555 1_555
C9 O1 1_555 1_555
C10 O3 1_555 1_555
C11 C10 1_555 1_555
H7 C11 1_555 1_555
C12 C11 1_555 1_555
C13 C12 1_555 1_555
H8 C13 1_555 1_555
H9 C13 1_555 1_555
H10 C13 1_555 1_555
C2 C10 1_555 1_555
C4 C9 1_555 1_555
C8 C9 1_555 1_555

#END
