
#######################################################################
#
#                 Cambridge Crystallographic Data Centre
#                                CCDC 
#
#######################################################################
#
# If this CIF has been generated from an entry in the Cambridge 
# Structural Database, then it will include bibliographic, chemical, 
# crystal, experimental, refinement or atomic coordinate data resulting 
# from the CCDC's data processing and validation procedures.
#
#######################################################################

data_FOHLEU
_chemical_formula_moiety         'C14 H10 O5'
_chemical_name_systematic        '2-(2,4-Dihydroxybenzoyl)benzoic acid'
_symmetry_cell_setting           monoclinic
_symmetry_space_group_name_H-M   'P 21/n'
_symmetry_Int_Tables_number      14
_space_group_name_Hall           '-P 2yn'
loop_
_symmetry_equiv_pos_site_id
_symmetry_equiv_pos_as_xyz
1 x,y,z
2 1/2-x,1/2+y,1/2-z
3 -x,-y,-z
4 1/2+x,1/2-y,1/2+z
_cell_length_a                   10.331(3)
_cell_length_b                   11.628(4)
_cell_length_c                   11.640(4)
_cell_angle_alpha                90
_cell_angle_beta                 116.034(5)
_cell_angle_gamma                90
_cell_volume                     1256.42
_exptl_crystal_colour            colorless
_exptl_crystal_description       block
_chemical_melting_point          '474 K'
_cell_formula_units_Z            4
_exptl_crystal_recrystallization_method methanol/water
loop_
_atom_site_label
_atom_site_type_symbol
_atom_site_fract_x
_atom_site_fract_y
_atom_site_fract_z
O1 O 0.28344(15) 0.31036(16) 0.44868(15)
O2 O 0.51504(16) 0.2925(2) 0.49583(19)
H1 H 0.516(3) 0.250(3) 0.560(3)
O3 O 0.01604(15) 0.33945(15) 0.18108(15)
O4 O -0.17529(15) 0.41733(17) 0.25016(16)
H2 H -0.134(3) 0.369(3) 0.216(3)
O5 O -0.0508(2) 0.75316(16) 0.5080(2)
H3 H -0.132(4) 0.733(3) 0.511(3)
C1 C 0.3836(2) 0.32926(19) 0.42363(19)
C2 C 0.3694(2) 0.39474(18) 0.30884(18)
C3 C 0.23439(19) 0.43702(18) 0.22257(17)
C4 C 0.2224(2) 0.4955(2) 0.1141(2)
H4 H 0.1331 0.5235 0.0563
C5 C 0.3419(2) 0.5127(2) 0.0909(2)
H5 H 0.3322 0.5515 0.0177
C6 C 0.4747(2) 0.4722(2) 0.1764(2)
H6 H 0.5550 0.4846 0.1616
C7 C 0.4888(2) 0.4131(2) 0.2845(2)
H7 H 0.5786 0.3853 0.3415
C8 C 0.09718(19) 0.42241(18) 0.23772(18)
C9 C 0.05604(18) 0.50795(18) 0.30447(18)
C10 C -0.07981(19) 0.50272(19) 0.30834(19)
C11 C -0.1173(2) 0.5859(2) 0.3735(2)
H8 H -0.2072 0.5832 0.3736
C12 C -0.0219(2) 0.67262(19) 0.4384(2)
C13 C 0.1129(2) 0.6803(2) 0.4358(2)
H9 H 0.1765 0.7395 0.4784
C14 C 0.1485(2) 0.59974(19) 0.3700(2)
H10 H 0.2373 0.6053 0.3681
loop_
_geom_bond_atom_site_label_1
_geom_bond_atom_site_label_2
_geom_bond_site_symmetry_1
_geom_bond_site_symmetry_2
O1 C1 1_555 1_555
O2 H1 1_555 1_555
O3 C8 1_555 1_555
O4 H2 1_555 1_555
O5 H3 1_555 1_555
C1 O2 1_555 1_555
C2 C1 1_555 1_555
C3 C2 1_555 1_555
C4 C3 1_555 1_555
H4 C4 1_555 1_555
C5 C4 1_555 1_555
H5 C5 1_555 1_555
C6 C5 1_555 1_555
H6 C6 1_555 1_555
C7 C2 1_555 1_555
H7 C7 1_555 1_555
C8 C3 1_555 1_555
C9 C8 1_555 1_555
C10 O4 1_555 1_555
C11 C10 1_555 1_555
H8 C11 1_555 1_555
C12 O5 1_555 1_555
C13 C12 1_555 1_555
H9 C13 1_555 1_555
C14 C9 1_555 1_555
H10 C14 1_555 1_555
C6 C7 1_555 1_555
C9 C10 1_555 1_555
C11 C12 1_555 1_555
C13 C14 1_555 1_555

#END
