
#######################################################################
#
#                 Cambridge Crystallographic Data Centre
#                                CCDC 
#
#######################################################################
#
# If this CIF has been generated from an entry in the Cambridge 
# Structural Database, then it will include bibliographic, chemical, 
# crystal, experimental, refinement or atomic coordinate data resulting 
# from the CCDC's data processing and validation procedures.
#
#######################################################################

data_FOHROK
_chemical_formula_moiety         'C20 H19 F3 N2 O4'
_chemical_name_systematic        
'Methyl (Z,E)-\a-(methoxyimino)-2-(((1-(3-(trifluoromethyl)phenyl)ethylidene)amino)oxymethyl)benzeneacetate'
_symmetry_cell_setting           orthorhombic
_symmetry_space_group_name_H-M   'P n a 21'
_symmetry_Int_Tables_number      33
_space_group_name_Hall           'P 2c -2n'
loop_
_symmetry_equiv_pos_site_id
_symmetry_equiv_pos_as_xyz
1 x,y,z
2 -x,-y,1/2+z
3 1/2+x,1/2-y,z
4 1/2-x,1/2+y,1/2+z
_cell_length_a                   22.4800(14)
_cell_length_b                   22.1594(15)
_cell_length_c                   7.7029(6)
_cell_angle_alpha                90
_cell_angle_beta                 90
_cell_angle_gamma                90
_cell_volume                     3837.15
_exptl_crystal_colour            colorless
_exptl_crystal_description       needle
_cell_formula_units_Z            8
_exptl_crystal_recrystallization_method methanol
loop_
_atom_site_label
_atom_site_type_symbol
_atom_site_fract_x
_atom_site_fract_y
_atom_site_fract_z
F1 F -0.18781(8) 0.90406(10) 0.4276(3)
F2 F -0.17031(9) 0.98851(10) 0.5498(3)
F3 F -0.21423(8) 0.98733(9) 0.3055(3)
O1 O 0.12410(10) 0.83558(10) 0.7091(3)
O2 O 0.20169(10) 0.80158(10) 0.5492(3)
O3 O 0.18089(10) 0.75591(9) 0.9671(3)
O4 O 0.05707(9) 0.78453(9) 0.3639(3)
N1 N 0.16091(11) 0.70979(12) 0.8582(4)
N2 N 0.01372(11) 0.83046(12) 0.3573(4)
C1 C 0.13219(14) 0.68363(14) 0.5719(4)
C2 C 0.07979(14) 0.68811(14) 0.4757(4)
C3 C 0.06578(14) 0.64182(15) 0.3611(4)
H1 H 0.0309 0.6440 0.2964
C4 C 0.10272(16) 0.59270(15) 0.3418(5)
H2 H 0.0923 0.5618 0.2660
C5 C 0.15467(15) 0.58919(15) 0.4337(4)
H3 H 0.1800 0.5565 0.4180
C6 C 0.16950(14) 0.63431(14) 0.5497(4)
H4 H 0.2046 0.6316 0.6132
C7 C 0.14879(14) 0.72980(15) 0.7044(5)
C8 C 0.15537(17) 0.79495(17) 0.6573(5)
C9 C 0.21402(16) 0.86298(14) 0.4952(5)
H5 H 0.2455 0.8629 0.4108
H6 H 0.2259 0.8864 0.5941
H7 H 0.1789 0.8803 0.4448
C10 C 0.18715(15) 0.73239(14) 1.1403(4)
H8 H 0.2072 0.7615 1.2117
H9 H 0.2099 0.6958 1.1370
H10 H 0.1485 0.7242 1.1878
C11 C -0.01594(15) 0.92220(15) 0.2350(4)
C12 C -0.07177(15) 0.91759(14) 0.3129(4)
H11 H -0.0823 0.8824 0.3710
C13 C -0.11141(14) 0.96477(15) 0.3043(4)
C14 C -0.09735(16) 1.01821(14) 0.2189(4)
H12 H -0.1242 1.0501 0.2158
C15 C -0.04321(16) 1.02258(14) 0.1399(4)
H13 H -0.0332 1.0578 0.0813
C16 C -0.00283(15) 0.97523(15) 0.1455(4)
H14 H 0.0335 0.9789 0.0888
C17 C -0.17075(17) 0.96017(18) 0.3931(6)
C18 C 0.02781(14) 0.87207(15) 0.2486(4)
C19 C 0.08335(14) 0.87402(13) 0.1415(5)
H15 H 0.1031 0.8357 0.1476
H16 H 0.1092 0.9050 0.1851
H17 H 0.0733 0.8827 0.0229
C20 C 0.03815(13) 0.74053(13) 0.4909(4)
H18 H -0.0024 0.7278 0.4679
H19 H 0.0399 0.7576 0.6067
F4 F -0.20367(8) 0.42721(9) 0.5017(3)
F5 F -0.18927(8) 0.51707(9) 0.5927(3)
F6 F -0.23558(8) 0.50282(9) 0.3552(3)
O5 O 0.09532(10) 0.30972(10) 0.8162(3)
O6 O 0.16562(10) 0.23889(10) 0.8601(3)
O7 O 0.20030(9) 0.34752(10) 0.5919(3)
O8 O 0.03553(9) 0.30183(9) 0.3520(3)
N3 N 0.17878(12) 0.30054(12) 0.4869(3)
N4 N -0.00869(11) 0.34702(12) 0.3618(4)
C21 C 0.12275(15) 0.20897(15) 0.4869(4)
C22 C 0.06367(15) 0.20352(15) 0.4372(4)
C23 C 0.04655(15) 0.15144(15) 0.3500(4)
H20 H 0.0076 0.1478 0.3105
C24 C 0.08644(17) 0.10490(15) 0.3209(5)
H21 H 0.0738 0.0699 0.2654
C25 C 0.14457(16) 0.11018(15) 0.3735(4)
H22 H 0.1713 0.0789 0.3546
C26 C 0.16287(15) 0.16279(15) 0.4554(4)
H23 H 0.2024 0.1671 0.4893
C27 C 0.14574(15) 0.26473(15) 0.5734(4)
C28 C 0.13245(17) 0.27473(17) 0.7622(5)
C29 C 0.15676(16) 0.24265(16) 1.0492(4)
H24 H 0.1827 0.2145 1.1062
H25 H 0.1162 0.2331 1.0766
H26 H 0.1656 0.2828 1.0881
C30 C 0.23487(15) 0.38762(15) 0.4871(5)
H27 H 0.2682 0.3662 0.4395
H28 H 0.2489 0.4205 0.5572
H29 H 0.2107 0.4030 0.3944
C31 C -0.03794(15) 0.44339(15) 0.2684(4)
C32 C -0.09212(14) 0.43903(13) 0.3560(4)
H30 H -0.1013 0.4038 0.4159
C33 C -0.13227(14) 0.48613(14) 0.3554(5)
C34 C -0.11938(16) 0.53894(14) 0.2642(4)
H31 H -0.1463 0.5708 0.2631
C35 C -0.06644(17) 0.54343(15) 0.1759(4)
H32 H -0.0576 0.5786 0.1154
C36 C -0.02614(15) 0.49607(16) 0.1763(4)
H33 H 0.0092 0.4995 0.1143
C37 C -0.18901(16) 0.48230(16) 0.4482(5)
C38 C 0.00603(15) 0.39348(15) 0.2714(4)
C39 C 0.06383(15) 0.39877(15) 0.1766(5)
H34 H 0.0899 0.3667 0.2119
H35 H 0.0819 0.4369 0.2031
H36 H 0.0568 0.3961 0.0539
C40 C 0.01912(13) 0.25281(14) 0.4670(4)
H37 H -0.0207 0.2387 0.4408
H38 H 0.0202 0.2660 0.5870
loop_
_geom_bond_atom_site_label_1
_geom_bond_atom_site_label_2
_geom_bond_site_symmetry_1
_geom_bond_site_symmetry_2
F1 C17 1_555 1_555
F2 C17 1_555 1_555
F3 C17 1_555 1_555
F4 C37 1_555 1_555
F5 C37 1_555 1_555
F6 C37 1_555 1_555
O1 C8 1_555 1_555
O2 C8 1_555 1_555
O3 N1 1_555 1_555
O4 N2 1_555 1_555
O5 C28 1_555 1_555
O6 C28 1_555 1_555
O7 N3 1_555 1_555
O8 N4 1_555 1_555
N1 C7 1_555 1_555
N2 C18 1_555 1_555
N3 C27 1_555 1_555
N4 C38 1_555 1_555
C1 C2 1_555 1_555
C2 C3 1_555 1_555
C3 H1 1_555 1_555
C4 C3 1_555 1_555
H2 C4 1_555 1_555
C5 C4 1_555 1_555
H3 C5 1_555 1_555
C6 C1 1_555 1_555
H4 C6 1_555 1_555
C7 C1 1_555 1_555
C8 C7 1_555 1_555
C9 O2 1_555 1_555
H5 C9 1_555 1_555
H6 C9 1_555 1_555
H7 C9 1_555 1_555
C10 O3 1_555 1_555
H8 C10 1_555 1_555
H9 C10 1_555 1_555
H10 C10 1_555 1_555
C11 C12 1_555 1_555
C12 H11 1_555 1_555
C13 C12 1_555 1_555
C14 C13 1_555 1_555
H12 C14 1_555 1_555
C15 C14 1_555 1_555
H13 C15 1_555 1_555
C16 C11 1_555 1_555
H14 C16 1_555 1_555
C17 C13 1_555 1_555
C18 C11 1_555 1_555
C19 C18 1_555 1_555
H15 C19 1_555 1_555
H16 C19 1_555 1_555
H17 C19 1_555 1_555
C20 O4 1_555 1_555
H18 C20 1_555 1_555
H19 C20 1_555 1_555
C21 C22 1_555 1_555
C22 C23 1_555 1_555
C23 H20 1_555 1_555
C24 C23 1_555 1_555
H21 C24 1_555 1_555
C25 C24 1_555 1_555
H22 C25 1_555 1_555
C26 C21 1_555 1_555
H23 C26 1_555 1_555
C27 C21 1_555 1_555
C28 C27 1_555 1_555
C29 O6 1_555 1_555
H24 C29 1_555 1_555
H25 C29 1_555 1_555
H26 C29 1_555 1_555
C30 O7 1_555 1_555
H27 C30 1_555 1_555
H28 C30 1_555 1_555
H29 C30 1_555 1_555
C31 C32 1_555 1_555
C32 H30 1_555 1_555
C33 C32 1_555 1_555
C34 C33 1_555 1_555
H31 C34 1_555 1_555
C35 C34 1_555 1_555
H32 C35 1_555 1_555
C36 C31 1_555 1_555
H33 C36 1_555 1_555
C37 C33 1_555 1_555
C38 C31 1_555 1_555
C39 C38 1_555 1_555
H34 C39 1_555 1_555
H35 C39 1_555 1_555
H36 C39 1_555 1_555
C40 O8 1_555 1_555
H37 C40 1_555 1_555
H38 C40 1_555 1_555
C2 C20 1_555 1_555
C5 C6 1_555 1_555
C15 C16 1_555 1_555
C22 C40 1_555 1_555
C25 C26 1_555 1_555
C35 C36 1_555 1_555

#END
