
#######################################################################
#
#                 Cambridge Crystallographic Data Centre
#                                CCDC 
#
#######################################################################
#
# If this CIF has been generated from an entry in the Cambridge 
# Structural Database, then it will include bibliographic, chemical, 
# crystal, experimental, refinement or atomic coordinate data resulting 
# from the CCDC's data processing and validation procedures.
#
#######################################################################

data_FOHSOM
_chemical_formula_moiety         'C22 H18 Cl1 I1 O3'
_chemical_name_systematic        
'ethyl 4-(1-chloro-2-iodo-2-phenylvinyl)-2-methyl-5-phenyl-3-furoate'
_symmetry_cell_setting           monoclinic
_symmetry_space_group_name_H-M   'P 21/c'
_symmetry_Int_Tables_number      14
_space_group_name_Hall           '-P 2ybc'
loop_
_symmetry_equiv_pos_site_id
_symmetry_equiv_pos_as_xyz
1 x,y,z
2 -x,1/2+y,1/2-z
3 -x,-y,-z
4 x,1/2-y,1/2+z
_cell_length_a                   11.290(3)
_cell_length_b                   9.600(3)
_cell_length_c                   19.536(5)
_cell_angle_alpha                90
_cell_angle_beta                 99.860(4)
_cell_angle_gamma                90
_cell_volume                     2086.11
_cell_formula_units_Z            4
loop_
_atom_site_label
_atom_site_type_symbol
_atom_site_fract_x
_atom_site_fract_y
_atom_site_fract_z
I1 I 0.00485(6) 0.87832(7) 0.10101(4)
Cl1 Cl -0.3789(2) 0.6710(2) 0.0642(2)
O1 O -0.3557(6) 1.1412(6) 0.0276(3)
C1 C -0.3160(7) 0.9837(9) -0.0627(4)
C2 C -0.3048(8) 1.0290(9) 0.1269(5)
C3 C -0.3142(7) 1.0118(8) 0.0116(4)
C4 C -0.2841(8) 0.9394(9) 0.0710(4)
C5 C -0.2485(9) 0.7915(9) 0.0786(5)
C6 C -0.1125(8) 0.5869(9) 0.1045(5)
C7 C -0.3503(8) 1.1510(9) 0.0966(5)
C8 C -0.1410(8) 0.7379(9) 0.0929(4)
C9 C -0.2505(10) 0.8773(10) -0.0848(5)
H1 H -0.2020 0.8225 -0.0521
O2 O -0.2899(10) 1.1010(9) 0.2419(4)
O3 O -0.2527(11) 0.8782(8) 0.2219(4)
C10 C -0.3917(11) 1.2831(11) 0.1228(6)
H2 H -0.3633 1.3596 0.0984
H3 H -0.3607 1.2915 0.1716
H4 H -0.4779 1.2843 0.1155
C11 C -0.3216(10) 0.9332(14) -0.2029(5)
H5 H -0.3236 0.9161 -0.2500
C12 C -0.2552(11) 0.8505(12) -0.1541(5)
H6 H -0.2129 0.7754 -0.1680
C13 C -0.3841(10) 1.0675(12) -0.1121(5)
H7 H -0.4288 1.1406 -0.0983
C14 C -0.2791(11) 0.9925(11) 0.2009(5)
C15 C -0.0600(12) 0.3077(13) 0.1307(12)
H8 H -0.0410 0.2144 0.1395
C16 C -0.1146(12) 0.4959(11) 0.0506(6)
H9 H -0.1327 0.5257 0.0048
C17 C -0.3856(12) 1.0422(15) -0.1819(6)
H10 H -0.4303 1.0997 -0.2149
C18 C -0.0824(10) 0.5391(12) 0.1715(6)
H11 H -0.0776 0.6008 0.2086
C19 C -0.0593(14) 0.3985(14) 0.1836(9)
H12 H -0.0429 0.3661 0.2291
C20 C -0.0878(16) 0.3530(17) 0.0673(11)
H13 H -0.0904 0.2896 0.0311
C21 C -0.2578(13) 1.0818(17) 0.3188(7)
H14 H -0.1928 1.0151 0.3299
H15 H -0.2327 1.1695 0.3413
C22 C -0.3635(15) 1.032(2) 0.3410(9)
H16 H -0.4330 1.0705 0.3121
H17 H -0.3627 1.0588 0.3884
H18 H -0.3661 0.9319 0.3375
loop_
_geom_bond_atom_site_label_1
_geom_bond_atom_site_label_2
_geom_bond_site_symmetry_1
_geom_bond_site_symmetry_2
I1 C8 1_555 1_555
Cl1 C5 1_555 1_555
O1 C3 1_555 1_555
C1 C3 1_555 1_555
C2 C4 1_555 1_555
C3 C4 1_555 1_555
C4 C5 1_555 1_555
C5 C8 1_555 1_555
C6 C8 1_555 1_555
C7 O1 1_555 1_555
C9 C1 1_555 1_555
H1 C9 1_555 1_555
O2 C14 1_555 1_555
O3 C14 1_555 1_555
C10 C7 1_555 1_555
H2 C10 1_555 1_555
H3 C10 1_555 1_555
H4 C10 1_555 1_555
C11 H5 1_555 1_555
C12 C9 1_555 1_555
H6 C12 1_555 1_555
C13 C1 1_555 1_555
H7 C13 1_555 1_555
C14 C2 1_555 1_555
C15 H8 1_555 1_555
C16 C6 1_555 1_555
H9 C16 1_555 1_555
C17 C11 1_555 1_555
H10 C17 1_555 1_555
C18 C6 1_555 1_555
H11 C18 1_555 1_555
C19 C15 1_555 1_555
H12 C19 1_555 1_555
C20 C15 1_555 1_555
H13 C20 1_555 1_555
C21 O2 1_555 1_555
H14 C21 1_555 1_555
H15 C21 1_555 1_555
C22 C21 1_555 1_555
H16 C22 1_555 1_555
H17 C22 1_555 1_555
H18 C22 1_555 1_555
C2 C7 1_555 1_555
C11 C12 1_555 1_555
C13 C17 1_555 1_555
C16 C20 1_555 1_555
C18 C19 1_555 1_555

#END
