
#######################################################################
#
#                 Cambridge Crystallographic Data Centre
#                                CCDC 
#
#######################################################################
#
# If this CIF has been generated from an entry in the Cambridge 
# Structural Database, then it will include bibliographic, chemical, 
# crystal, experimental, refinement or atomic coordinate data resulting 
# from the CCDC's data processing and validation procedures.
#
#######################################################################

data_FOHWEG
_chemical_formula_moiety         'C92 H68 N4 Si4'
_chemical_name_systematic        
N,N',1,3-tetrakis(4-methylphenyl)-2,4-bis(phenylethynyl)-N,N'-bis(tris(phenylethynyl)silyl)-1,3,2,4-diazadisiletidine-2,4-diamine
_symmetry_cell_setting           triclinic
_symmetry_space_group_name_H-M   'P -1'
_symmetry_Int_Tables_number      2
_space_group_name_Hall           '-P 1'
loop_
_symmetry_equiv_pos_site_id
_symmetry_equiv_pos_as_xyz
1 x,y,z
2 -x,-y,-z
_cell_length_a                   13.6425(18)
_cell_length_b                   15.331(3)
_cell_length_c                   21.041(3)
_cell_angle_alpha                68.649(16)
_cell_angle_beta                 78.131(12)
_cell_angle_gamma                67.655(16)
_cell_volume                     3779.41
_exptl_crystal_colour            colorless
_exptl_crystal_description       plate
_cell_formula_units_Z            2
loop_
_atom_site_label
_atom_site_type_symbol
_atom_site_fract_x
_atom_site_fract_y
_atom_site_fract_z
Si1 Si 0.5304(2) 0.0542(2) 0.01884(12)
Si2 Si 0.5431(2) 0.2538(2) 0.01124(12)
N1 N 0.4230(6) 0.0126(6) 0.0367(3)
N2 N 0.5014(6) 0.1803(6) -0.0155(3)
C1 C 0.6116(7) 0.0133(8) 0.0903(4)
C2 C 0.6613(10) -0.0075(9) 0.1364(5)
C3 C 0.7202(6) -0.0297(5) 0.1934(3)
C4 C 0.7213(6) 0.0462(4) 0.2141(4)
H1 H 0.6802 0.1131 0.1924
C5 C 0.7826(7) 0.0243(6) 0.2667(4)
H2 H 0.7834 0.0762 0.2809
C6 C 0.8427(6) -0.0736(6) 0.2986(3)
H3 H 0.8846 -0.0887 0.3346
C7 C 0.8415(7) -0.1496(5) 0.2779(4)
H4 H 0.8826 -0.2165 0.2996
C8 C 0.7803(7) -0.1276(5) 0.2253(4)
H5 H 0.7795 -0.1795 0.2111
C9 C 0.6872(9) 0.2204(8) 0.0014(4)
C10 C 0.7809(10) 0.2049(8) -0.0086(5)
C11 C 0.8909(6) 0.1900(8) -0.0233(4)
C12 C 0.9349(9) 0.2464(9) -0.0067(7)
H6 H 0.8914 0.2942 0.0151
C13 C 1.0428(9) 0.2328(10) -0.0220(8)
H7 H 1.0729 0.2713 -0.0106
C14 C 1.1065(6) 0.1628(8) -0.0538(6)
H8 H 1.1802 0.1535 -0.0643
C15 C 1.0625(8) 0.1064(9) -0.0704(7)
H9 H 1.1060 0.0585 -0.0922
C16 C 0.9546(8) 0.1200(9) -0.0551(7)
H10 H 0.9245 0.0814 -0.0665
C17 C 0.5013(8) 0.2462(7) 0.0970(5)
C18 C 0.4727(7) 0.2428(8) 0.1573(6)
C19 C 0.4461(7) 0.2335(6) 0.2289(3)
C20 C 0.4965(6) 0.2678(7) 0.2609(4)
H11 H 0.5479 0.2979 0.2356
C21 C 0.4718(8) 0.2581(7) 0.3301(4)
H12 H 0.5063 0.2815 0.3520
C22 C 0.3966(8) 0.2140(7) 0.3672(3)
H13 H 0.3797 0.2073 0.4145
C23 C 0.3461(7) 0.1796(7) 0.3351(5)
H14 H 0.2947 0.1495 0.3605
C24 C 0.3709(7) 0.1894(7) 0.2659(5)
H15 H 0.3364 0.1659 0.2440
C25 C 0.4843(9) 0.3809(9) -0.0425(5)
C26 C 0.4330(8) 0.4590(8) -0.0795(5)
C27 C 0.3661(6) 0.5444(5) -0.1233(3)
C28 C 0.3197(7) 0.6307(6) -0.1050(3)
H16 H 0.3375 0.6331 -0.0644
C29 C 0.2474(7) 0.7136(5) -0.1461(4)
H17 H 0.2157 0.7725 -0.1336
C30 C 0.2215(6) 0.7101(5) -0.2054(4)
H18 H 0.1721 0.7667 -0.2335
C31 C 0.2679(7) 0.6238(6) -0.2237(3)
H19 H 0.2501 0.6214 -0.2643
C32 C 0.3402(7) 0.5410(5) -0.1826(3)
H20 H 0.3719 0.4820 -0.1951
C33 C 0.4288(4) 0.2279(5) -0.0691(2)
C34 C 0.4646(4) 0.2230(5) -0.1350(3)
H21 H 0.5369 0.1878 -0.1450
C35 C 0.3944(6) 0.2696(5) -0.1862(2)
H22 H 0.4188 0.2663 -0.2312
C36 C 0.2885(5) 0.3212(5) -0.1716(3)
C37 C 0.2528(4) 0.3261(5) -0.1058(3)
H23 H 0.1804 0.3613 -0.0958
C38 C 0.3229(5) 0.2795(5) -0.0545(2)
H24 H 0.2985 0.2828 -0.0096
C39 C 0.2112(10) 0.3770(8) -0.2268(5)
H25 H 0.1413 0.4098 -0.2069
H26 H 0.2051 0.3303 -0.2463
H27 H 0.2369 0.4271 -0.2629
C40 C 0.3284(4) 0.0320(5) 0.0808(3)
C41 C 0.2544(6) -0.0135(5) 0.0877(3)
H28 H 0.2672 -0.0589 0.0635
C42 C 0.1615(5) 0.0074(6) 0.1299(4)
H29 H 0.1109 -0.0237 0.1346
C43 C 0.1428(5) 0.0738(7) 0.1653(4)
C44 C 0.2169(7) 0.1194(5) 0.1584(4)
H30 H 0.2041 0.1648 0.1826
C45 C 0.3097(6) 0.0985(5) 0.1162(3)
H31 H 0.3603 0.1296 0.1115
C46 C 0.0424(13) 0.0888(16) 0.2162(8)
H32 H -0.0006 0.0521 0.2129
H33 H 0.0004 0.1597 0.2048
H34 H 0.0640 0.0640 0.2629
Si1A Si 0.4696(2) -0.0542(2) -0.01884(12)
Si2A Si 0.4569(2) -0.2538(2) -0.01124(12)
N1A N 0.5770(6) -0.0126(6) -0.0367(3)
N2A N 0.4986(6) -0.1803(6) 0.0155(3)
C1A C 0.3884(7) -0.0133(8) -0.0903(4)
C2A C 0.3387(10) 0.0075(9) -0.1364(5)
C3A C 0.2798(6) 0.0297(5) -0.1934(3)
C4A C 0.2787(6) -0.0462(4) -0.2141(4)
H1A H 0.3198 -0.1131 -0.1924
C5A C 0.2174(7) -0.0243(6) -0.2667(4)
H2A H 0.2166 -0.0762 -0.2809
C6A C 0.1573(6) 0.0736(6) -0.2986(3)
H3A H 0.1154 0.0887 -0.3346
C7A C 0.1585(7) 0.1496(5) -0.2779(4)
H4A H 0.1174 0.2165 -0.2996
C8A C 0.2197(7) 0.1276(5) -0.2253(4)
H5A H 0.2205 0.1795 -0.2111
C9A C 0.3128(9) -0.2204(8) -0.0014(4)
C10A C 0.2191(10) -0.2049(8) 0.0086(5)
C11A C 0.1091(6) -0.1900(8) 0.0233(4)
C12A C 0.0651(9) -0.2464(9) 0.0067(7)
H6A H 0.1086 -0.2942 -0.0151
C13A C -0.0428(9) -0.2328(10) 0.0220(8)
H7A H -0.0729 -0.2713 0.0106
C14A C -0.1065(6) -0.1628(8) 0.0538(6)
H8A H -0.1802 -0.1535 0.0643
C15A C -0.0625(8) -0.1064(9) 0.0704(7)
H9A H -0.1060 -0.0585 0.0922
C16A C 0.0454(8) -0.1200(9) 0.0551(7)
H10A H 0.0755 -0.0814 0.0665
C17A C 0.4987(8) -0.2462(7) -0.0970(5)
C18A C 0.5273(7) -0.2428(8) -0.1573(6)
C19A C 0.5539(7) -0.2335(6) -0.2289(3)
C20A C 0.5035(6) -0.2678(7) -0.2609(4)
H11A H 0.4521 -0.2979 -0.2356
C21A C 0.5282(8) -0.2581(7) -0.3301(4)
H12A H 0.4937 -0.2815 -0.3520
C22A C 0.6034(8) -0.2140(7) -0.3672(3)
H13A H 0.6203 -0.2073 -0.4145
C23A C 0.6539(7) -0.1796(7) -0.3351(5)
H14A H 0.7053 -0.1495 -0.3605
C24A C 0.6291(7) -0.1894(7) -0.2659(5)
H15A H 0.6636 -0.1659 -0.2440
C25A C 0.5157(9) -0.3809(9) 0.0425(5)
C26A C 0.5670(8) -0.4590(8) 0.0795(5)
C27A C 0.6339(6) -0.5444(5) 0.1233(3)
C28A C 0.6803(7) -0.6307(6) 0.1050(3)
H16A H 0.6625 -0.6331 0.0644
C29A C 0.7526(7) -0.7136(5) 0.1461(4)
H17A H 0.7843 -0.7725 0.1336
C30A C 0.7785(6) -0.7101(5) 0.2054(4)
H18A H 0.8279 -0.7667 0.2335
C31A C 0.7321(7) -0.6238(6) 0.2237(3)
H19A H 0.7499 -0.6214 0.2643
C32A C 0.6598(7) -0.5410(5) 0.1826(3)
H20A H 0.6281 -0.4820 0.1951
C33A C 0.5712(4) -0.2279(5) 0.0691(2)
C34A C 0.5354(4) -0.2230(5) 0.1350(3)
H21A H 0.4631 -0.1878 0.1450
C35A C 0.6056(6) -0.2696(5) 0.1862(2)
H22A H 0.5812 -0.2663 0.2312
C36A C 0.7115(5) -0.3212(5) 0.1716(3)
C37A C 0.7472(4) -0.3261(5) 0.1058(3)
H23A H 0.8196 -0.3613 0.0958
C38A C 0.6771(5) -0.2795(5) 0.0545(2)
H24A H 0.7015 -0.2828 0.0096
C39A C 0.7888(10) -0.3770(8) 0.2268(5)
H25A H 0.8587 -0.4098 0.2069
H26A H 0.7949 -0.3303 0.2463
H27A H 0.7631 -0.4271 0.2629
C40A C 0.6716(4) -0.0320(5) -0.0808(3)
C41A C 0.7456(6) 0.0135(5) -0.0877(3)
H28A H 0.7328 0.0589 -0.0635
C42A C 0.8385(5) -0.0074(6) -0.1299(4)
H29A H 0.8891 0.0237 -0.1346
C43A C 0.8572(5) -0.0738(7) -0.1653(4)
C44A C 0.7831(7) -0.1194(5) -0.1584(4)
H30A H 0.7959 -0.1648 -0.1826
C45A C 0.6903(6) -0.0985(5) -0.1162(3)
H31A H 0.6397 -0.1296 -0.1115
C46A C 0.9576(13) -0.0888(16) -0.2162(8)
H32A H 1.0006 -0.0521 -0.2129
H33A H 0.9996 -0.1597 -0.2048
H34A H 0.9360 -0.0640 -0.2629
Si3 Si 0.97935(19) 0.44036(19) 0.48057(11)
Si4 Si 0.9803(2) 0.3382(2) 0.38071(12)
N3 N 0.9186(5) 0.5644(5) 0.4803(3)
N4 N 1.0122(5) 0.4226(6) 0.4037(3)
C47 C 0.9104(7) 0.3560(7) 0.5321(4)
C48 C 0.8712(7) 0.2968(8) 0.5683(5)
C49 C 0.8157(5) 0.2289(5) 0.6109(3)
C50 C 0.7977(6) 0.1657(6) 0.5846(3)
H35 H 0.8211 0.1675 0.5385
C51 C 0.7454(7) 0.1000(6) 0.6257(5)
H36 H 0.7331 0.0568 0.6077
C52 C 0.7111(7) 0.0974(6) 0.6931(5)
H37 H 0.6753 0.0524 0.7212
C53 C 0.7291(7) 0.1605(7) 0.7194(3)
H38 H 0.7057 0.1588 0.7655
C54 C 0.7814(7) 0.2263(6) 0.6783(4)
H39 H 0.7938 0.2695 0.6963
C55 C 1.0442(8) 0.2110(9) 0.4328(5)
C56 C 1.0904(8) 0.1313(8) 0.4694(5)
C57 C 1.1432(5) 0.0334(4) 0.5165(3)
C58 C 1.0859(4) -0.0224(5) 0.5651(3)
H40 H 1.0104 0.0032 0.5688
C59 C 1.1390(6) -0.1157(5) 0.6083(3)
H41 H 1.0998 -0.1538 0.6415
C60 C 1.2494(6) -0.1532(4) 0.6028(3)
H42 H 1.2857 -0.2169 0.6324
C61 C 1.3068(4) -0.0974(5) 0.5542(4)
H43 H 1.3823 -0.1230 0.5505
C62 C 1.2537(5) -0.0041(5) 0.5110(3)
H44 H 1.2929 0.0340 0.4778
C63 C 0.8347(9) 0.3671(7) 0.3907(4)
C64 C 0.7394(8) 0.3950(7) 0.3959(4)
C65 C 0.6276(4) 0.4291(5) 0.4011(4)
C66 C 0.5743(6) 0.5159(6) 0.3522(3)
H45 H 0.6134 0.5510 0.3163
C67 C 0.4638(6) 0.5513(6) 0.3560(5)
H46 H 0.4274 0.6106 0.3226
C68 C 0.4066(4) 0.4999(8) 0.4086(5)
H47 H 0.3312 0.5241 0.4112
C69 C 0.4599(7) 0.4131(8) 0.4575(4)
H48 H 0.4208 0.3780 0.4934
C70 C 0.5704(7) 0.3777(5) 0.4537(4)
H49 H 0.6068 0.3184 0.4871
C71 C 1.0240(7) 0.3520(6) 0.2937(6)
C72 C 1.0588(9) 0.3724(8) 0.2328(6)
C73 C 1.0998(7) 0.3970(6) 0.1649(3)
C74 C 1.1849(7) 0.4321(7) 0.1472(4)
H50 H 1.2155 0.4381 0.1815
C75 C 1.2254(7) 0.4586(8) 0.0793(5)
H51 H 1.2836 0.4827 0.0672
C76 C 1.1807(9) 0.4500(7) 0.0292(3)
H52 H 1.2084 0.4681 -0.0172
C77 C 1.0955(9) 0.4148(8) 0.0469(4)
H53 H 1.0650 0.4089 0.0126
C78 C 1.0551(7) 0.3883(7) 0.1147(4)
H54 H 0.9969 0.3642 0.1268
C79 C 1.0745(4) 0.4799(4) 0.3536(2)
C80 C 1.0241(3) 0.5716(4) 0.3077(3)
H55 H 0.9488 0.5996 0.3110
C81 C 1.0840(5) 0.6224(4) 0.2570(3)
H56 H 1.0496 0.6851 0.2256
C82 C 1.1943(5) 0.5814(5) 0.2522(3)
C83 C 1.2446(3) 0.4897(5) 0.2981(3)
H57 H 1.3200 0.4616 0.2948
C84 C 1.1847(4) 0.4389(4) 0.3488(3)
H58 H 1.2191 0.3762 0.3801
C85 C 1.2620(11) 0.6370(11) 0.1939(5)
H59 H 1.3305 0.6224 0.2103
H60 H 1.2238 0.7088 0.1810
H61 H 1.2739 0.6147 0.1540
C86 C 0.8246(4) 0.6399(4) 0.4548(3)
C87 C 0.7619(5) 0.6249(4) 0.4181(3)
H62 H 0.7813 0.5624 0.4111
C88 C 0.6706(5) 0.7013(5) 0.3917(3)
H63 H 0.6277 0.6911 0.3666
C89 C 0.6422(4) 0.7927(5) 0.4019(3)
C90 C 0.7049(5) 0.8077(4) 0.4386(3)
H64 H 0.6855 0.8701 0.4456
C91 C 0.7962(5) 0.7312(5) 0.4650(3)
H65 H 0.8391 0.7415 0.4901
C92 C 0.5426(10) 0.8785(10) 0.3715(7)
H66 H 0.5497 0.8942 0.3216
H67 H 0.5352 0.9373 0.3830
H68 H 0.4796 0.8587 0.3905
Si3A Si 1.02065(19) 0.55964(19) 0.51943(11)
Si4A Si 1.0197(2) 0.6618(2) 0.61929(12)
N3A N 1.0814(5) 0.4356(5) 0.5197(3)
N4A N 0.9878(5) 0.5774(6) 0.5963(3)
C47A C 1.0896(7) 0.6440(7) 0.4679(4)
C48A C 1.1288(7) 0.7032(8) 0.4317(5)
C49A C 1.1843(5) 0.7711(5) 0.3891(3)
C50A C 1.2023(6) 0.8343(6) 0.4154(3)
H35A H 1.1789 0.8325 0.4615
C51A C 1.2546(7) 0.9000(6) 0.3743(5)
H36A H 1.2669 0.9432 0.3923
C52A C 1.2889(7) 0.9026(6) 0.3069(5)
H37A H 1.3247 0.9476 0.2788
C53A C 1.2709(7) 0.8395(7) 0.2806(3)
H38A H 1.2943 0.8412 0.2345
C54A C 1.2186(7) 0.7737(6) 0.3217(4)
H39A H 1.2062 0.7305 0.3037
C55A C 0.9558(8) 0.7890(9) 0.5672(5)
C56A C 0.9096(8) 0.8687(8) 0.5306(5)
C57A C 0.8568(5) 0.9666(4) 0.4835(3)
C58A C 0.9141(4) 1.0224(5) 0.4349(3)
H40A H 0.9896 0.9968 0.4312
C59A C 0.8610(6) 1.1157(5) 0.3917(3)
H41A H 0.9002 1.1538 0.3585
C60A C 0.7506(6) 1.1532(4) 0.3972(3)
H42A H 0.7143 1.2169 0.3676
C61A C 0.6932(4) 1.0974(5) 0.4458(4)
H43A H 0.6177 1.1230 0.4495
C62A C 0.7463(5) 1.0041(5) 0.4890(3)
H44A H 0.7071 0.9660 0.5222
C63A C 1.1653(9) 0.6329(7) 0.6093(4)
C64A C 1.2606(8) 0.6050(7) 0.6041(4)
C65A C 1.3724(4) 0.5709(5) 0.5989(4)
C66A C 1.4257(6) 0.4841(6) 0.6478(3)
H45A H 1.3866 0.4490 0.6837
C67A C 1.5362(6) 0.4487(6) 0.6440(5)
H46A H 1.5726 0.3894 0.6774
C68A C 1.5934(4) 0.5001(8) 0.5914(5)
H47A H 1.6688 0.4759 0.5888
C69A C 1.5401(7) 0.5869(8) 0.5425(4)
H48A H 1.5792 0.6220 0.5066
C70A C 1.4296(7) 0.6223(5) 0.5463(4)
H49A H 1.3932 0.6816 0.5129
C71A C 0.9760(7) 0.6480(6) 0.7063(6)
C72A C 0.9412(9) 0.6276(8) 0.7672(6)
C73A C 0.9002(7) 0.6030(6) 0.8351(3)
C74A C 0.8151(7) 0.5679(7) 0.8528(4)
H50A H 0.7845 0.5619 0.8185
C75A C 0.7746(7) 0.5414(8) 0.9207(5)
H51A H 0.7164 0.5173 0.9328
C76A C 0.8193(9) 0.5500(7) 0.9708(3)
H52A H 0.7916 0.5319 1.0172
C77A C 0.9045(9) 0.5852(8) 0.9531(4)
H53A H 0.9350 0.5911 0.9874
C78A C 0.9449(7) 0.6117(7) 0.8853(4)
H54A H 1.0031 0.6358 0.8732
C79A C 0.9255(4) 0.5201(4) 0.6464(2)
C80A C 0.9759(3) 0.4284(4) 0.6923(3)
H55A H 1.0512 0.4004 0.6890
C81A C 0.9160(5) 0.3776(4) 0.7430(3)
H56A H 0.9504 0.3149 0.7744
C82A C 0.8057(5) 0.4186(5) 0.7478(3)
C83A C 0.7554(3) 0.5103(5) 0.7019(3)
H57A H 0.6800 0.5384 0.7052
C84A C 0.8153(4) 0.5611(4) 0.6512(3)
H58A H 0.7809 0.6238 0.6199
C85A C 0.7380(11) 0.3630(11) 0.8061(5)
H59A H 0.6695 0.3776 0.7897
H60A H 0.7762 0.2912 0.8190
H61A H 0.7261 0.3853 0.8460
C86A C 1.1754(4) 0.3601(4) 0.5452(3)
C87A C 1.2381(5) 0.3751(4) 0.5819(3)
H62A H 1.2187 0.4376 0.5889
C88A C 1.3294(5) 0.2987(5) 0.6083(3)
H63A H 1.3723 0.3089 0.6334
C89A C 1.3578(4) 0.2073(5) 0.5981(3)
C90A C 1.2951(5) 0.1923(4) 0.5614(3)
H64A H 1.3145 0.1299 0.5544
C91A C 1.2038(5) 0.2688(5) 0.5350(3)
H65A H 1.1609 0.2585 0.5099
C92A C 1.4574(10) 0.1215(10) 0.6285(7)
H66A H 1.4503 0.1058 0.6784
H67A H 1.4648 0.0627 0.6170
H68A H 1.5204 0.1413 0.6095
loop_
_geom_bond_atom_site_label_1
_geom_bond_atom_site_label_2
_geom_bond_site_symmetry_1
_geom_bond_site_symmetry_2
Si1 N1 1_555 1_555
Si2 N2 1_555 1_555
N1 C40 1_555 1_555
N2 Si1 1_555 1_555
C1 Si1 1_555 1_555
C2 C1 1_555 1_555
C3 C2 1_555 1_555
C4 C3 1_555 1_555
H1 C4 1_555 1_555
C5 C4 1_555 1_555
H2 C5 1_555 1_555
C6 C5 1_555 1_555
H3 C6 1_555 1_555
C7 C6 1_555 1_555
H4 C7 1_555 1_555
C8 C3 1_555 1_555
H5 C8 1_555 1_555
C9 Si2 1_555 1_555
C10 C9 1_555 1_555
C11 C10 1_555 1_555
C12 C11 1_555 1_555
H6 C12 1_555 1_555
C13 C12 1_555 1_555
H7 C13 1_555 1_555
C14 C13 1_555 1_555
H8 C14 1_555 1_555
C15 C14 1_555 1_555
H9 C15 1_555 1_555
C16 C11 1_555 1_555
H10 C16 1_555 1_555
C17 Si2 1_555 1_555
C18 C17 1_555 1_555
C19 C18 1_555 1_555
C20 C19 1_555 1_555
H11 C20 1_555 1_555
C21 C20 1_555 1_555
H12 C21 1_555 1_555
C22 C21 1_555 1_555
H13 C22 1_555 1_555
C23 C22 1_555 1_555
H14 C23 1_555 1_555
C24 C19 1_555 1_555
H15 C24 1_555 1_555
C25 Si2 1_555 1_555
C26 C25 1_555 1_555
C27 C26 1_555 1_555
C28 C27 1_555 1_555
H16 C28 1_555 1_555
C29 C28 1_555 1_555
H17 C29 1_555 1_555
C30 C29 1_555 1_555
H18 C30 1_555 1_555
C31 C30 1_555 1_555
H19 C31 1_555 1_555
C32 C27 1_555 1_555
H20 C32 1_555 1_555
C33 N2 1_555 1_555
C34 C33 1_555 1_555
H21 C34 1_555 1_555
C35 C34 1_555 1_555
H22 C35 1_555 1_555
C36 C35 1_555 1_555
C37 C36 1_555 1_555
H23 C37 1_555 1_555
C38 C33 1_555 1_555
H24 C38 1_555 1_555
C39 C36 1_555 1_555
H25 C39 1_555 1_555
H26 C39 1_555 1_555
H27 C39 1_555 1_555
C40 C41 1_555 1_555
C41 H28 1_555 1_555
C42 C41 1_555 1_555
H29 C42 1_555 1_555
C43 C42 1_555 1_555
C44 C43 1_555 1_555
H30 C44 1_555 1_555
C45 C40 1_555 1_555
H31 C45 1_555 1_555
C46 C43 1_555 1_555
H32 C46 1_555 1_555
H33 C46 1_555 1_555
H34 C46 1_555 1_555
Si3 N3 1_555 1_555
Si4 N4 1_555 1_555
N3 C86 1_555 1_555
N4 Si3 1_555 1_555
C47 Si3 1_555 1_555
C48 C47 1_555 1_555
C49 C48 1_555 1_555
C50 C49 1_555 1_555
H35 C50 1_555 1_555
C51 C50 1_555 1_555
H36 C51 1_555 1_555
C52 C51 1_555 1_555
H37 C52 1_555 1_555
C53 C52 1_555 1_555
H38 C53 1_555 1_555
C54 C49 1_555 1_555
H39 C54 1_555 1_555
C55 Si4 1_555 1_555
C56 C55 1_555 1_555
C57 C56 1_555 1_555
C58 C57 1_555 1_555
H40 C58 1_555 1_555
C59 C58 1_555 1_555
H41 C59 1_555 1_555
C60 C59 1_555 1_555
H42 C60 1_555 1_555
C61 C60 1_555 1_555
H43 C61 1_555 1_555
C62 C57 1_555 1_555
H44 C62 1_555 1_555
C63 Si4 1_555 1_555
C64 C63 1_555 1_555
C65 C64 1_555 1_555
C66 C65 1_555 1_555
H45 C66 1_555 1_555
C67 C66 1_555 1_555
H46 C67 1_555 1_555
C68 C67 1_555 1_555
H47 C68 1_555 1_555
C69 C68 1_555 1_555
H48 C69 1_555 1_555
C70 C65 1_555 1_555
H49 C70 1_555 1_555
C71 Si4 1_555 1_555
C72 C71 1_555 1_555
C73 C72 1_555 1_555
C74 C73 1_555 1_555
H50 C74 1_555 1_555
C75 C74 1_555 1_555
H51 C75 1_555 1_555
C76 C75 1_555 1_555
H52 C76 1_555 1_555
C77 C76 1_555 1_555
H53 C77 1_555 1_555
C78 C73 1_555 1_555
H54 C78 1_555 1_555
C79 N4 1_555 1_555
C80 C79 1_555 1_555
H55 C80 1_555 1_555
C81 C80 1_555 1_555
H56 C81 1_555 1_555
C82 C81 1_555 1_555
C83 C82 1_555 1_555
H57 C83 1_555 1_555
C84 C79 1_555 1_555
H58 C84 1_555 1_555
C85 C82 1_555 1_555
H59 C85 1_555 1_555
H60 C85 1_555 1_555
H61 C85 1_555 1_555
C86 C87 1_555 1_555
C87 H62 1_555 1_555
C88 C87 1_555 1_555
H63 C88 1_555 1_555
C89 C88 1_555 1_555
C90 C89 1_555 1_555
H64 C90 1_555 1_555
C91 C86 1_555 1_555
H65 C91 1_555 1_555
C92 C89 1_555 1_555
H66 C92 1_555 1_555
H67 C92 1_555 1_555
H68 C92 1_555 1_555
Si1A N1 1_555 1_555
Si2A N2A 1_555 1_555
N1A Si1 1_555 1_555
N2A Si1A 1_555 1_555
C1A Si1A 1_555 1_555
C2A C1A 1_555 1_555
C3A C2A 1_555 1_555
C4A C3A 1_555 1_555
H1A C4A 1_555 1_555
C5A C4A 1_555 1_555
H2A C5A 1_555 1_555
C6A C5A 1_555 1_555
H3A C6A 1_555 1_555
C7A C6A 1_555 1_555
H4A C7A 1_555 1_555
C8A C3A 1_555 1_555
H5A C8A 1_555 1_555
C9A Si2A 1_555 1_555
C10A C9A 1_555 1_555
C11A C10A 1_555 1_555
C12A C11A 1_555 1_555
H6A C12A 1_555 1_555
C13A C12A 1_555 1_555
H7A C13A 1_555 1_555
C14A C13A 1_555 1_555
H8A C14A 1_555 1_555
C15A C14A 1_555 1_555
H9A C15A 1_555 1_555
C16A C11A 1_555 1_555
H10A C16A 1_555 1_555
C17A Si2A 1_555 1_555
C18A C17A 1_555 1_555
C19A C18A 1_555 1_555
C20A C19A 1_555 1_555
H11A C20A 1_555 1_555
C21A C20A 1_555 1_555
H12A C21A 1_555 1_555
C22A C21A 1_555 1_555
H13A C22A 1_555 1_555
C23A C22A 1_555 1_555
H14A C23A 1_555 1_555
C24A C19A 1_555 1_555
H15A C24A 1_555 1_555
C25A Si2A 1_555 1_555
C26A C25A 1_555 1_555
C27A C26A 1_555 1_555
C28A C27A 1_555 1_555
H16A C28A 1_555 1_555
C29A C28A 1_555 1_555
H17A C29A 1_555 1_555
C30A C29A 1_555 1_555
H18A C30A 1_555 1_555
C31A C30A 1_555 1_555
H19A C31A 1_555 1_555
C32A C27A 1_555 1_555
H20A C32A 1_555 1_555
C33A N2A 1_555 1_555
C34A C33A 1_555 1_555
H21A C34A 1_555 1_555
C35A C34A 1_555 1_555
H22A C35A 1_555 1_555
C36A C35A 1_555 1_555
C37A C36A 1_555 1_555
H23A C37A 1_555 1_555
C38A C33A 1_555 1_555
H24A C38A 1_555 1_555
C39A C36A 1_555 1_555
H25A C39A 1_555 1_555
H26A C39A 1_555 1_555
H27A C39A 1_555 1_555
C40A N1A 1_555 1_555
C41A C40A 1_555 1_555
H28A C41A 1_555 1_555
C42A C41A 1_555 1_555
H29A C42A 1_555 1_555
C43A C42A 1_555 1_555
C44A C43A 1_555 1_555
H30A C44A 1_555 1_555
C45A C40A 1_555 1_555
H31A C45A 1_555 1_555
C46A C43A 1_555 1_555
H32A C46A 1_555 1_555
H33A C46A 1_555 1_555
H34A C46A 1_555 1_555
Si3A N3 1_555 1_555
Si4A N4A 1_555 1_555
N3A Si3 1_555 1_555
N4A Si3A 1_555 1_555
C47A Si3A 1_555 1_555
C48A C47A 1_555 1_555
C49A C48A 1_555 1_555
C50A C49A 1_555 1_555
H35A C50A 1_555 1_555
C51A C50A 1_555 1_555
H36A C51A 1_555 1_555
C52A C51A 1_555 1_555
H37A C52A 1_555 1_555
C53A C52A 1_555 1_555
H38A C53A 1_555 1_555
C54A C49A 1_555 1_555
H39A C54A 1_555 1_555
C55A Si4A 1_555 1_555
C56A C55A 1_555 1_555
C57A C56A 1_555 1_555
C58A C57A 1_555 1_555
H40A C58A 1_555 1_555
C59A C58A 1_555 1_555
H41A C59A 1_555 1_555
C60A C59A 1_555 1_555
H42A C60A 1_555 1_555
C61A C60A 1_555 1_555
H43A C61A 1_555 1_555
C62A C57A 1_555 1_555
H44A C62A 1_555 1_555
C63A Si4A 1_555 1_555
C64A C63A 1_555 1_555
C65A C64A 1_555 1_555
C66A C65A 1_555 1_555
H45A C66A 1_555 1_555
C67A C66A 1_555 1_555
H46A C67A 1_555 1_555
C68A C67A 1_555 1_555
H47A C68A 1_555 1_555
C69A C68A 1_555 1_555
H48A C69A 1_555 1_555
C70A C65A 1_555 1_555
H49A C70A 1_555 1_555
C71A Si4A 1_555 1_555
C72A C71A 1_555 1_555
C73A C72A 1_555 1_555
C74A C73A 1_555 1_555
H50A C74A 1_555 1_555
C75A C74A 1_555 1_555
H51A C75A 1_555 1_555
C76A C75A 1_555 1_555
H52A C76A 1_555 1_555
C77A C76A 1_555 1_555
H53A C77A 1_555 1_555
C78A C73A 1_555 1_555
H54A C78A 1_555 1_555
C79A N4A 1_555 1_555
C80A C79A 1_555 1_555
H55A C80A 1_555 1_555
C81A C80A 1_555 1_555
H56A C81A 1_555 1_555
C82A C81A 1_555 1_555
C83A C82A 1_555 1_555
H57A C83A 1_555 1_555
C84A C79A 1_555 1_555
H58A C84A 1_555 1_555
C85A C82A 1_555 1_555
H59A C85A 1_555 1_555
H60A C85A 1_555 1_555
H61A C85A 1_555 1_555
C86A N3A 1_555 1_555
C87A C86A 1_555 1_555
H62A C87A 1_555 1_555
C88A C87A 1_555 1_555
H63A C88A 1_555 1_555
C89A C88A 1_555 1_555
C90A C89A 1_555 1_555
H64A C90A 1_555 1_555
C91A C86A 1_555 1_555
H65A C91A 1_555 1_555
C92A C89A 1_555 1_555
H66A C92A 1_555 1_555
H67A C92A 1_555 1_555
H68A C92A 1_555 1_555
C7 C8 1_555 1_555
C15 C16 1_555 1_555
C23 C24 1_555 1_555
C31 C32 1_555 1_555
C37 C38 1_555 1_555
C44 C45 1_555 1_555
C53 C54 1_555 1_555
C61 C62 1_555 1_555
C69 C70 1_555 1_555
C77 C78 1_555 1_555
C83 C84 1_555 1_555
C90 C91 1_555 1_555
Si1A N1A 1_555 1_555
C7A C8A 1_555 1_555
C15A C16A 1_555 1_555
C23A C24A 1_555 1_555
C31A C32A 1_555 1_555
C37A C38A 1_555 1_555
C44A C45A 1_555 1_555
Si3A N3A 1_555 1_555
C53A C54A 1_555 1_555
C61A C62A 1_555 1_555
C69A C70A 1_555 1_555
C77A C78A 1_555 1_555
C83A C84A 1_555 1_555
C90A C91A 1_555 1_555

#END
