
#######################################################################
#
#                 Cambridge Crystallographic Data Centre
#                                CCDC 
#
#######################################################################
#
# If this CIF has been generated from an entry in the Cambridge 
# Structural Database, then it will include bibliographic, chemical, 
# crystal, experimental, refinement or atomic coordinate data resulting 
# from the CCDC's data processing and validation procedures.
#
#######################################################################

data_FOHYEI
_chemical_formula_moiety         'C28 H22 N6'
_chemical_name_systematic        
1,1'-(1,2-Diphenylethene-1,2-diyl)bis(4-(azidomethyl)benzene)
_symmetry_cell_setting           triclinic
_symmetry_space_group_name_H-M   'P -1'
_symmetry_Int_Tables_number      2
_space_group_name_Hall           '-P 1'
loop_
_symmetry_equiv_pos_site_id
_symmetry_equiv_pos_as_xyz
1 x,y,z
2 -x,-y,-z
_cell_length_a                   10.4162(8)
_cell_length_b                   11.3223(8)
_cell_length_c                   11.4154(8)
_cell_angle_alpha                117.2250(10)
_cell_angle_beta                 102.7110(10)
_cell_angle_gamma                91.6070(10)
_cell_volume                     1154.87
_exptl_crystal_colour            colorless
_exptl_crystal_description       block
_cell_formula_units_Z            2
loop_
_atom_site_label
_atom_site_type_symbol
_atom_site_fract_x
_atom_site_fract_y
_atom_site_fract_z
N1 N 0.6247(2) 0.5028(2) 0.1103(3)
N2 N 0.59615(19) 0.6050(2) 0.1697(2)
N3 N 0.5703(2) 0.7202(2) 0.2272(2)
N4 N -0.5136(5) 1.3657(5) 0.2927(6)
N5 N -0.4484(7) 1.3542(5) 0.3999(6)
N6 N -0.3713(6) 1.3753(4) 0.4981(5)
C1 C 0.4948(2) 0.7415(2) 0.3289(2)
H1 H 0.5558 0.7901 0.4218
H2 H 0.4574 0.6534 0.3152
C2 C 0.3836(2) 0.8209(2) 0.3172(2)
C3 C 0.3178(2) 0.8132(2) 0.1937(2)
H3 H 0.3467 0.7608 0.1143
C4 C 0.2103(2) 0.8812(2) 0.1849(2)
H4 H 0.1669 0.8749 0.0994
C5 C 0.16506(19) 0.9584(2) 0.2989(2)
C6 C 0.2346(2) 0.9696(2) 0.4236(2)
H5 H 0.2082 1.0251 0.5039
C7 C 0.3414(2) 0.9013(2) 0.4324(2)
H6 H 0.3864 0.9094 0.5183
C8 C 0.04666(19) 1.0288(2) 0.2914(2)
C9 C 0.0621(2) 1.1700(2) 0.4018(2)
C10 C -0.0340(3) 1.2143(2) 0.4738(2)
H7 H -0.1100 1.1529 0.4532
C11 C -0.0211(3) 1.3460(3) 0.5748(3)
H8 H -0.0883 1.3740 0.6220
C12 C 0.0865(4) 1.4348(3) 0.6066(3)
H9 H 0.0942 1.5254 0.6746
C13 C 0.1849(3) 1.3934(3) 0.5400(4)
H10 H 0.2615 1.4555 0.5640
C14 C 0.1734(3) 1.2608(3) 0.4373(3)
H11 H 0.2421 1.2333 0.3921
C15 C -0.06826(19) 0.9680(2) 0.1930(2)
C16 C -0.09469(18) 0.8218(2) 0.0907(2)
C17 C -0.0938(2) 0.7240(2) 0.1325(2)
H12 H -0.0710 0.7495 0.2270
C18 C -0.1261(2) 0.5891(2) 0.0362(3)
H13 H -0.1256 0.5227 0.0653
C19 C -0.1588(2) 0.5506(2) -0.1013(3)
H14 H -0.1811 0.4581 -0.1665
C20 C -0.1592(2) 0.6467(2) -0.1442(2)
H15 H -0.1803 0.6203 -0.2389
C21 C -0.12862(19) 0.7820(2) -0.0484(2)
H16 H -0.1309 0.8480 -0.0781
C22 C -0.18414(19) 1.03974(19) 0.18010(19)
C23 C -0.3074(2) 0.9901(2) 0.1810(2)
H17 H -0.3174 0.9103 0.1884
C24 C -0.4159(2) 1.0566(2) 0.1712(3)
H18 H -0.4989 1.0233 0.1747
C25 C -0.4047(2) 1.1710(2) 0.1564(3)
C26 C -0.2828(2) 1.2190(2) 0.1533(2)
H19 H -0.2738 1.2970 0.1426
C27 C -0.17362(19) 1.1546(2) 0.1657(2)
H20 H -0.0903 1.1895 0.1643
C28 C -0.5212(3) 1.2455(3) 0.1493(4)
H21 H -0.6052 1.1836 0.1169
H22 H -0.5210 1.2794 0.0833
N7? N -0.5020(7) 1.3833(6) 0.2551(6)
N8? N -0.5080(8) 1.3497(7) 0.3525(7)
N9? N -0.4722(7) 1.3584(6) 0.4583(6)
H23? H -0.5432 1.2441 0.0598
H24? H -0.5990 1.1963 0.1531
loop_
_geom_bond_atom_site_label_1
_geom_bond_atom_site_label_2
_geom_bond_site_symmetry_1
_geom_bond_site_symmetry_2
N1 N2 1_555 1_555
N2 N3 1_555 1_555
N3 C1 1_555 1_555
N4 N5 1_555 1_555
N5 N6 1_555 1_555
C1 H1 1_555 1_555
H2 C1 1_555 1_555
C2 C1 1_555 1_555
C3 C2 1_555 1_555
H3 C3 1_555 1_555
C4 C3 1_555 1_555
H4 C4 1_555 1_555
C5 C4 1_555 1_555
C6 C5 1_555 1_555
H5 C6 1_555 1_555
C7 C2 1_555 1_555
H6 C7 1_555 1_555
C8 C5 1_555 1_555
C9 C8 1_555 1_555
C10 C9 1_555 1_555
H7 C10 1_555 1_555
C11 C10 1_555 1_555
H8 C11 1_555 1_555
C12 C11 1_555 1_555
H9 C12 1_555 1_555
C13 C12 1_555 1_555
H10 C13 1_555 1_555
C14 C9 1_555 1_555
H11 C14 1_555 1_555
C15 C8 1_555 1_555
C16 C15 1_555 1_555
C17 C16 1_555 1_555
H12 C17 1_555 1_555
C18 C17 1_555 1_555
H13 C18 1_555 1_555
C19 C18 1_555 1_555
H14 C19 1_555 1_555
C20 C19 1_555 1_555
H15 C20 1_555 1_555
C21 C16 1_555 1_555
H16 C21 1_555 1_555
C22 C15 1_555 1_555
C23 C22 1_555 1_555
H17 C23 1_555 1_555
C24 C23 1_555 1_555
H18 C24 1_555 1_555
C25 C24 1_555 1_555
C26 C25 1_555 1_555
H19 C26 1_555 1_555
C27 C22 1_555 1_555
H20 C27 1_555 1_555
C28 N4 1_555 1_555
H21 C28 1_555 1_555
H22 C28 1_555 1_555
C6 C7 1_555 1_555
C13 C14 1_555 1_555
C20 C21 1_555 1_555
C25 C28 1_555 1_555
C26 C27 1_555 1_555

#END
