
#######################################################################
#
#                 Cambridge Crystallographic Data Centre
#                                CCDC 
#
#######################################################################
#
# If this CIF has been generated from an entry in the Cambridge 
# Structural Database, then it will include bibliographic, chemical, 
# crystal, experimental, refinement or atomic coordinate data resulting 
# from the CCDC's data processing and validation procedures.
#
#######################################################################

data_FOJFOA
_chemical_formula_moiety         'C22 H35 N3 O2 Si1'
_chemical_name_systematic        
3-(bis(dimethylamino)methylene)-2-(1-ethyl-1-(trimethylsilyloxy)propyl)-3H-quinolin-4-one
_symmetry_cell_setting           monoclinic
_symmetry_space_group_name_H-M   'P 21/c'
_symmetry_Int_Tables_number      14
_space_group_name_Hall           '-P 2ybc'
loop_
_symmetry_equiv_pos_site_id
_symmetry_equiv_pos_as_xyz
1 x,y,z
2 -x,1/2+y,1/2-z
3 -x,-y,-z
4 x,1/2-y,1/2+z
_cell_length_a                   18.030(5)
_cell_length_b                   7.791(2)
_cell_length_c                   18.636(3)
_cell_angle_alpha                90
_cell_angle_beta                 116.860(16)
_cell_angle_gamma                90
_cell_volume                     2335.4
_exptl_crystal_colour            colorless
_chemical_melting_point          228deg.C
_cell_formula_units_Z            4
_exptl_crystal_recrystallization_method acetonitrile
loop_
_atom_site_label
_atom_site_type_symbol
_atom_site_fract_x
_atom_site_fract_y
_atom_site_fract_z
Si1 Si 0.1576(1) 0.7571(2) 0.4778(1)
O1 O 0.1989(1) 0.8045(4) 0.4176(1)
N1 N 0.2218(2) 0.9887(4) 0.2570(2)
C1 C 0.2412(2) 0.8759(5) 0.3160(2)
O2 O 0.4607(2) 0.7921(4) 0.3811(2)
C2 C 0.3221(2) 0.8085(5) 0.3607(2)
N2 N 0.3412(2) 0.5204(4) 0.4176(2)
C3 C 0.3881(2) 0.8566(5) 0.3424(2)
N3 N 0.3907(2) 0.7561(4) 0.5032(2)
C4 C 0.3664(2) 0.9798(5) 0.2779(2)
C5 C 0.4255(3) 1.0414(6) 0.2544(2)
C6 C 0.4048(3) 1.1617(6) 0.1953(3)
C7 C 0.3240(3) 1.2253(6) 0.1572(3)
C8 C 0.2641(3) 1.1653(5) 0.1776(2)
C9 C 0.2846(2) 1.0415(5) 0.2387(2)
C10 C 0.3498(2) 0.6886(5) 0.4294(2)
C11 C 0.3434(3) 0.3959(6) 0.4775(3)
C12 C 0.3244(3) 0.4447(6) 0.3397(2)
C13 C 0.4579(2) 0.6661(6) 0.5711(2)
C14 C 0.3876(3) 0.9406(6) 0.5157(2)
C15 C 0.1670(2) 0.8246(5) 0.3315(2)
C16 C 0.1323(2) 0.6498(6) 0.2924(2)
C17 C 0.1137(3) 0.6324(7) 0.2043(3)
C18 C 0.0985(2) 0.9616(6) 0.3010(2)
C19 C 0.1237(3) 1.1392(7) 0.3367(3)
C20 C 0.2443(3) 0.7591(8) 0.5800(3)
C21 C 0.1232(11) 0.5120(30) 0.4625(7)
C23 C 0.1047(18) 0.9730(50) 0.4887(8)
H1 H 0.4796 0.9993 0.2797
H2 H 0.4447 1.2012 0.1805
H3 H 0.3103 1.3089 0.1176
H4 H 0.2100 1.2068 0.1509
H5 H 0.3359 0.2823 0.4554
H6 H 0.2996 0.4210 0.4918
H7 H 0.3961 0.4029 0.5246
H11 H 0.3203 0.3222 0.3425
H12 H 0.3689 0.4728 0.3269
H13 H 0.2731 0.4894 0.2988
H17 H 0.4782 0.7377 0.6181
H18 H 0.5024 0.6412 0.5578
H19 H 0.4368 0.5609 0.5816
H23 H 0.4202 0.9667 0.5717
H24 H 0.3311 0.9751 0.4989
H25 H 0.4097 1.0013 0.4848
H29 H 0.1720 0.5615 0.3230
H30 H 0.0815 0.6278 0.2966
H31 H 0.0926 0.5194 0.1855
H32 H 0.1637 0.6506 0.1992
H33 H 0.0729 0.7162 0.1728
H34 H 0.0770 0.9707 0.2431
H35 H 0.0534 0.9221 0.3116
H36 H 0.0766 1.2145 0.3138
H37 H 0.1670 1.1822 0.3252
H38 H 0.1435 1.1334 0.3939
H42 H 0.2853 0.6764 0.5835
H43 H 0.2240 0.7306 0.6180
H44 H 0.2690 0.8713 0.5917
H45 H 0.0774 0.4967 0.4101
H46 H 0.1067 0.4788 0.5028
H47 H 0.1690 0.4419 0.4672
H51 H 0.0556 0.9952 0.4395
H52 H 0.1430 1.0664 0.5000
H53 H 0.0899 0.9611 0.5319
C22? C 0.0790(40) 0.6210(80) 0.4480(30)
C24? C 0.0620(20) 0.8610(60) 0.4640(20)
H8? H 0.3518 0.4552 0.5257
H9? H 0.3881 0.3165 0.4894
H10? H 0.2917 0.3345 0.4566
H14? H 0.3212 0.5341 0.3030
H15? H 0.2726 0.3835 0.3186
H16? H 0.3684 0.3669 0.3466
H20? H 0.4667 0.5555 0.5536
H21? H 0.4426 0.6520 0.6139
H22? H 0.5081 0.7323 0.5900
H26? H 0.3538 0.9954 0.4652
H27? H 0.4429 0.9870 0.5381
H28? H 0.3642 0.9607 0.5521
H39? H 0.1815 1.1389 0.3748
H40? H 0.0910 1.1712 0.3634
H41? H 0.1146 1.2200 0.2946
H48? H 0.0414 0.6427 0.3927
H49? H 0.0510 0.6349 0.4805
H50? H 0.1001 0.5057 0.4534
H54? H 0.0218 0.8523 0.4086
H55? H 0.0731 0.9794 0.4789
H56? H 0.0413 0.8054 0.4972
loop_
_geom_bond_atom_site_label_1
_geom_bond_atom_site_label_2
_geom_bond_site_symmetry_1
_geom_bond_site_symmetry_2
Si1 O1 1_555 1_555
O1 C15 1_555 1_555
N1 C1 1_555 1_555
C1 C2 1_555 1_555
O2 C3 1_555 1_555
C2 C3 1_555 1_555
N2 C10 1_555 1_555
C3 C4 1_555 1_555
N3 C10 1_555 1_555
C4 C5 1_555 1_555
C5 C6 1_555 1_555
C6 C7 1_555 1_555
C7 C8 1_555 1_555
C8 C9 1_555 1_555
C9 N1 1_555 1_555
C10 C2 1_555 1_555
C11 N2 1_555 1_555
C12 N2 1_555 1_555
C13 N3 1_555 1_555
C14 N3 1_555 1_555
C15 C1 1_555 1_555
C16 C15 1_555 1_555
C17 C16 1_555 1_555
C18 C15 1_555 1_555
C19 C18 1_555 1_555
C20 Si1 1_555 1_555
C21 Si1 1_555 1_555
C23 Si1 1_555 1_555
H1 C5 1_555 1_555
H2 C6 1_555 1_555
H3 C7 1_555 1_555
H4 C8 1_555 1_555
H5 C11 1_555 1_555
H6 C11 1_555 1_555
H7 C11 1_555 1_555
H11 C12 1_555 1_555
H12 C12 1_555 1_555
H13 C12 1_555 1_555
H17 C13 1_555 1_555
H18 C13 1_555 1_555
H19 C13 1_555 1_555
H23 C14 1_555 1_555
H24 C14 1_555 1_555
H25 C14 1_555 1_555
H29 C16 1_555 1_555
H30 C16 1_555 1_555
H31 C17 1_555 1_555
H32 C17 1_555 1_555
H33 C17 1_555 1_555
H34 C18 1_555 1_555
H35 C18 1_555 1_555
H36 C19 1_555 1_555
H37 C19 1_555 1_555
H38 C19 1_555 1_555
H42 C20 1_555 1_555
H43 C20 1_555 1_555
H44 C20 1_555 1_555
H45 C21 1_555 1_555
H46 C21 1_555 1_555
H47 C21 1_555 1_555
H51 C23 1_555 1_555
H52 C23 1_555 1_555
H53 C23 1_555 1_555
C4 C9 1_555 1_555

#END
