
#######################################################################
#
#                 Cambridge Crystallographic Data Centre
#                                CCDC 
#
#######################################################################
#
# If this CIF has been generated from an entry in the Cambridge 
# Structural Database, then it will include bibliographic, chemical, 
# crystal, experimental, refinement or atomic coordinate data resulting 
# from the CCDC's data processing and validation procedures.
#
#######################################################################

data_FOJJET
_chemical_formula_moiety         'C17 H19 O6 P1'
_chemical_name_systematic        Dibenzomethylphosphonyl-14-crown-5
_symmetry_cell_setting           monoclinic
_symmetry_space_group_name_H-M   'P 1 1 21/a'
_symmetry_Int_Tables_number      14
_space_group_name_Hall           '-P 2ac'
loop_
_symmetry_equiv_pos_site_id
_symmetry_equiv_pos_as_xyz
1 x,y,z
2 1/2-x,-y,1/2+z
3 -x,-y,-z
4 1/2+x,y,1/2-z
_cell_length_a                   19.738(4)
_cell_length_b                   11.647(3)
_cell_length_c                   8.525(2)
_cell_angle_alpha                90
_cell_angle_beta                 90
_cell_angle_gamma                121.55(5)
_cell_volume                     1670.11
_exptl_crystal_colour            colorless
_cell_formula_units_Z            4
loop_
_atom_site_label
_atom_site_type_symbol
_atom_site_fract_x
_atom_site_fract_y
_atom_site_fract_z
P1 P 0.5119(1) 0.1964(1) 0.7281(1)
O1 O 0.5984(1) 0.3277(2) 0.7593(3)
O2 O 0.6565(1) 0.4886(2) 0.5102(3)
O3 O 0.6174(1) 0.3448(2) 0.2373(3)
O4 O 0.6246(1) 0.1675(2) 0.4569(3)
O5 O 0.5331(1) 0.0845(2) 0.7152(3)
O6 O 0.4527(1) 0.1657(3) 0.8518(3)
C1 C 0.6047(2) 0.4528(3) 0.7644(4)
C2 C 0.5853(2) 0.4936(3) 0.9000(5)
C3 C 0.5911(2) 0.6165(4) 0.9000(5)
C4 C 0.6154(2) 0.6973(3) 0.7694(5)
C5 C 0.6383(2) 0.6577(3) 0.6359(5)
C6 C 0.6334(2) 0.5360(3) 0.6328(4)
C7 C 0.6084(2) 0.0958(3) 0.7187(4)
C8 C 0.6547(2) 0.1366(3) 0.5838(4)
C9 C 0.7265(2) 0.1406(3) 0.5858(5)
C10 C 0.7492(2) 0.1016(4) 0.7209(5)
C11 C 0.7008(2) 0.0587(3) 0.8505(5)
C12 C 0.6290(2) 0.0555(3) 0.8497(4)
C13 C 0.6706(2) 0.5546(3) 0.3619(4)
C14 C 0.6878(2) 0.4747(3) 0.2495(5)
C15 C 0.6292(2) 0.2406(4) 0.1938(5)
C16 C 0.6725(2) 0.2074(4) 0.3156(5)
C17 C 0.4804(2) 0.2142(4) 0.5394(5)
H1 H 0.565(2) 0.432(4) 0.992(5)
H2 H 0.587(2) 0.643(4) 0.980(5)
H3 H 0.615(2) 0.789(4) 0.776(5)
H4 H 0.663(2) 0.715(4) 0.534(5)
H5 H 0.760(2) 0.168(4) 0.493(5)
H6 H 0.809(2) 0.101(4) 0.715(5)
H7 H 0.709(2) 0.025(4) 0.944(5)
H8 H 0.591(2) 0.012(4) 0.943(5)
H9 H 0.712(2) 0.649(4) 0.370(5)
H10 H 0.617(2) 0.561(4) 0.332(5)
H11 H 0.707(2) 0.522(4) 0.127(5)
H12 H 0.735(2) 0.458(4) 0.320(5)
H13 H 0.661(2) 0.272(4) 0.102(5)
H14 H 0.568(2) 0.152(4) 0.176(5)
H15 H 0.665(2) 0.108(4) 0.271(5)
H16 H 0.734(2) 0.299(4) 0.342(5)
H17 H 0.463(2) 0.280(4) 0.547(5)
H18 H 0.521(2) 0.244(4) 0.460(5)
H19 H 0.442(2) 0.140(4) 0.509(5)
loop_
_geom_bond_atom_site_label_1
_geom_bond_atom_site_label_2
_geom_bond_site_symmetry_1
_geom_bond_site_symmetry_2
P1 O1 1_555 1_555
O1 C1 1_555 1_555
O2 C6 1_555 1_555
O3 C14 1_555 1_555
O4 C8 1_555 1_555
O5 P1 1_555 1_555
O6 P1 1_555 1_555
C1 C2 1_555 1_555
C2 C3 1_555 1_555
C3 C4 1_555 1_555
C4 C5 1_555 1_555
C5 C6 1_555 1_555
C6 C1 1_555 1_555
C7 O5 1_555 1_555
C8 C7 1_555 1_555
C9 C8 1_555 1_555
C10 C9 1_555 1_555
C11 C10 1_555 1_555
C12 C7 1_555 1_555
C13 O2 1_555 1_555
C14 C13 1_555 1_555
C15 O3 1_555 1_555
C16 O4 1_555 1_555
C17 P1 1_555 1_555
H1 C2 1_555 1_555
H2 C3 1_555 1_555
H3 C4 1_555 1_555
H4 C5 1_555 1_555
H5 C9 1_555 1_555
H6 C10 1_555 1_555
H7 C11 1_555 1_555
H8 C12 1_555 1_555
H9 C13 1_555 1_555
H10 C13 1_555 1_555
H11 C14 1_555 1_555
H12 C14 1_555 1_555
H13 C15 1_555 1_555
H14 C15 1_555 1_555
H15 C16 1_555 1_555
H16 C16 1_555 1_555
H17 C17 1_555 1_555
H18 C17 1_555 1_555
H19 C17 1_555 1_555
C11 C12 1_555 1_555
C15 C16 1_555 1_555

#END
