
#######################################################################
#
#                 Cambridge Crystallographic Data Centre
#                                CCDC 
#
#######################################################################
#
# If this CIF has been generated from an entry in the Cambridge 
# Structural Database, then it will include bibliographic, chemical, 
# crystal, experimental, refinement or atomic coordinate data resulting 
# from the CCDC's data processing and validation procedures.
#
#######################################################################

data_FOJJAQ
_chemical_formula_moiety         'C12 H17 N1'
_chemical_name_systematic        6-Methyl-6-(N-piperidino)fulvene
_symmetry_cell_setting           monoclinic
_symmetry_space_group_name_H-M   'P 21/c'
_symmetry_Int_Tables_number      14
_space_group_name_Hall           '-P 2ybc'
loop_
_symmetry_equiv_pos_site_id
_symmetry_equiv_pos_as_xyz
1 x,y,z
2 -x,1/2+y,1/2-z
3 -x,-y,-z
4 x,1/2-y,1/2+z
_cell_length_a                   7.854(1)
_cell_length_b                   10.032(2)
_cell_length_c                   13.245(3)
_cell_angle_alpha                90
_cell_angle_beta                 99.76(2)
_cell_angle_gamma                90
_cell_volume                     1028.49
_exptl_crystal_colour            yellow
_exptl_crystal_description       Column
_chemical_melting_point          83deg.C
_cell_formula_units_Z            4
loop_
_atom_site_label
_atom_site_type_symbol
_atom_site_fract_x
_atom_site_fract_y
_atom_site_fract_z
C1 C 0.69575(18) -0.01339(15) 0.72654(11)
H1 H 0.7141 0.0710 0.7573
C2 C 0.6364(2) -0.12321(16) 0.76970(12)
H2 H 0.6044 -0.1266 0.8349
C3 C 0.6303(2) -0.23137(16) 0.70095(13)
H3 H 0.5965 -0.3189 0.7134
C4 C 0.68159(19) -0.18751(15) 0.61376(12)
H4 H 0.6872 -0.2395 0.5554
C5 C 0.72585(17) -0.04842(14) 0.62541(10)
C6 C 0.76684(16) 0.03413(13) 0.54817(10)
C7 C 0.7279(2) -0.01233(16) 0.43858(11)
H5 H 0.6272 0.0345 0.4031
H6 H 0.7052 -0.1074 0.4369
H7 H 0.8262 0.0060 0.4052
N1 N 0.83803(15) 0.15541(11) 0.56386(8)
C8 C 0.93494(18) 0.20249(14) 0.66181(10)
H8 H 1.0547 0.2204 0.6539
H9 H 0.9365 0.1323 0.7134
C9 C 0.8581(2) 0.32668(15) 0.69864(11)
H10 H 0.9310 0.3582 0.7616
H11 H 0.7433 0.3068 0.7144
C10 C 0.8437(3) 0.43471(16) 0.61757(13)
H12 H 0.7798 0.5107 0.6388
H13 H 0.9595 0.4655 0.6106
C11 C 0.7516(2) 0.38305(16) 0.51529(12)
H14 H 0.6303 0.3658 0.5197
H15 H 0.7548 0.4515 0.4628
C12 C 0.8330(2) 0.25666(15) 0.48375(11)
H16 H 0.7660 0.2233 0.4196
H17 H 0.9506 0.2754 0.4722
loop_
_geom_bond_atom_site_label_1
_geom_bond_atom_site_label_2
_geom_bond_site_symmetry_1
_geom_bond_site_symmetry_2
C1 H1 1_555 1_555
C2 C1 1_555 1_555
H2 C2 1_555 1_555
C3 C2 1_555 1_555
H3 C3 1_555 1_555
C4 C3 1_555 1_555
H4 C4 1_555 1_555
C5 C1 1_555 1_555
C6 C5 1_555 1_555
C7 C6 1_555 1_555
H5 C7 1_555 1_555
H6 C7 1_555 1_555
H7 C7 1_555 1_555
N1 C6 1_555 1_555
C8 N1 1_555 1_555
H8 C8 1_555 1_555
H9 C8 1_555 1_555
C9 C8 1_555 1_555
H10 C9 1_555 1_555
H11 C9 1_555 1_555
C10 C9 1_555 1_555
H12 C10 1_555 1_555
H13 C10 1_555 1_555
C11 C10 1_555 1_555
H14 C11 1_555 1_555
H15 C11 1_555 1_555
C12 N1 1_555 1_555
H16 C12 1_555 1_555
H17 C12 1_555 1_555
C4 C5 1_555 1_555
C11 C12 1_555 1_555

#END
