
#######################################################################
#
#                 Cambridge Crystallographic Data Centre
#                                CCDC 
#
#######################################################################
#
# If this CIF has been generated from an entry in the Cambridge 
# Structural Database, then it will include bibliographic, chemical, 
# crystal, experimental, refinement or atomic coordinate data resulting 
# from the CCDC's data processing and validation procedures.
#
#######################################################################

data_FOJPOK
_chemical_name_common            
'meso-2,2,5,5,7,7,10,10-Octamethyl-1(2,5)-furana-6(2,5)-thiophena-3,4,8,9(2,5)-tetrapyrrolacyclodecaphane bis(dichloromethane) clathrate'
_chemical_formula_moiety         'C36 H40 N4 O1 S1,2(C1 H2 Cl2)'
_chemical_name_systematic        
'meso-Octamethylcalix(2)bipyrrole(1)furan(1)thiophene bis(dichloromethane) clathrate'
_symmetry_cell_setting           monoclinic
_symmetry_space_group_name_H-M   'P 21/n'
_symmetry_Int_Tables_number      14
_space_group_name_Hall           '-P 2yn'
loop_
_symmetry_equiv_pos_site_id
_symmetry_equiv_pos_as_xyz
1 x,y,z
2 1/2-x,1/2+y,1/2-z
3 -x,-y,-z
4 1/2+x,1/2-y,1/2+z
_cell_length_a                   10.4748(2)
_cell_length_b                   13.6047(2)
_cell_length_c                   13.2513(2)
_cell_angle_alpha                90
_cell_angle_beta                 92.435(1)
_cell_angle_gamma                90
_cell_volume                     1886.69
_exptl_crystal_colour            colorless
_exptl_crystal_description       prisms
_cell_formula_units_Z            2
loop_
_atom_site_label
_atom_site_type_symbol
_atom_site_fract_x
_atom_site_fract_y
_atom_site_fract_z
O1 O 0.5852(6) 0.2144(5) 0.4215(3)
N1 N 0.80945(16) 0.42312(13) 0.49078(15)
N2 N 0.72432(18) 0.68245(13) 0.50058(15)
C2 C 0.4852(2) 0.17143(16) 0.47223(18)
C3 C 0.5452(2) 0.15373(17) 0.56213(19)
H1 H 0.5040 0.1275 0.6196
C4 C 0.6774(2) 0.17999(16) 0.55966(18)
H2 H 0.7389 0.1733 0.6150
C5 C 0.7039(2) 0.21540(16) 0.46849(18)
C6 C 0.8273(2) 0.25075(16) 0.42529(17)
C7 C 0.8237(2) 0.36124(16) 0.41074(16)
C8 C 0.8351(2) 0.41920(17) 0.32747(18)
H3 H 0.8461 0.3958 0.2601
C9 C 0.8277(2) 0.51884(17) 0.35820(17)
H4 H 0.8344 0.5757 0.3159
C10 C 0.81023(19) 0.51966(15) 0.45974(17)
C11 C 0.79124(19) 0.59928(15) 0.53042(17)
C12 C 0.8287(2) 0.61237(16) 0.62949(17)
H5 H 0.8775 0.5666 0.6705
C13 C 0.7828(2) 0.70508(17) 0.66043(17)
H6 H 0.7939 0.7336 0.7265
C14 C 0.7186(2) 0.74704(16) 0.58013(17)
C15 C 0.3497(2) 0.15488(16) 0.43378(17)
C16 C 0.8466(3) 0.20157(19) 0.3221(2)
H7 H 0.7772 0.2200 0.2764
H8 H 0.9260 0.2220 0.2951
H9 H 0.8470 0.1315 0.3307
C17 C 0.9382(2) 0.22297(17) 0.4976(2)
H10 H 0.9270 0.2545 0.5614
H11 H 0.9387 0.1530 0.5067
H12 H 1.0177 0.2435 0.4710
C18 C 0.3483(3) 0.1014(2) 0.3317(2)
H13 H 0.3932 0.1409 0.2848
H14 H 0.2614 0.0930 0.3074
H15 H 0.3888 0.0383 0.3383
C19 C 0.2796(2) 0.09199(17) 0.5095(2)
H16 H 0.2816 0.1245 0.5738
H17 H 0.3200 0.0289 0.5164
H18 H 0.1925 0.0836 0.4855
H21 H 0.788(2) 0.4082(18) 0.5512(19)
H22 H 0.685(2) 0.6872(18) 0.4443(18)
O1B O 0.4148(6) 0.7856(5) 0.5785(3)
N1B N 0.19055(16) 0.57688(13) 0.50922(15)
N2B N 0.27568(18) 0.31755(13) 0.49942(15)
C2B C 0.5148(2) 0.82857(16) 0.52777(18)
C3B C 0.4548(2) 0.84627(17) 0.43787(19)
H1B H 0.4960 0.8725 0.3804
C4B C 0.3226(2) 0.82001(16) 0.44034(18)
H2B H 0.2611 0.8267 0.3850
C5B C 0.2961(2) 0.78460(16) 0.53151(18)
C6B C 0.1727(2) 0.74925(16) 0.57471(17)
C7B C 0.1763(2) 0.63876(16) 0.58926(16)
C8B C 0.1649(2) 0.58080(17) 0.67253(18)
H3B H 0.1539 0.6042 0.7399
C9B C 0.1723(2) 0.48116(17) 0.64180(17)
H4B H 0.1656 0.4243 0.6841
C10B C 0.18977(19) 0.48034(15) 0.54026(17)
C11B C 0.20876(19) 0.40072(15) 0.46958(17)
C12B C 0.1713(2) 0.38763(16) 0.37051(17)
H5B H 0.1225 0.4334 0.3295
C13B C 0.2172(2) 0.29492(17) 0.33957(17)
H6B H 0.2061 0.2664 0.2735
C14B C 0.2814(2) 0.25296(16) 0.41987(17)
C15B C 0.6503(2) 0.84512(16) 0.56622(17)
C16B C 0.1534(3) 0.79843(19) 0.6779(2)
H7B H 0.2228 0.7800 0.7236
H8B H 0.0740 0.7780 0.7049
H9B H 0.1530 0.8685 0.6693
C17B C 0.0618(2) 0.77703(17) 0.5024(2)
H10B H 0.0730 0.7455 0.4386
H11B H 0.0613 0.8470 0.4933
H12B H -0.0177 0.7565 0.5290
C18B C 0.6517(3) 0.8986(2) 0.6683(2)
H13B H 0.6068 0.8591 0.7152
H14B H 0.7386 0.9070 0.6926
H15B H 0.6112 0.9617 0.6617
C19B C 0.7204(2) 0.90801(17) 0.4905(2)
H16B H 0.7184 0.8755 0.4262
H17B H 0.6800 0.9711 0.4836
H18B H 0.8075 0.9164 0.5145
H21B H 0.212(2) 0.5918(18) 0.4488(19)
H22B H 0.315(2) 0.3128(18) 0.5557(18)
Cl1 Cl 0.54177(5) 0.41510(4) 0.63096(5)
Cl2 Cl 0.50720(7) 0.56094(5) 0.78931(5)
C1 C 0.5039(3) 0.53897(18) 0.65872(19)
H19 H 0.419(2) 0.5500(17) 0.6315(18)
H20 H 0.568(2) 0.5809(18) 0.6273(18)
S1? S 0.5780(2) 0.2160(2) 0.37646(12)
loop_
_geom_bond_atom_site_label_1
_geom_bond_atom_site_label_2
_geom_bond_site_symmetry_1
_geom_bond_site_symmetry_2
Cl1 C1 1_555 1_555
Cl2 C1 1_555 1_555
C1 H19 1_555 1_555
O1 C2 1_555 1_555
N1 C7 1_555 1_555
N2 C11 1_555 1_555
C2 C3 1_555 1_555
C3 H1 1_555 1_555
C4 C3 1_555 1_555
H2 C4 1_555 1_555
C5 O1 1_555 1_555
C6 C5 1_555 1_555
C7 C6 1_555 1_555
C8 C7 1_555 1_555
H3 C8 1_555 1_555
C9 C8 1_555 1_555
H4 C9 1_555 1_555
C10 N1 1_555 1_555
C11 C10 1_555 1_555
C12 C11 1_555 1_555
H5 C12 1_555 1_555
C13 C12 1_555 1_555
H6 C13 1_555 1_555
C14 N2 1_555 1_555
C15 C2 1_555 1_555
C16 C6 1_555 1_555
H7 C16 1_555 1_555
H8 C16 1_555 1_555
H9 C16 1_555 1_555
C17 C6 1_555 1_555
H10 C17 1_555 1_555
H11 C17 1_555 1_555
H12 C17 1_555 1_555
C18 C15 1_555 1_555
H13 C18 1_555 1_555
H14 C18 1_555 1_555
H15 C18 1_555 1_555
C19 C15 1_555 1_555
H16 C19 1_555 1_555
H17 C19 1_555 1_555
H18 C19 1_555 1_555
H20 C1 1_555 1_555
H21 N1 1_555 1_555
H22 N2 1_555 1_555
O1B C2B 1_555 1_555
N1B C7B 1_555 1_555
N2B C11B 1_555 1_555
C2B C3B 1_555 1_555
C3B H1B 1_555 1_555
C4B C3B 1_555 1_555
H2B C4B 1_555 1_555
C5B O1B 1_555 1_555
C6B C5B 1_555 1_555
C7B C6B 1_555 1_555
C8B C7B 1_555 1_555
H3B C8B 1_555 1_555
C9B C8B 1_555 1_555
H4B C9B 1_555 1_555
C10B N1B 1_555 1_555
C11B C10B 1_555 1_555
C12B C11B 1_555 1_555
H5B C12B 1_555 1_555
C13B C12B 1_555 1_555
H6B C13B 1_555 1_555
C14B C15 1_555 1_555
C15B C14 1_555 1_555
C16B C6B 1_555 1_555
H7B C16B 1_555 1_555
H8B C16B 1_555 1_555
H9B C16B 1_555 1_555
C17B C6B 1_555 1_555
H10B C17B 1_555 1_555
H11B C17B 1_555 1_555
H12B C17B 1_555 1_555
C18B C15B 1_555 1_555
H13B C18B 1_555 1_555
H14B C18B 1_555 1_555
H15B C18B 1_555 1_555
C19B C15B 1_555 1_555
H16B C19B 1_555 1_555
H17B C19B 1_555 1_555
H18B C19B 1_555 1_555
H21B N1B 1_555 1_555
H22B N2B 1_555 1_555
C4 C5 1_555 1_555
C9 C10 1_555 1_555
C13 C14 1_555 1_555
N2B C14B 1_555 1_555
C2B C15B 1_555 1_555
C4B C5B 1_555 1_555
C9B C10B 1_555 1_555
C13B C14B 1_555 1_555

#END
