
#######################################################################
#
#                 Cambridge Crystallographic Data Centre
#                                CCDC 
#
#######################################################################
#
# If this CIF has been generated from an entry in the Cambridge 
# Structural Database, then it will include bibliographic, chemical, 
# crystal, experimental, refinement or atomic coordinate data resulting 
# from the CCDC's data processing and validation procedures.
#
#######################################################################

data_FOJQEB
_chemical_name_common            
'Tetra-n-butylammonium 2,2,5,5,7,7,10,10-octamethyl-1,6(2,5)-dithiophena-3,4,8,9(2,5)-tetrapyrrolacyclodecaphane chloride monohydrate clathrate dichloromethane solvate'
_chemical_formula_moiety         
'C36 H40 N4 S2,C16 H36 N1 1+,Cl1 1-,H2 O1,2(C1 H2 Cl2)'
_chemical_name_systematic        
'Tetra-n-butylammonium octamethylcalix(2)bipyrrole(2)thiophene chloride monohydrate clathrate dichloromethane solvate'
_symmetry_cell_setting           monoclinic
_symmetry_space_group_name_H-M   'P 21/n'
_symmetry_Int_Tables_number      14
_space_group_name_Hall           '-P 2yn'
loop_
_symmetry_equiv_pos_site_id
_symmetry_equiv_pos_as_xyz
1 x,y,z
2 1/2-x,1/2+y,1/2-z
3 -x,-y,-z
4 1/2+x,1/2-y,1/2+z
_cell_length_a                   15.1902(5)
_cell_length_b                   18.6941(6)
_cell_length_c                   20.9059(8)
_cell_angle_alpha                90
_cell_angle_beta                 98.979(2)
_cell_angle_gamma                90
_cell_volume                     5863.84
_exptl_crystal_colour            colorless
_exptl_crystal_description       plates
_cell_formula_units_Z            4
_exptl_crystal_recrystallization_method pentane/dichloromethane
loop_
_atom_site_label
_atom_site_type_symbol
_atom_site_fract_x
_atom_site_fract_y
_atom_site_fract_z
Cl1 Cl 0.51262(8) 0.37818(6) -0.02424(6)
O1 O 0.4180(3) 0.4791(3) 0.07617(18)
H86 H 0.419(3) 0.524(3) 0.073(3)
H87 H 0.451(5) 0.462(4) 0.061(4)
N5 N 0.2705(3) 0.1224(2) 0.19723(19)
C41 C 0.1931(4) 0.0922(3) 0.1518(3)
H43 H 0.1670 0.0542 0.1735
H44 H 0.2145 0.0721 0.1149
C42 C 0.1203(4) 0.1435(3) 0.1268(3)
H47 H 0.1469 0.1873 0.1152
H48 H 0.0851 0.1535 0.1601
C43 C 0.0639(9) 0.1109(8) 0.0654(7)
H49 H 0.0526 0.0616 0.0739
H50 H 0.0946 0.1133 0.0287
C44 C -0.0167(7) 0.1480(6) 0.0496(6)
H51 H -0.0530 0.1272 0.0126
H52 H -0.0474 0.1452 0.0864
H53 H -0.0050 0.1972 0.0408
C47 C 0.3325(4) 0.0615(3) 0.2211(3)
H59 H 0.3768 0.0793 0.2552
H60 H 0.2987 0.0257 0.2396
C48 C 0.3788(4) 0.0259(3) 0.1713(3)
H61 H 0.3355 0.0044 0.1385
H62 H 0.4108 0.0613 0.1509
C49 C 0.4422(5) -0.0302(3) 0.2013(3)
H63 H 0.4087 -0.0651 0.2211
H64 H 0.4828 -0.0081 0.2354
C50 C 0.4961(5) -0.0691(4) 0.1579(4)
H65 H 0.5352 -0.1026 0.1829
H66 H 0.5308 -0.0352 0.1379
H67 H 0.4568 -0.0943 0.1250
C51 C 0.3188(3) 0.1784(2) 0.1626(2)
H68 H 0.3309 0.1575 0.1229
H69 H 0.2786 0.2175 0.1511
C52 C 0.4031(3) 0.2074(3) 0.1969(2)
H70 H 0.4466 0.1698 0.2047
H71 H 0.3934 0.2258 0.2381
C53 C 0.4381(3) 0.2659(2) 0.1589(2)
H72 H 0.3954 0.3041 0.1527
H73 H 0.4446 0.2477 0.1169
C54 C 0.5271(3) 0.2960(3) 0.1907(3)
H74 H 0.5460 0.3328 0.1638
H75 H 0.5706 0.2584 0.1964
H76 H 0.5208 0.3158 0.2321
C55 C 0.2385(3) 0.1589(3) 0.2547(3)
H77 H 0.2054 0.2008 0.2390
H78 H 0.2897 0.1745 0.2841
C56 C 0.1809(4) 0.1147(3) 0.2926(3)
H79 H 0.2118 0.0717 0.3078
H80 H 0.1267 0.1017 0.2651
C57 C 0.1592(4) 0.1575(4) 0.3498(3)
H81 H 0.2141 0.1729 0.3751
H82 H 0.1294 0.1272 0.3766
C58 C 0.1013(4) 0.2232(3) 0.3308(3)
H83 H 0.0911 0.2481 0.3691
H84 H 0.0453 0.2082 0.3068
H85 H 0.1310 0.2543 0.3046
S1 S 0.22049(12) 0.27943(9) 0.01711(8)
C1 C 0.2710(3) 0.2806(4) -0.0496(2)
C2 C 0.2739(4) 0.3499(3) -0.0712(3)
H1 H 0.3011 0.3630 -0.1080
C3 C 0.2334(4) 0.3985(3) -0.0338(3)
H2 H 0.2277 0.4488 -0.0431
C4 C 0.2000(6) 0.3669(3) 0.0179(3)
S3 S 0.72315(8) 0.40407(6) 0.21167(6)
N1 N 0.2875(2) 0.42239(18) 0.15317(18)
H5 H 0.3190 0.4470 0.1274
N2 N 0.4670(2) 0.46417(17) 0.22181(18)
H6 H 0.4612 0.4748 0.1794
N3 N 0.6370(2) 0.25774(19) 0.06302(17)
H7 H 0.6150 0.2933 0.0362
N4 N 0.4545(2) 0.2153(2) -0.00692(17)
H8 H 0.4650 0.2617 -0.0142
C9 C 0.2027(3) 0.3947(2) 0.1340(2)
C10 C 0.1800(3) 0.3618(2) 0.1881(3)
H9 H 0.1249 0.3374 0.1903
C11 C 0.2502(3) 0.3697(2) 0.2388(2)
H10 H 0.2519 0.3516 0.2820
C12 C 0.3165(3) 0.4071(2) 0.2172(2)
C13 C 0.4032(3) 0.4303(2) 0.2514(2)
C14 C 0.4360(3) 0.4246(3) 0.3165(2)
H11 H 0.4062 0.4038 0.3492
C15 C 0.5236(3) 0.4562(3) 0.3257(3)
H12 H 0.5631 0.4599 0.3661
C16 C 0.5406(3) 0.4795(2) 0.2665(2)
C17 C 0.6195(3) 0.5185(2) 0.2485(2)
C18 C 0.6550(3) 0.4791(2) 0.1957(2)
C19 C 0.6410(3) 0.4902(2) 0.1304(2)
H13 H 0.6059 0.5293 0.1107
C20 C 0.6815(3) 0.4407(2) 0.0940(2)
H14 H 0.6759 0.4423 0.0476
C21 C 0.7296(3) 0.3900(2) 0.1310(2)
C22 C 0.7778(3) 0.3255(3) 0.1092(2)
C23 C 0.7165(3) 0.2606(3) 0.1038(2)
C24 C 0.7259(3) 0.1968(3) 0.1376(2)
H15 H 0.7744 0.1835 0.1705
C25 C 0.6516(4) 0.1554(3) 0.1138(2)
H16 H 0.6412 0.1075 0.1275
C26 C 0.5952(3) 0.1935(2) 0.0685(2)
C27 C 0.5125(3) 0.1707(2) 0.0315(2)
C28 C 0.4742(3) 0.1051(3) 0.0286(2)
H17 H 0.4995 0.0626 0.0498
C29 C 0.3891(3) 0.1099(3) -0.0109(2)
H18 H 0.3471 0.0717 -0.0209
C30 C 0.3781(3) 0.1791(3) -0.0325(2)
C31 C 0.3044(3) 0.2132(3) -0.0792(2)
C32 C 0.1535(3) 0.4054(2) 0.0670(2)
C33 C 0.5906(3) 0.5935(2) 0.2255(2)
H19 H 0.5458 0.5903 0.1878
H20 H 0.6411 0.6194 0.2150
H21 H 0.5668 0.6182 0.2593
C34 C 0.6916(3) 0.5252(2) 0.3095(2)
H22 H 0.7104 0.4783 0.3245
H23 H 0.6677 0.5502 0.3430
H24 H 0.7417 0.5511 0.2984
C35 C 0.8632(3) 0.3104(3) 0.1571(2)
H25 H 0.8481 0.3006 0.1992
H26 H 0.9016 0.3514 0.1596
H27 H 0.8933 0.2698 0.1425
C36 C 0.8042(3) 0.3401(3) 0.0419(2)
H28 H 0.7514 0.3490 0.0111
H29 H 0.8347 0.2991 0.0285
H30 H 0.8426 0.3811 0.0442
C37 C 0.3432(4) 0.2379(3) -0.1418(3)
H31 H 0.3796 0.2002 -0.1548
H32 H 0.3786 0.2802 -0.1323
H33 H 0.2951 0.2477 -0.1763
C38 C 0.2318(4) 0.1596(3) -0.1006(3)
H34 H 0.2068 0.1431 -0.0638
H35 H 0.2568 0.1199 -0.1206
H36 H 0.1859 0.1814 -0.1312
C39 C 0.1500(4) 0.4849(3) 0.0503(3)
H37 H 0.2097 0.5031 0.0541
H38 H 0.1183 0.5101 0.0796
H39 H 0.1201 0.4915 0.0067
C40 C 0.0572(3) 0.3787(3) 0.0640(3)
H40 H 0.0578 0.3285 0.0739
H41 H 0.0252 0.3865 0.0213
H42 H 0.0286 0.4043 0.0949
S2? S 0.2786(4) 0.3217(4) 0.0112(3)
C5? C 0.1848(10) 0.3655(7) 0.0116(7)
C6? C 0.1123(18) 0.3040(12) -0.0202(11)
H3? H 0.0518 0.3015 -0.0122
C7? C 0.1521(11) 0.2557(12) -0.0589(11)
H4? H 0.1203 0.2251 -0.0915
C8? C 0.2441(10) 0.2594(6) -0.0438(5)
H45? H 0.1430 0.1783 0.0997
H46? H 0.1029 0.1679 0.1633
C45? C 0.0388(8) 0.1088(8) 0.0888(7)
H54? H -0.0124 0.1396 0.0840
H55? H 0.0255 0.0670 0.1122
C46? C 0.0517(13) 0.0845(12) 0.0273(8)
H56? H 0.0009 0.0602 0.0041
H57? H 0.0641 0.1264 0.0036
H58? H 0.1024 0.0532 0.0321
loop_
_geom_bond_atom_site_label_1
_geom_bond_atom_site_label_2
_geom_bond_site_symmetry_1
_geom_bond_site_symmetry_2
S1 C1 1_555 1_555
C1 C2 1_555 1_555
C2 H1 1_555 1_555
C3 C2 1_555 1_555
H2 C3 1_555 1_555
C4 S1 1_555 1_555
S3 C18 1_555 1_555
O1 H86 1_555 1_555
N1 H5 1_555 1_555
N2 H6 1_555 1_555
N3 H7 1_555 1_555
N4 H8 1_555 1_555
C9 N1 1_555 1_555
C10 C9 1_555 1_555
H9 C10 1_555 1_555
C11 C10 1_555 1_555
H10 C11 1_555 1_555
C12 N1 1_555 1_555
C13 N2 1_555 1_555
C14 C13 1_555 1_555
H11 C14 1_555 1_555
C15 C14 1_555 1_555
H12 C15 1_555 1_555
C16 N2 1_555 1_555
C17 C16 1_555 1_555
C18 C17 1_555 1_555
C19 C18 1_555 1_555
H13 C19 1_555 1_555
C20 C19 1_555 1_555
H14 C20 1_555 1_555
C21 S3 1_555 1_555
C22 C21 1_555 1_555
C23 N3 1_555 1_555
C24 C23 1_555 1_555
H15 C24 1_555 1_555
C25 C24 1_555 1_555
H16 C25 1_555 1_555
C26 N3 1_555 1_555
C27 N4 1_555 1_555
C28 C27 1_555 1_555
H17 C28 1_555 1_555
C29 C28 1_555 1_555
H18 C29 1_555 1_555
C30 N4 1_555 1_555
C31 C1 1_555 1_555
C32 C4 1_555 1_555
C33 C17 1_555 1_555
H19 C33 1_555 1_555
H20 C33 1_555 1_555
H21 C33 1_555 1_555
C34 C17 1_555 1_555
H22 C34 1_555 1_555
H23 C34 1_555 1_555
H24 C34 1_555 1_555
C35 C22 1_555 1_555
H25 C35 1_555 1_555
H26 C35 1_555 1_555
H27 C35 1_555 1_555
C36 C22 1_555 1_555
H28 C36 1_555 1_555
H29 C36 1_555 1_555
H30 C36 1_555 1_555
C37 C31 1_555 1_555
H31 C37 1_555 1_555
H32 C37 1_555 1_555
H33 C37 1_555 1_555
C38 C31 1_555 1_555
H34 C38 1_555 1_555
H35 C38 1_555 1_555
H36 C38 1_555 1_555
C39 C32 1_555 1_555
H37 C39 1_555 1_555
H38 C39 1_555 1_555
H39 C39 1_555 1_555
C40 C32 1_555 1_555
H40 C40 1_555 1_555
H41 C40 1_555 1_555
H42 C40 1_555 1_555
N5 C41 1_555 1_555
C41 H43 1_555 1_555
H44 C41 1_555 1_555
C42 C41 1_555 1_555
H47 C42 1_555 1_555
H48 C42 1_555 1_555
C43 C42 1_555 1_555
H49 C43 1_555 1_555
H50 C43 1_555 1_555
C44 C43 1_555 1_555
H51 C44 1_555 1_555
H52 C44 1_555 1_555
H53 C44 1_555 1_555
C47 N5 1_555 1_555
H59 C47 1_555 1_555
H60 C47 1_555 1_555
C48 C47 1_555 1_555
H61 C48 1_555 1_555
H62 C48 1_555 1_555
C49 C48 1_555 1_555
H63 C49 1_555 1_555
H64 C49 1_555 1_555
C50 C49 1_555 1_555
H65 C50 1_555 1_555
H66 C50 1_555 1_555
H67 C50 1_555 1_555
C51 N5 1_555 1_555
H68 C51 1_555 1_555
H69 C51 1_555 1_555
C52 C51 1_555 1_555
H70 C52 1_555 1_555
H71 C52 1_555 1_555
C53 C52 1_555 1_555
H72 C53 1_555 1_555
H73 C53 1_555 1_555
C54 C53 1_555 1_555
H74 C54 1_555 1_555
H75 C54 1_555 1_555
H76 C54 1_555 1_555
C55 N5 1_555 1_555
H77 C55 1_555 1_555
H78 C55 1_555 1_555
C56 C55 1_555 1_555
H79 C56 1_555 1_555
H80 C56 1_555 1_555
C57 C56 1_555 1_555
H81 C57 1_555 1_555
H82 C57 1_555 1_555
C58 C57 1_555 1_555
H83 C58 1_555 1_555
H84 C58 1_555 1_555
H85 C58 1_555 1_555
H87 O1 1_555 1_555
C3 C4 1_555 1_555
C9 C32 1_555 1_555
C11 C12 1_555 1_555
C12 C13 1_555 1_555
C15 C16 1_555 1_555
C20 C21 1_555 1_555
C22 C23 1_555 1_555
C25 C26 1_555 1_555
C26 C27 1_555 1_555
C29 C30 1_555 1_555
C30 C31 1_555 1_555

#END
