
#######################################################################
#
#                 Cambridge Crystallographic Data Centre
#                                CCDC 
#
#######################################################################
#
# If this CIF has been generated from an entry in the Cambridge 
# Structural Database, then it will include bibliographic, chemical, 
# crystal, experimental, refinement or atomic coordinate data resulting 
# from the CCDC's data processing and validation procedures.
#
#######################################################################

data_FOJQAX
_chemical_name_common            
'Tetra-n-butylammonium 2,2,5,5,7,7,10,10-octamethyl-1,6(2,5)-dithiophena-3,4,8,9(2,5)-tetrapyrrolacyclodecaphane acetate clathrate dichloromethane solvate'
_chemical_formula_moiety         
'C36 H40 N4 S2,C16 H36 N1 1+,C2 H3 O2 1-,C1 H2 Cl2'
_chemical_name_systematic        
'Tetra-n-butylammonium octamethylcalix(2)bipyrrole(2)thiophene acetate clathrate dichloromethane solvate'
_symmetry_cell_setting           triclinic
_symmetry_space_group_name_H-M   'P -1'
_symmetry_Int_Tables_number      2
_space_group_name_Hall           '-P 1'
loop_
_symmetry_equiv_pos_site_id
_symmetry_equiv_pos_as_xyz
1 x,y,z
2 -x,-y,-z
_cell_length_a                   12.0220(2)
_cell_length_b                   14.4610(2)
_cell_length_c                   17.7050(3)
_cell_angle_alpha                70.8010(9)
_cell_angle_beta                 88.9990(8)
_cell_angle_gamma                72.4930(8)
_cell_volume                     2760.82
_exptl_crystal_colour            colorless
_exptl_crystal_description       plates
_cell_formula_units_Z            2
_exptl_crystal_recrystallization_method dichloromethane/hexanes
loop_
_atom_site_label
_atom_site_type_symbol
_atom_site_fract_x
_atom_site_fract_y
_atom_site_fract_z
S1 S 1.04911(8) 0.35456(7) 0.61338(5)
S2 S 0.65145(7) 0.03001(7) 0.84745(5)
N1 N 1.1724(3) 0.0274(2) 0.75942(16)
N2 N 1.0267(3) -0.0931(2) 0.84281(16)
N3 N 0.6391(2) 0.3184(2) 0.86419(16)
N4 N 0.7821(2) 0.4428(2) 0.77278(15)
C1 C 1.0029(3) 0.4105(2) 0.6853(2)
C2 C 1.0668(3) 0.3515(3) 0.7559(2)
H1 H 1.0558 0.3711 0.8029
C3 C 1.1522(3) 0.2604(3) 0.7535(2)
H2 H 1.2024 0.2094 0.7993
C4 C 1.1538(3) 0.2507(2) 0.67906(18)
C5 C 1.2314(3) 0.1630(2) 0.65397(19)
C6 C 1.2604(3) 0.0649(3) 0.72489(19)
C7 C 1.3627(3) -0.0034(3) 0.7675(2)
H3 H 1.4394 0.0021 0.7565
C8 C 1.3368(3) -0.0828(3) 0.82819(19)
H4 H 1.3923 -0.1410 0.8669
C9 C 1.2176(3) -0.0637(2) 0.82362(19)
C10 C 1.1440(3) -0.1213(2) 0.86682(18)
C11 C 1.1685(3) -0.2116(2) 0.93023(18)
H5 H 1.2436 -0.2497 0.9599
C12 C 1.0644(3) -0.2377(2) 0.94442(19)
H6 H 1.0547 -0.2972 0.9852
C13 C 0.9775(3) -0.1638(2) 0.88997(19)
C14 C 0.8492(3) -0.1488(2) 0.87609(18)
C15 C 0.7788(2) -0.0577(2) 0.90075(17)
C16 C 0.8018(3) -0.0341(2) 0.96533(18)
H7 H 0.8690 -0.0748 1.0032
C17 C 0.7179(3) 0.0546(2) 0.97153(18)
H8 H 0.7219 0.0811 1.0142
C18 C 0.6304(3) 0.0997(2) 0.91179(17)
C19 C 0.5246(3) 0.1933(2) 0.90098(17)
C20 C 0.5615(3) 0.2790(2) 0.91171(17)
C21 C 0.5246(3) 0.3389(2) 0.95951(18)
H9 H 0.4703 0.3294 0.9996
C22 C 0.5816(3) 0.4148(2) 0.93994(18)
H10 H 0.5724 0.4677 0.9631
C23 C 0.6531(3) 0.4011(2) 0.88088(17)
C24 C 0.7258(3) 0.4600(2) 0.83783(18)
C25 C 0.7499(3) 0.5432(2) 0.8461(2)
H11 H 0.7231 0.5731 0.8867
C26 C 0.8205(3) 0.5765(2) 0.7847(2)
H12 H 0.8503 0.6334 0.7760
C27 C 0.8400(3) 0.5131(2) 0.73974(19)
C28 C 0.9043(3) 0.5120(3) 0.6666(2)
C29 C 1.1660(3) 0.1516(3) 0.58474(18)
H13 H 1.0943 0.1385 0.6017
H14 H 1.1489 0.2136 0.5389
H15 H 1.2151 0.0948 0.5707
C30 C 1.3445(3) 0.1864(3) 0.6246(2)
H16 H 1.3858 0.1946 0.6666
H17 H 1.3925 0.1294 0.6103
H18 H 1.3263 0.2482 0.5785
C31 C 0.8180(3) -0.1294(3) 0.78679(19)
H19 H 0.8357 -0.0687 0.7543
H20 H 0.8626 -0.1873 0.7723
H21 H 0.7359 -0.1193 0.7782
C32 C 0.8209(3) -0.2463(2) 0.9280(2)
H22 H 0.8407 -0.2590 0.9836
H23 H 0.7388 -0.2363 0.9195
H24 H 0.8655 -0.3043 0.9136
C33 C 0.4607(3) 0.2319(2) 0.81657(18)
H25 H 0.5127 0.2509 0.7768
H26 H 0.4350 0.1788 0.8086
H27 H 0.3941 0.2910 0.8117
C34 C 0.4384(3) 0.1637(3) 0.9628(2)
H28 H 0.4765 0.1384 1.0161
H29 H 0.3720 0.2233 0.9569
H30 H 0.4129 0.1111 0.9538
C35 C 0.8182(3) 0.5276(3) 0.59653(19)
H31 H 0.7840 0.4728 0.6101
H32 H 0.7576 0.5922 0.5865
H33 H 0.8589 0.5288 0.5493
C36 C 0.9588(3) 0.6014(3) 0.6416(2)
H34 H 1.0132 0.5914 0.6849
H35 H 0.9991 0.6023 0.5942
H36 H 0.8977 0.6658 0.6314
H40 H 1.103(2) 0.056(2) 0.7466(15)
H41 H 0.987(3) -0.034(2) 0.8132(17)
H42 H 0.676(2) 0.295(2) 0.8315(16)
H43 H 0.781(2) 0.3945(19) 0.7586(14)
O1 O 0.92263(17) 0.11532(15) 0.74041(12)
O2 O 0.78513(19) 0.25471(16) 0.74987(12)
C37 C 0.8766(3) 0.1788(3) 0.77682(18)
C38 C 0.9356(3) 0.1588(2) 0.85813(17)
H37 H 1.0093 0.1050 0.8679
H38 H 0.8854 0.1394 0.8991
H39 H 0.9476 0.2210 0.8595
N5 N 0.6517(3) 0.3190(3) 0.2812(2)
C39 C 0.6776(4) 0.3741(4) 0.1971(3)
H44 H 0.6084 0.4292 0.1699
H45 H 0.6935 0.3249 0.1696
C40 C 0.7760(4) 0.4174(4) 0.1878(3)
H46 H 0.8479 0.3629 0.2101
H47 H 0.7636 0.4655 0.2162
C41 C 0.7832(4) 0.4739(3) 0.0946(3)
H48 H 0.7160 0.5341 0.0744
H49 H 0.7828 0.4284 0.0655
C42 C 0.8879(5) 0.5035(4) 0.0828(3)
H50 H 0.8918 0.5375 0.0267
H51 H 0.8875 0.5493 0.1117
H52 H 0.9548 0.4428 0.1027
C43 C 0.5527(4) 0.2788(3) 0.2737(3)
H53 H 0.5766 0.2317 0.2445
H54 H 0.4877 0.3358 0.2425
C44 C 0.5092(4) 0.2261(3) 0.3497(2)
H55 H 0.4750 0.2744 0.3765
H56 H 0.5746 0.1729 0.3837
C45 C 0.4200(4) 0.1801(3) 0.3335(3)
H57 H 0.4553 0.1317 0.3070
H58 H 0.3564 0.2338 0.2979
C46 C 0.3720(5) 0.1259(4) 0.4075(3)
H59 H 0.3154 0.0974 0.3945
H60 H 0.4353 0.0715 0.4428
H61 H 0.3355 0.1745 0.4336
C47 C 0.6276(6) 0.3813(5) 0.3349(3)
H62 H 0.6954 0.4004 0.3426
H63 H 0.6122 0.3399 0.3863
C48 C 0.5297(5) 0.4741(4) 0.3045(3)
H64 H 0.4652 0.4554 0.2899
H65 H 0.5493 0.5195 0.2568
C49 C 0.4937(5) 0.5343(4) 0.3679(2)
H66 H 0.4679 0.4910 0.4137
H67 H 0.4293 0.5958 0.3437
C50 C 0.5878(6) 0.5664(4) 0.3966(3)
H68 H 0.5622 0.6015 0.4344
H69 H 0.6518 0.5048 0.4216
H70 H 0.6129 0.6107 0.3510
C51 C 0.7625(6) 0.2500(6) 0.3428(4)
H71 H 0.7369 0.2183 0.3938
H72 H 0.8107 0.2892 0.3500
C52 C 0.8297(8) 0.1662(6) 0.3139(6)
H73 H 0.8579 0.1984 0.2642
H74 H 0.7791 0.1308 0.3034
C55 C 0.9365(4) 0.0916(3) 0.3745(2)
H79 H 0.9747 0.0417 0.3499
H80 H 0.9041 0.0557 0.4206
C56 C 1.0326(5) 0.1141(4) 0.4081(3)
H81 H 1.1025 0.0558 0.4230
H82 H 1.0084 0.1340 0.4539
H83 H 1.0473 0.1716 0.3680
Cl1 Cl 0.7948(3) 0.2853(2) 0.53697(16)
Cl2 Cl 0.6500(2) 0.1518(3) 0.55861(13)
C57 C 0.7325(5) 0.1941(3) 0.6085(3)
C53? C 0.7532(8) 0.2052(7) 0.3074(7)
H75? H 0.7701 0.1856 0.2606
H76? H 0.7229 0.1557 0.3449
C54? C 0.8593(7) 0.2059(6) 0.3446(6)
H77? H 0.8422 0.2325 0.3880
H78? H 0.8967 0.2477 0.3056
Cl3? Cl 0.5965(8) 0.2546(15) 0.5595(9)
Cl4? Cl 0.7301(12) 0.3091(6) 0.5367(6)
Cl5? Cl 0.7081(13) 0.1095(8) 0.5637(8)
Cl6? Cl 0.8438(13) 0.1356(18) 0.5652(12)
loop_
_geom_bond_atom_site_label_1
_geom_bond_atom_site_label_2
_geom_bond_site_symmetry_1
_geom_bond_site_symmetry_2
S1 C1 1_555 1_555
S2 C15 1_555 1_555
N1 C6 1_555 1_555
N2 C10 1_555 1_555
N3 C20 1_555 1_555
N4 C24 1_555 1_555
C1 C2 1_555 1_555
C2 H1 1_555 1_555
C3 C2 1_555 1_555
H2 C3 1_555 1_555
C4 S1 1_555 1_555
C5 C4 1_555 1_555
C6 C5 1_555 1_555
C7 C6 1_555 1_555
H3 C7 1_555 1_555
C8 C7 1_555 1_555
H4 C8 1_555 1_555
C9 N1 1_555 1_555
C10 C9 1_555 1_555
C11 C10 1_555 1_555
H5 C11 1_555 1_555
C12 C11 1_555 1_555
H6 C12 1_555 1_555
C13 N2 1_555 1_555
C14 C13 1_555 1_555
C15 C14 1_555 1_555
C16 C15 1_555 1_555
H7 C16 1_555 1_555
C17 C16 1_555 1_555
H8 C17 1_555 1_555
C18 S2 1_555 1_555
C19 C18 1_555 1_555
C20 C19 1_555 1_555
C21 C20 1_555 1_555
H9 C21 1_555 1_555
C22 C21 1_555 1_555
H10 C22 1_555 1_555
C23 N3 1_555 1_555
C24 C23 1_555 1_555
C25 C24 1_555 1_555
H11 C25 1_555 1_555
C26 C25 1_555 1_555
H12 C26 1_555 1_555
C27 N4 1_555 1_555
C28 C1 1_555 1_555
C29 C5 1_555 1_555
H13 C29 1_555 1_555
H14 C29 1_555 1_555
H15 C29 1_555 1_555
C30 C5 1_555 1_555
H16 C30 1_555 1_555
H17 C30 1_555 1_555
H18 C30 1_555 1_555
C31 C14 1_555 1_555
H19 C31 1_555 1_555
H20 C31 1_555 1_555
H21 C31 1_555 1_555
C32 C14 1_555 1_555
H22 C32 1_555 1_555
H23 C32 1_555 1_555
H24 C32 1_555 1_555
C33 C19 1_555 1_555
H25 C33 1_555 1_555
H26 C33 1_555 1_555
H27 C33 1_555 1_555
C34 C19 1_555 1_555
H28 C34 1_555 1_555
H29 C34 1_555 1_555
H30 C34 1_555 1_555
C35 C28 1_555 1_555
H31 C35 1_555 1_555
H32 C35 1_555 1_555
H33 C35 1_555 1_555
C36 C28 1_555 1_555
H34 C36 1_555 1_555
H35 C36 1_555 1_555
H36 C36 1_555 1_555
O1 C37 1_555 1_555
O2 C37 1_555 1_555
C37 C38 1_555 1_555
C38 H37 1_555 1_555
H38 C38 1_555 1_555
H39 C38 1_555 1_555
H40 N1 1_555 1_555
H41 N2 1_555 1_555
H42 N3 1_555 1_555
H43 N4 1_555 1_555
N5 C39 1_555 1_555
C39 H44 1_555 1_555
H45 C39 1_555 1_555
C40 C39 1_555 1_555
H46 C40 1_555 1_555
H47 C40 1_555 1_555
C41 C40 1_555 1_555
H48 C41 1_555 1_555
H49 C41 1_555 1_555
C42 C41 1_555 1_555
H50 C42 1_555 1_555
H51 C42 1_555 1_555
H52 C42 1_555 1_555
C43 N5 1_555 1_555
H53 C43 1_555 1_555
H54 C43 1_555 1_555
C44 C43 1_555 1_555
H55 C44 1_555 1_555
H56 C44 1_555 1_555
C45 C44 1_555 1_555
H57 C45 1_555 1_555
H58 C45 1_555 1_555
C46 C45 1_555 1_555
H59 C46 1_555 1_555
H60 C46 1_555 1_555
H61 C46 1_555 1_555
C47 N5 1_555 1_555
H62 C47 1_555 1_555
H63 C47 1_555 1_555
C48 C47 1_555 1_555
H64 C48 1_555 1_555
H65 C48 1_555 1_555
C49 C48 1_555 1_555
H66 C49 1_555 1_555
H67 C49 1_555 1_555
C50 C49 1_555 1_555
H68 C50 1_555 1_555
H69 C50 1_555 1_555
H70 C50 1_555 1_555
C51 N5 1_555 1_555
H71 C51 1_555 1_555
H72 C51 1_555 1_555
C52 C51 1_555 1_555
H73 C52 1_555 1_555
H74 C52 1_555 1_555
C55 C52 1_555 1_555
H79 C55 1_555 1_555
H80 C55 1_555 1_555
C56 C55 1_555 1_555
H81 C56 1_555 1_555
H82 C56 1_555 1_555
H83 C56 1_555 1_555
Cl1 C57 1_555 1_555
Cl2 C57 1_555 1_555
C3 C4 1_555 1_555
C8 C9 1_555 1_555
C12 C13 1_555 1_555
C17 C18 1_555 1_555
C22 C23 1_555 1_555
C26 C27 1_555 1_555
C27 C28 1_555 1_555

#END
