
#######################################################################
#
#                 Cambridge Crystallographic Data Centre
#                                CCDC 
#
#######################################################################
#
# If this CIF has been generated from an entry in the Cambridge 
# Structural Database, then it will include bibliographic, chemical, 
# crystal, experimental, refinement or atomic coordinate data resulting 
# from the CCDC's data processing and validation procedures.
#
#######################################################################

data_FOJREB
_chemical_formula_moiety         'C10 H14 N4 O2 S1'
_chemical_name_systematic        
2,2'-bis(Dimethylaminomethylene)-2,2'-sulfonyldiacetonitrile
_symmetry_cell_setting           monoclinic
_symmetry_space_group_name_H-M   'P 21/n'
_symmetry_Int_Tables_number      14
_space_group_name_Hall           '-P 2yn'
loop_
_symmetry_equiv_pos_site_id
_symmetry_equiv_pos_as_xyz
1 x,y,z
2 1/2-x,1/2+y,1/2-z
3 -x,-y,-z
4 1/2+x,1/2-y,1/2+z
_cell_length_a                   14.335(6)
_cell_length_b                   7.614(4)
_cell_length_c                   24.36(1)
_cell_angle_alpha                90
_cell_angle_beta                 107.54(3)
_cell_angle_gamma                90
_cell_volume                     2535.2
_exptl_crystal_colour            colorless
_chemical_melting_point          461K
_cell_formula_units_Z            8
loop_
_atom_site_label
_atom_site_type_symbol
_atom_site_fract_x
_atom_site_fract_y
_atom_site_fract_z
S1 S 0.4932(1) 0.9487(1) 0.37757(4)
O1 O 0.5138(2) 1.0723(3) 0.4241(1)
O2 O 0.5217(2) 0.9858(4) 0.3275(1)
N1 N 0.6185(2) 0.5956(4) 0.4961(1)
N2 N 0.2277(2) 0.8814(4) 0.2673(1)
N3 N 0.5451(3) 0.5265(6) 0.3276(2)
N4 N 0.2953(3) 0.9264(6) 0.4376(2)
C1 C 0.5468(2) 0.7498(2) 0.4061(1)
C2 C 0.5753(2) 0.7287(5) 0.4648(1)
C3 C 0.3667(3) 0.9172(5) 0.3539(2)
C4 C 0.3209(3) 0.8994(5) 0.2959(1)
C5 C 0.5483(3) 0.6224(6) 0.3635(2)
C6 C 0.6361(3) 0.5961(7) 0.5588(2)
C7 C 0.6549(4) 0.4415(6) 0.4723(2)
C8 C 0.3241(3) 0.9206(5) 0.3990(2)
C9 C 0.1502(3) 0.8756(8) 0.2951(2)
C10 C 0.1955(3) 0.8827(7) 0.2041(2)
H1 H 0.560(2) 0.817(4) 0.486(1)
H2 H 0.360(2) 0.903(4) 0.271(1)
H3 H 0.6723(3) 0.476(1) 0.5770(2)
H4 H 0.5671(3) 0.606(1) 0.5680(2)
H5 H 0.6828(3) 0.707(1) 0.5776(2)
H6 H 0.6885(4) 0.350(1) 0.5065(2)
H7 H 0.7091(4) 0.483(1) 0.4523(2)
H8 H 0.5948(4) 0.379(1) 0.4406(2)
H9 H 0.0802(3) 0.860(1) 0.2627(2)
H10 H 0.1505(3) 0.996(1) 0.3184(2)
H11 H 0.1627(3) 0.766(1) 0.3246(2)
H12 H 0.1170(3) 0.866(1) 0.1885(2)
H13 H 0.2303(3) 0.766(1) 0.1884(2)
H14 H 0.2153(3) 1.006(1) 0.1894(2)
S2 S 0.4403(1) 0.8939(1) 0.13343(4)
O3 O 0.4184(2) 0.8638(4) 0.1864(1)
O4 O 0.3736(2) 1.0009(3) 0.0907(1)
N5 N 0.6786(2) 1.1288(4) 0.2321(1)
N6 N 0.3765(2) 0.5293(4) 0.0121(1)
N7 N 0.6219(3) 1.0243(6) 0.0655(2)
N8 N 0.5645(3) 0.4793(5) 0.1692(2)
C11 C 0.5569(3) 0.9871(5) 0.1518(2)
C12 C 0.5966(2) 1.0450(4) 0.2075(2)
C13 C 0.4477(2) 0.6927(4) 0.1012(1)
C14 C 0.3916(3) 0.6686(5) 0.0445(2)
C15 C 0.5941(3) 1.0101(5) 0.1045(2)
C16 C 0.6980(3) 1.1949(6) 0.2912(2)
C17 C 0.7484(3) 1.1860(6) 0.2024(2)
C18 C 0.5107(3) 0.5709(5) 0.1376(2)
C19 C 0.3057(3) 0.5348(7) -0.0458(2)
C20 C 0.4155(3) 0.3572(5) 0.0326(2)
H15 H 0.559(2) 1.011(1) 0.232(1)
H16 H 0.358(2) 0.768(5) 0.027(1)
H17 H 0.7681(3) 1.260(1) 0.3044(2)
H18 H 0.6982(3) 1.087(1) 0.3202(2)
H19 H 0.6411(3) 1.287(1) 0.2933(2)
H20 H 0.8093(3) 1.252(1) 0.2334(2)
H21 H 0.7132(3) 1.276(1) 0.1683(2)
H22 H 0.7756(3) 1.073(1) 0.1842(2)
H23 H 0.3031(3) 0.408(1) -0.0661(2)
H24 H 0.3282(3) 0.633(1) -0.0712(2)
H25 H 0.234(2) 0.567(4) -0.043(1)
H26 H 0.3933(3) 0.263(1) -0.0023(2)
H27 H 0.3881(3) 0.317(1) 0.0672(2)
H28 H 0.4943(3) 0.363(1) 0.0481(2)
loop_
_geom_bond_atom_site_label_1
_geom_bond_atom_site_label_2
_geom_bond_site_symmetry_1
_geom_bond_site_symmetry_2
S1 O1 1_555 1_555
O2 S1 1_555 1_555
N1 C2 1_555 1_555
N2 C4 1_555 1_555
N3 C5 1_555 1_555
N4 C8 1_555 1_555
C1 S1 1_555 1_555
C2 C1 1_555 1_555
C3 S1 1_555 1_555
C4 C3 1_555 1_555
C5 C1 1_555 1_555
C6 N1 1_555 1_555
C7 N1 1_555 1_555
C8 C3 1_555 1_555
C9 N2 1_555 1_555
C10 N2 1_555 1_555
H1 C2 1_555 1_555
H2 C4 1_555 1_555
H3 C6 1_555 1_555
H4 C6 1_555 1_555
H5 C6 1_555 1_555
H6 C7 1_555 1_555
H7 C7 1_555 1_555
H8 C7 1_555 1_555
H9 C9 1_555 1_555
H10 C9 1_555 1_555
H11 C9 1_555 1_555
H12 C10 1_555 1_555
H13 C10 1_555 1_555
H14 C10 1_555 1_555
S2 O3 1_555 1_555
O4 S2 1_555 1_555
N5 C12 1_555 1_555
N6 C14 1_555 1_555
N7 C15 1_555 1_555
N8 C18 1_555 1_555
C11 S2 1_555 1_555
C12 C11 1_555 1_555
C13 S2 1_555 1_555
C14 C13 1_555 1_555
C15 C11 1_555 1_555
C16 N5 1_555 1_555
C17 N5 1_555 1_555
C18 C13 1_555 1_555
C19 N6 1_555 1_555
C20 N6 1_555 1_555
H15 C12 1_555 1_555
H16 C14 1_555 1_555
H17 C16 1_555 1_555
H18 C16 1_555 1_555
H19 C16 1_555 1_555
H20 C17 1_555 1_555
H21 C17 1_555 1_555
H22 C17 1_555 1_555
H23 C19 1_555 1_555
H24 C19 1_555 1_555
H25 C19 1_555 1_555
H26 C20 1_555 1_555
H27 C20 1_555 1_555
H28 C20 1_555 1_555

#END
